drugbank_target|P35368 Alpha-1B adrenergic receptor (DB00211; DB00246; DB00248; DB00298; DB00321; DB00334; DB00346; DB00363; DB00368; DB00388; DB00408; DB00457; DB00458; DB00477; DB00540; DB00575; DB00590; DB00622; DB00661; DB00668; DB00679; DB00692; DB00696; DB00706; DB00723; DB00726; DB00734; DB00745; DB00800; DB00908; DB00925; DB00935; DB01136; DB01142; DB01149; DB01162; DB01186; DB01200; DB01238; DB01267; DB01403; DB01576; DB01579; DB01608; DB01614; DB01622; DB04855; DB05469; DB05492; DB06144; DB06153; DB06207; DB06229; DB06262; DB06694; DB09128; DB09202; DB11124; DB14185)
 OpenBabel12092119343D

  0  0  0     0  0            999 V3000
M  V30 BEGIN CTAB
M  V30 COUNTS 8075 8178 0 0 0
M  V30 BEGIN ATOM
M  V30 1 H -0.908 1.98254 -0.117106 0
M  V30 2 N 0 1.576 0 0
M  V30 3 C 0.933 2.03868 1.02534 0
M  V30 4 C 1.911 0.928543 1.3348 0
M  V30 5 O 3.095 1.19667 1.45644 0
M  V30 6 C 0.222 2.43627 2.35294 0
M  V30 7 C -0.732 3.65373 2.2001 0
M  V30 8 S 0.101 5.13292 1.52614 0
M  V30 9 C 1.257 5.56322 2.86805 0
M  V30 10 H 1.49 2.90518 0.631377 0
M  V30 11 H -0.977 1.52953 0.210867 0
M  V30 12 H 0.981 2.67203 3.11629 0
M  V30 13 H -0.358 1.57376 2.7183 0
M  V30 14 H -1.165 3.90944 3.18086 0
M  V30 15 H -1.563 3.418 1.51819 0
M  V30 16 H 0.729 5.58782 3.83104 0
M  V30 17 H 1.672 6.56266 2.65933 0
M  V30 18 H 2.08 4.83886 2.90714 0
M  V30 19 N 1.4781 -0.272755 1.55222 0
M  V30 20 C 2.4261 -1.35705 1.88909 0
M  V30 21 C 3.4201 -1.5112 0.765456 0
M  V30 22 O 4.6261 -1.52901 0.949802 0
M  V30 23 H 1.0011 -0.453868 0.59959 0
M  V30 24 H 2.9721 -1.04544 2.79487 0
M  V30 25 C 1.7211 -2.71049 2.17779 0
M  V30 26 H 1.0441 -2.59979 3.03728 0
M  V30 27 H 2.4841 -3.45858 2.45272 0
M  V30 28 C 0.9431 -3.22165 0.985473 0
M  V30 29 O 1.4731 -4.01096 0.220233 0
M  V30 30 N -0.3209 -2.7985 0.783108 0
M  V30 31 H -0.7739 -2.15775 1.40708 0
M  V30 32 H -0.8159 -3.14397 -0.0130392 0
M  V30 33 N 2.9562 -1.48159 -0.537278 0
M  V30 34 C 4.3672 -1.49429 -1.11928 0
M  V30 35 C 4.7182 -0.26 -1.9447 0
M  V30 36 O 3.8432 0.633489 -2.0692 0
M  V30 37 C 4.4382 -2.70758 -2.03656 0
M  V30 38 C 2.9972 -2.74923 -2.57088 0
M  V30 39 C 2.1442 -2.42835 -1.3389 0
M  V30 40 H 5.0952 -1.55381 -0.322886 0
M  V30 41 H 5.1162 -2.48861 -2.87834 0
M  V30 42 H 4.6282 -3.60575 -1.43553 0
M  V30 43 H 2.7292 -1.89296 -3.20933 0
M  V30 44 H 2.8422 -3.76157 -2.9672 0
M  V30 45 H 1.2062 -1.93836 -1.65226 0
M  V30 46 H 1.9892 -3.34884 -0.755504 0
M  V30 47 N 4.4343 0.785586 -1.36625 0
M  V30 48 C 5.7113 1.53198 -1.21613 0
M  V30 49 C 6.0913 2.10187 0.196113 0
M  V30 50 O 5.4393 1.94318 1.20219 0
M  V30 51 C 5.6493 2.62388 -2.30116 0
M  V30 52 C 6.9973 3.30167 -2.66974 0
M  V30 53 O 8.0213 2.72674 -2.29188 0
M  V30 54 O 6.8803 4.34077 -3.32023 0
M  V30 55 H 3.9743 0.677865 -0.473738 0
M  V30 56 H 6.5203 0.823739 -1.48367 0
M  V30 57 H 5.2923 2.18299 -3.24748 0
M  V30 58 H 4.9153 3.40827 -2.0475 0
M  V30 59 N 5.9124 1.20967 1.01018 0
M  V30 60 C 6.8424 0.988272 2.11555 0
M  V30 61 C 7.8234 -0.0849778 1.69888 0
M  V30 62 O 9.0084 0.0738202 1.9406 0
M  V30 63 C 6.1384 0.546528 3.42973 0
M  V30 64 C 5.0924 1.56375 3.9841 0
M  V30 65 C 4.4184 0.97842 5.25672 0
M  V30 66 C 5.7184 2.94922 4.31066 0
M  V30 67 H 7.4124 1.91276 2.30334 0
M  V30 68 H 4.9584 0.921073 1.1069 0
M  V30 69 H 6.9114 0.378839 4.19694 0
M  V30 70 H 5.6354 -0.413598 3.23971 0
M  V30 71 H 4.2944 1.71891 3.23804 0
M  V30 72 H 3.9424 0.0101688 5.02999 0
M  V30 73 H 3.6424 1.65784 5.63728 0
M  V30 74 H 5.1664 0.821939 6.05043 0
M  V30 75 H 6.5804 2.8288 4.9865 0
M  V30 76 H 4.9774 3.5983 4.80253 0
M  V30 77 H 6.0474 3.4616 3.39561 0
M  V30 78 N 7.3905 -1.2043 1.01659 0
M  V30 79 C 8.6675 -1.8548 0.621004 0
M  V30 80 C 9.0475 -1.9091 -0.900919 0
M  V30 81 O 8.3955 -1.41694 -1.79263 0
M  V30 82 C 8.6055 -3.25119 1.2688 0
M  V30 83 C 9.9535 -4.01403 1.38423 0
M  V30 84 O 10.9775 -3.34473 1.22501 0
M  V30 85 O 9.8365 -5.21265 1.64151 0
M  V30 86 H 6.9305 -0.798761 0.214266 0
M  V30 87 H 9.4765 -1.28019 1.11396 0
M  V30 88 H 8.2485 -3.15932 2.30873 0
M  V30 89 H 7.8715 -3.90212 0.762917 0
M  V30 90 N 8.8686 -0.792821 -1.36206 0
M  V30 91 C 10.0966 -0.378825 -2.03402 0
M  V30 92 C 10.5116 1.00586 -1.59774 0
M  V30 93 O 9.8686 1.64574 -0.788764 0
M  V30 94 C 9.9196 -0.43683 -3.58851 0
M  V30 95 O 9.6406 -1.76691 -4.00889 0
M  V30 96 C 11.1416 -0.0138943 -4.43298 0
M  V30 97 H 8.3616 -0.155673 -0.652692 0
M  V30 98 H 10.9056 -1.07261 -1.74113 0
M  V30 99 H 9.0606 0.208575 -3.86838 0
M  V30 100 H 9.4746 -1.72011 -4.95492 0
M  V30 101 H 10.9486 -0.105615 -5.51899 0
M  V30 102 H 11.4256 1.03915 -4.2673 0
M  V30 103 H 12.0316 -0.63192 -4.20579 0
M  V30 104 N 10.3467 1.47872 -0.545128 0
M  V30 105 C 11.5947 2.02093 -0.016553 0
M  V30 106 C 11.9157 1.42305 1.3332 0
M  V30 107 O 11.1857 0.593853 1.86682 0
M  V30 108 H 9.7657 0.746993 -0.00313038 0
M  V30 109 H 12.4277 1.81414 -0.712397 0
M  V30 110 H 11.5237 3.11996 0.0805422 0
M  V30 111 N 11.8248 0.280983 1.55075 0
M  V30 112 C 12.7748 -0.618585 2.19448 0
M  V30 113 C 13.7588 -1.11401 1.16098 0
M  V30 114 O 14.9508 -1.0581 1.41891 0
M  V30 115 C 12.0798 -1.79951 2.92357 0
M  V30 116 C 11.1658 -1.321 4.03002 0
M  V30 117 N 11.5568 -0.559044 5.02701 0
M  V30 118 C 9.8548 -1.60346 4.16179 0
M  V30 119 C 10.5558 -0.306722 5.80891 0
M  V30 120 N 9.5318 -0.880825 5.36416 0
M  V30 121 H 13.3338 -0.0286638 2.93886 0
M  V30 122 H 10.8478 0.0848104 1.62178 0
M  V30 123 H 12.8448 -2.45531 3.36927 0
M  V30 124 H 11.5048 -2.39333 2.19431 0
M  V30 125 H 12.5158 -0.205827 5.17491 0
M  V30 126 H 9.1928 -2.20621 3.54447 0
M  V30 127 H 10.5828 0.30391 6.71212 0
M  V30 128 N 13.3029 -1.57598 0.00835791 0
M  V30 129 C 14.2509 -2.10078 -0.998508 0
M  V30 130 C 15.2449 -1.02262 -1.35051 0
M  V30 131 O 16.4509 -1.20719 -1.33518 0
M  V30 132 H 12.8259 -0.670903 -0.339696 0
M  V30 133 H 14.7969 -2.93648 -0.530398 0
M  V30 134 C 13.5459 -2.62615 -2.27879 0
M  V30 135 H 12.8689 -3.45213 -2.01662 0
M  V30 136 H 14.3089 -3.03004 -2.96588 0
M  V30 137 C 12.7679 -1.54407 -2.99433 0
M  V30 138 O 13.2979 -0.931812 -3.90743 0
M  V30 139 N 11.5039 -1.2695 -2.61404 0
M  V30 140 H 11.0509 -1.76924 -1.87232 0
M  V30 141 H 11.0089 -0.547704 -3.09593 0
M  V30 142 N 14.781 0.264519 -1.55364 0
M  V30 143 C 16.009 1.013 -1.80405 0
M  V30 144 C 16.424 1.79618 -0.581622 0
M  V30 145 O 15.781 1.76879 0.449468 0
M  V30 146 C 15.832 1.96487 -3.03439 0
M  V30 147 O 15.553 1.21341 -4.20961 0
M  V30 148 C 17.054 2.83079 -3.41147 0
M  V30 149 H 14.274 0.298875 -0.600762 0
M  V30 150 H 16.818 0.292736 -2.02394 0
M  V30 151 H 14.973 2.63965 -2.83551 0
M  V30 152 H 15.387 1.85573 -4.90574 0
M  V30 153 H 16.861 3.4565 -4.30384 0
M  V30 154 H 17.338 3.53286 -2.60932 0
M  V30 155 H 17.944 2.2108 -3.63323 0
M  V30 156 N 16.2591 1.48442 0.529413 0
M  V30 157 C 17.4841 1.60406 1.31471 0
M  V30 158 C 17.9091 0.264738 1.86228 0
M  V30 159 O 17.2671 -0.763668 1.64432 0
M  V30 160 C 17.3151 2.65419 2.44101 0
M  V30 161 O 16.4191 2.22618 3.47153 0
M  V30 162 H 15.7601 0.537863 0.389357 0
M  V30 163 H 18.2901 1.94432 0.636965 0
M  V30 164 H 18.3001 2.86709 2.90279 0
M  V30 165 H 16.9751 3.62652 2.03608 0
M  V30 166 H 15.5521 2.11543 3.0709 0
M  V30 167 N 17.7372 -0.778329 1.37039 0
M  V30 168 C 18.7002 -1.87301 1.32102 0
M  V30 169 C 19.7002 -1.59198 0.226405 0
M  V30 170 O 20.8902 -1.67403 0.481861 0
M  V30 171 C 18.0222 -3.24309 1.05055 0
M  V30 172 H 19.2152 -1.93093 2.29467 0
M  V30 173 H 16.7682 -0.977358 1.21973 0
M  V30 174 H 17.5032 -3.24196 0.0819373 0
M  V30 175 H 17.2882 -3.46098 1.84279 0
M  V30 176 H 18.7782 -4.04382 1.04234 0
M  V30 177 N 19.2153 -1.21501 -1.00376 0
M  V30 178 C 20.6263 -1.03146 -1.55621 0
M  V30 179 C 20.9773 0.408375 -1.91903 0
M  V30 180 O 20.1023 1.29177 -1.73616 0
M  V30 181 C 20.6973 -1.86612 -2.82775 0
M  V30 182 C 19.2563 -1.72586 -3.34501 0
M  V30 183 C 18.4033 -1.83747 -2.07683 0
M  V30 184 H 21.3543 -1.35505 -0.826081 0
M  V30 185 H 21.3753 -1.3771 -3.54706 0
M  V30 186 H 20.8873 -2.91399 -2.56336 0
M  V30 187 H 18.9883 -0.704877 -3.65872 0
M  V30 188 H 19.1013 -2.54623 -4.05837 0
M  V30 189 H 17.4653 -1.27069 -2.20739 0
M  V30 190 H 18.2483 -2.90044 -1.83655 0
M  V30 191 N 20.6934 1.19889 -1.02296 0
M  V30 192 C 21.6564 2.21116 -0.603351 0
M  V30 193 C 22.6564 1.5738 0.329884 0
M  V30 194 O 23.8464 1.73802 0.117702 0
M  V30 195 C 20.9784 3.40696 0.117992 0
M  V30 196 H 22.1714 2.59754 -1.49893 0
M  V30 197 H 19.7244 1.33463 -0.813468 0
M  V30 198 H 20.4594 3.07569 1.0282 0
M  V30 199 H 20.2444 3.88188 -0.552511 0
M  V30 200 H 21.7344 4.15692 0.398696 0
M  V30 201 N 22.1715 0.800033 1.35784 0
M  V30 202 C 23.1215 0.178654 2.27299 0
M  V30 203 C 24.1055 -0.643667 1.47464 0
M  V30 204 O 25.2975 -0.502 1.69732 0
M  V30 205 C 22.4265 -0.677194 3.36555 0
M  V30 206 C 21.5125 0.154497 4.23818 0
M  V30 207 N 21.9035 1.21427 4.91008 0
M  V30 208 C 20.2015 -0.0649462 4.45953 0
M  V30 209 C 20.9025 1.72147 5.55644 0
M  V30 210 N 19.8785 1.02897 5.33773 0
M  V30 211 H 23.6805 0.989637 2.76737 0
M  V30 212 H 21.1945 0.64054 1.49234 0
M  V30 213 H 23.1915 -1.13835 4.01058 0
M  V30 214 H 21.8515 -1.4866 2.8867 0
M  V30 215 H 22.8625 1.59684 4.92668 0
M  V30 216 H 19.5395 -0.844016 4.0888 0
M  V30 217 H 20.9295 2.60683 6.19269 0
M  V30 218 N 23.6496 -1.47581 0.552962 0
M  V30 219 C 24.8956 -2.03369 0.0355807 0
M  V30 220 C 25.2506 -1.42016 -1.29805 0
M  V30 221 O 24.5436 -0.564917 -1.83083 0
M  V30 222 C 24.7376 -3.57199 -0.119728 0
M  V30 223 C 24.5666 -4.33468 1.1973 0
M  V30 224 C 23.3366 -4.7353 1.76345 0
M  V30 225 C 25.5346 -4.68866 2.11351 0
M  V30 226 N 23.5166 -5.34426 3.02097 0
M  V30 227 C 24.8876 -5.3002 3.21681 0
M  V30 228 C 26.9426 -4.50795 2.11397 0
M  V30 229 C 25.6456 -5.75011 4.32151 0
M  V30 230 C 27.6716 -4.96782 3.20876 0
M  V30 231 C 27.0336 -5.57981 4.29926 0
M  V30 232 H 23.1326 -0.780058 0.0550806 0
M  V30 233 H 25.7166 -1.80117 0.739315 0
M  V30 234 H 23.8876 -3.80227 -0.792579 0
M  V30 235 H 25.6196 -3.99627 -0.638792 0
M  V30 236 H 22.3746 -4.55352 1.30196 0
M  V30 237 H 22.7986 -5.69421 3.66182 0
M  V30 238 H 27.4406 -4.0284 1.28372 0
M  V30 239 H 25.1586 -6.21959 5.15938 0
M  V30 240 H 28.7446 -4.84573 3.21994 0
M  V30 241 H 27.6246 -5.92918 5.13243 0
M  V30 242 N 25.1277 -0.289203 -1.54924 0
M  V30 243 C 26.3757 0.322879 -1.99504 0
M  V30 244 C 26.6967 1.55313 -1.1791 0
M  V30 245 O 25.9667 1.94001 -0.272097 0
M  V30 246 H 24.5467 0.122291 -0.736922 0
M  V30 247 H 27.2087 -0.397802 -1.90797 0
M  V30 248 H 26.3047 0.603061 -3.06218 0
M  V30 249 N 26.6058 1.57591 -0.0167156 0
M  V30 250 C 27.5158 2.1291 0.98521 0
M  V30 251 C 28.5318 1.07834 1.36557 0
M  V30 252 O 29.7078 1.39826 1.44951 0
M  V30 253 C 26.7728 2.63512 2.25305 0
M  V30 254 C 25.8338 3.83256 1.93426 0
M  V30 255 C 25.0668 4.31435 3.14165 0
M  V30 256 O 25.2898 3.78851 4.26413 0
M  V30 257 O 24.2238 5.23416 2.97186 0
M  V30 258 H 28.0498 2.98772 0.544888 0
M  V30 259 H 25.6348 1.48012 0.203141 0
M  V30 260 H 27.5168 2.96183 2.99756 0
M  V30 261 H 26.1918 1.8074 2.68542 0
M  V30 262 H 25.0988 3.55531 1.16398 0
M  V30 263 H 26.4318 4.67153 1.55013 0
M  V30 264 N 28.0839 -0.256276 1.55502 0
M  V30 265 C 29.0139 -1.32102 1.92539 0
M  V30 266 C 29.9949 -1.50684 0.789194 0
M  V30 267 O 31.1799 -1.63449 1.04872 0
M  V30 268 C 28.3099 -2.67752 2.21192 0
M  V30 269 C 27.2639 -2.63878 3.36975 0
M  V30 270 C 26.5899 -4.03236 3.51147 0
M  V30 271 C 27.8899 -2.21682 4.72921 0
M  V30 272 H 29.5839 -1.01351 2.81724 0
M  V30 273 H 27.1299 -0.486105 1.35547 0
M  V30 274 H 29.0829 -3.42365 2.45691 0
M  V30 275 H 27.8069 -3.0012 1.28824 0
M  V30 276 H 26.4659 -1.91722 3.12471 0
M  V30 277 H 26.1139 -4.32854 2.56216 0
M  V30 278 H 25.8139 -4.01535 4.29003 0
M  V30 279 H 27.3379 -4.79563 3.77957 0
M  V30 280 H 28.7519 -2.86023 4.96854 0
M  V30 281 H 27.1489 -2.3111 5.53812 0
M  V30 282 H 28.2189 -1.16833 4.70615 0
M  V30 283 N 29.562 -1.4872 -0.521534 0
M  V30 284 C 30.509 -1.63871 -1.62527 0
M  V30 285 C 31.479 -0.480559 -1.58996 0
M  V30 286 O 32.664 -0.705085 -1.77294 0
M  V30 287 C 29.804 -1.69227 -3.00759 0
M  V30 288 C 28.917 -2.96207 -3.14461 0
M  V30 289 C 28.052 -2.92671 -4.43303 0
M  V30 290 C 27.091 -4.14318 -4.50563 0
M  V30 291 N 26.228 -4.0881 -5.70805 0
M  V30 292 H 31.068 -2.58123 -1.48918 0
M  V30 293 H 28.605 -1.28 -0.724878 0
M  V30 294 H 30.563 -1.70314 -3.80853 0
M  V30 295 H 29.193 -0.784586 -3.1312 0
M  V30 296 H 28.245 -3.04826 -2.27564 0
M  V30 297 H 29.557 -3.86192 -3.15686 0
M  V30 298 H 28.711 -2.92206 -5.31696 0
M  V30 299 H 27.45 -2.00429 -4.44612 0
M  V30 300 H 26.455 -4.15049 -3.60575 0
M  V30 301 H 27.68 -5.07729 -4.50986 0
M  V30 302 H 25.626 -3.19394 -5.72995 0
M  V30 303 H 25.543 -4.92509 -5.7356 0
M  V30 304 H 26.811 -4.12418 -6.61462 0
M  V30 305 N 31.0401 0.771051 -1.3745 0
M  V30 306 C 31.9881 1.90574 -1.33358 0
M  V30 307 C 32.9821 1.67936 -0.22224 0
M  V30 308 O 34.1881 1.75717 -0.390304 0
M  V30 309 H 30.5631 0.626714 -0.415612 0
M  V30 310 H 32.5341 1.91142 -2.29144 0
M  V30 311 C 31.2831 3.27845 -1.15813 0
M  V30 312 H 30.6061 3.45842 -2.00583 0
M  V30 313 H 32.0461 4.07538 -1.17 0
M  V30 314 C 30.5051 3.36625 0.136165 0
M  V30 315 O 31.0351 3.85785 1.11949 0
M  V30 316 N 29.2411 2.89997 0.187099 0
M  V30 317 H 28.7881 2.50182 -0.613753 0
M  V30 318 H 28.7461 2.96252 1.05272 0
M  V30 319 N 32.5182 1.22032 0.997298 0
M  V30 320 C 33.4812 0.987909 2.06816 0
M  V30 321 C 34.4812 -0.0440084 1.6074 0
M  V30 322 O 35.6712 0.194053 1.73116 0
M  V30 323 C 32.8032 0.49132 3.37341 0
M  V30 324 H 33.9962 1.93803 2.28868 0
M  V30 325 H 31.5492 1.03838 1.16822 0
M  V30 326 H 32.2842 -0.463364 3.20973 0
M  V30 327 H 32.0692 1.23575 3.72118 0
M  V30 328 H 33.5592 0.348824 4.16141 0
M  V30 329 N 33.9963 -1.19345 1.0293 0
M  V30 330 C 34.9443 -2.24621 0.604001 0
M  V30 331 C 35.9383 -1.65452 -0.363587 0
M  V30 332 O 37.1443 -1.78497 -0.23212 0
M  V30 333 H 33.5193 -0.730858 0.177061 0
M  V30 334 H 35.4903 -2.5781 1.50255 0
M  V30 335 C 34.2393 -3.47688 -0.0289127 0
M  V30 336 H 33.5623 -3.93505 0.706651 0
M  V30 337 H 35.0023 -4.23011 -0.289432 0
M  V30 338 C 33.4613 -3.11817 -1.2756 0
M  V30 339 O 33.9913 -3.2451 -2.36762 0
M  V30 340 N 32.1973 -2.66246 -1.16453 0
M  V30 341 H 31.7443 -2.56118 -0.275914 0
M  V30 342 H 31.7023 -2.42617 -1.99961 0
M  V30 343 N 35.4744 -0.807222 -1.35358 0
M  V30 344 C 36.7214 -0.387888 -1.9875 0
M  V30 345 C 37.0494 1.04509 -1.64037 0
M  V30 346 O 36.3044 1.73986 -0.895946 0
M  V30 347 C 36.6034 -0.519036 -3.53611 0
M  V30 348 C 36.2694 -1.91542 -4.08194 0
M  V30 349 C 34.9314 -2.29745 -4.22813 0
M  V30 350 C 37.2834 -2.82896 -4.37744 0
M  V30 351 C 34.6114 -3.58668 -4.643 0
M  V30 352 C 36.9634 -4.11265 -4.8067 0
M  V30 353 C 35.6274 -4.49466 -4.93494 0
M  V30 354 H 34.8974 -0.141938 -0.727279 0
M  V30 355 H 37.5444 -1.02814 -1.6156 0
M  V30 356 H 35.8494 0.204658 -3.91265 0
M  V30 357 H 37.5464 -0.175345 -4.00616 0
M  V30 358 H 34.1364 -1.60862 -3.97268 0
M  V30 359 H 38.3204 -2.54629 -4.26002 0
M  V30 360 H 33.5764 -3.88113 -4.72418 0
M  V30 361 H 37.7504 -4.82153 -5.02496 0
M  V30 362 H 35.3774 -5.49418 -5.25399 0
M  V30 363 N 36.9525 1.47285 -0.560781 0
M  V30 364 C 38.1805 2.06855 -0.0430262 0
M  V30 365 C 38.5955 1.41291 1.25229 0
M  V30 366 O 37.9525 0.510648 1.7521 0
M  V30 367 C 38.0035 3.61178 0.152518 0
M  V30 368 O 37.7245 4.24285 -1.0915 0
M  V30 369 C 39.2255 4.37624 0.707145 0
M  V30 370 H 36.4455 0.669319 -0.0474652 0
M  V30 371 H 38.9895 1.89237 -0.77521 0
M  V30 372 H 37.1445 3.78298 0.834843 0
M  V30 373 H 37.5585 5.16868 -0.891482 0
M  V30 374 H 39.0325 5.46271 0.793244 0
M  V30 375 H 39.5095 4.04152 1.71923 0
M  V30 376 H 40.1155 4.25257 0.0604027 0
M  V30 377 N 38.4306 0.297415 1.54768 0
M  V30 378 C 39.6786 -0.312295 1.99673 0
M  V30 379 C 39.9996 -1.54686 1.18732 0
M  V30 380 O 39.2696 -1.93854 0.282382 0
M  V30 381 H 37.8496 -0.118381 0.73756 0
M  V30 382 H 40.5116 0.407915 1.90583 0
M  V30 383 H 39.6076 -0.586813 3.06534 0
M  V30 384 N 39.9087 -1.5758 0.0250728 0
M  V30 385 C 41.3197 -1.79476 -0.514323 0
M  V30 386 C 41.6707 -0.934956 -1.72491 0
M  V30 387 O 40.7957 -0.144245 -2.15919 0
M  V30 388 C 41.3907 -3.25503 -0.939842 0
M  V30 389 C 39.9497 -3.48408 -1.42438 0
M  V30 390 C 39.0967 -2.74583 -0.387201 0
M  V30 391 H 42.0477 -1.567 0.25113 0
M  V30 392 H 42.0687 -3.34992 -1.80445 0
M  V30 393 H 41.5807 -3.88056 -0.0585628 0
M  V30 394 H 39.6817 -2.91103 -2.32572 0
M  V30 395 H 39.7947 -4.57119 -1.43455 0
M  V30 396 H 38.1587 -2.39942 -0.854409 0
M  V30 397 H 38.9417 -3.39849 0.485543 0
M  V30 398 N 41.3868 0.248026 -1.55636 0
M  V30 399 C 42.3348 1.32683 -1.91045 0
M  V30 400 C 43.3288 1.49883 -0.789401 0
M  V30 401 O 44.5348 1.51371 -0.974007 0
M  V30 402 H 40.9098 0.444272 -0.606734 0
M  V30 403 H 42.8808 1.00085 -2.81115 0
M  V30 404 C 41.6298 2.6755 -2.22064 0
M  V30 405 H 40.9528 2.55114 -3.07826 0
M  V30 406 H 42.3928 3.41912 -2.50743 0
M  V30 407 C 40.8518 3.20556 -1.0366 0
M  V30 408 O 41.3818 4.00695 -0.284016 0
M  V30 409 N 39.5878 2.78568 -0.82753 0
M  V30 410 H 39.1348 2.1351 -1.44123 0
M  V30 411 H 39.0928 3.14378 -0.0369803 0
M  V30 412 N 42.8649 1.48995 0.513639 0
M  V30 413 C 43.7969 1.60836 1.63293 0
M  V30 414 C 44.8099 0.491701 1.55197 0
M  V30 415 O 45.9989 0.763238 1.6136 0
M  V30 416 C 43.0989 1.53731 3.02027 0
M  V30 417 C 42.2719 2.80715 3.35437 0
M  V30 418 C 41.3309 2.66837 4.53525 0
M  V30 419 O 40.3569 3.40753 4.55934 0
M  V30 420 N 41.5589 1.77539 5.52684 0
M  V30 421 H 44.3239 2.57366 1.53566 0
M  V30 422 H 41.8849 1.45925 0.701259 0
M  V30 423 H 43.8769 1.42118 3.78926 0
M  V30 424 H 42.4469 0.651092 3.05744 0
M  V30 425 H 41.6669 3.06772 2.47557 0
M  V30 426 H 42.9549 3.64927 3.54551 0
M  V30 427 H 42.3529 1.16719 5.53528 0
M  V30 428 H 40.9099 1.71856 6.28736 0
M  V30 429 N 44.343 -0.763751 1.37857 0
M  V30 430 C 45.571 -1.55293 1.36718 0
M  V30 431 C 45.986 -1.88745 -0.0455434 0
M  V30 432 O 45.343 -1.52039 -1.00947 0
M  V30 433 C 45.394 -2.85831 2.2132 0
M  V30 434 O 45.115 -2.5381 3.57089 0
M  V30 435 C 46.616 -3.80023 2.28249 0
M  V30 436 H 43.836 -0.480841 0.468009 0
M  V30 437 H 46.38 -0.946009 1.81303 0
M  V30 438 H 44.535 -3.42926 1.80223 0
M  V30 439 H 44.949 -3.37459 4.01524 0
M  V30 440 H 46.423 -4.68599 2.91752 0
M  V30 441 H 46.9 -4.1973 1.2932 0
M  V30 442 H 47.506 -3.28855 2.69693 0
M  V30 443 N 45.8211 -1.22559 -0.990812 0
M  V30 444 C 47.0461 -1.07862 -1.77145 0
M  V30 445 C 47.4711 0.366447 -1.84496 0
M  V30 446 O 46.8291 1.26478 -1.29896 0
M  V30 447 C 46.8771 -1.69686 -3.18181 0
M  V30 448 O 45.9811 -0.951946 -4.01263 0
M  V30 449 H 45.3221 -0.378712 -0.545411 0
M  V30 450 H 47.8521 -1.62399 -1.2445 0
M  V30 451 H 47.8621 -1.74496 -3.68802 0
M  V30 452 H 46.5371 -2.74841 -3.12146 0
M  V30 453 H 45.1141 -0.980011 -3.59792 0
M  V30 454 N 47.2992 1.18797 -1.03562 0
M  V30 455 C 48.5242 1.9314 -0.755764 0
M  V30 456 C 48.9492 1.7537 0.68022 0
M  V30 457 O 48.3072 1.06046 1.47051 0
M  V30 458 C 48.3552 3.42747 -1.12058 0
M  V30 459 O 47.4592 4.11683 -0.243124 0
M  V30 460 H 46.8002 0.602724 -0.278604 0
M  V30 461 H 49.3302 1.50678 -1.3841 0
M  V30 462 H 49.3402 3.93437 -1.08035 0
M  V30 463 H 48.0152 3.55002 -2.16672 0
M  V30 464 H 46.5922 3.71323 -0.342539 0
M  V30 465 N 48.7773 0.814389 1.34928 0
M  V30 466 C 49.7253 0.218424 2.31572 0
M  V30 467 C 50.7193 -0.636128 1.57002 0
M  V30 468 O 51.9253 -0.52842 1.72069 0
M  V30 469 H 48.3003 0.0518799 0.750208 0
M  V30 470 H 50.2713 1.04852 2.79372 0
M  V30 471 C 49.0203 -0.61207 3.4227 0
M  V30 472 H 48.3433 0.0361578 3.99784 0
M  V30 473 H 49.7833 -0.995317 4.12152 0
M  V30 474 C 48.2423 -1.78087 2.85984 0
M  V30 475 O 48.7723 -2.8787 2.80168 0
M  V30 476 N 46.9783 -1.59488 2.42924 0
M  V30 477 H 46.5253 -0.701874 2.47854 0
M  V30 478 H 46.4833 -2.37846 2.05613 0
M  V30 479 N 50.2554 -1.46986 0.568584 0
M  V30 480 C 51.4804 -2.07335 0.0520528 0
M  V30 481 C 51.9054 -1.41675 -1.23733 0
M  V30 482 O 51.2634 -0.495623 -1.74394 0
M  V30 483 C 51.3114 -3.60417 -0.11501 0
M  V30 484 O 50.4154 -3.95309 -1.17492 0
M  V30 485 H 49.7564 -0.661597 0.0564385 0
M  V30 486 H 52.2864 -1.88837 0.787507 0
M  V30 487 H 52.2964 -4.06698 -0.325644 0
M  V30 488 H 50.9714 -4.07601 0.826675 0
M  V30 489 H 49.5484 -3.60757 -0.943869 0
M  V30 490 N 51.7335 -0.305618 -1.54608 0
M  V30 491 C 52.9615 0.304775 -2.04643 0
M  V30 492 C 53.3765 1.47167 -1.18268 0
M  V30 493 O 52.7335 1.81296 -0.209328 0
M  V30 494 C 52.7845 0.756564 -3.53495 0
M  V30 495 O 52.5055 -0.36389 -4.36586 0
M  V30 496 C 54.0065 1.43163 -4.19546 0
M  V30 497 H 51.2265 0.0655481 -0.667791 0
M  V30 498 H 53.7705 -0.446592 -1.99564 0
M  V30 499 H 51.9255 1.45794 -3.58919 0
M  V30 500 H 52.3395 -0.0113121 -5.24499 0
M  V30 501 H 53.8135 1.69886 -5.25207 0
M  V30 502 H 54.2905 2.37318 -3.69563 0
M  V30 503 H 54.8965 0.773307 -4.18211 0
M  V30 504 N 53.2116 1.57565 -0.0334293 0
M  V30 505 C 54.1416 2.13511 0.945265 0
M  V30 506 C 55.1226 1.05231 1.33643 0
M  V30 507 O 56.3076 1.33084 1.41429 0
M  V30 508 C 53.4376 2.6657 2.22616 0
M  V30 509 C 52.3916 3.79676 1.97561 0
M  V30 510 C 51.7176 4.1918 3.31952 0
M  V30 511 C 53.0176 5.0557 1.31135 0
M  V30 512 H 54.7116 2.95538 0.479325 0
M  V30 513 H 52.2576 1.42166 0.229115 0
M  V30 514 H 54.2106 3.04344 2.91466 0
M  V30 515 H 52.9346 1.8171 2.71384 0
M  V30 516 H 51.5936 3.42347 1.31127 0
M  V30 517 H 51.2416 3.31296 3.78487 0
M  V30 518 H 50.9416 4.95402 3.15992 0
M  V30 519 H 52.4656 4.59541 4.02063 0
M  V30 520 H 53.8796 5.40903 1.89992 0
M  V30 521 H 52.2766 5.86818 1.25559 0
M  V30 522 H 53.3466 4.84062 0.284894 0
M  V30 523 N 54.6897 -0.239769 1.55765 0
M  V30 524 C 56.1007 -0.808263 1.68297 0
M  V30 525 C 56.4517 -1.85736 0.632181 0
M  V30 526 O 55.5767 -2.15277 -0.220204 0
M  V30 527 C 56.1717 -1.47284 3.05111 0
M  V30 528 C 54.7307 -1.98895 3.19559 0
M  V30 529 C 53.8777 -0.842575 2.64189 0
M  V30 530 H 56.8287 -0.0154422 1.58692 0
M  V30 531 H 56.8497 -2.34111 2.99954 0
M  V30 532 H 56.3617 -0.709053 3.81568 0
M  V30 533 H 54.4627 -2.78132 2.47938 0
M  V30 534 H 54.5757 -2.18143 4.26556 0
M  V30 535 H 52.9397 -1.24501 2.22197 0
M  V30 536 H 53.7227 -0.0917552 3.43177 0
M  V30 537 N 56.1678 -1.49265 -0.50573 0
M  V30 538 C 57.0998 -1.617 -1.62437 0
M  V30 539 C 58.1128 -0.499924 -1.54934 0
M  V30 540 O 59.3018 -0.771785 -1.60953 0
M  V30 541 C 56.4018 -1.5533 -3.01207 0
M  V30 542 C 55.5748 -2.8249 -3.33943 0
M  V30 543 C 54.6338 -2.69238 -4.52103 0
M  V30 544 O 53.6598 -3.43167 -4.5412 0
M  V30 545 N 54.8618 -1.80468 -5.51735 0
M  V30 546 H 57.6268 -2.58177 -1.52199 0
M  V30 547 H 55.1878 -1.46294 -0.693511 0
M  V30 548 H 57.1798 -1.44125 -3.78167 0
M  V30 549 H 55.7498 -0.667297 -3.05395 0
M  V30 550 H 54.9698 -3.08081 -2.45926 0
M  V30 551 H 56.2578 -3.66802 -3.5261 0
M  V30 552 H 55.6558 -1.19653 -5.52901 0
M  V30 553 H 54.2128 -1.75188 -6.27816 0
M  V30 554 N 57.6459 0.756429 -1.3826 0
M  V30 555 C 58.5759 1.88374 -1.37976 0
M  V30 556 C 59.5569 1.68311 -0.246082 0
M  V30 557 O 60.7419 1.88944 -0.44874 0
M  V30 558 C 57.8719 3.25864 -1.20125 0
M  V30 559 C 56.8259 3.60523 -2.30666 0
M  V30 560 C 56.1519 4.9672 -1.97923 0
M  V30 561 C 57.4519 3.65692 -3.72916 0
M  V30 562 H 59.1459 1.88869 -2.32312 0
M  V30 563 H 56.6919 0.907272 -1.11824 0
M  V30 564 H 58.6449 4.0438 -1.18552 0
M  V30 565 H 57.3689 3.25841 -0.222498 0
M  V30 566 H 56.0279 2.84324 -2.3142 0
M  V30 567 H 55.6759 4.93253 -0.985393 0
M  V30 568 H 55.3759 5.20878 -2.71955 0
M  V30 569 H 56.8999 5.77618 -1.97964 0
M  V30 570 H 58.3139 4.34328 -3.74208 0
M  V30 571 H 56.7109 4.01358 -4.4613 0
M  V30 572 H 57.7809 2.65987 -4.05436 0
M  V30 573 N 59.124 1.23083 0.984299 0
M  V30 574 C 60.401 0.9689 1.69917 0
M  V30 575 C 60.781 -0.513604 2.04757 0
M  V30 576 O 60.129 -1.48383 1.73767 0
M  V30 577 C 60.339 1.87518 2.94343 0
M  V30 578 C 61.687 2.13636 3.6694 0
M  V30 579 O 62.711 1.85036 3.04368 0
M  V30 580 O 61.57 2.62119 4.79537 0
M  V30 581 H 58.664 0.365095 0.742048 0
M  V30 582 H 61.21 1.34107 1.03987 0
M  V30 583 H 59.982 2.87756 2.65164 0
M  V30 584 H 59.605 1.50514 3.6801 0
M  V30 585 N 60.6021 -1.18246 1.0419 0
M  V30 586 C 61.8511 -1.87588 0.741194 0
M  V30 587 C 62.1641 -1.81303 -0.734066 0
M  V30 588 O 63.3701 -2.46019 -1.14834 0
M  V30 589 C 61.8261 -3.36538 1.27555 0
M  V30 590 C 61.4341 -3.51349 2.77953 0
M  V30 591 C 63.1781 -4.11273 1.05143 0
M  V30 592 C 61.0851 -4.94265 3.2474 0
M  V30 593 H 60.0151 -0.702622 0.273565 0
M  V30 594 H 62.6661 -1.33601 1.25789 0
M  V30 595 H 61.0481 -3.9 0.686703 0
M  V30 596 H 62.2221 -3.08153 3.42605 0
M  V30 597 H 60.5371 -2.90022 2.98791 0
M  V30 598 H 63.1341 -5.16689 1.37611 0
M  V30 599 H 63.4771 -4.16298 -0.0112774 0
M  V30 600 H 64.0101 -3.63987 1.60495 0
M  V30 601 H 60.7491 -4.94408 4.30396 0
M  V30 602 H 60.2691 -5.38172 2.64823 0
M  V30 603 H 61.9481 -5.62987 3.18834 0
M  V30 604 N 62.0802 -0.821533 -1.34494 0
M  V30 605 C 63.3082 -0.421884 -2.02553 0
M  V30 606 C 63.7232 0.971745 -1.61872 0
M  V30 607 O 63.0802 1.62864 -0.823496 0
M  V30 608 C 63.1312 -0.51285 -3.57844 0
M  V30 609 O 62.8522 -1.85155 -3.97051 0
M  V30 610 C 64.3532 -0.107921 -4.43169 0
M  V30 611 H 61.5732 -0.169482 -0.649243 0
M  V30 612 H 64.1172 -1.1093 -1.71798 0
M  V30 613 H 62.2722 0.126474 -3.87193 0
M  V30 614 H 62.6862 -1.82482 -4.91732 0
M  V30 615 H 64.1602 -0.222657 -5.51551 0
M  V30 616 H 64.6372 0.948401 -4.28838 0
M  V30 617 H 65.2432 -0.720989 -4.19144 0
M  V30 618 N 63.5583 1.46682 -0.576371 0
M  V30 619 C 64.9743 1.57822 -0.237562 0
M  V30 620 C 65.1743 1.57237 1.26011 0
M  V30 621 O 64.2303 1.48596 2.04146 0
M  V30 622 C 65.5433 2.87499 -0.881168 0
M  V30 623 C 67.0913 3.01119 -0.85417 0
M  V30 624 C 67.5663 4.33524 -1.4772 0
M  V30 625 N 69.0573 4.40207 -1.44125 0
M  V30 626 C 69.7923 5.4126 -1.89276 0
M  V30 627 N 69.2883 6.49021 -2.42371 0
M  V30 628 N 71.0813 5.32422 -1.80231 0
M  V30 629 H 63.2323 1.45306 -1.54919 0
M  V30 630 H 65.4953 0.692733 -0.647167 0
M  V30 631 H 65.2013 2.9372 -1.93447 0
M  V30 632 H 65.0753 3.75224 -0.385592 0
M  V30 633 H 67.4623 2.94485 0.190491 0
M  V30 634 H 67.5433 2.14887 -1.3877 0
M  V30 635 H 67.1873 4.40916 -2.52103 0
M  V30 636 H 67.1173 5.1852 -0.918947 0
M  V30 637 H 69.6083 3.62931 -1.05307 0
M  V30 638 H 69.9213 7.2233 -2.74698 0
M  V30 639 H 68.2663 6.49858 -2.46393 0
M  V30 640 H 71.4573 4.47137 -1.38514 0
M  V30 641 H 71.6303 6.11034 -2.15735 0
M  V30 642 N 65.0364 0.313813 1.54444 0
M  V30 643 C 65.9994 -0.54379 2.22656 0
M  V30 644 C 66.9994 -1.05124 1.21678 0
M  V30 645 O 68.1894 -0.945225 1.46325 0
M  V30 646 C 65.3214 -1.75427 2.92298 0
M  V30 647 H 66.5144 0.0523599 2.99854 0
M  V30 648 H 64.0674 0.0647834 1.56166 0
M  V30 649 H 64.8024 -2.38991 2.19211 0
M  V30 650 H 64.5874 -1.39791 3.66334 0
M  V30 651 H 66.0774 -2.36325 3.44297 0
M  V30 652 N 66.5145 -1.57545 0.0417849 0
M  V30 653 C 67.7635 -1.91494 -0.633492 0
M  V30 654 C 68.0765 -0.921084 -1.72556 0
M  V30 655 O 69.2825 -1.15228 -2.45835 0
M  V30 656 C 67.7385 -3.40072 -1.17808 0
M  V30 657 C 67.3465 -4.47843 -0.118633 0
M  V30 658 C 69.0905 -3.8307 -1.82915 0
M  V30 659 C 66.9975 -5.87529 -0.675578 0
M  V30 660 H 65.9275 -0.714653 -0.24039 0
M  V30 661 H 68.5785 -1.83175 0.109148 0
M  V30 662 H 66.9605 -3.43364 -1.97274 0
M  V30 663 H 68.1345 -4.56128 0.654494 0
M  V30 664 H 66.4495 -4.14128 0.434414 0
M  V30 665 H 69.0465 -4.84794 -2.25563 0
M  V30 666 H 69.3895 -3.1881 -2.67705 0
M  V30 667 H 69.9225 -3.82255 -1.10119 0
M  V30 668 H 66.6615 -6.55362 0.134475 0
M  V30 669 H 66.1815 -5.82824 -1.4169 0
M  V30 670 H 67.8605 -6.36491 -1.1614 0
M  V30 671 N 67.9926 0.231505 -1.5589 0
M  V30 672 C 69.2176 0.978689 -1.82856 0
M  V30 673 C 69.6426 1.77559 -0.620846 0
M  V30 674 O 69.0006 1.76119 0.430305 0
M  V30 675 C 69.0486 1.87997 -3.07716 0
M  V30 676 O 68.1526 2.97393 -2.85712 0
M  V30 677 H 67.4936 0.277663 -0.603158 0
M  V30 678 H 70.0236 0.24783 -2.03093 0
M  V30 679 H 70.0336 2.2917 -3.37558 0
M  V30 680 H 68.7086 1.29417 -3.95252 0
M  V30 681 H 67.2856 2.60238 -2.67078 0
M  V30 682 N 69.4707 1.49531 0.497807 0
M  V30 683 C 70.7167 1.59415 1.25358 0
M  V30 684 C 71.0497 0.281422 1.9215 0
M  V30 685 O 70.3247 -0.715249 1.80871 0
M  V30 686 C 70.6077 2.75566 2.3181 0
M  V30 687 C 70.4607 4.16642 1.69498 0
M  V30 688 C 71.7797 2.87347 3.33346 0
M  V30 689 H 68.8987 0.580244 0.454408 0
M  V30 690 H 71.5407 1.81827 0.551262 0
M  V30 691 H 69.6907 2.56587 2.91711 0
M  V30 692 H 71.3627 4.47145 1.13399 0
M  V30 693 H 69.6057 4.22141 0.998978 0
M  V30 694 H 70.2767 4.93792 2.46725 0
M  V30 695 H 72.7527 3.04634 2.83438 0
M  V30 696 H 71.6287 3.70289 4.05188 0
M  V30 697 H 71.8897 1.96834 3.95865 0
M  V30 698 N 70.9488 -0.749086 1.3866 0
M  V30 699 C 72.1968 -1.50535 1.34847 0
M  V30 700 C 72.5178 -1.94909 -0.0595016 0
M  V30 701 O 71.7878 -1.67973 -1.00806 0
M  V30 702 H 70.3678 -0.558395 0.49619 0
M  V30 703 H 73.0298 -0.890165 1.73384 0
M  V30 704 H 72.1258 -2.39413 2.00219 0
M  V30 705 N 72.4269 -1.23603 -0.977757 0
M  V30 706 C 73.3569 -1.04401 -2.0886 0
M  V30 707 C 74.3379 0.0399052 -1.70053 0
M  V30 708 O 75.5229 -0.125246 -1.93796 0
M  V30 709 C 72.6529 -0.637269 -3.41403 0
M  V30 710 C 71.6069 -1.66883 -3.94124 0
M  V30 711 C 70.9329 -1.11745 -5.22893 0
M  V30 712 C 72.2329 -3.06247 -4.23096 0
M  V30 713 H 73.9269 -1.97316 -2.25182 0
M  V30 714 H 71.4729 -0.950096 -1.08209 0
M  V30 715 H 73.4259 -0.48998 -4.18542 0
M  V30 716 H 72.1499 0.327557 -3.24953 0
M  V30 717 H 70.8089 -1.80416 -3.19133 0
M  V30 718 H 70.4569 -0.143527 -5.02795 0
M  V30 719 H 70.1569 -1.80672 -5.59134 0
M  V30 720 H 71.6809 -0.982067 -6.02651 0
M  V30 721 H 73.0949 -2.96001 -4.90975 0
M  V30 722 H 71.4919 -3.72436 -4.70544 0
M  V30 723 H 72.5619 -3.55041 -3.30263 0
M  V30 724 N 73.905 1.17692 -1.04816 0
M  V30 725 C 75.151 1.88137 -0.75711 0
M  V30 726 C 75.484 1.80604 0.713841 0
M  V30 727 O 74.759 1.21146 1.52164 0
M  V30 728 C 75.042 3.38318 -1.2334 0
M  V30 729 C 74.895 3.54622 -2.76701 0
M  V30 730 C 76.214 4.32214 -0.829415 0
M  V30 731 H 73.333 0.683163 -0.27651 0
M  V30 732 H 75.975 1.38424 -1.30149 0
M  V30 733 H 74.125 3.80787 -0.770286 0
M  V30 734 H 75.797 3.21194 -3.31107 0
M  V30 735 H 74.04 2.97026 -3.16161 0
M  V30 736 H 74.711 4.60028 -3.05088 0
M  V30 737 H 77.187 3.97565 -1.22805 0
M  V30 738 H 76.063 5.35838 -1.19033 0
M  V30 739 H 76.324 4.41294 0.266891 0
M  V30 740 N 75.3831 0.828654 1.34056 0
M  V30 741 C 76.3131 0.269443 2.3194 0
M  V30 742 C 77.2941 -0.617247 1.58506 0
M  V30 743 O 78.4791 -0.542931 1.86456 0
M  V30 744 C 75.6091 -0.564793 3.42677 0
M  V30 745 C 74.5631 0.225241 4.27407 0
M  V30 746 C 73.8891 -0.7321 5.29664 0
M  V30 747 C 75.1891 1.43663 5.02154 0
M  V30 748 H 76.8831 1.08728 2.7896 0
M  V30 749 H 74.4291 0.524283 1.34117 0
M  V30 750 H 76.3821 -0.966233 4.10173 0
M  V30 751 H 75.1061 -1.41574 2.9432 0
M  V30 752 H 73.7651 0.608117 3.61521 0
M  V30 753 H 73.4131 -1.57916 4.77568 0
M  V30 754 H 73.1131 -0.20767 5.87233 0
M  V30 755 H 74.6371 -1.13128 6.00029 0
M  V30 756 H 76.0511 1.1089 5.62473 0
M  V30 757 H 74.4481 1.89711 5.69324 0
M  V30 758 H 75.5181 2.21181 4.31517 0
M  V30 759 N 76.8612 -1.46375 0.584142 0
M  V30 760 C 78.1092 -2.01978 0.0701287 0
M  V30 761 C 78.4302 -1.4579 -1.295 0
M  V30 762 O 77.7002 -0.64314 -1.85042 0
M  V30 763 H 76.2802 -0.746648 0.0229345 0
M  V30 764 H 78.9422 -1.79461 0.760245 0
M  V30 765 H 78.0382 -3.121 0.0022064 0
M  V30 766 N 78.3393 -0.321999 -1.54275 0
M  V30 767 C 79.3023 0.531975 -2.22941 0
M  V30 768 C 80.3023 1.04478 -1.22234 0
M  V30 769 O 81.4923 0.937452 -1.46825 0
M  V30 770 C 78.6243 1.73874 -2.93224 0
M  V30 771 H 79.8173 -0.0682612 -2.99822 0
M  V30 772 H 77.3703 -0.0730644 -1.56129 0
M  V30 773 H 78.1053 2.37825 -2.20476 0
M  V30 774 H 77.8903 1.37847 -3.6707 0
M  V30 775 H 79.3803 2.34496 -3.45545 0
M  V30 776 N 79.8174 1.5752 -0.0501392 0
M  V30 777 C 81.0644 1.9265 0.623874 0
M  V30 778 C 81.3924 0.928411 1.70912 0
M  V30 779 O 80.6474 -0.0594525 1.9561 0
M  V30 780 C 80.9464 3.34467 1.25963 0
M  V30 781 C 80.6124 4.49883 0.302689 0
M  V30 782 C 79.2744 4.81184 0.0393636 0
M  V30 783 C 81.6264 5.20002 -0.353205 0
M  V30 784 C 78.9544 5.79951 -0.887308 0
M  V30 785 C 81.3064 6.1976 -1.26806 0
M  V30 786 C 79.9704 6.49491 -1.54007 0
M  V30 787 H 79.2404 0.704957 0.228292 0
M  V30 788 H 81.8874 1.91146 -0.116398 0
M  V30 789 H 80.1924 3.32333 2.07514 0
M  V30 790 H 81.8894 3.58928 1.78806 0
M  V30 791 H 78.4794 4.25457 0.518109 0
M  V30 792 H 82.6634 4.96033 -0.162854 0
M  V30 793 H 77.9194 6.01322 -1.10553 0
M  V30 794 H 82.0934 6.73205 -1.78236 0
M  V30 795 H 79.7204 7.25837 -2.25976 0
M  V30 796 N 81.2955 -0.223234 1.56011 0
M  V30 797 C 82.5445 -0.945912 1.78144 0
M  V30 798 C 82.8575 -1.85567 0.618396 0
M  V30 799 O 84.0635 -2.61688 0.723318 0
M  V30 800 C 82.5195 -1.73216 3.15475 0
M  V30 801 C 82.1275 -0.868619 4.39499 0
M  V30 802 C 83.8715 -2.44615 3.46935 0
M  V30 803 C 81.7785 -1.65212 5.67855 0
M  V30 804 H 80.7085 -0.356929 0.664167 0
M  V30 805 H 83.3595 -0.199845 1.82409 0
M  V30 806 H 81.7415 -2.52107 3.05382 0
M  V30 807 H 82.9155 -0.120366 4.60643 0
M  V30 808 H 81.2305 -0.26683 4.15544 0
M  V30 809 H 83.8275 -3.03732 4.40058 0
M  V30 810 H 84.1705 -3.17417 2.69355 0
M  V30 811 H 84.7035 -1.72715 3.58349 0
M  V30 812 H 81.4425 -0.967407 6.48322 0
M  V30 813 H 80.9625 -2.37503 5.50774 0
M  V30 814 H 82.6415 -2.21322 6.07968 0
M  V30 815 N 82.7736 -1.49793 -0.48987 0
M  V30 816 C 83.7036 -1.70201 -1.59856 0
M  V30 817 C 84.6846 -0.55076 -1.60937 0
M  V30 818 O 85.8696 -0.787841 -1.77501 0
M  V30 819 C 82.9996 -1.77882 -2.98287 0
M  V30 820 C 81.9536 -2.92907 -3.12073 0
M  V30 821 C 81.2796 -2.85712 -4.51965 0
M  V30 822 C 82.5796 -4.3369 -2.91051 0
M  V30 823 H 84.2736 -2.63025 -1.43032 0
M  V30 824 H 81.8196 -1.26574 -0.686664 0
M  V30 825 H 83.7726 -1.90744 -3.75759 0
M  V30 826 H 82.4966 -0.816653 -3.16225 0
M  V30 827 H 81.1556 -2.79665 -2.37029 0
M  V30 828 H 80.8036 -1.8738 -4.66795 0
M  V30 829 H 80.5036 -3.62921 -4.62128 0
M  V30 830 H 82.0276 -3.00598 -5.31482 0
M  V30 831 H 83.4416 -4.47555 -3.58284 0
M  V30 832 H 81.8386 -5.12205 -3.12675 0
M  V30 833 H 82.9086 -4.47362 -1.87071 0
M  V30 834 N 84.2517 0.741722 -1.39055 0
M  V30 835 C 85.4987 1.50114 -1.35912 0
M  V30 836 C 85.8267 1.94443 0.0470937 0
M  V30 837 O 85.0817 1.66612 1.02659 0
M  V30 838 C 85.3807 2.7592 -2.27163 0
M  V30 839 C 85.0467 2.50493 -3.74919 0
M  V30 840 C 83.7087 2.43267 -4.1518 0
M  V30 841 C 86.0607 2.28585 -4.684 0
M  V30 842 C 83.3887 2.12166 -5.46994 0
M  V30 843 C 85.7407 1.99002 -6.00484 0
M  V30 844 C 84.4047 1.90241 -6.39816 0
M  V30 845 H 83.6747 0.549306 -0.497336 0
M  V30 846 H 86.3217 0.851896 -1.71508 0
M  V30 847 H 84.6267 3.45553 -1.84663 0
M  V30 848 H 86.3237 3.33923 -2.22028 0
M  V30 849 H 82.9137 2.56992 -3.43006 0
M  V30 850 H 87.0977 2.33139 -4.38132 0
M  V30 851 H 82.3537 2.03901 -5.76398 0
M  V30 852 H 86.5277 1.81057 -6.72452 0
M  V30 853 H 84.1547 1.65907 -7.41875 0
M  V30 854 N 85.7298 1.2412 0.971189 0
M  V30 855 C 86.6928 1.03156 2.04674 0
M  V30 856 C 87.6928 -0.00990322 1.60797 0
M  V30 857 O 88.8828 0.230729 1.72665 0
M  V30 858 C 86.0148 0.562765 3.36223 0
M  V30 859 H 87.2078 1.98614 2.24705 0
M  V30 860 H 84.7608 1.06293 1.14593 0
M  V30 861 H 85.4958 -0.395176 3.21883 0
M  V30 862 H 85.2808 1.31441 3.69413 0
M  V30 863 H 86.7708 0.437015 4.15307 0
M  V30 864 N 87.2079 -1.17134 1.05439 0
M  V30 865 C 88.4569 -1.86791 0.761049 0
M  V30 866 C 88.7699 -1.82072 -0.714795 0
M  V30 867 O 89.9759 -2.47223 -1.12218 0
M  V30 868 C 88.4319 -3.35166 1.31117 0
M  V30 869 C 88.0399 -3.48381 2.81664 0
M  V30 870 C 89.7839 -4.10134 1.09499 0
M  V30 871 C 87.6909 -4.90793 3.29964 0
M  V30 872 H 86.6209 -0.699681 0.281002 0
M  V30 873 H 89.2719 -1.3226 1.27199 0
M  V30 874 H 87.6539 -3.8925 0.72803 0
M  V30 875 H 88.8279 -3.04502 3.45855 0
M  V30 876 H 87.1429 -2.86836 3.01851 0
M  V30 877 H 89.7399 -5.152 1.43084 0
M  V30 878 H 90.0829 -4.16287 0.0328772 0
M  V30 879 H 90.6159 -3.62264 1.64346 0
M  V30 880 H 87.3549 -4.89816 4.35616 0
M  V30 881 H 86.8749 -5.35333 2.70516 0
M  V30 882 H 88.5539 -5.59573 3.24787 0
M  V30 883 N 88.686 -0.835752 -1.33615 0
M  V30 884 C 89.932 -0.430596 -1.98176 0
M  V30 885 C 90.265 1.00684 -1.66061 0
M  V30 886 O 89.54 1.70339 -0.938877 0
M  V30 887 C 89.823 -0.648065 -3.5422 0
M  V30 888 C 89.676 -2.13255 -3.96033 0
M  V30 889 C 90.995 -0.0922113 -4.40003 0
M  V30 890 H 88.114 -0.157924 -0.719881 0
M  V30 891 H 90.756 -1.05069 -1.58305 0
M  V30 892 H 88.906 -0.120237 -3.88314 0
M  V30 893 H 90.578 -2.725 -3.72211 0
M  V30 894 H 88.821 -2.61823 -3.45878 0
M  V30 895 H 89.492 -2.23547 -5.04708 0
M  V30 896 H 91.968 -0.543343 -4.12537 0
M  V30 897 H 90.844 -0.274083 -5.48215 0
M  V30 898 H 91.105 1.00378 -4.30554 0
M  V30 899 N 90.1641 1.46063 -0.591896 0
M  V30 900 C 91.4121 2.01938 -0.0808391 0
M  V30 901 C 91.7331 1.46475 1.28725 0
M  V30 902 O 91.0031 0.652944 1.84698 0
M  V30 903 H 89.5831 0.746516 -0.0268938 0
M  V30 904 H 92.2451 1.79055 -0.769752 0
M  V30 905 H 91.3411 3.12094 -0.0187578 0
M  V30 906 N 91.6422 0.330177 1.54103 0
M  V30 907 C 92.5902 -0.548226 2.26047 0
M  V30 908 C 93.5842 -1.11309 1.27698 0
M  V30 909 O 94.7902 -1.06036 1.45452 0
M  V30 910 H 91.1652 -0.195456 0.726155 0
M  V30 911 H 93.1362 0.0807567 2.98291 0
M  V30 912 C 91.8852 -1.69415 3.03634 0
M  V30 913 H 91.2082 -1.26876 3.79134 0
M  V30 914 H 92.6482 -2.28423 3.5721 0
M  V30 915 C 91.1072 -2.61569 2.12328 0
M  V30 916 O 91.6372 -3.63462 1.7105 0
M  V30 917 N 89.8432 -2.29952 1.77681 0
M  V30 918 H 89.3902 -1.47134 2.11446 0
M  V30 919 H 89.3482 -2.91871 1.16869 0
M  V30 920 N 93.1203 -1.57491 0.0584922 0
M  V30 921 C 94.3693 -1.92155 -0.613146 0
M  V30 922 C 94.6823 -0.939334 -1.71569 0
M  V30 923 O 95.8883 -1.17829 -2.44599 0
M  V30 924 C 94.3443 -3.41303 -1.14195 0
M  V30 925 C 93.9523 -4.47944 -0.0711265 0
M  V30 926 C 95.6963 -3.84988 -1.78841 0
M  V30 927 C 93.6033 -5.88212 -0.613225 0
M  V30 928 H 92.5333 -0.717162 -0.232796 0
M  V30 929 H 95.1843 -1.83049 0.12857 0
M  V30 930 H 93.5663 -3.45437 -1.93621 0
M  V30 931 H 94.7403 -4.55408 0.702836 0
M  V30 932 H 93.0553 -4.13644 0.478313 0
M  V30 933 H 95.6523 -4.87159 -2.20408 0
M  V30 934 H 95.9953 -3.21632 -2.64308 0
M  V30 935 H 96.5283 -3.83401 -1.06059 0
M  V30 936 H 93.2673 -6.55183 0.203978 0
M  V30 937 H 92.7873 -5.84294 -1.35501 0
M  V30 938 H 94.4663 -6.37687 -1.09383 0
M  V30 939 N 94.5984 0.214957 -1.56127 0
M  V30 940 C 95.5284 1.2695 -1.95974 0
M  V30 941 C 96.5094 1.48539 -0.828868 0
M  V30 942 O 97.6944 1.60611 -1.09168 0
M  V30 943 C 94.8244 2.61794 -2.28214 0
M  V30 944 C 93.7784 2.54851 -3.43853 0
M  V30 945 C 93.1044 3.93785 -3.61715 0
M  V30 946 C 94.4044 2.09065 -4.78632 0
M  V30 947 H 96.0984 0.93846 -2.84312 0
M  V30 948 H 93.6444 0.449996 -1.36788 0
M  V30 949 H 95.5974 3.35731 -2.54682 0
M  V30 950 H 94.3214 2.96599 -1.36736 0
M  V30 951 H 92.9804 1.8337 -3.17444 0
M  V30 952 H 92.6284 4.25908 -2.67602 0
M  V30 953 H 92.3284 3.90019 -4.39498 0
M  V30 954 H 93.8524 4.69374 -3.90539 0
M  V30 955 H 95.2664 2.7275 -5.04262 0
M  V30 956 H 93.6634 2.16346 -5.59745 0
M  V30 957 H 94.7334 1.04315 -4.73547 0
M  V30 958 N 96.0765 1.50051 0.48192 0
M  V30 959 C 97.3225 1.60736 1.2366 0
M  V30 960 C 97.6555 0.301786 1.91841 0
M  V30 961 O 96.9305 -0.696025 1.8162 0
M  V30 962 C 97.2135 2.78009 2.28874 0
M  V30 963 C 97.0665 4.18416 1.65069 0
M  V30 964 C 98.3855 2.90867 3.30279 0
M  V30 965 H 95.5045 0.585031 0.448228 0
M  V30 966 H 98.1465 1.82402 0.531946 0
M  V30 967 H 96.2965 2.59667 2.88973 0
M  V30 968 H 97.9685 4.48322 1.0865 0
M  V30 969 H 96.2115 4.23177 0.954148 0
M  V30 970 H 96.8825 4.96381 2.41474 0
M  V30 971 H 99.3585 3.07623 2.80191 0
M  V30 972 H 98.2345 3.74566 4.01238 0
M  V30 973 H 98.4955 2.01021 3.93755 0
M  V30 974 N 97.5546 -0.734337 1.39446 0
M  V30 975 C 98.8036 -1.48937 1.36017 0
M  V30 976 C 99.1166 -1.95557 -0.0409005 0
M  V30 977 O 100.323 -2.70779 -0.19778 0
M  V30 978 C 98.7786 -2.69125 2.38955 0
M  V30 979 C 98.3866 -2.29452 3.8478 0
M  V30 980 C 100.131 -3.46944 2.44603 0
M  V30 981 C 98.0376 -3.46366 4.79358 0
M  V30 982 H 96.9676 -0.559296 0.505672 0
M  V30 983 H 99.6186 -0.800983 1.65095 0
M  V30 984 H 98.0006 -3.40041 2.02948 0
M  V30 985 H 99.1746 -1.66077 4.29831 0
M  V30 986 H 97.4896 -1.64723 3.82433 0
M  V30 987 H 100.087 -4.33907 3.12456 0
M  V30 988 H 100.43 -3.89454 1.47076 0
M  V30 989 H 100.963 -2.83056 2.79507 0
M  V30 990 H 97.7016 -3.08905 5.78151 0
M  V30 991 H 97.2216 -4.08719 4.38986 0
M  V30 992 H 98.9006 -4.12691 4.98292 0
M  V30 993 N 99.0327 -1.24633 -0.964593 0
M  V30 994 C 99.9627 -1.06611 -2.07741 0
M  V30 995 C 100.944 0.0218666 -1.70086 0
M  V30 996 O 102.129 -0.145793 -1.93652 0
M  V30 997 C 99.2587 -0.673444 -3.40708 0
M  V30 998 C 98.2127 -1.71054 -3.92332 0
M  V30 999 C 97.5387 -1.17285 -5.21678 0
M  V30 1000 C 98.8387 -3.10718 -4.19824 0
M  V30 1001 H 100.533 -1.99693 -2.23076 0
M  V30 1002 H 98.0787 -0.96152 -1.07195 0
M  V30 1003 H 100.032 -0.534345 -4.17998 0
M  V30 1004 H 98.7557 0.293073 -3.25282 0
M  V30 1005 H 97.4147 -1.83791 -3.17201 0
M  V30 1006 H 97.0627 -0.196847 -5.02615 0
M  V30 1007 H 96.7627 -1.86592 -5.57187 0
M  V30 1008 H 98.2867 -1.04593 -6.01575 0
M  V30 1009 H 99.7007 -3.01192 -4.87808 0
M  V30 1010 H 98.0977 -3.77406 -4.66567 0
M  V30 1011 H 99.1677 -3.58524 -3.26479 0
M  V30 1012 N 100.511 1.16574 -1.06058 0
M  V30 1013 C 101.736 1.91493 -0.796562 0
M  V30 1014 C 102.161 1.76773 0.642868 0
M  V30 1015 O 101.519 1.09142 1.44768 0
M  V30 1016 C 101.567 3.40293 -1.19303 0
M  V30 1017 O 100.671 4.11074 -0.330394 0
M  V30 1018 H 100.012 0.596678 -0.291326 0
M  V30 1019 H 102.542 1.47708 -1.41575 0
M  V30 1020 H 102.552 3.91057 -1.16356 0
M  V30 1021 H 101.227 3.50326 -2.24153 0
M  V30 1022 H 99.8038 3.70513 -0.421225 0
M  V30 1023 N 101.989 0.842826 1.3317 0
M  V30 1024 C 103.235 0.441099 1.97945 0
M  V30 1025 C 103.568 -0.998024 1.66593 0
M  V30 1026 O 102.843 -1.69839 0.947898 0
M  V30 1027 C 103.126 0.666841 3.53872 0
M  V30 1028 C 102.979 2.15352 3.94897 0
M  V30 1029 C 104.298 0.115544 4.39948 0
M  V30 1030 H 101.417 0.161739 0.719034 0
M  V30 1031 H 104.059 1.05907 1.57746 0
M  V30 1032 H 102.209 0.140828 3.88245 0
M  V30 1033 H 103.881 2.7447 3.70761 0
M  V30 1034 H 102.124 2.63653 3.44484 0
M  V30 1035 H 102.795 2.26221 5.03516 0
M  V30 1036 H 105.271 0.565213 4.12243 0
M  V30 1037 H 104.147 0.303152 5.48062 0
M  V30 1038 H 104.408 -0.980935 4.3108 0
M  V30 1039 N 103.467 -1.45747 0.599634 0
M  V30 1040 C 104.43 -2.28917 -0.113835 0
M  V30 1041 C 105.43 -1.3933 -0.802729 0
M  V30 1042 O 106.62 -1.61534 -0.652103 0
M  V30 1043 C 103.752 -3.20152 -1.17114 0
M  V30 1044 H 104.945 -2.93478 0.617289 0
M  V30 1045 H 102.498 -1.52137 0.358327 0
M  V30 1046 H 103.233 -2.60374 -1.93329 0
M  V30 1047 H 103.018 -3.86133 -0.681468 0
M  V30 1048 H 104.508 -3.82708 -1.67105 0
M  V30 1049 N 104.945 -0.338344 -1.53925 0
M  V30 1050 C 106.185 0.260168 -2.02737 0
M  V30 1051 C 106.549 1.48181 -1.22092 0
M  V30 1052 O 107.75 2.15416 -1.60777 0
M  V30 1053 C 106.021 0.571627 -3.52799 0
M  V30 1054 S 107.58 1.14769 -4.23525 0
M  V30 1055 H 104.398 0.077791 -0.706732 0
M  V30 1056 H 107 -0.474899 -1.89644 0
M  V30 1057 H 105.704 -0.325392 -4.09108 0
M  V30 1058 H 105.235 1.3365 -3.70002 0
M  V30 1059 H 107.25 2.43372 -4.32417 0
M  V30 1060 N 106.423 1.57458 -0.0668435 0
M  V30 1061 C 107.371 2.13639 0.919851 0
M  V30 1062 C 108.365 1.07204 1.31163 0
M  V30 1063 O 109.571 1.25591 1.28945 0
M  V30 1064 H 105.946 0.683048 0.314562 0
M  V30 1065 H 107.917 2.95415 0.421047 0
M  V30 1066 C 106.666 2.70892 2.17975 0
M  V30 1067 H 105.989 3.5246 1.88711 0
M  V30 1068 H 107.429 3.13803 2.85138 0
M  V30 1069 C 105.888 1.65414 2.93496 0
M  V30 1070 O 106.418 1.07619 3.87015 0
M  V30 1071 N 104.624 1.36564 2.56512 0
M  V30 1072 H 104.171 1.83751 1.80536 0
M  V30 1073 H 104.129 0.66223 3.07347 0
M  V30 1074 N 107.901 -0.206675 1.56239 0
M  V30 1075 C 109.317 -0.557025 1.49564 0
M  V30 1076 C 109.517 -1.86424 0.764735 0
M  V30 1077 O 108.573 -2.50584 0.310491 0
M  V30 1078 C 109.886 -0.622478 2.94186 0
M  V30 1079 C 111.434 -0.712099 3.04792 0
M  V30 1080 C 111.909 -0.808767 4.50803 0
M  V30 1081 N 113.4 -0.8726 4.54907 0
M  V30 1082 C 114.135 -0.967365 5.65181 0
M  V30 1083 N 113.631 -1.02515 6.85173 0
M  V30 1084 N 115.424 -1.00366 5.53067 0
M  V30 1085 H 107.575 0.650943 2.02179 0
M  V30 1086 H 109.838 0.230387 0.919579 0
M  V30 1087 H 109.544 0.268727 3.50672 0
M  V30 1088 H 109.418 -1.4811 3.46905 0
M  V30 1089 H 111.805 -1.59374 2.48363 0
M  V30 1090 H 111.886 0.172489 2.55218 0
M  V30 1091 H 111.53 0.0684754 5.07854 0
M  V30 1092 H 111.46 -1.70899 4.98098 0
M  V30 1093 H 113.951 -0.837657 3.68499 0
M  V30 1094 H 114.264 -1.09765 7.64965 0
M  V30 1095 H 112.609 -0.994026 6.87855 0
M  V30 1096 H 115.8 -0.95527 4.58249 0
M  V30 1097 H 115.973 -1.07405 6.39037 0
M  V30 1098 N 109.379 -1.50304 -0.473955 0
M  V30 1099 C 110.329 -1.65347 -1.56985 0
M  V30 1100 C 111.313 -0.508176 -1.52664 0
M  V30 1101 O 112.505 -0.762446 -1.59737 0
M  V30 1102 C 109.634 -1.74832 -2.95447 0
M  V30 1103 C 108.72 -2.95028 -3.04662 0
M  V30 1104 N 109.111 -4.18747 -2.83698 0
M  V30 1105 C 107.409 -2.93527 -3.35795 0
M  V30 1106 C 108.11 -4.99687 -2.97805 0
M  V30 1107 N 107.086 -4.33585 -3.2788 0
M  V30 1108 H 110.888 -2.58698 -1.39472 0
M  V30 1109 H 108.402 -1.47449 -0.680629 0
M  V30 1110 H 110.399 -1.83712 -3.7424 0
M  V30 1111 H 109.059 -0.826376 -3.14008 0
M  V30 1112 H 110.07 -4.48291 -2.59337 0
M  V30 1113 H 106.747 -2.10821 -3.60362 0
M  V30 1114 H 108.137 -6.08057 -2.85861 0
M  V30 1115 N 110.857 0.726932 -1.39834 0
M  V30 1116 C 111.787 1.85405 -1.41941 0
M  V30 1117 C 112.768 1.67751 -0.281728 0
M  V30 1118 O 113.953 1.8795 -0.488717 0
M  V30 1119 C 111.083 3.23243 -1.2701 0
M  V30 1120 C 110.037 3.55549 -2.38262 0
M  V30 1121 C 109.363 4.9241 -2.08415 0
M  V30 1122 C 110.663 3.577 -3.80589 0
M  V30 1123 H 112.357 1.83899 -2.36266 0
M  V30 1124 H 109.903 0.883349 -1.13723 0
M  V30 1125 H 111.856 4.01775 -1.27103 0
M  V30 1126 H 110.58 3.25296 -0.291564 0
M  V30 1127 H 109.239 2.79351 -2.37399 0
M  V30 1128 H 108.887 4.91052 -1.0898 0
M  V30 1129 H 108.587 5.14992 -2.82943 0
M  V30 1130 H 110.111 5.73289 -2.10171 0
M  V30 1131 H 111.525 4.26293 -3.83337 0
M  V30 1132 H 109.922 3.91804 -4.54543 0
M  V30 1133 H 110.992 2.57328 -4.10987 0
M  V30 1134 N 112.336 1.25143 0.95797 0
M  V30 1135 C 113.752 1.01892 1.22842 0
M  V30 1136 C 113.952 -0.266311 1.99732 0
M  V30 1137 O 113.008 -0.979913 2.3271 0
M  V30 1138 C 114.321 2.24004 2.00606 0
M  V30 1139 C 115.869 2.28731 2.13662 0
M  V30 1140 C 116.344 3.5049 2.94823 0
M  V30 1141 N 117.835 3.50866 3.02403 0
M  V30 1142 C 118.57 4.4174 3.65586 0
M  V30 1143 N 118.066 5.42882 4.30408 0
M  V30 1144 N 119.859 4.29429 3.62694 0
M  V30 1145 H 112.01 2.07718 0.443493 0
M  V30 1146 H 114.273 0.912031 0.258657 0
M  V30 1147 H 113.979 3.17395 1.51503 0
M  V30 1148 H 113.853 2.26907 3.01319 0
M  V30 1149 H 116.24 1.35865 2.61963 0
M  V30 1150 H 116.321 2.29848 1.12265 0
M  V30 1151 H 115.965 4.43676 2.47213 0
M  V30 1152 H 115.895 3.46617 3.96439 0
M  V30 1153 H 118.386 2.777 2.56302 0
M  V30 1154 H 118.699 6.0844 4.76467 0
M  V30 1155 H 117.044 5.46758 4.29047 0
M  V30 1156 H 120.235 3.49643 3.11236 0
M  V30 1157 H 120.408 5.00448 4.1165 0
M  V30 1158 N 113.814 -1.1601 1.06675 0
M  V30 1159 C 115.042 -1.90527 0.806667 0
M  V30 1160 C 115.457 -1.77643 -0.639396 0
M  V30 1161 O 114.814 -1.12369 -1.43803 0
M  V30 1162 C 114.865 -3.41106 1.19705 0
M  V30 1163 O 114.586 -3.53608 2.58636 0
M  V30 1164 C 116.087 -4.32663 0.965266 0
M  V30 1165 H 113.307 -0.604053 0.292166 0
M  V30 1166 H 115.851 -1.47026 1.4214 0
M  V30 1167 H 114.006 -3.82296 0.626774 0
M  V30 1168 H 114.42 -4.47011 2.74375 0
M  V30 1169 H 115.894 -5.36763 1.288 0
M  V30 1170 H 116.371 -4.39089 -0.0987936 0
M  V30 1171 H 116.977 -3.97206 1.52011 0
M  V30 1172 N 115.292 -0.849877 -1.32721 0
M  V30 1173 C 116.703 -0.506188 -1.79707 0
M  V30 1174 C 117.054 0.975627 -1.70223 0
M  V30 1175 O 116.179 1.76078 -1.25799 0
M  V30 1176 C 116.774 -0.912044 -3.26293 0
M  V30 1177 C 115.333 -0.620326 -3.71253 0
M  V30 1178 C 114.48 -1.11439 -2.53922 0
M  V30 1179 H 117.431 -1.03754 -1.20087 0
M  V30 1180 H 117.452 -0.226493 -3.79825 0
M  V30 1181 H 116.964 -1.99057 -3.33164 0
M  V30 1182 H 115.065 0.447674 -3.69901 0
M  V30 1183 H 115.178 -1.18327 -4.64258 0
M  V30 1184 H 113.542 -0.534834 -2.49021 0
M  V30 1185 H 114.325 -2.19992 -2.6355 0
M  V30 1186 N 116.77 1.45427 -0.607355 0
M  V30 1187 C 117.998 2.06614 -0.108814 0
M  V30 1188 C 118.413 1.45204 1.2067 0
M  V30 1189 O 117.77 0.566132 1.73497 0
M  V30 1190 C 117.821 3.61481 0.0375347 0
M  V30 1191 O 117.542 4.20598 -1.22593 0
M  V30 1192 C 119.043 4.39652 0.567561 0
M  V30 1193 H 116.263 0.66747 -0.0687351 0
M  V30 1194 H 118.807 1.86675 -0.835022 0
M  V30 1195 H 116.962 3.80762 0.714068 0
M  V30 1196 H 117.376 5.1377 -1.05547 0
M  V30 1197 H 118.85 5.48518 0.61905 0
M  V30 1198 H 119.327 4.09417 1.58978 0
M  V30 1199 H 119.933 4.25234 -0.0749202 0
M  V30 1200 N 118.248 0.346503 1.53744 0
M  V30 1201 C 119.196 -0.52422 2.26616 0
M  V30 1202 C 120.19 -1.09948 1.28871 0
M  V30 1203 O 121.396 -1.04488 1.46568 0
M  V30 1204 H 117.771 -0.187743 0.728187 0
M  V30 1205 H 119.742 0.11239 2.98188 0
M  V30 1206 C 118.491 -1.66186 3.05414 0
M  V30 1207 H 117.814 -1.22848 3.80458 0
M  V30 1208 H 119.254 -2.24622 3.59612 0
M  V30 1209 C 117.713 -2.59302 2.1509 0
M  V30 1210 O 118.243 -3.61628 1.74895 0
M  V30 1211 N 116.449 -2.28055 1.8011 0
M  V30 1212 H 115.996 -1.44883 2.12994 0
M  V30 1213 H 115.954 -2.90615 1.19958 0
M  V30 1214 N 119.726 -1.57421 0.075193 0
M  V30 1215 C 120.956 -1.97659 -0.601203 0
M  V30 1216 C 121.364 -0.952427 -1.63479 0
M  V30 1217 O 120.707 0.0688241 -1.83571 0
M  V30 1218 C 120.769 -3.34218 -1.32434 0
M  V30 1219 C 120.433 -4.5484 -0.443826 0
M  V30 1220 C 121.43 -5.19034 0.299969 0
M  V30 1221 C 119.115 -5.00952 -0.367709 0
M  V30 1222 C 121.109 -6.27695 1.10807 0
M  V30 1223 C 118.796 -6.09484 0.444058 0
M  V30 1224 C 119.794 -6.72719 1.18061 0
M  V30 1225 O 119.482 -7.79161 1.97898 0
M  V30 1226 H 119.214 -0.65494 -0.167422 0
M  V30 1227 H 121.768 -2.04886 0.145157 0
M  V30 1228 H 119.998 -3.23615 -2.11685 0
M  V30 1229 H 121.687 -3.59038 -1.89331 0
M  V30 1230 H 122.453 -4.84351 0.250776 0
M  V30 1231 H 118.332 -4.51509 -0.930638 0
M  V30 1232 H 121.876 -6.76982 1.68347 0
M  V30 1233 H 117.773 -6.43601 0.494803 0
M  V30 1234 H 118.541 -7.96055 1.90367 0
M  V30 1235 N 121.204 0.198386 -1.56346 0
M  V30 1236 C 122.451 0.919286 -1.80431 0
M  V30 1237 C 122.779 1.83393 -0.647866 0
M  V30 1238 O 122.034 1.92236 0.366556 0
M  V30 1239 C 122.333 1.77031 -3.10475 0
M  V30 1240 C 121.999 1.00693 -4.39513 0
M  V30 1241 C 120.661 0.796145 -4.74568 0
M  V30 1242 C 123.013 0.469559 -5.19081 0
M  V30 1243 C 120.341 0.0364588 -5.86689 0
M  V30 1244 C 122.693 -0.2769 -6.31994 0
M  V30 1245 C 121.357 -0.49873 -6.65634 0
M  V30 1246 H 120.627 0.336391 -0.660244 0
M  V30 1247 H 123.274 0.185872 -1.90596 0
M  V30 1248 H 121.579 2.5723 -2.95533 0
M  V30 1249 H 123.276 2.33065 -3.26315 0
M  V30 1250 H 119.866 1.18122 -4.12001 0
M  V30 1251 H 124.05 0.619816 -4.92414 0
M  V30 1252 H 119.306 -0.145412 -6.11227 0
M  V30 1253 H 123.48 -0.700684 -6.92866 0
M  V30 1254 H 121.107 -1.0893 -7.52355 0
M  V30 1255 N 122.682 1.50554 0.465978 0
M  V30 1256 C 123.931 1.61038 1.21448 0
M  V30 1257 C 124.244 0.31865 1.92987 0
M  V30 1258 O 125.45 0.302469 2.6981 0
M  V30 1259 C 123.906 2.84283 2.20706 0
M  V30 1260 C 123.514 4.20352 1.54946 0
M  V30 1261 C 125.258 3.04115 2.96166 0
M  V30 1262 C 123.165 5.34778 2.5252 0
M  V30 1263 H 122.095 0.599718 0.457005 0
M  V30 1264 H 124.746 1.7699 0.484424 0
M  V30 1265 H 123.128 2.61901 2.97025 0
M  V30 1266 H 124.302 4.53008 0.843811 0
M  V30 1267 H 122.617 4.06167 0.917475 0
M  V30 1268 H 125.214 3.86774 3.69202 0
M  V30 1269 H 125.557 2.16045 3.55852 0
M  V30 1270 H 126.09 3.26702 2.26959 0
M  V30 1271 H 122.829 6.25018 1.97566 0
M  V30 1272 H 122.349 5.06534 3.21222 0
M  V30 1273 H 124.028 5.65561 3.14245 0
M  V30 1274 N 124.16 -0.719506 1.40217 0
M  V30 1275 C 125.406 -1.48152 1.38488 0
M  V30 1276 C 125.739 -1.94195 -0.0141867 0
M  V30 1277 O 125.014 -1.67884 -0.982096 0
M  V30 1278 C 125.297 -2.71035 2.37091 0
M  V30 1279 C 125.15 -2.30912 3.86005 0
M  V30 1280 C 126.469 -3.73182 2.33288 0
M  V30 1281 H 123.588 -0.537395 0.504357 0
M  V30 1282 H 126.23 -0.821472 1.71324 0
M  V30 1283 H 124.38 -3.27352 2.0922 0
M  V30 1284 H 126.052 -1.80107 4.24687 0
M  V30 1285 H 124.295 -1.62958 4.02029 0
M  V30 1286 H 124.966 -3.18978 4.50508 0
M  V30 1287 H 127.442 -3.26485 2.57966 0
M  V30 1288 H 126.318 -4.56806 3.04334 0
M  V30 1289 H 126.579 -4.21202 1.34317 0
M  V30 1290 N 125.638 -1.25649 -0.95132 0
M  V30 1291 C 126.586 -1.06118 -2.06982 0
M  V30 1292 C 127.58 0.00889169 -1.69398 0
M  V30 1293 O 128.786 -0.146988 -1.79399 0
M  V30 1294 H 125.161 -0.326248 -0.677544 0
M  V30 1295 H 127.132 -2.00932 -2.2061 0
M  V30 1296 C 125.881 -0.700145 -3.40578 0
M  V30 1297 H 125.204 -1.51537 -3.69968 0
M  V30 1298 H 126.644 -0.603211 -4.19687 0
M  V30 1299 C 125.103 0.59403 -3.31622 0
M  V30 1300 O 125.633 1.63522 -3.66911 0
M  V30 1301 N 123.839 0.58089 -2.84735 0
M  V30 1302 H 123.386 -0.266783 -2.56215 0
M  V30 1303 H 123.344 1.44695 -2.79125 0
M  V30 1304 N 127.117 1.15442 -1.07289 0
M  V30 1305 C 128.047 2.22312 -0.714107 0
M  V30 1306 C 129.028 1.67467 0.298155 0
M  V30 1307 O 130.213 1.93445 0.171048 0
M  V30 1308 C 127.343 3.47124 -0.110448 0
M  V30 1309 C 126.297 4.14926 -1.04979 0
M  V30 1310 C 125.623 5.33807 -0.308924 0
M  V30 1311 C 126.923 4.64762 -2.38314 0
M  V30 1312 H 128.617 2.5258 -1.6076 0
M  V30 1313 H 126.163 1.21404 -0.77441 0
M  V30 1314 H 128.116 4.21124 0.152482 0
M  V30 1315 H 126.84 3.16187 0.81812 0
M  V30 1316 H 125.499 3.42866 -1.29764 0
M  V30 1317 H 125.147 4.99126 0.623084 0
M  V30 1318 H 124.847 5.80113 -0.935036 0
M  V30 1319 H 126.371 6.10576 -0.0537771 0
M  V30 1320 H 127.785 5.30292 -2.1786 0
M  V30 1321 H 126.182 5.21728 -2.96514 0
M  V30 1322 H 127.252 3.80434 -3.00663 0
M  V30 1323 N 128.595 0.856903 1.32268 0
M  V30 1324 C 129.558 0.308171 2.27119 0
M  V30 1325 C 130.558 -0.533421 1.51695 0
M  V30 1326 O 131.748 -0.344607 1.70757 0
M  V30 1327 C 128.88 -0.563757 3.36206 0
M  V30 1328 H 130.073 1.14535 2.77167 0
M  V30 1329 H 127.626 0.631421 1.42978 0
M  V30 1330 H 128.361 -1.42266 2.91429 0
M  V30 1331 H 128.146 0.0386749 3.92081 0
M  V30 1332 H 129.636 -0.940386 4.06874 0
M  V30 1333 N 130.073 -1.45103 0.615059 0
M  V30 1334 C 131.006 -2.27717 -0.148408 0
M  V30 1335 C 131.984 -1.37584 -0.866572 0
M  V30 1336 O 133.168 -1.67017 -0.87393 0
M  V30 1337 C 130.295 -3.16136 -1.21557 0
M  V30 1338 C 129.341 -4.22263 -0.599712 0
M  V30 1339 S 130.174 -5.3215 0.598081 0
M  V30 1340 C 131.33 -6.24137 -0.469484 0
M  V30 1341 H 131.563 -2.92121 0.552483 0
M  V30 1342 H 129.096 -1.49054 0.402778 0
M  V30 1343 H 131.054 -3.67633 -1.82638 0
M  V30 1344 H 129.715 -2.50982 -1.88857 0
M  V30 1345 H 128.908 -4.84081 -1.4029 0
M  V30 1346 H 128.51 -3.73945 -0.063876 0
M  V30 1347 H 130.802 -6.63984 -1.34652 0
M  V30 1348 H 131.745 -7.0801 0.112725 0
M  V30 1349 H 132.153 -5.58971 -0.788168 0
M  V30 1350 N 131.551 -0.354651 -1.53558 0
M  V30 1351 C 132.514 0.484566 -2.24019 0
M  V30 1352 C 133.514 1.01861 -1.24422 0
M  V30 1353 O 134.704 0.906097 -1.4878 0
M  V30 1354 C 131.836 1.67615 -2.96847 0
M  V30 1355 H 133.029 -0.131843 -2.9961 0
M  V30 1356 H 130.582 -0.106165 -1.55939 0
M  V30 1357 H 131.317 2.33095 -2.25471 0
M  V30 1358 H 131.102 1.30029 -3.69912 0
M  V30 1359 H 132.592 2.27114 -3.50441 0
M  V30 1360 N 133.029 1.57378 -0.0835403 0
M  V30 1361 C 134.306 1.85363 0.624507 0
M  V30 1362 C 134.686 0.978239 1.87066 0
M  V30 1363 O 134.034 0.0475908 2.2845 0
M  V30 1364 C 134.244 3.35795 0.950947 0
M  V30 1365 C 135.592 4.03581 1.31939 0
M  V30 1366 O 136.616 3.40609 1.04232 0
M  V30 1367 O 135.475 5.14672 1.83779 0
M  V30 1368 H 132.569 0.766162 0.311329 0
M  V30 1369 H 135.115 1.69307 -0.115362 0
M  V30 1370 H 133.887 3.91244 0.0663899 0
M  V30 1371 H 133.51 3.57154 1.74719 0
M  V30 1372 N 134.507 -0.190092 1.56449 0
M  V30 1373 C 135.437 -1.23816 1.97969 0
M  V30 1374 C 136.418 -1.47201 0.852395 0
M  V30 1375 O 137.603 -1.58854 1.1171 0
M  V30 1376 C 134.733 -2.5813 2.3235 0
M  V30 1377 C 133.687 -2.49348 3.47864 0
M  V30 1378 C 133.013 -3.8798 3.67934 0
M  V30 1379 C 134.313 -2.01424 4.81898 0
M  V30 1380 H 136.007 -0.89311 2.85769 0
M  V30 1381 H 133.553 -0.428177 1.37487 0
M  V30 1382 H 135.506 -3.31637 2.59991 0
M  V30 1383 H 134.23 -2.94386 1.41438 0
M  V30 1384 H 132.889 -1.78297 3.20321 0
M  V30 1385 H 132.537 -4.21597 2.74344 0
M  V30 1386 H 132.237 -3.82978 4.45648 0
M  V30 1387 H 133.761 -4.63101 3.97957 0
M  V30 1388 H 135.175 -2.64693 5.08538 0
M  V30 1389 H 133.572 -2.07413 5.63116 0
M  V30 1390 H 134.642 -0.967677 4.75146 0
M  V30 1391 N 135.985 -1.50799 -0.457987 0
M  V30 1392 C 136.915 -1.73553 -1.5621 0
M  V30 1393 C 137.896 -0.584774 -1.59732 0
M  V30 1394 O 139.081 -0.825314 -1.7579 0
M  V30 1395 C 136.211 -1.84169 -2.94447 0
M  V30 1396 C 135.165 -2.99461 -3.0579 0
M  V30 1397 C 134.491 -2.95235 -4.45803 0
M  V30 1398 C 135.791 -4.39766 -2.81786 0
M  V30 1399 H 137.485 -2.66 -1.37421 0
M  V30 1400 H 135.031 -1.28002 -0.659662 0
M  V30 1401 H 136.984 -1.98672 -3.71628 0
M  V30 1402 H 135.708 -0.883545 -3.14422 0
M  V30 1403 H 134.367 -2.8463 -2.31044 0
M  V30 1404 H 134.015 -1.97239 -4.62715 0
M  V30 1405 H 133.715 -3.72642 -4.54326 0
M  V30 1406 H 135.239 -3.11803 -5.24987 0
M  V30 1407 H 136.653 -4.55054 -3.4871 0
M  V30 1408 H 135.05 -5.18722 -3.0174 0
M  V30 1409 H 136.12 -4.51229 -1.7754 0
M  V30 1410 N 137.463 0.71206 -1.40597 0
M  V30 1411 C 138.393 1.83889 -1.43899 0
M  V30 1412 C 139.374 1.67442 -0.299504 0
M  V30 1413 O 140.559 1.87421 -0.508624 0
M  V30 1414 C 137.689 3.21877 -1.30431 0
M  V30 1415 C 136.643 3.53002 -2.42019 0
M  V30 1416 C 135.969 4.90172 -2.13626 0
M  V30 1417 C 137.269 3.53643 -3.84362 0
M  V30 1418 H 138.963 1.81383 -2.38203 0
M  V30 1419 H 136.509 0.871237 -1.14654 0
M  V30 1420 H 138.462 4.00404 -1.31357 0
M  V30 1421 H 137.186 3.24968 -0.326049 0
M  V30 1422 H 135.845 2.76818 -2.40349 0
M  V30 1423 H 135.493 4.89869 -1.14182 0
M  V30 1424 H 135.193 5.11962 -2.88389 0
M  V30 1425 H 136.717 5.71028 -2.1624 0
M  V30 1426 H 138.131 4.22203 -3.87837 0
M  V30 1427 H 136.528 3.86961 -4.58673 0
M  V30 1428 H 137.598 2.52954 -4.13693 0
M  V30 1429 N 138.941 1.26152 0.944643 0
M  V30 1430 C 140.166 1.14363 1.7302 0
M  V30 1431 C 140.591 -0.29772 1.85729 0
M  V30 1432 O 139.949 -1.2157 1.34501 0
M  V30 1433 C 139.997 1.81378 3.11664 0
M  V30 1434 O 139.101 1.10022 3.97453 0
M  V30 1435 H 138.442 0.398694 0.53098 0
M  V30 1436 H 140.972 1.66906 1.18337 0
M  V30 1437 H 140.982 1.88064 3.62072 0
M  V30 1438 H 139.657 2.86237 3.0173 0
M  V30 1439 H 138.234 1.11287 3.55907 0
M  V30 1440 N 140.419 -1.14872 1.07899 0
M  V30 1441 C 141.666 -1.85789 0.805532 0
M  V30 1442 C 141.994 -1.82649 -0.668561 0
M  V30 1443 O 141.249 -1.24858 -1.50695 0
M  V30 1444 C 141.548 -3.34223 1.26609 0
M  V30 1445 C 141.214 -3.57555 2.74709 0
M  V30 1446 C 139.876 -3.63631 3.1516 0
M  V30 1447 C 142.228 -3.66803 3.70277 0
M  V30 1448 C 139.556 -3.76473 4.49983 0
M  V30 1449 C 141.908 -3.8117 5.04869 0
M  V30 1450 C 140.572 -3.85494 5.44932 0
M  V30 1451 H 139.842 -0.679849 0.294765 0
M  V30 1452 H 142.489 -1.3572 1.35101 0
M  V30 1453 H 140.794 -3.86536 0.640103 0
M  V30 1454 H 142.491 -3.87511 1.03132 0
M  V30 1455 H 139.081 -3.5347 2.42398 0
M  V30 1456 H 143.265 -3.61404 3.40149 0
M  V30 1457 H 138.521 -3.7808 4.80484 0
M  V30 1458 H 142.695 -3.87268 5.78789 0
M  V30 1459 H 140.322 -3.95197 6.49403 0
M  V30 1460 N 141.898 -0.863906 -1.31812 0
M  V30 1461 C 143.126 -0.486111 -2.01108 0
M  V30 1462 C 143.541 0.919755 -1.64882 0
M  V30 1463 O 142.898 1.60162 -0.874893 0
M  V30 1464 C 142.949 -0.626435 -3.56031 0
M  V30 1465 O 142.67 -1.97693 -3.90959 0
M  V30 1466 C 144.171 -0.248857 -4.42601 0
M  V30 1467 H 141.391 -0.190052 -0.643523 0
M  V30 1468 H 143.935 -1.1634 -1.68182 0
M  V30 1469 H 142.09 0.00322717 -3.874 0
M  V30 1470 H 142.504 -1.98034 -4.85678 0
M  V30 1471 H 143.978 -0.398016 -5.50563 0
M  V30 1472 H 144.455 0.811489 -4.31638 0
M  V30 1473 H 145.061 -0.853971 -4.16638 0
M  V30 1474 N 143.376 1.44774 -0.622745 0
M  V30 1475 C 144.622 2.0242 -0.124083 0
M  V30 1476 C 144.955 1.4881 1.24777 0
M  V30 1477 O 144.23 0.668799 1.8264 0
M  V30 1478 C 144.513 3.59957 -0.101619 0
M  V30 1479 C 144.366 4.23867 -1.50521 0
M  V30 1480 C 145.685 4.36284 0.578272 0
M  V30 1481 H 142.804 0.735528 -0.0465645 0
M  V30 1482 H 145.446 1.72447 -0.797617 0
M  V30 1483 H 143.596 3.85623 0.471934 0
M  V30 1484 H 145.268 4.09336 -2.12701 0
M  V30 1485 H 143.511 3.81684 -2.06154 0
M  V30 1486 H 144.182 5.32843 -1.4416 0
M  V30 1487 H 146.658 4.16001 0.0906057 0
M  V30 1488 H 145.534 5.46004 0.563149 0
M  V30 1489 H 145.795 4.10271 1.64713 0
M  V30 1490 N 144.854 0.36279 1.53368 0
M  V30 1491 C 145.784 -0.476976 2.28576 0
M  V30 1492 C 146.765 -1.08631 1.30894 0
M  V30 1493 O 147.95 -1.10409 1.59761 0
M  V30 1494 C 145.08 -1.61828 3.07293 0
M  V30 1495 C 144.034 -1.13633 4.1264 0
M  V30 1496 C 143.36 -2.36766 4.79423 0
M  V30 1497 C 144.66 -0.223061 5.21823 0
M  V30 1498 H 146.354 0.150474 2.99022 0
M  V30 1499 H 143.9 0.0738103 1.43811 0
M  V30 1500 H 145.853 -2.21237 3.58653 0
M  V30 1501 H 144.577 -2.27292 2.34533 0
M  V30 1502 H 143.236 -0.564945 3.62221 0
M  V30 1503 H 142.884 -3.0068 4.03238 0
M  V30 1504 H 142.584 -2.05192 5.50609 0
M  V30 1505 H 144.108 -2.96865 5.33576 0
M  V30 1506 H 145.522 -0.724545 5.68703 0
M  V30 1507 H 143.919 0.001678 6.001 0
M  V30 1508 H 144.989 0.735553 4.79289 0
M  V30 1509 N 146.332 -1.57332 0.0918853 0
M  V30 1510 C 147.743 -1.81496 -0.437739 0
M  V30 1511 C 148.094 -1.00727 -1.6837 0
M  V30 1512 O 147.219 -0.235694 -2.15113 0
M  V30 1513 C 147.814 -3.29197 -0.800939 0
M  V30 1514 C 146.373 -3.54136 -1.27532 0
M  V30 1515 C 145.52 -2.75979 -0.270392 0
M  V30 1516 H 148.471 -1.55494 0.317366 0
M  V30 1517 H 148.492 -3.42344 -1.66074 0
M  V30 1518 H 148.004 -3.87955 0.106078 0
M  V30 1519 H 146.105 -3.00705 -2.20016 0
M  V30 1520 H 146.218 -4.62792 -1.23938 0
M  V30 1521 H 144.582 -2.43349 -0.751872 0
M  V30 1522 H 145.365 -3.37484 0.629248 0
M  V30 1523 N 147.81 0.181792 -1.56548 0
M  V30 1524 C 149.057 0.900097 -1.81396 0
M  V30 1525 C 149.385 1.82695 -0.667281 0
M  V30 1526 O 148.64 1.92614 0.346146 0
M  V30 1527 C 148.939 1.73728 -3.12335 0
M  V30 1528 C 148.605 0.960255 -4.40556 0
M  V30 1529 C 147.267 0.745766 -4.75386 0
M  V30 1530 C 149.619 0.414477 -5.19549 0
M  V30 1531 C 146.947 -0.0257694 -5.86694 0
M  V30 1532 C 149.299 -0.343916 -6.31664 0
M  V30 1533 C 147.963 -0.569301 -6.65068 0
M  V30 1534 H 147.233 0.329369 -0.663775 0
M  V30 1535 H 149.88 0.165647 -1.90782 0
M  V30 1536 H 148.185 2.54081 -2.98245 0
M  V30 1537 H 149.882 2.29591 -3.28769 0
M  V30 1538 H 146.472 1.13746 -4.13231 0
M  V30 1539 H 150.656 0.567554 -4.93044 0
M  V30 1540 H 145.912 -0.210233 -6.11038 0
M  V30 1541 H 150.086 -0.774133 -6.92084 0
M  V30 1542 H 147.713 -1.16903 -7.51158 0
M  V30 1543 N 149.288 1.51039 0.449983 0
M  V30 1544 C 150.513 1.6715 1.22783 0
M  V30 1545 C 150.938 0.363081 1.84563 0
M  V30 1546 O 150.296 -0.675433 1.68249 0
M  V30 1547 C 150.344 2.77985 2.29689 0
M  V30 1548 O 149.448 2.40707 3.34864 0
M  V30 1549 H 148.789 0.557746 0.360299 0
M  V30 1550 H 151.319 1.97535 0.533005 0
M  V30 1551 H 151.329 3.01693 2.74673 0
M  V30 1552 H 150.004 3.72935 1.84098 0
M  V30 1553 H 148.581 2.27523 2.95445 0
M  V30 1554 N 150.766 -0.704594 1.40972 0
M  V30 1555 C 151.729 -1.80035 1.41845 0
M  V30 1556 C 152.729 -1.57774 0.310474 0
M  V30 1557 O 153.919 -1.64613 0.56992 0
M  V30 1558 C 151.051 -3.18284 1.22098 0
M  V30 1559 H 152.244 -1.80658 2.3938 0
M  V30 1560 H 149.797 -0.911329 1.26982 0
M  V30 1561 H 150.532 -3.23306 0.253672 0
M  V30 1562 H 150.317 -3.35843 2.02366 0
M  V30 1563 H 151.807 -3.98289 1.25522 0
M  V30 1564 N 152.244 -1.26651 -0.937939 0
M  V30 1565 C 153.207 -1.08546 -2.01867 0
M  V30 1566 C 154.207 -0.0327327 -1.60767 0
M  V30 1567 O 155.397 -0.276427 -1.71993 0
M  V30 1568 C 152.529 -0.651711 -3.34613 0
M  V30 1569 H 153.722 -2.04502 -2.1936 0
M  V30 1570 H 151.275 -1.09294 -1.11734 0
M  V30 1571 H 152.01 0.309696 -3.22818 0
M  V30 1572 H 151.795 -1.41189 -3.65798 0
M  V30 1573 H 153.285 -0.546973 -4.14002 0
M  V30 1574 N 153.722 1.14298 -1.08507 0
M  V30 1575 C 154.652 2.21542 -0.737646 0
M  V30 1576 C 155.633 1.67773 0.280377 0
M  V30 1577 O 156.818 1.93616 0.150521 0
M  V30 1578 C 153.948 3.46988 -0.147259 0
M  V30 1579 C 152.902 4.13789 -1.09374 0
M  V30 1580 C 152.228 5.33449 -0.365524 0
M  V30 1581 C 153.528 4.62208 -2.4323 0
M  V30 1582 H 155.222 2.5086 -1.6343 0
M  V30 1583 H 152.768 1.20576 -0.787243 0
M  V30 1584 H 154.721 4.21262 0.107808 0
M  V30 1585 H 153.445 3.17037 0.784538 0
M  V30 1586 H 152.104 3.4147 -1.33393 0
M  V30 1587 H 151.752 4.99759 0.57011 0
M  V30 1588 H 151.452 5.79088 -0.996512 0
M  V30 1589 H 152.976 6.10485 -0.118534 0
M  V30 1590 H 154.39 5.27952 -2.23472 0
M  V30 1591 H 152.787 5.18553 -3.02031 0
M  V30 1592 H 153.857 3.77224 -3.04681 0
M  V30 1593 N 155.201 0.870884 1.31352 0
M  V30 1594 C 156.111 0.330783 2.32256 0
M  V30 1595 C 157.127 -0.559767 1.6475 0
M  V30 1596 O 158.303 -0.456263 1.96164 0
M  V30 1597 C 155.368 -0.458137 3.4366 0
M  V30 1598 C 154.429 0.460482 4.26823 0
M  V30 1599 C 153.662 -0.290881 5.32907 0
M  V30 1600 O 153.885 -1.51885 5.49806 0
M  V30 1601 O 152.819 0.351732 6.00871 0
M  V30 1602 H 156.645 1.16718 2.80376 0
M  V30 1603 H 154.23 0.634285 1.35267 0
M  V30 1604 H 156.112 -0.905343 4.1156 0
M  V30 1605 H 154.787 -1.27106 2.97701 0
M  V30 1606 H 153.694 0.956207 3.61673 0
M  V30 1607 H 155.027 1.23903 4.7635 0
M  V30 1608 N 156.679 -1.44442 0.630414 0
M  V30 1609 C 157.925 -2.02351 0.134816 0
M  V30 1610 C 158.258 -1.4947 -1.23986 0
M  V30 1611 O 157.533 -0.678475 -1.82283 0
M  V30 1612 C 157.816 -3.59898 0.120707 0
M  V30 1613 C 157.669 -4.23063 1.52767 0
M  V30 1614 C 158.988 -4.36585 -0.555127 0
M  V30 1615 H 156.107 -0.73527 0.0504646 0
M  V30 1616 H 158.749 -1.72022 0.806751 0
M  V30 1617 H 156.899 -3.85868 -0.451477 0
M  V30 1618 H 158.571 -4.08202 2.14869 0
M  V30 1619 H 156.814 -3.80586 2.08175 0
M  V30 1620 H 157.485 -5.32071 1.46984 0
M  V30 1621 H 159.961 -4.16044 -0.0685429 0
M  V30 1622 H 158.837 -5.46294 -0.534185 0
M  V30 1623 H 159.098 -4.11138 -1.62535 0
M  V30 1624 N 158.157 -0.370918 -1.53173 0
M  V30 1625 C 159.087 0.464847 -2.28826 0
M  V30 1626 C 160.068 1.07936 -1.31468 0
M  V30 1627 O 161.253 1.0956 -1.60344 0
M  V30 1628 C 158.383 1.60196 -3.08147 0
M  V30 1629 C 157.337 1.11443 -4.13237 0
M  V30 1630 C 156.663 2.3422 -4.80672 0
M  V30 1631 C 157.963 0.195384 -5.21934 0
M  V30 1632 H 159.657 -0.166329 -2.98938 0
M  V30 1633 H 157.203 -0.0814359 -1.4377 0
M  V30 1634 H 159.156 2.19332 -3.59822 0
M  V30 1635 H 157.88 2.26045 -2.35735 0
M  V30 1636 H 156.539 0.545727 -3.62515 0
M  V30 1637 H 156.187 2.98537 -4.04827 0
M  V30 1638 H 155.887 2.02269 -5.51689 0
M  V30 1639 H 157.411 2.94032 -5.35143 0
M  V30 1640 H 158.825 0.694375 -5.69079 0
M  V30 1641 H 157.222 -0.0335027 -6.00091 0
M  V30 1642 H 158.292 -0.760961 -4.78892 0
M  V30 1643 N 159.635 1.57281 -0.100228 0
M  V30 1644 C 160.883 1.94153 0.561157 0
M  V30 1645 C 161.204 0.983157 1.68401 0
M  V30 1646 O 160.474 0.0361132 1.95867 0
M  V30 1647 H 159.054 0.716791 0.210283 0
M  V30 1648 H 161.716 1.94202 -0.164765 0
M  V30 1649 H 160.812 2.96709 0.968008 0
M  V30 1650 N 161.113 -0.173488 1.56642 0
M  V30 1651 C 162.343 -0.904781 1.85734 0
M  V30 1652 C 162.751 -1.76431 0.68328 0
M  V30 1653 O 162.094 -1.802 -0.356865 0
M  V30 1654 C 162.156 -1.83382 3.09211 0
M  V30 1655 C 161.82 -1.15411 4.42187 0
M  V30 1656 C 162.817 -0.520609 5.17287 0
M  V30 1657 C 160.502 -1.15151 4.88923 0
M  V30 1658 C 162.496 0.106412 6.37311 0
M  V30 1659 C 160.183 -0.520664 6.08878 0
M  V30 1660 C 161.181 0.107196 6.82916 0
M  V30 1661 O 160.869 0.728102 8.00596 0
M  V30 1662 H 160.601 -0.268408 0.62043 0
M  V30 1663 H 163.155 -0.179096 2.04618 0
M  V30 1664 H 161.385 -2.59976 2.86268 0
M  V30 1665 H 163.074 -2.43476 3.24768 0
M  V30 1666 H 163.84 -0.514606 4.82262 0
M  V30 1667 H 159.719 -1.62961 4.31236 0
M  V30 1668 H 163.263 0.597081 6.9504 0
M  V30 1669 H 159.16 -0.524242 6.43368 0
M  V30 1670 H 159.928 0.627138 8.16094 0
M  V30 1671 N 162.591 -1.51276 -0.441967 0
M  V30 1672 C 163.837 -1.6492 -1.1905 0
M  V30 1673 C 164.192 -0.358731 -1.89026 0
M  V30 1674 O 163.485 0.645193 -1.8041 0
M  V30 1675 C 163.679 -2.78746 -2.23686 0
M  V30 1676 C 163.508 -4.18737 -1.63979 0
M  V30 1677 C 162.278 -4.84739 -1.42674 0
M  V30 1678 C 164.476 -5.01988 -1.11858 0
M  V30 1679 N 162.458 -6.08858 -0.785159 0
M  V30 1680 C 163.829 -6.17071 -0.601989 0
M  V30 1681 C 165.884 -4.87551 -1.0099 0
M  V30 1682 C 164.587 -7.19299 0.0126012 0
M  V30 1683 C 166.613 -5.89983 -0.409206 0
M  V30 1684 C 165.975 -7.04333 0.0968651 0
M  V30 1685 H 162.074 -0.657416 -0.423471 0
M  V30 1686 H 164.658 -1.8849 -0.48782 0
M  V30 1687 H 162.829 -2.56848 -2.91348 0
M  V30 1688 H 164.561 -2.81595 -2.90666 0
M  V30 1689 H 161.316 -4.42528 -1.68719 0
M  V30 1690 H 161.74 -6.75282 -0.481942 0
M  V30 1691 H 166.382 -3.99401 -1.38703 0
M  V30 1692 H 164.1 -8.071 0.401879 0
M  V30 1693 H 167.686 -5.8088 -0.327079 0
M  V30 1694 H 166.566 -7.82238 0.554373 0
M  V30 1695 N 164.069 0.697108 -1.41344 0
M  V30 1696 C 165.315 1.4593 -1.40827 0
M  V30 1697 C 165.648 1.94193 -0.0167098 0
M  V30 1698 O 164.923 1.69425 0.955263 0
M  V30 1699 C 165.206 2.67229 -2.41373 0
M  V30 1700 C 165.059 2.24741 -3.8963 0
M  V30 1701 C 166.378 3.69423 -2.39196 0
M  V30 1702 H 163.497 0.529303 -0.512842 0
M  V30 1703 H 166.139 0.794112 -1.72609 0
M  V30 1704 H 164.289 3.23982 -2.14401 0
M  V30 1705 H 165.961 1.73327 -4.27499 0
M  V30 1706 H 164.204 1.56542 -4.0457 0
M  V30 1707 H 164.875 3.1177 -4.55525 0
M  V30 1708 H 167.351 3.2234 -2.63128 0
M  V30 1709 H 166.227 4.51907 -3.11563 0
M  V30 1710 H 166.488 4.19012 -1.41001 0
M  V30 1711 N 165.547 1.27147 0.931209 0
M  V30 1712 C 166.477 1.12081 2.04842 0
M  V30 1713 C 167.458 0.0232364 1.70084 0
M  V30 1714 O 168.643 0.197085 1.93197 0
M  V30 1715 C 165.773 0.76354 3.38803 0
M  V30 1716 C 164.727 1.81396 3.87659 0
M  V30 1717 C 164.053 1.31075 5.18385 0
M  V30 1718 C 165.353 3.21739 4.11438 0
M  V30 1719 H 167.047 2.05537 2.17703 0
M  V30 1720 H 164.593 0.989603 1.04608 0
M  V30 1721 H 166.546 0.644982 4.16435 0
M  V30 1722 H 165.27 -0.206727 3.25945 0
M  V30 1723 H 163.929 1.92136 3.12217 0
M  V30 1724 H 163.577 0.330037 5.01916 0
M  V30 1725 H 163.277 2.013 5.52044 0
M  V30 1726 H 164.801 1.20506 5.98591 0
M  V30 1727 H 166.215 3.14019 4.79651 0
M  V30 1728 H 164.612 3.89644 4.56397 0
M  V30 1729 H 165.682 3.67054 3.16859 0
M  V30 1730 N 167.025 -1.13721 1.09112 0
M  V30 1731 C 168.273 -1.84559 0.823562 0
M  V30 1732 C 168.594 -1.83754 -0.652658 0
M  V30 1733 O 167.864 -1.29102 -1.47342 0
M  V30 1734 H 166.444 -0.683376 0.301673 0
M  V30 1735 H 169.106 -1.37771 1.37859 0
M  V30 1736 H 168.202 -2.8917 1.17419 0
M  V30 1737 N 168.503 -0.877838 -1.30888 0
M  V30 1738 C 169.919 -0.570844 -1.49042 0
M  V30 1739 C 170.119 0.893159 -1.80624 0
M  V30 1740 O 169.175 1.67485 -1.88958 0
M  V30 1741 C 170.488 -1.47784 -2.61878 0
M  V30 1742 C 172.036 -1.48071 -2.75761 0
M  V30 1743 C 172.511 -2.37347 -3.91702 0
M  V30 1744 N 174.002 -2.35271 -3.99001 0
M  V30 1745 C 174.737 -3.01063 -4.88004 0
M  V30 1746 N 174.233 -3.76055 -5.81854 0
M  V30 1747 N 176.026 -2.90332 -4.81315 0
M  V30 1748 H 168.177 -1.82502 -1.0866 0
M  V30 1749 H 170.44 -0.780797 -0.537644 0
M  V30 1750 H 170.146 -2.51993 -2.45341 0
M  V30 1751 H 170.02 -1.18215 -3.58197 0
M  V30 1752 H 172.407 -0.446166 -2.91708 0
M  V30 1753 H 172.488 -1.81668 -1.80085 0
M  V30 1754 H 172.132 -3.40883 -3.76512 0
M  V30 1755 H 172.062 -2.01071 -4.86701 0
M  V30 1756 H 174.553 -1.80768 -3.3186 0
M  V30 1757 H 174.866 -4.23366 -6.46514 0
M  V30 1758 H 173.211 -3.80163 -5.81808 0
M  V30 1759 H 176.402 -2.31278 -4.06974 0
M  V30 1760 H 176.575 -3.41885 -5.50471 0
M  V30 1761 N 169.982 1.44106 -0.638065 0
M  V30 1762 C 171.231 2.01194 -0.142744 0
M  V30 1763 C 171.544 1.50835 1.24532 0
M  V30 1764 O 172.75 2.00096 1.83504 0
M  V30 1765 C 171.206 3.59319 -0.20442 0
M  V30 1766 C 170.814 4.18674 -1.59423 0
M  V30 1767 C 172.558 4.23854 0.234079 0
M  V30 1768 C 170.465 5.69045 -1.61065 0
M  V30 1769 H 169.395 0.752367 -0.0495998 0
M  V30 1770 H 172.046 1.65246 -0.797881 0
M  V30 1771 H 170.428 3.92598 0.517946 0
M  V30 1772 H 171.602 3.96921 -2.34074 0
M  V30 1773 H 169.917 3.66453 -1.97741 0
M  V30 1774 H 172.514 5.34155 0.241443 0
M  V30 1775 H 172.857 3.96688 1.2627 0
M  V30 1776 H 173.39 3.95403 -0.436025 0
M  V30 1777 H 170.129 6.00956 -2.61787 0
M  V30 1778 H 169.649 5.929 -0.90718 0
M  V30 1779 H 171.328 6.32809 -1.34766 0
M  V30 1780 N 171.46 0.379036 1.52974 0
M  V30 1781 C 172.707 -0.206421 2.01445 0
M  V30 1782 C 173.035 -1.47668 1.26587 0
M  V30 1783 O 172.29 -1.92514 0.351675 0
M  V30 1784 C 172.589 -0.53096 3.53434 0
M  V30 1785 C 172.255 0.646546 4.46241 0
M  V30 1786 C 170.917 0.969604 4.7133 0
M  V30 1787 C 173.269 1.43479 5.01062 0
M  V30 1788 C 170.597 2.08263 5.48492 0
M  V30 1789 C 172.949 2.53834 5.7944 0
M  V30 1790 C 171.613 2.86659 6.02812 0
M  V30 1791 H 170.883 -0.0755349 0.73714 0
M  V30 1792 H 173.53 0.514271 1.84465 0
M  V30 1793 H 171.835 -1.33285 3.68432 0
M  V30 1794 H 173.532 -0.996417 3.88423 0
M  V30 1795 H 170.122 0.384734 4.2687 0
M  V30 1796 H 174.306 1.19844 4.81613 0
M  V30 1797 H 169.562 2.34078 5.64816 0
M  V30 1798 H 173.736 3.15319 6.20924 0
M  V30 1799 H 171.363 3.73026 6.62387 0
M  V30 1800 N 172.938 -1.57226 0.108567 0
M  V30 1801 C 174.178 -1.96717 -0.555155 0
M  V30 1802 C 174.542 -0.990003 -1.64508 0
M  V30 1803 O 175.743 -1.2739 -2.36696 0
M  V30 1804 C 174.014 -3.40575 -1.08367 0
M  V30 1805 S 175.573 -4.02072 -1.75737 0
M  V30 1806 H 172.391 -0.687638 -0.180762 0
M  V30 1807 H 174.993 -1.94563 0.191172 0
M  V30 1808 H 173.697 -4.0945 -0.279092 0
M  V30 1809 H 173.228 -3.46356 -1.86551 0
M  V30 1810 H 175.243 -3.91977 -3.04251 0
M  V30 1811 N 174.416 0.165178 -1.56732 0
M  V30 1812 C 175.693 0.908443 -1.73224 0
M  V30 1813 C 176.073 2.0013 -0.67165 0
M  V30 1814 O 175.421 2.26353 0.31253 0
M  V30 1815 C 175.631 1.46756 -3.16644 0
M  V30 1816 C 176.979 1.93809 -3.77787 0
M  V30 1817 O 178.003 1.56537 -3.1996 0
M  V30 1818 O 176.862 2.62486 -4.79336 0
M  V30 1819 H 173.956 0.428025 -0.707618 0
M  V30 1820 H 176.502 0.152526 -1.69013 0
M  V30 1821 H 175.274 0.68129 -3.85323 0
M  V30 1822 H 174.897 2.28749 -3.25207 0
M  V30 1823 N 175.894 1.51508 0.433938 0
M  V30 1824 C 177.143 1.63578 1.18005 0
M  V30 1825 C 177.456 0.359514 1.92268 0
M  V30 1826 O 178.662 0.359632 2.69108 0
M  V30 1827 C 177.118 2.88901 2.14626 0
M  V30 1828 C 176.726 4.23544 1.45995 0
M  V30 1829 C 178.47 3.10328 2.89649 0
M  V30 1830 C 176.377 5.40014 2.4112 0
M  V30 1831 H 175.307 0.609277 0.444182 0
M  V30 1832 H 177.958 1.77978 0.446773 0
M  V30 1833 H 176.34 2.68142 2.91403 0
M  V30 1834 H 177.514 4.54696 0.747532 0
M  V30 1835 H 175.829 4.08021 0.831115 0
M  V30 1836 H 178.426 3.94518 3.60915 0
M  V30 1837 H 178.769 2.23544 3.51189 0
M  V30 1838 H 179.302 3.31443 2.19978 0
M  V30 1839 H 176.041 6.29068 1.84264 0
M  V30 1840 H 175.561 5.13233 3.10406 0
M  V30 1841 H 177.24 5.72099 3.02177 0
M  V30 1842 N 177.372 -0.689602 1.41712 0
M  V30 1843 C 178.618 -1.45041 1.42599 0
M  V30 1844 C 178.973 -1.92366 0.0363764 0
M  V30 1845 O 178.266 -1.67022 -0.938844 0
M  V30 1846 C 178.46 -2.67298 2.37247 0
M  V30 1847 C 178.289 -2.31935 3.85274 0
M  V30 1848 C 177.059 -2.2201 4.53916 0
M  V30 1849 C 179.257 -1.94526 4.76093 0
M  V30 1850 N 177.239 -1.79594 5.87043 0
M  V30 1851 C 178.61 -1.62915 5.98213 0
M  V30 1852 C 180.665 -1.81388 4.63684 0
M  V30 1853 C 179.368 -1.19486 7.09306 0
M  V30 1854 C 181.394 -1.39364 5.74745 0
M  V30 1855 C 180.756 -1.08668 6.95967 0
M  V30 1856 H 176.855 -0.527806 0.577014 0
M  V30 1857 H 179.439 -0.797266 1.77628 0
M  V30 1858 H 177.61 -3.30325 2.04304 0
M  V30 1859 H 179.342 -3.33806 2.28814 0
M  V30 1860 H 176.097 -2.406 4.07932 0
M  V30 1861 H 176.521 -1.60851 6.57614 0
M  V30 1862 H 181.163 -2.03772 3.70455 0
M  V30 1863 H 178.881 -0.958477 8.02396 0
M  V30 1864 H 182.467 -1.2974 5.6715 0
M  V30 1865 H 181.347 -0.766417 7.80446 0
M  V30 1866 N 178.85 -1.27639 -0.924453 0
M  V30 1867 C 179.813 -1.10681 -2.00705 0
M  V30 1868 C 180.813 -0.0497823 -1.60723 0
M  V30 1869 O 182.003 -0.294654 -1.7169 0
M  V30 1870 C 179.135 -0.687164 -3.33902 0
M  V30 1871 H 180.328 -2.06817 -2.17179 0
M  V30 1872 H 177.881 -1.10473 -1.10569 0
M  V30 1873 H 178.616 0.275439 -3.23128 0
M  V30 1874 H 178.401 -1.45061 -3.6428 0
M  V30 1875 H 179.891 -0.590853 -4.13399 0
M  V30 1876 N 180.328 1.1314 -1.09713 0
M  V30 1877 C 181.291 2.16831 -0.742751 0
M  V30 1878 C 182.291 1.59159 0.229129 0
M  V30 1879 O 183.481 1.74199 0.00693237 0
M  V30 1880 C 180.613 3.40756 -0.0989168 0
M  V30 1881 H 181.806 2.49695 -1.66109 0
M  V30 1882 H 179.359 1.2802 -0.896699 0
M  V30 1883 H 180.094 3.13485 0.830514 0
M  V30 1884 H 179.879 3.83888 -0.798265 0
M  V30 1885 H 181.369 4.17386 0.133524 0
M  V30 1886 N 181.806 0.884767 1.30421 0
M  V30 1887 C 183.052 0.503851 1.96441 0
M  V30 1888 C 183.385 -0.944518 1.69684 0
M  V30 1889 O 182.66 -1.66737 1.00145 0
M  V30 1890 C 182.943 0.779085 3.51571 0
M  V30 1891 C 182.796 2.27807 3.87846 0
M  V30 1892 C 184.115 0.255452 4.39358 0
M  V30 1893 H 181.234 0.184533 0.713524 0
M  V30 1894 H 183.876 1.10872 1.54297 0
M  V30 1895 H 182.026 0.264274 3.876 0
M  V30 1896 H 183.698 2.86127 3.61841 0
M  V30 1897 H 181.941 2.74479 3.35922 0
M  V30 1898 H 182.612 2.42125 4.96064 0
M  V30 1899 H 185.088 0.696079 4.10236 0
M  V30 1900 H 183.964 0.477361 5.4682 0
M  V30 1901 H 184.225 -0.843293 4.33983 0
M  V30 1902 N 183.284 -1.43765 0.645699 0
M  V30 1903 C 184.561 -1.9541 0.0862963 0
M  V30 1904 C 184.941 -1.58725 -1.39175 0
M  V30 1905 O 184.289 -0.868581 -2.11348 0
M  V30 1906 C 184.499 -3.47488 0.324565 0
M  V30 1907 C 185.847 -4.24001 0.225497 0
M  V30 1908 O 186.871 -3.55274 0.256715 0
M  V30 1909 O 185.73 -5.46313 0.142801 0
M  V30 1910 H 182.824 -0.826882 -0.0139483 0
M  V30 1911 H 185.37 -1.53743 0.718415 0
M  V30 1912 H 184.142 -3.67289 1.3496 0
M  V30 1913 H 183.765 -3.96135 -0.340987 0
M  V30 1914 N 184.763 -0.387143 -1.52771 0
M  V30 1915 C 186.009 0.196025 -2.0185 0
M  V30 1916 C 186.342 1.46641 -1.27319 0
M  V30 1917 O 185.617 1.90889 -0.373032 0
M  V30 1918 C 185.9 0.466136 -3.5707 0
M  V30 1919 C 185.753 -0.819385 -4.42274 0
M  V30 1920 C 187.072 1.25768 -4.21747 0
M  V30 1921 H 184.191 0.0697708 -0.73369 0
M  V30 1922 H 186.833 -0.516286 -1.82851 0
M  V30 1923 H 184.983 1.07293 -3.7339 0
M  V30 1924 H 186.655 -1.4563 -4.37709 0
M  V30 1925 H 184.898 -1.43517 -4.09372 0
M  V30 1926 H 185.569 -0.585065 -5.48891 0
M  V30 1927 H 188.045 0.744167 -4.09391 0
M  V30 1928 H 186.921 1.41541 -5.30337 0
M  V30 1929 H 187.182 2.27228 -3.79236 0
M  V30 1930 N 186.241 1.57166 -0.116904 0
M  V30 1931 C 187.171 2.18222 0.830759 0
M  V30 1932 C 188.152 1.12167 1.27877 0
M  V30 1933 O 189.337 1.40394 1.34176 0
M  V30 1934 C 186.467 2.77996 2.08172 0
M  V30 1935 C 185.421 3.89614 1.77157 0
M  V30 1936 C 184.747 4.36187 3.09265 0
M  V30 1937 C 186.047 5.1181 1.04151 0
M  V30 1938 H 187.741 2.97664 0.321992 0
M  V30 1939 H 185.287 1.4318 0.153434 0
M  V30 1940 H 187.24 3.19366 2.74924 0
M  V30 1941 H 185.964 1.9584 2.6137 0
M  V30 1942 H 184.623 3.48816 1.12796 0
M  V30 1943 H 184.271 3.50893 3.60393 0
M  V30 1944 H 183.971 5.11455 2.89288 0
M  V30 1945 H 185.495 4.80207 3.77139 0
M  V30 1946 H 186.909 5.50214 1.61052 0
M  V30 1947 H 185.306 5.92648 0.942762 0
M  V30 1948 H 186.376 4.84892 0.0279022 0
M  V30 1949 N 187.719 -0.156864 1.56817 0
M  V30 1950 C 188.959 -0.877453 1.84608 0
M  V30 1951 C 189.323 -1.78791 0.699845 0
M  V30 1952 O 190.524 -2.5472 0.858553 0
M  V30 1953 C 188.795 -1.63992 3.17555 0
M  V30 1954 S 190.354 -2.40729 3.66872 0
M  V30 1955 H 187.172 -0.293612 0.647544 0
M  V30 1956 H 189.774 -0.138099 1.95012 0
M  V30 1957 H 188.478 -0.962363 3.98957 0
M  V30 1958 H 188.009 -2.42038 3.10131 0
M  V30 1959 H 190.024 -3.65725 3.3535 0
M  V30 1960 N 189.197 -1.51736 -0.425897 0
M  V30 1961 C 190.437 -1.66636 -1.18371 0
M  V30 1962 C 190.801 -0.379854 -1.88205 0
M  V30 1963 O 192.002 -0.404758 -2.65735 0
M  V30 1964 C 190.273 -2.84382 -2.16476 0
M  V30 1965 S 191.832 -3.19673 -3.0059 0
M  V30 1966 H 188.65 -0.586957 -0.40125 0
M  V30 1967 H 191.252 -1.89679 -0.473518 0
M  V30 1968 H 189.956 -3.76281 -1.63831 0
M  V30 1969 H 189.487 -2.63562 -2.92059 0
M  V30 1970 H 191.502 -2.66994 -4.18245 0
M  V30 1971 N 190.675 0.682077 -1.42076 0
M  V30 1972 C 191.903 1.47057 -1.4554 0
M  V30 1973 C 192.318 1.8869 -0.0645779 0
M  V30 1974 O 191.675 1.57666 0.919115 0
M  V30 1975 C 191.726 2.72442 -2.37609 0
M  V30 1976 O 191.447 2.32559 -3.71279 0
M  V30 1977 C 192.948 3.66069 -2.50017 0
M  V30 1978 H 190.168 0.452737 -0.495248 0
M  V30 1979 H 192.712 0.838695 -1.8651 0
M  V30 1980 H 190.867 3.31835 -1.9991 0
M  V30 1981 H 191.281 3.13475 -4.20516 0
M  V30 1982 H 192.755 4.50792 -3.18576 0
M  V30 1983 H 193.232 4.11476 -1.53572 0
M  V30 1984 H 193.838 3.12572 -2.88407 0
M  V30 1985 N 192.153 1.28127 0.917671 0
M  V30 1986 C 193.116 1.11744 2.00115 0
M  V30 1987 C 194.116 0.0583052 1.60694 0
M  V30 1988 O 195.306 0.303755 1.71531 0
M  V30 1989 C 192.438 0.704862 3.33533 0
M  V30 1990 H 193.631 2.07966 2.16079 0
M  V30 1991 H 191.184 1.11058 1.09981 0
M  V30 1992 H 191.919 -0.258299 3.2327 0
M  V30 1993 H 191.704 1.4699 3.63505 0
M  V30 1994 H 193.194 0.612768 4.1308 0
M  V30 1995 N 193.631 -1.12557 1.10312 0
M  V30 1996 C 194.856 -1.88405 0.867085 0
M  V30 1997 C 195.281 -1.79038 -0.576817 0
M  V30 1998 O 194.639 -1.14439 -1.40618 0
M  V30 1999 C 194.687 -3.3563 1.31851 0
M  V30 2000 O 193.791 -4.09565 0.482734 0
M  V30 2001 H 193.132 -0.585455 0.313271 0
M  V30 2002 H 195.662 -1.42352 1.4696 0
M  V30 2003 H 195.672 -3.86469 1.3079 0
M  V30 2004 H 194.347 -3.41765 2.37001 0
M  V30 2005 H 192.924 -3.68695 0.558448 0
M  V30 2006 N 195.109 -0.891671 -1.2995 0
M  V30 2007 C 196.358 -0.509521 -1.95158 0
M  V30 2008 C 196.671 0.947388 -1.71125 0
M  V30 2009 O 197.877 1.43669 -2.30372 0
M  V30 2010 C 196.333 -0.860315 -3.49466 0
M  V30 2011 C 195.941 -2.33545 -3.8231 0
M  V30 2012 C 197.685 -0.547687 -4.20952 0
M  V30 2013 C 195.592 -2.62752 -5.29826 0
M  V30 2014 H 194.522 -0.18682 -0.730489 0
M  V30 2015 H 197.173 -1.08756 -1.47798 0
M  V30 2016 H 195.555 -0.211285 -3.95436 0
M  V30 2017 H 196.729 -3.02936 -3.47227 0
M  V30 2018 H 195.044 -2.61629 -3.23944 0
M  V30 2019 H 197.641 -0.742854 -5.29515 0
M  V30 2020 H 197.984 0.51332 -4.13123 0
M  V30 2021 H 198.517 -1.1542 -3.80688 0
M  V30 2022 H 195.256 -3.6762 -5.42712 0
M  V30 2023 H 194.776 -1.97977 -5.66185 0
M  V30 2024 H 196.455 -2.48601 -5.97333 0
M  V30 2025 N 196.587 1.43421 -0.653314 0
M  V30 2026 C 197.517 2.33487 0.0246656 0
M  V30 2027 C 198.498 1.49475 0.811863 0
M  V30 2028 O 199.683 1.78139 0.773322 0
M  V30 2029 C 196.813 3.32841 0.99166 0
M  V30 2030 C 195.767 4.26842 0.314568 0
M  V30 2031 C 195.093 5.16236 1.39302 0
M  V30 2032 C 196.393 5.16243 -0.793095 0
M  V30 2033 H 198.087 2.90427 -0.727481 0
M  V30 2034 H 195.633 1.39649 -0.351287 0
M  V30 2035 H 197.586 3.94747 1.47487 0
M  V30 2036 H 196.31 2.74158 1.77497 0
M  V30 2037 H 194.969 3.663 -0.148199 0
M  V30 2038 H 194.617 4.53891 2.16776 0
M  V30 2039 H 194.317 5.79948 0.945223 0
M  V30 2040 H 195.841 5.81015 1.87759 0
M  V30 2041 H 197.255 5.71958 -0.392039 0
M  V30 2042 H 195.652 5.88676 -1.16536 0
M  V30 2043 H 196.722 4.55927 -1.65103 0
M  V30 2044 N 198.065 0.39524 1.52563 0
M  V30 2045 C 199.29 -0.187456 2.06551 0
M  V30 2046 C 199.715 -1.39249 1.26457 0
M  V30 2047 O 199.073 -1.78947 0.291151 0
M  V30 2048 C 199.121 -0.529985 3.56684 0
M  V30 2049 O 198.225 -1.62307 3.79118 0
M  V30 2050 H 197.566 -0.0202537 0.663691 0
M  V30 2051 H 200.096 0.564426 1.96661 0
M  V30 2052 H 200.106 -0.792598 4.00227 0
M  V30 2053 H 198.781 0.350987 4.14416 0
M  V30 2054 H 197.358 -1.3537 3.47461 0
M  V30 2055 N 199.544 -1.57102 0.125237 0
M  V30 2056 C 200.474 -2.18659 -0.819174 0
M  V30 2057 C 201.455 -1.12843 -1.27281 0
M  V30 2058 O 202.64 -1.41104 -1.33429 0
M  V30 2059 C 199.77 -2.79096 -2.06695 0
M  V30 2060 C 198.724 -3.90548 -1.75088 0
M  V30 2061 C 198.05 -4.37821 -3.06948 0
M  V30 2062 C 199.35 -5.12356 -1.01435 0
M  V30 2063 H 201.044 -2.9783 -0.306202 0
M  V30 2064 H 198.59 -1.4326 -0.145839 0
M  V30 2065 H 200.543 -3.2082 -2.73226 0
M  V30 2066 H 199.267 -1.97223 -2.60328 0
M  V30 2067 H 197.926 -3.49409 -1.10944 0
M  V30 2068 H 197.574 -3.52799 -3.58527 0
M  V30 2069 H 197.274 -5.12982 -2.86571 0
M  V30 2070 H 198.798 -4.822 -3.74587 0
M  V30 2071 H 200.212 -5.5106 -1.58132 0
M  V30 2072 H 198.609 -5.9314 -0.911319 0
M  V30 2073 H 199.679 -4.849 -0.00218681 0
M  V30 2074 N 201.022 0.148545 -1.56898 0
M  V30 2075 C 202.262 0.86765 -1.85071 0
M  V30 2076 C 202.626 1.78417 -0.709317 0
M  V30 2077 O 203.827 2.54261 -0.872049 0
M  V30 2078 C 202.098 1.62306 -3.1842 0
M  V30 2079 S 203.657 2.3878 -3.68143 0
M  V30 2080 H 200.475 0.290174 -0.649092 0
M  V30 2081 H 203.077 0.127755 -1.95082 0
M  V30 2082 H 201.781 0.941192 -3.99462 0
M  V30 2083 H 201.312 2.4039 -3.1141 0
M  V30 2084 H 203.327 3.63942 -3.37285 0
M  V30 2085 N 202.5 1.5196 0.417844 0
M  V30 2086 C 203.463 1.74065 1.49111 0
M  V30 2087 C 204.463 0.610537 1.48758 0
M  V30 2088 O 205.653 0.87832 1.50437 0
M  V30 2089 C 202.785 1.81502 2.88565 0
M  V30 2090 H 203.978 2.69869 1.30807 0
M  V30 2091 H 201.531 1.42244 0.647785 0
M  V30 2092 H 202.266 0.875813 3.1225 0
M  V30 2093 H 202.051 2.63651 2.90225 0
M  V30 2094 H 203.541 2.00376 3.66387 0
M  V30 2095 N 203.978 -0.674533 1.42435 0
M  V30 2096 C 205.227 -1.43034 1.42212 0
M  V30 2097 C 205.54 -1.95555 0.0420788 0
M  V30 2098 O 206.746 -2.71374 -0.0827558 0
M  V30 2099 C 205.202 -2.58748 2.50155 0
M  V30 2100 C 204.81 -2.12925 3.94166 0
M  V30 2101 C 206.554 -3.36257 2.59098 0
M  V30 2102 C 204.461 -3.25723 4.93618 0
M  V30 2103 H 203.391 -0.537345 0.528939 0
M  V30 2104 H 206.042 -0.73024 1.68344 0
M  V30 2105 H 204.424 -3.31128 2.17188 0
M  V30 2106 H 205.598 -1.47697 4.36488 0
M  V30 2107 H 203.913 -1.48354 3.89076 0
M  V30 2108 H 206.51 -4.20264 3.30578 0
M  V30 2109 H 206.853 -3.82866 1.63461 0
M  V30 2110 H 207.386 -2.70947 2.9126 0
M  V30 2111 H 204.125 -2.84105 5.90732 0
M  V30 2112 H 203.645 -3.89732 4.55926 0
M  V30 2113 H 205.324 -3.91186 5.15347 0
M  V30 2114 N 205.456 -1.28612 -0.910864 0
M  V30 2115 C 206.681 -1.1891 -1.69927 0
M  V30 2116 C 207.106 0.248372 -1.86453 0
M  V30 2117 O 206.464 1.17961 -1.37676 0
M  V30 2118 C 206.512 -1.89578 -3.06745 0
M  V30 2119 O 205.616 -1.20521 -3.94396 0
M  V30 2120 H 204.957 -0.412632 -0.520222 0
M  V30 2121 H 207.487 -1.69985 -1.1387 0
M  V30 2122 H 207.497 -1.97597 -3.56958 0
M  V30 2123 H 206.172 -2.94136 -2.94035 0
M  V30 2124 H 204.749 -1.20684 -3.52831 0
M  V30 2125 N 206.934 1.1197 -1.10907 0
M  V30 2126 C 208.183 1.82947 -0.849302 0
M  V30 2127 C 208.496 1.85275 0.627112 0
M  V30 2128 O 209.702 2.52296 1.00295 0
M  V30 2129 C 208.158 3.28529 -1.46959 0
M  V30 2130 C 207.766 3.34546 -2.97965 0
M  V30 2131 C 209.51 4.04443 -1.28942 0
M  V30 2132 C 207.417 4.74491 -3.53004 0
M  V30 2133 H 206.347 0.685477 -0.314065 0
M  V30 2134 H 208.998 1.2604 -1.33365 0
M  V30 2135 H 207.38 3.85333 -0.912917 0
M  V30 2136 H 208.554 2.87654 -3.59989 0
M  V30 2137 H 206.869 2.72108 -3.15192 0
M  V30 2138 H 209.466 5.07787 -1.67502 0
M  V30 2139 H 209.809 4.15656 -0.231456 0
M  V30 2140 H 210.342 3.5401 -1.81443 0
M  V30 2141 H 207.081 4.68474 -4.58489 0
M  V30 2142 H 206.601 5.21816 -2.9575 0
M  V30 2143 H 208.28 5.4344 -3.51115 0
M  V30 2144 N 208.412 0.89855 1.29475 0
M  V30 2145 C 209.689 0.443416 1.90508 0
M  V30 2146 C 210.069 -1.07685 1.81569 0
M  V30 2147 O 209.417 -1.9182 1.24166 0
M  V30 2148 C 209.627 0.956708 3.35631 0
M  V30 2149 C 210.975 0.999728 4.12663 0
M  V30 2150 O 211.999 0.904299 3.4453 0
M  V30 2151 O 210.858 1.14289 5.34416 0
M  V30 2152 H 207.952 0.138025 0.815401 0
M  V30 2153 H 210.498 0.98834 1.37949 0
M  V30 2154 H 209.27 2.00067 3.36287 0
M  V30 2155 H 208.893 0.391728 3.95666 0
M  V30 2156 N 209.89 -1.43072 0.660911 0
M  V30 2157 C 211.306 -1.56169 0.329173 0
M  V30 2158 C 211.506 -1.64317 -1.16629 0
M  V30 2159 O 210.562 -1.60245 -1.95135 0
M  V30 2160 C 211.875 -2.81873 1.04729 0
M  V30 2161 C 213.423 -2.95627 1.02828 0
M  V30 2162 C 213.898 -4.24174 1.72744 0
M  V30 2163 N 215.389 -4.31055 1.69545 0
M  V30 2164 C 216.124 -5.29304 2.20511 0
M  V30 2165 N 215.62 -6.33786 2.79799 0
M  V30 2166 N 217.413 -5.21008 2.10966 0
M  V30 2167 H 209.564 -1.36027 1.63127 0
M  V30 2168 H 211.827 -0.653823 0.686454 0
M  V30 2169 H 211.533 -2.81942 2.10242 0
M  V30 2170 H 211.407 -3.72338 0.603702 0
M  V30 2171 H 213.794 -2.95094 -0.0184742 0
M  V30 2172 H 213.875 -2.06431 1.51063 0
M  V30 2173 H 213.519 -4.25467 2.7738 0
M  V30 2174 H 213.449 -5.1228 1.2197 0
M  V30 2175 H 215.94 -3.56174 1.26288 0
M  V30 2176 H 216.253 -7.05086 3.16344 0
M  V30 2177 H 214.598 -6.34387 2.83863 0
M  V30 2178 H 217.789 -4.38301 1.64347 0
M  V30 2179 H 217.962 -5.97416 2.50993 0
M  V30 2180 N 211.368 -0.403325 -1.52352 0
M  V30 2181 C 212.598 0.17376 -2.05868 0
M  V30 2182 C 213.006 1.39898 -1.27378 0
M  V30 2183 O 212.349 1.80939 -0.31729 0
M  V30 2184 C 212.411 0.594756 -3.54546 0
M  V30 2185 C 212.075 -0.518926 -4.54044 0
M  V30 2186 C 213.072 -1.3807 -5.01231 0
M  V30 2187 C 210.757 -0.689961 -4.97539 0
M  V30 2188 C 212.751 -2.39852 -5.90551 0
M  V30 2189 C 210.438 -1.71109 -5.86656 0
M  V30 2190 C 211.436 -2.56378 -6.33056 0
M  V30 2191 O 211.124 -3.56743 -7.20409 0
M  V30 2192 H 210.856 0.0264951 -0.675481 0
M  V30 2193 H 213.41 -0.571179 -1.97299 0
M  V30 2194 H 211.64 1.39189 -3.60782 0
M  V30 2195 H 213.329 1.0991 -3.90736 0
M  V30 2196 H 214.095 -1.25994 -4.68349 0
M  V30 2197 H 209.974 -0.035939 -4.60986 0
M  V30 2198 H 213.518 -3.06441 -6.26689 0
M  V30 2199 H 209.415 -1.83218 -6.18952 0
M  V30 2200 H 210.183 -3.52918 -7.38506 0
M  V30 2201 N 212.846 1.57033 -0.133567 0
M  V30 2202 C 214.095 1.94861 0.520768 0
M  V30 2203 C 214.408 1.02012 1.66892 0
M  V30 2204 O 215.614 1.29365 2.38699 0
M  V30 2205 C 214.07 3.46362 0.977809 0
M  V30 2206 C 213.678 4.47773 -0.142674 0
M  V30 2207 C 215.422 3.93083 1.60269 0
M  V30 2208 C 213.329 5.90468 0.331883 0
M  V30 2209 H 212.259 0.727453 0.198315 0
M  V30 2210 H 214.91 1.82227 -0.215759 0
M  V30 2211 H 213.292 3.54282 1.7692 0
M  V30 2212 H 214.466 4.51536 -0.919317 0
M  V30 2213 H 212.781 4.10891 -0.675124 0
M  V30 2214 H 215.378 4.97121 1.96914 0
M  V30 2215 H 215.721 3.33876 2.48662 0
M  V30 2216 H 216.254 3.88025 0.876453 0
M  V30 2217 H 212.993 6.53463 -0.516341 0
M  V30 2218 H 212.513 5.90094 1.07469 0
M  V30 2219 H 214.192 6.42179 0.788332 0
M  V30 2220 N 214.325 -0.140222 1.56975 0
M  V30 2221 C 215.573 -0.850005 1.83356 0
M  V30 2222 C 215.894 -1.81399 0.71551 0
M  V30 2223 O 215.164 -1.94136 -0.262294 0
M  V30 2224 H 213.744 -0.316886 0.676456 0
M  V30 2225 H 216.406 -0.132608 1.94448 0
M  V30 2226 H 215.502 -1.40814 2.78528 0
M  V30 2227 N 215.803 -1.52179 -0.40978 0
M  V30 2228 C 217.049 -1.66453 -1.15851 0
M  V30 2229 C 217.382 -0.392972 -1.90182 0
M  V30 2230 O 216.657 0.608579 -1.84734 0
M  V30 2231 C 216.94 -2.88612 -2.15349 0
M  V30 2232 C 216.793 -4.25815 -1.44918 0
M  V30 2233 C 218.112 -3.06294 -3.16026 0
M  V30 2234 H 215.231 -0.60575 -0.419805 0
M  V30 2235 H 217.873 -1.84732 -0.444314 0
M  V30 2236 H 216.023 -2.73158 -2.76255 0
M  V30 2237 H 217.695 -4.52995 -0.871365 0
M  V30 2238 H 215.938 -4.27247 -0.751159 0
M  V30 2239 H 216.609 -5.07337 -2.17516 0
M  V30 2240 H 219.085 -3.20641 -2.65195 0
M  V30 2241 H 217.961 -3.93283 -3.8291 0
M  V30 2242 H 218.222 -2.19579 -3.83715 0
M  V30 2243 N 217.281 0.66697 -1.42791 0
M  V30 2244 C 218.697 0.981027 -1.25889 0
M  V30 2245 C 218.897 2.00793 -0.168695 0
M  V30 2246 O 217.953 2.48321 0.45747 0
M  V30 2247 C 219.266 1.47838 -2.61848 0
M  V30 2248 C 220.814 1.59575 -2.69267 0
M  V30 2249 C 221.289 2.12704 -4.05612 0
M  V30 2250 N 222.78 2.20026 -4.07606 0
M  V30 2251 C 223.515 2.62227 -5.09926 0
M  V30 2252 N 223.011 3.03824 -6.22626 0
M  V30 2253 N 224.804 2.62045 -4.97281 0
M  V30 2254 H 216.955 -0.0127891 -2.12396 0
M  V30 2255 H 219.218 0.0568258 -0.946295 0
M  V30 2256 H 218.924 0.798299 -3.4252 0
M  V30 2257 H 218.798 2.45579 -2.86305 0
M  V30 2258 H 221.185 2.26687 -1.88936 0
M  V30 2259 H 221.266 0.60302 -2.48591 0
M  V30 2260 H 220.91 1.46198 -4.86404 0
M  V30 2261 H 220.84 3.12782 -4.23645 0
M  V30 2262 H 223.331 1.90708 -3.2625 0
M  V30 2263 H 223.644 3.34734 -6.96544 0
M  V30 2264 H 221.989 3.01662 -6.26119 0
M  V30 2265 H 225.18 2.28916 -4.08308 0
M  V30 2266 H 225.353 2.94613 -5.77154 0
M  V30 2267 N 218.759 1.29093 0.90403 0
M  V30 2268 C 219.989 1.19516 1.68522 0
M  V30 2269 C 220.397 -0.24738 1.87576 0
M  V30 2270 O 219.74 -1.17798 1.40959 0
M  V30 2271 C 219.802 1.83249 3.0929 0
M  V30 2272 C 219.466 3.32531 3.13484 0
M  V30 2273 C 220.463 4.28821 2.93953 0
M  V30 2274 C 218.148 3.73656 3.35688 0
M  V30 2275 C 220.142 5.64212 2.96553 0
M  V30 2276 C 217.829 5.0917 3.37919 0
M  V30 2277 C 218.827 6.04258 3.18373 0
M  V30 2278 O 218.515 7.37298 3.20385 0
M  V30 2279 H 218.247 0.415467 0.533257 0
M  V30 2280 H 220.801 1.70912 1.13922 0
M  V30 2281 H 219.031 1.26358 3.65473 0
M  V30 2282 H 220.72 1.68054 3.69476 0
M  V30 2283 H 221.486 3.98382 2.76616 0
M  V30 2284 H 217.365 3.00101 3.49943 0
M  V30 2285 H 220.909 6.38407 2.81216 0
M  V30 2286 H 216.806 5.39256 3.54787 0
M  V30 2287 H 217.574 7.46048 3.36681 0
M  V30 2288 N 220.237 -1.11381 1.11499 0
M  V30 2289 C 221.462 -1.87475 0.887019 0
M  V30 2290 C 221.887 -1.79639 -0.557796 0
M  V30 2291 O 221.245 -1.15924 -1.39396 0
M  V30 2292 C 221.293 -3.34213 1.35403 0
M  V30 2293 O 220.397 -4.0903 0.526146 0
M  V30 2294 H 219.738 -0.582099 0.319463 0
M  V30 2295 H 222.268 -1.40785 1.48461 0
M  V30 2296 H 222.278 -3.8506 1.34881 0
M  V30 2297 H 220.953 -3.39232 2.40612 0
M  V30 2298 H 219.53 -3.68082 0.597522 0
M  V30 2299 N 221.715 -0.905404 -1.28997 0
M  V30 2300 C 222.645 -0.404212 -2.29975 0
M  V30 2301 C 223.626 0.523784 -1.61835 0
M  V30 2302 O 224.811 0.433298 -1.89304 0
M  V30 2303 C 221.941 0.364042 -3.45387 0
M  V30 2304 C 220.895 -0.474048 -4.25367 0
M  V30 2305 C 220.221 0.422045 -5.33032 0
M  V30 2306 C 221.521 -1.72696 -4.92923 0
M  V30 2307 H 223.215 -1.24807 -2.72146 0
M  V30 2308 H 220.761 -0.601585 -1.30832 0
M  V30 2309 H 222.714 0.725447 -4.15109 0
M  V30 2310 H 221.438 1.24174 -3.02074 0
M  V30 2311 H 220.097 -0.81786 -3.57361 0
M  V30 2312 H 219.745 1.29804 -4.85963 0
M  V30 2313 H 219.445 -0.135057 -5.87445 0
M  V30 2314 H 220.969 0.779517 -6.05604 0
M  V30 2315 H 222.383 -1.43495 -5.55051 0
M  V30 2316 H 220.78 -2.22582 -5.57295 0
M  V30 2317 H 221.85 -2.45964 -4.17887 0
M  V30 2318 N 223.193 1.4272 -0.668489 0
M  V30 2319 C 224.125 2.2914 0.052613 0
M  V30 2320 C 225.138 1.43339 0.771857 0
M  V30 2321 O 226.327 1.67123 0.627067 0
M  V30 2322 C 223.427 3.20618 1.09804 0
M  V30 2323 C 222.6 4.35039 0.45389 0
M  V30 2324 C 221.659 5.07282 1.39825 0
M  V30 2325 O 220.685 5.62024 0.900978 0
M  V30 2326 N 221.887 5.12206 2.73176 0
M  V30 2327 H 224.652 2.91668 -0.689209 0
M  V30 2328 H 222.213 1.53577 -0.512422 0
M  V30 2329 H 224.205 3.65815 1.73094 0
M  V30 2330 H 222.775 2.59585 1.74167 0
M  V30 2331 H 221.995 3.92567 -0.358396 0
M  V30 2332 H 223.283 5.088 0.00486972 0
M  V30 2333 H 222.681 4.6913 3.16122 0
M  V30 2334 H 221.238 5.61069 3.31729 0
M  V30 2335 N 224.671 0.411399 1.52136 0
M  V30 2336 C 225.901 -0.16284 2.05957 0
M  V30 2337 C 226.309 -1.3922 1.28119 0
M  V30 2338 O 225.652 -1.80768 0.326881 0
M  V30 2339 C 225.714 -0.575946 3.54856 0
M  V30 2340 C 225.378 0.542998 4.53763 0
M  V30 2341 C 226.375 1.40726 5.00492 0
M  V30 2342 C 224.06 0.716337 4.97166 0
M  V30 2343 C 226.054 2.4298 5.8927 0
M  V30 2344 C 223.741 1.74218 5.8574 0
M  V30 2345 C 224.739 2.59731 6.31687 0
M  V30 2346 O 224.427 3.60558 7.18507 0
M  V30 2347 H 224.159 -0.0229125 0.675612 0
M  V30 2348 H 226.713 0.581634 1.96993 0
M  V30 2349 H 224.943 -1.37274 3.61515 0
M  V30 2350 H 226.632 -1.07836 3.91313 0
M  V30 2351 H 227.398 1.28476 4.67674 0
M  V30 2352 H 223.277 0.0603857 4.6096 0
M  V30 2353 H 226.821 3.0976 6.25055 0
M  V30 2354 H 222.718 1.86498 6.17971 0
M  V30 2355 H 223.486 3.56829 7.36624 0
M  V30 2356 N 226.149 -1.5696 0.141893 0
M  V30 2357 C 227.56 -1.82797 -0.379776 0
M  V30 2358 C 227.911 -1.06033 -1.6508 0
M  V30 2359 O 227.036 -0.304011 -2.14254 0
M  V30 2360 C 227.631 -3.31578 -0.695802 0
M  V30 2361 C 226.19 -3.58014 -1.16201 0
M  V30 2362 C 225.337 -2.76699 -0.182455 0
M  V30 2363 H 228.288 -1.54406 0.366675 0
M  V30 2364 H 228.309 -3.47454 -1.55099 0
M  V30 2365 H 227.821 -3.87421 0.229449 0
M  V30 2366 H 225.922 -3.07553 -2.10338 0
M  V30 2367 H 226.035 -4.66501 -1.09151 0
M  V30 2368 H 224.399 -2.45618 -0.674072 0
M  V30 2369 H 225.182 -3.35311 0.736297 0
M  V30 2370 N 227.627 0.131896 -1.57047 0
M  V30 2371 C 228.855 0.856461 -1.88341 0
M  V30 2372 C 229.27 1.74042 -0.731757 0
M  V30 2373 O 228.627 1.80051 0.297945 0
M  V30 2374 C 228.678 1.70064 -3.18999 0
M  V30 2375 O 228.399 0.852278 -4.2973 0
M  V30 2376 C 229.9 2.53148 -3.63911 0
M  V30 2377 H 227.12 0.246885 -0.62393 0
M  V30 2378 H 229.664 0.120152 -2.04147 0
M  V30 2379 H 227.819 2.38984 -3.04902 0
M  V30 2380 H 228.233 1.43329 -5.04537 0
M  V30 2381 H 229.707 3.07931 -4.58129 0
M  V30 2382 H 230.184 3.29901 -2.89935 0
M  V30 2383 H 230.79 1.89492 -3.80753 0
M  V30 2384 N 229.106 1.52395 0.401703 0
M  V30 2385 C 230.036 1.79231 1.49661 0
M  V30 2386 C 231.017 0.643654 1.57452 0
M  V30 2387 O 232.202 0.889989 1.72606 0
M  V30 2388 C 229.332 1.94971 2.87409 0
M  V30 2389 C 228.286 3.10604 2.94465 0
M  V30 2390 C 227.612 3.11577 4.34538 0
M  V30 2391 C 228.912 4.49921 2.6527 0
M  V30 2392 H 230.606 2.70917 1.27454 0
M  V30 2393 H 228.152 1.30362 0.6117 0
M  V30 2394 H 230.105 2.12328 3.63999 0
M  V30 2395 H 228.829 0.999632 3.10926 0
M  V30 2396 H 227.488 2.93009 2.20321 0
M  V30 2397 H 227.136 2.14277 4.55076 0
M  V30 2398 H 226.836 3.89247 4.40183 0
M  V30 2399 H 228.36 3.31073 5.13053 0
M  V30 2400 H 229.774 4.67683 3.31581 0
M  V30 2401 H 228.171 5.29564 2.82281 0
M  V30 2402 H 229.241 4.57507 1.60671 0
M  V30 2403 N 230.584 -0.659388 1.43143 0
M  V30 2404 C 231.83 -1.42145 1.44647 0
M  V30 2405 C 232.163 -1.9408 0.0681907 0
M  V30 2406 O 231.438 -1.71899 -0.910007 0
M  V30 2407 C 231.721 -2.60735 2.48373 0
M  V30 2408 C 231.574 -2.14332 3.95451 0
M  V30 2409 C 232.893 -3.62951 2.48906 0
M  V30 2410 H 230.012 -0.51552 0.526696 0
M  V30 2411 H 232.654 -0.748069 1.74654 0
M  V30 2412 H 230.804 -3.18184 2.22916 0
M  V30 2413 H 232.476 -1.61932 4.31944 0
M  V30 2414 H 230.719 -1.4576 4.08578 0
M  V30 2415 H 231.39 -2.99583 4.63631 0
M  V30 2416 H 233.866 -3.1525 2.71582 0
M  V30 2417 H 232.742 -4.43487 3.23435 0
M  V30 2418 H 233.003 -4.15126 1.52061 0
M  V30 2419 N 232.062 -1.29571 -0.897171 0
M  V30 2420 C 233.29 -1.20583 -1.68129 0
M  V30 2421 C 233.705 0.233181 -1.87354 0
M  V30 2422 O 233.062 1.15579 -1.41236 0
M  V30 2423 C 233.113 -1.91772 -3.06441 0
M  V30 2424 O 232.834 -3.30053 -2.88091 0
M  V30 2425 C 234.335 -1.89291 -4.00854 0
M  V30 2426 H 231.555 -0.417826 -0.525036 0
M  V30 2427 H 234.099 -1.70987 -1.12177 0
M  V30 2428 H 232.254 -1.45196 -3.59161 0
M  V30 2429 H 232.668 -3.65942 -3.75748 0
M  V30 2430 H 234.142 -2.43662 -4.95311 0
M  V30 2431 H 234.619 -0.869014 -4.30517 0
M  V30 2432 H 235.225 -2.35622 -3.54066 0
M  V30 2433 N 233.54 1.10788 -1.12088 0
M  V30 2434 C 234.956 1.34691 -0.856186 0
M  V30 2435 C 235.156 1.94791 0.515615 0
M  V30 2436 O 234.212 2.18524 1.26505 0
M  V30 2437 C 235.525 2.27208 -1.9697 0
M  V30 2438 C 237.073 2.40755 -2.00016 0
M  V30 2439 C 237.548 3.36598 -3.1059 0
M  V30 2440 N 239.039 3.44164 -3.10008 0
M  V30 2441 C 239.774 4.18284 -3.92206 0
M  V30 2442 N 239.27 4.95322 -4.84384 0
M  V30 2443 N 241.063 4.13865 -3.80357 0
M  V30 2444 H 233.214 0.70144 -2.00483 0
M  V30 2445 H 235.477 0.371405 -0.872217 0
M  V30 2446 H 235.183 1.90251 -2.958 0
M  V30 2447 H 235.057 3.27485 -1.87172 0
M  V30 2448 H 237.444 2.76982 -1.01808 0
M  V30 2449 H 237.525 1.40305 -2.13888 0
M  V30 2450 H 237.169 3.01096 -4.09028 0
M  V30 2451 H 237.099 4.36918 -2.93956 0
M  V30 2452 H 239.59 2.8922 -2.43228 0
M  V30 2453 H 239.903 5.49267 -5.43623 0
M  V30 2454 H 238.248 4.94459 -4.884 0
M  V30 2455 H 241.439 3.52773 -3.07683 0
M  V30 2456 H 241.612 4.71372 -4.44649 0
M  V30 2457 N 235.018 0.912232 1.28515 0
M  V30 2458 C 236.434 0.610159 1.47476 0
M  V30 2459 C 236.634 -0.844955 1.82928 0
M  V30 2460 O 235.69 -1.62416 1.93332 0
M  V30 2461 C 237.003 1.54675 2.57868 0
M  V30 2462 C 238.551 1.55331 2.71738 0
M  V30 2463 C 239.026 2.47649 3.85272 0
M  V30 2464 N 240.517 2.45767 3.92623 0
M  V30 2465 C 241.252 3.13896 4.79851 0
M  V30 2466 N 240.748 3.9135 5.71679 0
M  V30 2467 N 242.541 3.02991 4.73448 0
M  V30 2468 H 234.692 1.85318 1.03783 0
M  V30 2469 H 236.955 0.794777 0.516753 0
M  V30 2470 H 236.661 2.5841 2.38574 0
M  V30 2471 H 236.535 1.27671 3.54937 0
M  V30 2472 H 238.922 0.52335 2.90422 0
M  V30 2473 H 239.003 1.86378 1.75205 0
M  V30 2474 H 238.647 3.50745 3.67342 0
M  V30 2475 H 238.577 2.13904 4.81199 0
M  V30 2476 H 241.068 1.89503 3.26951 0
M  V30 2477 H 241.381 4.40359 6.35062 0
M  V30 2478 H 239.726 3.95455 5.71524 0
M  V30 2479 H 242.917 2.41987 4.007 0
M  V30 2480 H 243.09 3.5636 5.41213 0
M  V30 2481 N 236.496 -1.42363 0.676048 0
M  V30 2482 C 237.443 -2.308 -0.00150904 0
M  V30 2483 C 238.413 -1.46032 -0.791444 0
M  V30 2484 O 239.598 -1.74861 -0.76344 0
M  V30 2485 C 236.738 -3.31883 -0.945919 0
M  V30 2486 C 235.851 -4.31741 -0.149675 0
M  V30 2487 C 234.986 -5.19898 -1.08995 0
M  V30 2488 C 234.025 -6.11434 -0.285465 0
M  V30 2489 N 233.162 -6.92138 -1.17851 0
M  V30 2490 H 238.002 -2.88187 0.758455 0
M  V30 2491 H 235.539 -1.41952 0.38576 0
M  V30 2492 H 237.497 -3.89019 -1.50731 0
M  V30 2493 H 236.127 -2.76093 -1.6725 0
M  V30 2494 H 235.179 -3.76713 0.528359 0
M  V30 2495 H 236.491 -4.96534 0.474866 0
M  V30 2496 H 235.645 -5.81772 -1.72123 0
M  V30 2497 H 234.384 -4.55284 -1.74837 0
M  V30 2498 H 233.389 -5.48627 0.359018 0
M  V30 2499 H 234.614 -6.78097 0.368883 0
M  V30 2500 H 232.56 -6.30152 -1.82332 0
M  V30 2501 H 232.477 -7.53542 -0.609082 0
M  V30 2502 H 233.745 -7.58499 -1.79722 0
M  V30 2503 N 237.974 -0.419461 -1.51915 0
M  V30 2504 C 238.937 0.389116 -2.25873 0
M  V30 2505 C 239.937 0.964924 -1.28631 0
M  V30 2506 O 241.127 0.842179 -1.52489 0
M  V30 2507 C 238.259 1.54874 -3.03689 0
M  V30 2508 H 239.452 -0.258799 -2.98781 0
M  V30 2509 H 237.005 -0.172209 -1.55348 0
M  V30 2510 H 237.74 2.23323 -2.35154 0
M  V30 2511 H 237.525 1.14223 -3.75094 0
M  V30 2512 H 239.015 2.12046 -3.59759 0
M  V30 2513 N 239.452 1.56882 -0.150215 0
M  V30 2514 C 240.701 1.95403 0.500071 0
M  V30 2515 C 241.014 1.03777 1.658 0
M  V30 2516 O 242.22 1.31889 2.37313 0
M  V30 2517 C 240.676 3.4738 0.941018 0
M  V30 2518 C 240.284 4.47596 -0.190158 0
M  V30 2519 C 242.028 3.9476 1.56091 0
M  V30 2520 C 239.935 5.90787 0.269237 0
M  V30 2521 H 238.865 0.729515 0.190588 0
M  V30 2522 H 241.516 1.81988 -0.235074 0
M  V30 2523 H 239.898 3.56138 1.73152 0
M  V30 2524 H 241.072 4.50536 -0.967157 0
M  V30 2525 H 239.387 4.10151 -0.718666 0
M  V30 2526 H 241.984 4.99181 1.9163 0
M  V30 2527 H 242.327 3.36494 2.45107 0
M  V30 2528 H 242.86 3.88932 0.835249 0
M  V30 2529 H 239.599 6.52879 -0.585621 0
M  V30 2530 H 239.119 5.912 1.01204 0
M  V30 2531 H 240.798 6.42979 0.720176 0
M  V30 2532 N 240.93 -0.123565 1.57115 0
M  V30 2533 C 241.86 -1.15309 2.03042 0
M  V30 2534 C 242.841 -1.43454 0.914061 0
M  V30 2535 O 244.026 -1.53973 1.18347 0
M  V30 2536 C 241.156 -2.48043 2.43089 0
M  V30 2537 C 240.11 -2.3437 3.58127 0
M  V30 2538 C 239.436 -3.72026 3.84059 0
M  V30 2539 C 240.736 -1.80804 4.90007 0
M  V30 2540 H 242.43 -0.771102 2.893 0
M  V30 2541 H 239.976 -0.369479 1.39179 0
M  V30 2542 H 241.929 -3.20311 2.73823 0
M  V30 2543 H 240.653 -2.88122 1.53796 0
M  V30 2544 H 239.312 -1.64551 3.27595 0
M  V30 2545 H 238.96 -4.09582 2.91979 0
M  V30 2546 H 238.66 -3.63732 4.6149 0
M  V30 2547 H 240.184 -4.45806 4.1724 0
M  V30 2548 H 241.598 -2.42886 5.19307 0
M  V30 2549 H 239.995 -1.83343 5.71407 0
M  V30 2550 H 241.065 -0.76528 4.78823 0
M  V30 2551 N 242.408 -1.52605 -0.393616 0
M  V30 2552 C 243.371 -1.76415 -1.46323 0
M  V30 2553 C 244.371 -0.634126 -1.47768 0
M  V30 2554 O 245.561 -0.902142 -1.4902 0
M  V30 2555 C 242.693 -1.8607 -2.85641 0
M  V30 2556 H 243.886 -2.71916 -1.26498 0
M  V30 2557 H 241.439 -1.43257 -0.625073 0
M  V30 2558 H 242.174 -0.925378 -3.10817 0
M  V30 2559 H 241.959 -2.68235 -2.85993 0
M  V30 2560 H 243.449 -2.06179 -3.63153 0
M  V30 2561 N 243.887 0.651787 -1.4349 0
M  V30 2562 C 244.817 1.77621 -1.51569 0
M  V30 2563 C 245.798 1.66022 -0.370253 0
M  V30 2564 O 246.983 1.85095 -0.587658 0
M  V30 2565 C 244.113 3.16056 -1.43966 0
M  V30 2566 C 243.067 3.4242 -2.56774 0
M  V30 2567 C 242.393 4.8067 -2.34223 0
M  V30 2568 C 243.693 3.37023 -3.99015 0
M  V30 2569 H 245.387 1.71117 -2.45681 0
M  V30 2570 H 242.933 0.821825 -1.18246 0
M  V30 2571 H 244.886 3.94472 -1.48221 0
M  V30 2572 H 243.61 3.23293 -0.463586 0
M  V30 2573 H 242.269 2.66375 -2.51873 0
M  V30 2574 H 241.917 4.84585 -1.34856 0
M  V30 2575 H 241.617 4.9927 -3.09844 0
M  V30 2576 H 243.141 5.61342 -2.40265 0
M  V30 2577 H 244.555 4.05374 -4.05395 0
M  V30 2578 H 242.952 3.67159 -4.74673 0
M  V30 2579 H 244.022 2.3518 -4.2405 0
M  V30 2580 N 245.365 1.30045 0.890287 0
M  V30 2581 C 246.295 1.18541 2.01172 0
M  V30 2582 C 247.276 0.0773356 1.69924 0
M  V30 2583 O 248.461 0.25845 1.92473 0
M  V30 2584 C 245.591 0.870941 3.36202 0
M  V30 2585 C 244.545 1.93637 3.81692 0
M  V30 2586 C 243.871 1.475 5.13953 0
M  V30 2587 C 245.171 3.34666 4.00994 0
M  V30 2588 H 246.865 2.12359 2.11054 0
M  V30 2589 H 244.411 1.02238 1.01407 0
M  V30 2590 H 246.364 0.777141 4.14172 0
M  V30 2591 H 245.088 -0.102926 3.26438 0
M  V30 2592 H 243.747 2.01972 3.05946 0
M  V30 2593 H 243.395 0.489551 5.00612 0
M  V30 2594 H 243.095 2.1876 5.4536 0
M  V30 2595 H 244.619 1.39489 5.94454 0
M  V30 2596 H 246.033 3.2912 4.69417 0
M  V30 2597 H 244.43 4.03966 4.43769 0
M  V30 2598 H 245.5 3.76949 3.05021 0
M  V30 2599 N 246.843 -1.10192 1.12674 0
M  V30 2600 C 248.068 -1.86523 0.906853 0
M  V30 2601 C 248.493 -1.80221 -0.538711 0
M  V30 2602 O 247.851 -1.17396 -1.38158 0
M  V30 2603 C 247.899 -3.32758 1.3894 0
M  V30 2604 O 247.003 -4.08449 0.5695 0
M  V30 2605 H 246.344 -0.578678 0.325619 0
M  V30 2606 H 248.874 -1.39203 1.49946 0
M  V30 2607 H 248.884 -3.83608 1.38958 0
M  V30 2608 H 247.559 -3.36661 2.44197 0
M  V30 2609 H 246.136 -3.67427 0.636528 0
M  V30 2610 N 248.321 -0.919034 -1.28029 0
M  V30 2611 C 249.567 -0.555757 -1.95036 0
M  V30 2612 C 249.9 0.899198 -1.72128 0
M  V30 2613 O 249.175 1.64023 -1.04531 0
M  V30 2614 C 249.458 -0.872024 -3.49382 0
M  V30 2615 C 249.311 -2.3801 -3.81669 0
M  V30 2616 C 250.63 -0.37185 -4.38526 0
M  V30 2617 H 247.749 -0.203386 -0.708381 0
M  V30 2618 H 250.391 -1.14924 -1.51303 0
M  V30 2619 H 248.541 -0.366946 -3.86763 0
M  V30 2620 H 250.213 -2.9562 -3.54128 0
M  V30 2621 H 248.456 -2.83289 -3.28526 0
M  V30 2622 H 249.127 -2.55192 -4.8947 0
M  V30 2623 H 251.603 -0.804602 -4.08247 0
M  V30 2624 H 250.479 -0.622173 -5.45362 0
M  V30 2625 H 250.74 0.727934 -4.36066 0
M  V30 2626 N 249.799 1.42003 -0.683588 0
M  V30 2627 C 251.045 2.02223 -0.218536 0
M  V30 2628 C 251.4 1.53126 1.16492 0
M  V30 2629 O 250.693 0.727459 1.77253 0
M  V30 2630 C 250.887 3.56827 -0.202357 0
M  V30 2631 C 250.716 4.20928 -1.5827 0
M  V30 2632 C 249.486 4.5573 -2.18262 0
M  V30 2633 C 251.684 4.47933 -2.52706 0
M  V30 2634 N 249.666 5.05056 -3.48986 0
M  V30 2635 C 251.037 4.98906 -3.68094 0
M  V30 2636 C 253.092 4.29931 -2.51125 0
M  V30 2637 C 251.795 5.33768 -4.82166 0
M  V30 2638 C 253.821 4.65875 -3.643 0
M  V30 2639 C 253.183 5.17008 -4.78417 0
M  V30 2640 H 249.282 0.771931 -0.125088 0
M  V30 2641 H 251.866 1.72729 -0.898479 0
M  V30 2642 H 250.037 3.85819 0.447029 0
M  V30 2643 H 251.769 4.03755 0.276399 0
M  V30 2644 H 248.524 4.41781 -1.70665 0
M  V30 2645 H 248.948 5.34139 -4.15962 0
M  V30 2646 H 253.59 3.89647 -1.6412 0
M  V30 2647 H 251.308 5.72981 -5.6984 0
M  V30 2648 H 254.894 4.53615 -3.64314 0
M  V30 2649 H 253.774 5.44301 -5.64541 0
M  V30 2650 N 251.277 0.427512 1.51691 0
M  V30 2651 C 252.523 -0.142439 2.02299 0
M  V30 2652 C 252.856 -1.43214 1.31162 0
M  V30 2653 O 252.131 -1.89833 0.423511 0
M  V30 2654 C 252.414 -0.371301 3.58181 0
M  V30 2655 C 252.267 0.936358 4.39946 0
M  V30 2656 C 253.586 -1.14542 4.24933 0
M  V30 2657 H 250.705 -0.0502937 0.735282 0
M  V30 2658 H 253.347 0.564584 1.81418 0
M  V30 2659 H 251.497 -0.973559 3.76104 0
M  V30 2660 H 253.169 1.57184 4.33694 0
M  V30 2661 H 251.412 1.5432 4.05423 0
M  V30 2662 H 252.083 0.730388 5.47147 0
M  V30 2663 H 254.559 -0.635362 4.11221 0
M  V30 2664 H 253.435 -1.27431 5.33903 0
M  V30 2665 H 253.696 -2.17093 3.85127 0
M  V30 2666 N 252.755 -1.56801 0.158532 0
M  V30 2667 C 253.685 -2.20347 -0.772609 0
M  V30 2668 C 254.666 -1.15518 -1.24859 0
M  V30 2669 O 255.851 -1.43902 -1.30406 0
M  V30 2670 C 252.981 -2.83417 -2.00729 0
M  V30 2671 C 251.935 -3.94174 -1.66765 0
M  V30 2672 C 251.261 -4.44233 -2.97592 0
M  V30 2673 C 252.561 -5.14392 -0.905447 0
M  V30 2674 H 254.255 -2.98413 -0.242959 0
M  V30 2675 H 251.801 -1.43537 -0.115419 0
M  V30 2676 H 253.754 -3.26543 -2.6636 0
M  V30 2677 H 252.478 -2.02701 -2.56086 0
M  V30 2678 H 251.137 -3.51684 -1.03508 0
M  V30 2679 H 250.785 -3.60325 -3.50963 0
M  V30 2680 H 250.485 -5.18945 -2.75626 0
M  V30 2681 H 252.009 -4.90037 -3.64274 0
M  V30 2682 H 253.423 -5.5429 -1.46408 0
M  V30 2683 H 251.82 -5.9494 -0.7853 0
M  V30 2684 H 252.89 -4.84795 0.100668 0
M  V30 2685 N 254.233 0.115231 -1.57178 0
M  V30 2686 C 255.458 0.840354 -1.89612 0
M  V30 2687 C 255.883 1.72464 -0.750845 0
M  V30 2688 O 255.241 1.78826 0.298478 0
M  V30 2689 C 255.289 1.64654 -3.20814 0
M  V30 2690 O 254.393 2.7538 -3.06985 0
M  V30 2691 H 253.734 0.232158 -0.622092 0
M  V30 2692 H 256.264 0.0964977 -2.04372 0
M  V30 2693 H 256.274 2.03499 -3.53627 0
M  V30 2694 H 254.949 0.997416 -4.03763 0
M  V30 2695 H 253.526 2.3971 -2.85646 0
M  V30 2696 N 255.711 1.52812 0.385517 0
M  V30 2697 C 256.939 1.71907 1.15133 0
M  V30 2698 C 257.354 0.439004 1.83625 0
M  V30 2699 O 256.711 -0.586765 1.7281 0
M  V30 2700 C 256.762 2.87099 2.19673 0
M  V30 2701 O 256.483 4.10151 1.53973 0
M  V30 2702 C 257.984 3.17902 3.08955 0
M  V30 2703 H 255.204 0.575479 0.345057 0
M  V30 2704 H 257.748 1.99476 0.45052 0
M  V30 2705 H 255.903 2.61982 2.85384 0
M  V30 2706 H 256.317 4.74514 2.23465 0
M  V30 2707 H 257.791 4.01959 3.7833 0
M  V30 2708 H 258.268 2.3243 3.72657 0
M  V30 2709 H 258.874 3.44871 2.48885 0
M  V30 2710 N 257.189 -0.644168 1.43834 0
M  V30 2711 C 258.435 -1.40603 1.46146 0
M  V30 2712 C 258.768 -1.93997 0.0887717 0
M  V30 2713 O 258.043 -1.72854 -0.891724 0
M  V30 2714 C 258.326 -2.58086 2.51124 0
M  V30 2715 C 258.179 -2.10126 3.97702 0
M  V30 2716 C 259.498 -3.60291 2.52742 0
M  V30 2717 H 256.617 -0.509905 0.532134 0
M  V30 2718 H 259.259 -0.729502 1.75437 0
M  V30 2719 H 257.409 -3.15801 2.26278 0
M  V30 2720 H 259.081 -1.57342 4.33637 0
M  V30 2721 H 257.324 -1.41419 4.10101 0
M  V30 2722 H 257.995 -2.94649 4.66783 0
M  V30 2723 H 260.471 -3.12352 2.7491 0
M  V30 2724 H 259.347 -4.40032 3.28121 0
M  V30 2725 H 259.608 -4.1349 1.56455 0
M  V30 2726 N 258.668 -1.30515 -0.883378 0
M  V30 2727 C 259.917 -1.18795 -1.63005 0
M  V30 2728 C 260.23 0.255923 -1.93919 0
M  V30 2729 O 261.436 0.494654 -2.66956 0
M  V30 2730 C 259.892 -2.07878 -2.93794 0
M  V30 2731 C 259.5 -3.57184 -2.70414 0
M  V30 2732 C 261.244 -2.04924 -3.71761 0
M  V30 2733 C 259.151 -4.38317 -3.97029 0
M  V30 2734 H 258.081 -0.441031 -0.611562 0
M  V30 2735 H 260.732 -1.55275 -0.977854 0
M  V30 2736 H 259.114 -1.64283 -3.60315 0
M  V30 2737 H 260.288 -4.08937 -2.12384 0
M  V30 2738 H 258.603 -3.61976 -2.0582 0
M  V30 2739 H 261.2 -2.62792 -4.65665 0
M  V30 2740 H 261.543 -1.0331 -4.03277 0
M  V30 2741 H 262.076 -2.46649 -3.12104 0
M  V30 2742 H 258.815 -5.40632 -3.70671 0
M  V30 2743 H 258.335 -3.91326 -4.54559 0
M  V30 2744 H 260.014 -4.49834 -4.65036 0
M  V30 2745 N 260.146 1.09593 -1.13257 0
M  V30 2746 C 261.371 1.8604 -0.916732 0
M  V30 2747 C 261.796 1.80504 0.529146 0
M  V30 2748 O 261.154 1.18127 1.37534 0
M  V30 2749 C 261.202 3.32017 -1.40703 0
M  V30 2750 O 260.306 4.08141 -0.591153 0
M  V30 2751 H 259.647 0.576943 -0.328683 0
M  V30 2752 H 262.177 1.38405 -1.50682 0
M  V30 2753 H 262.187 3.82865 -1.4099 0
M  V30 2754 H 260.862 3.35361 -2.45979 0
M  V30 2755 H 259.439 3.67084 -0.656005 0
M  V30 2756 N 261.624 0.925811 1.2754 0
M  V30 2757 C 262.873 0.561084 1.93739 0
M  V30 2758 C 263.186 -0.901685 1.73577 0
M  V30 2759 O 264.392 -1.37511 2.34101 0
M  V30 2760 C 262.848 0.952668 3.47062 0
M  V30 2761 C 262.456 2.43599 3.75983 0
M  V30 2762 C 264.2 0.659103 4.19352 0
M  V30 2763 C 262.107 2.76707 5.22673 0
M  V30 2764 H 261.037 0.206122 0.725279 0
M  V30 2765 H 263.688 1.12637 1.44863 0
M  V30 2766 H 262.07 0.316053 3.94737 0
M  V30 2767 H 263.244 3.12035 3.39073 0
M  V30 2768 H 261.559 2.70125 3.16893 0
M  V30 2769 H 264.156 0.882985 5.27359 0
M  V30 2770 H 264.499 -0.403607 4.14339 0
M  V30 2771 H 265.032 1.25473 3.77494 0
M  V30 2772 H 261.771 3.8188 5.32774 0
M  V30 2773 H 261.291 2.12919 5.60737 0
M  V30 2774 H 262.97 2.6435 5.90532 0
M  V30 2775 N 263.102 -1.41638 0.69111 0
M  V30 2776 C 264.35 -2.00902 0.219758 0
M  V30 2777 C 264.671 -1.54994 -1.18329 0
M  V30 2778 O 263.941 -0.778628 -1.79762 0
M  V30 2779 H 262.521 -0.74289 0.0782558 0
M  V30 2780 H 265.183 -1.73327 0.891271 0
M  V30 2781 H 264.279 -3.11224 0.233708 0
M  V30 2782 N 264.58 -0.43555 -1.51462 0
M  V30 2783 C 265.991 0.0279871 -1.86679 0
M  V30 2784 C 266.342 1.42104 -1.35281 0
M  V30 2785 O 265.467 2.04667 -0.702878 0
M  V30 2786 C 266.062 0.0575626 -3.38751 0
M  V30 2787 C 264.621 0.465507 -3.7351 0
M  V30 2788 C 263.768 -0.342996 -2.75171 0
M  V30 2789 H 266.719 -0.651473 -1.44712 0
M  V30 2790 H 266.74 0.867421 -3.70481 0
M  V30 2791 H 266.252 -0.956448 -3.7613 0
M  V30 2792 H 264.353 1.48519 -3.41721 0
M  V30 2793 H 264.466 0.191546 -4.78717 0
M  V30 2794 H 262.83 0.198442 -2.53926 0
M  V30 2795 H 263.613 -1.35585 -3.15391 0
M  V30 2796 N 266.058 1.56714 -0.166846 0
M  V30 2797 C 266.988 2.20754 0.760913 0
M  V30 2798 C 267.969 1.16178 1.24244 0
M  V30 2799 O 269.154 1.44592 1.29641 0
M  V30 2800 C 266.284 2.84478 1.99223 0
M  V30 2801 C 265.238 3.95053 1.64672 0
M  V30 2802 C 264.564 4.45805 2.95232 0
M  V30 2803 C 265.864 5.14865 0.878155 0
M  V30 2804 H 267.558 2.98537 0.22713 0
M  V30 2805 H 265.104 1.43596 0.107805 0
M  V30 2806 H 267.057 3.27951 2.64624 0
M  V30 2807 H 265.781 2.04056 2.55007 0
M  V30 2808 H 264.44 3.52228 1.01641 0
M  V30 2809 H 264.088 3.62181 3.49047 0
M  V30 2810 H 263.788 5.204 2.7287 0
M  V30 2811 H 265.312 4.91962 3.6167 0
M  V30 2812 H 266.726 5.55059 1.43466 0
M  V30 2813 H 265.123 5.95348 0.753738 0
M  V30 2814 H 266.193 4.84735 -0.126377 0
M  V30 2815 N 267.536 -0.106894 1.57237 0
M  V30 2816 C 268.466 -1.13148 2.04254 0
M  V30 2817 C 269.447 -1.42476 0.929224 0
M  V30 2818 O 270.632 -1.52709 1.19973 0
M  V30 2819 C 267.762 -2.4545 2.45706 0
M  V30 2820 C 266.716 -2.30558 3.60592 0
M  V30 2821 C 266.042 -3.67931 3.87983 0
M  V30 2822 C 267.342 -1.75597 4.91897 0
M  V30 2823 H 269.036 -0.740374 2.90101 0
M  V30 2824 H 266.582 -0.354696 1.39563 0
M  V30 2825 H 268.535 -3.17389 2.77205 0
M  V30 2826 H 267.259 -2.86475 1.56843 0
M  V30 2827 H 265.918 -1.61067 3.29322 0
M  V30 2828 H 265.566 -4.06462 2.96306 0
M  V30 2829 H 265.266 -3.58817 4.65322 0
M  V30 2830 H 266.79 -4.41356 4.21945 0
M  V30 2831 H 268.204 -2.37364 5.21854 0
M  V30 2832 H 266.601 -1.77272 5.73319 0
M  V30 2833 H 267.671 -0.714451 4.79608 0
M  V30 2834 N 269.014 -1.53014 -0.377408 0
M  V30 2835 C 270.262 -1.6829 -1.11906 0
M  V30 2836 C 270.583 -0.431206 -1.90173 0
M  V30 2837 O 269.853 0.554595 -1.87886 0
M  V30 2838 H 268.433 -0.620371 -0.416112 0
M  V30 2839 H 271.095 -1.90167 -0.426893 0
M  V30 2840 H 270.191 -2.53862 -1.8155 0
M  V30 2841 N 270.492 0.636531 -1.44174 0
M  V30 2842 C 271.738 1.39649 -1.47884 0
M  V30 2843 C 272.093 1.92098 -0.107747 0
M  V30 2844 O 271.386 1.70391 0.876208 0
M  V30 2845 C 271.58 2.58309 -2.47005 0
M  V30 2846 C 271.409 2.17476 -3.93617 0
M  V30 2847 C 270.179 2.0501 -4.61843 0
M  V30 2848 C 272.377 1.76722 -4.82984 0
M  V30 2849 N 270.359 1.57683 -5.93304 0
M  V30 2850 C 271.73 1.40601 -6.03847 0
M  V30 2851 C 273.785 1.64054 -4.70096 0
M  V30 2852 C 272.488 0.930787 -7.13252 0
M  V30 2853 C 274.514 1.17937 -5.79521 0
M  V30 2854 C 273.876 0.827625 -6.99521 0
M  V30 2855 H 269.975 0.506027 -0.596205 0
M  V30 2856 H 272.559 0.730791 -1.80465 0
M  V30 2857 H 270.73 3.22514 -2.16423 0
M  V30 2858 H 272.462 3.25083 -2.41045 0
M  V30 2859 H 269.217 2.25294 -4.16581 0
M  V30 2860 H 269.641 1.36334 -6.63131 0
M  V30 2861 H 274.283 1.89882 -3.77762 0
M  V30 2862 H 272.001 0.660012 -8.054 0
M  V30 2863 H 275.587 1.08601 -5.71574 0
M  V30 2864 H 274.467 0.476231 -7.82753 0
M  V30 2865 N 271.97 1.30982 0.876444 0
M  V30 2866 C 272.917 1.18085 1.98304 0
M  V30 2867 C 273.887 0.0682263 1.6596 0
M  V30 2868 O 275.072 0.239937 1.89285 0
M  V30 2869 C 272.212 0.887475 3.33493 0
M  V30 2870 C 271.325 2.08281 3.78475 0
M  V30 2871 C 270.46 1.72678 5.0235 0
M  V30 2872 C 269.499 2.88657 5.39762 0
M  V30 2873 N 268.636 2.53292 6.54819 0
M  V30 2874 H 273.476 2.1275 2.08666 0
M  V30 2875 H 271.013 1.05839 1.02159 0
M  V30 2876 H 272.971 0.697961 4.1132 0
M  V30 2877 H 271.601 -0.022315 3.22792 0
M  V30 2878 H 270.653 2.3833 2.96484 0
M  V30 2879 H 271.965 2.95108 4.02135 0
M  V30 2880 H 271.119 1.50151 5.87826 0
M  V30 2881 H 269.858 0.830327 4.8058 0
M  V30 2882 H 268.863 3.1184 4.52809 0
M  V30 2883 H 270.088 3.79002 5.63502 0
M  V30 2884 H 268.034 1.66163 6.34607 0
M  V30 2885 H 267.951 3.3365 6.7839 0
M  V30 2886 H 269.219 2.34143 7.43503 0
M  V30 2887 N 273.449 -1.08991 1.13837 0
M  V30 2888 C 274.359 -2.19301 0.833333 0
M  V30 2889 C 275.375 -1.73026 -0.183847 0
M  V30 2890 O 276.551 -2.01395 -0.0138092 0
M  V30 2891 C 273.616 -3.45323 0.308651 0
M  V30 2892 C 272.677 -4.06255 1.38764 0
M  V30 2893 C 271.91 -5.26262 0.887896 0
M  V30 2894 O 272.133 -5.69747 -0.27287 0
M  V30 2895 O 271.067 -5.78435 1.66421 0
M  V30 2896 H 274.893 -2.47854 1.75506 0
M  V30 2897 H 272.478 -1.18012 0.916166 0
M  V30 2898 H 274.36 -4.21394 0.0216739 0
M  V30 2899 H 273.035 -3.18362 -0.585431 0
M  V30 2900 H 271.942 -3.318 1.72799 0
M  V30 2901 H 273.275 -4.37452 2.25602 0
M  V30 2902 N 274.927 -0.932562 -1.27047 0
M  V30 2903 C 276.338 -0.619451 -1.76124 0
M  V30 2904 C 276.689 0.865397 -1.76083 0
M  V30 2905 O 275.814 1.67722 -1.36742 0
M  V30 2906 C 276.409 -1.11771 -3.19832 0
M  V30 2907 C 274.968 -0.855174 -3.66557 0
M  V30 2908 C 274.115 -1.27362 -2.46321 0
M  V30 2909 H 277.066 -1.11181 -1.13245 0
M  V30 2910 H 277.087 -0.46759 -3.77616 0
M  V30 2911 H 276.599 -2.19842 -3.1983 0
M  V30 2912 H 274.7 0.211524 -3.71999 0
M  V30 2913 H 274.813 -1.47613 -4.55793 0
M  V30 2914 H 273.177 -0.692119 -2.45116 0
M  V30 2915 H 273.96 -2.36307 -2.49025 0
M  V30 2916 N 276.405 1.4127 -0.698611 0
M  V30 2917 C 277.368 2.29158 -0.044132 0
M  V30 2918 C 278.368 1.44529 0.704841 0
M  V30 2919 O 279.558 1.65643 0.539276 0
M  V30 2920 C 276.69 3.27459 0.947809 0
M  V30 2921 H 277.883 2.88529 -0.817994 0
M  V30 2922 H 275.436 1.49307 -0.46228 0
M  V30 2923 H 276.171 2.73073 1.74933 0
M  V30 2924 H 275.956 3.8991 0.41385 0
M  V30 2925 H 277.446 3.93311 1.40344 0
M  V30 2926 N 277.883 0.443576 1.51229 0
M  V30 2927 C 279.294 -0.0180867 1.86691 0
M  V30 2928 C 279.645 -1.41384 1.36033 0
M  V30 2929 O 278.77 -2.04291 0.713722 0
M  V30 2930 C 279.365 -0.039597 3.38777 0
M  V30 2931 C 277.924 -0.445692 3.73752 0
M  V30 2932 C 277.071 0.357584 2.74985 0
M  V30 2933 H 280.022 0.659138 1.44364 0
M  V30 2934 H 280.043 -0.847761 3.70936 0
M  V30 2935 H 279.555 0.976382 3.75617 0
M  V30 2936 H 277.656 -1.46704 3.42503 0
M  V30 2937 H 277.769 -0.166155 4.78812 0
M  V30 2938 H 276.133 -0.184973 2.54027 0
M  V30 2939 H 276.916 1.37256 3.14668 0
M  V30 2940 N 279.361 -1.56624 0.175154 0
M  V30 2941 C 280.309 -2.19468 -0.770495 0
M  V30 2942 C 281.303 -1.15985 -1.23466 0
M  V30 2943 O 282.509 -1.34176 -1.19987 0
M  V30 2944 H 278.884 -0.703095 -0.266761 0
M  V30 2945 H 280.855 -2.97613 -0.216542 0
M  V30 2946 C 279.604 -2.85264 -1.98796 0
M  V30 2947 H 278.927 -3.64623 -1.63983 0
M  V30 2948 H 280.367 -3.327 -2.62843 0
M  V30 2949 C 278.826 -1.85239 -2.81404 0
M  V30 2950 O 279.356 -1.34024 -3.78682 0
M  V30 2951 N 277.562 -1.53911 -2.46495 0
M  V30 2952 H 277.109 -1.95751 -1.67449 0
M  V30 2953 H 277.067 -0.872382 -3.02054 0
M  V30 2954 N 280.839 0.0985539 -1.57292 0
M  V30 2955 C 282.116 0.834155 -1.76921 0
M  V30 2956 C 282.496 1.97101 -0.755928 0
M  V30 2957 O 281.844 2.27474 0.216245 0
M  V30 2958 C 282.054 1.33194 -3.22584 0
M  V30 2959 C 283.402 1.77611 -3.85668 0
M  V30 2960 O 284.426 1.42825 -3.26312 0
M  V30 2961 O 283.285 2.4192 -4.90038 0
M  V30 2962 H 280.379 0.397628 -0.725135 0
M  V30 2963 H 282.925 0.0807044 -1.69508 0
M  V30 2964 H 281.697 0.517248 -3.87866 0
M  V30 2965 H 281.32 2.1475 -3.34616 0
M  V30 2966 N 282.317 1.53212 0.369288 0
M  V30 2967 C 283.594 1.59815 1.12776 0
M  V30 2968 C 283.974 0.403402 2.0721 0
M  V30 2969 O 283.322 -0.606667 2.20299 0
M  V30 2970 C 283.532 2.94664 1.87013 0
M  V30 2971 C 284.88 3.49109 2.41677 0
M  V30 2972 O 285.904 2.96669 1.97144 0
M  V30 2973 O 284.763 4.40775 3.23079 0
M  V30 2974 H 281.857 0.645376 0.517125 0
M  V30 2975 H 284.403 1.65553 0.37285 0
M  V30 2976 H 283.175 3.73061 1.18071 0
M  V30 2977 H 282.798 2.92401 2.69421 0
M  V30 2978 N 283.795 -0.628877 1.44509 0
M  V30 2979 C 284.742 -1.74074 1.51549 0
M  V30 2980 C 285.712 -1.62084 0.363021 0
M  V30 2981 O 286.897 -1.81975 0.573567 0
M  V30 2982 C 284.037 -3.12328 1.46784 0
M  V30 2983 C 283.15 -3.35277 2.72422 0
M  V30 2984 C 282.285 -4.63515 2.59475 0
M  V30 2985 C 281.324 -4.7965 3.80266 0
M  V30 2986 N 280.461 -5.99168 3.65981 0
M  V30 2987 H 285.301 -1.67392 2.46544 0
M  V30 2988 H 282.838 -0.816527 1.22357 0
M  V30 2989 H 284.796 -3.92286 1.42012 0
M  V30 2990 H 283.426 -3.18018 0.553544 0
M  V30 2991 H 282.478 -2.49242 2.87372 0
M  V30 2992 H 283.79 -3.43078 3.62076 0
M  V30 2993 H 282.944 -5.51638 2.52548 0
M  V30 2994 H 281.683 -4.58076 1.67384 0
M  V30 2995 H 280.688 -3.89957 3.87574 0
M  V30 2996 H 281.913 -4.86902 4.73395 0
M  V30 2997 H 279.859 -5.94814 2.76644 0
M  V30 2998 H 279.776 -6.08035 4.49254 0
M  V30 2999 H 281.044 -6.89846 3.6295 0
M  V30 3000 N 285.273 -1.31445 -0.869486 0
M  V30 3001 C 286.183 -1.21097 -2.0093 0
M  V30 3002 C 287.199 -0.127584 -1.73532 0
M  V30 3003 O 288.375 -0.345477 -1.98415 0
M  V30 3004 C 285.44 -0.919378 -3.34288 0
M  V30 3005 C 284.501 -2.08971 -3.75006 0
M  V30 3006 C 283.734 -1.81194 -5.02001 0
M  V30 3007 O 283.957 -0.747296 -5.65484 0
M  V30 3008 O 282.891 -2.66883 -5.39497 0
M  V30 3009 H 286.717 -2.16883 -2.12592 0
M  V30 3010 H 284.302 -1.11189 -0.997868 0
M  V30 3011 H 286.184 -0.772625 -4.14257 0
M  V30 3012 H 284.859 0.00844772 -3.23699 0
M  V30 3013 H 283.766 -2.29187 -2.95676 0
M  V30 3014 H 285.099 -2.9998 -3.90221 0
M  V30 3015 N 286.751 1.08385 -1.14413 0
M  V30 3016 C 287.991 1.8238 -0.922868 0
M  V30 3017 C 288.355 1.84225 0.540842 0
M  V30 3018 O 289.556 2.53985 0.880058 0
M  V30 3019 C 287.827 3.24048 -1.50757 0
M  V30 3020 S 289.386 4.14917 -1.4279 0
M  V30 3021 H 286.204 0.628524 -0.332384 0
M  V30 3022 H 288.806 1.30278 -1.45766 0
M  V30 3023 H 287.51 3.20288 -2.56601 0
M  V30 3024 H 287.041 3.81224 -0.971178 0
M  V30 3025 H 289.056 4.94473 -0.413582 0
M  V30 3026 N 288.23 0.939286 1.26551 0
M  V30 3027 C 289.478 0.58469 1.93457 0
M  V30 3028 C 289.799 -0.878774 1.74076 0
M  V30 3029 O 289.069 -1.62421 1.09528 0
M  V30 3030 H 287.649 0.21325 0.715914 0
M  V30 3031 H 290.311 1.1942 1.54029 0
M  V30 3032 H 289.407 0.800849 3.0165 0
M  V30 3033 N 289.708 -1.40897 0.706093 0
M  V30 3034 C 290.954 -2.01352 0.241889 0
M  V30 3035 C 291.287 -1.55832 -1.15888 0
M  V30 3036 O 290.562 -0.774145 -1.7843 0
M  V30 3037 C 290.845 -3.58752 0.311311 0
M  V30 3038 C 290.698 -4.1437 1.74978 0
M  V30 3039 C 292.017 -4.38914 -0.322922 0
M  V30 3040 H 289.136 -0.731562 0.0893687 0
M  V30 3041 H 291.778 -1.67504 0.896802 0
M  V30 3042 H 289.928 -3.87718 -0.246302 0
M  V30 3043 H 291.6 -3.96239 2.36205 0
M  V30 3044 H 289.843 -3.69016 2.28057 0
M  V30 3045 H 290.514 -5.23532 1.74981 0
M  V30 3046 H 292.99 -4.15822 0.152089 0
M  V30 3047 H 291.866 -5.48358 -0.243855 0
M  V30 3048 H 292.127 -4.19176 -1.40513 0
M  V30 3049 N 291.186 -0.45159 -1.50991 0
M  V30 3050 C 292.414 0.108334 -2.06616 0
M  V30 3051 C 292.829 1.35224 -1.31757 0
M  V30 3052 O 292.186 1.78475 -0.381174 0
M  V30 3053 C 292.237 0.41619 -3.59096 0
M  V30 3054 O 291.958 -0.778361 -4.3113 0
M  V30 3055 C 293.459 1.02523 -4.31282 0
M  V30 3056 H 290.679 0.00159995 -0.670998 0
M  V30 3057 H 293.223 -0.634771 -1.94399 0
M  V30 3058 H 291.378 1.10921 -3.71181 0
M  V30 3059 H 291.792 -0.511181 -5.22003 0
M  V30 3060 H 293.266 1.19053 -5.39009 0
M  V30 3061 H 293.743 2.01013 -3.905 0
M  V30 3062 H 294.349 0.371173 -4.23677 0
M  V30 3063 N 292.664 1.56529 -0.183458 0
M  V30 3064 C 293.574 2.22144 0.754272 0
M  V30 3065 C 294.59 1.21684 1.24374 0
M  V30 3066 O 295.766 1.54385 1.29333 0
M  V30 3067 C 292.831 2.85884 1.96141 0
M  V30 3068 C 291.892 4.01579 1.51765 0
M  V30 3069 C 291.125 4.6227 2.66725 0
M  V30 3070 O 291.348 4.21865 3.83909 0
M  V30 3071 O 290.282 5.51936 2.40104 0
M  V30 3072 H 294.108 3.02861 0.225527 0
M  V30 3073 H 291.693 1.49331 0.0453032 0
M  V30 3074 H 293.575 3.26253 2.66715 0
M  V30 3075 H 292.25 2.08154 2.47899 0
M  V30 3076 H 291.157 3.65856 0.781049 0
M  V30 3077 H 292.49 4.80938 1.04686 0
M  V30 3078 N 294.142 -0.090211 1.57342 0
M  V30 3079 C 295.052 -1.12735 2.05738 0
M  V30 3080 C 296.068 -1.43557 0.983231 0
M  V30 3081 O 297.244 -1.54101 1.29672 0
M  V30 3082 C 294.309 -2.42659 2.47624 0
M  V30 3083 C 293.37 -2.18975 3.69254 0
M  V30 3084 C 292.603 -3.42704 4.09133 0
M  V30 3085 O 292.826 -4.51127 3.49057 0
M  V30 3086 O 291.76 -3.32003 5.02053 0
M  V30 3087 H 295.586 -0.746279 2.94388 0
M  V30 3088 H 293.171 -0.303064 1.46294 0
M  V30 3089 H 295.053 -3.19155 2.7517 0
M  V30 3090 H 293.728 -2.80182 1.62109 0
M  V30 3091 H 292.635 -1.40244 3.46818 0
M  V30 3092 H 293.968 -1.86342 4.55563 0
M  V30 3093 N 295.62 -1.53406 -0.361157 0
M  V30 3094 C 297.031 -1.61442 -0.937728 0
M  V30 3095 C 297.382 -0.48461 -1.90121 0
M  V30 3096 O 296.507 0.388312 -2.12888 0
M  V30 3097 C 297.102 -2.92624 -1.70753 0
M  V30 3098 C 295.661 -3.02981 -2.23337 0
M  V30 3099 C 294.808 -2.5677 -1.04712 0
M  V30 3100 H 297.759 -1.58083 -0.139816 0
M  V30 3101 H 297.78 -2.80675 -2.56908 0
M  V30 3102 H 297.292 -3.74834 -1.00604 0
M  V30 3103 H 295.393 -2.25368 -2.96715 0
M  V30 3104 H 295.506 -4.0814 -2.50916 0
M  V30 3105 H 293.87 -2.11752 -1.41539 0
M  V30 3106 H 294.653 -3.41402 -0.360539 0
M  V30 3107 N 297.098 0.621204 -1.44841 0
M  V30 3108 C 298.345 1.38055 -1.48145 0
M  V30 3109 C 298.673 1.94143 -0.117867 0
M  V30 3110 O 297.928 1.74713 0.881694 0
M  V30 3111 C 298.227 2.55675 -2.4973 0
M  V30 3112 C 297.893 2.17817 -3.94799 0
M  V30 3113 C 296.555 2.07205 -4.34303 0
M  V30 3114 C 298.907 1.88065 -4.86087 0
M  V30 3115 C 296.235 1.65045 -5.63007 0
M  V30 3116 C 298.587 1.47394 -6.15189 0
M  V30 3117 C 297.251 1.35331 -6.53637 0
M  V30 3118 H 296.521 0.505181 -0.542101 0
M  V30 3119 H 299.168 0.703477 -1.78111 0
M  V30 3120 H 297.473 3.2866 -2.13284 0
M  V30 3121 H 299.17 3.13904 -2.4953 0
M  V30 3122 H 295.76 2.26998 -3.63552 0
M  V30 3123 H 299.944 1.95168 -4.56315 0
M  V30 3124 H 295.2 1.54317 -5.91605 0
M  V30 3125 H 299.374 1.23415 -6.85377 0
M  V30 3126 H 297.001 1.02435 -7.53267 0
M  V30 3127 N 298.576 1.31904 0.862503 0
M  V30 3128 C 299.806 1.24817 1.64634 0
M  V30 3129 C 300.214 -0.187579 1.88268 0
M  V30 3130 O 299.557 -1.13253 1.44635 0
M  V30 3131 C 299.619 1.92996 3.03303 0
M  V30 3132 C 299.283 3.42336 3.02746 0
M  V30 3133 C 300.28 4.37956 2.80162 0
M  V30 3134 C 297.965 3.84147 3.2363 0
M  V30 3135 C 299.959 5.73361 2.78453 0
M  V30 3136 C 297.646 5.19663 3.21549 0
M  V30 3137 C 298.644 6.14081 2.98988 0
M  V30 3138 O 298.332 7.47118 2.96766 0
M  V30 3139 H 298.064 0.432222 0.519769 0
M  V30 3140 H 300.618 1.7445 1.08427 0
M  V30 3141 H 298.848 1.37922 3.61268 0
M  V30 3142 H 300.537 1.79723 3.63943 0
M  V30 3143 H 301.303 4.06981 2.63802 0
M  V30 3144 H 297.182 3.11083 3.40218 0
M  V30 3145 H 300.726 6.4703 2.60763 0
M  V30 3146 H 296.623 5.5027 3.37451 0
M  V30 3147 H 297.391 7.56382 3.12775 0
M  V30 3148 N 300.054 -1.07777 1.14986 0
M  V30 3149 C 301.017 -2.13041 0.845358 0
M  V30 3150 C 302.017 -1.60071 -0.152931 0
M  V30 3151 O 303.207 -1.74033 0.0761879 0
M  V30 3152 C 300.339 -3.39896 0.261383 0
M  V30 3153 H 301.532 -2.41485 1.77834 0
M  V30 3154 H 299.085 -1.23595 0.956757 0
M  V30 3155 H 299.82 -3.17091 -0.68 0
M  V30 3156 H 299.605 -3.79642 0.980514 0
M  V30 3157 H 301.095 -4.17548 0.0657687 0
M  V30 3158 N 301.532 -0.945985 -1.26051 0
M  V30 3159 C 302.462 -0.477172 -2.28572 0
M  V30 3160 C 303.443 0.472032 -1.63419 0
M  V30 3161 O 304.628 0.372853 -1.90587 0
M  V30 3162 C 301.758 0.253975 -3.4637 0
M  V30 3163 C 300.712 -0.609135 -4.23643 0
M  V30 3164 C 300.038 0.252252 -5.34105 0
M  V30 3165 C 301.338 -1.8829 -4.8718 0
M  V30 3166 H 303.032 -1.33402 -2.68038 0
M  V30 3167 H 300.578 -0.642904 -1.28852 0
M  V30 3168 H 302.531 0.593016 -4.17207 0
M  V30 3169 H 301.255 1.145 -3.05871 0
M  V30 3170 H 299.914 -0.931138 -3.54578 0
M  V30 3171 H 299.562 1.14278 -4.89846 0
M  V30 3172 H 299.262 -0.32188 -5.86718 0
M  V30 3173 H 300.786 0.586454 -6.07777 0
M  V30 3174 H 302.2 -1.61081 -5.50205 0
M  V30 3175 H 300.597 -2.40199 -5.49931 0
M  V30 3176 H 301.667 -2.59134 -4.09851 0
M  V30 3177 N 303.011 1.40521 -0.713556 0
M  V30 3178 C 304.258 2.00923 -0.25219 0
M  V30 3179 C 304.586 1.56571 1.15395 0
M  V30 3180 O 303.841 0.775874 1.79663 0
M  V30 3181 C 304.14 3.56317 -0.278 0
M  V30 3182 C 303.806 4.20246 -1.63415 0
M  V30 3183 C 302.468 4.37422 -2.00538 0
M  V30 3184 C 304.82 4.55923 -2.52554 0
M  V30 3185 C 302.148 4.87558 -3.2635 0
M  V30 3186 C 304.5 5.07458 -3.77716 0
M  V30 3187 C 303.164 5.22843 -4.14959 0
M  V30 3188 H 302.434 0.735231 -0.0922829 0
M  V30 3189 H 305.081 1.68161 -0.916188 0
M  V30 3190 H 303.386 3.88976 0.469567 0
M  V30 3191 H 305.083 4.00883 0.0967819 0
M  V30 3192 H 301.673 4.07263 -1.33546 0
M  V30 3193 H 305.857 4.42291 -2.25149 0
M  V30 3194 H 301.113 4.97654 -3.55176 0
M  V30 3195 H 305.287 5.34041 -4.4696 0
M  V30 3196 H 302.914 5.61454 -5.12516 0
M  V30 3197 N 304.489 0.459591 1.5075 0
M  V30 3198 C 305.714 -0.0996819 2.0716 0
M  V30 3199 C 306.139 -1.33761 1.32249 0
M  V30 3200 O 305.497 -1.77551 0.366786 0
M  V30 3201 C 305.545 -0.378226 3.58611 0
M  V30 3202 O 304.649 -1.46081 3.85661 0
M  V30 3203 H 303.99 0.00791392 0.663953 0
M  V30 3204 H 306.52 0.647329 1.9409 0
M  V30 3205 H 306.53 -0.622135 4.03229 0
M  V30 3206 H 305.205 0.526439 4.12555 0
M  V30 3207 H 303.782 -1.20511 3.5289 0
M  V30 3208 N 305.967 -1.56429 0.191757 0
M  V30 3209 C 307.192 -2.02309 -0.456706 0
M  V30 3210 C 307.617 -1.07103 -1.5463 0
M  V30 3211 O 306.975 -0.0539677 -1.8122 0
M  V30 3212 C 307.023 -3.46654 -0.993159 0
M  V30 3213 O 306.127 -3.54559 -2.10622 0
M  V30 3214 H 305.468 -0.655303 -0.107114 0
M  V30 3215 H 307.998 -2.02364 0.301653 0
M  V30 3216 H 308.008 -3.86377 -1.31061 0
M  V30 3217 H 306.683 -4.1544 -0.195504 0
M  V30 3218 H 305.26 -3.26708 -1.79767 0
M  V30 3219 N 307.445 0.0818655 -1.57387 0
M  V30 3220 C 308.375 1.09885 -2.06028 0
M  V30 3221 C 309.356 1.4098 -0.951774 0
M  V30 3222 O 310.541 1.50781 -1.22387 0
M  V30 3223 C 307.671 2.4151 -2.4958 0
M  V30 3224 C 306.625 2.24792 -3.64215 0
M  V30 3225 C 305.951 3.61712 -3.93787 0
M  V30 3226 C 307.251 1.67749 -4.94629 0
M  V30 3227 H 308.945 0.694128 -2.91243 0
M  V30 3228 H 306.491 0.332448 -1.4011 0
M  V30 3229 H 308.444 3.12939 -2.82219 0
M  V30 3230 H 307.168 2.83943 -1.61381 0
M  V30 3231 H 305.827 1.55807 -3.31843 0
M  V30 3232 H 305.475 4.01697 -3.02735 0
M  V30 3233 H 305.175 3.51368 -4.70971 0
M  V30 3234 H 306.699 4.34587 -4.28913 0
M  V30 3235 H 308.113 2.29032 -5.25564 0
M  V30 3236 H 306.51 1.68128 -5.76067 0
M  V30 3237 H 307.58 0.638059 -4.80684 0
M  V30 3238 N 308.923 1.53595 0.353017 0
M  V30 3239 C 310.171 1.70049 1.09215 0
M  V30 3240 C 310.492 0.461406 1.89463 0
M  V30 3241 O 309.762 -0.524633 1.88744 0
M  V30 3242 H 308.342 0.626912 0.40619 0
M  V30 3243 H 311.004 1.90822 0.396585 0
M  V30 3244 H 310.1 2.56718 1.77488 0
M  V30 3245 N 310.401 -0.613514 1.45168 0
M  V30 3246 C 311.626 -1.40437 1.52618 0
M  V30 3247 C 312.051 -1.87438 0.157707 0
M  V30 3248 O 311.409 -1.59791 -0.856537 0
M  V30 3249 C 311.457 -2.58894 2.51011 0
M  V30 3250 O 310.561 -3.59326 2.02382 0
M  V30 3251 H 309.902 -0.419506 0.514695 0
M  V30 3252 H 312.432 -0.747215 1.90467 0
M  V30 3253 H 312.442 -3.06214 2.69624 0
M  V30 3254 H 311.117 -2.24032 3.50403 0
M  V30 3255 H 309.694 -3.18695 1.93618 0
M  V30 3256 N 311.879 -1.3236 -0.855495 0
M  V30 3257 C 313.126 -1.22872 -1.60962 0
M  V30 3258 C 313.454 0.209658 -1.93367 0
M  V30 3259 O 312.709 1.16243 -1.57436 0
M  V30 3260 C 313.008 -2.03275 -2.93963 0
M  V30 3261 C 312.674 -3.5264 -2.80991 0
M  V30 3262 C 311.336 -3.93364 -2.7716 0
M  V30 3263 C 313.688 -4.47626 -2.66983 0
M  V30 3264 C 311.016 -5.27319 -2.572 0
M  V30 3265 C 313.368 -5.81723 -2.48558 0
M  V30 3266 C 312.032 -6.2165 -2.4312 0
M  V30 3267 H 311.302 -0.44962 -0.589001 0
M  V30 3268 H 313.949 -1.63777 -0.992442 0
M  V30 3269 H 312.254 -1.55095 -3.59795 0
M  V30 3270 H 313.951 -1.93303 -3.51333 0
M  V30 3271 H 310.541 -3.20295 -2.84797 0
M  V30 3272 H 314.725 -4.17084 -2.68988 0
M  V30 3273 H 309.981 -5.57311 -2.51424 0
M  V30 3274 H 314.155 -6.5494 -2.36699 0
M  V30 3275 H 311.782 -7.25388 -2.27412 0
M  V30 3276 N 313.357 1.07166 -1.15556 0
M  V30 3277 C 314.587 1.83248 -0.954133 0
M  V30 3278 C 314.995 1.82449 0.500911 0
M  V30 3279 O 314.338 1.23575 1.35923 0
M  V30 3280 C 314.4 3.31393 -1.39351 0
M  V30 3281 C 314.064 3.5591 -2.86666 0
M  V30 3282 C 315.061 3.49695 -3.8472 0
M  V30 3283 C 312.746 3.83515 -3.24379 0
M  V30 3284 C 314.74 3.70737 -5.18491 0
M  V30 3285 C 312.427 4.04209 -4.58321 0
M  V30 3286 C 313.425 3.97815 -5.55186 0
M  V30 3287 O 313.113 4.17954 -6.86709 0
M  V30 3288 H 312.845 0.584941 -0.338851 0
M  V30 3289 H 315.399 1.36169 -1.53777 0
M  V30 3290 H 313.629 3.79292 -0.75329 0
M  V30 3291 H 315.318 3.88945 -1.16089 0
M  V30 3292 H 316.084 3.28368 -3.56931 0
M  V30 3293 H 311.963 3.87605 -2.49567 0
M  V30 3294 H 315.507 3.65663 -5.94085 0
M  V30 3295 H 311.404 4.25023 -4.85825 0
M  V30 3296 H 312.172 4.35291 -6.93155 0
M  V30 3297 N 314.835 0.952656 1.25548 0
M  V30 3298 C 316.084 0.602053 1.92505 0
M  V30 3299 C 316.397 -0.864663 1.75451 0
M  V30 3300 O 317.603 -1.32514 2.36965 0
M  V30 3301 C 316.059 1.02607 3.44963 0
M  V30 3302 C 315.667 2.51519 3.70732 0
M  V30 3303 C 317.411 0.747905 4.1786 0
M  V30 3304 C 315.318 2.87732 5.16686 0
M  V30 3305 H 314.248 0.22146 0.720744 0
M  V30 3306 H 316.899 1.15684 1.42441 0
M  V30 3307 H 315.281 0.399712 3.93978 0
M  V30 3308 H 316.455 3.19157 3.32378 0
M  V30 3309 H 314.77 2.76786 3.11092 0
M  V30 3310 H 317.367 0.994647 5.25367 0
M  V30 3311 H 317.71 -0.315629 4.15102 0
M  V30 3312 H 318.243 1.33452 3.74747 0
M  V30 3313 H 314.982 3.93095 5.24554 0
M  V30 3314 H 314.502 2.24765 5.56094 0
M  V30 3315 H 316.181 2.76817 5.84792 0
M  V30 3316 N 316.313 -1.40141 0.720998 0
M  V30 3317 C 317.724 -1.83678 0.334553 0
M  V30 3318 C 318.075 -1.6027 -1.13173 0
M  V30 3319 O 317.2 -1.08643 -1.87152 0
M  V30 3320 C 317.795 -3.33437 0.600437 0
M  V30 3321 C 316.354 -3.75447 0.267642 0
M  V30 3322 C 315.501 -2.63296 0.870097 0
M  V30 3323 H 318.452 -1.29331 0.919732 0
M  V30 3324 H 318.473 -3.80269 -0.132517 0
M  V30 3325 H 317.985 -3.50442 1.66768 0
M  V30 3326 H 316.086 -3.64035 -0.794329 0
M  V30 3327 H 316.199 -4.73344 0.74042 0
M  V30 3328 H 314.563 -2.52954 0.297739 0
M  V30 3329 H 315.346 -2.83112 1.94172 0
M  V30 3330 N 317.792 -0.46758 -1.50504 0
M  V30 3331 C 318.722 0.318381 -2.31319 0
M  V30 3332 C 319.703 0.993564 -1.38066 0
M  V30 3333 O 320.888 0.991411 -1.66987 0
M  V30 3334 C 318.018 1.40275 -3.17711 0
M  V30 3335 C 316.972 0.849373 -4.19487 0
M  V30 3336 C 316.298 2.03177 -4.94594 0
M  V30 3337 C 317.598 -0.136942 -5.2212 0
M  V30 3338 H 319.292 -0.356106 -2.97275 0
M  V30 3339 H 316.838 -0.172703 -1.42961 0
M  V30 3340 H 318.791 1.96004 -3.73042 0
M  V30 3341 H 317.515 2.10596 -2.49634 0
M  V30 3342 H 316.174 0.314076 -3.65252 0
M  V30 3343 H 315.822 2.72187 -4.22993 0
M  V30 3344 H 315.522 1.66774 -5.63436 0
M  V30 3345 H 317.046 2.59403 -5.52759 0
M  V30 3346 H 318.46 0.331056 -5.72343 0
M  V30 3347 H 316.857 -0.41507 -5.98663 0
M  V30 3348 H 317.927 -1.06398 -4.73083 0
M  V30 3349 N 319.27 1.56325 -0.20005 0
M  V30 3350 C 320.233 2.18084 0.705132 0
M  V30 3351 C 321.233 1.13666 1.1374 0
M  V30 3352 O 322.423 1.39023 1.04968 0
M  V30 3353 C 319.555 2.78689 1.96329 0
M  V30 3354 H 320.748 2.99435 0.167023 0
M  V30 3355 H 318.301 1.56221 0.0495725 0
M  V30 3356 H 319.036 2.0115 2.5438 0
M  V30 3357 H 318.821 3.55133 1.66202 0
M  V30 3358 H 320.311 3.26096 2.60866 0
M  V30 3359 N 320.748 -0.0735177 1.57428 0
M  V30 3360 C 321.994 -0.774145 1.87443 0
M  V30 3361 C 322.327 -1.77311 0.792103 0
M  V30 3362 O 321.602 -1.93492 -0.197793 0
M  V30 3363 C 321.885 -1.48367 3.28115 0
M  V30 3364 C 321.738 -0.501227 4.46999 0
M  V30 3365 C 323.057 -2.429 3.66998 0
M  V30 3366 H 320.176 -0.279971 0.681752 0
M  V30 3367 H 322.818 -0.0373616 1.89963 0
M  V30 3368 H 320.968 -2.11171 3.26097 0
M  V30 3369 H 322.64 0.121468 4.6114 0
M  V30 3370 H 320.883 0.183593 4.33411 0
M  V30 3371 H 321.554 -1.03526 5.42205 0
M  V30 3372 H 324.03 -1.90175 3.70098 0
M  V30 3373 H 322.906 -2.89549 4.66318 0
M  V30 3374 H 323.167 -3.27628 2.96837 0
M  V30 3375 N 322.226 -1.5378 -0.344866 0
M  V30 3376 C 323.475 -1.7018 -1.08267 0
M  V30 3377 C 323.788 -0.471 -1.89845 0
M  V30 3378 O 324.994 -0.515917 -2.66553 0
M  V30 3379 C 323.45 -3.00923 -1.97417 0
M  V30 3380 C 323.058 -4.31335 -1.21053 0
M  V30 3381 C 324.802 -3.26688 -2.71063 0
M  V30 3382 C 322.709 -5.53153 -2.09225 0
M  V30 3383 H 321.639 -0.634138 -0.407903 0
M  V30 3384 H 324.29 -1.8028 -0.342246 0
M  V30 3385 H 322.672 -2.84676 -2.75274 0
M  V30 3386 H 323.846 -4.58281 -0.481159 0
M  V30 3387 H 322.161 -4.12173 -0.591813 0
M  V30 3388 H 324.758 -4.1489 -3.37299 0
M  V30 3389 H 325.101 -2.43639 -3.37558 0
M  V30 3390 H 325.634 -3.43705 -2.0028 0
M  V30 3391 H 322.373 -6.38741 -1.47274 0
M  V30 3392 H 321.893 -5.30458 -2.79955 0
M  V30 3393 H 323.572 -5.88744 -2.68308 0
M  V30 3394 N 323.704 0.605807 -1.45491 0
M  V30 3395 C 324.634 1.72709 -1.57143 0
M  V30 3396 C 325.615 1.6476 -0.422884 0
M  V30 3397 O 326.8 1.83132 -0.646247 0
M  V30 3398 C 323.93 3.11316 -1.53948 0
M  V30 3399 C 322.884 3.34077 -2.67537 0
M  V30 3400 C 322.21 4.72975 -2.49397 0
M  V30 3401 C 323.51 3.24158 -4.09535 0
M  V30 3402 H 325.204 1.63214 -2.51001 0
M  V30 3403 H 322.75 0.78379 -1.208 0
M  V30 3404 H 324.703 3.89557 -1.60696 0
M  V30 3405 H 323.427 3.21655 -0.566205 0
M  V30 3406 H 322.086 2.58227 -2.6022 0
M  V30 3407 H 321.734 4.8005 -1.50205 0
M  V30 3408 H 321.434 4.8916 -3.25571 0
M  V30 3409 H 322.958 5.53414 -2.58002 0
M  V30 3410 H 324.372 3.92271 -4.18086 0
M  V30 3411 H 322.769 3.51872 -4.86113 0
M  V30 3412 H 323.839 2.2157 -4.31317 0
M  V30 3413 N 325.182 1.32811 0.848464 0
M  V30 3414 C 326.428 1.23907 1.60546 0
M  V30 3415 C 326.761 -0.197161 1.93197 0
M  V30 3416 O 326.036 -1.13596 1.5788 0
M  V30 3417 C 326.319 2.10489 2.92175 0
M  V30 3418 C 326.172 3.62522 2.66266 0
M  V30 3419 C 327.491 1.97075 3.93509 0
M  V30 3420 H 324.61 0.451459 0.58254 0
M  V30 3421 H 327.252 1.62818 0.979296 0
M  V30 3422 H 325.402 1.77434 3.45614 0
M  V30 3423 H 327.074 4.05821 2.19334 0
M  V30 3424 H 325.317 3.84879 2.00126 0
M  V30 3425 H 325.988 4.18437 3.6002 0
M  V30 3426 H 328.464 2.26045 3.49346 0
M  V30 3427 H 327.34 2.59923 4.83457 0
M  V30 3428 H 327.601 0.940186 4.31987 0
M  V30 3429 N 326.66 -1.06551 1.16123 0
M  V30 3430 C 327.593 -2.13382 0.80892 0
M  V30 3431 C 328.571 -1.61128 -0.21827 0
M  V30 3432 O 329.755 -1.88219 -0.102952 0
M  V30 3433 C 326.882 -3.38083 0.204303 0
M  V30 3434 C 325.928 -4.09133 1.20469 0
M  V30 3435 S 326.761 -4.5948 2.75024 0
M  V30 3436 C 327.917 -5.87446 2.16005 0
M  V30 3437 H 328.15 -2.42937 1.71373 0
M  V30 3438 H 325.683 -1.18947 0.984428 0
M  V30 3439 H 327.641 -4.10268 -0.138081 0
M  V30 3440 H 326.302 -3.0669 -0.678234 0
M  V30 3441 H 325.495 -4.98685 0.730019 0
M  V30 3442 H 325.097 -3.4295 1.49202 0
M  V30 3443 H 327.389 -6.60065 1.5271 0
M  V30 3444 H 328.332 -6.39639 3.03756 0
M  V30 3445 H 328.74 -5.41354 1.59989 0
M  V30 3446 N 328.138 -0.959301 -1.25041 0
M  V30 3447 C 329.368 -0.63303 -1.96663 0
M  V30 3448 C 329.776 0.800031 -1.71453 0
M  V30 3449 O 329.119 1.54736 -0.99008 0
M  V30 3450 C 329.181 -0.817523 -3.50081 0
M  V30 3451 C 328.845 -2.22863 -3.98975 0
M  V30 3452 C 329.842 -3.20569 -4.09306 0
M  V30 3453 C 327.527 -2.55407 -4.32519 0
M  V30 3454 C 329.521 -4.4891 -4.52503 0
M  V30 3455 C 327.208 -3.83976 -4.754 0
M  V30 3456 C 328.206 -4.8054 -4.85356 0
M  V30 3457 O 327.894 -6.06817 -5.27284 0
M  V30 3458 H 327.626 -0.235866 -0.633516 0
M  V30 3459 H 330.18 -1.2874 -1.60047 0
M  V30 3460 H 328.41 -0.105992 -3.86555 0
M  V30 3461 H 330.099 -0.491604 -4.02912 0
M  V30 3462 H 330.865 -2.96753 -3.83618 0
M  V30 3463 H 326.744 -1.8097 -4.23994 0
M  V30 3464 H 330.288 -5.24283 -4.60188 0
M  V30 3465 H 326.185 -4.07596 -5.00535 0
M  V30 3466 H 326.953 -6.10262 -5.45457 0
M  V30 3467 N 329.616 1.39756 -0.72842 0
M  V30 3468 C 330.856 2.025 -0.278078 0
M  V30 3469 C 331.22 1.5654 1.11173 0
M  V30 3470 O 332.421 2.11435 1.65978 0
M  V30 3471 C 330.692 3.55489 -0.369139 0
M  V30 3472 S 332.251 4.388 0.00232983 0
M  V30 3473 H 329.069 0.702534 -0.109391 0
M  V30 3474 H 331.671 1.70672 -0.95348 0
M  V30 3475 H 330.375 3.86429 -1.38204 0
M  V30 3476 H 329.906 3.92061 0.324308 0
M  V30 3477 H 331.921 4.80954 1.22055 0
M  V30 3478 N 331.094 0.475555 1.50254 0
M  V30 3479 C 332.51 0.12997 1.5907 0
M  V30 3480 C 332.71 -1.36385 1.48328 0
M  V30 3481 O 331.766 -2.13754 1.34407 0
M  V30 3482 C 333.079 0.684139 2.92814 0
M  V30 3483 C 334.627 0.647965 3.0622 0
M  V30 3484 C 335.102 1.17975 4.42545 0
M  V30 3485 N 336.593 1.13936 4.48969 0
M  V30 3486 C 337.328 1.52129 5.52851 0
M  V30 3487 N 336.824 1.97793 6.63965 0
M  V30 3488 N 338.617 1.43704 5.4342 0
M  V30 3489 H 330.768 1.44706 1.55479 0
M  V30 3490 H 333.031 0.598691 0.735033 0
M  V30 3491 H 332.737 1.73079 3.06164 0
M  V30 3492 H 332.611 0.130204 3.76975 0
M  V30 3493 H 334.998 -0.38979 2.92514 0
M  V30 3494 H 335.079 1.23876 2.23805 0
M  V30 3495 H 334.723 2.21616 4.57 0
M  V30 3496 H 334.653 0.565138 5.23559 0
M  V30 3497 H 337.144 0.804488 3.69238 0
M  V30 3498 H 337.457 2.25072 7.39299 0
M  V30 3499 H 335.802 2.01749 6.65073 0
M  V30 3500 H 338.993 1.07867 4.55502 0
M  V30 3501 H 339.166 1.73794 6.24259 0
M  V30 3502 N 332.573 -1.56217 0.208337 0
M  V30 3503 C 333.819 -1.98242 -0.427552 0
M  V30 3504 C 334.152 -1.09554 -1.60348 0
M  V30 3505 O 333.427 -0.15035 -1.93918 0
M  V30 3506 C 333.71 -3.4931 -0.874907 0
M  V30 3507 C 333.563 -4.48773 0.303751 0
M  V30 3508 C 334.882 -4.04424 -1.73577 0
M  V30 3509 H 332.001 -0.720744 -0.153936 0
M  V30 3510 H 334.643 -1.87586 0.30192 0
M  V30 3511 H 332.793 -3.58522 -1.49648 0
M  V30 3512 H 334.465 -4.51586 0.941682 0
M  V30 3513 H 332.708 -4.23194 0.953375 0
M  V30 3514 H 333.379 -5.51976 -0.0519883 0
M  V30 3515 H 335.855 -3.98075 -1.21143 0
M  V30 3516 H 334.731 -5.1047 -2.01771 0
M  V30 3517 H 334.992 -3.50494 -2.69456 0
M  V30 3518 N 334.051 0.0651679 -1.57465 0
M  V30 3519 C 335.281 0.774683 -1.91526 0
M  V30 3520 C 335.689 1.71305 -0.803196 0
M  V30 3521 O 335.032 1.82231 0.231881 0
M  V30 3522 C 335.094 1.61645 -3.21109 0
M  V30 3523 C 334.758 0.846753 -4.49087 0
M  V30 3524 C 335.755 0.163024 -5.19644 0
M  V30 3525 C 333.44 0.811966 -4.95694 0
M  V30 3526 C 335.434 -0.54519 -6.35064 0
M  V30 3527 C 333.121 0.0999836 -6.11018 0
M  V30 3528 C 334.119 -0.577388 -6.80555 0
M  V30 3529 O 333.807 -1.27789 -7.93678 0
M  V30 3530 H 333.539 0.225031 -0.637446 0
M  V30 3531 H 336.093 0.0377134 -2.05365 0
M  V30 3532 H 334.323 2.39638 -3.03497 0
M  V30 3533 H 336.012 2.20525 -3.40769 0
M  V30 3534 H 336.778 0.181163 -4.84662 0
M  V30 3535 H 332.657 1.32867 -4.41438 0
M  V30 3536 H 336.201 -1.07446 -6.89276 0
M  V30 3537 H 332.098 0.0797945 -6.45451 0
M  V30 3538 H 332.866 -1.18784 -8.09835 0
M  V30 3539 N 335.529 1.53961 0.336706 0
M  V30 3540 C 336.778 1.70751 1.07363 0
M  V30 3541 C 337.091 0.481061 1.89592 0
M  V30 3542 O 338.297 0.530046 2.66276 0
M  V30 3543 C 336.753 3.01965 1.95818 0
M  V30 3544 C 336.361 4.31971 1.18764 0
M  V30 3545 C 338.105 3.28121 2.69327 0
M  V30 3546 C 336.012 5.54255 2.06289 0
M  V30 3547 H 334.942 0.636292 0.404535 0
M  V30 3548 H 337.593 1.80459 0.332681 0
M  V30 3549 H 335.975 2.86132 2.7376 0
M  V30 3550 H 337.149 4.5853 0.456849 0
M  V30 3551 H 335.464 4.12481 0.569946 0
M  V30 3552 H 338.061 4.16673 3.35094 0
M  V30 3553 H 338.404 2.45426 3.36261 0
M  V30 3554 H 338.937 3.44762 1.98454 0
M  V30 3555 H 335.676 6.39513 1.43885 0
M  V30 3556 H 335.196 5.31935 2.77138 0
M  V30 3557 H 336.875 5.90159 2.65182 0
M  V30 3558 N 337.007 -0.598083 1.45811 0
M  V30 3559 C 338.253 -1.35882 1.50545 0
M  V30 3560 C 338.586 -1.93616 0.150445 0
M  V30 3561 O 337.861 -1.75604 -0.83628 0
M  V30 3562 C 338.144 -2.49966 2.59208 0
M  V30 3563 C 337.997 -1.97367 4.04186 0
M  V30 3564 C 339.316 -3.52068 2.64076 0
M  V30 3565 H 336.435 -0.492717 0.548087 0
M  V30 3566 H 339.077 -0.673319 1.77669 0
M  V30 3567 H 337.227 -3.08443 2.3621 0
M  V30 3568 H 338.899 -1.43466 4.38423 0
M  V30 3569 H 337.142 -1.283 4.14393 0
M  V30 3570 H 337.813 -2.79649 4.75921 0
M  V30 3571 H 340.289 -3.03448 2.84708 0
M  V30 3572 H 339.165 -4.2937 3.41954 0
M  V30 3573 H 339.426 -4.08304 1.69531 0
M  V30 3574 N 338.485 -1.33259 -0.841409 0
M  V30 3575 C 339.448 -1.23221 -1.9326 0
M  V30 3576 C 340.448 -0.151895 -1.60081 0
M  V30 3577 O 341.638 -0.403246 -1.69468 0
M  V30 3578 C 338.77 -0.898123 -3.28856 0
M  V30 3579 H 339.963 -2.2021 -2.03587 0
M  V30 3580 H 337.516 -1.17281 -1.03319 0
M  V30 3581 H 338.251 0.0693841 -3.24226 0
M  V30 3582 H 338.036 -1.67934 -3.54317 0
M  V30 3583 H 339.526 -0.852563 -4.08805 0
M  V30 3584 N 339.963 1.05934 -1.16686 0
M  V30 3585 C 340.91 2.13499 -0.876748 0
M  V30 3586 C 341.88 1.65162 0.176299 0
M  V30 3587 O 343.065 1.90757 0.0407143 0
M  V30 3588 C 340.205 3.42912 -0.387967 0
M  V30 3589 C 339.318 4.04964 -1.50426 0
M  V30 3590 C 338.453 5.22266 -0.970125 0
M  V30 3591 C 337.492 5.76309 -2.06238 0
M  V30 3592 N 336.629 6.84922 -1.54356 0
M  V30 3593 H 341.469 2.37654 -1.7979 0
M  V30 3594 H 339.006 1.16598 -0.896843 0
M  V30 3595 H 340.964 4.17111 -0.086186 0
M  V30 3596 H 339.594 3.18963 0.496235 0
M  V30 3597 H 338.646 3.28277 -1.92193 0
M  V30 3598 H 339.958 4.41122 -2.32836 0
M  V30 3599 H 339.112 6.03506 -0.621743 0
M  V30 3600 H 337.851 4.87564 -0.115377 0
M  V30 3601 H 336.856 4.93704 -2.41942 0
M  V30 3602 H 338.081 6.13062 -2.92115 0
M  V30 3603 H 336.027 6.52131 -0.711406 0
M  V30 3604 H 335.944 7.20043 -2.30379 0
M  V30 3605 H 337.212 7.69832 -1.22387 0
M  V30 3606 N 341.441 0.965919 1.2453 0
M  V30 3607 C 342.857 0.67216 1.44756 0
M  V30 3608 C 343.057 -0.766609 1.86347 0
M  V30 3609 O 342.113 -1.5407 2.00047 0
M  V30 3610 C 343.426 1.65473 2.51076 0
M  V30 3611 C 344.974 1.66716 2.64905 0
M  V30 3612 C 345.449 2.63766 3.74421 0
M  V30 3613 N 346.94 2.62198 3.81846 0
M  V30 3614 C 347.675 3.33966 4.66106 0
M  V30 3615 N 347.171 4.15245 5.54566 0
M  V30 3616 N 348.964 3.22799 4.60171 0
M  V30 3617 H 341.115 1.89553 0.958293 0
M  V30 3618 H 343.378 0.815979 0.482579 0
M  V30 3619 H 343.084 2.68296 2.27399 0
M  V30 3620 H 342.958 1.4261 3.49202 0
M  V30 3621 H 345.345 0.646057 2.87941 0
M  V30 3622 H 345.426 1.93642 1.67142 0
M  V30 3623 H 345.07 3.6601 3.52135 0
M  V30 3624 H 345 2.34121 4.71694 0
M  V30 3625 H 347.491 2.032 3.18619 0
M  V30 3626 H 347.804 4.66898 6.15814 0
M  V30 3627 H 346.149 4.1934 5.54237 0
M  V30 3628 H 349.34 2.58764 3.90075 0
M  V30 3629 H 349.513 3.78994 5.25612 0
M  V30 3630 N 342.919 -1.39368 0.735821 0
M  V30 3631 C 344.147 -2.04795 0.294393 0
M  V30 3632 C 344.562 -1.55478 -1.07107 0
M  V30 3633 O 343.919 -0.720038 -1.67695 0
M  V30 3634 C 343.97 -3.6035 0.288071 0
M  V30 3635 O 343.691 -4.07852 1.59963 0
M  V30 3636 C 345.192 -4.42976 -0.169422 0
M  V30 3637 H 342.412 -0.658571 0.128551 0
M  V30 3638 H 344.956 -1.78399 0.999701 0
M  V30 3639 H 343.111 -3.85645 -0.368355 0
M  V30 3640 H 343.525 -5.02181 1.51375 0
M  V30 3641 H 344.999 -5.51864 -0.122687 0
M  V30 3642 H 345.476 -4.22068 -1.21472 0
M  V30 3643 H 346.082 -4.22832 0.457469 0
M  V30 3644 N 344.397 -0.483516 -1.5 0
M  V30 3645 C 345.625 0.0644831 -2.06799 0
M  V30 3646 C 346.04 1.32399 -1.34596 0
M  V30 3647 O 345.397 1.77626 -0.418946 0
M  V30 3648 C 345.448 0.339927 -3.59898 0
M  V30 3649 O 345.169 -0.869635 -4.29382 0
M  V30 3650 C 346.67 0.933515 -4.33359 0
M  V30 3651 H 343.89 -0.0126333 -0.670881 0
M  V30 3652 H 346.434 -0.675864 -1.93009 0
M  V30 3653 H 344.589 1.03022 -3.7345 0
M  V30 3654 H 345.003 -0.62179 -5.20801 0
M  V30 3655 H 346.477 1.07593 -5.41413 0
M  V30 3656 H 346.954 1.92685 -3.94676 0
M  V30 3657 H 347.56 0.281221 -4.24369 0
M  V30 3658 N 345.875 1.56104 -0.216619 0
M  V30 3659 C 346.822 2.2007 0.695531 0
M  V30 3660 C 347.792 1.15471 1.19397 0
M  V30 3661 O 348.977 1.43807 1.25396 0
M  V30 3662 C 346.117 2.88073 1.90021 0
M  V30 3663 C 345.23 4.07253 1.44113 0
M  V30 3664 C 344.365 4.63052 2.603 0
M  V30 3665 C 343.404 5.74545 2.11103 0
M  V30 3666 N 342.541 6.24656 3.20545 0
M  V30 3667 H 347.381 2.97655 0.143327 0
M  V30 3668 H 344.918 1.46982 0.0589934 0
M  V30 3669 H 346.876 3.25681 2.60745 0
M  V30 3670 H 345.506 2.13015 2.42538 0
M  V30 3671 H 344.558 3.75164 0.628999 0
M  V30 3672 H 345.87 4.8783 1.04036 0
M  V30 3673 H 345.024 5.03078 3.39113 0
M  V30 3674 H 343.763 3.81628 3.03663 0
M  V30 3675 H 342.768 5.34027 1.3075 0
M  V30 3676 H 343.993 6.57801 1.68746 0
M  V30 3677 H 341.939 5.46148 3.63399 0
M  V30 3678 H 341.856 7.00343 2.84704 0
M  V30 3679 H 343.124 6.69338 3.99508 0
M  V30 3680 N 347.353 -0.0568162 1.57498 0
M  V30 3681 C 348.301 -1.08452 2.05769 0
M  V30 3682 C 349.295 -1.39164 0.965903 0
M  V30 3683 O 350.501 -1.38395 1.15095 0
M  V30 3684 H 346.876 -0.367148 0.656282 0
M  V30 3685 H 348.847 -0.651368 2.91204 0
M  V30 3686 C 347.596 -2.38543 2.52968 0
M  V30 3687 H 346.919 -2.15765 3.36579 0
M  V30 3688 H 348.359 -3.08863 2.90481 0
M  V30 3689 C 346.818 -3.05562 1.41893 0
M  V30 3690 O 347.348 -3.94262 0.769442 0
M  V30 3691 N 345.554 -2.6643 1.16032 0
M  V30 3692 H 345.101 -1.94387 1.6903 0
M  V30 3693 H 345.059 -3.11593 0.419219 0
M  V30 3694 N 348.832 -1.54138 -0.328536 0
M  V30 3695 C 349.762 -1.86167 -1.40939 0
M  V30 3696 C 350.743 -0.718044 -1.54202 0
M  V30 3697 O 351.928 -0.971328 -1.68163 0
M  V30 3698 C 349.058 -2.08461 -2.77779 0
M  V30 3699 C 348.012 -3.24299 -2.7931 0
M  V30 3700 C 347.338 -3.31955 -4.19178 0
M  V30 3701 C 348.638 -4.62065 -2.43502 0
M  V30 3702 H 350.332 -2.76689 -1.14383 0
M  V30 3703 H 347.878 -1.33132 -0.548806 0
M  V30 3704 H 349.831 -2.29453 -3.53454 0
M  V30 3705 H 348.555 -1.14684 -3.05802 0
M  V30 3706 H 347.214 -3.03187 -2.0609 0
M  V30 3707 H 346.862 -2.35745 -4.44335 0
M  V30 3708 H 346.562 -4.09805 -4.2111 0
M  V30 3709 H 348.086 -3.55175 -4.96672 0
M  V30 3710 H 349.5 -4.8297 -3.08889 0
M  V30 3711 H 347.897 -5.42429 -2.56693 0
M  V30 3712 H 348.967 -4.64652 -1.38659 0
M  V30 3713 N 350.31 0.590341 -1.46126 0
M  V30 3714 C 351.22 1.72793 -1.58681 0
M  V30 3715 C 352.236 1.67516 -0.470566 0
M  V30 3716 O 353.412 1.87562 -0.733642 0
M  V30 3717 C 350.477 3.09287 -1.5666 0
M  V30 3718 C 349.538 3.25886 -2.79458 0
M  V30 3719 C 348.771 4.55869 -2.77524 0
M  V30 3720 O 348.994 5.3928 -1.85832 0
M  V30 3721 O 347.928 4.75552 -3.68964 0
M  V30 3722 H 351.754 1.65149 -2.54872 0
M  V30 3723 H 349.339 0.756486 -1.28832 0
M  V30 3724 H 351.221 3.90577 -1.58202 0
M  V30 3725 H 349.896 3.17385 -0.636271 0
M  V30 3726 H 348.803 2.44119 -2.83472 0
M  V30 3727 H 350.136 3.22675 -3.71674 0
M  V30 3728 N 351.788 1.33704 0.83433 0
M  V30 3729 C 352.751 1.24244 1.92603 0
M  V30 3730 C 353.751 0.160383 1.59998 0
M  V30 3731 O 354.941 0.412228 1.69252 0
M  V30 3732 C 352.073 0.91555 3.28376 0
M  V30 3733 H 353.266 2.21287 2.02416 0
M  V30 3734 H 350.819 1.17827 1.02696 0
M  V30 3735 H 351.554 -0.0521886 3.24258 0
M  V30 3736 H 351.339 1.69811 3.53422 0
M  V30 3737 H 352.829 0.874231 4.08347 0
M  V30 3738 N 353.266 -1.05314 1.17247 0
M  V30 3739 C 354.514 -1.77941 0.958194 0
M  V30 3740 C 354.835 -1.88089 -0.514556 0
M  V30 3741 O 354.105 -1.39676 -1.37359 0
M  V30 3742 H 352.685 -0.659116 0.351533 0
M  V30 3743 H 355.347 -1.27166 1.47699 0
M  V30 3744 H 354.443 -2.79663 1.38546 0
M  V30 3745 N 354.744 -0.972509 -1.24016 0
M  V30 3746 C 355.99 -0.637978 -1.92504 0
M  V30 3747 C 356.323 0.825383 -1.75787 0
M  V30 3748 O 355.598 1.59442 -1.11393 0
M  V30 3749 C 355.881 -1.01942 -3.45369 0
M  V30 3750 C 355.734 -2.53983 -3.71231 0
M  V30 3751 C 357.053 -0.55751 -4.36555 0
M  V30 3752 H 354.172 -0.233248 -0.699117 0
M  V30 3753 H 356.814 -1.21238 -1.46292 0
M  V30 3754 H 354.964 -0.530656 -3.84859 0
M  V30 3755 H 356.636 -3.10374 -3.41271 0
M  V30 3756 H 354.879 -2.96968 -3.16216 0
M  V30 3757 H 355.55 -2.75723 -4.78206 0
M  V30 3758 H 358.026 -0.977029 -4.04467 0
M  V30 3759 H 356.902 -0.85292 -5.42233 0
M  V30 3760 H 357.163 0.542328 -4.38761 0
M  V30 3761 N 356.222 1.38976 -0.743202 0
M  V30 3762 C 357.155 2.28128 -0.0572165 0
M  V30 3763 C 358.133 1.44827 0.739182 0
M  V30 3764 O 359.317 1.74207 0.720009 0
M  V30 3765 C 356.444 3.25796 0.926001 0
M  V30 3766 C 355.49 4.25947 0.217099 0
M  V30 3767 S 356.323 5.24604 -1.07477 0
M  V30 3768 C 357.479 6.25829 -0.0943545 0
M  V30 3769 H 357.712 2.85961 -0.813246 0
M  V30 3770 H 355.245 1.44822 -0.535341 0
M  V30 3771 H 357.203 3.82583 1.48797 0
M  V30 3772 H 355.864 2.66966 1.65493 0
M  V30 3773 H 355.057 4.94746 0.961372 0
M  V30 3774 H 354.659 3.73002 -0.273059 0
M  V30 3775 H 356.951 6.73411 0.743239 0
M  V30 3776 H 357.894 7.0412 -0.749713 0
M  V30 3777 H 358.302 5.63797 0.281706 0
M  V30 3778 N 357.7 0.491464 1.49741 0
M  V30 3779 C 358.647 -0.292027 2.28945 0
M  V30 3780 C 359.617 -0.968973 1.34908 0
M  V30 3781 O 360.802 -0.97748 1.6386 0
M  V30 3782 C 357.942 -1.35617 3.17336 0
M  V30 3783 C 357.055 -0.691957 4.26422 0
M  V30 3784 C 356.19 -1.73572 5.02042 0
M  V30 3785 C 355.229 -1.05286 6.02977 0
M  V30 3786 N 354.366 -2.0404 6.71798 0
M  V30 3787 H 359.206 0.389654 2.95442 0
M  V30 3788 H 356.743 0.204003 1.45679 0
M  V30 3789 H 358.701 -1.98502 3.66951 0
M  V30 3790 H 357.331 -2.00674 2.52844 0
M  V30 3791 H 356.383 0.0499523 3.80367 0
M  V30 3792 H 357.695 -0.153946 4.98562 0
M  V30 3793 H 356.849 -2.43987 5.55478 0
M  V30 3794 H 355.588 -2.30757 4.29654 0
M  V30 3795 H 354.593 -0.334446 5.48782 0
M  V30 3796 H 355.818 -0.487636 6.77347 0
M  V30 3797 H 353.764 -2.60205 6.02187 0
M  V30 3798 H 353.681 -1.55279 7.39881 0
M  V30 3799 H 354.949 -2.73772 7.29842 0
M  V30 3800 N 359.178 -1.55987 0.224894 0
M  V30 3801 C 360.088 -2.24066 -0.69511 0
M  V30 3802 C 361.104 -1.24939 -1.21104 0
M  V30 3803 O 362.28 -1.5776 -1.25195 0
M  V30 3804 C 359.345 -2.90983 -1.88493 0
M  V30 3805 C 358.406 -4.05462 -1.41064 0
M  V30 3806 C 357.639 -4.69179 -2.54375 0
M  V30 3807 O 357.862 -4.31895 -3.72589 0
M  V30 3808 O 356.796 -5.58108 -2.25386 0
M  V30 3809 H 360.622 -3.03353 -0.145149 0
M  V30 3810 H 358.207 -1.49399 -0.00569476 0
M  V30 3811 H 360.089 -3.33209 -2.57972 0
M  V30 3812 H 358.764 -2.14653 -2.42293 0
M  V30 3813 H 357.671 -3.67798 -0.683774 0
M  V30 3814 H 359.004 -4.83545 -0.918985 0
M  V30 3815 N 360.656 0.0484629 -1.57525 0
M  V30 3816 C 361.589 1.08755 -2.00618 0
M  V30 3817 C 362.567 1.36272 -0.887058 0
M  V30 3818 O 363.751 1.49255 -1.15131 0
M  V30 3819 C 360.878 2.42675 -2.36277 0
M  V30 3820 C 359.924 2.31142 -3.58435 0
M  V30 3821 S 360.757 1.68326 -5.08357 0
M  V30 3822 C 361.913 3.03776 -5.47239 0
M  V30 3823 H 362.146 0.720415 -2.88439 0
M  V30 3824 H 359.679 0.257801 -1.52233 0
M  V30 3825 H 361.637 3.19699 -2.57494 0
M  V30 3826 H 360.298 2.76541 -1.48942 0
M  V30 3827 H 359.491 3.29957 -3.80978 0
M  V30 3828 H 359.093 1.62258 -3.36969 0
M  V30 3829 H 361.385 4.00106 -5.46737 0
M  V30 3830 H 362.328 2.85988 -6.47778 0
M  V30 3831 H 362.736 3.05456 -4.74718 0
M  V30 3832 N 362.134 1.5431 0.320358 0
M  V30 3833 C 363.359 1.76954 1.08175 0
M  V30 3834 C 363.784 0.518193 1.80821 0
M  V30 3835 O 363.142 -0.530411 1.73368 0
M  V30 3836 C 363.19 2.96451 2.05303 0
M  V30 3837 O 362.294 2.68221 3.13259 0
M  V30 3838 H 361.635 0.586275 0.311733 0
M  V30 3839 H 364.165 2.01342 0.363676 0
M  V30 3840 H 364.175 3.23887 2.48116 0
M  V30 3841 H 362.85 3.87196 1.51829 0
M  V30 3842 H 361.427 2.51744 2.75099 0
M  V30 3843 N 363.613 -0.582584 1.46437 0
M  V30 3844 C 364.561 -1.71272 1.5738 0
M  V30 3845 C 365.555 -1.63524 0.44229 0
M  V30 3846 O 366.761 -1.69016 0.619166 0
M  V30 3847 H 363.136 -0.566273 0.494813 0
M  V30 3848 H 365.107 -1.59174 2.52401 0
M  V30 3849 C 363.856 -3.09658 1.58136 0
M  V30 3850 H 363.179 -3.16291 2.44541 0
M  V30 3851 H 364.619 -3.88494 1.69847 0
M  V30 3852 C 363.078 -3.3547 0.310026 0
M  V30 3853 O 363.608 -3.97199 -0.599683 0
M  V30 3854 N 361.814 -2.89925 0.197901 0
M  V30 3855 H 361.361 -2.39873 0.93909 0
M  V30 3856 H 361.319 -3.07568 -0.65185 0
M  V30 3857 N 365.091 -1.34144 -0.827227 0
M  V30 3858 C 366.316 -1.29476 -1.62021 0
M  V30 3859 C 366.741 0.129292 -1.87655 0
M  V30 3860 O 366.099 1.08967 -1.449 0
M  V30 3861 C 366.147 -2.08702 -2.94068 0
M  V30 3862 O 365.251 -1.45359 -3.85933 0
M  V30 3863 H 364.592 -0.444881 -0.492927 0
M  V30 3864 H 367.122 -1.76882 -1.02829 0
M  V30 3865 H 367.132 -2.19898 -3.43669 0
M  V30 3866 H 365.807 -3.12241 -2.74734 0
M  V30 3867 H 364.384 -1.42879 -3.44442 0
M  V30 3868 N 366.569 1.04691 -1.17803 0
M  V30 3869 C 367.516 2.12557 -0.899343 0
M  V30 3870 C 368.486 1.65339 0.158771 0
M  V30 3871 O 369.671 1.90789 0.0204797 0
M  V30 3872 C 366.811 3.42481 -0.424315 0
M  V30 3873 C 365.924 4.03346 -1.54713 0
M  V30 3874 C 365.059 5.21208 -1.02546 0
M  V30 3875 C 364.098 5.74089 -2.12339 0
M  V30 3876 N 363.235 6.83247 -1.61612 0
M  V30 3877 H 368.075 2.35734 -1.823 0
M  V30 3878 H 365.612 1.1564 -0.909159 0
M  V30 3879 H 367.57 4.16996 -0.130421 0
M  V30 3880 H 366.2 3.19471 0.462377 0
M  V30 3881 H 365.252 3.2622 -1.95664 0
M  V30 3882 H 366.564 4.38628 -2.37501 0
M  V30 3883 H 365.718 6.02812 -0.685718 0
M  V30 3884 H 364.457 4.87414 -0.167084 0
M  V30 3885 H 363.462 4.91111 -2.47165 0
M  V30 3886 H 364.687 6.0993 -2.98601 0
M  V30 3887 H 362.633 6.5134 -0.780533 0
M  V30 3888 H 362.55 7.17559 -2.38003 0
M  V30 3889 H 363.818 7.68491 -1.30545 0
M  V30 3890 N 368.047 0.979072 1.23499 0
M  V30 3891 C 368.957 0.526431 2.28617 0
M  V30 3892 C 369.973 -0.418126 1.68901 0
M  V30 3893 O 371.149 -0.288372 1.99325 0
M  V30 3894 C 368.214 -0.165235 3.46306 0
M  V30 3895 C 367.275 0.82056 4.21385 0
M  V30 3896 C 366.508 0.161807 5.33455 0
M  V30 3897 O 366.731 -1.04742 5.60701 0
M  V30 3898 O 365.665 0.859708 5.95729 0
M  V30 3899 H 369.491 1.4006 2.69475 0
M  V30 3900 H 367.076 0.746643 1.29405 0
M  V30 3901 H 368.958 -0.553287 4.17752 0
M  V30 3902 H 367.633 -1.01419 3.07402 0
M  V30 3903 H 366.54 1.25929 3.52268 0
M  V30 3904 H 367.873 1.63828 4.64135 0
M  V30 3905 N 369.525 -1.3858 0.750561 0
M  V30 3906 C 370.455 -2.33102 0.136237 0
M  V30 3907 C 371.436 -1.54713 -0.706965 0
M  V30 3908 O 372.621 -1.83043 -0.648769 0
M  V30 3909 C 369.751 -3.38882 -0.760017 0
M  V30 3910 C 368.705 -4.27995 -0.0197785 0
M  V30 3911 C 368.031 -5.24605 -1.03408 0
M  V30 3912 C 369.331 -5.09554 1.14684 0
M  V30 3913 H 371.025 -2.84726 0.925822 0
M  V30 3914 H 368.571 -1.36898 0.446654 0
M  V30 3915 H 370.524 -4.0397 -1.19943 0
M  V30 3916 H 369.248 -2.85734 -1.58189 0
M  V30 3917 H 367.907 -3.64409 0.400184 0
M  V30 3918 H 367.555 -4.67746 -1.84994 0
M  V30 3919 H 367.255 -5.85081 -0.543464 0
M  V30 3920 H 368.779 -5.9257 -1.47288 0
M  V30 3921 H 370.193 -5.67899 0.785118 0
M  V30 3922 H 368.59 -5.7925 1.56812 0
M  V30 3923 H 369.66 -4.4347 1.96118 0
M  V30 3924 N 371.003 -0.499398 -1.49478 0
M  V30 3925 C 372.231 0.0425456 -2.06856 0
M  V30 3926 C 372.646 1.30964 -1.35992 0
M  V30 3927 O 372.003 1.77172 -0.437762 0
M  V30 3928 C 372.054 0.301735 -3.60239 0
M  V30 3929 O 371.775 -0.915127 -4.28436 0
M  V30 3930 C 373.276 0.887499 -4.34325 0
M  V30 3931 H 370.496 -0.0197482 -0.670709 0
M  V30 3932 H 373.04 -0.696297 -1.92281 0
M  V30 3933 H 371.195 0.990556 -3.74522 0
M  V30 3934 H 371.609 -0.676993 -5.20113 0
M  V30 3935 H 373.083 1.01845 -5.42523 0
M  V30 3936 H 373.56 1.88488 -3.96698 0
M  V30 3937 H 374.166 0.236196 -4.24644 0
M  V30 3938 N 372.481 1.55866 -0.233164 0
M  V30 3939 C 373.411 2.23783 0.666599 0
M  V30 3940 C 374.392 1.21343 1.19205 0
M  V30 3941 O 375.577 1.4996 1.23392 0
M  V30 3942 C 372.707 2.92671 1.86978 0
M  V30 3943 C 371.661 4.01682 1.47768 0
M  V30 3944 C 370.987 4.57926 2.76058 0
M  V30 3945 C 372.287 5.18126 0.658993 0
M  V30 3946 H 373.981 2.99232 0.100306 0
M  V30 3947 H 371.527 1.43924 0.046804 0
M  V30 3948 H 373.48 3.3888 2.50476 0
M  V30 3949 H 372.204 2.14688 2.46123 0
M  V30 3950 H 370.863 3.56222 0.866106 0
M  V30 3951 H 370.511 3.76659 3.33372 0
M  V30 3952 H 370.211 5.31505 2.50552 0
M  V30 3953 H 371.735 5.06859 3.40479 0
M  V30 3954 H 373.149 5.60644 1.19795 0
M  V30 3955 H 371.546 5.98009 0.500552 0
M  V30 3956 H 372.616 4.83763 -0.331856 0
M  V30 3957 N 373.959 -0.0401083 1.57549 0
M  V30 3958 C 375.375 -0.395556 1.54621 0
M  V30 3959 C 375.575 -1.77281 0.957799 0
M  V30 3960 O 374.631 -2.45888 0.574031 0
M  V30 3961 C 375.944 -0.307535 2.99123 0
M  V30 3962 C 377.492 -0.385425 3.10618 0
M  V30 3963 C 377.967 -0.326973 4.56831 0
M  V30 3964 N 379.458 -0.386102 4.61588 0
M  V30 3965 C 380.193 -0.363591 5.72246 0
M  V30 3966 N 379.689 -0.29402 6.92176 0
M  V30 3967 N 381.482 -0.412503 5.60584 0
M  V30 3968 H 373.633 0.861325 1.94152 0
M  V30 3969 H 375.896 0.326445 0.890021 0
M  V30 3970 H 375.602 0.638461 3.45856 0
M  V30 3971 H 375.476 -1.10552 3.60636 0
M  V30 3972 H 377.863 -1.32185 2.63839 0
M  V30 3973 H 377.944 0.44171 2.51957 0
M  V30 3974 H 377.588 0.605738 5.04275 0
M  V30 3975 H 377.518 -1.17207 5.13391 0
M  V30 3976 H 380.009 -0.442832 3.75296 0
M  V30 3977 H 380.322 -0.28164 7.72287 0
M  V30 3978 H 378.667 -0.260232 6.94513 0
M  V30 3979 H 381.858 -0.464769 4.65787 0
M  V30 3980 H 382.031 -0.391492 6.46816 0
M  V30 3981 N 375.437 -1.54477 -0.31217 0
M  V30 3982 C 376.686 -1.72438 -1.04633 0
M  V30 3983 C 376.999 -0.511163 -1.88803 0
M  V30 3984 O 378.205 -0.572341 -2.65399 0
M  V30 3985 C 376.661 -3.05043 -1.9099 0
M  V30 3986 C 376.269 -4.33806 -1.11877 0
M  V30 3987 C 378.013 -3.32364 -2.64073 0
M  V30 3988 C 375.92 -5.57467 -1.97445 0
M  V30 3989 H 374.85 -0.642647 -0.394361 0
M  V30 3990 H 377.501 -1.80966 -0.303929 0
M  V30 3991 H 375.883 -2.90451 -2.69173 0
M  V30 3992 H 377.057 -4.59199 -0.383843 0
M  V30 3993 H 375.372 -4.13336 -0.504252 0
M  V30 3994 H 377.969 -4.21951 -3.28423 0
M  V30 3995 H 378.312 -2.50745 -3.32314 0
M  V30 3996 H 378.845 -3.47875 -1.92944 0
M  V30 3997 H 375.584 -6.41722 -1.33692 0
M  V30 3998 H 375.104 -5.36277 -2.6864 0
M  V30 3999 H 376.783 -5.94303 -2.5576 0
M  V30 4000 N 376.915 0.57481 -1.46744 0
M  V30 4001 C 377.865 1.67838 -1.54319 0
M  V30 4002 C 378.849 1.55759 -0.40346 0
M  V30 4003 O 380.041 1.6454 -0.652347 0
M  V30 4004 C 377.17 3.06624 -1.5439 0
M  V30 4005 C 376.256 3.23971 -2.73685 0
M  V30 4006 N 376.647 3.11447 -3.9854 0
M  V30 4007 C 374.945 3.5493 -2.70075 0
M  V30 4008 C 375.646 3.31011 -4.78337 0
M  V30 4009 N 374.622 3.56533 -4.10348 0
M  V30 4010 H 378.424 1.56698 -2.48642 0
M  V30 4011 H 375.938 0.779071 -1.42493 0
M  V30 4012 H 377.935 3.85839 -1.57905 0
M  V30 4013 H 376.595 3.1889 -0.611493 0
M  V30 4014 H 377.606 2.89145 -4.29669 0
M  V30 4015 H 374.283 3.73832 -1.85893 0
M  V30 4016 H 375.673 3.26445 -5.87268 0
M  V30 4017 N 378.394 1.34581 0.820102 0
M  V30 4018 C 379.619 1.30333 1.61332 0
M  V30 4019 C 380.044 -0.119339 1.87721 0
M  V30 4020 O 379.402 -1.08197 1.45475 0
M  V30 4021 C 379.45 2.10258 2.92957 0
M  V30 4022 O 378.554 1.47404 3.85157 0
M  V30 4023 H 377.895 0.447488 0.490561 0
M  V30 4024 H 380.425 1.77425 1.01889 0
M  V30 4025 H 380.435 2.21718 3.42498 0
M  V30 4026 H 379.11 3.13693 2.73074 0
M  V30 4027 H 377.687 1.44703 3.43679 0
M  V30 4028 N 379.872 -1.04064 1.18357 0
M  V30 4029 C 380.819 -2.12077 0.910603 0
M  V30 4030 C 381.789 -1.65421 -0.15 0
M  V30 4031 O 382.974 -1.90797 -0.0103614 0
M  V30 4032 C 380.114 -3.42252 0.442472 0
M  V30 4033 C 379.227 -4.0252 1.5685 0
M  V30 4034 C 378.362 -5.20657 1.05309 0
M  V30 4035 C 377.401 -5.72955 2.1538 0
M  V30 4036 N 376.538 -6.8238 1.65233 0
M  V30 4037 H 381.378 -2.34764 1.83548 0
M  V30 4038 H 378.915 -1.15157 0.915279 0
M  V30 4039 H 380.873 -4.16921 0.152534 0
M  V30 4040 H 379.503 -3.19712 -0.445428 0
M  V30 4041 H 378.555 -3.25178 1.97391 0
M  V30 4042 H 379.867 -4.37362 2.39824 0
M  V30 4043 H 379.021 -6.0244 0.717677 0
M  V30 4044 H 377.76 -4.87318 0.19293 0
M  V30 4045 H 376.765 -4.89793 2.49766 0
M  V30 4046 H 377.99 -6.08337 3.01832 0
M  V30 4047 H 375.936 -6.50917 0.815064 0
M  V30 4048 H 375.853 -7.16286 2.41805 0
M  V30 4049 H 377.121 -7.67788 1.34619 0
M  V30 4050 N 381.35 -0.985608 -1.22978 0
M  V30 4051 C 382.298 -0.522631 -2.26652 0
M  V30 4052 C 383.292 0.422998 -1.64034 0
M  V30 4053 O 384.498 0.296319 -1.77544 0
M  V30 4054 H 380.873 -0.150597 -0.736766 0
M  V30 4055 H 382.844 -1.40863 -2.63059 0
M  V30 4056 C 381.593 0.154238 -3.47358 0
M  V30 4057 H 380.916 -0.564329 -3.95797 0
M  V30 4058 H 382.356 0.441744 -4.21693 0
M  V30 4059 C 380.815 1.38719 -3.07016 0
M  V30 4060 O 381.345 2.48307 -3.15764 0
M  V30 4061 N 379.551 1.25975 -2.61875 0
M  V30 4062 H 379.098 0.368068 -2.54957 0
M  V30 4063 H 379.056 2.08578 -2.3525 0
M  V30 4064 N 382.828 1.3818 -0.7579 0
M  V30 4065 C 384.075 2.00019 -0.315985 0
M  V30 4066 C 384.403 1.60163 1.10355 0
M  V30 4067 O 383.658 0.83264 1.77103 0
M  V30 4068 C 383.957 3.55252 -0.391218 0
M  V30 4069 C 383.623 4.14834 -1.76702 0
M  V30 4070 C 382.285 4.30821 -2.14353 0
M  V30 4071 C 384.637 4.47658 -2.66931 0
M  V30 4072 C 381.965 4.76928 -3.41696 0
M  V30 4073 C 384.317 4.95184 -3.93669 0
M  V30 4074 C 382.981 5.09377 -4.31383 0
M  V30 4075 H 382.251 0.731923 -0.115627 0
M  V30 4076 H 384.898 1.65161 -0.969223 0
M  V30 4077 H 383.203 3.90273 0.34558 0
M  V30 4078 H 384.9 4.00988 -0.030805 0
M  V30 4079 H 381.49 4.02808 -1.46435 0
M  V30 4080 H 385.674 4.34904 -2.39106 0
M  V30 4081 H 380.93 4.86103 -3.70829 0
M  V30 4082 H 385.104 5.19551 -4.63724 0
M  V30 4083 H 382.731 5.44865 -5.30119 0
M  V30 4084 N 384.306 0.507319 1.49211 0
M  V30 4085 C 385.256 -0.287112 2.26185 0
M  V30 4086 C 386.24 -0.929983 1.31302 0
M  V30 4087 O 387.432 -0.836538 1.55984 0
M  V30 4088 C 384.561 -1.34718 3.15763 0
M  V30 4089 C 383.647 -0.710235 4.18111 0
M  V30 4090 N 384.038 0.190836 5.0544 0
M  V30 4091 C 382.336 -0.97009 4.35322 0
M  V30 4092 C 383.037 0.55606 5.79036 0
M  V30 4093 N 382.013 -0.0775232 5.43545 0
M  V30 4094 H 385.815 0.406445 2.91076 0
M  V30 4095 H 383.329 0.323814 1.59139 0
M  V30 4096 H 385.326 -1.92982 3.69545 0
M  V30 4097 H 383.986 -2.04235 2.52424 0
M  V30 4098 H 384.997 0.562047 5.14841 0
M  V30 4099 H 381.674 -1.65753 3.83187 0
M  V30 4100 H 383.064 1.2936 6.5933 0
M  V30 4101 N 385.784 -1.5574 0.241426 0
M  V30 4102 C 386.694 -2.2479 -0.671305 0
M  V30 4103 C 387.71 -1.26217 -1.19772 0
M  V30 4104 O 388.886 -1.59079 -1.23514 0
M  V30 4105 C 385.951 -2.92966 -1.85396 0
M  V30 4106 C 385.012 -4.06935 -1.36756 0
M  V30 4107 C 384.245 -4.71851 -2.49384 0
M  V30 4108 O 384.468 -4.35823 -3.67987 0
M  V30 4109 O 383.402 -5.60467 -2.19454 0
M  V30 4110 H 387.228 -3.0349 -0.112966 0
M  V30 4111 H 384.813 -1.49397 0.0101513 0
M  V30 4112 H 386.695 -3.35927 -2.54423 0
M  V30 4113 H 385.37 -2.17211 -2.40002 0
M  V30 4114 H 384.277 -3.68503 -0.644726 0
M  V30 4115 H 385.61 -4.84492 -0.867647 0
M  V30 4116 N 387.262 0.0317525 -1.57568 0
M  V30 4117 C 388.539 0.758366 -1.803 0
M  V30 4118 C 388.919 1.93718 -0.838845 0
M  V30 4119 O 388.267 2.28187 0.119571 0
M  V30 4120 C 388.477 1.19392 -3.27943 0
M  V30 4121 C 389.825 1.61094 -3.92854 0
M  V30 4122 O 390.849 1.28857 -3.32076 0
M  V30 4123 O 389.708 2.20918 -4.99858 0
M  V30 4124 H 386.802 0.366514 -0.741348 0
M  V30 4125 H 389.348 0.00873765 -1.69698 0
M  V30 4126 H 388.12 0.352275 -3.89711 0
M  V30 4127 H 387.743 2.00365 -3.43424 0
M  V30 4128 N 388.74 1.54641 0.303973 0
M  V30 4129 C 389.968 1.77768 1.05858 0
M  V30 4130 C 390.383 0.535722 1.8104 0
M  V30 4131 O 389.74 -0.494337 1.75677 0
M  V30 4132 C 389.791 2.9834 2.04146 0
M  V30 4133 O 389.512 4.17736 1.32015 0
M  V30 4134 C 391.013 3.33832 2.91669 0
M  V30 4135 H 388.233 0.592961 0.314067 0
M  V30 4136 H 390.777 2.01583 0.344149 0
M  V30 4137 H 388.932 2.76742 2.71096 0
M  V30 4138 H 389.346 4.85693 1.97998 0
M  V30 4139 H 390.82 4.21448 3.56491 0
M  V30 4140 H 391.297 2.51857 3.59812 0
M  V30 4141 H 391.903 3.57579 2.30254 0
M  V30 4142 N 390.218 -0.567019 1.47046 0
M  V30 4143 C 391.148 -1.68482 1.61667 0
M  V30 4144 C 392.129 -1.6358 0.466418 0
M  V30 4145 O 393.314 -1.81354 0.694574 0
M  V30 4146 C 390.444 -3.07124 1.62148 0
M  V30 4147 C 389.398 -3.26867 2.76301 0
M  V30 4148 C 388.724 -4.66196 2.61849 0
M  V30 4149 C 390.024 -3.13186 4.17986 0
M  V30 4150 H 391.718 -1.56502 2.5524 0
M  V30 4151 H 389.264 -0.751486 1.22836 0
M  V30 4152 H 391.217 -3.8516 1.70968 0
M  V30 4153 H 389.941 -3.2004 0.651287 0
M  V30 4154 H 388.6 -2.51237 2.66975 0
M  V30 4155 H 388.248 -4.75898 1.62879 0
M  V30 4156 H 387.948 -4.80356 3.38425 0
M  V30 4157 H 389.472 -5.46379 2.72584 0
M  V30 4158 H 390.886 -3.81049 4.2834 0
M  V30 4159 H 389.283 -3.3886 4.95272 0
M  V30 4160 H 390.353 -2.10057 4.3704 0
M  V30 4161 N 391.696 -1.35014 -0.812953 0
M  V30 4162 C 392.921 -1.31187 -1.60639 0
M  V30 4163 C 393.346 0.109382 -1.87782 0
M  V30 4164 O 392.704 1.07424 -1.46047 0
M  V30 4165 C 392.752 -2.11809 -2.91838 0
M  V30 4166 O 391.856 -1.49444 -3.8437 0
M  V30 4167 H 391.197 -0.450084 -0.488181 0
M  V30 4168 H 393.727 -1.77963 -1.00947 0
M  V30 4169 H 393.737 -2.23531 -3.41318 0
M  V30 4170 H 392.412 -3.15137 -2.71407 0
M  V30 4171 H 390.989 -1.46524 -3.42907 0
M  V30 4172 N 393.175 1.03435 -1.18907 0
M  V30 4173 C 394.4 1.80919 -1.01406 0
M  V30 4174 C 394.825 1.83055 0.432721 0
M  V30 4175 O 394.183 1.25252 1.31079 0
M  V30 4176 C 394.231 3.24091 -1.58105 0
M  V30 4177 O 393.335 4.04434 -0.806669 0
M  V30 4178 H 392.676 0.558709 -0.358803 0
M  V30 4179 H 395.206 1.30223 -1.57807 0
M  V30 4180 H 395.216 3.74853 -1.61087 0
M  V30 4181 H 393.891 3.21851 -2.6341 0
M  V30 4182 H 392.468 3.63091 -0.849666 0
M  V30 4183 N 394.653 0.992116 1.22453 0
M  V30 4184 C 395.881 0.685944 1.95198 0
M  V30 4185 C 396.296 -0.749233 1.73297 0
M  V30 4186 O 395.653 -1.50549 1.03156 0
M  V30 4187 C 395.704 0.981395 3.47924 0
M  V30 4188 O 395.425 2.36018 3.6909 0
M  V30 4189 C 396.926 0.692815 4.37853 0
M  V30 4190 H 394.146 0.253821 0.621141 0
M  V30 4191 H 396.69 1.32668 1.55626 0
M  V30 4192 H 394.845 0.386481 3.85467 0
M  V30 4193 H 395.259 2.45884 4.63294 0
M  V30 4194 H 396.733 0.949818 5.43767 0
M  V30 4195 H 397.21 -0.373181 4.37612 0
M  V30 4196 H 397.816 1.26874 4.05935 0
M  V30 4197 N 396.131 -1.37776 0.765217 0
M  V30 4198 C 397.078 -2.30342 0.145274 0
M  V30 4199 C 398.048 -1.5077 -0.696971 0
M  V30 4200 O 399.233 -1.79362 -0.650689 0
M  V30 4201 C 396.373 -3.37227 -0.732939 0
M  V30 4202 C 395.486 -4.31819 0.125199 0
M  V30 4203 C 394.621 -5.25777 -0.757107 0
M  V30 4204 C 393.66 -6.12012 0.103963 0
M  V30 4205 N 392.797 -6.98232 -0.735953 0
M  V30 4206 H 397.637 -2.8278 0.940195 0
M  V30 4207 H 395.174 -1.39211 0.475255 0
M  V30 4208 H 397.132 -3.97818 -1.25686 0
M  V30 4209 H 395.762 -2.86171 -1.49353 0
M  V30 4210 H 394.814 -3.7259 0.766865 0
M  V30 4211 H 396.126 -4.92509 0.789683 0
M  V30 4212 H 395.28 -5.91541 -1.34776 0
M  V30 4213 H 394.019 -4.65481 -1.45529 0
M  V30 4214 H 393.024 -5.45233 0.707197 0
M  V30 4215 H 394.249 -6.74379 0.799381 0
M  V30 4216 H 392.195 -6.40472 -1.41887 0
M  V30 4217 H 392.112 -7.55891 -0.128624 0
M  V30 4218 H 393.38 -7.68393 -1.31121 0
M  V30 4219 N 397.609 -0.515225 -1.4894 0
M  V30 4220 C 398.572 0.244681 -2.2789 0
M  V30 4221 C 399.572 0.881166 -1.34507 0
M  V30 4222 O 400.762 0.743497 -1.57537 0
M  V30 4223 C 397.894 1.35247 -3.12923 0
M  V30 4224 H 399.087 -0.448289 -2.96531 0
M  V30 4225 H 396.64 -0.270656 -1.53939 0
M  V30 4226 H 397.375 2.07916 -2.48881 0
M  V30 4227 H 397.16 0.901374 -3.81599 0
M  V30 4228 H 398.65 1.88737 -3.72516 0
M  V30 4229 N 399.087 1.5561 -0.249682 0
M  V30 4230 C 400.034 2.21496 0.648694 0
M  V30 4231 C 401.004 1.17977 1.16921 0
M  V30 4232 O 402.189 1.46434 1.22318 0
M  V30 4233 C 399.329 2.92039 1.83868 0
M  V30 4234 C 398.442 4.10219 1.35442 0
M  V30 4235 C 397.577 4.6847 2.50419 0
M  V30 4236 C 396.616 5.78893 1.98869 0
M  V30 4237 N 395.753 6.31315 3.07223 0
M  V30 4238 H 400.593 2.97892 0.0801582 0
M  V30 4239 H 398.13 1.47074 0.0278031 0
M  V30 4240 H 400.088 3.31138 2.53778 0
M  V30 4241 H 398.718 2.18111 2.37965 0
M  V30 4242 H 397.77 3.76413 0.54928 0
M  V30 4243 H 399.082 4.89927 0.936649 0
M  V30 4244 H 398.236 5.10158 3.28366 0
M  V30 4245 H 396.975 3.87984 2.95499 0
M  V30 4246 H 395.98 5.3668 1.19393 0
M  V30 4247 H 397.205 6.61232 1.54755 0
M  V30 4248 H 395.151 5.53733 3.51732 0
M  V30 4249 H 395.068 7.06224 2.69784 0
M  V30 4250 H 396.336 6.77662 3.8522 0
M  V30 4251 N 400.565 -0.0233959 1.57583 0
M  V30 4252 C 401.813 -0.711654 1.89156 0
M  V30 4253 C 402.134 -1.75591 0.848096 0
M  V30 4254 O 401.404 -1.95547 -0.117566 0
M  V30 4255 H 399.984 -0.265835 0.698098 0
M  V30 4256 H 402.646 0.0119948 1.94896 0
M  V30 4257 H 401.742 -1.19766 2.88206 0
M  V30 4258 N 402.043 -1.548 -0.295768 0
M  V30 4259 C 402.993 -1.82497 -1.3667 0
M  V30 4260 C 403.977 -0.682434 -1.45711 0
M  V30 4261 O 405.169 -0.943207 -1.49775 0
M  V30 4262 C 402.298 -2.08036 -2.73086 0
M  V30 4263 C 401.384 -3.28488 -2.68247 0
M  V30 4264 N 401.775 -4.48924 -2.33025 0
M  V30 4265 C 400.073 -3.3062 -2.99343 0
M  V30 4266 C 400.774 -5.30956 -2.37613 0
M  V30 4267 N 399.75 -4.68805 -2.75178 0
M  V30 4268 H 403.552 -2.73175 -1.0841 0
M  V30 4269 H 401.066 -1.5437 -0.504361 0
M  V30 4270 H 403.063 -2.26027 -3.5031 0
M  V30 4271 H 401.723 -1.18629 -3.02254 0
M  V30 4272 H 402.734 -4.75432 -2.05389 0
M  V30 4273 H 399.411 -2.51336 -3.33371 0
M  V30 4274 H 400.801 -6.37199 -2.13135 0
M  V30 4275 N 403.521 0.559213 -1.47345 0
M  V30 4276 C 404.469 1.68747 -1.60085 0
M  V30 4277 C 405.463 1.628 -0.46825 0
M  V30 4278 O 406.669 1.68009 -0.645977 0
M  V30 4279 H 403.044 0.558329 -0.503759 0
M  V30 4280 H 405.015 1.55138 -2.54902 0
M  V30 4281 C 403.764 3.07103 -1.63042 0
M  V30 4282 H 403.087 3.12361 -2.49541 0
M  V30 4283 H 404.527 3.85743 -1.76006 0
M  V30 4284 C 402.986 3.34935 -0.363357 0
M  V30 4285 O 403.516 3.98102 0.536416 0
M  V30 4286 N 401.722 2.89574 -0.244 0
M  V30 4287 H 401.269 2.38348 -0.977133 0
M  V30 4288 H 401.227 3.08566 0.602836 0
M  V30 4289 N 404.999 1.35443 0.805782 0
M  V30 4290 C 406.41 1.25768 1.37983 0
M  V30 4291 C 406.761 -0.10958 1.95894 0
M  V30 4292 O 405.886 -1.01056 1.91355 0
M  V30 4293 C 406.481 2.27727 2.5085 0
M  V30 4294 C 405.04 2.2179 3.04115 0
M  V30 4295 C 404.187 2.13393 1.77084 0
M  V30 4296 H 407.138 1.4656 0.608752 0
M  V30 4297 H 407.159 1.90422 3.29424 0
M  V30 4298 H 406.671 3.27227 2.08671 0
M  V30 4299 H 404.772 1.25703 3.50756 0
M  V30 4300 H 404.885 3.13788 3.62042 0
M  V30 4301 H 403.249 1.59384 1.98668 0
M  V30 4302 H 404.032 3.14755 1.37056 0
M  V30 4303 N 406.477 -1.02803 1.19454 0
M  V30 4304 C 407.893 -1.28473 0.946937 0
M  V30 4305 C 408.093 -1.97881 -0.380202 0
M  V30 4306 O 407.149 -2.26719 -1.11151 0
M  V30 4307 C 408.462 -2.13099 2.12154 0
M  V30 4308 C 410.01 -2.26404 2.16126 0
M  V30 4309 C 410.485 -3.14402 3.33039 0
M  V30 4310 N 411.976 -3.21991 3.32981 0
M  V30 4311 C 412.711 -3.90272 4.20089 0
M  V30 4312 N 412.207 -4.60777 5.17355 0
M  V30 4313 N 414 -3.8668 4.07964 0
M  V30 4314 H 406.151 -0.561665 2.04839 0
M  V30 4315 H 408.414 -0.310438 0.89573 0
M  V30 4316 H 408.12 -1.69422 3.08203 0
M  V30 4317 H 407.994 -3.13813 2.09287 0
M  V30 4318 H 410.381 -2.69311 1.20647 0
M  V30 4319 H 410.462 -1.25237 2.23045 0
M  V30 4320 H 410.106 -2.72204 4.28798 0
M  V30 4321 H 410.036 -4.1563 3.23356 0
M  V30 4322 H 412.527 -2.71778 2.62574 0
M  V30 4323 H 412.84 -5.10513 5.80169 0
M  V30 4324 H 411.185 -4.5964 5.21302 0
M  V30 4325 H 414.376 -3.30739 3.31254 0
M  V30 4326 H 414.549 -4.39621 4.76064 0
M  V30 4327 N 407.956 -0.998596 -1.21925 0
M  V30 4328 C 409.181 -0.696015 -1.95372 0
M  V30 4329 C 409.606 0.733826 -1.73195 0
M  V30 4330 O 408.964 1.50242 -1.01474 0
M  V30 4331 C 409.012 -1.01466 -3.4603 0
M  V30 4332 O 408.116 -0.116415 -4.12236 0
M  V30 4333 H 407.457 -0.259938 -0.611006 0
M  V30 4334 H 409.987 -1.33711 -1.54863 0
M  V30 4335 H 409.997 -0.958855 -3.96573 0
M  V30 4336 H 408.672 -2.05653 -3.61497 0
M  V30 4337 H 407.249 -0.228193 -3.72201 0
M  V30 4338 N 409.434 1.37368 -0.772513 0
M  V30 4339 C 410.659 2.0447 -0.347386 0
M  V30 4340 C 411.084 1.57882 1.0225 0
M  V30 4341 O 410.442 0.73941 1.65537 0
M  V30 4342 C 410.49 3.58369 -0.400479 0
M  V30 4343 O 409.594 4.0803 0.598789 0
M  V30 4344 H 408.935 0.646773 -0.15027 0
M  V30 4345 H 411.465 1.75667 -1.04892 0
M  V30 4346 H 411.475 4.07183 -0.258045 0
M  V30 4347 H 410.15 3.91633 -1.39986 0
M  V30 4348 H 408.727 3.70534 0.419411 0
M  V30 4349 N 410.912 0.523116 1.48665 0
M  V30 4350 C 412.161 -0.01544 2.01694 0
M  V30 4351 C 412.474 -1.35975 1.40606 0
M  V30 4352 O 413.68 -1.98627 1.85093 0
M  V30 4353 C 412.136 -0.0779303 3.59816 0
M  V30 4354 C 411.744 1.26107 4.29885 0
M  V30 4355 C 413.488 -0.565678 4.20714 0
M  V30 4356 C 411.395 1.15954 5.79921 0
M  V30 4357 H 410.325 -0.00954163 0.75394 0
M  V30 4358 H 412.976 0.665865 1.70993 0
M  V30 4359 H 411.358 -0.824165 3.87329 0
M  V30 4360 H 412.532 2.02233 4.14051 0
M  V30 4361 H 410.847 1.68401 3.80828 0
M  V30 4362 H 413.444 -0.6595 5.30617 0
M  V30 4363 H 413.787 -1.56984 3.85567 0
M  V30 4364 H 414.32 0.12467 3.97605 0
M  V30 4365 H 411.059 2.13864 6.19631 0
M  V30 4366 H 410.579 0.439529 5.98187 0
M  V30 4367 H 412.258 0.847361 6.41427 0
M  V30 4368 N 412.39 -1.55475 0.257931 0
M  V30 4369 C 413.353 -2.20551 -0.623706 0
M  V30 4370 C 414.353 -1.17809 -1.09443 0
M  V30 4371 O 415.543 -1.42823 -0.997362 0
M  V30 4372 C 412.675 -2.85784 -1.8585 0
M  V30 4373 H 413.868 -2.99848 -0.0557743 0
M  V30 4374 H 411.421 -1.56298 0.0084422 0
M  V30 4375 H 412.156 -2.10453 -2.46739 0
M  V30 4376 H 411.941 -3.61057 -1.52907 0
M  V30 4377 H 413.431 -3.35553 -2.48584 0
M  V30 4378 N 413.868 0.0150385 -1.57593 0
M  V30 4379 C 415.114 0.704043 -1.90187 0
M  V30 4380 C 415.447 1.74249 -0.857366 0
M  V30 4381 O 414.722 1.94092 0.125843 0
M  V30 4382 C 415.005 1.36087 -3.33395 0
M  V30 4383 C 414.858 0.334981 -4.48551 0
M  V30 4384 C 416.177 2.29112 -3.7576 0
M  V30 4385 H 413.296 0.254475 -0.691673 0
M  V30 4386 H 415.938 -0.0331678 -1.89971 0
M  V30 4387 H 414.088 1.98922 -3.3371 0
M  V30 4388 H 415.76 -0.292534 -4.60372 0
M  V30 4389 H 414.003 -0.344325 -4.32431 0
M  V30 4390 H 414.674 0.833316 -5.45674 0
M  V30 4391 H 417.15 1.76308 -3.76902 0
M  V30 4392 H 416.026 2.72043 -4.76743 0
M  V30 4393 H 416.287 3.16385 -3.08793 0
M  V30 4394 N 415.346 1.54954 0.287554 0
M  V30 4395 C 416.293 1.86834 1.35505 0
M  V30 4396 C 417.263 0.718452 1.49758 0
M  V30 4397 O 418.448 0.968358 1.644 0
M  V30 4398 C 415.588 2.13303 2.71286 0
M  V30 4399 C 414.701 3.40883 2.65373 0
M  V30 4400 C 413.836 3.57125 3.93236 0
M  V30 4401 C 412.875 4.78449 3.81776 0
M  V30 4402 N 412.012 4.91426 5.01443 0
M  V30 4403 H 416.852 2.77889 1.07619 0
M  V30 4404 H 414.389 1.37593 0.520241 0
M  V30 4405 H 416.347 2.26646 3.50267 0
M  V30 4406 H 414.977 1.25499 2.97405 0
M  V30 4407 H 414.029 3.36088 1.78182 0
M  V30 4408 H 415.341 4.29993 2.52799 0
M  V30 4409 H 414.495 3.70207 4.80658 0
M  V30 4410 H 413.234 2.66173 4.0866 0
M  V30 4411 H 412.239 4.65386 2.92738 0
M  V30 4412 H 413.464 5.70822 3.67884 0
M  V30 4413 H 411.41 4.03401 5.17304 0
M  V30 4414 H 411.327 5.74559 4.91343 0
M  V30 4415 H 412.595 5.08879 5.90477 0
M  V30 4416 N 416.824 -0.551391 1.4764 0
M  V30 4417 C 417.754 -1.66757 1.63445 0
M  V30 4418 C 418.735 -1.63077 0.483742 0
M  V30 4419 O 419.92 -1.80607 0.71377 0
M  V30 4420 C 417.05 -3.05387 1.65396 0
M  V30 4421 C 416.004 -3.23918 2.79752 0
M  V30 4422 C 415.33 -4.63393 2.66779 0
M  V30 4423 C 416.63 -3.08735 4.21284 0
M  V30 4424 H 418.324 -1.53786 2.56886 0
M  V30 4425 H 415.87 -0.738415 1.23626 0
M  V30 4426 H 417.823 -3.83325 1.75043 0
M  V30 4427 H 416.547 -3.19332 0.685195 0
M  V30 4428 H 415.206 -2.48391 2.69625 0
M  V30 4429 H 414.854 -4.74144 1.67918 0
M  V30 4430 H 414.554 -4.7674 3.43501 0
M  V30 4431 H 416.078 -5.43458 2.78364 0
M  V30 4432 H 417.492 -3.76484 4.32357 0
M  V30 4433 H 415.889 -3.33588 4.98838 0
M  V30 4434 H 416.959 -2.0541 4.39243 0
M  V30 4435 N 418.302 -1.35869 -0.798587 0
M  V30 4436 C 419.549 -1.29588 -1.55606 0
M  V30 4437 C 419.877 0.127456 -1.94082 0
M  V30 4438 O 419.132 1.09461 -1.62225 0
M  V30 4439 C 419.431 -2.1556 -2.85077 0
M  V30 4440 C 419.097 -3.6424 -2.65781 0
M  V30 4441 C 417.759 -4.04766 -2.60227 0
M  V30 4442 C 420.111 -4.58547 -2.47758 0
M  V30 4443 C 417.439 -5.37753 -2.34603 0
M  V30 4444 C 419.791 -5.91742 -2.23662 0
M  V30 4445 C 418.455 -6.31402 -2.16534 0
M  V30 4446 H 417.725 -0.474197 -0.569402 0
M  V30 4447 H 420.372 -1.67839 -0.922086 0
M  V30 4448 H 418.677 -1.70216 -3.52893 0
M  V30 4449 H 420.374 -2.08031 -3.42818 0
M  V30 4450 H 416.964 -3.32086 -2.70956 0
M  V30 4451 H 421.148 -4.28117 -2.51056 0
M  V30 4452 H 416.404 -5.67474 -2.2756 0
M  V30 4453 H 420.578 -6.6439 -2.08708 0
M  V30 4454 H 418.205 -7.34381 -1.96441 0
M  V30 4455 N 419.78 1.02168 -1.19998 0
M  V30 4456 C 420.727 2.10601 -0.944228 0
M  V30 4457 C 421.697 1.65639 0.123664 0
M  V30 4458 O 422.882 1.9079 -0.0199941 0
M  V30 4459 C 420.022 3.41504 -0.496865 0
M  V30 4460 C 419.135 3.99973 -1.63234 0
M  V30 4461 C 418.27 5.18915 -1.13579 0
M  V30 4462 C 417.309 5.69456 -2.24468 0
M  V30 4463 N 416.446 6.79665 -1.76068 0
M  V30 4464 H 421.286 2.31814 -1.8726 0
M  V30 4465 H 418.823 1.13686 -0.933483 0
M  V30 4466 H 420.781 4.16626 -0.218843 0
M  V30 4467 H 419.411 3.2038 0.394508 0
M  V30 4468 H 418.463 3.21997 -2.0254 0
M  V30 4469 H 419.775 4.33492 -2.46752 0
M  V30 4470 H 418.929 6.01222 -0.813429 0
M  V30 4471 H 417.668 4.8695 -0.270434 0
M  V30 4472 H 416.673 4.85757 -2.57526 0
M  V30 4473 H 417.898 6.03459 -3.11472 0
M  V30 4474 H 415.844 6.49538 -0.918516 0
M  V30 4475 H 415.761 7.12349 -2.5317 0
M  V30 4476 H 417.029 7.65549 -1.46817 0
M  V30 4477 N 421.258 1.00505 1.21394 0
M  V30 4478 C 422.505 0.687774 1.90462 0
M  V30 4479 C 422.833 -0.78147 1.7811 0
M  V30 4480 O 422.088 -1.58208 1.1519 0
M  V30 4481 C 422.387 1.0546 3.41486 0
M  V30 4482 C 422.053 2.51812 3.74034 0
M  V30 4483 C 420.715 2.91804 3.82628 0
M  V30 4484 C 423.067 3.46614 3.8924 0
M  V30 4485 C 420.395 4.2556 4.03876 0
M  V30 4486 C 422.747 4.80044 4.11995 0
M  V30 4487 C 421.411 5.19759 4.18816 0
M  V30 4488 H 420.681 0.251674 0.696951 0
M  V30 4489 H 423.328 1.26349 1.43903 0
M  V30 4490 H 421.633 0.397133 3.89782 0
M  V30 4491 H 423.33 0.786976 3.93202 0
M  V30 4492 H 419.92 2.1982 3.67936 0
M  V30 4493 H 424.104 3.16883 3.81967 0
M  V30 4494 H 419.36 4.55901 4.07387 0
M  V30 4495 H 423.534 5.53439 4.22704 0
M  V30 4496 H 421.161 6.23418 4.35033 0
M  V30 4497 N 422.737 -1.36956 0.779787 0
M  V30 4498 C 423.962 -2.04283 0.358224 0
M  V30 4499 C 424.387 -1.58422 -1.01411 0
M  V30 4500 O 423.745 -0.748179 -1.65142 0
M  V30 4501 C 423.793 -3.58152 0.419479 0
M  V30 4502 O 422.897 -4.08342 -0.577142 0
M  V30 4503 H 422.238 -0.645967 0.153698 0
M  V30 4504 H 424.768 -1.75108 1.05822 0
M  V30 4505 H 424.778 -4.07041 0.279636 0
M  V30 4506 H 423.453 -3.90886 1.42061 0
M  V30 4507 H 422.03 -3.70751 -0.399755 0
M  V30 4508 N 424.215 -0.530993 -1.48385 0
M  V30 4509 C 425.631 -0.188919 -1.58478 0
M  V30 4510 C 425.831 1.30786 -1.53288 0
M  V30 4511 O 424.887 2.08619 -1.42248 0
M  V30 4512 C 426.2 -0.792343 -2.90073 0
M  V30 4513 C 427.748 -0.76117 -3.03604 0
M  V30 4514 C 428.223 -1.34319 -4.37861 0
M  V30 4515 N 429.714 -1.3052 -4.44431 0
M  V30 4516 C 430.449 -1.72543 -5.46824 0
M  V30 4517 N 429.945 -2.22299 -6.56167 0
M  V30 4518 N 431.738 -1.63773 -5.37712 0
M  V30 4519 H 423.889 -1.50377 -1.50002 0
M  V30 4520 H 426.152 -0.625559 -0.712306 0
M  V30 4521 H 425.858 -1.84323 -2.99529 0
M  V30 4522 H 425.732 -0.270026 -3.76232 0
M  V30 4523 H 428.119 0.280957 -2.93759 0
M  V30 4524 H 428.2 -1.32097 -2.19053 0
M  V30 4525 H 427.844 -2.38425 -4.4846 0
M  V30 4526 H 427.774 -0.759064 -5.21101 0
M  V30 4527 H 430.265 -0.940973 -3.65997 0
M  V30 4528 H 430.578 -2.52356 -7.30436 0
M  V30 4529 H 428.923 -2.26293 -6.57127 0
M  V30 4530 H 432.114 -1.24698 -4.51185 0
M  V30 4531 H 432.287 -1.96844 -6.17379 0
M  V30 4532 N 425.693 1.55336 -0.266172 0
M  V30 4533 C 426.603 2.2583 0.635458 0
M  V30 4534 C 427.619 1.28106 1.17749 0
M  V30 4535 O 428.795 1.61024 1.20968 0
M  V30 4536 C 425.86 2.95879 1.80712 0
M  V30 4537 C 424.921 4.09059 1.30265 0
M  V30 4538 C 424.154 4.75759 2.41846 0
M  V30 4539 O 424.377 4.41622 3.61007 0
M  V30 4540 O 423.311 5.63888 2.1051 0
M  V30 4541 H 427.137 3.03631 0.0646693 0
M  V30 4542 H 424.722 1.49361 -0.0339177 0
M  V30 4543 H 426.604 3.39932 2.49047 0
M  V30 4544 H 425.279 2.21002 2.36516 0
M  V30 4545 H 424.186 3.69482 0.586019 0
M  V30 4546 H 425.519 4.85811 0.790458 0
M  V30 4547 N 427.171 -0.0066808 1.57599 0
M  V30 4548 C 428.118 -1.00024 2.08 0
M  V30 4549 C 429.088 -1.34549 0.973943 0
M  V30 4550 O 430.273 -1.44502 1.24595 0
M  V30 4551 C 427.413 -2.2891 2.58252 0
M  V30 4552 C 426.526 -2.00346 3.82734 0
M  V30 4553 C 425.661 -3.23265 4.21513 0
M  V30 4554 C 424.7 -2.90357 5.3885 0
M  V30 4555 N 423.837 -4.05793 5.72954 0
M  V30 4556 H 428.677 -0.563499 2.92624 0
M  V30 4557 H 426.214 -0.266592 1.44664 0
M  V30 4558 H 428.172 -3.04247 2.85464 0
M  V30 4559 H 426.802 -2.70265 1.76512 0
M  V30 4560 H 425.854 -1.15406 3.62471 0
M  V30 4561 H 427.166 -1.72086 4.68175 0
M  V30 4562 H 426.32 -4.06953 4.49971 0
M  V30 4563 H 425.059 -3.54657 3.34768 0
M  V30 4564 H 424.064 -2.05075 5.10122 0
M  V30 4565 H 425.289 -2.60219 6.27266 0
M  V30 4566 H 423.235 -4.37094 4.89167 0
M  V30 4567 H 423.152 -3.81034 6.52954 0
M  V30 4568 H 424.42 -4.90289 6.06001 0
M  V30 4569 N 428.649 -1.55105 -0.279332 0
M  V30 4570 C 429.596 -1.8755 -1.34513 0
M  V30 4571 C 430.566 -0.726384 -1.49375 0
M  V30 4572 O 431.751 -0.977063 -1.63884 0
M  V30 4573 C 428.891 -2.14738 -2.70151 0
M  V30 4574 C 428.004 -3.42285 -2.63562 0
M  V30 4575 C 427.139 -3.59206 -3.91337 0
M  V30 4576 C 426.178 -4.80467 -3.79233 0
M  V30 4577 N 425.315 -4.94079 -4.98829 0
M  V30 4578 H 430.155 -2.78456 -1.06143 0
M  V30 4579 H 427.692 -1.37867 -0.512936 0
M  V30 4580 H 429.65 -2.28501 -3.49061 0
M  V30 4581 H 428.28 -1.27075 -2.96735 0
M  V30 4582 H 427.332 -3.37029 -1.76397 0
M  V30 4583 H 428.644 -4.31328 -2.50515 0
M  V30 4584 H 427.798 -3.72751 -4.78687 0
M  V30 4585 H 426.537 -2.68337 -4.07243 0
M  V30 4586 H 425.542 -4.66932 -2.90266 0
M  V30 4587 H 426.767 -5.72765 -3.64852 0
M  V30 4588 H 424.713 -4.06139 -5.15158 0
M  V30 4589 H 424.63 -5.77156 -4.8829 0
M  V30 4590 H 425.898 -5.12003 -5.8777 0
M  V30 4591 N 430.127 0.543554 -1.4793 0
M  V30 4592 C 431.09 1.63156 -1.60975 0
M  V30 4593 C 432.09 1.53346 -0.483899 0
M  V30 4594 O 433.28 1.5726 -0.749339 0
M  V30 4595 C 430.412 3.02743 -1.56716 0
M  V30 4596 H 431.605 1.52934 -2.57975 0
M  V30 4597 H 429.158 0.764557 -1.36324 0
M  V30 4598 H 429.893 3.18484 -0.611418 0
M  V30 4599 H 429.678 3.11272 -2.38438 0
M  V30 4600 H 431.168 3.81871 -1.6901 0
M  V30 4601 N 431.605 1.3629 0.791371 0
M  V30 4602 C 432.568 1.30309 1.88553 0
M  V30 4603 C 433.568 0.211204 1.59407 0
M  V30 4604 O 434.758 0.465865 1.67855 0
M  V30 4605 C 431.89 1.01956 3.25297 0
M  V30 4606 H 433.083 2.27614 1.95273 0
M  V30 4607 H 430.636 1.21035 0.988953 0
M  V30 4608 H 431.371 0.050998 3.2426 0
M  V30 4609 H 431.156 1.80968 3.4784 0
M  V30 4610 H 432.646 1.0037 4.05359 0
M  V30 4611 N 433.083 -1.0153 1.20538 0
M  V30 4612 C 434.03 -2.10098 0.955383 0
M  V30 4613 C 435 -1.65702 -0.114878 0
M  V30 4614 O 436.185 -1.90776 0.0301118 0
M  V30 4615 C 433.325 -3.41236 0.514969 0
M  V30 4616 C 432.438 -3.99102 1.65353 0
M  V30 4617 C 431.573 -5.18306 1.16329 0
M  V30 4618 C 430.612 -5.68258 2.27485 0
M  V30 4619 N 429.749 -6.78722 1.7967 0
M  V30 4620 H 434.589 -2.30818 1.88486 0
M  V30 4621 H 432.126 -1.13189 0.939499 0
M  V30 4622 H 434.084 -4.16504 0.240935 0
M  V30 4623 H 432.714 -3.20585 -0.377512 0
M  V30 4624 H 431.766 -3.20918 2.04245 0
M  V30 4625 H 433.078 -4.32177 2.49047 0
M  V30 4626 H 432.232 -6.00782 0.845302 0
M  V30 4627 H 430.971 -4.86799 0.296254 0
M  V30 4628 H 429.976 -4.84385 2.60099 0
M  V30 4629 H 431.201 -6.01798 3.14667 0
M  V30 4630 H 429.147 -6.49042 0.95295 0
M  V30 4631 H 429.064 -7.10996 2.56944 0
M  V30 4632 H 430.332 -7.64759 1.50875 0
M  V30 4633 N 434.561 -1.01147 -1.20859 0
M  V30 4634 C 435.789 -0.716911 -1.94082 0
M  V30 4635 C 436.204 0.721568 -1.74467 0
M  V30 4636 O 435.561 1.48889 -1.05539 0
M  V30 4637 C 435.612 -1.03662 -3.46318 0
M  V30 4638 O 435.333 -2.4186 -3.65288 0
M  V30 4639 C 436.834 -0.762386 -4.36695 0
M  V30 4640 H 434.054 -0.26367 -0.617024 0
M  V30 4641 H 436.598 -1.35127 -1.53496 0
M  V30 4642 H 434.753 -0.447757 -3.84804 0
M  V30 4643 H 435.167 -2.53224 -4.59323 0
M  V30 4644 H 436.641 -1.03621 -5.42187 0
M  V30 4645 H 437.118 0.303514 -4.3815 0
M  V30 4646 H 437.724 -1.33316 -4.03865 0
M  V30 4647 N 436.039 1.36541 -0.78704 0
M  V30 4648 C 436.969 2.32659 -0.197992 0
M  V30 4649 C 437.95 1.56533 0.665697 0
M  V30 4650 O 439.135 1.84698 0.60001 0
M  V30 4651 C 436.265 3.40778 0.669901 0
M  V30 4652 C 435.219 4.27897 -0.0937039 0
M  V30 4653 C 434.545 5.27163 0.894629 0
M  V30 4654 C 435.845 5.06334 -1.28154 0
M  V30 4655 H 437.539 2.82171 -1.00099 0
M  V30 4656 H 435.085 1.35665 -0.482793 0
M  V30 4657 H 437.038 4.07008 1.09191 0
M  V30 4658 H 435.762 2.89827 1.50558 0
M  V30 4659 H 434.421 3.6322 -0.49666 0
M  V30 4660 H 434.069 4.72486 1.72527 0
M  V30 4661 H 433.769 5.86317 0.388149 0
M  V30 4662 H 435.293 5.96266 1.31525 0
M  V30 4663 H 436.707 5.65617 -0.93541 0
M  V30 4664 H 435.104 5.74888 -1.72115 0
M  V30 4665 H 436.174 4.38114 -2.07807 0
M  V30 4666 N 437.518 0.538854 1.48102 0
M  V30 4667 C 438.766 0.00798599 2.02098 0
M  V30 4668 C 439.087 -1.33922 1.41739 0
M  V30 4669 O 438.357 -1.86932 0.585934 0
M  V30 4670 H 436.937 -3.62179e-05 0.747 0
M  V30 4671 H 439.599 0.7047 1.81714 0
M  V30 4672 H 438.695 -0.0937672 3.11959 0
M  V30 4673 N 438.996 -1.55193 0.274407 0
M  V30 4674 C 440.245 -1.98758 -0.343213 0
M  V30 4675 C 440.558 -1.16624 -1.5703 0
M  V30 4676 O 441.764 -1.5033 -2.26082 0
M  V30 4677 C 440.22 -3.53759 -0.661996 0
M  V30 4678 C 439.828 -4.4467 0.54524 0
M  V30 4679 C 441.572 -4.05916 -1.24228 0
M  V30 4680 C 439.479 -5.91058 0.201084 0
M  V30 4681 H 438.409 -0.742353 -0.132014 0
M  V30 4682 H 441.06 -1.79545 0.378948 0
M  V30 4683 H 439.442 -3.68772 -1.44304 0
M  V30 4684 H 440.616 -4.41426 1.32212 0
M  V30 4685 H 438.931 -4.03143 1.04232 0
M  V30 4686 H 441.528 -5.12831 -1.51357 0
M  V30 4687 H 441.871 -3.54908 -2.17592 0
M  V30 4688 H 442.404 -3.9434 -0.523542 0
M  V30 4689 H 439.143 -6.46161 1.10258 0
M  V30 4690 H 438.663 -5.97373 -0.539045 0
M  V30 4691 H 440.342 -6.46669 -0.206954 0
M  V30 4692 N 440.474 -0.00167713 -1.576 0
M  V30 4693 C 441.72 0.683832 -1.90923 0
M  V30 4694 C 442.053 1.7333 -0.875799 0
M  V30 4695 O 441.328 1.94215 0.10525 0
M  V30 4696 C 441.611 1.32543 -3.3482 0
M  V30 4697 C 441.464 0.287387 -4.48881 0
M  V30 4698 C 442.783 2.25114 -3.78169 0
M  V30 4699 H 439.902 0.247125 -0.694333 0
M  V30 4700 H 442.544 -0.0533149 -1.89925 0
M  V30 4701 H 440.694 1.95372 -3.35801 0
M  V30 4702 H 442.366 -0.341346 -4.60035 0
M  V30 4703 H 440.609 -0.39017 -4.32042 0
M  V30 4704 H 441.28 0.775393 -5.46527 0
M  V30 4705 H 443.756 1.723 -3.7875 0
M  V30 4706 H 442.632 2.66971 -4.79602 0
M  V30 4707 H 442.893 3.13092 -3.12131 0
M  V30 4708 N 441.952 1.55251 0.271103 0
M  V30 4709 C 443.198 1.76207 1.00394 0
M  V30 4710 C 443.531 0.562604 1.85872 0
M  V30 4711 O 442.806 -0.439785 1.89463 0
M  V30 4712 C 443.089 3.06828 1.8849 0
M  V30 4713 C 442.942 4.37134 1.05992 0
M  V30 4714 C 444.261 3.33503 2.87165 0
M  V30 4715 H 441.38 0.641086 0.363562 0
M  V30 4716 H 444.022 1.87982 0.276189 0
M  V30 4717 H 442.172 2.96921 2.5054 0
M  V30 4718 H 443.844 4.59001 0.459978 0
M  V30 4719 H 442.087 4.32275 0.363443 0
M  V30 4720 H 442.758 5.2486 1.70955 0
M  V30 4721 H 445.234 3.43215 2.3525 0
M  V30 4722 H 444.11 4.2616 3.45946 0
M  V30 4723 H 444.371 2.53235 3.62387 0
M  V30 4724 N 443.43 -0.535701 1.48216 0
M  V30 4725 C 444.678 -1.28928 1.55634 0
M  V30 4726 C 444.999 -1.93645 0.229514 0
M  V30 4727 O 444.269 -1.81038 -0.74846 0
M  V30 4728 H 442.849 -0.47884 0.573342 0
M  V30 4729 H 445.511 -0.623853 1.84646 0
M  V30 4730 H 444.607 -2.07157 2.33436 0
M  V30 4731 N 444.908 -1.36708 -0.784132 0
M  V30 4732 C 445.841 -1.25827 -1.90375 0
M  V30 4733 C 446.819 -0.141331 -1.61985 0
M  V30 4734 O 448.003 -0.313389 -1.85877 0
M  V30 4735 C 445.13 -0.942621 -3.25319 0
M  V30 4736 C 444.176 -2.07474 -3.72635 0
M  V30 4737 S 445.009 -3.69317 -3.8777 0
M  V30 4738 C 446.165 -3.39876 -5.25581 0
M  V30 4739 H 446.398 -2.20593 -1.99314 0
M  V30 4740 H 443.931 -1.22186 -0.943926 0
M  V30 4741 H 445.889 -0.767321 -4.03265 0
M  V30 4742 H 444.55 -0.0126566 -3.14097 0
M  V30 4743 H 443.743 -1.80858 -4.70432 0
M  V30 4744 H 443.345 -2.20953 -3.01754 0
M  V30 4745 H 445.637 -2.94097 -6.10339 0
M  V30 4746 H 446.58 -4.36956 -5.57203 0
M  V30 4747 H 446.988 -2.75098 -4.92931 0
M  V30 4748 N 446.386 1.0089 -1.21074 0
M  V30 4749 C 447.633 1.74607 -1.0256 0
M  V30 4750 C 447.961 1.89426 0.44136 0
M  V30 4751 O 447.216 1.42266 1.34384 0
M  V30 4752 C 447.515 3.16335 -1.66334 0
M  V30 4753 C 447.181 3.21474 -3.16173 0
M  V30 4754 C 445.843 3.22583 -3.57062 0
M  V30 4755 C 448.195 3.19025 -4.12156 0
M  V30 4756 C 445.523 3.18925 -4.92446 0
M  V30 4757 C 447.875 3.16909 -5.47496 0
M  V30 4758 C 446.539 3.16326 -5.87787 0
M  V30 4759 H 445.809 0.638933 -0.375294 0
M  V30 4760 H 448.456 1.18274 -1.50611 0
M  V30 4761 H 446.761 3.75876 -1.10566 0
M  V30 4762 H 448.458 3.72083 -1.49516 0
M  V30 4763 H 445.048 3.2135 -2.83605 0
M  V30 4764 H 449.232 3.17332 -3.81595 0
M  V30 4765 H 444.488 3.16809 -5.22917 0
M  V30 4766 H 448.662 3.13968 -6.21609 0
M  V30 4767 H 446.289 3.13246 -6.92662 0
M  V30 4768 N 447.864 1.01787 1.20321 0
M  V30 4769 C 449.113 0.703249 1.89043 0
M  V30 4770 C 449.426 -0.770445 1.79787 0
M  V30 4771 O 450.632 -1.19767 2.43656 0
M  V30 4772 C 449.088 1.20749 3.3904 0
M  V30 4773 C 448.696 2.70817 3.56878 0
M  V30 4774 C 450.44 0.968352 4.13308 0
M  V30 4775 C 448.347 3.14716 5.00708 0
M  V30 4776 H 447.277 0.259354 0.707991 0
M  V30 4777 H 449.928 1.23072 1.36108 0
M  V30 4778 H 448.31 0.607989 3.91305 0
M  V30 4779 H 449.484 3.36327 3.14993 0
M  V30 4780 H 447.799 2.92888 2.95983 0
M  V30 4781 H 450.396 1.27173 5.19356 0
M  V30 4782 H 450.739 -0.095149 4.16191 0
M  V30 4783 H 451.272 1.53129 3.67146 0
M  V30 4784 H 448.011 4.20347 5.02979 0
M  V30 4785 H 447.531 2.53927 5.43398 0
M  V30 4786 H 449.21 3.07426 5.69296 0
M  V30 4787 N 449.342 -1.36122 0.79427 0
M  V30 4788 C 450.272 -2.32551 0.210328 0
M  V30 4789 C 451.253 -1.56884 -0.657386 0
M  V30 4790 O 452.438 -1.85014 -0.590207 0
M  V30 4791 C 449.568 -3.41128 -0.651819 0
M  V30 4792 C 448.522 -4.27842 0.116395 0
M  V30 4793 C 447.848 -5.2763 -0.86666 0
M  V30 4794 C 449.148 -5.05647 1.30837 0
M  V30 4795 H 450.842 -2.81636 1.01594 0
M  V30 4796 H 448.388 -1.35407 0.489981 0
M  V30 4797 H 450.341 -4.07581 -1.07031 0
M  V30 4798 H 449.065 -2.90622 -1.49019 0
M  V30 4799 H 447.724 -3.62952 0.515915 0
M  V30 4800 H 447.372 -4.73395 -1.70019 0
M  V30 4801 H 447.072 -5.86514 -0.35705 0
M  V30 4802 H 448.596 -5.96955 -1.28361 0
M  V30 4803 H 450.01 -5.65113 0.965393 0
M  V30 4804 H 448.407 -5.73967 1.75161 0
M  V30 4805 H 449.477 -4.37006 2.10128 0
M  V30 4806 N 450.82 -0.546701 -1.47814 0
M  V30 4807 C 452.06 -0.0209604 -2.04389 0
M  V30 4808 C 452.424 1.29993 -1.413 0
M  V30 4809 O 453.625 1.91273 -1.8886 0
M  V30 4810 C 451.896 0.0812844 -3.57308 0
M  V30 4811 S 453.455 0.55467 -4.3528 0
M  V30 4812 H 450.273 -0.0200865 -0.710716 0
M  V30 4813 H 452.875 -0.731055 -1.81317 0
M  V30 4814 H 451.579 -0.884616 -4.00753 0
M  V30 4815 H 451.11 0.815253 -3.8486 0
M  V30 4816 H 453.125 1.81627 -4.61764 0
M  V30 4817 N 452.299 1.55045 -0.282633 0
M  V30 4818 C 453.545 2.0078 0.325436 0
M  V30 4819 C 453.9 1.1676 1.52921 0
M  V30 4820 O 453.193 0.231475 1.90197 0
M  V30 4821 C 453.387 3.49422 0.750938 0
M  V30 4822 C 453.216 4.47827 -0.410056 0
M  V30 4823 C 451.986 4.97288 -0.896239 0
M  V30 4824 C 454.184 4.98903 -1.24902 0
M  V30 4825 N 452.166 5.79508 -2.02591 0
M  V30 4826 C 453.537 5.78644 -2.22646 0
M  V30 4827 C 455.592 4.81126 -1.2815 0
M  V30 4828 C 454.295 6.42502 -3.23393 0
M  V30 4829 C 456.321 5.45789 -2.27745 0
M  V30 4830 C 455.683 6.25348 -3.24222 0
M  V30 4831 H 451.782 0.77747 0.08405 0
M  V30 4832 H 454.366 1.90369 -0.408368 0
M  V30 4833 H 452.537 3.60159 1.45395 0
M  V30 4834 H 454.269 3.81978 1.33698 0
M  V30 4835 H 451.024 4.71219 -0.474277 0
M  V30 4836 H 451.448 6.25308 -2.59459 0
M  V30 4837 H 456.09 4.19215 -0.549397 0
M  V30 4838 H 453.808 7.03558 -3.97533 0
M  V30 4839 H 457.394 5.33972 -2.31009 0
M  V30 4840 H 456.274 6.74498 -4.00027 0
M  V30 4841 N 453.777 0.010035 1.57597 0
M  V30 4842 C 454.707 -0.976857 2.12084 0
M  V30 4843 C 455.688 -1.35191 1.03235 0
M  V30 4844 O 456.873 -1.43389 1.3097 0
M  V30 4845 C 454.003 -2.26548 2.63236 0
M  V30 4846 C 452.957 -2.03175 3.76701 0
M  V30 4847 C 452.283 -3.38138 4.14206 0
M  V30 4848 C 453.583 -1.38625 5.03568 0
M  V30 4849 H 455.277 -0.523145 2.94794 0
M  V30 4850 H 452.823 -0.250195 1.4181 0
M  V30 4851 H 454.776 -2.95952 2.99984 0
M  V30 4852 H 453.5 -2.74051 1.77661 0
M  V30 4853 H 452.159 -1.36195 3.40362 0
M  V30 4854 H 451.807 -3.83363 3.25641 0
M  V30 4855 H 451.507 -3.23312 4.90656 0
M  V30 4856 H 453.031 -4.08841 4.53521 0
M  V30 4857 H 454.445 -1.98 5.38023 0
M  V30 4858 H 452.842 -1.34256 5.84889 0
M  V30 4859 H 453.912 -0.356722 4.83586 0
M  V30 4860 N 455.255 -1.55392 -0.262866 0
M  V30 4861 C 456.666 -1.67079 -0.833158 0
M  V30 4862 C 457.017 -0.604539 -1.86654 0
M  V30 4863 O 456.142 0.252138 -2.14926 0
M  V30 4864 C 456.737 -3.02891 -1.51797 0
M  V30 4865 C 455.296 -3.16571 -2.03617 0
M  V30 4866 C 454.443 -2.62909 -0.881701 0
M  V30 4867 H 457.394 -1.58652 -0.0389986 0
M  V30 4868 H 457.415 -2.96445 -2.38538 0
M  V30 4869 H 456.927 -3.80473 -0.765619 0
M  V30 4870 H 455.028 -2.43782 -2.81782 0
M  V30 4871 H 455.141 -4.23271 -2.24452 0
M  V30 4872 H 453.505 -2.20324 -1.27786 0
M  V30 4873 H 454.288 -3.43003 -0.14269 0
M  V30 4874 N 456.733 0.527833 -1.48498 0
M  V30 4875 C 457.98 1.28354 -1.56625 0
M  V30 4876 C 458.308 1.93 -0.241096 0
M  V30 4877 O 457.563 1.79967 0.768798 0
M  V30 4878 C 457.862 2.39275 -2.65485 0
M  V30 4879 C 457.528 1.92268 -4.07853 0
M  V30 4880 C 456.19 1.79166 -4.46602 0
M  V30 4881 C 458.542 1.56771 -4.97064 0
M  V30 4882 C 455.87 1.28905 -5.72364 0
M  V30 4883 C 458.222 1.07972 -6.23318 0
M  V30 4884 C 456.886 0.934887 -6.60921 0
M  V30 4885 H 456.156 0.469682 -0.573131 0
M  V30 4886 H 458.803 0.588781 -1.82224 0
M  V30 4887 H 457.108 3.1443 -2.33754 0
M  V30 4888 H 458.805 2.974 -2.68988 0
M  V30 4889 H 455.395 2.03417 -3.77252 0
M  V30 4890 H 459.579 1.65753 -4.67803 0
M  V30 4891 H 454.835 1.16381 -6.00221 0
M  V30 4892 H 459.009 0.795775 -6.91838 0
M  V30 4893 H 456.636 0.543231 -7.58257 0
M  V30 4894 N 458.211 1.37122 0.776871 0
M  V30 4895 C 459.458 1.32047 1.53524 0
M  V30 4896 C 459.786 -0.0965631 1.9426 0
M  V30 4897 O 459.041 -1.06866 1.63945 0
M  V30 4898 C 459.34 2.20068 2.81611 0
M  V30 4899 C 459.006 3.68423 2.59953 0
M  V30 4900 C 457.668 4.08854 2.53755 0
M  V30 4901 C 460.02 4.62431 2.40431 0
M  V30 4902 C 457.348 5.41417 2.26018 0
M  V30 4903 C 459.7 5.95225 2.14219 0
M  V30 4904 C 458.364 6.34767 2.06462 0
M  V30 4905 H 457.634 0.483196 0.561785 0
M  V30 4906 H 460.281 1.69284 0.895268 0
M  V30 4907 H 458.586 1.75809 3.50141 0
M  V30 4908 H 460.283 2.13458 3.39465 0
M  V30 4909 H 456.873 3.36354 2.65638 0
M  V30 4910 H 461.057 4.32057 2.44213 0
M  V30 4911 H 456.313 5.71022 2.18504 0
M  V30 4912 H 460.487 6.67626 1.98112 0
M  V30 4913 H 458.114 7.37413 1.84733 0
M  V30 4914 N 459.689 -1.00246 1.21608 0
M  V30 4915 C 460.938 -1.73476 1.02902 0
M  V30 4916 C 461.251 -1.90643 -0.437561 0
M  V30 4917 O 462.457 -2.61105 -0.74407 0
M  V30 4918 C 460.913 -3.12079 1.79261 0
M  V30 4919 C 460.521 -3.02877 3.30106 0
M  V30 4920 C 462.265 -3.89421 1.68972 0
M  V30 4921 C 460.172 -4.36575 3.98944 0
M  V30 4922 H 459.102 -0.650408 0.381425 0
M  V30 4923 H 461.753 -1.11985 1.45367 0
M  V30 4924 H 460.135 -3.74196 1.2959 0
M  V30 4925 H 461.309 -2.49983 3.87098 0
M  V30 4926 H 459.624 -2.39022 3.40965 0
M  V30 4927 H 462.221 -4.88362 2.17731 0
M  V30 4928 H 462.564 -4.1122 0.648397 0
M  V30 4929 H 463.097 -3.33963 2.16133 0
M  V30 4930 H 459.836 -4.19978 5.03288 0
M  V30 4931 H 459.356 -4.8942 3.4674 0
M  V30 4932 H 461.035 -5.05364 4.04 0
M  V30 4933 N 461.167 -1.02423 -1.1978 0
M  V30 4934 C 462.13 -0.605703 -2.21052 0
M  V30 4935 C 463.13 0.328209 -1.57415 0
M  V30 4936 O 464.32 0.115853 -1.73814 0
M  V30 4937 C 461.452 0.114366 -3.40708 0
M  V30 4938 H 462.645 -1.5017 -2.59594 0
M  V30 4939 H 460.198 -0.814888 -1.33376 0
M  V30 4940 H 460.933 1.02492 -3.07678 0
M  V30 4941 H 460.718 -0.556641 -3.88129 0
M  V30 4942 H 462.208 0.394272 -4.15735 0
M  V30 4943 N 462.645 1.35699 -0.801477 0
M  V30 4944 C 463.575 2.32436 -0.222658 0
M  V30 4945 C 464.556 1.5723 0.649057 0
M  V30 4946 O 465.741 1.85324 0.580387 0
M  V30 4947 C 462.871 3.41469 0.633719 0
M  V30 4948 C 461.825 4.27774 -0.139083 0
M  V30 4949 C 461.151 5.28082 0.838666 0
M  V30 4950 C 462.451 5.04946 -1.33517 0
M  V30 4951 H 464.145 2.81094 -1.03086 0
M  V30 4952 H 461.691 1.35146 -0.497155 0
M  V30 4953 H 463.644 4.08143 1.04868 0
M  V30 4954 H 462.368 2.91408 1.47475 0
M  V30 4955 H 461.027 3.62673 -0.535156 0
M  V30 4956 H 460.675 4.7429 1.67506 0
M  V30 4957 H 460.375 5.86695 0.32594 0
M  V30 4958 H 461.899 5.97628 1.25194 0
M  V30 4959 H 463.313 5.64593 -0.995349 0
M  V30 4960 H 461.71 5.7303 -1.78202 0
M  V30 4961 H 462.78 4.35886 -2.12442 0
M  V30 4962 N 464.123 0.554532 1.47522 0
M  V30 4963 C 465.534 0.120446 1.86311 0
M  V30 4964 C 465.885 -1.30904 1.46145 0
M  V30 4965 O 465.01 -1.98434 0.863294 0
M  V30 4966 C 465.605 0.211808 3.38137 0
M  V30 4967 C 464.164 -0.167224 3.76028 0
M  V30 4968 C 463.311 0.560576 2.71575 0
M  V30 4969 H 466.262 0.764408 1.39077 0
M  V30 4970 H 466.283 -0.570275 3.76202 0
M  V30 4971 H 465.795 1.25232 3.6734 0
M  V30 4972 H 463.896 -1.20894 3.52442 0
M  V30 4973 H 464.009 0.189473 4.78725 0
M  V30 4974 H 462.373 0.00396836 2.547 0
M  V30 4975 H 463.156 1.60219 3.0362 0
M  V30 4976 N 465.601 -1.54893 0.290851 0
M  V30 4977 C 466.531 -2.26103 -0.583084 0
M  V30 4978 C 467.512 -1.25684 -1.14619 0
M  V30 4979 O 468.697 -1.54436 -1.17741 0
M  V30 4980 C 465.827 -2.99409 -1.75987 0
M  V30 4981 C 464.781 -4.0689 -1.32758 0
M  V30 4982 C 464.107 -4.67856 -2.58872 0
M  V30 4983 C 465.407 -5.20215 -0.46624 0
M  V30 4984 H 467.101 -2.99398 0.0108214 0
M  V30 4985 H 464.647 -1.43998 0.00664468 0
M  V30 4986 H 466.6 -3.47943 -2.37727 0
M  V30 4987 H 465.324 -2.23675 -2.37985 0
M  V30 4988 H 463.983 -3.59191 -0.733299 0
M  V30 4989 H 463.631 -3.88772 -3.19163 0
M  V30 4990 H 463.331 -5.40438 -2.30653 0
M  V30 4991 H 464.855 -5.19147 -3.21433 0
M  V30 4992 H 466.269 -5.64704 -0.989047 0
M  V30 4993 H 464.666 -5.99455 -0.27826 0
M  V30 4994 H 465.736 -4.82198 0.511173 0
M  V30 4995 N 467.08 -0.0183926 -1.57589 0
M  V30 4996 C 468.328 0.661253 -1.90976 0
M  V30 4997 C 468.649 1.73281 -0.894353 0
M  V30 4998 O 467.919 1.9579 0.0656788 0
M  V30 4999 H 466.499 0.247233 -0.704901 0
M  V30 5000 H 469.161 -0.0636639 -1.94796 0
M  V30 5001 H 468.257 1.12083 -2.9128 0
M  V30 5002 N 468.558 1.5553 0.254621 0
M  V30 5003 C 469.783 1.81383 1.00573 0
M  V30 5004 C 470.208 0.594419 1.78461 0
M  V30 5005 O 469.566 -0.456403 1.75461 0
M  V30 5006 C 469.614 3.04892 1.92545 0
M  V30 5007 O 468.718 2.81266 3.01601 0
M  V30 5008 H 468.059 0.598969 0.286587 0
M  V30 5009 H 470.589 2.02703 0.277952 0
M  V30 5010 H 470.599 3.34119 2.34155 0
M  V30 5011 H 469.274 3.93287 1.3527 0
M  V30 5012 H 467.851 2.63185 2.64174 0
M  V30 5013 N 470.036 -0.519951 1.48776 0
M  V30 5014 C 470.966 -1.63253 1.66945 0
M  V30 5015 C 471.947 -1.62014 0.518224 0
M  V30 5016 O 473.132 -1.79053 0.751919 0
M  V30 5017 C 470.262 -3.0181 1.71836 0
M  V30 5018 C 469.216 -3.17911 2.8656 0
M  V30 5019 C 468.542 -4.5763 2.76548 0
M  V30 5020 C 469.842 -2.99729 4.27738 0
M  V30 5021 H 471.536 -1.48302 2.6009 0
M  V30 5022 H 469.082 -0.712026 1.25165 0
M  V30 5023 H 471.035 -3.79525 1.83135 0
M  V30 5024 H 469.759 -3.17806 0.752775 0
M  V30 5025 H 468.418 -2.42616 2.74833 0
M  V30 5026 H 468.066 -4.70476 1.77937 0
M  V30 5027 H 467.766 -4.69346 3.53536 0
M  V30 5028 H 469.29 -5.37431 2.89828 0
M  V30 5029 H 470.704 -3.67228 4.40246 0
M  V30 5030 H 469.101 -3.22932 5.05801 0
M  V30 5031 H 470.171 -1.96047 4.43502 0
M  V30 5032 N 471.514 -1.37532 -0.769588 0
M  V30 5033 C 472.761 -1.3286 -1.52822 0
M  V30 5034 C 473.089 0.0862597 -1.94309 0
M  V30 5035 O 472.344 1.05995 -1.6451 0
M  V30 5036 C 472.643 -2.21558 -2.8044 0
M  V30 5037 C 472.309 -3.69796 -2.57996 0
M  V30 5038 C 470.971 -4.10194 -2.51583 0
M  V30 5039 C 473.323 -4.63699 -2.37976 0
M  V30 5040 C 470.651 -5.42608 -2.23144 0
M  V30 5041 C 473.003 -5.96353 -2.1106 0
M  V30 5042 C 471.667 -6.35853 -2.03093 0
M  V30 5043 H 470.937 -0.486168 -0.559215 0
M  V30 5044 H 473.584 -1.69757 -0.886277 0
M  V30 5045 H 471.889 -1.77663 -3.49204 0
M  V30 5046 H 473.586 -2.15256 -3.38328 0
M  V30 5047 H 470.176 -3.37759 -2.63851 0
M  V30 5048 H 474.36 -4.33346 -2.41919 0
M  V30 5049 H 469.616 -5.72173 -2.15472 0
M  V30 5050 H 473.79 -6.68667 -1.94568 0
M  V30 5051 H 471.417 -7.38382 -1.8082 0
M  V30 5052 N 472.992 0.995999 -1.22138 0
M  V30 5053 C 474.217 1.77601 -1.0711 0
M  V30 5054 C 474.642 1.84339 0.374264 0
M  V30 5055 O 474 1.29359 1.27028 0
M  V30 5056 C 474.048 3.18897 -1.68336 0
M  V30 5057 O 473.152 4.01663 -0.934928 0
M  V30 5058 H 472.493 0.547011 -0.376397 0
M  V30 5059 H 475.023 1.25137 -1.6187 0
M  V30 5060 H 475.033 3.69539 -1.72931 0
M  V30 5061 H 473.708 3.13308 -2.73516 0
M  V30 5062 H 472.285 3.60204 -0.964751 0
M  V30 5063 N 474.47 1.03057 1.19235 0
M  V30 5064 C 475.698 0.747697 1.92917 0
M  V30 5065 C 476.113 -0.69372 1.75593 0
M  V30 5066 O 475.47 -1.47191 1.07894 0
M  V30 5067 C 475.521 1.09159 3.44625 0
M  V30 5068 O 475.242 2.47641 3.61394 0
M  V30 5069 C 476.743 0.831763 4.35427 0
M  V30 5070 H 473.963 0.273453 0.612751 0
M  V30 5071 H 476.507 1.37552 1.51327 0
M  V30 5072 H 474.662 0.508919 3.84043 0
M  V30 5073 H 475.076 2.60499 4.55237 0
M  V30 5074 H 476.55 1.12233 5.4047 0
M  V30 5075 H 477.027 -0.233769 4.38577 0
M  V30 5076 H 477.633 1.39725 4.01693 0
M  V30 5077 N 475.948 -1.35272 0.808662 0
M  V30 5078 C 476.878 -2.32315 0.234981 0
M  V30 5079 C 477.859 -1.57572 -0.64071 0
M  V30 5080 O 479.044 -1.8563 -0.570551 0
M  V30 5081 C 476.174 -3.41801 -0.615601 0
M  V30 5082 C 475.128 -4.27694 0.161767 0
M  V30 5083 C 474.454 -5.28519 -0.810649 0
M  V30 5084 C 475.754 -5.04231 1.36193 0
M  V30 5085 H 477.448 -2.80543 1.04575 0
M  V30 5086 H 474.994 -1.3488 0.504315 0
M  V30 5087 H 476.947 -4.08693 -1.02702 0
M  V30 5088 H 475.671 -2.92186 -1.45928 0
M  V30 5089 H 474.33 -3.62384 0.554382 0
M  V30 5090 H 473.978 -4.75171 -1.64988 0
M  V30 5091 H 473.678 -5.8686 -0.294822 0
M  V30 5092 H 475.202 -5.98283 -1.22023 0
M  V30 5093 H 476.616 -5.64058 1.02528 0
M  V30 5094 H 475.013 -5.72077 1.81239 0
M  V30 5095 H 476.083 -4.34753 2.14751 0
M  V30 5096 N 477.426 -0.562348 -1.47226 0
M  V30 5097 C 478.373 0.182461 -2.30078 0
M  V30 5098 C 479.343 0.903503 -1.39377 0
M  V30 5099 O 480.528 0.898188 -1.68337 0
M  V30 5100 C 477.668 1.20322 -3.23445 0
M  V30 5101 C 476.781 0.487717 -4.29238 0
M  V30 5102 C 475.916 1.49422 -5.09752 0
M  V30 5103 C 474.955 0.763976 -6.07314 0
M  V30 5104 N 474.092 1.71755 -6.80768 0
M  V30 5105 H 478.932 -0.530169 -2.93246 0
M  V30 5106 H 476.469 -0.273276 -1.44539 0
M  V30 5107 H 478.427 1.80768 -3.76004 0
M  V30 5108 H 477.057 1.88382 -2.6213 0
M  V30 5109 H 476.109 -0.231374 -3.79696 0
M  V30 5110 H 477.421 -0.0841003 -4.98729 0
M  V30 5111 H 476.575 2.17206 -5.66486 0
M  V30 5112 H 475.314 2.09995 -4.40174 0
M  V30 5113 H 474.319 0.0722344 -5.49753 0
M  V30 5114 H 475.544 0.16391 -6.78902 0
M  V30 5115 H 473.49 2.31177 -6.13916 0
M  V30 5116 H 473.407 1.19802 -7.46447 0
M  V30 5117 H 474.675 2.38638 -7.42073 0
M  V30 5118 N 478.904 1.54736 -0.299062 0
M  V30 5119 C 480.315 1.8569 0.193971 0
M  V30 5120 C 480.666 1.22101 1.53577 0
M  V30 5121 O 479.791 0.51799 2.10109 0
M  V30 5122 C 480.386 3.36895 0.358733 0
M  V30 5123 C 478.945 3.67887 0.795986 0
M  V30 5124 C 478.092 2.77131 -0.096807 0
M  V30 5125 H 481.043 1.49934 -0.520134 0
M  V30 5126 H 481.064 3.61294 1.19361 0
M  V30 5127 H 480.576 3.83148 -0.617998 0
M  V30 5128 H 478.677 3.27151 1.78334 0
M  V30 5129 H 478.79 4.75114 0.616718 0
M  V30 5130 H 477.154 2.51153 0.423581 0
M  V30 5131 H 477.937 3.26204 -1.06986 0
M  V30 5132 N 480.382 0.0267497 1.57577 0
M  V30 5133 C 481.793 -0.512413 1.79531 0
M  V30 5134 C 482.144 -1.72391 0.936791 0
M  V30 5135 O 481.269 -2.15903 0.146543 0
M  V30 5136 C 481.864 -0.936378 3.25603 0
M  V30 5137 C 480.423 -1.42067 3.4856 0
M  V30 5138 C 479.57 -0.384278 2.74624 0
M  V30 5139 H 482.521 0.252797 1.56674 0
M  V30 5140 H 482.542 -1.80088 3.35184 0
M  V30 5141 H 482.054 -0.0544332 3.88062 0
M  V30 5142 H 480.155 -2.32262 2.9135 0
M  V30 5143 H 480.268 -1.42968 4.57271 0
M  V30 5144 H 478.632 -0.851855 2.40032 0
M  V30 5145 H 479.415 0.489159 3.39797 0
M  V30 5146 N 481.861 -1.55662 -0.24637 0
M  V30 5147 C 483.138 -1.68272 -0.997198 0
M  V30 5148 C 483.518 -0.566785 -2.03349 0
M  V30 5149 O 482.866 0.429688 -2.24424 0
M  V30 5150 C 483.076 -3.08594 -1.63006 0
M  V30 5151 C 484.424 -3.6721 -2.13171 0
M  V30 5152 O 485.448 -3.11397 -1.72946 0
M  V30 5153 O 484.307 -4.65054 -2.87031 0
M  V30 5154 H 481.401 -0.684429 -0.464205 0
M  V30 5155 H 483.947 -1.67993 -0.240114 0
M  V30 5156 H 482.719 -3.81264 -0.880527 0
M  V30 5157 H 482.342 -3.12886 -2.45333 0
M  V30 5158 N 483.339 0.512053 -1.4905 0
M  V30 5159 C 484.302 1.59704 -1.64399 0
M  V30 5160 C 485.302 1.52285 -0.516317 0
M  V30 5161 O 486.492 1.55635 -0.782527 0
M  V30 5162 C 483.624 2.9935 -1.63102 0
M  V30 5163 H 484.817 1.47428 -2.61161 0
M  V30 5164 H 482.37 0.735469 -1.37915 0
M  V30 5165 H 483.105 3.17116 -0.678836 0
M  V30 5166 H 482.89 3.06144 -2.44986 0
M  V30 5167 H 484.38 3.782 -1.77072 0
M  V30 5168 N 484.817 1.37938 0.762283 0
M  V30 5169 C 486.063 1.33866 1.52341 0
M  V30 5170 C 486.396 -0.0738961 1.94059 0
M  V30 5171 O 485.671 -1.03326 1.64785 0
M  V30 5172 C 485.954 2.28644 2.78197 0
M  V30 5173 C 485.807 3.78722 2.42672 0
M  V30 5174 C 487.126 2.21702 3.80179 0
M  V30 5175 H 484.245 0.487593 0.55265 0
M  V30 5176 H 486.887 1.68717 0.873767 0
M  V30 5177 H 485.037 1.99055 3.33631 0
M  V30 5178 H 486.709 4.18948 1.93081 0
M  V30 5179 H 484.952 3.96827 1.75244 0
M  V30 5180 H 485.623 4.40486 3.3268 0
M  V30 5181 H 488.099 2.47805 3.34263 0
M  V30 5182 H 486.975 2.90143 4.65949 0
M  V30 5183 H 487.236 1.21301 4.25133 0
M  V30 5184 N 486.295 -0.989507 1.22664 0
M  V30 5185 C 487.542 -1.72953 1.05325 0
M  V30 5186 C 487.87 -1.90104 -0.411168 0
M  V30 5187 O 487.125 -1.44386 -1.32103 0
M  V30 5188 C 487.424 -3.13649 1.71345 0
M  V30 5189 C 487.09 -3.16403 3.21248 0
M  V30 5190 C 485.752 -3.16862 3.62149 0
M  V30 5191 C 488.104 -3.12428 4.17179 0
M  V30 5192 C 485.432 -3.11051 4.97458 0
M  V30 5193 C 487.784 -3.08159 5.52468 0
M  V30 5194 C 486.448 -3.06935 5.92746 0
M  V30 5195 H 485.718 -0.632881 0.385412 0
M  V30 5196 H 488.365 -1.15863 1.52473 0
M  V30 5197 H 486.67 -3.74069 1.16532 0
M  V30 5198 H 488.367 -3.69658 1.55416 0
M  V30 5199 H 484.957 -3.16798 2.88682 0
M  V30 5200 H 489.141 -3.11221 3.86595 0
M  V30 5201 H 484.397 -3.0845 5.27891 0
M  V30 5202 H 488.571 -3.04039 6.26525 0
M  V30 5203 H 486.198 -3.02186 6.97558 0
M  V30 5204 N 487.773 -1.03688 -1.18687 0
M  V30 5205 C 488.72 -0.624624 -2.22187 0
M  V30 5206 C 489.69 0.365636 -1.62026 0
M  V30 5207 O 490.875 0.260481 -1.89014 0
M  V30 5208 C 488.015 0.0101738 -3.45099 0
M  V30 5209 C 487.128 -1.02709 -4.19613 0
M  V30 5210 C 486.263 -0.361213 -5.2997 0
M  V30 5211 C 485.302 -1.38384 -5.96252 0
M  V30 5212 N 484.439 -0.743196 -6.98155 0
M  V30 5213 H 489.279 -1.51176 -2.56807 0
M  V30 5214 H 486.816 -0.75636 -1.26165 0
M  V30 5215 H 488.774 0.395528 -4.15321 0
M  V30 5216 H 487.404 0.860848 -3.1111 0
M  V30 5217 H 486.456 -1.53043 -3.48256 0
M  V30 5218 H 487.768 -1.80398 -4.65036 0
M  V30 5219 H 486.922 0.0785537 -6.06649 0
M  V30 5220 H 485.661 0.447799 -4.8564 0
M  V30 5221 H 484.666 -1.83378 -5.18317 0
M  V30 5222 H 485.891 -2.19448 -6.42666 0
M  V30 5223 H 483.837 0.0455789 -6.55984 0
M  V30 5224 H 483.754 -1.45784 -7.41811 0
M  V30 5225 H 485.022 -0.327698 -7.78811 0
M  V30 5226 N 489.251 1.34841 -0.815825 0
M  V30 5227 C 490.497 1.98793 -0.401129 0
M  V30 5228 C 490.83 1.64548 1.03139 0
M  V30 5229 O 490.105 0.913487 1.71714 0
M  V30 5230 C 490.388 3.55143 -0.595409 0
M  V30 5231 C 490.241 3.99155 -2.07352 0
M  V30 5232 C 491.56 4.40092 -0.0268823 0
M  V30 5233 H 488.679 0.722146 -0.14722 0
M  V30 5234 H 491.321 1.59847 -1.02707 0
M  V30 5235 H 489.471 3.8845 -0.0625779 0
M  V30 5236 H 491.143 3.76216 -2.66945 0
M  V30 5237 H 489.386 3.49726 -2.56659 0
M  V30 5238 H 490.057 5.07971 -2.1603 0
M  V30 5239 H 492.533 4.13298 -0.482042 0
M  V30 5240 H 491.409 5.48562 -0.19267 0
M  V30 5241 H 491.67 4.29016 1.06759 0
M  V30 5242 N 490.729 0.570148 1.46925 0
M  V30 5243 C 491.975 0.0510284 2.02736 0
M  V30 5244 C 492.308 -1.3006 1.44215 0
M  V30 5245 O 491.583 -1.84932 0.602521 0
M  V30 5246 C 491.866 -0.028215 3.60089 0
M  V30 5247 C 491.719 1.35142 4.29018 0
M  V30 5248 C 493.038 -0.735181 4.33916 0
M  V30 5249 H 490.157 0.0200178 0.736728 0
M  V30 5250 H 492.799 0.73493 1.75211 0
M  V30 5251 H 490.949 -0.610648 3.83671 0
M  V30 5252 H 492.621 1.97806 4.16738 0
M  V30 5253 H 490.864 1.9226 3.88868 0
M  V30 5254 H 491.535 1.24857 5.37694 0
M  V30 5255 H 494.011 -0.240519 4.15404 0
M  V30 5256 H 492.887 -0.759622 5.43618 0
M  V30 5257 H 493.148 -1.79397 4.04066 0
M  V30 5258 N 492.207 -1.54576 0.307264 0
M  V30 5259 C 493.454 -2.00263 -0.300167 0
M  V30 5260 C 493.782 -1.19561 -1.53413 0
M  V30 5261 O 493.037 -0.261487 -1.93945 0
M  V30 5262 C 493.336 -3.50572 -0.695253 0
M  V30 5263 C 493.002 -4.48771 0.437679 0
M  V30 5264 C 491.664 -4.7534 0.748681 0
M  V30 5265 C 494.016 -5.0721 1.19949 0
M  V30 5266 C 491.344 -5.5761 1.8245 0
M  V30 5267 C 493.696 -5.90651 2.26527 0
M  V30 5268 C 492.36 -6.15528 2.58227 0
M  V30 5269 H 491.63 -0.732814 -0.109839 0
M  V30 5270 H 494.277 -1.86664 0.427661 0
M  V30 5271 H 492.582 -3.61814 -1.50326 0
M  V30 5272 H 494.279 -3.83352 -1.17653 0
M  V30 5273 H 490.869 -4.282 0.185187 0
M  V30 5274 H 495.053 -4.86679 0.972474 0
M  V30 5275 H 490.309 -5.75121 2.07476 0
M  V30 5276 H 494.483 -6.34957 2.86011 0
M  V30 5277 H 492.11 -6.79066 3.4172 0
M  V30 5278 N 493.685 -0.035106 -1.57561 0
M  V30 5279 C 494.931 0.637362 -1.93156 0
M  V30 5280 C 495.286 1.69391 -0.912392 0
M  V30 5281 O 494.579 1.91469 0.070735 0
M  V30 5282 C 494.773 1.29149 -3.3325 0
M  V30 5283 C 494.602 0.29983 -4.48699 0
M  V30 5284 C 493.372 -0.102454 -5.05196 0
M  V30 5285 C 495.57 -0.448297 -5.12342 0
M  V30 5286 N 493.552 -1.08866 -6.0417 0
M  V30 5287 C 494.923 -1.28807 -6.06472 0
M  V30 5288 C 496.978 -0.508351 -4.95298 0
M  V30 5289 C 495.681 -2.18248 -6.85391 0
M  V30 5290 C 497.707 -1.39013 -5.7483 0
M  V30 5291 C 497.069 -2.21766 -6.6858 0
M  V30 5292 H 493.168 0.205358 -0.754554 0
M  V30 5293 H 495.752 -0.103682 -1.94424 0
M  V30 5294 H 493.923 2.00264 -3.3279 0
M  V30 5295 H 495.655 1.92147 -3.56177 0
M  V30 5296 H 492.41 0.273223 -4.72811 0
M  V30 5297 H 492.834 -1.57817 -6.58348 0
M  V30 5298 H 497.476 0.117197 -4.22638 0
M  V30 5299 H 495.194 -2.81855 -7.57353 0
M  V30 5300 H 498.78 -1.44096 -5.63673 0
M  V30 5301 H 497.66 -2.88892 -7.29048 0
M  V30 5302 N 495.163 1.55791 0.238111 0
M  V30 5303 C 496.093 1.94068 1.29846 0
M  V30 5304 C 497.074 0.806726 1.49753 0
M  V30 5305 O 498.259 1.06772 1.62214 0
M  V30 5306 C 495.389 2.24302 2.65153 0
M  V30 5307 C 494.343 3.40032 2.59927 0
M  V30 5308 C 493.669 3.55829 3.99111 0
M  V30 5309 C 494.969 4.75476 2.16148 0
M  V30 5310 H 496.663 2.82887 0.980563 0
M  V30 5311 H 494.209 1.36105 0.470253 0
M  V30 5312 H 496.162 2.4967 3.39475 0
M  V30 5313 H 494.886 1.32318 2.98596 0
M  V30 5314 H 493.545 3.14687 1.88063 0
M  V30 5315 H 493.193 2.6125 4.29834 0
M  V30 5316 H 492.893 4.3366 3.96501 0
M  V30 5317 H 494.417 3.83528 4.7512 0
M  V30 5318 H 495.831 5.00158 2.80205 0
M  V30 5319 H 494.228 5.56472 2.24631 0
M  V30 5320 H 495.298 4.71946 1.11333 0
M  V30 5321 N 496.642 -0.504142 1.49319 0
M  V30 5322 C 497.89 -1.25598 1.58334 0
M  V30 5323 C 498.211 -1.93114 0.270538 0
M  V30 5324 O 497.481 -1.82585 -0.709891 0
M  V30 5325 H 496.061 -0.466571 0.58337 0
M  V30 5326 H 498.723 -0.584547 1.85928 0
M  V30 5327 H 497.819 -2.02159 2.37778 0
M  V30 5328 N 498.12 -1.38341 -0.754957 0
M  V30 5329 C 499.35 -1.37504 -1.54195 0
M  V30 5330 C 499.758 0.0373787 -1.89163 0
M  V30 5331 O 499.101 1.01402 -1.53178 0
M  V30 5332 C 499.163 -2.16488 -2.87008 0
M  V30 5333 C 498.827 -3.65311 -2.74585 0
M  V30 5334 C 499.824 -4.58834 -2.44474 0
M  V30 5335 C 497.509 -4.08649 -2.9208 0
M  V30 5336 C 499.503 -5.93675 -2.32011 0
M  V30 5337 C 497.19 -5.43571 -2.79237 0
M  V30 5338 C 498.188 -6.35898 -2.49245 0
M  V30 5339 O 497.876 -7.68338 -2.36458 0
M  V30 5340 H 497.608 -0.472159 -0.483779 0
M  V30 5341 H 500.162 -1.82515 -0.94221 0
M  V30 5342 H 498.392 -1.66194 -3.49166 0
M  V30 5343 H 500.081 -2.08076 -3.4851 0
M  V30 5344 H 500.847 -4.26657 -2.30627 0
M  V30 5345 H 496.726 -3.37134 -3.14422 0
M  V30 5346 H 500.27 -6.65706 -2.08522 0
M  V30 5347 H 496.167 -5.75345 -2.92657 0
M  V30 5348 H 496.935 -7.78845 -2.5168 0
M  V30 5349 N 499.598 0.982988 -1.23187 0
M  V30 5350 C 500.845 1.72392 -1.06241 0
M  V30 5351 C 501.173 1.9032 0.40108 0
M  V30 5352 O 500.428 1.45084 1.31336 0
M  V30 5353 C 500.727 3.12736 -1.73006 0
M  V30 5354 C 500.393 3.14695 -3.22921 0
M  V30 5355 C 499.055 3.14937 -3.63824 0
M  V30 5356 C 501.407 3.10211 -4.1883 0
M  V30 5357 C 498.735 3.08408 -4.99101 0
M  V30 5358 C 501.087 3.05224 -5.54095 0
M  V30 5359 C 499.751 3.03787 -5.94365 0
M  V30 5360 H 499.021 0.630829 -0.388762 0
M  V30 5361 H 501.668 1.15053 -1.53085 0
M  V30 5362 H 499.973 3.73446 -1.18514 0
M  V30 5363 H 501.67 3.68828 -1.57374 0
M  V30 5364 H 498.26 3.15262 -2.90358 0
M  V30 5365 H 502.444 3.09166 -3.8824 0
M  V30 5366 H 497.7 3.05646 -5.29519 0
M  V30 5367 H 501.874 3.00712 -6.28128 0
M  V30 5368 H 499.501 2.98483 -6.99151 0
M  V30 5369 N 501.076 1.04316 1.18135 0
M  V30 5370 C 502.024 0.630175 2.23901 0
M  V30 5371 C 503.018 -0.344254 1.65865 0
M  V30 5372 O 504.224 -0.211273 1.78756 0
M  V30 5373 H 500.599 0.185578 0.728742 0
M  V30 5374 H 502.57 1.53253 2.56039 0
M  V30 5375 C 501.319 0.011666 3.47698 0
M  V30 5376 H 500.642 0.752526 3.92654 0
M  V30 5377 H 502.082 -0.240046 4.2332 0
M  V30 5378 C 500.541 -1.23913 3.13285 0
M  V30 5379 O 501.071 -2.32959 3.27251 0
M  V30 5380 N 499.277 -1.13338 2.67587 0
M  V30 5381 H 498.824 -0.246006 2.56423 0
M  V30 5382 H 498.782 -1.97116 2.44934 0
M  V30 5383 N 502.554 -1.34406 0.822964 0
M  V30 5384 C 503.779 -2.0304 0.423034 0
M  V30 5385 C 504.204 -1.61568 -0.963196 0
M  V30 5386 O 503.562 -0.800339 -1.62678 0
M  V30 5387 C 503.61 -3.56636 0.53321 0
M  V30 5388 O 502.714 -4.09971 -0.446939 0
M  V30 5389 H 502.055 -0.64075 0.174171 0
M  V30 5390 H 504.585 -1.71653 1.11339 0
M  V30 5391 H 504.595 -4.05945 0.408991 0
M  V30 5392 H 503.27 -3.86168 1.54425 0
M  V30 5393 H 501.847 -3.71835 -0.281601 0
M  V30 5394 N 504.032 -0.577932 -1.46621 0
M  V30 5395 C 505.272 -0.0643097 -2.04299 0
M  V30 5396 C 505.636 1.26967 -1.44026 0
M  V30 5397 O 506.837 1.87224 -1.92875 0
M  V30 5398 C 505.108 0.00547588 -3.574 0
M  V30 5399 S 506.667 0.462216 -4.36359 0
M  V30 5400 H 503.485 -0.0351573 -0.71013 0
M  V30 5401 H 506.087 -0.76935 -1.79725 0
M  V30 5402 H 504.791 -0.969423 -3.98786 0
M  V30 5403 H 504.322 0.733435 -3.86503 0
M  V30 5404 H 506.337 1.71791 -4.65513 0
M  V30 5405 N 505.51 1.54411 -0.315457 0
M  V30 5406 C 506.44 2.27002 0.547039 0
M  V30 5407 C 507.421 1.27492 1.12605 0
M  V30 5408 O 508.606 1.5629 1.15269 0
M  V30 5409 C 505.736 3.02171 1.71201 0
M  V30 5410 C 504.69 4.0895 1.26268 0
M  V30 5411 C 504.016 4.71915 2.51396 0
M  V30 5412 C 505.316 5.20891 0.383419 0
M  V30 5413 H 507.01 2.99343 -0.0584517 0
M  V30 5414 H 504.556 1.4397 -0.0295527 0
M  V30 5415 H 506.509 3.51681 2.32161 0
M  V30 5416 H 505.233 2.27433 2.34397 0
M  V30 5417 H 503.892 3.60312 0.676062 0
M  V30 5418 H 503.54 3.93801 3.12937 0
M  V30 5419 H 503.24 5.44039 2.22026 0
M  V30 5420 H 504.764 5.24195 3.13133 0
M  V30 5421 H 506.178 5.66206 0.899082 0
M  V30 5422 H 504.575 5.99821 0.182857 0
M  V30 5423 H 505.645 4.81324 -0.587821 0
M  V30 5424 N 506.988 0.0434614 1.5754 0
M  V30 5425 C 507.936 -0.951465 2.1225 0
M  V30 5426 C 508.93 -1.3274 1.05245 0
M  V30 5427 O 510.136 -1.30795 1.23663 0
M  V30 5428 H 506.511 -0.324667 0.678303 0
M  V30 5429 H 508.482 -0.464855 2.94757 0
M  V30 5430 C 507.231 -2.21972 2.67626 0
M  V30 5431 H 506.554 -1.93923 3.4962 0
M  V30 5432 H 507.994 -2.89765 3.09536 0
M  V30 5433 C 506.453 -2.95919 1.61038 0
M  V30 5434 O 506.983 -3.8857 1.01862 0
M  V30 5435 N 505.189 -2.58511 1.32741 0
M  V30 5436 H 504.736 -1.83244 1.81051 0
M  V30 5437 H 504.694 -3.08296 0.616531 0
M  V30 5438 N 508.466 -1.55915 -0.229846 0
M  V30 5439 C 509.877 -1.68809 -0.797531 0
M  V30 5440 C 510.228 -0.643995 -1.8533 0
M  V30 5441 O 509.353 0.206492 -2.15413 0
M  V30 5442 C 509.948 -3.06043 -1.45338 0
M  V30 5443 C 508.507 -3.20819 -1.96856 0
M  V30 5444 C 507.654 -2.6472 -0.825736 0
M  V30 5445 H 510.605 -1.58699 -0.00533733 0
M  V30 5446 H 510.626 -3.01438 -2.32196 0
M  V30 5447 H 510.138 -3.82012 -0.684743 0
M  V30 5448 H 508.239 -2.49704 -2.76548 0
M  V30 5449 H 508.352 -4.27937 -2.15423 0
M  V30 5450 H 506.716 -2.22985 -1.23084 0
M  V30 5451 H 507.499 -3.43229 -0.0699019 0
M  V30 5452 N 509.944 0.496216 -1.49584 0
M  V30 5453 C 511.193 1.24668 -1.58558 0
M  V30 5454 C 511.506 1.9359 -0.279703 0
M  V30 5455 O 512.712 2.70365 -0.248048 0
M  V30 5456 C 511.168 2.26388 -2.79779 0
M  V30 5457 C 510.776 1.63384 -4.17145 0
M  V30 5458 C 512.52 3.02233 -2.98086 0
M  V30 5459 C 510.427 2.63243 -5.29582 0
M  V30 5460 H 509.357 0.468995 -0.590389 0
M  V30 5461 H 512.008 0.519985 -1.75978 0
M  V30 5462 H 510.39 3.02241 -2.55863 0
M  V30 5463 H 511.564 0.93491 -4.51216 0
M  V30 5464 H 509.879 0.999121 -4.04236 0
M  V30 5465 H 512.476 3.76919 -3.79257 0
M  V30 5466 H 512.819 3.60132 -2.08831 0
M  V30 5467 H 513.352 2.33495 -3.22063 0
M  V30 5468 H 510.091 2.10119 -6.20911 0
M  V30 5469 H 509.611 3.31363 -4.99959 0
M  V30 5470 H 511.29 3.25575 -5.59115 0
M  V30 5471 N 511.423 1.38739 0.74761 0
M  V30 5472 C 512.672 1.3459 1.50228 0
M  V30 5473 C 512.985 -0.0595592 1.95509 0
M  V30 5474 O 514.191 -0.22361 2.70578 0
M  V30 5475 C 512.647 2.36377 2.71393 0
M  V30 5476 C 512.255 3.82573 2.33113 0
M  V30 5477 C 513.999 2.41281 3.49262 0
M  V30 5478 C 511.906 4.76032 3.50924 0
M  V30 5479 H 510.836 0.500312 0.564096 0
M  V30 5480 H 513.487 1.64324 0.8167 0
M  V30 5481 H 511.869 1.99694 3.41962 0
M  V30 5482 H 513.043 4.28227 1.70171 0
M  V30 5483 H 511.358 3.80844 1.68365 0
M  V30 5484 H 513.955 3.08301 4.36869 0
M  V30 5485 H 514.298 1.43353 3.9084 0
M  V30 5486 H 514.831 2.76793 2.85711 0
M  V30 5487 H 511.57 5.75177 3.14408 0
M  V30 5488 H 511.09 4.35066 4.12889 0
M  V30 5489 H 512.769 4.94331 4.17427 0
M  V30 5490 N 512.901 -0.976442 1.23707 0
M  V30 5491 C 514.131 -1.75087 1.09673 0
M  V30 5492 C 514.539 -1.85852 -0.354344 0
M  V30 5493 O 513.882 -1.33985 -1.25673 0
M  V30 5494 C 513.944 -3.19272 1.65245 0
M  V30 5495 C 513.608 -3.32004 3.14042 0
M  V30 5496 C 514.605 -3.18017 4.11292 0
M  V30 5497 C 512.29 -3.56525 3.53829 0
M  V30 5498 C 514.284 -3.28363 5.46312 0
M  V30 5499 C 511.971 -3.6651 4.88993 0
M  V30 5500 C 512.969 -3.52439 5.85043 0
M  V30 5501 O 512.657 -3.62063 7.1775 0
M  V30 5502 H 512.389 -0.556164 0.384262 0
M  V30 5503 H 514.943 -1.23518 1.64111 0
M  V30 5504 H 513.173 -3.72107 1.05231 0
M  V30 5505 H 514.862 -3.7849 1.46629 0
M  V30 5506 H 515.628 -2.98966 3.81896 0
M  V30 5507 H 511.507 -3.66547 2.79579 0
M  V30 5508 H 515.051 -3.17297 6.21263 0
M  V30 5509 H 510.948 -3.85072 5.18063 0
M  V30 5510 H 511.716 -3.78833 7.25553 0
M  V30 5511 N 514.379 -1.04941 -1.1758 0
M  V30 5512 C 515.79 -0.784501 -1.69418 0
M  V30 5513 C 516.141 0.693625 -1.8353 0
M  V30 5514 O 515.266 1.53925 -1.52106 0
M  V30 5515 C 515.861 -1.41746 -3.07723 0
M  V30 5516 C 514.42 -1.20066 -3.56737 0
M  V30 5517 C 513.567 -1.5026 -2.33061 0
M  V30 5518 H 516.518 -1.21469 -1.02133 0
M  V30 5519 H 516.539 -0.825381 -3.7144 0
M  V30 5520 H 516.051 -2.49325 -2.9742 0
M  V30 5521 H 514.152 -0.144006 -3.72322 0
M  V30 5522 H 514.265 -1.90384 -4.39648 0
M  V30 5523 H 512.629 -0.922598 -2.37403 0
M  V30 5524 H 513.412 -2.58967 -2.25368 0
M  V30 5525 N 515.857 1.33968 -0.830081 0
M  V30 5526 C 517.097 1.99879 -0.427521 0
M  V30 5527 C 517.461 1.64355 0.992546 0
M  V30 5528 O 518.662 2.23164 1.49837 0
M  V30 5529 C 516.933 3.51771 -0.631815 0
M  V30 5530 S 518.492 4.37608 -0.323168 0
M  V30 5531 H 515.31 0.692485 -0.161202 0
M  V30 5532 H 517.912 1.63129 -1.07745 0
M  V30 5533 H 516.616 3.75113 -1.66488 0
M  V30 5534 H 516.147 3.93386 0.0325936 0
M  V30 5535 H 518.162 4.88683 0.860432 0
M  V30 5536 N 517.335 0.585699 1.46312 0
M  V30 5537 C 518.56 0.0762461 2.0726 0
M  V30 5538 C 518.985 -1.22071 1.43109 0
M  V30 5539 O 518.343 -1.73804 0.515942 0
M  V30 5540 C 518.391 -0.0729404 3.60526 0
M  V30 5541 O 517.495 -1.1287 3.96654 0
M  V30 5542 H 516.836 0.0641558 0.660893 0
M  V30 5543 H 519.366 0.809492 1.87905 0
M  V30 5544 H 519.376 -0.278158 4.07051 0
M  V30 5545 H 518.051 0.874188 4.06609 0
M  V30 5546 H 516.628 -0.901703 3.61834 0
M  V30 5547 N 518.813 -1.54241 0.323641 0
M  V30 5548 C 520.038 -2.05452 -0.283605 0
M  V30 5549 C 520.463 -1.19823 -1.44997 0
M  V30 5550 O 519.821 -0.207358 -1.8011 0
M  V30 5551 C 519.869 -3.53823 -0.695795 0
M  V30 5552 O 518.973 -3.71134 -1.79815 0
M  V30 5553 H 518.314 -0.662024 -0.0511917 0
M  V30 5554 H 520.844 -1.99079 0.472073 0
M  V30 5555 H 520.854 -3.96094 -0.978434 0
M  V30 5556 H 519.529 -4.15602 0.157287 0
M  V30 5557 H 518.106 -3.40768 -1.51431 0
M  V30 5558 N 520.291 -0.0518155 -1.57515 0
M  V30 5559 C 521.238 0.922352 -2.11569 0
M  V30 5560 C 522.208 1.30842 -1.02321 0
M  V30 5561 O 523.393 1.39778 -1.29872 0
M  V30 5562 C 520.533 2.19167 -2.6657 0
M  V30 5563 C 519.646 1.86003 -3.89906 0
M  V30 5564 C 518.781 3.07398 -4.33221 0
M  V30 5565 C 517.82 2.70158 -5.49255 0
M  V30 5566 N 516.957 3.84248 -5.8762 0
M  V30 5567 H 521.797 0.454506 -2.94514 0
M  V30 5568 H 519.334 0.212718 -1.45554 0
M  V30 5569 H 521.292 2.93443 -2.96559 0
M  V30 5570 H 519.922 2.63528 -1.86421 0
M  V30 5571 H 518.974 1.01874 -3.66505 0
M  V30 5572 H 520.286 1.54592 -4.74239 0
M  V30 5573 H 519.44 3.89972 -4.64765 0
M  V30 5574 H 518.179 3.41988 -3.477 0
M  V30 5575 H 517.184 1.86001 -5.17382 0
M  V30 5576 H 518.409 2.36759 -6.36492 0
M  V30 5577 H 516.355 4.18638 -5.05053 0
M  V30 5578 H 516.272 3.56538 -6.66646 0
M  V30 5579 H 517.54 4.6746 -6.2378 0
M  V30 5580 N 521.769 1.56035 0.221574 0
M  V30 5581 C 522.679 1.95581 1.29558 0
M  V30 5582 C 523.695 0.859639 1.51282 0
M  V30 5583 O 524.871 1.16321 1.64413 0
M  V30 5584 C 521.936 2.26447 2.62531 0
M  V30 5585 C 520.997 3.49632 2.4911 0
M  V30 5586 C 520.23 3.79017 3.75742 0
M  V30 5587 O 520.453 3.10077 4.78757 0
M  V30 5588 O 519.387 4.72507 3.72855 0
M  V30 5589 H 523.213 2.8711 0.990035 0
M  V30 5590 H 520.798 1.43244 0.424434 0
M  V30 5591 H 522.68 2.47494 3.41064 0
M  V30 5592 H 521.355 1.38092 2.92766 0
M  V30 5593 H 520.262 3.33864 1.68777 0
M  V30 5594 H 521.595 4.3837 2.23814 0
M  V30 5595 N 523.247 -0.488276 1.49845 0
M  V30 5596 C 524.494 -1.24157 1.59973 0
M  V30 5597 C 524.822 -1.92293 0.292182 0
M  V30 5598 O 524.077 -1.81942 -0.720813 0
M  V30 5599 C 524.376 -2.32152 2.71735 0
M  V30 5600 C 524.042 -1.81387 4.12807 0
M  V30 5601 C 522.704 -1.67262 4.51195 0
M  V30 5602 C 525.056 -1.43537 5.01045 0
M  V30 5603 C 522.384 -1.13685 5.7558 0
M  V30 5604 C 524.736 -0.914081 6.25961 0
M  V30 5605 C 523.4 -0.759327 6.63167 0
M  V30 5606 H 522.67 -0.454322 0.585383 0
M  V30 5607 H 525.317 -0.540261 1.83721 0
M  V30 5608 H 523.622 -3.08122 2.42008 0
M  V30 5609 H 525.319 -2.90164 2.76778 0
M  V30 5610 H 521.909 -1.93344 3.82513 0
M  V30 5611 H 526.093 -1.53292 4.72033 0
M  V30 5612 H 521.349 -1.00426 6.03096 0
M  V30 5613 H 525.523 -0.612066 6.93705 0
M  V30 5614 H 523.15 -0.342002 7.5943 0
M  V30 5615 N 524.725 -1.39134 -0.740242 0
M  V30 5616 C 525.672 -1.37434 -1.8542 0
M  V30 5617 C 526.642 -0.234822 -1.64432 0
M  V30 5618 O 527.827 -0.429125 -1.85912 0
M  V30 5619 C 524.967 -1.21844 -3.22875 0
M  V30 5620 C 524.08 -2.45296 -3.55603 0
M  V30 5621 C 523.215 -2.22334 -4.82432 0
M  V30 5622 C 522.254 -3.41488 -5.07988 0
M  V30 5623 N 521.391 -3.17877 -6.26018 0
M  V30 5624 H 526.231 -2.3266 -1.86207 0
M  V30 5625 H 523.768 -1.15578 -0.909946 0
M  V30 5626 H 525.726 -1.10818 -4.02213 0
M  V30 5627 H 524.356 -0.3025 -3.21379 0
M  V30 5628 H 523.408 -2.66945 -2.71006 0
M  V30 5629 H 524.72 -3.34063 -3.7041 0
M  V30 5630 H 523.874 -2.0852 -5.69741 0
M  V30 5631 H 522.613 -1.30954 -4.6979 0
M  V30 5632 H 521.618 -3.55807 -4.19144 0
M  V30 5633 H 522.843 -4.33763 -5.22519 0
M  V30 5634 H 520.789 -2.29156 -6.14673 0
M  V30 5635 H 520.706 -4.00198 -6.41387 0
M  V30 5636 H 521.974 -3.07746 -7.16179 0
M  V30 5637 N 526.204 0.969867 -1.24223 0
M  V30 5638 C 527.62 1.23809 -1.00716 0
M  V30 5639 C 527.82 1.99469 0.285358 0
M  V30 5640 O 526.876 2.31764 1.00207 0
M  V30 5641 C 528.189 2.02734 -2.2208 0
M  V30 5642 C 529.737 2.15834 -2.26681 0
M  V30 5643 C 530.212 2.98154 -3.47661 0
M  V30 5644 N 531.703 3.05737 -3.47964 0
M  V30 5645 C 532.438 3.69785 -4.38231 0
M  V30 5646 N 531.934 4.35569 -5.3875 0
M  V30 5647 N 533.727 3.66775 -4.25949 0
M  V30 5648 H 525.878 0.463294 -2.07286 0
M  V30 5649 H 528.141 0.267348 -0.909521 0
M  V30 5650 H 527.847 1.54524 -3.15935 0
M  V30 5651 H 527.721 3.0347 -2.24021 0
M  V30 5652 H 530.108 2.63248 -1.33359 0
M  V30 5653 H 530.189 1.14453 -2.28767 0
M  V30 5654 H 529.833 2.51435 -4.41297 0
M  V30 5655 H 529.763 3.99729 -3.42818 0
M  V30 5656 H 532.254 2.58941 -2.75242 0
M  V30 5657 H 532.567 4.82251 -6.03866 0
M  V30 5658 H 530.912 4.34244 -5.42639 0
M  V30 5659 H 534.103 3.14558 -3.46657 0
M  V30 5660 H 534.276 4.16407 -4.96497 0
M  V30 5661 N 527.682 1.05563 1.17022 0
M  V30 5662 C 528.645 0.664098 2.19368 0
M  V30 5663 C 529.645 -0.286358 1.5823 0
M  V30 5664 O 530.835 -0.069728 1.7406 0
M  V30 5665 C 527.967 -0.0239932 3.40892 0
M  V30 5666 H 529.16 1.57 2.55521 0
M  V30 5667 H 526.713 0.849964 1.31169 0
M  V30 5668 H 527.448 -0.942988 3.10287 0
M  V30 5669 H 527.233 0.659351 3.86516 0
M  V30 5670 H 528.723 -0.283909 4.16634 0
M  V30 5671 N 529.16 -1.33526 0.837174 0
M  V30 5672 C 530.407 -1.97837 0.432064 0
M  V30 5673 C 530.735 -1.66324 -1.00829 0
M  V30 5674 O 529.99 -0.93448 -1.71948 0
M  V30 5675 C 530.289 -3.52367 0.597675 0
M  V30 5676 C 529.955 -4.03826 2.00587 0
M  V30 5677 C 528.617 -4.1759 2.39106 0
M  V30 5678 C 530.969 -4.31333 2.92576 0
M  V30 5679 C 528.297 -4.56195 3.68921 0
M  V30 5680 C 530.649 -4.7139 4.2187 0
M  V30 5681 C 529.313 -4.8336 4.60347 0
M  V30 5682 H 528.583 -0.723937 0.158104 0
M  V30 5683 H 531.23 -1.5923 1.06387 0
M  V30 5684 H 529.535 -3.91624 -0.117452 0
M  V30 5685 H 531.232 -4.00126 0.26454 0
M  V30 5686 H 527.822 -3.93586 1.69671 0
M  V30 5687 H 532.006 -4.20224 2.64056 0
M  V30 5688 H 527.262 -4.63655 3.9854 0
M  V30 5689 H 531.436 -4.91631 4.93226 0
M  V30 5690 H 529.063 -5.1303 5.60985 0
M  V30 5691 N 530.638 -0.59345 -1.46 0
M  V30 5692 C 531.884 -0.0832754 -2.02629 0
M  V30 5693 C 532.217 1.27749 -1.46266 0
M  V30 5694 O 531.492 1.8395 -0.631866 0
M  V30 5695 C 531.775 -0.0290756 -3.60088 0
M  V30 5696 C 531.628 -1.41951 -4.26814 0
M  V30 5697 C 532.947 0.666055 -4.35031 0
M  V30 5698 H 530.066 -0.031736 -0.736316 0
M  V30 5699 H 532.708 -0.762711 -1.74019 0
M  V30 5700 H 530.858 0.549532 -3.84594 0
M  V30 5701 H 532.53 -2.04411 -4.13538 0
M  V30 5702 H 530.773 -1.98422 -3.8576 0
M  V30 5703 H 531.444 -1.33395 -5.3564 0
M  V30 5704 H 533.92 0.174401 -4.15734 0
M  V30 5705 H 532.796 0.673041 -5.44758 0
M  V30 5706 H 533.057 1.72946 -4.06869 0
M  V30 5707 N 532.116 1.54067 -0.331816 0
M  V30 5708 C 533.532 1.59587 0.0205388 0
M  V30 5709 C 533.732 1.34813 1.49759 0
M  V30 5710 O 532.788 1.13661 2.25471 0
M  V30 5711 C 534.101 2.97959 -0.405103 0
M  V30 5712 C 535.649 3.10964 -0.356454 0
M  V30 5713 C 536.124 4.51694 -0.757384 0
M  V30 5714 N 537.615 4.57709 -0.71111 0
M  V30 5715 C 538.35 5.64729 -0.993427 0
M  V30 5716 N 537.846 6.79652 -1.3433 0
M  V30 5717 N 539.639 5.54546 -0.918442 0
M  V30 5718 H 531.79 1.68426 -1.29407 0
M  V30 5719 H 534.053 0.78819 -0.526745 0
M  V30 5720 H 533.759 3.21115 -1.43451 0
M  V30 5721 H 533.633 3.76524 0.225692 0
M  V30 5722 H 536.02 2.87538 0.663763 0
M  V30 5723 H 536.101 2.34484 -1.02229 0
M  V30 5724 H 535.745 4.75853 -1.77555 0
M  V30 5725 H 535.675 5.26555 -0.0691444 0
M  V30 5726 H 538.166 3.75176 -0.452883 0
M  V30 5727 H 538.479 7.57221 -1.54388 0
M  V30 5728 H 536.824 6.81128 -1.38164 0
M  V30 5729 H 540.015 4.63641 -0.644536 0
M  V30 5730 H 540.188 6.37861 -1.14181 0
M  V30 5731 N 533.594 0.0601682 1.57485 0
M  V30 5732 C 534.843 -0.611101 1.9222 0
M  V30 5733 C 535.156 -1.71469 0.941159 0
M  V30 5734 O 536.362 -2.44473 1.18089 0
M  V30 5735 C 534.818 -1.13832 3.41424 0
M  V30 5736 C 534.426 -0.0663596 4.47951 0
M  V30 5737 C 536.17 -1.78432 3.85178 0
M  V30 5738 C 534.077 -0.606965 5.88277 0
M  V30 5739 H 533.007 -0.232033 0.71741 0
M  V30 5740 H 535.658 0.130518 1.83035 0
M  V30 5741 H 534.04 -1.93254 3.45643 0
M  V30 5742 H 535.214 0.707682 4.55333 0
M  V30 5743 H 533.529 0.482715 4.13593 0
M  V30 5744 H 536.126 -2.1989 4.87394 0
M  V30 5745 H 536.469 -2.63966 3.21913 0
M  V30 5746 H 537.002 -1.05651 3.83514 0
M  V30 5747 H 533.741 0.21095 6.5516 0
M  V30 5748 H 533.261 -1.34879 5.84438 0
M  V30 5749 H 534.94 -1.08704 6.37803 0
M  V30 5750 N 535.072 -1.5615 -0.213296 0
M  V30 5751 C 536.002 -1.96109 -1.26742 0
M  V30 5752 C 536.983 -0.830448 -1.48451 0
M  V30 5753 O 538.168 -1.09339 -1.60495 0
M  V30 5754 C 535.298 -2.28492 -2.61551 0
M  V30 5755 C 534.252 -3.44124 -2.54485 0
M  V30 5756 C 533.578 -3.62134 -3.93399 0
M  V30 5757 C 534.878 -4.78855 -2.08556 0
M  V30 5758 H 536.572 -2.84412 -0.935434 0
M  V30 5759 H 534.118 -1.36836 -0.44854 0
M  V30 5760 H 536.071 -2.55039 -3.3546 0
M  V30 5761 H 534.795 -1.37052 -2.96453 0
M  V30 5762 H 533.454 -3.17639 -1.83033 0
M  V30 5763 H 533.102 -2.68055 -4.25623 0
M  V30 5764 H 532.802 -4.39913 -3.89551 0
M  V30 5765 H 534.326 -3.91038 -4.68958 0
M  V30 5766 H 535.74 -5.04552 -2.72213 0
M  V30 5767 H 534.137 -5.59975 -2.1575 0
M  V30 5768 H 535.207 -4.73657 -1.03811 0
M  V30 5769 N 536.55 0.480323 -1.50102 0
M  V30 5770 C 537.798 1.23063 -1.60312 0
M  V30 5771 C 538.119 1.92659 -0.301226 0
M  V30 5772 O 537.389 1.83691 0.680753 0
M  V30 5773 H 535.969 0.457231 -0.590719 0
M  V30 5774 H 538.631 0.554893 -1.86834 0
M  V30 5775 H 537.727 1.9835 -2.40964 0
M  V30 5776 N 538.028 1.39524 0.732853 0
M  V30 5777 C 539.268 1.383 1.50508 0
M  V30 5778 C 539.632 -0.0208271 1.91989 0
M  V30 5779 O 540.833 -0.158091 2.68335 0
M  V30 5780 C 539.104 2.33007 2.71003 0
M  V30 5781 S 540.663 2.49989 3.60626 0
M  V30 5782 H 537.481 0.490417 0.514794 0
M  V30 5783 H 540.083 1.75641 0.858524 0
M  V30 5784 H 538.787 3.33862 2.38672 0
M  V30 5785 H 538.318 1.96889 3.40585 0
M  V30 5786 H 540.333 1.7394 4.64714 0
M  V30 5787 N 539.506 -0.963266 1.24736 0
M  V30 5788 C 540.438 -2.06162 1.0015 0
M  V30 5789 C 541.451 -1.62771 -0.0305905 0
M  V30 5790 O 542.64 -1.77296 0.206966 0
M  V30 5791 C 539.74 -3.35333 0.490385 0
M  V30 5792 C 538.913 -4.07609 1.58663 0
M  V30 5793 C 537.972 -5.15052 1.0774 0
M  V30 5794 O 536.998 -5.4098 1.77002 0
M  V30 5795 N 538.2 -5.80436 -0.0858605 0
M  V30 5796 H 540.965 -2.27825 1.94719 0
M  V30 5797 H 538.526 -1.13121 1.15825 0
M  V30 5798 H 540.518 -4.04477 0.134371 0
M  V30 5799 H 539.088 -3.10507 -0.361155 0
M  V30 5800 H 538.308 -3.32681 2.11463 0
M  V30 5801 H 539.596 -4.52656 2.32336 0
M  V30 5802 H 538.994 -5.6178 -0.664806 0
M  V30 5803 H 537.551 -6.50674 -0.382981 0
M  V30 5804 N 540.985 -1.06182 -1.16461 0
M  V30 5805 C 542.225 -0.787048 -1.8864 0
M  V30 5806 C 542.589 0.674093 -1.79778 0
M  V30 5807 O 543.79 1.06341 -2.46871 0
M  V30 5808 C 542.061 -1.2666 -3.34203 0
M  V30 5809 S 543.62 -1.12071 -4.24247 0
M  V30 5810 H 540.438 -0.285539 -0.651144 0
M  V30 5811 H 543.04 -1.35851 -1.40587 0
M  V30 5812 H 541.744 -2.32496 -3.38192 0
M  V30 5813 H 541.275 -0.689841 -3.87304 0
M  V30 5814 H 543.29 -0.0509341 -4.96174 0
M  V30 5815 N 542.463 1.3308 -0.844243 0
M  V30 5816 C 543.879 1.50447 -0.532729 0
M  V30 5817 C 544.079 1.78292 0.938837 0
M  V30 5818 O 543.135 1.84635 1.72239 0
M  V30 5819 C 544.448 2.65555 -1.41072 0
M  V30 5820 C 545.996 2.7944 -1.41005 0
M  V30 5821 C 546.471 3.97616 -2.27301 0
M  V30 5822 N 547.962 4.0486 -2.2504 0
M  V30 5823 C 548.697 4.95508 -2.88547 0
M  V30 5824 N 548.193 5.91236 -3.61126 0
M  V30 5825 N 549.986 4.88548 -2.77989 0
M  V30 5826 H 542.137 1.13269 -1.79677 0
M  V30 5827 H 544.4 0.55734 -0.766861 0
M  V30 5828 H 544.106 2.51675 -2.45668 0
M  V30 5829 H 543.98 3.61089 -1.09061 0
M  V30 5830 H 546.367 2.92749 -0.371784 0
M  V30 5831 H 546.448 1.8465 -1.77026 0
M  V30 5832 H 546.092 3.85066 -3.3119 0
M  V30 5833 H 546.022 4.91661 -1.88619 0
M  V30 5834 H 548.513 3.36353 -1.72264 0
M  V30 5835 H 548.826 6.57079 -4.06776 0
M  V30 5836 H 547.171 5.91295 -3.65234 0
M  V30 5837 H 550.362 4.12729 -2.20846 0
M  V30 5838 H 550.535 5.58994 -3.27765 0
M  V30 5839 N 543.941 0.601185 1.45683 0
M  V30 5840 C 545.189 0.0936957 2.01883 0
M  V30 5841 C 545.51 -1.2779 1.47291 0
M  V30 5842 O 544.78 -1.84279 0.664691 0
M  V30 5843 H 543.36 0.0316466 0.746329 0
M  V30 5844 H 546.022 0.781137 1.78562 0
M  V30 5845 H 545.118 0.0386297 3.12076 0
M  V30 5846 N 545.419 -1.53889 0.339982 0
M  V30 5847 C 546.835 -1.59595 -0.0120752 0
M  V30 5848 C 547.035 -1.35605 -1.49042 0
M  V30 5849 O 546.091 -1.14856 -2.24865 0
M  V30 5850 C 547.404 -2.9774 0.420898 0
M  V30 5851 C 548.952 -3.1077 0.37294 0
M  V30 5852 C 549.427 -4.51286 0.781327 0
M  V30 5853 N 550.918 -4.57325 0.735374 0
M  V30 5854 C 551.653 -5.64194 1.02336 0
M  V30 5855 N 551.149 -6.7893 1.37933 0
M  V30 5856 N 552.942 -5.54051 0.947838 0
M  V30 5857 H 545.093 -1.67738 1.30299 0
M  V30 5858 H 547.356 -0.785385 0.530918 0
M  V30 5859 H 547.062 -3.20349 1.45152 0
M  V30 5860 H 546.936 -3.76639 -0.205721 0
M  V30 5861 H 549.323 -2.87886 -0.648505 0
M  V30 5862 H 549.404 -2.33939 1.03472 0
M  V30 5863 H 549.048 -4.74905 1.80077 0
M  V30 5864 H 548.978 -5.26511 0.0970679 0
M  V30 5865 H 551.469 -3.74931 0.472773 0
M  V30 5866 H 551.782 -7.56392 1.58402 0
M  V30 5867 H 550.127 -6.80386 1.41774 0
M  V30 5868 H 553.318 -4.63293 0.669115 0
M  V30 5869 H 553.491 -6.37246 1.17563 0
M  V30 5870 N 546.897 -0.0685191 -1.57451 0
M  V30 5871 C 548.145 0.60016 -1.92983 0
M  V30 5872 C 548.466 1.70348 -0.949028 0
M  V30 5873 O 547.736 1.959 0.00335647 0
M  V30 5874 H 546.316 0.224682 -0.712409 0
M  V30 5875 H 548.978 -0.125605 -1.94495 0
M  V30 5876 H 548.074 1.02759 -2.94698 0
M  V30 5877 N 548.375 1.56261 0.205012 0
M  V30 5878 C 549.791 1.49623 0.555433 0
M  V30 5879 C 549.991 0.766719 1.86343 0
M  V30 5880 O 549.047 0.313158 2.50551 0
M  V30 5881 C 550.36 2.94253 0.619347 0
M  V30 5882 C 551.908 3.04868 0.708855 0
M  V30 5883 C 552.383 4.50888 0.803969 0
M  V30 5884 N 553.874 4.54999 0.867758 0
M  V30 5885 C 554.609 5.65284 0.96135 0
M  V30 5886 N 554.105 6.85282 1.01786 0
M  V30 5887 N 555.898 5.53174 0.997771 0
M  V30 5888 H 548.049 2.0211 -0.653094 0
M  V30 5889 H 550.312 0.919333 -0.231366 0
M  V30 5890 H 550.018 3.50643 -0.272458 0
M  V30 5891 H 549.892 3.47063 1.47741 0
M  V30 5892 H 552.279 2.48532 1.5911 0
M  V30 5893 H 552.36 2.55199 -0.175205 0
M  V30 5894 H 552.004 5.07846 -0.0738798 0
M  V30 5895 H 551.934 4.98279 1.70369 0
M  V30 5896 H 554.425 3.68588 0.833735 0
M  V30 5897 H 554.738 7.65081 1.08951 0
M  V30 5898 H 553.083 6.8796 0.986706 0
M  V30 5899 H 556.274 4.5835 0.950392 0
M  V30 5900 H 556.447 6.39151 1.06725 0
M  V30 5901 N 549.853 -0.472356 1.50355 0
M  V30 5902 C 551.269 -0.806001 1.37753 0
M  V30 5903 C 551.469 -1.968 0.432649 0
M  V30 5904 O 550.525 -2.52189 -0.12519 0
M  V30 5905 C 551.838 -1.11926 2.79093 0
M  V30 5906 C 553.386 -1.22579 2.87999 0
M  V30 5907 C 553.861 -1.57218 4.3017 0
M  V30 5908 N 555.352 -1.64212 4.33115 0
M  V30 5909 C 556.087 -1.92517 5.40116 0
M  V30 5910 N 555.583 -2.1885 6.57325 0
M  V30 5911 N 557.376 -1.94008 5.27558 0
M  V30 5912 H 549.527 0.293451 2.10363 0
M  V30 5913 H 551.79 0.0687672 0.945503 0
M  V30 5914 H 551.496 -0.338504 3.50067 0
M  V30 5915 H 551.37 -2.05577 3.16256 0
M  V30 5916 H 553.757 -1.99722 2.17245 0
M  V30 5917 H 553.838 -0.269107 2.54381 0
M  V30 5918 H 553.482 -0.806154 5.01461 0
M  V30 5919 H 553.412 -2.54034 4.61275 0
M  V30 5920 H 555.903 -1.45906 3.48597 0
M  V30 5921 H 556.216 -2.39718 7.3468 0
M  V30 5922 H 554.561 -2.16245 6.60502 0
M  V30 5923 H 557.752 -1.72931 4.34986 0
M  V30 5924 H 557.925 -2.15731 6.11035 0
M  V30 5925 N 551.331 -1.39911 -0.725443 0
M  V30 5926 C 552.747 -1.21725 -1.03224 0
M  V30 5927 C 552.947 -0.0855224 -2.01318 0
M  V30 5928 O 552.003 0.55976 -2.46217 0
M  V30 5929 C 553.316 -2.55511 -1.58539 0
M  V30 5930 C 554.864 -2.62439 -1.70572 0
M  V30 5931 C 555.339 -3.9647 -2.29294 0
M  V30 5932 N 556.83 -3.98159 -2.36692 0
M  V30 5933 C 557.565 -4.98647 -2.83088 0
M  V30 5934 N 557.061 -6.0953 -3.2931 0
M  V30 5935 N 558.854 -4.8602 -2.82384 0
M  V30 5936 H 551.005 -2.12267 -0.075048 0
M  V30 5937 H 553.268 -0.943136 -0.0959066 0
M  V30 5938 H 552.974 -3.38926 -0.939249 0
M  V30 5939 H 552.848 -2.75905 -2.57208 0
M  V30 5940 H 555.235 -1.79401 -2.34306 0
M  V30 5941 H 555.316 -2.45885 -0.705297 0
M  V30 5942 H 554.96 -4.79942 -1.66186 0
M  V30 5943 H 554.89 -4.10349 -3.30032 0
M  V30 5944 H 557.381 -3.18085 -2.04035 0
M  V30 5945 H 557.694 -6.82106 -3.6325 0
M  V30 5946 H 556.039 -6.1311 -3.27294 0
M  V30 5947 H 559.23 -3.98493 -2.45603 0
M  V30 5948 H 559.403 -5.64478 -3.18226 0
M  V30 5949 N 552.809 0.956637 -1.25245 0
M  V30 5950 C 554.225 1.22733 -1.02023 0
M  V30 5951 C 554.425 1.99761 0.264186 0
M  V30 5952 O 553.481 2.32814 0.977436 0
M  V30 5953 C 554.794 2.00367 -2.24217 0
M  V30 5954 C 556.342 2.13418 -2.28958 0
M  V30 5955 C 556.817 2.9445 -3.50803 0
M  V30 5956 N 558.308 3.02029 -3.51187 0
M  V30 5957 C 559.043 3.65116 -4.42129 0
M  V30 5958 N 558.539 4.2983 -5.43339 0
M  V30 5959 N 560.332 3.62237 -4.29815 0
M  V30 5960 H 552.483 0.441282 -2.07765 0
M  V30 5961 H 554.746 0.257686 -0.912306 0
M  V30 5962 H 554.452 1.51165 -3.17556 0
M  V30 5963 H 554.326 3.01077 -2.27228 0
M  V30 5964 H 556.713 2.61819 -1.36143 0
M  V30 5965 H 556.794 1.1202 -2.29968 0
M  V30 5966 H 556.438 2.46741 -4.43939 0
M  V30 5967 H 556.368 3.9607 -3.47039 0
M  V30 5968 H 558.859 2.56007 -2.77973 0
M  V30 5969 H 559.172 4.75819 -6.08947 0
M  V30 5970 H 557.517 4.28465 -5.47214 0
M  V30 5971 H 560.708 3.10863 -3.49974 0
M  V30 5972 H 560.881 4.11117 -5.00886 0
M  V30 5973 N 554.287 1.06798 1.15896 0
M  V30 5974 C 555.703 0.792423 1.38538 0
M  V30 5975 C 555.903 -0.60592 1.92174 0
M  V30 5976 O 554.959 -1.36561 2.12385 0
M  V30 5977 C 556.272 1.86157 2.36149 0
M  V30 5978 C 557.82 1.88567 2.49823 0
M  V30 5979 C 558.295 2.9455 3.5072 0
M  V30 5980 N 559.786 2.93616 3.58251 0
M  V30 5981 C 560.521 3.72267 4.36125 0
M  V30 5982 N 560.017 4.60751 5.17379 0
M  V30 5983 N 561.81 3.60637 4.31158 0
M  V30 5984 H 553.961 1.96993 0.794198 0
M  V30 5985 H 556.224 0.853942 0.411688 0
M  V30 5986 H 555.93 2.86603 2.03843 0
M  V30 5987 H 555.804 1.71692 3.3586 0
M  V30 5988 H 558.191 0.887765 2.8143 0
M  V30 5989 H 558.272 2.0711 1.5013 0
M  V30 5990 H 557.916 3.94537 3.19849 0
M  V30 5991 H 557.846 2.73255 4.50155 0
M  V30 5992 H 560.337 2.29472 3.00252 0
M  V30 5993 H 560.65 5.17408 5.74028 0
M  V30 5994 H 558.995 4.64803 5.16704 0
M  V30 5995 H 562.186 2.90892 3.66742 0
M  V30 5996 H 562.359 4.22176 4.91601 0
M  V30 5997 N 555.766 -1.3263 0.851289 0
M  V30 5998 C 557.182 -1.50162 0.5407 0
M  V30 5999 C 557.382 -1.78788 -0.929369 0
M  V30 6000 O 556.438 -1.85545 -1.71258 0
M  V30 6001 C 557.751 -2.64803 1.42478 0
M  V30 6002 C 559.299 -2.78688 1.42485 0
M  V30 6003 C 559.774 -3.96405 2.29407 0
M  V30 6004 N 561.265 -4.0366 2.27184 0
M  V30 6005 C 562 -4.93971 2.9117 0
M  V30 6006 N 561.496 -5.89313 3.64256 0
M  V30 6007 N 563.289 -4.87066 2.80576 0
M  V30 6008 H 555.44 -1.12315 1.80275 0
M  V30 6009 H 557.703 -0.553266 0.769806 0
M  V30 6010 H 557.409 -2.50368 2.46999 0
M  V30 6011 H 557.283 -3.60506 1.10974 0
M  V30 6012 H 559.67 -2.92547 0.387304 0
M  V30 6013 H 559.751 -1.83708 1.78002 0
M  V30 6014 H 559.395 -3.83304 3.33228 0
M  V30 6015 H 559.325 -4.90654 1.91224 0
M  V30 6016 H 561.816 -3.35435 1.74045 0
M  V30 6017 H 562.129 -6.54913 4.10255 0
M  V30 6018 H 560.474 -5.8935 3.68364 0
M  V30 6019 H 563.665 -4.11552 2.23031 0
M  V30 6020 H 563.838 -5.57248 3.30725 0
M  V30 6021 N 557.244 -0.608902 -1.45362 0
M  V30 6022 C 558.66 -0.272659 -1.57254 0
M  V30 6023 C 558.86 1.22477 -1.60005 0
M  V30 6024 O 557.916 2.00785 -1.53106 0
M  V30 6025 C 559.229 -0.944991 -2.85465 0
M  V30 6026 C 560.777 -0.921033 -2.99142 0
M  V30 6027 C 561.252 -1.5734 -4.30126 0
M  V30 6028 N 562.743 -1.53895 -4.36887 0
M  V30 6029 C 563.478 -2.01286 -5.36909 0
M  V30 6030 N 562.974 -2.56768 -6.43461 0
M  V30 6031 N 564.767 -1.92046 -5.28275 0
M  V30 6032 H 556.918 -1.58117 -1.4182 0
M  V30 6033 H 559.181 -0.662437 -0.678146 0
M  V30 6034 H 558.887 -1.99941 -2.89338 0
M  V30 6035 H 558.761 -0.469079 -3.74272 0
M  V30 6036 H 561.148 0.124846 -2.94836 0
M  V30 6037 H 561.229 -1.43522 -2.11743 0
M  V30 6038 H 560.873 -2.61862 -4.35191 0
M  V30 6039 H 560.803 -1.03422 -5.16344 0
M  V30 6040 H 563.294 -1.13366 -3.60495 0
M  V30 6041 H 563.607 -2.9072 -7.16032 0
M  V30 6042 H 561.952 -2.60808 -6.44208 0
M  V30 6043 H 565.143 -1.48439 -4.43941 0
M  V30 6044 H 565.316 -2.29293 -6.06077 0
M  V30 6045 N 558.722 1.53707 -0.348139 0
M  V30 6046 C 560.138 1.596 0.00361134 0
M  V30 6047 C 560.338 1.36394 1.4832 0
M  V30 6048 O 559.394 1.16046 2.24253 0
M  V30 6049 C 560.707 2.97512 -0.436682 0
M  V30 6050 C 562.255 3.10568 -0.389416 0
M  V30 6051 C 562.73 4.50866 -0.805249 0
M  V30 6052 N 564.221 4.56929 -0.759616 0
M  V30 6053 C 564.956 5.63643 -1.05327 0
M  V30 6054 N 564.452 6.78189 -1.41531 0
M  V30 6055 N 566.245 5.5354 -0.977207 0
M  V30 6056 H 558.396 1.67044 -1.31187 0
M  V30 6057 H 560.659 0.782559 -0.535075 0
M  V30 6058 H 560.365 3.19575 -1.46849 0
M  V30 6059 H 560.239 3.76742 0.185744 0
M  V30 6060 H 562.626 2.88226 0.633228 0
M  V30 6061 H 562.707 2.33387 -1.04711 0
M  V30 6062 H 562.351 4.73943 -1.82593 0
M  V30 6063 H 562.281 5.26452 -0.124989 0
M  V30 6064 H 564.772 3.74675 -0.49265 0
M  V30 6065 H 565.085 7.55541 -1.62411 0
M  V30 6066 H 563.43 6.79624 -1.45381 0
M  V30 6067 H 566.621 4.62932 -0.693675 0
M  V30 6068 H 566.794 6.36614 -1.2094 0
M  V30 6069 N 560.2 0.0768682 1.57412 0
M  V30 6070 C 561.616 -0.279772 1.57129 0
M  V30 6071 C 561.816 -1.69688 1.08666 0
M  V30 6072 O 560.872 -2.40953 0.754843 0
M  V30 6073 C 562.185 -0.0848055 3.0058 0
M  V30 6074 C 563.733 -0.153954 3.12621 0
M  V30 6075 C 564.208 0.0127946 4.57998 0
M  V30 6076 N 565.699 -0.0426435 4.6318 0
M  V30 6077 C 566.434 0.0618892 5.73367 0
M  V30 6078 N 565.93 0.220229 6.9245 0
M  V30 6079 N 567.723 0.00446072 5.621 0
M  V30 6080 H 559.874 1.00297 1.87228 0
M  V30 6081 H 562.137 0.391565 0.863354 0
M  V30 6082 H 561.843 0.89325 3.40168 0
M  V30 6083 H 561.717 -0.834961 3.67843 0
M  V30 6084 H 564.104 -1.1225 2.72917 0
M  V30 6085 H 564.185 0.627389 2.47987 0
M  V30 6086 H 563.829 0.978128 4.98392 0
M  V30 6087 H 563.759 -0.788016 5.20671 0
M  V30 6088 H 566.25 -0.163226 3.77547 0
M  V30 6089 H 566.563 0.291999 7.72248 0
M  V30 6090 H 564.908 0.255658 6.9453 0
M  V30 6091 H 568.099 -0.117979 4.67951 0
M  V30 6092 H 568.272 0.0893796 6.47938 0
M  V30 6093 N 561.678 -1.56367 -0.196722 0
M  V30 6094 C 562.608 -1.97442 -1.24655 0
M  V30 6095 C 563.589 -0.846147 -1.47561 0
M  V30 6096 O 564.774 -1.11035 -1.59326 0
M  V30 6097 C 561.904 -2.31253 -2.59112 0
M  V30 6098 C 560.858 -3.46804 -2.50821 0
M  V30 6099 C 560.184 -3.66286 -3.89536 0
M  V30 6100 C 561.484 -4.8104 -2.03465 0
M  V30 6101 H 563.178 -2.85388 -0.905216 0
M  V30 6102 H 560.724 -1.37304 -0.434002 0
M  V30 6103 H 562.677 -2.58583 -3.32736 0
M  V30 6104 H 561.401 -1.40188 -2.94983 0
M  V30 6105 H 560.06 -3.19563 -1.79653 0
M  V30 6106 H 559.708 -2.72555 -4.22756 0
M  V30 6107 H 559.408 -4.4402 -3.84864 0
M  V30 6108 H 560.932 -3.9599 -4.64784 0
M  V30 6109 H 562.346 -5.07411 -2.66846 0
M  V30 6110 H 560.743 -5.62232 -2.09798 0
M  V30 6111 H 561.813 -4.74732 -0.98781 0
M  V30 6112 N 563.156 0.464375 -1.50603 0
M  V30 6113 C 564.404 1.21356 -1.61608 0
M  V30 6114 C 564.725 1.92329 -0.321643 0
M  V30 6115 O 563.995 1.84403 0.661232 0
M  V30 6116 H 562.575 0.45094 -0.595535 0
M  V30 6117 H 565.237 0.535046 -1.87412 0
M  V30 6118 H 564.333 1.95783 -2.43054 0
M  V30 6119 N 564.634 1.40294 0.718013 0
M  V30 6120 C 565.882 1.38167 1.47494 0
M  V30 6121 C 566.203 -0.01607 1.94993 0
M  V30 6122 O 565.473 -0.970396 1.70177 0
M  V30 6123 H 564.053 0.508505 0.547203 0
M  V30 6124 H 566.715 1.75324 0.851322 0
M  V30 6125 H 565.811 2.05503 2.34894 0
M  V30 6126 N 566.112 -0.949982 1.2575 0
M  V30 6127 C 567.352 -1.70994 1.11984 0
M  V30 6128 C 567.716 -1.89095 -0.332746 0
M  V30 6129 O 568.917 -2.62192 -0.592331 0
M  V30 6130 C 567.188 -3.05286 1.85837 0
M  V30 6131 S 568.747 -3.96477 1.88019 0
M  V30 6132 H 565.565 -0.587689 0.400178 0
M  V30 6133 H 568.167 -1.13271 1.59342 0
M  V30 6134 H 566.871 -2.89785 2.90608 0
M  V30 6135 H 566.402 -3.68069 1.38885 0
M  V30 6136 H 568.417 -4.86814 0.96057 0
M  V30 6137 N 567.59 -1.07411 -1.15328 0
M  V30 6138 C 568.553 -0.698914 -2.18284 0
M  V30 6139 C 569.553 0.261149 -1.58665 0
M  V30 6140 O 570.743 0.0420277 -1.74149 0
M  V30 6141 C 567.875 -0.0302427 -3.40887 0
M  V30 6142 H 569.068 -1.61045 -2.52991 0
M  V30 6143 H 566.621 -0.870724 -1.298 0
M  V30 6144 H 567.356 0.893505 -3.11748 0
M  V30 6145 H 567.141 -0.720759 -3.85419 0
M  V30 6146 H 568.631 0.21759 -4.17033 0
M  V30 6147 N 569.068 1.32177 -0.85831 0
M  V30 6148 C 570.298 2.01021 -0.476889 0
M  V30 6149 C 570.706 1.64653 0.931995 0
M  V30 6150 O 570.049 0.865713 1.62022 0
M  V30 6151 C 570.111 3.55413 -0.540528 0
M  V30 6152 C 569.775 4.1522 -1.90895 0
M  V30 6153 C 570.772 4.3318 -2.87491 0
M  V30 6154 C 568.457 4.51212 -2.20709 0
M  V30 6155 C 570.451 4.86306 -4.1205 0
M  V30 6156 C 568.138 5.04042 -3.45521 0
M  V30 6157 C 569.136 5.21538 -4.41007 0
M  V30 6158 O 568.824 5.73238 -5.63608 0
M  V30 6159 H 568.556 0.650059 -0.18547 0
M  V30 6160 H 571.11 1.69648 -1.15796 0
M  V30 6161 H 569.34 3.86196 0.19741 0
M  V30 6162 H 571.029 4.05526 -0.174191 0
M  V30 6163 H 571.795 4.05704 -2.65762 0
M  V30 6164 H 567.674 4.36878 -1.4717 0
M  V30 6165 H 571.218 4.99877 -4.86589 0
M  V30 6166 H 567.115 5.30952 -3.67098 0
M  V30 6167 H 567.883 5.91625 -5.65617 0
M  V30 6168 N 570.547 0.616602 1.45037 0
M  V30 6169 C 571.775 0.121968 2.0654 0
M  V30 6170 C 572.19 -1.19743 1.45969 0
M  V30 6171 O 571.547 -1.73133 0.577168 0
M  V30 6172 C 571.598 -0.0145171 3.61497 0
M  V30 6173 O 571.319 1.25269 4.19809 0
M  V30 6174 C 572.82 -0.539555 4.40004 0
M  V30 6175 H 570.04 0.0729837 0.667019 0
M  V30 6176 H 572.584 0.846891 1.8614 0
M  V30 6177 H 570.739 -0.689809 3.81209 0
M  V30 6178 H 571.153 1.08816 5.13088 0
M  V30 6179 H 572.627 -0.584112 5.48901 0
M  V30 6180 H 573.104 -1.56368 4.10421 0
M  V30 6181 H 573.71 0.101995 4.25178 0
M  V30 6182 N 572.025 -1.5352 0.356285 0
M  V30 6183 C 573.255 -2.05236 -0.236983 0
M  V30 6184 C 573.663 -1.23016 -1.43749 0
M  V30 6185 O 573.006 -0.2615 -1.81829 0
M  V30 6186 C 573.068 -3.52549 -0.7035 0
M  V30 6187 C 572.732 -4.55425 0.379059 0
M  V30 6188 C 573.729 -5.0524 1.22592 0
M  V30 6189 C 571.414 -4.99425 0.536638 0
M  V30 6190 C 573.408 -5.97647 2.21578 0
M  V30 6191 C 571.095 -5.9164 1.52988 0
M  V30 6192 C 572.093 -6.4064 2.3679 0
M  V30 6193 O 571.781 -7.31039 3.34421 0
M  V30 6194 H 571.513 -0.674346 -0.047254 0
M  V30 6195 H 574.067 -1.98962 0.510238 0
M  V30 6196 H 572.297 -3.56331 -1.50217 0
M  V30 6197 H 573.986 -3.87171 -1.21873 0
M  V30 6198 H 574.752 -4.72002 1.11532 0
M  V30 6199 H 570.631 -4.60879 -0.105834 0
M  V30 6200 H 574.175 -6.35816 2.87025 0
M  V30 6201 H 570.072 -6.24293 1.64099 0
M  V30 6202 H 570.84 -7.49009 3.30041 0
M  V30 6203 N 573.503 -0.0852151 -1.57369 0
M  V30 6204 C 574.919 0.271436 -1.57275 0
M  V30 6205 C 575.119 1.69109 -1.09565 0
M  V30 6206 O 574.175 2.40549 -0.767611 0
M  V30 6207 C 575.488 0.0688638 -3.00621 0
M  V30 6208 C 577.036 0.137373 -3.12698 0
M  V30 6209 C 577.511 -0.0370832 -4.57985 0
M  V30 6210 N 579.002 0.0180794 -4.63196 0
M  V30 6211 C 579.737 -0.0922953 -5.73326 0
M  V30 6212 N 579.233 -0.256948 -6.92323 0
M  V30 6213 N 581.026 -0.0342702 -5.6209 0
M  V30 6214 H 573.177 -1.01288 -1.86693 0
M  V30 6215 H 575.44 -0.396138 -0.861266 0
M  V30 6216 H 575.146 -0.911277 -3.39689 0
M  V30 6217 H 575.02 0.815442 -3.6828 0
M  V30 6218 H 577.407 1.10801 -2.73509 0
M  V30 6219 H 577.488 -0.640532 -2.47651 0
M  V30 6220 H 577.132 -1.00455 -4.97867 0
M  V30 6221 H 577.062 0.760392 -5.21081 0
M  V30 6222 H 579.553 0.143202 -3.77629 0
M  V30 6223 H 579.866 -0.332949 -7.72082 0
M  V30 6224 H 578.211 -0.292487 -6.94384 0
M  V30 6225 H 581.402 0.0931605 -4.68007 0
M  V30 6226 H 581.575 -0.12374 -6.47882 0
M  V30 6227 N 574.981 1.5647 0.188427 0
M  V30 6228 C 576.392 1.70864 0.752494 0
M  V30 6229 C 576.743 0.692905 1.83557 0
M  V30 6230 O 575.868 -0.149307 2.15884 0
M  V30 6231 C 576.463 3.09789 1.37173 0
M  V30 6232 C 575.022 3.25925 1.88281 0
M  V30 6233 C 574.169 2.66817 0.755259 0
M  V30 6234 H 577.12 1.58657 -0.0367408 0
M  V30 6235 H 577.141 3.07489 2.24122 0
M  V30 6236 H 576.653 3.83693 0.583219 0
M  V30 6237 H 574.754 2.56948 2.6983 0
M  V30 6238 H 574.867 4.33498 2.04001 0
M  V30 6239 H 573.231 2.2617 1.17128 0
M  V30 6240 H 574.014 3.43294 -0.0211237 0
M  V30 6241 N 576.459 -0.456382 1.50847 0
M  V30 6242 C 577.705 -1.20618 1.63777 0
M  V30 6243 C 578.06 -1.8936 0.340677 0
M  V30 6244 O 577.353 -1.79786 -0.662378 0
M  V30 6245 C 577.547 -2.26336 2.76599 0
M  V30 6246 C 577.376 -1.67968 4.17153 0
M  V30 6247 C 576.146 -1.47293 4.83356 0
M  V30 6248 C 578.344 -1.16643 5.00898 0
M  V30 6249 N 576.326 -0.843222 6.08081 0
M  V30 6250 C 577.697 -0.660843 6.16468 0
M  V30 6251 C 579.752 -1.05637 4.86565 0
M  V30 6252 C 578.455 -0.0560365 7.19278 0
M  V30 6253 C 580.481 -0.465485 5.89565 0
M  V30 6254 C 579.843 0.0296516 7.04394 0
M  V30 6255 H 575.942 -0.429725 0.653345 0
M  V30 6256 H 578.526 -0.505784 1.88016 0
M  V30 6257 H 576.697 -2.93785 2.54056 0
M  V30 6258 H 578.429 -2.9334 2.78808 0
M  V30 6259 H 575.184 -1.72934 4.40898 0
M  V30 6260 H 575.608 -0.546357 6.74792 0
M  V30 6261 H 580.25 -1.42508 3.98059 0
M  V30 6262 H 577.968 0.324845 8.07447 0
M  V30 6263 H 581.554 -0.382493 5.80541 0
M  V30 6264 H 580.434 0.479705 7.82731 0
M  V30 6265 N 577.937 -1.40673 -0.710563 0
M  V30 6266 C 579.165 -1.42547 -1.4996 0
M  V30 6267 C 579.58 -0.0265485 -1.88781 0
M  V30 6268 O 578.937 0.950694 -1.55782 0
M  V30 6269 C 578.988 -2.32071 -2.77173 0
M  V30 6270 O 578.709 -3.66518 -2.39992 0
M  V30 6271 C 580.21 -2.42591 -3.71032 0
M  V30 6272 H 577.43 -0.486025 -0.462623 0
M  V30 6273 H 579.974 -1.84783 -0.876102 0
M  V30 6274 H 578.129 -1.93184 -3.35795 0
M  V30 6275 H 578.543 -4.14115 -3.21884 0
M  V30 6276 H 580.017 -3.09429 -4.57119 0
M  V30 6277 H 580.494 -1.4525 -4.14486 0
M  V30 6278 H 581.1 -2.82051 -3.18319 0
M  V30 6279 N 579.415 0.9433 -1.26252 0
M  V30 6280 C 580.831 1.21644 -1.03319 0
M  V30 6281 C 581.031 2.0003 0.242983 0
M  V30 6282 O 580.087 2.33838 0.952688 0
M  V30 6283 C 581.4 1.97978 -2.2633 0
M  V30 6284 C 582.948 2.10978 -2.31209 0
M  V30 6285 C 583.423 2.90713 -3.53907 0
M  V30 6286 N 584.914 2.98287 -3.54371 0
M  V30 6287 C 585.649 3.60406 -4.45976 0
M  V30 6288 N 585.145 4.24043 -5.47868 0
M  V30 6289 N 586.938 3.57658 -4.33633 0
M  V30 6290 H 579.089 0.419221 -2.08222 0
M  V30 6291 H 581.352 0.247995 -0.914988 0
M  V30 6292 H 581.058 1.47788 -3.19142 0
M  V30 6293 H 580.932 2.9865 -2.30408 0
M  V30 6294 H 583.319 2.6036 -1.38913 0
M  V30 6295 H 583.4 1.09575 -2.31143 0
M  V30 6296 H 583.044 2.42018 -4.46531 0
M  V30 6297 H 582.974 3.92367 -3.5122 0
M  V30 6298 H 585.465 2.53044 -2.80673 0
M  V30 6299 H 585.778 4.69334 -6.13959 0
M  V30 6300 H 584.123 4.22637 -5.51728 0
M  V30 6301 H 587.314 3.07134 -3.53251 0
M  V30 6302 H 587.487 4.05782 -5.05218 0
M  V30 6303 N 580.893 1.08022 1.14757 0
M  V30 6304 C 582.141 0.805913 1.85336 0
M  V30 6305 C 582.462 -0.670162 1.83122 0
M  V30 6306 O 581.732 -1.48567 1.2769 0
M  V30 6307 H 580.312 0.295138 0.686223 0
M  V30 6308 H 582.974 1.36538 1.3908 0
M  V30 6309 H 582.07 1.14655 2.90277 0
M  V30 6310 N 582.371 -1.3172 0.865308 0
M  V30 6311 C 583.619 -1.96487 0.472995 0
M  V30 6312 C 583.94 -1.68761 -0.976975 0
M  V30 6313 O 583.21 -1.00051 -1.68424 0
M  V30 6314 H 581.79 -0.726947 0.171922 0
M  V30 6315 H 584.452 -1.60612 1.10407 0
M  V30 6316 H 583.548 -3.0574 0.62687 0
M  V30 6317 N 583.85 -0.624285 -1.44708 0
M  V30 6318 C 585.075 -0.131171 -2.06985 0
M  V30 6319 C 585.5 1.18234 -1.46295 0
M  V30 6320 O 584.858 1.72375 -0.561842 0
M  V30 6321 C 584.906 -0.0226724 -3.60593 0
M  V30 6322 O 584.01 1.02314 -3.99507 0
M  V30 6323 H 583.351 -0.0816556 -0.65896 0
M  V30 6324 H 585.88 -0.859027 -1.85693 0
M  V30 6325 H 585.891 0.170138 -4.07645 0
M  V30 6326 H 584.566 -0.981685 -4.04148 0
M  V30 6327 H 583.143 0.805452 -3.64097 0
M  V30 6328 N 585.328 1.53329 -0.364422 0
M  V30 6329 C 586.258 2.28627 0.474543 0
M  V30 6330 C 587.239 1.31009 1.08492 0
M  V30 6331 O 588.424 1.59878 1.10239 0
M  V30 6332 C 585.554 3.07465 1.61501 0
M  V30 6333 C 584.508 4.1276 1.13194 0
M  V30 6334 C 583.834 4.79674 2.36255 0
M  V30 6335 C 585.134 5.21847 0.217507 0
M  V30 6336 H 586.828 2.99005 -0.153656 0
M  V30 6337 H 584.374 1.43803 -0.0753406 0
M  V30 6338 H 586.327 3.58889 2.20855 0
M  V30 6339 H 585.051 2.34775 2.27042 0
M  V30 6340 H 583.71 3.62281 0.56109 0
M  V30 6341 H 583.358 4.03557 3.00251 0
M  V30 6342 H 583.058 5.50827 2.04606 0
M  V30 6343 H 584.582 5.33892 2.96297 0
M  V30 6344 H 585.996 5.6878 0.718493 0
M  V30 6345 H 584.393 6.00099 -0.00806408 0
M  V30 6346 H 585.463 4.7921 -0.740653 0
M  V30 6347 N 586.806 0.0935595 1.57322 0
M  V30 6348 C 587.716 -0.880192 2.17462 0
M  V30 6349 C 588.732 -1.31135 1.14366 0
M  V30 6350 O 589.908 -1.37958 1.46729 0
M  V30 6351 C 586.973 -2.12184 2.74188 0
M  V30 6352 C 586.034 -1.74503 3.92234 0
M  V30 6353 C 585.267 -2.92748 4.46245 0
M  V30 6354 O 585.49 -4.07427 3.99198 0
M  V30 6355 O 584.424 -2.71303 5.37288 0
M  V30 6356 H 588.25 -0.398516 3.01074 0
M  V30 6357 H 585.835 -0.130707 1.48827 0
M  V30 6358 H 587.717 -2.84953 3.10451 0
M  V30 6359 H 586.392 -2.59407 1.93623 0
M  V30 6360 H 585.299 -0.989186 3.60785 0
M  V30 6361 H 586.632 -1.32044 4.74157 0
M  V30 6362 N 588.284 -1.56567 -0.180126 0
M  V30 6363 C 589.7 -1.50488 -0.531559 0
M  V30 6364 C 589.9 -0.796267 -1.851 0
M  V30 6365 O 588.956 -0.352978 -2.50021 0
M  V30 6366 C 590.269 -2.95201 -0.572456 0
M  V30 6367 C 591.817 -3.05957 -0.660264 0
M  V30 6368 C 592.292 -4.5211 -0.732135 0
M  V30 6369 N 593.783 -4.56322 -0.795262 0
M  V30 6370 C 594.518 -5.66742 -0.871296 0
M  V30 6371 N 594.014 -6.86815 -0.908708 0
M  V30 6372 N 595.807 -5.54691 -0.909639 0
M  V30 6373 H 587.958 -2.01045 0.685165 0
M  V30 6374 H 590.221 -0.915536 0.245962 0
M  V30 6375 H 589.927 -3.50165 0.328208 0
M  V30 6376 H 589.801 -3.49369 -1.422 0
M  V30 6377 H 592.188 -2.51032 -1.55136 0
M  V30 6378 H 592.269 -2.54888 0.215783 0
M  V30 6379 H 591.913 -5.07664 0.154664 0
M  V30 6380 H 591.843 -5.00926 -1.6242 0
M  V30 6381 H 594.334 -3.69868 -0.77499 0
M  V30 6382 H 594.647 -7.66718 -0.967654 0
M  V30 6383 H 592.992 -6.89443 -0.877132 0
M  V30 6384 H 596.183 -4.59804 -0.877353 0
M  V30 6385 H 596.356 -6.40768 -0.965434 0
M  V30 6386 N 589.762 0.448376 -1.51087 0
M  V30 6387 C 590.987 1.22605 -1.6728 0
M  V30 6388 C 591.412 1.84524 -0.365045 0
M  V30 6389 O 590.77 1.6832 0.673642 0
M  V30 6390 C 590.818 2.29393 -2.78229 0
M  V30 6391 O 589.922 3.34608 -2.41063 0
M  V30 6392 H 589.263 0.359705 -0.558129 0
M  V30 6393 H 591.793 0.530903 -1.97592 0
M  V30 6394 H 591.803 2.74352 -3.01986 0
M  V30 6395 H 590.478 1.83701 -3.73131 0
M  V30 6396 H 589.055 2.95202 -2.27838 0
M  V30 6397 N 591.24 1.41047 0.703093 0
M  V30 6398 C 592.172 1.38228 1.82827 0
M  V30 6399 C 593.185 0.285637 1.60275 0
M  V30 6400 O 594.374 0.54685 1.69917 0
M  V30 6401 C 591.474 1.13136 3.19458 0
M  V30 6402 C 590.647 2.34695 3.69103 0
M  V30 6403 C 589.706 2.05574 4.84382 0
M  V30 6404 O 588.732 2.78549 4.96386 0
M  V30 6405 N 589.934 1.04135 5.71083 0
M  V30 6406 H 592.699 2.35203 1.85741 0
M  V30 6407 H 590.26 1.35562 0.885125 0
M  V30 6408 H 592.252 0.916183 3.94193 0
M  V30 6409 H 590.822 0.247836 3.11616 0
M  V30 6410 H 590.042 2.71963 2.85359 0
M  V30 6411 H 591.33 3.15705 3.99009 0
M  V30 6412 H 590.728 0.43722 5.64008 0
M  V30 6413 H 589.285 0.886078 6.45749 0
M  V30 6414 N 592.718 -0.936591 1.26751 0
M  V30 6415 C 593.943 -1.72288 1.15462 0
M  V30 6416 C 594.368 -1.85915 -0.285887 0
M  V30 6417 O 593.726 -1.35272 -1.20711 0
M  V30 6418 C 593.774 -3.10503 1.83359 0
M  V30 6419 O 592.878 -3.96745 1.1255 0
M  V30 6420 H 592.219 -0.52843 0.402067 0
M  V30 6421 H 594.749 -1.17271 1.67656 0
M  V30 6422 H 594.759 -3.60867 1.90365 0
M  V30 6423 H 593.434 -2.99901 2.88153 0
M  V30 6424 H 592.011 -3.55191 1.13551 0
M  V30 6425 N 594.196 -1.08629 -1.14182 0
M  V30 6426 C 595.612 -0.814363 -1.3726 0
M  V30 6427 C 595.812 0.575271 -1.93114 0
M  V30 6428 O 594.868 1.33165 -2.1453 0
M  V30 6429 C 596.181 -1.8989 -2.33157 0
M  V30 6430 C 597.729 -1.92518 -2.46791 0
M  V30 6431 C 598.204 -3.00092 -3.45989 0
M  V30 6432 N 599.695 -2.99279 -3.53534 0
M  V30 6433 C 600.43 -3.79158 -4.30147 0
M  V30 6434 N 599.926 -4.68923 -5.09983 0
M  V30 6435 N 601.719 -3.67451 -4.25366 0
M  V30 6436 H 593.87 -1.98232 -0.762758 0
M  V30 6437 H 596.133 -0.860383 -0.398051 0
M  V30 6438 H 595.839 -2.89809 -1.99257 0
M  V30 6439 H 595.713 -1.77013 -3.33086 0
M  V30 6440 H 598.1 -0.932425 -2.79982 0
M  V30 6441 H 598.181 -2.09473 -1.46816 0
M  V30 6442 H 597.825 -3.99575 -3.13532 0
M  V30 6443 H 597.755 -2.80382 -4.45751 0
M  V30 6444 H 600.246 -2.3422 -2.96563 0
M  V30 6445 H 600.559 -5.26475 -5.65724 0
M  V30 6446 H 598.904 -4.72964 -5.09244 0
M  V30 6447 H 602.095 -2.9669 -3.62067 0
M  V30 6448 H 602.268 -4.29944 -4.84822 0
M  V30 6449 N 595.674 1.31259 -0.872281 0
M  V30 6450 C 596.621 2.28459 -0.327857 0
M  V30 6451 C 597.591 1.55831 0.574957 0
M  V30 6452 O 598.776 1.83965 0.506101 0
M  V30 6453 C 595.916 3.41985 0.462644 0
M  V30 6454 C 595.029 4.29458 -0.467949 0
M  V30 6455 C 594.164 5.30131 0.336903 0
M  V30 6456 C 593.203 6.0925 -0.58997 0
M  V30 6457 N 592.34 7.01872 0.178775 0
M  V30 6458 H 597.18 2.74414 -1.16193 0
M  V30 6459 H 594.717 1.34994 -0.584376 0
M  V30 6460 H 596.675 4.06547 0.936759 0
M  V30 6461 H 595.305 2.97134 1.2614 0
M  V30 6462 H 594.357 3.65318 -1.06052 0
M  V30 6463 H 595.669 4.84677 -1.17856 0
M  V30 6464 H 594.823 6.0038 0.873427 0
M  V30 6465 H 593.562 4.75573 1.08079 0
M  V30 6466 H 592.567 5.37889 -1.13823 0
M  V30 6467 H 593.792 6.65894 -1.33275 0
M  V30 6468 H 591.738 6.49721 0.905435 0
M  V30 6469 H 591.655 7.54522 -0.472452 0
M  V30 6470 H 592.923 7.76382 0.696454 0
M  V30 6471 N 597.152 0.631951 1.44375 0
M  V30 6472 C 598.429 0.067646 1.95483 0
M  V30 6473 C 598.809 -1.40683 1.57389 0
M  V30 6474 O 598.157 -2.12167 0.848375 0
M  V30 6475 C 598.367 0.291392 3.47781 0
M  V30 6476 C 599.715 0.185028 4.24197 0
M  V30 6477 O 600.739 0.222803 3.55503 0
M  V30 6478 O 599.598 0.0906642 5.46425 0
M  V30 6479 H 596.692 -0.0218379 0.826712 0
M  V30 6480 H 599.238 0.703711 1.54421 0
M  V30 6481 H 598.01 1.31449 3.68561 0
M  V30 6482 H 597.633 -0.378772 3.95792 0
M  V30 6483 N 598.631 -1.53133 0.372548 0
M  V30 6484 C 599.856 -2.0625 -0.218098 0
M  V30 6485 C 600.281 -1.24375 -1.41111 0
M  V30 6486 O 599.639 -0.264554 -1.79359 0
M  V30 6487 C 599.687 -3.55858 -0.582876 0
M  V30 6488 O 598.791 -3.76667 -1.67917 0
M  V30 6489 H 598.132 -0.663317 -0.030104 0
M  V30 6490 H 600.662 -1.97477 0.535169 0
M  V30 6491 H 600.672 -3.99007 -0.851925 0
M  V30 6492 H 599.347 -4.14892 0.289428 0
M  V30 6493 H 597.924 -3.45413 -1.40513 0
M  V30 6494 N 600.109 -0.101901 -1.5727 0
M  V30 6495 C 601.039 0.851544 -2.17419 0
M  V30 6496 C 602.02 1.28942 -1.10941 0
M  V30 6497 O 603.205 1.35509 -1.39107 0
M  V30 6498 C 600.335 2.10816 -2.75996 0
M  V30 6499 C 599.289 1.80867 -3.87906 0
M  V30 6500 C 598.615 3.13413 -4.33216 0
M  V30 6501 C 599.915 1.0903 -5.10793 0
M  V30 6502 H 601.609 0.350381 -2.97343 0
M  V30 6503 H 599.155 0.16709 -1.43027 0
M  V30 6504 H 601.108 2.77959 -3.16729 0
M  V30 6505 H 599.832 2.63227 -1.93337 0
M  V30 6506 H 598.491 1.16119 -3.47724 0
M  V30 6507 H 598.139 3.63725 -3.47438 0
M  V30 6508 H 597.839 2.94155 -5.08671 0
M  V30 6509 H 599.363 3.81704 -4.76586 0
M  V30 6510 H 600.777 1.66295 -5.48652 0
M  V30 6511 H 599.174 0.99927 -5.91722 0
M  V30 6512 H 600.244 0.0741704 -4.84843 0
M  V30 6513 N 601.587 1.56661 0.17182 0
M  V30 6514 C 602.864 1.72838 0.915778 0
M  V30 6515 C 603.244 0.66316 2.00413 0
M  V30 6516 O 602.592 -0.322123 2.26218 0
M  V30 6517 C 602.802 3.16019 1.48097 0
M  V30 6518 C 604.15 3.76962 1.95408 0
M  V30 6519 O 605.174 3.19294 1.57892 0
M  V30 6520 O 604.033 4.78219 2.64516 0
M  V30 6521 H 601.127 0.705797 0.431021 0
M  V30 6522 H 603.673 1.68947 0.159689 0
M  V30 6523 H 602.445 3.85031 0.697618 0
M  V30 6524 H 602.068 3.24234 2.30126 0
M  V30 6525 N 603.065 -0.440357 1.51323 0
M  V30 6526 C 604.342 -1.20109 1.5438 0
M  V30 6527 C 604.722 -2.08866 0.306303 0
M  V30 6528 O 604.07 -2.1723 -0.708773 0
M  V30 6529 C 604.28 -2.00555 2.8562 0
M  V30 6530 C 605.628 -2.577 3.37455 0
M  V30 6531 O 606.652 -2.10769 2.8715 0
M  V30 6532 O 605.511 -3.43289 4.25224 0
M  V30 6533 H 602.605 -0.546668 0.620551 0
M  V30 6534 H 605.151 -0.449672 1.63634 0
M  V30 6535 H 603.923 -1.35346 3.67147 0
M  V30 6536 H 603.546 -2.82768 2.79514 0
M  V30 6537 N 604.543 -1.41418 -0.695603 0
M  V30 6538 C 605.768 -1.44329 -1.48942 0
M  V30 6539 C 606.193 -0.0501579 -1.88033 0
M  V30 6540 O 605.551 0.946598 -1.54626 0
M  V30 6541 C 605.599 -2.3578 -2.72837 0
M  V30 6542 O 604.703 -1.81482 -3.70322 0
M  V30 6543 H 604.044 -0.489838 -0.44828 0
M  V30 6544 H 606.574 -1.85878 -0.855014 0
M  V30 6545 H 606.584 -2.51654 -3.21145 0
M  V30 6546 H 605.259 -3.37005 -2.43722 0
M  V30 6547 H 603.836 -1.75058 -3.29255 0
M  V30 6548 N 606.021 0.929856 -1.27246 0
M  V30 6549 C 607.269 1.674 -1.13233 0
M  V30 6550 C 607.59 1.92311 0.322744 0
M  V30 6551 O 606.86 1.52784 1.22612 0
M  V30 6552 H 605.44 0.620411 -0.416052 0
M  V30 6553 H 608.102 1.11663 -1.59741 0
M  V30 6554 H 607.198 2.64308 -1.65975 0
M  V30 6555 N 607.499 1.09233 1.13605 0
M  V30 6556 C 608.724 0.849067 1.89224 0
M  V30 6557 C 609.149 -0.593875 1.78479 0
M  V30 6558 O 608.507 -1.41703 1.13092 0
M  V30 6559 C 608.555 1.28642 3.36873 0
M  V30 6560 O 607.659 0.44363 4.10007 0
M  V30 6561 H 607 0.30767 0.588417 0
M  V30 6562 H 609.53 1.45595 1.43748 0
M  V30 6563 H 609.54 1.27096 3.87699 0
M  V30 6564 H 608.215 2.33729 3.44011 0
M  V30 6565 H 606.792 0.523241 3.69211 0
M  V30 6566 N 608.977 -1.30795 0.87923 0
M  V30 6567 C 610.217 -1.98155 0.50141 0
M  V30 6568 C 610.581 -1.67925 -0.930863 0
M  V30 6569 O 611.782 -2.28572 -1.41451 0
M  V30 6570 C 610.053 -3.49184 0.761937 0
M  V30 6571 S 611.612 -4.36107 0.485361 0
M  V30 6572 H 608.43 -0.686025 0.186792 0
M  V30 6573 H 611.032 -1.59018 1.13726 0
M  V30 6574 H 609.736 -3.68676 1.80295 0
M  V30 6575 H 609.267 -3.93236 0.113432 0
M  V30 6576 H 611.282 -4.9154 -0.678467 0
M  V30 6577 N 610.455 -0.639598 -1.44038 0
M  V30 6578 C 611.385 0.0469443 -2.33453 0
M  V30 6579 C 612.366 0.82609 -1.48694 0
M  V30 6580 O 613.551 0.790285 -1.77393 0
M  V30 6581 C 610.681 1.02338 -3.3188 0
M  V30 6582 C 609.635 0.355284 -4.26523 0
M  V30 6583 C 608.961 1.44221 -5.14883 0
M  V30 6584 C 610.261 -0.743798 -5.16977 0
M  V30 6585 H 611.955 -0.699735 -2.91108 0
M  V30 6586 H 609.501 -0.337946 -1.39978 0
M  V30 6587 H 611.454 1.51247 -3.93322 0
M  V30 6588 H 610.178 1.80105 -2.72451 0
M  V30 6589 H 608.837 -0.113239 -3.66425 0
M  V30 6590 H 608.485 2.21097 -4.51802 0
M  V30 6591 H 608.185 1.00052 -5.79019 0
M  V30 6592 H 609.709 1.93295 -5.79197 0
M  V30 6593 H 611.123 -0.337444 -5.72306 0
M  V30 6594 H 609.52 -1.10914 -5.89761 0
M  V30 6595 H 610.59 -1.60745 -4.57481 0
M  V30 6596 N 611.933 1.52934 -0.380664 0
M  V30 6597 C 613.158 2.06363 0.207157 0
M  V30 6598 C 613.583 1.25122 1.4045 0
M  V30 6599 O 612.941 0.274062 1.79217 0
M  V30 6600 C 612.989 3.56162 0.563996 0
M  V30 6601 O 612.093 3.77552 1.65917 0
M  V30 6602 H 611.434 0.663468 0.0265859 0
M  V30 6603 H 613.964 1.9719 -0.545635 0
M  V30 6604 H 613.974 3.99453 0.830752 0
M  V30 6605 H 612.649 4.14732 -0.311427 0
M  V30 6606 H 611.226 3.46154 1.3868 0
M  V30 6607 N 613.412 0.11024 1.57214 0
M  V30 6608 C 614.66 -0.548783 1.94506 0
M  V30 6609 C 614.981 -1.67772 0.99386 0
M  V30 6610 O 614.251 -1.9584 0.0485841 0
M  V30 6611 H 612.831 -0.205715 0.718116 0
M  V30 6612 H 615.493 0.177127 1.94093 0
M  V30 6613 H 614.589 -0.949096 2.97319 0
M  V30 6614 N 614.89 -1.56749 -0.16351 0
M  V30 6615 C 616.115 -1.86938 -0.898264 0
M  V30 6616 C 616.54 -0.697456 -1.74692 0
M  V30 6617 O 615.898 0.353327 -1.77824 0
M  V30 6618 C 615.946 -3.15599 -1.74441 0
M  V30 6619 O 615.05 -2.98371 -2.8469 0
M  V30 6620 H 614.391 -0.614659 -0.251178 0
M  V30 6621 H 616.921 -2.03979 -0.159298 0
M  V30 6622 H 616.931 -3.47202 -2.14277 0
M  V30 6623 H 615.606 -4.00505 -1.1211 0
M  V30 6624 H 614.183 -2.7814 -2.4838 0
M  V30 6625 N 616.368 0.432326 -1.51554 0
M  V30 6626 C 617.3 1.54357 -1.6943 0
M  V30 6627 C 618.313 1.52311 -0.574897 0
M  V30 6628 O 619.502 1.56997 -0.849369 0
M  V30 6629 C 616.602 2.93273 -1.69836 0
M  V30 6630 C 615.775 3.19768 -2.98442 0
M  V30 6631 C 614.834 4.38433 -2.90969 0
M  V30 6632 O 613.86 4.36842 -3.64908 0
M  V30 6633 N 615.062 5.42276 -2.07163 0
M  V30 6634 H 617.827 1.39426 -2.65293 0
M  V30 6635 H 615.388 0.621331 -1.49503 0
M  V30 6636 H 617.38 3.70687 -1.62399 0
M  V30 6637 H 615.95 3.01777 -0.815456 0
M  V30 6638 H 615.17 2.30607 -3.19709 0
M  V30 6639 H 616.458 3.343 -3.83563 0
M  V30 6640 H 615.856 5.46407 -1.46477 0
M  V30 6641 H 614.413 6.18524 -2.05601 0
M  V30 6642 N 617.846 1.41785 0.688094 0
M  V30 6643 C 619.262 1.24419 0.999608 0
M  V30 6644 C 619.462 0.138868 2.01021 0
M  V30 6645 O 618.518 -0.494283 2.47615 0
M  V30 6646 C 619.831 2.59625 1.51709 0
M  V30 6647 C 621.379 2.66869 1.63554 0
M  V30 6648 C 621.854 4.0241 2.18702 0
M  V30 6649 N 623.345 4.04295 2.26053 0
M  V30 6650 C 624.08 5.05977 2.69768 0
M  V30 6651 N 623.576 6.18047 3.13033 0
M  V30 6652 N 625.369 4.93336 2.69398 0
M  V30 6653 H 617.52 2.12392 0.0187427 0
M  V30 6654 H 619.783 0.945347 0.0708673 0
M  V30 6655 H 619.489 3.41297 0.849059 0
M  V30 6656 H 619.363 2.82628 2.49803 0
M  V30 6657 H 621.75 1.8555 2.29467 0
M  V30 6658 H 621.831 2.47668 0.639857 0
M  V30 6659 H 621.475 4.8418 1.53402 0
M  V30 6660 H 621.405 4.18955 3.19037 0
M  V30 6661 H 623.896 3.23383 1.9553 0
M  V30 6662 H 624.209 6.91498 3.45038 0
M  V30 6663 H 622.554 6.21572 3.10923 0
M  V30 6664 H 625.745 4.04865 2.34952 0
M  V30 6665 H 625.918 5.72717 3.03148 0
M  V30 6666 N 619.324 -0.923095 1.27737 0
M  V30 6667 C 620.552 -1.70525 1.17171 0
M  V30 6668 C 620.967 -1.86847 -0.270881 0
M  V30 6669 O 620.324 -1.38879 -1.18401 0
M  V30 6670 C 620.375 -3.10242 1.85559 0
M  V30 6671 O 620.096 -2.94683 3.24182 0
M  V30 6672 C 621.597 -4.04586 1.81176 0
M  V30 6673 H 618.817 -0.533347 0.407163 0
M  V30 6674 H 621.361 -1.15599 1.68692 0
M  V30 6675 H 619.516 -3.62014 1.3793 0
M  V30 6676 H 619.93 -3.83045 3.58297 0
M  V30 6677 H 621.404 -5.00119 2.33633 0
M  V30 6678 H 621.881 -4.3218 0.782099 0
M  V30 6679 H 622.487 -3.58741 2.2844 0
M  V30 6680 N 620.802 -1.09834 -1.13024 0
M  V30 6681 C 621.732 -0.763451 -2.20666 0
M  V30 6682 C 622.713 0.260778 -1.68089 0
M  V30 6683 O 623.898 0.127915 -1.93778 0
M  V30 6684 C 621.028 -0.187744 -3.46792 0
M  V30 6685 C 619.982 -1.14196 -4.12484 0
M  V30 6686 C 619.308 -0.427755 -5.32986 0
M  V30 6687 C 620.608 -2.48607 -4.59338 0
M  V30 6688 H 622.302 -1.66347 -2.48936 0
M  V30 6689 H 619.848 -0.801261 -1.19649 0
M  V30 6690 H 621.801 0.0586375 -4.21359 0
M  V30 6691 H 620.525 0.747485 -3.17931 0
M  V30 6692 H 619.184 -1.37369 -3.3989 0
M  V30 6693 H 618.832 0.511747 -5.0039 0
M  V30 6694 H 618.532 -1.06403 -5.77886 0
M  V30 6695 H 620.056 -0.189772 -6.10305 0
M  V30 6696 H 621.47 -2.29618 -5.25308 0
M  V30 6697 H 619.867 -3.08062 -5.14993 0
M  V30 6698 H 620.937 -3.09062 -3.73642 0
M  V30 6699 N 622.28 1.30327 -0.886154 0
M  V30 6700 C 623.691 1.78243 -0.555554 0
M  V30 6701 C 624.042 1.72849 0.928314 0
M  V30 6702 O 623.167 1.30607 1.72542 0
M  V30 6703 C 623.762 3.23654 -1.00168 0
M  V30 6704 C 622.321 3.69401 -0.722471 0
M  V30 6705 C 621.468 2.50753 -1.18399 0
M  V30 6706 H 624.419 1.1718 -1.07026 0
M  V30 6707 H 624.44 3.79056 -0.331152 0
M  V30 6708 H 623.952 3.27548 -2.08169 0
M  V30 6709 H 622.053 3.70995 0.345496 0
M  V30 6710 H 622.166 4.60818 -1.31085 0
M  V30 6711 H 620.53 2.47452 -0.603303 0
M  V30 6712 H 621.313 2.57383 -2.27176 0
M  V30 6713 N 623.758 0.647228 1.43697 0
M  V30 6714 C 624.983 0.164083 2.0675 0
M  V30 6715 C 625.408 -1.15892 1.48158 0
M  V30 6716 O 624.766 -1.71459 0.589194 0
M  V30 6717 C 624.814 0.0800368 3.60511 0
M  V30 6718 O 623.918 -0.959453 4.01084 0
M  V30 6719 H 623.259 0.0921288 0.657578 0
M  V30 6720 H 625.789 0.88846 1.84303 0
M  V30 6721 H 625.799 -0.105263 4.07864 0
M  V30 6722 H 624.474 1.04586 4.02535 0
M  V30 6723 H 623.051 -0.747425 3.65333 0
M  V30 6724 N 625.236 -1.5273 0.388769 0
M  V30 6725 C 626.199 -2.25043 -0.434544 0
M  V30 6726 C 627.199 -1.26661 -0.990644 0
M  V30 6727 O 628.389 -1.50762 -0.872731 0
M  V30 6728 C 625.521 -3.00507 -1.60961 0
M  V30 6729 H 626.714 -2.99242 0.198549 0
M  V30 6730 H 624.267 -1.55664 0.140875 0
M  V30 6731 H 625.002 -2.30607 -2.28015 0
M  V30 6732 H 624.787 -3.72716 -1.21757 0
M  V30 6733 H 626.277 -3.55413 -2.19251 0
M  V30 6734 N 626.714 -0.118576 -1.57153 0
M  V30 6735 C 627.939 0.550582 -1.99958 0
M  V30 6736 C 628.364 1.59458 -0.997736 0
M  V30 6737 O 627.722 1.81274 0.0306269 0
M  V30 6738 C 627.77 1.15379 -3.41643 0
M  V30 6739 O 626.874 2.26932 -3.44348 0
M  V30 6740 H 626.215 0.137567 -0.649593 0
M  V30 6741 H 628.745 -0.206926 -2.03551 0
M  V30 6742 H 628.755 1.48942 -3.79843 0
M  V30 6743 H 627.43 0.389087 -4.14076 0
M  V30 6744 H 626.007 1.94812 -3.17967 0
M  V30 6745 N 628.193 1.56834 0.155195 0
M  V30 6746 C 629.604 1.72421 0.716082 0
M  V30 6747 C 629.955 0.731685 1.82046 0
M  V30 6748 O 629.08 -0.103481 2.16152 0
M  V30 6749 C 629.675 3.12629 1.30571 0
M  V30 6750 C 628.234 3.29846 1.81325 0
M  V30 6751 C 627.381 2.68359 0.698494 0
M  V30 6752 H 630.332 1.58544 -0.0703861 0
M  V30 6753 H 630.353 3.12174 2.1755 0
M  V30 6754 H 629.865 3.84844 0.501701 0
M  V30 6755 H 627.966 2.62614 2.64319 0
M  V30 6756 H 628.079 4.37727 1.9476 0
M  V30 6757 H 626.443 2.28604 1.12305 0
M  V30 6758 H 627.226 3.43171 -0.0939366 0
M  V30 6759 N 629.671 -0.424282 1.51781 0
M  V30 6760 C 630.896 -1.19928 1.6921 0
M  V30 6761 C 631.321 -1.8392 0.394355 0
M  V30 6762 O 630.679 -1.69371 -0.646778 0
M  V30 6763 C 630.727 -2.24937 2.81843 0
M  V30 6764 O 629.831 -3.3073 2.46356 0
M  V30 6765 H 629.172 -0.35078 0.563781 0
M  V30 6766 H 631.702 -0.499401 1.98412 0
M  V30 6767 H 631.712 -2.69512 3.06312 0
M  V30 6768 H 630.387 -1.77742 3.76006 0
M  V30 6769 H 628.964 -2.9154 2.32505 0
M  V30 6770 N 631.149 -1.42148 -0.680565 0
M  V30 6771 C 632.56 -1.3768 -1.26099 0
M  V30 6772 C 632.911 -0.0672348 -1.96085 0
M  V30 6773 O 632.036 0.834172 -1.99676 0
M  V30 6774 C 632.631 -2.49387 -2.29328 0
M  V30 6775 C 631.19 -2.4827 -2.82911 0
M  V30 6776 C 630.337 -2.2847 -1.57152 0
M  V30 6777 H 633.288 -1.51446 -0.474326 0
M  V30 6778 H 633.309 -2.19307 -3.10941 0
M  V30 6779 H 632.821 -3.44686 -1.78363 0
M  V30 6780 H 630.922 -1.56773 -3.38013 0
M  V30 6781 H 631.035 -3.45109 -3.3232 0
M  V30 6782 H 629.399 -1.76623 -1.83511 0
M  V30 6783 H 630.182 -3.25816 -1.0816 0
M  V30 6784 N 632.627 0.916307 -1.28225 0
M  V30 6785 C 633.875 1.6619 -1.15002 0
M  V30 6786 C 634.196 1.92642 0.302329 0
M  V30 6787 O 633.466 1.54076 1.20985 0
M  V30 6788 H 632.046 0.615964 -0.422608 0
M  V30 6789 H 634.708 1.09963 -1.60917 0
M  V30 6790 H 633.804 2.62533 -1.68769 0
M  V30 6791 N 634.105 1.10431 1.1244 0
M  V30 6792 C 635.335 0.867612 1.87499 0
M  V30 6793 C 635.743 -0.585475 1.79913 0
M  V30 6794 O 635.086 -1.41539 1.171 0
M  V30 6795 C 635.148 1.2374 3.37533 0
M  V30 6796 C 634.812 2.69751 3.68895 0
M  V30 6797 C 635.809 3.67988 3.67261 0
M  V30 6798 C 633.494 3.06135 3.98229 0
M  V30 6799 C 635.488 5.00632 3.9452 0
M  V30 6800 C 633.175 4.38967 4.25149 0
M  V30 6801 C 634.173 5.36025 4.23281 0
M  V30 6802 O 633.861 6.66465 4.49533 0
M  V30 6803 H 633.593 0.311196 0.600111 0
M  V30 6804 H 636.147 1.47257 1.43194 0
M  V30 6805 H 634.377 0.575537 3.82393 0
M  V30 6806 H 636.066 0.978187 3.93937 0
M  V30 6807 H 636.832 3.41224 3.44661 0
M  V30 6808 H 632.711 2.31214 3.98825 0
M  V30 6809 H 636.255 5.7638 3.92978 0
M  V30 6810 H 632.152 4.6547 4.47223 0
M  V30 6811 H 632.92 6.72095 4.67152 0
M  V30 6812 N 635.583 -1.29855 0.893053 0
M  V30 6813 C 636.513 -2.3035 0.382249 0
M  V30 6814 C 637.494 -1.61328 -0.539203 0
M  V30 6815 O 638.679 -1.88882 -0.451342 0
M  V30 6816 C 635.809 -3.45024 -0.396983 0
M  V30 6817 C 634.763 -4.258 0.433437 0
M  V30 6818 C 634.089 -5.32605 -0.472889 0
M  V30 6819 C 635.389 -4.94549 1.67984 0
M  V30 6820 H 637.083 -2.73325 1.22205 0
M  V30 6821 H 634.629 -1.314 0.589073 0
M  V30 6822 H 636.582 -4.14398 -0.765024 0
M  V30 6823 H 635.306 -3.00875 -1.2705 0
M  V30 6824 H 633.965 -3.58125 0.783723 0
M  V30 6825 H 633.613 -4.84702 -1.34435 0
M  V30 6826 H 633.313 -5.87547 0.0789958 0
M  V30 6827 H 634.837 -6.04832 -0.837269 0
M  V30 6828 H 636.251 -5.56395 1.38192 0
M  V30 6829 H 634.648 -5.59393 2.17254 0
M  V30 6830 H 635.718 -4.20215 2.41965 0
M  V30 6831 N 637.061 -0.65484 -1.43351 0
M  V30 6832 C 638.309 -0.168559 -2.01396 0
M  V30 6833 C 638.63 1.22235 -1.51933 0
M  V30 6834 O 637.9 1.81685 -0.732627 0
M  V30 6835 H 636.48 -0.0593244 -0.744641 0
M  V30 6836 H 639.142 -0.846871 -1.75539 0
M  V30 6837 H 638.238 -0.154428 -3.11718 0
M  V30 6838 N 638.539 1.52521 -0.396863 0
M  V30 6839 C 639.955 1.5953 -0.0471659 0
M  V30 6840 C 640.155 1.41044 1.43906 0
M  V30 6841 O 639.211 1.23122 2.20448 0
M  V30 6842 C 640.524 2.95972 -0.531113 0
M  V30 6843 C 642.072 3.09172 -0.488024 0
M  V30 6844 C 642.547 4.48075 -0.948281 0
M  V30 6845 N 644.038 4.54281 -0.9046 0
M  V30 6846 C 644.773 5.60007 -1.23205 0
M  V30 6847 N 644.269 6.73343 -1.63036 0
M  V30 6848 N 646.062 5.50151 -1.15282 0
M  V30 6849 H 638.213 1.62786 -1.36435 0
M  V30 6850 H 640.476 0.76514 -0.559701 0
M  V30 6851 H 640.182 3.14741 -1.56942 0
M  V30 6852 H 640.056 3.77143 0.0657922 0
M  V30 6853 H 642.443 2.90095 0.541211 0
M  V30 6854 H 642.524 2.29937 -1.12083 0
M  V30 6855 H 642.168 4.67894 -1.97578 0
M  V30 6856 H 642.098 5.25788 -0.292412 0
M  V30 6857 H 644.589 3.72918 -0.6116 0
M  V30 6858 H 644.902 7.49992 -1.86365 0
M  V30 6859 H 643.247 6.74655 -1.66929 0
M  V30 6860 H 646.438 4.6049 -0.840602 0
M  V30 6861 H 646.611 6.32444 -1.41133 0
M  V30 6862 N 640.017 0.126909 1.57088 0
M  V30 6863 C 641.265 -0.528123 1.95078 0
M  V30 6864 C 641.586 -1.66708 1.0116 0
M  V30 6865 O 640.856 -1.95777 0.0693527 0
M  V30 6866 H 639.436 -0.198087 0.720257 0
M  V30 6867 H 642.098 0.197703 1.93895 0
M  V30 6868 H 641.194 -0.917507 2.98309 0
M  V30 6869 N 641.495 -1.56914 -0.146875 0
M  V30 6870 C 642.458 -1.97368 -1.16526 0
M  V30 6871 C 643.458 -0.860223 -1.35856 0
M  V30 6872 O 644.648 -1.12684 -1.32846 0
M  V30 6873 C 641.78 -2.28974 -2.52555 0
M  V30 6874 H 642.973 -2.88523 -0.818209 0
M  V30 6875 H 640.526 -1.5135 -0.390221 0
M  V30 6876 H 641.261 -1.40611 -2.92231 0
M  V30 6877 H 641.046 -3.10157 -2.39886 0
M  V30 6878 H 642.536 -2.61109 -3.25902 0
M  V30 6879 N 642.974 0.416227 -1.52004 0
M  V30 6880 C 644.385 0.995319 -1.57957 0
M  V30 6881 C 644.736 1.91744 -0.415754 0
M  V30 6882 O 643.861 2.11349 0.464808 0
M  V30 6883 C 644.456 1.81191 -2.86278 0
M  V30 6884 C 643.015 2.34115 -2.94732 0
M  V30 6885 C 642.162 1.139 -2.52828 0
M  V30 6886 H 645.113 0.196716 -1.57476 0
M  V30 6887 H 645.134 2.66859 -2.71231 0
M  V30 6888 H 644.646 1.14051 -3.70963 0
M  V30 6889 H 642.747 3.04647 -2.14525 0
M  V30 6890 H 642.86 2.65466 -3.98829 0
M  V30 6891 H 641.224 1.49081 -2.06511 0
M  V30 6892 H 642.007 0.483383 -3.3988 0
M  V30 6893 N 644.452 1.42507 0.673017 0
M  V30 6894 C 645.863 1.38347 1.25367 0
M  V30 6895 C 646.214 0.0776327 1.96046 0
M  V30 6896 O 645.339 -0.823571 2.00116 0
M  V30 6897 C 645.934 2.506 2.28002 0
M  V30 6898 C 644.493 2.49767 2.81591 0
M  V30 6899 C 643.64 2.293 1.55938 0
M  V30 6900 H 646.591 1.51695 0.466288 0
M  V30 6901 H 646.612 2.20953 3.09774 0
M  V30 6902 H 646.124 3.45627 1.76532 0
M  V30 6903 H 644.225 1.58563 3.37177 0
M  V30 6904 H 644.338 3.46867 3.30485 0
M  V30 6905 H 642.702 1.77594 1.82572 0
M  V30 6906 H 643.485 3.26385 1.06431 0
M  V30 6907 N 645.93 -0.909495 1.28709 0
M  V30 6908 C 647.341 -1.47419 1.14563 0
M  V30 6909 C 647.692 -1.94432 -0.262832 0
M  V30 6910 O 646.817 -1.82842 -1.15748 0
M  V30 6911 C 647.412 -2.67933 2.07358 0
M  V30 6912 C 645.971 -3.20568 1.97264 0
M  V30 6913 C 645.118 -1.93269 1.98852 0
M  V30 6914 H 648.069 -0.721787 1.41336 0
M  V30 6915 H 648.09 -3.43339 1.64007 0
M  V30 6916 H 647.602 -2.33685 3.09859 0
M  V30 6917 H 645.703 -3.59531 0.978157 0
M  V30 6918 H 645.816 -3.85529 2.84436 0
M  V30 6919 H 644.18 -2.10553 1.43317 0
M  V30 6920 H 644.963 -1.61312 3.0304 0
M  V30 6921 N 647.408 -1.11026 -1.11852 0
M  V30 6922 C 648.654 -0.857729 -1.83768 0
M  V30 6923 C 648.987 0.615143 -1.842 0
M  V30 6924 O 648.262 1.45391 -1.29196 0
M  V30 6925 C 648.545 -1.41453 -3.31154 0
M  V30 6926 C 648.398 -2.95471 -3.39142 0
M  V30 6927 C 649.717 -1.0619 -4.27097 0
M  V30 6928 H 646.836 -0.313044 -0.667212 0
M  V30 6929 H 649.478 -1.37443 -1.31185 0
M  V30 6930 H 647.628 -0.975052 -3.76065 0
M  V30 6931 H 649.3 -3.4799 -3.02821 0
M  V30 6932 H 647.543 -3.31759 -2.79497 0
M  V30 6933 H 648.214 -3.29515 -4.42859 0
M  V30 6934 H 650.69 -1.44122 -3.90344 0
M  V30 6935 H 649.566 -1.47832 -5.28618 0
M  V30 6936 H 649.827 0.0278912 -4.42091 0
M  V30 6937 N 648.886 1.2938 -0.899927 0
M  V30 6938 C 649.796 2.31462 -0.382437 0
M  V30 6939 C 650.812 1.65956 0.522929 0
M  V30 6940 O 651.988 1.97131 0.412454 0
M  V30 6941 C 649.053 3.44595 0.381472 0
M  V30 6942 C 648.114 4.25692 -0.555444 0
M  V30 6943 C 647.347 5.33422 0.172102 0
M  V30 6944 O 647.57 5.53053 1.396 0
M  V30 6945 O 646.504 5.99939 -0.485491 0
M  V30 6946 H 650.33 2.77706 -1.22934 0
M  V30 6947 H 647.915 1.33821 -0.664259 0
M  V30 6948 H 649.797 4.13474 0.813442 0
M  V30 6949 H 648.472 3.00458 1.20443 0
M  V30 6950 H 647.379 3.59453 -1.03653 0
M  V30 6951 H 648.712 4.73471 -1.34483 0
M  V30 6952 N 650.364 0.662433 1.43002 0
M  V30 6953 C 651.294 -0.00979809 2.33498 0
M  V30 6954 C 652.275 -0.802329 1.49989 0
M  V30 6955 O 653.46 -0.761964 1.78627 0
M  V30 6956 C 650.59 -0.970446 3.33466 0
M  V30 6957 C 649.544 -0.287383 4.27034 0
M  V30 6958 C 648.87 -1.36012 5.17112 0
M  V30 6959 C 650.17 0.82595 5.15728 0
M  V30 6960 H 651.864 0.745959 2.89958 0
M  V30 6961 H 649.41 0.360172 1.39423 0
M  V30 6962 H 651.363 -1.44971 3.95679 0
M  V30 6963 H 650.087 -1.75748 2.75282 0
M  V30 6964 H 648.746 0.17152 3.66199 0
M  V30 6965 H 648.394 -2.13882 4.55262 0
M  V30 6966 H 648.094 -0.908276 5.80538 0
M  V30 6967 H 649.618 -1.84056 5.82199 0
M  V30 6968 H 651.032 0.42845 5.71697 0
M  V30 6969 H 649.429 1.20282 5.87922 0
M  V30 6970 H 650.499 1.68003 4.54866 0
M  V30 6971 N 651.842 -1.52309 0.404946 0
M  V30 6972 C 653.082 -2.03677 -0.171779 0
M  V30 6973 C 653.446 -1.28419 -1.42733 0
M  V30 6974 O 654.647 -1.69991 -2.08222 0
M  V30 6975 C 652.918 -3.54951 -0.417701 0
M  V30 6976 S 654.477 -4.28114 -0.962472 0
M  V30 6977 H 651.295 -0.709445 -0.0469912 0
M  V30 6978 H 653.897 -1.874 0.556901 0
M  V30 6979 H 652.601 -4.07306 0.50295 0
M  V30 6980 H 652.132 -3.75462 -1.17437 0
M  V30 6981 H 654.147 -4.42589 -2.24342 0
M  V30 6982 N 653.32 -0.135238 -1.57019 0
M  V30 6983 C 654.283 0.794707 -2.14981 0
M  V30 6984 C 655.283 1.18342 -1.08866 0
M  V30 6985 O 656.473 1.10627 -1.34563 0
M  V30 6986 C 653.605 2.07685 -2.70333 0
M  V30 6987 H 654.798 0.290696 -2.98488 0
M  V30 6988 H 652.351 0.114128 -1.55883 0
M  V30 6989 H 653.086 2.6248 -1.9046 0
M  V30 6990 H 652.871 1.80745 -3.47957 0
M  V30 6991 H 654.361 2.74127 -3.1503 0
M  V30 6992 N 654.798 1.5699 0.138552 0
M  V30 6993 C 656.045 1.83809 0.849732 0
M  V30 6994 C 656.373 0.717409 1.80786 0
M  V30 6995 O 655.628 -0.292897 1.93496 0
M  V30 6996 C 655.927 3.17007 1.65049 0
M  V30 6997 C 655.593 4.43037 0.838398 0
M  V30 6998 C 654.255 4.77262 0.614385 0
M  V30 6999 C 656.607 5.20495 0.271044 0
M  V30 7000 C 653.935 5.864 -0.187552 0
M  V30 7001 C 656.287 6.30476 -0.517979 0
M  V30 7002 C 654.951 6.63245 -0.75249 0
M  V30 7003 H 654.221 0.672605 0.310939 0
M  V30 7004 H 656.868 1.91166 0.112971 0
M  V30 7005 H 655.173 3.05138 2.4576 0
M  V30 7006 H 656.87 3.34975 2.20437 0
M  V30 7007 H 653.46 4.16211 1.02307 0
M  V30 7008 H 657.644 4.94422 0.431371 0
M  V30 7009 H 652.9 6.10226 -0.378659 0
M  V30 7010 H 657.074 6.89686 -0.964694 0
M  V30 7011 H 654.701 7.47648 -1.37573 0
M  V30 7012 N 656.276 -0.40816 1.52223 0
M  V30 7013 C 657.687 -0.986929 1.58482 0
M  V30 7014 C 658.038 -1.91521 0.425917 0
M  V30 7015 O 657.163 -2.11593 -0.453593 0
M  V30 7016 C 657.758 -1.7967 2.87235 0
M  V30 7017 C 656.317 -2.32549 2.9597 0
M  V30 7018 C 655.464 -1.12558 2.53428 0
M  V30 7019 H 658.415 -0.188362 1.57578 0
M  V30 7020 H 658.436 -2.65417 2.72642 0
M  V30 7021 H 657.948 -1.12082 3.71563 0
M  V30 7022 H 656.049 -3.03505 2.16137 0
M  V30 7023 H 656.162 -2.63348 4.00231 0
M  V30 7024 H 654.526 -1.47984 2.07299 0
M  V30 7025 H 655.309 -0.465351 3.40131 0
M  V30 7026 N 657.755 -1.42862 -0.66545 0
M  V30 7027 C 658.665 -1.49491 -1.80803 0
M  V30 7028 C 659.681 -0.382914 -1.69734 0
M  V30 7029 O 660.857 -0.635223 -1.9112 0
M  V30 7030 C 657.922 -1.40383 -3.17007 0
M  V30 7031 C 656.983 -2.62152 -3.39963 0
M  V30 7032 C 656.216 -2.53469 -4.69669 0
M  V30 7033 O 656.439 -1.57568 -5.48205 0
M  V30 7034 O 655.373 -3.43763 -4.94075 0
M  V30 7035 H 659.199 -2.45949 -1.78165 0
M  V30 7036 H 656.784 -1.24728 -0.822387 0
M  V30 7037 H 658.666 -1.377 -3.98267 0
M  V30 7038 H 657.341 -0.470546 -3.20262 0
M  V30 7039 H 656.248 -2.70409 -2.58515 0
M  V30 7040 H 657.581 -3.54411 -3.41546 0
M  V30 7041 N 659.233 0.902656 -1.29189 0
M  V30 7042 C 660.479 1.6555 -1.18172 0
M  V30 7043 C 660.834 1.90569 0.264788 0
M  V30 7044 O 660.127 1.50292 1.1884 0
M  V30 7045 C 660.321 3.011 -1.92545 0
M  V30 7046 C 660.15 2.89312 -3.4428 0
M  V30 7047 C 658.92 2.90239 -4.1363 0
M  V30 7048 C 661.118 2.6656 -4.3983 0
M  V30 7049 N 659.1 2.69156 -5.5175 0
M  V30 7050 C 660.471 2.54429 -5.6539 0
M  V30 7051 C 662.526 2.51644 -4.29627 0
M  V30 7052 C 661.229 2.289 -6.81907 0
M  V30 7053 C 663.255 2.27498 -5.45892 0
M  V30 7054 C 662.617 2.16129 -6.70423 0
M  V30 7055 H 658.716 0.611519 -0.48741 0
M  V30 7056 H 661.3 1.06514 -1.62981 0
M  V30 7057 H 659.471 3.58202 -1.50154 0
M  V30 7058 H 661.203 3.65471 -1.73818 0
M  V30 7059 H 657.958 3.01412 -3.65305 0
M  V30 7060 H 658.382 2.61676 -6.24383 0
M  V30 7061 H 663.024 2.59178 -3.34045 0
M  V30 7062 H 660.742 2.20104 -7.77547 0
M  V30 7063 H 664.328 2.16805 -5.39895 0
M  V30 7064 H 663.208 1.97703 -7.5887 0
M  V30 7065 N 660.711 1.11618 1.11262 0
M  V30 7066 C 661.658 0.7762 2.17356 0
M  V30 7067 C 662.628 -0.253152 1.6416 0
M  V30 7068 O 663.813 -0.129655 1.90359 0
M  V30 7069 C 660.953 0.227581 3.44349 0
M  V30 7070 C 660.066 1.31372 4.1154 0
M  V30 7071 C 659.201 0.72544 5.26223 0
M  V30 7072 C 658.24 1.7913 5.85302 0
M  V30 7073 N 657.377 1.22237 6.91377 0
M  V30 7074 H 662.217 1.68508 2.45783 0
M  V30 7075 H 659.754 0.841475 1.20655 0
M  V30 7076 H 661.712 -0.108483 4.17059 0
M  V30 7077 H 660.342 -0.644486 3.16301 0
M  V30 7078 H 659.394 1.7667 3.36885 0
M  V30 7079 H 660.706 2.12005 4.51504 0
M  V30 7080 H 659.86 0.339541 6.05749 0
M  V30 7081 H 658.599 -0.112188 4.87571 0
M  V30 7082 H 657.604 2.18648 5.04453 0
M  V30 7083 H 658.829 2.63199 6.26022 0
M  V30 7084 H 656.775 0.406423 6.5474 0
M  V30 7085 H 656.692 1.9654 7.30006 0
M  V30 7086 H 657.96 0.863426 7.74703 0
M  V30 7087 N 662.189 -1.289 0.906776 0
M  V30 7088 C 663.152 -2.25777 0.394656 0
M  V30 7089 C 664.152 -1.53621 -0.475119 0
M  V30 7090 O 665.342 -1.71949 -0.279165 0
M  V30 7091 C 662.474 -3.38113 -0.43499 0
M  V30 7092 H 663.667 -2.72592 1.25033 0
M  V30 7093 H 661.22 -1.40463 0.685547 0
M  V30 7094 H 661.955 -2.96648 -1.31036 0
M  V30 7095 H 661.74 -3.91647 0.188334 0
M  V30 7096 H 663.23 -4.10168 -0.784365 0
M  V30 7097 N 663.667 -0.670007 -1.42649 0
M  V30 7098 C 665.078 -0.268118 -1.84765 0
M  V30 7099 C 665.429 1.18877 -1.56086 0
M  V30 7100 O 664.554 1.90947 -1.01825 0
M  V30 7101 C 665.149 -0.47984 -3.35385 0
M  V30 7102 C 663.708 -0.132116 -3.76168 0
M  V30 7103 C 662.855 -0.774611 -2.66261 0
M  V30 7104 H 665.806 -0.872509 -1.32563 0
M  V30 7105 H 665.827 0.269522 -3.79544 0
M  V30 7106 H 665.339 -1.54026 -3.56227 0
M  V30 7107 H 663.44 0.92505 -3.60934 0
M  V30 7108 H 663.553 -0.569294 -4.75706 0
M  V30 7109 H 661.917 -0.206353 -2.53863 0
M  V30 7110 H 662.7 -1.83839 -2.89928 0
M  V30 7111 N 665.145 1.52092 -0.413018 0
M  V30 7112 C 666.393 2.01456 0.161178 0
M  V30 7113 C 666.714 1.30034 1.45314 0
M  V30 7114 O 665.984 0.427435 1.9118 0
M  V30 7115 H 664.564 0.744376 0.0625526 0
M  V30 7116 H 667.226 1.86974 -0.550151 0
M  V30 7117 H 666.322 3.1008 0.354517 0
M  V30 7118 N 666.623 0.143563 1.56945 0
M  V30 7119 C 667.586 -0.783295 2.154 0
M  V30 7120 C 668.586 -1.17763 1.09492 0
M  V30 7121 O 669.776 -1.09912 1.35148 0
M  V30 7122 C 666.908 -2.06248 2.7143 0
M  V30 7123 H 668.101 -0.274863 2.98638 0
M  V30 7124 H 665.654 -0.105859 1.55941 0
M  V30 7125 H 666.389 -2.61466 1.91849 0
M  V30 7126 H 666.174 -1.78897 3.4891 0
M  V30 7127 H 667.664 -2.72453 3.16479 0
M  V30 7128 N 668.101 -1.57061 -0.130224 0
M  V30 7129 C 669.031 -2.02552 -1.16168 0
M  V30 7130 C 670.012 -0.907971 -1.4384 0
M  V30 7131 O 671.197 -1.17693 -1.54473 0
M  V30 7132 C 668.327 -2.42035 -2.49071 0
M  V30 7133 C 667.281 -3.5713 -2.35886 0
M  V30 7134 C 666.607 -3.82478 -3.7365 0
M  V30 7135 C 667.907 -4.89236 -1.8288 0
M  V30 7136 H 669.601 -2.8897 -0.783359 0
M  V30 7137 H 667.147 -1.39021 -0.375376 0
M  V30 7138 H 669.1 -2.72462 -3.21469 0
M  V30 7139 H 667.824 -1.52573 -2.88771 0
M  V30 7140 H 666.483 -3.26895 -1.65938 0
M  V30 7141 H 666.131 -2.9024 -4.10816 0
M  V30 7142 H 665.831 -4.59944 -3.65685 0
M  V30 7143 H 667.355 -4.15347 -4.47571 0
M  V30 7144 H 668.769 -5.18272 -2.45085 0
M  V30 7145 H 667.166 -5.70624 -1.85763 0
M  V30 7146 H 668.236 -4.78494 -0.785571 0
M  V30 7147 N 669.579 0.400081 -1.52437 0
M  V30 7148 C 670.509 1.4947 -1.7939 0
M  V30 7149 C 671.49 1.57383 -0.645329 0
M  V30 7150 O 672.675 1.72511 -0.891826 0
M  V30 7151 C 669.805 2.87201 -1.95276 0
M  V30 7152 C 668.759 2.94134 -3.10917 0
M  V30 7153 C 668.085 4.34207 -3.1204 0
M  V30 7154 C 669.385 2.64791 -4.50203 0
M  V30 7155 H 671.079 1.27165 -2.71052 0
M  V30 7156 H 668.625 0.610312 -1.30427 0
M  V30 7157 H 670.578 3.63772 -2.12715 0
M  V30 7158 H 669.302 3.10819 -1.00294 0
M  V30 7159 H 667.961 2.20009 -2.93243 0
M  V30 7160 H 667.609 4.54848 -2.14761 0
M  V30 7161 H 667.309 4.39768 -3.89715 0
M  V30 7162 H 668.833 5.127 -3.31619 0
M  V30 7163 H 670.247 3.31083 -4.68035 0
M  V30 7164 H 668.644 2.81717 -5.29864 0
M  V30 7165 H 669.714 1.60184 -4.57678 0
M  V30 7166 N 671.057 1.43213 0.657864 0
M  V30 7167 C 672.282 1.48227 1.45064 0
M  V30 7168 C 672.707 0.0999939 1.87834 0
M  V30 7169 O 672.065 -0.905269 1.57081 0
M  V30 7170 C 672.113 2.42931 2.6649 0
M  V30 7171 O 671.217 1.91237 3.6538 0
M  V30 7172 H 670.558 0.501551 0.435135 0
M  V30 7173 H 673.088 1.8808 0.805431 0
M  V30 7174 H 673.098 2.6008 3.1436 0
M  V30 7175 H 671.773 3.43348 2.34701 0
M  V30 7176 H 670.35 1.83726 3.24498 0
M  V30 7177 N 672.536 -0.895792 1.29666 0
M  V30 7178 C 673.466 -2.01673 1.17688 0
M  V30 7179 C 674.447 -1.69955 0.0701317 0
M  V30 7180 O 675.632 -1.9258 0.250289 0
M  V30 7181 C 672.762 -3.36568 0.856681 0
M  V30 7182 C 671.716 -3.82509 1.92017 0
M  V30 7183 C 671.042 -5.14574 1.4532 0
M  V30 7184 C 672.342 -4.02409 3.32963 0
M  V30 7185 H 674.036 -2.11953 2.11463 0
M  V30 7186 H 671.582 -1.01839 1.01807 0
M  V30 7187 H 673.535 -4.14498 0.759577 0
M  V30 7188 H 672.259 -3.26391 -0.116763 0
M  V30 7189 H 670.918 -3.068 2.00673 0
M  V30 7190 H 670.566 -5.00815 0.468325 0
M  V30 7191 H 670.266 -5.46283 2.16447 0
M  V30 7192 H 671.79 -5.9504 1.36968 0
M  V30 7193 H 673.204 -4.70808 3.27127 0
M  V30 7194 H 671.601 -4.45478 4.02082 0
M  V30 7195 H 672.671 -3.06616 3.75652 0
M  V30 7196 N 674.014 -1.12206 -1.10668 0
M  V30 7197 C 675.425 -0.890657 -1.64086 0
M  V30 7198 C 675.776 0.575502 -1.8757 0
M  V30 7199 O 674.901 1.4394 -1.61587 0
M  V30 7200 C 675.496 -1.61029 -2.98085 0
M  V30 7201 C 674.055 -1.4251 -3.48379 0
M  V30 7202 C 673.202 -1.64778 -2.23033 0
M  V30 7203 H 676.153 -1.27718 -0.94201 0
M  V30 7204 H 676.174 -1.05993 -3.65439 0
M  V30 7205 H 675.686 -2.67735 -2.80962 0
M  V30 7206 H 673.787 -0.380497 -3.70652 0
M  V30 7207 H 673.9 -2.17959 -4.26651 0
M  V30 7208 H 672.264 -1.07171 -2.31055 0
M  V30 7209 H 673.047 -2.72776 -2.08443 0
M  V30 7210 N 675.492 1.28418 -0.913599 0
M  V30 7211 C 676.455 2.25564 -0.406624 0
M  V30 7212 C 677.455 1.5387 0.466965 0
M  V30 7213 O 678.645 1.72094 0.270042 0
M  V30 7214 C 675.777 3.38339 0.417053 0
M  V30 7215 H 676.97 2.71926 -1.26477 0
M  V30 7216 H 674.523 1.40098 -0.692986 0
M  V30 7217 H 675.258 2.97339 1.29461 0
M  V30 7218 H 675.043 3.91542 -0.209102 0
M  V30 7219 H 676.533 4.10578 0.762602 0
M  V30 7220 N 676.97 0.677563 1.42291 0
M  V30 7221 C 678.381 0.277912 1.8462 0
M  V30 7222 C 678.732 -1.18048 1.56714 0
M  V30 7223 O 677.857 -1.90404 1.02836 0
M  V30 7224 C 678.452 0.497619 3.35126 0
M  V30 7225 C 677.011 0.152063 3.76093 0
M  V30 7226 C 676.158 0.78872 2.65847 0
M  V30 7227 H 679.109 0.879527 1.32098 0
M  V30 7228 H 679.13 -0.24939 3.79682 0
M  V30 7229 H 678.642 1.55913 3.55405 0
M  V30 7230 H 676.743 -0.905896 3.6142 0
M  V30 7231 H 676.856 0.594514 4.75397 0
M  V30 7232 H 675.22 0.219813 2.5375 0
M  V30 7233 H 676.003 1.85374 2.88949 0
M  V30 7234 N 678.448 -1.51871 0.421078 0
M  V30 7235 C 679.358 -2.31077 -0.405069 0
M  V30 7236 C 680.374 -1.39301 -1.04265 0
M  V30 7237 O 681.55 -1.72376 -1.04157 0
M  V30 7238 C 678.615 -3.12556 -1.50032 0
M  V30 7239 C 677.676 -4.20088 -0.884559 0
M  V30 7240 C 676.909 -4.97673 -1.92762 0
M  V30 7241 O 677.132 -4.75696 -3.14753 0
M  V30 7242 O 676.066 -5.82203 -1.52719 0
M  V30 7243 H 679.892 -3.02742 0.241086 0
M  V30 7244 H 677.477 -1.48263 0.183991 0
M  V30 7245 H 679.359 -3.6326 -2.13589 0
M  V30 7246 H 678.034 -2.43672 -2.13086 0
M  V30 7247 H 676.941 -3.73502 -0.211379 0
M  V30 7248 H 678.274 -4.91298 -0.297763 0
M  V30 7249 N 679.926 -0.151884 -1.56866 0
M  V30 7250 C 681.337 0.368128 -1.83035 0
M  V30 7251 C 681.688 1.64402 -1.07082 0
M  V30 7252 O 680.813 2.14056 -0.317647 0
M  V30 7253 C 681.408 0.674676 -3.32014 0
M  V30 7254 C 679.967 1.13919 -3.58747 0
M  V30 7255 C 679.114 0.164833 -2.7681 0
M  V30 7256 H 682.065 -0.376499 -1.54169 0
M  V30 7257 H 682.086 1.52883 -3.48435 0
M  V30 7258 H 681.598 -0.254113 -3.87267 0
M  V30 7259 H 679.699 2.08375 -3.08886 0
M  V30 7260 H 679.812 1.06179 -4.67186 0
M  V30 7261 H 678.176 0.658419 -2.46043 0
M  V30 7262 H 678.959 -0.757633 -3.34836 0
M  V30 7263 N 681.404 1.57128 0.121893 0
M  V30 7264 C 682.815 1.73902 0.679348 0
M  V30 7265 C 683.166 0.770135 1.80453 0
M  V30 7266 O 682.291 -0.0576083 2.16323 0
M  V30 7267 C 682.886 3.15328 1.2391 0
M  V30 7268 C 681.445 3.33618 1.74288 0
M  V30 7269 C 680.592 2.6978 0.641414 0
M  V30 7270 H 683.543 1.58359 -0.104 0
M  V30 7271 H 683.564 3.16718 2.10879 0
M  V30 7272 H 683.076 3.85821 0.419957 0
M  V30 7273 H 681.177 2.68162 2.58689 0
M  V30 7274 H 681.29 4.4176 1.85432 0
M  V30 7275 H 679.654 2.30935 1.0743 0
M  V30 7276 H 680.437 3.42895 -0.166707 0
M  V30 7277 N 682.882 -0.391992 1.52647 0
M  V30 7278 C 684.13 -1.13507 1.67214 0
M  V30 7279 C 684.451 -1.90575 0.41304 0
M  V30 7280 O 683.721 -1.87348 -0.572498 0
M  V30 7281 H 682.301 -0.422013 0.616372 0
M  V30 7282 H 684.963 -0.44502 1.89751 0
M  V30 7283 H 684.059 -1.83964 2.52118 0
M  V30 7284 N 684.36 -1.4356 -0.65026 0
M  V30 7285 C 685.776 -1.27025 -0.966269 0
M  V30 7286 C 685.976 -0.192117 -2.00582 0
M  V30 7287 O 685.032 0.428459 -2.48838 0
M  V30 7288 C 686.345 -2.63556 -1.44772 0
M  V30 7289 C 687.893 -2.71111 -1.56421 0
M  V30 7290 C 688.368 -4.08067 -2.07956 0
M  V30 7291 N 689.859 -4.10146 -2.15254 0
M  V30 7292 C 690.594 -5.12952 -2.56258 0
M  V30 7293 N 690.09 -6.26129 -2.96537 0
M  V30 7294 N 691.883 -5.00306 -2.56224 0
M  V30 7295 H 684.034 -2.12367 0.0375758 0
M  V30 7296 H 686.297 -0.946894 -0.0457782 0
M  V30 7297 H 686.003 -3.43429 -0.758271 0
M  V30 7298 H 685.877 -2.89152 -2.42221 0
M  V30 7299 H 688.264 -1.91569 -2.24467 0
M  V30 7300 H 688.345 -2.49277 -0.573967 0
M  V30 7301 H 687.989 -4.88077 -1.40511 0
M  V30 7302 H 687.919 -4.27266 -3.07817 0
M  V30 7303 H 690.41 -3.28453 -1.86887 0
M  V30 7304 H 690.723 -7.00403 -3.26582 0
M  V30 7305 H 689.068 -6.29597 -2.94334 0
M  V30 7306 H 692.259 -4.10952 -2.24135 0
M  V30 7307 H 692.432 -5.80553 -2.87857 0
M  V30 7308 N 685.838 0.888903 -1.30139 0
M  V30 7309 C 687.254 1.17153 -1.08385 0
M  V30 7310 C 687.454 2.0088 0.157925 0
M  V30 7311 O 686.51 2.37668 0.852652 0
M  V30 7312 C 687.823 1.882 -2.34523 0
M  V30 7313 C 689.371 2.00981 -2.39949 0
M  V30 7314 C 689.846 2.75441 -3.65918 0
M  V30 7315 N 691.337 2.82989 -3.66704 0
M  V30 7316 C 692.072 3.41167 -4.60861 0
M  V30 7317 N 691.568 4.00425 -5.6536 0
M  V30 7318 N 693.361 3.38944 -4.48412 0
M  V30 7319 H 685.512 0.33053 -2.09812 0
M  V30 7320 H 687.775 0.208964 -0.924683 0
M  V30 7321 H 687.481 1.34119 -3.25123 0
M  V30 7322 H 687.355 2.88609 -2.42868 0
M  V30 7323 H 689.742 2.54234 -1.4983 0
M  V30 7324 H 689.823 0.996725 -2.35582 0
M  V30 7325 H 689.467 2.22861 -4.56394 0
M  V30 7326 H 689.397 3.77118 -3.67546 0
M  V30 7327 H 691.888 2.40912 -2.91153 0
M  V30 7328 H 692.201 4.42871 -6.33313 0
M  V30 7329 H 690.546 3.98856 -5.69157 0
M  V30 7330 H 693.737 2.91875 -3.6596 0
M  V30 7331 H 693.91 3.83989 -5.21974 0
M  V30 7332 N 687.317 1.12792 1.10072 0
M  V30 7333 C 688.565 0.883796 1.81751 0
M  V30 7334 C 688.886 -0.591891 1.858 0
M  V30 7335 O 688.156 -1.43017 1.33876 0
M  V30 7336 H 686.736 0.323978 0.673088 0
M  V30 7337 H 689.398 1.42314 1.33164 0
M  V30 7338 H 688.494 1.26863 2.85153 0
M  V30 7339 N 688.795 -1.27931 0.920396 0
M  V30 7340 C 690.211 -1.47085 0.619537 0
M  V30 7341 C 690.411 -1.83463 -0.833291 0
M  V30 7342 O 689.467 -1.94363 -1.61181 0
M  V30 7343 C 690.78 -2.56878 1.56314 0
M  V30 7344 C 692.328 -2.70743 1.57058 0
M  V30 7345 C 692.803 -3.83687 2.50097 0
M  V30 7346 N 694.294 -3.9105 2.48262 0
M  V30 7347 C 695.029 -4.77842 3.16945 0
M  V30 7348 N 694.525 -5.69176 3.94982 0
M  V30 7349 N 696.318 -4.71509 3.06 0
M  V30 7350 H 688.469 -1.02601 1.85975 0
M  V30 7351 H 690.732 -0.511682 0.798051 0
M  V30 7352 H 690.438 -2.36923 2.59923 0
M  V30 7353 H 690.312 -3.54117 1.29928 0
M  V30 7354 H 692.699 -2.90083 0.541832 0
M  V30 7355 H 692.78 -1.74015 1.8749 0
M  V30 7356 H 692.424 -3.65101 3.53077 0
M  V30 7357 H 692.354 -4.79827 2.16964 0
M  V30 7358 H 694.845 -3.25738 1.91581 0
M  V30 7359 H 695.158 -6.32245 4.44394 0
M  V30 7360 H 693.503 -5.68995 3.99086 0
M  V30 7361 H 696.694 -3.99151 2.44533 0
M  V30 7362 H 696.867 -5.38933 3.59799 0
M  V30 7363 N 690.273 -0.685099 -1.4193 0
M  V30 7364 C 691.223 0.00977295 -2.27998 0
M  V30 7365 C 692.207 0.763315 -1.41641 0
M  V30 7366 O 693.399 0.640532 -1.65004 0
M  V30 7367 C 690.528 0.952972 -3.29808 0
M  V30 7368 C 689.614 0.196231 -4.23646 0
M  V30 7369 N 690.005 -0.804401 -4.99363 0
M  V30 7370 C 688.303 0.433213 -4.43891 0
M  V30 7371 C 689.004 -1.25646 -5.67968 0
M  V30 7372 N 687.98 -0.5844 -5.4045 0
M  V30 7373 H 691.782 -0.757586 -2.83968 0
M  V30 7374 H 689.296 -0.515037 -1.54017 0
M  V30 7375 H 691.293 1.46585 -3.9028 0
M  V30 7376 H 689.953 1.72004 -2.75399 0
M  V30 7377 H 690.964 -1.18429 -5.04177 0
M  V30 7378 H 687.641 1.17899 -4.00507 0
M  V30 7379 H 689.031 -2.08622 -6.38691 0
M  V30 7380 N 691.751 1.51645 -0.429126 0
M  V30 7381 C 693.028 1.94579 0.199614 0
M  V30 7382 C 693.408 1.3673 1.60836 0
M  V30 7383 O 692.756 0.551062 2.21756 0
M  V30 7384 C 692.966 3.48506 0.185685 0
M  V30 7385 C 694.314 4.22756 0.395282 0
M  V30 7386 O 695.338 3.55219 0.264165 0
M  V30 7387 O 694.197 5.42555 0.655475 0
M  V30 7388 H 691.291 0.816007 0.134393 0
M  V30 7389 H 693.837 1.62577 -0.486513 0
M  V30 7390 H 692.609 3.83045 -0.799508 0
M  V30 7391 H 692.232 3.86927 0.91507 0
M  V30 7392 N 693.229 0.160201 1.56784 0
M  V30 7393 C 694.454 -0.497373 2.01348 0
M  V30 7394 C 694.879 -1.56757 1.03966 0
M  V30 7395 O 694.237 -1.81292 0.0174455 0
M  V30 7396 C 694.285 -1.0628 3.44582 0
M  V30 7397 O 693.389 -2.17723 3.50244 0
M  V30 7398 H 692.73 -0.120295 0.653012 0
M  V30 7399 H 695.26 0.260821 2.02931 0
M  V30 7400 H 695.27 -1.38819 3.83658 0
M  V30 7401 H 693.945 -0.279166 4.14962 0
M  V30 7402 H 692.522 -1.86313 3.2302 0
M  V30 7403 N 694.707 -1.5719 -0.113559 0
M  V30 7404 C 695.955 -1.84772 -0.818761 0
M  V30 7405 C 696.276 -0.746196 -1.80158 0
M  V30 7406 O 695.546 0.229305 -1.94553 0
M  V30 7407 H 694.126 -0.681737 -0.305359 0
M  V30 7408 H 696.788 -1.94645 -0.0995845 0
M  V30 7409 H 695.884 -2.80878 -1.36067 0
M  V30 7410 N 696.185 0.383891 -1.52853 0
M  V30 7411 C 697.596 0.961591 -1.60032 0
M  V30 7412 C 697.947 1.90819 -0.456333 0
M  V30 7413 O 697.072 2.12288 0.419873 0
M  V30 7414 C 697.667 1.75078 -2.90057 0
M  V30 7415 C 696.226 2.2781 -2.99632 0
M  V30 7416 C 695.373 1.08512 -2.55187 0
M  V30 7417 H 698.324 0.163269 -1.57858 0
M  V30 7418 H 698.345 2.61046 -2.7683 0
M  V30 7419 H 697.857 1.06157 -3.73299 0
M  V30 7420 H 695.958 3.00028 -2.20939 0
M  V30 7421 H 696.071 2.56947 -4.0437 0
M  V30 7422 H 694.435 1.44667 -2.09627 0
M  V30 7423 H 695.218 0.41118 -3.40829 0
M  V30 7424 N 697.663 1.43903 0.642637 0
M  V30 7425 C 698.593 1.52697 1.76652 0
M  V30 7426 C 699.574 0.380816 1.65782 0
M  V30 7427 O 700.759 0.599432 1.84717 0
M  V30 7428 C 697.889 1.45975 3.15133 0
M  V30 7429 C 696.843 2.58949 3.40778 0
M  V30 7430 C 696.169 2.37279 4.79169 0
M  V30 7431 C 697.469 4.01153 3.34475 0
M  V30 7432 H 699.163 2.46766 1.69549 0
M  V30 7433 H 696.709 1.18767 0.814279 0
M  V30 7434 H 698.662 1.5073 3.93521 0
M  V30 7435 H 697.386 0.484162 3.22991 0
M  V30 7436 H 696.045 2.53564 2.64765 0
M  V30 7437 H 695.693 1.37939 4.83717 0
M  V30 7438 H 695.393 3.13016 4.97287 0
M  V30 7439 H 696.917 2.43834 5.59801 0
M  V30 7440 H 698.331 4.07968 4.02784 0
M  V30 7441 H 696.728 4.77001 3.64129 0
M  V30 7442 H 697.798 4.25539 2.32475 0
M  V30 7443 N 699.141 -0.881989 1.30609 0
M  V30 7444 C 700.388 -1.63405 1.19604 0
M  V30 7445 C 700.716 -1.92905 -0.248574 0
M  V30 7446 O 699.971 -1.55062 -1.19391 0
M  V30 7447 C 700.27 -2.97999 1.97311 0
M  V30 7448 C 699.936 -2.88039 3.46907 0
M  V30 7449 C 698.598 -2.85029 3.877 0
M  V30 7450 C 700.95 -2.75948 4.42156 0
M  V30 7451 C 698.278 -2.67772 5.2203 0
M  V30 7452 C 700.63 -2.60228 5.76597 0
M  V30 7453 C 699.294 -2.55595 6.16626 0
M  V30 7454 H 698.564 -0.597941 0.437662 0
M  V30 7455 H 701.211 -1.02524 1.61744 0
M  V30 7456 H 699.516 -3.62847 1.47815 0
M  V30 7457 H 701.213 -3.55156 1.86186 0
M  V30 7458 H 697.803 -2.91192 3.14492 0
M  V30 7459 H 701.987 -2.77337 4.1158 0
M  V30 7460 H 697.243 -2.62601 5.52133 0
M  V30 7461 H 701.417 -2.49847 6.50038 0
M  V30 7462 H 699.044 -2.41981 7.20659 0
M  V30 7463 N 700.619 -1.13374 -1.09472 0
M  V30 7464 C 701.847 -0.918351 -1.85402 0
M  V30 7465 C 702.262 0.53281 -1.81126 0
M  V30 7466 O 701.619 1.36879 -1.20708 0
M  V30 7467 C 701.67 -1.39743 -3.33398 0
M  V30 7468 O 701.391 -2.79172 -3.37631 0
M  V30 7469 C 702.892 -1.22042 -4.2617 0
M  V30 7470 H 700.112 -0.327511 -0.585643 0
M  V30 7471 H 702.656 -1.50617 -1.38328 0
M  V30 7472 H 700.811 -0.852619 -3.77901 0
M  V30 7473 H 701.225 -3.00428 -4.29934 0
M  V30 7474 H 702.699 -1.60438 -5.2817 0
M  V30 7475 H 703.176 -0.162047 -4.38901 0
M  V30 7476 H 703.782 -1.75323 -3.87482 0
M  V30 7477 N 702.098 1.27442 -0.927168 0
M  V30 7478 C 703.345 1.94391 -0.567324 0
M  V30 7479 C 703.673 1.72875 0.891321 0
M  V30 7480 O 702.928 1.05071 1.65102 0
M  V30 7481 C 703.227 3.47413 -0.838994 0
M  V30 7482 C 702.893 3.89049 -2.2793 0
M  V30 7483 C 701.555 4.00127 -2.67305 0
M  V30 7484 C 703.907 4.10154 -3.21595 0
M  V30 7485 C 701.235 4.29697 -3.99471 0
M  V30 7486 C 703.587 4.41208 -4.53341 0
M  V30 7487 C 702.251 4.50499 -4.92551 0
M  V30 7488 H 701.521 0.711325 -0.207598 0
M  V30 7489 H 704.168 1.51523 -1.17103 0
M  V30 7490 H 702.473 3.91503 -0.152609 0
M  V30 7491 H 704.17 3.97354 -0.53955 0
M  V30 7492 H 700.76 3.80962 -1.96381 0
M  V30 7493 H 704.944 4.01036 -2.92377 0
M  V30 7494 H 700.2 4.35099 -4.29533 0
M  V30 7495 H 704.374 4.56486 -5.25922 0
M  V30 7496 H 702.001 4.73167 -5.94994 0
M  V30 7497 N 703.576 0.692616 1.41565 0
M  V30 7498 C 704.523 0.0254264 2.30786 0
M  V30 7499 C 705.493 -0.774347 1.46946 0
M  V30 7500 O 706.678 -0.742981 1.7574 0
M  V30 7501 C 703.818 -0.907123 3.32964 0
M  V30 7502 C 702.931 -0.0992784 4.31886 0
M  V30 7503 C 702.066 -1.0292 5.21134 0
M  V30 7504 C 701.105 -0.214088 6.11725 0
M  V30 7505 N 700.242 -1.09766 6.93467 0
M  V30 7506 H 705.082 0.792036 2.87282 0
M  V30 7507 H 702.619 0.4023 1.41492 0
M  V30 7508 H 704.577 -1.46181 3.90752 0
M  V30 7509 H 703.207 -1.64016 2.78026 0
M  V30 7510 H 702.259 0.572287 3.76071 0
M  V30 7511 H 703.571 0.532782 4.95946 0
M  V30 7512 H 702.725 -1.65321 5.83741 0
M  V30 7513 H 701.464 -1.69512 4.57293 0
M  V30 7514 H 700.469 0.42302 5.4817 0
M  V30 7515 H 701.694 0.447995 6.77621 0
M  V30 7516 H 699.64 -1.74965 6.32237 0
M  V30 7517 H 699.557 -0.521099 7.54202 0
M  V30 7518 H 700.825 -1.70858 7.60544 0
M  V30 7519 N 705.054 -1.51416 0.437162 0
M  V30 7520 C 705.984 -2.30631 -0.364922 0
M  V30 7521 C 706.965 -1.36037 -1.02118 0
M  V30 7522 O 708.15 -1.64956 -1.02485 0
M  V30 7523 C 705.28 -3.1482 -1.46648 0
M  V30 7524 C 704.234 -4.17691 -0.933717 0
M  V30 7525 C 703.56 -4.904 -2.13101 0
M  V30 7526 C 704.86 -5.2229 0.0317201 0
M  V30 7527 H 706.554 -2.97932 0.29614 0
M  V30 7528 H 704.1 -1.4328 0.143865 0
M  V30 7529 H 706.053 -3.69017 -2.03481 0
M  V30 7530 H 704.777 -2.4534 -2.15583 0
M  V30 7531 H 703.436 -3.64545 -0.387602 0
M  V30 7532 H 703.084 -4.17423 -2.80654 0
M  V30 7533 H 702.784 -5.59962 -1.78092 0
M  V30 7534 H 704.308 -5.4742 -2.70487 0
M  V30 7535 H 705.722 -5.7156 -0.446302 0
M  V30 7536 H 704.119 -5.99378 0.29437 0
M  V30 7537 H 705.189 -4.75131 0.968447 0
M  V30 7538 N 706.532 -0.168513 -1.56696 0
M  V30 7539 C 707.462 0.758563 -2.20835 0
M  V30 7540 C 708.443 1.24121 -1.1631 0
M  V30 7541 O 709.628 1.29487 -1.4473 0
M  V30 7542 C 706.758 1.9892 -2.8469 0
M  V30 7543 C 705.712 1.64252 -3.95228 0
M  V30 7544 C 705.038 2.94757 -4.46119 0
M  V30 7545 C 706.338 0.872675 -5.14958 0
M  V30 7546 H 708.032 0.223953 -2.98561 0
M  V30 7547 H 705.578 0.106277 -1.43607 0
M  V30 7548 H 707.531 2.64275 -3.28233 0
M  V30 7549 H 706.255 2.5479 -2.04327 0
M  V30 7550 H 704.914 1.01266 -3.52336 0
M  V30 7551 H 704.562 3.48662 -3.62552 0
M  V30 7552 H 704.262 2.72316 -5.2069 0
M  V30 7553 H 705.786 3.61147 -4.92347 0
M  V30 7554 H 707.2 1.42875 -5.55211 0
M  V30 7555 H 705.597 0.747402 -5.95428 0
M  V30 7556 H 706.667 -0.131535 -4.84722 0
M  V30 7557 N 708.01 1.57248 0.105221 0
M  V30 7558 C 709.238 1.89768 0.82437 0
M  V30 7559 C 709.653 0.761192 1.72775 0
M  V30 7560 O 709.01 -0.267342 1.80531 0
M  V30 7561 C 709.061 3.2184 1.64625 0
M  V30 7562 O 708.782 4.31115 0.779217 0
M  V30 7563 C 710.283 3.68155 2.46935 0
M  V30 7564 H 707.503 0.628031 0.236259 0
M  V30 7565 H 710.047 2.04321 0.085485 0
M  V30 7566 H 708.202 3.08915 2.33775 0
M  V30 7567 H 708.616 5.06897 1.34745 0
M  V30 7568 H 710.09 4.6329 3.00111 0
M  V30 7569 H 710.567 2.95492 3.24932 0
M  V30 7570 H 711.173 3.83914 1.83002 0
M  V30 7571 N 709.488 -0.375779 1.53054 0
M  V30 7572 C 710.398 -1.48381 1.81715 0
M  V30 7573 C 711.414 -1.59087 0.704795 0
M  V30 7574 O 712.59 -1.75174 0.993785 0
M  V30 7575 C 709.655 -2.83767 1.99192 0
M  V30 7576 C 708.716 -2.82673 3.23102 0
M  V30 7577 C 707.949 -4.11601 3.39736 0
M  V30 7578 O 708.172 -5.07243 2.60885 0
M  V30 7579 O 707.106 -4.18034 4.33049 0
M  V30 7580 H 710.932 -1.27089 2.7583 0
M  V30 7581 H 708.517 -0.564902 1.38308 0
M  V30 7582 H 710.399 -3.64004 2.12318 0
M  V30 7583 H 709.074 -3.05057 1.08267 0
M  V30 7584 H 707.981 -2.0117 3.15407 0
M  V30 7585 H 709.314 -2.66335 4.13916 0
M  V30 7586 N 710.966 -1.44241 -0.634997 0
M  V30 7587 C 712.377 -1.41622 -1.21655 0
M  V30 7588 C 712.728 -0.129584 -1.95772 0
M  V30 7589 O 711.853 0.770225 -2.02229 0
M  V30 7590 C 712.448 -2.56557 -2.21278 0
M  V30 7591 C 711.007 -2.57145 -2.7487 0
M  V30 7592 C 710.154 -2.33354 -1.49804 0
M  V30 7593 H 713.105 -1.52878 -0.425905 0
M  V30 7594 H 713.126 -2.29089 -3.03807 0
M  V30 7595 H 712.638 -3.50186 -1.67306 0
M  V30 7596 H 710.739 -1.67447 -3.32855 0
M  V30 7597 H 710.852 -3.55507 -3.21172 0
M  V30 7598 H 709.216 -1.82372 -1.77799 0
M  V30 7599 H 709.999 -3.29092 -0.977402 0
M  V30 7600 N 712.444 0.87505 -1.31075 0
M  V30 7601 C 713.354 2.01441 -1.20244 0
M  V30 7602 C 714.37 1.73584 -0.120227 0
M  V30 7603 O 715.546 1.98559 -0.337063 0
M  V30 7604 C 712.611 3.34675 -0.905199 0
M  V30 7605 C 711.672 3.75889 -2.0738 0
M  V30 7606 C 710.905 5.02764 -1.79064 0
M  V30 7607 O 711.128 5.65795 -0.723318 0
M  V30 7608 O 710.062 5.40623 -2.64594 0
M  V30 7609 H 713.888 2.13509 -2.1598 0
M  V30 7610 H 711.473 1.00257 -1.10765 0
M  V30 7611 H 713.355 4.1458 -0.755057 0
M  V30 7612 H 712.03 3.23692 0.0221695 0
M  V30 7613 H 710.937 2.96645 -2.27931 0
M  V30 7614 H 712.27 3.91489 -2.98324 0
M  V30 7615 N 713.922 1.13953 1.08869 0
M  V30 7616 C 715.147 0.928559 1.85452 0
M  V30 7617 C 715.572 -0.517642 1.80837 0
M  V30 7618 O 714.93 -1.36779 1.19001 0
M  V30 7619 C 714.978 1.42814 3.31114 0
M  V30 7620 O 714.082 0.617129 4.07756 0
M  V30 7621 H 713.423 0.33235 0.574839 0
M  V30 7622 H 715.953 1.5156 1.37443 0
M  V30 7623 H 715.963 1.43425 3.8196 0
M  V30 7624 H 714.638 2.48109 3.33788 0
M  V30 7625 H 713.215 0.679365 3.66659 0
M  V30 7626 N 715.4 -1.26948 0.933913 0
M  V30 7627 C 716.811 -1.76058 0.621324 0
M  V30 7628 C 717.162 -1.76175 -0.863522 0
M  V30 7629 O 716.287 -1.36921 -1.67576 0
M  V30 7630 C 716.882 -3.19713 1.12111 0
M  V30 7631 C 715.441 -3.66465 0.859074 0
M  V30 7632 C 714.588 -2.46186 1.27624 0
M  V30 7633 H 717.539 -1.13127 1.11301 0
M  V30 7634 H 717.56 -3.77566 0.471608 0
M  V30 7635 H 717.072 -3.19596 2.20182 0
M  V30 7636 H 715.173 -3.72021 -0.207566 0
M  V30 7637 H 715.286 -4.55636 1.48098 0
M  V30 7638 H 713.65 -2.45042 0.694727 0
M  V30 7639 H 714.433 -2.48774 2.36572 0
M  V30 7640 N 716.879 -0.700114 -1.41195 0
M  V30 7641 C 718.127 -0.232546 -2.00758 0
M  V30 7642 C 718.448 1.1734 -1.55745 0
M  V30 7643 O 717.718 1.79262 -0.790058 0
M  V30 7644 H 716.298 -0.0829845 -0.742376 0
M  V30 7645 H 718.96 -0.902289 -1.72756 0
M  V30 7646 H 718.056 -0.253521 -3.11069 0
M  V30 7647 N 718.357 1.51182 -0.445186 0
M  V30 7648 C 719.585 2.06568 0.117091 0
M  V30 7649 C 720 1.31182 1.35781 0
M  V30 7650 O 719.357 0.373605 1.78635 0
M  V30 7651 C 719.408 3.58917 0.431408 0
M  V30 7652 O 719.129 4.31456 -0.760078 0
M  V30 7653 C 720.63 4.30843 1.0435 0
M  V30 7654 H 717.85 0.670985 0.00444436 0
M  V30 7655 H 720.394 1.94666 -0.626525 0
M  V30 7656 H 718.549 3.70708 1.12493 0
M  V30 7657 H 718.963 5.22215 -0.489048 0
M  V30 7658 H 720.437 5.38499 1.21337 0
M  V30 7659 H 720.914 3.89644 2.02667 0
M  V30 7660 H 721.52 4.23516 0.38913 0
M  V30 7661 N 719.835 0.176821 1.56605 0
M  V30 7662 C 721.112 -0.513365 1.88743 0
M  V30 7663 C 721.492 -1.80929 1.08757 0
M  V30 7664 O 720.84 -2.27765 0.183127 0
M  V30 7665 C 721.05 -0.749925 3.40848 0
M  V30 7666 C 722.398 -1.07747 4.10701 0
M  V30 7667 O 723.422 -0.838277 3.46196 0
M  V30 7668 O 722.281 -1.52901 5.24675 0
M  V30 7669 H 719.375 -0.265296 0.783292 0
M  V30 7670 H 721.921 0.215669 1.68324 0
M  V30 7671 H 720.693 0.16599 3.90948 0
M  V30 7672 H 720.316 -1.53208 3.66897 0
M  V30 7673 N 721.313 -1.57302 -0.09688 0
M  V30 7674 C 722.561 -1.8563 -0.799117 0
M  V30 7675 C 722.882 -0.765263 -1.79356 0
M  V30 7676 O 722.152 0.208657 -1.94786 0
M  V30 7677 H 720.732 -0.684937 -0.298111 0
M  V30 7678 H 723.394 -1.9474 -0.0789341 0
M  V30 7679 H 722.49 -2.82305 -1.3308 0
M  V30 7680 N 722.791 0.367657 -1.53252 0
M  V30 7681 C 724.039 1.10832 -1.68999 0
M  V30 7682 C 724.36 1.89894 -0.443306 0
M  V30 7683 O 723.63 1.88235 0.54262 0
M  V30 7684 H 722.21 0.412153 -0.623008 0
M  V30 7685 H 724.872 0.414775 -1.90435 0
M  V30 7686 H 723.968 1.7993 -2.55013 0
M  V30 7687 N 724.269 1.44576 0.627338 0
M  V30 7688 C 725.232 1.51372 1.72102 0
M  V30 7689 C 726.232 0.395329 1.55865 0
M  V30 7690 O 727.422 0.658094 1.61291 0
M  V30 7691 C 724.554 1.39129 3.11217 0
M  V30 7692 H 725.747 2.48798 1.6745 0
M  V30 7693 H 723.3 1.31724 0.841336 0
M  V30 7694 H 724.035 0.428114 3.21462 0
M  V30 7695 H 723.82 2.20229 3.24409 0
M  V30 7696 H 725.31 1.46874 3.90919 0
M  V30 7697 N 725.747 -0.868086 1.31537 0
M  V30 7698 C 726.972 -1.65926 1.24432 0
M  V30 7699 C 727.397 -1.87169 -0.186936 0
M  V30 7700 O 726.755 -1.4148 -1.13371 0
M  V30 7701 C 726.803 -3.00347 1.9956 0
M  V30 7702 O 725.907 -3.90221 1.33422 0
M  V30 7703 H 725.248 -0.506375 0.429512 0
M  V30 7704 H 727.778 -1.0822 1.73637 0
M  V30 7705 H 727.788 -3.50269 2.09226 0
M  V30 7706 H 726.463 -2.84205 3.03645 0
M  V30 7707 H 725.04 -3.48672 1.32219 0
M  V30 7708 N 727.225 -1.14528 -1.08264 0
M  V30 7709 C 728.173 -0.829201 -2.17318 0
M  V30 7710 C 729.167 0.193521 -1.68291 0
M  V30 7711 O 730.373 0.0494744 -1.79932 0
M  V30 7712 H 726.748 -0.250435 -0.709074 0
M  V30 7713 H 728.719 -1.75683 -2.41201 0
M  V30 7714 C 727.468 -0.324663 -3.46181 0
M  V30 7715 H 726.791 -1.10299 -3.84284 0
M  V30 7716 H 728.231 -0.142059 -4.23762 0
M  V30 7717 C 726.69 0.952033 -3.23169 0
M  V30 7718 O 727.22 2.02549 -3.46896 0
M  V30 7719 N 725.426 0.887854 -2.76705 0
M  V30 7720 H 724.973 0.0141402 -2.57596 0
M  V30 7721 H 724.931 1.74263 -2.61686 0
M  V30 7722 N 728.703 1.26451 -0.940633 0
M  V30 7723 C 729.951 1.93395 -0.586748 0
M  V30 7724 C 730.272 1.7417 0.876921 0
M  V30 7725 O 729.542 1.097 1.62304 0
M  V30 7726 H 728.122 0.715687 -0.214012 0
M  V30 7727 H 730.784 1.53902 -1.19584 0
M  V30 7728 H 729.88 3.01565 -0.804059 0
M  V30 7729 N 730.181 0.707592 1.40822 0
M  V30 7730 C 731.429 0.243189 2.00632 0
M  V30 7731 C 731.75 -1.16512 1.56365 0
M  V30 7732 O 731.02 -1.78841 0.799553 0
M  V30 7733 H 729.6 0.0869203 0.741926 0
M  V30 7734 H 732.262 0.911438 1.72275 0
M  V30 7735 H 731.358 0.270014 3.1093 0
M  V30 7736 N 731.66 -1.50943 0.453197 0
M  V30 7737 C 732.9 -2.0412 -0.106894 0
M  V30 7738 C 733.264 -1.32895 -1.38575 0
M  V30 7739 O 734.465 -1.76529 -2.02709 0
M  V30 7740 C 732.736 -3.561 -0.304565 0
M  V30 7741 S 734.295 -4.3096 -0.825784 0
M  V30 7742 H 731.113 -0.710581 -0.0243969 0
M  V30 7743 H 733.715 -1.85534 0.616239 0
M  V30 7744 H 732.419 -4.055 0.632277 0
M  V30 7745 H 731.95 -3.79009 -1.05433 0
M  V30 7746 H 733.965 -4.49503 -2.10147 0
M  V30 7747 N 733.138 -0.185124 -1.56509 0
M  V30 7748 C 734.048 0.751908 -2.22224 0
M  V30 7749 C 735.064 1.24244 -1.21817 0
M  V30 7750 O 736.24 1.29169 -1.54523 0
M  V30 7751 C 733.305 1.95837 -2.86092 0
M  V30 7752 C 732.366 1.51337 -4.01741 0
M  V30 7753 C 731.599 2.66233 -4.62554 0
M  V30 7754 O 731.822 3.8346 -4.22273 0
M  V30 7755 O 730.756 2.39517 -5.52191 0
M  V30 7756 H 734.582 0.222304 -3.02885 0
M  V30 7757 H 732.167 0.0437141 -1.49336 0
M  V30 7758 H 734.049 2.66368 -3.26536 0
M  V30 7759 H 732.724 2.47677 -2.08417 0
M  V30 7760 H 731.631 0.777155 -3.65939 0
M  V30 7761 H 732.964 1.04175 -4.81049 0
M  V30 7762 N 734.616 1.57351 0.0885366 0
M  V30 7763 C 735.579 2.01557 1.09121 0
M  V30 7764 C 736.579 0.910052 1.3257 0
M  V30 7765 O 737.769 1.17537 1.28572 0
M  V30 7766 C 734.901 2.38189 2.43883 0
M  V30 7767 H 736.094 2.91361 0.710562 0
M  V30 7768 H 733.647 1.52694 0.333779 0
M  V30 7769 H 734.382 1.5136 2.86811 0
M  V30 7770 H 734.167 3.18846 2.28209 0
M  V30 7771 H 735.657 2.73025 3.15986 0
M  V30 7772 N 736.094 -0.359525 1.53444 0
M  V30 7773 C 737.057 -1.42357 1.7963 0
M  V30 7774 C 738.057 -1.46319 0.666884 0
M  V30 7775 O 739.247 -1.46974 0.935113 0
M  V30 7776 C 736.379 -2.81425 1.92387 0
M  V30 7777 H 737.572 -1.20409 2.74666 0
M  V30 7778 H 735.125 -0.593007 1.44614 0
M  V30 7779 H 735.86 -3.08679 0.994384 0
M  V30 7780 H 735.645 -2.79947 2.74539 0
M  V30 7781 H 737.135 -3.5847 2.14218 0
M  V30 7782 N 737.572 -1.44907 -0.619662 0
M  V30 7783 C 738.535 -1.52282 -1.71297 0
M  V30 7784 C 739.535 -0.40359 -1.55653 0
M  V30 7785 O 740.725 -0.666638 -1.6094 0
M  V30 7786 C 737.857 -1.40778 -3.10474 0
M  V30 7787 H 739.05 -2.49683 -1.66128 0
M  V30 7788 H 736.603 -1.32168 -0.834339 0
M  V30 7789 H 737.338 -0.445156 -3.2123 0
M  V30 7790 H 737.123 -2.21947 -3.23237 0
M  V30 7791 H 738.613 -1.48946 -3.90135 0
M  V30 7792 N 739.05 0.861098 -1.31996 0
M  V30 7793 C 740.327 1.59788 -1.12814 0
M  V30 7794 C 740.707 2.08753 0.313882 0
M  V30 7795 O 740.055 1.87258 1.30946 0
M  V30 7796 C 740.265 2.74901 -2.15012 0
M  V30 7797 C 741.613 3.44643 -2.48004 0
M  V30 7798 O 742.637 2.85119 -2.13508 0
M  V30 7799 O 741.496 4.52044 -3.07113 0
M  V30 7800 H 738.59 0.703408 -0.434909 0
M  V30 7801 H 741.136 0.905788 -1.43505 0
M  V30 7802 H 739.908 2.36198 -3.11971 0
M  V30 7803 H 739.531 3.51792 -1.85279 0
M  V30 7804 N 740.528 1.15101 1.07655 0
M  V30 7805 C 741.774 0.925343 1.80458 0
M  V30 7806 C 742.107 -0.546354 1.86356 0
M  V30 7807 O 741.382 -1.40496 1.34503 0
M  V30 7808 C 741.665 1.53646 3.25676 0
M  V30 7809 C 741.518 3.07854 3.27942 0
M  V30 7810 C 742.837 1.21968 4.22861 0
M  V30 7811 H 739.956 0.337592 0.655134 0
M  V30 7812 H 742.598 1.42217 1.25993 0
M  V30 7813 H 740.748 1.11395 3.72187 0
M  V30 7814 H 742.42 3.58989 2.89697 0
M  V30 7815 H 740.663 3.41904 2.66991 0
M  V30 7816 H 741.334 3.45725 4.30324 0
M  V30 7817 H 743.81 1.5851 3.84726 0
M  V30 7818 H 742.686 1.67349 5.22767 0
M  V30 7819 H 742.947 0.136207 4.4189 0
M  V30 7820 N 742.006 -1.2595 0.947325 0
M  V30 7821 C 742.969 -2.24407 0.466285 0
M  V30 7822 C 743.969 -1.55054 -0.426005 0
M  V30 7823 O 745.159 -1.7275 -0.224319 0
M  V30 7824 C 742.291 -3.39326 -0.327201 0
M  V30 7825 H 743.484 -2.68477 1.33642 0
M  V30 7826 H 741.037 -1.38211 0.729887 0
M  V30 7827 H 741.772 -3.00667 -1.21532 0
M  V30 7828 H 741.557 -3.9085 0.312839 0
M  V30 7829 H 743.047 -4.12455 -0.653477 0
M  V30 7830 N 743.484 -0.715051 -1.40445 0
M  V30 7831 C 744.432 -0.0509974 -2.32544 0
M  V30 7832 C 745.426 0.747602 -1.52011 0
M  V30 7833 O 746.632 0.651031 -1.67814 0
M  V30 7834 H 743.007 0.00231113 -0.751996 0
M  V30 7835 H 744.978 -0.84449 -2.86201 0
M  V30 7836 C 743.727 0.857101 -3.3697 0
M  V30 7837 H 743.05 0.252 -3.99005 0
M  V30 7838 H 744.49 1.28971 -4.03909 0
M  V30 7839 C 742.949 1.98231 -2.72408 0
M  V30 7840 O 743.479 3.07309 -2.58697 0
M  V30 7841 N 741.685 1.76577 -2.308 0
M  V30 7842 H 741.232 0.878641 -2.42152 0
M  V30 7843 H 741.19 2.52043 -1.87941 0
M  V30 7844 N 744.962 1.50701 -0.461195 0
M  V30 7845 C 746.21 2.01867 0.0970051 0
M  V30 7846 C 746.531 1.34591 1.41104 0
M  V30 7847 O 745.801 0.488041 1.89723 0
M  V30 7848 H 744.381 0.74599 0.0388392 0
M  V30 7849 H 747.043 1.85129 -0.609357 0
M  V30 7850 H 746.139 3.11051 0.255688 0
M  V30 7851 N 746.441 0.193421 1.56409 0
M  V30 7852 C 747.373 -0.759944 2.16235 0
M  V30 7853 C 748.386 -1.17797 1.12373 0
M  V30 7854 O 749.575 -1.11399 1.39472 0
M  V30 7855 C 746.675 -2.03735 2.70823 0
M  V30 7856 C 745.848 -1.77939 3.9957 0
M  V30 7857 C 744.907 -2.90111 4.39001 0
M  V30 7858 O 743.933 -2.59791 5.06456 0
M  V30 7859 N 745.135 -4.18426 4.02368 0
M  V30 7860 H 747.9 -0.248348 2.98669 0
M  V30 7861 H 745.461 0.0113966 1.61896 0
M  V30 7862 H 747.453 -2.77914 2.94187 0
M  V30 7863 H 746.023 -2.46022 1.92852 0
M  V30 7864 H 745.243 -0.875491 3.84355 0
M  V30 7865 H 746.531 -1.58099 4.83614 0
M  V30 7866 H 745.929 -4.45913 3.48106 0
M  V30 7867 H 744.486 -4.89237 4.30686 0
M  V30 7868 N 747.919 -1.57396 -0.0801906 0
M  V30 7869 C 749.33 -1.75642 -0.633002 0
M  V30 7870 C 749.681 -0.817708 -1.78348 0
M  V30 7871 O 748.806 0.000233743 -2.164 0
M  V30 7872 C 749.401 -3.18502 -1.15507 0
M  V30 7873 C 747.96 -3.38121 -1.65381 0
M  V30 7874 C 747.107 -2.71386 -0.569661 0
M  V30 7875 H 750.058 -1.58027 0.145949 0
M  V30 7876 H 750.079 -3.22198 -2.02408 0
M  V30 7877 H 749.591 -3.86799 -0.317515 0
M  V30 7878 H 747.692 -2.74926 -2.51488 0
M  V30 7879 H 747.805 -4.46521 -1.73654 0
M  V30 7880 H 746.169 -2.33702 -1.0127 0
M  V30 7881 H 746.952 -3.42332 0.257561 0
M  V30 7882 N 749.397 0.351382 -1.53633 0
M  V30 7883 C 750.645 1.09034 -1.70165 0
M  V30 7884 C 750.966 1.89413 -0.463422 0
M  V30 7885 O 750.236 1.888 0.522624 0
M  V30 7886 H 748.816 0.405522 -0.627344 0
M  V30 7887 H 751.478 0.394554 -1.90865 0
M  V30 7888 H 750.574 1.77215 -2.56907 0
M  V30 7889 N 750.875 1.45233 0.611969 0
M  V30 7890 C 752.122 1.49021 1.37109 0
M  V30 7891 C 752.45 0.130227 1.94064 0
M  V30 7892 O 751.705 -0.870551 1.75271 0
M  V30 7893 C 752.004 2.51353 2.54079 0
M  V30 7894 C 751.67 3.96178 2.15299 0
M  V30 7895 C 750.332 4.35614 2.04436 0
M  V30 7896 C 752.684 4.87275 1.84966 0
M  V30 7897 C 750.012 5.64047 1.61456 0
M  V30 7898 C 752.364 6.16115 1.43474 0
M  V30 7899 C 751.028 6.54486 1.31167 0
M  V30 7900 H 750.298 0.545307 0.501719 0
M  V30 7901 H 752.945 1.78555 0.692122 0
M  V30 7902 H 751.25 2.15372 3.27295 0
M  V30 7903 H 752.947 2.51523 3.12309 0
M  V30 7904 H 749.537 3.6499 2.24678 0
M  V30 7905 H 753.721 4.57548 1.92258 0
M  V30 7906 H 748.977 5.92575 1.50547 0
M  V30 7907 H 753.151 6.86149 1.19048 0
M  V30 7908 H 750.778 7.53904 0.97637 0
M  V30 7909 N 752.353 -0.854086 1.3245 0
M  V30 7910 C 753.3 -1.96271 1.21434 0
M  V30 7911 C 754.27 -1.6582 0.0963851 0
M  V30 7912 O 755.455 -1.88851 0.27203 0
M  V30 7913 C 752.595 -3.31939 0.943952 0
M  V30 7914 C 751.708 -3.74885 2.14675 0
M  V30 7915 C 750.843 -4.99347 1.81179 0
M  V30 7916 C 749.882 -5.34785 2.97777 0
M  V30 7917 N 749.019 -6.50425 2.6437 0
M  V30 7918 H 753.859 -2.05025 2.16261 0
M  V30 7919 H 751.396 -1.00348 1.07558 0
M  V30 7920 H 753.354 -4.10076 0.767675 0
M  V30 7921 H 751.984 -3.22784 0.0324763 0
M  V30 7922 H 751.036 -2.92396 2.43328 0
M  V30 7923 H 752.348 -3.97068 3.01891 0
M  V30 7924 H 751.502 -5.85193 1.60107 0
M  V30 7925 H 750.241 -4.79101 0.911777 0
M  V30 7926 H 749.246 -4.47451 3.1948 0
M  V30 7927 H 750.471 -5.56988 3.88511 0
M  V30 7928 H 748.417 -6.31695 1.7691 0
M  V30 7929 H 748.334 -6.7263 3.45116 0
M  V30 7930 H 749.602 -7.39422 2.46729 0
M  V30 7931 N 753.831 -1.1567 -1.07043 0
M  V30 7932 C 755.056 -0.957946 -1.83952 0
M  V30 7933 C 755.481 0.488807 -1.81638 0
M  V30 7934 O 754.839 1.34869 -1.21162 0
M  V30 7935 C 754.887 -1.48064 -3.288 0
M  V30 7936 O 753.991 -0.681921 -4.06723 0
M  V30 7937 H 753.332 -0.341453 -0.569479 0
M  V30 7938 H 755.862 -1.53728 -1.35015 0
M  V30 7939 H 755.872 -1.49484 -3.7963 0
M  V30 7940 H 754.547 -2.53388 -3.29799 0
M  V30 7941 H 753.124 -0.737612 -3.65532 0
M  V30 7942 N 755.309 1.25446 -0.953992 0
M  V30 7943 C 756.257 2.27909 -0.46478 0
M  V30 7944 C 757.251 1.62904 0.464607 0
M  V30 7945 O 758.457 1.76733 0.341407 0
M  V30 7946 H 754.832 0.74036 -0.131798 0
M  V30 7947 H 756.803 2.66559 -1.34122 0
M  V30 7948 C 755.552 3.46853 0.242589 0
M  V30 7949 H 754.875 3.97105 -0.463418 0
M  V30 7950 H 756.315 4.20432 0.548919 0
M  V30 7951 C 754.774 3.03386 1.46487 0
M  V30 7952 O 755.304 3.09342 2.56262 0
M  V30 7953 N 753.51 2.58584 1.32599 0
M  V30 7954 H 753.057 2.53938 0.432834 0
M  V30 7955 H 753.015 2.29866 2.14497 0
M  V30 7956 N 756.787 0.722489 1.40064 0
M  V30 7957 C 757.72 0.0233443 2.28188 0
M  V30 7958 C 758.698 -0.7606 1.43714 0
M  V30 7959 O 759.882 -0.745791 1.73119 0
M  V30 7960 C 757.009 -0.974264 3.24385 0
M  V30 7961 C 756.055 -0.280307 4.25578 0
M  V30 7962 S 756.888 0.996769 5.26141 0
M  V30 7963 C 758.044 0.00143923 6.259 0
M  V30 7964 H 758.277 0.770705 2.87137 0
M  V30 7965 H 755.81 0.513783 1.45601 0
M  V30 7966 H 757.768 -1.5446 3.80332 0
M  V30 7967 H 756.429 -1.69438 2.6448 0
M  V30 7968 H 755.622 -1.03471 4.93264 0
M  V30 7969 H 755.224 0.217657 3.73366 0
M  V30 7970 H 757.516 -0.843126 6.72233 0
M  V30 7971 H 758.459 0.645104 7.05155 0
M  V30 7972 H 758.867 -0.365371 5.63316 0
M  V30 7973 N 758.265 -1.50454 0.469181 0
M  V30 7974 C 759.676 -1.86695 0.0136034 0
M  V30 7975 C 760.027 -1.38413 -1.39055 0
M  V30 7976 O 759.152 -0.748294 -2.03051 0
M  V30 7977 C 759.747 -3.38795 0.0179098 0
M  V30 7978 C 758.306 -3.74455 -0.382191 0
M  V30 7979 C 757.453 -2.74338 0.404207 0
M  V30 7980 H 760.404 -1.43225 0.683547 0
M  V30 7981 H 760.425 -3.72321 -0.78468 0
M  V30 7982 H 759.937 -3.73906 1.04 0
M  V30 7983 H 758.038 -3.44944 -1.4087 0
M  V30 7984 H 758.151 -4.79025 -0.084862 0
M  V30 7985 H 756.515 -2.54305 -0.141829 0
M  V30 7986 H 757.298 -3.12293 1.42577 0
M  V30 7987 N 759.743 -0.201713 -1.56304 0
M  V30 7988 C 760.673 0.71155 -2.22394 0
M  V30 7989 C 761.654 1.21625 -1.18917 0
M  V30 7990 O 762.839 1.26388 -1.47444 0
M  V30 7991 C 759.969 1.92837 -2.88845 0
M  V30 7992 C 758.923 1.55831 -3.98623 0
M  V30 7993 C 758.249 2.85228 -4.52271 0
M  V30 7994 C 759.549 0.763249 -5.16693 0
M  V30 7995 H 761.243 0.160573 -2.98969 0
M  V30 7996 H 758.789 0.0757916 -1.438 0
M  V30 7997 H 760.742 2.57253 -3.33764 0
M  V30 7998 H 759.466 2.50398 -2.09686 0
M  V30 7999 H 758.125 0.9377 -3.54405 0
M  V30 8000 H 757.773 3.40893 -3.69866 0
M  V30 8001 H 757.473 2.6121 -5.26349 0
M  V30 8002 H 758.997 3.50622 -4.99897 0
M  V30 8003 H 760.411 1.31066 -5.58117 0
M  V30 8004 H 758.808 0.620935 -5.96879 0
M  V30 8005 H 759.878 -0.234322 -4.84334 0
M  V30 8006 N 761.222 1.57436 0.0718424 0
M  V30 8007 C 762.185 2.02703 1.06977 0
M  V30 8008 C 763.185 0.924062 1.31597 0
M  V30 8009 O 764.375 1.18894 1.27318 0
M  V30 8010 C 761.507 2.40763 2.41342 0
M  V30 8011 H 762.7 2.92098 0.679619 0
M  V30 8012 H 760.253 1.5304 0.317565 0
M  V30 8013 H 760.988 1.54394 2.8519 0
M  V30 8014 H 760.773 3.21249 2.24814 0
M  V30 8015 H 762.263 2.76361 3.13073 0
M  V30 8016 N 762.7 -0.34323 1.53817 0
M  V30 8017 C 764.111 -0.918823 1.62525 0
M  V30 8018 C 764.462 -1.89542 0.506765 0
M  V30 8019 O 763.587 -2.13326 -0.363441 0
M  V30 8020 C 764.182 -1.67326 2.94597 0
M  V30 8021 C 762.741 -2.19786 3.05567 0
M  V30 8022 C 761.888 -1.01708 2.57974 0
M  V30 8023 H 764.839 -0.121358 1.58235 0
M  V30 8024 H 764.86 -2.53615 2.83654 0
M  V30 8025 H 764.372 -0.962223 3.75983 0
M  V30 8026 H 762.473 -2.94065 2.28816 0
M  V30 8027 H 762.586 -2.46135 4.1104 0
M  V30 8028 H 760.95 -1.39058 2.13389 0
M  V30 8029 H 761.733 -0.320671 3.41799 0
M  V30 8030 N 764.178 -1.45556 -0.604258 0
M  V30 8031 C 765.426 -1.4945 -1.36048 0
M  V30 8032 C 765.747 -0.138933 -1.94504 0
M  V30 8033 O 765.017 0.832097 -1.7735 0
M  V30 8034 H 763.597 -0.550381 -0.505064 0
M  V30 8035 H 766.259 -1.81535 -0.709308 0
M  V30 8036 H 765.355 -2.23519 -2.17821 0
M  V30 8037 N 765.656 0.84705 -1.32902 0
M  V30 8038 C 766.588 1.96308 -1.18304 0
M  V30 8039 C 767.601 1.62386 -0.116082 0
M  V30 8040 O 768.79 1.74713 -0.365751 0
M  V30 8041 C 765.89 3.29556 -0.790305 0
M  V30 8042 C 765.063 3.91668 -1.94717 0
M  V30 8043 C 764.122 5.0326 -1.53674 0
M  V30 8044 O 763.148 5.22847 -2.24989 0
M  V30 8045 N 764.35 5.78852 -0.437075 0
M  V30 8046 H 767.115 2.09369 -2.14441 0
M  V30 8047 H 764.676 1.02233 -1.25539 0
M  V30 8048 H 766.668 4.01624 -0.49799 0
M  V30 8049 H 765.238 3.12497 0.0801286 0
M  V30 8050 H 764.458 3.12292 -2.40557 0
M  V30 8051 H 765.746 4.299 -2.72146 0
M  V30 8052 H 765.144 5.65484 0.156316 0
M  V30 8053 H 763.701 6.51479 -0.204399 0
M  V30 8054 N 767.134 1.16236 1.06428 0
M  V30 8055 C 768.381 0.943034 1.79201 0
M  V30 8056 C 768.709 -0.529243 1.87161 0
M  V30 8057 O 767.964 -1.40874 1.35842 0
M  V30 8058 C 768.263 1.51396 3.2375 0
M  V30 8059 C 767.929 3.00833 3.35873 0
M  V30 8060 C 766.591 3.41626 3.38888 0
M  V30 8061 C 768.943 3.96825 3.37904 0
M  V30 8062 C 766.271 4.77033 3.4155 0
M  V30 8063 C 768.623 5.32116 3.42104 0
M  V30 8064 C 767.287 5.72392 3.43401 0
M  V30 8065 H 766.557 0.34508 0.655744 0
M  V30 8066 H 769.204 1.44929 1.25171 0
M  V30 8067 H 767.509 0.929114 3.80624 0
M  V30 8068 H 769.206 1.31996 3.78653 0
M  V30 8069 H 765.796 2.68306 3.3423 0
M  V30 8070 H 769.98 3.66376 3.34787 0
M  V30 8071 H 765.236 5.07569 3.40858 0
M  V30 8072 H 769.41 6.06286 3.42623 0
M  V30 8073 H 767.037 6.77296 3.45216 0
M  V30 8074 O 768.651 -1.1913 1.09043 0
M  V30 8075 H 769.342 -1.77084 0.784907 0
M  V30 END ATOM
M  V30 BEGIN BOND
M  V30 END BOND
M  V30 END CTAB
M  END
$$$$
