drugbank_target|Q9UJM8 Hydroxyacid oxidase 1 (DB02164; DB02279; DB03064; DB03247; DB03884; DB04374; DB06979; DB07060; DB07907; DB15935)
 OpenBabel12092120393D

  0  0  0     0  0            999 V3000
M  V30 BEGIN CTAB
M  V30 COUNTS 5821 5871 0 0 0
M  V30 BEGIN ATOM
M  V30 1 H -0.908 1.98254 -0.117106 0
M  V30 2 N 0 1.576 0 0
M  V30 3 C 0.933 2.03868 1.02534 0
M  V30 4 C 1.911 0.928543 1.3348 0
M  V30 5 O 3.095 1.19667 1.45644 0
M  V30 6 C 0.222 2.43627 2.35294 0
M  V30 7 C -0.732 3.65373 2.2001 0
M  V30 8 S 0.101 5.13292 1.52614 0
M  V30 9 C 1.257 5.56322 2.86805 0
M  V30 10 H 1.49 2.90518 0.631377 0
M  V30 11 H -0.977 1.52953 0.210867 0
M  V30 12 H 0.981 2.67203 3.11629 0
M  V30 13 H -0.358 1.57376 2.7183 0
M  V30 14 H -1.165 3.90944 3.18086 0
M  V30 15 H -1.563 3.418 1.51819 0
M  V30 16 H 0.729 5.58782 3.83104 0
M  V30 17 H 1.672 6.56266 2.65933 0
M  V30 18 H 2.08 4.83886 2.90714 0
M  V30 19 N 1.4781 -0.272755 1.55222 0
M  V30 20 C 2.4081 -1.34136 1.91127 0
M  V30 21 C 3.3891 -1.51513 0.773168 0
M  V30 22 O 4.5741 -1.64552 1.03132 0
M  V30 23 C 1.7041 -2.70083 2.1834 0
M  V30 24 C 0.6581 -2.67437 3.34158 0
M  V30 25 C -0.0159 -4.06938 3.46851 0
M  V30 26 C 1.2841 -2.26686 4.70543 0
M  V30 27 H 2.9781 -1.04333 2.80633 0
M  V30 28 H 0.5241 -0.500454 1.35024 0
M  V30 29 H 2.4771 -3.44952 2.42046 0
M  V30 30 H 1.2011 -3.01469 1.25634 0
M  V30 31 H -0.1399 -1.95026 3.1042 0
M  V30 32 H -0.4919 -4.35547 2.51611 0
M  V30 33 H -0.7919 -4.06062 4.2472 0
M  V30 34 H 0.7321 -4.83545 3.72849 0
M  V30 35 H 2.1461 -2.91277 4.93792 0
M  V30 36 H 0.5431 -2.36971 5.5133 0
M  V30 37 H 1.6131 -1.21818 4.69349 0
M  V30 38 N 2.9562 -1.48159 -0.537278 0
M  V30 39 C 4.3672 -1.49429 -1.11928 0
M  V30 40 C 4.7182 -0.26 -1.9447 0
M  V30 41 O 3.8432 0.633489 -2.0692 0
M  V30 42 C 4.4382 -2.70758 -2.03656 0
M  V30 43 C 2.9972 -2.74923 -2.57088 0
M  V30 44 C 2.1442 -2.42835 -1.3389 0
M  V30 45 H 5.0952 -1.55381 -0.322886 0
M  V30 46 H 5.1162 -2.48861 -2.87834 0
M  V30 47 H 4.6282 -3.60575 -1.43553 0
M  V30 48 H 2.7292 -1.89296 -3.20933 0
M  V30 49 H 2.8422 -3.76157 -2.9672 0
M  V30 50 H 1.2062 -1.93836 -1.65226 0
M  V30 51 H 1.9892 -3.34884 -0.755504 0
M  V30 52 N 4.4343 0.785586 -1.36625 0
M  V30 53 C 5.8503 1.08419 -1.17122 0
M  V30 54 C 6.0503 2.015 0.00208491 0
M  V30 55 O 5.1063 2.43551 0.666278 0
M  V30 56 C 6.4193 1.69498 -2.48377 0
M  V30 57 C 7.9673 1.81821 -2.54775 0
M  V30 58 C 8.4423 2.46315 -3.86126 0
M  V30 59 N 9.9333 2.53779 -3.87492 0
M  V30 60 C 10.6683 3.045 -4.85868 0
M  V30 61 N 10.1643 3.55499 -5.94637 0
M  V30 62 N 11.9573 3.03247 -4.73284 0
M  V30 63 H 4.1083 0.167264 -2.1174 0
M  V30 64 H 6.3713 0.13682 -0.938075 0
M  V30 65 H 6.0773 1.08571 -3.34522 0
M  V30 66 H 5.9513 2.6896 -2.64462 0
M  V30 67 H 8.3383 2.41884 -1.69045 0
M  V30 68 H 8.4193 0.811532 -2.42586 0
M  V30 69 H 8.0633 1.86895 -4.72263 0
M  V30 70 H 7.9933 3.47561 -3.95612 0
M  V30 71 H 10.4843 2.17672 -3.08913 0
M  V30 72 H 10.7973 3.92562 -6.65669 0
M  V30 73 H 9.1423 3.5364 -5.98301 0
M  V30 74 H 12.3333 2.62696 -3.87438 0
M  V30 75 H 12.5063 3.42467 -5.50109 0
M  V30 76 N 5.9124 1.20967 1.01018 0
M  V30 77 C 6.8424 0.988272 2.11555 0
M  V30 78 C 7.8234 -0.0849778 1.69888 0
M  V30 79 O 9.0084 0.0738202 1.9406 0
M  V30 80 C 6.1384 0.546528 3.42973 0
M  V30 81 C 5.0924 1.56375 3.9841 0
M  V30 82 C 4.4184 0.97842 5.25672 0
M  V30 83 C 5.7184 2.94922 4.31066 0
M  V30 84 H 7.4124 1.91276 2.30334 0
M  V30 85 H 4.9584 0.921073 1.1069 0
M  V30 86 H 6.9114 0.378839 4.19694 0
M  V30 87 H 5.6354 -0.413598 3.23971 0
M  V30 88 H 4.2944 1.71891 3.23804 0
M  V30 89 H 3.9424 0.0101688 5.02999 0
M  V30 90 H 3.6424 1.65784 5.63728 0
M  V30 91 H 5.1664 0.821939 6.05043 0
M  V30 92 H 6.5804 2.8288 4.9865 0
M  V30 93 H 4.9774 3.5983 4.80253 0
M  V30 94 H 6.0474 3.4616 3.39561 0
M  V30 95 N 7.3905 -1.2043 1.01659 0
M  V30 96 C 8.6395 -1.89118 0.701237 0
M  V30 97 C 8.9525 -1.79705 -0.772358 0
M  V30 98 O 10.1585 -2.43528 -1.20026 0
M  V30 99 C 8.6145 -3.39168 1.20388 0
M  V30 100 C 8.2225 -3.57166 2.70438 0
M  V30 101 C 9.9665 -4.1341 0.963953 0
M  V30 102 C 7.8735 -5.01042 3.14183 0
M  V30 103 H 6.8035 -0.708267 0.2586 0
M  V30 104 H 9.4545 -1.36239 1.22927 0
M  V30 105 H 7.8365 -3.91369 0.603824 0
M  V30 106 H 9.0105 -3.15351 3.35992 0
M  V30 107 H 7.3255 -2.96294 2.92572 0
M  V30 108 H 9.9225 -5.19491 1.26621 0
M  V30 109 H 10.2655 -4.16181 -0.099578 0
M  V30 110 H 10.7985 -3.67309 1.52738 0
M  V30 111 H 7.5375 -5.03426 4.19812 0
M  V30 112 H 7.0575 -5.43668 2.53348 0
M  V30 113 H 8.7365 -5.69623 3.0682 0
M  V30 114 N 8.8686 -0.792821 -1.36206 0
M  V30 115 C 10.1086 -0.372238 -2.00982 0
M  V30 116 C 10.4726 1.03749 -1.61555 0
M  V30 117 O 11.6736 1.55934 -2.18948 0
M  V30 118 C 9.9446 -0.534566 -3.5338 0
M  V30 119 S 11.5036 -0.202365 -4.38333 0
M  V30 120 H 8.3216 -0.142044 -0.696667 0
M  V30 121 H 10.9236 -1.03206 -1.66039 0
M  V30 122 H 9.6276 -1.5608 -3.79562 0
M  V30 123 H 9.1586 0.141065 -3.93147 0
M  V30 124 H 11.1736 0.994869 -4.86124 0
M  V30 125 N 10.3467 1.47872 -0.545128 0
M  V30 126 C 11.5957 2.01695 -0.0145033 0
M  V30 127 C 11.9087 1.42609 1.33873 0
M  V30 128 O 13.1147 1.88021 1.95858 0
M  V30 129 C 11.5707 3.59892 0.0245068 0
M  V30 130 C 11.1787 4.27966 -1.32475 0
M  V30 131 C 12.9227 4.21507 0.50316 0
M  V30 132 C 10.8297 5.78136 -1.2455 0
M  V30 133 H 9.7597 0.753998 -0.00165172 0
M  V30 134 H 12.4107 1.69985 -0.691175 0
M  V30 135 H 10.7927 3.88509 0.766575 0
M  V30 136 H 11.9667 4.11003 -2.08357 0
M  V30 137 H 10.2817 3.78286 -1.74036 0
M  V30 138 H 12.8787 5.31538 0.580656 0
M  V30 139 H 13.2217 3.87855 1.51243 0
M  V30 140 H 13.7547 3.97376 -0.183681 0
M  V30 141 H 10.4937 6.16388 -2.23039 0
M  V30 142 H 10.0137 5.97469 -0.528282 0
M  V30 143 H 11.6927 6.40099 -0.942488 0
M  V30 144 N 11.8248 0.280983 1.55075 0
M  V30 145 C 12.7728 -0.619864 2.24188 0
M  V30 146 C 13.7668 -1.15315 1.24092 0
M  V30 147 O 14.9728 -1.1061 1.42005 0
M  V30 148 H 11.3478 -0.218459 0.719569 0
M  V30 149 H 13.3188 -0.0141831 2.98397 0
M  V30 150 C 12.0678 -1.7899 2.98091 0
M  V30 151 H 11.3908 -1.38874 3.74905 0
M  V30 152 H 12.8308 -2.39672 3.49762 0
M  V30 153 C 11.2898 -2.68192 2.03899 0
M  V30 154 O 11.8198 -3.6872 1.594 0
M  V30 155 N 10.0258 -2.35488 1.70275 0
M  V30 156 H 9.5728 -1.53787 2.06658 0
M  V30 157 H 9.5308 -2.95442 1.07524 0
M  V30 158 N 13.3029 -1.57598 0.00835791 0
M  V30 159 C 14.5799 -1.82172 -0.712235 0
M  V30 160 C 14.9599 -0.887873 -1.9152 0
M  V30 161 O 14.3079 0.06146 -2.28417 0
M  V30 162 C 14.5179 -3.30875 -1.11008 0
M  V30 163 C 15.8659 -3.96826 -1.51044 0
M  V30 164 O 16.8899 -3.35248 -1.20364 0
M  V30 165 O 15.7489 -5.05318 -2.08125 0
M  V30 166 H 12.8429 -0.750435 -0.347529 0
M  V30 167 H 15.3889 -1.69665 0.0344523 0
M  V30 168 H 14.1609 -3.90481 -0.252982 0
M  V30 169 H 13.7839 -3.48412 -1.9156 0
M  V30 170 N 14.781 0.264519 -1.55364 0
M  V30 171 C 16.011 1.01153 -1.80143 0
M  V30 172 C 16.419 1.80115 -0.579253 0
M  V30 173 O 15.762 1.77813 0.46132 0
M  V30 174 C 15.824 2.01098 -2.97993 0
M  V30 175 C 15.488 1.40995 -4.34706 0
M  V30 176 C 16.485 0.821316 -5.13372 0
M  V30 177 C 14.17 1.43461 -4.81378 0
M  V30 178 C 16.164 0.265339 -6.36847 0
M  V30 179 C 13.851 0.874771 -6.04807 0
M  V30 180 C 14.849 0.291146 -6.82379 0
M  V30 181 O 14.537 -0.260093 -8.03479 0
M  V30 182 H 14.269 0.304125 -0.603725 0
M  V30 183 H 16.823 0.298089 -2.03225 0
M  V30 184 H 15.053 2.76224 -2.70623 0
M  V30 185 H 16.742 2.61997 -3.1002 0
M  V30 186 H 17.508 0.794903 -4.78442 0
M  V30 187 H 13.387 1.87826 -4.21002 0
M  V30 188 H 16.931 -0.190837 -6.97339 0
M  V30 189 H 12.828 0.898452 -6.39217 0
M  V30 190 H 13.596 -0.150265 -8.18362 0
M  V30 191 N 16.2591 1.48442 0.529413 0
M  V30 192 C 17.1691 1.6569 1.66084 0
M  V30 193 C 18.1851 0.539432 1.65427 0
M  V30 194 O 19.3611 0.810572 1.84368 0
M  V30 195 C 16.4261 1.69315 3.02545 0
M  V30 196 C 15.4871 2.92694 3.14052 0
M  V30 197 C 14.7201 2.96137 4.44003 0
M  V30 198 O 14.9431 2.07973 5.31134 0
M  V30 199 O 13.8771 3.88312 4.59888 0
M  V30 200 H 17.7031 2.61483 1.54469 0
M  V30 201 H 15.2881 1.3185 0.702567 0
M  V30 202 H 17.1701 1.74217 3.83701 0
M  V30 203 H 15.8451 0.766966 3.14483 0
M  V30 204 H 14.7521 2.93324 2.32189 0
M  V30 205 H 16.0851 3.84699 3.0703 0
M  V30 206 N 17.7372 -0.778329 1.37039 0
M  V30 207 C 18.6692 -1.90034 1.2814 0
M  V30 208 C 19.6822 -1.61585 0.198558 0
M  V30 209 O 20.8712 -1.72625 0.454175 0
M  V30 210 C 17.9712 -3.25108 0.956968 0
M  V30 211 C 17.1442 -3.81253 2.14394 0
M  V30 212 C 16.2032 -4.94789 1.79082 0
M  V30 213 O 15.2292 -5.10721 2.51301 0
M  V30 214 N 16.4312 -5.75878 0.731043 0
M  V30 215 H 19.1962 -1.98186 2.24816 0
M  V30 216 H 16.7572 -0.957129 1.30578 0
M  V30 217 H 18.7492 -3.9857 0.701701 0
M  V30 218 H 17.3192 -3.125 0.0789812 0
M  V30 219 H 16.5392 -2.99647 2.56135 0
M  V30 220 H 17.8272 -4.15495 2.93668 0
M  V30 221 H 17.2252 -5.65547 0.131618 0
M  V30 222 H 15.7822 -6.49596 0.535622 0
M  V30 223 N 19.2153 -1.21501 -1.00376 0
M  V30 224 C 20.1653 -0.942843 -2.07592 0
M  V30 225 C 21.1493 0.102384 -1.60574 0
M  V30 226 O 22.3413 -0.10671 -1.76678 0
M  V30 227 C 19.4703 -0.510729 -3.3948 0
M  V30 228 C 18.5563 -1.59009 -3.93163 0
M  V30 229 N 18.9473 -2.81544 -4.20198 0
M  V30 230 C 17.2453 -1.45925 -4.21452 0
M  V30 231 C 17.9463 -3.51261 -4.63671 0
M  V30 232 N 16.9223 -2.78703 -4.66718 0
M  V30 233 H 20.7243 -1.87378 -2.26421 0
M  V30 234 H 18.2383 -1.11093 -1.18458 0
M  V30 235 H 20.2353 -0.297101 -4.1584 0
M  V30 236 H 18.8953 0.413436 -3.22057 0
M  V30 237 H 19.9063 -3.18075 -4.08716 0
M  V30 238 H 16.5833 -0.600467 -4.13159 0
M  V30 239 H 17.9733 -4.56183 -4.93302 0
M  V30 240 N 20.6934 1.19889 -1.02296 0
M  V30 241 C 21.6564 2.21116 -0.603351 0
M  V30 242 C 22.6564 1.5738 0.329884 0
M  V30 243 O 23.8464 1.73802 0.117702 0
M  V30 244 C 20.9784 3.40696 0.117992 0
M  V30 245 H 22.1714 2.59754 -1.49893 0
M  V30 246 H 19.7244 1.33463 -0.813468 0
M  V30 247 H 20.4594 3.07569 1.0282 0
M  V30 248 H 20.2444 3.88188 -0.552511 0
M  V30 249 H 21.7344 4.15692 0.398696 0
M  V30 250 N 22.1715 0.800033 1.35784 0
M  V30 251 C 23.1185 0.203848 2.29898 0
M  V30 252 C 24.0885 -0.658375 1.52495 0
M  V30 253 O 25.2735 -0.604832 1.8096 0
M  V30 254 C 22.4135 -0.64688 3.38983 0
M  V30 255 C 21.5265 0.235054 4.3136 0
M  V30 256 C 20.6615 -0.623054 5.27533 0
M  V30 257 C 19.7005 0.259682 6.11549 0
M  V30 258 N 18.8375 -0.558019 6.99879 0
M  V30 259 H 23.6775 1.01186 2.80295 0
M  V30 260 H 21.2145 0.51053 1.37957 0
M  V30 261 H 23.1725 -1.15521 4.00887 0
M  V30 262 H 21.8025 -1.42021 2.89879 0
M  V30 263 H 20.8545 0.861438 3.70518 0
M  V30 264 H 22.1665 0.914768 4.9034 0
M  V30 265 H 21.3205 -1.19678 5.94779 0
M  V30 266 H 20.0595 -1.33636 4.69034 0
M  V30 267 H 19.0645 0.845726 5.43256 0
M  V30 268 H 20.2895 0.970748 6.72126 0
M  V30 269 H 18.2355 -1.25542 6.43875 0
M  V30 270 H 18.1525 0.0637872 7.55973 0
M  V30 271 H 19.4205 -1.11523 7.71481 0
M  V30 272 N 23.6496 -1.47581 0.552962 0
M  V30 273 C 24.8746 -2.07378 0.0300593 0
M  V30 274 C 25.2996 -1.40355 -1.25229 0
M  V30 275 O 24.6576 -0.477099 -1.7491 0
M  V30 276 C 24.7056 -3.60274 -0.153231 0
M  V30 277 O 23.8096 -3.94041 -1.21678 0
M  V30 278 H 23.1506 -0.662158 0.0494182 0
M  V30 279 H 25.6806 -1.89662 0.767434 0
M  V30 280 H 25.6906 -4.0633 -0.368761 0
M  V30 281 H 24.3656 -4.08455 0.783397 0
M  V30 282 H 22.9426 -3.59735 -0.982079 0
M  V30 283 N 25.1277 -0.289203 -1.54924 0
M  V30 284 C 26.3737 0.323998 -2.00195 0
M  V30 285 C 26.7067 1.54441 -1.17735 0
M  V30 286 O 25.9817 1.92875 -0.250878 0
M  V30 287 C 26.2647 0.692276 -3.53383 0
M  V30 288 C 26.1177 -0.536457 -4.46589 0
M  V30 289 C 27.4367 1.52335 -4.12895 0
M  V30 290 H 24.5557 0.116289 -0.727768 0
M  V30 291 H 27.1977 -0.398954 -1.85764 0
M  V30 292 H 25.3477 1.30822 -3.65811 0
M  V30 293 H 27.0197 -1.17499 -4.46085 0
M  V30 294 H 25.2627 -1.17192 -4.1767 0
M  V30 295 H 25.9337 -0.234806 -5.515 0
M  V30 296 H 28.4097 1.00302 -4.0383 0
M  V30 297 H 27.2857 1.74982 -5.20262 0
M  V30 298 H 27.5467 2.50886 -3.64018 0
M  V30 299 N 26.6058 1.57591 -0.0167156 0
M  V30 300 C 27.5358 2.12496 0.967858 0
M  V30 301 C 28.5168 1.03807 1.34752 0
M  V30 302 O 29.7018 1.31577 1.42833 0
M  V30 303 C 26.8318 2.64194 2.25431 0
M  V30 304 C 25.7858 3.77559 2.01576 0
M  V30 305 C 25.1118 4.15636 3.36379 0
M  V30 306 C 26.4118 5.04151 1.36489 0
M  V30 307 H 28.1058 2.95013 0.510643 0
M  V30 308 H 25.6518 1.41915 0.244181 0
M  V30 309 H 27.6048 3.01236 2.94678 0
M  V30 310 H 26.3288 1.78821 2.73296 0
M  V30 311 H 24.9878 3.40937 1.34751 0
M  V30 312 H 24.6358 3.27263 3.81979 0
M  V30 313 H 24.3358 4.92022 3.21229 0
M  V30 314 H 25.8598 4.5525 4.06915 0
M  V30 315 H 27.2738 5.38857 1.95718 0
M  V30 316 H 25.6708 5.85453 1.31776 0
M  V30 317 H 26.7408 4.83733 0.336219 0
M  V30 318 N 28.0839 -0.256276 1.55502 0
M  V30 319 C 29.4949 -0.826068 1.67431 0
M  V30 320 C 29.8459 -1.86396 0.612446 0
M  V30 321 O 28.9709 -2.15031 -0.243025 0
M  V30 322 C 29.5659 -1.50512 3.03532 0
M  V30 323 C 28.1249 -2.02273 3.17431 0
M  V30 324 C 27.2719 -0.870548 2.63281 0
M  V30 325 H 30.2229 -0.0322728 1.58667 0
M  V30 326 H 30.2439 -2.37279 2.97454 0
M  V30 327 H 29.7559 -0.749484 3.80794 0
M  V30 328 H 27.8569 -2.80746 2.44974 0
M  V30 329 H 27.9699 -2.22655 4.24219 0
M  V30 330 H 26.3339 -1.26851 2.20864 0
M  V30 331 H 27.1169 -0.128149 3.43061 0
M  V30 332 N 29.562 -1.4872 -0.521534 0
M  V30 333 C 30.509 -1.63871 -1.62527 0
M  V30 334 C 31.479 -0.480559 -1.58996 0
M  V30 335 O 32.664 -0.705085 -1.77294 0
M  V30 336 C 29.804 -1.69227 -3.00759 0
M  V30 337 C 28.917 -2.96207 -3.14461 0
M  V30 338 C 28.052 -2.92671 -4.43303 0
M  V30 339 C 27.091 -4.14318 -4.50563 0
M  V30 340 N 26.228 -4.0881 -5.70805 0
M  V30 341 H 31.068 -2.58123 -1.48918 0
M  V30 342 H 28.605 -1.28 -0.724878 0
M  V30 343 H 30.563 -1.70314 -3.80853 0
M  V30 344 H 29.193 -0.784586 -3.1312 0
M  V30 345 H 28.245 -3.04826 -2.27564 0
M  V30 346 H 29.557 -3.86192 -3.15686 0
M  V30 347 H 28.711 -2.92206 -5.31696 0
M  V30 348 H 27.45 -2.00429 -4.44612 0
M  V30 349 H 26.455 -4.15049 -3.60575 0
M  V30 350 H 27.68 -5.07729 -4.50986 0
M  V30 351 H 25.626 -3.19394 -5.72995 0
M  V30 352 H 25.543 -4.92509 -5.7356 0
M  V30 353 H 26.811 -4.12418 -6.61462 0
M  V30 354 N 31.0401 0.771051 -1.3745 0
M  V30 355 C 32.2651 1.56529 -1.36065 0
M  V30 356 C 32.6901 1.88029 0.0515859 0
M  V30 357 O 32.0481 1.49282 1.02882 0
M  V30 358 C 32.0961 2.85187 -2.20683 0
M  V30 359 O 31.2001 3.79593 -1.61193 0
M  V30 360 H 30.5411 0.47411 -0.464883 0
M  V30 361 H 33.0711 0.954269 -1.80983 0
M  V30 362 H 33.0811 3.34283 -2.33921 0
M  V30 363 H 31.7561 2.61588 -3.23334 0
M  V30 364 H 30.3331 3.38239 -1.56999 0
M  V30 365 N 32.5182 1.22032 0.997298 0
M  V30 366 C 33.7672 1.03637 1.73038 0
M  V30 367 C 34.0802 -0.429475 1.90827 0
M  V30 368 O 35.2862 -0.732995 2.61418 0
M  V30 369 C 33.7422 1.80582 3.11317 0
M  V30 370 C 33.3502 3.31387 3.01474 0
M  V30 371 C 35.0942 1.70621 3.88701 0
M  V30 372 C 33.0012 4.00791 4.3488 0
M  V30 373 H 31.9312 0.384179 0.648785 0
M  V30 374 H 34.5822 1.4584 1.11368 0
M  V30 375 H 32.9642 1.31175 3.73643 0
M  V30 376 H 34.1382 3.88155 2.4834 0
M  V30 377 H 32.4532 3.41976 2.37575 0
M  V30 378 H 35.0502 2.19799 4.87434 0
M  V30 379 H 35.3932 0.665823 4.10941 0
M  V30 380 H 35.9262 2.17547 3.33044 0
M  V30 381 H 32.6652 5.05064 4.1784 0
M  V30 382 H 32.1852 3.48811 4.87945 0
M  V30 383 H 33.8642 4.06139 5.03647 0
M  V30 384 N 33.9963 -1.19345 1.0293 0
M  V30 385 C 35.2263 -1.92717 0.744563 0
M  V30 386 C 35.6343 -1.75751 -0.700579 0
M  V30 387 O 34.9773 -1.07703 -1.48815 0
M  V30 388 C 35.0393 -3.44828 1.01657 0
M  V30 389 C 34.7033 -3.85564 2.45335 0
M  V30 390 C 35.7003 -3.90286 3.43472 0
M  V30 391 C 33.3853 -4.1719 2.79746 0
M  V30 392 C 35.3793 -4.26065 4.74075 0
M  V30 393 C 33.0663 -4.52642 4.10559 0
M  V30 394 C 34.0643 -4.57054 5.07534 0
M  V30 395 O 33.7523 -4.91685 6.36004 0
M  V30 396 H 33.4843 -0.618977 0.271742 0
M  V30 397 H 36.0383 -1.52415 1.37691 0
M  V30 398 H 34.2683 -3.85314 0.327084 0
M  V30 399 H 35.9573 -3.99437 0.721427 0
M  V30 400 H 36.7233 -3.66002 3.18225 0
M  V30 401 H 32.6023 -4.1294 2.04943 0
M  V30 402 H 36.1463 -4.29423 5.49765 0
M  V30 403 H 32.0433 -4.76383 4.35579 0
M  V30 404 H 32.8113 -5.09631 6.40483 0
M  V30 405 N 35.4744 -0.807222 -1.35358 0
M  V30 406 C 36.7514 -0.311126 -1.9311 0
M  V30 407 C 37.1314 1.19937 -1.73719 0
M  V30 408 O 36.4794 1.99918 -1.10657 0
M  V30 409 C 36.6894 -0.723226 -3.41424 0
M  V30 410 C 38.0374 -0.713078 -4.18569 0
M  V30 411 O 39.0614 -0.664811 -3.49941 0
M  V30 412 O 37.9204 -0.772022 -5.41019 0
M  V30 413 H 35.0144 -0.081526 -0.822972 0
M  V30 414 H 37.5604 -0.890962 -1.4443 0
M  V30 415 H 36.3324 -1.76426 -3.4927 0
M  V30 416 H 35.9554 -0.118232 -3.97424 0
M  V30 417 N 36.9525 1.47285 -0.560781 0
M  V30 418 C 38.1825 2.06555 -0.0429638 0
M  V30 419 C 38.5905 1.41339 1.25777 0
M  V30 420 O 37.9335 0.505182 1.76617 0
M  V30 421 C 37.9955 3.58827 0.219887 0
M  V30 422 C 37.6595 4.46105 -0.991944 0
M  V30 423 C 38.6565 4.84 -1.89843 0
M  V30 424 C 36.3415 4.87567 -1.20762 0
M  V30 425 C 38.3355 5.6216 -3.00425 0
M  V30 426 C 36.0225 5.65491 -2.31653 0
M  V30 427 C 37.0205 6.02699 -3.21315 0
M  V30 428 O 36.7085 6.79052 -4.30283 0
M  V30 429 H 36.4405 0.674537 -0.0444468 0
M  V30 430 H 38.9945 1.90225 -0.774818 0
M  V30 431 H 37.2245 3.73383 1.00609 0
M  V30 432 H 38.9135 4.00103 0.683522 0
M  V30 433 H 39.6795 4.52564 -1.74387 0
M  V30 434 H 35.5585 4.5807 -0.518893 0
M  V30 435 H 39.1025 5.9112 -3.70436 0
M  V30 436 H 34.9995 5.9634 -2.47081 0
M  V30 437 H 35.7675 6.9745 -4.28376 0
M  V30 438 N 38.4306 0.297415 1.54768 0
M  V30 439 C 39.6606 -0.315165 2.04182 0
M  V30 440 C 40.0686 -1.4834 1.17439 0
M  V30 441 O 39.4116 -1.82695 0.191891 0
M  V30 442 C 39.4736 -0.837583 3.49607 0
M  V30 443 C 39.1376 0.204912 4.5654 0
M  V30 444 C 40.1346 1.03214 5.09552 0
M  V30 445 C 37.8196 0.345578 5.0111 0
M  V30 446 C 39.8136 1.986 6.05671 0
M  V30 447 C 37.5006 1.30289 5.97049 0
M  V30 448 C 38.4986 2.12159 6.49213 0
M  V30 449 O 38.1866 3.06268 7.43273 0
M  V30 450 H 37.9186 -0.0729646 0.672051 0
M  V30 451 H 40.4726 0.433907 2.00765 0
M  V30 452 H 38.7026 -1.63712 3.50336 0
M  V30 453 H 40.3916 -1.36566 3.82236 0
M  V30 454 H 41.1576 0.934312 4.75916 0
M  V30 455 H 37.0366 -0.28171 4.60138 0
M  V30 456 H 40.5806 2.62542 6.46311 0
M  V30 457 H 36.4776 1.40145 6.30103 0
M  V30 458 H 37.2456 3.01205 7.61064 0
M  V30 459 N 39.9087 -1.5758 0.0250728 0
M  V30 460 C 41.3247 -1.56124 -0.331282 0
M  V30 461 C 41.5247 -1.03029 -1.73169 0
M  V30 462 O 40.5807 -0.675215 -2.43305 0
M  V30 463 C 41.8937 -3.00139 -0.183584 0
M  V30 464 C 43.4417 -3.11946 -0.256654 0
M  V30 465 C 43.9167 -4.57793 -0.137792 0
M  V30 466 N 45.4077 -4.6279 -0.194904 0
M  V30 467 C 46.1427 -5.7326 -0.126655 0
M  V30 468 N 45.6387 -6.928 -0.00755288 0
M  V30 469 N 47.4317 -5.61811 -0.180348 0
M  V30 470 H 39.5827 -1.90424 0.94087 0
M  V30 471 H 41.8457 -0.875761 0.362968 0
M  V30 472 H 41.5517 -3.4292 0.780927 0
M  V30 473 H 41.4257 -3.64899 -0.955448 0
M  V30 474 H 43.8127 -2.69079 -1.21162 0
M  V30 475 H 43.8937 -2.49915 0.545517 0
M  V30 476 H 43.5377 -5.01339 0.813739 0
M  V30 477 H 43.4677 -5.17798 -0.958775 0
M  V30 478 H 45.9587 -3.76807 -0.287267 0
M  V30 479 H 46.2717 -7.72791 0.0379428 0
M  V30 480 H 44.6167 -6.94995 0.0271731 0
M  V30 481 H 47.8077 -4.6731 -0.271767 0
M  V30 482 H 47.9807 -6.47882 -0.123697 0
M  V30 483 N 41.3868 0.248026 -1.55636 0
M  V30 484 C 42.6118 0.998028 -1.81808 0
M  V30 485 C 43.0368 1.78207 -0.601979 0
M  V30 486 O 42.3948 1.75653 0.448961 0
M  V30 487 C 42.4428 1.9125 -3.05705 0
M  V30 488 O 41.5468 3.00406 -2.82542 0
M  V30 489 H 40.8878 0.284045 -0.600179 0
M  V30 490 H 43.4178 0.269357 -2.02819 0
M  V30 491 H 43.4278 2.32737 -3.35108 0
M  V30 492 H 42.1028 1.33602 -3.93857 0
M  V30 493 H 40.6798 2.63056 -2.64303 0
M  V30 494 N 42.8649 1.48995 0.513639 0
M  V30 495 C 44.1129 1.57531 1.26604 0
M  V30 496 C 44.4339 0.258236 1.93283 0
M  V30 497 O 43.7039 -0.721502 1.8213 0
M  V30 498 H 42.2839 0.580387 0.470276 0
M  V30 499 H 44.9459 1.85552 0.596373 0
M  V30 500 H 44.0419 2.36486 2.03669 0
M  V30 501 N 44.343 -0.763751 1.37857 0
M  V30 502 C 45.306 -1.85889 1.34081 0
M  V30 503 C 46.306 -1.58949 0.243277 0
M  V30 504 O 47.496 -1.66882 0.499589 0
M  V30 505 C 44.628 -3.23176 1.08489 0
M  V30 506 H 45.821 -1.90648 2.31502 0
M  V30 507 H 43.374 -0.964367 1.23003 0
M  V30 508 H 44.109 -3.24091 0.116318 0
M  V30 509 H 43.894 -3.44124 1.8794 0
M  V30 510 H 45.384 -4.03254 1.08517 0
M  V30 511 N 45.8211 -1.22559 -0.990812 0
M  V30 512 C 46.7691 -0.994798 -2.10253 0
M  V30 513 C 47.7631 0.0627798 -1.69284 0
M  V30 514 O 48.9691 -0.0898392 -1.79776 0
M  V30 515 H 45.3441 -0.304527 -0.687581 0
M  V30 516 H 47.3151 -1.93812 -2.26891 0
M  V30 517 C 46.0641 -0.591439 -3.42633 0
M  V30 518 H 45.3871 -1.3969 -3.74602 0
M  V30 519 H 46.8271 -0.469385 -4.21394 0
M  V30 520 C 45.2861 0.699232 -3.29564 0
M  V30 521 O 45.8161 1.75112 -3.61523 0
M  V30 522 N 44.0221 0.671182 -2.82743 0
M  V30 523 H 43.5691 -0.185136 -2.56934 0
M  V30 524 H 43.5271 1.53502 -2.7438 0
M  V30 525 N 47.2992 1.18797 -1.03562 0
M  V30 526 C 48.5762 1.84469 -0.650434 0
M  V30 527 C 48.9562 1.92319 0.870433 0
M  V30 528 O 48.3042 1.44528 1.76986 0
M  V30 529 C 48.5142 3.2306 -1.32036 0
M  V30 530 C 49.8622 3.9915 -1.44792 0
M  V30 531 O 50.8862 3.32481 -1.27806 0
M  V30 532 O 49.7452 5.18587 -1.72423 0
M  V30 533 H 46.8392 0.795251 -0.226946 0
M  V30 534 H 49.3852 1.26231 -1.13419 0
M  V30 535 H 48.1572 3.1222 -2.3587 0
M  V30 536 H 47.7802 3.88949 -0.8249 0
M  V30 537 N 48.7773 0.814389 1.34928 0
M  V30 538 C 49.6873 0.231978 2.3345 0
M  V30 539 C 50.7033 -0.629139 1.62228 0
M  V30 540 O 51.8793 -0.539052 1.94052 0
M  V30 541 C 48.9443 -0.603482 3.41407 0
M  V30 542 C 48.0053 0.279037 4.28392 0
M  V30 543 C 47.2383 -0.516643 5.31193 0
M  V30 544 O 47.4613 -1.75068 5.4287 0
M  V30 545 O 46.3953 0.0965652 6.01823 0
M  V30 546 H 50.2213 1.04721 2.85074 0
M  V30 547 H 47.8063 0.576343 1.37836 0
M  V30 548 H 49.6883 -1.07908 4.0735 0
M  V30 549 H 48.3633 -1.39618 2.92042 0
M  V30 550 H 47.2703 0.801948 3.65403 0
M  V30 551 H 48.6033 1.03588 4.81176 0
M  V30 552 N 50.2554 -1.46986 0.568584 0
M  V30 553 C 51.1654 -2.33942 -0.17555 0
M  V30 554 C 52.1814 -1.48891 -0.90041 0
M  V30 555 O 53.3574 -1.81794 -0.86676 0
M  V30 556 C 50.4224 -3.25811 -1.18524 0
M  V30 557 C 49.4834 -4.26757 -0.466582 0
M  V30 558 C 48.7164 -5.14236 -1.42817 0
M  V30 559 O 48.9394 -5.04379 -2.66379 0
M  V30 560 O 47.8734 -5.94412 -0.946453 0
M  V30 561 H 51.6994 -2.98896 0.538036 0
M  V30 562 H 49.2844 -1.4573 0.329097 0
M  V30 563 H 51.1664 -3.82527 -1.76779 0
M  V30 564 H 49.8414 -2.63471 -1.88055 0
M  V30 565 H 48.7484 -3.73769 0.157451 0
M  V30 566 H 50.0814 -4.91843 0.187485 0
M  V30 567 N 51.7335 -0.305618 -1.54608 0
M  V30 568 C 52.9615 0.304775 -2.04643 0
M  V30 569 C 53.3765 1.47167 -1.18268 0
M  V30 570 O 52.7335 1.81296 -0.209328 0
M  V30 571 C 52.7845 0.756564 -3.53495 0
M  V30 572 O 52.5055 -0.36389 -4.36586 0
M  V30 573 C 54.0065 1.43163 -4.19546 0
M  V30 574 H 51.2265 0.0655481 -0.667791 0
M  V30 575 H 53.7705 -0.446592 -1.99564 0
M  V30 576 H 51.9255 1.45794 -3.58919 0
M  V30 577 H 52.3395 -0.0113121 -5.24499 0
M  V30 578 H 53.8135 1.69886 -5.25207 0
M  V30 579 H 54.2905 2.37318 -3.69563 0
M  V30 580 H 54.8965 0.773307 -4.18211 0
M  V30 581 N 53.2116 1.57565 -0.0334293 0
M  V30 582 C 54.1416 2.13511 0.945265 0
M  V30 583 C 55.1226 1.05231 1.33643 0
M  V30 584 O 56.3076 1.33084 1.41429 0
M  V30 585 C 53.4376 2.6657 2.22616 0
M  V30 586 C 52.3916 3.79676 1.97561 0
M  V30 587 C 51.7176 4.1918 3.31952 0
M  V30 588 C 53.0176 5.0557 1.31135 0
M  V30 589 H 54.7116 2.95538 0.479325 0
M  V30 590 H 52.2576 1.42166 0.229115 0
M  V30 591 H 54.2106 3.04344 2.91466 0
M  V30 592 H 52.9346 1.8171 2.71384 0
M  V30 593 H 51.5936 3.42347 1.31127 0
M  V30 594 H 51.2416 3.31296 3.78487 0
M  V30 595 H 50.9416 4.95402 3.15992 0
M  V30 596 H 52.4656 4.59541 4.02063 0
M  V30 597 H 53.8796 5.40903 1.89992 0
M  V30 598 H 52.2766 5.86818 1.25559 0
M  V30 599 H 53.3466 4.84062 0.284894 0
M  V30 600 N 54.6897 -0.239769 1.55765 0
M  V30 601 C 55.6527 -1.28038 1.90103 0
M  V30 602 C 56.6527 -1.40723 0.778055 0
M  V30 603 O 57.8427 -1.39301 1.04599 0
M  V30 604 C 54.9747 -2.65702 2.13577 0
M  V30 605 H 56.1677 -0.988048 2.83157 0
M  V30 606 H 53.7207 -0.479382 1.48767 0
M  V30 607 H 54.4557 -3.00063 1.23015 0
M  V30 608 H 54.2407 -2.57875 2.95369 0
M  V30 609 H 55.7307 -3.40828 2.41301 0
M  V30 610 N 56.1678 -1.49265 -0.50573 0
M  V30 611 C 57.4448 -1.49012 -1.26707 0
M  V30 612 C 57.8248 -0.215205 -2.1 0
M  V30 613 O 57.1728 0.802547 -2.13943 0
M  V30 614 C 57.3828 -2.7663 -2.12783 0
M  V30 615 C 58.7308 -3.25932 -2.72127 0
M  V30 616 O 59.7548 -2.77715 -2.23054 0
M  V30 617 O 58.6138 -4.09897 -3.61451 0
M  V30 618 H 55.7078 -0.596197 -0.57313 0
M  V30 619 H 58.2538 -1.61524 -0.52039 0
M  V30 620 H 57.0258 -3.60916 -1.5118 0
M  V30 621 H 56.6488 -2.66956 -2.94653 0
M  V30 622 N 57.6459 0.756429 -1.3826 0
M  V30 623 C 58.5939 1.89149 -1.35372 0
M  V30 624 C 59.5879 1.67691 -0.24004 0
M  V30 625 O 60.7939 1.75294 -0.408919 0
M  V30 626 H 57.1689 0.622271 -0.422236 0
M  V30 627 H 59.1399 1.88701 -2.31159 0
M  V30 628 C 57.8889 3.26599 -1.19284 0
M  V30 629 H 57.2119 3.43695 -2.0424 0
M  V30 630 H 58.6519 4.06274 -1.21316 0
M  V30 631 C 57.1109 3.3675 0.100454 0
M  V30 632 O 57.6409 3.86951 1.07851 0
M  V30 633 N 55.8469 2.90179 0.15633 0
M  V30 634 H 55.3939 2.49517 -0.640253 0
M  V30 635 H 55.3519 2.97352 1.02123 0
M  V30 636 N 59.124 1.23083 0.984299 0
M  V30 637 C 60.373 1.05466 1.71929 0
M  V30 638 C 60.686 -0.409211 1.91272 0
M  V30 639 O 61.892 -0.705226 2.62181 0
M  V30 640 C 60.348 1.83874 3.09384 0
M  V30 641 C 59.956 3.34566 2.97943 0
M  V30 642 C 61.7 1.74734 3.8687 0
M  V30 643 C 59.607 4.05381 4.30605 0
M  V30 644 H 58.537 0.391039 0.644674 0
M  V30 645 H 61.188 1.47013 1.09815 0
M  V30 646 H 59.57 1.35131 3.72231 0
M  V30 647 H 60.744 3.90767 2.44209 0
M  V30 648 H 59.059 3.44476 2.33934 0
M  V30 649 H 61.656 2.24957 4.85076 0
M  V30 650 H 61.999 0.709372 4.10212 0
M  V30 651 H 62.532 2.21067 3.30717 0
M  V30 652 H 59.271 5.09467 4.1246 0
M  V30 653 H 58.791 3.53967 4.84218 0
M  V30 654 H 60.47 4.11458 4.99311 0
M  V30 655 N 60.6021 -1.18246 1.0419 0
M  V30 656 C 61.5651 -2.20128 0.638452 0
M  V30 657 C 62.5651 -1.57885 -0.304805 0
M  V30 658 O 63.7551 -1.73967 -0.0900369 0
M  V30 659 C 60.8871 -3.4084 -0.0637751 0
M  V30 660 H 62.0801 -2.57336 1.54007 0
M  V30 661 H 59.6331 -1.32152 0.834598 0
M  V30 662 H 60.3681 -3.09166 -0.979136 0
M  V30 663 H 60.1531 -3.8726 0.614198 0
M  V30 664 H 61.6431 -4.16274 -0.332512 0
M  V30 665 N 62.0802 -0.821533 -1.34494 0
M  V30 666 C 63.0432 -0.247847 -2.27856 0
M  V30 667 C 64.0432 0.573453 -1.50227 0
M  V30 668 O 65.2332 0.389759 -1.69784 0
M  V30 669 C 62.3652 0.652698 -3.34593 0
M  V30 670 H 63.5582 -1.07146 -2.80107 0
M  V30 671 H 61.1112 -0.593291 -1.44602 0
M  V30 672 H 61.8462 1.49943 -2.87555 0
M  V30 673 H 61.6312 0.065292 -3.92046 0
M  V30 674 H 63.1212 1.04793 -4.04238 0
M  V30 675 N 63.5583 1.46682 -0.576371 0
M  V30 676 C 64.8053 2.02412 -0.0595339 0
M  V30 677 C 65.1333 1.44859 1.29793 0
M  V30 678 O 64.3883 0.601099 1.8624 0
M  V30 679 C 64.6873 3.57345 0.062886 0
M  V30 680 C 64.3533 4.33908 -1.22616 0
M  V30 681 C 63.0153 4.54544 -1.57933 0
M  V30 682 C 65.3673 4.77919 -2.07948 0
M  V30 683 C 62.6953 5.16444 -2.78393 0
M  V30 684 C 65.0473 5.41149 -3.27629 0
M  V30 685 C 63.7113 5.60014 -3.63236 0
M  V30 686 H 62.9813 0.74068 -0.021785 0
M  V30 687 H 65.6283 1.76128 -0.751735 0
M  V30 688 H 63.9333 3.82729 0.838178 0
M  V30 689 H 65.6303 3.98136 0.478439 0
M  V30 690 H 62.2203 4.18138 -0.941202 0
M  V30 691 H 66.4043 4.61738 -1.81967 0
M  V30 692 H 61.6603 5.29242 -3.06126 0
M  V30 693 H 65.8343 5.74211 -3.94023 0
M  V30 694 H 63.4613 6.07748 -4.56669 0
M  V30 695 N 65.0364 0.313813 1.54444 0
M  V30 696 C 66.2614 -0.296681 2.05267 0
M  V30 697 C 66.6864 -1.45757 1.18897 0
M  V30 698 O 66.0444 -1.80239 0.195886 0
M  V30 699 C 66.0924 -0.71831 3.53373 0
M  V30 700 O 65.1964 -1.82175 3.69981 0
M  V30 701 H 64.5374 -0.0554061 0.661684 0
M  V30 702 H 67.0674 0.459387 1.99376 0
M  V30 703 H 67.0774 -1.00364 3.95463 0
M  V30 704 H 65.7524 0.130821 4.15694 0
M  V30 705 H 64.3294 -1.53598 3.39797 0
M  V30 706 N 66.5145 -1.57545 0.0417849 0
M  V30 707 C 67.9305 -1.56467 -0.314704 0
M  V30 708 C 68.1305 -1.04859 -1.72066 0
M  V30 709 O 67.1865 -0.700983 -2.42575 0
M  V30 710 C 68.4995 -3.00317 -0.15174 0
M  V30 711 C 70.0475 -3.12201 -0.223553 0
M  V30 712 C 70.5225 -4.57913 -0.0892295 0
M  V30 713 N 72.0135 -4.6297 -0.145808 0
M  V30 714 C 72.7485 -5.73362 -0.0658459 0
M  V30 715 N 72.2445 -6.92769 0.0659282 0
M  V30 716 N 74.0375 -5.6197 -0.12075 0
M  V30 717 H 66.1885 -1.89416 0.961014 0
M  V30 718 H 68.4515 -0.871862 0.372237 0
M  V30 719 H 68.1575 -3.42073 0.817254 0
M  V30 720 H 68.0315 -3.65892 -0.916692 0
M  V30 721 H 70.4185 -2.70349 -1.18301 0
M  V30 722 H 70.4995 -2.49323 0.571994 0
M  V30 723 H 70.1435 -5.00448 0.866867 0
M  V30 724 H 70.0735 -5.18786 -0.903802 0
M  V30 725 H 72.5645 -3.7709 -0.247286 0
M  V30 726 H 72.8775 -7.72707 0.119905 0
M  V30 727 H 71.2225 -6.94927 0.100885 0
M  V30 728 H 74.4135 -4.67572 -0.222187 0
M  V30 729 H 74.5865 -6.47977 -0.0549735 0
M  V30 730 N 67.9926 0.231505 -1.5589 0
M  V30 731 C 69.2386 0.954429 -1.79617 0
M  V30 732 C 69.5936 1.82367 -0.613199 0
M  V30 733 O 68.8866 1.87524 0.393094 0
M  V30 734 C 69.0806 1.83577 -3.0665 0
M  V30 735 C 68.9096 1.05334 -4.3719 0
M  V30 736 C 67.6796 0.75225 -4.99669 0
M  V30 737 C 69.8776 0.423444 -5.12554 0
M  V30 738 N 67.8596 -0.052627 -6.13877 0
M  V30 739 C 69.2306 -0.245287 -6.19515 0
M  V30 740 C 71.2856 0.335466 -4.96769 0
M  V30 741 C 69.9886 -0.993566 -7.12405 0
M  V30 742 C 72.0146 -0.399321 -5.9005 0
M  V30 743 C 71.3766 -1.05663 -6.9643 0
M  V30 744 H 67.4756 0.329846 -0.709031 0
M  V30 745 H 70.0596 0.226172 -1.93382 0
M  V30 746 H 68.2306 2.53592 -2.94186 0
M  V30 747 H 69.9626 2.49541 -3.18608 0
M  V30 748 H 66.7176 1.06783 -4.61405 0
M  V30 749 H 67.1416 -0.443609 -6.75545 0
M  V30 750 H 71.7836 0.829311 -4.14587 0
M  V30 751 H 69.5016 -1.49896 -7.94076 0
M  V30 752 H 73.0876 -0.468265 -5.79913 0
M  V30 753 H 71.9676 -1.61612 -7.67366 0
M  V30 754 N 69.4707 1.49531 0.497807 0
M  V30 755 C 70.4177 1.66436 1.59899 0
M  V30 756 C 71.3877 0.505793 1.58212 0
M  V30 757 O 72.5727 0.733202 1.7615 0
M  V30 758 C 69.7127 1.7399 2.98029 0
M  V30 759 C 68.8257 3.01172 3.09708 0
M  V30 760 C 67.9607 2.99686 4.38591 0
M  V30 761 C 66.9997 4.21434 4.43914 0
M  V30 762 N 66.1367 4.1784 5.64229 0
M  V30 763 H 70.9767 2.60459 1.44793 0
M  V30 764 H 68.5137 1.29137 0.704423 0
M  V30 765 H 70.4717 1.76352 3.78095 0
M  V30 766 H 69.1017 0.834301 3.11832 0
M  V30 767 H 68.1537 3.08408 2.22685 0
M  V30 768 H 69.4657 3.91165 3.09502 0
M  V30 769 H 68.6197 3.00628 5.2698 0
M  V30 770 H 67.3587 2.07477 4.41367 0
M  V30 771 H 66.3637 4.20733 3.53926 0
M  V30 772 H 67.5887 5.14839 4.42851 0
M  V30 773 H 65.5347 3.28469 5.67841 0
M  V30 774 H 65.4517 5.01571 5.65652 0
M  V30 775 H 66.7197 4.22889 6.54817 0
M  V30 776 N 70.9488 -0.749086 1.3866 0
M  V30 777 C 71.8788 -1.8764 1.38973 0
M  V30 778 C 72.8598 -1.68178 0.255004 0
M  V30 779 O 74.0448 -1.88704 0.458754 0
M  V30 780 C 71.1748 -3.25222 1.21851 0
M  V30 781 C 70.1288 -3.59295 2.32575 0
M  V30 782 C 69.4548 -4.95663 2.00555 0
M  V30 783 C 70.7548 -3.63709 3.7485 0
M  V30 784 H 72.4488 -1.87635 2.3331 0
M  V30 785 H 69.9948 -0.901329 1.12303 0
M  V30 786 H 71.9478 -4.03746 1.20695 0
M  V30 787 H 70.6718 -3.25719 0.239775 0
M  V30 788 H 69.3308 -2.83093 2.32925 0
M  V30 789 H 68.9788 -4.92724 1.01154 0
M  V30 790 H 68.6788 -5.19429 2.74714 0
M  V30 791 H 70.2028 -5.7656 2.01024 0
M  V30 792 H 71.6168 -4.32338 3.76506 0
M  V30 793 H 70.0138 -3.98986 4.48252 0
M  V30 794 H 71.0838 -2.63834 4.06841 0
M  V30 795 N 72.4269 -1.23603 -0.977757 0
M  V30 796 C 73.6569 -1.09487 -1.75203 0
M  V30 797 C 74.0649 0.356321 -1.85814 0
M  V30 798 O 73.4079 1.25816 -1.33851 0
M  V30 799 C 73.4699 -1.64905 -3.19447 0
M  V30 800 C 73.1339 -3.13688 -3.32338 0
M  V30 801 C 74.1309 -4.10953 -3.18455 0
M  V30 802 C 71.8159 -3.53449 -3.56902 0
M  V30 803 C 73.8099 -5.45962 -3.28944 0
M  V30 804 C 71.4969 -4.88602 -3.6703 0
M  V30 805 C 72.4949 -5.84668 -3.53062 0
M  V30 806 O 72.1829 -7.17365 -3.62826 0
M  V30 807 H 71.9149 -0.38367 -0.556573 0
M  V30 808 H 74.4689 -1.6398 -1.23693 0
M  V30 809 H 72.6989 -1.04835 -3.72218 0
M  V30 810 H 74.3879 -1.46226 -3.78646 0
M  V30 811 H 75.1539 -3.81577 -2.99372 0
M  V30 812 H 71.0329 -2.79188 -3.66844 0
M  V30 813 H 74.5769 -6.20925 -3.17958 0
M  V30 814 H 70.4739 -5.17653 -3.85623 0
M  V30 815 H 71.2419 -7.2515 -3.79605 0
M  V30 816 N 73.905 1.17692 -1.04816 0
M  V30 817 C 75.316 1.69501 -0.782698 0
M  V30 818 C 75.667 1.83456 0.695577 0
M  V30 819 O 74.792 1.51942 1.54086 0
M  V30 820 C 75.387 3.07874 -1.41419 0
M  V30 821 C 73.946 3.56864 -1.19686 0
M  V30 822 C 73.093 2.3322 -1.50012 0
M  V30 823 H 76.044 1.02262 -1.2136 0
M  V30 824 H 76.065 3.71528 -0.821428 0
M  V30 825 H 75.577 2.97685 -2.49009 0
M  V30 826 H 73.678 3.72337 -0.140043 0
M  V30 827 H 73.791 4.39851 -1.89916 0
M  V30 828 H 72.155 2.37501 -0.920071 0
M  V30 829 H 72.938 2.25644 -2.58727 0
M  V30 830 N 75.3831 0.828654 1.34056 0
M  V30 831 C 76.7991 0.515135 1.51058 0
M  V30 832 C 76.9991 -0.959581 1.77184 0
M  V30 833 O 76.0551 -1.74382 1.82612 0
M  V30 834 C 77.3681 1.37963 2.67183 0
M  V30 835 C 78.9161 1.37735 2.81066 0
M  V30 836 C 79.3911 2.22645 4.00241 0
M  V30 837 N 80.8821 2.203 4.07458 0
M  V30 838 C 81.6171 2.82744 4.98842 0
M  V30 839 N 81.1131 3.54201 5.9541 0
M  V30 840 N 82.9061 2.72268 4.91759 0
M  V30 841 H 75.0571 1.78343 1.15358 0
M  V30 842 H 77.3201 0.760304 0.566252 0
M  V30 843 H 77.0261 2.42714 2.54525 0
M  V30 844 H 76.9001 1.0484 3.62338 0
M  V30 845 H 79.2871 0.337593 2.93163 0
M  V30 846 H 79.3681 1.74859 1.86703 0
M  V30 847 H 79.0121 3.26674 3.88905 0
M  V30 848 H 78.9421 1.82869 4.93829 0
M  V30 849 H 81.4331 1.68327 3.38341 0
M  V30 850 H 81.7461 3.9908 6.61782 0
M  V30 851 H 80.0911 3.58308 5.95517 0
M  V30 852 H 83.2821 2.16014 4.15278 0
M  V30 853 H 83.4551 3.21219 5.62781 0
M  V30 854 N 76.8612 -1.46375 0.584142 0
M  V30 855 C 77.7942 -2.27351 -0.196676 0
M  V30 856 C 78.7722 -1.35715 -0.895561 0
M  V30 857 O 79.9562 -1.65126 -0.90916 0
M  V30 858 C 77.0832 -3.13486 -1.28235 0
M  V30 859 C 76.1292 -4.20896 -0.689145 0
M  V30 860 S 76.9622 -5.33299 0.48507 0
M  V30 861 C 78.1182 -6.23 -0.601767 0
M  V30 862 H 78.3512 -2.93228 0.490395 0
M  V30 863 H 75.8842 -1.49875 0.371071 0
M  V30 864 H 77.8422 -3.63676 -1.90395 0
M  V30 865 H 76.5032 -2.4692 -1.94138 0
M  V30 866 H 75.6962 -4.80997 -1.50527 0
M  V30 867 H 75.2982 -3.73726 -0.143181 0
M  V30 868 H 77.5902 -6.60979 -1.48705 0
M  V30 869 H 78.5332 -7.0809 -0.0374799 0
M  V30 870 H 78.9412 -5.57173 -0.906557 0
M  V30 871 N 78.3393 -0.321999 -1.54275 0
M  V30 872 C 79.2693 0.537411 -2.27231 0
M  V30 873 C 80.2503 1.12064 -1.27968 0
M  V30 874 O 81.4353 1.14606 -1.56777 0
M  V30 875 C 78.5653 1.69919 -3.02894 0
M  V30 876 C 77.5193 1.24534 -4.09482 0
M  V30 877 C 76.8453 2.49394 -4.72977 0
M  V30 878 C 78.1453 0.361335 -5.21049 0
M  V30 879 H 79.8393 -0.0711406 -2.99315 0
M  V30 880 H 77.3853 -0.0356555 -1.43956 0
M  V30 881 H 79.3383 2.30668 -3.52662 0
M  V30 882 H 78.0623 2.33431 -2.28424 0
M  V30 883 H 76.7213 0.660782 -3.60596 0
M  V30 884 H 76.3693 3.11265 -3.95124 0
M  V30 885 H 76.0693 2.19718 -5.44975 0
M  V30 886 H 77.5933 3.10908 -5.25517 0
M  V30 887 H 79.0073 0.875072 -5.66582 0
M  V30 888 H 77.4043 0.157428 -5.99893 0
M  V30 889 H 78.4743 -0.60822 -4.8107 0
M  V30 890 N 79.8174 1.5752 -0.0501392 0
M  V30 891 C 81.2334 1.56631 0.306402 0
M  V30 892 C 81.4334 1.0577 1.71508 0
M  V30 893 O 80.4894 0.713837 2.422 0
M  V30 894 C 81.8024 3.00393 0.135811 0
M  V30 895 C 83.3504 3.12315 0.206993 0
M  V30 896 C 83.8254 4.57954 0.064944 0
M  V30 897 N 85.3164 4.63041 0.121254 0
M  V30 898 C 86.0514 5.73389 0.0354381 0
M  V30 899 N 85.5474 6.92724 -0.102666 0
M  V30 900 N 87.3404 5.62026 0.090946 0
M  V30 901 H 79.4914 1.88903 -0.971046 0
M  V30 902 H 81.7544 0.869876 -0.376855 0
M  V30 903 H 81.4604 3.41635 -0.835384 0
M  V30 904 H 81.3344 3.66373 0.897275 0
M  V30 905 H 83.7214 2.70973 1.16866 0
M  V30 906 H 83.8024 2.49016 -0.585208 0
M  V30 907 H 83.4464 4.99981 -0.893394 0
M  V30 908 H 83.3764 5.19258 0.876277 0
M  V30 909 H 85.8674 3.77216 0.227284 0
M  V30 910 H 86.1804 7.72633 -0.160882 0
M  V30 911 H 84.5254 6.94864 -0.137737 0
M  V30 912 H 87.7164 4.67684 0.197388 0
M  V30 913 H 87.8894 6.47997 0.0206089 0
M  V30 914 N 81.2955 -0.223234 1.56011 0
M  V30 915 C 82.2435 -1.29627 1.93131 0
M  V30 916 C 83.2375 -1.48608 0.813146 0
M  V30 917 O 84.4435 -1.49802 0.997966 0
M  V30 918 H 80.8185 -0.434563 0.613726 0
M  V30 919 H 82.7895 -0.955995 2.82672 0
M  V30 920 C 81.5385 -2.63983 2.26292 0
M  V30 921 H 80.8615 -2.50185 3.11846 0
M  V30 922 H 82.3015 -3.3788 2.56151 0
M  V30 923 C 80.7605 -3.18866 1.08747 0
M  V30 924 O 81.2905 -4.00192 0.347727 0
M  V30 925 N 79.4965 -2.77217 0.871743 0
M  V30 926 H 79.0435 -2.1119 1.47501 0
M  V30 927 H 79.0015 -3.1428 0.0869905 0
M  V30 928 N 82.7736 -1.49793 -0.48987 0
M  V30 929 C 84.0196 -1.60078 -1.24511 0
M  V30 930 C 84.3526 -0.291608 -1.91998 0
M  V30 931 O 83.6276 0.705647 -1.81248 0
M  V30 932 C 83.9106 -2.76791 -2.30345 0
M  V30 933 C 83.7636 -4.17535 -1.67286 0
M  V30 934 C 85.0826 -2.89111 -3.31817 0
M  V30 935 H 82.2016 -0.582645 -0.451324 0
M  V30 936 H 84.8436 -1.82117 -0.541612 0
M  V30 937 H 82.9936 -2.5813 -2.90346 0
M  V30 938 H 84.6656 -4.4774 -1.11026 0
M  V30 939 H 82.9086 -4.22665 -0.976577 0
M  V30 940 H 83.5796 -4.95094 -2.44103 0
M  V30 941 H 86.0556 -3.06133 -2.81819 0
M  V30 942 H 84.9316 -3.72433 -4.03219 0
M  V30 943 H 85.1926 -1.9893 -3.94815 0
M  V30 944 N 84.2517 0.741722 -1.39055 0
M  V30 945 C 85.2147 1.83733 -1.37021 0
M  V30 946 C 86.2147 1.58542 -0.268534 0
M  V30 947 O 87.4047 1.66067 -0.526076 0
M  V30 948 C 84.5367 3.2141 -1.13617 0
M  V30 949 H 85.7297 1.86941 -2.34506 0
M  V30 950 H 83.2827 0.944676 -1.24521 0
M  V30 951 H 84.0177 3.23865 -0.167863 0
M  V30 952 H 83.8027 3.4109 -1.93391 0
M  V30 953 H 85.2927 4.01477 -1.14918 0
M  V30 954 N 85.7298 1.2412 0.971189 0
M  V30 955 C 86.6398 1.04747 2.09917 0
M  V30 956 C 87.6558 -0.0107162 1.73997 0
M  V30 957 O 88.8318 0.186714 2.00533 0
M  V30 958 C 85.8968 0.650828 3.40537 0
M  V30 959 C 84.9578 1.7851 3.90426 0
M  V30 960 C 84.1908 1.40729 5.14812 0
M  V30 961 O 84.4138 0.29557 5.69634 0
M  V30 962 O 83.3478 2.23168 5.58999 0
M  V30 963 H 87.1738 1.99304 2.29154 0
M  V30 964 H 84.7588 1.02908 1.08307 0
M  V30 965 H 86.6408 0.440992 4.19086 0
M  V30 966 H 85.3158 -0.265649 3.22608 0
M  V30 967 H 84.2228 2.04966 3.12953 0
M  V30 968 H 85.5558 2.68023 4.12825 0
M  V30 969 N 87.2079 -1.17134 1.05439 0
M  V30 970 C 88.4359 -1.91372 0.786414 0
M  V30 971 C 88.8509 -1.76955 -0.658202 0
M  V30 972 O 88.2079 -1.10838 -1.44987 0
M  V30 973 C 88.2589 -3.42356 1.1608 0
M  V30 974 O 87.9799 -3.56332 2.54871 0
M  V30 975 C 89.4809 -4.33663 0.919322 0
M  V30 976 H 86.7009 -0.607118 0.285743 0
M  V30 977 H 89.2449 -1.48525 1.40572 0
M  V30 978 H 87.3999 -3.82939 0.586191 0
M  V30 979 H 87.8139 -4.49896 2.69618 0
M  V30 980 H 89.2879 -5.38099 1.231 0
M  V30 981 H 89.7649 -4.38959 -0.145359 0
M  V30 982 H 90.3709 -3.98796 1.47789 0
M  V30 983 N 88.686 -0.835752 -1.33615 0
M  V30 984 C 89.963 -0.352017 -1.92406 0
M  V30 985 C 90.343 1.16225 -1.76224 0
M  V30 986 O 89.691 1.97526 -1.14873 0
M  V30 987 C 89.901 -0.795485 -3.39813 0
M  V30 988 C 91.249 -0.801703 -4.16963 0
M  V30 989 O 92.273 -0.738889 -3.48452 0
M  V30 990 O 91.132 -0.886607 -5.3926 0
M  V30 991 H 88.226 -0.0989641 -0.821057 0
M  V30 992 H 90.772 -0.921397 -1.42507 0
M  V30 993 H 89.544 -1.83795 -3.45449 0
M  V30 994 H 89.167 -0.202505 -3.97084 0
M  V30 995 N 90.1641 1.46063 -0.591896 0
M  V30 996 C 91.0941 2.33172 0.123673 0
M  V30 997 C 92.0751 1.45897 0.87453 0
M  V30 998 O 93.2601 1.74698 0.848181 0
M  V30 999 C 90.3901 3.28336 1.13194 0
M  V30 1000 C 89.3441 4.25124 0.495324 0
M  V30 1001 C 88.6701 5.09863 1.61071 0
M  V30 1002 C 89.9701 5.19143 -0.573425 0
M  V30 1003 H 91.6641 2.93252 -0.603646 0
M  V30 1004 H 89.2101 1.41014 -0.291741 0
M  V30 1005 H 91.1631 3.88137 1.64097 0
M  V30 1006 H 89.8871 2.66383 1.88965 0
M  V30 1007 H 88.5461 3.66599 0.00729452 0
M  V30 1008 H 88.1941 4.44288 2.35832 0
M  V30 1009 H 87.8941 5.75417 1.19035 0
M  V30 1010 H 89.4181 5.72529 2.12233 0
M  V30 1011 H 90.8321 5.73106 -0.1491 0
M  V30 1012 H 89.2291 5.93089 -0.914636 0
M  V30 1013 H 90.2991 4.62519 -1.45617 0
M  V30 1014 N 91.6422 0.330177 1.54103 0
M  V30 1015 C 92.8672 -0.274893 2.0557 0
M  V30 1016 C 93.2922 -1.44487 1.20437 0
M  V30 1017 O 92.6502 -1.80021 0.214991 0
M  V30 1018 C 92.6982 -0.68079 3.54115 0
M  V30 1019 O 91.8022 -1.7824 3.71893 0
M  V30 1020 H 91.1432 -0.0483849 0.662235 0
M  V30 1021 H 93.6732 0.480508 1.98878 0
M  V30 1022 H 93.6832 -0.961635 3.96505 0
M  V30 1023 H 92.3582 0.174903 4.15532 0
M  V30 1024 H 90.9352 -1.49985 3.41407 0
M  V30 1025 N 93.1203 -1.57491 0.0584922 0
M  V30 1026 C 94.3483 -1.97296 -0.623037 0
M  V30 1027 C 94.7633 -0.936338 -1.63946 0
M  V30 1028 O 94.1203 0.0785981 -1.82331 0
M  V30 1029 C 94.1713 -3.37183 -1.30345 0
M  V30 1030 O 93.8923 -4.36872 -0.32773 0
M  V30 1031 C 95.3933 -3.91788 -2.07406 0
M  V30 1032 H 92.6133 -0.649153 -0.169826 0
M  V30 1033 H 95.1573 -2.04106 0.12696 0
M  V30 1034 H 93.3123 -3.31502 -2.00463 0
M  V30 1035 H 93.7263 -5.18141 -0.814269 0
M  V30 1036 H 95.2003 -4.91926 -2.50425 0
M  V30 1037 H 95.6773 -3.27609 -2.92521 0
M  V30 1038 H 96.2833 -4.00829 -1.42184 0
M  V30 1039 N 94.5984 0.214957 -1.56127 0
M  V30 1040 C 95.8234 0.95924 -1.83884 0
M  V30 1041 C 96.2484 1.7689 -0.639644 0
M  V30 1042 O 95.6064 1.76566 0.411601 0
M  V30 1043 C 95.6544 1.84723 -3.09693 0
M  V30 1044 O 94.7584 2.94346 -2.8885 0
M  V30 1045 H 94.0994 0.27125 -0.606069 0
M  V30 1046 H 96.6294 0.226276 -2.03345 0
M  V30 1047 H 96.6394 2.25576 -3.39969 0
M  V30 1048 H 95.3144 1.25218 -3.96602 0
M  V30 1049 H 93.8914 2.57391 -2.69823 0
M  V30 1050 N 96.0765 1.50051 0.48192 0
M  V30 1051 C 97.3225 1.60736 1.2366 0
M  V30 1052 C 97.6555 0.301786 1.91841 0
M  V30 1053 O 96.9305 -0.696025 1.8162 0
M  V30 1054 C 97.2135 2.78009 2.28874 0
M  V30 1055 C 97.0665 4.18416 1.65069 0
M  V30 1056 C 98.3855 2.90867 3.30279 0
M  V30 1057 H 95.5045 0.585031 0.448228 0
M  V30 1058 H 98.1465 1.82402 0.531946 0
M  V30 1059 H 96.2965 2.59667 2.88973 0
M  V30 1060 H 97.9685 4.48322 1.0865 0
M  V30 1061 H 96.2115 4.23177 0.954148 0
M  V30 1062 H 96.8825 4.96381 2.41474 0
M  V30 1063 H 99.3585 3.07623 2.80191 0
M  V30 1064 H 98.2345 3.74566 4.01238 0
M  V30 1065 H 98.4955 2.01021 3.93755 0
M  V30 1066 N 97.5546 -0.734337 1.39446 0
M  V30 1067 C 98.4846 -1.86155 1.40955 0
M  V30 1068 C 99.4656 -1.67898 0.272827 0
M  V30 1069 O 100.651 -1.88207 0.478743 0
M  V30 1070 C 97.7806 -3.23912 1.25294 0
M  V30 1071 C 96.7346 -3.56808 2.36373 0
M  V30 1072 C 96.0606 -4.93508 2.058 0
M  V30 1073 C 97.3606 -3.59713 3.78687 0
M  V30 1074 H 99.0546 -1.8515 2.35287 0
M  V30 1075 H 96.6006 -0.889367 1.13253 0
M  V30 1076 H 98.5536 -4.02443 1.2497 0
M  V30 1077 H 97.2776 -3.25446 0.274308 0
M  V30 1078 H 95.9366 -2.80606 2.35914 0
M  V30 1079 H 95.5846 -4.91623 1.06374 0
M  V30 1080 H 95.2846 -5.16486 2.80208 0
M  V30 1081 H 96.8086 -5.74396 2.07128 0
M  V30 1082 H 98.2226 -4.2832 3.81071 0
M  V30 1083 H 96.6196 -3.94209 4.52459 0
M  V30 1084 H 97.6896 -2.59504 4.09617 0
M  V30 1085 N 99.0327 -1.24633 -0.964593 0
M  V30 1086 C 100.281 -1.08573 -1.70459 0
M  V30 1087 C 100.602 0.375655 -1.91347 0
M  V30 1088 O 99.8717 1.26779 -1.49345 0
M  V30 1089 H 98.4517 -0.398784 -0.631649 0
M  V30 1090 H 101.114 -1.56601 -1.16026 0
M  V30 1091 H 100.21 -1.58623 -2.68785 0
M  V30 1092 N 100.511 1.16574 -1.06058 0
M  V30 1093 C 101.443 2.2045 -0.627239 0
M  V30 1094 C 102.456 1.59752 0.313534 0
M  V30 1095 O 103.645 1.78192 0.104896 0
M  V30 1096 C 100.745 3.3875 0.100974 0
M  V30 1097 C 99.9178 4.29008 -0.852687 0
M  V30 1098 C 98.9768 5.25944 -0.164152 0
M  V30 1099 O 98.0028 5.63535 -0.801047 0
M  V30 1100 N 99.2048 5.70075 1.09518 0
M  V30 1101 H 101.97 2.58249 -1.52077 0
M  V30 1102 H 99.5308 1.3156 -0.943594 0
M  V30 1103 H 101.523 4.00638 0.57194 0
M  V30 1104 H 100.093 2.99476 0.89628 0
M  V30 1105 H 99.3128 3.64419 -1.50308 0
M  V30 1106 H 100.601 4.86195 -1.49972 0
M  V30 1107 H 99.9988 5.41624 1.6328 0
M  V30 1108 H 98.5558 6.34067 1.51006 0
M  V30 1109 N 101.989 0.842826 1.3317 0
M  V30 1110 C 103.405 0.531128 1.50503 0
M  V30 1111 C 103.605 -0.940734 1.78192 0
M  V30 1112 O 102.661 -1.72436 1.84451 0
M  V30 1113 C 103.974 1.40789 2.65705 0
M  V30 1114 C 105.522 1.40708 2.79589 0
M  V30 1115 C 105.997 2.26878 3.97857 0
M  V30 1116 N 107.488 2.24609 4.05099 0
M  V30 1117 C 108.223 2.88019 4.95815 0
M  V30 1118 N 107.719 3.60496 5.9162 0
M  V30 1119 N 109.512 2.77469 4.88843 0
M  V30 1120 H 101.663 1.79557 1.1346 0
M  V30 1121 H 103.926 0.766267 0.558156 0
M  V30 1122 H 103.632 2.454 2.51936 0
M  V30 1123 H 103.506 1.08677 3.61205 0
M  V30 1124 H 105.893 0.368668 2.92788 0
M  V30 1125 H 105.974 1.76829 1.84838 0
M  V30 1126 H 105.618 3.3078 3.85418 0
M  V30 1127 H 105.548 1.88096 4.91861 0
M  V30 1128 H 108.039 1.71906 3.36536 0
M  V30 1129 H 108.352 4.06076 6.57512 0
M  V30 1130 H 106.697 3.64604 5.91683 0
M  V30 1131 H 109.888 2.20406 4.12963 0
M  V30 1132 H 110.061 3.2717 5.59342 0
M  V30 1133 N 103.467 -1.45747 0.599634 0
M  V30 1134 C 104.713 -2.02592 0.0918643 0
M  V30 1135 C 105.046 -1.46806 -1.27128 0
M  V30 1136 O 104.321 -0.639658 -1.83681 0
M  V30 1137 C 104.604 -3.60073 0.0443398 0
M  V30 1138 C 104.457 -4.26208 1.43759 0
M  V30 1139 C 105.776 -4.35309 -0.647608 0
M  V30 1140 H 102.895 -0.736175 0.034857 0
M  V30 1141 H 105.537 -1.73694 0.770081 0
M  V30 1142 H 103.687 -3.84823 -0.533224 0
M  V30 1143 H 105.359 -4.12668 2.06162 0
M  V30 1144 H 103.602 -3.84916 2.00056 0
M  V30 1145 H 104.273 -5.35069 1.35665 0
M  V30 1146 H 106.749 -4.15805 -0.156776 0
M  V30 1147 H 105.625 -5.45038 -0.649942 0
M  V30 1148 H 105.886 -4.07598 -1.71219 0
M  V30 1149 N 104.945 -0.338344 -1.53925 0
M  V30 1150 C 106.17 0.263987 -2.05713 0
M  V30 1151 C 106.595 1.43847 -1.21201 0
M  V30 1152 O 105.953 1.79904 -0.224535 0
M  V30 1153 C 106.001 0.662 -3.54471 0
M  V30 1154 O 105.105 1.76265 -3.72833 0
M  V30 1155 H 104.446 0.0448722 -0.662482 0
M  V30 1156 H 106.976 -0.491048 -1.9862 0
M  V30 1157 H 106.986 0.940594 -3.9701 0
M  V30 1158 H 105.661 -0.196937 -4.15433 0
M  V30 1159 H 104.238 1.48173 -3.42198 0
M  V30 1160 N 106.423 1.57458 -0.0668435 0
M  V30 1161 C 107.356 2.08033 0.93795 0
M  V30 1162 C 108.334 0.984321 1.29421 0
M  V30 1163 O 109.518 1.25736 1.40437 0
M  V30 1164 C 106.645 2.53388 2.24749 0
M  V30 1165 C 105.691 3.74376 2.04315 0
M  V30 1166 S 106.524 5.19303 1.30706 0
M  V30 1167 C 107.68 5.67986 2.62951 0
M  V30 1168 H 107.913 2.92935 0.50759 0
M  V30 1169 H 105.446 1.5371 0.145804 0
M  V30 1170 H 107.404 2.8018 3.00016 0
M  V30 1171 H 106.065 1.68763 2.64911 0
M  V30 1172 H 105.258 4.04083 3.01218 0
M  V30 1173 H 104.86 3.47931 1.37186 0
M  V30 1174 H 107.152 5.74528 3.5906 0
M  V30 1175 H 108.095 6.66955 2.3786 0
M  V30 1176 H 108.503 4.95781 2.69929 0
M  V30 1177 N 107.901 -0.206675 1.56239 0
M  V30 1178 C 109.312 -0.772383 1.69974 0
M  V30 1179 C 109.663 -1.84353 0.671436 0
M  V30 1180 O 108.788 -2.15695 -0.174491 0
M  V30 1181 C 109.383 -1.40779 3.08167 0
M  V30 1182 C 107.942 -1.92072 3.23706 0
M  V30 1183 C 107.089 -0.786347 2.65917 0
M  V30 1184 H 110.04 0.0182223 1.5869 0
M  V30 1185 H 110.061 -2.27696 3.04852 0
M  V30 1186 H 109.573 -0.627958 3.82986 0
M  V30 1187 H 107.674 -2.7281 2.53782 0
M  V30 1188 H 107.787 -2.09046 4.31087 0
M  V30 1189 H 106.151 -1.1976 2.24788 0
M  V30 1190 H 106.934 -0.0189416 3.43295 0
M  V30 1191 N 109.379 -1.50304 -0.473955 0
M  V30 1192 C 110.628 -1.60392 -1.22301 0
M  V30 1193 C 110.941 -0.308411 -1.93153 0
M  V30 1194 O 112.147 -0.288156 -2.69966 0
M  V30 1195 C 110.603 -2.83109 -2.2221 0
M  V30 1196 C 110.211 -4.19524 -1.57173 0
M  V30 1197 C 111.955 -3.0254 -2.97775 0
M  V30 1198 C 109.862 -5.33431 -2.55353 0
M  V30 1199 H 108.792 -0.597286 -0.460179 0
M  V30 1200 H 111.443 -1.76731 -0.493803 0
M  V30 1201 H 109.825 -2.60322 -2.9841 0
M  V30 1202 H 110.999 -4.52554 -0.867824 0
M  V30 1203 H 109.314 -4.05674 -0.939002 0
M  V30 1204 H 111.911 -3.84811 -3.71248 0
M  V30 1205 H 112.254 -2.14154 -3.56992 0
M  V30 1206 H 112.787 -3.25494 -2.28688 0
M  V30 1207 H 109.526 -6.23962 -2.00878 0
M  V30 1208 H 109.046 -5.04823 -3.23904 0
M  V30 1209 H 110.725 -5.63887 -3.17239 0
M  V30 1210 N 110.857 0.726932 -1.39834 0
M  V30 1211 C 112.097 1.4992 -1.38936 0
M  V30 1212 C 112.461 1.91996 0.0126883 0
M  V30 1213 O 113.662 2.68399 0.146715 0
M  V30 1214 C 111.933 2.70013 -2.34153 0
M  V30 1215 S 113.492 3.59563 -2.51515 0
M  V30 1216 H 110.31 0.51271 -0.492595 0
M  V30 1217 H 112.912 0.85107 -1.76003 0
M  V30 1218 H 111.616 2.37254 -3.34871 0
M  V30 1219 H 111.147 3.39748 -1.98331 0
M  V30 1220 H 113.162 4.63973 -1.75909 0
M  V30 1221 N 112.336 1.25143 0.95797 0
M  V30 1222 C 113.582 1.09855 1.70469 0
M  V30 1223 C 113.915 -0.360187 1.90831 0
M  V30 1224 O 113.19 -1.26568 1.47685 0
M  V30 1225 C 113.473 1.8497 3.08963 0
M  V30 1226 C 113.326 3.38652 2.96032 0
M  V30 1227 C 114.645 1.63016 4.08795 0
M  V30 1228 H 111.764 0.400465 0.618706 0
M  V30 1229 H 114.406 1.53933 1.11376 0
M  V30 1230 H 112.556 1.47505 3.59409 0
M  V30 1231 H 114.228 3.85772 2.52938 0
M  V30 1232 H 112.471 3.66534 2.32025 0
M  V30 1233 H 113.142 3.8642 3.94187 0
M  V30 1234 H 115.618 1.95625 3.67247 0
M  V30 1235 H 114.494 2.18015 5.03747 0
M  V30 1236 H 114.755 0.570692 4.38401 0
M  V30 1237 N 113.814 -1.1601 1.06675 0
M  V30 1238 C 115.062 -1.86264 0.784229 0
M  V30 1239 C 115.383 -1.82328 -0.691488 0
M  V30 1240 O 114.653 -1.25947 -1.50047 0
M  V30 1241 H 113.233 -0.689621 0.28711 0
M  V30 1242 H 115.895 -1.40664 1.34906 0
M  V30 1243 H 114.991 -2.91595 1.11259 0
M  V30 1244 N 115.292 -0.849877 -1.32721 0
M  V30 1245 C 116.255 -0.296122 -2.27279 0
M  V30 1246 C 117.255 0.541458 -1.5141 0
M  V30 1247 O 118.445 0.353658 -1.70572 0
M  V30 1248 C 115.577 0.581579 -3.35902 0
M  V30 1249 H 116.77 -1.13064 -2.77771 0
M  V30 1250 H 114.323 -0.62383 -1.43311 0
M  V30 1251 H 115.058 1.43809 -2.9067 0
M  V30 1252 H 114.843 -0.0178814 -3.92096 0
M  V30 1253 H 116.333 0.961951 -4.0637 0
M  V30 1254 N 116.77 1.45427 -0.607355 0
M  V30 1255 C 117.998 2.06614 -0.108814 0
M  V30 1256 C 118.413 1.45204 1.2067 0
M  V30 1257 O 117.77 0.566132 1.73497 0
M  V30 1258 C 117.821 3.61481 0.0375347 0
M  V30 1259 O 117.542 4.20598 -1.22593 0
M  V30 1260 C 119.043 4.39652 0.567561 0
M  V30 1261 H 116.263 0.66747 -0.0687351 0
M  V30 1262 H 118.807 1.86675 -0.835022 0
M  V30 1263 H 116.962 3.80762 0.714068 0
M  V30 1264 H 117.376 5.1377 -1.05547 0
M  V30 1265 H 118.85 5.48518 0.61905 0
M  V30 1266 H 119.327 4.09417 1.58978 0
M  V30 1267 H 119.933 4.25234 -0.0749202 0
M  V30 1268 N 118.248 0.346503 1.53744 0
M  V30 1269 C 119.211 -0.496439 2.23759 0
M  V30 1270 C 120.211 -1.0252 1.2388 0
M  V30 1271 O 121.401 -0.913974 1.48297 0
M  V30 1272 C 118.533 -1.69187 2.95954 0
M  V30 1273 H 119.726 0.115952 2.99676 0
M  V30 1274 H 117.279 0.0978939 1.55993 0
M  V30 1275 H 118.014 -2.34288 2.24231 0
M  V30 1276 H 117.799 -1.31989 3.69217 0
M  V30 1277 H 119.289 -2.28969 3.49232 0
M  V30 1278 N 119.726 -1.57421 0.075193 0
M  V30 1279 C 120.659 -2.08528 -0.926904 0
M  V30 1280 C 121.637 -0.991171 -1.28898 0
M  V30 1281 O 122.821 -1.26479 -1.39769 0
M  V30 1282 C 119.948 -2.54576 -2.23402 0
M  V30 1283 C 118.994 -3.75454 -2.02327 0
M  V30 1284 S 119.827 -5.19989 -1.27951 0
M  V30 1285 C 120.983 -5.69372 -2.59935 0
M  V30 1286 H 121.216 -2.932 -0.492048 0
M  V30 1287 H 118.749 -1.53785 -0.137651 0
M  V30 1288 H 120.707 -2.81767 -2.98526 0
M  V30 1289 H 119.368 -1.70166 -2.64012 0
M  V30 1290 H 118.561 -4.05675 -2.99071 0
M  V30 1291 H 118.163 -3.48654 -1.35339 0
M  V30 1292 H 120.455 -5.76424 -3.56008 0
M  V30 1293 H 121.398 -6.68207 -2.34319 0
M  V30 1294 H 121.806 -4.97205 -2.67296 0
M  V30 1295 N 121.204 0.198386 -1.56346 0
M  V30 1296 C 122.136 1.26987 -1.90806 0
M  V30 1297 C 123.149 1.41877 -0.798419 0
M  V30 1298 O 124.338 1.42362 -1.07682 0
M  V30 1299 C 121.438 2.64246 -2.12196 0
M  V30 1300 C 120.611 2.71007 -3.43328 0
M  V30 1301 C 119.67 3.89439 -3.5387 0
M  V30 1302 O 118.696 3.76695 -4.26719 0
M  V30 1303 N 119.898 5.04752 -2.86715 0
M  V30 1304 H 122.663 0.977433 -2.83313 0
M  V30 1305 H 120.224 0.388322 -1.57174 0
M  V30 1306 H 122.216 3.41896 -2.1654 0
M  V30 1307 H 120.786 2.85992 -1.26204 0
M  V30 1308 H 120.006 1.79657 -3.50881 0
M  V30 1309 H 121.294 2.72512 -4.29668 0
M  V30 1310 H 120.692 5.18004 -2.2735 0
M  V30 1311 H 119.249 5.8036 -2.96691 0
M  V30 1312 N 122.682 1.50554 0.465978 0
M  V30 1313 C 124.098 1.38093 0.800154 0
M  V30 1314 C 124.298 0.440988 1.96615 0
M  V30 1315 O 123.354 -0.114499 2.5224 0
M  V30 1316 C 124.667 2.79565 1.10742 0
M  V30 1317 C 126.215 2.88516 1.21357 0
M  V30 1318 C 126.69 4.30833 1.55393 0
M  V30 1319 N 128.181 4.33807 1.62375 0
M  V30 1320 C 128.916 5.40927 1.90225 0
M  V30 1321 N 128.412 6.58247 2.16062 0
M  V30 1322 N 130.205 5.28376 1.9177 0
M  V30 1323 H 122.356 2.10237 -0.302366 0
M  V30 1324 H 124.619 0.945203 -0.0727746 0
M  V30 1325 H 124.325 3.50208 0.323661 0
M  V30 1326 H 124.199 3.17125 2.04234 0
M  V30 1327 H 126.586 2.1809 1.98799 0
M  V30 1328 H 126.667 2.54492 0.258321 0
M  V30 1329 H 126.311 5.01799 0.784889 0
M  V30 1330 H 126.241 4.62347 2.52076 0
M  V30 1331 H 128.732 3.49212 1.44427 0
M  V30 1332 H 129.045 7.3569 2.36601 0
M  V30 1333 H 127.39 6.61413 2.13444 0
M  V30 1334 H 130.581 4.35715 1.71085 0
M  V30 1335 H 130.754 6.11944 2.13139 0
M  V30 1336 N 124.16 -0.719506 1.40217 0
M  V30 1337 C 125.093 -1.84298 1.34571 0
M  V30 1338 C 126.071 -1.61149 0.216741 0
M  V30 1339 O 127.255 -1.84212 0.399756 0
M  V30 1340 C 124.382 -3.20568 1.09335 0
M  V30 1341 C 123.428 -3.62551 2.24631 0
M  V30 1342 S 124.261 -3.7012 3.87004 0
M  V30 1343 C 125.417 -5.09154 3.64024 0
M  V30 1344 H 125.65 -1.88807 2.2965 0
M  V30 1345 H 123.183 -0.885901 1.26456 0
M  V30 1346 H 125.141 -3.99246 0.954602 0
M  V30 1347 H 123.802 -3.13696 0.159164 0
M  V30 1348 H 122.995 -4.61483 2.02606 0
M  V30 1349 H 122.597 -2.91119 2.34789 0
M  V30 1350 H 124.889 -5.95955 3.22248 0
M  V30 1351 H 125.832 -5.36213 4.62473 0
M  V30 1352 H 126.24 -4.79562 2.97793 0
M  V30 1353 N 125.638 -1.25649 -0.95132 0
M  V30 1354 C 126.601 -1.06399 -2.03007 0
M  V30 1355 C 127.601 -0.0156794 -1.60792 0
M  V30 1356 O 128.791 -0.25817 -1.72276 0
M  V30 1357 C 125.923 -0.616184 -3.35285 0
M  V30 1358 H 127.116 -2.02164 -2.21517 0
M  V30 1359 H 124.669 -1.08103 -1.12887 0
M  V30 1360 H 125.404 0.343917 -3.22471 0
M  V30 1361 H 125.189 -1.37301 -3.67275 0
M  V30 1362 H 126.679 -0.503032 -4.14559 0
M  V30 1363 N 127.117 1.15442 -1.07289 0
M  V30 1364 C 128.067 2.18164 -0.662467 0
M  V30 1365 C 129.051 1.57845 0.312074 0
M  V30 1366 O 130.243 1.76552 0.125905 0
M  V30 1367 C 127.372 3.43246 -0.0611295 0
M  V30 1368 C 126.458 4.1062 -1.06077 0
M  V30 1369 N 126.849 4.53491 -2.24008 0
M  V30 1370 C 125.147 4.36949 -0.893964 0
M  V30 1371 C 125.848 5.05731 -2.87422 0
M  V30 1372 N 124.824 4.99236 -2.15091 0
M  V30 1373 H 128.626 2.49038 -1.56068 0
M  V30 1374 H 126.14 1.32003 -0.945988 0
M  V30 1375 H 128.137 4.16145 0.250792 0
M  V30 1376 H 126.797 3.13854 0.832207 0
M  V30 1377 H 127.808 4.46898 -2.6173 0
M  V30 1378 H 124.485 4.17466 -0.0534693 0
M  V30 1379 H 125.875 5.48865 -3.87553 0
M  V30 1380 N 128.595 0.856903 1.32268 0
M  V30 1381 C 129.841 0.462069 1.97466 0
M  V30 1382 C 130.174 -0.980298 1.67642 0
M  V30 1383 O 129.449 -1.68824 0.965858 0
M  V30 1384 C 129.732 0.704336 3.53145 0
M  V30 1385 C 129.585 2.19529 3.9259 0
M  V30 1386 C 130.904 0.1622 4.39801 0
M  V30 1387 H 128.023 0.169357 0.717278 0
M  V30 1388 H 130.665 1.07574 1.56614 0
M  V30 1389 H 128.815 0.181999 3.88073 0
M  V30 1390 H 130.487 2.78387 3.67829 0
M  V30 1391 H 128.73 2.67292 3.41668 0
M  V30 1392 H 129.401 2.31549 5.01088 0
M  V30 1393 H 131.877 0.608905 4.11621 0
M  V30 1394 H 130.753 0.361265 5.4771 0
M  V30 1395 H 131.014 -0.935158 4.32096 0
M  V30 1396 N 130.073 -1.45103 0.615059 0
M  V30 1397 C 131.35 -1.95549 0.0448276 0
M  V30 1398 C 131.73 -1.55737 -1.4251 0
M  V30 1399 O 131.078 -0.823556 -2.13143 0
M  V30 1400 C 131.288 -3.48098 0.250785 0
M  V30 1401 C 132.636 -4.24384 0.135509 0
M  V30 1402 O 133.66 -3.55738 0.181299 0
M  V30 1403 O 132.519 -5.46493 0.0268878 0
M  V30 1404 H 129.613 -0.8264 -0.0314845 0
M  V30 1405 H 132.159 -1.55232 0.685642 0
M  V30 1406 H 130.931 -3.7007 1.27139 0
M  V30 1407 H 130.554 -3.95323 -0.424937 0
M  V30 1408 N 131.551 -0.354651 -1.53558 0
M  V30 1409 C 132.799 0.237972 -2.00694 0
M  V30 1410 C 133.12 1.50173 -1.24391 0
M  V30 1411 O 132.39 1.92673 -0.354135 0
M  V30 1412 H 130.97 0.0909256 -0.741446 0
M  V30 1413 H 133.632 -0.478368 -1.88938 0
M  V30 1414 H 132.728 0.47264 -3.085 0
M  V30 1415 N 133.029 1.57378 -0.0835403 0
M  V30 1416 C 133.939 2.16897 0.894021 0
M  V30 1417 C 134.955 1.13528 1.31861 0
M  V30 1418 O 136.131 1.45848 1.3889 0
M  V30 1419 C 133.196 2.72831 2.13925 0
M  V30 1420 C 132.257 3.91115 1.76997 0
M  V30 1421 C 131.49 4.44371 2.95584 0
M  V30 1422 O 131.713 3.96596 4.09961 0
M  V30 1423 O 130.647 5.35549 2.74719 0
M  V30 1424 H 134.473 3.00814 0.417679 0
M  V30 1425 H 132.058 1.48741 0.140181 0
M  V30 1426 H 133.94 3.0863 2.86924 0
M  V30 1427 H 132.615 1.91967 2.60635 0
M  V30 1428 H 131.522 3.60148 1.01214 0
M  V30 1429 H 132.855 4.73307 1.3506 0
M  V30 1430 N 134.507 -0.190092 1.56449 0
M  V30 1431 C 135.437 -1.23816 1.97969 0
M  V30 1432 C 136.418 -1.47201 0.852395 0
M  V30 1433 O 137.603 -1.58854 1.1171 0
M  V30 1434 C 134.733 -2.5813 2.3235 0
M  V30 1435 C 133.687 -2.49348 3.47864 0
M  V30 1436 C 133.013 -3.8798 3.67934 0
M  V30 1437 C 134.313 -2.01424 4.81898 0
M  V30 1438 H 136.007 -0.89311 2.85769 0
M  V30 1439 H 133.553 -0.428177 1.37487 0
M  V30 1440 H 135.506 -3.31637 2.59991 0
M  V30 1441 H 134.23 -2.94386 1.41438 0
M  V30 1442 H 132.889 -1.78297 3.20321 0
M  V30 1443 H 132.537 -4.21597 2.74344 0
M  V30 1444 H 132.237 -3.82978 4.45648 0
M  V30 1445 H 133.761 -4.63101 3.97957 0
M  V30 1446 H 135.175 -2.64693 5.08538 0
M  V30 1447 H 133.572 -2.07413 5.63116 0
M  V30 1448 H 134.642 -0.967677 4.75146 0
M  V30 1449 N 135.985 -1.50799 -0.457987 0
M  V30 1450 C 136.948 -1.7005 -1.53674 0
M  V30 1451 C 137.948 -0.570881 -1.50325 0
M  V30 1452 O 139.138 -0.838126 -1.52712 0
M  V30 1453 C 136.27 -1.73788 -2.93276 0
M  V30 1454 H 137.463 -2.66306 -1.37917 0
M  V30 1455 H 135.016 -1.40477 -0.685271 0
M  V30 1456 H 135.751 -0.792717 -3.14462 0
M  V30 1457 H 135.536 -2.55864 -2.97113 0
M  V30 1458 H 137.026 -1.90591 -3.71571 0
M  V30 1459 N 137.463 0.71206 -1.40597 0
M  V30 1460 C 138.691 1.50111 -1.42388 0
M  V30 1461 C 139.106 1.88784 -0.0245395 0
M  V30 1462 O 138.463 1.55681 0.952351 0
M  V30 1463 C 138.514 2.7742 -2.31776 0
M  V30 1464 O 138.235 2.40382 -3.66262 0
M  V30 1465 C 139.736 3.7129 -2.42196 0
M  V30 1466 H 136.956 0.46314 -0.485533 0
M  V30 1467 H 139.5 0.878068 -1.8469 0
M  V30 1468 H 137.655 3.36001 -1.92827 0
M  V30 1469 H 138.069 3.22324 -4.13772 0
M  V30 1470 H 139.543 4.57448 -3.08943 0
M  V30 1471 H 140.02 4.14641 -1.44809 0
M  V30 1472 H 140.626 3.18619 -2.81712 0
M  V30 1473 N 138.941 1.26152 0.944643 0
M  V30 1474 C 140.187 1.11657 1.69294 0
M  V30 1475 C 140.52 -0.339926 1.91202 0
M  V30 1476 O 139.795 -1.24994 1.49019 0
M  V30 1477 C 140.078 1.88236 3.06984 0
M  V30 1478 C 139.931 3.41772 2.92424 0
M  V30 1479 C 141.25 1.67343 4.07043 0
M  V30 1480 H 138.369 0.407004 0.614424 0
M  V30 1481 H 141.011 1.55106 1.09737 0
M  V30 1482 H 139.161 1.51308 3.57824 0
M  V30 1483 H 140.833 3.88433 2.48832 0
M  V30 1484 H 139.076 3.68974 2.28124 0
M  V30 1485 H 139.747 3.90579 3.90067 0
M  V30 1486 H 142.223 1.99509 3.65151 0
M  V30 1487 H 141.099 2.23346 5.01406 0
M  V30 1488 H 141.36 0.617158 4.37771 0
M  V30 1489 N 140.419 -1.14872 1.07899 0
M  V30 1490 C 141.835 -1.37776 0.805606 0
M  V30 1491 C 142.035 -1.92743 -0.587555 0
M  V30 1492 O 141.091 -2.13678 -1.34528 0
M  V30 1493 C 142.404 -2.34361 1.88402 0
M  V30 1494 C 143.952 -2.48012 1.90942 0
M  V30 1495 C 144.427 -3.47893 2.97883 0
M  V30 1496 N 145.918 -3.55433 2.97021 0
M  V30 1497 C 146.653 -4.32553 3.76412 0
M  V30 1498 N 146.149 -5.12959 4.65666 0
M  V30 1499 N 147.942 -4.27697 3.64735 0
M  V30 1500 H 140.093 -0.775365 1.97742 0
M  V30 1501 H 142.356 -0.403521 0.857831 0
M  V30 1502 H 142.062 -2.01098 2.88535 0
M  V30 1503 H 141.936 -3.34206 1.74889 0
M  V30 1504 H 144.323 -2.8057 0.914579 0
M  V30 1505 H 144.404 -1.48147 2.08534 0
M  V30 1506 H 144.048 -3.16069 3.97571 0
M  V30 1507 H 143.978 -4.47527 2.77538 0
M  V30 1508 H 146.469 -2.98048 2.32326 0
M  V30 1509 H 146.782 -5.69065 5.22862 0
M  V30 1510 H 145.127 -5.12245 4.69712 0
M  V30 1511 H 148.318 -3.63949 2.94378 0
M  V30 1512 H 148.491 -4.8755 4.26848 0
M  V30 1513 N 141.898 -0.863906 -1.31812 0
M  V30 1514 C 142.861 -0.320212 -2.26952 0
M  V30 1515 C 143.861 0.525369 -1.51975 0
M  V30 1516 O 145.051 0.335547 -1.70938 0
M  V30 1517 C 142.183 0.545919 -3.365 0
M  V30 1518 H 143.376 -1.16004 -2.76556 0
M  V30 1519 H 140.929 -0.638995 -1.42641 0
M  V30 1520 H 141.664 1.40718 -2.92179 0
M  V30 1521 H 141.449 -0.0594674 -3.92055 0
M  V30 1522 H 142.939 0.918796 -4.07367 0
M  V30 1523 N 143.376 1.44774 -0.622745 0
M  V30 1524 C 144.616 2.04004 -0.127102 0
M  V30 1525 C 144.98 1.47862 1.22478 0
M  V30 1526 O 146.181 1.98541 1.81204 0
M  V30 1527 C 144.452 3.57247 -0.104429 0
M  V30 1528 S 146.011 4.37574 0.327814 0
M  V30 1529 H 142.829 0.708713 -0.0569776 0
M  V30 1530 H 145.431 1.77275 -0.824253 0
M  V30 1531 H 144.135 3.95616 -1.09159 0
M  V30 1532 H 143.666 3.88575 0.614236 0
M  V30 1533 H 145.681 4.70575 1.57395 0
M  V30 1534 N 144.854 0.36279 1.53368 0
M  V30 1535 C 145.786 -0.519668 2.23231 0
M  V30 1536 C 146.799 -1.04844 1.24546 0
M  V30 1537 O 147.988 -0.955296 1.50786 0
M  V30 1538 C 145.088 -1.72995 2.9142 0
M  V30 1539 C 144.261 -1.33316 4.16588 0
M  V30 1540 C 143.32 -2.40521 4.68013 0
M  V30 1541 O 142.346 -2.03027 5.3176 0
M  V30 1542 N 143.548 -3.72065 4.45587 0
M  V30 1543 H 146.313 0.078751 2.99597 0
M  V30 1544 H 143.874 0.187833 1.60807 0
M  V30 1545 H 145.866 -2.44184 3.22733 0
M  V30 1546 H 144.436 -2.2353 2.18525 0
M  V30 1547 H 143.656 -0.451236 3.91609 0
M  V30 1548 H 144.944 -1.04432 4.97967 0
M  V30 1549 H 144.342 -4.05304 3.94646 0
M  V30 1550 H 142.899 -4.39366 4.81457 0
M  V30 1551 N 146.332 -1.57332 0.0918853 0
M  V30 1552 C 147.557 -1.98995 -0.584442 0
M  V30 1553 C 147.982 -0.970528 -1.61128 0
M  V30 1554 O 147.34 0.0613904 -1.81196 0
M  V30 1555 C 147.388 -3.39636 -1.21161 0
M  V30 1556 O 146.492 -3.40447 -2.32744 0
M  V30 1557 H 145.833 -0.647165 -0.148572 0
M  V30 1558 H 148.363 -2.03873 0.172347 0
M  V30 1559 H 148.373 -3.7726 -1.55367 0
M  V30 1560 H 147.048 -4.13356 -0.459313 0
M  V30 1561 H 145.625 -3.14614 -2.0018 0
M  V30 1562 N 147.81 0.181792 -1.56548 0
M  V30 1563 C 148.74 1.22765 -1.98623 0
M  V30 1564 C 149.721 1.46747 -0.860189 0
M  V30 1565 O 150.906 1.58259 -1.12551 0
M  V30 1566 C 148.036 2.56894 -2.33715 0
M  V30 1567 C 146.99 2.475 -3.49182 0
M  V30 1568 C 146.316 3.86023 -3.69986 0
M  V30 1569 C 147.616 1.98866 -4.82959 0
M  V30 1570 H 149.31 0.877942 -2.86239 0
M  V30 1571 H 146.856 0.42088 -1.37712 0
M  V30 1572 H 148.809 3.30253 -2.61746 0
M  V30 1573 H 147.533 2.93632 -1.42997 0
M  V30 1574 H 146.192 1.76596 -3.21262 0
M  V30 1575 H 145.84 4.20136 -2.76576 0
M  V30 1576 H 145.54 3.80609 -4.47672 0
M  V30 1577 H 147.064 4.60984 -4.00407 0
M  V30 1578 H 148.478 2.61992 -5.09934 0
M  V30 1579 H 146.875 2.04424 -5.64208 0
M  V30 1580 H 147.945 0.942465 -4.75653 0
M  V30 1581 N 149.288 1.51039 0.449983 0
M  V30 1582 C 150.536 1.62759 1.19808 0
M  V30 1583 C 150.857 0.339981 1.92013 0
M  V30 1584 O 150.127 -0.643606 1.85026 0
M  V30 1585 H 148.707 0.599811 0.445237 0
M  V30 1586 H 151.369 1.87914 0.517138 0
M  V30 1587 H 150.465 2.44911 1.93455 0
M  V30 1588 N 150.766 -0.704594 1.40972 0
M  V30 1589 C 151.994 -1.49354 1.43182 0
M  V30 1590 C 152.409 -1.88768 0.0345508 0
M  V30 1591 O 151.766 -1.56184 -0.944081 0
M  V30 1592 C 151.817 -2.76187 2.33244 0
M  V30 1593 O 151.538 -2.38436 3.67532 0
M  V30 1594 C 153.039 -3.7 2.44162 0
M  V30 1595 H 150.259 -0.460559 0.487982 0
M  V30 1596 H 152.803 -0.868261 1.85153 0
M  V30 1597 H 150.958 -3.34974 1.94606 0
M  V30 1598 H 151.372 -3.20126 4.15475 0
M  V30 1599 H 152.846 -4.55803 3.11364 0
M  V30 1600 H 153.323 -4.13867 1.47006 0
M  V30 1601 H 153.929 -3.17121 2.83398 0
M  V30 1602 N 152.244 -1.26651 -0.937939 0
M  V30 1603 C 153.492 -1.12165 -1.68118 0
M  V30 1604 C 153.813 0.334983 -1.92101 0
M  V30 1605 O 153.083 1.23583 -1.52 0
M  V30 1606 H 151.663 -0.412093 -0.623048 0
M  V30 1607 H 154.325 -1.59027 -1.12678 0
M  V30 1608 H 153.421 -1.64289 -2.6536 0
M  V30 1609 N 153.722 1.14298 -1.08507 0
M  V30 1610 C 154.655 2.18447 -0.660004 0
M  V30 1611 C 155.633 1.59242 0.328749 0
M  V30 1612 O 156.817 1.87062 0.232367 0
M  V30 1613 C 153.944 3.38688 0.0290807 0
M  V30 1614 C 152.99 4.1646 -0.919982 0
M  V30 1615 S 153.823 4.77334 -2.42718 0
M  V30 1616 C 154.979 6.00931 -1.75024 0
M  V30 1617 H 155.212 2.54166 -1.54231 0
M  V30 1618 H 152.745 1.25446 -0.900149 0
M  V30 1619 H 154.703 4.08342 0.420378 0
M  V30 1620 H 153.364 3.01289 0.887895 0
M  V30 1621 H 152.557 5.02529 -0.384751 0
M  V30 1622 H 152.159 3.52414 -1.25223 0
M  V30 1623 H 154.451 6.69017 -1.06877 0
M  V30 1624 H 155.394 6.59044 -2.58971 0
M  V30 1625 H 155.802 5.51089 -1.22317 0
M  V30 1626 N 155.201 0.870884 1.31352 0
M  V30 1627 C 156.134 0.271983 2.26573 0
M  V30 1628 C 157.112 -0.599385 1.51149 0
M  V30 1629 O 158.296 -0.552605 1.80218 0
M  V30 1630 C 155.423 -0.614801 3.33073 0
M  V30 1631 C 154.469 0.185342 4.26097 0
M  V30 1632 S 155.302 1.56444 5.12138 0
M  V30 1633 C 156.458 0.683807 6.22153 0
M  V30 1634 H 156.691 1.07916 2.77023 0
M  V30 1635 H 154.224 0.669459 1.39132 0
M  V30 1636 H 156.182 -1.12074 3.94905 0
M  V30 1637 H 154.843 -1.39593 2.81376 0
M  V30 1638 H 154.036 -0.490771 5.01605 0
M  V30 1639 H 153.638 0.623415 3.68768 0
M  V30 1640 H 155.93 -0.10521 6.77418 0
M  V30 1641 H 156.873 1.41004 6.93919 0
M  V30 1642 H 157.281 0.250952 5.63942 0
M  V30 1643 N 156.679 -1.44442 0.630414 0
M  V30 1644 C 157.609 -2.33418 -0.0618083 0
M  V30 1645 C 158.59 -1.48165 -0.835541 0
M  V30 1646 O 159.775 -1.76886 -0.801564 0
M  V30 1647 C 156.905 -3.31222 -1.04449 0
M  V30 1648 C 155.859 -4.26288 -0.382436 0
M  V30 1649 C 155.185 -5.13954 -1.47497 0
M  V30 1650 C 156.485 -5.1744 0.710865 0
M  V30 1651 H 158.179 -2.91548 0.681184 0
M  V30 1652 H 155.725 -1.40191 0.329026 0
M  V30 1653 H 157.678 -3.92351 -1.53748 0
M  V30 1654 H 156.402 -2.71299 -1.81836 0
M  V30 1655 H 155.061 -3.6649 0.0899054 0
M  V30 1656 H 154.709 -4.50385 -2.2397 0
M  V30 1657 H 154.409 -5.7837 -1.03737 0
M  V30 1658 H 155.933 -5.77955 -1.96979 0
M  V30 1659 H 157.347 -5.72509 0.300996 0
M  V30 1660 H 155.744 -5.90455 1.07156 0
M  V30 1661 H 156.814 -4.58496 1.57829 0
M  V30 1662 N 158.157 -0.370918 -1.53173 0
M  V30 1663 C 159.382 0.220293 -2.06227 0
M  V30 1664 C 159.807 1.41243 -1.24225 0
M  V30 1665 O 159.165 1.79387 -0.262645 0
M  V30 1666 C 159.213 0.586663 -3.55796 0
M  V30 1667 O 158.317 1.68317 -3.76488 0
M  V30 1668 H 157.658 0.0308099 -0.663285 0
M  V30 1669 H 160.188 -0.533068 -1.97534 0
M  V30 1670 H 160.198 0.85617 -3.98916 0
M  V30 1671 H 158.873 -0.285013 -4.14922 0
M  V30 1672 H 157.45 1.40881 -3.45264 0
M  V30 1673 N 159.635 1.57281 -0.100228 0
M  V30 1674 C 160.86 1.99302 0.573881 0
M  V30 1675 C 161.285 0.979059 1.60611 0
M  V30 1676 O 160.643 -0.0517803 1.81226 0
M  V30 1677 C 160.691 3.40274 1.19358 0
M  V30 1678 O 159.795 3.41676 2.30935 0
M  V30 1679 H 159.136 0.647944 0.145138 0
M  V30 1680 H 161.666 2.03779 -0.183156 0
M  V30 1681 H 161.676 3.78078 1.53365 0
M  V30 1682 H 160.351 4.13594 0.437385 0
M  V30 1683 H 158.928 3.15672 1.98509 0
M  V30 1684 N 161.113 -0.173488 1.56642 0
M  V30 1685 C 162.359 -0.887108 1.83035 0
M  V30 1686 C 162.714 -1.79965 0.680461 0
M  V30 1687 O 162.007 -1.88854 -0.323225 0
M  V30 1688 C 162.201 -1.72069 3.13252 0
M  V30 1689 C 162.03 -0.89035 4.40798 0
M  V30 1690 C 160.8 -0.566282 5.02117 0
M  V30 1691 C 162.998 -0.232921 5.13772 0
M  V30 1692 N 160.98 0.280427 6.13259 0
M  V30 1693 C 162.351 0.475046 6.18177 0
M  V30 1694 C 164.406 -0.150863 4.97671 0
M  V30 1695 C 163.109 1.25729 7.08227 0
M  V30 1696 C 165.135 0.618039 5.88162 0
M  V30 1697 C 164.497 1.31438 6.92029 0
M  V30 1698 H 160.596 -0.303303 0.720785 0
M  V30 1699 H 163.18 -0.154244 1.94088 0
M  V30 1700 H 161.351 -2.42499 3.03395 0
M  V30 1701 H 163.083 -2.37545 3.2765 0
M  V30 1702 H 159.838 -0.895852 4.6505 0
M  V30 1703 H 160.262 0.694027 6.73433 0
M  V30 1704 H 164.904 -0.674868 4.17379 0
M  V30 1705 H 162.622 1.79265 7.87966 0
M  V30 1706 H 166.208 0.683173 5.77775 0
M  V30 1707 H 165.088 1.89981 7.6084 0
M  V30 1708 N 162.591 -1.51276 -0.441967 0
M  V30 1709 C 163.554 -1.7167 -1.51862 0
M  V30 1710 C 164.554 -0.586793 -1.49711 0
M  V30 1711 O 165.744 -0.854276 -1.51815 0
M  V30 1712 C 162.876 -1.76889 -2.91416 0
M  V30 1713 H 164.069 -2.67754 -1.35084 0
M  V30 1714 H 161.622 -1.41196 -0.670333 0
M  V30 1715 H 162.357 -0.826026 -3.13604 0
M  V30 1716 H 162.142 -2.59001 -2.94382 0
M  V30 1717 H 163.632 -1.94522 -3.69528 0
M  V30 1718 N 164.069 0.697108 -1.41344 0
M  V30 1719 C 165.297 1.48593 -1.43972 0
M  V30 1720 C 165.712 1.88747 -0.0445612 0
M  V30 1721 O 165.069 1.56682 0.935785 0
M  V30 1722 C 165.12 2.74946 -2.34706 0
M  V30 1723 O 164.841 2.36484 -3.68791 0
M  V30 1724 C 166.342 3.687 -2.46121 0
M  V30 1725 H 163.562 0.457964 -0.490418 0
M  V30 1726 H 166.106 0.858429 -1.8561 0
M  V30 1727 H 164.261 3.33937 -1.9638 0
M  V30 1728 H 164.675 3.17918 -4.17167 0
M  V30 1729 H 166.149 4.54145 -3.13777 0
M  V30 1730 H 166.626 4.13081 -1.49199 0
M  V30 1731 H 167.232 3.15613 -2.85076 0
M  V30 1732 N 165.547 1.27147 0.931209 0
M  V30 1733 C 166.772 1.16191 1.71797 0
M  V30 1734 C 167.197 -0.278004 1.86034 0
M  V30 1735 O 166.555 -1.20137 1.35782 0
M  V30 1736 C 166.603 1.84673 3.09723 0
M  V30 1737 O 165.707 1.14231 3.96264 0
M  V30 1738 H 165.048 0.404303 0.526721 0
M  V30 1739 H 167.578 1.68152 1.1656 0
M  V30 1740 H 167.588 1.91893 3.60057 0
M  V30 1741 H 166.263 2.89421 2.98677 0
M  V30 1742 H 164.84 1.15056 3.54706 0
M  V30 1743 N 167.025 -1.13721 1.09112 0
M  V30 1744 C 168.25 -1.89314 0.847053 0
M  V30 1745 C 168.675 -1.78416 -0.595774 0
M  V30 1746 O 168.033 -1.12942 -1.41823 0
M  V30 1747 C 168.081 -3.3701 1.28284 0
M  V30 1748 O 167.185 -4.10054 0.439267 0
M  V30 1749 H 166.526 -0.588745 0.307044 0
M  V30 1750 H 169.056 -1.43902 1.45442 0
M  V30 1751 H 169.066 -3.87834 1.26683 0
M  V30 1752 H 167.741 -3.4426 2.33363 0
M  V30 1753 H 166.318 -3.69266 0.519312 0
M  V30 1754 N 168.503 -0.877838 -1.30888 0
M  V30 1755 C 169.752 -0.488793 -1.95688 0
M  V30 1756 C 170.065 0.965485 -1.70111 0
M  V30 1757 O 171.271 1.46104 -2.28836 0
M  V30 1758 C 169.727 -0.823201 -3.50359 0
M  V30 1759 C 169.335 -2.29477 -3.84765 0
M  V30 1760 C 171.079 -0.503009 -4.21509 0
M  V30 1761 C 168.986 -2.57118 -5.32583 0
M  V30 1762 H 167.916 -0.179062 -0.732429 0
M  V30 1763 H 170.567 -1.07183 -1.48943 0
M  V30 1764 H 168.949 -0.169331 -3.95638 0
M  V30 1765 H 170.123 -2.99236 -3.5042 0
M  V30 1766 H 168.438 -2.58178 -3.267 0
M  V30 1767 H 171.035 -0.68665 -5.30273 0
M  V30 1768 H 171.378 0.557109 -4.12555 0
M  V30 1769 H 171.911 -1.11376 -3.8189 0
M  V30 1770 H 168.65 -3.61843 -5.4658 0
M  V30 1771 H 168.17 -1.91961 -5.68253 0
M  V30 1772 H 169.849 -2.42251 -5.99936 0
M  V30 1773 N 169.982 1.44106 -0.638065 0
M  V30 1774 C 170.892 2.34513 0.0637334 0
M  V30 1775 C 171.908 1.53018 0.828346 0
M  V30 1776 O 173.084 1.85723 0.779036 0
M  V30 1777 C 170.149 3.31095 1.02844 0
M  V30 1778 C 169.21 4.28497 0.26244 0
M  V30 1779 C 168.443 5.20465 1.1812 0
M  V30 1780 O 168.666 5.16514 2.42011 0
M  V30 1781 O 167.6 5.98251 0.661774 0
M  V30 1782 H 171.426 2.95989 -0.68003 0
M  V30 1783 H 169.011 1.43994 -0.398252 0
M  V30 1784 H 170.893 3.90526 1.58327 0
M  V30 1785 H 169.568 2.72144 1.7527 0
M  V30 1786 H 168.475 3.72592 -0.335602 0
M  V30 1787 H 169.808 4.90388 -0.421936 0
M  V30 1788 N 171.46 0.379036 1.52974 0
M  V30 1789 C 172.37 -0.468639 2.29872 0
M  V30 1790 C 173.386 -1.08067 1.36373 0
M  V30 1791 O 174.562 -1.08871 1.69438 0
M  V30 1792 C 171.627 -1.58594 3.083 0
M  V30 1793 C 170.688 -1.00007 4.17489 0
M  V30 1794 C 169.921 -2.06413 4.92168 0
M  V30 1795 O 170.144 -3.27751 4.66835 0
M  V30 1796 O 169.078 -1.68717 5.7777 0
M  V30 1797 H 172.904 0.157508 3.03291 0
M  V30 1798 H 170.489 0.143035 1.48714 0
M  V30 1799 H 172.371 -2.23525 3.57232 0
M  V30 1800 H 171.046 -2.19724 2.37703 0
M  V30 1801 H 169.953 -0.314299 3.72777 0
M  V30 1802 H 171.286 -0.433135 4.90291 0
M  V30 1803 N 172.938 -1.57226 0.108567 0
M  V30 1804 C 174.184 -1.95121 -0.552761 0
M  V30 1805 C 174.517 -0.991345 -1.66991 0
M  V30 1806 O 173.792 -0.0267211 -1.94482 0
M  V30 1807 C 174.075 -3.43039 -1.09528 0
M  V30 1808 C 173.928 -4.49797 0.0177332 0
M  V30 1809 C 175.247 -3.92567 -1.98945 0
M  V30 1810 H 172.366 -0.709496 -0.199461 0
M  V30 1811 H 175.008 -1.89126 0.182011 0
M  V30 1812 H 173.158 -3.48279 -1.72146 0
M  V30 1813 H 174.83 -4.56661 0.652584 0
M  V30 1814 H 173.073 -4.284 0.682309 0
M  V30 1815 H 173.744 -5.50528 -0.402919 0
M  V30 1816 H 176.22 -3.89565 -1.46214 0
M  V30 1817 H 175.096 -4.96605 -2.33827 0
M  V30 1818 H 175.357 -3.32648 -2.91201 0
M  V30 1819 N 174.416 0.165178 -1.56732 0
M  V30 1820 C 175.379 1.18822 -1.95995 0
M  V30 1821 C 176.379 1.3685 -0.84431 0
M  V30 1822 O 177.569 1.34152 -1.11126 0
M  V30 1823 C 174.701 2.5521 -2.26011 0
M  V30 1824 H 175.894 0.851825 -2.87548 0
M  V30 1825 H 173.447 0.407857 -1.50885 0
M  V30 1826 H 174.182 2.93852 -1.37191 0
M  V30 1827 H 173.967 2.43489 -3.07336 0
M  V30 1828 H 175.457 3.28927 -2.57288 0
M  V30 1829 N 175.894 1.51508 0.433938 0
M  V30 1830 C 176.804 1.75917 1.5521 0
M  V30 1831 C 177.82 0.643545 1.61662 0
M  V30 1832 O 178.996 0.926183 1.7884 0
M  V30 1833 C 176.061 1.88213 2.91164 0
M  V30 1834 C 175.122 3.12074 2.94802 0
M  V30 1835 C 174.355 3.23774 4.24271 0
M  V30 1836 O 174.578 2.4133 5.16833 0
M  V30 1837 O 173.512 4.16774 4.34262 0
M  V30 1838 H 177.338 2.70777 1.37527 0
M  V30 1839 H 174.923 1.36051 0.617293 0
M  V30 1840 H 176.805 1.98267 3.71845 0
M  V30 1841 H 175.48 0.965413 3.08968 0
M  V30 1842 H 174.387 3.07497 2.13065 0
M  V30 1843 H 175.72 4.03446 2.81943 0
M  V30 1844 N 177.372 -0.689602 1.41712 0
M  V30 1845 C 178.335 -1.78521 1.43746 0
M  V30 1846 C 179.335 -1.57436 0.327191 0
M  V30 1847 O 180.525 -1.64 0.587348 0
M  V30 1848 C 177.657 -3.16971 1.25467 0
M  V30 1849 H 178.85 -1.78108 2.41283 0
M  V30 1850 H 176.403 -0.89781 1.27942 0
M  V30 1851 H 177.138 -3.23019 0.287948 0
M  V30 1852 H 176.923 -3.33678 2.05917 0
M  V30 1853 H 178.413 -3.96935 1.2974 0
M  V30 1854 N 178.85 -1.27639 -0.924453 0
M  V30 1855 C 180.098 -1.13941 -1.66918 0
M  V30 1856 C 180.419 0.314589 -1.92446 0
M  V30 1857 O 179.689 1.21964 -1.53303 0
M  V30 1858 H 178.269 -0.418678 -0.618642 0
M  V30 1859 H 180.931 -1.60213 -1.10985 0
M  V30 1860 H 180.027 -1.67094 -2.63602 0
M  V30 1861 N 180.328 1.1314 -1.09713 0
M  V30 1862 C 181.739 1.66029 -0.853885 0
M  V30 1863 C 182.09 1.86241 0.617142 0
M  V30 1864 O 181.215 1.5834 1.47503 0
M  V30 1865 C 181.81 3.01599 -1.5435 0
M  V30 1866 C 180.369 3.51467 -1.34714 0
M  V30 1867 C 179.516 2.26648 -1.59769 0
M  V30 1868 H 182.467 0.970226 -1.25588 0
M  V30 1869 H 182.488 3.67709 -0.978267 0
M  V30 1870 H 182 2.86856 -2.6141 0
M  V30 1871 H 180.101 3.71408 -0.297838 0
M  V30 1872 H 180.214 4.314 -2.08401 0
M  V30 1873 H 178.578 2.33385 -1.01998 0
M  V30 1874 H 179.361 2.14467 -2.68065 0
M  V30 1875 N 181.806 0.884767 1.30421 0
M  V30 1876 C 182.716 0.355398 2.31892 0
M  V30 1877 C 183.732 -0.542261 1.65335 0
M  V30 1878 O 184.908 -0.435432 1.96637 0
M  V30 1879 C 181.973 -0.421661 3.44126 0
M  V30 1880 C 181.034 0.505727 4.26311 0
M  V30 1881 C 180.267 -0.234343 5.33185 0
M  V30 1882 O 180.49 -1.46045 5.51386 0
M  V30 1883 O 179.424 0.415443 6.00465 0
M  V30 1884 H 183.25 1.19685 2.79122 0
M  V30 1885 H 180.835 0.648596 1.34587 0
M  V30 1886 H 182.717 -0.861641 4.12497 0
M  V30 1887 H 181.392 -1.23942 2.99032 0
M  V30 1888 H 180.299 0.994513 3.60639 0
M  V30 1889 H 181.632 1.28948 4.75009 0
M  V30 1890 N 183.284 -1.43765 0.645699 0
M  V30 1891 C 184.247 -2.29163 -0.0409488 0
M  V30 1892 C 185.247 -1.41813 -0.757996 0
M  V30 1893 O 186.437 -1.63527 -0.600382 0
M  V30 1894 C 183.569 -3.23716 -1.06869 0
M  V30 1895 H 184.762 -2.91366 0.710345 0
M  V30 1896 H 182.315 -1.5092 0.406547 0
M  V30 1897 H 183.05 -2.66393 -1.84947 0
M  V30 1898 H 182.835 -3.88105 -0.558277 0
M  V30 1899 H 184.325 -3.87831 -1.54845 0
M  V30 1900 N 184.763 -0.387143 -1.52771 0
M  V30 1901 C 185.693 0.440551 -2.29306 0
M  V30 1902 C 186.674 1.06535 -1.32606 0
M  V30 1903 O 187.859 1.07853 -1.61497 0
M  V30 1904 C 184.989 1.56919 -3.09829 0
M  V30 1905 C 183.943 1.07054 -4.14395 0
M  V30 1906 C 183.269 2.29109 -4.83129 0
M  V30 1907 C 184.569 0.140015 -5.22112 0
M  V30 1908 H 186.263 -0.198026 -2.98744 0
M  V30 1909 H 183.809 -0.09668 -1.43675 0
M  V30 1910 H 185.762 2.15503 -3.62128 0
M  V30 1911 H 184.486 2.23532 -2.3812 0
M  V30 1912 H 183.145 0.507247 -3.63074 0
M  V30 1913 H 182.793 2.94227 -4.0797 0
M  V30 1914 H 182.493 1.96406 -5.53804 0
M  V30 1915 H 184.017 2.88339 -5.38231 0
M  V30 1916 H 185.431 0.633978 -5.69784 0
M  V30 1917 H 183.828 -0.0971485 -6.00021 0
M  V30 1918 H 184.898 -0.811711 -4.78058 0
M  V30 1919 N 186.241 1.57166 -0.116904 0
M  V30 1920 C 187.657 1.5779 0.239693 0
M  V30 1921 C 187.857 1.1295 1.66867 0
M  V30 1922 O 186.913 0.81592 2.38954 0
M  V30 1923 C 188.226 3.00699 0.00828202 0
M  V30 1924 C 189.774 3.12912 0.0743438 0
M  V30 1925 C 190.249 4.57817 -0.129348 0
M  V30 1926 N 191.74 4.63139 -0.075247 0
M  V30 1927 C 192.475 5.73023 -0.207788 0
M  V30 1928 N 191.971 6.91665 -0.396382 0
M  V30 1929 N 193.764 5.61906 -0.14751 0
M  V30 1930 H 185.915 1.84615 -1.05029 0
M  V30 1931 H 188.178 0.85311 -0.41341 0
M  V30 1932 H 187.884 3.37784 -0.979531 0
M  V30 1933 H 187.758 3.69848 0.741077 0
M  V30 1934 H 190.145 2.75686 1.05268 0
M  V30 1935 H 190.226 2.4631 -0.690297 0
M  V30 1936 H 189.87 4.95742 -1.10465 0
M  V30 1937 H 189.8 5.22507 0.655253 0
M  V30 1938 H 192.291 3.7784 0.0670898 0
M  V30 1939 H 192.604 7.71255 -0.488437 0
M  V30 1940 H 190.949 6.93654 -0.432329 0
M  V30 1941 H 194.14 4.681 -0.00115036 0
M  V30 1942 H 194.313 6.47501 -0.254247 0
M  V30 1943 N 187.719 -0.156864 1.56817 0
M  V30 1944 C 188.965 -0.867645 1.83966 0
M  V30 1945 C 189.32 -1.79233 0.699511 0
M  V30 1946 O 188.613 -1.89186 -0.303176 0
M  V30 1947 C 188.807 -1.68737 3.1506 0
M  V30 1948 C 188.636 -0.843548 4.41718 0
M  V30 1949 C 187.406 -0.512994 5.02689 0
M  V30 1950 C 189.604 -0.178416 5.1399 0
M  V30 1951 N 187.586 0.345456 6.12927 0
M  V30 1952 C 188.957 0.540586 6.17639 0
M  V30 1953 C 191.012 -0.0980696 4.97803 0
M  V30 1954 C 189.715 1.33233 7.06853 0
M  V30 1955 C 191.741 0.680387 5.87473 0
M  V30 1956 C 191.103 1.3877 6.90596 0
M  V30 1957 H 187.202 -0.295642 0.723961 0
M  V30 1958 H 189.786 -0.13365 1.94241 0
M  V30 1959 H 187.957 -2.39268 3.0595 0
M  V30 1960 H 189.689 -2.34056 3.30151 0
M  V30 1961 H 186.444 -0.846476 4.65974 0
M  V30 1962 H 186.868 0.765415 6.72659 0
M  V30 1963 H 191.51 -0.630562 4.18071 0
M  V30 1964 H 189.228 1.87612 7.8602 0
M  V30 1965 H 192.814 0.744415 5.77018 0
M  V30 1966 H 191.694 1.9804 7.58782 0
M  V30 1967 N 189.197 -1.51736 -0.425897 0
M  V30 1968 C 190.127 -1.76827 -1.52494 0
M  V30 1969 C 191.108 -0.618524 -1.58456 0
M  V30 1970 O 192.293 -0.862416 -1.74 0
M  V30 1971 C 189.423 -1.90374 -2.90474 0
M  V30 1972 C 188.377 -3.0588 -2.99369 0
M  V30 1973 C 187.703 -3.04625 -4.3944 0
M  V30 1974 C 189.003 -4.45644 -2.72394 0
M  V30 1975 H 190.697 -2.68855 -1.31748 0
M  V30 1976 H 188.243 -1.29372 -0.632362 0
M  V30 1977 H 190.196 -2.0651 -3.6733 0
M  V30 1978 H 188.92 -0.95004 -3.12477 0
M  V30 1979 H 187.579 -2.89467 -2.24954 0
M  V30 1980 H 187.227 -2.0701 -4.58428 0
M  V30 1981 H 186.927 -3.82195 -4.46319 0
M  V30 1982 H 188.451 -3.22869 -5.18255 0
M  V30 1983 H 189.865 -4.62348 -3.38979 0
M  V30 1984 H 188.262 -5.25006 -2.9067 0
M  V30 1985 H 189.332 -4.54893 -1.67929 0
M  V30 1986 N 190.675 0.682077 -1.42076 0
M  V30 1987 C 191.607 1.80755 -1.40926 0
M  V30 1988 C 192.62 1.59833 -0.309398 0
M  V30 1989 O 193.809 1.69087 -0.572014 0
M  V30 1990 C 190.909 3.17744 -1.17865 0
M  V30 1991 C 190.082 3.65578 -2.40149 0
M  V30 1992 C 189.141 4.81277 -2.12742 0
M  V30 1993 O 188.167 4.92197 -2.85887 0
M  V30 1994 N 189.369 5.69474 -1.12602 0
M  V30 1995 H 192.134 1.82229 -2.37935 0
M  V30 1996 H 189.695 0.864903 -1.36861 0
M  V30 1997 H 191.687 3.9279 -0.9746 0
M  V30 1998 H 190.257 3.11214 -0.294068 0
M  V30 1999 H 189.477 2.81291 -2.76169 0
M  V30 2000 H 190.765 3.94278 -3.21593 0
M  V30 2001 H 190.163 5.63297 -0.520899 0
M  V30 2002 H 188.72 6.44363 -0.981842 0
M  V30 2003 N 192.153 1.28127 0.917671 0
M  V30 2004 C 193.083 1.14248 2.03641 0
M  V30 2005 C 194.064 0.0412748 1.7005 0
M  V30 2006 O 195.249 0.217566 1.92977 0
M  V30 2007 C 192.379 0.799431 3.37974 0
M  V30 2008 C 191.333 1.85497 3.85713 0
M  V30 2009 C 190.659 1.36565 5.16966 0
M  V30 2010 C 191.959 3.26085 4.08002 0
M  V30 2011 H 193.653 2.07835 2.15511 0
M  V30 2012 H 191.199 1.00064 1.03553 0
M  V30 2013 H 193.152 0.689114 4.15727 0
M  V30 2014 H 191.876 -0.172145 3.26146 0
M  V30 2015 H 190.535 1.95437 3.10161 0
M  V30 2016 H 190.183 0.383253 5.01538 0
M  V30 2017 H 189.883 2.07143 5.49878 0
M  V30 2018 H 191.407 1.26848 5.97279 0
M  V30 2019 H 192.821 3.19089 4.76293 0
M  V30 2020 H 191.218 3.94462 4.52238 0
M  V30 2021 H 192.288 3.70394 3.12948 0
M  V30 2022 N 193.631 -1.12557 1.10312 0
M  V30 2023 C 194.861 -1.87592 0.865617 0
M  V30 2024 C 195.269 -1.79851 -0.587389 0
M  V30 2025 O 194.612 -1.16949 -1.41664 0
M  V30 2026 C 194.674 -3.37665 1.23381 0
M  V30 2027 C 194.338 -3.69181 2.69359 0
M  V30 2028 C 195.335 -3.67652 3.67597 0
M  V30 2029 C 193.02 -3.98555 3.05711 0
M  V30 2030 C 195.014 -3.95053 5.00212 0
M  V30 2031 C 192.701 -4.25616 4.38514 0
M  V30 2032 C 193.699 -4.23851 5.35574 0
M  V30 2033 O 193.387 -4.50242 6.65986 0
M  V30 2034 H 193.119 -0.600442 0.310557 0
M  V30 2035 H 195.673 -1.4335 1.47105 0
M  V30 2036 H 193.903 -3.82454 0.571467 0
M  V30 2037 H 195.592 -3.94041 0.973994 0
M  V30 2038 H 196.358 -3.45024 3.40857 0
M  V30 2039 H 192.237 -3.99071 2.30789 0
M  V30 2040 H 195.781 -3.93591 5.75962 0
M  V30 2041 H 191.678 -4.47718 4.64994 0
M  V30 2042 H 192.446 -4.67867 6.71597 0
M  V30 2043 N 195.109 -0.891671 -1.2995 0
M  V30 2044 C 196.358 -0.509521 -1.95158 0
M  V30 2045 C 196.671 0.947388 -1.71125 0
M  V30 2046 O 197.877 1.43669 -2.30372 0
M  V30 2047 C 196.333 -0.860315 -3.49466 0
M  V30 2048 C 195.941 -2.33545 -3.8231 0
M  V30 2049 C 197.685 -0.547687 -4.20952 0
M  V30 2050 C 195.592 -2.62752 -5.29826 0
M  V30 2051 H 194.522 -0.18682 -0.730489 0
M  V30 2052 H 197.173 -1.08756 -1.47798 0
M  V30 2053 H 195.555 -0.211285 -3.95436 0
M  V30 2054 H 196.729 -3.02936 -3.47227 0
M  V30 2055 H 195.044 -2.61629 -3.23944 0
M  V30 2056 H 197.641 -0.742854 -5.29515 0
M  V30 2057 H 197.984 0.51332 -4.13123 0
M  V30 2058 H 198.517 -1.1542 -3.80688 0
M  V30 2059 H 195.256 -3.6762 -5.42712 0
M  V30 2060 H 194.776 -1.97977 -5.66185 0
M  V30 2061 H 196.455 -2.48601 -5.97333 0
M  V30 2062 N 196.587 1.43421 -0.653314 0
M  V30 2063 C 197.817 2.05864 -0.174238 0
M  V30 2064 C 198.225 1.49052 1.16534 0
M  V30 2065 O 197.568 0.616481 1.73047 0
M  V30 2066 C 197.63 3.59499 -0.00875873 0
M  V30 2067 C 197.294 4.38893 -1.27364 0
M  V30 2068 C 198.291 4.70947 -2.20239 0
M  V30 2069 C 195.976 4.789 -1.51525 0
M  V30 2070 C 197.97 5.41916 -3.35568 0
M  V30 2071 C 195.657 5.49614 -2.67147 0
M  V30 2072 C 196.655 5.81044 -3.58994 0
M  V30 2073 O 196.343 6.50313 -4.72597 0
M  V30 2074 H 196.075 0.670345 -0.0872549 0
M  V30 2075 H 198.629 1.84913 -0.894226 0
M  V30 2076 H 196.859 3.79025 0.7666 0
M  V30 2077 H 198.548 4.0364 0.427687 0
M  V30 2078 H 199.314 4.40558 -2.02815 0
M  V30 2079 H 195.193 4.53843 -0.809158 0
M  V30 2080 H 198.737 5.66365 -4.07279 0
M  V30 2081 H 194.634 5.79419 -2.84505 0
M  V30 2082 H 195.402 6.68795 -4.71864 0
M  V30 2083 N 198.065 0.39524 1.52563 0
M  V30 2084 C 199.012 -0.437036 2.26624 0
M  V30 2085 C 199.982 -1.05281 1.28472 0
M  V30 2086 O 201.167 -1.07971 1.57311 0
M  V30 2087 C 198.307 -1.55524 3.08069 0
M  V30 2088 C 197.42 -0.961745 4.21158 0
M  V30 2089 C 196.555 -2.05149 4.89987 0
M  V30 2090 C 195.594 -1.4342 5.95061 0
M  V30 2091 N 194.731 -2.46351 6.57462 0
M  V30 2092 H 199.571 0.200976 2.97322 0
M  V30 2093 H 197.108 0.110944 1.46681 0
M  V30 2094 H 199.066 -2.21437 3.53584 0
M  V30 2095 H 197.696 -2.16348 2.3957 0
M  V30 2096 H 196.748 -0.192048 3.79915 0
M  V30 2097 H 198.06 -0.470701 4.96574 0
M  V30 2098 H 197.214 -2.78819 5.38837 0
M  V30 2099 H 195.953 -2.57615 4.14109 0
M  V30 2100 H 194.958 -0.682774 5.45544 0
M  V30 2101 H 196.183 -0.917416 6.72875 0
M  V30 2102 H 194.129 -2.97975 5.8442 0
M  V30 2103 H 194.046 -2.02019 7.28508 0
M  V30 2104 H 195.314 -3.19633 7.10954 0
M  V30 2105 N 199.544 -1.57102 0.125237 0
M  V30 2106 C 200.821 -1.86953 -0.575142 0
M  V30 2107 C 201.201 -1.02749 -1.84407 0
M  V30 2108 O 200.549 -0.108144 -2.28244 0
M  V30 2109 C 200.759 -3.38198 -0.861583 0
M  V30 2110 C 202.107 -4.06937 -1.21192 0
M  V30 2111 O 203.131 -3.43252 -0.951645 0
M  V30 2112 O 201.99 -5.19364 -1.70068 0
M  V30 2113 H 199.084 -0.774147 -0.290906 0
M  V30 2114 H 201.63 -1.68942 0.160211 0
M  V30 2115 H 200.402 -3.91282 0.0373647 0
M  V30 2116 H 200.025 -3.61661 -1.65188 0
M  V30 2117 N 201.022 0.148545 -1.56898 0
M  V30 2118 C 202.438 0.501131 -1.51528 0
M  V30 2119 C 202.638 1.83458 -0.833399 0
M  V30 2120 O 201.694 2.49259 -0.40328 0
M  V30 2121 C 203.007 0.512864 -2.96294 0
M  V30 2122 C 204.555 0.598487 -3.07225 0
M  V30 2123 C 205.03 0.640897 -4.53494 0
M  V30 2124 N 206.521 0.703163 -4.57832 0
M  V30 2125 C 207.256 0.756935 -5.68382 0
M  V30 2126 N 206.752 0.770147 -6.88506 0
M  V30 2127 N 208.545 0.797698 -5.56411 0
M  V30 2128 H 200.696 -0.725532 -1.99624 0
M  V30 2129 H 202.959 -0.264358 -0.910395 0
M  V30 2130 H 202.665 -0.398691 -3.49433 0
M  V30 2131 H 202.539 1.35133 -3.52163 0
M  V30 2132 H 204.926 1.50046 -2.54106 0
M  V30 2133 H 205.007 -0.267093 -2.54402 0
M  V30 2134 H 204.651 -0.256915 -5.0725 0
M  V30 2135 H 204.581 1.52295 -5.04097 0
M  V30 2136 H 207.072 0.700314 -3.71354 0
M  V30 2137 H 207.385 0.812983 -7.68512 0
M  V30 2138 H 205.73 0.738049 -6.9107 0
M  V30 2139 H 208.921 0.784535 -4.61479 0
M  V30 2140 H 209.094 0.83614 -6.42583 0
M  V30 2141 N 202.5 1.5196 0.417844 0
M  V30 2142 C 203.41 1.77554 1.53336 0
M  V30 2143 C 204.426 0.660655 1.6097 0
M  V30 2144 O 205.602 0.945099 1.77848 0
M  V30 2145 C 202.667 1.91291 2.89152 0
M  V30 2146 C 201.728 3.15183 2.91475 0
M  V30 2147 C 200.961 3.28256 4.20813 0
M  V30 2148 O 201.184 2.46798 5.14244 0
M  V30 2149 O 200.118 4.21356 4.29817 0
M  V30 2150 H 203.944 2.7222 1.34647 0
M  V30 2151 H 201.529 1.36698 0.602828 0
M  V30 2152 H 203.411 2.02199 3.69721 0
M  V30 2153 H 202.086 0.998129 3.07927 0
M  V30 2154 H 200.993 3.09739 2.09791 0
M  V30 2155 H 202.326 4.06414 2.77648 0
M  V30 2156 N 203.978 -0.674533 1.42435 0
M  V30 2157 C 205.224 -1.43671 1.43131 0
M  V30 2158 C 205.557 -1.94142 0.0476021 0
M  V30 2159 O 204.832 -1.70924 -0.928188 0
M  V30 2160 C 205.115 -2.63355 2.45594 0
M  V30 2161 C 204.968 -2.18514 3.93156 0
M  V30 2162 C 206.287 -3.65571 2.45043 0
M  V30 2163 H 203.406 -0.521077 0.521198 0
M  V30 2164 H 206.048 -0.766551 1.7385 0
M  V30 2165 H 204.198 -3.2053 2.19528 0
M  V30 2166 H 205.87 -1.66504 4.30202 0
M  V30 2167 H 204.113 -1.50086 4.07009 0
M  V30 2168 H 204.784 -3.04484 4.60428 0
M  V30 2169 H 207.26 -3.18113 2.68223 0
M  V30 2170 H 206.136 -4.46893 3.18713 0
M  V30 2171 H 206.397 -4.16716 1.47649 0
M  V30 2172 N 205.456 -1.28612 -0.910864 0
M  V30 2173 C 206.684 -1.18792 -1.69399 0
M  V30 2174 C 207.099 0.253039 -1.87097 0
M  V30 2175 O 206.456 1.17071 -1.40003 0
M  V30 2176 C 206.507 -1.88511 -3.08457 0
M  V30 2177 O 206.228 -3.26979 -2.91576 0
M  V30 2178 C 207.729 -1.85029 -4.02839 0
M  V30 2179 H 204.949 -0.412233 -0.529438 0
M  V30 2180 H 207.493 -1.69788 -1.13984 0
M  V30 2181 H 205.648 -1.41379 -3.60681 0
M  V30 2182 H 206.062 -3.61936 -3.79608 0
M  V30 2183 H 207.536 -2.38395 -4.97867 0
M  V30 2184 H 208.013 -0.823303 -4.31414 0
M  V30 2185 H 208.619 -2.31853 -3.56545 0
M  V30 2186 N 206.934 1.1197 -1.10907 0
M  V30 2187 C 207.881 2.17846 -0.762345 0
M  V30 2188 C 208.851 1.63995 0.263599 0
M  V30 2189 O 210.036 1.90273 0.141773 0
M  V30 2190 C 207.176 3.44487 -0.205651 0
M  V30 2191 C 206.289 4.12369 -1.28748 0
M  V30 2192 C 205.424 5.26674 -0.691919 0
M  V30 2193 C 204.463 5.86431 -1.75399 0
M  V30 2194 N 203.6 6.92142 -1.17833 0
M  V30 2195 H 208.44 2.46851 -1.6694 0
M  V30 2196 H 205.977 1.21188 -0.833776 0
M  V30 2197 H 207.935 4.16981 0.135037 0
M  V30 2198 H 206.565 3.15884 0.664613 0
M  V30 2199 H 205.617 3.38003 -1.74522 0
M  V30 2200 H 206.929 4.52844 -2.09125 0
M  V30 2201 H 206.083 6.05953 -0.300963 0
M  V30 2202 H 204.822 4.8749 0.143232 0
M  V30 2203 H 203.827 5.05835 -2.15432 0
M  V30 2204 H 205.052 6.27685 -2.59208 0
M  V30 2205 H 202.998 6.54985 -0.364725 0
M  V30 2206 H 202.915 7.31242 -1.91887 0
M  V30 2207 H 204.183 7.75237 -0.81408 0
M  V30 2208 N 208.412 0.89855 1.29475 0
M  V30 2209 C 209.359 0.373819 2.27753 0
M  V30 2210 C 210.329 -0.543444 1.56958 0
M  V30 2211 O 211.514 -0.468934 1.84948 0
M  V30 2212 C 208.654 -0.393648 3.42848 0
M  V30 2213 C 207.767 0.554379 4.28428 0
M  V30 2214 C 206.902 -0.230026 5.30702 0
M  V30 2215 C 205.941 0.712599 6.07938 0
M  V30 2216 N 205.078 -0.0373283 7.0209 0
M  V30 2217 H 209.918 1.21699 2.72017 0
M  V30 2218 H 207.455 0.611456 1.33789 0
M  V30 2219 H 209.413 -0.85466 4.08352 0
M  V30 2220 H 208.043 -1.20128 2.99615 0
M  V30 2221 H 207.095 1.13391 3.63107 0
M  V30 2222 H 208.407 1.27597 4.82204 0
M  V30 2223 H 207.561 -0.752288 6.02018 0
M  V30 2224 H 206.3 -0.984758 4.77654 0
M  V30 2225 H 205.305 1.24637 5.35486 0
M  V30 2226 H 206.53 1.46664 6.63074 0
M  V30 2227 H 204.476 -0.774348 6.51414 0
M  V30 2228 H 204.393 0.624374 7.53417 0
M  V30 2229 H 205.661 -0.539891 7.77628 0
M  V30 2230 N 209.89 -1.43072 0.660911 0
M  V30 2231 C 210.82 -2.33497 -0.0122829 0
M  V30 2232 C 211.801 -1.49903 -0.803925 0
M  V30 2233 O 212.986 -1.78546 -0.763864 0
M  V30 2234 C 210.116 -3.33363 -0.973994 0
M  V30 2235 C 209.07 -4.27003 -0.291928 0
M  V30 2236 C 208.396 -5.16967 -1.36562 0
M  V30 2237 C 209.696 -5.15816 0.820462 0
M  V30 2238 H 211.39 -2.90038 0.742873 0
M  V30 2239 H 208.936 -1.39461 0.358688 0
M  V30 2240 H 210.889 -3.95524 -1.45392 0
M  V30 2241 H 209.613 -2.75095 -1.7604 0
M  V30 2242 H 208.272 -3.66217 0.167623 0
M  V30 2243 H 207.92 -4.55034 -2.14366 0
M  V30 2244 H 207.62 -5.80441 -0.914454 0
M  V30 2245 H 209.144 -5.82003 -1.84675 0
M  V30 2246 H 210.558 -5.71742 0.422366 0
M  V30 2247 H 208.955 -5.8805 1.19656 0
M  V30 2248 H 210.025 -4.55045 1.67518 0
M  V30 2249 N 211.368 -0.403325 -1.52352 0
M  V30 2250 C 212.614 0.174605 -2.02047 0
M  V30 2251 C 212.947 1.45282 -1.28867 0
M  V30 2252 O 212.222 1.90483 -0.393257 0
M  V30 2253 C 212.505 0.428238 -3.57545 0
M  V30 2254 C 212.358 -0.866248 -4.4138 0
M  V30 2255 C 213.677 1.21287 -4.23057 0
M  V30 2256 H 210.796 0.0619851 -0.734389 0
M  V30 2257 H 213.438 -0.53565 -1.82293 0
M  V30 2258 H 211.588 1.03327 -3.74507 0
M  V30 2259 H 213.26 -1.50265 -4.3614 0
M  V30 2260 H 211.503 -1.47851 -4.07827 0
M  V30 2261 H 212.174 -0.643249 -5.48239 0
M  V30 2262 H 214.65 0.700703 -4.10158 0
M  V30 2263 H 213.526 1.35909 -5.31808 0
M  V30 2264 H 213.787 2.23193 -3.81625 0
M  V30 2265 N 212.846 1.57033 -0.133567 0
M  V30 2266 C 214.262 1.58035 0.222944 0
M  V30 2267 C 214.462 1.14713 1.6566 0
M  V30 2268 O 213.518 0.841218 2.38075 0
M  V30 2269 C 214.831 3.00691 -0.0236116 0
M  V30 2270 C 216.379 3.12973 0.0411512 0
M  V30 2271 C 216.854 4.57654 -0.177899 0
M  V30 2272 N 218.345 4.63033 -0.124365 0
M  V30 2273 C 219.08 5.72771 -0.268553 0
M  V30 2274 N 218.576 6.91206 -0.46972 0
M  V30 2275 N 220.369 5.61718 -0.2071 0
M  V30 2276 H 212.52 1.8349 -1.06981 0
M  V30 2277 H 214.783 0.848677 -0.422436 0
M  V30 2278 H 214.489 3.36726 -1.0153 0
M  V30 2279 H 214.363 3.70614 0.701808 0
M  V30 2280 H 216.75 2.76787 1.02338 0
M  V30 2281 H 216.831 2.45564 -0.716383 0
M  V30 2282 H 216.475 4.94542 -1.15717 0
M  V30 2283 H 216.405 5.23173 0.599797 0
M  V30 2284 H 218.896 3.7789 0.027011 0
M  V30 2285 H 219.209 7.70693 -0.570212 0
M  V30 2286 H 217.554 6.93156 -0.505876 0
M  V30 2287 H 220.745 4.68072 -0.0507986 0
M  V30 2288 H 220.918 6.47195 -0.322909 0
M  V30 2289 N 214.325 -0.140222 1.56975 0
M  V30 2290 C 215.257 -1.19818 1.95388 0
M  V30 2291 C 216.27 -1.38816 0.850525 0
M  V30 2292 O 217.459 -1.38267 1.12891 0
M  V30 2293 C 214.559 -2.56189 2.21857 0
M  V30 2294 C 213.732 -2.58077 3.5315 0
M  V30 2295 C 212.791 -3.76037 3.6808 0
M  V30 2296 O 211.817 -3.60598 4.40406 0
M  V30 2297 N 213.019 -4.93763 3.05251 0
M  V30 2298 H 215.784 -0.871609 2.86746 0
M  V30 2299 H 213.345 -0.32972 1.58507 0
M  V30 2300 H 215.337 -3.33623 2.2908 0
M  V30 2301 H 213.907 -2.81111 1.36731 0
M  V30 2302 H 213.127 -1.6651 3.57307 0
M  V30 2303 H 214.415 -2.56377 4.39486 0
M  V30 2304 H 213.813 -5.09209 2.46419 0
M  V30 2305 H 212.37 -5.68949 3.18026 0
M  V30 2306 N 215.803 -1.52179 -0.40978 0
M  V30 2307 C 216.766 -1.74853 -1.48186 0
M  V30 2308 C 217.766 -0.618417 -1.48433 0
M  V30 2309 O 218.956 -0.886286 -1.49969 0
M  V30 2310 C 216.088 -1.8303 -2.87598 0
M  V30 2311 H 217.281 -2.70559 -1.29374 0
M  V30 2312 H 214.834 -1.42586 -0.640233 0
M  V30 2313 H 215.569 -0.89236 -3.11781 0
M  V30 2314 H 215.354 -2.65187 -2.88822 0
M  V30 2315 H 216.844 -2.02316 -3.65319 0
M  V30 2316 N 217.281 0.66697 -1.42791 0
M  V30 2317 C 218.191 1.80962 -1.49299 0
M  V30 2318 C 219.207 1.69775 -0.381108 0
M  V30 2319 O 220.383 1.91188 -0.633188 0
M  V30 2320 C 217.448 3.17156 -1.40045 0
M  V30 2321 C 216.509 3.40242 -2.6179 0
M  V30 2322 C 215.742 4.69939 -2.52969 0
M  V30 2323 O 215.965 5.48372 -1.56985 0
M  V30 2324 O 214.899 4.94441 -3.43237 0
M  V30 2325 H 218.725 1.78427 -2.45759 0
M  V30 2326 H 216.31 0.823713 -1.24641 0
M  V30 2327 H 218.192 3.98413 -1.37276 0
M  V30 2328 H 216.867 3.20312 -0.467138 0
M  V30 2329 H 215.774 2.58802 -2.70134 0
M  V30 2330 H 217.107 3.41923 -3.54047 0
M  V30 2331 N 218.759 1.29093 0.90403 0
M  V30 2332 C 219.706 1.13853 2.00764 0
M  V30 2333 C 220.676 0.0330084 1.66067 0
M  V30 2334 O 221.861 0.199733 1.89752 0
M  V30 2335 C 219.001 0.816537 3.35301 0
M  V30 2336 C 218.114 2.00206 3.82807 0
M  V30 2337 C 217.249 1.61983 5.059 0
M  V30 2338 C 216.288 2.77143 5.45764 0
M  V30 2339 N 215.425 2.39346 6.60044 0
M  V30 2340 H 220.265 2.08276 2.13132 0
M  V30 2341 H 217.802 1.03648 1.04381 0
M  V30 2342 H 219.76 0.610557 4.12708 0
M  V30 2343 H 218.39 -0.090779 3.22672 0
M  V30 2344 H 217.442 2.31988 3.01473 0
M  V30 2345 H 218.754 2.86512 4.08304 0
M  V30 2346 H 217.908 1.37649 5.90879 0
M  V30 2347 H 216.647 0.728202 4.82233 0
M  V30 2348 H 215.652 3.02165 4.59322 0
M  V30 2349 H 216.877 3.66964 5.71414 0
M  V30 2350 H 214.823 1.52665 6.37989 0
M  V30 2351 H 214.74 3.19185 6.85315 0
M  V30 2352 H 216.008 2.1832 7.48303 0
M  V30 2353 N 220.237 -1.11381 1.11499 0
M  V30 2354 C 221.17 -2.16621 0.71769 0
M  V30 2355 C 222.148 -1.60058 -0.286413 0
M  V30 2356 O 223.332 -1.87613 -0.182689 0
M  V30 2357 C 220.459 -3.38646 0.0607265 0
M  V30 2358 C 219.505 -4.13874 1.03008 0
M  V30 2359 S 220.338 -4.70731 2.55289 0
M  V30 2360 C 221.494 -5.96079 1.90895 0
M  V30 2361 H 221.727 -2.49987 1.60915 0
M  V30 2362 H 219.26 -1.23015 0.933092 0
M  V30 2363 H 221.218 -4.09313 -0.311965 0
M  V30 2364 H 219.879 -3.03537 -0.807702 0
M  V30 2365 H 219.072 -5.01333 0.517853 0
M  V30 2366 H 218.674 -3.4897 1.34522 0
M  V30 2367 H 220.966 -6.65948 1.24577 0
M  V30 2368 H 221.909 -6.51946 2.76354 0
M  V30 2369 H 222.317 -5.47652 1.36885 0
M  V30 2370 N 221.715 -0.905404 -1.28997 0
M  V30 2371 C 222.963 -0.533192 -1.9494 0
M  V30 2372 C 223.284 0.924618 -1.71685 0
M  V30 2373 O 222.554 1.65268 -1.05183 0
M  V30 2374 H 221.134 -0.194194 -0.721317 0
M  V30 2375 H 223.796 -1.15294 -1.57141 0
M  V30 2376 H 222.892 -0.72059 -3.03667 0
M  V30 2377 N 223.193 1.4272 -0.668489 0
M  V30 2378 C 224.423 2.05668 -0.196063 0
M  V30 2379 C 224.831 1.5028 1.14946 0
M  V30 2380 O 224.174 0.6348 1.72383 0
M  V30 2381 C 224.236 3.59469 -0.0468879 0
M  V30 2382 C 223.9 4.37518 -1.32012 0
M  V30 2383 C 224.897 4.68584 -2.25222 0
M  V30 2384 C 222.582 4.77266 -1.56596 0
M  V30 2385 C 224.576 5.38326 -3.41297 0
M  V30 2386 C 222.263 5.4675 -2.72962 0
M  V30 2387 C 223.261 5.77204 -3.65137 0
M  V30 2388 O 222.949 6.45264 -4.79468 0
M  V30 2389 H 222.681 0.669382 -0.0943599 0
M  V30 2390 H 225.235 1.83954 -0.913788 0
M  V30 2391 H 223.465 3.79817 0.726357 0
M  V30 2392 H 225.154 4.04071 0.384852 0
M  V30 2393 H 225.92 4.38382 -2.07477 0
M  V30 2394 H 221.799 4.52959 -0.857249 0
M  V30 2395 H 225.343 5.62014 -4.13263 0
M  V30 2396 H 221.24 5.76369 -2.90635 0
M  V30 2397 H 222.008 6.63753 -4.78931 0
M  V30 2398 N 224.671 0.411399 1.52136 0
M  V30 2399 C 225.618 -0.412975 2.27075 0
M  V30 2400 C 226.588 -1.03912 1.29582 0
M  V30 2401 O 227.773 -1.06296 1.58448 0
M  V30 2402 C 224.913 -1.52247 3.09701 0
M  V30 2403 C 224.026 -0.917021 4.22155 0
M  V30 2404 C 223.161 -1.9994 4.92135 0
M  V30 2405 C 222.2 -1.37101 5.96548 0
M  V30 2406 N 221.337 -2.39364 6.60038 0
M  V30 2407 H 226.177 0.232499 2.97092 0
M  V30 2408 H 223.714 0.126496 1.46555 0
M  V30 2409 H 225.672 -2.17674 3.55913 0
M  V30 2410 H 224.302 -2.13794 2.41851 0
M  V30 2411 H 223.354 -0.151742 3.80097 0
M  V30 2412 H 224.666 -0.418006 4.97045 0
M  V30 2413 H 223.82 -2.73088 5.41763 0
M  V30 2414 H 222.559 -2.53208 4.16818 0
M  V30 2415 H 221.564 -0.624873 5.46237 0
M  V30 2416 H 222.789 -0.845998 6.7381 0
M  V30 2417 H 220.735 -2.91759 5.87548 0
M  V30 2418 H 220.652 -1.9428 7.3061 0
M  V30 2419 H 221.92 -3.12074 7.14304 0
M  V30 2420 N 226.149 -1.5696 0.141893 0
M  V30 2421 C 227.112 -2.15316 -0.785587 0
M  V30 2422 C 228.112 -1.09366 -1.1788 0
M  V30 2423 O 229.302 -1.35031 -1.10056 0
M  V30 2424 C 226.434 -2.71211 -2.06537 0
M  V30 2425 H 227.627 -2.98608 -0.278041 0
M  V30 2426 H 225.18 -1.5593 -0.107519 0
M  V30 2427 H 225.915 -1.91571 -2.6167 0
M  V30 2428 H 225.7 -3.4872 -1.79268 0
M  V30 2429 H 227.19 -3.16189 -2.72789 0
M  V30 2430 N 227.627 0.131896 -1.57047 0
M  V30 2431 C 228.876 0.84044 -1.83356 0
M  V30 2432 C 229.189 1.81646 -0.725535 0
M  V30 2433 O 230.395 2.57025 -0.874659 0
M  V30 2434 C 228.851 1.54528 -3.25037 0
M  V30 2435 C 228.459 0.610902 -4.43815 0
M  V30 2436 C 230.203 2.23972 -3.60606 0
M  V30 2437 C 228.11 1.31823 -5.76521 0
M  V30 2438 H 227.04 0.317599 -0.683847 0
M  V30 2439 H 229.691 0.0931561 -1.83263 0
M  V30 2440 H 228.073 2.33873 -3.19561 0
M  V30 2441 H 229.247 -0.148407 -4.60561 0
M  V30 2442 H 227.562 0.0241016 -4.16393 0
M  V30 2443 H 230.159 2.77558 -4.57018 0
M  V30 2444 H 230.502 3.01173 -2.87403 0
M  V30 2445 H 231.035 1.51529 -3.6781 0
M  V30 2446 H 227.774 0.587771 -6.52859 0
M  V30 2447 H 227.294 2.04987 -5.63685 0
M  V30 2448 H 228.973 1.855 -6.19838 0
M  V30 2449 N 229.106 1.52395 0.401703 0
M  V30 2450 C 230.353 1.66817 1.14796 0
M  V30 2451 C 230.681 0.401772 1.90305 0
M  V30 2452 O 229.936 -0.615487 1.85769 0
M  V30 2453 C 230.235 2.84578 2.16217 0
M  V30 2454 C 229.901 4.22513 1.5746 0
M  V30 2455 C 228.563 4.60029 1.41161 0
M  V30 2456 C 230.915 5.0844 1.14622 0
M  V30 2457 C 228.243 5.81144 0.80552 0
M  V30 2458 C 230.595 6.30167 0.55428 0
M  V30 2459 C 229.259 6.66426 0.378482 0
M  V30 2460 H 228.529 0.610428 0.420069 0
M  V30 2461 H 231.176 1.86512 0.434212 0
M  V30 2462 H 229.481 2.59248 2.93764 0
M  V30 2463 H 231.178 2.92933 2.73845 0
M  V30 2464 H 227.768 3.92953 1.71132 0
M  V30 2465 H 231.952 4.80034 1.26021 0
M  V30 2466 H 227.208 6.07855 0.657399 0
M  V30 2467 H 231.382 6.96071 0.213983 0
M  V30 2468 H 229.009 7.60143 -0.0932606 0
M  V30 2469 N 230.584 -0.659388 1.43143 0
M  V30 2470 C 231.83 -1.42145 1.44647 0
M  V30 2471 C 232.163 -1.9408 0.0681907 0
M  V30 2472 O 231.438 -1.71899 -0.910007 0
M  V30 2473 C 231.721 -2.60735 2.48373 0
M  V30 2474 C 231.574 -2.14332 3.95451 0
M  V30 2475 C 232.893 -3.62951 2.48906 0
M  V30 2476 H 230.012 -0.51552 0.526696 0
M  V30 2477 H 232.654 -0.748069 1.74654 0
M  V30 2478 H 230.804 -3.18184 2.22916 0
M  V30 2479 H 232.476 -1.61932 4.31944 0
M  V30 2480 H 230.719 -1.4576 4.08578 0
M  V30 2481 H 231.39 -2.99583 4.63631 0
M  V30 2482 H 233.866 -3.1525 2.71582 0
M  V30 2483 H 232.742 -4.43487 3.23435 0
M  V30 2484 H 233.003 -4.15126 1.52061 0
M  V30 2485 N 232.062 -1.29571 -0.897171 0
M  V30 2486 C 233.29 -1.20583 -1.68129 0
M  V30 2487 C 233.705 0.233181 -1.87354 0
M  V30 2488 O 233.062 1.15579 -1.41236 0
M  V30 2489 C 233.113 -1.91772 -3.06441 0
M  V30 2490 O 232.834 -3.30053 -2.88091 0
M  V30 2491 C 234.335 -1.89291 -4.00854 0
M  V30 2492 H 231.555 -0.417826 -0.525036 0
M  V30 2493 H 234.099 -1.70987 -1.12177 0
M  V30 2494 H 232.254 -1.45196 -3.59161 0
M  V30 2495 H 232.668 -3.65942 -3.75748 0
M  V30 2496 H 234.142 -2.43662 -4.95311 0
M  V30 2497 H 234.619 -0.869014 -4.30517 0
M  V30 2498 H 235.225 -2.35622 -3.54066 0
M  V30 2499 N 233.54 1.10788 -1.12088 0
M  V30 2500 C 234.786 1.82942 -0.875226 0
M  V30 2501 C 235.119 1.84779 0.597538 0
M  V30 2502 O 234.394 1.30578 1.44152 0
M  V30 2503 C 234.677 3.29789 -1.44606 0
M  V30 2504 C 234.53 3.36307 -2.98693 0
M  V30 2505 C 235.849 4.26064 -1.10261 0
M  V30 2506 H 232.968 0.664195 -0.319397 0
M  V30 2507 H 235.61 1.29867 -1.38689 0
M  V30 2508 H 233.76 3.75118 -1.01089 0
M  V30 2509 H 235.432 2.99487 -3.50864 0
M  V30 2510 H 233.675 2.76318 -3.34411 0
M  V30 2511 H 234.346 4.39694 -3.33726 0
M  V30 2512 H 236.822 3.88951 -1.4784 0
M  V30 2513 H 235.698 5.27183 -1.52869 0
M  V30 2514 H 235.959 4.42098 -0.0142953 0
M  V30 2515 N 235.018 0.912232 1.28515 0
M  V30 2516 C 236.295 0.463597 1.90027 0
M  V30 2517 C 236.675 -1.05753 1.82701 0
M  V30 2518 O 236.023 -1.90492 1.26194 0
M  V30 2519 C 236.233 0.992253 3.34597 0
M  V30 2520 C 237.581 1.04344 4.11579 0
M  V30 2521 O 238.605 0.94079 3.43551 0
M  V30 2522 O 237.464 1.1995 5.33174 0
M  V30 2523 H 234.558 0.146666 0.813891 0
M  V30 2524 H 237.104 1.00292 1.36893 0
M  V30 2525 H 235.876 2.03623 3.34146 0
M  V30 2526 H 235.499 0.433672 3.95228 0
M  V30 2527 N 236.496 -1.42363 0.676048 0
M  V30 2528 C 237.724 -2.05859 0.207268 0
M  V30 2529 C 238.139 -1.50796 -1.13605 0
M  V30 2530 O 237.496 -0.648265 -1.70598 0
M  V30 2531 C 237.547 -3.61248 0.134975 0
M  V30 2532 O 237.268 -4.1427 1.42521 0
M  V30 2533 C 238.769 -4.41859 -0.357151 0
M  V30 2534 H 235.989 -0.663431 0.100503 0
M  V30 2535 H 238.533 -1.82479 0.923136 0
M  V30 2536 H 236.688 -3.83735 -0.531588 0
M  V30 2537 H 237.102 -5.0815 1.29939 0
M  V30 2538 H 238.576 -5.50847 -0.356641 0
M  V30 2539 H 239.053 -4.16536 -1.39264 0
M  V30 2540 H 239.659 -4.24392 0.27772 0
M  V30 2541 N 237.974 -0.419461 -1.51915 0
M  V30 2542 C 239.385 0.0477853 -1.86639 0
M  V30 2543 C 239.736 1.43531 -1.33766 0
M  V30 2544 O 238.861 2.05401 -0.68113 0
M  V30 2545 C 239.456 0.0934885 -3.38671 0
M  V30 2546 C 238.015 0.505097 -3.72996 0
M  V30 2547 C 237.162 -0.313792 -2.75519 0
M  V30 2548 H 240.113 -0.636088 -1.45395 0
M  V30 2549 H 240.134 0.906667 -3.6954 0
M  V30 2550 H 239.646 -0.916501 -3.77123 0
M  V30 2551 H 237.747 1.52135 -3.40126 0
M  V30 2552 H 237.86 0.242309 -4.78487 0
M  V30 2553 H 236.224 0.225363 -2.53701 0
M  V30 2554 H 237.007 -1.32232 -3.16812 0
M  V30 2555 N 239.452 1.56882 -0.150215 0
M  V30 2556 C 240.682 2.00302 0.506213 0
M  V30 2557 C 241.09 1.02934 1.58749 0
M  V30 2558 O 240.433 0.0188384 1.8369 0
M  V30 2559 C 240.495 3.40156 1.16337 0
M  V30 2560 C 240.159 4.56439 0.226311 0
M  V30 2561 C 241.156 5.17012 -0.547265 0
M  V30 2562 C 238.841 5.02136 0.128279 0
M  V30 2563 C 240.835 6.21693 -1.40629 0
M  V30 2564 C 238.522 6.06672 -0.734345 0
M  V30 2565 C 239.52 6.6632 -1.50023 0
M  V30 2566 O 239.208 7.68831 -2.34848 0
M  V30 2567 H 238.94 0.662182 0.135984 0
M  V30 2568 H 241.494 2.03961 -0.242746 0
M  V30 2569 H 239.724 3.33346 1.96004 0
M  V30 2570 H 241.413 3.67663 1.71985 0
M  V30 2571 H 242.179 4.82603 -0.48158 0
M  V30 2572 H 238.058 4.55435 0.714157 0
M  V30 2573 H 241.602 6.68179 -2.00455 0
M  V30 2574 H 237.499 6.40507 -0.801309 0
M  V30 2575 H 238.267 7.86065 -2.28131 0
M  V30 2576 N 240.93 -0.123565 1.57115 0
M  V30 2577 C 241.86 -1.15309 2.03042 0
M  V30 2578 C 242.841 -1.43454 0.914061 0
M  V30 2579 O 244.026 -1.53973 1.18347 0
M  V30 2580 C 241.156 -2.48043 2.43089 0
M  V30 2581 C 240.11 -2.3437 3.58127 0
M  V30 2582 C 239.436 -3.72026 3.84059 0
M  V30 2583 C 240.736 -1.80804 4.90007 0
M  V30 2584 H 242.43 -0.771102 2.893 0
M  V30 2585 H 239.976 -0.369479 1.39179 0
M  V30 2586 H 241.929 -3.20311 2.73823 0
M  V30 2587 H 240.653 -2.88122 1.53796 0
M  V30 2588 H 239.312 -1.64551 3.27595 0
M  V30 2589 H 238.96 -4.09582 2.91979 0
M  V30 2590 H 238.66 -3.63732 4.6149 0
M  V30 2591 H 240.184 -4.45806 4.1724 0
M  V30 2592 H 241.598 -2.42886 5.19307 0
M  V30 2593 H 239.995 -1.83343 5.71407 0
M  V30 2594 H 241.065 -0.76528 4.78823 0
M  V30 2595 N 242.408 -1.52605 -0.393616 0
M  V30 2596 C 243.656 -1.67093 -1.13685 0
M  V30 2597 C 243.977 -0.411011 -1.90619 0
M  V30 2598 O 243.247 0.574491 -1.87287 0
M  V30 2599 H 241.827 -0.615923 -0.422668 0
M  V30 2600 H 244.489 -1.89704 -0.447039 0
M  V30 2601 H 243.585 -2.51922 -1.84232 0
M  V30 2602 N 243.887 0.651787 -1.4349 0
M  V30 2603 C 244.835 1.78586 -1.49029 0
M  V30 2604 C 245.829 1.65448 -0.363767 0
M  V30 2605 O 247.035 1.71777 -0.537821 0
M  V30 2606 H 243.41 0.589236 -0.467231 0
M  V30 2607 H 245.381 1.71035 -2.44519 0
M  V30 2608 C 244.13 3.16851 -1.43181 0
M  V30 2609 H 243.453 3.27598 -2.29171 0
M  V30 2610 H 244.893 3.96156 -1.51118 0
M  V30 2611 C 243.352 3.36568 -0.149616 0
M  V30 2612 O 243.882 3.93885 0.788509 0
M  V30 2613 N 242.088 2.90539 -0.0593484 0
M  V30 2614 H 241.635 2.4408 -0.823575 0
M  V30 2615 H 241.593 3.04108 0.797853 0
M  V30 2616 N 245.365 1.30045 0.890287 0
M  V30 2617 C 246.781 1.08261 1.17268 0
M  V30 2618 C 246.981 -0.160063 2.00863 0
M  V30 2619 O 246.037 -0.855181 2.37577 0
M  V30 2620 C 247.35 2.34323 1.8845 0
M  V30 2621 C 248.898 2.39735 2.01237 0
M  V30 2622 C 249.373 3.65625 2.7583 0
M  V30 2623 N 250.864 3.66402 2.83379 0
M  V30 2624 C 251.599 4.60498 3.41657 0
M  V30 2625 N 251.095 5.64933 4.01026 0
M  V30 2626 N 252.888 4.48051 3.39421 0
M  V30 2627 H 245.039 2.09777 0.332762 0
M  V30 2628 H 247.302 0.92446 0.209948 0
M  V30 2629 H 247.008 3.2498 1.34465 0
M  V30 2630 H 246.882 2.4256 2.88867 0
M  V30 2631 H 249.269 1.4956 2.54393 0
M  V30 2632 H 249.35 2.35476 0.999232 0
M  V30 2633 H 248.994 4.56156 2.23347 0
M  V30 2634 H 248.924 3.67144 3.77509 0
M  V30 2635 H 251.415 2.90896 2.41222 0
M  V30 2636 H 251.728 6.32841 4.43545 0
M  V30 2637 H 250.073 5.68732 3.99461 0
M  V30 2638 H 253.264 3.65649 2.92264 0
M  V30 2639 H 253.437 5.21565 3.84544 0
M  V30 2640 N 246.843 -1.10192 1.12674 0
M  V30 2641 C 247.773 -2.18652 0.819362 0
M  V30 2642 C 248.754 -1.68698 -0.217915 0
M  V30 2643 O 249.939 -1.94041 -0.0785581 0
M  V30 2644 C 247.069 -3.46202 0.27594 0
M  V30 2645 C 246.023 -4.09444 1.24656 0
M  V30 2646 C 245.349 -5.31725 0.563258 0
M  V30 2647 C 246.649 -4.52863 2.60217 0
M  V30 2648 H 248.343 -2.44622 1.72628 0
M  V30 2649 H 245.889 -1.17571 0.831451 0
M  V30 2650 H 247.842 -4.21372 0.0486149 0
M  V30 2651 H 246.566 -3.1973 -0.666331 0
M  V30 2652 H 245.225 -3.36284 1.45974 0
M  V30 2653 H 244.873 -5.0153 -0.384235 0
M  V30 2654 H 244.573 -5.74991 1.21075 0
M  V30 2655 H 246.097 -6.09624 0.34503 0
M  V30 2656 H 247.511 -5.19294 2.42913 0
M  V30 2657 H 245.908 -5.06986 3.21068 0
M  V30 2658 H 246.978 -3.65656 3.18471 0
M  V30 2659 N 248.321 -0.919034 -1.28029 0
M  V30 2660 C 249.598 -0.473668 -1.89778 0
M  V30 2661 C 249.978 1.04783 -1.83259 0
M  V30 2662 O 249.326 1.8982 -1.27202 0
M  V30 2663 C 249.536 -1.00998 -3.34066 0
M  V30 2664 C 250.884 -1.06525 -4.1102 0
M  V30 2665 O 251.908 -0.958996 -3.43048 0
M  V30 2666 O 250.767 -1.22776 -5.3253 0
M  V30 2667 H 247.861 -0.15098 -0.813101 0
M  V30 2668 H 250.407 -1.01016 -1.36359 0
M  V30 2669 H 249.179 -2.05392 -3.33061 0
M  V30 2670 H 248.802 -0.454626 -3.94992 0
M  V30 2671 N 249.799 1.42003 -0.683588 0
M  V30 2672 C 251.076 1.95112 -0.138075 0
M  V30 2673 C 251.456 1.62359 1.34918 0
M  V30 2674 O 250.804 0.924311 2.08971 0
M  V30 2675 C 251.014 3.46505 -0.416581 0
M  V30 2676 C 252.362 4.23254 -0.337834 0
M  V30 2677 O 253.386 3.54468 -0.35082 0
M  V30 2678 O 252.245 5.45743 -0.287596 0
M  V30 2679 H 249.339 0.826961 -0.00797996 0
M  V30 2680 H 251.885 1.51784 -0.758924 0
M  V30 2681 H 250.657 3.63582 -1.4465 0
M  V30 2682 H 250.28 3.969 0.235839 0
M  V30 2683 N 251.277 0.427512 1.51691 0
M  V30 2684 C 252.523 -0.142439 2.02299 0
M  V30 2685 C 252.856 -1.43214 1.31162 0
M  V30 2686 O 252.131 -1.89833 0.423511 0
M  V30 2687 C 252.414 -0.371301 3.58181 0
M  V30 2688 C 252.267 0.936358 4.39946 0
M  V30 2689 C 253.586 -1.14542 4.24933 0
M  V30 2690 H 250.705 -0.0502937 0.735282 0
M  V30 2691 H 253.347 0.564584 1.81418 0
M  V30 2692 H 251.497 -0.973559 3.76104 0
M  V30 2693 H 253.169 1.57184 4.33694 0
M  V30 2694 H 251.412 1.5432 4.05423 0
M  V30 2695 H 252.083 0.730388 5.47147 0
M  V30 2696 H 254.559 -0.635362 4.11221 0
M  V30 2697 H 253.435 -1.27431 5.33903 0
M  V30 2698 H 253.696 -2.17093 3.85127 0
M  V30 2699 N 252.755 -1.56801 0.158532 0
M  V30 2700 C 254.171 -1.5837 -0.197774 0
M  V30 2701 C 254.371 -1.17334 -1.63814 0
M  V30 2702 O 253.427 -0.878988 -2.36707 0
M  V30 2703 C 254.74 -3.00615 0.0714459 0
M  V30 2704 C 256.288 -3.12999 0.00864533 0
M  V30 2705 C 256.763 -4.57313 0.250685 0
M  V30 2706 N 258.254 -4.62777 0.198014 0
M  V30 2707 C 258.989 -5.72271 0.359642 0
M  V30 2708 N 258.485 -6.90371 0.579625 0
M  V30 2709 N 260.278 -5.61318 0.296438 0
M  V30 2710 H 252.429 -1.81765 1.09887 0
M  V30 2711 H 254.692 -0.841849 0.435884 0
M  V30 2712 H 254.398 -3.35068 1.06874 0
M  V30 2713 H 254.272 -3.71683 -0.642757 0
M  V30 2714 H 256.659 -2.7838 -0.979217 0
M  V30 2715 H 256.74 -2.44393 0.755359 0
M  V30 2716 H 256.384 -4.92639 1.2357 0
M  V30 2717 H 256.314 -5.24061 -0.516489 0
M  V30 2718 H 258.805 -3.77885 0.0331115 0
M  V30 2719 H 259.118 -7.69689 0.69275 0
M  V30 2720 H 257.463 -6.92264 0.616087 0
M  V30 2721 H 260.654 -4.67932 0.125258 0
M  V30 2722 H 260.827 -6.46599 0.425831 0
M  V30 2723 N 254.233 0.115231 -1.57178 0
M  V30 2724 C 255.181 1.16014 -2.01602 0
M  V30 2725 C 256.175 1.42653 -0.913587 0
M  V30 2726 O 257.381 1.42571 -1.09879 0
M  V30 2727 H 253.756 0.391252 -0.642204 0
M  V30 2728 H 255.727 0.758998 -2.88586 0
M  V30 2729 C 254.476 2.47767 -2.4394 0
M  V30 2730 H 253.799 2.28108 -3.28339 0
M  V30 2731 H 255.239 3.19432 -2.78818 0
M  V30 2732 C 253.698 3.10617 -1.30455 0
M  V30 2733 O 254.228 3.96846 -0.622585 0
M  V30 2734 N 252.434 2.70553 -1.06064 0
M  V30 2735 H 251.981 2.00527 -1.61699 0
M  V30 2736 H 251.939 3.12934 -0.303284 0
M  V30 2737 N 255.711 1.52812 0.385517 0
M  V30 2738 C 257.127 1.4214 0.725829 0
M  V30 2739 C 257.327 0.544589 1.94001 0
M  V30 2740 O 256.383 0.0193693 2.52493 0
M  V30 2741 C 257.696 2.85042 0.957668 0
M  V30 2742 C 259.244 2.94543 1.05892 0
M  V30 2743 C 259.719 4.38464 1.32337 0
M  V30 2744 N 261.21 4.41804 1.39151 0
M  V30 2745 C 261.945 5.5025 1.61285 0
M  V30 2746 N 261.441 6.68775 1.80866 0
M  V30 2747 N 263.234 5.37798 1.63492 0
M  V30 2748 H 255.385 2.08338 -0.413383 0
M  V30 2749 H 257.648 0.940016 -0.122775 0
M  V30 2750 H 257.354 3.51431 0.137568 0
M  V30 2751 H 257.228 3.27505 1.87137 0
M  V30 2752 H 259.615 2.28321 1.86959 0
M  V30 2753 H 259.696 2.55504 0.123057 0
M  V30 2754 H 259.34 5.05254 0.517793 0
M  V30 2755 H 259.27 4.75059 2.27214 0
M  V30 2756 H 261.761 3.56377 1.25713 0
M  V30 2757 H 262.074 7.47197 1.97271 0
M  V30 2758 H 260.419 6.71797 1.78083 0
M  V30 2759 H 263.61 4.44171 1.47749 0
M  V30 2760 H 263.783 6.22382 1.80402 0
M  V30 2761 N 257.189 -0.644168 1.43834 0
M  V30 2762 C 258.436 -1.40395 1.4593 0
M  V30 2763 C 258.764 -1.94305 0.0869658 0
M  V30 2764 O 258.019 -1.73288 -0.909378 0
M  V30 2765 C 258.318 -2.59615 2.45631 0
M  V30 2766 C 257.984 -2.2407 3.91284 0
M  V30 2767 C 256.646 -2.14089 4.30952 0
M  V30 2768 C 258.998 -1.95775 4.83034 0
M  V30 2769 C 256.326 -1.73981 5.6031 0
M  V30 2770 C 258.678 -1.57163 6.12766 0
M  V30 2771 C 257.342 -1.45713 6.51402 0
M  V30 2772 H 256.612 -0.513741 0.533995 0
M  V30 2773 H 259.259 -0.731724 1.76969 0
M  V30 2774 H 257.564 -3.32011 2.08028 0
M  V30 2775 H 259.261 -3.17834 2.44504 0
M  V30 2776 H 255.851 -2.32753 3.59895 0
M  V30 2777 H 260.035 -2.02403 4.53152 0
M  V30 2778 H 255.291 -1.63709 5.89075 0
M  V30 2779 H 259.465 -1.34303 6.83327 0
M  V30 2780 H 257.092 -1.14406 7.51542 0
M  V30 2781 N 258.668 -1.30515 -0.883378 0
M  V30 2782 C 259.615 -1.17032 -1.98927 0
M  V30 2783 C 260.585 -0.0594241 -1.65994 0
M  V30 2784 O 261.77 -0.229895 -1.8941 0
M  V30 2785 C 258.91 -0.869777 -3.33959 0
M  V30 2786 C 258.023 -2.06271 -3.79574 0
M  V30 2787 C 257.158 -1.70011 -5.03259 0
M  V30 2788 C 256.197 -2.8579 -5.41286 0
M  V30 2789 N 255.334 -2.49816 -6.56153 0
M  V30 2790 H 260.174 -2.1164 -2.09792 0
M  V30 2791 H 257.711 -1.05296 -1.02719 0
M  V30 2792 H 259.669 -0.676138 -4.11685 0
M  V30 2793 H 258.299 0.0394332 -3.22776 0
M  V30 2794 H 257.351 -2.36755 -2.97744 0
M  V30 2795 H 258.663 -2.92971 -4.03694 0
M  V30 2796 H 257.817 -1.47032 -5.88614 0
M  V30 2797 H 256.556 -0.804829 -4.81013 0
M  V30 2798 H 255.561 -3.09434 -4.54456 0
M  V30 2799 H 256.786 -3.76008 -5.65504 0
M  V30 2800 H 254.732 -1.62795 -6.35479 0
M  V30 2801 H 254.649 -3.30048 -6.8015 0
M  V30 2802 H 255.917 -2.30197 -7.44735 0
M  V30 2803 N 260.146 1.09593 -1.13257 0
M  V30 2804 C 261.076 2.18214 -0.830946 0
M  V30 2805 C 262.057 1.68812 0.208966 0
M  V30 2806 O 263.242 1.9408 0.0682666 0
M  V30 2807 C 260.372 3.46051 -0.294296 0
M  V30 2808 C 259.326 4.08778 -1.26826 0
M  V30 2809 C 258.652 5.31419 -0.591449 0
M  V30 2810 C 259.952 4.51476 -2.62615 0
M  V30 2811 H 261.646 2.43703 -1.73923 0
M  V30 2812 H 259.192 1.17128 -0.837675 0
M  V30 2813 H 261.145 4.2134 -0.0709606 0
M  V30 2814 H 259.869 3.20079 0.649366 0
M  V30 2815 H 258.528 3.35505 -1.47756 0
M  V30 2816 H 258.176 5.01727 0.357633 0
M  V30 2817 H 257.876 5.74341 -1.24123 0
M  V30 2818 H 259.4 6.09433 -0.377355 0
M  V30 2819 H 260.814 5.17999 -2.45663 0
M  V30 2820 H 259.211 5.05277 -3.23752 0
M  V30 2821 H 260.281 3.63962 -3.20406 0
M  V30 2822 N 261.624 0.925811 1.2754 0
M  V30 2823 C 263.035 0.610102 1.7645 0
M  V30 2824 C 263.386 -0.874723 1.75622 0
M  V30 2825 O 262.511 -1.68444 1.35851 0
M  V30 2826 C 263.106 1.10073 3.20421 0
M  V30 2827 C 261.665 0.835723 3.67005 0
M  V30 2828 C 260.812 1.26054 2.46993 0
M  V30 2829 H 263.763 1.10579 1.13833 0
M  V30 2830 H 263.784 0.447557 3.77859 0
M  V30 2831 H 263.296 2.18143 3.20991 0
M  V30 2832 H 261.397 -0.231249 3.71882 0
M  V30 2833 H 261.51 1.45193 4.56569 0
M  V30 2834 H 259.874 0.679111 2.45479 0
M  V30 2835 H 260.657 2.34984 2.50275 0
M  V30 2836 N 263.102 -1.41638 0.69111 0
M  V30 2837 C 264.513 -1.84346 0.295517 0
M  V30 2838 C 264.864 -1.57833 -1.16547 0
M  V30 2839 O 263.989 -1.04648 -1.89414 0
M  V30 2840 C 264.584 -3.34636 0.529575 0
M  V30 2841 C 263.143 -3.7593 0.187944 0
M  V30 2842 C 262.29 -2.65082 0.814052 0
M  V30 2843 H 265.241 -1.31253 0.892092 0
M  V30 2844 H 265.262 -3.79903 -0.213148 0
M  V30 2845 H 264.774 -3.53901 1.59297 0
M  V30 2846 H 262.875 -3.62268 -0.871367 0
M  V30 2847 H 262.988 -4.74808 0.63985 0
M  V30 2848 H 261.352 -2.53528 0.244017 0
M  V30 2849 H 262.135 -2.87167 1.88123 0
M  V30 2850 N 264.58 -0.43555 -1.51462 0
M  V30 2851 C 265.512 0.41257 -2.25456 0
M  V30 2852 C 266.525 0.987822 -1.29406 0
M  V30 2853 O 267.714 0.882266 -1.55172 0
M  V30 2854 C 264.814 1.58894 -2.99342 0
M  V30 2855 C 263.987 1.13288 -4.22474 0
M  V30 2856 C 263.046 2.17917 -4.78956 0
M  V30 2857 O 262.072 1.77425 -5.40841 0
M  V30 2858 N 263.274 3.50382 -4.62832 0
M  V30 2859 H 266.039 -0.221603 -2.9888 0
M  V30 2860 H 263.6 -0.264342 -1.59727 0
M  V30 2861 H 265.592 2.28508 -3.34015 0
M  V30 2862 H 264.162 2.12849 -2.28941 0
M  V30 2863 H 263.382 0.263881 -3.93316 0
M  V30 2864 H 264.67 0.805542 -5.02383 0
M  V30 2865 H 264.068 3.86013 -4.13534 0
M  V30 2866 H 262.625 4.15895 -5.01871 0
M  V30 2867 N 266.058 1.56714 -0.166846 0
M  V30 2868 C 266.988 2.20754 0.760913 0
M  V30 2869 C 267.969 1.16178 1.24244 0
M  V30 2870 O 269.154 1.44592 1.29641 0
M  V30 2871 C 266.284 2.84478 1.99223 0
M  V30 2872 C 265.238 3.95053 1.64672 0
M  V30 2873 C 264.564 4.45805 2.95232 0
M  V30 2874 C 265.864 5.14865 0.878155 0
M  V30 2875 H 267.558 2.98537 0.22713 0
M  V30 2876 H 265.104 1.43596 0.107805 0
M  V30 2877 H 267.057 3.27951 2.64624 0
M  V30 2878 H 265.781 2.04056 2.55007 0
M  V30 2879 H 264.44 3.52228 1.01641 0
M  V30 2880 H 264.088 3.62181 3.49047 0
M  V30 2881 H 263.788 5.204 2.7287 0
M  V30 2882 H 265.312 4.91962 3.6167 0
M  V30 2883 H 266.726 5.55059 1.43466 0
M  V30 2884 H 265.123 5.95348 0.753738 0
M  V30 2885 H 266.193 4.84735 -0.126377 0
M  V30 2886 N 267.536 -0.106894 1.57237 0
M  V30 2887 C 268.952 -0.46078 1.52804 0
M  V30 2888 C 269.152 -1.81184 0.881746 0
M  V30 2889 O 268.208 -2.48102 0.469224 0
M  V30 2890 C 269.521 -0.434127 2.9755 0
M  V30 2891 C 271.069 -0.516821 3.08704 0
M  V30 2892 C 271.544 -0.520436 4.55033 0
M  V30 2893 N 273.035 -0.58153 4.59535 0
M  V30 2894 C 273.77 -0.605973 5.70189 0
M  V30 2895 N 273.266 -0.587331 6.90306 0
M  V30 2896 N 275.059 -0.649895 5.5833 0
M  V30 2897 H 267.21 0.778203 1.9763 0
M  V30 2898 H 269.473 0.288403 0.903066 0
M  V30 2899 H 269.179 0.491197 3.48253 0
M  V30 2900 H 269.053 -1.25748 3.55622 0
M  V30 2901 H 271.44 -1.43256 2.57995 0
M  V30 2902 H 271.521 0.334449 2.53604 0
M  V30 2903 H 271.165 0.391313 5.0639 0
M  V30 2904 H 271.095 -1.38876 5.07958 0
M  V30 2905 H 273.586 -0.60161 3.73081 0
M  V30 2906 H 273.899 -0.60894 7.70397 0
M  V30 2907 H 272.244 -0.554564 6.92784 0
M  V30 2908 H 275.435 -0.661907 4.63397 0
M  V30 2909 H 275.608 -0.665476 6.44574 0
M  V30 2910 N 269.014 -1.53014 -0.377408 0
M  V30 2911 C 269.947 -1.73382 -1.48371 0
M  V30 2912 C 270.925 -0.581879 -1.51832 0
M  V30 2913 O 272.109 -0.81307 -1.70063 0
M  V30 2914 C 269.236 -1.80192 -2.8679 0
M  V30 2915 C 268.282 -3.02056 -3.01105 0
M  V30 2916 S 269.115 -4.61811 -2.71093 0
M  V30 2917 C 270.271 -4.71453 -4.11683 0
M  V30 2918 H 270.504 -2.66946 -1.30872 0
M  V30 2919 H 268.037 -1.43453 -0.571012 0
M  V30 2920 H 269.995 -1.84802 -3.6655 0
M  V30 2921 H 268.656 -0.877008 -3.01608 0
M  V30 2922 H 267.849 -3.03396 -4.02451 0
M  V30 2923 H 267.451 -2.95498 -2.29253 0
M  V30 2924 H 269.743 -4.50781 -5.0577 0
M  V30 2925 H 270.686 -5.73487 -4.15353 0
M  V30 2926 H 271.094 -4.00189 -3.98132 0
M  V30 2927 N 270.492 0.636531 -1.44174 0
M  V30 2928 C 271.439 1.74875 -1.50624 0
M  V30 2929 C 272.409 1.62275 -0.35442 0
M  V30 2930 O 273.594 1.82276 -0.563908 0
M  V30 2931 C 270.734 3.13102 -1.45125 0
M  V30 2932 C 269.847 3.36717 -2.7064 0
M  V30 2933 C 268.982 4.64885 -2.57013 0
M  V30 2934 C 268.021 4.8166 -3.77717 0
M  V30 2935 N 267.158 6.01101 -3.62798 0
M  V30 2936 H 271.998 1.68697 -2.45653 0
M  V30 2937 H 269.535 0.823004 -1.21922 0
M  V30 2938 H 271.493 3.93034 -1.39929 0
M  V30 2939 H 270.123 3.18308 -0.536671 0
M  V30 2940 H 269.175 2.50763 -2.86046 0
M  V30 2941 H 270.487 3.44993 -3.60252 0
M  V30 2942 H 269.641 5.52969 -2.49619 0
M  V30 2943 H 268.38 4.58957 -1.64953 0
M  V30 2944 H 267.385 3.92007 -3.85501 0
M  V30 2945 H 268.61 4.89406 -4.70807 0
M  V30 2946 H 266.556 5.96273 -2.73486 0
M  V30 2947 H 266.473 6.10409 -4.46023 0
M  V30 2948 H 267.741 6.91761 -3.59286 0
M  V30 2949 N 271.97 1.30982 0.876444 0
M  V30 2950 C 272.918 1.18006 2.00443 0
M  V30 2951 C 273.912 0.0898871 1.69161 0
M  V30 2952 O 275.118 0.251333 1.78237 0
M  V30 2953 H 271.493 0.365196 0.65737 0
M  V30 2954 H 273.464 2.13453 2.0852 0
M  V30 2955 C 272.213 0.897521 3.35916 0
M  V30 2956 H 271.536 1.7285 3.60504 0
M  V30 2957 H 272.976 0.846874 4.15456 0
M  V30 2958 C 271.435 -0.399674 3.34521 0
M  V30 2959 O 271.965 -1.41852 3.7582 0
M  V30 2960 N 270.171 -0.413893 2.87637 0
M  V30 2961 H 269.718 0.41571 2.54224 0
M  V30 2962 H 269.676 -1.28175 2.87086 0
M  V30 2963 N 273.449 -1.08991 1.13837 0
M  V30 2964 C 274.696 -1.81258 0.902882 0
M  V30 2965 C 275.024 -1.85936 -0.570803 0
M  V30 2966 O 274.279 -1.3267 -1.43865 0
M  V30 2967 C 274.578 -3.27042 1.44147 0
M  V30 2968 C 274.244 -3.4249 2.93276 0
M  V30 2969 C 272.906 -3.46414 3.33992 0
M  V30 2970 C 275.258 -3.4666 3.892 0
M  V30 2971 C 272.586 -3.52091 4.69307 0
M  V30 2972 C 274.938 -3.53872 5.24364 0
M  V30 2973 C 273.602 -3.56066 5.646 0
M  V30 2974 H 272.872 -0.663268 0.330388 0
M  V30 2975 H 275.519 -1.28368 1.42105 0
M  V30 2976 H 273.824 -3.82599 0.844097 0
M  V30 2977 H 275.521 -3.81499 1.23528 0
M  V30 2978 H 272.111 -3.40124 2.60794 0
M  V30 2979 H 276.295 -3.42865 3.58828 0
M  V30 2980 H 271.551 -3.52079 4.9985 0
M  V30 2981 H 275.725 -3.56043 5.98503 0
M  V30 2982 H 273.352 -3.60218 6.69438 0
M  V30 2983 N 274.927 -0.932562 -1.27047 0
M  V30 2984 C 275.837 -0.441219 -2.30414 0
M  V30 2985 C 276.853 0.480525 -1.67233 0
M  V30 2986 O 278.029 0.362151 -1.98117 0
M  V30 2987 C 275.094 0.293651 -3.45454 0
M  V30 2988 C 274.155 -0.663601 -4.2414 0
M  V30 2989 C 273.388 0.0362932 -5.33688 0
M  V30 2990 O 273.611 1.2548 -5.56427 0
M  V30 2991 O 272.545 -0.638015 -5.98509 0
M  V30 2992 H 276.371 -1.29962 -2.74488 0
M  V30 2993 H 273.956 -0.6981 -1.32087 0
M  V30 2994 H 275.838 0.707951 -4.15411 0
M  V30 2995 H 274.513 1.12758 -3.03426 0
M  V30 2996 H 273.42 -1.12768 -3.56699 0
M  V30 2997 H 274.753 -1.46489 -4.69896 0
M  V30 2998 N 276.405 1.4127 -0.698611 0
M  V30 2999 C 277.633 2.05503 -0.239992 0
M  V30 3000 C 278.048 1.52584 1.11191 0
M  V30 3001 O 277.405 0.675323 1.69545 0
M  V30 3002 C 277.456 3.60987 -0.192429 0
M  V30 3003 O 277.177 4.1195 -1.49094 0
M  V30 3004 C 278.678 4.42371 0.28681 0
M  V30 3005 H 275.898 0.661748 -0.111045 0
M  V30 3006 H 278.442 1.80987 -0.95205 0
M  V30 3007 H 276.597 3.84533 0.470472 0
M  V30 3008 H 277.011 5.06018 -1.38007 0
M  V30 3009 H 278.485 5.51344 0.26896 0
M  V30 3010 H 278.962 4.18699 1.32619 0
M  V30 3011 H 279.568 4.23897 -0.345201 0
M  V30 3012 N 277.883 0.443576 1.51229 0
M  V30 3013 C 279.108 -0.121648 2.07043 0
M  V30 3014 C 279.533 -1.35156 1.30823 0
M  V30 3015 O 278.891 -1.7793 0.347934 0
M  V30 3016 C 278.939 -0.41624 3.5819 0
M  V30 3017 O 278.043 -1.50163 3.8409 0
M  V30 3018 H 277.384 0.000871367 0.663999 0
M  V30 3019 H 279.914 0.626706 1.94765 0
M  V30 3020 H 279.924 -0.664867 4.02546 0
M  V30 3021 H 278.599 0.482653 4.1309 0
M  V30 3022 H 277.176 -1.24248 3.51592 0
M  V30 3023 N 279.361 -1.56624 0.175154 0
M  V30 3024 C 280.589 -2.01374 -0.474971 0
M  V30 3025 C 281.004 -1.05537 -1.56548 0
M  V30 3026 O 280.361 -0.0568668 -1.82411 0
M  V30 3027 C 280.412 -3.45923 -1.04975 0
M  V30 3028 O 280.133 -4.381 -0.00276605 0
M  V30 3029 C 281.634 -4.06093 -1.77773 0
M  V30 3030 H 278.854 -0.659962 -0.121206 0
M  V30 3031 H 281.398 -2.02601 0.27801 0
M  V30 3032 H 279.553 -3.45458 -1.75321 0
M  V30 3033 H 279.967 -5.22753 -0.427681 0
M  V30 3034 H 281.441 -5.09147 -2.13245 0
M  V30 3035 H 281.918 -3.48405 -2.67414 0
M  V30 3036 H 282.524 -4.10272 -1.12059 0
M  V30 3037 N 280.839 0.0985539 -1.57292 0
M  V30 3038 C 281.769 1.12064 -2.04851 0
M  V30 3039 C 282.75 1.41981 -0.936767 0
M  V30 3040 O 283.935 1.52071 -1.20781 0
M  V30 3041 C 281.065 2.44144 -2.47004 0
M  V30 3042 C 280.019 2.28643 -3.6181 0
M  V30 3043 C 279.345 3.65869 -3.89929 0
M  V30 3044 C 280.645 1.72986 -4.92822 0
M  V30 3045 H 282.339 0.724979 -2.9049 0
M  V30 3046 H 279.885 0.34729 -1.39749 0
M  V30 3047 H 281.838 3.15914 -2.78884 0
M  V30 3048 H 280.562 2.85639 -1.5836 0
M  V30 3049 H 279.221 1.59318 -3.30172 0
M  V30 3050 H 278.869 4.04885 -2.98458 0
M  V30 3051 H 278.569 3.56344 -4.67218 0
M  V30 3052 H 280.093 4.39112 -4.2428 0
M  V30 3053 H 281.507 2.34593 -5.23105 0
M  V30 3054 H 279.904 1.74229 -5.74251 0
M  V30 3055 H 280.974 0.689007 -4.7998 0
M  V30 3056 N 282.317 1.53212 0.369288 0
M  V30 3057 C 283.542 1.73423 1.1375 0
M  V30 3058 C 283.967 0.460404 1.82378 0
M  V30 3059 O 283.325 -0.585298 1.71592 0
M  V30 3060 C 283.373 2.89769 2.1463 0
M  V30 3061 O 282.477 2.58119 3.21634 0
M  V30 3062 H 281.818 0.576061 0.330227 0
M  V30 3063 H 284.348 2.00083 0.427547 0
M  V30 3064 H 284.358 3.15829 2.58294 0
M  V30 3065 H 283.033 3.8217 1.64071 0
M  V30 3066 H 281.61 2.42864 2.82969 0
M  V30 3067 N 283.795 -0.628877 1.44509 0
M  V30 3068 C 285.042 -1.38839 1.47411 0
M  V30 3069 C 285.37 -1.94202 0.10757 0
M  V30 3070 O 284.625 -1.74243 -0.890947 0
M  V30 3071 C 284.924 -2.56995 2.48371 0
M  V30 3072 C 284.59 -2.19908 3.93639 0
M  V30 3073 C 283.252 -2.09506 4.33198 0
M  V30 3074 C 285.604 -1.9064 4.85083 0
M  V30 3075 C 282.932 -1.68028 5.62124 0
M  V30 3076 C 285.284 -1.50655 6.14399 0
M  V30 3077 C 283.948 -1.38796 6.5291 0
M  V30 3078 H 283.218 -0.508048 0.539414 0
M  V30 3079 H 285.865 -0.712913 1.77735 0
M  V30 3080 H 284.17 -3.29786 2.11538 0
M  V30 3081 H 285.867 -3.15223 2.47861 0
M  V30 3082 H 282.457 -2.28922 3.62343 0
M  V30 3083 H 286.641 -1.97585 4.55273 0
M  V30 3084 H 281.897 -1.57452 5.90778 0
M  V30 3085 H 286.071 -1.27048 6.84713 0
M  V30 3086 H 283.698 -1.06429 7.52713 0
M  V30 3087 N 285.273 -1.31445 -0.869486 0
M  V30 3088 C 286.498 -1.24256 -1.66058 0
M  V30 3089 C 286.923 0.188928 -1.87149 0
M  V30 3090 O 286.281 1.13522 -1.4136 0
M  V30 3091 C 286.329 -1.9924 -3.00559 0
M  V30 3092 O 285.433 -1.33007 -3.90362 0
M  V30 3093 H 284.774 -0.428973 -0.506831 0
M  V30 3094 H 287.304 -1.73521 -1.08404 0
M  V30 3095 H 287.314 -2.08854 -3.50491 0
M  V30 3096 H 285.989 -3.03342 -2.84528 0
M  V30 3097 H 284.566 -1.31848 -3.48813 0
M  V30 3098 N 286.751 1.08385 -1.14413 0
M  V30 3099 C 288.162 1.62258 -0.923535 0
M  V30 3100 C 288.513 1.88691 0.537595 0
M  V30 3101 O 287.638 1.64454 1.40655 0
M  V30 3102 C 288.233 2.94781 -1.67002 0
M  V30 3103 C 286.792 3.45437 -1.495 0
M  V30 3104 C 285.939 2.19668 -1.69238 0
M  V30 3105 H 288.89 0.916086 -1.2959 0
M  V30 3106 H 288.911 3.63229 -1.13334 0
M  V30 3107 H 288.423 2.7551 -2.73342 0
M  V30 3108 H 286.524 3.6981 -0.455097 0
M  V30 3109 H 286.637 4.22173 -2.2651 0
M  V30 3110 H 285.001 2.28849 -1.11804 0
M  V30 3111 H 285.784 2.02905 -2.7692 0
M  V30 3112 N 288.23 0.939286 1.26551 0
M  V30 3113 C 289.14 0.453432 2.30176 0
M  V30 3114 C 290.156 -0.471649 1.67486 0
M  V30 3115 O 291.332 -0.35164 1.98306 0
M  V30 3116 C 288.397 -0.275326 3.45605 0
M  V30 3117 C 287.458 0.686084 4.23782 0
M  V30 3118 C 286.691 -0.00798994 5.33699 0
M  V30 3119 O 286.914 -1.22528 5.57085 0
M  V30 3120 O 285.848 0.669746 5.98162 0
M  V30 3121 H 289.674 1.31416 2.73795 0
M  V30 3122 H 287.259 0.705095 1.31715 0
M  V30 3123 H 289.141 -0.685911 4.1578 0
M  V30 3124 H 287.816 -1.11147 3.0402 0
M  V30 3125 H 286.723 1.14658 3.56096 0
M  V30 3126 H 288.056 1.48979 4.69112 0
M  V30 3127 N 289.708 -1.40897 0.706093 0
M  V30 3128 C 290.618 -2.3455 0.0482286 0
M  V30 3129 C 291.634 -1.56796 -0.754396 0
M  V30 3130 O 292.81 -1.89228 -0.689538 0
M  V30 3131 C 289.875 -3.35625 -0.869303 0
M  V30 3132 C 288.936 -4.29261 -0.0576994 0
M  V30 3133 C 288.169 -5.25508 -0.931531 0
M  V30 3134 O 288.392 -5.27472 -2.17092 0
M  V30 3135 O 287.326 -6.00727 -0.375587 0
M  V30 3136 H 291.152 -2.92407 0.820476 0
M  V30 3137 H 288.737 -1.4193 0.4665 0
M  V30 3138 H 290.619 -3.97635 -1.39514 0
M  V30 3139 H 289.294 -2.80196 -1.62086 0
M  V30 3140 H 288.201 -3.70566 0.512988 0
M  V30 3141 H 289.534 -4.87817 0.655426 0
M  V30 3142 N 291.186 -0.45159 -1.50991 0
M  V30 3143 C 292.134 0.366864 -2.29689 0
M  V30 3144 C 293.128 1.00809 -1.36139 0
M  V30 3145 O 294.334 0.941427 -1.53418 0
M  V30 3146 H 290.709 0.137133 -0.739391 0
M  V30 3147 H 292.68 -0.317538 -2.96706 0
M  V30 3148 C 291.429 1.44751 -3.16137 0
M  V30 3149 H 290.752 0.963473 -3.88017 0
M  V30 3150 H 292.192 1.99315 -3.74232 0
M  V30 3151 C 290.651 2.43869 -2.32442 0
M  V30 3152 O 291.181 3.4872 -1.99392 0
M  V30 3153 N 289.387 2.15105 -1.95392 0
M  V30 3154 H 288.934 1.29866 -2.22469 0
M  V30 3155 H 288.892 2.81661 -1.39693 0
M  V30 3156 N 292.664 1.56529 -0.183458 0
M  V30 3157 C 293.911 1.97244 0.458357 0
M  V30 3158 C 294.239 1.06992 1.62428 0
M  V30 3159 O 293.494 0.106542 1.9541 0
M  V30 3160 C 293.793 3.43939 0.971637 0
M  V30 3161 C 293.459 4.5083 -0.0796784 0
M  V30 3162 C 292.121 4.79786 -0.368584 0
M  V30 3163 C 294.473 5.15138 -0.792638 0
M  V30 3164 C 291.801 5.70345 -1.37563 0
M  V30 3165 C 294.153 6.06784 -1.78875 0
M  V30 3166 C 292.817 6.34102 -2.08497 0
M  V30 3167 H 292.087 0.721768 0.167725 0
M  V30 3168 H 294.734 1.89472 -0.277976 0
M  V30 3169 H 293.039 3.48724 1.78602 0
M  V30 3170 H 294.736 3.72791 1.47744 0
M  V30 3171 H 291.326 4.28317 0.155668 0
M  V30 3172 H 295.51 4.92868 -0.582659 0
M  V30 3173 H 290.766 5.89789 -1.61118 0
M  V30 3174 H 294.94 6.55677 -2.3465 0
M  V30 3175 H 292.567 7.04074 -2.86678 0
M  V30 3176 N 294.142 -0.090211 1.57342 0
M  V30 3177 C 295.39 -0.791241 1.85967 0
M  V30 3178 C 295.711 -1.7903 0.772859 0
M  V30 3179 O 294.981 -1.94872 -0.200398 0
M  V30 3180 H 293.561 -0.295205 0.686195 0
M  V30 3181 H 296.223 -0.0706782 1.94772 0
M  V30 3182 H 295.319 -1.31882 2.82867 0
M  V30 3183 N 295.62 -1.53406 -0.361157 0
M  V30 3184 C 296.897 -1.60411 -1.11927 0
M  V30 3185 C 297.277 -0.414385 -2.06993 0
M  V30 3186 O 296.625 0.594976 -2.20618 0
M  V30 3187 C 296.835 -2.95652 -1.85448 0
M  V30 3188 C 298.183 -3.50386 -2.39823 0
M  V30 3189 O 299.207 -2.97711 -1.95568 0
M  V30 3190 O 298.066 -4.42482 -3.20737 0
M  V30 3191 H 295.16 -0.64811 -0.513695 0
M  V30 3192 H 297.706 -1.65749 -0.364065 0
M  V30 3193 H 296.478 -3.73682 -1.16091 0
M  V30 3194 H 296.101 -2.93825 -2.67866 0
M  V30 3195 N 297.098 0.621204 -1.44841 0
M  V30 3196 C 298.375 1.38 -1.38619 0
M  V30 3197 C 298.755 2.11041 -0.0498935 0
M  V30 3198 O 298.103 2.06992 0.967816 0
M  V30 3199 C 298.313 2.33817 -2.59096 0
M  V30 3200 C 299.661 2.96844 -3.03593 0
M  V30 3201 O 300.685 2.44141 -2.59371 0
M  V30 3202 O 299.544 3.92476 -3.80296 0
M  V30 3203 H 296.638 0.61811 -0.549426 0
M  V30 3204 H 299.184 0.645429 -1.56947 0
M  V30 3205 H 297.956 1.79012 -3.47952 0
M  V30 3206 H 297.579 3.14676 -2.43032 0
M  V30 3207 N 298.576 1.31904 0.862503 0
M  V30 3208 C 299.801 1.25135 1.65397 0
M  V30 3209 C 300.226 -0.179 1.87246 0
M  V30 3210 O 299.584 -1.1277 1.4196 0
M  V30 3211 C 299.632 2.00832 2.99498 0
M  V30 3212 O 298.736 1.35075 3.89652 0
M  V30 3213 H 298.077 0.431655 0.504549 0
M  V30 3214 H 300.607 1.74094 1.07483 0
M  V30 3215 H 300.617 2.10709 3.49379 0
M  V30 3216 H 299.292 3.04847 2.82916 0
M  V30 3217 H 297.869 1.33696 3.48109 0
M  V30 3218 N 300.054 -1.07777 1.14986 0
M  V30 3219 C 301.302 -1.79934 0.920235 0
M  V30 3220 C 301.623 -1.86955 -0.554336 0
M  V30 3221 O 300.893 -1.36731 -1.40291 0
M  V30 3222 H 299.473 -0.666424 0.337473 0
M  V30 3223 H 302.135 -1.3027 1.44968 0
M  V30 3224 H 301.231 -2.82539 1.32583 0
M  V30 3225 N 301.532 -0.945985 -1.26051 0
M  V30 3226 C 302.462 -0.477172 -2.28572 0
M  V30 3227 C 303.443 0.472032 -1.63419 0
M  V30 3228 O 304.628 0.372853 -1.90587 0
M  V30 3229 C 301.758 0.253975 -3.4637 0
M  V30 3230 C 300.712 -0.609135 -4.23643 0
M  V30 3231 C 300.038 0.252252 -5.34105 0
M  V30 3232 C 301.338 -1.8829 -4.8718 0
M  V30 3233 H 303.032 -1.33402 -2.68038 0
M  V30 3234 H 300.578 -0.642904 -1.28852 0
M  V30 3235 H 302.531 0.593016 -4.17207 0
M  V30 3236 H 301.255 1.145 -3.05871 0
M  V30 3237 H 299.914 -0.931138 -3.54578 0
M  V30 3238 H 299.562 1.14278 -4.89846 0
M  V30 3239 H 299.262 -0.32188 -5.86718 0
M  V30 3240 H 300.786 0.586454 -6.07777 0
M  V30 3241 H 302.2 -1.61081 -5.50205 0
M  V30 3242 H 300.597 -2.40199 -5.49931 0
M  V30 3243 H 301.667 -2.59134 -4.09851 0
M  V30 3244 N 303.011 1.40521 -0.713556 0
M  V30 3245 C 303.974 2.29098 -0.0684347 0
M  V30 3246 C 304.974 1.45268 0.689472 0
M  V30 3247 O 306.164 1.66205 0.521677 0
M  V30 3248 C 303.296 3.28446 0.913024 0
M  V30 3249 H 304.489 2.87645 -0.84855 0
M  V30 3250 H 302.042 1.48809 -0.47809 0
M  V30 3251 H 302.777 2.74913 1.72027 0
M  V30 3252 H 302.562 3.90327 0.372472 0
M  V30 3253 H 304.052 3.94777 1.36165 0
M  V30 3254 N 304.489 0.459591 1.5075 0
M  V30 3255 C 305.452 -0.329093 2.26825 0
M  V30 3256 C 306.452 -0.930481 1.31144 0
M  V30 3257 O 307.642 -0.801453 1.54669 0
M  V30 3258 C 304.774 -1.46768 3.07688 0
M  V30 3259 H 305.967 0.337924 2.9799 0
M  V30 3260 H 303.52 0.213336 1.54837 0
M  V30 3261 H 304.255 -2.17009 2.40993 0
M  V30 3262 H 304.04 -1.04238 3.77991 0
M  V30 3263 H 305.53 -2.02433 3.65254 0
M  V30 3264 N 305.967 -1.56429 0.191757 0
M  V30 3265 C 307.197 -2.01574 -0.452928 0
M  V30 3266 C 307.605 -1.07107 -1.55964 0
M  V30 3267 O 306.948 -0.067534 -1.83576 0
M  V30 3268 C 307.01 -3.43121 -1.07278 0
M  V30 3269 C 306.674 -4.56879 -0.105214 0
M  V30 3270 C 307.671 -5.15379 0.684149 0
M  V30 3271 C 305.356 -5.023 0.00489824 0
M  V30 3272 C 307.35 -6.17746 1.57062 0
M  V30 3273 C 305.037 -6.04511 0.894935 0
M  V30 3274 C 306.035 -6.62108 1.67637 0
M  V30 3275 O 305.723 -7.62335 2.55149 0
M  V30 3276 H 305.455 -0.665554 -0.118379 0
M  V30 3277 H 308.009 -2.03245 0.296737 0
M  V30 3278 H 306.239 -3.38425 -1.87097 0
M  V30 3279 H 307.928 -3.72093 -1.62177 0
M  V30 3280 H 308.694 -4.81157 0.609365 0
M  V30 3281 H 304.573 -4.57168 -0.593156 0
M  V30 3282 H 308.117 -6.6263 2.181 0
M  V30 3283 H 304.014 -6.38157 0.970847 0
M  V30 3284 H 304.782 -7.79741 2.48892 0
M  V30 3285 N 307.445 0.0818655 -1.57387 0
M  V30 3286 C 308.691 0.784074 -1.8703 0
M  V30 3287 C 309.024 1.77729 -0.782689 0
M  V30 3288 O 308.299 1.93384 0.208051 0
M  V30 3289 C 308.582 1.50105 -3.27323 0
M  V30 3290 C 308.435 0.524925 -4.46727 0
M  V30 3291 C 309.754 2.44843 -3.65705 0
M  V30 3292 H 306.873 0.283582 -0.680257 0
M  V30 3293 H 309.515 0.0474352 -1.89941 0
M  V30 3294 H 307.665 2.12897 -3.24972 0
M  V30 3295 H 309.337 -0.0970111 -4.61198 0
M  V30 3296 H 307.58 -0.160606 -4.33503 0
M  V30 3297 H 308.251 1.064 -5.41648 0
M  V30 3298 H 310.727 1.92135 -3.69085 0
M  V30 3299 H 309.603 2.92018 -4.64776 0
M  V30 3300 H 309.864 3.29197 -2.95096 0
M  V30 3301 N 308.923 1.53595 0.353017 0
M  V30 3302 C 309.886 1.80232 1.41594 0
M  V30 3303 C 310.886 0.673081 1.46035 0
M  V30 3304 O 312.076 0.941335 1.46576 0
M  V30 3305 C 309.208 1.93578 2.80607 0
M  V30 3306 H 310.401 2.75174 1.19244 0
M  V30 3307 H 307.954 1.44864 0.586872 0
M  V30 3308 H 308.689 1.00746 3.08254 0
M  V30 3309 H 308.474 2.75724 2.78781 0
M  V30 3310 H 309.964 2.15735 3.57558 0
M  V30 3311 N 310.401 -0.613514 1.45168 0
M  V30 3312 C 311.348 -1.72456 1.53387 0
M  V30 3313 C 312.318 -1.6169 0.380191 0
M  V30 3314 O 313.503 -1.81356 0.592836 0
M  V30 3315 C 310.643 -3.10753 1.50088 0
M  V30 3316 C 309.756 -3.32368 2.75963 0
M  V30 3317 C 308.891 -4.60737 2.64376 0
M  V30 3318 C 307.93 -4.7559 3.85332 0
M  V30 3319 N 307.067 -5.95253 3.72315 0
M  V30 3320 H 311.907 -1.64768 2.48305 0
M  V30 3321 H 309.444 -0.803503 1.23216 0
M  V30 3322 H 311.402 -3.90758 1.46164 0
M  V30 3323 H 310.032 -3.17413 0.587243 0
M  V30 3324 H 309.084 -2.4618 2.89999 0
M  V30 3325 H 310.396 -3.39218 3.65695 0
M  V30 3326 H 309.55 -5.48928 2.58385 0
M  V30 3327 H 308.289 -4.56275 1.72233 0
M  V30 3328 H 307.294 -3.85824 3.91688 0
M  V30 3329 H 308.519 -4.81854 4.78533 0
M  V30 3330 H 306.465 -5.91847 2.82937 0
M  V30 3331 H 306.382 -6.03236 4.55677 0
M  V30 3332 H 307.65 -6.85958 3.70246 0
M  V30 3333 N 311.879 -1.3236 -0.855495 0
M  V30 3334 C 312.842 -1.21164 -1.94556 0
M  V30 3335 C 313.842 -0.134908 -1.60233 0
M  V30 3336 O 315.032 -0.385249 -1.69887 0
M  V30 3337 C 312.164 -0.863192 -3.29791 0
M  V30 3338 H 313.357 -2.18038 -2.05911 0
M  V30 3339 H 310.91 -1.16179 -1.04557 0
M  V30 3340 H 311.645 0.103769 -3.24134 0
M  V30 3341 H 311.43 -1.64166 -3.56078 0
M  V30 3342 H 312.92 -0.809156 -4.09686 0
M  V30 3343 N 313.357 1.07166 -1.15556 0
M  V30 3344 C 314.606 1.79181 -0.926132 0
M  V30 3345 C 314.919 1.87768 0.547967 0
M  V30 3346 O 316.125 2.56323 0.895036 0
M  V30 3347 C 314.581 3.22 -1.60761 0
M  V30 3348 C 314.189 3.21607 -3.11886 0
M  V30 3349 C 315.933 3.9861 -1.4598 0
M  V30 3350 C 313.84 4.59092 -3.72812 0
M  V30 3351 H 312.77 0.67154 -0.342856 0
M  V30 3352 H 315.421 1.2027 -1.3859 0
M  V30 3353 H 313.803 3.81115 -1.07553 0
M  V30 3354 H 314.977 2.72127 -3.71865 0
M  V30 3355 H 313.292 2.58495 -3.2645 0
M  V30 3356 H 315.889 5.00225 -1.88888 0
M  V30 3357 H 316.232 4.143 -0.407541 0
M  V30 3358 H 316.765 3.45996 -1.96295 0
M  V30 3359 H 313.504 4.48606 -4.77946 0
M  V30 3360 H 313.024 5.08803 -3.17616 0
M  V30 3361 H 314.703 5.28059 -3.73848 0
M  V30 3362 N 314.835 0.952656 1.25548 0
M  V30 3363 C 316.112 0.523818 1.88456 0
M  V30 3364 C 316.492 -0.998871 1.85973 0
M  V30 3365 O 315.84 -1.86381 1.3219 0
M  V30 3366 C 316.05 1.0982 3.31271 0
M  V30 3367 C 317.398 1.17385 4.08051 0
M  V30 3368 O 318.422 1.04961 3.40384 0
M  V30 3369 O 317.281 1.36852 5.29088 0
M  V30 3370 H 314.375 0.172485 0.808813 0
M  V30 3371 H 316.921 1.04596 1.33633 0
M  V30 3372 H 315.693 2.1415 3.27499 0
M  V30 3373 H 315.316 0.559191 3.93648 0
M  V30 3374 N 316.313 -1.40141 0.720998 0
M  V30 3375 C 317.724 -1.83678 0.334553 0
M  V30 3376 C 318.075 -1.6027 -1.13173 0
M  V30 3377 O 317.2 -1.08643 -1.87152 0
M  V30 3378 C 317.795 -3.33437 0.600437 0
M  V30 3379 C 316.354 -3.75447 0.267642 0
M  V30 3380 C 315.501 -2.63296 0.870097 0
M  V30 3381 H 318.452 -1.29331 0.919732 0
M  V30 3382 H 318.473 -3.80269 -0.132517 0
M  V30 3383 H 317.985 -3.50442 1.66768 0
M  V30 3384 H 316.086 -3.64035 -0.794329 0
M  V30 3385 H 316.199 -4.73344 0.74042 0
M  V30 3386 H 314.563 -2.52954 0.297739 0
M  V30 3387 H 315.346 -2.83112 1.94172 0
M  V30 3388 N 317.792 -0.46758 -1.50504 0
M  V30 3389 C 319.017 0.0886943 -2.0721 0
M  V30 3390 C 319.442 1.33057 -1.32956 0
M  V30 3391 O 318.8 1.77354 -0.376197 0
M  V30 3392 C 318.848 0.359202 -3.58806 0
M  V30 3393 O 317.952 1.44034 -3.8643 0
M  V30 3394 H 317.293 -0.0114349 -0.663902 0
M  V30 3395 H 319.823 -0.657613 -1.93744 0
M  V30 3396 H 319.833 0.600742 -4.03553 0
M  V30 3397 H 318.508 -0.548311 -4.1227 0
M  V30 3398 H 317.085 1.18638 -3.53524 0
M  V30 3399 N 319.27 1.56325 -0.20005 0
M  V30 3400 C 320.519 1.96895 0.437652 0
M  V30 3401 C 320.832 1.08999 1.62415 0
M  V30 3402 O 322.038 1.39372 2.32997 0
M  V30 3403 C 320.494 3.50198 0.830025 0
M  V30 3404 C 320.102 4.46765 -0.332461 0
M  V30 3405 C 321.846 3.99526 1.43453 0
M  V30 3406 C 319.753 5.91344 0.0811468 0
M  V30 3407 H 318.683 0.735209 0.167282 0
M  V30 3408 H 321.334 1.81148 -0.292853 0
M  V30 3409 H 319.716 3.61467 1.61734 0
M  V30 3410 H 320.89 4.47231 -1.11 0
M  V30 3411 H 319.205 4.07657 -0.848789 0
M  V30 3412 H 321.802 5.05025 1.75652 0
M  V30 3413 H 322.145 3.44122 2.34277 0
M  V30 3414 H 322.678 3.91393 0.71109 0
M  V30 3415 H 319.417 6.50685 -0.793033 0
M  V30 3416 H 318.937 5.94121 0.823445 0
M  V30 3417 H 320.616 6.44945 0.515252 0
M  V30 3418 N 320.748 -0.0735177 1.57428 0
M  V30 3419 C 321.973 -0.789787 1.91774 0
M  V30 3420 C 322.398 -1.70413 0.796306 0
M  V30 3421 O 321.756 -1.79555 -0.250961 0
M  V30 3422 C 321.804 -1.5609 3.25067 0
M  V30 3423 O 320.908 -2.67144 3.14178 0
M  V30 3424 H 320.249 -0.215582 0.628029 0
M  V30 3425 H 322.779 -0.0422781 2.04556 0
M  V30 3426 H 322.789 -1.94052 3.58898 0
M  V30 3427 H 321.464 -0.890015 4.06265 0
M  V30 3428 H 320.041 -2.32052 2.91901 0
M  V30 3429 N 322.226 -1.5378 -0.344866 0
M  V30 3430 C 323.472 -1.72158 -1.0832 0
M  V30 3431 C 323.827 -0.478218 -1.86362 0
M  V30 3432 O 323.12 0.529152 -1.84148 0
M  V30 3433 C 323.314 -2.92407 -2.05506 0
M  V30 3434 C 323.143 -4.28318 -1.37017 0
M  V30 3435 C 321.913 -4.92832 -1.11558 0
M  V30 3436 C 324.111 -5.08086 -0.797071 0
M  V30 3437 N 322.093 -6.12619 -0.396358 0
M  V30 3438 C 323.464 -6.1965 -0.208336 0
M  V30 3439 C 325.519 -4.92986 -0.697787 0
M  V30 3440 C 324.222 -7.17763 0.470023 0
M  V30 3441 C 326.248 -5.91391 -0.033171 0
M  V30 3442 C 325.61 -7.02292 0.544599 0
M  V30 3443 H 321.709 -0.683017 -0.380805 0
M  V30 3444 H 324.293 -1.91211 -0.366961 0
M  V30 3445 H 322.464 -2.74857 -2.74423 0
M  V30 3446 H 324.196 -2.9951 -2.72169 0
M  V30 3447 H 320.951 -4.52362 -1.40234 0
M  V30 3448 H 321.375 -6.7698 -0.0515119 0
M  V30 3449 H 326.017 -4.07414 -1.13022 0
M  V30 3450 H 323.735 -8.0291 0.914351 0
M  V30 3451 H 327.321 -5.81784 0.0430009 0
M  V30 3452 H 326.201 -7.77129 1.05073 0
M  V30 3453 N 323.704 0.605807 -1.45491 0
M  V30 3454 C 324.614 1.74466 -1.56839 0
M  V30 3455 C 325.63 1.68006 -0.452772 0
M  V30 3456 O 326.806 1.8833 -0.713708 0
M  V30 3457 C 323.871 3.10931 -1.53371 0
M  V30 3458 C 322.932 3.28832 -2.75986 0
M  V30 3459 C 322.165 4.58787 -2.72673 0
M  V30 3460 O 322.388 5.4122 -1.80102 0
M  V30 3461 O 321.322 4.79438 -3.63899 0
M  V30 3462 H 325.148 1.67843 -2.53106 0
M  V30 3463 H 322.733 0.770108 -1.28022 0
M  V30 3464 H 324.615 3.92233 -1.54051 0
M  V30 3465 H 323.29 3.18042 -0.602572 0
M  V30 3466 H 322.197 2.47112 -2.80867 0
M  V30 3467 H 323.53 3.26599 -3.68231 0
M  V30 3468 N 325.182 1.32811 0.848464 0
M  V30 3469 C 326.459 1.14334 1.58704 0
M  V30 3470 C 326.839 -0.293948 2.09043 0
M  V30 3471 O 326.187 -1.29153 1.88499 0
M  V30 3472 C 326.397 2.17626 2.72837 0
M  V30 3473 C 327.745 2.51282 3.42261 0
M  V30 3474 O 328.769 2.16219 2.83068 0
M  V30 3475 O 327.628 3.11413 4.49093 0
M  V30 3476 H 324.722 0.441601 0.699226 0
M  V30 3477 H 327.268 1.44362 0.892053 0
M  V30 3478 H 326.04 3.14211 2.3321 0
M  V30 3479 H 325.663 1.88628 3.50008 0
M  V30 3480 N 326.66 -1.06551 1.16123 0
M  V30 3481 C 327.909 -1.78687 0.935622 0
M  V30 3482 C 328.222 -1.88056 -0.538001 0
M  V30 3483 O 329.428 -2.56794 -0.88143 0
M  V30 3484 C 327.884 -3.21143 1.62466 0
M  V30 3485 C 327.492 -3.19949 3.13587 0
M  V30 3486 C 329.236 -3.9783 1.48092 0
M  V30 3487 C 327.143 -4.57108 3.75241 0
M  V30 3488 H 326.073 -0.669712 0.346412 0
M  V30 3489 H 328.724 -1.19534 1.39226 0
M  V30 3490 H 327.106 -3.80539 1.09572 0
M  V30 3491 H 328.28 -2.70151 3.73303 0
M  V30 3492 H 326.595 -2.5676 3.27816 0
M  V30 3493 H 329.192 -4.99217 1.91538 0
M  V30 3494 H 329.535 -4.14078 0.429507 0
M  V30 3495 H 330.068 -3.4495 1.98127 0
M  V30 3496 H 326.807 -4.46065 4.80319 0
M  V30 3497 H 326.327 -5.07111 3.20309 0
M  V30 3498 H 328.006 -5.26069 3.76644 0
M  V30 3499 N 328.138 -0.959301 -1.25041 0
M  V30 3500 C 329.085 -0.482057 -2.2571 0
M  V30 3501 C 330.055 0.467939 -1.59372 0
M  V30 3502 O 331.24 0.380159 -1.86974 0
M  V30 3503 C 328.38 0.229623 -3.44335 0
M  V30 3504 C 327.493 -0.758156 -4.25295 0
M  V30 3505 C 326.628 -0.0234403 -5.31195 0
M  V30 3506 C 325.667 -1.00184 -6.03846 0
M  V30 3507 N 324.804 -0.29769 -7.01469 0
M  V30 3508 H 329.644 -1.34538 -2.65901 0
M  V30 3509 H 327.181 -0.674592 -1.3072 0
M  V30 3510 H 329.139 0.658856 -4.11965 0
M  V30 3511 H 327.769 1.05696 -3.05005 0
M  V30 3512 H 326.821 -1.30586 -3.57284 0
M  V30 3513 H 328.133 -1.50458 -4.75567 0
M  V30 3514 H 327.287 0.464201 -6.04922 0
M  V30 3515 H 326.026 0.755741 -4.81809 0
M  V30 3516 H 325.031 -1.50044 -5.2893 0
M  V30 3517 H 326.256 -1.78133 -6.55321 0
M  V30 3518 H 324.202 0.462668 -6.54366 0
M  V30 3519 H 324.119 -0.983128 -7.4958 0
M  V30 3520 H 325.387 0.16826 -7.79318 0
M  V30 3521 N 329.616 1.39756 -0.72842 0
M  V30 3522 C 330.862 2.01425 -0.282761 0
M  V30 3523 C 331.217 1.56754 1.11561 0
M  V30 3524 O 330.51 0.783482 1.74849 0
M  V30 3525 C 330.704 3.56002 -0.315776 0
M  V30 3526 C 330.533 4.1568 -1.71582 0
M  V30 3527 C 329.303 4.48555 -2.32651 0
M  V30 3528 C 331.501 4.39667 -2.66829 0
M  V30 3529 N 329.483 4.93698 -3.64877 0
M  V30 3530 C 330.854 4.86942 -3.8378 0
M  V30 3531 C 332.909 4.21724 -2.64675 0
M  V30 3532 C 331.612 5.18158 -4.98904 0
M  V30 3533 C 333.638 4.54049 -3.78937 0
M  V30 3534 C 333 5.01525 -4.94623 0
M  V30 3535 H 329.099 0.76756 -0.149583 0
M  V30 3536 H 331.683 1.69784 -0.952976 0
M  V30 3537 H 329.854 3.87046 0.324057 0
M  V30 3538 H 331.586 4.0443 0.147808 0
M  V30 3539 H 328.341 4.36128 -1.84633 0
M  V30 3540 H 328.765 5.20635 -4.32744 0
M  V30 3541 H 333.407 3.84228 -1.76433 0
M  V30 3542 H 331.125 5.54562 -5.87781 0
M  V30 3543 H 334.711 4.41795 -3.78561 0
M  V30 3544 H 333.591 5.26065 -5.81572 0
M  V30 3545 N 331.094 0.475555 1.50254 0
M  V30 3546 C 332.024 -0.30611 2.31485 0
M  V30 3547 C 333.005 -0.986228 1.38591 0
M  V30 3548 O 334.19 -0.982541 1.67511 0
M  V30 3549 C 331.32 -1.38588 3.1845 0
M  V30 3550 C 330.274 -0.827115 4.19932 0
M  V30 3551 C 329.6 -2.00551 4.95665 0
M  V30 3552 C 330.9 0.16463 5.2204 0
M  V30 3553 H 332.594 0.371866 2.97082 0
M  V30 3554 H 330.14 0.180282 1.42867 0
M  V30 3555 H 332.093 -1.94023 3.74076 0
M  V30 3556 H 330.817 -2.09269 2.50747 0
M  V30 3557 H 329.476 -0.294702 3.65414 0
M  V30 3558 H 329.124 -2.6994 4.2443 0
M  V30 3559 H 328.824 -1.63784 5.64313 0
M  V30 3560 H 330.348 -2.56468 5.54127 0
M  V30 3561 H 331.762 -0.300699 5.72511 0
M  V30 3562 H 330.159 0.446813 5.98434 0
M  V30 3563 H 331.229 1.08905 4.72512 0
M  V30 3564 N 332.573 -1.56217 0.208337 0
M  V30 3565 C 333.989 -1.58919 -0.14729 0
M  V30 3566 C 334.189 -1.22486 -1.59998 0
M  V30 3567 O 333.245 -0.953849 -2.3379 0
M  V30 3568 C 334.558 -3.00236 0.167048 0
M  V30 3569 C 336.106 -3.12813 0.108219 0
M  V30 3570 C 336.581 -4.56284 0.396049 0
M  V30 3571 N 338.072 -4.61912 0.345142 0
M  V30 3572 C 338.807 -5.70837 0.541523 0
M  V30 3573 N 338.303 -6.88178 0.798968 0
M  V30 3574 N 340.096 -5.60091 0.474867 0
M  V30 3575 H 332.247 -1.78177 1.15614 0
M  V30 3576 H 334.51 -0.827555 0.462446 0
M  V30 3577 H 334.216 -3.31499 1.1748 0
M  V30 3578 H 334.09 -3.7354 -0.524184 0
M  V30 3579 H 336.477 -2.81354 -0.890157 0
M  V30 3580 H 336.558 -2.41866 0.832729 0
M  V30 3581 H 336.202 -4.88458 1.3918 0
M  V30 3582 H 336.132 -5.25439 -0.349502 0
M  V30 3583 H 338.623 -3.77589 0.153316 0
M  V30 3584 H 338.936 -7.67095 0.93727 0
M  V30 3585 H 337.281 -6.89953 0.836013 0
M  V30 3586 H 340.472 -4.67297 0.274064 0
M  V30 3587 H 340.645 -6.44917 0.631326 0
M  V30 3588 N 334.051 0.0651679 -1.57465 0
M  V30 3589 C 335.467 0.420105 -1.53972 0
M  V30 3590 C 335.667 1.78782 -0.929474 0
M  V30 3591 O 334.723 2.46771 -0.534839 0
M  V30 3592 C 336.036 0.355084 -2.98596 0
M  V30 3593 C 337.584 0.434792 -3.09965 0
M  V30 3594 C 338.059 0.399609 -4.56253 0
M  V30 3595 N 339.55 0.459488 -4.60915 0
M  V30 3596 C 340.285 0.454584 -5.71595 0
M  V30 3597 N 339.781 0.404102 -6.9162 0
M  V30 3598 N 341.574 0.501635 -5.59857 0
M  V30 3599 H 333.725 -0.830328 -1.95498 0
M  V30 3600 H 335.988 -0.312244 -0.895102 0
M  V30 3601 H 335.694 -0.583357 -3.46828 0
M  V30 3602 H 335.568 1.16275 -3.58831 0
M  V30 3603 H 337.955 1.36366 -2.61703 0
M  V30 3604 H 338.036 -0.40157 -2.52628 0
M  V30 3605 H 337.68 -0.525436 -5.05175 0
M  V30 3606 H 337.61 1.25359 -5.11461 0
M  V30 3607 H 340.101 0.502482 -3.74544 0
M  V30 3608 H 340.414 0.404468 -7.71741 0
M  V30 3609 H 338.759 0.37069 -6.94011 0
M  V30 3610 H 341.95 0.538812 -4.64989 0
M  V30 3611 H 342.123 0.494345 -6.46112 0
M  V30 3612 N 335.529 1.53961 0.336706 0
M  V30 3613 C 336.459 1.85417 1.41925 0
M  V30 3614 C 337.44 0.709856 1.5458 0
M  V30 3615 O 338.625 0.962396 1.68676 0
M  V30 3616 C 335.755 2.06985 2.78881 0
M  V30 3617 C 334.709 3.22813 2.81026 0
M  V30 3618 C 334.035 3.29727 4.20932 0
M  V30 3619 C 335.335 4.60767 2.45949 0
M  V30 3620 H 337.029 2.76079 1.15848 0
M  V30 3621 H 334.575 1.32839 0.555859 0
M  V30 3622 H 336.528 2.27575 3.54665 0
M  V30 3623 H 335.252 1.13061 3.06406 0
M  V30 3624 H 333.911 3.0209 2.07695 0
M  V30 3625 H 333.559 2.33385 4.45579 0
M  V30 3626 H 333.259 4.07566 4.23277 0
M  V30 3627 H 334.783 3.52536 4.98549 0
M  V30 3628 H 336.197 4.81325 3.11446 0
M  V30 3629 H 334.594 5.4106 2.59566 0
M  V30 3630 H 335.664 4.6391 1.41122 0
M  V30 3631 N 337.007 -0.598083 1.45811 0
M  V30 3632 C 338.235 -1.38322 1.53866 0
M  V30 3633 C 338.65 -1.87992 0.174479 0
M  V30 3634 O 338.007 -1.62756 -0.825627 0
M  V30 3635 C 338.058 -2.58125 2.53089 0
M  V30 3636 O 337.779 -2.10516 3.84206 0
M  V30 3637 C 339.28 -3.50869 2.70935 0
M  V30 3638 H 336.5 -0.423093 0.520801 0
M  V30 3639 H 339.044 -0.728527 1.91083 0
M  V30 3640 H 337.199 -3.19615 2.18917 0
M  V30 3641 H 337.613 -2.88425 4.38077 0
M  V30 3642 H 339.087 -4.31451 3.44317 0
M  V30 3643 H 339.564 -4.01822 1.77301 0
M  V30 3644 H 340.17 -2.95225 3.06141 0
M  V30 3645 N 338.485 -1.33259 -0.841409 0
M  V30 3646 C 339.71 -1.2775 -1.63385 0
M  V30 3647 C 340.135 0.149188 -1.87507 0
M  V30 3648 O 339.493 1.10498 -1.43736 0
M  V30 3649 C 339.541 -2.05571 -2.96265 0
M  V30 3650 O 338.645 -1.41257 -3.87453 0
M  V30 3651 H 337.986 -0.439627 -0.497618 0
M  V30 3652 H 340.516 -1.75782 -1.04699 0
M  V30 3653 H 340.526 -2.16241 -3.45982 0
M  V30 3654 H 339.201 -3.09309 -2.7803 0
M  V30 3655 H 337.778 -1.39217 -3.45938 0
M  V30 3656 N 339.963 1.05934 -1.16686 0
M  V30 3657 C 340.893 2.1546 -0.899949 0
M  V30 3658 C 341.874 1.69391 0.155154 0
M  V30 3659 O 343.059 1.94199 0.00648693 0
M  V30 3660 C 340.189 3.44939 -0.404241 0
M  V30 3661 C 339.143 4.04536 -1.39767 0
M  V30 3662 C 338.469 5.29268 -0.760216 0
M  V30 3663 C 339.769 4.42893 -2.76845 0
M  V30 3664 H 341.463 2.38046 -1.81588 0
M  V30 3665 H 339.009 1.14404 -0.874514 0
M  V30 3666 H 340.962 4.20901 -0.204971 0
M  V30 3667 H 339.686 3.21983 0.547206 0
M  V30 3668 H 338.345 3.30635 -1.58355 0
M  V30 3669 H 337.993 5.02611 0.197831 0
M  V30 3670 H 337.693 5.70101 -1.42332 0
M  V30 3671 H 339.217 6.07924 -0.57105 0
M  V30 3672 H 340.631 5.09921 -2.62019 0
M  V30 3673 H 339.028 4.94721 -3.39663 0
M  V30 3674 H 340.098 3.53584 -3.31823 0
M  V30 3675 N 341.441 0.965919 1.2453 0
M  V30 3676 C 342.852 0.665929 1.7442 0
M  V30 3677 C 343.203 -0.818407 1.78316 0
M  V30 3678 O 342.328 -1.64037 1.41141 0
M  V30 3679 C 342.923 1.20211 3.16757 0
M  V30 3680 C 341.482 0.952059 3.6416 0
M  V30 3681 C 340.629 1.33848 2.42858 0
M  V30 3682 H 343.58 1.14144 1.10258 0
M  V30 3683 H 343.601 0.567544 3.76244 0
M  V30 3684 H 343.113 2.28244 3.13889 0
M  V30 3685 H 341.214 -0.112821 3.72429 0
M  V30 3686 H 341.327 1.59645 4.51719 0
M  V30 3687 H 339.691 0.756864 2.43195 0
M  V30 3688 H 340.474 2.42827 2.42673 0
M  V30 3689 N 342.919 -1.39368 0.735821 0
M  V30 3690 C 344.168 -1.99733 0.281004 0
M  V30 3691 C 344.481 -1.59055 -1.13846 0
M  V30 3692 O 345.687 -2.12262 -1.69284 0
M  V30 3693 C 344.143 -3.57057 0.451462 0
M  V30 3694 C 343.751 -4.06697 1.87886 0
M  V30 3695 C 345.495 -4.2446 0.0584616 0
M  V30 3696 C 343.402 -5.56598 1.99883 0
M  V30 3697 H 342.332 -0.747163 0.101311 0
M  V30 3698 H 344.983 -1.59357 0.909819 0
M  V30 3699 H 343.365 -3.95234 -0.246263 0
M  V30 3700 H 344.539 -3.79853 2.60861 0
M  V30 3701 H 342.854 -3.5196 2.22515 0
M  V30 3702 H 345.451 -5.34549 0.127099 0
M  V30 3703 H 345.794 -4.04444 -0.986433 0
M  V30 3704 H 346.327 -3.9146 0.707374 0
M  V30 3705 H 343.066 -5.81494 3.02564 0
M  V30 3706 H 342.586 -5.85242 1.31346 0
M  V30 3707 H 344.265 -6.22022 1.78039 0
M  V30 3708 N 344.397 -0.483516 -1.5 0
M  V30 3709 C 345.643 0.0672592 -2.02688 0
M  V30 3710 C 345.976 1.38247 -1.36387 0
M  V30 3711 O 345.251 1.88131 -0.493675 0
M  V30 3712 C 345.534 0.238109 -3.59312 0
M  V30 3713 C 345.387 -1.099 -4.36168 0
M  V30 3714 C 346.706 0.986916 -4.28892 0
M  V30 3715 H 343.825 0.0229696 -0.736642 0
M  V30 3716 H 346.467 -0.631527 -1.79197 0
M  V30 3717 H 344.617 0.8333 -3.79458 0
M  V30 3718 H 346.289 -1.73172 -4.27562 0
M  V30 3719 H 344.532 -1.69261 -3.99416 0
M  V30 3720 H 345.203 -0.932954 -5.44059 0
M  V30 3721 H 347.679 0.482302 -4.13295 0
M  V30 3722 H 346.555 1.07527 -5.38265 0
M  V30 3723 H 346.816 2.0265 -3.92919 0
M  V30 3724 N 345.875 1.56104 -0.216619 0
M  V30 3725 C 346.838 2.18819 0.681962 0
M  V30 3726 C 347.838 1.14866 1.12528 0
M  V30 3727 O 349.028 1.40128 1.03488 0
M  V30 3728 C 346.16 2.80756 1.93362 0
M  V30 3729 H 347.353 2.99595 0.135254 0
M  V30 3730 H 344.906 1.56265 0.0330003 0
M  V30 3731 H 345.641 2.03837 2.52232 0
M  V30 3732 H 345.426 3.56876 1.62426 0
M  V30 3733 H 346.916 3.28844 2.57393 0
M  V30 3734 N 347.353 -0.0568162 1.57498 0
M  V30 3735 C 348.3 -1.06591 2.04712 0
M  V30 3736 C 349.27 -1.3758 0.930644 0
M  V30 3737 O 350.455 -1.48392 1.19935 0
M  V30 3738 C 347.595 -2.3701 2.50839 0
M  V30 3739 C 346.708 -2.12421 3.76167 0
M  V30 3740 C 345.843 -3.36511 4.11015 0
M  V30 3741 C 344.882 -3.07353 5.2934 0
M  V30 3742 N 344.019 -4.23816 5.59754 0
M  V30 3743 H 348.859 -0.65631 2.90683 0
M  V30 3744 H 346.396 -0.312481 1.43743 0
M  V30 3745 H 348.354 -3.13175 2.7564 0
M  V30 3746 H 346.984 -2.75744 1.67825 0
M  V30 3747 H 346.036 -1.2688 3.58616 0
M  V30 3748 H 347.348 -1.86894 4.62463 0
M  V30 3749 H 346.502 -4.21062 4.36797 0
M  V30 3750 H 345.241 -3.65128 3.23315 0
M  V30 3751 H 344.246 -2.212 5.03339 0
M  V30 3752 H 345.471 -2.80043 6.1867 0
M  V30 3753 H 343.417 -4.52436 4.75014 0
M  V30 3754 H 343.334 -4.01614 6.40501 0
M  V30 3755 H 344.602 -5.0932 5.90096 0
M  V30 3756 N 348.832 -1.54138 -0.328536 0
M  V30 3757 C 350.08 -1.71765 -1.06496 0
M  V30 3758 C 350.401 -0.49149 -1.88704 0
M  V30 3759 O 349.671 0.494539 -1.89555 0
M  V30 3760 H 348.251 -0.633295 -0.396164 0
M  V30 3761 H 350.913 -1.91429 -0.366176 0
M  V30 3762 H 350.009 -2.5951 -1.73381 0
M  V30 3763 N 350.31 0.590341 -1.46126 0
M  V30 3764 C 351.559 1.34499 -1.50309 0
M  V30 3765 C 351.872 1.94977 -0.156021 0
M  V30 3766 O 353.078 2.71395 -0.0756037 0
M  V30 3767 C 351.534 2.43723 -2.64815 0
M  V30 3768 C 351.142 1.89582 -4.0591 0
M  V30 3769 C 352.886 3.20579 -2.78262 0
M  V30 3770 C 350.793 2.9639 -5.11769 0
M  V30 3771 H 349.723 0.505593 -0.559368 0
M  V30 3772 H 352.374 0.630848 -1.72315 0
M  V30 3773 H 350.756 3.17902 -2.36124 0
M  V30 3774 H 351.93 1.21997 -4.44357 0
M  V30 3775 H 350.245 1.25418 -3.97063 0
M  V30 3776 H 352.842 4.00276 -3.54519 0
M  V30 3777 H 353.185 3.72684 -1.85505 0
M  V30 3778 H 353.718 2.53505 -3.06562 0
M  V30 3779 H 350.457 2.49181 -6.06291 0
M  V30 3780 H 349.977 3.62487 -4.77873 0
M  V30 3781 H 351.656 3.60474 -5.37278 0
M  V30 3782 N 351.788 1.33704 0.83433 0
M  V30 3783 C 352.718 1.26967 1.95963 0
M  V30 3784 C 353.699 0.149337 1.69443 0
M  V30 3785 O 354.884 0.339852 1.91203 0
M  V30 3786 C 352.014 1.01275 3.32206 0
M  V30 3787 C 350.968 2.09652 3.73136 0
M  V30 3788 C 350.294 1.69166 5.07235 0
M  V30 3789 C 351.594 3.51372 3.86439 0
M  V30 3790 H 353.288 2.2112 2.01857 0
M  V30 3791 H 350.834 1.06447 0.969793 0
M  V30 3792 H 352.787 0.952106 4.10503 0
M  V30 3793 H 351.511 0.0356203 3.26581 0
M  V30 3794 H 350.17 2.14766 2.97104 0
M  V30 3795 H 349.818 0.701437 4.98085 0
M  V30 3796 H 349.518 2.41694 5.35591 0
M  V30 3797 H 351.042 1.64576 5.88003 0
M  V30 3798 H 352.456 3.48734 4.55036 0
M  V30 3799 H 350.853 4.22425 4.26236 0
M  V30 3800 H 351.923 3.89546 2.88759 0
M  V30 3801 N 353.266 -1.05314 1.17247 0
M  V30 3802 C 354.682 -1.30452 0.919473 0
M  V30 3803 C 354.882 -1.9703 -0.42209 0
M  V30 3804 O 353.938 -2.24311 -1.15935 0
M  V30 3805 C 355.251 -2.17551 2.07586 0
M  V30 3806 C 356.799 -2.30937 2.11275 0
M  V30 3807 C 357.274 -3.21396 3.26296 0
M  V30 3808 N 358.765 -3.28981 3.26076 0
M  V30 3809 C 359.5 -3.99095 4.11716 0
M  V30 3810 N 358.996 -4.71648 5.07465 0
M  V30 3811 N 360.789 -3.95247 3.9967 0
M  V30 3812 H 352.94 -0.604988 2.03602 0
M  V30 3813 H 355.203 -0.329368 0.888944 0
M  V30 3814 H 354.909 -1.75921 3.0454 0
M  V30 3815 H 354.783 -3.18182 2.02584 0
M  V30 3816 H 357.17 -2.71809 1.14907 0
M  V30 3817 H 357.251 -1.2994 2.20339 0
M  V30 3818 H 356.895 -2.81238 4.22927 0
M  V30 3819 H 356.825 -4.22395 3.14467 0
M  V30 3820 H 359.316 -2.77286 2.5675 0
M  V30 3821 H 359.629 -5.22705 5.6921 0
M  V30 3822 H 357.974 -4.70594 5.11435 0
M  V30 3823 H 361.165 -3.37691 3.24164 0
M  V30 3824 H 361.338 -4.4962 4.66632 0
M  V30 3825 N 354.744 -0.972509 -1.24016 0
M  V30 3826 C 355.992 -0.635776 -1.91839 0
M  V30 3827 C 356.313 0.832312 -1.76345 0
M  V30 3828 O 355.583 1.5946 -1.13795 0
M  V30 3829 H 354.163 -0.232157 -0.710009 0
M  V30 3830 H 356.825 -1.23462 -1.50809 0
M  V30 3831 H 355.921 -0.880545 -2.99421 0
M  V30 3832 N 356.222 1.38976 -0.743202 0
M  V30 3833 C 357.499 1.94351 -0.220705 0
M  V30 3834 C 357.879 1.67935 1.2791 0
M  V30 3835 O 357.227 1.01211 2.04862 0
M  V30 3836 C 357.437 3.44426 -0.563171 0
M  V30 3837 C 358.785 4.2144 -0.517046 0
M  V30 3838 O 359.809 3.52661 -0.500846 0
M  V30 3839 O 358.668 5.44032 -0.518806 0
M  V30 3840 H 355.762 0.825879 -0.043047 0
M  V30 3841 H 358.308 1.48429 -0.822618 0
M  V30 3842 H 357.08 3.5712 -1.59941 0
M  V30 3843 H 356.703 3.97543 0.0672883 0
M  V30 3844 N 357.7 0.491464 1.49741 0
M  V30 3845 C 358.977 -0.118984 1.95238 0
M  V30 3846 C 359.357 -1.55044 1.43264 0
M  V30 3847 O 358.705 -2.19287 0.642287 0
M  V30 3848 C 358.915 -0.0414187 3.48975 0
M  V30 3849 C 360.263 -0.220133 4.24029 0
M  V30 3850 O 361.287 -0.117055 3.56008 0
M  V30 3851 O 360.146 -0.430567 5.44801 0
M  V30 3852 H 357.24 -0.100536 0.820866 0
M  V30 3853 H 359.786 0.553322 1.60426 0
M  V30 3854 H 358.558 0.957214 3.79412 0
M  V30 3855 H 358.181 -0.754292 3.9038 0
M  V30 3856 N 359.178 -1.55987 0.224894 0
M  V30 3857 C 360.141 -2.19178 -0.670348 0
M  V30 3858 C 361.141 -1.15461 -1.11917 0
M  V30 3859 O 362.331 -1.40675 -1.02743 0
M  V30 3860 C 359.463 -2.81777 -1.9187 0
M  V30 3861 H 360.656 -2.99662 -0.119364 0
M  V30 3862 H 358.209 -1.5628 -0.0247128 0
M  V30 3863 H 358.944 -2.05172 -2.51147 0
M  V30 3864 H 358.729 -3.57732 -1.60531 0
M  V30 3865 H 360.219 -3.30205 -2.55645 0
M  V30 3866 N 360.656 0.0484629 -1.57525 0
M  V30 3867 C 362.072 0.40375 -1.54409 0
M  V30 3868 C 362.272 1.77786 -0.948384 0
M  V30 3869 O 361.328 2.46189 -0.560983 0
M  V30 3870 C 362.641 0.323394 -2.98956 0
M  V30 3871 C 364.189 0.401892 -3.10409 0
M  V30 3872 C 364.664 0.351195 -4.56652 0
M  V30 3873 N 366.155 0.410576 -4.61377 0
M  V30 3874 C 366.89 0.393933 -5.72045 0
M  V30 3875 N 366.386 0.330724 -6.9201 0
M  V30 3876 N 368.179 0.442227 -5.60358 0
M  V30 3877 H 360.33 -0.851016 -1.94606 0
M  V30 3878 H 362.593 -0.321721 -0.89174 0
M  V30 3879 H 362.299 -0.62011 -3.4619 0
M  V30 3880 H 362.173 1.12463 -3.60044 0
M  V30 3881 H 364.56 1.33582 -2.63134 0
M  V30 3882 H 364.641 -0.428342 -2.52188 0
M  V30 3883 H 364.285 -0.578987 -5.04589 0
M  V30 3884 H 364.215 1.19928 -5.12762 0
M  V30 3885 H 366.706 0.462729 -3.75056 0
M  V30 3886 H 367.019 0.322592 -7.72126 0
M  V30 3887 H 365.364 0.29706 -6.94365 0
M  V30 3888 H 368.555 0.489464 -4.65534 0
M  V30 3889 H 368.728 0.425788 -6.466 0
M  V30 3890 N 362.134 1.5431 0.320358 0
M  V30 3891 C 363.044 1.86946 1.41734 0
M  V30 3892 C 364.06 0.761689 1.56443 0
M  V30 3893 O 365.236 1.05629 1.71477 0
M  V30 3894 C 362.301 2.09293 2.76401 0
M  V30 3895 C 361.362 3.33082 2.70841 0
M  V30 3896 C 360.595 3.54353 3.99086 0
M  V30 3897 O 360.818 2.79002 4.97508 0
M  V30 3898 O 359.752 4.47838 4.0215 0
M  V30 3899 H 363.578 2.80232 1.17062 0
M  V30 3900 H 361.163 1.40255 0.514673 0
M  V30 3901 H 363.045 2.25303 3.56113 0
M  V30 3902 H 361.72 1.19194 3.00956 0
M  V30 3903 H 360.627 3.22454 1.89668 0
M  V30 3904 H 361.96 4.23249 2.5124 0
M  V30 3905 N 363.613 -0.582584 1.46437 0
M  V30 3906 C 364.576 -1.67366 1.56592 0
M  V30 3907 C 365.576 -1.54575 0.443072 0
M  V30 3908 O 366.766 -1.59191 0.707381 0
M  V30 3909 C 363.898 -3.06791 1.48634 0
M  V30 3910 H 365.091 -1.5972 2.5383 0
M  V30 3911 H 362.644 -0.800432 1.34249 0
M  V30 3912 H 363.379 -3.19993 0.526763 0
M  V30 3913 H 363.164 -3.17484 2.30101 0
M  V30 3914 H 364.654 -3.86218 1.58826 0
M  V30 3915 N 365.091 -1.34144 -0.827227 0
M  V30 3916 C 366.337 -1.26446 -1.58554 0
M  V30 3917 C 366.67 0.1664 -1.93486 0
M  V30 3918 O 365.945 1.1107 -1.59667 0
M  V30 3919 C 366.228 -2.15111 -2.8879 0
M  V30 3920 C 366.081 -3.66712 -2.60465 0
M  V30 3921 C 367.4 -2.03311 -3.90324 0
M  V30 3922 H 364.519 -0.46067 -0.575284 0
M  V30 3923 H 367.161 -1.64356 -0.953269 0
M  V30 3924 H 365.311 -1.8291 -3.42748 0
M  V30 3925 H 366.983 -4.09259 -2.1285 0
M  V30 3926 H 365.226 -3.88014 -1.93978 0
M  V30 3927 H 365.897 -4.24112 -3.53317 0
M  V30 3928 H 368.373 -2.31574 -3.45706 0
M  V30 3929 H 367.249 -2.67582 -4.79261 0
M  V30 3930 H 367.51 -1.00879 -4.30437 0
M  V30 3931 N 366.569 1.04691 -1.17803 0
M  V30 3932 C 367.516 2.12557 -0.899343 0
M  V30 3933 C 368.486 1.65339 0.158771 0
M  V30 3934 O 369.671 1.90789 0.0204797 0
M  V30 3935 C 366.811 3.42481 -0.424315 0
M  V30 3936 C 365.924 4.03346 -1.54713 0
M  V30 3937 C 365.059 5.21208 -1.02546 0
M  V30 3938 C 364.098 5.74089 -2.12339 0
M  V30 3939 N 363.235 6.83247 -1.61612 0
M  V30 3940 H 368.075 2.35734 -1.823 0
M  V30 3941 H 365.612 1.1564 -0.909159 0
M  V30 3942 H 367.57 4.16996 -0.130421 0
M  V30 3943 H 366.2 3.19471 0.462377 0
M  V30 3944 H 365.252 3.2622 -1.95664 0
M  V30 3945 H 366.564 4.38628 -2.37501 0
M  V30 3946 H 365.718 6.02812 -0.685718 0
M  V30 3947 H 364.457 4.87414 -0.167084 0
M  V30 3948 H 363.462 4.91111 -2.47165 0
M  V30 3949 H 364.687 6.0993 -2.98601 0
M  V30 3950 H 362.633 6.5134 -0.780533 0
M  V30 3951 H 362.55 7.17559 -2.38003 0
M  V30 3952 H 363.818 7.68491 -1.30545 0
M  V30 3953 N 368.047 0.979072 1.23499 0
M  V30 3954 C 368.997 0.489378 2.22686 0
M  V30 3955 C 369.981 -0.434871 1.54912 0
M  V30 3956 O 371.173 -0.263941 1.75021 0
M  V30 3957 C 368.302 -0.208178 3.42668 0
M  V30 3958 C 367.388 0.735563 4.17672 0
M  V30 3959 N 367.779 1.87763 4.69658 0
M  V30 3960 C 366.077 0.548625 4.42613 0
M  V30 3961 C 366.778 2.46886 5.26709 0
M  V30 3962 N 365.754 1.75287 5.14563 0
M  V30 3963 H 369.556 1.36062 2.60508 0
M  V30 3964 H 367.07 0.83958 1.39014 0
M  V30 3965 H 369.067 -0.576295 4.12898 0
M  V30 3966 H 367.727 -1.07572 3.06363 0
M  V30 3967 H 368.738 2.25885 4.66043 0
M  V30 3968 H 365.415 -0.274006 4.166 0
M  V30 3969 H 366.805 3.43326 5.77561 0
M  V30 3970 N 369.525 -1.3858 0.750561 0
M  V30 3971 C 370.773 -1.99789 0.30477 0
M  V30 3972 C 371.094 -1.59874 -1.11649 0
M  V30 3973 O 370.364 -0.85417 -1.76297 0
M  V30 3974 H 368.944 -0.738902 0.109694 0
M  V30 3975 H 371.606 -1.69391 0.963983 0
M  V30 3976 H 370.702 -3.09952 0.365499 0
M  V30 3977 N 371.003 -0.499398 -1.49478 0
M  V30 3978 C 371.933 0.269244 -2.31943 0
M  V30 3979 C 372.914 0.964054 -1.40143 0
M  V30 3980 O 374.099 0.955767 -1.69052 0
M  V30 3981 C 371.229 1.33504 -3.20615 0
M  V30 3982 C 370.183 0.760202 -4.21195 0
M  V30 3983 C 369.509 1.9264 -4.98792 0
M  V30 3984 C 370.809 -0.247661 -5.21712 0
M  V30 3985 H 372.503 -0.419082 -2.96452 0
M  V30 3986 H 370.049 -0.202988 -1.42562 0
M  V30 3987 H 372.002 1.88048 -3.77115 0
M  V30 3988 H 370.726 2.05253 -2.54045 0
M  V30 3989 H 369.385 0.23653 -3.65836 0
M  V30 3990 H 369.033 2.63154 -4.28671 0
M  V30 3991 H 368.733 1.54785 -5.66847 0
M  V30 3992 H 370.257 2.4762 -5.58137 0
M  V30 3993 H 371.671 0.209579 -5.72917 0
M  V30 3994 H 370.068 -0.541962 -5.97648 0
M  V30 3995 H 371.138 -1.16409 -4.7072 0
M  V30 3996 N 372.481 1.55866 -0.233164 0
M  V30 3997 C 373.429 2.22176 0.68851 0
M  V30 3998 C 374.423 1.20487 1.19076 0
M  V30 3999 O 375.629 1.38536 1.14925 0
M  V30 4000 H 372.004 0.712511 0.240483 0
M  V30 4001 H 373.975 2.98212 0.105935 0
M  V30 4002 C 372.724 2.92446 1.88071 0
M  V30 4003 H 372.047 3.70458 1.50337 0
M  V30 4004 H 373.487 3.42226 2.50314 0
M  V30 4005 C 371.946 1.95555 2.74335 0
M  V30 4006 O 372.476 1.47986 3.73447 0
M  V30 4007 N 370.682 1.62953 2.40613 0
M  V30 4008 H 370.229 2.01831 1.60069 0
M  V30 4009 H 370.187 0.983886 2.98609 0
M  V30 4010 N 373.959 -0.0401083 1.57549 0
M  V30 4011 C 375.207 -0.731677 1.8839 0
M  V30 4012 C 375.528 -1.76481 0.829425 0
M  V30 4013 O 374.798 -1.95411 -0.1383 0
M  V30 4014 H 373.378 -0.273225 0.695239 0
M  V30 4015 H 376.04 -0.00867725 1.94898 0
M  V30 4016 H 375.136 -1.22816 2.86919 0
M  V30 4017 N 375.437 -1.54477 -0.31217 0
M  V30 4018 C 376.686 -1.72438 -1.04633 0
M  V30 4019 C 376.999 -0.511163 -1.88803 0
M  V30 4020 O 378.205 -0.572341 -2.65399 0
M  V30 4021 C 376.661 -3.05043 -1.9099 0
M  V30 4022 C 376.269 -4.33806 -1.11877 0
M  V30 4023 C 378.013 -3.32364 -2.64073 0
M  V30 4024 C 375.92 -5.57467 -1.97445 0
M  V30 4025 H 374.85 -0.642647 -0.394361 0
M  V30 4026 H 377.501 -1.80966 -0.303929 0
M  V30 4027 H 375.883 -2.90451 -2.69173 0
M  V30 4028 H 377.057 -4.59199 -0.383843 0
M  V30 4029 H 375.372 -4.13336 -0.504252 0
M  V30 4030 H 377.969 -4.21951 -3.28423 0
M  V30 4031 H 378.312 -2.50745 -3.32314 0
M  V30 4032 H 378.845 -3.47875 -1.92944 0
M  V30 4033 H 375.584 -6.41722 -1.33692 0
M  V30 4034 H 375.104 -5.36277 -2.6864 0
M  V30 4035 H 376.783 -5.94303 -2.5576 0
M  V30 4036 N 376.915 0.57481 -1.46744 0
M  V30 4037 C 377.845 1.69337 -1.60771 0
M  V30 4038 C 378.826 1.63825 -0.457736 0
M  V30 4039 O 380.011 1.8172 -0.684947 0
M  V30 4040 C 377.141 3.0798 -1.60517 0
M  V30 4041 C 376.095 3.28327 -2.74564 0
M  V30 4042 C 375.421 4.67578 -2.59373 0
M  V30 4043 C 376.721 3.15398 -4.16319 0
M  V30 4044 H 378.415 1.57853 -2.54407 0
M  V30 4045 H 375.961 0.75799 -1.22436 0
M  V30 4046 H 377.914 3.86061 -1.68923 0
M  V30 4047 H 376.638 3.20381 -0.634305 0
M  V30 4048 H 375.297 2.52649 -2.65639 0
M  V30 4049 H 374.945 4.76755 -1.60353 0
M  V30 4050 H 374.645 4.82144 -3.35873 0
M  V30 4051 H 376.169 5.47817 -2.69682 0
M  V30 4052 H 377.583 3.83315 -4.26313 0
M  V30 4053 H 375.98 3.41482 -4.93468 0
M  V30 4054 H 377.05 2.12372 -4.3592 0
M  V30 4055 N 378.394 1.34581 0.820102 0
M  V30 4056 C 379.64 1.27285 1.57881 0
M  V30 4057 C 379.973 -0.156137 1.93571 0
M  V30 4058 O 379.248 -1.10222 1.60254 0
M  V30 4059 C 379.531 2.16639 2.87645 0
M  V30 4060 C 379.384 3.68088 2.58517 0
M  V30 4061 C 380.703 2.05378 3.8924 0
M  V30 4062 H 377.822 0.463714 0.572833 0
M  V30 4063 H 380.464 1.64859 0.944539 0
M  V30 4064 H 378.614 1.84725 3.41773 0
M  V30 4065 H 380.286 4.10382 2.10676 0
M  V30 4066 H 378.529 3.89038 1.91917 0
M  V30 4067 H 379.2 4.2598 3.51063 0
M  V30 4068 H 381.676 2.33404 3.44473 0
M  V30 4069 H 380.552 2.7012 4.77835 0
M  V30 4070 H 380.813 1.0316 4.29896 0
M  V30 4071 N 379.872 -1.04064 1.18357 0
M  V30 4072 C 381.097 -1.81454 1.00445 0
M  V30 4073 C 381.522 -1.82823 -0.442423 0
M  V30 4074 O 380.88 -1.24555 -1.31741 0
M  V30 4075 C 380.928 -3.24925 1.56384 0
M  V30 4076 O 380.032 -4.04856 0.785209 0
M  V30 4077 H 379.373 -0.560604 0.355835 0
M  V30 4078 H 381.903 -1.31059 1.57114 0
M  V30 4079 H 381.913 -3.75702 1.59097 0
M  V30 4080 H 380.588 -3.23244 2.61699 0
M  V30 4081 H 379.165 -3.63537 0.830399 0
M  V30 4082 N 381.35 -0.985608 -1.22978 0
M  V30 4083 C 382.298 -0.522631 -2.26652 0
M  V30 4084 C 383.292 0.422998 -1.64034 0
M  V30 4085 O 384.498 0.296319 -1.77544 0
M  V30 4086 H 380.873 -0.150597 -0.736766 0
M  V30 4087 H 382.844 -1.40863 -2.63059 0
M  V30 4088 C 381.593 0.154238 -3.47358 0
M  V30 4089 H 380.916 -0.564329 -3.95797 0
M  V30 4090 H 382.356 0.441744 -4.21693 0
M  V30 4091 C 380.815 1.38719 -3.07016 0
M  V30 4092 O 381.345 2.48307 -3.15764 0
M  V30 4093 N 379.551 1.25975 -2.61875 0
M  V30 4094 H 379.098 0.368068 -2.54957 0
M  V30 4095 H 379.056 2.08578 -2.3525 0
M  V30 4096 N 382.828 1.3818 -0.7579 0
M  V30 4097 C 383.778 2.27741 -0.108674 0
M  V30 4098 C 384.762 1.45415 0.688709 0
M  V30 4099 O 385.954 1.68108 0.553956 0
M  V30 4100 C 383.083 3.34313 0.780367 0
M  V30 4101 C 382.169 4.24093 -0.0240977 0
M  V30 4102 N 382.56 4.9451 -1.06271 0
M  V30 4103 C 380.858 4.45542 0.202049 0
M  V30 4104 C 381.559 5.60675 -1.54979 0
M  V30 4105 N 380.535 5.36684 -0.864348 0
M  V30 4106 H 384.337 2.79649 -0.904071 0
M  V30 4107 H 381.851 1.51133 -0.594346 0
M  V30 4108 H 383.848 3.97368 1.26114 0
M  V30 4109 H 382.508 2.83962 1.57467 0
M  V30 4110 H 383.519 4.97345 -1.44459 0
M  V30 4111 H 380.196 4.06091 0.96935 0
M  V30 4112 H 381.586 6.26992 -2.41517 0
M  V30 4113 N 384.306 0.507319 1.49211 0
M  V30 4114 C 385.554 -0.0348839 2.0207 0
M  V30 4115 C 385.875 -1.36898 1.38866 0
M  V30 4116 O 385.145 -1.88133 0.546151 0
M  V30 4117 H 383.725 -0.0158812 0.746831 0
M  V30 4118 H 386.387 0.665998 1.83168 0
M  V30 4119 H 385.483 -0.159917 3.1169 0
M  V30 4120 N 385.784 -1.5574 0.241426 0
M  V30 4121 C 386.747 -2.19877 -0.647063 0
M  V30 4122 C 387.747 -1.16642 -1.10686 0
M  V30 4123 O 388.937 -1.41757 -1.01245 0
M  V30 4124 C 386.069 -2.83797 -1.88871 0
M  V30 4125 H 387.262 -2.99772 -0.087574 0
M  V30 4126 H 384.815 -1.56298 -0.00813574 0
M  V30 4127 H 385.55 -2.07824 -2.48957 0
M  V30 4128 H 385.335 -3.59414 -1.56728 0
M  V30 4129 H 386.825 -3.32898 -2.52129 0
M  V30 4130 N 387.262 0.0317525 -1.57568 0
M  V30 4131 C 388.678 0.38735 -1.54828 0
M  V30 4132 C 388.878 1.7677 -0.967187 0
M  V30 4133 O 387.934 2.45581 -0.587063 0
M  V30 4134 C 389.247 0.291667 -2.99282 0
M  V30 4135 C 390.795 0.368946 -3.10818 0
M  V30 4136 C 391.27 0.302741 -4.56998 0
M  V30 4137 N 392.761 0.361617 -4.61786 0
M  V30 4138 C 393.496 0.333238 -5.72431 0
M  V30 4139 N 392.992 0.257308 -6.92322 0
M  V30 4140 N 394.785 0.382769 -5.60795 0
M  V30 4141 H 386.936 -0.871609 -1.93692 0
M  V30 4142 H 389.199 -0.331161 -0.888277 0
M  V30 4143 H 388.905 -0.656794 -3.45513 0
M  V30 4144 H 388.779 1.08638 -3.61217 0
M  V30 4145 H 391.166 1.30784 -2.64536 0
M  V30 4146 H 391.247 -0.455066 -2.5172 0
M  V30 4147 H 390.891 -0.632473 -5.03947 0
M  V30 4148 H 390.821 1.14482 -5.14005 0
M  V30 4149 H 393.312 0.422923 -3.75526 0
M  V30 4150 H 393.625 0.24068 -7.72425 0
M  V30 4151 H 391.97 0.223396 -6.94641 0
M  V30 4152 H 395.161 0.44006 -4.66027 0
M  V30 4153 H 395.334 0.357184 -6.47015 0
M  V30 4154 N 388.74 1.54641 0.303973 0
M  V30 4155 C 389.672 1.81754 1.39636 0
M  V30 4156 C 390.685 0.70035 1.46966 0
M  V30 4157 O 391.874 0.97778 1.49338 0
M  V30 4158 C 388.974 1.93785 2.7803 0
M  V30 4159 C 388.147 3.24156 2.93669 0
M  V30 4160 C 387.206 3.26641 4.12544 0
M  V30 4161 O 386.232 4.00187 4.04771 0
M  V30 4162 N 387.434 2.5182 5.23036 0
M  V30 4163 H 390.199 2.76031 1.16734 0
M  V30 4164 H 387.76 1.54178 0.494033 0
M  V30 4165 H 389.752 1.92852 3.55795 0
M  V30 4166 H 388.322 1.06515 2.93893 0
M  V30 4167 H 387.542 3.37887 2.03042 0
M  V30 4168 H 388.83 4.10195 3.01027 0
M  V30 4169 H 388.228 1.91692 5.32232 0
M  V30 4170 H 386.785 2.56644 5.99147 0
M  V30 4171 N 390.218 -0.567019 1.47046 0
M  V30 4172 C 391.148 -1.68482 1.61667 0
M  V30 4173 C 392.129 -1.6358 0.466418 0
M  V30 4174 O 393.314 -1.81354 0.694574 0
M  V30 4175 C 390.444 -3.07124 1.62148 0
M  V30 4176 C 389.398 -3.26867 2.76301 0
M  V30 4177 C 388.724 -4.66196 2.61849 0
M  V30 4178 C 390.024 -3.13186 4.17986 0
M  V30 4179 H 391.718 -1.56502 2.5524 0
M  V30 4180 H 389.264 -0.751486 1.22836 0
M  V30 4181 H 391.217 -3.8516 1.70968 0
M  V30 4182 H 389.941 -3.2004 0.651287 0
M  V30 4183 H 388.6 -2.51237 2.66975 0
M  V30 4184 H 388.248 -4.75898 1.62879 0
M  V30 4185 H 387.948 -4.80356 3.38425 0
M  V30 4186 H 389.472 -5.46379 2.72584 0
M  V30 4187 H 390.886 -3.81049 4.2834 0
M  V30 4188 H 389.283 -3.3886 4.95272 0
M  V30 4189 H 390.353 -2.10057 4.3704 0
M  V30 4190 N 391.696 -1.35014 -0.812953 0
M  V30 4191 C 392.973 -1.18502 -1.55617 0
M  V30 4192 C 393.353 0.238421 -2.09749 0
M  V30 4193 O 392.701 1.2411 -1.91857 0
M  V30 4194 C 392.911 -2.24783 -2.66971 0
M  V30 4195 C 394.259 -2.60268 -3.35478 0
M  V30 4196 O 395.283 -2.23648 -2.77236 0
M  V30 4197 O 394.142 -3.2321 -4.40678 0
M  V30 4198 H 391.236 -0.459984 -0.687272 0
M  V30 4199 H 393.782 -1.46677 -0.853464 0
M  V30 4200 H 392.554 -3.20284 -2.24798 0
M  V30 4201 H 392.177 -1.97841 -3.44884 0
M  V30 4202 N 393.175 1.03435 -1.18907 0
M  V30 4203 C 394.423 1.76394 -0.986382 0
M  V30 4204 C 394.744 1.88883 0.484567 0
M  V30 4205 O 394.014 1.41843 1.3512 0
M  V30 4206 H 392.594 0.65344 -0.361975 0
M  V30 4207 H 395.256 1.248 -1.49703 0
M  V30 4208 H 394.352 2.77424 -1.42978 0
M  V30 4209 N 394.653 0.992116 1.22453 0
M  V30 4210 C 395.899 0.668523 1.91464 0
M  V30 4211 C 396.232 -0.797313 1.77078 0
M  V30 4212 O 395.507 -1.5765 1.13916 0
M  V30 4213 C 395.79 1.07424 3.43703 0
M  V30 4214 C 395.643 2.59857 3.67143 0
M  V30 4215 C 396.962 0.626891 4.35612 0
M  V30 4216 H 394.081 0.244341 0.695318 0
M  V30 4217 H 396.723 1.2355 1.44345 0
M  V30 4218 H 394.873 0.591816 3.83966 0
M  V30 4219 H 396.545 3.15764 3.3629 0
M  V30 4220 H 394.788 3.01961 3.11451 0
M  V30 4221 H 395.459 2.83296 4.73759 0
M  V30 4222 H 397.935 1.04125 4.02861 0
M  V30 4223 H 396.811 0.939076 5.40807 0
M  V30 4224 H 397.072 -0.472457 4.39568 0
M  V30 4225 N 396.131 -1.37776 0.765217 0
M  V30 4226 C 397.542 -1.82521 0.392819 0
M  V30 4227 C 397.893 -1.63789 -1.08017 0
M  V30 4228 O 397.018 -1.14542 -1.83601 0
M  V30 4229 C 397.613 -3.31358 0.706214 0
M  V30 4230 C 396.172 -3.74406 0.386952 0
M  V30 4231 C 395.319 -2.60394 0.953422 0
M  V30 4232 H 398.27 -1.2634 0.960412 0
M  V30 4233 H 398.291 -3.80498 -0.0114706 0
M  V30 4234 H 397.803 -3.44959 1.77833 0
M  V30 4235 H 395.904 -3.66377 -0.678112 0
M  V30 4236 H 396.017 -4.70749 0.890636 0
M  V30 4237 H 394.381 -2.51878 0.378064 0
M  V30 4238 H 395.164 -2.76791 2.03081 0
M  V30 4239 N 397.609 -0.515225 -1.4894 0
M  V30 4240 C 398.572 0.244681 -2.2789 0
M  V30 4241 C 399.572 0.881166 -1.34507 0
M  V30 4242 O 400.762 0.743497 -1.57537 0
M  V30 4243 C 397.894 1.35247 -3.12923 0
M  V30 4244 H 399.087 -0.448289 -2.96531 0
M  V30 4245 H 396.64 -0.270656 -1.53939 0
M  V30 4246 H 397.375 2.07916 -2.48881 0
M  V30 4247 H 397.16 0.901374 -3.81599 0
M  V30 4248 H 398.65 1.88737 -3.72516 0
M  V30 4249 N 399.087 1.5561 -0.249682 0
M  V30 4250 C 400.315 2.03411 0.378352 0
M  V30 4251 C 400.73 1.12886 1.51335 0
M  V30 4252 O 400.087 0.143833 1.81932 0
M  V30 4253 C 400.138 3.50537 0.88351 0
M  V30 4254 O 399.859 4.37614 -0.20626 0
M  V30 4255 C 401.36 4.14113 1.58195 0
M  V30 4256 H 398.58 0.664994 0.08958 0
M  V30 4257 H 401.124 2.01044 -0.374357 0
M  V30 4258 H 399.279 3.5343 1.58639 0
M  V30 4259 H 399.693 5.24199 0.177782 0
M  V30 4260 H 401.167 5.18741 1.8871 0
M  V30 4261 H 401.644 3.60767 2.50487 0
M  V30 4262 H 402.25 4.15151 0.923573 0
M  V30 4263 N 400.565 -0.0233959 1.57583 0
M  V30 4264 C 401.814 -0.712133 1.8871 0
M  V30 4265 C 402.127 -1.76217 0.848944 0
M  V30 4266 O 403.333 -2.50389 1.04964 0
M  V30 4267 C 401.789 -1.3177 3.3491 0
M  V30 4268 C 401.397 -0.303715 4.46969 0
M  V30 4269 C 403.141 -1.98598 3.75179 0
M  V30 4270 C 401.048 -0.917945 5.84233 0
M  V30 4271 H 399.978 -0.269735 0.704101 0
M  V30 4272 H 402.629 0.0333114 1.8347 0
M  V30 4273 H 401.011 -2.11304 3.34913 0
M  V30 4274 H 402.185 0.465325 4.58445 0
M  V30 4275 H 400.5 0.2628 4.1557 0
M  V30 4276 H 403.097 -2.45416 4.75053 0
M  V30 4277 H 403.44 -2.80659 3.07468 0
M  V30 4278 H 403.973 -1.25831 3.77374 0
M  V30 4279 H 400.712 -0.136633 6.55358 0
M  V30 4280 H 400.232 -1.65669 5.76467 0
M  V30 4281 H 401.911 -1.4236 6.31144 0
M  V30 4282 N 402.043 -1.548 -0.295768 0
M  V30 4283 C 403.32 -1.65014 -1.05023 0
M  V30 4284 C 403.7 -0.501805 -2.05049 0
M  V30 4285 O 403.048 0.500869 -2.22943 0
M  V30 4286 C 403.258 -3.03252 -1.72741 0
M  V30 4287 C 404.606 -3.60242 -2.24746 0
M  V30 4288 O 405.63 -3.05737 -1.82765 0
M  V30 4289 O 404.489 -4.55687 -3.01681 0
M  V30 4290 H 401.583 -0.669314 -0.485744 0
M  V30 4291 H 404.129 -1.67144 -0.293438 0
M  V30 4292 H 402.901 -3.7827 -1.00138 0
M  V30 4293 H 402.524 -3.04922 -2.55163 0
M  V30 4294 N 403.521 0.559213 -1.47345 0
M  V30 4295 C 404.767 1.31843 -1.54095 0
M  V30 4296 C 405.1 1.93149 -0.201726 0
M  V30 4297 O 404.375 1.77759 0.789428 0
M  V30 4298 C 404.658 2.43006 -2.65744 0
M  V30 4299 C 404.511 1.86581 -4.09277 0
M  V30 4300 C 405.83 3.44943 -2.73318 0
M  V30 4301 H 402.949 0.478012 -0.560957 0
M  V30 4302 H 405.591 0.625977 -1.79392 0
M  V30 4303 H 403.741 3.02072 -2.44305 0
M  V30 4304 H 405.413 1.31792 -4.42073 0
M  V30 4305 H 403.656 1.17268 -4.17649 0
M  V30 4306 H 404.327 2.66933 -4.83168 0
M  V30 4307 H 406.803 2.95793 -2.92653 0
M  V30 4308 H 405.679 4.20153 -3.53218 0
M  V30 4309 H 405.94 4.03665 -1.80296 0
M  V30 4310 N 404.999 1.35443 0.805782 0
M  V30 4311 C 405.929 1.31095 1.93226 0
M  V30 4312 C 406.91 0.185244 1.69088 0
M  V30 4313 O 408.095 0.380332 1.90439 0
M  V30 4314 C 405.225 1.08299 3.29983 0
M  V30 4315 C 404.179 2.17519 3.68605 0
M  V30 4316 C 403.505 1.79887 5.03532 0
M  V30 4317 C 404.805 3.5949 3.78898 0
M  V30 4318 H 406.499 2.25352 1.97122 0
M  V30 4319 H 404.045 1.0848 0.946996 0
M  V30 4320 H 405.998 1.03897 4.08391 0
M  V30 4321 H 404.722 0.104885 3.26432 0
M  V30 4322 H 403.381 2.2102 2.92482 0
M  V30 4323 H 403.029 0.80693 4.96485 0
M  V30 4324 H 402.729 2.53001 5.30344 0
M  V30 4325 H 404.253 1.77011 5.84379 0
M  V30 4326 H 405.667 3.58307 4.47536 0
M  V30 4327 H 404.064 4.31371 4.1718 0
M  V30 4328 H 405.134 3.95584 2.80431 0
M  V30 4329 N 406.477 -1.02803 1.19454 0
M  V30 4330 C 407.888 -1.57667 0.999899 0
M  V30 4331 C 408.239 -1.91041 -0.446956 0
M  V30 4332 O 407.364 -1.70978 -1.32648 0
M  V30 4333 C 407.959 -2.86477 1.80877 0
M  V30 4334 C 406.518 -3.37911 1.65811 0
M  V30 4335 C 405.665 -2.11343 1.79526 0
M  V30 4336 H 408.616 -0.853214 1.33813 0
M  V30 4337 H 408.637 -3.57408 1.30536 0
M  V30 4338 H 408.149 -2.62155 2.86175 0
M  V30 4339 H 406.25 -3.67218 0.63102 0
M  V30 4340 H 406.363 -4.10885 2.46395 0
M  V30 4341 H 404.727 -2.23254 1.22596 0
M  V30 4342 H 405.51 -1.89461 2.86285 0
M  V30 4343 N 407.956 -0.998596 -1.21925 0
M  V30 4344 C 408.866 -0.562736 -2.27751 0
M  V30 4345 C 409.882 0.391203 -1.69545 0
M  V30 4346 O 411.058 0.256625 -1.99758 0
M  V30 4347 C 408.123 0.11012 -3.46525 0
M  V30 4348 C 407.184 -0.887495 -4.20026 0
M  V30 4349 C 406.417 -0.246654 -5.3313 0
M  V30 4350 O 406.64 0.958088 -5.62296 0
M  V30 4351 O 405.574 -0.954374 -5.94286 0
M  V30 4352 H 409.4 -1.44329 -2.67213 0
M  V30 4353 H 406.985 -0.767135 -1.28201 0
M  V30 4354 H 408.867 0.486756 -4.18579 0
M  V30 4355 H 407.542 0.965154 -3.08976 0
M  V30 4356 H 406.449 -1.31517 -3.5022 0
M  V30 4357 H 407.782 -1.71191 -4.6147 0
M  V30 4358 N 409.434 1.37368 -0.772513 0
M  V30 4359 C 410.683 1.98918 -0.333861 0
M  V30 4360 C 410.996 1.62017 1.09589 0
M  V30 4361 O 412.202 2.16676 1.63596 0
M  V30 4362 C 410.658 3.55735 -0.545971 0
M  V30 4363 C 410.266 4.01573 -1.98603 0
M  V30 4364 C 412.01 4.24156 -0.170979 0
M  V30 4365 C 409.917 5.51102 -2.1457 0
M  V30 4366 H 408.847 0.744214 -0.121085 0
M  V30 4367 H 411.498 1.56888 -0.95175 0
M  V30 4368 H 409.88 3.95748 0.141387 0
M  V30 4369 H 411.054 3.72803 -2.7084 0
M  V30 4370 H 409.369 3.45937 -2.31769 0
M  V30 4371 H 411.966 5.34024 -0.26878 0
M  V30 4372 H 412.309 4.06917 0.878855 0
M  V30 4373 H 412.842 3.89447 -0.810914 0
M  V30 4374 H 409.581 5.73268 -3.17875 0
M  V30 4375 H 409.101 5.81554 -1.46817 0
M  V30 4376 H 410.78 6.17083 -1.94468 0
M  V30 4377 N 410.912 0.523116 1.48665 0
M  V30 4378 C 412.158 -0.0134963 2.02796 0
M  V30 4379 C 412.491 -1.34582 1.40004 0
M  V30 4380 O 411.766 -1.86756 0.543381 0
M  V30 4381 C 412.049 -0.14276 3.59817 0
M  V30 4382 C 411.902 1.21425 4.331 0
M  V30 4383 C 413.221 -0.872856 4.31357 0
M  V30 4384 H 410.34 -0.00343074 0.736992 0
M  V30 4385 H 412.982 0.678816 1.7746 0
M  V30 4386 H 411.132 -0.732401 3.81534 0
M  V30 4387 H 412.804 1.84447 4.2282 0
M  V30 4388 H 411.047 1.79791 3.94788 0
M  V30 4389 H 411.718 1.07687 5.41394 0
M  V30 4390 H 414.194 -0.372555 4.14429 0
M  V30 4391 H 413.07 -0.932185 5.40927 0
M  V30 4392 H 413.331 -1.92161 3.98154 0
M  V30 4393 N 412.39 -1.55475 0.257931 0
M  V30 4394 C 413.3 -2.2549 -0.647425 0
M  V30 4395 C 414.316 -1.2748 -1.18427 0
M  V30 4396 O 415.492 -1.6038 -1.2182 0
M  V30 4397 C 412.557 -2.94916 -1.82278 0
M  V30 4398 C 411.618 -4.08363 -1.32432 0
M  V30 4399 C 410.851 -4.74469 -2.44366 0
M  V30 4400 O 411.074 -4.39701 -3.63344 0
M  V30 4401 O 410.008 -5.62763 -2.13497 0
M  V30 4402 H 413.834 -3.03593 -0.0807707 0
M  V30 4403 H 411.419 -1.49377 0.0259962 0
M  V30 4404 H 413.301 -3.38606 -2.50846 0
M  V30 4405 H 411.976 -2.19744 -2.37685 0
M  V30 4406 H 410.883 -3.69166 -0.605605 0
M  V30 4407 H 412.216 -4.85385 -0.816211 0
M  V30 4408 N 413.868 0.0150385 -1.57593 0
M  V30 4409 C 414.831 0.995996 -2.06428 0
M  V30 4410 C 415.831 1.2818 -0.970903 0
M  V30 4411 O 417.021 1.22949 -1.23406 0
M  V30 4412 C 414.153 2.32506 -2.49307 0
M  V30 4413 H 415.346 0.573873 -2.94358 0
M  V30 4414 H 412.899 0.262186 -1.54085 0
M  V30 4415 H 413.634 2.79438 -1.64575 0
M  V30 4416 H 413.419 2.13087 -3.29145 0
M  V30 4417 H 414.909 3.02906 -2.87468 0
M  V30 4418 N 415.346 1.54954 0.287554 0
M  V30 4419 C 416.592 1.75132 1.02257 0
M  V30 4420 C 416.925 0.542858 1.86458 0
M  V30 4421 O 416.2 -0.459856 1.88986 0
M  V30 4422 C 416.483 3.04812 1.91733 0
M  V30 4423 C 416.336 4.35985 1.10622 0
M  V30 4424 C 417.655 3.30438 2.90687 0
M  V30 4425 H 414.774 0.637194 0.370341 0
M  V30 4426 H 417.416 1.87678 0.296111 0
M  V30 4427 H 415.566 2.94247 2.53675 0
M  V30 4428 H 417.238 4.58487 0.508636 0
M  V30 4429 H 415.481 4.31865 0.409271 0
M  V30 4430 H 416.152 5.23017 1.76513 0
M  V30 4431 H 418.628 3.40701 2.38877 0
M  V30 4432 H 417.504 4.22467 3.50447 0
M  V30 4433 H 417.765 2.49377 3.65053 0
M  V30 4434 N 416.824 -0.551391 1.4764 0
M  V30 4435 C 417.734 -1.68525 1.63207 0
M  V30 4436 C 418.75 -1.6621 0.514815 0
M  V30 4437 O 419.926 -1.85551 0.783113 0
M  V30 4438 C 416.991 -3.05025 1.64805 0
M  V30 4439 C 416.052 -3.18362 2.88 0
M  V30 4440 C 415.285 -4.4835 2.89513 0
M  V30 4441 O 415.508 -5.34163 2.00065 0
M  V30 4442 O 414.442 -4.65602 3.81443 0
M  V30 4443 H 418.268 -1.58333 2.59161 0
M  V30 4444 H 415.853 -0.722063 1.30792 0
M  V30 4445 H 417.735 -3.86245 1.68502 0
M  V30 4446 H 416.41 -3.15587 0.720197 0
M  V30 4447 H 415.317 -2.36518 2.89845 0
M  V30 4448 H 416.65 -3.12707 3.80099 0
M  V30 4449 N 418.302 -1.35869 -0.798587 0
M  V30 4450 C 419.55 -1.29332 -1.55298 0
M  V30 4451 C 419.871 0.129729 -1.94568 0
M  V30 4452 O 419.141 1.06796 -1.6423 0
M  V30 4453 H 417.721 -0.475737 -0.57592 0
M  V30 4454 H 420.383 -1.70062 -0.952093 0
M  V30 4455 H 419.479 -1.91458 -2.46476 0
M  V30 4456 N 419.78 1.02168 -1.19998 0
M  V30 4457 C 420.727 2.10601 -0.944228 0
M  V30 4458 C 421.697 1.65639 0.123664 0
M  V30 4459 O 422.882 1.9079 -0.0199941 0
M  V30 4460 C 420.022 3.41504 -0.496865 0
M  V30 4461 C 419.135 3.99973 -1.63234 0
M  V30 4462 C 418.27 5.18915 -1.13579 0
M  V30 4463 C 417.309 5.69456 -2.24468 0
M  V30 4464 N 416.446 6.79665 -1.76068 0
M  V30 4465 H 421.286 2.31814 -1.8726 0
M  V30 4466 H 418.823 1.13686 -0.933483 0
M  V30 4467 H 420.781 4.16626 -0.218843 0
M  V30 4468 H 419.411 3.2038 0.394508 0
M  V30 4469 H 418.463 3.21997 -2.0254 0
M  V30 4470 H 419.775 4.33492 -2.46752 0
M  V30 4471 H 418.929 6.01222 -0.813429 0
M  V30 4472 H 417.668 4.8695 -0.270434 0
M  V30 4473 H 416.673 4.85757 -2.57526 0
M  V30 4474 H 417.898 6.03459 -3.11472 0
M  V30 4475 H 415.844 6.49538 -0.918516 0
M  V30 4476 H 415.761 7.12349 -2.5317 0
M  V30 4477 H 417.029 7.65549 -1.46817 0
M  V30 4478 N 421.258 1.00505 1.21394 0
M  V30 4479 C 422.504 0.688793 1.90745 0
M  V30 4480 C 422.837 -0.778486 1.77914 0
M  V30 4481 O 422.112 -1.56433 1.15581 0
M  V30 4482 C 422.395 1.11063 3.42545 0
M  V30 4483 C 422.248 2.63737 3.64367 0
M  V30 4484 C 423.567 0.673059 4.34923 0
M  V30 4485 H 420.686 0.251702 0.692687 0
M  V30 4486 H 423.328 1.25074 1.43026 0
M  V30 4487 H 421.478 0.632508 3.83317 0
M  V30 4488 H 423.15 3.19313 3.32922 0
M  V30 4489 H 421.393 3.05248 3.08231 0
M  V30 4490 H 422.064 2.88305 4.70727 0
M  V30 4491 H 424.54 1.08392 4.01734 0
M  V30 4492 H 423.416 0.996383 5.39781 0
M  V30 4493 H 423.677 -0.425808 4.40045 0
M  V30 4494 N 422.737 -1.36956 0.779787 0
M  V30 4495 C 423.647 -2.33965 0.172491 0
M  V30 4496 C 424.663 -1.60574 -0.670222 0
M  V30 4497 O 425.839 -1.92617 -0.588263 0
M  V30 4498 C 422.904 -3.39761 -0.690173 0
M  V30 4499 C 421.965 -4.28964 0.169924 0
M  V30 4500 C 421.198 -5.29707 -0.651662 0
M  V30 4501 O 421.421 -5.38238 -1.88827 0
M  V30 4502 O 420.355 -6.01873 -0.0566264 0
M  V30 4503 H 424.181 -2.87647 0.974321 0
M  V30 4504 H 421.766 -1.39258 0.541078 0
M  V30 4505 H 423.648 -4.04471 -1.1824 0
M  V30 4506 H 422.323 -2.88394 -1.47006 0
M  V30 4507 H 421.23 -3.67326 0.708696 0
M  V30 4508 H 422.563 -4.83656 0.913085 0
M  V30 4509 N 424.215 -0.530993 -1.48385 0
M  V30 4510 C 425.461 0.00274135 -2.028 0
M  V30 4511 C 425.794 1.33838 -1.40716 0
M  V30 4512 O 425.069 1.86465 -0.553277 0
M  V30 4513 C 425.352 0.123676 -3.59888 0
M  V30 4514 C 425.205 -1.2372 -4.3245 0
M  V30 4515 C 426.524 0.849967 -4.31814 0
M  V30 4516 H 423.643 -0.000477758 -0.737 0
M  V30 4517 H 426.285 -0.688217 -1.77098 0
M  V30 4518 H 424.435 0.712157 -3.81917 0
M  V30 4519 H 426.107 -1.86687 -4.21836 0
M  V30 4520 H 424.35 -1.81882 -3.93829 0
M  V30 4521 H 425.021 -1.10557 -5.40815 0
M  V30 4522 H 427.497 0.350572 -4.14621 0
M  V30 4523 H 426.373 0.903486 -5.41413 0
M  V30 4524 H 426.634 1.90047 -3.99167 0
M  V30 4525 N 425.693 1.55336 -0.266172 0
M  V30 4526 C 426.94 1.99397 0.353158 0
M  V30 4527 C 427.268 1.15451 1.56529 0
M  V30 4528 O 426.523 0.209974 1.9457 0
M  V30 4529 C 426.822 3.48606 0.787957 0
M  V30 4530 C 426.488 4.49773 -0.318541 0
M  V30 4531 C 425.15 4.77158 -0.62239 0
M  V30 4532 C 427.502 5.10212 -1.06459 0
M  V30 4533 C 424.83 5.62251 -1.67602 0
M  V30 4534 C 427.182 5.96449 -2.10788 0
M  V30 4535 C 425.846 6.22158 -2.41817 0
M  V30 4536 H 425.116 0.729644 0.12923 0
M  V30 4537 H 427.763 1.87732 -0.37802 0
M  V30 4538 H 426.068 3.57701 1.59866 0
M  V30 4539 H 427.765 3.80098 1.27775 0
M  V30 4540 H 424.355 4.2854 -0.0715925 0
M  V30 4541 H 428.539 4.89086 -0.843098 0
M  V30 4542 H 423.795 5.80419 -1.92155 0
M  V30 4543 H 427.969 6.42317 -2.69076 0
M  V30 4544 H 425.596 6.87888 -3.23596 0
M  V30 4545 N 427.171 -0.0066808 1.57599 0
M  V30 4546 C 428.101 -0.999296 2.11036 0
M  V30 4547 C 429.082 -1.36278 1.01795 0
M  V30 4548 O 430.267 -1.4477 1.29442 0
M  V30 4549 C 427.397 -2.29328 2.60818 0
M  V30 4550 C 426.351 -2.07159 3.74525 0
M  V30 4551 C 425.677 -3.42512 4.10596 0
M  V30 4552 C 426.977 -1.43959 5.02069 0
M  V30 4553 H 428.671 -0.554382 2.94223 0
M  V30 4554 H 426.217 -0.265221 1.41536 0
M  V30 4555 H 428.17 -2.99117 2.96828 0
M  V30 4556 H 426.894 -2.7592 1.74745 0
M  V30 4557 H 425.553 -1.39797 3.38899 0
M  V30 4558 H 425.201 -3.86795 3.21556 0
M  V30 4559 H 424.901 -3.28498 4.87199 0
M  V30 4560 H 426.425 -4.13628 4.4916 0
M  V30 4561 H 427.839 -2.03696 5.35893 0
M  V30 4562 H 426.236 -1.40452 5.83432 0
M  V30 4563 H 427.306 -0.407992 4.83181 0
M  V30 4564 N 428.649 -1.55105 -0.279332 0
M  V30 4565 C 429.926 -1.66119 -1.03267 0
M  V30 4566 C 430.306 -0.523525 -2.04505 0
M  V30 4567 O 429.654 0.477194 -2.23462 0
M  V30 4568 C 429.864 -3.05067 -1.69515 0
M  V30 4569 C 431.212 -3.62606 -2.20912 0
M  V30 4570 O 432.236 -3.07659 -1.79512 0
M  V30 4571 O 431.095 -4.58861 -2.96831 0
M  V30 4572 H 428.189 -0.674429 -0.478618 0
M  V30 4573 H 430.735 -1.67446 -0.275694 0
M  V30 4574 H 429.507 -3.79311 -0.9612 0
M  V30 4575 H 429.13 -3.07611 -2.51915 0
M  V30 4576 N 430.127 0.543554 -1.4793 0
M  V30 4577 C 431.375 1.29752 -1.54948 0
M  V30 4578 C 431.696 1.93764 -0.219242 0
M  V30 4579 O 430.966 1.80639 0.75805 0
M  V30 4580 H 429.546 0.481874 -0.570795 0
M  V30 4581 H 432.208 0.633636 -1.84312 0
M  V30 4582 H 431.304 2.08392 -2.32334 0
M  V30 4583 N 431.605 1.3629 0.791371 0
M  V30 4584 C 432.853 1.30154 1.5461 0
M  V30 4585 C 433.174 -0.119409 1.94634 0
M  V30 4586 O 432.444 -1.05924 1.64794 0
M  V30 4587 H 431.024 0.478784 0.573389 0
M  V30 4588 H 433.686 1.70565 0.94306 0
M  V30 4589 H 432.782 1.92762 2.45457 0
M  V30 4590 N 433.083 -1.0153 1.20538 0
M  V30 4591 C 434.329 -1.75408 1.01783 0
M  V30 4592 C 434.662 -1.88943 -0.448814 0
M  V30 4593 O 433.937 -1.4162 -1.33319 0
M  V30 4594 C 434.22 -3.17255 1.70356 0
M  V30 4595 C 434.073 -3.11508 3.24473 0
M  V30 4596 C 435.392 -4.15955 1.43769 0
M  V30 4597 H 432.511 -0.636713 0.371167 0
M  V30 4598 H 435.153 -1.18436 1.4857 0
M  V30 4599 H 433.303 -3.65898 1.30578 0
M  V30 4600 H 434.975 -2.70658 3.73553 0
M  V30 4601 H 433.218 -2.4887 3.55311 0
M  V30 4602 H 433.889 -4.11784 3.67611 0
M  V30 4603 H 436.365 -3.75973 1.7828 0
M  V30 4604 H 435.241 -5.13368 1.94279 0
M  V30 4605 H 435.502 -4.40586 0.365564 0
M  V30 4606 N 434.561 -1.01147 -1.20859 0
M  V30 4607 C 435.977 -0.725422 -1.42161 0
M  V30 4608 C 436.177 0.696919 -1.89064 0
M  V30 4609 O 435.233 1.46539 -2.05627 0
M  V30 4610 C 436.546 -1.74678 -2.44761 0
M  V30 4611 C 438.094 -1.76433 -2.58535 0
M  V30 4612 C 438.569 -2.77481 -3.64374 0
M  V30 4613 N 440.06 -2.76189 -3.71852 0
M  V30 4614 C 440.795 -3.51035 -4.53389 0
M  V30 4615 N 440.291 -4.35541 -5.38773 0
M  V30 4616 N 442.084 -3.39655 -4.47873 0
M  V30 4617 H 434.235 -1.92979 -0.887282 0
M  V30 4618 H 436.498 -0.833327 -0.451962 0
M  V30 4619 H 436.204 -2.76551 -2.17285 0
M  V30 4620 H 436.078 -1.55472 -3.43669 0
M  V30 4621 H 438.465 -0.75248 -2.85345 0
M  V30 4622 H 438.546 -1.99712 -1.5984 0
M  V30 4623 H 438.19 -3.78827 -3.38308 0
M  V30 4624 H 438.12 -2.51466 -4.6268 0
M  V30 4625 H 440.611 -2.14885 -3.10858 0
M  V30 4626 H 440.924 -4.89432 -5.98061 0
M  V30 4627 H 439.269 -4.39621 -5.38292 0
M  V30 4628 H 442.46 -2.73063 -3.80203 0
M  V30 4629 H 442.633 -3.9824 -5.11184 0
M  V30 4630 N 436.039 1.36541 -0.78704 0
M  V30 4631 C 436.986 2.30082 -0.181901 0
M  V30 4632 C 437.956 1.5186 0.672896 0
M  V30 4633 O 439.141 1.80374 0.622072 0
M  V30 4634 C 436.281 3.3835 0.679197 0
M  V30 4635 C 435.394 4.31565 -0.193882 0
M  V30 4636 C 434.529 5.26915 0.673364 0
M  V30 4637 C 433.568 6.11769 -0.201315 0
M  V30 4638 N 432.705 6.99315 0.624777 0
M  V30 4639 H 437.545 2.81248 -0.985064 0
M  V30 4640 H 435.082 1.38437 -0.497342 0
M  V30 4641 H 437.04 3.99767 1.19341 0
M  V30 4642 H 435.67 2.8851 1.44781 0
M  V30 4643 H 434.722 3.71323 -0.826044 0
M  V30 4644 H 436.034 4.91191 -0.867937 0
M  V30 4645 H 435.188 5.9361 1.25348 0
M  V30 4646 H 433.927 4.67737 1.38105 0
M  V30 4647 H 432.932 5.44039 -0.793849 0
M  V30 4648 H 434.157 6.73022 -0.906568 0
M  V30 4649 H 432.103 6.42648 1.3168 0
M  V30 4650 H 432.02 7.56 0.00835237 0
M  V30 4651 H 433.288 7.70382 1.18879 0
M  V30 4652 N 437.518 0.538854 1.48102 0
M  V30 4653 C 438.766 0.00798599 2.02098 0
M  V30 4654 C 439.087 -1.33922 1.41739 0
M  V30 4655 O 438.357 -1.86932 0.585934 0
M  V30 4656 H 436.937 -3.62179e-05 0.747 0
M  V30 4657 H 439.599 0.7047 1.81714 0
M  V30 4658 H 438.695 -0.0937672 3.11959 0
M  V30 4659 N 438.996 -1.55193 0.274407 0
M  V30 4660 C 440.224 -2.03987 -0.345943 0
M  V30 4661 C 440.639 -1.15279 -1.4952 0
M  V30 4662 O 439.996 -0.172759 -1.8168 0
M  V30 4663 C 440.047 -3.51898 -0.827631 0
M  V30 4664 O 439.768 -4.37231 0.275855 0
M  V30 4665 C 441.269 -4.16577 -1.51587 0
M  V30 4666 H 438.489 -0.666335 -0.0789892 0
M  V30 4667 H 441.033 -2.00423 0.406294 0
M  V30 4668 H 439.188 -3.55909 -1.52996 0
M  V30 4669 H 439.602 -5.24415 -0.0943638 0
M  V30 4670 H 441.076 -5.21678 -1.80433 0
M  V30 4671 H 441.553 -3.64707 -2.44716 0
M  V30 4672 H 442.159 -4.16568 -0.857409 0
M  V30 4673 N 440.474 -0.00167713 -1.576 0
M  V30 4674 C 441.751 0.719951 -1.81868 0
M  V30 4675 C 442.131 1.91895 -0.879747 0
M  V30 4676 O 441.479 2.28389 0.0711423 0
M  V30 4677 C 441.689 1.12409 -3.30402 0
M  V30 4678 C 443.037 1.52724 -3.96182 0
M  V30 4679 O 444.061 1.21784 -3.34734 0
M  V30 4680 O 442.92 2.10265 -5.04431 0
M  V30 4681 H 440.014 0.350707 -0.748955 0
M  V30 4682 H 442.56 -0.0272597 -1.69678 0
M  V30 4683 H 441.332 0.269532 -3.90371 0
M  V30 4684 H 440.955 1.93035 -3.47596 0
M  V30 4685 N 441.952 1.55251 0.271103 0
M  V30 4686 C 443.198 1.76207 1.00394 0
M  V30 4687 C 443.531 0.562604 1.85872 0
M  V30 4688 O 442.806 -0.439785 1.89463 0
M  V30 4689 C 443.089 3.06828 1.8849 0
M  V30 4690 C 442.942 4.37134 1.05992 0
M  V30 4691 C 444.261 3.33503 2.87165 0
M  V30 4692 H 441.38 0.641086 0.363562 0
M  V30 4693 H 444.022 1.87982 0.276189 0
M  V30 4694 H 442.172 2.96921 2.5054 0
M  V30 4695 H 443.844 4.59001 0.459978 0
M  V30 4696 H 442.087 4.32275 0.363443 0
M  V30 4697 H 442.758 5.2486 1.70955 0
M  V30 4698 H 445.234 3.43215 2.3525 0
M  V30 4699 H 444.11 4.2616 3.45946 0
M  V30 4700 H 444.371 2.53235 3.62387 0
M  V30 4701 N 443.43 -0.535701 1.48216 0
M  V30 4702 C 444.36 -1.65014 1.65204 0
M  V30 4703 C 445.341 -1.62554 0.501011 0
M  V30 4704 O 446.526 -1.7984 0.732886 0
M  V30 4705 C 443.656 -3.03616 1.68626 0
M  V30 4706 C 442.61 -3.20932 2.83172 0
M  V30 4707 C 441.936 -4.60537 2.71679 0
M  V30 4708 C 443.236 -3.04249 4.24535 0
M  V30 4709 H 444.93 -1.51053 2.58502 0
M  V30 4710 H 442.476 -0.725262 1.24402 0
M  V30 4711 H 444.429 -3.81446 1.79099 0
M  V30 4712 H 443.153 -3.18587 0.719026 0
M  V30 4713 H 441.812 -2.45517 2.72244 0
M  V30 4714 H 441.46 -4.72336 1.72937 0
M  V30 4715 H 441.16 -4.73069 3.48538 0
M  V30 4716 H 442.684 -5.40475 2.84112 0
M  V30 4717 H 444.098 -3.71877 4.36326 0
M  V30 4718 H 442.495 -3.28278 5.02348 0
M  V30 4719 H 443.565 -2.00739 4.41397 0
M  V30 4720 N 444.908 -1.36708 -0.784132 0
M  V30 4721 C 445.855 -1.31466 -1.89698 0
M  V30 4722 C 446.825 -0.18239 -1.65096 0
M  V30 4723 O 448.01 -0.369762 -1.87183 0
M  V30 4724 C 445.15 -1.1151 -3.26588 0
M  V30 4725 C 444.263 -2.33859 -3.63227 0
M  V30 4726 C 443.398 -2.06873 -4.89262 0
M  V30 4727 C 442.437 -3.25154 -5.18595 0
M  V30 4728 N 441.574 -2.978 -6.35814 0
M  V30 4729 H 446.414 -2.26619 -1.93515 0
M  V30 4730 H 443.951 -1.12625 -0.946256 0
M  V30 4731 H 445.909 -0.979653 -4.05535 0
M  V30 4732 H 444.539 -0.200103 -3.22179 0
M  V30 4733 H 443.591 -2.58188 -2.79362 0
M  V30 4734 H 444.903 -3.22109 -3.8085 0
M  V30 4735 H 444.057 -1.90289 -5.76086 0
M  V30 4736 H 442.796 -1.15942 -4.73718 0
M  V30 4737 H 441.801 -3.42292 -4.30251 0
M  V30 4738 H 443.026 -4.1692 -5.36055 0
M  V30 4739 H 440.972 -2.09485 -6.21653 0
M  V30 4740 H 440.889 -3.7959 -6.53794 0
M  V30 4741 H 442.157 -2.84805 -7.25607 0
M  V30 4742 N 446.386 1.0089 -1.21074 0
M  V30 4743 C 447.349 2.0775 -0.968129 0
M  V30 4744 C 448.349 1.6069 0.0593445 0
M  V30 4745 O 449.539 1.73293 -0.177525 0
M  V30 4746 C 446.671 3.37794 -0.459108 0
M  V30 4747 H 447.864 2.30707 -1.9161 0
M  V30 4748 H 445.417 1.17807 -1.02719 0
M  V30 4749 H 446.152 3.20516 0.49397 0
M  V30 4750 H 445.937 3.7328 -1.20019 0
M  V30 4751 H 447.427 4.16454 -0.309099 0
M  V30 4752 N 447.864 1.01787 1.20321 0
M  V30 4753 C 448.794 0.609625 2.25401 0
M  V30 4754 C 449.775 -0.375951 1.65893 0
M  V30 4755 O 450.96 -0.261101 1.92437 0
M  V30 4756 C 448.09 -0.0515995 3.47262 0
M  V30 4757 C 447.044 0.855095 4.19371 0
M  V30 4758 C 446.37 0.0595757 5.34667 0
M  V30 4759 C 447.67 2.16374 4.75373 0
M  V30 4760 H 449.364 1.48803 2.59804 0
M  V30 4761 H 446.91 0.716934 1.24884 0
M  V30 4762 H 448.863 -0.348764 4.19954 0
M  V30 4763 H 447.587 -0.964726 3.12027 0
M  V30 4764 H 446.246 1.13628 3.48546 0
M  V30 4765 H 445.894 -0.85524 4.95676 0
M  V30 4766 H 445.594 0.663406 5.83843 0
M  V30 4767 H 447.118 -0.231105 6.10162 0
M  V30 4768 H 448.532 1.92885 5.39878 0
M  V30 4769 H 446.929 2.71853 5.34991 0
M  V30 4770 H 447.999 2.82589 3.94045 0
M  V30 4771 N 449.342 -1.36122 0.79427 0
M  V30 4772 C 450.305 -2.28309 0.201889 0
M  V30 4773 C 451.305 -1.49041 -0.603603 0
M  V30 4774 O 452.495 -1.68964 -0.423888 0
M  V30 4775 C 449.627 -3.3321 -0.719978 0
M  V30 4776 H 450.82 -2.82208 1.01481 0
M  V30 4777 H 448.373 -1.45768 0.564037 0
M  V30 4778 H 449.108 -2.84475 -1.55706 0
M  V30 4779 H 448.893 -3.91835 -0.144266 0
M  V30 4780 H 450.383 -4.02044 -1.12916 0
M  V30 4781 N 450.82 -0.546701 -1.47814 0
M  V30 4782 C 451.75 0.195317 -2.32682 0
M  V30 4783 C 452.731 0.918981 -1.43139 0
M  V30 4784 O 453.916 0.901501 -1.72008 0
M  V30 4785 C 451.046 1.23237 -3.247 0
M  V30 4786 C 450 0.625818 -4.234 0
M  V30 4787 C 449.326 1.76674 -5.04669 0
M  V30 4788 C 450.626 -0.413515 -5.2066 0
M  V30 4789 H 452.32 -0.513184 -2.94969 0
M  V30 4790 H 449.866 -0.248241 -1.41844 0
M  V30 4791 H 451.819 1.75955 -3.82907 0
M  V30 4792 H 450.543 1.97067 -2.60446 0
M  V30 4793 H 449.202 0.120023 -3.66403 0
M  V30 4794 H 448.85 2.49383 -4.36826 0
M  V30 4795 H 448.55 1.36673 -5.71484 0
M  V30 4796 H 450.074 2.29738 -5.65732 0
M  V30 4797 H 451.488 0.0272042 -5.73294 0
M  V30 4798 H 449.885 -0.731825 -5.95621 0
M  V30 4799 H 450.955 -1.31325 -4.66778 0
M  V30 4800 N 452.299 1.55045 -0.282633 0
M  V30 4801 C 453.547 1.99365 0.331334 0
M  V30 4802 C 453.868 1.1725 1.55812 0
M  V30 4803 O 453.138 0.263871 1.94115 0
M  V30 4804 H 451.718 0.736397 0.125414 0
M  V30 4805 H 454.38 1.90964 -0.389711 0
M  V30 4806 H 453.476 3.0596 0.616036 0
M  V30 4807 N 453.777 0.010035 1.57597 0
M  V30 4808 C 454.74 -0.963029 2.07986 0
M  V30 4809 C 455.74 -1.26619 0.991173 0
M  V30 4810 O 456.93 -1.2097 1.25347 0
M  V30 4811 C 454.062 -2.2851 2.52974 0
M  V30 4812 H 455.255 -0.526971 2.95234 0
M  V30 4813 H 452.808 -0.237639 1.54483 0
M  V30 4814 H 453.543 -2.76784 1.69 0
M  V30 4815 H 453.328 -2.07824 3.32493 0
M  V30 4816 H 454.818 -2.98294 2.9225 0
M  V30 4817 N 455.255 -1.55392 -0.262866 0
M  V30 4818 C 456.202 -1.88966 -1.32516 0
M  V30 4819 C 457.172 -0.742187 -1.48596 0
M  V30 4820 O 458.357 -0.99439 -1.62839 0
M  V30 4821 C 455.497 -2.17592 -2.67858 0
M  V30 4822 C 454.61 -3.45061 -2.59917 0
M  V30 4823 C 453.745 -3.63336 -3.87505 0
M  V30 4824 C 452.784 -4.84462 -3.74116 0
M  V30 4825 N 451.921 -4.99342 -4.93561 0
M  V30 4826 H 456.761 -2.79566 -1.03184 0
M  V30 4827 H 454.298 -1.38404 -0.498285 0
M  V30 4828 H 456.256 -2.3219 -3.46617 0
M  V30 4829 H 454.886 -1.30215 -2.95371 0
M  V30 4830 H 453.938 -3.38881 -1.72812 0
M  V30 4831 H 455.25 -4.3396 -2.45926 0
M  V30 4832 H 454.404 -3.77807 -4.74707 0
M  V30 4833 H 453.143 -2.72641 -4.04374 0
M  V30 4834 H 452.148 -4.69985 -2.85297 0
M  V30 4835 H 453.373 -5.76603 -3.58757 0
M  V30 4836 H 451.319 -4.1158 -5.10821 0
M  V30 4837 H 451.236 -5.82303 -4.82141 0
M  V30 4838 H 452.504 -5.18208 -5.82306 0
M  V30 4839 N 456.733 0.527833 -1.48498 0
M  V30 4840 C 457.696 1.61439 -1.62696 0
M  V30 4841 C 458.696 1.52824 -0.500136 0
M  V30 4842 O 459.886 1.56456 -0.765976 0
M  V30 4843 C 457.018 3.01063 -1.59918 0
M  V30 4844 H 458.211 1.50189 -2.59583 0
M  V30 4845 H 455.764 0.750055 -1.37127 0
M  V30 4846 H 456.499 3.17818 -0.645163 0
M  V30 4847 H 456.284 3.08725 -2.41726 0
M  V30 4848 H 457.774 3.80057 -1.73051 0
M  V30 4849 N 458.211 1.37122 0.776871 0
M  V30 4850 C 459.457 1.32243 1.53752 0
M  V30 4851 C 459.79 -0.0944745 1.9397 0
M  V30 4852 O 459.065 -1.05068 1.6368 0
M  V30 4853 C 459.348 2.25681 2.80607 0
M  V30 4854 C 459.201 3.76127 2.46676 0
M  V30 4855 C 460.52 2.17657 3.82509 0
M  V30 4856 H 457.639 0.481704 0.557791 0
M  V30 4857 H 460.281 1.6778 0.891612 0
M  V30 4858 H 458.431 1.95505 3.35723 0
M  V30 4859 H 460.103 4.16877 1.97513 0
M  V30 4860 H 458.346 3.94946 1.79443 0
M  V30 4861 H 459.017 4.36933 3.37333 0
M  V30 4862 H 461.493 2.44245 3.36873 0
M  V30 4863 H 460.369 2.85185 4.69 0
M  V30 4864 H 460.63 1.16785 4.26396 0
M  V30 4865 N 459.689 -1.00246 1.21608 0
M  V30 4866 C 460.936 -1.74061 1.03485 0
M  V30 4867 C 461.264 -1.89658 -0.431308 0
M  V30 4868 O 460.519 -1.42976 -1.33627 0
M  V30 4869 C 460.818 -3.15448 1.68009 0
M  V30 4870 C 460.484 -3.19792 3.17874 0
M  V30 4871 C 459.146 -3.20685 3.58768 0
M  V30 4872 C 461.498 -3.16835 4.13842 0
M  V30 4873 C 458.826 -3.16309 4.94131 0
M  V30 4874 C 461.178 -3.14001 5.49169 0
M  V30 4875 C 459.842 -3.13204 5.89457 0
M  V30 4876 H 459.112 -0.636934 0.378677 0
M  V30 4877 H 461.759 -1.17473 1.51236 0
M  V30 4878 H 460.064 -3.75284 1.12557 0
M  V30 4879 H 461.761 -3.71285 1.51487 0
M  V30 4880 H 458.351 -3.19842 2.85305 0
M  V30 4881 H 462.535 -3.15303 3.83272 0
M  V30 4882 H 457.791 -3.14032 5.24589 0
M  V30 4883 H 461.965 -3.10667 6.23265 0
M  V30 4884 H 459.592 -3.09568 6.94314 0
M  V30 4885 N 461.167 -1.02423 -1.1978 0
M  V30 4886 C 462.413 -0.719051 -1.89625 0
M  V30 4887 C 462.746 0.750083 -1.7913 0
M  V30 4888 O 462.021 1.54574 -1.18056 0
M  V30 4889 C 462.304 -1.16499 -3.40735 0
M  V30 4890 C 462.157 -2.695 -3.60125 0
M  V30 4891 C 463.476 -0.742166 -4.33797 0
M  V30 4892 H 460.595 -0.26269 -0.688595 0
M  V30 4893 H 463.237 -1.27333 -1.41018 0
M  V30 4894 H 461.387 -0.69341 -3.82262 0
M  V30 4895 H 463.059 -3.24569 -3.278 0
M  V30 4896 H 461.302 -3.10113 -3.03336 0
M  V30 4897 H 461.973 -2.95757 -4.66081 0
M  V30 4898 H 464.449 -1.1477 -3.99959 0
M  V30 4899 H 463.325 -1.08213 -5.38127 0
M  V30 4900 H 463.586 0.355747 -4.40666 0
M  V30 4901 N 462.645 1.35699 -0.801477 0
M  V30 4902 C 463.893 1.9852 -0.37871 0
M  V30 4903 C 464.214 1.63907 1.05638 0
M  V30 4904 O 463.484 0.919013 1.73006 0
M  V30 4905 H 462.064 0.734322 -0.137042 0
M  V30 4906 H 464.726 1.65697 -1.02619 0
M  V30 4907 H 463.822 3.08382 -0.480284 0
M  V30 4908 N 464.123 0.554532 1.47522 0
M  V30 4909 C 465.539 0.214107 1.58157 0
M  V30 4910 C 465.739 -1.28331 1.55349 0
M  V30 4911 O 464.795 -2.06329 1.45549 0
M  V30 4912 C 466.108 0.838391 2.88776 0
M  V30 4913 C 467.656 0.809374 3.02354 0
M  V30 4914 C 468.131 1.41268 4.35669 0
M  V30 4915 N 469.622 1.37574 4.42298 0
M  V30 4916 C 470.357 1.8122 5.4401 0
M  V30 4917 N 469.853 2.3271 6.52547 0
M  V30 4918 N 471.646 1.72307 5.35039 0
M  V30 4919 H 463.797 1.52744 1.4759 0
M  V30 4920 H 466.06 0.636812 0.702264 0
M  V30 4921 H 465.766 1.89065 2.96559 0
M  V30 4922 H 465.64 0.329847 3.75755 0
M  V30 4923 H 468.027 -0.234187 2.94169 0
M  V30 4924 H 468.108 1.35565 2.16924 0
M  V30 4925 H 467.752 2.45529 4.4461 0
M  V30 4926 H 467.682 0.841871 5.19827 0
M  V30 4927 H 470.173 0.999081 3.64454 0
M  V30 4928 H 470.486 2.63944 7.26329 0
M  V30 4929 H 468.831 2.36719 6.53444 0
M  V30 4930 H 472.022 1.3186 4.49144 0
M  V30 4931 H 472.195 2.06641 6.14169 0
M  V30 4932 N 465.601 -1.54893 0.290851 0
M  V30 4933 C 467.012 -1.85584 -0.203816 0
M  V30 4934 C 467.363 -1.21285 -1.54222 0
M  V30 4935 O 466.488 -0.506841 -2.10381 0
M  V30 4936 C 467.083 -3.367 -0.376595 0
M  V30 4937 C 465.642 -3.6746 -0.815485 0
M  V30 4938 C 464.789 -2.77178 0.0821087 0
M  V30 4939 H 467.74 -1.50208 0.512175 0
M  V30 4940 H 467.761 -3.60656 -1.21275 0
M  V30 4941 H 467.273 -3.8347 0.59767 0
M  V30 4942 H 465.374 -3.26201 -1.80066 0
M  V30 4943 H 465.487 -4.7478 -0.641905 0
M  V30 4944 H 463.851 -2.50925 -0.436895 0
M  V30 4945 H 464.634 -3.26767 1.05254 0
M  V30 4946 N 467.08 -0.0183926 -1.57589 0
M  V30 4947 C 468.329 0.66185 -1.90532 0
M  V30 4948 C 468.642 1.73904 -0.895366 0
M  V30 4949 O 469.848 2.47518 -1.11566 0
M  V30 4950 C 468.304 1.22844 -3.38286 0
M  V30 4951 C 467.912 0.185103 -4.47617 0
M  V30 4952 C 469.656 1.88581 -3.80312 0
M  V30 4953 C 467.563 0.762723 -5.86461 0
M  V30 4954 H 466.493 0.250972 -0.711006 0
M  V30 4955 H 469.144 -0.0819435 -1.83317 0
M  V30 4956 H 467.526 2.0235 -3.40398 0
M  V30 4957 H 468.7 -0.58671 -4.5705 0
M  V30 4958 H 467.015 -0.372889 -4.14727 0
M  V30 4959 H 469.612 2.32735 -4.81392 0
M  V30 4960 H 469.955 2.72408 -3.14801 0
M  V30 4961 H 470.488 1.15782 -3.80578 0
M  V30 4962 H 467.227 -0.0371713 -6.55489 0
M  V30 4963 H 466.747 1.50327 -5.80656 0
M  V30 4964 H 468.426 1.25576 -6.34697 0
M  V30 4965 N 468.558 1.5553 0.254621 0
M  V30 4966 C 469.804 1.77262 0.985193 0
M  V30 4967 C 470.137 0.582286 1.85265 0
M  V30 4968 O 469.412 -0.419666 1.89919 0
M  V30 4969 C 469.695 3.0881 1.85225 0
M  V30 4970 C 469.548 4.38233 1.0135 0
M  V30 4971 C 470.867 3.3653 2.83612 0
M  V30 4972 H 467.986 0.644906 0.356742 0
M  V30 4973 H 470.628 1.88264 0.256236 0
M  V30 4974 H 468.778 2.99562 2.47376 0
M  V30 4975 H 470.45 4.59463 0.411269 0
M  V30 4976 H 468.693 4.32636 0.317574 0
M  V30 4977 H 469.364 5.26644 1.65379 0
M  V30 4978 H 471.84 3.45691 2.31596 0
M  V30 4979 H 470.716 4.29805 3.41407 0
M  V30 4980 H 470.977 2.57064 3.59681 0
M  V30 4981 N 470.036 -0.519951 1.48776 0
M  V30 4982 C 471.282 -1.27456 1.58514 0
M  V30 4983 C 471.637 -1.90634 0.260057 0
M  V30 4984 O 470.93 -1.76815 -0.738036 0
M  V30 4985 C 471.124 -2.37864 2.6675 0
M  V30 4986 C 470.953 -1.85509 4.09654 0
M  V30 4987 C 469.723 -1.67661 4.76674 0
M  V30 4988 C 471.921 -1.37783 4.955 0
M  V30 4989 N 469.903 -1.10037 6.03958 0
M  V30 4990 C 471.274 -0.921714 6.1311 0
M  V30 4991 C 473.329 -1.26179 4.81646 0
M  V30 4992 C 472.032 -0.361057 7.18393 0
M  V30 4993 C 474.058 -0.715121 5.8706 0
M  V30 4994 C 473.42 -0.269132 7.03886 0
M  V30 4995 H 469.519 -0.457049 0.634531 0
M  V30 4996 H 472.103 -0.585073 1.85701 0
M  V30 4997 H 470.274 -3.04296 2.41367 0
M  V30 4998 H 472.006 -3.04901 2.66116 0
M  V30 4999 H 468.761 -1.91478 4.33166 0
M  V30 5000 H 469.185 -0.832067 6.71867 0
M  V30 5001 H 473.827 -1.59263 3.91657 0
M  V30 5002 H 471.545 -0.0179127 8.08098 0
M  V30 5003 H 475.131 -0.628376 5.78397 0
M  V30 5004 H 474.011 0.14729 7.84062 0
M  V30 5005 N 471.514 -1.37532 -0.769588 0
M  V30 5006 C 472.762 -1.32597 -1.5252 0
M  V30 5007 C 473.083 0.0884294 -1.94799 0
M  V30 5008 O 472.353 1.03289 -1.66458 0
M  V30 5009 H 470.933 -0.487846 -0.565699 0
M  V30 5010 H 473.595 -1.72044 -0.915806 0
M  V30 5011 H 472.691 -1.96643 -2.42359 0
M  V30 5012 N 472.992 0.995999 -1.22138 0
M  V30 5013 C 473.922 2.10387 -1.01289 0
M  V30 5014 C 474.903 1.69975 0.0651454 0
M  V30 5015 O 476.088 1.9396 -0.0964628 0
M  V30 5016 C 473.218 3.42312 -0.586517 0
M  V30 5017 C 472.172 3.96558 -1.61014 0
M  V30 5018 C 471.498 5.24494 -1.0397 0
M  V30 5019 C 472.798 4.27595 -2.99933 0
M  V30 5020 H 474.492 2.28086 -1.93951 0
M  V30 5021 H 472.038 1.09607 -0.933928 0
M  V30 5022 H 473.991 4.19223 -0.427793 0
M  V30 5023 H 472.715 3.24431 0.375761 0
M  V30 5024 H 471.374 3.21776 -1.75658 0
M  V30 5025 H 471.022 5.02953 -0.0688703 0
M  V30 5026 H 470.722 5.61755 -1.72352 0
M  V30 5027 H 472.246 6.04042 -0.892494 0
M  V30 5028 H 473.66 4.95315 -2.8868 0
M  V30 5029 H 472.057 4.76021 -3.6541 0
M  V30 5030 H 473.127 3.35498 -3.50099 0
M  V30 5031 N 474.47 1.03057 1.19235 0
M  V30 5032 C 475.433 0.617418 2.20727 0
M  V30 5033 C 476.433 -0.319856 1.57587 0
M  V30 5034 O 477.623 -0.106633 1.73873 0
M  V30 5035 C 474.755 -0.096296 3.40764 0
M  V30 5036 H 475.948 1.51544 2.58794 0
M  V30 5037 H 473.501 0.821949 1.32942 0
M  V30 5038 H 474.236 -1.00859 3.08217 0
M  V30 5039 H 474.021 0.577217 3.87828 0
M  V30 5040 H 475.511 -0.372219 4.15938 0
M  V30 5041 N 475.948 -1.35272 0.808662 0
M  V30 5042 C 477.195 -1.98709 0.390003 0
M  V30 5043 C 477.523 -1.64148 -1.04335 0
M  V30 5044 O 476.778 -0.897797 -1.73891 0
M  V30 5045 C 477.077 -3.53556 0.522798 0
M  V30 5046 C 476.743 -4.0799 1.91977 0
M  V30 5047 C 475.405 -4.22568 2.30195 0
M  V30 5048 C 477.757 -4.37442 2.83361 0
M  V30 5049 C 475.085 -4.63918 3.59162 0
M  V30 5050 C 477.437 -4.80232 4.11776 0
M  V30 5051 C 476.101 -4.93016 4.49991 0
M  V30 5052 H 475.371 -0.727127 0.142712 0
M  V30 5053 H 478.018 -1.6145 1.02985 0
M  V30 5054 H 476.323 -3.91287 -0.200494 0
M  V30 5055 H 478.02 -4.00598 0.179608 0
M  V30 5056 H 474.61 -3.97096 1.61284 0
M  V30 5057 H 478.794 -4.25731 2.55083 0
M  V30 5058 H 474.05 -4.72005 3.88615 0
M  V30 5059 H 478.224 -5.01982 4.82687 0
M  V30 5060 H 475.851 -5.24814 5.49976 0
M  V30 5061 N 477.426 -0.562348 -1.47226 0
M  V30 5062 C 478.358 0.220011 -2.28142 0
M  V30 5063 C 479.371 0.874596 -1.37312 0
M  V30 5064 O 480.56 0.747583 -1.62091 0
M  V30 5065 C 477.66 1.32953 -3.11732 0
M  V30 5066 C 476.833 0.770759 -4.30556 0
M  V30 5067 C 475.892 1.76541 -4.95701 0
M  V30 5068 O 474.918 1.3095 -5.53932 0
M  V30 5069 N 476.12 3.09896 -4.90861 0
M  V30 5070 H 478.885 -0.474107 -2.95926 0
M  V30 5071 H 476.446 -0.398761 -1.56912 0
M  V30 5072 H 478.438 1.99378 -3.5218 0
M  V30 5073 H 477.008 1.92681 -2.46156 0
M  V30 5074 H 476.228 -0.0704056 -3.94137 0
M  V30 5075 H 477.516 0.376872 -5.07402 0
M  V30 5076 H 476.914 3.49577 -4.44761 0
M  V30 5077 H 475.471 3.71865 -5.35313 0
M  V30 5078 N 478.904 1.54736 -0.299062 0
M  V30 5079 C 480.152 1.99706 0.31017 0
M  V30 5080 C 480.473 1.18896 1.54559 0
M  V30 5081 O 479.743 0.284445 1.93824 0
M  V30 5082 H 478.323 0.737686 0.117596 0
M  V30 5083 H 480.985 1.9054 -0.409943 0
M  V30 5084 H 480.081 3.06596 0.58355 0
M  V30 5085 N 480.382 0.0267497 1.57577 0
M  V30 5086 C 481.292 -0.971633 2.13533 0
M  V30 5087 C 482.308 -1.35868 1.08701 0
M  V30 5088 O 483.484 -1.44058 1.40746 0
M  V30 5089 C 480.549 -2.23622 2.64941 0
M  V30 5090 C 479.61 -1.90982 3.8448 0
M  V30 5091 C 478.843 -3.11411 4.33427 0
M  V30 5092 O 479.066 -4.23992 3.81558 0
M  V30 5093 O 478 -2.93848 5.25297 0
M  V30 5094 H 481.826 -0.525853 2.99113 0
M  V30 5095 H 479.411 -0.193712 1.48139 0
M  V30 5096 H 481.293 -2.97864 2.98086 0
M  V30 5097 H 479.968 -2.67386 1.82446 0
M  V30 5098 H 478.875 -1.14132 3.56265 0
M  V30 5099 H 480.208 -1.52036 4.6813 0
M  V30 5100 N 481.861 -1.55662 -0.24637 0
M  V30 5101 C 482.808 -1.90361 -1.30504 0
M  V30 5102 C 483.778 -0.757905 -1.47801 0
M  V30 5103 O 484.963 -1.01161 -1.61775 0
M  V30 5104 C 482.103 -2.2042 -2.65535 0
M  V30 5105 C 481.216 -3.47799 -2.56242 0
M  V30 5106 C 480.351 -3.67426 -3.8363 0
M  V30 5107 C 479.39 -4.88403 -3.68956 0
M  V30 5108 N 478.527 -5.04548 -4.88237 0
M  V30 5109 H 483.367 -2.80645 -1.00213 0
M  V30 5110 H 480.904 -1.38924 -0.483577 0
M  V30 5111 H 482.862 -2.35853 -3.44135 0
M  V30 5112 H 481.492 -1.3334 -2.93973 0
M  V30 5113 H 480.544 -3.40694 -1.69208 0
M  V30 5114 H 481.856 -4.36544 -2.4131 0
M  V30 5115 H 481.01 -3.82821 -4.70673 0
M  V30 5116 H 479.749 -2.76914 -4.01459 0
M  V30 5117 H 478.754 -4.72984 -2.80296 0
M  V30 5118 H 479.979 -5.80375 -3.52621 0
M  V30 5119 H 477.925 -4.16974 -5.06427 0
M  V30 5120 H 477.842 -5.87384 -4.75937 0
M  V30 5121 H 479.11 -5.24355 -5.76777 0
M  V30 5122 N 483.339 0.512053 -1.4905 0
M  V30 5123 C 484.587 1.26436 -1.57665 0
M  V30 5124 C 484.908 1.93255 -0.260293 0
M  V30 5125 O 484.178 1.82206 0.719564 0
M  V30 5126 H 482.758 0.469658 -0.580888 0
M  V30 5127 H 485.42 0.594398 -1.85615 0
M  V30 5128 H 484.516 2.03417 -2.36702 0
M  V30 5129 N 484.817 1.37938 0.762283 0
M  V30 5130 C 486.063 1.33866 1.52341 0
M  V30 5131 C 486.396 -0.0738961 1.94059 0
M  V30 5132 O 485.671 -1.03326 1.64785 0
M  V30 5133 C 485.954 2.28644 2.78197 0
M  V30 5134 C 485.807 3.78722 2.42672 0
M  V30 5135 C 487.126 2.21702 3.80179 0
M  V30 5136 H 484.245 0.487593 0.55265 0
M  V30 5137 H 486.887 1.68717 0.873767 0
M  V30 5138 H 485.037 1.99055 3.33631 0
M  V30 5139 H 486.709 4.18948 1.93081 0
M  V30 5140 H 484.952 3.96827 1.75244 0
M  V30 5141 H 485.623 4.40486 3.3268 0
M  V30 5142 H 488.099 2.47805 3.34263 0
M  V30 5143 H 486.975 2.90143 4.65949 0
M  V30 5144 H 487.236 1.21301 4.25133 0
M  V30 5145 N 486.295 -0.989507 1.22664 0
M  V30 5146 C 487.227 -2.0824 0.957542 0
M  V30 5147 C 488.24 -1.6267 -0.0651098 0
M  V30 5148 O 489.429 -1.77695 0.169312 0
M  V30 5149 C 486.529 -3.36298 0.419145 0
M  V30 5150 C 485.702 -4.10882 1.49982 0
M  V30 5151 C 484.761 -5.17221 0.967904 0
M  V30 5152 O 483.787 -5.44613 1.65487 0
M  V30 5153 N 484.989 -5.80124 -0.20896 0
M  V30 5154 H 487.754 -2.31904 1.89843 0
M  V30 5155 H 485.315 -1.15552 1.13399 0
M  V30 5156 H 487.307 -4.04671 0.0485451 0
M  V30 5157 H 485.877 -3.09671 -0.426937 0
M  V30 5158 H 485.097 -3.37092 2.04359 0
M  V30 5159 H 486.385 -4.57482 2.22682 0
M  V30 5160 H 485.783 -5.60244 -0.783818 0
M  V30 5161 H 484.34 -6.49715 -0.520913 0
M  V30 5162 N 487.773 -1.03688 -1.18687 0
M  V30 5163 C 489.05 -0.652397 -1.84399 0
M  V30 5164 C 489.43 0.868386 -1.92412 0
M  V30 5165 O 488.778 1.76832 -1.44716 0
M  V30 5166 C 488.988 -1.3238 -3.22919 0
M  V30 5167 C 490.336 -1.45216 -3.98996 0
M  V30 5168 O 491.36 -1.2816 -3.32345 0
M  V30 5169 O 490.219 -1.72975 -5.18403 0
M  V30 5170 H 487.313 -0.227793 -0.795009 0
M  V30 5171 H 489.859 -1.13553 -1.2611 0
M  V30 5172 H 488.631 -2.36202 -3.11968 0
M  V30 5173 H 488.254 -0.829039 -3.88861 0
M  V30 5174 N 489.251 1.34841 -0.815825 0
M  V30 5175 C 490.497 1.98793 -0.401129 0
M  V30 5176 C 490.83 1.64548 1.03139 0
M  V30 5177 O 490.105 0.913487 1.71714 0
M  V30 5178 C 490.388 3.55143 -0.595409 0
M  V30 5179 C 490.241 3.99155 -2.07352 0
M  V30 5180 C 491.56 4.40092 -0.0268823 0
M  V30 5181 H 488.679 0.722146 -0.14722 0
M  V30 5182 H 491.321 1.59847 -1.02707 0
M  V30 5183 H 489.471 3.8845 -0.0625779 0
M  V30 5184 H 491.143 3.76216 -2.66945 0
M  V30 5185 H 489.386 3.49726 -2.56659 0
M  V30 5186 H 490.057 5.07971 -2.1603 0
M  V30 5187 H 492.533 4.13298 -0.482042 0
M  V30 5188 H 491.409 5.48562 -0.19267 0
M  V30 5189 H 491.67 4.29016 1.06759 0
M  V30 5190 N 490.729 0.570148 1.46925 0
M  V30 5191 C 491.659 -0.158274 2.32963 0
M  V30 5192 C 492.64 -0.896093 1.44583 0
M  V30 5193 O 493.825 -0.874022 1.7342 0
M  V30 5194 C 490.955 -1.18055 3.26619 0
M  V30 5195 C 489.909 -0.558379 4.24342 0
M  V30 5196 C 489.235 -1.68623 5.07415 0
M  V30 5197 C 490.535 0.496295 5.19937 0
M  V30 5198 H 492.229 0.560046 2.94115 0
M  V30 5199 H 489.775 0.270775 1.41431 0
M  V30 5200 H 491.728 -1.69841 3.85658 0
M  V30 5201 H 490.452 -1.92899 2.63548 0
M  V30 5202 H 489.111 -0.0617157 3.66548 0
M  V30 5203 H 488.759 -2.42402 4.40738 0
M  V30 5204 H 488.459 -1.27564 5.73586 0
M  V30 5205 H 489.983 -2.20709 5.69315 0
M  V30 5206 H 491.397 0.0640052 5.73264 0
M  V30 5207 H 489.794 0.82649 5.94381 0
M  V30 5208 H 490.864 1.38735 4.6463 0
M  V30 5209 N 492.207 -1.54576 0.307264 0
M  V30 5210 C 493.117 -2.27435 -0.57536 0
M  V30 5211 C 494.133 -1.31183 -1.14311 0
M  V30 5212 O 495.309 -1.64175 -1.16656 0
M  V30 5213 C 492.374 -3.00566 -1.72803 0
M  V30 5214 C 491.435 -4.12369 -1.19373 0
M  V30 5215 C 490.668 -4.82003 -2.29147 0
M  V30 5216 O 490.891 -4.51038 -3.49171 0
M  V30 5217 O 489.825 -5.69271 -1.95485 0
M  V30 5218 H 493.651 -3.03696 0.0158558 0
M  V30 5219 H 491.236 -1.49219 0.0735064 0
M  V30 5220 H 493.118 -3.46416 -2.39946 0
M  V30 5221 H 491.793 -2.27195 -2.30574 0
M  V30 5222 H 490.7 -3.70905 -0.487851 0
M  V30 5223 H 492.033 -4.87736 -0.661376 0
M  V30 5224 N 493.685 -0.035106 -1.57561 0
M  V30 5225 C 494.934 0.641604 -1.91223 0
M  V30 5226 C 495.247 1.72944 -0.913761 0
M  V30 5227 O 496.453 2.46321 -1.14185 0
M  V30 5228 C 494.909 1.19249 -3.3957 0
M  V30 5229 C 494.517 0.137616 -4.47789 0
M  V30 5230 C 496.261 1.84537 -3.82291 0
M  V30 5231 C 494.168 0.700478 -5.87237 0
M  V30 5232 H 493.098 0.243417 -0.713627 0
M  V30 5233 H 495.749 -0.101382 -1.8322 0
M  V30 5234 H 494.131 1.98728 -3.42525 0
M  V30 5235 H 495.305 -0.635153 -4.56402 0
M  V30 5236 H 493.62 -0.416855 -4.14308 0
M  V30 5237 H 496.217 2.27616 -4.83834 0
M  V30 5238 H 496.56 2.69054 -3.17672 0
M  V30 5239 H 497.093 1.11739 -3.81784 0
M  V30 5240 H 493.832 -0.106693 -6.55413 0
M  V30 5241 H 493.352 1.4416 -5.82218 0
M  V30 5242 H 495.031 1.18837 -6.35993 0
M  V30 5243 N 495.163 1.55791 0.238111 0
M  V30 5244 C 496.093 1.94068 1.29846 0
M  V30 5245 C 497.074 0.806726 1.49753 0
M  V30 5246 O 498.259 1.06772 1.62214 0
M  V30 5247 C 495.389 2.24302 2.65153 0
M  V30 5248 C 494.343 3.40032 2.59927 0
M  V30 5249 C 493.669 3.55829 3.99111 0
M  V30 5250 C 494.969 4.75476 2.16148 0
M  V30 5251 H 496.663 2.82887 0.980563 0
M  V30 5252 H 494.209 1.36105 0.470253 0
M  V30 5253 H 496.162 2.4967 3.39475 0
M  V30 5254 H 494.886 1.32318 2.98596 0
M  V30 5255 H 493.545 3.14687 1.88063 0
M  V30 5256 H 493.193 2.6125 4.29834 0
M  V30 5257 H 492.893 4.3366 3.96501 0
M  V30 5258 H 494.417 3.83528 4.7512 0
M  V30 5259 H 495.831 5.00158 2.80205 0
M  V30 5260 H 494.228 5.56472 2.24631 0
M  V30 5261 H 495.298 4.71946 1.11333 0
M  V30 5262 N 496.642 -0.504142 1.49319 0
M  V30 5263 C 497.589 -1.60603 1.65756 0
M  V30 5264 C 498.559 -1.58425 0.499082 0
M  V30 5265 O 499.744 -1.76459 0.725728 0
M  V30 5266 C 496.884 -2.98764 1.72726 0
M  V30 5267 C 495.997 -3.10982 2.99857 0
M  V30 5268 C 495.132 -4.39857 2.97824 0
M  V30 5269 C 494.171 -4.45697 4.19548 0
M  V30 5270 N 493.308 -5.65995 4.15444 0
M  V30 5271 H 498.148 -1.45895 2.59843 0
M  V30 5272 H 495.685 -0.709891 1.28837 0
M  V30 5273 H 497.643 -3.78839 1.74747 0
M  V30 5274 H 496.273 -3.12183 0.821075 0
M  V30 5275 H 495.325 -2.23991 3.07461 0
M  V30 5276 H 496.637 -3.11157 3.89849 0
M  V30 5277 H 495.791 -5.2825 2.98391 0
M  V30 5278 H 494.53 -4.42242 2.05604 0
M  V30 5279 H 493.535 -3.55707 4.19229 0
M  V30 5280 H 494.76 -4.4503 5.12957 0
M  V30 5281 H 492.706 -5.69229 3.26059 0
M  V30 5282 H 492.623 -5.67773 4.99169 0
M  V30 5283 H 493.891 -6.56604 4.20109 0
M  V30 5284 N 498.12 -1.38341 -0.754957 0
M  V30 5285 C 499.03 -1.3769 -1.89944 0
M  V30 5286 C 500.046 -0.274194 -1.71826 0
M  V30 5287 O 501.222 -0.512391 -1.94773 0
M  V30 5288 C 498.287 -1.19938 -3.25293 0
M  V30 5289 C 497.348 -2.40001 -3.55946 0
M  V30 5290 C 496.581 -2.23087 -4.84838 0
M  V30 5291 O 496.804 -1.22386 -5.57116 0
M  V30 5292 O 495.738 -3.11646 -5.14937 0
M  V30 5293 H 499.564 -2.3412 -1.93446 0
M  V30 5294 H 497.149 -1.19246 -0.900044 0
M  V30 5295 H 499.031 -1.12093 -4.06218 0
M  V30 5296 H 497.706 -0.265919 -3.22606 0
M  V30 5297 H 496.613 -2.53421 -2.75188 0
M  V30 5298 H 497.946 -3.31973 -3.63394 0
M  V30 5299 N 499.598 0.982988 -1.23187 0
M  V30 5300 C 500.508 2.10907 -1.02739 0
M  V30 5301 C 501.524 1.73979 0.0273188 0
M  V30 5302 O 502.7 2.00702 -0.16757 0
M  V30 5303 C 499.765 3.41142 -0.618304 0
M  V30 5304 C 498.826 3.92112 -1.74777 0
M  V30 5305 C 498.059 5.16131 -1.3581 0
M  V30 5306 O 498.282 5.6989 -0.241201 0
M  V30 5307 O 497.216 5.61103 -2.17824 0
M  V30 5308 H 501.042 2.31046 -1.97108 0
M  V30 5309 H 498.627 1.09284 -1.01869 0
M  V30 5310 H 500.509 4.19488 -0.400982 0
M  V30 5311 H 499.184 3.2234 0.296421 0
M  V30 5312 H 498.091 3.14895 -2.0197 0
M  V30 5313 H 499.424 4.15364 -2.64071 0
M  V30 5314 N 501.076 1.04316 1.18135 0
M  V30 5315 C 502.323 0.74802 1.88178 0
M  V30 5316 C 502.651 -0.72441 1.80506 0
M  V30 5317 O 501.906 -1.54463 1.20165 0
M  V30 5318 C 502.205 1.16271 3.37958 0
M  V30 5319 C 501.871 2.63585 3.65833 0
M  V30 5320 C 500.533 3.03829 3.73151 0
M  V30 5321 C 502.885 3.58822 3.78016 0
M  V30 5322 C 500.213 4.38194 3.90132 0
M  V30 5323 C 502.565 4.92909 3.96514 0
M  V30 5324 C 501.229 5.3282 4.02068 0
M  V30 5325 H 500.499 0.27372 0.688592 0
M  V30 5326 H 503.146 1.30863 1.39811 0
M  V30 5327 H 501.451 0.520938 3.88321 0
M  V30 5328 H 503.148 0.911672 3.90499 0
M  V30 5329 H 499.738 2.31414 3.60757 0
M  V30 5330 H 503.922 3.28875 3.71692 0
M  V30 5331 H 499.178 4.68631 3.92677 0
M  V30 5332 H 503.352 5.66606 4.04883 0
M  V30 5333 H 500.979 6.36943 4.14979 0
M  V30 5334 N 502.554 -1.34406 0.822964 0
M  V30 5335 C 503.97 -1.51275 0.508727 0
M  V30 5336 C 504.17 -1.76776 -0.967083 0
M  V30 5337 O 503.226 -1.81871 -1.75155 0
M  V30 5338 C 504.539 -2.67765 1.36829 0
M  V30 5339 C 506.087 -2.81647 1.36542 0
M  V30 5340 C 506.562 -4.01181 2.20947 0
M  V30 5341 N 508.053 -4.08388 2.18571 0
M  V30 5342 C 508.788 -5.00036 2.80627 0
M  V30 5343 N 508.284 -5.96906 3.51674 0
M  V30 5344 N 510.077 -4.92908 2.70181 0
M  V30 5345 H 502.228 -1.16113 1.77852 0
M  V30 5346 H 504.491 -0.56947 0.757897 0
M  V30 5347 H 504.197 -2.55551 2.41633 0
M  V30 5348 H 504.071 -3.62779 1.03303 0
M  V30 5349 H 506.458 -2.93303 0.325163 0
M  V30 5350 H 506.539 -1.87443 1.74066 0
M  V30 5351 H 506.183 -3.90286 3.25022 0
M  V30 5352 H 506.113 -4.94599 1.80774 0
M  V30 5353 H 508.604 -3.39051 1.66891 0
M  V30 5354 H 508.917 -6.63468 3.96271 0
M  V30 5355 H 507.262 -5.9703 3.5578 0
M  V30 5356 H 510.453 -4.1619 2.14251 0
M  V30 5357 H 510.626 -5.64137 3.18831 0
M  V30 5358 N 504.032 -0.577932 -1.46621 0
M  V30 5359 C 504.962 0.145917 -2.33044 0
M  V30 5360 C 505.943 0.888412 -1.45056 0
M  V30 5361 O 507.128 0.864812 -1.73881 0
M  V30 5362 C 504.258 1.16322 -3.27241 0
M  V30 5363 C 503.212 0.535868 -4.24632 0
M  V30 5364 C 502.538 1.65929 -5.08303 0
M  V30 5365 C 503.838 -0.523861 -5.19666 0
M  V30 5366 H 505.532 -0.575636 -2.93814 0
M  V30 5367 H 503.078 -0.278272 -1.41286 0
M  V30 5368 H 505.031 1.67793 -3.86553 0
M  V30 5369 H 503.755 1.91498 -2.64567 0
M  V30 5370 H 502.414 0.0422759 -3.66576 0
M  V30 5371 H 502.062 2.40061 -4.42018 0
M  V30 5372 H 501.762 1.2452 -5.74255 0
M  V30 5373 H 503.286 2.17686 -5.70478 0
M  V30 5374 H 504.7 -0.0944059 -5.73222 0
M  V30 5375 H 503.097 -0.858 -5.93935 0
M  V30 5376 H 504.167 -1.41197 -4.63887 0
M  V30 5377 N 505.51 1.54411 -0.315457 0
M  V30 5378 C 506.473 2.22713 0.54142 0
M  V30 5379 C 507.473 1.2179 1.04995 0
M  V30 5380 O 508.663 1.46426 0.943667 0
M  V30 5381 C 505.795 2.92485 1.75116 0
M  V30 5382 H 506.988 2.99849 -0.0555508 0
M  V30 5383 H 504.541 1.56159 -0.0664453 0
M  V30 5384 H 505.276 2.19466 2.38758 0
M  V30 5385 H 505.061 3.66483 1.39401 0
M  V30 5386 H 506.551 3.44548 2.35959 0
M  V30 5387 N 506.988 0.0434614 1.5754 0
M  V30 5388 C 507.921 -0.968729 2.06618 0
M  V30 5389 C 508.899 -1.30868 0.965 0
M  V30 5390 O 510.083 -1.42288 1.23638 0
M  V30 5391 C 507.21 -2.28486 2.50023 0
M  V30 5392 C 506.256 -2.09851 3.71302 0
M  V30 5393 S 507.089 -1.38401 5.17306 0
M  V30 5394 C 508.245 -2.71354 5.64019 0
M  V30 5395 H 508.478 -0.551021 2.92149 0
M  V30 5396 H 506.011 -0.168607 1.53477 0
M  V30 5397 H 507.969 -3.04142 2.75695 0
M  V30 5398 H 506.63 -2.67387 1.64812 0
M  V30 5399 H 505.823 -3.07184 3.99567 0
M  V30 5400 H 505.425 -1.42336 3.45856 0
M  V30 5401 H 507.717 -3.67549 5.69134 0
M  V30 5402 H 508.66 -2.47734 6.6335 0
M  V30 5403 H 509.068 -2.77259 4.91719 0
M  V30 5404 N 508.466 -1.55915 -0.229846 0
M  V30 5405 C 509.429 -1.90914 -1.26824 0
M  V30 5406 C 510.429 -0.786999 -1.40225 0
M  V30 5407 O 511.619 -1.05484 -1.38632 0
M  V30 5408 C 508.751 -2.15264 -2.64337 0
M  V30 5409 H 509.944 -2.8378 -0.969998 0
M  V30 5410 H 507.497 -1.49069 -0.4699 0
M  V30 5411 H 508.232 -1.24923 -2.99274 0
M  V30 5412 H 508.017 -2.97005 -2.55989 0
M  V30 5413 H 509.507 -2.43467 -3.39284 0
M  V30 5414 N 509.944 0.496216 -1.49584 0
M  V30 5415 C 510.874 1.60576 -1.69521 0
M  V30 5416 C 511.855 1.61169 -0.543933 0
M  V30 5417 O 513.04 1.77834 -0.78031 0
M  V30 5418 C 510.17 2.99038 -1.76616 0
M  V30 5419 C 509.124 3.13312 -2.91581 0
M  V30 5420 C 508.45 4.53172 -2.83794 0
M  V30 5421 C 509.75 2.92886 -4.32452 0
M  V30 5422 H 511.444 1.44146 -2.62416 0
M  V30 5423 H 508.99 0.692024 -1.26282 0
M  V30 5424 H 510.943 3.76564 -1.8915 0
M  V30 5425 H 509.667 3.16568 -0.80324 0
M  V30 5426 H 508.326 2.38213 -2.78658 0
M  V30 5427 H 507.974 4.67585 -1.854 0
M  V30 5428 H 507.674 4.63662 -3.60958 0
M  V30 5429 H 509.198 5.32752 -2.98342 0
M  V30 5430 H 510.612 3.60178 -4.46032 0
M  V30 5431 H 509.009 3.14844 -5.10875 0
M  V30 5432 H 510.079 1.88966 -4.46565 0
M  V30 5433 N 511.423 1.38739 0.74761 0
M  V30 5434 C 512.648 1.38702 1.54197 0
M  V30 5435 C 513.073 -0.019664 1.8809 0
M  V30 5436 O 512.431 -1.00333 1.51006 0
M  V30 5437 C 512.479 2.25492 2.814 0
M  V30 5438 O 511.583 1.67613 3.76802 0
M  V30 5439 H 510.924 0.472863 0.466151 0
M  V30 5440 H 513.454 1.82577 0.923413 0
M  V30 5441 H 513.464 2.39561 3.30264 0
M  V30 5442 H 512.139 3.27727 2.56062 0
M  V30 5443 H 510.716 1.62718 3.35526 0
M  V30 5444 N 512.901 -0.976442 1.23707 0
M  V30 5445 C 514.149 -1.71487 1.06942 0
M  V30 5446 C 514.47 -1.9098 -0.393897 0
M  V30 5447 O 513.74 -1.48128 -1.28198 0
M  V30 5448 H 512.32 -0.635425 0.392739 0
M  V30 5449 H 514.982 -1.17515 1.55487 0
M  V30 5450 H 514.078 -2.70286 1.56051 0
M  V30 5451 N 514.379 -1.04941 -1.1758 0
M  V30 5452 C 515.619 -0.766996 -1.89464 0
M  V30 5453 C 515.983 0.693123 -1.79053 0
M  V30 5454 O 517.184 1.08953 -2.45729 0
M  V30 5455 C 515.455 -1.23108 -3.35528 0
M  V30 5456 S 517.014 -1.07565 -4.25412 0
M  V30 5457 H 513.832 -0.278616 -0.654136 0
M  V30 5458 H 516.434 -1.34352 -1.4202 0
M  V30 5459 H 515.138 -2.28896 -3.40639 0
M  V30 5460 H 514.669 -0.648724 -3.88014 0
M  V30 5461 H 516.684 0.00169467 -4.962 0
M  V30 5462 N 515.857 1.33968 -0.830081 0
M  V30 5463 C 516.789 2.28194 -0.21448 0
M  V30 5464 C 517.802 1.5135 0.599752 0
M  V30 5465 O 518.991 1.73286 0.42826 0
M  V30 5466 C 516.091 3.31221 0.717356 0
M  V30 5467 C 515.264 4.37365 -0.055613 0
M  V30 5468 C 514.323 5.2011 0.798231 0
M  V30 5469 O 513.349 5.68691 0.240616 0
M  V30 5470 N 514.551 5.40523 2.11695 0
M  V30 5471 H 517.316 2.81662 -1.02405 0
M  V30 5472 H 514.877 1.46568 -0.687713 0
M  V30 5473 H 516.869 3.83477 1.29334 0
M  V30 5474 H 515.439 2.78095 1.42765 0
M  V30 5475 H 514.659 3.85727 -0.812936 0
M  V30 5476 H 515.947 5.05397 -0.587444 0
M  V30 5477 H 515.345 5.0274 2.59363 0
M  V30 5478 H 513.902 5.95871 2.64162 0
M  V30 5479 N 517.335 0.585699 1.46312 0
M  V30 5480 C 518.283 -0.158577 2.32059 0
M  V30 5481 C 519.277 -0.881427 1.44662 0
M  V30 5482 O 520.483 -0.799476 1.61271 0
M  V30 5483 H 516.858 -0.0700066 0.748734 0
M  V30 5484 H 518.829 0.583383 2.92642 0
M  V30 5485 C 517.578 -1.15701 3.27885 0
M  V30 5486 H 516.901 -0.610215 3.95116 0
M  V30 5487 H 518.341 -1.64812 3.90657 0
M  V30 5488 C 516.8 -2.21951 2.53455 0
M  V30 5489 O 517.33 -3.29352 2.29978 0
M  V30 5490 N 515.536 -1.9664 2.13965 0
M  V30 5491 H 515.083 -1.09309 2.33258 0
M  V30 5492 H 515.041 -2.6794 1.64485 0
M  V30 5493 N 518.813 -1.54241 0.323641 0
M  V30 5494 C 520.059 -2.00867 -0.279323 0
M  V30 5495 C 520.392 -1.21146 -1.5178 0
M  V30 5496 O 519.667 -0.29378 -1.92269 0
M  V30 5497 C 519.95 -3.54837 -0.613387 0
M  V30 5498 C 519.803 -4.45284 0.635803 0
M  V30 5499 C 521.122 -4.16186 -1.43099 0
M  V30 5500 H 518.241 -0.730177 -0.100049 0
M  V30 5501 H 520.883 -1.84829 0.440235 0
M  V30 5502 H 519.033 -3.68634 -1.22641 0
M  V30 5503 H 520.705 -4.43357 1.27406 0
M  V30 5504 H 518.948 -4.14956 1.26466 0
M  V30 5505 H 519.619 -5.5084 0.357597 0
M  V30 5506 H 522.095 -4.05964 -0.912814 0
M  V30 5507 H 520.971 -5.24031 -1.6335 0
M  V30 5508 H 521.232 -3.69516 -2.42715 0
M  V30 5509 N 520.291 -0.0518155 -1.57515 0
M  V30 5510 C 521.238 0.922352 -2.11569 0
M  V30 5511 C 522.208 1.30842 -1.02321 0
M  V30 5512 O 523.393 1.39778 -1.29872 0
M  V30 5513 C 520.533 2.19167 -2.6657 0
M  V30 5514 C 519.646 1.86003 -3.89906 0
M  V30 5515 C 518.781 3.07398 -4.33221 0
M  V30 5516 C 517.82 2.70158 -5.49255 0
M  V30 5517 N 516.957 3.84248 -5.8762 0
M  V30 5518 H 521.797 0.454506 -2.94514 0
M  V30 5519 H 519.334 0.212718 -1.45554 0
M  V30 5520 H 521.292 2.93443 -2.96559 0
M  V30 5521 H 519.922 2.63528 -1.86421 0
M  V30 5522 H 518.974 1.01874 -3.66505 0
M  V30 5523 H 520.286 1.54592 -4.74239 0
M  V30 5524 H 519.44 3.89972 -4.64765 0
M  V30 5525 H 518.179 3.41988 -3.477 0
M  V30 5526 H 517.184 1.86001 -5.17382 0
M  V30 5527 H 518.409 2.36759 -6.36492 0
M  V30 5528 H 516.355 4.18638 -5.05053 0
M  V30 5529 H 516.272 3.56538 -6.66646 0
M  V30 5530 H 517.54 4.6746 -6.2378 0
M  V30 5531 N 521.769 1.56035 0.221574 0
M  V30 5532 C 523.015 1.79312 0.947372 0
M  V30 5533 C 523.348 0.621453 1.83988 0
M  V30 5534 O 522.623 -0.379287 1.90766 0
M  V30 5535 C 522.906 3.1267 1.78633 0
M  V30 5536 C 522.759 4.40284 0.920312 0
M  V30 5537 C 524.078 3.4247 2.7641 0
M  V30 5538 H 521.197 0.652328 0.342982 0
M  V30 5539 H 523.839 1.88765 0.216244 0
M  V30 5540 H 521.989 3.04741 2.40967 0
M  V30 5541 H 523.661 4.60232 0.313718 0
M  V30 5542 H 521.904 4.33212 0.225734 0
M  V30 5543 H 522.575 5.30033 1.54171 0
M  V30 5544 H 525.051 3.50526 2.24211 0
M  V30 5545 H 523.927 4.3695 3.32213 0
M  V30 5546 H 524.188 2.64635 3.54148 0
M  V30 5547 N 523.247 -0.488276 1.49845 0
M  V30 5548 C 524.496 -1.23826 1.59217 0
M  V30 5549 C 524.809 -1.93439 0.289966 0
M  V30 5550 O 526.015 -2.70229 0.262382 0
M  V30 5551 C 524.471 -2.24902 2.80976 0
M  V30 5552 C 524.079 -1.6117 4.18005 0
M  V30 5553 C 525.823 -3.00648 2.99685 0
M  V30 5554 C 523.73 -2.60431 5.3097 0
M  V30 5555 H 522.66 -0.465858 0.592868 0
M  V30 5556 H 525.311 -0.510645 1.76252 0
M  V30 5557 H 523.693 -3.0088 2.57463 0
M  V30 5558 H 524.867 -0.910968 4.51706 0
M  V30 5559 H 523.182 -0.97767 4.0476 0
M  V30 5560 H 525.779 -3.74903 3.81251 0
M  V30 5561 H 526.122 -3.5902 2.10738 0
M  V30 5562 H 526.655 -2.31784 3.23297 0
M  V30 5563 H 523.394 -2.06823 6.22017 0
M  V30 5564 H 522.914 -3.28707 5.01709 0
M  V30 5565 H 524.593 -3.22606 5.60834 0
M  V30 5566 N 524.725 -1.39134 -0.740242 0
M  V30 5567 C 526.002 -1.26584 -1.49117 0
M  V30 5568 C 526.382 0.126902 -2.10718 0
M  V30 5569 O 525.73 1.13765 -1.98166 0
M  V30 5570 C 525.94 -2.38619 -2.54681 0
M  V30 5571 C 527.288 -2.77685 -3.21211 0
M  V30 5572 O 528.312 -2.38029 -2.64991 0
M  V30 5573 O 527.171 -3.46115 -4.22926 0
M  V30 5574 H 524.265 -0.495769 -0.661923 0
M  V30 5575 H 526.811 -1.50995 -0.774514 0
M  V30 5576 H 525.583 -3.3175 -2.07504 0
M  V30 5577 H 525.206 -2.15845 -3.33911 0
M  V30 5578 N 526.204 0.969867 -1.24223 0
M  V30 5579 C 527.151 2.06407 -1.0327 0
M  V30 5580 C 528.121 1.66014 0.0533 0
M  V30 5581 O 529.306 1.90533 -0.100896 0
M  V30 5582 C 526.446 3.3909 -0.641262 0
M  V30 5583 C 525.559 3.9269 -1.80051 0
M  V30 5584 C 524.694 5.13631 -1.35486 0
M  V30 5585 C 523.733 5.59423 -2.48419 0
M  V30 5586 N 522.87 6.71586 -2.04737 0
M  V30 5587 H 527.71 2.23663 -1.96923 0
M  V30 5588 H 525.247 1.09624 -0.980862 0
M  V30 5589 H 527.205 4.15323 -0.395351 0
M  V30 5590 H 525.835 3.21765 0.258269 0
M  V30 5591 H 524.887 3.13116 -2.16014 0
M  V30 5592 H 526.199 4.22636 -2.64916 0
M  V30 5593 H 525.353 5.97231 -1.0677 0
M  V30 5594 H 524.092 4.85364 -0.476722 0
M  V30 5595 H 523.097 4.74398 -2.77897 0
M  V30 5596 H 524.322 5.89705 -3.36786 0
M  V30 5597 H 522.268 6.45058 -1.19318 0
M  V30 5598 H 522.185 7.0097 -2.83156 0
M  V30 5599 H 523.453 7.58633 -1.79154 0
M  V30 5600 N 527.682 1.05563 1.17022 0
M  V30 5601 C 528.91 0.78845 1.91288 0
M  V30 5602 C 529.325 -0.656318 1.77025 0
M  V30 5603 O 528.682 -1.44869 1.10992 0
M  V30 5604 C 528.733 1.16444 3.42232 0
M  V30 5605 O 528.454 2.5525 3.5606 0
M  V30 5606 C 529.955 0.923937 4.33565 0
M  V30 5607 H 527.175 0.286389 0.606813 0
M  V30 5608 H 529.719 1.4073 1.48375 0
M  V30 5609 H 527.874 0.590266 3.82877 0
M  V30 5610 H 528.288 2.70097 4.49609 0
M  V30 5611 H 529.762 1.23672 5.37968 0
M  V30 5612 H 530.239 -0.140688 4.38975 0
M  V30 5613 H 530.845 1.48214 3.98639 0
M  V30 5614 N 529.16 -1.33526 0.837174 0
M  V30 5615 C 530.09 -2.31764 0.284206 0
M  V30 5616 C 531.071 -1.58896 -0.607142 0
M  V30 5617 O 532.256 -1.86798 -0.531047 0
M  V30 5618 C 529.386 -3.43029 -0.542962 0
M  V30 5619 C 528.34 -4.27255 0.252451 0
M  V30 5620 C 527.666 -5.3012 -0.69836 0
M  V30 5621 C 528.966 -5.01229 1.46858 0
M  V30 5622 H 530.66 -2.78262 1.10502 0
M  V30 5623 H 528.206 -1.3378 0.532812 0
M  V30 5624 H 530.159 -4.1078 -0.940096 0
M  V30 5625 H 528.883 -2.95216 -1.39697 0
M  V30 5626 H 527.542 -3.61127 0.631124 0
M  V30 5627 H 527.19 -4.78564 -1.54872 0
M  V30 5628 H 526.89 -5.87353 -0.170274 0
M  V30 5629 H 528.414 -6.00737 -1.09305 0
M  V30 5630 H 529.828 -5.61756 1.14469 0
M  V30 5631 H 528.225 -5.68104 1.93333 0
M  V30 5632 H 529.295 -4.301 2.23924 0
M  V30 5633 N 530.638 -0.59345 -1.46 0
M  V30 5634 C 531.884 -0.0832754 -2.02629 0
M  V30 5635 C 532.217 1.27749 -1.46266 0
M  V30 5636 O 531.492 1.8395 -0.631866 0
M  V30 5637 C 531.775 -0.0290756 -3.60088 0
M  V30 5638 C 531.628 -1.41951 -4.26814 0
M  V30 5639 C 532.947 0.666055 -4.35031 0
M  V30 5640 H 530.066 -0.031736 -0.736316 0
M  V30 5641 H 532.708 -0.762711 -1.74019 0
M  V30 5642 H 530.858 0.549532 -3.84594 0
M  V30 5643 H 532.53 -2.04411 -4.13538 0
M  V30 5644 H 530.773 -1.98422 -3.8576 0
M  V30 5645 H 531.444 -1.33395 -5.3564 0
M  V30 5646 H 533.92 0.174401 -4.15734 0
M  V30 5647 H 532.796 0.673041 -5.44758 0
M  V30 5648 H 533.057 1.72946 -4.06869 0
M  V30 5649 N 532.116 1.54067 -0.331816 0
M  V30 5650 C 533.532 1.59587 0.0205388 0
M  V30 5651 C 533.732 1.34813 1.49759 0
M  V30 5652 O 532.788 1.13661 2.25471 0
M  V30 5653 C 534.101 2.97959 -0.405103 0
M  V30 5654 C 535.649 3.10964 -0.356454 0
M  V30 5655 C 536.124 4.51694 -0.757384 0
M  V30 5656 N 537.615 4.57709 -0.71111 0
M  V30 5657 C 538.35 5.64729 -0.993427 0
M  V30 5658 N 537.846 6.79652 -1.3433 0
M  V30 5659 N 539.639 5.54546 -0.918442 0
M  V30 5660 H 531.79 1.68426 -1.29407 0
M  V30 5661 H 534.053 0.78819 -0.526745 0
M  V30 5662 H 533.759 3.21115 -1.43451 0
M  V30 5663 H 533.633 3.76524 0.225692 0
M  V30 5664 H 536.02 2.87538 0.663763 0
M  V30 5665 H 536.101 2.34484 -1.02229 0
M  V30 5666 H 535.745 4.75853 -1.77555 0
M  V30 5667 H 535.675 5.26555 -0.0691444 0
M  V30 5668 H 538.166 3.75176 -0.452883 0
M  V30 5669 H 538.479 7.57221 -1.54388 0
M  V30 5670 H 536.824 6.81128 -1.38164 0
M  V30 5671 H 540.015 4.63641 -0.644536 0
M  V30 5672 H 540.188 6.37861 -1.14181 0
M  V30 5673 N 533.594 0.0601682 1.57485 0
M  V30 5674 C 534.541 -0.91112 2.12055 0
M  V30 5675 C 535.511 -1.30298 1.03013 0
M  V30 5676 O 536.696 -1.39087 1.30612 0
M  V30 5677 C 533.836 -2.1775 2.67729 0
M  V30 5678 C 532.949 -1.83933 3.90887 0
M  V30 5679 C 532.084 -3.05096 4.34845 0
M  V30 5680 C 531.123 -2.67241 5.5068 0
M  V30 5681 N 530.26 -3.81127 5.8965 0
M  V30 5682 H 535.1 -0.43888 2.9475 0
M  V30 5683 H 532.637 -0.204995 1.45665 0
M  V30 5684 H 534.595 -2.91866 2.98111 0
M  V30 5685 H 533.225 -2.62535 1.87816 0
M  V30 5686 H 532.277 -0.999287 3.6704 0
M  V30 5687 H 533.589 -1.52074 4.75052 0
M  V30 5688 H 532.743 -3.87502 4.66827 0
M  V30 5689 H 531.482 -3.40139 3.49509 0
M  V30 5690 H 530.487 -1.83254 5.18361 0
M  V30 5691 H 531.712 -2.3338 6.37738 0
M  V30 5692 H 529.658 -4.15954 5.07266 0
M  V30 5693 H 529.575 -3.52997 6.68528 0
M  V30 5694 H 530.843 -4.64145 6.2625 0
M  V30 5695 N 535.072 -1.5615 -0.213296 0
M  V30 5696 C 536.02 -1.93953 -1.28394 0
M  V30 5697 C 537.014 -0.822592 -1.48087 0
M  V30 5698 O 538.22 -1.00748 -1.49164 0
M  V30 5699 H 534.595 -0.61648 -0.430646 0
M  V30 5700 H 536.566 -2.83275 -0.937977 0
M  V30 5701 C 535.315 -2.27969 -2.62537 0
M  V30 5702 H 534.638 -3.13432 -2.48194 0
M  V30 5703 H 536.078 -2.58297 -3.36242 0
M  V30 5704 C 534.537 -1.10775 -3.18167 0
M  V30 5705 O 535.067 -0.373201 -3.99963 0
M  V30 5706 N 533.273 -0.889377 -2.76656 0
M  V30 5707 H 532.82 -1.48843 -2.10246 0
M  V30 5708 H 532.778 -0.107 -3.14218 0
M  V30 5709 N 536.55 0.480323 -1.50102 0
M  V30 5710 C 537.961 1.06142 -1.53593 0
M  V30 5711 C 538.312 1.93335 -0.334055 0
M  V30 5712 O 537.437 2.09188 0.55403 0
M  V30 5713 C 538.032 1.9317 -2.78336 0
M  V30 5714 C 536.591 2.46405 -2.84538 0
M  V30 5715 C 535.738 1.24521 -2.4777 0
M  V30 5716 H 538.689 0.26333 -1.565 0
M  V30 5717 H 538.71 2.78123 -2.59669 0
M  V30 5718 H 538.222 1.29683 -3.65792 0
M  V30 5719 H 536.323 3.13472 -2.01411 0
M  V30 5720 H 536.436 2.82143 -3.87211 0
M  V30 5721 H 534.8 1.57706 -2.00003 0
M  V30 5722 H 535.583 0.627102 -3.37524 0
M  V30 5723 N 538.028 1.39524 0.732853 0
M  V30 5724 C 538.958 1.41153 1.86005 0
M  V30 5725 C 539.939 0.274614 1.67869 0
M  V30 5726 O 541.124 0.480745 1.88155 0
M  V30 5727 C 538.254 1.25638 3.23778 0
M  V30 5728 C 537.208 2.36752 3.56556 0
M  V30 5729 C 536.534 2.06326 4.93289 0
M  V30 5730 C 537.834 3.79069 3.5931 0
M  V30 5731 H 539.528 2.35484 1.84899 0
M  V30 5732 H 537.074 1.13348 0.888162 0
M  V30 5733 H 539.027 1.25398 4.0231 0
M  V30 5734 H 537.751 0.277772 3.25417 0
M  V30 5735 H 536.41 2.36213 2.80355 0
M  V30 5736 H 536.058 1.06897 4.9151 0
M  V30 5737 H 535.758 2.80757 5.16187 0
M  V30 5738 H 537.282 2.07739 5.74175 0
M  V30 5739 H 538.696 3.81526 4.27914 0
M  V30 5740 H 537.093 4.52878 3.93728 0
M  V30 5741 H 538.163 4.09893 2.59068 0
M  V30 5742 N 539.506 -0.963266 1.24736 0
M  V30 5743 C 540.469 -2.04013 1.04457 0
M  V30 5744 C 541.469 -1.608 0.000335555 0
M  V30 5745 O 542.659 -1.72515 0.241719 0
M  V30 5746 C 539.791 -3.35858 0.584162 0
M  V30 5747 H 540.984 -2.23436 2.00041 0
M  V30 5748 H 538.537 -1.13914 1.07021 0
M  V30 5749 H 539.272 -3.22128 -0.374673 0
M  V30 5750 H 539.057 -3.68568 1.3379 0
M  V30 5751 H 540.547 -4.1502 0.463451 0
M  V30 5752 N 540.985 -1.06182 -1.16461 0
M  V30 5753 C 542.231 -0.779015 -1.87241 0
M  V30 5754 C 542.564 0.692715 -1.81425 0
M  V30 5755 O 541.839 1.5074 -1.22913 0
M  V30 5756 C 542.122 -1.2728 -3.36856 0
M  V30 5757 C 541.975 -2.80821 -3.51368 0
M  V30 5758 C 543.294 -0.879799 -4.31216 0
M  V30 5759 H 540.413 -0.284464 -0.679889 0
M  V30 5760 H 543.055 -1.31755 -1.36896 0
M  V30 5761 H 541.205 -0.814673 -3.79862 0
M  V30 5762 H 542.877 -3.34833 -3.17308 0
M  V30 5763 H 541.12 -3.19606 -2.93316 0
M  V30 5764 H 541.791 -3.10435 -4.56436 0
M  V30 5765 H 544.267 -1.27436 -3.96105 0
M  V30 5766 H 543.143 -1.25278 -5.34412 0
M  V30 5767 H 543.404 0.215372 -4.41575 0
M  V30 5768 N 542.463 1.3308 -0.844243 0
M  V30 5769 C 543.688 2.02341 -0.455282 0
M  V30 5770 C 544.113 1.6308 0.93737 0
M  V30 5771 O 543.471 0.826118 1.61385 0
M  V30 5772 C 543.519 3.55743 -0.58988 0
M  V30 5773 O 542.623 4.1063 0.38166 0
M  V30 5774 H 541.964 0.637898 -0.184343 0
M  V30 5775 H 544.494 1.6986 -1.14056 0
M  V30 5776 H 544.504 4.05243 -0.473522 0
M  V30 5777 H 543.179 3.83662 -1.60549 0
M  V30 5778 H 541.756 3.72236 0.22241 0
M  V30 5779 N 543.941 0.601185 1.45683 0
M  V30 5780 C 544.888 -0.121396 2.30481 0
M  V30 5781 C 545.858 -0.866232 1.41724 0
M  V30 5782 O 547.043 -0.85324 1.70659 0
M  V30 5783 C 544.183 -1.11704 3.26521 0
M  V30 5784 C 543.296 -0.373741 4.3038 0
M  V30 5785 C 542.431 -1.35854 5.13534 0
M  V30 5786 C 541.47 -0.602689 6.09126 0
M  V30 5787 N 540.607 -1.53645 6.85082 0
M  V30 5788 H 545.447 0.607732 2.91737 0
M  V30 5789 H 542.984 0.311502 1.43764 0
M  V30 5790 H 544.942 -1.70735 3.80664 0
M  V30 5791 H 543.572 -1.81366 2.67032 0
M  V30 5792 H 542.624 0.331962 3.78949 0
M  V30 5793 H 543.936 0.2163 4.98331 0
M  V30 5794 H 543.09 -2.02111 5.72046 0
M  V30 5795 H 541.829 -1.98251 4.45587 0
M  V30 5796 H 540.834 0.0735482 5.49751 0
M  V30 5797 H 542.059 0.0161467 6.79098 0
M  V30 5798 H 540.005 -2.14819 6.1983 0
M  V30 5799 H 539.922 -0.999688 7.49361 0
M  V30 5800 H 541.19 -2.1888 7.48139 0
M  V30 5801 N 545.419 -1.53889 0.339982 0
M  V30 5802 C 546.668 -2.00035 -0.258604 0
M  V30 5803 C 546.981 -1.23179 -1.51942 0
M  V30 5804 O 548.187 -1.59784 -2.19503 0
M  V30 5805 C 546.643 -3.56249 -0.511359 0
M  V30 5806 C 546.251 -4.41957 0.733349 0
M  V30 5807 C 547.995 -4.1082 -1.069 0
M  V30 5808 C 545.902 -5.89673 0.451591 0
M  V30 5809 H 544.832 -0.747284 -0.10041 0
M  V30 5810 H 547.483 -1.77776 0.454758 0
M  V30 5811 H 545.865 -3.7456 -1.28533 0
M  V30 5812 H 547.039 -4.35421 1.50815 0
M  V30 5813 H 545.354 -3.9836 1.21237 0
M  V30 5814 H 547.951 -5.18789 -1.2947 0
M  V30 5815 H 548.294 -3.63817 -2.02343 0
M  V30 5816 H 548.827 -3.96205 -0.355817 0
M  V30 5817 H 545.566 -6.40903 1.37565 0
M  V30 5818 H 545.086 -5.99122 -0.285193 0
M  V30 5819 H 546.765 -6.46965 0.0675067 0
M  V30 5820 O 546.936 -0.208127 -1.60153 0
M  V30 5821 H 547.627 0.374888 -1.90038 0
M  V30 END ATOM
M  V30 BEGIN BOND
M  V30 END BOND
M  V30 END CTAB
M  END
$$$$
