drugbank_target|P0C278 Fumarate reductase flavoprotein subunit (DB01677; DB03147; DB03343; DB04734)
 OpenBabel12092120033D

  0  0  0     0  0            999 V3000
M  V30 BEGIN CTAB
M  V30 COUNTS 8439 8509 0 0 0
M  V30 BEGIN ATOM
M  V30 1 H -0.908 1.98254 -0.117106 0
M  V30 2 N 0 1.576 0 0
M  V30 3 C 0.963 2.07369 0.976253 0
M  V30 4 C 1.963 0.98309 1.27248 0
M  V30 5 O 3.153 1.24574 1.21766 0
M  V30 6 C 0.285 2.51514 2.30116 0
M  V30 7 H 1.478 2.94892 0.545759 0
M  V30 8 H -0.969 1.54328 0.247471 0
M  V30 9 H -0.234 1.67234 2.77855 0
M  V30 10 H -0.449 3.31163 2.09937 0
M  V30 11 H 1.041 2.90345 3.00149 0
M  V30 12 N 1.4781 -0.272755 1.55222 0
M  V30 13 C 2.7551 -1.02562 1.66555 0
M  V30 14 C 3.1351 -2.04282 0.532189 0
M  V30 15 O 2.4831 -2.23662 -0.467717 0
M  V30 16 C 2.6931 -1.6822 3.05782 0
M  V30 17 C 4.0411 -2.19373 3.63539 0
M  V30 18 O 5.0651 -1.78206 3.08417 0
M  V30 19 O 3.9241 -2.94883 4.60115 0
M  V30 20 H 1.0181 -0.475755 0.676451 0
M  V30 21 H 3.5641 -0.268593 1.67561 0
M  V30 22 H 2.3361 -0.945112 3.79715 0
M  V30 23 H 1.9591 -2.50609 3.08676 0
M  V30 24 N 2.9562 -1.48159 -0.537278 0
M  V30 25 C 3.9042 -1.62573 -1.66352 0
M  V30 26 C 4.8982 -0.492366 -1.62087 0
M  V30 27 O 6.1042 -0.670847 -1.67032 0
M  V30 28 H 2.4792 -0.511992 -0.550789 0
M  V30 29 H 4.4502 -2.57176 -1.51337 0
M  V30 30 C 3.1992 -1.67583 -3.04649 0
M  V30 31 H 2.5222 -2.54151 -3.08622 0
M  V30 32 H 3.9622 -1.81713 -3.83088 0
M  V30 33 C 2.4212 -0.413039 -3.34358 0
M  V30 34 O 2.9512 0.477259 -3.98855 0
M  V30 35 N 1.1572 -0.286961 -2.8918 0
M  V30 36 H 0.7042 -1.01241 -2.36871 0
M  V30 37 H 0.6622 0.556963 -3.09427 0
M  V30 38 N 4.4343 0.785586 -1.36625 0
M  V30 39 C 5.3643 1.91259 -1.33949 0
M  V30 40 C 6.3453 1.68795 -0.210325 0
M  V30 41 O 7.5303 1.89854 -0.408561 0
M  V30 42 C 4.6603 3.28339 -1.13186 0
M  V30 43 C 3.6143 3.65335 -2.22967 0
M  V30 44 C 2.9403 5.00806 -1.87342 0
M  V30 45 C 4.2403 3.7352 -3.65075 0
M  V30 46 H 5.9343 1.93755 -2.28253 0
M  V30 47 H 3.4803 0.930788 -1.09874 0
M  V30 48 H 5.4333 4.06804 -1.09948 0
M  V30 49 H 4.1573 3.2624 -0.153332 0
M  V30 50 H 2.8163 2.89169 -2.25337 0
M  V30 51 H 2.4643 4.95233 -0.880545 0
M  V30 52 H 2.1643 5.26529 -2.60846 0
M  V30 53 H 3.6883 5.81687 -1.85667 0
M  V30 54 H 5.1023 4.42168 -3.64911 0
M  V30 55 H 3.4993 4.10731 -4.37516 0
M  V30 56 H 4.5693 2.74527 -3.99703 0
M  V30 57 N 5.9124 1.20967 1.01018 0
M  V30 58 C 6.8754 0.965918 2.07853 0
M  V30 59 C 7.8754 -0.0610545 1.60684 0
M  V30 60 O 9.0654 0.175681 1.73312 0
M  V30 61 C 6.1974 0.455513 3.37843 0
M  V30 62 H 7.3904 1.91365 2.3091 0
M  V30 63 H 4.9434 1.02594 1.17916 0
M  V30 64 H 5.6784 -0.497381 3.20463 0
M  V30 65 H 5.4634 1.19622 3.73407 0
M  V30 66 H 6.9534 0.304667 4.16487 0
M  V30 67 N 7.3905 -1.2043 1.01659 0
M  V30 68 C 8.3005 -2.2689 0.596484 0
M  V30 69 C 9.3165 -1.70107 -0.36599 0
M  V30 70 O 10.4925 -2.00117 -0.226942 0
M  V30 71 C 7.5575 -3.4665 -0.0586659 0
M  V30 72 C 6.6185 -4.18662 0.949751 0
M  V30 73 C 5.8515 -5.32705 0.32577 0
M  V30 74 O 6.0745 -5.63656 -0.874509 0
M  V30 75 O 5.0085 -5.92803 1.04249 0
M  V30 76 H 8.8345 -2.65041 1.4828 0
M  V30 77 H 6.4195 -1.27048 0.786082 0
M  V30 78 H 8.3015 -4.19256 -0.424564 0
M  V30 79 H 6.9765 -3.10375 -0.91918 0
M  V30 80 H 5.8835 -3.48229 1.36702 0
M  V30 81 H 7.2165 -4.58878 1.78023 0
M  V30 82 N 8.8686 -0.792821 -1.36206 0
M  V30 83 C 10.1156 -0.366786 -1.99151 0
M  V30 84 C 10.4436 1.06243 -1.62919 0
M  V30 85 O 9.6986 1.74927 -0.877442 0
M  V30 86 C 9.9976 -0.481501 -3.54142 0
M  V30 87 C 9.6636 -1.87202 -4.10203 0
M  V30 88 C 8.3256 -2.25248 -4.25226 0
M  V30 89 C 10.6776 -2.78237 -4.40719 0
M  V30 90 C 8.0056 -3.53723 -4.68078 0
M  V30 91 C 10.3576 -4.06144 -4.85005 0
M  V30 92 C 9.0216 -4.44207 -4.98234 0
M  V30 93 H 8.2916 -0.134217 -0.728743 0
M  V30 94 H 10.9386 -1.01094 -1.62641 0
M  V30 95 H 9.2436 0.246146 -3.91026 0
M  V30 96 H 10.9406 -0.132844 -4.0078 0
M  V30 97 H 7.5306 -1.56639 -3.98951 0
M  V30 98 H 11.7146 -2.50097 -4.28679 0
M  V30 99 H 6.9706 -3.8308 -4.76508 0
M  V30 100 H 11.1446 -4.76796 -5.07581 0
M  V30 101 H 8.7716 -5.43814 -5.31197 0
M  V30 102 N 10.3467 1.47872 -0.545128 0
M  V30 103 C 11.2967 2.26842 0.229456 0
M  V30 104 C 12.2807 1.33626 0.896267 0
M  V30 105 O 13.4727 1.58063 0.79657 0
M  V30 106 C 10.6017 3.19089 1.26638 0
M  V30 107 C 9.6877 4.19783 0.603598 0
M  V30 108 N 10.0787 5.0479 -0.319405 0
M  V30 109 C 8.3767 4.3765 0.858989 0
M  V30 110 C 9.0777 5.77433 -0.703241 0
M  V30 111 N 8.0537 5.43566 -0.0608309 0
M  V30 112 H 11.8557 2.89947 -0.480391 0
M  V30 113 H 9.3697 1.58263 -0.364209 0
M  V30 114 H 11.3667 3.74337 1.83515 0
M  V30 115 H 10.0267 2.5754 1.97745 0
M  V30 116 H 11.0377 5.13244 -0.692889 0
M  V30 117 H 7.7147 3.87281 1.55948 0
M  V30 118 H 9.1047 6.55824 -1.46098 0
M  V30 119 N 11.8248 0.280983 1.55075 0
M  V30 120 C 13.0708 -0.33461 2.00021 0
M  V30 121 C 13.4038 -1.55063 1.16915 0
M  V30 122 O 12.6788 -1.93006 0.240646 0
M  V30 123 C 12.9618 -0.711007 3.53011 0
M  V30 124 C 12.8148 0.512766 4.46868 0
M  V30 125 C 14.1338 -1.54522 4.12081 0
M  V30 126 H 11.2528 -0.120147 0.727141 0
M  V30 127 H 13.8948 0.389097 1.85973 0
M  V30 128 H 12.0448 -1.32761 3.65112 0
M  V30 129 H 13.7168 1.15131 4.46702 0
M  V30 130 H 11.9598 1.14975 4.18286 0
M  V30 131 H 12.6308 0.205556 5.51617 0
M  V30 132 H 15.1068 -1.02442 4.03293 0
M  V30 133 H 13.9828 -1.77739 5.19327 0
M  V30 134 H 14.2438 -2.52813 3.62682 0
M  V30 135 N 13.3029 -1.57598 0.00835791 0
M  V30 136 C 14.2349 -2.05811 -1.00868 0
M  V30 137 C 15.2479 -0.977579 -1.30182 0
M  V30 138 O 16.4369 -1.25421 -1.27011 0
M  V30 139 C 13.5369 -2.45016 -2.34137 0
M  V30 140 C 12.7099 -3.75903 -2.23643 0
M  V30 141 C 11.7689 -4.01884 -3.3967 0
M  V30 142 O 10.7949 -4.72433 -3.17483 0
M  V30 143 N 11.9969 -3.50432 -4.62793 0
M  V30 144 H 14.7619 -2.93684 -0.597458 0
M  V30 145 H 12.3229 -1.60909 -0.178852 0
M  V30 146 H 14.3149 -2.59506 -3.10546 0
M  V30 147 H 12.8849 -1.62618 -2.66972 0
M  V30 148 H 12.1049 -3.7141 -1.32091 0
M  V30 149 H 13.3929 -4.61695 -2.13812 0
M  V30 150 H 12.7909 -2.93317 -4.83716 0
M  V30 151 H 11.3479 -3.70236 -5.3644 0
M  V30 152 N 14.781 0.264519 -1.55364 0
M  V30 153 C 15.729 1.34702 -1.89626 0
M  V30 154 C 16.723 1.50712 -0.773459 0
M  V30 155 O 17.929 1.52395 -0.957897 0
M  V30 156 H 14.304 0.450682 -0.601988 0
M  V30 157 H 16.275 1.0306 -2.80038 0
M  V30 158 C 15.024 2.6989 -2.19214 0
M  V30 159 H 14.347 2.58365 -3.05103 0
M  V30 160 H 15.787 3.44553 -2.47102 0
M  V30 161 C 14.246 3.21637 -1.00254 0
M  V30 162 O 14.776 4.00973 -0.241501 0
M  V30 163 N 12.982 2.7943 -0.797938 0
M  V30 164 H 12.529 2.15026 -1.4185 0
M  V30 165 H 12.487 3.144 -0.00363422 0
M  V30 166 N 16.2591 1.48442 0.529413 0
M  V30 167 C 17.1911 1.59095 1.64989 0
M  V30 168 C 18.2041 0.475212 1.5571 0
M  V30 169 O 19.3931 0.746081 1.6216 0
M  V30 170 C 16.4931 1.50518 3.0364 0
M  V30 171 C 15.6661 2.77142 3.38395 0
M  V30 172 C 14.7251 2.62012 4.56329 0
M  V30 173 O 13.7511 3.35898 4.59522 0
M  V30 174 N 14.9531 1.71667 5.54536 0
M  V30 175 H 17.7181 2.55723 1.56287 0
M  V30 176 H 15.2791 1.45173 0.716697 0
M  V30 177 H 17.2711 1.38091 3.80412 0
M  V30 178 H 15.8411 0.618627 3.06418 0
M  V30 179 H 15.0611 3.0413 2.50796 0
M  V30 180 H 16.3491 3.61146 3.58401 0
M  V30 181 H 15.7471 1.10841 5.54735 0
M  V30 182 H 14.3041 1.65178 6.30523 0
M  V30 183 N 17.7372 -0.778329 1.37039 0
M  V30 184 C 18.6472 -1.92253 1.34446 0
M  V30 185 C 19.6632 -1.72267 0.244991 0
M  V30 186 O 20.8392 -1.95615 0.479258 0
M  V30 187 C 17.9042 -3.27282 1.144 0
M  V30 188 C 16.9652 -3.59969 2.33925 0
M  V30 189 C 16.1982 -4.88555 2.14825 0
M  V30 190 O 16.4212 -5.59113 1.12912 0
M  V30 191 O 15.3552 -5.20153 3.02861 0
M  V30 192 H 19.1812 -1.97392 2.30803 0
M  V30 193 H 16.7662 -0.920154 1.17701 0
M  V30 194 H 18.6482 -4.08062 1.05182 0
M  V30 195 H 17.3232 -3.23011 0.211124 0
M  V30 196 H 16.2302 -2.7945 2.48714 0
M  V30 197 H 17.5632 -3.68976 3.25757 0
M  V30 198 N 19.2153 -1.21501 -1.00376 0
M  V30 199 C 20.4553 -1.04444 -1.75701 0
M  V30 200 C 20.8193 0.414644 -1.87469 0
M  V30 201 O 22.0203 0.705763 -2.59369 0
M  V30 202 C 20.2913 -1.72389 -3.13077 0
M  V30 203 S 21.8503 -1.70604 -4.04277 0
M  V30 204 H 18.6683 -0.374249 -0.604532 0
M  V30 205 H 21.2703 -1.54267 -1.20091 0
M  V30 206 H 19.9743 -2.77734 -3.02146 0
M  V30 207 H 19.5053 -1.22751 -3.73759 0
M  V30 208 H 21.5203 -0.748012 -4.9053 0
M  V30 209 N 20.6934 1.19889 -1.02296 0
M  V30 210 C 21.9704 1.85148 -0.630832 0
M  V30 211 C 22.3504 1.91385 0.890782 0
M  V30 212 O 21.6984 1.42642 1.78509 0
M  V30 213 C 21.9084 3.24442 -1.28602 0
M  V30 214 C 23.2564 4.00663 -1.4055 0
M  V30 215 O 24.2804 3.33818 -1.24273 0
M  V30 216 O 23.1394 5.20387 -1.66913 0
M  V30 217 H 20.2334 0.797613 -0.218499 0
M  V30 218 H 22.7794 1.27427 -1.12074 0
M  V30 219 H 21.5514 3.14704 -2.32545 0
M  V30 220 H 21.1744 3.89802 -0.7836 0
M  V30 221 N 22.1715 0.800033 1.35784 0
M  V30 222 C 23.3965 0.388511 2.03729 0
M  V30 223 C 23.8215 -0.990481 1.5991 0
M  V30 224 O 23.1795 -1.64013 0.772612 0
M  V30 225 C 23.2275 0.4726 3.5749 0
M  V30 226 O 22.3315 -0.51646 4.09153 0
M  V30 227 H 21.6725 0.163271 0.643614 0
M  V30 228 H 24.2025 1.0841 1.73518 0
M  V30 229 H 24.2125 0.34003 4.06581 0
M  V30 230 H 22.8875 1.47848 3.88734 0
M  V30 231 H 21.4645 -0.344673 3.71304 0
M  V30 232 N 23.6496 -1.47581 0.552962 0
M  V30 233 C 24.8896 -2.04379 0.0296245 0
M  V30 234 C 25.2536 -1.4185 -1.29393 0
M  V30 235 O 26.4546 -1.89669 -1.90471 0
M  V30 236 C 24.7256 -3.57339 -0.0661371 0
M  V30 237 S 26.2846 -4.35511 -0.536213 0
M  V30 238 H 23.1026 -0.710625 0.0230991 0
M  V30 239 H 25.7046 -1.81005 0.738734 0
M  V30 240 H 24.4086 -4.00374 0.901596 0
M  V30 241 H 23.9396 -3.85202 -0.798931 0
M  V30 242 H 25.9546 -4.6253 -1.79668 0
M  V30 243 N 25.1277 -0.289203 -1.54924 0
M  V30 244 C 26.0777 0.606939 -2.19773 0
M  V30 245 C 27.0617 1.10783 -1.16687 0
M  V30 246 O 28.2537 1.05057 -1.4245 0
M  V30 247 C 25.3827 1.78398 -2.93307 0
M  V30 248 C 24.4687 1.29961 -4.03697 0
M  V30 249 N 24.8597 0.532377 -5.0299 0
M  V30 250 C 23.1577 1.58136 -4.17024 0
M  V30 251 C 23.8587 0.275912 -5.81045 0
M  V30 252 N 22.8347 0.852365 -5.36876 0
M  V30 253 H 26.6367 0.0130779 -2.93897 0
M  V30 254 H 24.1507 -0.09341 -1.62131 0
M  V30 255 H 26.1477 2.43741 -3.38225 0
M  V30 256 H 24.8077 2.38166 -2.20697 0
M  V30 257 H 25.8187 0.17838 -5.17593 0
M  V30 258 H 22.4957 2.18738 -3.55612 0
M  V30 259 H 23.8857 -0.339502 -6.71042 0
M  V30 260 N 26.6058 1.57591 -0.0167156 0
M  V30 261 C 27.8338 1.95575 0.675128 0
M  V30 262 C 28.2488 0.892542 1.6637 0
M  V30 263 O 27.6058 -0.126912 1.82058 0
M  V30 264 C 27.6568 3.33608 1.39239 0
M  V30 265 O 27.3778 4.3585 0.443444 0
M  V30 266 C 28.8788 3.86151 2.17721 0
M  V30 267 H 26.0988 0.644423 0.186978 0
M  V30 268 H 28.6428 2.0437 -0.0728 0
M  V30 269 H 26.7978 3.2607 2.09182 0
M  V30 270 H 27.2118 5.158 0.951358 0
M  V30 271 H 28.6858 4.85114 2.63379 0
M  V30 272 H 29.1628 3.19738 3.01105 0
M  V30 273 H 29.7688 3.96918 1.52761 0
M  V30 274 N 28.0839 -0.256276 1.55502 0
M  V30 275 C 29.4949 -0.826068 1.67431 0
M  V30 276 C 29.8459 -1.86396 0.612446 0
M  V30 277 O 28.9709 -2.15031 -0.243025 0
M  V30 278 C 29.5659 -1.50512 3.03532 0
M  V30 279 C 28.1249 -2.02273 3.17431 0
M  V30 280 C 27.2719 -0.870548 2.63281 0
M  V30 281 H 30.2229 -0.0322728 1.58667 0
M  V30 282 H 30.2439 -2.37279 2.97454 0
M  V30 283 H 29.7559 -0.749484 3.80794 0
M  V30 284 H 27.8569 -2.80746 2.44974 0
M  V30 285 H 27.9699 -2.22655 4.24219 0
M  V30 286 H 26.3339 -1.26851 2.20864 0
M  V30 287 H 27.1169 -0.128149 3.43061 0
M  V30 288 N 29.562 -1.4872 -0.521534 0
M  V30 289 C 30.839 -1.4766 -1.2828 0
M  V30 290 C 31.219 -0.19292 -2.10217 0
M  V30 291 O 30.567 0.825193 -2.13079 0
M  V30 292 C 30.777 -2.74358 -2.15705 0
M  V30 293 C 32.125 -3.23028 -2.75569 0
M  V30 294 O 33.149 -2.75333 -2.25987 0
M  V30 295 O 32.008 -4.0604 -3.65778 0
M  V30 296 H 29.102 -0.590085 -0.579421 0
M  V30 297 H 31.648 -1.60963 -0.537492 0
M  V30 298 H 30.42 -3.59292 -1.54999 0
M  V30 299 H 30.043 -2.63816 -2.97467 0
M  V30 300 N 31.0401 0.771051 -1.3745 0
M  V30 301 C 32.2881 1.52661 -1.32435 0
M  V30 302 C 32.6091 1.9479 0.0905024 0
M  V30 303 O 31.8791 1.66348 1.03466 0
M  V30 304 H 30.4591 0.566218 -0.487244 0
M  V30 305 H 33.1211 0.917636 -1.71946 0
M  V30 306 H 32.2171 2.42568 -1.96385 0
M  V30 307 N 32.5182 1.22032 0.997298 0
M  V30 308 C 33.4282 1.00271 2.12092 0
M  V30 309 C 34.4442 -0.047621 1.73935 0
M  V30 310 O 35.6202 0.144136 2.00884 0
M  V30 311 C 32.6852 0.578449 3.4184 0
M  V30 312 C 31.7462 1.70189 3.94125 0
M  V30 313 C 30.9792 1.29778 5.17681 0
M  V30 314 O 31.2022 0.174676 5.70132 0
M  V30 315 O 30.1362 2.11261 5.63607 0
M  V30 316 H 33.9622 1.94398 2.3333 0
M  V30 317 H 31.5472 1.00587 1.10465 0
M  V30 318 H 33.4292 0.351998 4.19927 0
M  V30 319 H 32.1042 -0.334019 3.21972 0
M  V30 320 H 31.0112 1.98282 3.1723 0
M  V30 321 H 32.3442 2.59206 4.18417 0
M  V30 322 N 33.9963 -1.19345 1.0293 0
M  V30 323 C 34.9263 -2.2481 0.631105 0
M  V30 324 C 35.9073 -1.66245 -0.360104 0
M  V30 325 O 37.0923 -1.92677 -0.242726 0
M  V30 326 C 34.2223 -3.47295 -0.0184607 0
M  V30 327 C 33.1763 -4.18536 0.895073 0
M  V30 328 C 32.5023 -5.34586 0.110592 0
M  V30 329 C 33.8023 -4.73287 2.209 0
M  V30 330 H 35.4963 -2.58372 1.51275 0
M  V30 331 H 33.0423 -1.24194 0.728818 0
M  V30 332 H 34.9953 -4.20268 -0.308675 0
M  V30 333 H 33.7193 -3.12933 -0.934907 0
M  V30 334 H 32.3783 -3.47446 1.16949 0
M  V30 335 H 32.0263 -4.96469 -0.807902 0
M  V30 336 H 31.7263 -5.83183 0.719087 0
M  V30 337 H 33.2503 -6.10355 -0.172871 0
M  V30 338 H 34.6643 -5.38013 1.98028 0
M  V30 339 H 33.0613 -5.32373 2.76946 0
M  V30 340 H 34.1313 -3.91331 2.86336 0
M  V30 341 N 35.4744 -0.807222 -1.35358 0
M  V30 342 C 36.6994 -0.399309 -2.0352 0
M  V30 343 C 37.1244 0.981986 -1.60433 0
M  V30 344 O 36.4824 1.63601 -0.781299 0
M  V30 345 C 36.5304 -0.491552 -3.57234 0
M  V30 346 O 35.6344 0.494754 -4.09421 0
M  V30 347 H 34.9754 -0.166682 -0.642739 0
M  V30 348 H 37.5054 -1.09328 -1.72941 0
M  V30 349 H 37.5154 -0.361588 -4.06395 0
M  V30 350 H 36.1904 -1.49907 -3.87944 0
M  V30 351 H 34.7674 0.324977 -3.71481 0
M  V30 352 N 36.9525 1.47285 -0.560781 0
M  V30 353 C 37.9005 2.31756 0.197942 0
M  V30 354 C 38.8945 1.43146 0.905854 0
M  V30 355 O 40.1005 1.59891 0.826733 0
M  V30 356 H 36.4755 0.747438 0.0827049 0
M  V30 357 H 38.4465 2.9359 -0.533629 0
M  V30 358 C 37.1955 3.25874 1.21249 0
M  V30 359 H 36.5185 3.94023 0.67719 0
M  V30 360 H 37.9585 3.87803 1.71419 0
M  V30 361 C 36.4175 2.49651 2.26221 0
M  V30 362 O 36.9475 2.24355 3.33208 0
M  V30 363 N 35.1535 2.10597 2.00243 0
M  V30 364 H 34.7005 2.31369 1.13252 0
M  V30 365 H 34.6585 1.59913 2.70694 0
M  V30 366 N 38.4306 0.297415 1.54768 0
M  V30 367 C 39.7076 -0.365847 1.92148 0
M  V30 368 C 40.0876 -1.71975 1.22424 0
M  V30 369 O 39.4356 -2.25666 0.358739 0
M  V30 370 C 39.6456 -0.484056 3.45627 0
M  V30 371 C 40.9936 -0.756594 4.17805 0
M  V30 372 O 42.0176 -0.568007 3.51642 0
M  V30 373 O 40.8766 -1.11863 5.34929 0
M  V30 374 H 37.9706 -0.203919 0.801465 0
M  V30 375 H 40.5166 0.34521 1.66152 0
M  V30 376 H 39.2886 0.467865 3.88493 0
M  V30 377 H 38.9116 -1.24372 3.77647 0
M  V30 378 N 39.9087 -1.5758 0.0250728 0
M  V30 379 C 41.1337 -1.96337 -0.668317 0
M  V30 380 C 41.5587 -0.901314 -1.651 0
M  V30 381 O 40.9167 0.138187 -1.80773 0
M  V30 382 C 40.9647 -3.34191 -1.35457 0
M  V30 383 O 40.0687 -3.30269 -2.46974 0
M  V30 384 H 39.4097 -0.640281 -0.175887 0
M  V30 385 H 41.9397 -2.0442 0.0857224 0
M  V30 386 H 41.9497 -3.70331 -1.71228 0
M  V30 387 H 40.6247 -4.11036 -0.634218 0
M  V30 388 H 39.2017 -3.05841 -2.13344 0
M  V30 389 N 41.3868 0.248026 -1.55636 0
M  V30 390 C 42.3168 1.31079 -1.93237 0
M  V30 391 C 43.2978 1.50264 -0.797174 0
M  V30 392 O 44.4828 1.62891 -1.05737 0
M  V30 393 C 41.6128 2.66575 -2.22609 0
M  V30 394 C 40.5668 2.62087 -3.3837 0
M  V30 395 C 39.8928 4.01369 -3.53281 0
M  V30 396 C 41.1928 2.19171 -4.7409 0
M  V30 397 H 42.8868 0.998556 -2.82257 0
M  V30 398 H 40.4328 0.47891 -1.35803 0
M  V30 399 H 42.3858 3.41057 -2.47503 0
M  V30 400 H 41.1098 2.99432 -1.30414 0
M  V30 401 H 39.7688 1.90063 -3.13483 0
M  V30 402 H 39.4168 4.31489 -2.58508 0
M  V30 403 H 39.1168 3.99254 -4.31127 0
M  V30 404 H 40.6408 4.77552 -3.80495 0
M  V30 405 H 42.0548 2.83384 -4.98363 0
M  V30 406 H 40.4518 2.2817 -5.5503 0
M  V30 407 H 41.5218 1.14336 -4.71227 0
M  V30 408 N 42.8649 1.48995 0.513639 0
M  V30 409 C 44.0929 1.61531 1.29288 0
M  V30 410 C 44.5079 0.281801 1.86685 0
M  V30 411 O 43.8649 -0.731111 1.67215 0
M  V30 412 C 43.9159 2.67449 2.43215 0
M  V30 413 O 43.6369 3.95626 1.88179 0
M  V30 414 C 45.1379 2.90575 3.34785 0
M  V30 415 H 42.3579 0.544165 0.392588 0
M  V30 416 H 44.9019 1.9494 0.617956 0
M  V30 417 H 43.0569 2.36853 3.0656 0
M  V30 418 H 43.4709 4.53868 2.62876 0
M  V30 419 H 44.9449 3.68449 4.11035 0
M  V30 420 H 45.4219 2.00011 3.91015 0
M  V30 421 H 46.0279 3.22538 2.77218 0
M  V30 422 N 44.343 -0.763751 1.37857 0
M  V30 423 C 45.573 -1.55067 1.3652 0
M  V30 424 C 45.981 -1.89135 -0.0494227 0
M  V30 425 O 45.324 -1.52529 -1.02375 0
M  V30 426 C 45.386 -2.8838 2.14656 0
M  V30 427 C 45.05 -2.76905 3.63555 0
M  V30 428 C 46.047 -2.4739 4.57268 0
M  V30 429 C 43.732 -2.94676 4.06781 0
M  V30 430 C 45.726 -2.35786 5.92186 0
M  V30 431 C 43.413 -2.82692 5.41782 0
M  V30 432 C 44.411 -2.53289 6.34298 0
M  V30 433 O 44.099 -2.41345 7.66817 0
M  V30 434 H 43.831 -0.486776 0.469069 0
M  V30 435 H 46.385 -0.953812 1.81911 0
M  V30 436 H 44.615 -3.50217 1.63967 0
M  V30 437 H 46.304 -3.49828 2.05852 0
M  V30 438 H 47.07 -2.33339 4.2518 0
M  V30 439 H 42.949 -3.16563 3.35126 0
M  V30 440 H 46.493 -2.12757 6.64365 0
M  V30 441 H 42.39 -2.96314 5.7347 0
M  V30 442 H 43.158 -2.56634 7.77226 0
M  V30 443 N 45.8211 -1.22559 -0.990812 0
M  V30 444 C 46.7311 -1.01394 -2.11557 0
M  V30 445 C 47.7471 0.0383962 -1.73958 0
M  V30 446 O 48.9231 -0.154787 -2.00804 0
M  V30 447 C 45.9881 -0.596569 -3.41529 0
M  V30 448 C 45.0491 -1.72276 -3.93217 0
M  V30 449 C 44.2821 -1.32521 -5.16985 0
M  V30 450 O 44.5051 -0.204909 -5.70032 0
M  V30 451 O 43.4391 -2.14247 -5.62478 0
M  V30 452 H 47.2651 -1.95633 -2.32296 0
M  V30 453 H 44.8501 -1.01172 -1.0993 0
M  V30 454 H 46.7321 -0.374263 -4.19735 0
M  V30 455 H 45.4071 0.316939 -3.22145 0
M  V30 456 H 44.3141 -1.99961 -3.16174 0
M  V30 457 H 45.6471 -2.61421 -4.17037 0
M  V30 458 N 47.2992 1.18797 -1.03562 0
M  V30 459 C 48.2472 2.24297 -0.615905 0
M  V30 460 C 49.2412 1.65643 0.354808 0
M  V30 461 O 50.4472 1.78618 0.22265 0
M  V30 462 H 46.8222 0.729909 -0.180934 0
M  V30 463 H 48.7932 2.5701 -1.5162 0
M  V30 464 C 47.5422 3.47698 0.0104735 0
M  V30 465 H 46.8652 3.93125 -0.727509 0
M  V30 466 H 48.3052 4.23159 0.266995 0
M  V30 467 C 46.7642 3.12489 1.25905 0
M  V30 468 O 47.2942 3.25761 2.35038 0
M  V30 469 N 45.5002 2.6686 1.15039 0
M  V30 470 H 45.0472 2.56261 0.262328 0
M  V30 471 H 45.0052 2.43674 1.98672 0
M  V30 472 N 48.7773 0.814389 1.34928 0
M  V30 473 C 50.0053 0.411136 2.02774 0
M  V30 474 C 50.4203 -0.980316 1.61354 0
M  V30 475 O 49.7773 -1.63299 0.814847 0
M  V30 476 C 49.8283 0.493865 3.58111 0
M  V30 477 O 49.5493 1.83047 3.98027 0
M  V30 478 C 51.0503 0.0844174 4.4322 0
M  V30 479 H 48.2703 0.166037 0.650133 0
M  V30 480 H 50.8143 1.10018 1.72384 0
M  V30 481 H 48.9693 -0.147006 3.87121 0
M  V30 482 H 49.3833 1.79872 4.92693 0
M  V30 483 H 50.8573 0.193404 5.51661 0
M  V30 484 H 51.3343 -0.97113 4.28329 0
M  V30 485 H 51.9403 0.69875 4.19521 0
M  V30 486 N 50.2554 -1.46986 0.568584 0
M  V30 487 C 51.1874 -2.28233 -0.210337 0
M  V30 488 C 52.2004 -1.37682 -0.868767 0
M  V30 489 O 53.3894 -1.62406 -0.740705 0
M  V30 490 C 50.4894 -3.12293 -1.3163 0
M  V30 491 C 49.6624 -4.30878 -0.7525 0
M  V30 492 C 48.7214 -4.96445 -1.74439 0
M  V30 493 O 47.7474 -5.54482 -1.286 0
M  V30 494 N 48.9494 -4.92171 -3.07812 0
M  V30 495 H 51.7144 -2.95723 0.486648 0
M  V30 496 H 49.2754 -1.56742 0.405409 0
M  V30 497 H 51.2674 -3.53022 -1.97883 0
M  V30 498 H 49.8374 -2.46971 -1.91636 0
M  V30 499 H 49.0574 -3.94104 0.0871128 0
M  V30 500 H 50.3454 -5.07558 -0.35536 0
M  V30 501 H 49.7434 -4.46239 -3.47688 0
M  V30 502 H 48.3004 -5.36884 -3.69592 0
M  V30 503 N 51.7335 -0.305618 -1.54608 0
M  V30 504 C 52.9735 0.303114 -2.0214 0
M  V30 505 C 53.3375 1.50737 -1.18921 0
M  V30 506 O 54.5385 2.18778 -1.56172 0
M  V30 507 C 52.8095 0.646332 -3.51507 0
M  V30 508 S 54.3685 1.23727 -4.20995 0
M  V30 509 H 51.1865 0.0927643 -0.704923 0
M  V30 510 H 53.7885 -0.434566 -1.90609 0
M  V30 511 H 52.4925 -0.238541 -4.09706 0
M  V30 512 H 52.0235 1.41468 -3.67084 0
M  V30 513 H 54.0385 2.52489 -4.27158 0
M  V30 514 N 53.2116 1.57565 -0.0334293 0
M  V30 515 C 54.4576 1.92262 0.645226 0
M  V30 516 C 54.7906 0.910543 1.71531 0
M  V30 517 O 54.0656 -0.066099 1.94388 0
M  V30 518 C 54.3486 3.37422 1.2577 0
M  V30 519 C 54.2016 4.49369 0.196891 0
M  V30 520 C 55.5206 3.82628 2.17449 0
M  V30 521 H 52.6396 0.699171 0.233085 0
M  V30 522 H 55.2816 1.89779 -0.0915694 0
M  V30 523 H 53.4316 3.39669 1.88566 0
M  V30 524 H 55.1036 4.59254 -0.433962 0
M  V30 525 H 53.3466 4.31168 -0.477137 0
M  V30 526 H 54.0176 5.47978 0.665124 0
M  V30 527 H 56.4936 3.82145 1.64634 0
M  V30 528 H 55.3696 4.84883 2.57254 0
M  V30 529 H 55.6306 3.18376 3.0674 0
M  V30 530 N 54.6897 -0.239769 1.55765 0
M  V30 531 C 55.9147 -0.988373 1.82335 0
M  V30 532 C 56.3397 -1.77886 0.611421 0
M  V30 533 O 55.6977 -1.75889 -0.439639 0
M  V30 534 C 55.7457 -1.89627 3.06715 0
M  V30 535 O 54.8497 -2.98904 2.84131 0
M  V30 536 H 54.1907 -0.280858 0.601677 0
M  V30 537 H 56.7207 -0.258597 2.02959 0
M  V30 538 H 56.7307 -2.30957 3.36338 0
M  V30 539 H 55.4057 -1.31511 3.9456 0
M  V30 540 H 53.9827 -2.61651 2.65694 0
M  V30 541 N 56.1678 -1.49265 -0.50573 0
M  V30 542 C 57.4078 -1.60128 -1.27038 0
M  V30 543 C 57.7718 -0.279557 -1.89954 0
M  V30 544 O 58.9728 -0.263329 -2.67507 0
M  V30 545 C 57.2438 -2.72507 -2.31246 0
M  V30 546 S 58.8028 -3.0329 -3.17113 0
M  V30 547 H 55.6208 -0.564863 -0.4318 0
M  V30 548 H 58.2228 -1.86902 -0.573397 0
M  V30 549 H 56.9268 -3.67068 -1.83546 0
M  V30 550 H 56.4578 -2.4771 -3.05619 0
M  V30 551 H 58.4728 -2.44448 -4.31809 0
M  V30 552 N 57.6459 0.756429 -1.3826 0
M  V30 553 C 58.5959 1.86069 -1.31766 0
M  V30 554 C 59.5799 1.59621 -0.202483 0
M  V30 555 O 60.7719 1.7149 -0.438211 0
M  V30 556 C 57.9009 3.23742 -1.1422 0
M  V30 557 C 56.9869 3.56091 -2.30348 0
M  V30 558 N 57.3779 3.59517 -3.55783 0
M  V30 559 C 55.6759 3.86341 -2.22838 0
M  V30 560 C 56.3769 3.89052 -4.32451 0
M  V30 561 N 55.3529 4.05736 -3.61772 0
M  V30 562 H 59.1549 1.86992 -2.26741 0
M  V30 563 H 56.6689 0.953643 -1.31451 0
M  V30 564 H 58.6659 4.02761 -1.07652 0
M  V30 565 H 57.3259 3.24073 -0.201763 0
M  V30 566 H 58.3369 3.41347 -3.89491 0
M  V30 567 H 55.0139 3.94404 -1.36937 0
M  V30 568 H 56.4039 3.98349 -5.4108 0
M  V30 569 N 59.124 1.23083 0.984299 0
M  V30 570 C 60.372 1.05848 1.72165 0
M  V30 571 C 60.693 -0.406049 1.90726 0
M  V30 572 O 59.963 -1.29139 1.47309 0
M  V30 573 H 58.543 0.388685 0.637913 0
M  V30 574 H 61.205 1.54736 1.18503 0
M  V30 575 H 60.301 1.54327 2.71274 0
M  V30 576 N 60.6021 -1.18246 1.0419 0
M  V30 577 C 61.8301 -1.92195 0.766072 0
M  V30 578 C 62.2451 -1.76247 -0.676933 0
M  V30 579 O 61.6021 -1.09293 -1.46155 0
M  V30 580 C 61.6531 -3.43568 1.12442 0
M  V30 581 O 61.3741 -3.59015 2.51078 0
M  V30 582 C 62.8751 -4.34613 0.873275 0
M  V30 583 H 60.0951 -0.610114 0.279288 0
M  V30 584 H 62.6391 -1.50007 1.38989 0
M  V30 585 H 60.7941 -3.8354 0.545542 0
M  V30 586 H 61.2081 -4.5273 2.64831 0
M  V30 587 H 62.6821 -5.39374 1.17385 0
M  V30 588 H 63.1591 -4.38781 -0.191909 0
M  V30 589 H 63.7651 -4.00341 1.43551 0
M  V30 590 N 62.0802 -0.821533 -1.34494 0
M  V30 591 C 63.0102 -0.257138 -2.3208 0
M  V30 592 C 63.9912 0.625645 -1.58176 0
M  V30 593 O 65.1762 0.552811 -1.86166 0
M  V30 594 C 62.3062 0.582958 -3.42372 0
M  V30 595 C 61.2602 -0.202571 -4.2752 0
M  V30 596 C 60.5862 0.760179 -5.29269 0
M  V30 597 C 61.8862 -1.40998 -5.02908 0
M  V30 598 H 63.5802 -1.07247 -2.79532 0
M  V30 599 H 61.1262 -0.517163 -1.34393 0
M  V30 600 H 63.0792 0.987972 -4.09655 0
M  V30 601 H 61.8032 1.43133 -2.93565 0
M  V30 602 H 60.4622 -0.588936 -3.61838 0
M  V30 603 H 60.1102 1.60447 -4.76724 0
M  V30 604 H 59.8102 0.238809 -5.87115 0
M  V30 605 H 61.3342 1.16308 -5.9942 0
M  V30 606 H 62.7482 -1.07905 -5.63054 0
M  V30 607 H 61.1452 -1.86689 -5.70322 0
M  V30 608 H 62.2152 -2.1889 -4.32684 0
M  V30 609 N 63.5583 1.46682 -0.576371 0
M  V30 610 C 64.4683 2.34032 0.163141 0
M  V30 611 C 65.4843 1.49367 0.892501 0
M  V30 612 O 66.6603 1.82252 0.857106 0
M  V30 613 C 63.7253 3.26435 1.16795 0
M  V30 614 C 62.7863 4.26998 0.443944 0
M  V30 615 C 62.0193 5.14986 1.40088 0
M  V30 616 O 62.2423 5.05785 2.637 0
M  V30 617 O 61.1763 5.94906 0.914917 0
M  V30 618 H 65.0023 2.98607 -0.55388 0
M  V30 619 H 62.5873 1.45554 -0.336821 0
M  V30 620 H 64.4693 3.83459 1.74748 0
M  V30 621 H 63.1443 2.64465 1.86655 0
M  V30 622 H 62.0513 3.7368 -0.177271 0
M  V30 623 H 63.3843 4.91736 -0.213566 0
M  V30 624 N 65.0364 0.313813 1.54444 0
M  V30 625 C 65.9464 -0.565714 2.27677 0
M  V30 626 C 66.9624 -1.13754 1.31666 0
M  V30 627 O 68.1384 -1.15959 1.64668 0
M  V30 628 C 65.2034 -1.71528 3.01296 0
M  V30 629 C 64.2644 -1.17624 4.12872 0
M  V30 630 C 63.4974 -2.27102 4.8297 0
M  V30 631 O 63.7204 -3.47256 4.52514 0
M  V30 632 O 62.6544 -1.9307 5.70094 0
M  V30 633 H 66.4804 0.0287296 3.03686 0
M  V30 634 H 64.0654 0.0798312 1.49187 0
M  V30 635 H 65.9474 -2.38476 3.4743 0
M  V30 636 H 64.6224 -2.29608 2.2817 0
M  V30 637 H 63.5294 -0.472124 3.71109 0
M  V30 638 H 64.8624 -0.640695 4.88012 0
M  V30 639 N 66.5145 -1.57545 0.0417849 0
M  V30 640 C 67.7605 -1.92601 -0.635021 0
M  V30 641 C 68.0935 -0.919627 -1.71045 0
M  V30 642 O 67.3685 0.0557892 -1.9442 0
M  V30 643 C 67.6515 -3.38085 -1.23979 0
M  V30 644 C 67.5045 -4.49467 -0.173057 0
M  V30 645 C 68.8235 -3.83776 -2.15416 0
M  V30 646 H 65.9425 -0.700397 -0.229374 0
M  V30 647 H 68.5845 -1.89728 0.101633 0
M  V30 648 H 66.7345 -3.40664 -1.86762 0
M  V30 649 H 68.4065 -4.59018 0.458312 0
M  V30 650 H 66.6495 -4.30909 0.499996 0
M  V30 651 H 67.3205 -5.48323 -0.636054 0
M  V30 652 H 69.7965 -3.83013 -1.62605 0
M  V30 653 H 68.6725 -4.8624 -2.54679 0
M  V30 654 H 68.9335 -3.19998 -3.05047 0
M  V30 655 N 67.9926 0.231505 -1.5589 0
M  V30 656 C 68.9556 1.27028 -1.90779 0
M  V30 657 C 69.9556 1.40308 -0.785507 0
M  V30 658 O 71.1456 1.38744 -1.05336 0
M  V30 659 C 68.2776 2.64566 -2.14983 0
M  V30 660 H 69.4706 0.973017 -2.83677 0
M  V30 661 H 67.0236 0.471486 -1.49019 0
M  V30 662 H 67.7586 2.99406 -1.24604 0
M  V30 663 H 67.5436 2.56305 -2.96732 0
M  V30 664 H 69.0336 3.39543 -2.43105 0
M  V30 665 N 69.4707 1.49531 0.497807 0
M  V30 666 C 70.3807 1.69176 1.62532 0
M  V30 667 C 71.3967 0.5744 1.64246 0
M  V30 668 O 72.5727 0.849497 1.82608 0
M  V30 669 C 69.6377 1.75695 2.98885 0
M  V30 670 C 68.6987 2.9929 3.07773 0
M  V30 671 C 67.9317 3.05488 4.37622 0
M  V30 672 O 68.1547 2.19192 5.26603 0
M  V30 673 O 67.0887 3.9798 4.51548 0
M  V30 674 H 70.9147 2.647 1.48887 0
M  V30 675 H 68.4997 1.3331 0.674441 0
M  V30 676 H 70.3817 1.82317 3.79919 0
M  V30 677 H 69.0567 0.8335 3.12785 0
M  V30 678 H 67.9637 2.98183 2.25915 0
M  V30 679 H 69.2967 3.91125 2.98801 0
M  V30 680 N 70.9488 -0.749086 1.3866 0
M  V30 681 C 72.1768 -1.53834 1.38358 0
M  V30 682 C 72.5918 -1.88783 -0.0255219 0
M  V30 683 O 71.9488 -1.53101 -0.993292 0
M  V30 684 C 71.9998 -2.83468 2.2434 0
M  V30 685 O 71.7208 -2.50008 3.5976 0
M  V30 686 C 73.2218 -3.7758 2.32267 0
M  V30 687 H 70.4418 -0.47585 0.473083 0
M  V30 688 H 72.9858 -0.926726 1.82297 0
M  V30 689 H 71.1408 -3.40995 1.83851 0
M  V30 690 H 71.5548 -3.33182 4.05081 0
M  V30 691 H 73.0288 -4.65478 2.96706 0
M  V30 692 H 73.5058 -4.18334 1.33765 0
M  V30 693 H 74.1118 -3.25976 2.73166 0
M  V30 694 N 72.4269 -1.23603 -0.977757 0
M  V30 695 C 73.6549 -1.09646 -1.75458 0
M  V30 696 C 74.0699 0.351859 -1.85492 0
M  V30 697 O 73.4269 1.24327 -1.336 0
M  V30 698 C 73.4779 -1.71895 -3.18016 0
M  V30 699 O 73.1989 -3.11063 -3.08498 0
M  V30 700 C 74.6999 -1.63415 -4.12081 0
M  V30 701 H 71.9199 -0.38359 -0.550545 0
M  V30 702 H 74.4639 -1.63507 -1.22824 0
M  V30 703 H 72.6189 -1.22061 -3.67668 0
M  V30 704 H 73.0329 -3.41305 -3.9826 0
M  V30 705 H 74.5069 -2.11669 -5.09804 0
M  V30 706 H 74.9839 -0.593462 -4.35172 0
M  V30 707 H 75.5899 -2.12628 -3.68334 0
M  V30 708 N 73.905 1.17692 -1.04816 0
M  V30 709 C 74.852 2.21581 -0.645797 0
M  V30 710 C 75.822 1.62367 0.350159 0
M  V30 711 O 77.007 1.89254 0.242433 0
M  V30 712 C 74.147 3.45092 -0.0227568 0
M  V30 713 C 73.26 4.18613 -1.06709 0
M  V30 714 C 72.395 5.29602 -0.411767 0
M  V30 715 C 71.434 5.94904 -1.44067 0
M  V30 716 N 70.571 6.97414 -0.809781 0
M  V30 717 H 75.411 2.55353 -1.5362 0
M  V30 718 H 72.948 1.25438 -0.768364 0
M  V30 719 H 74.906 4.15679 0.35588 0
M  V30 720 H 73.536 3.11917 0.831122 0
M  V30 721 H 72.588 3.46779 -1.5636 0
M  V30 722 H 73.9 4.63293 -1.84827 0
M  V30 723 H 73.054 6.06696 0.0206623 0
M  V30 724 H 71.793 4.86045 0.401438 0
M  V30 725 H 70.798 5.16544 -1.88316 0
M  V30 726 H 72.023 6.40542 -2.25571 0
M  V30 727 H 69.969 6.55998 -0.0170186 0
M  V30 728 H 69.886 7.40386 -1.52856 0
M  V30 729 H 71.154 7.78463 -0.401999 0
M  V30 730 N 75.3831 0.828654 1.34056 0
M  V30 731 C 76.3331 0.226828 2.26869 0
M  V30 732 C 77.3171 -0.612243 1.48796 0
M  V30 733 O 78.5091 -0.465884 1.70759 0
M  V30 734 C 75.6381 -0.605654 3.37915 0
M  V30 735 C 74.7241 0.244361 4.23395 0
M  V30 736 N 75.1151 1.31815 4.88322 0
M  V30 737 C 73.4131 0.0296616 4.4599 0
M  V30 738 C 74.1141 1.83895 5.51867 0
M  V30 739 N 73.0901 1.14196 5.3147 0
M  V30 740 H 76.8921 1.04811 2.74576 0
M  V30 741 H 74.4061 0.67205 1.47842 0
M  V30 742 H 76.4031 -1.05302 4.03382 0
M  V30 743 H 75.0631 -1.42504 2.91758 0
M  V30 744 H 76.0741 1.70099 4.8917 0
M  V30 745 H 72.7511 -0.757097 4.10578 0
M  V30 746 H 74.1411 2.7376 6.136 0
M  V30 747 N 76.8612 -1.46375 0.584142 0
M  V30 748 C 77.7712 -2.34115 -0.150728 0
M  V30 749 C 78.7872 -1.49838 -0.884567 0
M  V30 750 O 79.9632 -1.82704 -0.847429 0
M  V30 751 C 77.0282 -3.2705 -1.15062 0
M  V30 752 C 76.0892 -4.27228 -0.421293 0
M  V30 753 C 75.3222 -5.15722 -1.37355 0
M  V30 754 O 75.5452 -5.07176 -2.61014 0
M  V30 755 O 74.4792 -5.95383 -0.883355 0
M  V30 756 H 78.3052 -2.98309 0.569708 0
M  V30 757 H 75.8902 -1.45373 0.344535 0
M  V30 758 H 77.7722 -3.84381 -1.72712 0
M  V30 759 H 76.4472 -2.65451 -1.8525 0
M  V30 760 H 75.3542 -3.7358 0.197085 0
M  V30 761 H 76.6872 -4.91616 0.239641 0
M  V30 762 N 78.3393 -0.321999 -1.54275 0
M  V30 763 C 79.2893 0.560185 -2.21011 0
M  V30 764 C 80.2733 1.08283 -1.19011 0
M  V30 765 O 81.4653 1.02011 -1.44647 0
M  V30 766 C 78.5943 1.72137 -2.97025 0
M  V30 767 C 77.6803 1.21369 -4.06363 0
M  V30 768 N 78.0713 0.425566 -5.04007 0
M  V30 769 C 76.3693 1.49255 -4.20284 0
M  V30 770 C 77.0703 0.152601 -5.815 0
M  V30 771 N 76.0463 0.738294 -5.38563 0
M  V30 772 H 79.8483 -0.049265 -2.93859 0
M  V30 773 H 77.3623 -0.127779 -1.61897 0
M  V30 774 H 79.3593 2.36512 -3.43319 0
M  V30 775 H 78.0193 2.33431 -2.25699 0
M  V30 776 H 79.0303 0.068551 -5.17855 0
M  V30 777 H 75.7073 2.11145 -3.60172 0
M  V30 778 H 77.0973 -0.481764 -6.70171 0
M  V30 779 N 79.8174 1.5752 -0.0501392 0
M  V30 780 C 81.0474 1.96678 0.632573 0
M  V30 781 C 81.4554 0.926298 1.64974 0
M  V30 782 O 80.7984 -0.09802 1.83438 0
M  V30 783 C 80.8604 3.32068 1.37735 0
M  V30 784 C 80.5244 4.54076 0.516131 0
M  V30 785 C 81.5214 5.19445 -0.217357 0
M  V30 786 C 79.2064 5.00304 0.44736 0
M  V30 787 C 81.2004 6.29378 -1.00807 0
M  V30 788 C 78.8874 6.10114 -0.347038 0
M  V30 789 C 79.8854 6.74512 -1.07344 0
M  V30 790 O 79.5734 7.82211 -1.85477 0
M  V30 791 H 79.3054 0.652193 0.177821 0
M  V30 792 H 81.8594 2.05091 -0.112543 0
M  V30 793 H 80.0894 3.20206 2.16807 0
M  V30 794 H 81.7784 3.55981 1.95019 0
M  V30 795 H 82.5444 4.84689 -0.173688 0
M  V30 796 H 78.4234 4.49971 1.00235 0
M  V30 797 H 81.9674 6.79575 -1.57556 0
M  V30 798 H 77.8644 6.44307 -0.392349 0
M  V30 799 H 78.6324 7.98982 -1.77678 0
M  V30 800 N 81.2955 -0.223234 1.56011 0
M  V30 801 C 82.2435 -1.29627 1.93131 0
M  V30 802 C 83.2375 -1.48608 0.813146 0
M  V30 803 O 84.4435 -1.49802 0.997966 0
M  V30 804 H 80.8185 -0.434563 0.613726 0
M  V30 805 H 82.7895 -0.955995 2.82672 0
M  V30 806 C 81.5385 -2.63983 2.26292 0
M  V30 807 H 80.8615 -2.50185 3.11846 0
M  V30 808 H 82.3015 -3.3788 2.56151 0
M  V30 809 C 80.7605 -3.18866 1.08747 0
M  V30 810 O 81.2905 -4.00192 0.347727 0
M  V30 811 N 79.4965 -2.77217 0.871743 0
M  V30 812 H 79.0435 -2.1119 1.47501 0
M  V30 813 H 79.0015 -3.1428 0.0869905 0
M  V30 814 N 82.7736 -1.49793 -0.48987 0
M  V30 815 C 83.7366 -1.66752 -1.57246 0
M  V30 816 C 84.7366 -0.538867 -1.51502 0
M  V30 817 O 85.9266 -0.805545 -1.54456 0
M  V30 818 C 83.0586 -1.67528 -2.96896 0
M  V30 819 H 84.2516 -2.63321 -1.43534 0
M  V30 820 H 81.8046 -1.38992 -0.714914 0
M  V30 821 H 82.5396 -0.725837 -3.16073 0
M  V30 822 H 82.3246 -2.49504 -3.02473 0
M  V30 823 H 83.8146 -1.82667 -3.7553 0
M  V30 824 N 84.2517 0.741722 -1.39055 0
M  V30 825 C 85.2017 1.84661 -1.33732 0
M  V30 826 C 86.1857 1.59397 -0.219401 0
M  V30 827 O 87.3777 1.71015 -0.456375 0
M  V30 828 C 84.5067 3.22512 -1.17647 0
M  V30 829 C 83.5927 3.53628 -2.34112 0
M  V30 830 N 83.9837 3.55723 -3.59576 0
M  V30 831 C 82.2817 3.83956 -2.26923 0
M  V30 832 C 82.9827 3.84443 -4.36553 0
M  V30 833 N 81.9587 4.01877 -3.66055 0
M  V30 834 H 85.7607 1.84576 -2.28711 0
M  V30 835 H 83.2747 0.939647 -1.32455 0
M  V30 836 H 85.2717 4.01597 -1.11917 0
M  V30 837 H 83.9317 3.2384 -0.236124 0
M  V30 838 H 84.9427 3.37196 -3.93089 0
M  V30 839 H 81.6197 3.92929 -1.41113 0
M  V30 840 H 83.0097 3.92588 -5.45274 0
M  V30 841 N 85.7298 1.2412 0.971189 0
M  V30 842 C 86.6928 1.03156 2.04674 0
M  V30 843 C 87.6928 -0.00990322 1.60797 0
M  V30 844 O 88.8828 0.230729 1.72665 0
M  V30 845 C 86.0148 0.562765 3.36223 0
M  V30 846 H 87.2078 1.98614 2.24705 0
M  V30 847 H 84.7608 1.06293 1.14593 0
M  V30 848 H 85.4958 -0.395176 3.21883 0
M  V30 849 H 85.2808 1.31441 3.69413 0
M  V30 850 H 86.7708 0.437015 4.15307 0
M  V30 851 N 87.2079 -1.17134 1.05439 0
M  V30 852 C 88.4329 -1.91913 0.786396 0
M  V30 853 C 88.8579 -1.7643 -0.652234 0
M  V30 854 O 88.2159 -1.08372 -1.45345 0
M  V30 855 C 88.2639 -3.40921 1.17497 0
M  V30 856 O 87.3679 -4.11244 0.308589 0
M  V30 857 H 86.7089 -0.598215 0.288158 0
M  V30 858 H 89.2389 -1.48457 1.4079 0
M  V30 859 H 89.2489 -3.91668 1.14281 0
M  V30 860 H 87.9239 -3.5151 2.22292 0
M  V30 861 H 86.5009 -3.70731 0.40157 0
M  V30 862 N 88.686 -0.835752 -1.33615 0
M  V30 863 C 89.636 -0.238856 -2.26745 0
M  V30 864 C 90.62 0.604343 -1.49119 0
M  V30 865 O 91.812 0.456822 -1.71003 0
M  V30 866 C 88.941 0.587725 -3.38232 0
M  V30 867 C 88.027 -0.266811 -4.2326 0
M  V30 868 N 88.418 -1.34403 -4.87616 0
M  V30 869 C 86.716 -0.0533131 -4.45968 0
M  V30 870 C 87.417 -1.86819 -5.50884 0
M  V30 871 N 86.393 -1.17013 -5.30857 0
M  V30 872 H 90.195 -1.06266 -2.74016 0
M  V30 873 H 87.709 -0.679881 -1.47483 0
M  V30 874 H 89.706 1.03161 -4.03935 0
M  V30 875 H 88.366 1.40954 -2.9251 0
M  V30 876 H 89.377 -1.7269 -4.88261 0
M  V30 877 H 86.054 0.735312 -4.10974 0
M  V30 878 H 87.444 -2.7701 -6.1214 0
M  V30 879 N 90.1641 1.46063 -0.591896 0
M  V30 880 C 91.4111 2.02338 -0.0809991 0
M  V30 881 C 91.7391 1.46228 1.28249 0
M  V30 882 O 90.9941 0.620818 1.85592 0
M  V30 883 C 91.2931 3.57391 0.0249813 0
M  V30 884 C 90.9591 4.32583 -1.27211 0
M  V30 885 C 89.6211 4.52844 -1.62745 0
M  V30 886 C 91.9731 4.75687 -2.13005 0
M  V30 887 C 89.3011 5.13462 -2.83855 0
M  V30 888 C 91.6531 5.37644 -3.3335 0
M  V30 889 C 90.3171 5.5613 -3.69155 0
M  V30 890 H 89.5871 0.740407 -0.0296397 0
M  V30 891 H 92.2341 1.75321 -0.770374 0
M  V30 892 H 90.5391 3.83597 0.797537 0
M  V30 893 H 92.2361 3.98621 0.436184 0
M  V30 894 H 88.8261 4.17116 -0.985499 0
M  V30 895 H 93.0101 4.59782 -1.86855 0
M  V30 896 H 88.2661 5.25965 -3.11722 0
M  V30 897 H 92.4401 5.7 -4.00092 0
M  V30 898 H 90.0671 6.0287 -4.63089 0
M  V30 899 N 91.6422 0.330177 1.54103 0
M  V30 900 C 93.0532 -0.15652 1.86043 0
M  V30 901 C 93.4042 -1.51086 1.2517 0
M  V30 902 O 92.5292 -2.09023 0.560217 0
M  V30 903 C 93.1242 -0.290784 3.3755 0
M  V30 904 C 91.6832 -0.721705 3.69416 0
M  V30 905 C 90.8302 0.152622 2.7688 0
M  V30 906 H 93.7812 0.550237 1.48856 0
M  V30 907 H 93.8022 -1.12058 3.63625 0
M  V30 908 H 93.3142 0.695068 3.81825 0
M  V30 909 H 91.4152 -1.71706 3.30678 0
M  V30 910 H 91.5282 -0.520869 4.7626 0
M  V30 911 H 89.8922 -0.372894 2.51956 0
M  V30 912 H 90.6752 1.13536 3.23982 0
M  V30 913 N 93.1203 -1.57491 0.0584922 0
M  V30 914 C 94.3683 -1.92597 -0.612436 0
M  V30 915 C 94.6893 -0.938162 -1.70949 0
M  V30 916 O 93.9593 0.0158301 -1.95894 0
M  V30 917 H 92.5393 -0.710964 -0.229214 0
M  V30 918 H 95.2013 -1.94571 0.113218 0
M  V30 919 H 94.2973 -2.94038 -1.04633 0
M  V30 920 N 94.5984 0.214957 -1.56127 0
M  V30 921 C 95.5084 1.28727 -1.96129 0
M  V30 922 C 96.5244 1.50916 -0.866044 0
M  V30 923 O 97.7004 1.63918 -1.17016 0
M  V30 924 C 94.7654 2.61569 -2.27558 0
M  V30 925 C 93.8264 2.47625 -3.50685 0
M  V30 926 C 93.0594 3.74132 -3.80606 0
M  V30 927 O 93.2824 4.77438 -3.12104 0
M  V30 928 O 92.2164 3.70849 -4.74083 0
M  V30 929 H 96.0424 0.977855 -2.87527 0
M  V30 930 H 93.6274 0.418358 -1.43423 0
M  V30 931 H 95.5094 3.40012 -2.48938 0
M  V30 932 H 94.1844 2.92178 -1.39332 0
M  V30 933 H 93.0914 1.67361 -3.34576 0
M  V30 934 H 94.4244 2.21954 -4.39315 0
M  V30 935 N 96.0765 1.50051 0.48192 0
M  V30 936 C 97.3225 1.60736 1.2366 0
M  V30 937 C 97.6555 0.301786 1.91841 0
M  V30 938 O 96.9305 -0.696025 1.8162 0
M  V30 939 C 97.2135 2.78009 2.28874 0
M  V30 940 C 97.0665 4.18416 1.65069 0
M  V30 941 C 98.3855 2.90867 3.30279 0
M  V30 942 H 95.5045 0.585031 0.448228 0
M  V30 943 H 98.1465 1.82402 0.531946 0
M  V30 944 H 96.2965 2.59667 2.88973 0
M  V30 945 H 97.9685 4.48322 1.0865 0
M  V30 946 H 96.2115 4.23177 0.954148 0
M  V30 947 H 96.8825 4.96381 2.41474 0
M  V30 948 H 99.3585 3.07623 2.80191 0
M  V30 949 H 98.2345 3.74566 4.01238 0
M  V30 950 H 98.4955 2.01021 3.93755 0
M  V30 951 N 97.5546 -0.734337 1.39446 0
M  V30 952 C 98.5176 -1.83004 1.37994 0
M  V30 953 C 99.5176 -1.58397 0.276938 0
M  V30 954 O 100.708 -1.65785 0.534875 0
M  V30 955 C 97.8396 -3.20802 1.1532 0
M  V30 956 H 99.0326 -1.85694 2.35494 0
M  V30 957 H 96.5856 -0.938059 1.25021 0
M  V30 958 H 97.3206 -3.23772 0.185036 0
M  V30 959 H 97.1056 -3.4006 1.95197 0
M  V30 960 H 98.5956 -4.00862 1.17046 0
M  V30 961 N 99.0327 -1.24633 -0.964593 0
M  V30 962 C 100.273 -1.09981 -1.72289 0
M  V30 963 C 100.637 0.354792 -1.88693 0
M  V30 964 O 101.838 0.62289 -2.61483 0
M  V30 965 C 100.109 -1.82262 -3.07434 0
M  V30 966 S 101.668 -1.83379 -3.98645 0
M  V30 967 H 98.4857 -0.393292 -0.59232 0
M  V30 968 H 101.088 -1.58009 -1.15123 0
M  V30 969 H 99.7917 -2.87206 -2.93157 0
M  V30 970 H 99.3227 -1.3458 -3.69664 0
M  V30 971 H 101.338 -0.903691 -4.87901 0
M  V30 972 N 100.511 1.16574 -1.06058 0
M  V30 973 C 101.739 1.90952 -0.796552 0
M  V30 974 C 102.154 1.77302 0.648808 0
M  V30 975 O 101.511 1.11605 1.44397 0
M  V30 976 C 101.562 3.41736 -1.17894 0
M  V30 977 O 101.283 3.54975 -2.56758 0
M  V30 978 C 102.784 4.33169 -0.942308 0
M  V30 979 H 100.004 0.605594 -0.288959 0
M  V30 980 H 102.548 1.47777 -1.41358 0
M  V30 981 H 100.703 3.82623 -0.606491 0
M  V30 982 H 101.117 4.4846 -2.72 0
M  V30 983 H 102.591 5.37439 -1.25952 0
M  V30 984 H 103.068 4.3903 0.122078 0
M  V30 985 H 103.674 3.98007 -1.49902 0
M  V30 986 N 101.989 0.842826 1.3317 0
M  V30 987 C 103.214 0.453129 2.02389 0
M  V30 988 C 103.639 -0.939105 1.6298 0
M  V30 989 O 102.997 -1.61472 0.8244 0
M  V30 990 C 103.045 0.586094 3.55805 0
M  V30 991 O 102.149 -0.386029 4.10589 0
M  V30 992 H 101.49 0.183664 0.638094 0
M  V30 993 H 104.02 1.13875 1.69981 0
M  V30 994 H 104.03 0.469209 4.05293 0
M  V30 995 H 102.705 1.6014 3.83833 0
M  V30 996 H 101.282 -0.226371 3.72212 0
M  V30 997 N 103.467 -1.45747 0.599634 0
M  V30 998 C 104.707 -2.04181 0.0946309 0
M  V30 999 C 105.071 -1.45895 -1.24815 0
M  V30 1000 O 106.272 -1.95633 -1.8434 0
M  V30 1001 C 104.543 -3.57368 0.047581 0
M  V30 1002 S 106.102 -4.36997 -0.397387 0
M  V30 1003 H 102.92 -0.70953 0.0456954 0
M  V30 1004 H 105.522 -1.78564 0.795946 0
M  V30 1005 H 104.226 -3.97303 1.02852 0
M  V30 1006 H 103.757 -3.87549 -0.675977 0
M  V30 1007 H 105.772 -4.68012 -1.64862 0
M  V30 1008 N 104.945 -0.338344 -1.53925 0
M  V30 1009 C 105.895 0.536712 -2.21593 0
M  V30 1010 C 106.879 1.07015 -1.20153 0
M  V30 1011 O 108.071 1.00471 -1.45721 0
M  V30 1012 C 105.2 1.68977 -2.98834 0
M  V30 1013 C 104.286 1.17052 -4.07627 0
M  V30 1014 N 104.677 0.372085 -5.0443 0
M  V30 1015 C 102.975 1.44789 -4.21844 0
M  V30 1016 C 103.676 0.0909171 -5.81629 0
M  V30 1017 N 102.652 0.681131 -5.39316 0
M  V30 1018 H 106.454 -0.0804298 -2.9379 0
M  V30 1019 H 103.968 -0.144943 -1.61752 0
M  V30 1020 H 105.965 2.32857 -3.45808 0
M  V30 1021 H 104.625 2.31024 -2.28162 0
M  V30 1022 H 105.636 0.0136217 -5.17898 0
M  V30 1023 H 102.313 2.07313 -3.62391 0
M  V30 1024 H 103.703 -0.552817 -6.69622 0
M  V30 1025 N 106.423 1.57458 -0.0668435 0
M  V30 1026 C 107.648 1.9804 0.616027 0
M  V30 1027 C 108.073 0.944771 1.62652 0
M  V30 1028 O 107.431 -0.0902094 1.81075 0
M  V30 1029 C 107.479 3.37665 1.26549 0
M  V30 1030 O 106.583 3.36701 2.38131 0
M  V30 1031 H 105.924 0.644719 0.158849 0
M  V30 1032 H 108.454 2.04121 -0.139891 0
M  V30 1033 H 108.464 3.7474 1.6135 0
M  V30 1034 H 107.139 4.12573 0.525016 0
M  V30 1035 H 105.716 3.1139 2.0516 0
M  V30 1036 N 107.901 -0.206675 1.56239 0
M  V30 1037 C 108.864 -1.23976 1.92776 0
M  V30 1038 C 109.864 -1.39041 0.807729 0
M  V30 1039 O 111.054 -1.37051 1.0753 0
M  V30 1040 C 108.186 -2.61112 2.19165 0
M  V30 1041 H 109.379 -0.927764 2.85189 0
M  V30 1042 H 106.932 -0.447718 1.4975 0
M  V30 1043 H 107.667 -2.97386 1.29352 0
M  V30 1044 H 107.452 -2.51552 3.00772 0
M  V30 1045 H 108.942 -3.35633 2.48476 0
M  V30 1046 N 109.379 -1.50304 -0.473955 0
M  V30 1047 C 110.329 -1.65347 -1.56985 0
M  V30 1048 C 111.313 -0.508176 -1.52664 0
M  V30 1049 O 112.505 -0.762446 -1.59737 0
M  V30 1050 C 109.634 -1.74832 -2.95447 0
M  V30 1051 C 108.72 -2.95028 -3.04662 0
M  V30 1052 N 109.111 -4.18747 -2.83698 0
M  V30 1053 C 107.409 -2.93527 -3.35795 0
M  V30 1054 C 108.11 -4.99687 -2.97805 0
M  V30 1055 N 107.086 -4.33585 -3.2788 0
M  V30 1056 H 110.888 -2.58698 -1.39472 0
M  V30 1057 H 108.402 -1.47449 -0.680629 0
M  V30 1058 H 110.399 -1.83712 -3.7424 0
M  V30 1059 H 109.059 -0.826376 -3.14008 0
M  V30 1060 H 110.07 -4.48291 -2.59337 0
M  V30 1061 H 106.747 -2.10821 -3.60362 0
M  V30 1062 H 108.137 -6.08057 -2.85861 0
M  V30 1063 N 110.857 0.726932 -1.39834 0
M  V30 1064 C 111.767 1.87131 -1.41489 0
M  V30 1065 C 112.783 1.71239 -0.308757 0
M  V30 1066 O 113.959 1.93701 -0.551529 0
M  V30 1067 C 111.024 3.22811 -1.26468 0
M  V30 1068 C 110.085 3.51039 -2.47124 0
M  V30 1069 C 109.318 4.80245 -2.3281 0
M  V30 1070 O 109.541 5.54537 -1.33585 0
M  V30 1071 O 108.475 5.08554 -3.21957 0
M  V30 1072 H 112.301 1.8869 -2.3797 0
M  V30 1073 H 109.886 0.875837 -1.21035 0
M  V30 1074 H 111.768 4.03877 -1.20255 0
M  V30 1075 H 110.443 3.22005 -0.330862 0
M  V30 1076 H 109.35 2.70027 -2.58914 0
M  V30 1077 H 110.683 3.56632 -3.39227 0
M  V30 1078 N 112.336 1.25143 0.95797 0
M  V30 1079 C 113.283 1.05235 2.05412 0
M  V30 1080 C 114.253 -0.0374561 1.66058 0
M  V30 1081 O 115.438 0.119073 1.90428 0
M  V30 1082 C 112.578 0.673589 3.38462 0
M  V30 1083 C 111.691 1.8379 3.90954 0
M  V30 1084 C 110.826 1.40381 5.12315 0
M  V30 1085 C 109.865 2.53746 5.57027 0
M  V30 1086 N 109.002 2.11136 6.69601 0
M  V30 1087 H 113.842 1.99048 2.21774 0
M  V30 1088 H 111.379 0.991277 1.08683 0
M  V30 1089 H 113.337 0.434964 4.14926 0
M  V30 1090 H 111.967 -0.227554 3.21997 0
M  V30 1091 H 111.019 2.18992 3.11041 0
M  V30 1092 H 112.331 2.68937 4.20089 0
M  V30 1093 H 111.485 1.12464 5.96185 0
M  V30 1094 H 110.224 0.523015 4.84887 0
M  V30 1095 H 109.229 2.82412 4.71724 0
M  V30 1096 H 110.454 3.42398 5.86464 0
M  V30 1097 H 108.4 1.25468 6.4389 0
M  V30 1098 H 108.317 2.89832 6.98236 0
M  V30 1099 H 109.585 1.86385 7.56889 0
M  V30 1100 N 113.814 -1.1601 1.06675 0
M  V30 1101 C 115.039 -1.91068 0.806706 0
M  V30 1102 C 115.464 -1.77112 -0.633485 0
M  V30 1103 O 114.822 -1.09908 -1.44187 0
M  V30 1104 C 114.87 -3.39655 1.21106 0
M  V30 1105 O 113.974 -4.10893 0.352189 0
M  V30 1106 H 113.315 -0.595125 0.294486 0
M  V30 1107 H 115.845 -1.46955 1.42356 0
M  V30 1108 H 115.855 -3.90434 1.18428 0
M  V30 1109 H 114.53 -3.49132 2.26008 0
M  V30 1110 H 113.107 -3.70285 0.440868 0
M  V30 1111 N 115.292 -0.849877 -1.32721 0
M  V30 1112 C 116.225 -0.235903 -2.26977 0
M  V30 1113 C 117.203 0.623355 -1.50177 0
M  V30 1114 O 118.387 0.581207 -1.79316 0
M  V30 1115 C 115.514 0.667712 -3.32053 0
M  V30 1116 C 114.56 -0.11753 -4.26338 0
M  V30 1117 S 115.393 -1.48277 -5.14562 0
M  V30 1118 C 116.549 -0.584741 -6.23163 0
M  V30 1119 H 116.782 -1.03495 -2.78704 0
M  V30 1120 H 114.315 -0.64724 -1.40179 0
M  V30 1121 H 116.273 1.18343 -3.93072 0
M  V30 1122 H 114.934 1.44052 -2.7912 0
M  V30 1123 H 114.127 0.57051 -5.00761 0
M  V30 1124 H 113.729 -0.564668 -3.69713 0
M  V30 1125 H 116.021 0.212968 -6.77165 0
M  V30 1126 H 116.964 -1.29947 -6.96074 0
M  V30 1127 H 117.372 -0.161202 -5.6427 0
M  V30 1128 N 116.77 1.45427 -0.607355 0
M  V30 1129 C 118.016 2.0254 -0.102607 0
M  V30 1130 C 118.349 1.47478 1.26348 0
M  V30 1131 O 117.624 0.64939 1.83339 0
M  V30 1132 C 117.907 3.60044 -0.0634347 0
M  V30 1133 C 117.76 4.2544 -1.46017 0
M  V30 1134 C 119.079 4.35646 0.624514 0
M  V30 1135 H 116.198 0.73598 -0.0387607 0
M  V30 1136 H 118.84 1.73284 -0.779282 0
M  V30 1137 H 116.99 3.85101 0.512808 0
M  V30 1138 H 118.662 4.11569 -2.08347 0
M  V30 1139 H 116.905 3.83849 -2.02094 0
M  V30 1140 H 117.576 5.34342 -1.385 0
M  V30 1141 H 120.052 4.15882 0.134723 0
M  V30 1142 H 118.928 5.45376 0.621028 0
M  V30 1143 H 119.189 4.08501 1.69055 0
M  V30 1144 N 118.248 0.346503 1.53744 0
M  V30 1145 C 119.478 -0.250047 2.05081 0
M  V30 1146 C 119.886 -1.44529 1.22098 0
M  V30 1147 O 119.229 -1.81992 0.249917 0
M  V30 1148 C 119.291 -0.725934 3.52094 0
M  V30 1149 C 118.955 0.350053 4.55657 0
M  V30 1150 C 119.952 1.19372 5.0601 0
M  V30 1151 C 117.637 0.504827 4.99757 0
M  V30 1152 C 119.631 2.17768 5.99046 0
M  V30 1153 C 117.318 1.49218 5.92602 0
M  V30 1154 C 118.316 2.32706 6.42135 0
M  V30 1155 O 118.004 3.2976 7.33153 0
M  V30 1156 H 117.736 -0.0515469 0.674032 0
M  V30 1157 H 120.29 0.497559 1.99282 0
M  V30 1158 H 118.52 -1.52483 3.55367 0
M  V30 1159 H 120.209 -1.24336 3.86388 0
M  V30 1160 H 120.975 1.08525 4.72702 0
M  V30 1161 H 116.854 -0.135178 4.60802 0
M  V30 1162 H 120.398 2.82971 6.37631 0
M  V30 1163 H 116.295 1.6012 6.25325 0
M  V30 1164 H 117.063 3.25265 7.51096 0
M  V30 1165 N 119.726 -1.57421 0.075193 0
M  V30 1166 C 120.966 -1.95495 -0.596757 0
M  V30 1167 C 121.33 -0.954886 -1.66571 0
M  V30 1168 O 122.531 -1.22341 -2.39345 0
M  V30 1169 C 120.802 -3.382 -1.15566 0
M  V30 1170 S 122.361 -3.98254 -1.84226 0
M  V30 1171 H 119.179 -0.683649 -0.195307 0
M  V30 1172 H 121.781 -1.94925 0.149859 0
M  V30 1173 H 120.485 -4.08766 -0.36588 0
M  V30 1174 H 120.016 -3.42321 -1.93856 0
M  V30 1175 H 122.031 -3.85435 -3.12497 0
M  V30 1176 N 121.204 0.198386 -1.56346 0
M  V30 1177 C 122.481 0.944982 -1.71258 0
M  V30 1178 C 122.861 2.0151 -0.629048 0
M  V30 1179 O 122.209 2.25639 0.360473 0
M  V30 1180 C 122.419 1.5344 -3.1346 0
M  V30 1181 C 123.767 2.01778 -3.73591 0
M  V30 1182 O 124.791 1.63288 -3.16568 0
M  V30 1183 O 123.65 2.72594 -4.73661 0
M  V30 1184 H 120.744 0.442939 -0.69838 0
M  V30 1185 H 123.29 0.188342 -1.68652 0
M  V30 1186 H 122.062 0.762869 -3.83792 0
M  V30 1187 H 121.685 2.35596 -3.20282 0
M  V30 1188 N 122.682 1.50554 0.465978 0
M  V30 1189 C 123.907 1.65838 1.24549 0
M  V30 1190 C 124.332 0.343486 1.84937 0
M  V30 1191 O 123.69 -0.69324 1.67523 0
M  V30 1192 C 123.738 2.75533 2.32624 0
M  V30 1193 O 122.842 2.37142 3.37398 0
M  V30 1194 H 122.183 0.553893 0.366194 0
M  V30 1195 H 124.713 1.96959 0.553927 0
M  V30 1196 H 124.723 2.98763 2.77857 0
M  V30 1197 H 123.398 3.70962 1.88043 0
M  V30 1198 H 121.975 2.24377 2.97841 0
M  V30 1199 N 124.16 -0.719506 1.40217 0
M  V30 1200 C 125.4 -1.49181 1.39729 0
M  V30 1201 C 125.764 -1.92 -0.00250614 0
M  V30 1202 O 126.965 -2.68473 -0.132479 0
M  V30 1203 C 125.236 -2.68767 2.35582 0
M  V30 1204 S 126.795 -3.58224 2.53418 0
M  V30 1205 H 123.613 -0.510091 0.495307 0
M  V30 1206 H 126.215 -0.841724 1.76452 0
M  V30 1207 H 124.919 -2.35475 3.36124 0
M  V30 1208 H 124.45 -3.38691 2.0013 0
M  V30 1209 H 126.465 -4.63033 1.78367 0
M  V30 1210 N 125.638 -1.25649 -0.95132 0
M  V30 1211 C 126.588 -1.03004 -2.03406 0
M  V30 1212 C 127.572 0.034187 -1.60864 0
M  V30 1213 O 128.764 -0.181549 -1.76066 0
M  V30 1214 C 125.893 -0.654255 -3.37008 0
M  V30 1215 C 124.979 -1.75542 -3.86065 0
M  V30 1216 N 125.37 -2.99113 -4.07879 0
M  V30 1217 C 123.668 -1.63669 -4.14884 0
M  V30 1218 C 124.369 -3.70611 -4.48356 0
M  V30 1219 N 123.345 -2.98247 -4.54477 0
M  V30 1220 H 127.147 -1.96813 -2.1827 0
M  V30 1221 H 124.661 -1.16017 -1.13639 0
M  V30 1222 H 126.658 -0.473206 -4.14206 0
M  V30 1223 H 125.318 0.276468 -3.23521 0
M  V30 1224 H 126.329 -3.35124 -3.94857 0
M  V30 1225 H 123.006 -0.775161 -4.10241 0
M  V30 1226 H 124.396 -4.76695 -4.73509 0
M  V30 1227 N 127.117 1.15442 -1.07289 0
M  V30 1228 C 128.342 1.90638 -0.816828 0
M  V30 1229 C 128.767 1.77445 0.624083 0
M  V30 1230 O 128.125 1.10671 1.43602 0
M  V30 1231 C 128.173 3.39008 -1.22906 0
M  V30 1232 O 127.277 4.10701 -0.373975 0
M  V30 1233 H 126.618 0.593555 -0.297638 0
M  V30 1234 H 129.148 1.46198 -1.43134 0
M  V30 1235 H 129.158 3.89801 -1.20497 0
M  V30 1236 H 127.833 3.47929 -2.27856 0
M  V30 1237 H 126.41 3.70046 -0.460499 0
M  V30 1238 N 128.595 0.856903 1.32268 0
M  V30 1239 C 129.842 0.461386 1.97174 0
M  V30 1240 C 130.17 -0.983491 1.67803 0
M  V30 1241 O 129.425 -1.70541 0.959903 0
M  V30 1242 C 129.724 0.649919 3.51441 0
M  V30 1243 C 129.39 2.0656 4.00804 0
M  V30 1244 C 128.052 2.45279 4.13995 0
M  V30 1245 C 130.404 2.98947 4.26943 0
M  V30 1246 C 127.732 3.75653 4.50668 0
M  V30 1247 C 130.084 4.28822 4.65075 0
M  V30 1248 C 128.748 4.67472 4.76472 0
M  V30 1249 H 128.018 0.168833 0.72151 0
M  V30 1250 H 130.665 1.08739 1.57633 0
M  V30 1251 H 128.97 -0.0593018 3.91755 0
M  V30 1252 H 130.667 0.32391 3.9969 0
M  V30 1253 H 127.257 1.75495 3.91024 0
M  V30 1254 H 131.441 2.70265 4.16258 0
M  V30 1255 H 126.697 4.05379 4.57688 0
M  V30 1256 H 130.871 5.0047 4.84255 0
M  V30 1257 H 128.498 5.68539 5.04646 0
M  V30 1258 N 130.073 -1.45103 0.615059 0
M  V30 1259 C 131.35 -1.95549 0.0448276 0
M  V30 1260 C 131.73 -1.55737 -1.4251 0
M  V30 1261 O 131.078 -0.823556 -2.13143 0
M  V30 1262 C 131.288 -3.48098 0.250785 0
M  V30 1263 C 132.636 -4.24384 0.135509 0
M  V30 1264 O 133.66 -3.55738 0.181299 0
M  V30 1265 O 132.519 -5.46493 0.0268878 0
M  V30 1266 H 129.613 -0.8264 -0.0314845 0
M  V30 1267 H 132.159 -1.55232 0.685642 0
M  V30 1268 H 130.931 -3.7007 1.27139 0
M  V30 1269 H 130.554 -3.95323 -0.424937 0
M  V30 1270 N 131.551 -0.354651 -1.53558 0
M  V30 1271 C 132.798 0.238443 -2.01091 0
M  V30 1272 C 133.126 1.49663 -1.24222 0
M  V30 1273 O 132.381 1.93049 -0.321003 0
M  V30 1274 C 132.68 0.587121 -3.52545 0
M  V30 1275 C 132.346 -0.575472 -4.47213 0
M  V30 1276 C 131.008 -0.894497 -4.72813 0
M  V30 1277 C 133.36 -1.35489 -5.03281 0
M  V30 1278 C 130.688 -1.99511 -5.51736 0
M  V30 1279 C 133.04 -2.44583 -5.83405 0
M  V30 1280 C 131.704 -2.77033 -6.07296 0
M  V30 1281 H 130.974 0.0872526 -0.735845 0
M  V30 1282 H 133.621 -0.484859 -1.8526 0
M  V30 1283 H 131.926 1.39129 -3.66265 0
M  V30 1284 H 133.623 1.05809 -3.86789 0
M  V30 1285 H 130.213 -0.316774 -4.27428 0
M  V30 1286 H 134.397 -1.12167 -4.83459 0
M  V30 1287 H 129.653 -2.25063 -5.68469 0
M  V30 1288 H 133.827 -3.05401 -6.25862 0
M  V30 1289 H 131.454 -3.6244 -6.68237 0
M  V30 1290 N 133.029 1.57378 -0.0835403 0
M  V30 1291 C 133.977 2.14602 0.89714 0
M  V30 1292 C 134.971 1.08589 1.30018 0
M  V30 1293 O 136.177 1.26952 1.27606 0
M  V30 1294 H 132.552 0.686346 0.3073 0
M  V30 1295 H 134.523 2.95845 0.38969 0
M  V30 1296 C 133.272 2.73188 2.15089 0
M  V30 1297 H 132.595 3.54442 1.84962 0
M  V30 1298 H 134.035 3.1681 2.81793 0
M  V30 1299 C 132.494 1.68517 2.91725 0
M  V30 1300 O 133.024 1.11718 3.85852 0
M  V30 1301 N 131.23 1.39277 2.55049 0
M  V30 1302 H 130.777 1.85655 1.78577 0
M  V30 1303 H 130.735 0.694791 3.06627 0
M  V30 1304 N 134.507 -0.190092 1.56449 0
M  V30 1305 C 135.44 -1.26375 1.90012 0
M  V30 1306 C 136.418 -1.43705 0.760765 0
M  V30 1307 O 137.602 -1.59014 1.01226 0
M  V30 1308 C 134.729 -2.62962 2.13468 0
M  V30 1309 C 133.775 -2.62474 3.36169 0
M  V30 1310 S 134.608 -2.13412 4.91137 0
M  V30 1311 C 135.764 -3.51812 5.17667 0
M  V30 1312 H 135.997 -0.977181 2.80782 0
M  V30 1313 H 133.53 -0.393814 1.49293 0
M  V30 1314 H 135.488 -3.41583 2.27664 0
M  V30 1315 H 134.149 -2.88828 1.23439 0
M  V30 1316 H 133.342 -3.62918 3.49723 0
M  V30 1317 H 132.944 -1.91937 3.20992 0
M  V30 1318 H 135.236 -4.47706 5.08494 0
M  V30 1319 H 136.179 -3.43148 6.19399 0
M  V30 1320 H 136.587 -3.46956 4.45288 0
M  V30 1321 N 135.985 -1.50799 -0.457987 0
M  V30 1322 C 137.396 -1.55152 -1.0385 0
M  V30 1323 C 137.747 -0.362719 -1.92818 0
M  V30 1324 O 136.872 0.522915 -2.09987 0
M  V30 1325 C 137.467 -2.81173 -1.89017 0
M  V30 1326 C 136.026 -2.88164 -2.42154 0
M  V30 1327 C 135.173 -2.49591 -1.20829 0
M  V30 1328 H 138.124 -1.56874 -0.240068 0
M  V30 1329 H 138.145 -2.63769 -2.74238 0
M  V30 1330 H 137.657 -3.67677 -1.24238 0
M  V30 1331 H 135.758 -2.06042 -3.10447 0
M  V30 1332 H 135.871 -3.91356 -2.76364 0
M  V30 1333 H 134.235 -2.02322 -1.54719 0
M  V30 1334 H 135.018 -3.38418 -0.576927 0
M  V30 1335 N 137.463 0.71206 -1.40597 0
M  V30 1336 C 138.693 1.49894 -1.42181 0
M  V30 1337 C 139.101 1.89189 -0.0208078 0
M  V30 1338 O 138.444 1.56223 0.966436 0
M  V30 1339 C 138.506 2.80215 -2.25211 0
M  V30 1340 C 138.17 2.63221 -3.73582 0
M  V30 1341 C 139.167 2.30249 -4.66135 0
M  V30 1342 C 136.852 2.79376 -4.17438 0
M  V30 1343 C 138.846 2.13645 -6.00529 0
M  V30 1344 C 136.533 2.6239 -5.51901 0
M  V30 1345 C 137.531 2.29573 -6.43262 0
M  V30 1346 O 137.219 2.12719 -7.75246 0
M  V30 1347 H 136.951 0.469031 -0.486812 0
M  V30 1348 H 139.505 0.88564 -1.85326 0
M  V30 1349 H 137.735 3.4389 -1.76852 0
M  V30 1350 H 139.424 3.41947 -2.18694 0
M  V30 1351 H 140.19 2.17398 -4.33547 0
M  V30 1352 H 136.069 3.03906 -3.46644 0
M  V30 1353 H 139.613 1.87953 -6.71803 0
M  V30 1354 H 135.51 2.74826 -5.84073 0
M  V30 1355 H 136.278 2.27611 -7.86216 0
M  V30 1356 N 138.941 1.26152 0.944643 0
M  V30 1357 C 139.904 1.07474 2.0244 0
M  V30 1358 C 140.904 0.0242064 1.60782 0
M  V30 1359 O 142.094 0.267302 1.72137 0
M  V30 1360 C 139.226 0.633956 3.34953 0
M  V30 1361 H 140.419 2.03336 2.20442 0
M  V30 1362 H 137.972 1.087 1.12312 0
M  V30 1363 H 138.707 -0.326811 3.22649 0
M  V30 1364 H 138.492 1.39247 3.66542 0
M  V30 1365 H 139.982 0.52501 4.14287 0
M  V30 1366 N 140.419 -1.14872 1.07899 0
M  V30 1367 C 141.366 -2.19791 0.704319 0
M  V30 1368 C 142.336 -1.63238 -0.306987 0
M  V30 1369 O 143.521 -1.8983 -0.192171 0
M  V30 1370 C 140.661 -3.44911 0.114244 0
M  V30 1371 C 139.774 -4.15637 1.1777 0
M  V30 1372 C 138.909 -5.28324 0.552037 0
M  V30 1373 C 137.948 -5.90875 1.59789 0
M  V30 1374 N 137.085 -6.95022 0.994404 0
M  V30 1375 H 141.925 -2.5119 1.60336 0
M  V30 1376 H 139.462 -1.23356 0.801352 0
M  V30 1377 H 141.42 -4.16477 -0.245544 0
M  V30 1378 H 140.05 -3.14011 -0.74813 0
M  V30 1379 H 139.102 -3.42512 1.65499 0
M  V30 1380 H 140.414 -4.5823 1.97046 0
M  V30 1381 H 139.568 -6.06538 0.1402 0
M  V30 1382 H 138.307 -4.86939 -0.272431 0
M  V30 1383 H 137.312 -5.11369 2.01945 0
M  V30 1384 H 138.537 -6.34337 2.42474 0
M  V30 1385 H 136.483 -6.55722 0.190939 0
M  V30 1386 H 136.4 -7.36073 1.72432 0
M  V30 1387 H 137.668 -7.77123 0.608253 0
M  V30 1388 N 141.898 -0.863906 -1.31812 0
M  V30 1389 C 142.845 -0.313303 -2.28664 0
M  V30 1390 C 143.815 0.584868 -1.55462 0
M  V30 1391 O 145 0.517805 -1.83639 0
M  V30 1392 C 142.14 0.48441 -3.41683 0
M  V30 1393 C 141.253 -0.440594 -4.29747 0
M  V30 1394 C 140.388 0.370652 -5.29905 0
M  V30 1395 C 139.427 -0.551164 -6.09613 0
M  V30 1396 N 138.564 0.223462 -7.01744 0
M  V30 1397 H 143.404 -1.14444 -2.75148 0
M  V30 1398 H 140.941 -0.575769 -1.35364 0
M  V30 1399 H 142.899 0.962627 -4.05943 0
M  V30 1400 H 141.529 1.28029 -2.96325 0
M  V30 1401 H 140.581 -1.03724 -3.65986 0
M  V30 1402 H 141.893 -1.14767 -4.85417 0
M  V30 1403 H 141.047 0.911638 -5.99812 0
M  V30 1404 H 139.786 1.11105 -4.74876 0
M  V30 1405 H 138.791 -1.10396 -5.38603 0
M  V30 1406 H 140.016 -1.29032 -6.66729 0
M  V30 1407 H 137.962 0.946787 -6.49132 0
M  V30 1408 H 137.879 -0.424399 -7.54808 0
M  V30 1409 H 139.147 0.745876 -7.75923 0
M  V30 1410 N 143.376 1.44774 -0.622745 0
M  V30 1411 C 144.622 2.02968 -0.13257 0
M  V30 1412 C 144.977 1.48047 1.22881 0
M  V30 1413 O 144.27 0.651625 1.80179 0
M  V30 1414 C 144.464 3.57364 -0.0508323 0
M  V30 1415 C 144.293 4.27262 -1.40275 0
M  V30 1416 C 143.063 4.64577 -1.98737 0
M  V30 1417 C 145.261 4.58248 -2.3348 0
M  V30 1418 N 143.243 5.19404 -3.27251 0
M  V30 1419 C 144.614 5.14069 -3.46603 0
M  V30 1420 C 146.669 4.40195 -2.32664 0
M  V30 1421 C 145.372 5.53738 -4.59093 0
M  V30 1422 C 147.398 4.80907 -3.44213 0
M  V30 1423 C 146.76 5.36834 -4.56058 0
M  V30 1424 H 142.859 0.776541 -0.0922354 0
M  V30 1425 H 145.443 1.76385 -0.82441 0
M  V30 1426 H 143.614 3.83576 0.610265 0
M  V30 1427 H 145.346 4.02219 0.447397 0
M  V30 1428 H 142.101 4.48622 -1.51774 0
M  V30 1429 H 142.525 5.51301 -3.92933 0
M  V30 1430 H 147.167 3.96257 -1.47446 0
M  V30 1431 H 144.885 5.96635 -5.45025 0
M  V30 1432 H 148.471 4.68659 -3.44747 0
M  V30 1433 H 147.351 5.67755 -5.40947 0
M  V30 1434 N 144.854 0.36279 1.53368 0
M  V30 1435 C 145.786 -0.519668 2.23231 0
M  V30 1436 C 146.799 -1.04844 1.24546 0
M  V30 1437 O 147.988 -0.955296 1.50786 0
M  V30 1438 C 145.088 -1.72995 2.9142 0
M  V30 1439 C 144.261 -1.33316 4.16588 0
M  V30 1440 C 143.32 -2.40521 4.68013 0
M  V30 1441 O 142.346 -2.03027 5.3176 0
M  V30 1442 N 143.548 -3.72065 4.45587 0
M  V30 1443 H 146.313 0.078751 2.99597 0
M  V30 1444 H 143.874 0.187833 1.60807 0
M  V30 1445 H 145.866 -2.44184 3.22733 0
M  V30 1446 H 144.436 -2.2353 2.18525 0
M  V30 1447 H 143.656 -0.451236 3.91609 0
M  V30 1448 H 144.944 -1.04432 4.97967 0
M  V30 1449 H 144.342 -4.05304 3.94646 0
M  V30 1450 H 142.899 -4.39366 4.81457 0
M  V30 1451 N 146.332 -1.57332 0.0918853 0
M  V30 1452 C 147.748 -1.57389 -0.264766 0
M  V30 1453 C 147.948 -1.10281 -1.68643 0
M  V30 1454 O 147.004 -0.777801 -2.40222 0
M  V30 1455 C 148.317 -3.00648 -0.0561195 0
M  V30 1456 C 149.865 -3.12754 -0.124116 0
M  V30 1457 C 150.34 -4.57965 0.0564972 0
M  V30 1458 N 151.831 -4.632 0.00155611 0
M  V30 1459 C 152.566 -5.73281 0.116598 0
M  V30 1460 N 152.062 -6.92208 0.286294 0
M  V30 1461 N 153.855 -5.6207 0.0580973 0
M  V30 1462 H 146.006 -1.86262 1.02079 0
M  V30 1463 H 148.269 -0.859579 0.399786 0
M  V30 1464 H 147.975 -3.393 0.925669 0
M  V30 1465 H 147.849 -3.68623 -0.799823 0
M  V30 1466 H 150.236 -2.73976 -1.09641 0
M  V30 1467 H 150.317 -2.47377 0.651024 0
M  V30 1468 H 149.961 -4.97436 1.02564 0
M  V30 1469 H 149.891 -5.21399 -0.738297 0
M  V30 1470 H 152.382 -3.77686 -0.127192 0
M  V30 1471 H 152.695 -7.71934 0.365676 0
M  V30 1472 H 151.04 -6.94254 0.32192 0
M  V30 1473 H 154.231 -4.68043 -0.0733204 0
M  V30 1474 H 154.404 -6.47824 0.151203 0
M  V30 1475 N 147.81 0.181792 -1.56548 0
M  V30 1476 C 149.087 0.926765 -1.72251 0
M  V30 1477 C 149.467 2.00831 -0.650386 0
M  V30 1478 O 148.815 2.26008 0.336521 0
M  V30 1479 C 149.025 1.50106 -3.1507 0
M  V30 1480 C 150.373 1.97805 -3.75711 0
M  V30 1481 O 151.397 1.59922 -3.18282 0
M  V30 1482 O 150.256 2.67555 -4.76525 0
M  V30 1483 H 147.35 0.435506 -0.703039 0
M  V30 1484 H 149.896 0.170443 -1.68842 0
M  V30 1485 H 148.668 0.72212 -3.84579 0
M  V30 1486 H 148.291 2.32186 -3.22763 0
M  V30 1487 N 149.288 1.51039 0.449983 0
M  V30 1488 C 150.198 1.74261 1.57067 0
M  V30 1489 C 151.214 0.626363 1.62335 0
M  V30 1490 O 152.39 0.907162 1.79812 0
M  V30 1491 C 149.455 1.85114 2.93144 0
M  V30 1492 C 148.516 3.0893 2.98095 0
M  V30 1493 C 147.749 3.19256 4.27681 0
M  V30 1494 O 147.972 2.35835 5.19363 0
M  V30 1495 O 146.906 4.12144 4.38658 0
M  V30 1496 H 150.732 2.69303 1.40391 0
M  V30 1497 H 148.317 1.35389 0.631688 0
M  V30 1498 H 150.199 1.94311 3.73926 0
M  V30 1499 H 148.874 0.932588 3.09975 0
M  V30 1500 H 147.781 3.0522 2.16314 0
M  V30 1501 H 149.114 4.00433 2.86206 0
M  V30 1502 N 150.766 -0.704594 1.40972 0
M  V30 1503 C 152.177 -1.28418 1.3552 0
M  V30 1504 C 152.528 -1.96171 0.0339434 0
M  V30 1505 O 151.653 -1.98231 -0.867944 0
M  V30 1506 C 152.248 -2.33528 2.45459 0
M  V30 1507 C 150.807 -2.87085 2.43433 0
M  V30 1508 C 149.954 -1.61007 2.2577 0
M  V30 1509 H 152.905 -0.499963 1.50619 0
M  V30 1510 H 152.926 -3.14619 2.13998 0
M  V30 1511 H 152.438 -1.84187 3.41609 0
M  V30 1512 H 150.539 -3.40626 1.51013 0
M  V30 1513 H 150.652 -3.3813 3.39419 0
M  V30 1514 H 149.016 -1.86482 1.73483 0
M  V30 1515 H 149.799 -1.13675 3.23933 0
M  V30 1516 N 152.244 -1.26651 -0.937939 0
M  V30 1517 C 153.472 -1.15173 -1.7188 0
M  V30 1518 C 153.887 0.292668 -1.86518 0
M  V30 1519 O 153.244 1.20014 -1.37488 0
M  V30 1520 C 153.295 -1.81925 -3.12387 0
M  V30 1521 O 153.016 -3.2072 -2.98446 0
M  V30 1522 C 154.517 -1.76442 -4.06673 0
M  V30 1523 H 151.737 -0.400911 -0.538063 0
M  V30 1524 H 154.281 -1.67332 -1.1756 0
M  V30 1525 H 152.436 -1.33696 -3.63599 0
M  V30 1526 H 152.85 -3.53802 -3.872 0
M  V30 1527 H 154.324 -2.27781 -5.02812 0
M  V30 1528 H 154.801 -0.731608 -4.33064 0
M  V30 1529 H 155.407 -2.24238 -3.61382 0
M  V30 1530 N 153.722 1.14298 -1.08507 0
M  V30 1531 C 154.971 1.84708 -0.810305 0
M  V30 1532 C 155.284 1.83903 0.666271 0
M  V30 1533 O 156.49 2.50112 1.05624 0
M  V30 1534 C 154.946 3.31572 -1.39957 0
M  V30 1535 C 154.554 3.40791 -2.90801 0
M  V30 1536 C 156.298 4.07087 -1.20334 0
M  V30 1537 C 154.205 4.81872 -3.4286 0
M  V30 1538 H 153.135 0.691985 -0.299454 0
M  V30 1539 H 155.786 1.28841 -1.30661 0
M  V30 1540 H 154.168 3.87183 -0.830976 0
M  V30 1541 H 155.342 2.95225 -3.53806 0
M  V30 1542 H 153.657 2.78732 -3.0935 0
M  V30 1543 H 156.254 5.11225 -1.56693 0
M  V30 1544 H 156.597 4.16054 -0.143237 0
M  V30 1545 H 157.13 3.57779 -1.73893 0
M  V30 1546 H 153.869 4.78094 -4.48449 0
M  V30 1547 H 153.389 5.27972 -2.84615 0
M  V30 1548 H 155.068 5.50765 -3.39509 0
M  V30 1549 N 155.201 0.870884 1.31352 0
M  V30 1550 C 156.164 0.332243 2.26779 0
M  V30 1551 C 157.164 -0.517302 1.52252 0
M  V30 1552 O 158.354 -0.326477 1.71113 0
M  V30 1553 C 155.486 -0.528066 3.36785 0
M  V30 1554 H 156.679 1.17469 2.75937 0
M  V30 1555 H 154.232 0.64655 1.423 0
M  V30 1556 H 154.967 -1.39167 2.92922 0
M  V30 1557 H 154.752 0.0802582 3.92018 0
M  V30 1558 H 156.242 -0.897179 4.07849 0
M  V30 1559 N 156.679 -1.44442 0.630414 0
M  V30 1560 C 157.589 -2.34476 -0.0761693 0
M  V30 1561 C 158.605 -1.52576 -0.836449 0
M  V30 1562 O 159.781 -1.85307 -0.788874 0
M  V30 1563 C 156.846 -3.30545 -1.04599 0
M  V30 1564 C 155.907 -4.28352 -0.28516 0
M  V30 1565 C 155.14 -5.19831 -1.20878 0
M  V30 1566 O 155.363 -5.15223 -2.44747 0
M  V30 1567 O 154.297 -5.97892 -0.693491 0
M  V30 1568 H 158.123 -2.96345 0.664324 0
M  V30 1569 H 155.708 -1.44203 0.39061 0
M  V30 1570 H 157.59 -3.89681 -1.60396 0
M  V30 1571 H 156.265 -2.7121 -1.76711 0
M  V30 1572 H 155.172 -3.72764 0.315837 0
M  V30 1573 H 156.505 -4.90605 0.395924 0
M  V30 1574 N 158.157 -0.370918 -1.53173 0
M  V30 1575 C 159.087 0.464847 -2.28826 0
M  V30 1576 C 160.068 1.07936 -1.31468 0
M  V30 1577 O 161.253 1.0956 -1.60344 0
M  V30 1578 C 158.383 1.60196 -3.08147 0
M  V30 1579 C 157.337 1.11443 -4.13237 0
M  V30 1580 C 156.663 2.3422 -4.80672 0
M  V30 1581 C 157.963 0.195384 -5.21934 0
M  V30 1582 H 159.657 -0.166329 -2.98938 0
M  V30 1583 H 157.203 -0.0814359 -1.4377 0
M  V30 1584 H 159.156 2.19332 -3.59822 0
M  V30 1585 H 157.88 2.26045 -2.35735 0
M  V30 1586 H 156.539 0.545727 -3.62515 0
M  V30 1587 H 156.187 2.98537 -4.04827 0
M  V30 1588 H 155.887 2.02269 -5.51689 0
M  V30 1589 H 157.411 2.94032 -5.35143 0
M  V30 1590 H 158.825 0.694375 -5.69079 0
M  V30 1591 H 157.222 -0.0335027 -6.00091 0
M  V30 1592 H 158.292 -0.760961 -4.78892 0
M  V30 1593 N 159.635 1.57281 -0.100228 0
M  V30 1594 C 160.598 2.13158 0.842398 0
M  V30 1595 C 161.598 1.06202 1.20738 0
M  V30 1596 O 162.788 1.32066 1.13597 0
M  V30 1597 C 159.92 2.65639 2.13655 0
M  V30 1598 H 161.113 2.97766 0.357114 0
M  V30 1599 H 158.666 1.5559 0.148823 0
M  V30 1600 H 159.401 1.84566 2.66657 0
M  V30 1601 H 159.186 3.43844 1.88451 0
M  V30 1602 H 160.676 3.08846 2.81077 0
M  V30 1603 N 161.113 -0.173488 1.56642 0
M  V30 1604 C 162.06 -1.21482 1.96242 0
M  V30 1605 C 163.03 -1.44104 0.826027 0
M  V30 1606 O 164.215 -1.5688 1.08597 0
M  V30 1607 C 161.355 -2.54964 2.32567 0
M  V30 1608 C 160.468 -2.39739 3.59373 0
M  V30 1609 C 159.603 -3.66072 3.84921 0
M  V30 1610 C 158.642 -3.45771 5.05083 0
M  V30 1611 N 157.779 -4.64169 5.26775 0
M  V30 1612 H 162.619 -0.870123 2.85014 0
M  V30 1613 H 160.156 -0.418245 1.41029 0
M  V30 1614 H 162.114 -3.32758 2.5165 0
M  V30 1615 H 160.744 -2.87433 1.46908 0
M  V30 1616 H 159.796 -1.53131 3.48217 0
M  V30 1617 H 161.108 -2.20683 4.47326 0
M  V30 1618 H 160.262 -4.52303 4.0436 0
M  V30 1619 H 159.001 -3.88105 2.9534 0
M  V30 1620 H 158.006 -2.57927 4.85545 0
M  V30 1621 H 159.231 -3.25163 5.96193 0
M  V30 1622 H 157.177 -4.86425 4.40144 0
M  V30 1623 H 157.094 -4.48019 6.08946 0
M  V30 1624 H 158.362 -5.51689 5.5069 0
M  V30 1625 N 162.591 -1.51276 -0.441967 0
M  V30 1626 C 163.868 -1.54252 -1.20273 0
M  V30 1627 C 164.248 -0.30408 -2.08898 0
M  V30 1628 O 163.596 0.711084 -2.17154 0
M  V30 1629 C 163.806 -2.85406 -2.00859 0
M  V30 1630 C 165.154 -3.37181 -2.58059 0
M  V30 1631 O 166.178 -2.86925 -2.11074 0
M  V30 1632 O 165.037 -4.24858 -3.43741 0
M  V30 1633 H 162.131 -0.619969 -0.547328 0
M  V30 1634 H 164.677 -1.63586 -0.451413 0
M  V30 1635 H 163.449 -3.67003 -1.35736 0
M  V30 1636 H 163.072 -2.79213 -2.83065 0
M  V30 1637 N 164.069 0.697108 -1.41344 0
M  V30 1638 C 165.016 1.81106 -1.43071 0
M  V30 1639 C 165.986 1.63632 -0.285275 0
M  V30 1640 O 167.171 1.84504 -0.486091 0
M  V30 1641 C 164.311 3.18975 -1.31715 0
M  V30 1642 C 163.424 3.47892 -2.56115 0
M  V30 1643 C 162.559 4.75367 -2.37064 0
M  V30 1644 C 161.598 4.97247 -3.56948 0
M  V30 1645 N 160.735 6.15947 -3.36977 0
M  V30 1646 H 165.575 1.78965 -2.38276 0
M  V30 1647 H 163.112 0.873975 -1.18322 0
M  V30 1648 H 165.07 3.98615 -1.23133 0
M  V30 1649 H 163.7 3.20297 -0.401183 0
M  V30 1650 H 162.752 2.62669 -2.75153 0
M  V30 1651 H 164.064 3.59962 -3.45295 0
M  V30 1652 H 163.218 5.63059 -2.25941 0
M  V30 1653 H 161.957 4.65541 -1.45338 0
M  V30 1654 H 160.962 4.08004 -3.68527 0
M  V30 1655 H 162.187 5.08934 -4.49626 0
M  V30 1656 H 160.133 6.07336 -2.47949 0
M  V30 1657 H 160.05 6.28777 -4.19732 0
M  V30 1658 H 161.318 7.06377 -3.29623 0
M  V30 1659 N 165.547 1.27147 0.931209 0
M  V30 1660 C 166.772 1.16191 1.71797 0
M  V30 1661 C 167.197 -0.278004 1.86034 0
M  V30 1662 O 166.555 -1.20137 1.35782 0
M  V30 1663 C 166.603 1.84673 3.09723 0
M  V30 1664 O 165.707 1.14231 3.96264 0
M  V30 1665 H 165.048 0.404303 0.526721 0
M  V30 1666 H 167.578 1.68152 1.1656 0
M  V30 1667 H 167.588 1.91893 3.60057 0
M  V30 1668 H 166.263 2.89421 2.98677 0
M  V30 1669 H 164.84 1.15056 3.54706 0
M  V30 1670 N 167.025 -1.13721 1.09112 0
M  V30 1671 C 167.935 -2.22638 0.73957 0
M  V30 1672 C 168.951 -1.72091 -0.257068 0
M  V30 1673 O 170.127 -2.01155 -0.0992154 0
M  V30 1674 C 167.192 -3.46322 0.16191 0
M  V30 1675 C 166.253 -4.11775 1.21408 0
M  V30 1676 C 165.486 -5.29555 0.663891 0
M  V30 1677 O 165.709 -5.68077 -0.514274 0
M  V30 1678 O 164.643 -5.84973 1.41738 0
M  V30 1679 H 168.469 -2.55074 1.64836 0
M  V30 1680 H 166.054 -1.21791 0.865289 0
M  V30 1681 H 167.936 -4.21107 -0.157073 0
M  V30 1682 H 166.611 -3.15593 -0.719932 0
M  V30 1683 H 165.518 -3.3883 1.58571 0
M  V30 1684 H 166.851 -4.46627 2.06845 0
M  V30 1685 N 168.503 -0.877838 -1.30888 0
M  V30 1686 C 169.919 -0.570844 -1.49042 0
M  V30 1687 C 170.119 0.893159 -1.80624 0
M  V30 1688 O 169.175 1.67485 -1.88958 0
M  V30 1689 C 170.488 -1.47784 -2.61878 0
M  V30 1690 C 172.036 -1.48071 -2.75761 0
M  V30 1691 C 172.511 -2.37347 -3.91702 0
M  V30 1692 N 174.002 -2.35271 -3.99001 0
M  V30 1693 C 174.737 -3.01063 -4.88004 0
M  V30 1694 N 174.233 -3.76055 -5.81854 0
M  V30 1695 N 176.026 -2.90332 -4.81315 0
M  V30 1696 H 168.177 -1.82502 -1.0866 0
M  V30 1697 H 170.44 -0.780797 -0.537644 0
M  V30 1698 H 170.146 -2.51993 -2.45341 0
M  V30 1699 H 170.02 -1.18215 -3.58197 0
M  V30 1700 H 172.407 -0.446166 -2.91708 0
M  V30 1701 H 172.488 -1.81668 -1.80085 0
M  V30 1702 H 172.132 -3.40883 -3.76512 0
M  V30 1703 H 172.062 -2.01071 -4.86701 0
M  V30 1704 H 174.553 -1.80768 -3.3186 0
M  V30 1705 H 174.866 -4.23366 -6.46514 0
M  V30 1706 H 173.211 -3.80163 -5.81808 0
M  V30 1707 H 176.402 -2.31278 -4.06974 0
M  V30 1708 H 176.575 -3.41885 -5.50471 0
M  V30 1709 N 169.982 1.44106 -0.638065 0
M  V30 1710 C 170.914 2.28976 0.101205 0
M  V30 1711 C 171.927 1.4167 0.802088 0
M  V30 1712 O 173.116 1.65755 0.662375 0
M  V30 1713 C 170.216 3.18217 1.16581 0
M  V30 1714 C 169.389 4.33978 0.546066 0
M  V30 1715 C 168.448 5.04202 1.50554 0
M  V30 1716 O 167.474 5.59986 1.01999 0
M  V30 1717 N 168.676 5.06296 2.8398 0
M  V30 1718 H 171.441 2.93064 -0.627186 0
M  V30 1719 H 169.002 1.54629 -0.479731 0
M  V30 1720 H 170.994 3.62061 1.80815 0
M  V30 1721 H 169.564 2.55833 1.79634 0
M  V30 1722 H 168.784 3.93239 -0.275046 0
M  V30 1723 H 170.072 5.08675 0.112793 0
M  V30 1724 H 169.47 4.62319 3.26002 0
M  V30 1725 H 168.027 5.53907 3.43556 0
M  V30 1726 N 171.46 0.379036 1.52974 0
M  V30 1727 C 172.423 -0.448865 2.24762 0
M  V30 1728 C 173.423 -0.998689 1.26027 0
M  V30 1729 O 174.613 -0.882313 1.50203 0
M  V30 1730 C 171.745 -1.62872 2.99476 0
M  V30 1731 H 172.938 0.179491 2.99362 0
M  V30 1732 H 170.491 0.13096 1.5575 0
M  V30 1733 H 171.226 -2.29479 2.29151 0
M  V30 1734 H 171.011 -1.24128 3.71934 0
M  V30 1735 H 172.501 -2.2151 3.5401 0
M  V30 1736 N 172.938 -1.57226 0.108567 0
M  V30 1737 C 173.901 -2.13602 -0.831082 0
M  V30 1738 C 174.901 -1.06841 -1.20173 0
M  V30 1739 O 176.091 -1.32666 -1.12895 0
M  V30 1740 C 173.223 -2.66769 -2.12243 0
M  V30 1741 H 174.416 -2.97951 -0.341317 0
M  V30 1742 H 171.969 -1.55667 -0.14057 0
M  V30 1743 H 172.704 -1.85977 -2.65675 0
M  V30 1744 H 172.489 -3.44839 -1.86625 0
M  V30 1745 H 173.979 -3.10332 -2.79435 0
M  V30 1746 N 174.416 0.165178 -1.56732 0
M  V30 1747 C 175.346 1.20651 -1.99914 0
M  V30 1748 C 176.327 1.45827 -0.875705 0
M  V30 1749 O 177.512 1.57057 -1.14223 0
M  V30 1750 C 174.642 2.54401 -2.36427 0
M  V30 1751 C 173.596 2.43782 -3.51787 0
M  V30 1752 C 172.922 3.82078 -3.7406 0
M  V30 1753 C 174.222 1.93732 -4.85041 0
M  V30 1754 H 175.916 0.847534 -2.87154 0
M  V30 1755 H 173.462 0.40625 -1.38151 0
M  V30 1756 H 175.415 3.27458 -2.65234 0
M  V30 1757 H 174.139 2.92098 -1.46103 0
M  V30 1758 H 172.798 1.73178 -3.23117 0
M  V30 1759 H 172.446 4.17179 -2.81017 0
M  V30 1760 H 172.146 3.7584 -4.51684 0
M  V30 1761 H 173.67 4.56712 -4.05274 0
M  V30 1762 H 175.084 2.56569 -5.12684 0
M  V30 1763 H 173.481 1.98428 -5.66345 0
M  V30 1764 H 174.551 0.891962 -4.76626 0
M  V30 1765 N 175.894 1.51508 0.433938 0
M  V30 1766 C 176.857 1.72473 1.50949 0
M  V30 1767 C 177.857 0.594725 1.49398 0
M  V30 1768 O 179.047 0.862315 1.5136 0
M  V30 1769 C 176.179 1.78431 2.90474 0
M  V30 1770 H 177.372 2.68467 1.33662 0
M  V30 1771 H 174.925 1.41549 0.662836 0
M  V30 1772 H 175.66 0.842645 3.13161 0
M  V30 1773 H 175.445 2.60558 2.93005 0
M  V30 1774 H 176.935 1.96479 3.68491 0
M  V30 1775 N 177.372 -0.689602 1.41712 0
M  V30 1776 C 178.597 -1.48329 1.44959 0
M  V30 1777 C 179.022 -1.8801 0.0581283 0
M  V30 1778 O 178.38 -1.55026 -0.940035 0
M  V30 1779 C 178.428 -2.71835 2.36935 0
M  V30 1780 O 177.532 -3.69549 1.8305 0
M  V30 1781 H 176.873 -0.446199 0.491734 0
M  V30 1782 H 179.403 -0.847127 1.86239 0
M  V30 1783 H 179.413 -3.20076 2.53013 0
M  V30 1784 H 178.088 -2.42291 3.38035 0
M  V30 1785 H 176.665 -3.2851 1.76452 0
M  V30 1786 N 178.85 -1.27639 -0.924453 0
M  V30 1787 C 179.813 -1.10681 -2.00705 0
M  V30 1788 C 180.813 -0.0497823 -1.60723 0
M  V30 1789 O 182.003 -0.294654 -1.7169 0
M  V30 1790 C 179.135 -0.687164 -3.33902 0
M  V30 1791 H 180.328 -2.06817 -2.17179 0
M  V30 1792 H 177.881 -1.10473 -1.10569 0
M  V30 1793 H 178.616 0.275439 -3.23128 0
M  V30 1794 H 178.401 -1.45061 -3.6428 0
M  V30 1795 H 179.891 -0.590853 -4.13399 0
M  V30 1796 N 180.328 1.1314 -1.09713 0
M  V30 1797 C 181.739 1.66029 -0.853885 0
M  V30 1798 C 182.09 1.86241 0.617142 0
M  V30 1799 O 181.215 1.5834 1.47503 0
M  V30 1800 C 181.81 3.01599 -1.5435 0
M  V30 1801 C 180.369 3.51467 -1.34714 0
M  V30 1802 C 179.516 2.26648 -1.59769 0
M  V30 1803 H 182.467 0.970226 -1.25588 0
M  V30 1804 H 182.488 3.67709 -0.978267 0
M  V30 1805 H 182 2.86856 -2.6141 0
M  V30 1806 H 180.101 3.71408 -0.297838 0
M  V30 1807 H 180.214 4.314 -2.08401 0
M  V30 1808 H 178.578 2.33385 -1.01998 0
M  V30 1809 H 179.361 2.14467 -2.68065 0
M  V30 1810 N 181.806 0.884767 1.30421 0
M  V30 1811 C 182.756 0.322846 2.25703 0
M  V30 1812 C 183.74 -0.548582 1.51259 0
M  V30 1813 O 184.932 -0.39304 1.72581 0
M  V30 1814 C 182.061 -0.461787 3.4018 0
M  V30 1815 C 181.147 0.423717 4.21978 0
M  V30 1816 N 181.538 1.52408 4.82292 0
M  V30 1817 C 179.836 0.218795 4.45463 0
M  V30 1818 C 180.537 2.07136 5.43571 0
M  V30 1819 N 179.513 1.36635 5.26148 0
M  V30 1820 H 183.315 1.16363 2.69883 0
M  V30 1821 H 180.829 0.73415 1.44859 0
M  V30 1822 H 182.826 -0.880985 4.07485 0
M  V30 1823 H 181.486 -1.30001 2.9754 0
M  V30 1824 H 182.497 1.90693 4.81515 0
M  V30 1825 H 179.174 -0.582275 4.1342 0
M  V30 1826 H 180.564 2.99538 6.01437 0
M  V30 1827 N 183.284 -1.43765 0.645699 0
M  V30 1828 C 184.561 -1.9541 0.0862963 0
M  V30 1829 C 184.941 -1.58725 -1.39175 0
M  V30 1830 O 184.289 -0.868581 -2.11348 0
M  V30 1831 C 184.499 -3.47488 0.324565 0
M  V30 1832 C 185.847 -4.24001 0.225497 0
M  V30 1833 O 186.871 -3.55274 0.256715 0
M  V30 1834 O 185.73 -5.46313 0.142801 0
M  V30 1835 H 182.824 -0.826882 -0.0139483 0
M  V30 1836 H 185.37 -1.53743 0.718415 0
M  V30 1837 H 184.142 -3.67289 1.3496 0
M  V30 1838 H 183.765 -3.96135 -0.340987 0
M  V30 1839 N 184.763 -0.387143 -1.52771 0
M  V30 1840 C 185.991 0.195869 -2.05971 0
M  V30 1841 C 186.406 1.40691 -1.25903 0
M  V30 1842 O 185.763 1.79931 -0.305134 0
M  V30 1843 C 185.814 0.56812 -3.57008 0
M  V30 1844 O 185.535 -0.594803 -4.34043 0
M  V30 1845 C 187.036 1.20723 -4.26545 0
M  V30 1846 H 184.256 0.0300578 -0.670326 0
M  V30 1847 H 186.8 -0.551749 -1.96916 0
M  V30 1848 H 184.955 1.26564 -3.66143 0
M  V30 1849 H 185.369 -0.289322 -5.23701 0
M  V30 1850 H 186.843 1.41807 -5.33474 0
M  V30 1851 H 187.32 2.17395 -3.81623 0
M  V30 1852 H 187.926 0.550535 -4.21722 0
M  V30 1853 N 186.241 1.57166 -0.116904 0
M  V30 1854 C 187.487 1.95412 0.542405 0
M  V30 1855 C 187.82 1.00019 1.66463 0
M  V30 1856 O 187.095 0.0370346 1.94465 0
M  V30 1857 C 187.378 3.43615 1.07708 0
M  V30 1858 C 187.231 4.49781 -0.0415868 0
M  V30 1859 C 188.55 3.93616 1.96861 0
M  V30 1860 H 185.669 0.710543 0.195696 0
M  V30 1861 H 188.311 1.89027 -0.192038 0
M  V30 1862 H 186.461 3.49187 1.70296 0
M  V30 1863 H 188.133 4.56308 -0.676793 0
M  V30 1864 H 186.376 4.28033 -0.705019 0
M  V30 1865 H 187.047 5.50733 0.373717 0
M  V30 1866 H 189.523 3.90335 1.44146 0
M  V30 1867 H 188.399 4.97838 2.3119 0
M  V30 1868 H 188.66 3.34188 2.89432 0
M  V30 1869 N 187.719 -0.156864 1.56817 0
M  V30 1870 C 188.996 -0.899244 1.73704 0
M  V30 1871 C 189.376 -1.99771 0.682254 0
M  V30 1872 O 188.724 -2.26515 -0.300522 0
M  V30 1873 C 188.934 -1.45075 3.17418 0
M  V30 1874 C 190.282 -1.91802 3.7881 0
M  V30 1875 O 191.306 -1.54838 3.20786 0
M  V30 1876 O 190.165 -2.5994 4.80722 0
M  V30 1877 H 187.259 -0.424267 0.709878 0
M  V30 1878 H 189.805 -0.143561 1.69092 0
M  V30 1879 H 188.577 -0.660846 3.85679 0
M  V30 1880 H 188.2 -2.27021 3.26416 0
M  V30 1881 N 189.197 -1.51736 -0.425897 0
M  V30 1882 C 190.443 -1.65214 -1.1761 0
M  V30 1883 C 190.776 -0.372778 -1.90589 0
M  V30 1884 O 190.051 0.628139 -1.84078 0
M  V30 1885 C 190.334 -2.86312 -2.18398 0
M  V30 1886 C 190.187 -4.24254 -1.49426 0
M  V30 1887 C 191.506 -3.02925 -3.19256 0
M  V30 1888 H 188.625 -0.601263 -0.426206 0
M  V30 1889 H 191.267 -1.8425 -0.463882 0
M  V30 1890 H 189.417 -2.70213 -2.79137 0
M  V30 1891 H 191.089 -4.52046 -0.919362 0
M  V30 1892 H 189.332 -4.26426 -0.796432 0
M  V30 1893 H 190.003 -5.05001 -2.22885 0
M  V30 1894 H 192.479 -3.1781 -2.68581 0
M  V30 1895 H 191.355 -3.89199 -3.8706 0
M  V30 1896 H 191.616 -2.15497 -3.86023 0
M  V30 1897 N 190.675 0.682077 -1.42076 0
M  V30 1898 C 191.921 1.44428 -1.42367 0
M  V30 1899 C 192.254 1.94164 -0.0373056 0
M  V30 1900 O 191.529 1.70429 0.937239 0
M  V30 1901 C 191.812 2.64654 -2.44194 0
M  V30 1902 C 191.665 2.20596 -3.91991 0
M  V30 1903 C 192.984 3.66865 -2.431 0
M  V30 1904 H 190.103 0.523834 -0.518428 0
M  V30 1905 H 192.745 0.77576 -1.73442 0
M  V30 1906 H 190.895 3.2169 -2.17826 0
M  V30 1907 H 192.567 1.68783 -4.29313 0
M  V30 1908 H 190.81 1.52242 -4.06208 0
M  V30 1909 H 191.481 3.06921 -4.58807 0
M  V30 1910 H 193.957 3.19531 -2.66532 0
M  V30 1911 H 192.833 4.48577 -3.16339 0
M  V30 1912 H 193.094 4.17493 -1.45437 0
M  V30 1913 N 192.153 1.28127 0.917671 0
M  V30 1914 C 193.399 1.15223 1.66888 0
M  V30 1915 C 193.732 -0.299293 1.9188 0
M  V30 1916 O 193.007 -1.21805 1.51637 0
M  V30 1917 C 193.29 1.94706 3.02922 0
M  V30 1918 C 193.143 3.47898 2.85109 0
M  V30 1919 C 194.462 1.75939 4.03402 0
M  V30 1920 H 191.581 0.419946 0.605652 0
M  V30 1921 H 194.223 1.57398 1.06423 0
M  V30 1922 H 192.373 1.58864 3.54534 0
M  V30 1923 H 194.045 3.93624 2.40537 0
M  V30 1924 H 192.288 3.7373 2.20246 0
M  V30 1925 H 192.959 3.98765 3.81694 0
M  V30 1926 H 195.435 2.07209 3.60837 0
M  V30 1927 H 194.311 2.33931 4.96556 0
M  V30 1928 H 194.572 0.709877 4.36364 0
M  V30 1929 N 193.631 -1.12557 1.10312 0
M  V30 1930 C 194.877 -1.84311 0.846011 0
M  V30 1931 C 195.21 -1.83805 -0.626859 0
M  V30 1932 O 194.485 -1.28268 -1.46211 0
M  V30 1933 C 194.768 -3.32048 1.39341 0
M  V30 1934 C 194.621 -3.41016 2.93305 0
M  V30 1935 C 195.94 -4.27764 1.03468 0
M  V30 1936 H 193.059 -0.669192 0.30879 0
M  V30 1937 H 195.701 -1.32057 1.36605 0
M  V30 1938 H 193.851 -3.76678 0.951087 0
M  V30 1939 H 195.523 -3.05031 3.46055 0
M  V30 1940 H 193.766 -2.81603 3.29973 0
M  V30 1941 H 194.437 -4.44948 3.26689 0
M  V30 1942 H 196.913 -3.91253 1.41633 0
M  V30 1943 H 195.789 -5.29549 1.44463 0
M  V30 1944 H 196.05 -4.42064 -0.0560404 0
M  V30 1945 N 195.109 -0.891671 -1.2995 0
M  V30 1946 C 196.357 -0.512486 -1.95494 0
M  V30 1947 C 196.678 0.942776 -1.70695 0
M  V30 1948 O 195.948 1.66374 -1.03424 0
M  V30 1949 H 194.528 -0.186533 -0.723336 0
M  V30 1950 H 197.19 -1.13621 -1.58355 0
M  V30 1951 H 196.286 -0.688342 -3.04415 0
M  V30 1952 N 196.587 1.43421 -0.653314 0
M  V30 1953 C 197.812 2.06678 -0.172846 0
M  V30 1954 C 198.237 1.48648 1.15262 0
M  V30 1955 O 197.595 0.596457 1.71208 0
M  V30 1956 C 197.643 3.60474 -0.0953184 0
M  V30 1957 O 196.747 4.01487 0.942442 0
M  V30 1958 H 196.088 0.657181 -0.0949155 0
M  V30 1959 H 198.618 1.83925 -0.896265 0
M  V30 1960 H 198.628 4.07905 0.0879728 0
M  V30 1961 H 197.303 4.02088 -1.06291 0
M  V30 1962 H 195.88 3.65646 0.731932 0
M  V30 1963 N 198.065 0.39524 1.52563 0
M  V30 1964 C 199.313 -0.184678 2.01254 0
M  V30 1965 C 199.634 -1.46822 1.28329 0
M  V30 1966 O 198.904 -1.91666 0.405094 0
M  V30 1967 H 197.484 -0.0712355 0.743596 0
M  V30 1968 H 200.146 0.528293 1.87603 0
M  V30 1969 H 199.242 -0.390681 3.09645 0
M  V30 1970 N 199.544 -1.57102 0.125237 0
M  V30 1971 C 200.792 -1.95021 -0.530198 0
M  V30 1972 C 201.113 -1.00982 -1.66816 0
M  V30 1973 O 200.383 -0.0672693 -1.95784 0
M  V30 1974 H 198.963 -0.720046 -0.198853 0
M  V30 1975 H 201.625 -1.93916 0.19564 0
M  V30 1976 H 200.721 -2.98211 -0.920681 0
M  V30 1977 N 201.022 0.148545 -1.56898 0
M  V30 1978 C 201.985 1.16736 -1.97244 0
M  V30 1979 C 202.985 1.35947 -0.858777 0
M  V30 1980 O 204.175 1.32966 -1.12542 0
M  V30 1981 C 201.307 2.52798 -2.28705 0
M  V30 1982 H 202.5 0.821279 -2.88435 0
M  V30 1983 H 200.053 0.391831 -1.51309 0
M  V30 1984 H 200.788 2.92381 -1.403 0
M  V30 1985 H 200.573 2.40216 -3.09901 0
M  V30 1986 H 202.063 3.26179 -2.60762 0
M  V30 1987 N 202.5 1.5196 0.417844 0
M  V30 1988 C 203.748 1.65263 1.16329 0
M  V30 1989 C 204.069 0.380634 1.91249 0
M  V30 1990 O 203.339 -0.604214 1.86349 0
M  V30 1991 H 201.919 0.60912 0.432414 0
M  V30 1992 H 204.581 1.88969 0.477162 0
M  V30 1993 H 203.677 2.4896 1.88217 0
M  V30 1994 N 203.978 -0.674533 1.42435 0
M  V30 1995 C 205.225 -1.43459 1.42919 0
M  V30 1996 C 205.553 -1.94446 0.0457312 0
M  V30 1997 O 204.808 -1.7132 -0.94593 0
M  V30 1998 C 205.107 -2.64767 2.40069 0
M  V30 1999 C 204.773 -2.3232 3.86443 0
M  V30 2000 C 203.435 -2.23182 4.26314 0
M  V30 2001 C 205.787 -2.05977 4.78773 0
M  V30 2002 C 203.115 -1.85827 5.56494 0
M  V30 2003 C 205.467 -1.70125 6.09295 0
M  V30 2004 C 204.131 -1.59498 6.48164 0
M  V30 2005 H 203.401 -0.524952 0.522978 0
M  V30 2006 H 206.048 -0.769097 1.75377 0
M  V30 2007 H 204.353 -3.36349 2.00939 0
M  V30 2008 H 206.05 -3.22949 2.37707 0
M  V30 2009 H 202.64 -2.40334 3.54877 0
M  V30 2010 H 206.824 -2.11969 4.48757 0
M  V30 2011 H 202.08 -1.76168 5.8547 0
M  V30 2012 H 206.254 -1.48767 6.80324 0
M  V30 2013 H 203.881 -1.30322 7.48946 0
M  V30 2014 N 205.456 -1.28612 -0.910864 0
M  V30 2015 C 206.681 -1.1891 -1.69927 0
M  V30 2016 C 207.106 0.248372 -1.86453 0
M  V30 2017 O 206.464 1.17961 -1.37676 0
M  V30 2018 C 206.512 -1.89578 -3.06745 0
M  V30 2019 O 205.616 -1.20521 -3.94396 0
M  V30 2020 H 204.957 -0.412632 -0.520222 0
M  V30 2021 H 207.487 -1.69985 -1.1387 0
M  V30 2022 H 207.497 -1.97597 -3.56958 0
M  V30 2023 H 206.172 -2.94136 -2.94035 0
M  V30 2024 H 204.749 -1.20684 -3.52831 0
M  V30 2025 N 206.934 1.1197 -1.10907 0
M  V30 2026 C 207.897 2.16031 -0.765707 0
M  V30 2027 C 208.897 1.59393 0.212235 0
M  V30 2028 O 210.087 1.74196 -0.0115441 0
M  V30 2029 C 207.219 3.40632 -0.135053 0
M  V30 2030 H 208.412 2.47919 -1.68748 0
M  V30 2031 H 205.965 1.27061 -0.910226 0
M  V30 2032 H 206.7 3.14348 0.797218 0
M  V30 2033 H 206.485 3.8302 -0.838937 0
M  V30 2034 H 207.975 4.17505 0.0892469 0
M  V30 2035 N 208.412 0.89855 1.29475 0
M  V30 2036 C 209.375 0.380272 2.26023 0
M  V30 2037 C 210.375 -0.484891 1.53315 0
M  V30 2038 O 211.565 -0.290108 1.71767 0
M  V30 2039 C 208.697 -0.45651 3.3783 0
M  V30 2040 H 209.89 1.23295 2.73383 0
M  V30 2041 H 207.443 0.676589 1.40897 0
M  V30 2042 H 208.178 -1.32922 2.95808 0
M  V30 2043 H 207.963 0.163393 3.91759 0
M  V30 2044 H 209.453 -0.810466 4.0966 0
M  V30 2045 N 209.89 -1.43072 0.660911 0
M  V30 2046 C 211.139 -2.00942 0.174735 0
M  V30 2047 C 211.452 -1.52797 -1.22117 0
M  V30 2048 O 212.658 -2.02991 -1.80297 0
M  V30 2049 C 211.114 -3.58948 0.261559 0
M  V30 2050 C 210.722 -4.16085 1.66064 0
M  V30 2051 C 212.466 -4.24173 -0.166617 0
M  V30 2052 C 210.373 -5.6641 1.70098 0
M  V30 2053 H 209.303 -0.751483 0.0615631 0
M  V30 2054 H 211.954 -1.63955 0.824069 0
M  V30 2055 H 210.336 -3.93372 -0.455421 0
M  V30 2056 H 211.51 -3.93147 2.40359 0
M  V30 2057 H 209.825 -3.6326 2.03546 0
M  V30 2058 H 212.422 -5.34471 -0.156433 0
M  V30 2059 H 212.765 -3.98647 -1.19943 0
M  V30 2060 H 213.298 -3.94659 0.498875 0
M  V30 2061 H 210.037 -5.96715 2.71315 0
M  V30 2062 H 209.557 -5.91382 1.00139 0
M  V30 2063 H 211.236 -6.30585 1.44816 0
M  V30 2064 N 211.368 -0.403325 -1.52352 0
M  V30 2065 C 212.593 0.176499 -2.06648 0
M  V30 2066 C 213.018 1.38577 -1.27193 0
M  V30 2067 O 212.376 1.7879 -0.300637 0
M  V30 2068 C 212.424 0.511061 -3.5696 0
M  V30 2069 O 211.528 1.60294 -3.79973 0
M  V30 2070 H 210.869 0.0167337 -0.663789 0
M  V30 2071 H 213.399 -0.574848 -1.96359 0
M  V30 2072 H 213.409 0.771362 -4.00642 0
M  V30 2073 H 212.084 -0.37296 -4.14224 0
M  V30 2074 H 210.661 1.33526 -3.48174 0
M  V30 2075 N 212.846 1.57033 -0.133567 0
M  V30 2076 C 213.809 2.14897 0.796995 0
M  V30 2077 C 214.809 1.0874 1.18458 0
M  V30 2078 O 215.999 1.34446 1.1077 0
M  V30 2079 C 213.131 2.70112 2.07973 0
M  V30 2080 H 214.324 2.98457 0.293873 0
M  V30 2081 H 211.877 1.55871 0.115787 0
M  V30 2082 H 212.612 1.9018 2.62682 0
M  V30 2083 H 212.397 3.47764 1.81115 0
M  V30 2084 H 213.887 3.14738 2.74462 0
M  V30 2085 N 214.325 -0.140222 1.56975 0
M  V30 2086 C 215.553 -0.866437 1.87884 0
M  V30 2087 C 215.968 -1.74428 0.722517 0
M  V30 2088 O 215.325 -1.79891 -0.30749 0
M  V30 2089 C 215.376 -1.71753 3.18093 0
M  V30 2090 O 215.097 -0.875056 4.29272 0
M  V30 2091 C 216.598 -2.55074 3.62563 0
M  V30 2092 H 213.818 -0.25019 0.622612 0
M  V30 2093 H 216.362 -0.130977 2.0408 0
M  V30 2094 H 214.517 -2.40598 3.03631 0
M  V30 2095 H 214.931 -1.46002 5.03769 0
M  V30 2096 H 216.405 -3.10356 4.5649 0
M  V30 2097 H 216.882 -3.31434 2.88181 0
M  V30 2098 H 217.488 -1.91509 3.79743 0
M  V30 2099 N 215.803 -1.52179 -0.40978 0
M  V30 2100 C 217.08 -1.56769 -1.16974 0
M  V30 2101 C 217.46 -0.348322 -2.08206 0
M  V30 2102 O 216.808 0.664862 -2.18613 0
M  V30 2103 C 217.018 -2.89603 -1.9476 0
M  V30 2104 C 218.366 -3.42579 -2.50849 0
M  V30 2105 O 219.39 -2.91338 -2.04941 0
M  V30 2106 O 218.249 -4.32054 -3.34652 0
M  V30 2107 H 215.343 -0.631439 -0.534054 0
M  V30 2108 H 217.889 -1.64507 -0.416613 0
M  V30 2109 H 216.661 -3.698 -1.27921 0
M  V30 2110 H 216.284 -2.85155 -2.77079 0
M  V30 2111 N 217.281 0.66697 -1.42791 0
M  V30 2112 C 218.506 1.46004 -1.47301 0
M  V30 2113 C 218.931 1.87894 -0.0880317 0
M  V30 2114 O 218.289 1.56502 0.915253 0
M  V30 2115 C 218.337 2.68031 -2.41229 0
M  V30 2116 O 217.441 3.6659 -1.88906 0
M  V30 2117 H 216.782 0.43832 -0.49877 0
M  V30 2118 H 219.312 0.817391 -1.87563 0
M  V30 2119 H 219.322 3.1601 -2.58073 0
M  V30 2120 H 217.997 2.36883 -3.41847 0
M  V30 2121 H 216.574 3.25661 -1.81656 0
M  V30 2122 N 218.759 1.29093 0.90403 0
M  V30 2123 C 220.007 1.16583 1.65085 0
M  V30 2124 C 220.328 -0.283933 1.92922 0
M  V30 2125 O 219.598 -1.19509 1.55224 0
M  V30 2126 H 218.178 0.428467 0.611903 0
M  V30 2127 H 220.84 1.61959 1.08422 0
M  V30 2128 H 219.936 1.71266 2.6091 0
M  V30 2129 N 220.237 -1.11381 1.11499 0
M  V30 2130 C 221.2 -2.15622 0.777153 0
M  V30 2131 C 222.2 -1.59504 -0.203779 0
M  V30 2132 O 223.39 -1.74188 0.020782 0
M  V30 2133 C 220.522 -3.40556 0.153116 0
M  V30 2134 H 221.715 -2.47021 1.70061 0
M  V30 2135 H 219.268 -1.26577 0.916952 0
M  V30 2136 H 220.003 -3.14767 -0.780536 0
M  V30 2137 H 219.788 -3.8257 0.859238 0
M  V30 2138 H 221.278 -4.17546 -0.0671044 0
M  V30 2139 N 221.715 -0.905404 -1.28997 0
M  V30 2140 C 222.662 -0.385892 -2.27551 0
M  V30 2141 C 223.632 0.535113 -1.57244 0
M  V30 2142 O 224.817 0.459119 -1.85194 0
M  V30 2143 C 221.957 0.375461 -3.43051 0
M  V30 2144 C 221.07 -0.577092 -4.28128 0
M  V30 2145 C 220.205 0.201879 -5.30816 0
M  V30 2146 C 219.244 -0.744829 -6.07551 0
M  V30 2147 N 218.381 9.42587e-05 -7.021 0
M  V30 2148 H 223.221 -1.23139 -2.71368 0
M  V30 2149 H 220.758 -0.618542 -1.33463 0
M  V30 2150 H 222.716 0.832992 -4.088 0
M  V30 2151 H 221.346 1.18537 -3.00248 0
M  V30 2152 H 220.398 -1.15315 -3.62501 0
M  V30 2153 H 221.71 -1.30152 -4.8152 0
M  V30 2154 H 220.864 0.720351 -6.02408 0
M  V30 2155 H 219.603 0.959413 -4.7817 0
M  V30 2156 H 218.608 -1.27475 -5.34818 0
M  V30 2157 H 219.833 -1.50178 -6.62286 0
M  V30 2158 H 217.779 0.739791 -6.51815 0
M  V30 2159 H 217.696 -0.664321 -7.53076 0
M  V30 2160 H 218.964 0.498644 -7.77903 0
M  V30 2161 N 223.193 1.4272 -0.668489 0
M  V30 2162 C 224.439 2.01923 -0.188419 0
M  V30 2163 C 224.772 1.52704 1.19979 0
M  V30 2164 O 224.047 0.726566 1.8042 0
M  V30 2165 C 224.33 3.59451 -0.216085 0
M  V30 2166 C 224.183 4.18864 -1.6393 0
M  V30 2167 C 225.502 4.37903 0.439179 0
M  V30 2168 H 222.621 0.733674 -0.0699412 0
M  V30 2169 H 225.263 1.69822 -0.852076 0
M  V30 2170 H 223.413 3.86929 0.349012 0
M  V30 2171 H 225.085 4.02362 -2.25616 0
M  V30 2172 H 223.328 3.74933 -2.18193 0
M  V30 2173 H 223.999 5.27987 -1.61039 0
M  V30 2174 H 226.475 4.16079 -0.0417878 0
M  V30 2175 H 225.351 5.47519 0.389157 0
M  V30 2176 H 225.612 4.15303 1.51577 0
M  V30 2177 N 224.671 0.411399 1.52136 0
M  V30 2178 C 225.92 -0.165009 2.01024 0
M  V30 2179 C 226.233 -1.4603 1.30133 0
M  V30 2180 O 227.439 -2.1181 1.69849 0
M  V30 2181 C 225.895 -0.344618 3.58246 0
M  V30 2182 C 225.503 0.938716 4.38055 0
M  V30 2183 C 227.247 -0.876195 4.15359 0
M  V30 2184 C 225.154 0.726172 5.86925 0
M  V30 2185 H 224.084 -0.0654407 0.751155 0
M  V30 2186 H 226.735 0.537192 1.75461 0
M  V30 2187 H 225.117 -1.10921 3.80148 0
M  V30 2188 H 226.291 1.70963 4.27912 0
M  V30 2189 H 224.606 1.39688 3.92271 0
M  V30 2190 H 227.203 -1.05128 5.24263 0
M  V30 2191 H 227.546 -1.85152 3.7286 0
M  V30 2192 H 228.079 -0.170607 3.97434 0
M  V30 2193 H 224.818 1.67312 6.33788 0
M  V30 2194 H 224.338 -0.00540283 5.998 0
M  V30 2195 H 226.017 0.369231 6.45946 0
M  V30 2196 N 226.149 -1.5696 0.141893 0
M  V30 2197 C 227.079 -2.19516 -0.795936 0
M  V30 2198 C 228.06 -1.14187 -1.26077 0
M  V30 2199 O 229.245 -1.42511 -1.31925 0
M  V30 2200 C 226.375 -2.81272 -2.03723 0
M  V30 2201 C 225.329 -3.92384 -1.70936 0
M  V30 2202 C 224.655 -4.41052 -3.02287 0
M  V30 2203 C 225.955 -5.13403 -0.959954 0
M  V30 2204 H 227.649 -2.98138 -0.274596 0
M  V30 2205 H 225.195 -1.43406 -0.130636 0
M  V30 2206 H 227.148 -3.237 -2.69808 0
M  V30 2207 H 225.872 -1.99973 -2.58221 0
M  V30 2208 H 224.531 -3.50566 -1.07232 0
M  V30 2209 H 224.179 -3.56582 -3.54765 0
M  V30 2210 H 223.879 -5.15993 -2.81114 0
M  V30 2211 H 225.403 -4.86146 -3.69451 0
M  V30 2212 H 226.817 -5.52706 -1.52279 0
M  V30 2213 H 225.214 -5.94073 -0.848357 0
M  V30 2214 H 226.284 -4.84875 0.0492434 0
M  V30 2215 N 227.627 0.131896 -1.57047 0
M  V30 2216 C 228.876 0.84044 -1.83356 0
M  V30 2217 C 229.189 1.81646 -0.725535 0
M  V30 2218 O 230.395 2.57025 -0.874659 0
M  V30 2219 C 228.851 1.54528 -3.25037 0
M  V30 2220 C 228.459 0.610902 -4.43815 0
M  V30 2221 C 230.203 2.23972 -3.60606 0
M  V30 2222 C 228.11 1.31823 -5.76521 0
M  V30 2223 H 227.04 0.317599 -0.683847 0
M  V30 2224 H 229.691 0.0931561 -1.83263 0
M  V30 2225 H 228.073 2.33873 -3.19561 0
M  V30 2226 H 229.247 -0.148407 -4.60561 0
M  V30 2227 H 227.562 0.0241016 -4.16393 0
M  V30 2228 H 230.159 2.77558 -4.57018 0
M  V30 2229 H 230.502 3.01173 -2.87403 0
M  V30 2230 H 231.035 1.51529 -3.6781 0
M  V30 2231 H 227.774 0.587771 -6.52859 0
M  V30 2232 H 227.294 2.04987 -5.63685 0
M  V30 2233 H 228.973 1.855 -6.19838 0
M  V30 2234 N 229.106 1.52395 0.401703 0
M  V30 2235 C 230.016 1.7917 1.51444 0
M  V30 2236 C 231.032 0.677691 1.6026 0
M  V30 2237 O 232.208 0.963909 1.76835 0
M  V30 2238 C 229.273 1.94347 2.87107 0
M  V30 2239 C 228.334 3.18257 2.88116 0
M  V30 2240 C 227.567 3.32701 4.17308 0
M  V30 2241 O 227.79 2.52238 5.11598 0
M  V30 2242 O 226.724 4.25891 4.25324 0
M  V30 2243 H 230.55 2.73633 1.31752 0
M  V30 2244 H 228.135 1.3733 0.588296 0
M  V30 2245 H 230.017 2.06109 3.67555 0
M  V30 2246 H 228.692 1.03073 3.06851 0
M  V30 2247 H 227.599 3.11947 2.06494 0
M  V30 2248 H 228.932 4.09336 2.73322 0
M  V30 2249 N 230.584 -0.659388 1.43143 0
M  V30 2250 C 231.531 -1.77249 1.47822 0
M  V30 2251 C 232.501 -1.62818 0.328558 0
M  V30 2252 O 233.686 -1.83151 0.534838 0
M  V30 2253 C 230.826 -3.15371 1.40126 0
M  V30 2254 C 229.939 -3.4098 2.65249 0
M  V30 2255 C 229.074 -4.68915 2.49584 0
M  V30 2256 C 228.113 -4.87608 3.70006 0
M  V30 2257 N 227.25 -6.06796 3.53189 0
M  V30 2258 H 232.09 -1.72584 2.42938 0
M  V30 2259 H 229.627 -0.842297 1.20598 0
M  V30 2260 H 231.585 -3.9521 1.33659 0
M  V30 2261 H 230.215 -3.19121 0.485964 0
M  V30 2262 H 229.267 -2.55282 2.8202 0
M  V30 2263 H 230.579 -3.50681 3.54717 0
M  V30 2264 H 229.733 -5.56871 2.4079 0
M  V30 2265 H 228.472 -4.61524 1.5763 0
M  V30 2266 H 227.477 -3.9809 3.79215 0
M  V30 2267 H 228.702 -4.96834 4.62961 0
M  V30 2268 H 226.648 -6.00549 2.63965 0
M  V30 2269 H 226.565 -6.17428 4.36255 0
M  V30 2270 H 227.833 -6.9739 3.48236 0
M  V30 2271 N 232.062 -1.29571 -0.897171 0
M  V30 2272 C 232.972 -1.16808 -2.03453 0
M  V30 2273 C 233.988 -0.0907471 -1.73763 0
M  V30 2274 O 235.164 -0.303312 -1.99103 0
M  V30 2275 C 232.229 -0.848264 -3.36163 0
M  V30 2276 C 231.29 -2.0097 -3.79354 0
M  V30 2277 C 230.523 -1.70505 -5.05731 0
M  V30 2278 O 230.746 -0.62718 -5.66941 0
M  V30 2279 O 229.68 -2.5538 -5.45036 0
M  V30 2280 H 233.506 -2.12325 -2.17144 0
M  V30 2281 H 231.091 -1.09047 -1.02123 0
M  V30 2282 H 232.973 -0.684581 -4.15802 0
M  V30 2283 H 231.648 0.0771071 -3.23608 0
M  V30 2284 H 230.555 -2.22863 -3.00471 0
M  V30 2285 H 231.888 -2.91636 -3.96496 0
M  V30 2286 N 233.54 1.10788 -1.12088 0
M  V30 2287 C 234.951 1.64181 -0.88891 0
M  V30 2288 C 235.302 1.87508 0.577498 0
M  V30 2289 O 234.427 1.61434 1.44112 0
M  V30 2290 C 235.022 2.98257 -1.60712 0
M  V30 2291 C 233.581 3.4853 -1.42139 0
M  V30 2292 C 232.728 2.23208 -1.6454 0
M  V30 2293 H 235.679 0.943368 -1.27618 0
M  V30 2294 H 235.7 3.65552 -1.05604 0
M  V30 2295 H 235.212 2.81246 -2.67436 0
M  V30 2296 H 233.313 3.70692 -0.376552 0
M  V30 2297 H 233.426 4.26882 -2.17505 0
M  V30 2298 H 231.79 2.31169 -1.06925 0
M  V30 2299 H 232.573 2.08733 -2.72554 0
M  V30 2300 N 235.018 0.912232 1.28515 0
M  V30 2301 C 236.264 0.545405 1.95328 0
M  V30 2302 C 236.597 -0.908313 1.71649 0
M  V30 2303 O 235.872 -1.64575 1.03659 0
M  V30 2304 C 236.155 0.853483 3.4984 0
M  V30 2305 C 236.008 2.35982 3.82926 0
M  V30 2306 C 237.327 0.348589 4.38717 0
M  V30 2307 H 234.446 0.199626 0.709449 0
M  V30 2308 H 237.088 1.1412 1.5191 0
M  V30 2309 H 235.238 0.34643 3.86952 0
M  V30 2310 H 236.91 2.93738 3.55691 0
M  V30 2311 H 235.153 2.81543 3.30024 0
M  V30 2312 H 235.824 2.52593 4.90816 0
M  V30 2313 H 238.3 0.78294 4.08668 0
M  V30 2314 H 237.176 0.593242 5.45685 0
M  V30 2315 H 237.437 -0.751049 4.35674 0
M  V30 2316 N 236.496 -1.42363 0.676048 0
M  V30 2317 C 237.745 -2.00745 0.196037 0
M  V30 2318 C 238.058 -1.54083 -1.20489 0
M  V30 2319 O 239.264 -2.04891 -1.78134 0
M  V30 2320 C 237.72 -3.58651 0.299616 0
M  V30 2321 C 237.328 -4.143 1.70468 0
M  V30 2322 C 239.072 -4.24326 -0.121619 0
M  V30 2323 C 236.979 -5.64574 1.76096 0
M  V30 2324 H 235.909 -0.750787 0.0695301 0
M  V30 2325 H 238.56 -1.63072 0.841412 0
M  V30 2326 H 236.942 -3.93833 -0.413673 0
M  V30 2327 H 238.116 -3.90575 2.44515 0
M  V30 2328 H 236.431 -3.61081 2.07387 0
M  V30 2329 H 239.028 -5.34607 -0.0997362 0
M  V30 2330 H 239.371 -3.99897 -1.15708 0
M  V30 2331 H 239.904 -3.94108 0.540706 0
M  V30 2332 H 236.643 -5.93804 2.77628 0
M  V30 2333 H 236.163 -5.90286 1.06406 0
M  V30 2334 H 237.842 -6.29013 1.51496 0
M  V30 2335 N 237.974 -0.419461 -1.51915 0
M  V30 2336 C 239.222 0.152637 -2.01523 0
M  V30 2337 C 239.543 1.44762 -1.30649 0
M  V30 2338 O 238.813 1.90997 -0.435535 0
M  V30 2339 H 237.393 0.0593966 -0.744635 0
M  V30 2340 H 240.055 -0.558073 -1.86739 0
M  V30 2341 H 239.151 0.341369 -3.10227 0
M  V30 2342 N 239.452 1.56882 -0.150215 0
M  V30 2343 C 240.7 1.9584 0.499105 0
M  V30 2344 C 241.021 1.03623 1.65188 0
M  V30 2345 O 240.291 0.0984084 1.95653 0
M  V30 2346 H 238.871 0.723119 0.187373 0
M  V30 2347 H 241.533 1.9358 -0.226466 0
M  V30 2348 H 240.629 2.99638 0.873122 0
M  V30 2349 N 240.93 -0.123565 1.57115 0
M  V30 2350 C 241.878 -1.17082 2.00984 0
M  V30 2351 C 242.872 -1.43136 0.906009 0
M  V30 2352 O 244.078 -1.43152 1.09121 0
M  V30 2353 H 240.453 -0.394653 0.64012 0
M  V30 2354 H 242.424 -0.774292 2.88179 0
M  V30 2355 C 241.173 -2.49057 2.42623 0
M  V30 2356 H 240.496 -2.29846 3.27125 0
M  V30 2357 H 241.936 -3.20906 2.7712 0
M  V30 2358 C 240.395 -3.11305 1.28805 0
M  V30 2359 O 240.925 -3.97171 0.60153 0
M  V30 2360 N 239.131 -2.71111 1.04628 0
M  V30 2361 H 238.678 -2.01382 1.60634 0
M  V30 2362 H 238.636 -3.1309 0.286685 0
M  V30 2363 N 242.408 -1.52605 -0.393616 0
M  V30 2364 C 243.371 -1.76415 -1.46323 0
M  V30 2365 C 244.371 -0.634126 -1.47768 0
M  V30 2366 O 245.561 -0.902142 -1.4902 0
M  V30 2367 C 242.693 -1.8607 -2.85641 0
M  V30 2368 H 243.886 -2.71916 -1.26498 0
M  V30 2369 H 241.439 -1.43257 -0.625073 0
M  V30 2370 H 242.174 -0.925378 -3.10817 0
M  V30 2371 H 241.959 -2.68235 -2.85993 0
M  V30 2372 H 243.449 -2.06179 -3.63153 0
M  V30 2373 N 243.887 0.651787 -1.4349 0
M  V30 2374 C 244.834 1.76462 -1.4876 0
M  V30 2375 C 245.804 1.62641 -0.337189 0
M  V30 2376 O 246.989 1.82864 -0.544544 0
M  V30 2377 C 244.129 3.14623 -1.41796 0
M  V30 2378 C 243.242 3.39568 -2.67053 0
M  V30 2379 C 242.377 4.67585 -2.52068 0
M  V30 2380 C 241.416 4.85639 -3.72587 0
M  V30 2381 N 240.553 6.04915 -3.56402 0
M  V30 2382 H 245.393 1.71293 -2.43849 0
M  V30 2383 H 242.93 0.835889 -1.21043 0
M  V30 2384 H 244.888 3.94496 -1.35753 0
M  V30 2385 H 243.518 3.18859 -0.50288 0
M  V30 2386 H 242.57 2.53783 -2.8337 0
M  V30 2387 H 243.882 3.48795 -3.56572 0
M  V30 2388 H 243.036 5.55586 -2.4374 0
M  V30 2389 H 241.775 4.60681 -1.60075 0
M  V30 2390 H 240.78 3.96073 -3.81321 0
M  V30 2391 H 242.005 4.94372 -4.65589 0
M  V30 2392 H 239.951 5.9914 -2.67146 0
M  V30 2393 H 239.868 6.15106 -4.39524 0
M  V30 2394 H 241.136 6.95533 -3.51929 0
M  V30 2395 N 245.365 1.30045 0.890287 0
M  V30 2396 C 246.295 1.18541 2.01172 0
M  V30 2397 C 247.276 0.0773356 1.69924 0
M  V30 2398 O 248.461 0.25845 1.92473 0
M  V30 2399 C 245.591 0.870941 3.36202 0
M  V30 2400 C 244.545 1.93637 3.81692 0
M  V30 2401 C 243.871 1.475 5.13953 0
M  V30 2402 C 245.171 3.34666 4.00994 0
M  V30 2403 H 246.865 2.12359 2.11054 0
M  V30 2404 H 244.411 1.02238 1.01407 0
M  V30 2405 H 246.364 0.777141 4.14172 0
M  V30 2406 H 245.088 -0.102926 3.26438 0
M  V30 2407 H 243.747 2.01972 3.05946 0
M  V30 2408 H 243.395 0.489551 5.00612 0
M  V30 2409 H 243.095 2.1876 5.4536 0
M  V30 2410 H 244.619 1.39489 5.94454 0
M  V30 2411 H 246.033 3.2912 4.69417 0
M  V30 2412 H 244.43 4.03966 4.43769 0
M  V30 2413 H 245.5 3.76949 3.05021 0
M  V30 2414 N 246.843 -1.10192 1.12674 0
M  V30 2415 C 247.806 -2.14786 0.799979 0
M  V30 2416 C 248.806 -1.59711 -0.18685 0
M  V30 2417 O 249.996 -1.74156 0.0392558 0
M  V30 2418 C 247.128 -3.40374 0.189228 0
M  V30 2419 H 248.321 -2.45203 1.72671 0
M  V30 2420 H 245.874 -1.25597 0.930326 0
M  V30 2421 H 246.609 -3.15577 -0.747107 0
M  V30 2422 H 246.394 -3.81637 0.899766 0
M  V30 2423 H 247.884 -4.17594 -0.0228143 0
M  V30 2424 N 248.321 -0.919034 -1.28029 0
M  V30 2425 C 249.284 -0.416182 -2.2539 0
M  V30 2426 C 250.284 0.460438 -1.54067 0
M  V30 2427 O 251.474 0.262744 -1.72207 0
M  V30 2428 C 248.606 0.402707 -3.38513 0
M  V30 2429 H 249.799 -1.27629 -2.71387 0
M  V30 2430 H 247.352 -0.698919 -1.39803 0
M  V30 2431 H 248.087 1.282 -2.97885 0
M  V30 2432 H 247.872 -0.225698 -3.9145 0
M  V30 2433 H 249.362 0.745191 -4.10897 0
M  V30 2434 N 249.799 1.42003 -0.683588 0
M  V30 2435 C 251.047 2.01015 -0.209101 0
M  V30 2436 C 251.368 1.54365 1.19149 0
M  V30 2437 O 250.638 0.769083 1.80172 0
M  V30 2438 H 249.218 0.743294 -0.074315 0
M  V30 2439 H 251.88 1.73798 -0.882066 0
M  V30 2440 H 250.976 3.11343 -0.2172 0
M  V30 2441 N 251.277 0.427512 1.51691 0
M  V30 2442 C 252.525 -0.141948 2.01601 0
M  V30 2443 C 252.846 -1.44067 1.31414 0
M  V30 2444 O 252.116 -1.90763 0.445658 0
M  V30 2445 H 250.696 -0.0554468 0.744939 0
M  V30 2446 H 253.358 0.567968 1.86441 0
M  V30 2447 H 252.454 -0.324913 3.10404 0
M  V30 2448 N 252.755 -1.56801 0.158532 0
M  V30 2449 C 253.688 -2.13148 -0.815065 0
M  V30 2450 C 254.666 -1.0581 -1.23462 0
M  V30 2451 O 255.85 -1.3371 -1.32868 0
M  V30 2452 C 252.977 -2.6606 -2.09594 0
M  V30 2453 C 252.023 -3.85651 -1.82141 0
M  V30 2454 S 252.856 -5.26041 -1.00207 0
M  V30 2455 C 254.012 -5.8235 -2.29389 0
M  V30 2456 H 254.245 -2.95396 -0.335937 0
M  V30 2457 H 251.778 -1.54299 -0.0559391 0
M  V30 2458 H 253.736 -2.97195 -2.8317 0
M  V30 2459 H 252.397 -1.83921 -2.54621 0
M  V30 2460 H 251.59 -4.20958 -2.77147 0
M  V30 2461 H 251.192 -3.55338 -1.16667 0
M  V30 2462 H 253.484 -5.94485 -3.24952 0
M  V30 2463 H 254.427 -6.79688 -1.9857 0
M  V30 2464 H 254.835 -5.10675 -2.40564 0
M  V30 2465 N 254.233 0.115231 -1.57178 0
M  V30 2466 C 255.181 1.16014 -2.01602 0
M  V30 2467 C 256.175 1.42653 -0.913587 0
M  V30 2468 O 257.381 1.42571 -1.09879 0
M  V30 2469 H 253.756 0.391252 -0.642204 0
M  V30 2470 H 255.727 0.758998 -2.88586 0
M  V30 2471 C 254.476 2.47767 -2.4394 0
M  V30 2472 H 253.799 2.28108 -3.28339 0
M  V30 2473 H 255.239 3.19432 -2.78818 0
M  V30 2474 C 253.698 3.10617 -1.30455 0
M  V30 2475 O 254.228 3.96846 -0.622585 0
M  V30 2476 N 252.434 2.70553 -1.06064 0
M  V30 2477 H 251.981 2.00527 -1.61699 0
M  V30 2478 H 251.939 3.12934 -0.303284 0
M  V30 2479 N 255.711 1.52812 0.385517 0
M  V30 2480 C 256.674 1.77188 1.45386 0
M  V30 2481 C 257.674 0.641953 1.4743 0
M  V30 2482 O 258.864 0.910033 1.4854 0
M  V30 2483 C 255.996 1.87582 2.8465 0
M  V30 2484 H 257.189 2.72583 1.25054 0
M  V30 2485 H 254.742 1.43586 0.617467 0
M  V30 2486 H 255.477 0.941849 3.10322 0
M  V30 2487 H 255.262 2.69748 2.84567 0
M  V30 2488 H 256.752 2.08102 3.62054 0
M  V30 2489 N 257.189 -0.644168 1.43834 0
M  V30 2490 C 258.152 -1.73857 1.49353 0
M  V30 2491 C 259.152 -1.56315 0.377112 0
M  V30 2492 O 260.342 -1.62048 0.639226 0
M  V30 2493 C 257.474 -3.12819 1.35488 0
M  V30 2494 H 258.667 -1.70342 2.46827 0
M  V30 2495 H 256.22 -0.856652 1.30733 0
M  V30 2496 H 256.955 -3.2194 0.390569 0
M  V30 2497 H 256.74 -3.26958 2.16428 0
M  V30 2498 H 258.23 -3.92606 1.42302 0
M  V30 2499 N 258.668 -1.30515 -0.883378 0
M  V30 2500 C 259.914 -1.20617 -1.63778 0
M  V30 2501 C 260.269 0.236469 -1.90941 0
M  V30 2502 O 259.562 1.16596 -1.52039 0
M  V30 2503 C 259.756 -1.96994 -2.98209 0
M  V30 2504 C 259.585 -3.48537 -2.84169 0
M  V30 2505 C 258.355 -4.17893 -2.84067 0
M  V30 2506 C 260.553 -4.43738 -2.60001 0
M  V30 2507 N 258.535 -5.55685 -2.60936 0
M  V30 2508 C 259.906 -5.69105 -2.46007 0
M  V30 2509 C 261.961 -4.33316 -2.45239 0
M  V30 2510 C 260.664 -6.8523 -2.18752 0
M  V30 2511 C 262.69 -5.4921 -2.19369 0
M  V30 2512 C 262.052 -6.73558 -2.06153 0
M  V30 2513 H 258.151 -0.496434 -0.604216 0
M  V30 2514 H 260.735 -1.64544 -1.04083 0
M  V30 2515 H 258.906 -1.55455 -3.55933 0
M  V30 2516 H 260.638 -1.79225 -3.62851 0
M  V30 2517 H 257.393 -3.69739 -2.95956 0
M  V30 2518 H 257.817 -6.28199 -2.52378 0
M  V30 2519 H 262.459 -3.37856 -2.54191 0
M  V30 2520 H 260.177 -7.80729 -2.08537 0
M  V30 2521 H 263.763 -5.43054 -2.08766 0
M  V30 2522 H 262.643 -7.61721 -1.86416 0
M  V30 2523 N 260.146 1.09593 -1.13257 0
M  V30 2524 C 261.374 1.855 -0.916378 0
M  V30 2525 C 261.789 1.81069 0.534738 0
M  V30 2526 O 261.146 1.20562 1.37007 0
M  V30 2527 C 261.197 3.33546 -1.39388 0
M  V30 2528 O 260.918 3.37927 -2.78813 0
M  V30 2529 C 262.419 4.26299 -1.21588 0
M  V30 2530 H 259.639 0.585991 -0.326887 0
M  V30 2531 H 262.183 1.38488 -1.5047 0
M  V30 2532 H 260.338 3.77992 -0.848597 0
M  V30 2533 H 260.752 4.30254 -2.9997 0
M  V30 2534 H 262.226 5.28341 -1.59876 0
M  V30 2535 H 262.703 4.38918 -0.157376 0
M  V30 2536 H 263.309 3.87668 -1.7491 0
M  V30 2537 N 261.624 0.925811 1.2754 0
M  V30 2538 C 262.901 0.483726 1.89524 0
M  V30 2539 C 263.281 -1.03809 1.83812 0
M  V30 2540 O 262.629 -1.89143 1.28207 0
M  V30 2541 C 262.839 1.02769 3.33526 0
M  V30 2542 C 264.187 1.08703 4.10449 0
M  V30 2543 O 265.211 0.977175 3.42534 0
M  V30 2544 O 264.07 1.25599 5.31871 0
M  V30 2545 H 261.164 0.15529 0.812289 0
M  V30 2546 H 263.71 1.01738 1.35822 0
M  V30 2547 H 262.482 2.07155 3.31967 0
M  V30 2548 H 262.105 0.475567 3.94746 0
M  V30 2549 N 263.102 -1.41638 0.69111 0
M  V30 2550 C 264.034 -2.29194 -0.0161523 0
M  V30 2551 C 265.047 -1.44549 -0.748955 0
M  V30 2552 O 266.236 -1.681 -0.6004 0
M  V30 2553 C 263.336 -3.22325 -1.0469 0
M  V30 2554 C 262.509 -4.35706 -0.384621 0
M  V30 2555 C 261.568 -5.09443 -1.31737 0
M  V30 2556 O 260.594 -5.63386 -0.811451 0
M  V30 2557 N 261.796 -5.16487 -2.64993 0
M  V30 2558 H 264.561 -2.90534 0.735523 0
M  V30 2559 H 262.122 -1.52742 0.53679 0
M  V30 2560 H 264.114 -3.68522 -1.67252 0
M  V30 2561 H 262.684 -2.62323 -1.70015 0
M  V30 2562 H 261.904 -3.91948 0.420804 0
M  V30 2563 H 263.192 -5.08743 0.0760765 0
M  V30 2564 H 262.59 -4.741 -3.08619 0
M  V30 2565 H 261.147 -5.66276 -3.22761 0
M  V30 2566 N 264.58 -0.43555 -1.51462 0
M  V30 2567 C 265.512 0.41257 -2.25456 0
M  V30 2568 C 266.525 0.987822 -1.29406 0
M  V30 2569 O 267.714 0.882266 -1.55172 0
M  V30 2570 C 264.814 1.58894 -2.99342 0
M  V30 2571 C 263.987 1.13288 -4.22474 0
M  V30 2572 C 263.046 2.17917 -4.78956 0
M  V30 2573 O 262.072 1.77425 -5.40841 0
M  V30 2574 N 263.274 3.50382 -4.62832 0
M  V30 2575 H 266.039 -0.221603 -2.9888 0
M  V30 2576 H 263.6 -0.264342 -1.59727 0
M  V30 2577 H 265.592 2.28508 -3.34015 0
M  V30 2578 H 264.162 2.12849 -2.28941 0
M  V30 2579 H 263.382 0.263881 -3.93316 0
M  V30 2580 H 264.67 0.805542 -5.02383 0
M  V30 2581 H 264.068 3.86013 -4.13534 0
M  V30 2582 H 262.625 4.15895 -5.01871 0
M  V30 2583 N 266.058 1.56714 -0.166846 0
M  V30 2584 C 267.005 2.17746 0.765193 0
M  V30 2585 C 267.975 1.11614 1.23011 0
M  V30 2586 O 269.16 1.39745 1.29908 0
M  V30 2587 C 266.3 2.81882 1.9909 0
M  V30 2588 C 265.413 4.02462 1.56997 0
M  V30 2589 C 264.548 4.54537 2.749 0
M  V30 2590 C 263.587 5.67538 2.29275 0
M  V30 2591 N 262.724 6.14142 3.40255 0
M  V30 2592 H 267.564 2.97048 0.237952 0
M  V30 2593 H 265.101 1.4672 0.105725 0
M  V30 2594 H 267.059 3.17221 2.70974 0
M  V30 2595 H 265.689 2.05191 2.49192 0
M  V30 2596 H 264.741 3.72973 0.748037 0
M  V30 2597 H 266.053 4.84273 1.19503 0
M  V30 2598 H 265.207 4.92035 3.54946 0
M  V30 2599 H 263.946 3.71774 3.1565 0
M  V30 2600 H 262.951 5.29597 1.47674 0
M  V30 2601 H 264.176 6.52099 1.89588 0
M  V30 2602 H 262.122 5.3431 3.8059 0
M  V30 2603 H 262.039 6.9093 3.06841 0
M  V30 2604 H 263.307 6.56289 4.206 0
M  V30 2605 N 267.536 -0.106894 1.57237 0
M  V30 2606 C 268.499 -1.11466 2.0027 0
M  V30 2607 C 269.499 -1.33623 0.894519 0
M  V30 2608 O 270.689 -1.29935 1.16028 0
M  V30 2609 C 267.821 -2.46646 2.35327 0
M  V30 2610 H 269.014 -0.744516 2.90512 0
M  V30 2611 H 266.567 -0.351576 1.52295 0
M  V30 2612 H 267.302 -2.88558 1.48003 0
M  V30 2613 H 267.087 -2.31915 3.16161 0
M  V30 2614 H 268.577 -3.19151 2.69318 0
M  V30 2615 N 269.014 -1.53014 -0.377408 0
M  V30 2616 C 269.961 -1.78616 -1.46168 0
M  V30 2617 C 270.931 -0.629917 -1.53692 0
M  V30 2618 O 272.116 -0.870861 -1.69766 0
M  V30 2619 C 269.256 -1.97123 -2.8326 0
M  V30 2620 C 268.369 -3.24831 -2.84796 0
M  V30 2621 C 267.504 -3.33591 -4.13389 0
M  V30 2622 C 266.543 -4.55377 -4.09021 0
M  V30 2623 N 265.68 -4.61355 -5.29241 0
M  V30 2624 H 270.52 -2.71142 -1.23637 0
M  V30 2625 H 268.057 -1.34326 -0.599577 0
M  V30 2626 H 270.015 -2.05839 -3.62886 0
M  V30 2627 H 268.645 -1.07946 -3.04216 0
M  V30 2628 H 267.697 -3.25128 -1.97474 0
M  V30 2629 H 269.009 -4.14523 -2.77439 0
M  V30 2630 H 268.163 -3.41554 -5.01424 0
M  V30 2631 H 266.902 -2.41894 -4.23484 0
M  V30 2632 H 265.907 -4.47527 -3.19373 0
M  V30 2633 H 267.132 -5.48402 -4.00539 0
M  V30 2634 H 265.078 -3.72554 -5.39944 0
M  V30 2635 H 264.995 -5.44935 -5.24006 0
M  V30 2636 H 266.263 -4.73586 -6.19141 0
M  V30 2637 N 270.492 0.636531 -1.44174 0
M  V30 2638 C 271.439 1.74875 -1.50624 0
M  V30 2639 C 272.409 1.62275 -0.35442 0
M  V30 2640 O 273.594 1.82276 -0.563908 0
M  V30 2641 C 270.734 3.13102 -1.45125 0
M  V30 2642 C 269.847 3.36717 -2.7064 0
M  V30 2643 C 268.982 4.64885 -2.57013 0
M  V30 2644 C 268.021 4.8166 -3.77717 0
M  V30 2645 N 267.158 6.01101 -3.62798 0
M  V30 2646 H 271.998 1.68697 -2.45653 0
M  V30 2647 H 269.535 0.823004 -1.21922 0
M  V30 2648 H 271.493 3.93034 -1.39929 0
M  V30 2649 H 270.123 3.18308 -0.536671 0
M  V30 2650 H 269.175 2.50763 -2.86046 0
M  V30 2651 H 270.487 3.44993 -3.60252 0
M  V30 2652 H 269.641 5.52969 -2.49619 0
M  V30 2653 H 268.38 4.58957 -1.64953 0
M  V30 2654 H 267.385 3.92007 -3.85501 0
M  V30 2655 H 268.61 4.89406 -4.70807 0
M  V30 2656 H 266.556 5.96273 -2.73486 0
M  V30 2657 H 266.473 6.10409 -4.46023 0
M  V30 2658 H 267.741 6.91761 -3.59286 0
M  V30 2659 N 271.97 1.30982 0.876444 0
M  V30 2660 C 273.219 1.19658 1.62373 0
M  V30 2661 C 273.532 -0.245636 1.94052 0
M  V30 2662 O 274.738 -0.48049 2.67214 0
M  V30 2663 C 273.194 2.09433 2.92687 0
M  V30 2664 C 272.802 3.58613 2.68516 0
M  V30 2665 C 274.546 2.06893 3.70669 0
M  V30 2666 C 272.453 4.40416 3.94699 0
M  V30 2667 H 271.383 0.444268 0.609214 0
M  V30 2668 H 274.034 1.55791 0.969605 0
M  V30 2669 H 272.416 1.66191 3.59439 0
M  V30 2670 H 273.59 4.10058 2.10212 0
M  V30 2671 H 271.905 3.63063 2.03898 0
M  V30 2672 H 274.502 2.65258 4.64265 0
M  V30 2673 H 274.845 1.05448 4.02724 0
M  V30 2674 H 275.378 2.48301 3.10792 0
M  V30 2675 H 272.117 5.42591 3.67798 0
M  V30 2676 H 271.637 3.93731 4.52477 0
M  V30 2677 H 273.316 4.52294 4.62644 0
M  V30 2678 N 273.449 -1.08991 1.13837 0
M  V30 2679 C 274.677 -1.85011 0.926202 0
M  V30 2680 C 275.092 -1.8135 -0.525127 0
M  V30 2681 O 274.449 -1.21287 -1.36366 0
M  V30 2682 C 274.5 -3.32802 1.41155 0
M  V30 2683 O 274.221 -3.36444 2.80601 0
M  V30 2684 C 275.722 -4.25649 1.23847 0
M  V30 2685 H 272.942 -0.584249 0.32999 0
M  V30 2686 H 275.486 -1.37688 1.51202 0
M  V30 2687 H 273.641 -3.77536 0.868631 0
M  V30 2688 H 274.055 -4.28657 3.02248 0
M  V30 2689 H 275.529 -5.27485 1.62675 0
M  V30 2690 H 276.006 -4.38828 0.18065 0
M  V30 2691 H 276.612 -3.86735 1.76964 0
M  V30 2692 N 274.927 -0.932562 -1.27047 0
M  V30 2693 C 276.204 -0.49377 -1.89265 0
M  V30 2694 C 276.584 1.02833 -1.8436 0
M  V30 2695 O 275.932 1.88461 -1.29209 0
M  V30 2696 C 276.142 -1.04536 -3.32976 0
M  V30 2697 C 277.49 -1.10879 -4.09867 0
M  V30 2698 O 278.514 -0.995327 -3.42011 0
M  V30 2699 O 277.373 -1.28417 -5.31198 0
M  V30 2700 H 274.467 -0.159596 -0.811454 0
M  V30 2701 H 277.013 -1.02457 -1.3528 0
M  V30 2702 H 275.785 -2.08913 -3.30864 0
M  V30 2703 H 275.408 -0.496494 -3.94488 0
M  V30 2704 N 276.405 1.4127 -0.698611 0
M  V30 2705 C 277.63 2.06024 -0.238512 0
M  V30 2706 C 278.055 1.5224 1.10475 0
M  V30 2707 O 277.413 0.650623 1.69223 0
M  V30 2708 C 277.461 3.59988 -0.209952 0
M  V30 2709 O 276.565 4.04282 0.814235 0
M  V30 2710 H 275.906 0.653829 -0.115775 0
M  V30 2711 H 278.436 1.8098 -0.954326 0
M  V30 2712 H 278.446 4.07979 -0.0418436 0
M  V30 2713 H 277.121 3.98503 -1.1903 0
M  V30 2714 H 275.698 3.6779 0.615234 0
M  V30 2715 N 277.883 0.443576 1.51229 0
M  V30 2716 C 279.294 -0.0180867 1.86691 0
M  V30 2717 C 279.645 -1.41384 1.36033 0
M  V30 2718 O 278.77 -2.04291 0.713722 0
M  V30 2719 C 279.365 -0.039597 3.38777 0
M  V30 2720 C 277.924 -0.445692 3.73752 0
M  V30 2721 C 277.071 0.357584 2.74985 0
M  V30 2722 H 280.022 0.659138 1.44364 0
M  V30 2723 H 280.043 -0.847761 3.70936 0
M  V30 2724 H 279.555 0.976382 3.75617 0
M  V30 2725 H 277.656 -1.46704 3.42503 0
M  V30 2726 H 277.769 -0.166155 4.78812 0
M  V30 2727 H 276.133 -0.184973 2.54027 0
M  V30 2728 H 276.916 1.37256 3.14668 0
M  V30 2729 N 279.361 -1.56624 0.175154 0
M  V30 2730 C 280.271 -2.21741 -0.766042 0
M  V30 2731 C 281.287 -1.21023 -1.25018 0
M  V30 2732 O 282.463 -1.53697 -1.3015 0
M  V30 2733 C 279.528 -2.84839 -1.97655 0
M  V30 2734 C 278.589 -4.00769 -1.53892 0
M  V30 2735 C 277.822 -4.60849 -2.69173 0
M  V30 2736 O 278.045 -4.19823 -3.86141 0
M  V30 2737 O 276.979 -5.50655 -2.43028 0
M  V30 2738 H 280.805 -3.02738 -0.241585 0
M  V30 2739 H 278.39 -1.49305 -0.053222 0
M  V30 2740 H 280.272 -3.24834 -2.68442 0
M  V30 2741 H 278.947 -2.06836 -2.48999 0
M  V30 2742 H 277.854 -3.65436 -0.80044 0
M  V30 2743 H 279.187 -4.80376 -1.07236 0
M  V30 2744 N 280.839 0.0985539 -1.57292 0
M  V30 2745 C 281.769 1.12064 -2.04851 0
M  V30 2746 C 282.75 1.41981 -0.936767 0
M  V30 2747 O 283.935 1.52071 -1.20781 0
M  V30 2748 C 281.065 2.44144 -2.47004 0
M  V30 2749 C 280.019 2.28643 -3.6181 0
M  V30 2750 C 279.345 3.65869 -3.89929 0
M  V30 2751 C 280.645 1.72986 -4.92822 0
M  V30 2752 H 282.339 0.724979 -2.9049 0
M  V30 2753 H 279.885 0.34729 -1.39749 0
M  V30 2754 H 281.838 3.15914 -2.78884 0
M  V30 2755 H 280.562 2.85639 -1.5836 0
M  V30 2756 H 279.221 1.59318 -3.30172 0
M  V30 2757 H 278.869 4.04885 -2.98458 0
M  V30 2758 H 278.569 3.56344 -4.67218 0
M  V30 2759 H 280.093 4.39112 -4.2428 0
M  V30 2760 H 281.507 2.34593 -5.23105 0
M  V30 2761 H 279.904 1.74229 -5.74251 0
M  V30 2762 H 280.974 0.689007 -4.7998 0
M  V30 2763 N 282.317 1.53212 0.369288 0
M  V30 2764 C 283.25 1.74166 1.4745 0
M  V30 2765 C 284.228 0.589923 1.51521 0
M  V30 2766 O 285.412 0.822078 1.69629 0
M  V30 2767 C 282.539 1.81711 2.8583 0
M  V30 2768 C 281.585 3.03649 2.99499 0
M  V30 2769 S 282.418 4.63242 2.6864 0
M  V30 2770 C 283.574 4.7363 4.09177 0
M  V30 2771 H 283.807 2.67636 1.29454 0
M  V30 2772 H 281.34 1.43754 0.563396 0
M  V30 2773 H 283.298 1.86743 3.65564 0
M  V30 2774 H 281.959 0.89299 3.01139 0
M  V30 2775 H 281.152 3.05526 4.00836 0
M  V30 2776 H 280.754 2.9671 2.27683 0
M  V30 2777 H 283.046 4.53456 5.03372 0
M  V30 2778 H 283.989 5.75682 4.12306 0
M  V30 2779 H 284.397 4.02295 3.96004 0
M  V30 2780 N 283.795 -0.628877 1.44509 0
M  V30 2781 C 285.042 -1.38839 1.47411 0
M  V30 2782 C 285.37 -1.94202 0.10757 0
M  V30 2783 O 284.625 -1.74243 -0.890947 0
M  V30 2784 C 284.924 -2.56995 2.48371 0
M  V30 2785 C 284.59 -2.19908 3.93639 0
M  V30 2786 C 283.252 -2.09506 4.33198 0
M  V30 2787 C 285.604 -1.9064 4.85083 0
M  V30 2788 C 282.932 -1.68028 5.62124 0
M  V30 2789 C 285.284 -1.50655 6.14399 0
M  V30 2790 C 283.948 -1.38796 6.5291 0
M  V30 2791 H 283.218 -0.508048 0.539414 0
M  V30 2792 H 285.865 -0.712913 1.77735 0
M  V30 2793 H 284.17 -3.29786 2.11538 0
M  V30 2794 H 285.867 -3.15223 2.47861 0
M  V30 2795 H 282.457 -2.28922 3.62343 0
M  V30 2796 H 286.641 -1.97585 4.55273 0
M  V30 2797 H 281.897 -1.57452 5.90778 0
M  V30 2798 H 286.071 -1.27048 6.84713 0
M  V30 2799 H 283.698 -1.06429 7.52713 0
M  V30 2800 N 285.273 -1.31445 -0.869486 0
M  V30 2801 C 286.183 -1.21097 -2.0093 0
M  V30 2802 C 287.199 -0.127584 -1.73532 0
M  V30 2803 O 288.375 -0.345477 -1.98415 0
M  V30 2804 C 285.44 -0.919378 -3.34288 0
M  V30 2805 C 284.501 -2.08971 -3.75006 0
M  V30 2806 C 283.734 -1.81194 -5.02001 0
M  V30 2807 O 283.957 -0.747296 -5.65484 0
M  V30 2808 O 282.891 -2.66883 -5.39497 0
M  V30 2809 H 286.717 -2.16883 -2.12592 0
M  V30 2810 H 284.302 -1.11189 -0.997868 0
M  V30 2811 H 286.184 -0.772625 -4.14257 0
M  V30 2812 H 284.859 0.00844772 -3.23699 0
M  V30 2813 H 283.766 -2.29187 -2.95676 0
M  V30 2814 H 285.099 -2.9998 -3.90221 0
M  V30 2815 N 286.751 1.08385 -1.14413 0
M  V30 2816 C 288.028 1.77429 -0.823297 0
M  V30 2817 C 288.408 1.9974 0.683163 0
M  V30 2818 O 287.756 1.60739 1.62405 0
M  V30 2819 C 287.966 3.09004 -1.62227 0
M  V30 2820 C 289.314 3.83532 -1.82177 0
M  V30 2821 O 290.338 3.18786 -1.58915 0
M  V30 2822 O 289.197 4.99792 -2.21067 0
M  V30 2823 H 286.291 0.769999 -0.301712 0
M  V30 2824 H 288.837 1.14846 -1.24934 0
M  V30 2825 H 287.609 2.88316 -2.64555 0
M  V30 2826 H 287.232 3.79316 -1.19187 0
M  V30 2827 N 288.23 0.939286 1.26551 0
M  V30 2828 C 289.458 0.602536 1.97932 0
M  V30 2829 C 289.873 -0.82206 1.69964 0
M  V30 2830 O 289.23 -1.54789 0.966784 0
M  V30 2831 C 289.281 0.832946 3.51773 0
M  V30 2832 O 289.002 2.20151 3.78768 0
M  V30 2833 C 290.503 0.506483 4.40397 0
M  V30 2834 H 287.723 0.227248 0.631347 0
M  V30 2835 H 290.267 1.25948 1.61113 0
M  V30 2836 H 288.422 0.222644 3.8676 0
M  V30 2837 H 288.836 2.26013 4.73306 0
M  V30 2838 H 290.31 0.718333 5.47306 0
M  V30 2839 H 290.787 -0.558451 4.35635 0
M  V30 2840 H 291.393 1.09543 4.10951 0
M  V30 2841 N 289.708 -1.40897 0.706093 0
M  V30 2842 C 290.641 -2.282 -0.00328781 0
M  V30 2843 C 291.619 -1.42816 -0.77732 0
M  V30 2844 O 292.803 -1.72237 -0.765944 0
M  V30 2845 C 289.93 -3.23226 -1.01205 0
M  V30 2846 C 288.976 -4.25222 -0.329955 0
M  V30 2847 S 289.809 -5.27269 0.935298 0
M  V30 2848 C 290.965 -6.25859 -0.0716061 0
M  V30 2849 H 291.198 -2.88016 0.737143 0
M  V30 2850 H 288.731 -1.46191 0.496756 0
M  V30 2851 H 290.689 -3.78503 -1.58888 0
M  V30 2852 H 289.35 -2.62485 -1.72513 0
M  V30 2853 H 288.543 -4.92023 -1.09221 0
M  V30 2854 H 288.145 -3.73595 0.174069 0
M  V30 2855 H 290.437 -6.71204 -0.921521 0
M  V30 2856 H 291.38 -7.0586 0.562765 0
M  V30 2857 H 291.788 -5.62852 -0.431088 0
M  V30 2858 N 291.186 -0.45159 -1.50991 0
M  V30 2859 C 292.133 0.352625 -2.2809 0
M  V30 2860 C 293.103 1.0044 -1.32291 0
M  V30 2861 O 294.288 1.02058 -1.6121 0
M  V30 2862 C 291.428 1.43983 -3.13629 0
M  V30 2863 C 290.541 0.804772 -4.24438 0
M  V30 2864 C 289.676 1.86822 -4.97263 0
M  V30 2865 C 288.715 1.21236 -5.99973 0
M  V30 2866 N 287.852 2.2178 -6.66152 0
M  V30 2867 H 292.692 -0.311186 -2.96371 0
M  V30 2868 H 290.229 -0.165308 -1.46168 0
M  V30 2869 H 292.187 2.08161 -3.61559 0
M  V30 2870 H 290.817 2.07307 -2.47434 0
M  V30 2871 H 289.869 0.0509129 -3.80366 0
M  V30 2872 H 291.181 0.286076 -4.97979 0
M  V30 2873 H 290.335 2.58628 -5.48813 0
M  V30 2874 H 289.074 2.42068 -4.23385 0
M  V30 2875 H 288.079 0.479828 -5.47702 0
M  V30 2876 H 289.304 0.667051 -6.75816 0
M  V30 2877 H 287.25 2.76079 -5.95077 0
M  V30 2878 H 287.167 1.74841 -7.35504 0
M  V30 2879 H 288.435 2.93026 -7.22327 0
M  V30 2880 N 292.664 1.56529 -0.183458 0
M  V30 2881 C 293.912 1.96855 0.457452 0
M  V30 2882 C 294.233 1.07104 1.62953 0
M  V30 2883 O 293.503 0.139887 1.954 0
M  V30 2884 H 292.083 0.72693 0.171992 0
M  V30 2885 H 294.745 1.93056 -0.267476 0
M  V30 2886 H 293.841 3.01423 0.809368 0
M  V30 2887 N 294.142 -0.090211 1.57342 0
M  V30 2888 C 295.39 -0.791241 1.85967 0
M  V30 2889 C 295.711 -1.7903 0.772859 0
M  V30 2890 O 294.981 -1.94872 -0.200398 0
M  V30 2891 H 293.561 -0.295205 0.686195 0
M  V30 2892 H 296.223 -0.0706782 1.94772 0
M  V30 2893 H 295.319 -1.31882 2.82867 0
M  V30 2894 N 295.62 -1.53406 -0.361157 0
M  V30 2895 C 296.552 -1.76446 -1.46286 0
M  V30 2896 C 297.565 -0.645322 -1.49464 0
M  V30 2897 O 298.754 -0.921681 -1.52864 0
M  V30 2898 C 295.854 -1.83332 -2.85031 0
M  V30 2899 C 295.027 -3.13033 -3.05498 0
M  V30 2900 C 294.086 -3.11104 -4.24383 0
M  V30 2901 O 293.112 -3.84888 -4.19344 0
M  V30 2902 N 294.314 -2.32234 -5.32022 0
M  V30 2903 H 297.079 -2.71508 -1.26899 0
M  V30 2904 H 294.64 -1.52238 -0.550915 0
M  V30 2905 H 296.632 -1.79514 -3.62708 0
M  V30 2906 H 295.202 -0.955342 -2.97644 0
M  V30 2907 H 294.422 -3.30119 -2.15442 0
M  V30 2908 H 295.71 -3.9874 -3.16044 0
M  V30 2909 H 295.108 -1.71807 -5.38979 0
M  V30 2910 H 293.665 -2.3423 -6.08259 0
M  V30 2911 N 297.098 0.621204 -1.44841 0
M  V30 2912 C 298.046 1.75385 -1.52784 0
M  V30 2913 C 299.04 1.64639 -0.398779 0
M  V30 2914 O 300.246 1.70598 -0.574137 0
M  V30 2915 H 296.621 0.579193 -0.479625 0
M  V30 2916 H 298.592 1.6581 -2.48092 0
M  V30 2917 C 297.341 3.13742 -1.4987 0
M  V30 2918 H 296.664 3.22663 -2.36069 0
M  V30 2919 H 298.104 3.92861 -1.59487 0
M  V30 2920 C 296.563 3.36175 -0.220973 0
M  V30 2921 O 297.093 3.95469 0.704782 0
M  V30 2922 N 295.299 2.90348 -0.120963 0
M  V30 2923 H 294.846 2.42278 -0.875162 0
M  V30 2924 H 294.804 3.05732 0.733168 0
M  V30 2925 N 298.576 1.31904 0.862503 0
M  V30 2926 C 299.825 1.21373 1.61094 0
M  V30 2927 C 300.138 -0.22504 1.94301 0
M  V30 2928 O 301.344 -0.452121 2.67709 0
M  V30 2929 C 299.8 2.12525 2.9045 0
M  V30 2930 C 299.408 3.61441 2.64697 0
M  V30 2931 C 301.152 2.10813 3.68454 0
M  V30 2932 C 299.059 4.44578 3.90006 0
M  V30 2933 H 297.989 0.450705 0.604468 0
M  V30 2934 H 300.64 1.56811 0.953027 0
M  V30 2935 H 299.022 1.69994 3.57656 0
M  V30 2936 H 300.196 4.12264 2.05851 0
M  V30 2937 H 298.511 3.65205 2.00036 0
M  V30 2938 H 301.108 2.70167 4.61426 0
M  V30 2939 H 301.451 1.09713 4.01583 0
M  V30 2940 H 301.984 2.51583 3.08141 0
M  V30 2941 H 298.723 5.46461 3.62023 0
M  V30 2942 H 298.243 3.98508 4.48276 0
M  V30 2943 H 299.922 4.57176 4.5782 0
M  V30 2944 N 300.054 -1.07777 1.14986 0
M  V30 2945 C 301.002 -2.16964 0.838406 0
M  V30 2946 C 301.996 -1.68372 -0.186386 0
M  V30 2947 O 303.202 -1.79951 -0.0418465 0
M  V30 2948 H 299.577 -0.708006 0.253439 0
M  V30 2949 H 301.548 -2.40454 1.76704 0
M  V30 2950 C 300.297 -3.4604 0.339335 0
M  V30 2951 H 299.62 -3.83813 1.11927 0
M  V30 2952 H 301.06 -4.23698 0.160021 0
M  V30 2953 C 299.519 -3.23569 -0.938325 0
M  V30 2954 O 300.049 -3.47752 -2.01077 0
M  V30 2955 N 298.255 -2.77079 -0.876117 0
M  V30 2956 H 297.802 -2.576 -0.00322037 0
M  V30 2957 H 297.76 -2.62422 -1.73153 0
M  V30 2958 N 301.532 -0.945985 -1.26051 0
M  V30 2959 C 302.809 -0.513816 -1.88731 0
M  V30 2960 C 303.189 1.00872 -1.8544 0
M  V30 2961 O 302.537 1.8708 -1.312 0
M  V30 2962 C 302.747 -1.08062 -3.31849 0
M  V30 2963 C 304.095 -1.1522 -4.08668 0
M  V30 2964 O 305.119 -1.03155 -3.40936 0
M  V30 2965 O 303.978 -1.34044 -5.29806 0
M  V30 2966 H 301.072 -0.168193 -0.809716 0
M  V30 2967 H 303.618 -1.03886 -1.34186 0
M  V30 2968 H 302.39 -2.1241 -3.2863 0
M  V30 2969 H 302.013 -0.538307 -3.93939 0
M  V30 2970 N 303.011 1.40521 -0.713556 0
M  V30 2971 C 304.422 1.83853 -0.324807 0
M  V30 2972 C 304.773 1.59667 1.14021 0
M  V30 2973 O 303.898 1.07649 1.87725 0
M  V30 2974 C 304.493 3.33751 -0.582746 0
M  V30 2975 C 303.052 3.75584 -0.247727 0
M  V30 2976 C 302.199 2.63753 -0.856121 0
M  V30 2977 H 305.15 1.29817 -0.91286 0
M  V30 2978 H 305.171 3.80194 0.152682 0
M  V30 2979 H 304.683 3.51322 -1.64908 0
M  V30 2980 H 302.784 3.63608 0.813624 0
M  V30 2981 H 302.897 4.7373 -0.715307 0
M  V30 2982 H 301.261 2.53108 -0.28432 0
M  V30 2983 H 302.044 2.84137 -1.92668 0
M  V30 2984 N 304.489 0.459591 1.5075 0
M  V30 2985 C 305.452 -0.329093 2.26825 0
M  V30 2986 C 306.452 -0.930481 1.31144 0
M  V30 2987 O 307.642 -0.801453 1.54669 0
M  V30 2988 C 304.774 -1.46768 3.07688 0
M  V30 2989 H 305.967 0.337924 2.9799 0
M  V30 2990 H 303.52 0.213336 1.54837 0
M  V30 2991 H 304.255 -2.17009 2.40993 0
M  V30 2992 H 304.04 -1.04238 3.77991 0
M  V30 2993 H 305.53 -2.02433 3.65254 0
M  V30 2994 N 305.967 -1.56429 0.191757 0
M  V30 2995 C 306.897 -2.21937 -0.725696 0
M  V30 2996 C 307.878 -1.1814 -1.2238 0
M  V30 2997 O 309.063 -1.46636 -1.27325 0
M  V30 2998 C 306.193 -2.87611 -1.94672 0
M  V30 2999 C 305.147 -3.97623 -1.58366 0
M  V30 3000 C 304.473 -4.50446 -2.88102 0
M  V30 3001 C 305.773 -5.16197 -0.796133 0
M  V30 3002 H 307.467 -2.98861 -0.179606 0
M  V30 3003 H 305.013 -1.43749 -0.0849464 0
M  V30 3004 H 306.966 -3.3212 -2.59373 0
M  V30 3005 H 305.69 -2.08087 -2.51728 0
M  V30 3006 H 304.349 -3.53801 -0.960247 0
M  V30 3007 H 303.997 -3.67688 -3.43241 0
M  V30 3008 H 303.697 -5.24675 -2.64556 0
M  V30 3009 H 305.221 -4.97654 -3.53798 0
M  V30 3010 H 306.635 -5.57271 -1.34618 0
M  V30 3011 H 305.032 -5.96471 -0.658928 0
M  V30 3012 H 306.102 -4.84473 0.203478 0
M  V30 3013 N 307.445 0.0818655 -1.57387 0
M  V30 3014 C 308.691 0.784074 -1.8703 0
M  V30 3015 C 309.024 1.77729 -0.782689 0
M  V30 3016 O 308.299 1.93384 0.208051 0
M  V30 3017 C 308.582 1.50105 -3.27323 0
M  V30 3018 C 308.435 0.524925 -4.46727 0
M  V30 3019 C 309.754 2.44843 -3.65705 0
M  V30 3020 H 306.873 0.283582 -0.680257 0
M  V30 3021 H 309.515 0.0474352 -1.89941 0
M  V30 3022 H 307.665 2.12897 -3.24972 0
M  V30 3023 H 309.337 -0.0970111 -4.61198 0
M  V30 3024 H 307.58 -0.160606 -4.33503 0
M  V30 3025 H 308.251 1.064 -5.41648 0
M  V30 3026 H 310.727 1.92135 -3.69085 0
M  V30 3027 H 309.603 2.92018 -4.64776 0
M  V30 3028 H 309.864 3.29197 -2.95096 0
M  V30 3029 N 308.923 1.53595 0.353017 0
M  V30 3030 C 309.87 1.80919 1.43308 0
M  V30 3031 C 310.84 0.654288 1.5267 0
M  V30 3032 O 312.025 0.897759 1.6836 0
M  V30 3033 C 309.165 2.01605 2.80089 0
M  V30 3034 C 308.278 3.29321 2.79593 0
M  V30 3035 C 307.413 3.40125 4.0803 0
M  V30 3036 C 306.452 4.61826 4.01725 0
M  V30 3037 N 305.589 4.69716 5.21834 0
M  V30 3038 H 310.429 2.73074 1.19308 0
M  V30 3039 H 307.966 1.35263 0.578131 0
M  V30 3040 H 309.924 2.11586 3.59565 0
M  V30 3041 H 308.554 1.12772 3.0246 0
M  V30 3042 H 307.606 3.28229 1.92276 0
M  V30 3043 H 308.918 4.18884 2.70809 0
M  V30 3044 H 308.072 3.49488 4.95927 0
M  V30 3045 H 306.811 2.48601 4.19582 0
M  V30 3046 H 305.816 4.52552 3.12213 0
M  V30 3047 H 307.041 5.54705 3.91764 0
M  V30 3048 H 304.987 3.81097 5.33948 0
M  V30 3049 H 304.904 5.53202 5.1527 0
M  V30 3050 H 306.172 4.83376 6.11529 0
M  V30 3051 N 310.401 -0.613514 1.45168 0
M  V30 3052 C 311.647 -1.37471 1.49096 0
M  V30 3053 C 311.98 -1.93765 0.129901 0
M  V30 3054 O 311.255 -1.74707 -0.854858 0
M  V30 3055 C 311.538 -2.52701 2.56542 0
M  V30 3056 C 311.391 -2.01643 4.0207 0
M  V30 3057 C 312.71 -3.54849 2.60327 0
M  V30 3058 H 309.829 -0.498502 0.54283 0
M  V30 3059 H 312.471 -0.692125 1.76945 0
M  V30 3060 H 310.621 -3.10931 2.32926 0
M  V30 3061 H 312.293 -1.48108 4.36877 0
M  V30 3062 H 310.536 -1.32688 4.13009 0
M  V30 3063 H 311.207 -2.84681 4.72928 0
M  V30 3064 H 313.683 -3.0645 2.81474 0
M  V30 3065 H 312.559 -4.32973 3.37381 0
M  V30 3066 H 312.82 -4.10079 1.6519 0
M  V30 3067 N 311.879 -1.3236 -0.855495 0
M  V30 3068 C 312.809 -1.23833 -1.97958 0
M  V30 3069 C 313.79 -0.122361 -1.69659 0
M  V30 3070 O 314.975 -0.30939 -1.9172 0
M  V30 3071 C 312.105 -0.959772 -3.33775 0
M  V30 3072 C 311.059 -2.03689 -3.76424 0
M  V30 3073 C 310.385 -1.61075 -5.09862 0
M  V30 3074 C 311.685 -3.4518 -3.9198 0
M  V30 3075 H 313.379 -2.1788 -2.0535 0
M  V30 3076 H 310.925 -1.04891 -0.986605 0
M  V30 3077 H 312.878 -0.886678 -4.11966 0
M  V30 3078 H 311.602 0.0163404 -3.26596 0
M  V30 3079 H 310.261 -2.10012 -3.00484 0
M  V30 3080 H 309.909 -0.622107 -4.99138 0
M  V30 3081 H 309.609 -2.33143 -5.39368 0
M  V30 3082 H 311.133 -1.55201 -5.90546 0
M  V30 3083 H 312.547 -3.4145 -4.60526 0
M  V30 3084 H 310.944 -4.1559 -4.32903 0
M  V30 3085 H 312.014 -3.84903 -2.94919 0
M  V30 3086 N 313.357 1.07166 -1.15556 0
M  V30 3087 C 314.582 1.84053 -0.955988 0
M  V30 3088 C 315.007 1.81586 0.490739 0
M  V30 3089 O 314.365 1.21018 1.34997 0
M  V30 3090 C 314.413 3.28957 -1.47714 0
M  V30 3091 O 313.517 4.06795 -0.677593 0
M  V30 3092 H 312.858 0.569842 -0.340847 0
M  V30 3093 H 315.388 1.35178 -1.53584 0
M  V30 3094 H 315.398 3.79788 -1.4908 0
M  V30 3095 H 314.073 3.30068 -2.53037 0
M  V30 3096 H 312.65 3.6561 -0.733721 0
M  V30 3097 N 314.835 0.952656 1.25548 0
M  V30 3098 C 316.06 0.623025 1.97821 0
M  V30 3099 C 316.485 -0.7976 1.70352 0
M  V30 3100 O 315.843 -1.53905 0.958283 0
M  V30 3101 C 315.891 0.885532 3.49558 0
M  V30 3102 O 314.995 -0.0366641 4.12384 0
M  V30 3103 H 314.336 0.237082 0.620232 0
M  V30 3104 H 316.866 1.27871 1.59719 0
M  V30 3105 H 316.876 0.811009 3.99858 0
M  V30 3106 H 315.551 1.92094 3.6888 0
M  V30 3107 H 314.128 0.0898954 3.72792 0
M  V30 3108 N 316.313 -1.40141 0.720998 0
M  V30 3109 C 317.263 -2.27949 0.0482544 0
M  V30 3110 C 318.247 -1.43538 -0.727021 0
M  V30 3111 O 319.439 -1.6658 -0.598332 0
M  V30 3112 C 316.568 -3.32126 -0.868729 0
M  V30 3113 C 315.654 -4.24008 -0.0883515 0
M  V30 3114 N 316.045 -4.97154 0.931226 0
M  V30 3115 C 314.343 -4.4485 -0.320105 0
M  V30 3116 C 315.044 -5.64587 1.4006 0
M  V30 3117 N 314.02 -5.38787 0.721752 0
M  V30 3118 H 317.822 -2.81948 0.829609 0
M  V30 3119 H 315.336 -1.52656 0.554067 0
M  V30 3120 H 317.333 -3.93884 -1.36605 0
M  V30 3121 H 315.993 -2.79687 -1.6494 0
M  V30 3122 H 317.004 -5.01 1.31222 0
M  V30 3123 H 313.681 -4.03378 -1.07668 0
M  V30 3124 H 315.071 -6.33175 2.24808 0
M  V30 3125 N 317.792 -0.46758 -1.50504 0
M  V30 3126 C 319.017 0.0886943 -2.0721 0
M  V30 3127 C 319.442 1.33057 -1.32956 0
M  V30 3128 O 318.8 1.77354 -0.376197 0
M  V30 3129 C 318.848 0.359202 -3.58806 0
M  V30 3130 O 317.952 1.44034 -3.8643 0
M  V30 3131 H 317.293 -0.0114349 -0.663902 0
M  V30 3132 H 319.823 -0.657613 -1.93744 0
M  V30 3133 H 319.833 0.600742 -4.03553 0
M  V30 3134 H 318.508 -0.548311 -4.1227 0
M  V30 3135 H 317.085 1.18638 -3.53524 0
M  V30 3136 N 319.27 1.56325 -0.20005 0
M  V30 3137 C 320.217 2.1932 0.718833 0
M  V30 3138 C 321.187 1.14198 1.20615 0
M  V30 3139 O 322.372 1.42469 1.26914 0
M  V30 3140 C 319.512 2.86041 1.93066 0
M  V30 3141 C 318.625 4.05702 1.48425 0
M  V30 3142 C 317.76 4.60266 2.65196 0
M  V30 3143 C 316.799 5.72273 2.17185 0
M  V30 3144 N 315.936 6.21221 3.27152 0
M  V30 3145 H 320.776 2.97486 0.17489 0
M  V30 3146 H 318.313 1.46911 0.0745794 0
M  V30 3147 H 320.271 3.22897 2.64184 0
M  V30 3148 H 318.901 2.1043 2.44783 0
M  V30 3149 H 317.953 3.74475 0.668755 0
M  V30 3150 H 319.265 4.86699 1.09204 0
M  V30 3151 H 318.419 4.99453 3.4443 0
M  V30 3152 H 317.158 3.78386 3.07693 0
M  V30 3153 H 316.163 5.3261 1.36407 0
M  V30 3154 H 317.388 6.55974 1.75713 0
M  V30 3155 H 315.334 5.42263 3.69171 0
M  V30 3156 H 315.251 6.97284 2.92116 0
M  V30 3157 H 316.519 6.65063 4.06585 0
M  V30 3158 N 320.748 -0.0735177 1.57428 0
M  V30 3159 C 322.025 -0.805903 1.78226 0
M  V30 3160 C 322.405 -1.95874 0.787189 0
M  V30 3161 O 321.753 -2.2779 -0.180029 0
M  V30 3162 C 321.963 -1.28045 3.24662 0
M  V30 3163 C 323.311 -1.71453 3.88444 0
M  V30 3164 O 324.335 -1.37616 3.28543 0
M  V30 3165 O 323.194 -2.34093 4.93825 0
M  V30 3166 H 320.288 -0.386041 0.73137 0
M  V30 3167 H 322.834 -0.0537269 1.69615 0
M  V30 3168 H 321.606 -0.455476 3.8864 0
M  V30 3169 H 321.229 -2.094 3.37991 0
M  V30 3170 N 322.226 -1.5378 -0.344866 0
M  V30 3171 C 323.451 -1.75211 -1.10977 0
M  V30 3172 C 323.876 -0.48936 -1.81623 0
M  V30 3173 O 323.234 0.557925 -1.72502 0
M  V30 3174 C 323.282 -2.93147 -2.09993 0
M  V30 3175 O 322.386 -2.63203 -3.17487 0
M  V30 3176 H 321.727 -0.581241 -0.321021 0
M  V30 3177 H 324.257 -2.00738 -0.395661 0
M  V30 3178 H 324.267 -3.19898 -2.53237 0
M  V30 3179 H 322.942 -3.84731 -1.5797 0
M  V30 3180 H 321.519 -2.47336 -2.79069 0
M  V30 3181 N 323.704 0.605807 -1.45491 0
M  V30 3182 C 324.95 1.36679 -1.49823 0
M  V30 3183 C 325.283 1.93693 -0.140175 0
M  V30 3184 O 324.558 1.75158 0.845581 0
M  V30 3185 C 324.841 2.51337 -2.57879 0
M  V30 3186 C 324.694 1.99508 -4.03134 0
M  V30 3187 C 326.013 3.53463 -2.62205 0
M  V30 3188 H 323.132 0.495617 -0.545466 0
M  V30 3189 H 325.774 0.682732 -1.7731 0
M  V30 3190 H 323.924 3.09691 -2.34571 0
M  V30 3191 H 325.596 1.45789 -4.37656 0
M  V30 3192 H 323.839 1.30496 -4.13707 0
M  V30 3193 H 324.51 2.82169 -4.74431 0
M  V30 3194 H 326.986 3.04953 -2.83095 0
M  V30 3195 H 325.862 4.31178 -3.39672 0
M  V30 3196 H 326.123 4.09197 -1.67363 0
M  V30 3197 N 325.182 1.32811 0.848464 0
M  V30 3198 C 326.459 1.14334 1.58704 0
M  V30 3199 C 326.839 -0.293948 2.09043 0
M  V30 3200 O 326.187 -1.29153 1.88499 0
M  V30 3201 C 326.397 2.17626 2.72837 0
M  V30 3202 C 327.745 2.51282 3.42261 0
M  V30 3203 O 328.769 2.16219 2.83068 0
M  V30 3204 O 327.628 3.11413 4.49093 0
M  V30 3205 H 324.722 0.441601 0.699226 0
M  V30 3206 H 327.268 1.44362 0.892053 0
M  V30 3207 H 326.04 3.14211 2.3321 0
M  V30 3208 H 325.663 1.88628 3.50008 0
M  V30 3209 N 326.66 -1.06551 1.16123 0
M  V30 3210 C 327.906 -1.79719 0.952505 0
M  V30 3211 C 328.261 -1.85396 -0.514385 0
M  V30 3212 O 327.554 -1.33263 -1.37665 0
M  V30 3213 C 327.748 -3.23911 1.51052 0
M  V30 3214 C 327.577 -3.32284 3.03013 0
M  V30 3215 C 326.347 -3.42371 3.71632 0
M  V30 3216 C 328.545 -3.22363 4.00732 0
M  V30 3217 N 326.527 -3.39732 5.11327 0
M  V30 3218 C 327.898 -3.26937 5.26794 0
M  V30 3219 C 329.953 -3.0623 3.92591 0
M  V30 3220 C 328.656 -3.17035 6.45663 0
M  V30 3221 C 330.682 -2.97665 5.11028 0
M  V30 3222 C 330.044 -3.02858 6.35969 0
M  V30 3223 H 326.143 -0.670585 0.402293 0
M  V30 3224 H 328.727 -1.27125 1.4747 0
M  V30 3225 H 326.898 -3.74907 1.01484 0
M  V30 3226 H 328.63 -3.85242 1.2398 0
M  V30 3227 H 325.385 -3.47058 3.22254 0
M  V30 3228 H 325.809 -3.41919 5.84312 0
M  V30 3229 H 330.451 -3.01063 2.96852 0
M  V30 3230 H 328.169 -3.2096 7.41627 0
M  V30 3231 H 331.755 -2.86273 5.06497 0
M  V30 3232 H 330.635 -2.96286 7.26075 0
M  V30 3233 N 328.138 -0.959301 -1.25041 0
M  V30 3234 C 329.071 -0.427418 -2.24161 0
M  V30 3235 C 330.049 0.493837 -1.54919 0
M  V30 3236 O 331.233 0.427144 -1.83597 0
M  V30 3237 C 328.36 0.383893 -3.36517 0
M  V30 3238 C 327.406 -0.478431 -4.23808 0
M  V30 3239 S 328.239 -1.91353 -5.00144 0
M  V30 3240 C 329.395 -1.11077 -6.15965 0
M  V30 3241 H 329.628 -1.26743 -2.6893 0
M  V30 3242 H 327.161 -0.763714 -1.34189 0
M  V30 3243 H 329.119 0.846039 -4.01687 0
M  V30 3244 H 327.78 1.19878 -2.90324 0
M  V30 3245 H 326.973 0.14406 -5.03794 0
M  V30 3246 H 326.575 -0.87597 -3.63597 0
M  V30 3247 H 328.867 -0.361699 -6.76534 0
M  V30 3248 H 329.81 -1.88472 -6.82557 0
M  V30 3249 H 330.218 -0.638843 -5.60873 0
M  V30 3250 N 329.616 1.39756 -0.72842 0
M  V30 3251 C 330.844 2.04948 -0.283528 0
M  V30 3252 C 331.259 1.54908 1.0793 0
M  V30 3253 O 330.616 0.711135 1.68075 0
M  V30 3254 C 330.667 3.60498 -0.268957 0
M  V30 3255 O 330.388 4.08695 -1.57798 0
M  V30 3256 C 331.889 4.4288 0.192912 0
M  V30 3257 H 329.109 0.659243 -0.125056 0
M  V30 3258 H 331.653 1.78927 -0.990226 0
M  V30 3259 H 329.808 3.85444 0.388801 0
M  V30 3260 H 330.222 5.02977 -1.48709 0
M  V30 3261 H 331.696 5.51791 0.151952 0
M  V30 3262 H 332.173 4.21418 1.23708 0
M  V30 3263 H 332.779 4.23069 -0.435039 0
M  V30 3264 N 331.094 0.475555 1.50254 0
M  V30 3265 C 332.057 -0.305016 2.27161 0
M  V30 3266 C 333.057 -0.916519 1.32123 0
M  V30 3267 O 334.247 -0.785003 1.5551 0
M  V30 3268 C 331.379 -1.43496 3.09227 0
M  V30 3269 H 332.572 0.369511 2.97615 0
M  V30 3270 H 330.125 0.229747 1.54602 0
M  V30 3271 H 330.86 -2.14441 2.43281 0
M  V30 3272 H 330.645 -1.00223 3.79075 0
M  V30 3273 H 332.135 -1.98548 3.67381 0
M  V30 3274 N 332.573 -1.56217 0.208337 0
M  V30 3275 C 333.506 -2.15633 -0.746842 0
M  V30 3276 C 334.484 -1.09685 -1.20034 0
M  V30 3277 O 335.668 -1.3787 -1.28547 0
M  V30 3278 C 332.795 -2.72594 -2.01023 0
M  V30 3279 C 331.841 -3.91251 -1.69779 0
M  V30 3280 S 332.674 -5.28962 -0.834209 0
M  V30 3281 C 333.83 -5.89353 -2.10745 0
M  V30 3282 H 334.063 -2.96315 -0.241789 0
M  V30 3283 H 331.596 -1.54398 -0.00682183 0
M  V30 3284 H 333.554 -3.06053 -2.73572 0
M  V30 3285 H 332.215 -1.91929 -2.48641 0
M  V30 3286 H 331.408 -4.29562 -2.63614 0
M  V30 3287 H 331.01 -3.58869 -1.05303 0
M  V30 3288 H 333.302 -6.04522 -3.05875 0
M  V30 3289 H 334.245 -6.85661 -1.76845 0
M  V30 3290 H 334.653 -5.1807 -2.24196 0
M  V30 3291 N 334.051 0.0651679 -1.57465 0
M  V30 3292 C 335.299 0.761555 -1.87202 0
M  V30 3293 C 335.62 1.77778 -0.801243 0
M  V30 3294 O 334.89 1.95166 0.16937 0
M  V30 3295 H 333.47 0.284251 -0.690804 0
M  V30 3296 H 336.132 0.0396827 -1.9486 0
M  V30 3297 H 335.228 1.27365 -2.84929 0
M  V30 3298 N 335.529 1.53961 0.336706 0
M  V30 3299 C 336.492 1.81724 1.39675 0
M  V30 3300 C 337.492 0.688532 1.45313 0
M  V30 3301 O 338.682 0.956829 1.45569 0
M  V30 3302 C 335.814 1.96543 2.78538 0
M  V30 3303 H 337.007 2.76424 1.16318 0
M  V30 3304 H 334.56 1.45478 0.571474 0
M  V30 3305 H 335.295 1.0401 3.07168 0
M  V30 3306 H 335.08 2.78665 2.75841 0
M  V30 3307 H 336.57 2.19516 3.5525 0
M  V30 3308 N 337.007 -0.598083 1.45811 0
M  V30 3309 C 338.284 -1.35777 1.40797 0
M  V30 3310 C 338.664 -2.10935 0.083462 0
M  V30 3311 O 338.012 -2.08505 -0.934763 0
M  V30 3312 C 338.222 -2.29666 2.62783 0
M  V30 3313 C 339.57 -2.91977 3.08277 0
M  V30 3314 O 340.594 -2.39984 2.63223 0
M  V30 3315 O 339.453 -3.86376 3.86491 0
M  V30 3316 H 336.547 -0.609291 0.55919 0
M  V30 3317 H 339.093 -0.620379 1.57954 0
M  V30 3318 H 337.865 -1.73454 3.50756 0
M  V30 3319 H 337.488 -3.1077 2.48008 0
M  V30 3320 N 338.485 -1.33259 -0.841409 0
M  V30 3321 C 339.415 -1.25926 -1.96634 0
M  V30 3322 C 340.396 -0.140349 -1.6952 0
M  V30 3323 O 341.581 -0.329707 -1.91381 0
M  V30 3324 C 338.711 -0.99512 -3.32738 0
M  V30 3325 C 337.665 -2.0767 -3.74242 0
M  V30 3326 C 336.991 -1.66474 -5.08125 0
M  V30 3327 C 338.291 -3.49318 -3.88297 0
M  V30 3328 H 339.985 -2.20046 -2.03027 0
M  V30 3329 H 337.531 -1.05931 -0.975425 0
M  V30 3330 H 339.484 -0.930323 -4.11002 0
M  V30 3331 H 338.208 -0.0183004 -3.26595 0
M  V30 3332 H 336.867 -2.13187 -2.98239 0
M  V30 3333 H 336.515 -0.675012 -4.9845 0
M  V30 3334 H 336.215 -2.3885 -5.36865 0
M  V30 3335 H 337.739 -1.61455 -5.88867 0
M  V30 3336 H 339.153 -3.46316 -4.56879 0
M  V30 3337 H 337.55 -4.20158 -4.28471 0
M  V30 3338 H 338.62 -3.8801 -2.9082 0
M  V30 3339 N 339.963 1.05934 -1.16686 0
M  V30 3340 C 341.191 1.8249 -0.974929 0
M  V30 3341 C 341.606 1.82679 0.476861 0
M  V30 3342 O 340.963 1.2486 1.33103 0
M  V30 3343 C 341.014 3.28943 -1.49929 0
M  V30 3344 O 340.735 3.28886 -2.89423 0
M  V30 3345 C 342.236 4.22215 -1.35089 0
M  V30 3346 H 339.456 0.575295 -0.345365 0
M  V30 3347 H 342 1.33631 -1.548 0
M  V30 3348 H 340.155 3.751 -0.968423 0
M  V30 3349 H 340.569 4.20493 -3.13506 0
M  V30 3350 H 342.043 5.22987 -1.76603 0
M  V30 3351 H 342.52 4.38195 -0.296935 0
M  V30 3352 H 343.126 3.81907 -1.87155 0
M  V30 3353 N 341.441 0.965919 1.2453 0
M  V30 3354 C 342.718 0.543777 1.87889 0
M  V30 3355 C 343.098 -0.97909 1.87021 0
M  V30 3356 O 342.446 -1.84969 1.3416 0
M  V30 3357 C 342.656 1.13327 3.30088 0
M  V30 3358 C 344.004 1.21707 4.06783 0
M  V30 3359 O 345.028 1.08566 3.39252 0
M  V30 3360 O 343.887 1.42456 5.27606 0
M  V30 3361 H 340.981 0.181054 0.806938 0
M  V30 3362 H 343.527 1.06007 1.32516 0
M  V30 3363 H 342.299 2.17612 3.25209 0
M  V30 3364 H 341.922 0.600911 3.93033 0
M  V30 3365 N 342.919 -1.39368 0.735821 0
M  V30 3366 C 344.165 -2.00794 0.284544 0
M  V30 3367 C 344.498 -1.58255 -1.12557 0
M  V30 3368 O 343.773 -0.811819 -1.76748 0
M  V30 3369 C 344.056 -3.58011 0.387337 0
M  V30 3370 C 343.909 -4.10566 1.83728 0
M  V30 3371 C 345.228 -4.395 -0.22975 0
M  V30 3372 H 342.347 -0.729501 0.104866 0
M  V30 3373 H 344.989 -1.65564 0.93213 0
M  V30 3374 H 343.139 -3.88154 -0.164006 0
M  V30 3375 H 344.811 -3.91139 2.44556 0
M  V30 3376 H 343.054 -3.64095 2.35833 0
M  V30 3377 H 343.725 -5.19702 1.86047 0
M  V30 3378 H 346.201 -4.15406 0.240257 0
M  V30 3379 H 345.077 -5.48752 -0.127485 0
M  V30 3380 H 345.338 -4.22062 -1.3159 0
M  V30 3381 N 344.397 -0.483516 -1.5 0
M  V30 3382 C 345.645 0.067027 -2.01989 0
M  V30 3383 C 345.966 1.3909 -1.36671 0
M  V30 3384 O 345.236 1.88978 -0.516152 0
M  V30 3385 H 343.816 0.0277606 -0.746484 0
M  V30 3386 H 346.478 -0.636773 -1.84204 0
M  V30 3387 H 345.574 0.209484 -3.11396 0
M  V30 3388 N 345.875 1.56104 -0.216619 0
M  V30 3389 C 346.808 2.16026 0.735395 0
M  V30 3390 C 347.786 1.1032 1.1945 0
M  V30 3391 O 348.97 1.38549 1.27814 0
M  V30 3392 C 346.097 2.73656 1.99575 0
M  V30 3393 C 345.143 3.92146 1.67702 0
M  V30 3394 S 345.976 5.29397 0.806145 0
M  V30 3395 C 347.132 5.90463 2.07617 0
M  V30 3396 H 347.365 2.96439 0.226072 0
M  V30 3397 H 344.898 1.544 -0.00136639 0
M  V30 3398 H 346.856 3.075 2.71945 0
M  V30 3399 H 345.517 1.93245 2.47619 0
M  V30 3400 H 344.71 4.30954 2.61332 0
M  V30 3401 H 344.312 3.59423 1.03398 0
M  V30 3402 H 346.604 6.06136 3.02664 0
M  V30 3403 H 347.547 6.86589 1.73207 0
M  V30 3404 H 347.955 5.19252 2.21445 0
M  V30 3405 N 347.353 -0.0568162 1.57498 0
M  V30 3406 C 348.286 -1.09817 2.00039 0
M  V30 3407 C 349.264 -1.3674 0.879819 0
M  V30 3408 O 350.448 -1.49863 1.14338 0
M  V30 3409 C 347.575 -2.43924 2.34986 0
M  V30 3410 C 346.621 -2.33039 3.57204 0
M  V30 3411 S 347.454 -1.7102 5.07457 0
M  V30 3412 C 348.61 -3.06674 5.45621 0
M  V30 3413 H 348.843 -0.735701 2.88053 0
M  V30 3414 H 346.376 -0.265871 1.52094 0
M  V30 3415 H 348.334 -3.2106 2.55795 0
M  V30 3416 H 346.995 -2.77327 1.47474 0
M  V30 3417 H 346.188 -3.31973 3.79223 0
M  V30 3418 H 345.79 -1.64043 3.36104 0
M  V30 3419 H 348.082 -4.03 5.44608 0
M  V30 3420 H 349.025 -2.8942 6.46252 0
M  V30 3421 H 349.433 -3.07969 4.73091 0
M  V30 3422 N 348.832 -1.54138 -0.328536 0
M  V30 3423 C 350.08 -1.71765 -1.06496 0
M  V30 3424 C 350.401 -0.49149 -1.88704 0
M  V30 3425 O 349.671 0.494539 -1.89555 0
M  V30 3426 H 348.251 -0.633295 -0.396164 0
M  V30 3427 H 350.913 -1.91429 -0.366176 0
M  V30 3428 H 350.009 -2.5951 -1.73381 0
M  V30 3429 N 350.31 0.590341 -1.46126 0
M  V30 3430 C 351.558 1.34616 -1.50742 0
M  V30 3431 C 351.879 1.94363 -0.157486 0
M  V30 3432 O 351.149 1.78136 0.815136 0
M  V30 3433 H 349.729 0.499789 -0.555175 0
M  V30 3434 H 352.391 0.691953 -1.82203 0
M  V30 3435 H 351.487 2.15678 -2.25587 0
M  V30 3436 N 351.788 1.33704 0.83433 0
M  V30 3437 C 352.751 1.24244 1.92603 0
M  V30 3438 C 353.751 0.160383 1.59998 0
M  V30 3439 O 354.941 0.412228 1.69252 0
M  V30 3440 C 352.073 0.91555 3.28376 0
M  V30 3441 H 353.266 2.21287 2.02416 0
M  V30 3442 H 350.819 1.17827 1.02696 0
M  V30 3443 H 351.554 -0.0521886 3.24258 0
M  V30 3444 H 351.339 1.69811 3.53422 0
M  V30 3445 H 352.829 0.874231 4.08347 0
M  V30 3446 N 353.266 -1.05314 1.17247 0
M  V30 3447 C 354.491 -1.82509 0.985148 0
M  V30 3448 C 354.916 -1.82343 -0.461788 0
M  V30 3449 O 354.274 -1.23151 -1.33055 0
M  V30 3450 C 354.322 -3.26566 1.52929 0
M  V30 3451 O 353.426 -4.05666 0.742225 0
M  V30 3452 H 352.767 -0.564347 0.349869 0
M  V30 3453 H 355.297 -1.32718 1.55715 0
M  V30 3454 H 355.307 -3.77369 1.55103 0
M  V30 3455 H 353.982 -3.26001 2.58256 0
M  V30 3456 H 352.559 -3.64397 0.791794 0
M  V30 3457 N 354.744 -0.972509 -1.24016 0
M  V30 3458 C 355.99 -0.637978 -1.92504 0
M  V30 3459 C 356.323 0.825383 -1.75787 0
M  V30 3460 O 355.598 1.59442 -1.11393 0
M  V30 3461 C 355.881 -1.01942 -3.45369 0
M  V30 3462 C 355.734 -2.53983 -3.71231 0
M  V30 3463 C 357.053 -0.55751 -4.36555 0
M  V30 3464 H 354.172 -0.233248 -0.699117 0
M  V30 3465 H 356.814 -1.21238 -1.46292 0
M  V30 3466 H 354.964 -0.530656 -3.84859 0
M  V30 3467 H 356.636 -3.10374 -3.41271 0
M  V30 3468 H 354.879 -2.96968 -3.16216 0
M  V30 3469 H 355.55 -2.75723 -4.78206 0
M  V30 3470 H 358.026 -0.977029 -4.04467 0
M  V30 3471 H 356.902 -0.85292 -5.42233 0
M  V30 3472 H 357.163 0.542328 -4.38761 0
M  V30 3473 N 356.222 1.38976 -0.743202 0
M  V30 3474 C 357.17 2.32394 -0.0978389 0
M  V30 3475 C 358.164 1.53486 0.716824 0
M  V30 3476 O 359.37 1.69092 0.617088 0
M  V30 3477 H 355.745 0.75189 -0.0128402 0
M  V30 3478 H 357.716 2.84441 -0.901981 0
M  V30 3479 C 356.465 3.38629 0.789036 0
M  V30 3480 H 355.788 3.99432 0.171559 0
M  V30 3481 H 357.228 4.06426 1.20807 0
M  V30 3482 C 355.687 2.76347 1.92702 0
M  V30 3483 O 356.217 2.64836 3.02034 0
M  V30 3484 N 354.423 2.34311 1.71891 0
M  V30 3485 H 353.97 2.43873 0.829675 0
M  V30 3486 H 353.928 1.9298 2.48205 0
M  V30 3487 N 357.7 0.491464 1.49741 0
M  V30 3488 C 359.116 0.146835 1.58923 0
M  V30 3489 C 359.316 -1.34804 1.49767 0
M  V30 3490 O 358.372 -2.12317 1.36667 0
M  V30 3491 C 359.685 0.715157 2.92072 0
M  V30 3492 C 361.233 0.680407 3.05515 0
M  V30 3493 C 361.708 1.22663 4.41269 0
M  V30 3494 N 363.199 1.18691 4.47735 0
M  V30 3495 C 363.934 1.57984 5.51207 0
M  V30 3496 N 363.43 2.04824 6.6183 0
M  V30 3497 N 365.223 1.49459 5.41866 0
M  V30 3498 H 357.374 1.46347 1.53936 0
M  V30 3499 H 359.637 0.606453 0.728642 0
M  V30 3500 H 359.343 1.76317 3.04311 0
M  V30 3501 H 359.217 0.17018 3.76816 0
M  V30 3502 H 361.604 -0.358743 2.92911 0
M  V30 3503 H 361.685 1.26242 2.22478 0
M  V30 3504 H 361.329 2.26451 4.54623 0
M  V30 3505 H 361.259 0.620637 5.2293 0
M  V30 3506 H 363.75 0.843605 3.68364 0
M  V30 3507 H 364.063 2.32901 7.3687 0
M  V30 3508 H 362.408 2.08791 6.62896 0
M  V30 3509 H 365.599 1.12692 4.54333 0
M  V30 3510 H 365.772 1.80406 6.22381 0
M  V30 3511 N 359.178 -1.55987 0.224894 0
M  V30 3512 C 360.141 -2.19178 -0.670348 0
M  V30 3513 C 361.141 -1.15461 -1.11917 0
M  V30 3514 O 362.331 -1.40675 -1.02743 0
M  V30 3515 C 359.463 -2.81777 -1.9187 0
M  V30 3516 H 360.656 -2.99662 -0.119364 0
M  V30 3517 H 358.209 -1.5628 -0.0247128 0
M  V30 3518 H 358.944 -2.05172 -2.51147 0
M  V30 3519 H 358.729 -3.57732 -1.60531 0
M  V30 3520 H 360.219 -3.30205 -2.55645 0
M  V30 3521 N 360.656 0.0484629 -1.57525 0
M  V30 3522 C 361.606 1.06246 -2.01732 0
M  V30 3523 C 362.59 1.33155 -0.903245 0
M  V30 3524 O 363.782 1.33065 -1.16717 0
M  V30 3525 C 360.911 2.36943 -2.48421 0
M  V30 3526 C 359.997 2.13208 -3.6661 0
M  V30 3527 N 360.388 1.5947 -4.80003 0
M  V30 3528 C 358.686 2.43581 -3.7361 0
M  V30 3529 C 359.387 1.51092 -5.61735 0
M  V30 3530 N 358.363 1.9797 -5.0627 0
M  V30 3531 H 362.165 0.640675 -2.86832 0
M  V30 3532 H 359.679 0.255134 -1.60383 0
M  V30 3533 H 361.676 3.10374 -2.78341 0
M  V30 3534 H 360.336 2.79818 -1.64718 0
M  V30 3535 H 361.347 1.28008 -5.01831 0
M  V30 3536 H 358.024 2.89662 -3.00669 0
M  V30 3537 H 359.414 1.10199 -6.62801 0
M  V30 3538 N 362.134 1.5431 0.320358 0
M  V30 3539 C 363.55 1.45091 0.664889 0
M  V30 3540 C 363.75 0.626382 1.91517 0
M  V30 3541 O 362.806 0.126443 2.52183 0
M  V30 3542 C 364.119 2.88848 0.83591 0
M  V30 3543 C 365.667 2.9877 0.933046 0
M  V30 3544 C 366.142 4.43683 1.13621 0
M  V30 3545 N 367.633 4.47309 1.20287 0
M  V30 3546 C 368.368 5.56595 1.37801 0
M  V30 3547 N 367.864 6.75844 1.52338 0
M  V30 3548 N 369.657 5.44248 1.40535 0
M  V30 3549 H 361.808 2.06398 -0.501374 0
M  V30 3550 H 364.071 0.933963 -0.162534 0
M  V30 3551 H 363.777 3.51698 -0.0116092 0
M  V30 3552 H 363.651 3.35148 1.73078 0
M  V30 3553 H 366.038 2.36045 1.77107 0
M  V30 3554 H 366.119 2.55796 0.0145782 0
M  V30 3555 H 365.763 5.06995 0.303032 0
M  V30 3556 H 365.693 4.84269 2.0686 0
M  V30 3557 H 368.184 3.61388 1.10485 0
M  V30 3558 H 368.497 7.54892 1.65403 0
M  V30 3559 H 366.842 6.78746 1.4943 0
M  V30 3560 H 370.033 4.50038 1.28777 0
M  V30 3561 H 370.206 6.29473 1.53842 0
M  V30 3562 N 363.613 -0.582584 1.46437 0
M  V30 3563 C 365.024 -1.1647 1.45916 0
M  V30 3564 C 365.375 -1.95177 0.200077 0
M  V30 3565 O 364.5 -2.04874 -0.696819 0
M  V30 3566 C 365.095 -2.11885 2.64367 0
M  V30 3567 C 363.654 -2.65421 2.66887 0
M  V30 3568 C 362.801 -1.41294 2.38603 0
M  V30 3569 H 365.752 -0.370514 1.54314 0
M  V30 3570 H 365.773 -2.9535 2.39892 0
M  V30 3571 H 365.285 -1.54573 3.5599 0
M  V30 3572 H 363.386 -3.26602 1.79338 0
M  V30 3573 H 363.499 -3.08147 3.66854 0
M  V30 3574 H 361.863 -1.71109 1.88663 0
M  V30 3575 H 362.646 -0.858125 3.32402 0
M  V30 3576 N 365.091 -1.34144 -0.827227 0
M  V30 3577 C 366.319 -1.29325 -1.61501 0
M  V30 3578 C 366.734 0.13354 -1.88327 0
M  V30 3579 O 366.091 1.0793 -1.47164 0
M  V30 3580 C 366.142 -2.07746 -2.95844 0
M  V30 3581 O 365.863 -3.4486 -2.70191 0
M  V30 3582 C 367.364 -2.10273 -3.90256 0
M  V30 3583 H 364.584 -0.445069 -0.50215 0
M  V30 3584 H 367.128 -1.76693 -1.02955 0
M  V30 3585 H 365.283 -1.6403 -3.5096 0
M  V30 3586 H 365.697 -3.85345 -3.55822 0
M  V30 3587 H 367.171 -2.69575 -4.81698 0
M  V30 3588 H 367.648 -1.096 -4.25305 0
M  V30 3589 H 368.254 -2.54059 -3.41078 0
M  V30 3590 N 366.569 1.04691 -1.17803 0
M  V30 3591 C 367.817 1.7743 -0.967617 0
M  V30 3592 C 368.138 1.88359 0.504574 0
M  V30 3593 O 367.408 1.40402 1.36617 0
M  V30 3594 H 365.988 0.657242 -0.355024 0
M  V30 3595 H 368.65 1.2638 -1.48371 0
M  V30 3596 H 367.746 2.78924 -1.40027 0
M  V30 3597 N 368.047 0.979072 1.23499 0
M  V30 3598 C 369.295 0.645941 1.91499 0
M  V30 3599 C 369.616 -0.822948 1.76784 0
M  V30 3600 O 368.886 -1.58854 1.14639 0
M  V30 3601 H 367.466 0.235919 0.708767 0
M  V30 3602 H 370.128 1.2426 1.50152 0
M  V30 3603 H 369.224 0.896411 2.9895 0
M  V30 3604 N 369.525 -1.3858 0.750561 0
M  V30 3605 C 370.488 -2.28836 0.129152 0
M  V30 3606 C 371.488 -1.47045 -0.650714 0
M  V30 3607 O 372.678 -1.6753 -0.477428 0
M  V30 3608 C 369.81 -3.30751 -0.825622 0
M  V30 3609 H 371.003 -2.85294 0.924516 0
M  V30 3610 H 368.556 -1.47489 0.517376 0
M  V30 3611 H 369.291 -2.79378 -1.64677 0
M  V30 3612 H 369.076 -3.91177 -0.268852 0
M  V30 3613 H 370.566 -3.98249 -1.2565 0
M  V30 3614 N 371.003 -0.499398 -1.49478 0
M  V30 3615 C 372.251 0.0455996 -2.02049 0
M  V30 3616 C 372.572 1.37633 -1.38138 0
M  V30 3617 O 371.842 1.8842 -0.536166 0
M  V30 3618 H 370.422 0.0198416 -0.746736 0
M  V30 3619 H 373.084 -0.656274 -1.83519 0
M  V30 3620 H 372.18 0.176445 -3.11601 0
M  V30 3621 N 372.481 1.55866 -0.233164 0
M  V30 3622 C 373.727 1.98897 0.395959 0
M  V30 3623 C 374.06 1.12091 1.58585 0
M  V30 3624 O 373.335 0.181182 1.93654 0
M  V30 3625 C 373.618 3.50658 0.819224 0
M  V30 3626 C 373.471 4.48233 -0.375109 0
M  V30 3627 C 374.79 4.07135 1.67121 0
M  V30 3628 H 371.909 0.723102 0.142451 0
M  V30 3629 H 374.551 1.87082 -0.331725 0
M  V30 3630 H 372.701 3.60857 1.43925 0
M  V30 3631 H 374.373 4.50031 -1.01341 0
M  V30 3632 H 372.616 4.21624 -1.02058 0
M  V30 3633 H 373.287 5.51988 -0.0358328 0
M  V30 3634 H 375.763 3.99952 1.14795 0
M  V30 3635 H 374.639 5.13615 1.93625 0
M  V30 3636 H 374.9 3.54736 2.63846 0
M  V30 3637 N 373.959 -0.0401083 1.57549 0
M  V30 3638 C 375.207 -0.731677 1.8839 0
M  V30 3639 C 375.528 -1.76481 0.829425 0
M  V30 3640 O 374.798 -1.95411 -0.1383 0
M  V30 3641 H 373.378 -0.273225 0.695239 0
M  V30 3642 H 376.04 -0.00867725 1.94898 0
M  V30 3643 H 375.136 -1.22816 2.86919 0
M  V30 3644 N 375.437 -1.54477 -0.31217 0
M  V30 3645 C 376.4 -1.83923 -1.36766 0
M  V30 3646 C 377.4 -0.711563 -1.44199 0
M  V30 3647 O 378.59 -0.979866 -1.44029 0
M  V30 3648 C 375.722 -2.0095 -2.75376 0
M  V30 3649 H 376.915 -2.78239 -1.11906 0
M  V30 3650 H 374.468 -1.46369 -0.548257 0
M  V30 3651 H 375.203 -1.08883 -3.05475 0
M  V30 3652 H 374.988 -2.83018 -2.71373 0
M  V30 3653 H 376.478 -2.2514 -3.51713 0
M  V30 3654 N 376.915 0.57481 -1.46744 0
M  V30 3655 C 377.865 1.67838 -1.54319 0
M  V30 3656 C 378.849 1.55759 -0.40346 0
M  V30 3657 O 380.041 1.6454 -0.652347 0
M  V30 3658 C 377.17 3.06624 -1.5439 0
M  V30 3659 C 376.256 3.23971 -2.73685 0
M  V30 3660 N 376.647 3.11447 -3.9854 0
M  V30 3661 C 374.945 3.5493 -2.70075 0
M  V30 3662 C 375.646 3.31011 -4.78337 0
M  V30 3663 N 374.622 3.56533 -4.10348 0
M  V30 3664 H 378.424 1.56698 -2.48642 0
M  V30 3665 H 375.938 0.779071 -1.42493 0
M  V30 3666 H 377.935 3.85839 -1.57905 0
M  V30 3667 H 376.595 3.1889 -0.611493 0
M  V30 3668 H 377.606 2.89145 -4.29669 0
M  V30 3669 H 374.283 3.73832 -1.85893 0
M  V30 3670 H 375.673 3.26445 -5.87268 0
M  V30 3671 N 378.394 1.34581 0.820102 0
M  V30 3672 C 379.64 1.27285 1.57881 0
M  V30 3673 C 379.973 -0.156137 1.93571 0
M  V30 3674 O 379.248 -1.10222 1.60254 0
M  V30 3675 C 379.531 2.16639 2.87645 0
M  V30 3676 C 379.384 3.68088 2.58517 0
M  V30 3677 C 380.703 2.05378 3.8924 0
M  V30 3678 H 377.822 0.463714 0.572833 0
M  V30 3679 H 380.464 1.64859 0.944539 0
M  V30 3680 H 378.614 1.84725 3.41773 0
M  V30 3681 H 380.286 4.10382 2.10676 0
M  V30 3682 H 378.529 3.89038 1.91917 0
M  V30 3683 H 379.2 4.2598 3.51063 0
M  V30 3684 H 381.676 2.33404 3.44473 0
M  V30 3685 H 380.552 2.7012 4.77835 0
M  V30 3686 H 380.813 1.0316 4.29896 0
M  V30 3687 N 379.872 -1.04064 1.18357 0
M  V30 3688 C 381.118 -1.77528 0.980397 0
M  V30 3689 C 381.451 -1.87948 -0.48879 0
M  V30 3690 O 380.726 -1.3876 -1.36293 0
M  V30 3691 C 381.009 -3.20797 1.63588 0
M  V30 3692 C 380.862 -3.1832 3.17793 0
M  V30 3693 C 382.181 -4.18911 1.34914 0
M  V30 3694 H 379.3 -0.644443 0.357578 0
M  V30 3695 H 381.942 -1.2156 1.46024 0
M  V30 3696 H 380.092 -3.68586 1.22788 0
M  V30 3697 H 381.764 -2.78521 3.67728 0
M  V30 3698 H 380.007 -2.56351 3.49952 0
M  V30 3699 H 380.678 -4.19489 3.58794 0
M  V30 3700 H 383.154 -3.7967 1.70265 0
M  V30 3701 H 382.03 -5.17374 1.83346 0
M  V30 3702 H 382.291 -4.41262 0.272027 0
M  V30 3703 N 381.35 -0.985608 -1.22978 0
M  V30 3704 C 382.282 -0.488154 -2.23941 0
M  V30 3705 C 383.295 0.41282 -1.57479 0
M  V30 3706 O 384.484 0.216121 -1.77187 0
M  V30 3707 C 381.584 0.312611 -3.37455 0
M  V30 3708 C 380.757 -0.582741 -4.33501 0
M  V30 3709 C 379.816 0.165064 -5.25941 0
M  V30 3710 O 378.842 -0.447077 -5.67442 0
M  V30 3711 N 380.044 1.44953 -5.62111 0
M  V30 3712 H 382.809 -1.3563 -2.67254 0
M  V30 3713 H 380.37 -0.859477 -1.37203 0
M  V30 3714 H 382.362 0.821357 -3.96277 0
M  V30 3715 H 380.932 1.0818 -2.93285 0
M  V30 3716 H 380.152 -1.27225 -3.73105 0
M  V30 3717 H 381.44 -1.19275 -4.94622 0
M  V30 3718 H 380.838 1.9683 -5.30353 0
M  V30 3719 H 379.395 1.90361 -6.23383 0
M  V30 3720 N 382.828 1.3818 -0.7579 0
M  V30 3721 C 384.074 2.00316 -0.316453 0
M  V30 3722 C 384.407 1.60026 1.10025 0
M  V30 3723 O 383.682 0.839835 1.75434 0
M  V30 3724 C 383.965 3.57349 -0.444245 0
M  V30 3725 C 383.818 4.07591 -1.90236 0
M  V30 3726 C 385.137 4.3981 0.1598 0
M  V30 3727 H 382.256 0.727741 -0.116459 0
M  V30 3728 H 384.898 1.6406 -0.958352 0
M  V30 3729 H 383.048 3.88365 0.102233 0
M  V30 3730 H 384.72 3.87199 -2.50748 0
M  V30 3731 H 382.963 3.60297 -2.41595 0
M  V30 3732 H 383.634 5.16677 -1.94291 0
M  V30 3733 H 386.11 4.14971 -0.306314 0
M  V30 3734 H 384.986 5.48885 0.0401675 0
M  V30 3735 H 385.247 4.24102 1.24859 0
M  V30 3736 N 384.306 0.507319 1.49211 0
M  V30 3737 C 385.236 -0.256939 2.32082 0
M  V30 3738 C 386.217 -0.956609 1.40652 0
M  V30 3739 O 387.402 -0.946788 1.69557 0
M  V30 3740 C 384.532 -1.31802 3.21318 0
M  V30 3741 C 383.486 -0.737855 4.21592 0
M  V30 3742 C 382.812 -1.89992 4.99807 0
M  V30 3743 C 384.112 0.275325 5.21574 0
M  V30 3744 H 385.806 0.434798 2.96226 0
M  V30 3745 H 383.352 0.210546 1.42452 0
M  V30 3746 H 385.305 -1.86045 3.78107 0
M  V30 3747 H 384.029 -2.03903 2.5513 0
M  V30 3748 H 382.688 -0.217126 3.65956 0
M  V30 3749 H 382.336 -2.60877 4.30061 0
M  V30 3750 H 382.036 -1.51777 5.6766 0
M  V30 3751 H 383.56 -2.44657 5.59442 0
M  V30 3752 H 384.974 -0.179193 5.7302 0
M  V30 3753 H 383.371 0.573649 5.97352 0
M  V30 3754 H 384.441 1.18903 4.70096 0
M  V30 3755 N 385.784 -1.5574 0.241426 0
M  V30 3756 C 387.014 -2.02913 -0.38857 0
M  V30 3757 C 387.422 -1.12014 -1.52478 0
M  V30 3758 O 386.765 -0.125903 -1.83268 0
M  V30 3759 C 386.827 -3.4636 -0.963075 0
M  V30 3760 C 386.491 -4.56982 0.0401916 0
M  V30 3761 C 387.488 -5.12941 0.847766 0
M  V30 3762 C 385.173 -5.0203 0.164699 0
M  V30 3763 C 387.167 -6.12437 1.76636 0
M  V30 3764 C 384.854 -6.01358 1.0868 0
M  V30 3765 C 385.852 -6.5644 1.88616 0
M  V30 3766 O 385.54 -7.53831 2.79273 0
M  V30 3767 H 385.272 -0.668983 -0.0971452 0
M  V30 3768 H 387.826 -2.02198 0.361248 0
M  V30 3769 H 386.056 -3.44206 -1.76235 0
M  V30 3770 H 387.745 -3.77065 -1.50257 0
M  V30 3771 H 388.511 -4.78974 0.762133 0
M  V30 3772 H 384.39 -4.58824 -0.447411 0
M  V30 3773 H 387.934 -6.55355 2.39071 0
M  V30 3774 H 383.831 -6.34746 1.17338 0
M  V30 3775 H 384.599 -7.71428 2.73572 0
M  V30 3776 N 387.262 0.0317525 -1.57568 0
M  V30 3777 C 388.539 0.758366 -1.803 0
M  V30 3778 C 388.919 1.93718 -0.838845 0
M  V30 3779 O 388.267 2.28187 0.119571 0
M  V30 3780 C 388.477 1.19392 -3.27943 0
M  V30 3781 C 389.825 1.61094 -3.92854 0
M  V30 3782 O 390.849 1.28857 -3.32076 0
M  V30 3783 O 389.708 2.20918 -4.99858 0
M  V30 3784 H 386.802 0.366514 -0.741348 0
M  V30 3785 H 389.348 0.00873765 -1.69698 0
M  V30 3786 H 388.12 0.352275 -3.89711 0
M  V30 3787 H 387.743 2.00365 -3.43424 0
M  V30 3788 N 388.74 1.54641 0.303973 0
M  V30 3789 C 389.688 1.86137 1.39484 0
M  V30 3790 C 390.682 0.734854 1.52631 0
M  V30 3791 O 391.888 0.918803 1.54784 0
M  V30 3792 H 388.263 0.590324 0.465856 0
M  V30 3793 H 390.234 2.77324 1.10154 0
M  V30 3794 C 388.983 2.12274 2.75382 0
M  V30 3795 H 388.306 2.98429 2.66046 0
M  V30 3796 H 389.746 2.38254 3.5073 0
M  V30 3797 C 388.205 0.920365 3.24085 0
M  V30 3798 O 388.735 0.139377 4.01458 0
M  V30 3799 N 386.941 0.726566 2.81371 0
M  V30 3800 H 386.488 1.36332 2.18567 0
M  V30 3801 H 386.446 -0.0763799 3.14307 0
M  V30 3802 N 390.218 -0.567019 1.47046 0
M  V30 3803 C 391.181 -1.65696 1.58359 0
M  V30 3804 C 392.181 -1.54097 0.459441 0
M  V30 3805 O 393.371 -1.58432 0.724225 0
M  V30 3806 C 390.503 -3.05197 1.51879 0
M  V30 3807 H 391.696 -1.57019 2.5551 0
M  V30 3808 H 389.249 -0.786148 1.3509 0
M  V30 3809 H 389.984 -3.19417 0.560673 0
M  V30 3810 H 389.769 -3.15025 2.33455 0
M  V30 3811 H 391.259 -3.84511 1.62913 0
M  V30 3812 N 391.696 -1.35014 -0.812953 0
M  V30 3813 C 392.942 -1.2812 -1.57204 0
M  V30 3814 C 393.275 0.145869 -1.93651 0
M  V30 3815 O 392.55 1.0937 -1.60836 0
M  V30 3816 C 392.833 -2.18162 -2.86492 0
M  V30 3817 C 392.686 -3.69454 -2.56561 0
M  V30 3818 C 394.005 -2.07439 -3.88145 0
M  V30 3819 H 391.124 -0.466746 -0.570366 0
M  V30 3820 H 393.766 -1.65357 -0.935783 0
M  V30 3821 H 391.916 -1.86535 -3.40789 0
M  V30 3822 H 393.588 -4.11493 -2.08497 0
M  V30 3823 H 391.831 -3.9005 -1.89851 0
M  V30 3824 H 392.502 -4.27835 -3.48799 0
M  V30 3825 H 394.978 -2.35228 -3.4323 0
M  V30 3826 H 393.854 -2.7265 -4.76396 0
M  V30 3827 H 394.115 -1.05439 -4.29343 0
M  V30 3828 N 393.175 1.03435 -1.18907 0
M  V30 3829 C 394.122 2.11591 -0.921837 0
M  V30 3830 C 395.092 1.65499 0.141226 0
M  V30 3831 O 396.277 1.908 0.000242829 0
M  V30 3832 C 393.417 3.42012 -0.460616 0
M  V30 3833 C 392.53 4.01682 -1.58982 0
M  V30 3834 C 391.665 5.20091 -1.08069 0
M  V30 3835 C 390.704 5.71805 -2.18416 0
M  V30 3836 N 389.841 6.81494 -1.68849 0
M  V30 3837 H 394.681 2.33787 -1.8479 0
M  V30 3838 H 392.218 1.1467 -0.921373 0
M  V30 3839 H 394.176 4.16834 -0.174642 0
M  V30 3840 H 392.806 3.19944 0.428467 0
M  V30 3841 H 391.858 3.24127 -1.99113 0
M  V30 3842 H 393.17 4.36084 -2.4214 0
M  V30 3843 H 392.324 6.02051 -0.749615 0
M  V30 3844 H 391.063 4.87209 -0.218771 0
M  V30 3845 H 390.068 4.88461 -2.5236 0
M  V30 3846 H 391.293 6.06728 -3.05054 0
M  V30 3847 H 389.239 6.50475 -0.849572 0
M  V30 3848 H 389.156 7.14994 -2.45601 0
M  V30 3849 H 390.424 7.67063 -1.38689 0
M  V30 3850 N 394.653 0.992116 1.22453 0
M  V30 3851 C 396.069 0.702713 1.43297 0
M  V30 3852 C 396.269 -0.726909 1.87932 0
M  V30 3853 O 395.325 -1.49792 2.0327 0
M  V30 3854 C 396.638 1.70762 2.47509 0
M  V30 3855 C 398.186 1.72298 2.61309 0
M  V30 3856 C 398.661 2.71649 3.68742 0
M  V30 3857 N 400.152 2.70239 3.76199 0
M  V30 3858 C 400.887 3.43778 4.58917 0
M  V30 3859 N 400.383 4.26914 5.45633 0
M  V30 3860 N 402.176 3.32487 4.5322 0
M  V30 3861 H 394.327 1.91543 0.917871 0
M  V30 3862 H 396.59 0.826031 0.465162 0
M  V30 3863 H 396.296 2.73059 2.21657 0
M  V30 3864 H 396.17 1.49985 3.46099 0
M  V30 3865 H 398.557 0.706989 2.86506 0
M  V30 3866 H 398.638 1.97143 1.62997 0
M  V30 3867 H 398.282 3.73397 3.44292 0
M  V30 3868 H 398.212 2.44074 4.66622 0
M  V30 3869 H 400.703 2.09912 3.14237 0
M  V30 3870 H 401.016 4.79855 6.05771 0
M  V30 3871 H 399.361 4.31002 5.45218 0
M  V30 3872 H 402.552 2.6698 3.84499 0
M  V30 3873 H 402.725 3.90058 5.17454 0
M  V30 3874 N 396.131 -1.37776 0.765217 0
M  V30 3875 C 397.079 -2.32209 0.134798 0
M  V30 3876 C 398.073 -1.54607 -0.692315 0
M  V30 3877 O 399.279 -1.70052 -0.590109 0
M  V30 3878 H 395.654 -0.751591 0.0248005 0
M  V30 3879 H 397.625 -2.8297 0.947119 0
M  V30 3880 C 396.374 -3.39841 -0.735063 0
M  V30 3881 H 395.697 -3.99654 -0.107991 0
M  V30 3882 H 397.137 -4.08296 -1.14326 0
M  V30 3883 C 395.596 -2.79378 -1.88281 0
M  V30 3884 O 396.126 -2.69608 -2.97783 0
M  V30 3885 N 394.332 -2.37016 -1.68142 0
M  V30 3886 H 393.879 -2.45162 -0.790772 0
M  V30 3887 H 393.837 -1.96905 -2.45104 0
M  V30 3888 N 397.609 -0.515225 -1.4894 0
M  V30 3889 C 398.858 0.0261361 -2.01683 0
M  V30 3890 C 399.171 1.36719 -1.39883 0
M  V30 3891 O 400.377 1.99606 -1.84037 0
M  V30 3892 C 398.833 0.0970111 -3.59769 0
M  V30 3893 C 398.441 -1.23825 -4.30548 0
M  V30 3894 C 400.185 0.587981 -4.20408 0
M  V30 3895 C 398.092 -1.12877 -5.80528 0
M  V30 3896 H 397.022 0.0135398 -0.753878 0
M  V30 3897 H 399.673 -0.656787 -1.71343 0
M  V30 3898 H 398.055 0.844694 -3.86886 0
M  V30 3899 H 399.229 -2.00034 -4.15118 0
M  V30 3900 H 397.544 -1.66379 -3.81716 0
M  V30 3901 H 400.141 0.68763 -5.3026 0
M  V30 3902 H 400.484 1.59026 -3.84729 0
M  V30 3903 H 401.017 -0.103582 -3.97665 0
M  V30 3904 H 397.756 -2.10575 -6.20756 0
M  V30 3905 H 397.276 -0.407799 -5.98412 0
M  V30 3906 H 398.955 -0.813332 -6.41868 0
M  V30 3907 N 399.087 1.5561 -0.249682 0
M  V30 3908 C 400.364 1.90932 0.424761 0
M  V30 3909 C 400.744 1.17078 1.75658 0
M  V30 3910 O 400.092 0.289176 2.26663 0
M  V30 3911 C 400.302 3.43975 0.590109 0
M  V30 3912 C 401.65 4.15281 0.884714 0
M  V30 3913 O 402.674 3.49729 0.67587 0
M  V30 3914 O 401.533 5.31236 1.28259 0
M  V30 3915 H 398.627 0.794815 0.228468 0
M  V30 3916 H 401.173 1.67135 -0.293954 0
M  V30 3917 H 399.945 3.89748 -0.34818 0
M  V30 3918 H 399.568 3.73644 1.35926 0
M  V30 3919 N 400.565 -0.0233959 1.57583 0
M  V30 3920 C 401.495 -1.02162 2.09965 0
M  V30 3921 C 402.476 -1.3735 1.00344 0
M  V30 3922 O 403.661 -1.46135 1.27899 0
M  V30 3923 C 400.791 -2.32081 2.58371 0
M  V30 3924 C 399.745 -2.1112 3.72307 0
M  V30 3925 C 399.071 -3.46848 4.06941 0
M  V30 3926 C 400.371 -1.49276 5.00514 0
M  V30 3927 H 402.065 -0.585557 2.93618 0
M  V30 3928 H 399.611 -0.280218 1.41247 0
M  V30 3929 H 401.564 -3.02249 2.93639 0
M  V30 3930 H 400.288 -2.77758 1.71808 0
M  V30 3931 H 398.947 -1.43384 3.37397 0
M  V30 3932 H 398.595 -3.90184 3.17436 0
M  V30 3933 H 398.295 -3.33646 4.83688 0
M  V30 3934 H 399.819 -4.18369 4.44747 0
M  V30 3935 H 401.233 -2.09368 5.33702 0
M  V30 3936 H 399.63 -1.46632 5.8191 0
M  V30 3937 H 400.7 -0.459217 4.82721 0
M  V30 3938 N 402.043 -1.548 -0.295768 0
M  V30 3939 C 403.459 -1.4613 -0.641722 0
M  V30 3940 C 403.659 -0.656771 -1.90496 0
M  V30 3941 O 402.715 -0.166547 -2.5195 0
M  V30 3942 C 404.028 -2.90141 -0.789852 0
M  V30 3943 C 405.576 -3.00216 -0.885396 0
M  V30 3944 C 406.051 -4.45434 -1.06548 0
M  V30 3945 N 407.542 -4.49166 -1.13156 0
M  V30 3946 C 408.277 -5.58717 -1.28929 0
M  V30 3947 N 407.773 -6.78182 -1.41567 0
M  V30 3948 N 409.566 -5.46415 -1.31859 0
M  V30 3949 H 401.717 -2.05574 0.534147 0
M  V30 3950 H 403.98 -0.931259 0.177372 0
M  V30 3951 H 403.686 -3.51635 0.0675598 0
M  V30 3952 H 403.56 -3.37859 -1.67724 0
M  V30 3953 H 405.947 -2.38833 -1.73329 0
M  V30 3954 H 406.028 -2.55787 0.0261185 0
M  V30 3955 H 405.672 -5.07413 -0.222335 0
M  V30 3956 H 405.602 -4.87499 -1.9913 0
M  V30 3957 H 408.093 -3.631 -1.04721 0
M  V30 3958 H 408.406 -7.57428 -1.53372 0
M  V30 3959 H 406.751 -6.81037 -1.38613 0
M  V30 3960 H 409.942 -4.5203 -1.21601 0
M  V30 3961 H 410.115 -6.31841 -1.43808 0
M  V30 3962 N 403.521 0.559213 -1.47345 0
M  V30 3963 C 404.454 1.68201 -1.5422 0
M  V30 3964 C 405.432 1.57742 -0.394497 0
M  V30 3965 O 406.616 1.78628 -0.60201 0
M  V30 3966 C 403.743 3.0643 -1.44285 0
M  V30 3967 C 402.789 3.3534 -2.63532 0
M  V30 3968 S 403.622 3.24816 -4.25741 0
M  V30 3969 C 404.778 4.65542 -4.18355 0
M  V30 3970 H 405.011 1.62114 -2.49211 0
M  V30 3971 H 402.544 0.739871 -1.35519 0
M  V30 3972 H 404.502 3.86164 -1.3924 0
M  V30 3973 H 403.163 3.09984 -0.506816 0
M  V30 3974 H 402.356 4.36107 -2.52639 0
M  V30 3975 H 401.958 2.63221 -2.65689 0
M  V30 3976 H 404.25 5.56449 -3.86485 0
M  V30 3977 H 405.193 4.81493 -5.19202 0
M  V30 3978 H 405.601 4.43495 -3.49246 0
M  V30 3979 N 404.999 1.35443 0.805782 0
M  V30 3980 C 405.947 1.28465 1.93906 0
M  V30 3981 C 406.941 0.17943 1.68447 0
M  V30 3982 O 408.147 0.345459 1.76654 0
M  V30 3983 H 404.522 0.399528 0.637088 0
M  V30 3984 H 406.493 2.24206 1.96912 0
M  V30 3985 C 405.242 1.07432 3.30687 0
M  V30 3986 H 404.565 1.91716 3.50835 0
M  V30 3987 H 406.005 1.06591 4.10383 0
M  V30 3988 C 404.464 -0.22179 3.36169 0
M  V30 3989 O 404.994 -1.21731 3.82811 0
M  V30 3990 N 403.2 -0.260841 2.89427 0
M  V30 3991 H 402.747 0.549884 2.51663 0
M  V30 3992 H 402.705 -1.12777 2.93477 0
M  V30 3993 N 406.477 -1.02803 1.19454 0
M  V30 3994 C 407.705 -1.79841 1.02297 0
M  V30 3995 C 408.12 -1.83879 -0.428259 0
M  V30 3996 O 407.477 -1.28345 -1.29745 0
M  V30 3997 C 407.528 -3.24852 1.58598 0
M  V30 3998 O 407.249 -3.21097 2.98041 0
M  V30 3999 C 408.75 -4.18485 1.46236 0
M  V30 4000 H 405.97 -0.565936 0.360496 0
M  V30 4001 H 408.514 -1.2948 1.58288 0
M  V30 4002 H 406.669 -3.72401 1.06753 0
M  V30 4003 H 407.083 -4.12033 3.24545 0
M  V30 4004 H 408.557 -5.18121 1.90407 0
M  V30 4005 H 409.034 -4.37254 0.41301 0
M  V30 4006 H 409.64 -3.76811 1.97215 0
M  V30 4007 N 407.956 -0.998596 -1.21925 0
M  V30 4008 C 409.372 -0.710303 -1.42923 0
M  V30 4009 C 409.572 0.716933 -1.88314 0
M  V30 4010 O 408.628 1.48712 -2.04062 0
M  V30 4011 C 409.941 -1.72072 -2.466 0
M  V30 4012 C 411.489 -1.73681 -2.60392 0
M  V30 4013 C 411.964 -2.73601 -3.67296 0
M  V30 4014 N 413.455 -2.7223 -3.7476 0
M  V30 4015 C 414.19 -3.46206 -4.57087 0
M  V30 4016 N 413.686 -4.29802 -5.43362 0
M  V30 4017 N 415.479 -3.34886 -4.51451 0
M  V30 4018 H 407.63 -1.92028 -0.9077 0
M  V30 4019 H 409.893 -0.828487 -0.460775 0
M  V30 4020 H 409.599 -2.74231 -2.20206 0
M  V30 4021 H 409.473 -1.51818 -3.45299 0
M  V30 4022 H 411.86 -0.722173 -2.86127 0
M  V30 4023 H 411.941 -1.98005 -1.61949 0
M  V30 4024 H 411.585 -3.75217 -3.42307 0
M  V30 4025 H 411.515 -2.46545 -4.65321 0
M  V30 4026 H 414.006 -2.11576 -3.1312 0
M  V30 4027 H 414.319 -4.83061 -6.03218 0
M  V30 4028 H 412.664 -4.33887 -5.42925 0
M  V30 4029 H 415.855 -2.69015 -3.83078 0
M  V30 4030 H 416.028 -3.92796 -5.15379 0
M  V30 4031 N 409.434 1.37368 -0.772513 0
M  V30 4032 C 410.682 1.99279 -0.336516 0
M  V30 4033 C 411.003 1.6163 1.09091 0
M  V30 4034 O 410.273 0.882109 1.74916 0
M  V30 4035 H 408.853 0.737063 -0.121435 0
M  V30 4036 H 411.515 1.67836 -0.990809 0
M  V30 4037 H 410.611 3.09332 -0.414763 0
M  V30 4038 N 410.912 0.523116 1.48665 0
M  V30 4039 C 412.161 -0.01544 2.01694 0
M  V30 4040 C 412.474 -1.35975 1.40606 0
M  V30 4041 O 413.68 -1.98627 1.85093 0
M  V30 4042 C 412.136 -0.0779303 3.59816 0
M  V30 4043 C 411.744 1.26107 4.29885 0
M  V30 4044 C 413.488 -0.565678 4.20714 0
M  V30 4045 C 411.395 1.15954 5.79921 0
M  V30 4046 H 410.325 -0.00954163 0.75394 0
M  V30 4047 H 412.976 0.665865 1.70993 0
M  V30 4048 H 411.358 -0.824165 3.87329 0
M  V30 4049 H 412.532 2.02233 4.14051 0
M  V30 4050 H 410.847 1.68401 3.80828 0
M  V30 4051 H 413.444 -0.6595 5.30617 0
M  V30 4052 H 413.787 -1.56984 3.85567 0
M  V30 4053 H 414.32 0.12467 3.97605 0
M  V30 4054 H 411.059 2.13864 6.19631 0
M  V30 4055 H 410.579 0.439529 5.98187 0
M  V30 4056 H 412.258 0.847361 6.41427 0
M  V30 4057 N 412.39 -1.55475 0.257931 0
M  V30 4058 C 413.3 -2.2549 -0.647425 0
M  V30 4059 C 414.316 -1.2748 -1.18427 0
M  V30 4060 O 415.492 -1.6038 -1.2182 0
M  V30 4061 C 412.557 -2.94916 -1.82278 0
M  V30 4062 C 411.618 -4.08363 -1.32432 0
M  V30 4063 C 410.851 -4.74469 -2.44366 0
M  V30 4064 O 411.074 -4.39701 -3.63344 0
M  V30 4065 O 410.008 -5.62763 -2.13497 0
M  V30 4066 H 413.834 -3.03593 -0.0807707 0
M  V30 4067 H 411.419 -1.49377 0.0259962 0
M  V30 4068 H 413.301 -3.38606 -2.50846 0
M  V30 4069 H 411.976 -2.19744 -2.37685 0
M  V30 4070 H 410.883 -3.69166 -0.605605 0
M  V30 4071 H 412.216 -4.85385 -0.816211 0
M  V30 4072 N 413.868 0.0150385 -1.57593 0
M  V30 4073 C 415.114 0.704043 -1.90187 0
M  V30 4074 C 415.447 1.74249 -0.857366 0
M  V30 4075 O 414.722 1.94092 0.125843 0
M  V30 4076 C 415.005 1.36087 -3.33395 0
M  V30 4077 C 414.858 0.334981 -4.48551 0
M  V30 4078 C 416.177 2.29112 -3.7576 0
M  V30 4079 H 413.296 0.254475 -0.691673 0
M  V30 4080 H 415.938 -0.0331678 -1.89971 0
M  V30 4081 H 414.088 1.98922 -3.3371 0
M  V30 4082 H 415.76 -0.292534 -4.60372 0
M  V30 4083 H 414.003 -0.344325 -4.32431 0
M  V30 4084 H 414.674 0.833316 -5.45674 0
M  V30 4085 H 417.15 1.76308 -3.76902 0
M  V30 4086 H 416.026 2.72043 -4.76743 0
M  V30 4087 H 416.287 3.16385 -3.08793 0
M  V30 4088 N 415.346 1.54954 0.287554 0
M  V30 4089 C 416.276 1.89839 1.35954 0
M  V30 4090 C 417.257 0.758675 1.52244 0
M  V30 4091 O 418.442 1.01557 1.65529 0
M  V30 4092 C 415.572 2.15753 2.72154 0
M  V30 4093 C 414.526 3.3159 2.70614 0
M  V30 4094 C 413.852 3.42952 4.10229 0
M  V30 4095 C 415.152 4.68359 2.31165 0
M  V30 4096 H 416.846 2.79625 1.07007 0
M  V30 4097 H 414.392 1.3454 0.513316 0
M  V30 4098 H 416.345 2.38743 3.47246 0
M  V30 4099 H 415.069 1.22752 3.02654 0
M  V30 4100 H 413.728 3.08545 1.97979 0
M  V30 4101 H 413.376 2.47443 4.37928 0
M  V30 4102 H 413.076 4.20826 4.10097 0
M  V30 4103 H 414.6 3.68218 4.87081 0
M  V30 4104 H 416.014 4.9099 2.95976 0
M  V30 4105 H 414.411 5.49044 2.42221 0
M  V30 4106 H 415.481 4.68165 1.26291 0
M  V30 4107 N 416.824 -0.551391 1.4764 0
M  V30 4108 C 417.771 -1.65796 1.60563 0
M  V30 4109 C 418.741 -1.59932 0.448428 0
M  V30 4110 O 419.926 -1.78679 0.669222 0
M  V30 4111 C 417.066 -3.04108 1.63133 0
M  V30 4112 C 416.179 -3.20365 2.89811 0
M  V30 4113 C 415.314 -4.49109 2.8368 0
M  V30 4114 C 414.353 -4.58819 4.05156 0
M  V30 4115 N 413.49 -5.78926 3.97227 0
M  V30 4116 H 418.33 -1.54088 2.5507 0
M  V30 4117 H 415.867 -0.75052 1.26513 0
M  V30 4118 H 417.825 -3.84207 1.62606 0
M  V30 4119 H 416.455 -3.14637 0.721341 0
M  V30 4120 H 415.507 -2.33659 3.00179 0
M  V30 4121 H 416.819 -3.23402 3.79753 0
M  V30 4122 H 415.973 -5.37475 2.81434 0
M  V30 4123 H 414.712 -4.4856 1.91431 0
M  V30 4124 H 413.717 -3.68864 4.077 0
M  V30 4125 H 414.942 -4.61124 4.98539 0
M  V30 4126 H 412.888 -5.79314 3.07785 0
M  V30 4127 H 412.805 -5.83367 4.80853 0
M  V30 4128 H 414.073 -6.69637 3.99007 0
M  V30 4129 N 418.302 -1.35869 -0.798587 0
M  V30 4130 C 419.579 -1.20145 -1.54352 0
M  V30 4131 C 419.959 0.216161 -2.0999 0
M  V30 4132 O 419.307 1.22068 -1.93162 0
M  V30 4133 C 419.517 -2.27602 -2.64572 0
M  V30 4134 C 420.865 -2.63811 -3.32699 0
M  V30 4135 O 421.889 -2.26576 -2.74849 0
M  V30 4136 O 420.748 -3.27866 -4.37226 0
M  V30 4137 H 417.842 -0.467248 -0.682355 0
M  V30 4138 H 420.388 -1.47574 -0.837859 0
M  V30 4139 H 419.16 -3.2265 -2.21388 0
M  V30 4140 H 418.783 -2.01488 -3.42766 0
M  V30 4141 N 419.78 1.02168 -1.19998 0
M  V30 4142 C 421.057 1.72816 -0.916191 0
M  V30 4143 C 421.437 2.03081 0.576325 0
M  V30 4144 O 420.785 1.69122 1.53656 0
M  V30 4145 C 420.995 2.9997 -1.78378 0
M  V30 4146 C 422.343 3.73336 -2.02251 0
M  V30 4147 O 423.367 3.09914 -1.75589 0
M  V30 4148 O 422.226 4.87371 -2.47249 0
M  V30 4149 H 419.32 0.752924 -0.342103 0
M  V30 4150 H 421.866 1.08062 -1.30846 0
M  V30 4151 H 420.638 2.73888 -2.79466 0
M  V30 4152 H 420.261 3.72464 -1.39126 0
M  V30 4153 N 421.258 1.00505 1.21394 0
M  V30 4154 C 422.205 0.565496 2.23765 0
M  V30 4155 C 423.175 -0.408466 1.60999 0
M  V30 4156 O 424.36 -0.310503 1.88257 0
M  V30 4157 C 421.5 -0.101667 3.4495 0
M  V30 4158 C 420.613 0.915479 4.22188 0
M  V30 4159 C 419.748 0.220574 5.30742 0
M  V30 4160 C 418.787 1.22527 5.99711 0
M  V30 4161 N 417.924 0.557831 6.9988 0
M  V30 4162 H 422.764 1.44314 2.60725 0
M  V30 4163 H 420.301 0.722643 1.28126 0
M  V30 4164 H 422.259 -0.505504 4.14126 0
M  V30 4165 H 420.889 -0.94303 3.08718 0
M  V30 4166 H 419.941 1.43756 3.52191 0
M  V30 4167 H 421.253 1.68005 4.69655 0
M  V30 4168 H 420.407 -0.239368 6.06228 0
M  V30 4169 H 419.146 -0.576401 4.84282 0
M  V30 4170 H 418.151 1.69571 5.22997 0
M  V30 4171 H 419.376 2.02332 6.48258 0
M  V30 4172 H 417.322 -0.219486 6.55633 0
M  V30 4173 H 417.239 1.26065 7.45415 0
M  V30 4174 H 418.507 0.121095 7.79406 0
M  V30 4175 N 422.737 -1.36956 0.779787 0
M  V30 4176 C 423.985 -1.99097 0.347079 0
M  V30 4177 C 424.306 -1.62206 -1.08232 0
M  V30 4178 O 423.576 -0.891373 -1.74446 0
M  V30 4179 H 422.156 -0.736409 0.125342 0
M  V30 4180 H 424.818 -1.67308 0.999696 0
M  V30 4181 H 423.914 -3.09107 0.431162 0
M  V30 4182 N 424.215 -0.530993 -1.48385 0
M  V30 4183 C 425.443 -0.00134122 -2.069 0
M  V30 4184 C 425.858 1.2805 -1.3874 0
M  V30 4185 O 425.215 1.76204 -0.475244 0
M  V30 4186 C 425.266 0.225256 -3.60798 0
M  V30 4187 O 424.987 -1.0058 -4.26398 0
M  V30 4188 C 426.488 0.795172 -4.3611 0
M  V30 4189 H 423.708 -0.0339704 -0.67014 0
M  V30 4190 H 426.252 -0.736926 -1.90761 0
M  V30 4191 H 424.407 0.910891 -3.76539 0
M  V30 4192 H 424.821 -0.787165 -5.1856 0
M  V30 4193 H 426.295 0.903143 -5.44562 0
M  V30 4194 H 426.772 1.80031 -4.00606 0
M  V30 4195 H 427.378 0.146069 -4.25049 0
M  V30 4196 N 425.693 1.55336 -0.266172 0
M  V30 4197 C 426.939 1.99692 0.353681 0
M  V30 4198 C 427.272 1.1543 1.56172 0
M  V30 4199 O 426.547 0.222218 1.93226 0
M  V30 4200 C 426.83 3.52316 0.74466 0
M  V30 4201 C 426.683 4.47337 -0.470101 0
M  V30 4202 C 428.002 4.10588 1.58447 0
M  V30 4203 H 425.121 0.725961 0.12708 0
M  V30 4204 H 427.763 1.86336 -0.371333 0
M  V30 4205 H 425.913 3.63829 1.36239 0
M  V30 4206 H 427.585 4.4778 -1.10864 0
M  V30 4207 H 425.828 4.19364 -1.10978 0
M  V30 4208 H 426.499 5.51788 -0.15291 0
M  V30 4209 H 428.975 4.02297 1.06286 0
M  V30 4210 H 427.851 5.17607 1.82686 0
M  V30 4211 H 428.112 3.60253 2.56262 0
M  V30 4212 N 427.171 -0.0066808 1.57599 0
M  V30 4213 C 428.118 -1.00024 2.08 0
M  V30 4214 C 429.088 -1.34549 0.973943 0
M  V30 4215 O 430.273 -1.44502 1.24595 0
M  V30 4216 C 427.413 -2.2891 2.58252 0
M  V30 4217 C 426.526 -2.00346 3.82734 0
M  V30 4218 C 425.661 -3.23265 4.21513 0
M  V30 4219 C 424.7 -2.90357 5.3885 0
M  V30 4220 N 423.837 -4.05793 5.72954 0
M  V30 4221 H 428.677 -0.563499 2.92624 0
M  V30 4222 H 426.214 -0.266592 1.44664 0
M  V30 4223 H 428.172 -3.04247 2.85464 0
M  V30 4224 H 426.802 -2.70265 1.76512 0
M  V30 4225 H 425.854 -1.15406 3.62471 0
M  V30 4226 H 427.166 -1.72086 4.68175 0
M  V30 4227 H 426.32 -4.06953 4.49971 0
M  V30 4228 H 425.059 -3.54657 3.34768 0
M  V30 4229 H 424.064 -2.05075 5.10122 0
M  V30 4230 H 425.289 -2.60219 6.27266 0
M  V30 4231 H 423.235 -4.37094 4.89167 0
M  V30 4232 H 423.152 -3.81034 6.52954 0
M  V30 4233 H 424.42 -4.90289 6.06001 0
M  V30 4234 N 428.649 -1.55105 -0.279332 0
M  V30 4235 C 429.897 -1.75066 -1.00977 0
M  V30 4236 C 430.218 -0.551276 -1.87045 0
M  V30 4237 O 429.488 0.433984 -1.91032 0
M  V30 4238 H 428.068 -0.645578 -0.375816 0
M  V30 4239 H 430.73 -1.92497 -0.305089 0
M  V30 4240 H 429.826 -2.64894 -1.65038 0
M  V30 4241 N 430.127 0.543554 -1.4793 0
M  V30 4242 C 431.376 1.29649 -1.54512 0
M  V30 4243 C 431.689 1.94382 -0.217973 0
M  V30 4244 O 432.895 2.71017 -0.161908 0
M  V30 4245 C 431.351 2.35175 -2.72435 0
M  V30 4246 C 430.959 1.76572 -4.11736 0
M  V30 4247 C 432.703 3.11564 -2.8832 0
M  V30 4248 C 430.61 2.79958 -5.20939 0
M  V30 4249 H 429.54 0.487541 -0.57517 0
M  V30 4250 H 432.191 0.575708 -1.74235 0
M  V30 4251 H 430.573 3.10229 -2.46118 0
M  V30 4252 H 431.747 1.07799 -4.48013 0
M  V30 4253 H 430.062 1.12722 -4.00852 0
M  V30 4254 H 432.659 3.88794 -3.67074 0
M  V30 4255 H 433.002 3.66594 -1.97268 0
M  V30 4256 H 433.535 2.43623 -3.14472 0
M  V30 4257 H 430.274 2.29766 -6.13912 0
M  V30 4258 H 429.794 3.47101 -4.89164 0
M  V30 4259 H 431.473 3.43198 -5.48474 0
M  V30 4260 N 431.605 1.3629 0.791371 0
M  V30 4261 C 432.535 1.33137 1.91825 0
M  V30 4262 C 433.516 0.203168 1.68882 0
M  V30 4263 O 434.701 0.400509 1.90025 0
M  V30 4264 C 431.831 1.11793 3.28816 0
M  V30 4265 C 430.785 2.21417 3.66277 0
M  V30 4266 C 430.111 1.85218 5.01596 0
M  V30 4267 C 431.411 3.63489 3.75064 0
M  V30 4268 H 433.105 2.2743 1.9472 0
M  V30 4269 H 430.651 1.09479 0.935437 0
M  V30 4270 H 432.604 1.08222 4.07266 0
M  V30 4271 H 431.328 0.139501 3.26302 0
M  V30 4272 H 429.987 2.2411 2.90121 0
M  V30 4273 H 429.635 0.859544 4.95602 0
M  V30 4274 H 429.335 2.58611 5.27631 0
M  V30 4275 H 430.859 1.832 5.82469 0
M  V30 4276 H 432.273 3.63034 4.43711 0
M  V30 4277 H 430.67 4.35771 4.12582 0
M  V30 4278 H 431.74 3.98536 2.76219 0
M  V30 4279 N 433.083 -1.0153 1.20538 0
M  V30 4280 C 434.329 -1.75408 1.01783 0
M  V30 4281 C 434.662 -1.88943 -0.448814 0
M  V30 4282 O 433.937 -1.4162 -1.33319 0
M  V30 4283 C 434.22 -3.17255 1.70356 0
M  V30 4284 C 434.073 -3.11508 3.24473 0
M  V30 4285 C 435.392 -4.15955 1.43769 0
M  V30 4286 H 432.511 -0.636713 0.371167 0
M  V30 4287 H 435.153 -1.18436 1.4857 0
M  V30 4288 H 433.303 -3.65898 1.30578 0
M  V30 4289 H 434.975 -2.70658 3.73553 0
M  V30 4290 H 433.218 -2.4887 3.55311 0
M  V30 4291 H 433.889 -4.11784 3.67611 0
M  V30 4292 H 436.365 -3.75973 1.7828 0
M  V30 4293 H 435.241 -5.13368 1.94279 0
M  V30 4294 H 435.502 -4.40586 0.365564 0
M  V30 4295 N 434.561 -1.01147 -1.20859 0
M  V30 4296 C 435.508 -0.577354 -2.23462 0
M  V30 4297 C 436.478 0.399922 -1.61214 0
M  V30 4298 O 437.663 0.300515 -1.88419 0
M  V30 4299 C 434.803 0.083372 -3.44999 0
M  V30 4300 C 433.916 -0.937856 -4.21697 0
M  V30 4301 C 433.051 -0.248717 -5.30617 0
M  V30 4302 C 432.09 -1.25705 -5.99053 0
M  V30 4303 N 431.227 -0.594939 -6.99575 0
M  V30 4304 H 436.067 -1.45695 -2.59956 0
M  V30 4305 H 433.604 -0.729428 -1.27741 0
M  V30 4306 H 435.562 0.483535 -4.14388 0
M  V30 4307 H 434.192 0.926645 -3.09214 0
M  V30 4308 H 433.244 -1.45622 -3.51423 0
M  V30 4309 H 434.556 -1.70493 -4.68757 0
M  V30 4310 H 433.71 0.207215 -6.06346 0
M  V30 4311 H 432.449 0.55071 -4.84581 0
M  V30 4312 H 431.454 -1.72343 -5.2209 0
M  V30 4313 H 432.679 -2.05767 -6.47176 0
M  V30 4314 H 430.625 0.184713 -6.5574 0
M  V30 4315 H 430.542 -1.30017 -7.44736 0
M  V30 4316 H 431.81 -0.162427 -7.79331 0
M  V30 4317 N 436.039 1.36541 -0.78704 0
M  V30 4318 C 437.287 1.98911 -0.357633 0
M  V30 4319 C 437.608 1.62778 1.07371 0
M  V30 4320 O 436.878 0.900612 1.73971 0
M  V30 4321 H 435.458 0.735734 -0.129246 0
M  V30 4322 H 438.12 1.66776 -1.00855 0
M  V30 4323 H 437.216 3.08874 -0.447549 0
M  V30 4324 N 437.518 0.538854 1.48102 0
M  V30 4325 C 438.451 -0.266495 2.26639 0
M  V30 4326 C 439.429 -0.93687 1.32897 0
M  V30 4327 O 440.613 -0.959507 1.62252 0
M  V30 4328 C 437.74 -1.37814 3.09394 0
M  V30 4329 C 436.786 -0.818247 4.18577 0
M  V30 4330 S 437.619 0.320848 5.34538 0
M  V30 4331 C 438.775 -0.793059 6.20855 0
M  V30 4332 H 439.008 0.399994 2.94597 0
M  V30 4333 H 436.541 0.324808 1.50945 0
M  V30 4334 H 438.499 -2.01488 3.57649 0
M  V30 4335 H 437.16 -2.01639 2.40833 0
M  V30 4336 H 436.353 -1.65247 4.7614 0
M  V30 4337 H 435.955 -0.258036 3.73109 0
M  V30 4338 H 438.247 -1.68961 6.56093 0
M  V30 4339 H 439.19 -0.255204 7.0764 0
M  V30 4340 H 439.598 -1.07746 5.54122 0
M  V30 4341 N 438.996 -1.55193 0.274407 0
M  V30 4342 C 440.226 -2.03692 -0.345442 0
M  V30 4343 C 440.634 -1.15224 -1.50067 0
M  V30 4344 O 439.977 -0.164749 -1.8296 0
M  V30 4345 C 440.039 -3.48325 -0.88939 0
M  V30 4346 C 439.703 -4.56794 0.137115 0
M  V30 4347 C 440.7 -5.11028 0.956378 0
M  V30 4348 C 438.385 -5.01568 0.27115 0
M  V30 4349 C 440.379 -6.08552 1.89587 0
M  V30 4350 C 438.066 -5.98918 1.21412 0
M  V30 4351 C 439.064 -6.52291 2.02498 0
M  V30 4352 O 438.752 -7.47738 2.952 0
M  V30 4353 H 438.484 -0.670893 -0.0829332 0
M  V30 4354 H 441.038 -2.01387 0.404056 0
M  V30 4355 H 439.268 -3.47867 -1.68895 0
M  V30 4356 H 440.957 -3.80167 -1.42225 0
M  V30 4357 H 441.723 -4.7725 0.863559 0
M  V30 4358 H 437.602 -4.5967 -0.349987 0
M  V30 4359 H 441.146 -6.50137 2.52918 0
M  V30 4360 H 437.043 -6.32114 1.30776 0
M  V30 4361 H 437.811 -7.65451 2.89874 0
M  V30 4362 N 440.474 -0.00167713 -1.576 0
M  V30 4363 C 441.421 0.989195 -2.08527 0
M  V30 4364 C 442.391 1.34031 -0.981065 0
M  V30 4365 O 443.576 1.43839 -1.2536 0
M  V30 4366 C 440.716 2.27537 -2.59463 0
M  V30 4367 C 439.829 1.98314 -3.83791 0
M  V30 4368 C 438.964 3.21025 -4.23222 0
M  V30 4369 C 438.003 2.87495 -5.40382 0
M  V30 4370 N 437.14 4.02749 -5.75098 0
M  V30 4371 H 441.98 0.547973 -2.92919 0
M  V30 4372 H 439.517 0.258917 -1.44803 0
M  V30 4373 H 441.475 3.02729 -2.87073 0
M  V30 4374 H 440.105 2.69325 -1.77943 0
M  V30 4375 H 439.157 1.13482 -3.63078 0
M  V30 4376 H 440.469 1.69601 -4.69081 0
M  V30 4377 H 439.623 4.04561 -4.52123 0
M  V30 4378 H 438.362 3.52877 -3.36644 0
M  V30 4379 H 437.367 2.02367 -5.11202 0
M  V30 4380 H 438.592 2.56889 -6.28637 0
M  V30 4381 H 436.538 4.34494 -4.91478 0
M  V30 4382 H 436.455 3.77566 -6.54966 0
M  V30 4383 H 437.723 4.87068 -6.08592 0
M  V30 4384 N 441.952 1.55251 0.271103 0
M  V30 4385 C 443.2 1.75599 1.00047 0
M  V30 4386 C 443.521 0.561188 1.8675 0
M  V30 4387 O 442.791 -0.423846 1.9126 0
M  V30 4388 H 441.371 0.647562 0.372387 0
M  V30 4389 H 444.033 1.92656 0.294876 0
M  V30 4390 H 443.129 2.65766 1.6363 0
M  V30 4391 N 443.43 -0.535701 1.48216 0
M  V30 4392 C 444.66 -1.3148 1.59363 0
M  V30 4393 C 445.068 -1.8753 0.250844 0
M  V30 4394 O 444.411 -1.66821 -0.769174 0
M  V30 4395 C 444.473 -2.50731 2.57632 0
M  V30 4396 C 444.137 -2.15811 4.02833 0
M  V30 4397 C 445.134 -1.71822 4.90686 0
M  V30 4398 C 442.819 -2.26509 4.48329 0
M  V30 4399 C 444.813 -1.3899 6.22062 0
M  V30 4400 C 442.5 -1.93289 5.79726 0
M  V30 4401 C 443.498 -1.49599 6.66415 0
M  V30 4402 O 443.186 -1.16812 7.95368 0
M  V30 4403 H 442.918 -0.406315 0.540263 0
M  V30 4404 H 445.472 -0.653569 1.94725 0
M  V30 4405 H 443.702 -3.19817 2.1738 0
M  V30 4406 H 445.391 -3.12797 2.58675 0
M  V30 4407 H 446.157 -1.63031 4.56778 0
M  V30 4408 H 442.036 -2.59471 3.81045 0
M  V30 4409 H 445.58 -1.04816 6.89681 0
M  V30 4410 H 441.477 -2.01718 6.13172 0
M  V30 4411 H 442.245 -1.30259 8.08069 0
M  V30 4412 N 444.908 -1.36708 -0.784132 0
M  V30 4413 C 446.138 -1.34203 -1.57077 0
M  V30 4414 C 446.546 0.0774945 -1.89041 0
M  V30 4415 O 445.889 1.04628 -1.50992 0
M  V30 4416 C 445.951 -2.10351 -2.91535 0
M  V30 4417 C 445.615 -3.59405 -2.82272 0
M  V30 4418 C 446.612 -4.53545 -2.54151 0
M  V30 4419 C 444.297 -4.02362 -3.00683 0
M  V30 4420 C 446.291 -5.8862 -2.44551 0
M  V30 4421 C 443.978 -5.37526 -2.90704 0
M  V30 4422 C 444.976 -6.30468 -2.62677 0
M  V30 4423 O 444.664 -7.63149 -2.52702 0
M  V30 4424 H 444.396 -0.461791 -0.493685 0
M  V30 4425 H 446.95 -1.80475 -0.980712 0
M  V30 4426 H 445.18 -1.5875 -3.52612 0
M  V30 4427 H 446.869 -2.00636 -3.52845 0
M  V30 4428 H 447.635 -4.21669 -2.39625 0
M  V30 4429 H 443.514 -3.30389 -3.21503 0
M  V30 4430 H 447.058 -6.61133 -2.22596 0
M  V30 4431 H 442.955 -5.69008 -3.04795 0
M  V30 4432 H 443.723 -7.73331 -2.68144 0
M  V30 4433 N 446.386 1.0089 -1.21074 0
M  V30 4434 C 447.632 1.7497 -1.03717 0
M  V30 4435 C 447.987 1.8764 0.425344 0
M  V30 4436 O 447.28 1.39679 1.3115 0
M  V30 4437 C 447.474 3.16335 -1.66334 0
M  V30 4438 C 447.303 3.17449 -3.18522 0
M  V30 4439 C 446.073 3.2425 -3.87543 0
M  V30 4440 C 448.271 3.02877 -4.15656 0
M  V30 4441 N 446.253 3.14949 -5.26954 0
M  V30 4442 C 447.624 3.0143 -5.41793 0
M  V30 4443 C 449.679 2.8715 -4.06755 0
M  V30 4444 C 448.382 2.85869 -6.60054 0
M  V30 4445 C 450.408 2.72944 -5.24648 0
M  V30 4446 C 449.77 2.72171 -6.49694 0
M  V30 4447 H 445.869 0.650627 -0.43383 0
M  V30 4448 H 448.453 1.19944 -1.53367 0
M  V30 4449 H 446.624 3.69638 -1.19256 0
M  V30 4450 H 448.356 3.78888 -1.42219 0
M  V30 4451 H 445.111 3.31288 -3.38446 0
M  V30 4452 H 445.535 3.13651 -5.9996 0
M  V30 4453 H 450.177 2.86557 -3.10878 0
M  V30 4454 H 447.895 2.8521 -7.56096 0
M  V30 4455 H 451.481 2.61782 -5.19578 0
M  V30 4456 H 450.361 2.61307 -7.39384 0
M  V30 4457 N 447.864 1.01787 1.20321 0
M  V30 4458 C 449.11 0.708985 1.90003 0
M  V30 4459 C 449.443 -0.759572 1.78729 0
M  V30 4460 O 448.718 -1.55198 1.17234 0
M  V30 4461 C 449.001 1.1469 3.41348 0
M  V30 4462 C 448.854 2.67586 3.61549 0
M  V30 4463 C 450.173 0.71915 4.34185 0
M  V30 4464 H 447.292 0.259034 0.689978 0
M  V30 4465 H 449.934 1.26584 1.41692 0
M  V30 4466 H 448.084 0.673128 3.82624 0
M  V30 4467 H 449.756 3.22826 3.29517 0
M  V30 4468 H 447.999 3.085 3.04976 0
M  V30 4469 H 448.67 2.93281 4.67643 0
M  V30 4470 H 451.146 1.12647 4.00562 0
M  V30 4471 H 450.022 1.05358 5.38694 0
M  V30 4472 H 450.283 -0.379111 4.40472 0
M  V30 4473 N 449.342 -1.36122 0.79427 0
M  V30 4474 C 450.289 -2.29982 0.194101 0
M  V30 4475 C 451.259 -1.52214 -0.664833 0
M  V30 4476 O 452.444 -1.80702 -0.612498 0
M  V30 4477 C 449.584 -3.38706 -0.661244 0
M  V30 4478 C 448.697 -4.31456 0.216766 0
M  V30 4479 C 447.832 -5.27265 -0.645411 0
M  V30 4480 C 446.871 -6.11653 0.233756 0
M  V30 4481 N 446.008 -6.99636 -0.587682 0
M  V30 4482 H 450.848 -2.80722 0.999965 0
M  V30 4483 H 448.385 -1.38172 0.504677 0
M  V30 4484 H 450.343 -4.00394 -1.17219 0
M  V30 4485 H 448.973 -2.89274 -1.43249 0
M  V30 4486 H 448.025 -3.7088 0.845724 0
M  V30 4487 H 449.337 -4.90724 0.893973 0
M  V30 4488 H 448.491 -5.94266 -1.22198 0
M  V30 4489 H 447.23 -4.68463 -1.35623 0
M  V30 4490 H 446.235 -5.4361 0.82269 0
M  V30 4491 H 447.46 -6.72531 0.942247 0
M  V30 4492 H 445.406 -6.43337 -1.2827 0
M  V30 4493 H 445.323 -7.55993 0.0317402 0
M  V30 4494 H 446.591 -7.71001 -1.14792 0
M  V30 4495 N 450.82 -0.546701 -1.47814 0
M  V30 4496 C 451.783 0.196287 -2.28358 0
M  V30 4497 C 452.783 0.852437 -1.36346 0
M  V30 4498 O 453.973 0.709913 -1.59078 0
M  V30 4499 C 451.105 1.28579 -3.15722 0
M  V30 4500 H 452.298 -0.511086 -2.95513 0
M  V30 4501 H 449.851 -0.303248 -1.5333 0
M  V30 4502 H 450.586 2.0259 -2.53235 0
M  V30 4503 H 450.371 0.820229 -3.83425 0
M  V30 4504 H 451.861 1.80793 -3.76435 0
M  V30 4505 N 452.299 1.55045 -0.282633 0
M  V30 4506 C 453.576 1.9179 0.384166 0
M  V30 4507 C 453.956 1.20778 1.73136 0
M  V30 4508 O 453.304 0.33719 2.25998 0
M  V30 4509 C 453.514 3.45149 0.517014 0
M  V30 4510 C 454.862 4.17064 0.796427 0
M  V30 4511 O 455.886 3.51084 0.601535 0
M  V30 4512 O 454.745 5.33837 1.16962 0
M  V30 4513 H 451.839 0.799483 0.211558 0
M  V30 4514 H 454.385 1.66474 -0.32934 0
M  V30 4515 H 453.157 3.88922 -0.430772 0
M  V30 4516 H 452.78 3.76443 1.2797 0
M  V30 4517 N 453.777 0.010035 1.57597 0
M  V30 4518 C 454.74 -0.963029 2.07986 0
M  V30 4519 C 455.74 -1.26619 0.991173 0
M  V30 4520 O 456.93 -1.2097 1.25347 0
M  V30 4521 C 454.062 -2.2851 2.52974 0
M  V30 4522 H 455.255 -0.526971 2.95234 0
M  V30 4523 H 452.808 -0.237639 1.54483 0
M  V30 4524 H 453.543 -2.76784 1.69 0
M  V30 4525 H 453.328 -2.07824 3.32493 0
M  V30 4526 H 454.818 -2.98294 2.9225 0
M  V30 4527 N 455.255 -1.55392 -0.262866 0
M  V30 4528 C 456.501 -1.76737 -0.99458 0
M  V30 4529 C 456.834 -0.572453 -1.85571 0
M  V30 4530 O 456.109 0.429732 -1.89693 0
M  V30 4531 C 456.392 -3.07824 -1.8686 0
M  V30 4532 C 456.245 -4.3769 -1.03672 0
M  V30 4533 C 457.564 -3.35021 -2.85393 0
M  V30 4534 H 454.683 -0.643005 -0.360157 0
M  V30 4535 H 457.325 -1.88126 -0.266216 0
M  V30 4536 H 455.475 -2.98245 -2.48962 0
M  V30 4537 H 457.147 -4.59238 -0.43563 0
M  V30 4538 H 455.39 -4.32461 -0.340513 0
M  V30 4539 H 456.061 -5.25759 -1.6817 0
M  V30 4540 H 458.537 -3.44458 -2.33426 0
M  V30 4541 H 457.413 -4.27989 -3.43681 0
M  V30 4542 H 457.674 -2.55153 -3.61039 0
M  V30 4543 N 456.733 0.527833 -1.48498 0
M  V30 4544 C 457.982 1.28003 -1.55878 0
M  V30 4545 C 458.295 1.9414 -0.238577 0
M  V30 4546 O 459.501 2.7083 -0.190643 0
M  V30 4547 C 457.957 2.32272 -2.74914 0
M  V30 4548 C 457.565 1.72196 -4.13585 0
M  V30 4549 C 459.309 3.08488 -2.91608 0
M  V30 4550 C 457.216 2.74417 -5.23879 0
M  V30 4551 H 456.146 0.481413 -0.580308 0
M  V30 4552 H 458.797 0.557195 -1.74836 0
M  V30 4553 H 457.179 3.07601 -2.49395 0
M  V30 4554 H 458.353 1.03041 -4.49132 0
M  V30 4555 H 456.668 1.08464 -4.02025 0
M  V30 4556 H 459.265 3.84879 -3.71177 0
M  V30 4557 H 459.608 3.64481 -2.01145 0
M  V30 4558 H 460.141 2.40274 -3.17038 0
M  V30 4559 H 456.88 2.23242 -6.16314 0
M  V30 4560 H 456.4 3.41893 -4.92818 0
M  V30 4561 H 458.079 3.37362 -5.52083 0
M  V30 4562 N 458.211 1.37122 0.776871 0
M  V30 4563 C 459.141 1.35164 1.90402 0
M  V30 4564 C 460.122 0.221069 1.68657 0
M  V30 4565 O 461.307 0.420642 1.8959 0
M  V30 4566 C 458.437 1.15274 3.27611 0
M  V30 4567 C 457.391 2.25289 3.63908 0
M  V30 4568 C 456.717 1.90527 4.99603 0
M  V30 4569 C 458.017 3.67446 3.71188 0
M  V30 4570 H 459.711 2.29482 1.92297 0
M  V30 4571 H 457.257 1.10465 0.923773 0
M  V30 4572 H 459.21 1.12536 4.06096 0
M  V30 4573 H 457.934 0.174102 3.26136 0
M  V30 4574 H 456.593 2.27174 2.87728 0
M  V30 4575 H 456.241 0.91206 4.94662 0
M  V30 4576 H 455.941 2.64193 5.24858 0
M  V30 4577 H 457.465 1.89367 5.80493 0
M  V30 4578 H 458.879 3.67719 4.39836 0
M  V30 4579 H 457.276 4.40123 4.07936 0
M  V30 4580 H 458.346 4.01443 2.71977 0
M  V30 4581 N 459.689 -1.00246 1.21608 0
M  V30 4582 C 460.652 -2.07233 0.979133 0
M  V30 4583 C 461.652 -1.6072 -0.0508219 0
M  V30 4584 O 462.842 -1.73196 0.186712 0
M  V30 4585 C 459.974 -3.37546 0.477016 0
M  V30 4586 H 461.167 -2.29687 1.92831 0
M  V30 4587 H 458.72 -1.17261 1.03342 0
M  V30 4588 H 459.455 -3.20773 -0.476966 0
M  V30 4589 H 459.24 -3.72638 1.21997 0
M  V30 4590 H 460.73 -4.16285 0.331181 0
M  V30 4591 N 461.167 -1.02423 -1.1978 0
M  V30 4592 C 462.395 -0.737456 -1.93311 0
M  V30 4593 C 462.81 0.703023 -1.75223 0
M  V30 4594 O 462.167 1.47761 -1.07112 0
M  V30 4595 C 462.218 -1.0733 -3.45199 0
M  V30 4596 O 461.939 -2.4572 -3.62702 0
M  V30 4597 C 463.44 -0.80866 -4.35862 0
M  V30 4598 H 460.66 -0.2702 -0.614193 0
M  V30 4599 H 463.204 -1.36747 -1.52054 0
M  V30 4600 H 461.359 -0.488545 -3.84307 0
M  V30 4601 H 461.773 -2.58081 -4.56612 0
M  V30 4602 H 463.247 -1.09365 -5.41057 0
M  V30 4603 H 463.724 0.257025 -4.38447 0
M  V30 4604 H 464.33 -1.37592 -4.02428 0
M  V30 4605 N 462.645 1.35699 -0.801477 0
M  V30 4606 C 463.893 1.9852 -0.37871 0
M  V30 4607 C 464.214 1.63907 1.05638 0
M  V30 4608 O 463.484 0.919013 1.73006 0
M  V30 4609 H 462.064 0.734322 -0.137042 0
M  V30 4610 H 464.726 1.65697 -1.02619 0
M  V30 4611 H 463.822 3.08382 -0.480284 0
M  V30 4612 N 464.123 0.554532 1.47522 0
M  V30 4613 C 465.371 0.0294208 2.02079 0
M  V30 4614 C 465.692 -1.32411 1.43151 0
M  V30 4615 O 464.962 -1.863 0.605728 0
M  V30 4616 H 463.542 0.00788672 0.746958 0
M  V30 4617 H 466.204 0.723934 1.80956 0
M  V30 4618 H 465.3 -0.0606745 3.12041 0
M  V30 4619 N 465.601 -1.54893 0.290851 0
M  V30 4620 C 466.848 -1.99933 -0.321391 0
M  V30 4621 C 467.176 -1.17927 -1.54672 0
M  V30 4622 O 466.431 -0.240902 -1.94212 0
M  V30 4623 C 466.73 -3.49815 -0.732397 0
M  V30 4624 C 466.396 -4.4921 0.390056 0
M  V30 4625 C 465.058 -4.76107 0.698223 0
M  V30 4626 C 467.41 -5.08453 1.14562 0
M  V30 4627 C 464.738 -5.59514 1.76526 0
M  V30 4628 C 467.09 -5.9302 2.2025 0
M  V30 4629 C 465.754 -6.18232 2.51684 0
M  V30 4630 H 465.024 -0.731608 -0.117605 0
M  V30 4631 H 467.671 -1.87107 0.407839 0
M  V30 4632 H 465.976 -3.60199 -1.54155 0
M  V30 4633 H 467.673 -3.82083 -1.21712 0
M  V30 4634 H 464.263 -4.28372 0.13976 0
M  V30 4635 H 468.447 -4.87683 0.920801 0
M  V30 4636 H 463.703 -5.77289 2.01364 0
M  V30 4637 H 467.877 -6.37955 2.7926 0
M  V30 4638 H 465.504 -6.82653 3.34499 0
M  V30 4639 N 467.08 -0.0183926 -1.57589 0
M  V30 4640 C 468.043 0.951986 -2.08494 0
M  V30 4641 C 469.043 1.26092 -0.997874 0
M  V30 4642 O 470.233 1.20304 -1.25987 0
M  V30 4643 C 467.365 2.27165 -2.54182 0
M  V30 4644 H 468.558 0.511307 -2.95509 0
M  V30 4645 H 466.111 0.229444 -1.54607 0
M  V30 4646 H 466.846 2.75884 -1.70465 0
M  V30 4647 H 466.631 2.06057 -3.33591 0
M  V30 4648 H 468.121 2.9674 -2.93828 0
M  V30 4649 N 468.558 1.5553 0.254621 0
M  V30 4650 C 469.505 1.89666 1.31512 0
M  V30 4651 C 470.475 0.750057 1.482 0
M  V30 4652 O 471.66 1.00301 1.62309 0
M  V30 4653 C 468.8 2.19009 2.667 0
M  V30 4654 C 467.913 3.46435 2.58083 0
M  V30 4655 C 467.048 3.65386 3.85573 0
M  V30 4656 C 466.087 4.8644 3.71541 0
M  V30 4657 N 465.224 5.01952 4.90906 0
M  V30 4658 H 470.064 2.80109 1.017 0
M  V30 4659 H 467.601 1.38666 0.490938 0
M  V30 4660 H 469.559 2.34025 3.45381 0
M  V30 4661 H 468.189 1.31779 2.94676 0
M  V30 4662 H 467.241 3.39792 1.71013 0
M  V30 4663 H 468.553 4.35258 2.43622 0
M  V30 4664 H 467.707 3.80319 4.72697 0
M  V30 4665 H 466.446 2.74781 4.02922 0
M  V30 4666 H 465.451 4.71491 2.82801 0
M  V30 4667 H 466.676 5.78497 3.55694 0
M  V30 4668 H 464.622 4.14283 5.08631 0
M  V30 4669 H 464.539 5.84851 4.79046 0
M  V30 4670 H 465.807 5.21289 5.7955 0
M  V30 4671 N 470.036 -0.519951 1.48776 0
M  V30 4672 C 470.984 -1.64443 1.64503 0
M  V30 4673 C 471.978 -1.61501 0.511248 0
M  V30 4674 O 473.184 -1.66238 0.690294 0
M  V30 4675 H 469.559 -0.544776 0.518385 0
M  V30 4676 H 471.53 -1.48325 2.58925 0
M  V30 4677 C 470.279 -3.02673 1.71127 0
M  V30 4678 H 469.602 -3.05635 2.57735 0
M  V30 4679 H 471.042 -3.80941 1.86172 0
M  V30 4680 C 469.501 -3.33854 0.452032 0
M  V30 4681 O 470.031 -3.99385 -0.430678 0
M  V30 4682 N 468.237 -2.88825 0.32069 0
M  V30 4683 H 467.784 -2.35674 1.03998 0
M  V30 4684 H 467.742 -3.10056 -0.520814 0
M  V30 4685 N 471.514 -1.37532 -0.769588 0
M  V30 4686 C 472.462 -1.33561 -1.90432 0
M  V30 4687 C 473.456 -0.224027 -1.67912 0
M  V30 4688 O 474.662 -0.392174 -1.75676 0
M  V30 4689 H 471.037 -0.416279 -0.626271 0
M  V30 4690 H 473.008 -2.29348 -1.90899 0
M  V30 4691 C 471.757 -1.16162 -3.27722 0
M  V30 4692 H 471.08 -2.00951 -3.45628 0
M  V30 4693 H 472.52 -1.17434 -4.07413 0
M  V30 4694 C 470.979 0.132583 -3.36639 0
M  V30 4695 O 471.509 1.11539 -3.85904 0
M  V30 4696 N 469.715 0.184013 -2.90017 0
M  V30 4697 H 469.262 -0.616415 -2.50116 0
M  V30 4698 H 469.22 1.04956 -2.96364 0
M  V30 4699 N 472.992 0.995999 -1.22138 0
M  V30 4700 C 473.902 2.11985 -1.00496 0
M  V30 4701 C 474.918 1.7394 0.0457701 0
M  V30 4702 O 476.094 2.00868 -0.146273 0
M  V30 4703 C 473.159 3.41779 -0.582086 0
M  V30 4704 C 472.22 3.93943 -1.70608 0
M  V30 4705 C 471.453 5.17542 -1.30328 0
M  V30 4706 O 471.676 5.70114 -0.180743 0
M  V30 4707 O 470.61 5.63382 -2.11861 0
M  V30 4708 H 474.436 2.33123 -1.94647 0
M  V30 4709 H 472.021 1.10358 -1.00705 0
M  V30 4710 H 473.903 4.1989 -0.356467 0
M  V30 4711 H 472.578 3.22007 0.330592 0
M  V30 4712 H 471.485 3.17019 -1.98619 0
M  V30 4713 H 472.818 4.18141 -2.59651 0
M  V30 4714 N 474.47 1.03057 1.19235 0
M  V30 4715 C 475.886 0.747947 1.40989 0
M  V30 4716 C 476.086 -0.666752 1.90149 0
M  V30 4717 O 475.142 -1.43249 2.07933 0
M  V30 4718 C 476.455 1.7855 2.41951 0
M  V30 4719 C 478.003 1.80524 2.55695 0
M  V30 4720 C 478.478 2.83243 3.59913 0
M  V30 4721 N 479.969 2.8207 3.67411 0
M  V30 4722 C 480.704 3.58204 4.47747 0
M  V30 4723 N 480.2 4.44057 5.31775 0
M  V30 4724 N 481.993 3.46738 4.42413 0
M  V30 4725 H 474.144 1.94367 0.856468 0
M  V30 4726 H 476.407 0.840412 0.438647 0
M  V30 4727 H 476.113 2.79973 2.12857 0
M  V30 4728 H 475.987 1.6092 3.41152 0
M  V30 4729 H 478.374 0.79778 2.84112 0
M  V30 4730 H 478.455 2.02229 1.56643 0
M  V30 4731 H 478.099 3.84161 3.32239 0
M  V30 4732 H 478.029 2.58795 4.5862 0
M  V30 4733 H 480.52 2.19803 3.074 0
M  V30 4734 H 480.833 4.98884 5.90199 0
M  V30 4735 H 479.178 4.48129 5.3123 0
M  V30 4736 H 482.369 2.79077 3.75811 0
M  V30 4737 H 482.542 4.06322 5.04783 0
M  V30 4738 N 475.948 -1.35272 0.808662 0
M  V30 4739 C 477.194 -1.99003 0.390581 0
M  V30 4740 C 477.527 -1.63999 -1.0401 0
M  V30 4741 O 476.802 -0.904368 -1.72196 0
M  V30 4742 C 477.085 -3.55454 0.576566 0
M  V30 4743 C 476.938 -4.00249 2.05233 0
M  V30 4744 C 478.257 -4.401 0.00354277 0
M  V30 4745 H 475.376 -0.722917 0.143388 0
M  V30 4746 H 478.018 -1.6039 1.01858 0
M  V30 4747 H 476.168 -3.88477 0.0419766 0
M  V30 4748 H 477.84 -3.77626 2.64946 0
M  V30 4749 H 476.083 -3.51082 2.54801 0
M  V30 4750 H 476.754 -5.0911 2.13333 0
M  V30 4751 H 479.23 -4.13548 0.460117 0
M  V30 4752 H 478.106 -5.48656 0.163575 0
M  V30 4753 H 478.367 -4.28444 -1.09032 0
M  V30 4754 N 477.426 -0.562348 -1.47226 0
M  V30 4755 C 478.389 0.172056 -2.28553 0
M  V30 4756 C 479.389 0.837928 -1.37242 0
M  V30 4757 O 480.579 0.693001 -1.59822 0
M  V30 4758 C 477.711 1.25223 -3.17068 0
M  V30 4759 H 478.904 -0.542401 -2.94954 0
M  V30 4760 H 476.457 -0.319493 -1.53 0
M  V30 4761 H 477.192 1.99892 -2.55369 0
M  V30 4762 H 476.977 0.779515 -3.84273 0
M  V30 4763 H 478.467 1.76791 -3.78332 0
M  V30 4764 N 478.904 1.54736 -0.299062 0
M  V30 4765 C 479.851 2.23448 0.577899 0
M  V30 4766 C 480.821 1.21637 1.13109 0
M  V30 4767 O 482.006 1.50252 1.17597 0
M  V30 4768 C 479.146 2.9774 1.74484 0
M  V30 4769 C 478.259 4.1432 1.22323 0
M  V30 4770 C 477.394 4.76199 2.35388 0
M  V30 4771 C 476.433 5.84927 1.80351 0
M  V30 4772 N 475.57 6.4077 2.86982 0
M  V30 4773 H 480.41 2.97996 -0.0146545 0
M  V30 4774 H 477.947 1.47088 -0.0190013 0
M  V30 4775 H 479.905 3.39045 2.43114 0
M  V30 4776 H 478.535 2.25572 2.30905 0
M  V30 4777 H 477.587 3.7797 0.429249 0
M  V30 4778 H 478.899 4.92659 0.780309 0
M  V30 4779 H 478.053 5.20346 3.11969 0
M  V30 4780 H 476.792 3.97188 2.83006 0
M  V30 4781 H 475.797 5.40207 1.02259 0
M  V30 4782 H 477.022 6.65821 1.3364 0
M  V30 4783 H 474.968 5.64643 3.33938 0
M  V30 4784 H 474.885 7.1445 2.4718 0
M  V30 4785 H 476.153 6.89574 3.63466 0
M  V30 4786 N 480.382 0.0267497 1.57577 0
M  V30 4787 C 481.312 -0.954308 2.13108 0
M  V30 4788 C 482.293 -1.34088 1.04663 0
M  V30 4789 O 483.478 -1.41992 1.32484 0
M  V30 4790 C 480.608 -2.23744 2.65624 0
M  V30 4791 C 479.562 -1.99168 3.78835 0
M  V30 4792 C 478.888 -3.33726 4.17769 0
M  V30 4793 C 480.188 -1.33277 5.0501 0
M  V30 4794 H 481.882 -0.491848 2.95332 0
M  V30 4795 H 479.428 -0.23514 1.42067 0
M  V30 4796 H 481.381 -2.92754 3.03106 0
M  V30 4797 H 480.105 -2.72151 1.80558 0
M  V30 4798 H 478.764 -1.32577 3.41788 0
M  V30 4799 H 478.412 -3.79888 3.29688 0
M  V30 4800 H 478.112 -3.18089 4.94058 0
M  V30 4801 H 479.636 -4.04008 4.57832 0
M  V30 4802 H 481.05 -1.92283 5.40093 0
M  V30 4803 H 479.447 -1.28045 5.8628 0
M  V30 4804 H 480.517 -0.305411 4.83937 0
M  V30 4805 N 481.861 -1.55662 -0.24637 0
M  V30 4806 C 483.138 -1.68272 -0.997198 0
M  V30 4807 C 483.518 -0.566785 -2.03349 0
M  V30 4808 O 482.866 0.429688 -2.24424 0
M  V30 4809 C 483.076 -3.08594 -1.63006 0
M  V30 4810 C 484.424 -3.6721 -2.13171 0
M  V30 4811 O 485.448 -3.11397 -1.72946 0
M  V30 4812 O 484.307 -4.65054 -2.87031 0
M  V30 4813 H 481.401 -0.684429 -0.464205 0
M  V30 4814 H 483.947 -1.67993 -0.240114 0
M  V30 4815 H 482.719 -3.81264 -0.880527 0
M  V30 4816 H 482.342 -3.12886 -2.45333 0
M  V30 4817 N 483.339 0.512053 -1.4905 0
M  V30 4818 C 484.75 1.09376 -1.51307 0
M  V30 4819 C 485.101 1.94 -0.292971 0
M  V30 4820 O 484.226 2.07965 0.598277 0
M  V30 4821 C 484.821 1.99031 -2.74176 0
M  V30 4822 C 483.38 2.52385 -2.79247 0
M  V30 4823 C 482.527 1.29749 -2.45073 0
M  V30 4824 H 485.478 0.296467 -1.55906 0
M  V30 4825 H 485.499 2.83569 -2.53711 0
M  V30 4826 H 485.011 1.37412 -3.62959 0
M  V30 4827 H 483.112 3.17673 -1.94716 0
M  V30 4828 H 483.225 2.90293 -3.81139 0
M  V30 4829 H 481.589 1.61912 -1.96612 0
M  V30 4830 H 482.372 0.698555 -3.36118 0
M  V30 4831 N 484.817 1.37938 0.762283 0
M  V30 4832 C 486.042 1.37059 1.55659 0
M  V30 4833 C 486.467 -0.0396123 1.88058 0
M  V30 4834 O 485.825 -1.01929 1.49934 0
M  V30 4835 C 485.873 2.22494 2.83776 0
M  V30 4836 O 484.977 1.63607 3.78559 0
M  V30 4837 H 484.318 0.467892 0.47114 0
M  V30 4838 H 486.848 1.81587 0.942725 0
M  V30 4839 H 486.858 2.36045 3.32786 0
M  V30 4840 H 485.533 3.24993 2.59524 0
M  V30 4841 H 484.11 1.5915 3.37233 0
M  V30 4842 N 486.295 -0.989507 1.22664 0
M  V30 4843 C 487.225 -2.09847 1.02404 0
M  V30 4844 C 488.206 -1.70007 -0.0561303 0
M  V30 4845 O 489.391 -1.93906 0.106748 0
M  V30 4846 C 486.521 -3.41996 0.604663 0
M  V30 4847 C 485.475 -3.95699 1.63115 0
M  V30 4848 C 484.801 -5.23936 1.0675 0
M  V30 4849 C 486.101 -4.25999 3.02196 0
M  V30 4850 H 487.795 -2.27054 1.95158 0
M  V30 4851 H 485.341 -1.09111 0.939727 0
M  V30 4852 H 487.294 -4.1899 0.45002 0
M  V30 4853 H 486.018 -3.24626 -0.35855 0
M  V30 4854 H 484.677 -3.2084 1.77362 0
M  V30 4855 H 484.325 -5.02909 0.0955422 0
M  V30 4856 H 484.025 -5.60833 1.75328 0
M  V30 4857 H 485.549 -6.0356 0.924516 0
M  V30 4858 H 486.963 -4.93777 2.91303 0
M  V30 4859 H 485.36 -4.74076 3.67929 0
M  V30 4860 H 486.43 -3.33636 3.51873 0
M  V30 4861 N 487.773 -1.03688 -1.18687 0
M  V30 4862 C 488.72 -0.624624 -2.22187 0
M  V30 4863 C 489.69 0.365636 -1.62026 0
M  V30 4864 O 490.875 0.260481 -1.89014 0
M  V30 4865 C 488.015 0.0101738 -3.45099 0
M  V30 4866 C 487.128 -1.02709 -4.19613 0
M  V30 4867 C 486.263 -0.361213 -5.2997 0
M  V30 4868 C 485.302 -1.38384 -5.96252 0
M  V30 4869 N 484.439 -0.743196 -6.98155 0
M  V30 4870 H 489.279 -1.51176 -2.56807 0
M  V30 4871 H 486.816 -0.75636 -1.26165 0
M  V30 4872 H 488.774 0.395528 -4.15321 0
M  V30 4873 H 487.404 0.860848 -3.1111 0
M  V30 4874 H 486.456 -1.53043 -3.48256 0
M  V30 4875 H 487.768 -1.80398 -4.65036 0
M  V30 4876 H 486.922 0.0785537 -6.06649 0
M  V30 4877 H 485.661 0.447799 -4.8564 0
M  V30 4878 H 484.666 -1.83378 -5.18317 0
M  V30 4879 H 485.891 -2.19448 -6.42666 0
M  V30 4880 H 483.837 0.0455789 -6.55984 0
M  V30 4881 H 483.754 -1.45784 -7.41811 0
M  V30 4882 H 485.022 -0.327698 -7.78811 0
M  V30 4883 N 489.251 1.34841 -0.815825 0
M  V30 4884 C 490.499 1.98107 -0.399744 0
M  V30 4885 C 490.82 1.65019 1.03894 0
M  V30 4886 O 490.09 0.937311 1.72021 0
M  V30 4887 H 488.67 0.732827 -0.144823 0
M  V30 4888 H 491.332 1.64599 -1.0437 0
M  V30 4889 H 490.428 3.07856 -0.512965 0
M  V30 4890 N 490.729 0.570148 1.46925 0
M  V30 4891 C 491.976 0.0509529 2.02436 0
M  V30 4892 C 492.304 -1.30405 1.44308 0
M  V30 4893 O 491.559 -1.86493 0.593198 0
M  V30 4894 C 491.858 -0.0780336 3.57315 0
M  V30 4895 C 491.524 1.20775 4.34424 0
M  V30 4896 C 490.186 1.56004 4.5521 0
M  V30 4897 C 492.538 2.0592 4.78797 0
M  V30 4898 C 489.866 2.76201 5.17619 0
M  V30 4899 C 492.218 3.25332 5.42533 0
M  V30 4900 C 490.882 3.60859 5.61549 0
M  V30 4901 H 490.152 0.018645 0.740765 0
M  V30 4902 H 492.799 0.744262 1.76445 0
M  V30 4903 H 491.104 -0.854394 3.82371 0
M  V30 4904 H 492.801 -0.495312 3.97929 0
M  V30 4905 H 489.391 0.923469 4.18533 0
M  V30 4906 H 493.575 1.80008 4.62505 0
M  V30 4907 H 488.831 3.0388 5.30535 0
M  V30 4908 H 493.005 3.91586 5.75876 0
M  V30 4909 H 490.632 4.54088 6.09678 0
M  V30 4910 N 492.207 -1.54576 0.307264 0
M  V30 4911 C 493.456 -1.99442 -0.300976 0
M  V30 4912 C 493.769 -1.19928 -1.5452 0
M  V30 4913 O 494.975 -1.55092 -2.22842 0
M  V30 4914 C 493.431 -3.55084 -0.586809 0
M  V30 4915 C 493.039 -4.43413 0.639438 0
M  V30 4916 C 494.783 -4.0846 -1.1559 0
M  V30 4917 C 492.69 -5.90499 0.326411 0
M  V30 4918 H 491.62 -0.744986 -0.116238 0
M  V30 4919 H 494.271 -1.787 0.416947 0
M  V30 4920 H 492.653 -3.71749 -1.36449 0
M  V30 4921 H 493.827 -4.38522 1.41545 0
M  V30 4922 H 492.142 -4.00842 1.1276 0
M  V30 4923 H 494.739 -5.15926 -1.40445 0
M  V30 4924 H 495.082 -3.59443 -2.10015 0
M  V30 4925 H 495.615 -3.95362 -0.439778 0
M  V30 4926 H 492.354 -6.43676 1.23939 0
M  V30 4927 H 491.874 -5.98382 -0.412212 0
M  V30 4928 H 493.553 -6.46962 -0.0697393 0
M  V30 4929 N 493.685 -0.035106 -1.57561 0
M  V30 4930 C 494.91 0.655802 -1.96759 0
M  V30 4931 C 495.335 1.64523 -0.911809 0
M  V30 4932 O 494.693 1.80857 0.126673 0
M  V30 4933 C 494.741 1.33326 -3.35047 0
M  V30 4934 O 493.845 2.44866 -3.31835 0
M  V30 4935 H 493.186 0.171807 -0.641388 0
M  V30 4936 H 495.716 -0.0987369 -2.04362 0
M  V30 4937 H 495.726 1.68867 -3.71413 0
M  V30 4938 H 494.401 0.608033 -4.11431 0
M  V30 4939 H 492.978 2.11392 -3.07193 0
M  V30 4940 N 495.163 1.55791 0.238111 0
M  V30 4941 C 496.391 1.82098 0.982233 0
M  V30 4942 C 496.806 0.612025 1.78605 0
M  V30 4943 O 496.163 -0.419381 1.77616 0
M  V30 4944 C 496.214 3.0673 1.91309 0
M  V30 4945 O 495.935 4.2296 1.14179 0
M  V30 4946 C 497.436 3.45903 2.77248 0
M  V30 4947 H 494.656 0.605748 0.288635 0
M  V30 4948 H 497.2 2.02862 0.258341 0
M  V30 4949 H 495.355 2.87991 2.59114 0
M  V30 4950 H 495.769 4.93653 1.7722 0
M  V30 4951 H 497.243 4.36189 3.38295 0
M  V30 4952 H 497.72 2.66891 3.48806 0
M  V30 4953 H 498.326 3.67024 2.14881 0
M  V30 4954 N 496.642 -0.504142 1.49319 0
M  V30 4955 C 497.59 -1.62689 1.66238 0
M  V30 4956 C 498.584 -1.6095 0.528349 0
M  V30 4957 O 499.79 -1.65496 0.707887 0
M  V30 4958 H 496.165 -0.539247 0.524134 0
M  V30 4959 H 498.136 -1.45571 2.60484 0
M  V30 4960 C 496.885 -3.00841 1.74328 0
M  V30 4961 H 496.208 -3.02884 2.60963 0
M  V30 4962 H 497.648 -3.78945 1.90202 0
M  V30 4963 C 496.107 -3.33355 0.487416 0
M  V30 4964 O 496.637 -3.99819 -0.388294 0
M  V30 4965 N 494.843 -2.88469 0.351306 0
M  V30 4966 H 494.39 -2.34557 1.06492 0
M  V30 4967 H 494.348 -3.10591 -0.487899 0
M  V30 4968 N 498.12 -1.38341 -0.754957 0
M  V30 4969 C 499.052 -1.31347 -1.87831 0
M  V30 4970 C 500.065 -0.225955 -1.61224 0
M  V30 4971 O 501.254 -0.48341 -1.7183 0
M  V30 4972 C 498.354 -1.01201 -3.23437 0
M  V30 4973 C 497.527 -2.20834 -3.77559 0
M  V30 4974 C 496.586 -1.87454 -4.91678 0
M  V30 4975 O 495.612 -2.59934 -5.06382 0
M  V30 4976 N 496.814 -0.828682 -5.74555 0
M  V30 4977 H 499.579 -2.28147 -1.94342 0
M  V30 4978 H 497.14 -1.32184 -0.934828 0
M  V30 4979 H 499.132 -0.769249 -3.97322 0
M  V30 4980 H 497.702 -0.132011 -3.12321 0
M  V30 4981 H 496.922 -2.61184 -2.95256 0
M  V30 4982 H 498.21 -3.00678 -4.10451 0
M  V30 4983 H 497.608 -0.227591 -5.65242 0
M  V30 4984 H 496.165 -0.645802 -6.48593 0
M  V30 4985 N 499.598 0.982988 -1.23187 0
M  V30 4986 C 501.009 1.53847 -1.05773 0
M  V30 4987 C 501.36 1.92568 0.375744 0
M  V30 4988 O 500.485 1.75783 1.26211 0
M  V30 4989 C 501.08 2.79567 -1.91384 0
M  V30 4990 C 499.639 3.31524 -1.78238 0
M  V30 4991 C 498.786 2.04534 -1.87246 0
M  V30 4992 H 501.737 0.802962 -1.36888 0
M  V30 4993 H 501.758 3.52317 -1.43711 0
M  V30 4994 H 501.27 2.51353 -2.95708 0
M  V30 4995 H 499.371 3.64623 -0.766875 0
M  V30 4996 H 499.484 4.01457 -2.61475 0
M  V30 4997 H 497.848 2.1855 -1.30797 0
M  V30 4998 H 498.631 1.78706 -2.9312 0
M  V30 4999 N 501.076 1.04316 1.18135 0
M  V30 5000 C 502.324 0.746542 1.87806 0
M  V30 5001 C 502.645 -0.728082 1.80898 0
M  V30 5002 O 501.915 -1.52554 1.22899 0
M  V30 5003 H 500.495 0.273157 0.695265 0
M  V30 5004 H 503.157 1.32044 1.43354 0
M  V30 5005 H 502.253 1.05362 2.93778 0
M  V30 5006 N 502.554 -1.34406 0.822964 0
M  V30 5007 C 503.517 -2.2783 0.250271 0
M  V30 5008 C 504.517 -1.50288 -0.571854 0
M  V30 5009 O 505.707 -1.69825 -0.387952 0
M  V30 5010 C 502.839 -3.34663 -0.649137 0
M  V30 5011 H 504.032 -2.79992 1.07444 0
M  V30 5012 H 501.585 -1.44539 0.594829 0
M  V30 5013 H 502.32 -2.87714 -1.49637 0
M  V30 5014 H 502.105 -3.92052 -0.0611199 0
M  V30 5015 H 503.595 -4.04349 -1.04363 0
M  V30 5016 N 504.032 -0.577932 -1.46621 0
M  V30 5017 C 505.278 -0.0617793 -2.02706 0
M  V30 5018 C 505.611 1.29294 -1.44903 0
M  V30 5019 O 504.886 1.8461 -0.61232 0
M  V30 5020 C 505.169 0.00911824 -3.60099 0
M  V30 5021 C 505.022 -1.37416 -4.28295 0
M  V30 5022 C 506.341 0.712159 -4.343 0
M  V30 5023 H 503.46 -0.0239246 -0.736612 0
M  V30 5024 H 506.102 -0.744211 -1.74818 0
M  V30 5025 H 504.252 0.590292 -3.83989 0
M  V30 5026 H 505.924 -2.00013 -4.15683 0
M  V30 5027 H 504.167 -1.94319 -3.87843 0
M  V30 5028 H 504.838 -1.27707 -5.37024 0
M  V30 5029 H 507.314 0.218486 -4.15526 0
M  V30 5030 H 506.19 0.730782 -5.44014 0
M  V30 5031 H 506.451 1.77251 -4.05012 0
M  V30 5032 N 505.51 1.54411 -0.315457 0
M  V30 5033 C 506.758 2.00023 0.288971 0
M  V30 5034 C 507.079 1.20529 1.5329 0
M  V30 5035 O 506.349 0.304986 1.93511 0
M  V30 5036 H 504.929 0.738891 0.109766 0
M  V30 5037 H 507.591 1.90094 -0.430129 0
M  V30 5038 H 506.687 3.07198 0.550999 0
M  V30 5039 N 506.988 0.0434614 1.5754 0
M  V30 5040 C 508.265 -0.671479 1.83713 0
M  V30 5041 C 508.645 -1.89495 0.930315 0
M  V30 5042 O 507.993 -2.28498 -0.0105639 0
M  V30 5043 C 508.203 -1.0361 3.33266 0
M  V30 5044 C 509.551 -1.42167 4.00092 0
M  V30 5045 O 510.575 -1.12866 3.37846 0
M  V30 5046 O 509.434 -1.96817 5.09829 0
M  V30 5047 H 506.528 -0.330726 0.75799 0
M  V30 5048 H 509.074 0.0722373 1.69546 0
M  V30 5049 H 507.846 -0.165938 3.90948 0
M  V30 5050 H 507.469 -1.83751 3.52592 0
M  V30 5051 N 508.466 -1.55915 -0.229846 0
M  V30 5052 C 509.714 -1.7819 -0.953565 0
M  V30 5053 C 510.035 -0.610504 -1.85197 0
M  V30 5054 O 509.305 0.372988 -1.92316 0
M  V30 5055 H 507.885 -0.657208 -0.355087 0
M  V30 5056 H 510.547 -1.9337 -0.243693 0
M  V30 5057 H 509.643 -2.70011 -1.56527 0
M  V30 5058 N 509.944 0.496216 -1.49584 0
M  V30 5059 C 510.874 1.60576 -1.69521 0
M  V30 5060 C 511.855 1.61169 -0.543933 0
M  V30 5061 O 513.04 1.77834 -0.78031 0
M  V30 5062 C 510.17 2.99038 -1.76616 0
M  V30 5063 C 509.124 3.13312 -2.91581 0
M  V30 5064 C 508.45 4.53172 -2.83794 0
M  V30 5065 C 509.75 2.92886 -4.32452 0
M  V30 5066 H 511.444 1.44146 -2.62416 0
M  V30 5067 H 508.99 0.692024 -1.26282 0
M  V30 5068 H 510.943 3.76564 -1.8915 0
M  V30 5069 H 509.667 3.16568 -0.80324 0
M  V30 5070 H 508.326 2.38213 -2.78658 0
M  V30 5071 H 507.974 4.67585 -1.854 0
M  V30 5072 H 507.674 4.63662 -3.60958 0
M  V30 5073 H 509.198 5.32752 -2.98342 0
M  V30 5074 H 510.612 3.60178 -4.46032 0
M  V30 5075 H 509.009 3.14844 -5.10875 0
M  V30 5076 H 510.079 1.88966 -4.46565 0
M  V30 5077 N 511.423 1.38739 0.74761 0
M  V30 5078 C 512.7 1.25791 1.49786 0
M  V30 5079 C 513.08 -0.138075 2.10648 0
M  V30 5080 O 512.428 -1.14815 1.9756 0
M  V30 5081 C 512.638 2.37265 2.55942 0
M  V30 5082 C 513.986 2.75978 3.22679 0
M  V30 5083 O 515.01 2.36621 2.6625 0
M  V30 5084 O 513.869 3.43867 4.24756 0
M  V30 5085 H 510.963 0.492251 0.664543 0
M  V30 5086 H 513.509 1.50582 0.782511 0
M  V30 5087 H 512.281 3.30644 2.0926 0
M  V30 5088 H 511.904 2.14071 3.35051 0
M  V30 5089 N 512.901 -0.976442 1.23707 0
M  V30 5090 C 514.147 -1.72081 1.07312 0
M  V30 5091 C 514.48 -1.90275 -0.388476 0
M  V30 5092 O 513.755 -1.4579 -1.28746 0
M  V30 5093 C 514.038 -3.11675 1.80363 0
M  V30 5094 C 513.891 -3.01027 3.3422 0
M  V30 5095 C 515.21 -4.1117 1.5693 0
M  V30 5096 H 512.329 -0.624583 0.391236 0
M  V30 5097 H 514.971 -1.13649 1.52263 0
M  V30 5098 H 513.121 -3.61559 1.42153 0
M  V30 5099 H 514.793 -2.58637 3.81975 0
M  V30 5100 H 513.036 -2.3744 3.63049 0
M  V30 5101 H 513.707 -3.9988 3.80525 0
M  V30 5102 H 516.183 -3.7011 1.90151 0
M  V30 5103 H 515.059 -5.06928 2.10513 0
M  V30 5104 H 515.32 -4.392 0.505548 0
M  V30 5105 N 514.379 -1.04941 -1.1758 0
M  V30 5106 C 515.342 -0.652456 -2.19717 0
M  V30 5107 C 516.342 0.294745 -1.58076 0
M  V30 5108 O 517.532 0.0789579 -1.74021 0
M  V30 5109 C 514.664 0.0420712 -3.40874 0
M  V30 5110 H 515.857 -1.55642 -2.5635 0
M  V30 5111 H 513.41 -0.842995 -1.31618 0
M  V30 5112 H 514.145 0.95943 -3.09783 0
M  V30 5113 H 513.93 -0.638844 -3.86861 0
M  V30 5114 H 515.42 0.306 -4.16477 0
M  V30 5115 N 515.857 1.33968 -0.830081 0
M  V30 5116 C 516.767 2.33164 -0.259207 0
M  V30 5117 C 517.783 1.62951 0.610164 0
M  V30 5118 O 518.959 1.94668 0.516369 0
M  V30 5119 C 516.024 3.42088 0.563598 0
M  V30 5120 C 515.085 4.28037 -0.329014 0
M  V30 5121 C 514.318 5.3176 0.454616 0
M  V30 5122 O 514.541 5.44876 1.6872 0
M  V30 5123 O 513.475 6.01669 -0.166794 0
M  V30 5124 H 517.301 2.83832 -1.08041 0
M  V30 5125 H 514.886 1.37154 -0.59239 0
M  V30 5126 H 516.768 4.08581 1.03147 0
M  V30 5127 H 515.443 2.93651 1.36201 0
M  V30 5128 H 514.35 3.64443 -0.844538 0
M  V30 5129 H 515.683 4.79934 -1.09196 0
M  V30 5130 N 517.335 0.585699 1.46312 0
M  V30 5131 C 518.283 -0.158577 2.32059 0
M  V30 5132 C 519.277 -0.881427 1.44662 0
M  V30 5133 O 520.483 -0.799476 1.61271 0
M  V30 5134 H 516.858 -0.0700066 0.748734 0
M  V30 5135 H 518.829 0.583383 2.92642 0
M  V30 5136 C 517.578 -1.15701 3.27885 0
M  V30 5137 H 516.901 -0.610215 3.95116 0
M  V30 5138 H 518.341 -1.64812 3.90657 0
M  V30 5139 C 516.8 -2.21951 2.53455 0
M  V30 5140 O 517.33 -3.29352 2.29978 0
M  V30 5141 N 515.536 -1.9664 2.13965 0
M  V30 5142 H 515.083 -1.09309 2.33258 0
M  V30 5143 H 515.041 -2.6794 1.64485 0
M  V30 5144 N 518.813 -1.54241 0.323641 0
M  V30 5145 C 519.776 -2.22997 -0.529602 0
M  V30 5146 C 520.776 -1.22345 -1.04347 0
M  V30 5147 O 521.966 -1.46924 -0.935889 0
M  V30 5148 C 519.098 -2.93409 -1.73562 0
M  V30 5149 H 520.291 -2.99815 0.0714518 0
M  V30 5150 H 517.844 -1.56121 0.0747258 0
M  V30 5151 H 518.579 -2.20729 -2.37591 0
M  V30 5152 H 518.364 -3.67217 -1.37456 0
M  V30 5153 H 519.854 -3.45794 -2.34128 0
M  V30 5154 N 520.291 -0.0518155 -1.57515 0
M  V30 5155 C 521.539 0.620595 -1.92336 0
M  V30 5156 C 521.86 1.71345 -0.930907 0
M  V30 5157 O 521.13 1.95885 0.0241341 0
M  V30 5158 H 519.71 0.232226 -0.709986 0
M  V30 5159 H 522.372 -0.104969 -1.94617 0
M  V30 5160 H 521.468 1.05879 -2.93592 0
M  V30 5161 N 521.769 1.56035 0.221574 0
M  V30 5162 C 523.017 1.78693 0.944102 0
M  V30 5163 C 523.338 0.620317 1.8487 0
M  V30 5164 O 522.608 -0.362784 1.92512 0
M  V30 5165 H 521.188 0.659082 0.351597 0
M  V30 5166 H 523.85 1.93497 0.233435 0
M  V30 5167 H 522.946 2.70837 1.55093 0
M  V30 5168 N 523.247 -0.488276 1.49845 0
M  V30 5169 C 524.21 -1.57069 1.66919 0
M  V30 5170 C 525.21 -1.51445 0.540479 0
M  V30 5171 O 526.4 -1.5437 0.807188 0
M  V30 5172 C 523.532 -2.96718 1.67844 0
M  V30 5173 H 524.725 -1.43254 2.63474 0
M  V30 5174 H 522.278 -0.713435 1.39068 0
M  V30 5175 H 523.013 -3.15996 0.7292 0
M  V30 5176 H 522.798 -3.02208 2.49826 0
M  V30 5177 H 524.288 -3.75335 1.83066 0
M  V30 5178 N 524.725 -1.39134 -0.740242 0
M  V30 5179 C 525.655 -1.40165 -1.86751 0
M  V30 5180 C 526.636 -0.265708 -1.68012 0
M  V30 5181 O 527.821 -0.47076 -1.88408 0
M  V30 5182 C 524.951 -1.2392 -3.2444 0
M  V30 5183 C 523.905 -2.34858 -3.57807 0
M  V30 5184 C 523.231 -2.03707 -4.94376 0
M  V30 5185 C 524.531 -3.77159 -3.61315 0
M  V30 5186 H 526.225 -2.345 -1.86145 0
M  V30 5187 H 523.771 -1.12875 -0.89416 0
M  V30 5188 H 525.724 -1.23263 -4.02969 0
M  V30 5189 H 524.448 -0.26051 -3.25559 0
M  V30 5190 H 523.107 -2.34723 -2.81604 0
M  V30 5191 H 522.755 -1.04289 -4.9207 0
M  V30 5192 H 522.455 -2.78016 -5.17669 0
M  V30 5193 H 523.979 -2.04691 -5.75268 0
M  V30 5194 H 525.393 -3.79252 -4.29931 0
M  V30 5195 H 523.79 -4.50784 -3.96124 0
M  V30 5196 H 524.86 -4.08513 -2.61238 0
M  V30 5197 N 526.204 0.969867 -1.24223 0
M  V30 5198 C 527.151 2.06407 -1.0327 0
M  V30 5199 C 528.121 1.66014 0.0533 0
M  V30 5200 O 529.306 1.90533 -0.100896 0
M  V30 5201 C 526.446 3.3909 -0.641262 0
M  V30 5202 C 525.559 3.9269 -1.80051 0
M  V30 5203 C 524.694 5.13631 -1.35486 0
M  V30 5204 C 523.733 5.59423 -2.48419 0
M  V30 5205 N 522.87 6.71586 -2.04737 0
M  V30 5206 H 527.71 2.23663 -1.96923 0
M  V30 5207 H 525.247 1.09624 -0.980862 0
M  V30 5208 H 527.205 4.15323 -0.395351 0
M  V30 5209 H 525.835 3.21765 0.258269 0
M  V30 5210 H 524.887 3.13116 -2.16014 0
M  V30 5211 H 526.199 4.22636 -2.64916 0
M  V30 5212 H 525.353 5.97231 -1.0677 0
M  V30 5213 H 524.092 4.85364 -0.476722 0
M  V30 5214 H 523.097 4.74398 -2.77897 0
M  V30 5215 H 524.322 5.89705 -3.36786 0
M  V30 5216 H 522.268 6.45058 -1.19318 0
M  V30 5217 H 522.185 7.0097 -2.83156 0
M  V30 5218 H 523.453 7.58633 -1.79154 0
M  V30 5219 N 527.682 1.05563 1.17022 0
M  V30 5220 C 528.959 0.68165 1.83338 0
M  V30 5221 C 529.339 -0.837665 1.93769 0
M  V30 5222 O 528.687 -1.74507 1.47511 0
M  V30 5223 C 528.897 1.375 3.20772 0
M  V30 5224 C 530.245 1.51545 3.96635 0
M  V30 5225 O 531.269 1.33431 3.30264 0
M  V30 5226 O 530.128 1.812 5.15586 0
M  V30 5227 H 527.222 0.240412 0.791285 0
M  V30 5228 H 529.768 1.15545 1.24288 0
M  V30 5229 H 528.54 2.41135 3.08171 0
M  V30 5230 H 528.163 0.890798 3.87493 0
M  V30 5231 N 529.16 -1.33526 0.837174 0
M  V30 5232 C 530.093 -2.27192 0.214233 0
M  V30 5233 C 531.071 -1.49575 -0.637657 0
M  V30 5234 O 532.255 -1.78753 -0.598291 0
M  V30 5235 C 529.382 -3.31401 -0.699367 0
M  V30 5236 C 528.428 -4.26431 0.0768429 0
M  V30 5237 S 529.261 -5.15954 1.4336 0
M  V30 5238 C 530.417 -6.23692 0.525251 0
M  V30 5239 H 530.65 -2.79679 1.00831 0
M  V30 5240 H 528.183 -1.4079 0.633834 0
M  V30 5241 H 530.141 -3.91924 -1.22088 0
M  V30 5242 H 528.802 -2.77732 -1.46709 0
M  V30 5243 H 527.995 -5.00193 -0.618268 0
M  V30 5244 H 527.597 -3.70235 0.529364 0
M  V30 5245 H 529.889 -6.76931 -0.277575 0
M  V30 5246 H 530.832 -6.97283 1.23299 0
M  V30 5247 H 531.24 -5.64398 0.107351 0
M  V30 5248 N 530.638 -0.59345 -1.46 0
M  V30 5249 C 531.57 0.171569 -2.28557 0
M  V30 5250 C 532.583 0.845273 -1.39137 0
M  V30 5251 O 533.772 0.713033 -1.6364 0
M  V30 5252 C 530.872 1.26311 -3.14482 0
M  V30 5253 C 530.045 0.679258 -4.32094 0
M  V30 5254 C 529.104 1.65987 -4.99334 0
M  V30 5255 O 528.13 1.19171 -5.56585 0
M  V30 5256 N 529.332 2.99414 -4.97324 0
M  V30 5257 H 532.097 -0.536771 -2.94854 0
M  V30 5258 H 529.658 -0.431954 -1.56031 0
M  V30 5259 H 531.65 1.91863 -3.5633 0
M  V30 5260 H 530.22 1.87416 -2.50188 0
M  V30 5261 H 529.44 -0.153992 -3.93899 0
M  V30 5262 H 530.728 0.26916 -5.08088 0
M  V30 5263 H 530.126 3.40064 -4.52076 0
M  V30 5264 H 528.683 3.60426 -5.4308 0
M  V30 5265 N 532.116 1.54067 -0.331816 0
M  V30 5266 C 533.346 2.04833 0.269605 0
M  V30 5267 C 533.754 1.20714 1.45687 0
M  V30 5268 O 533.097 0.232539 1.82222 0
M  V30 5269 C 533.159 3.51386 0.759499 0
M  V30 5270 C 532.823 4.55971 -0.306557 0
M  V30 5271 C 533.82 5.07126 -1.14538 0
M  V30 5272 C 531.505 5.00216 -0.457116 0
M  V30 5273 C 533.499 6.01096 -2.12042 0
M  V30 5274 C 531.186 5.93999 -1.43556 0
M  V30 5275 C 532.184 6.44326 -2.26568 0
M  V30 5276 O 531.872 7.36267 -3.22749 0
M  V30 5277 H 531.604 0.673509 0.0579763 0
M  V30 5278 H 534.158 1.99748 -0.478521 0
M  V30 5279 H 532.388 3.53896 1.55867 0
M  V30 5280 H 534.077 3.85184 1.28017 0
M  V30 5281 H 534.843 4.73716 -1.04009 0
M  V30 5282 H 530.722 4.60652 0.179142 0
M  V30 5283 H 534.266 6.40302 -2.76873 0
M  V30 5284 H 530.163 6.26825 -1.54146 0
M  V30 5285 H 530.931 7.54165 -3.18083 0
M  V30 5286 N 533.594 0.0601682 1.57485 0
M  V30 5287 C 534.843 -0.611101 1.9222 0
M  V30 5288 C 535.156 -1.71469 0.941159 0
M  V30 5289 O 536.362 -2.44473 1.18089 0
M  V30 5290 C 534.818 -1.13832 3.41424 0
M  V30 5291 C 534.426 -0.0663596 4.47951 0
M  V30 5292 C 536.17 -1.78432 3.85178 0
M  V30 5293 C 534.077 -0.606965 5.88277 0
M  V30 5294 H 533.007 -0.232033 0.71741 0
M  V30 5295 H 535.658 0.130518 1.83035 0
M  V30 5296 H 534.04 -1.93254 3.45643 0
M  V30 5297 H 535.214 0.707682 4.55333 0
M  V30 5298 H 533.529 0.482715 4.13593 0
M  V30 5299 H 536.126 -2.1989 4.87394 0
M  V30 5300 H 536.469 -2.63966 3.21913 0
M  V30 5301 H 537.002 -1.05651 3.83514 0
M  V30 5302 H 533.741 0.21095 6.5516 0
M  V30 5303 H 533.261 -1.34879 5.84438 0
M  V30 5304 H 534.94 -1.08704 6.37803 0
M  V30 5305 N 535.072 -1.5615 -0.213296 0
M  V30 5306 C 536.004 -1.89586 -1.28802 0
M  V30 5307 C 537.017 -0.784844 -1.42633 0
M  V30 5308 O 538.206 -1.06319 -1.43383 0
M  V30 5309 C 535.306 -2.09665 -2.66259 0
M  V30 5310 C 534.479 -3.40726 -2.7427 0
M  V30 5311 C 533.538 -3.50137 -3.92798 0
M  V30 5312 O 532.564 -4.23105 -3.8075 0
M  V30 5313 N 533.766 -2.81886 -5.07465 0
M  V30 5314 H 536.531 -2.82368 -1.00442 0
M  V30 5315 H 534.092 -1.56796 -0.403302 0
M  V30 5316 H 536.084 -2.13268 -3.43946 0
M  V30 5317 H 534.654 -1.23469 -2.87183 0
M  V30 5318 H 533.874 -3.4915 -1.82997 0
M  V30 5319 H 535.162 -4.27048 -2.76599 0
M  V30 5320 H 534.56 -2.22397 -5.2015 0
M  V30 5321 H 533.117 -2.91139 -5.83165 0
M  V30 5322 N 536.55 0.480323 -1.50102 0
M  V30 5323 C 537.513 1.56181 -1.6775 0
M  V30 5324 C 538.513 1.51156 -0.548503 0
M  V30 5325 O 539.703 1.5394 -0.815363 0
M  V30 5326 C 536.835 2.95823 -1.69415 0
M  V30 5327 H 538.028 1.41855 -2.6423 0
M  V30 5328 H 535.581 0.70605 -1.39444 0
M  V30 5329 H 536.316 3.15604 -0.745948 0
M  V30 5330 H 536.101 3.00878 -2.51425 0
M  V30 5331 H 537.591 3.74359 -1.85054 0
M  V30 5332 N 538.028 1.39524 0.732853 0
M  V30 5333 C 538.978 1.34905 1.83806 0
M  V30 5334 C 539.962 0.229546 1.59254 0
M  V30 5335 O 541.154 0.467255 1.70721 0
M  V30 5336 C 538.283 1.19699 3.21756 0
M  V30 5337 C 537.369 2.36359 3.5213 0
M  V30 5338 N 537.76 3.61834 3.53426 0
M  V30 5339 C 536.058 2.29363 3.82503 0
M  V30 5340 C 536.759 4.38992 3.81655 0
M  V30 5341 N 535.735 3.68606 3.99538 0
M  V30 5342 H 539.537 2.29882 1.83116 0
M  V30 5343 H 537.051 1.33051 0.931194 0
M  V30 5344 H 539.048 1.14472 4.00876 0
M  V30 5345 H 537.708 0.256739 3.23683 0
M  V30 5346 H 538.719 3.95228 3.34686 0
M  V30 5347 H 535.396 1.43612 3.92023 0
M  V30 5348 H 536.786 5.47763 3.89108 0
M  V30 5349 N 539.506 -0.963266 1.24736 0
M  V30 5350 C 540.917 -1.52145 1.08207 0
M  V30 5351 C 541.268 -1.93142 -0.345061 0
M  V30 5352 O 540.393 -1.77769 -1.23399 0
M  V30 5353 C 540.988 -2.76486 1.95808 0
M  V30 5354 C 539.547 -3.28646 1.8349 0
M  V30 5355 C 538.694 -2.01529 1.90476 0
M  V30 5356 H 541.645 -0.781083 1.38148 0
M  V30 5357 H 541.666 -3.49986 1.49297 0
M  V30 5358 H 541.178 -2.46617 2.99669 0
M  V30 5359 H 539.279 -3.63357 0.824787 0
M  V30 5360 H 539.392 -3.97246 2.67829 0
M  V30 5361 H 537.756 -2.16442 1.34258 0
M  V30 5362 H 538.539 -1.7402 2.95926 0
M  V30 5363 N 540.985 -1.06182 -1.16461 0
M  V30 5364 C 542.213 -0.798583 -1.90867 0
M  V30 5365 C 542.628 0.646921 -1.77371 0
M  V30 5366 O 541.985 1.44279 -1.11758 0
M  V30 5367 C 542.036 -1.18258 -3.4161 0
M  V30 5368 O 541.757 -2.57135 -3.54701 0
M  V30 5369 C 543.258 -0.946917 -4.33069 0
M  V30 5370 H 540.478 -0.289603 -0.605286 0
M  V30 5371 H 543.022 -1.41515 -1.47627 0
M  V30 5372 H 541.177 -0.610562 -3.82558 0
M  V30 5373 H 541.591 -2.72477 -4.4817 0
M  V30 5374 H 543.065 -1.26523 -5.37304 0
M  V30 5375 H 543.542 0.117406 -4.39043 0
M  V30 5376 H 544.148 -1.50326 -3.97847 0
M  V30 5377 N 542.463 1.3308 -0.844243 0
M  V30 5378 C 543.393 2.3161 -0.296493 0
M  V30 5379 C 544.374 1.59215 0.598707 0
M  V30 5380 O 545.559 1.87077 0.521134 0
M  V30 5381 C 542.689 3.43313 0.524762 0
M  V30 5382 C 541.643 4.27115 -0.275106 0
M  V30 5383 C 540.969 5.30483 0.670236 0
M  V30 5384 C 542.269 5.00443 -1.49514 0
M  V30 5385 H 543.963 2.77672 -1.11976 0
M  V30 5386 H 541.509 1.33496 -0.539899 0
M  V30 5387 H 543.462 4.11273 0.918298 0
M  V30 5388 H 542.186 2.95952 1.3813 0
M  V30 5389 H 540.845 3.60787 -0.650267 0
M  V30 5390 H 540.493 4.79379 1.52332 0
M  V30 5391 H 540.193 5.87435 0.139123 0
M  V30 5392 H 541.717 6.01308 1.06117 0
M  V30 5393 H 543.131 5.61141 -1.17447 0
M  V30 5394 H 541.528 5.67071 -1.96343 0
M  V30 5395 H 542.598 4.28906 -2.26202 0
M  V30 5396 N 543.941 0.601185 1.45683 0
M  V30 5397 C 545.166 0.0982245 2.07167 0
M  V30 5398 C 545.591 -1.20546 1.44396 0
M  V30 5399 O 544.949 -1.73247 0.534347 0
M  V30 5400 C 544.997 -0.0346976 3.60583 0
M  V30 5401 O 544.101 -1.08657 3.97828 0
M  V30 5402 H 543.442 0.0711618 0.660176 0
M  V30 5403 H 545.972 0.829376 1.87036 0
M  V30 5404 H 545.982 -0.234969 4.07323 0
M  V30 5405 H 544.657 0.917265 4.05659 0
M  V30 5406 H 543.234 -0.863275 3.6277 0
M  V30 5407 N 545.419 -1.53889 0.339982 0
M  V30 5408 C 546.665 -2.01152 -0.258003 0
M  V30 5409 C 546.998 -1.22749 -1.50487 0
M  V30 5410 O 546.273 -0.314156 -1.91946 0
M  V30 5411 C 546.556 -3.55468 -0.575717 0
M  V30 5412 C 546.409 -4.44584 0.682996 0
M  V30 5413 C 547.728 -4.1768 -1.38677 0
M  V30 5414 H 544.847 -0.731198 -0.0922992 0
M  V30 5415 H 547.489 -1.84352 0.459814 0
M  V30 5416 H 545.639 -3.69914 -1.18725 0
M  V30 5417 H 547.311 -4.41981 1.32102 0
M  V30 5418 H 545.554 -4.13592 1.3086 0
M  V30 5419 H 546.225 -5.5043 0.416001 0
M  V30 5420 H 548.701 -4.0691 -0.869705 0
M  V30 5421 H 547.577 -5.25734 -1.57783 0
M  V30 5422 H 547.838 -3.72069 -2.38782 0
M  V30 5423 N 546.897 -0.0685191 -1.57451 0
M  V30 5424 C 547.844 0.899861 -2.12535 0
M  V30 5425 C 548.814 1.29749 -1.03703 0
M  V30 5426 O 549.999 1.38392 -1.31348 0
M  V30 5427 C 547.139 2.16328 -2.6888 0
M  V30 5428 C 546.252 1.81857 -3.91857 0
M  V30 5429 C 545.387 3.02786 -4.36457 0
M  V30 5430 C 544.426 2.64317 -5.5209 0
M  V30 5431 N 543.563 3.77994 -5.91663 0
M  V30 5432 H 548.403 0.423243 -2.94979 0
M  V30 5433 H 545.94 0.197268 -1.45771 0
M  V30 5434 H 547.898 2.90281 -2.99655 0
M  V30 5435 H 546.528 2.61536 -1.89206 0
M  V30 5436 H 545.58 0.979808 -3.67565 0
M  V30 5437 H 546.892 1.49553 -4.75852 0
M  V30 5438 H 546.046 3.85021 -4.68875 0
M  V30 5439 H 544.785 3.38281 -3.51308 0
M  V30 5440 H 543.79 1.80503 -5.19325 0
M  V30 5441 H 545.015 2.29995 -6.38967 0
M  V30 5442 H 542.961 4.13258 -5.09464 0
M  V30 5443 H 542.878 3.49447 -6.7039 0
M  V30 5444 H 544.146 4.60818 -6.28703 0
M  V30 5445 N 548.375 1.56261 0.205012 0
M  V30 5446 C 549.623 1.79684 0.925096 0
M  V30 5447 C 549.944 0.63989 1.84202 0
M  V30 5448 O 549.214 -0.342345 1.92885 0
M  V30 5449 H 547.794 0.662774 0.344587 0
M  V30 5450 H 550.456 1.93734 0.212899 0
M  V30 5451 H 549.552 2.72467 1.52211 0
M  V30 5452 N 549.853 -0.472356 1.50355 0
M  V30 5453 C 551.101 -1.22211 1.60962 0
M  V30 5454 C 551.422 -1.92497 0.311439 0
M  V30 5455 O 550.692 -1.8405 -0.671002 0
M  V30 5456 H 549.272 -0.454092 0.593135 0
M  V30 5457 H 551.934 -0.544977 1.87126 0
M  V30 5458 H 551.03 -1.9707 2.42012 0
M  V30 5459 N 551.331 -1.39911 -0.725443 0
M  V30 5460 C 552.577 -1.37858 -1.48738 0
M  V30 5461 C 552.91 0.0224187 -1.94187 0
M  V30 5462 O 552.185 0.989204 -1.67466 0
M  V30 5463 C 552.468 -2.3594 -2.72038 0
M  V30 5464 C 552.321 -3.85023 -2.32546 0
M  V30 5465 C 553.64 -2.31704 -3.74167 0
M  V30 5466 H 550.759 -0.502074 -0.539528 0
M  V30 5467 H 553.401 -1.70974 -0.828728 0
M  V30 5468 H 551.551 -2.0783 -3.28236 0
M  V30 5469 H 553.223 -4.2392 -1.81905 0
M  V30 5470 H 551.466 -4.01334 -1.64661 0
M  V30 5471 H 552.137 -4.49152 -3.20884 0
M  V30 5472 H 554.613 -2.5658 -3.27576 0
M  V30 5473 H 553.489 -3.02395 -4.58092 0
M  V30 5474 H 553.75 -1.3253 -4.21768 0
M  V30 5475 N 552.809 0.956637 -1.25245 0
M  V30 5476 C 553.742 2.05232 -0.99775 0
M  V30 5477 C 554.72 1.62439 0.0723137 0
M  V30 5478 O 555.904 1.88381 -0.066926 0
M  V30 5479 C 553.031 3.34871 -0.507861 0
M  V30 5480 C 552.077 3.96625 -1.56815 0
M  V30 5481 S 552.91 4.32853 -3.15276 0
M  V30 5482 C 554.066 5.65613 -2.68017 0
M  V30 5483 H 554.299 2.26521 -1.9255 0
M  V30 5484 H 551.832 1.09601 -1.08752 0
M  V30 5485 H 553.79 4.09845 -0.231858 0
M  V30 5486 H 552.451 3.11551 0.399356 0
M  V30 5487 H 551.644 4.90087 -1.17604 0
M  V30 5488 H 551.246 3.28124 -1.79473 0
M  V30 5489 H 553.538 6.43635 -2.11518 0
M  V30 5490 H 554.481 6.09693 -3.60112 0
M  V30 5491 H 554.889 5.24751 -2.0808 0
M  V30 5492 N 554.287 1.06798 1.15896 0
M  V30 5493 C 555.533 0.788934 1.86825 0
M  V30 5494 C 555.866 -0.683084 1.8179 0
M  V30 5495 O 555.141 -1.50086 1.23711 0
M  V30 5496 C 555.424 1.29065 3.36176 0
M  V30 5497 C 555.277 2.8268 3.49874 0
M  V30 5498 C 556.596 0.902655 4.30744 0
M  V30 5499 H 553.715 0.288066 0.678371 0
M  V30 5500 H 556.357 1.32479 1.36195 0
M  V30 5501 H 554.507 0.834806 3.79425 0
M  V30 5502 H 556.179 3.36511 3.15528 0
M  V30 5503 H 554.422 3.21157 2.91617 0
M  V30 5504 H 555.093 3.12852 4.54783 0
M  V30 5505 H 557.569 1.29535 3.95424 0
M  V30 5506 H 556.445 1.28111 5.3374 0
M  V30 5507 H 556.706 -0.191951 4.41683 0
M  V30 5508 N 555.766 -1.3263 0.851289 0
M  V30 5509 C 556.994 -2.01563 0.466899 0
M  V30 5510 C 557.409 -1.63996 -0.935447 0
M  V30 5511 O 556.766 -0.85957 -1.6099 0
M  V30 5512 C 556.817 -3.56613 0.592433 0
M  V30 5513 O 556.538 -3.92828 1.93954 0
M  V30 5514 C 558.039 -4.42818 0.206612 0
M  V30 5515 H 555.259 -0.645307 0.183902 0
M  V30 5516 H 557.803 -1.69285 1.1473 0
M  V30 5517 H 555.958 -3.87379 -0.0401936 0
M  V30 5518 H 556.372 -4.87545 1.9339 0
M  V30 5519 H 557.846 -5.50918 0.345462 0
M  V30 5520 H 558.323 -4.30844 -0.85264 0
M  V30 5521 H 558.929 -4.17434 0.814176 0
M  V30 5522 N 557.244 -0.608902 -1.45362 0
M  V30 5523 C 558.154 0.110969 -2.34337 0
M  V30 5524 C 559.17 0.859007 -1.51318 0
M  V30 5525 O 560.346 0.816296 -1.84116 0
M  V30 5526 C 557.411 1.09494 -3.28956 0
M  V30 5527 C 556.472 0.348718 -4.27881 0
M  V30 5528 C 555.705 1.28582 -5.17979 0
M  V30 5529 O 555.928 2.52369 -5.11533 0
M  V30 5530 O 554.862 0.782172 -5.96796 0
M  V30 5531 H 558.688 -0.620258 -2.97299 0
M  V30 5532 H 556.273 -0.36916 -1.44767 0
M  V30 5533 H 558.155 1.66163 -3.87257 0
M  V30 5534 H 556.83 1.80717 -2.68557 0
M  V30 5535 H 555.737 -0.260465 -3.73192 0
M  V30 5536 H 557.07 -0.323049 -4.91139 0
M  V30 5537 N 558.722 1.53707 -0.348139 0
M  V30 5538 C 559.685 2.23812 0.494058 0
M  V30 5539 C 560.685 1.23989 1.02388 0
M  V30 5540 O 561.875 1.48395 0.912396 0
M  V30 5541 C 559.007 2.96133 1.68872 0
M  V30 5542 H 560.2 2.99663 -0.119141 0
M  V30 5543 H 557.753 1.55983 -0.0995539 0
M  V30 5544 H 558.488 2.24481 2.34049 0
M  V30 5545 H 558.273 3.69357 1.31596 0
M  V30 5546 H 559.763 3.49475 2.28597 0
M  V30 5547 N 560.2 0.0768682 1.57412 0
M  V30 5548 C 561.446 -0.591961 1.93968 0
M  V30 5549 C 561.779 -1.68954 0.9575 0
M  V30 5550 O 561.054 -1.94496 -0.0124675 0
M  V30 5551 C 561.337 -1.16418 3.40762 0
M  V30 5552 C 561.19 -0.0728933 4.49741 0
M  V30 5553 C 562.509 -2.06814 3.88479 0
M  V30 5554 H 559.628 -0.213716 0.705333 0
M  V30 5555 H 562.27 0.14387 1.89455 0
M  V30 5556 H 560.42 -1.79128 3.4474 0
M  V30 5557 H 562.092 0.560446 4.57883 0
M  V30 5558 H 560.335 0.595859 4.29688 0
M  V30 5559 H 561.006 -0.513755 5.49604 0
M  V30 5560 H 563.482 -1.54033 3.8654 0
M  V30 5561 H 562.358 -2.43785 4.91793 0
M  V30 5562 H 562.619 -2.97844 3.26713 0
M  V30 5563 N 561.678 -1.56367 -0.196722 0
M  V30 5564 C 563.094 -1.49916 -0.54749 0
M  V30 5565 C 563.294 -0.77659 -1.85934 0
M  V30 5566 O 562.35 -0.32644 -2.50381 0
M  V30 5567 C 563.663 -2.94577 -0.603734 0
M  V30 5568 C 565.211 -3.05239 -0.692677 0
M  V30 5569 C 565.686 -4.51308 -0.780046 0
M  V30 5570 N 567.177 -4.55453 -0.843616 0
M  V30 5571 C 567.912 -5.65786 -0.931358 0
M  V30 5572 N 567.408 -6.85812 -0.981503 0
M  V30 5573 N 569.201 -5.53695 -0.968421 0
M  V30 5574 H 561.352 -2.01761 0.663803 0
M  V30 5575 H 563.615 -0.918094 0.236238 0
M  V30 5576 H 563.321 -3.50494 0.29105 0
M  V30 5577 H 563.195 -3.47841 -1.45898 0
M  V30 5578 H 565.582 -2.49372 -1.57789 0
M  V30 5579 H 565.663 -2.55103 0.188736 0
M  V30 5580 H 565.307 -5.078 0.100811 0
M  V30 5581 H 565.237 -4.99176 -1.67724 0
M  V30 5582 H 567.728 -3.69025 -0.814176 0
M  V30 5583 H 568.041 -7.65648 -1.04892 0
M  V30 5584 H 566.386 -6.88474 -0.950208 0
M  V30 5585 H 569.577 -4.58848 -0.926072 0
M  V30 5586 H 569.75 -6.39708 -1.03334 0
M  V30 5587 N 563.156 0.464375 -1.50603 0
M  V30 5588 C 564.404 1.21356 -1.61608 0
M  V30 5589 C 564.725 1.92329 -0.321643 0
M  V30 5590 O 563.995 1.84403 0.661232 0
M  V30 5591 H 562.575 0.45094 -0.595535 0
M  V30 5592 H 565.237 0.535046 -1.87412 0
M  V30 5593 H 564.333 1.95783 -2.43054 0
M  V30 5594 N 564.634 1.40294 0.718013 0
M  V30 5595 C 565.582 1.40536 1.85344 0
M  V30 5596 C 566.576 0.286192 1.66965 0
M  V30 5597 O 567.782 0.457105 1.74099 0
M  V30 5598 H 564.157 0.439236 0.61039 0
M  V30 5599 H 566.128 2.36275 1.82255 0
M  V30 5600 C 564.877 1.28245 3.23185 0
M  V30 5601 H 564.2 2.1364 3.37932 0
M  V30 5602 H 565.64 1.32474 4.02774 0
M  V30 5603 C 564.099 -0.0075503 3.36899 0
M  V30 5604 O 564.629 -0.971391 3.89778 0
M  V30 5605 N 562.835 -0.0762479 2.905 0
M  V30 5606 H 562.382 0.708819 2.47656 0
M  V30 5607 H 562.34 -0.938846 3.00055 0
M  V30 5608 N 566.112 -0.949982 1.2575 0
M  V30 5609 C 567.36 -1.6918 1.10555 0
M  V30 5610 C 567.681 -1.91773 -0.353298 0
M  V30 5611 O 566.951 -1.50814 -1.25027 0
M  V30 5612 H 565.531 -0.626952 0.406129 0
M  V30 5613 H 568.193 -1.1419 1.57945 0
M  V30 5614 H 567.289 -2.66915 1.61749 0
M  V30 5615 N 567.59 -1.07411 -1.15328 0
M  V30 5616 C 568.553 -0.698914 -2.18284 0
M  V30 5617 C 569.553 0.261149 -1.58665 0
M  V30 5618 O 570.743 0.0420277 -1.74149 0
M  V30 5619 C 567.875 -0.0302427 -3.40887 0
M  V30 5620 H 569.068 -1.61045 -2.52991 0
M  V30 5621 H 566.621 -0.870724 -1.298 0
M  V30 5622 H 567.356 0.893505 -3.11748 0
M  V30 5623 H 567.141 -0.720759 -3.85419 0
M  V30 5624 H 568.631 0.21759 -4.17033 0
M  V30 5625 N 569.068 1.32177 -0.85831 0
M  V30 5626 C 570.317 1.96392 -0.459689 0
M  V30 5627 C 570.63 1.68659 0.990632 0
M  V30 5628 O 571.836 2.26641 1.49485 0
M  V30 5629 C 570.292 3.51542 -0.7711 0
M  V30 5630 C 569.9 3.8813 -2.2374 0
M  V30 5631 C 571.644 4.2221 -0.44038 0
M  V30 5632 C 569.551 5.36341 -2.49183 0
M  V30 5633 H 568.481 0.735007 -0.168169 0
M  V30 5634 H 571.132 1.50518 -1.0496 0
M  V30 5635 H 569.514 3.95846 -0.11058 0
M  V30 5636 H 570.688 3.54824 -2.94001 0
M  V30 5637 H 569.003 3.30497 -2.533 0
M  V30 5638 H 571.6 5.31234 -0.607855 0
M  V30 5639 H 571.943 4.11683 0.618291 0
M  V30 5640 H 572.476 3.83502 -1.05695 0
M  V30 5641 H 569.215 5.51892 -3.53689 0
M  V30 5642 H 568.735 5.7104 -1.83504 0
M  V30 5643 H 570.414 6.03466 -2.33318 0
M  V30 5644 N 570.547 0.616602 1.45037 0
M  V30 5645 C 571.477 -0.0840787 2.33349 0
M  V30 5646 C 572.458 -0.849641 1.4736 0
M  V30 5647 O 573.643 -0.818407 1.76113 0
M  V30 5648 C 570.773 -1.07604 3.3021 0
M  V30 5649 C 569.727 -0.423096 4.25904 0
M  V30 5650 C 569.053 -1.52394 5.12523 0
M  V30 5651 C 570.353 0.661457 5.18095 0
M  V30 5652 H 572.047 0.653333 2.92185 0
M  V30 5653 H 569.593 0.315634 1.40498 0
M  V30 5654 H 571.546 -1.57485 3.90866 0
M  V30 5655 H 570.27 -1.84416 2.69552 0
M  V30 5656 H 568.929 0.05493 3.66559 0
M  V30 5657 H 568.577 -2.28257 4.48227 0
M  V30 5658 H 568.277 -1.09251 5.77354 0
M  V30 5659 H 569.801 -2.02485 5.76049 0
M  V30 5660 H 571.215 0.246353 5.7277 0
M  V30 5661 H 569.612 1.01517 5.91451 0
M  V30 5662 H 570.682 1.53446 4.59981 0
M  V30 5663 N 572.025 -1.5352 0.356285 0
M  V30 5664 C 573.271 -2.01414 -0.236653 0
M  V30 5665 C 573.604 -1.24339 -1.49176 0
M  V30 5666 O 572.879 -0.334496 -1.91602 0
M  V30 5667 C 573.162 -3.56059 -0.537982 0
M  V30 5668 C 573.015 -4.43835 0.730112 0
M  V30 5669 C 574.334 -4.19127 -1.34239 0
M  V30 5670 H 571.453 -0.732135 -0.0845386 0
M  V30 5671 H 574.095 -1.83854 0.479341 0
M  V30 5672 H 572.245 -3.71153 -1.14795 0
M  V30 5673 H 573.917 -4.40555 1.36782 0
M  V30 5674 H 572.16 -4.1218 1.3524 0
M  V30 5675 H 572.831 -5.49958 0.474358 0
M  V30 5676 H 575.307 -4.07809 -0.826498 0
M  V30 5677 H 574.183 -5.27378 -1.52198 0
M  V30 5678 H 574.444 -3.74581 -2.34822 0
M  V30 5679 N 573.503 -0.0852151 -1.57369 0
M  V30 5680 C 574.451 0.894856 -2.14698 0
M  V30 5681 C 575.445 1.29903 -1.08727 0
M  V30 5682 O 576.651 1.27471 -1.27088 0
M  V30 5683 H 573.026 0.306569 -0.686673 0
M  V30 5684 H 574.997 0.386542 -2.95886 0
M  V30 5685 C 573.746 2.14798 -2.73417 0
M  V30 5686 H 573.069 1.84585 -3.54638 0
M  V30 5687 H 574.509 2.81456 -3.1711 0
M  V30 5688 C 572.968 2.91546 -1.68828 0
M  V30 5689 O 573.498 3.85733 -1.12129 0
M  V30 5690 N 571.704 2.54901 -1.39549 0
M  V30 5691 H 571.251 1.7838 -1.85845 0
M  V30 5692 H 571.209 3.06553 -0.698054 0
M  V30 5693 N 574.981 1.5647 0.188427 0
M  V30 5694 C 576.397 1.50204 0.539532 0
M  V30 5695 C 576.597 0.78644 1.85519 0
M  V30 5696 O 575.653 0.339714 2.50204 0
M  V30 5697 C 576.966 2.94893 0.588103 0
M  V30 5698 C 578.514 3.05602 0.67648 0
M  V30 5699 C 578.989 4.51716 0.756101 0
M  V30 5700 N 580.48 4.55894 0.819451 0
M  V30 5701 C 581.215 5.66272 0.90134 0
M  V30 5702 N 580.711 6.86323 0.945118 0
M  V30 5703 N 582.504 5.54201 0.939043 0
M  V30 5704 H 574.655 2.01406 -0.674493 0
M  V30 5705 H 576.918 0.916828 -0.241103 0
M  V30 5706 H 576.624 3.50334 -0.309633 0
M  V30 5707 H 576.498 3.4861 1.44051 0
M  V30 5708 H 578.885 2.50206 1.56465 0
M  V30 5709 H 578.966 2.54999 -0.202262 0
M  V30 5710 H 578.61 5.07739 -0.12774 0
M  V30 5711 H 578.54 5.00058 1.65074 0
M  V30 5712 H 581.031 3.69452 0.794594 0
M  V30 5713 H 581.344 7.66194 1.0083 0
M  V30 5714 H 579.689 6.88968 0.913683 0
M  V30 5715 H 582.88 4.59333 0.901725 0
M  V30 5716 H 583.053 6.40247 0.999402 0
M  V30 5717 N 576.459 -0.456382 1.50847 0
M  V30 5718 C 577.369 -1.57805 1.73594 0
M  V30 5719 C 578.385 -1.62599 0.619476 0
M  V30 5720 O 579.561 -1.80195 0.899532 0
M  V30 5721 C 576.626 -2.93926 1.8387 0
M  V30 5722 C 575.687 -2.99402 3.07663 0
M  V30 5723 C 574.92 -4.29031 3.1744 0
M  V30 5724 O 575.143 -5.20358 2.33631 0
M  V30 5725 O 574.077 -4.40401 4.10281 0
M  V30 5726 H 577.903 -1.41531 2.68705 0
M  V30 5727 H 575.488 -0.637422 1.3512 0
M  V30 5728 H 577.37 -3.74747 1.92725 0
M  V30 5729 H 576.045 -3.10368 0.91944 0
M  V30 5730 H 574.952 -2.17606 3.043 0
M  V30 5731 H 576.285 -2.87901 3.99216 0
M  V30 5732 N 577.937 -1.40673 -0.710563 0
M  V30 5733 C 579.185 -1.38947 -1.46759 0
M  V30 5734 C 579.506 0.00572879 -1.94999 0
M  V30 5735 O 578.776 0.961358 -1.70689 0
M  V30 5736 H 577.356 -0.5114 -0.544499 0
M  V30 5737 H 580.018 -1.75773 -0.842012 0
M  V30 5738 H 579.114 -2.06745 -2.33801 0
M  V30 5739 N 579.415 0.9433 -1.26252 0
M  V30 5740 C 580.362 2.0417 -1.07625 0
M  V30 5741 C 581.332 1.6609 0.0180738 0
M  V30 5742 O 582.517 1.90276 -0.141289 0
M  V30 5743 C 579.657 3.37653 -0.713043 0
M  V30 5744 C 578.77 3.88783 -1.8834 0
M  V30 5745 C 577.905 5.10642 -1.4635 0
M  V30 5746 C 576.944 5.54028 -2.60229 0
M  V30 5747 N 576.081 6.67092 -2.18936 0
M  V30 5748 H 580.921 2.19436 -2.01623 0
M  V30 5749 H 578.458 1.07519 -1.00389 0
M  V30 5750 H 580.416 4.14391 -0.483358 0
M  V30 5751 H 579.046 3.22241 0.18996 0
M  V30 5752 H 578.098 3.08464 -2.22608 0
M  V30 5753 H 579.41 4.16922 -2.73821 0
M  V30 5754 H 578.564 5.94832 -1.19414 0
M  V30 5755 H 577.303 4.84244 -0.579568 0
M  V30 5756 H 576.308 4.68396 -2.87898 0
M  V30 5757 H 577.533 5.82429 -3.49219 0
M  V30 5758 H 575.479 6.42381 -1.32974 0
M  V30 5759 H 575.396 6.94806 -2.97961 0
M  V30 5760 H 576.664 7.54662 -1.95206 0
M  V30 5761 N 580.893 1.08022 1.14757 0
M  V30 5762 C 582.309 0.807072 1.3769 0
M  V30 5763 C 582.509 -0.585504 1.92806 0
M  V30 5764 O 581.565 -1.34301 2.13821 0
M  V30 5765 C 582.878 1.88651 2.34161 0
M  V30 5766 C 584.426 1.91206 2.47809 0
M  V30 5767 C 584.901 2.98253 3.47576 0
M  V30 5768 N 586.392 2.974 3.55117 0
M  V30 5769 C 587.127 3.76872 4.32152 0
M  V30 5770 N 586.623 4.66212 5.12463 0
M  V30 5771 N 588.416 3.6519 4.27309 0
M  V30 5772 H 580.567 1.97824 0.77326 0
M  V30 5773 H 582.83 0.85826 0.402608 0
M  V30 5774 H 582.536 2.88749 2.00791 0
M  V30 5775 H 582.41 1.75244 3.3402 0
M  V30 5776 H 584.797 0.917564 2.80472 0
M  V30 5777 H 584.878 2.08691 1.47925 0
M  V30 5778 H 584.522 3.97907 3.15646 0
M  V30 5779 H 584.452 2.78014 4.47231 0
M  V30 5780 H 586.943 2.32643 2.97801 0
M  V30 5781 H 587.256 5.23468 5.68508 0
M  V30 5782 H 585.601 4.70257 5.11745 0
M  V30 5783 H 588.792 2.94765 3.63636 0
M  V30 5784 H 588.965 4.27366 4.87095 0
M  V30 5785 N 582.371 -1.3172 0.865308 0
M  V30 5786 C 583.618 -1.96876 0.473931 0
M  V30 5787 C 583.946 -1.68425 -0.972786 0
M  V30 5788 O 583.201 -0.970742 -1.69927 0
M  V30 5789 C 583.5 -3.5102 0.672283 0
M  V30 5790 C 583.166 -3.9948 2.09108 0
M  V30 5791 C 581.828 -4.12425 2.4791 0
M  V30 5792 C 584.18 -4.2503 3.0166 0
M  V30 5793 C 581.508 -4.48267 3.78515 0
M  V30 5794 C 583.86 -4.62335 4.31774 0
M  V30 5795 C 582.524 -4.73486 4.70497 0
M  V30 5796 H 581.794 -0.72042 0.173424 0
M  V30 5797 H 584.441 -1.56937 1.0974 0
M  V30 5798 H 582.746 -3.91785 -0.034356 0
M  V30 5799 H 584.443 -3.99475 0.349353 0
M  V30 5800 H 581.033 -3.89898 1.77981 0
M  V30 5801 H 585.217 -4.14529 2.7291 0
M  V30 5802 H 580.473 -4.55097 4.08285 0
M  V30 5803 H 584.647 -4.81058 5.03543 0
M  V30 5804 H 582.274 -5.01016 5.71741 0
M  V30 5805 N 583.85 -0.624285 -1.44708 0
M  V30 5806 C 585.096 -0.126237 -2.02407 0
M  V30 5807 C 585.428 1.24618 -1.48943 0
M  V30 5808 O 584.704 1.82569 -0.670742 0
M  V30 5809 C 584.986 -0.105449 -3.59946 0
M  V30 5810 C 584.84 -1.50972 -4.23707 0
M  V30 5811 C 586.159 0.573629 -4.36346 0
M  V30 5812 H 583.278 -0.0473472 -0.735478 0
M  V30 5813 H 585.92 -0.799452 -1.72362 0
M  V30 5814 H 584.07 0.46783 -3.85673 0
M  V30 5815 H 585.742 -2.13136 -4.0911 0
M  V30 5816 H 583.985 -2.0656 -3.81465 0
M  V30 5817 H 584.656 -1.44727 -5.32689 0
M  V30 5818 H 587.132 0.0861787 -4.16011 0
M  V30 5819 H 586.008 0.557338 -5.46063 0
M  V30 5820 H 586.269 1.64276 -4.10446 0
M  V30 5821 N 585.328 1.53329 -0.364422 0
M  V30 5822 C 586.276 2.27212 0.497737 0
M  V30 5823 C 587.27 1.30146 1.08437 0
M  V30 5824 O 588.476 1.47778 1.0277 0
M  V30 5825 H 584.851 0.730329 0.179232 0
M  V30 5826 H 586.822 2.98037 -0.147182 0
M  V30 5827 C 585.571 3.07333 1.6261 0
M  V30 5828 H 584.894 3.81866 1.184 0
M  V30 5829 H 586.334 3.62209 2.20409 0
M  V30 5830 C 584.793 2.18102 2.56775 0
M  V30 5831 O 585.323 1.79104 3.59562 0
M  V30 5832 N 583.529 1.82759 2.25937 0
M  V30 5833 H 583.076 2.14671 1.42387 0
M  V30 5834 H 583.034 1.23342 2.89196 0
M  V30 5835 N 586.806 0.0935595 1.57322 0
M  V30 5836 C 587.716 -0.880192 2.17462 0
M  V30 5837 C 588.732 -1.31135 1.14366 0
M  V30 5838 O 589.908 -1.37958 1.46729 0
M  V30 5839 C 586.973 -2.12184 2.74188 0
M  V30 5840 C 586.034 -1.74503 3.92234 0
M  V30 5841 C 585.267 -2.92748 4.46245 0
M  V30 5842 O 585.49 -4.07427 3.99198 0
M  V30 5843 O 584.424 -2.71303 5.37288 0
M  V30 5844 H 588.25 -0.398516 3.01074 0
M  V30 5845 H 585.835 -0.130707 1.48827 0
M  V30 5846 H 587.717 -2.84953 3.10451 0
M  V30 5847 H 586.392 -2.59407 1.93623 0
M  V30 5848 H 585.299 -0.989186 3.60785 0
M  V30 5849 H 586.632 -1.32044 4.74157 0
M  V30 5850 N 588.284 -1.56567 -0.180126 0
M  V30 5851 C 589.533 -1.80685 -0.896426 0
M  V30 5852 C 589.846 -0.669335 -1.83791 0
M  V30 5853 O 591.052 -0.795209 -2.59593 0
M  V30 5854 C 589.508 -3.20132 -1.6445 0
M  V30 5855 C 589.116 -4.41727 -0.747088 0
M  V30 5856 C 590.86 -3.53549 -2.34955 0
M  V30 5857 C 588.767 -5.72195 -1.49489 0
M  V30 5858 H 587.697 -0.673758 -0.338477 0
M  V30 5859 H 590.348 -1.8289 -0.149467 0
M  V30 5860 H 588.73 -3.12218 -2.43589 0
M  V30 5861 H 589.904 -4.608 0.00671129 0
M  V30 5862 H 588.219 -4.16122 -0.152134 0
M  V30 5863 H 590.816 -4.48267 -2.91481 0
M  V30 5864 H 591.159 -2.78006 -3.09868 0
M  V30 5865 H 591.692 -3.62976 -1.62768 0
M  V30 5866 H 588.431 -6.50743 -0.788251 0
M  V30 5867 H 587.951 -5.57115 -2.22224 0
M  V30 5868 H 589.63 -6.1384 -2.04472 0
M  V30 5869 N 589.762 0.448376 -1.51087 0
M  V30 5870 C 590.99 1.22143 -1.66999 0
M  V30 5871 C 591.405 1.85283 -0.362699 0
M  V30 5872 O 590.762 1.70236 0.65772 0
M  V30 5873 C 590.813 2.31357 -2.7777 0
M  V30 5874 O 590.534 1.70801 -4.03434 0
M  V30 5875 C 592.035 3.21836 -3.04855 0
M  V30 5876 H 589.255 0.368558 -0.560719 0
M  V30 5877 H 591.799 0.532618 -1.97442 0
M  V30 5878 H 589.954 2.95973 -2.49958 0
M  V30 5879 H 590.368 2.42895 -4.64868 0
M  V30 5880 H 591.842 3.94627 -3.85971 0
M  V30 5881 H 592.319 3.81949 -2.16821 0
M  V30 5882 H 592.925 2.62933 -3.34285 0
M  V30 5883 N 591.24 1.41047 0.703093 0
M  V30 5884 C 592.468 1.4334 1.49202 0
M  V30 5885 C 592.883 0.0365596 1.88765 0
M  V30 5886 O 592.24 -0.942419 1.56284 0
M  V30 5887 C 592.291 2.33538 2.75939 0
M  V30 5888 O 592.012 3.67786 2.38045 0
M  V30 5889 C 593.513 2.44555 3.6974 0
M  V30 5890 H 590.733 0.488472 0.460039 0
M  V30 5891 H 593.277 1.85245 0.86629 0
M  V30 5892 H 591.432 1.94962 3.34766 0
M  V30 5893 H 591.846 4.15816 3.19683 0
M  V30 5894 H 593.32 3.11849 4.55471 0
M  V30 5895 H 593.797 1.47447 4.1371 0
M  V30 5896 H 594.403 2.83735 3.16819 0
M  V30 5897 N 592.718 -0.936591 1.26751 0
M  V30 5898 C 594.134 -1.21095 1.03963 0
M  V30 5899 C 594.334 -2.00156 -0.232372 0
M  V30 5900 O 593.39 -2.3434 -0.940274 0
M  V30 5901 C 594.703 -1.96775 2.27377 0
M  V30 5902 C 596.251 -2.09749 2.32324 0
M  V30 5903 C 596.726 -2.88832 3.55443 0
M  V30 5904 N 598.217 -2.96404 3.55948 0
M  V30 5905 C 598.952 -3.58036 4.47881 0
M  V30 5906 N 598.448 -4.21132 5.50109 0
M  V30 5907 N 600.241 -3.55353 4.35523 0
M  V30 5908 H 592.392 -0.408173 2.08441 0
M  V30 5909 H 594.655 -0.243139 0.91629 0
M  V30 5910 H 594.361 -1.46094 3.19921 0
M  V30 5911 H 594.235 -2.97424 2.31989 0
M  V30 5912 H 596.622 -2.5962 1.40291 0
M  V30 5913 H 596.703 -1.08347 2.31721 0
M  V30 5914 H 596.347 -2.39647 4.47808 0
M  V30 5915 H 596.277 -3.90499 3.53296 0
M  V30 5916 H 598.768 -2.51552 2.82011 0
M  V30 5917 H 599.081 -4.66071 6.16439 0
M  V30 5918 H 597.426 -4.19705 5.53961 0
M  V30 5919 H 600.617 -3.05256 3.54875 0
M  V30 5920 H 600.79 -4.03097 5.07363 0
M  V30 5921 N 594.196 -1.08629 -1.14182 0
M  V30 5922 C 595.473 -0.73002 -1.81466 0
M  V30 5923 C 595.853 0.785996 -1.95922 0
M  V30 5924 O 595.201 1.70535 -1.52086 0
M  V30 5925 C 595.411 -1.45957 -3.17014 0
M  V30 5926 C 596.759 -1.62008 -3.92477 0
M  V30 5927 O 597.783 -1.42141 -3.26611 0
M  V30 5928 O 596.642 -1.94806 -5.106 0
M  V30 5929 H 593.736 -0.261307 -0.784632 0
M  V30 5930 H 596.282 -1.188 -1.2118 0
M  V30 5931 H 595.054 -2.49221 -3.01669 0
M  V30 5932 H 594.677 -0.993222 -3.84995 0
M  V30 5933 N 595.674 1.31259 -0.872281 0
M  V30 5934 C 596.621 2.28459 -0.327857 0
M  V30 5935 C 597.591 1.55831 0.574957 0
M  V30 5936 O 598.776 1.83965 0.506101 0
M  V30 5937 C 595.916 3.41985 0.462644 0
M  V30 5938 C 595.029 4.29458 -0.467949 0
M  V30 5939 C 594.164 5.30131 0.336903 0
M  V30 5940 C 593.203 6.0925 -0.58997 0
M  V30 5941 N 592.34 7.01872 0.178775 0
M  V30 5942 H 597.18 2.74414 -1.16193 0
M  V30 5943 H 594.717 1.34994 -0.584376 0
M  V30 5944 H 596.675 4.06547 0.936759 0
M  V30 5945 H 595.305 2.97134 1.2614 0
M  V30 5946 H 594.357 3.65318 -1.06052 0
M  V30 5947 H 595.669 4.84677 -1.17856 0
M  V30 5948 H 594.823 6.0038 0.873427 0
M  V30 5949 H 593.562 4.75573 1.08079 0
M  V30 5950 H 592.567 5.37889 -1.13823 0
M  V30 5951 H 593.792 6.65894 -1.33275 0
M  V30 5952 H 591.738 6.49721 0.905435 0
M  V30 5953 H 591.655 7.54522 -0.472452 0
M  V30 5954 H 592.923 7.76382 0.696454 0
M  V30 5955 N 597.152 0.631951 1.44375 0
M  V30 5956 C 598.115 -0.0628142 2.29114 0
M  V30 5957 C 599.115 -0.771494 1.41084 0
M  V30 5958 O 600.305 -0.615959 1.62947 0
M  V30 5959 C 597.437 -1.09953 3.22681 0
M  V30 5960 H 598.63 0.682509 2.92031 0
M  V30 5961 H 596.183 0.392128 1.51301 0
M  V30 5962 H 596.918 -1.87481 2.64616 0
M  V30 5963 H 596.703 -0.595286 3.87555 0
M  V30 5964 H 598.193 -1.58538 3.86336 0
M  V30 5965 N 598.631 -1.53133 0.372548 0
M  V30 5966 C 599.856 -2.0625 -0.218098 0
M  V30 5967 C 600.281 -1.24375 -1.41111 0
M  V30 5968 O 599.639 -0.264554 -1.79359 0
M  V30 5969 C 599.687 -3.55858 -0.582876 0
M  V30 5970 O 598.791 -3.76667 -1.67917 0
M  V30 5971 H 598.132 -0.663317 -0.030104 0
M  V30 5972 H 600.662 -1.97477 0.535169 0
M  V30 5973 H 600.672 -3.99007 -0.851925 0
M  V30 5974 H 599.347 -4.14892 0.289428 0
M  V30 5975 H 597.924 -3.45413 -1.40513 0
M  V30 5976 N 600.109 -0.101901 -1.5727 0
M  V30 5977 C 601.072 0.840129 -2.13247 0
M  V30 5978 C 602.072 1.20625 -1.06331 0
M  V30 5979 O 603.262 1.13456 -1.32186 0
M  V30 5980 C 600.394 2.13372 -2.65867 0
M  V30 5981 H 601.587 0.353945 -2.97804 0
M  V30 5982 H 599.14 0.147167 -1.55606 0
M  V30 5983 H 599.875 2.66461 -1.84849 0
M  V30 5984 H 599.66 1.88085 -3.44044 0
M  V30 5985 H 601.15 2.80748 -3.09145 0
M  V30 5986 N 601.587 1.56661 0.17182 0
M  V30 5987 C 602.55 1.9549 1.19651 0
M  V30 5988 C 603.55 0.838501 1.37207 0
M  V30 5989 O 604.74 1.10556 1.34622 0
M  V30 5990 C 601.872 2.24927 2.56166 0
M  V30 5991 H 603.065 2.87184 0.864007 0
M  V30 5992 H 600.618 1.50711 0.41425 0
M  V30 5993 H 601.353 1.35944 2.94431 0
M  V30 5994 H 601.138 3.06301 2.4479 0
M  V30 5995 H 602.628 2.55891 3.30014 0
M  V30 5996 N 603.065 -0.440357 1.51323 0
M  V30 5997 C 604.314 -1.18697 1.63076 0
M  V30 5998 C 604.627 -1.92418 0.35136 0
M  V30 5999 O 605.833 -2.69258 0.348221 0
M  V30 6000 C 604.289 -2.15849 2.87988 0
M  V30 6001 C 603.897 -1.47789 4.22921 0
M  V30 6002 C 605.641 -2.90962 3.09098 0
M  V30 6003 C 603.548 -2.43407 5.38987 0
M  V30 6004 H 602.478 -0.44676 0.607389 0
M  V30 6005 H 605.129 -0.454313 1.77787 0
M  V30 6006 H 603.511 -2.92537 2.66905 0
M  V30 6007 H 604.685 -0.7668 4.54375 0
M  V30 6008 H 603 -0.848404 4.07665 0
M  V30 6009 H 605.597 -3.62584 3.92985 0
M  V30 6010 H 605.94 -3.52133 2.22053 0
M  V30 6011 H 606.473 -2.21381 3.30507 0
M  V30 6012 H 603.212 -1.86929 6.28282 0
M  V30 6013 H 602.732 -3.12579 5.11913 0
M  V30 6014 H 604.411 -3.046 5.70813 0
M  V30 6015 N 604.543 -1.41418 -0.695603 0
M  V30 6016 C 605.473 -1.46035 -1.82197 0
M  V30 6017 C 606.454 -0.319025 -1.67082 0
M  V30 6018 O 607.639 -0.530462 -1.86815 0
M  V30 6019 C 604.769 -1.34179 -3.20333 0
M  V30 6020 C 603.723 -2.46123 -3.50154 0
M  V30 6021 C 603.049 -2.19332 -4.87645 0
M  V30 6022 C 604.349 -3.88463 -3.49133 0
M  V30 6023 H 606.043 -2.40303 -1.78591 0
M  V30 6024 H 603.589 -1.15663 -0.857797 0
M  V30 6025 H 605.542 -1.36021 -3.98844 0
M  V30 6026 H 604.266 -0.363952 -3.24566 0
M  V30 6027 H 602.925 -2.43563 -2.73994 0
M  V30 6028 H 602.573 -1.19891 -4.88503 0
M  V30 6029 H 602.273 -2.94344 -5.08562 0
M  V30 6030 H 603.797 -2.22889 -5.68465 0
M  V30 6031 H 605.211 -3.92738 -4.17648 0
M  V30 6032 H 603.608 -4.63158 -3.81582 0
M  V30 6033 H 604.678 -4.16617 -2.48109 0
M  V30 6034 N 606.021 0.929856 -1.27246 0
M  V30 6035 C 606.984 2.01172 -1.09829 0
M  V30 6036 C 607.984 1.60743 -0.0429687 0
M  V30 6037 O 609.174 1.71813 -0.287373 0
M  V30 6038 C 606.306 3.34191 -0.673003 0
M  V30 6039 H 607.499 2.18054 -2.05895 0
M  V30 6040 H 605.052 1.11036 -1.10003 0
M  V30 6041 H 605.787 3.23009 0.289134 0
M  V30 6042 H 605.572 3.64892 -1.43515 0
M  V30 6043 H 607.062 4.13646 -0.573323 0
M  V30 6044 N 607.499 1.09233 1.13605 0
M  V30 6045 C 608.431 0.687794 2.18637 0
M  V30 6046 C 609.444 -0.26936 1.60556 0
M  V30 6047 O 610.633 -0.0557162 1.78413 0
M  V30 6048 C 607.733 -0.00751901 3.38899 0
M  V30 6049 C 606.906 0.97067 4.26494 0
M  V30 6050 C 605.965 0.309129 5.25291 0
M  V30 6051 O 604.991 0.956149 5.61112 0
M  V30 6052 N 606.193 -0.937555 5.72879 0
M  V30 6053 H 608.958 1.59141 2.53957 0
M  V30 6054 H 606.519 0.979515 1.28907 0
M  V30 6055 H 608.511 -0.461238 4.02063 0
M  V30 6056 H 607.081 -0.813353 3.01833 0
M  V30 6057 H 606.301 1.603 3.60135 0
M  V30 6058 H 607.589 1.63323 4.81875 0
M  V30 6059 H 606.987 -1.48281 5.4592 0
M  V30 6060 H 605.544 -1.33463 6.3799 0
M  V30 6061 N 608.977 -1.30795 0.87923 0
M  V30 6062 C 610.205 -2.00527 0.509548 0
M  V30 6063 C 610.62 -1.65944 -0.90045 0
M  V30 6064 O 609.977 -0.893525 -1.5913 0
M  V30 6065 C 610.028 -3.55276 0.667943 0
M  V30 6066 O 609.749 -3.88625 2.02242 0
M  V30 6067 C 611.25 -4.4228 0.300494 0
M  V30 6068 H 608.47 -0.641261 0.197549 0
M  V30 6069 H 611.014 -1.66813 1.18295 0
M  V30 6070 H 609.169 -3.87377 0.0419843 0
M  V30 6071 H 609.583 -4.83334 2.03688 0
M  V30 6072 H 611.057 -5.50061 0.462242 0
M  V30 6073 H 611.534 -4.32556 -0.76106 0
M  V30 6074 H 612.14 -4.15613 0.902536 0
M  V30 6075 N 610.455 -0.639598 -1.44038 0
M  V30 6076 C 611.703 -0.147188 -2.01563 0
M  V30 6077 C 612.024 1.2384 -1.50628 0
M  V30 6078 O 611.294 1.82452 -0.713316 0
M  V30 6079 H 609.874 -0.0514231 -0.745228 0
M  V30 6080 H 612.536 -0.828205 -1.76428 0
M  V30 6081 H 611.632 -0.121358 -3.11864 0
M  V30 6082 N 611.933 1.52934 -0.380664 0
M  V30 6083 C 612.88 2.26197 0.458641 0
M  V30 6084 C 613.85 1.27462 1.06502 0
M  V30 6085 O 615.035 1.56274 1.09467 0
M  V30 6086 C 612.175 3.06571 1.58456 0
M  V30 6087 C 611.288 4.20222 1.00189 0
M  V30 6088 C 610.423 4.88007 2.09815 0
M  V30 6089 C 609.462 5.93665 1.49092 0
M  V30 6090 N 608.599 6.55081 2.52613 0
M  V30 6091 H 613.439 2.975 -0.172595 0
M  V30 6092 H 610.976 1.4678 -0.0969426 0
M  V30 6093 H 612.934 3.51455 2.24801 0
M  V30 6094 H 611.564 2.37494 2.18624 0
M  V30 6095 H 610.616 3.79714 0.228292 0
M  V30 6096 H 611.928 4.96102 0.518064 0
M  V30 6097 H 611.082 5.36151 2.83948 0
M  V30 6098 H 609.821 4.11632 2.61555 0
M  V30 6099 H 608.826 5.44868 0.7348 0
M  V30 6100 H 610.051 6.71969 0.981582 0
M  V30 6101 H 607.997 5.8155 3.03538 0
M  V30 6102 H 607.914 7.26548 2.08961 0
M  V30 6103 H 609.182 7.07871 3.26402 0
M  V30 6104 N 613.412 0.11024 1.57214 0
M  V30 6105 C 614.637 -0.561179 1.99664 0
M  V30 6106 C 615.062 -1.59985 0.989266 0
M  V30 6107 O 614.42 -1.81255 -0.0402399 0
M  V30 6108 C 614.468 -1.17189 3.41027 0
M  V30 6109 O 613.572 -2.28755 3.4314 0
M  V30 6110 H 612.913 -0.14101 0.648855 0
M  V30 6111 H 615.443 0.196128 2.03658 0
M  V30 6112 H 615.453 -1.50954 3.79047 0
M  V30 6113 H 614.128 -0.411041 4.13864 0
M  V30 6114 H 612.705 -1.96495 3.16929 0
M  V30 6115 N 614.89 -1.56749 -0.16351 0
M  V30 6116 C 615.853 -1.96121 -1.18613 0
M  V30 6117 C 616.853 -0.845765 -1.36761 0
M  V30 6118 O 618.043 -1.11268 -1.34033 0
M  V30 6119 C 615.175 -2.26282 -2.54969 0
M  V30 6120 H 616.368 -2.87639 -0.848764 0
M  V30 6121 H 613.921 -1.50928 -0.406251 0
M  V30 6122 H 614.656 -1.37504 -2.93706 0
M  V30 6123 H 614.441 -3.07595 -2.43162 0
M  V30 6124 H 615.931 -2.57638 -3.28653 0
M  V30 6125 N 616.368 0.432326 -1.51554 0
M  V30 6126 C 617.598 1.2019 -1.68042 0
M  V30 6127 C 618.006 1.85356 -0.379434 0
M  V30 6128 O 617.349 1.71724 0.652427 0
M  V30 6129 C 617.411 2.32387 -2.74292 0
M  V30 6130 C 617.075 1.87548 -4.16743 0
M  V30 6131 C 618.072 1.37611 -5.01357 0
M  V30 6132 C 615.757 1.95087 -4.62868 0
M  V30 6133 C 617.751 0.958069 -6.30159 0
M  V30 6134 C 615.438 1.52894 -5.91664 0
M  V30 6135 C 616.436 1.03336 -6.75137 0
M  V30 6136 O 616.124 0.617435 -8.01525 0
M  V30 6137 H 615.856 0.368132 -0.56697 0
M  V30 6138 H 618.41 0.517875 -1.98764 0
M  V30 6139 H 616.64 3.04082 -2.38895 0
M  V30 6140 H 618.329 2.94235 -2.79608 0
M  V30 6141 H 619.095 1.31178 -4.66923 0
M  V30 6142 H 614.974 2.32606 -3.98015 0
M  V30 6143 H 618.518 0.570562 -6.95263 0
M  V30 6144 H 614.415 1.58999 -6.25611 0
M  V30 6145 H 615.183 0.742835 -8.15122 0
M  V30 6146 N 617.846 1.41785 0.688094 0
M  V30 6147 C 618.776 1.47 1.8142 0
M  V30 6148 C 619.757 0.327881 1.6691 0
M  V30 6149 O 620.942 0.540362 1.86531 0
M  V30 6150 C 618.072 1.35876 3.19617 0
M  V30 6151 C 617.026 2.47976 3.48844 0
M  V30 6152 C 616.352 2.21915 4.86475 0
M  V30 6153 C 617.652 3.90309 3.47068 0
M  V30 6154 H 619.346 2.41247 1.77314 0
M  V30 6155 H 616.892 1.16116 0.851651 0
M  V30 6156 H 618.845 1.38134 3.98117 0
M  V30 6157 H 617.569 0.38116 3.24368 0
M  V30 6158 H 616.228 2.45013 2.72698 0
M  V30 6159 H 615.876 1.2248 4.8786 0
M  V30 6160 H 615.576 2.97037 5.06994 0
M  V30 6161 H 617.1 2.25901 5.67275 0
M  V30 6162 H 618.514 3.94947 4.1556 0
M  V30 6163 H 616.911 4.65175 3.7912 0
M  V30 6164 H 617.981 4.17927 2.45896 0
M  V30 6165 N 619.324 -0.923095 1.27737 0
M  V30 6166 C 620.573 -1.66581 1.13727 0
M  V30 6167 C 620.886 -1.9304 -0.315433 0
M  V30 6168 O 622.092 -2.65309 -0.57651 0
M  V30 6169 C 620.548 -3.00047 1.98745 0
M  V30 6170 C 620.156 -2.8127 3.48699 0
M  V30 6171 C 621.9 -3.77887 1.93395 0
M  V30 6172 C 619.807 -4.1032 4.25901 0
M  V30 6173 H 618.737 -0.624834 0.422017 0
M  V30 6174 H 621.388 -1.02514 1.52194 0
M  V30 6175 H 619.77 -3.65197 1.53125 0
M  V30 6176 H 620.944 -2.24859 4.02213 0
M  V30 6177 H 619.259 -2.16854 3.55476 0
M  V30 6178 H 621.856 -4.73526 2.48348 0
M  V30 6179 H 622.199 -4.06264 0.908605 0
M  V30 6180 H 622.732 -3.19541 2.36935 0
M  V30 6181 H 619.471 -3.8712 5.28978 0
M  V30 6182 H 618.991 -4.66377 3.77163 0
M  V30 6183 H 620.67 -4.78648 4.35321 0
M  V30 6184 N 620.802 -1.09834 -1.13024 0
M  V30 6185 C 622.049 -0.83695 -1.84395 0
M  V30 6186 C 622.377 0.637463 -1.83757 0
M  V30 6187 O 621.632 1.48554 -1.27398 0
M  V30 6188 C 621.931 -1.32263 -3.32026 0
M  V30 6189 C 621.597 -2.80739 -3.52841 0
M  V30 6190 C 620.259 -3.21286 -3.5823 0
M  V30 6191 C 622.611 -3.76449 -3.60466 0
M  V30 6192 C 619.939 -4.56308 -3.68781 0
M  V30 6193 C 622.291 -5.11266 -3.72546 0
M  V30 6194 C 620.955 -5.51397 -3.76189 0
M  V30 6195 H 620.225 -0.306262 -0.674748 0
M  V30 6196 H 622.872 -1.37385 -1.33408 0
M  V30 6197 H 621.177 -0.705618 -3.85394 0
M  V30 6198 H 622.874 -1.09695 -3.85705 0
M  V30 6199 H 619.464 -2.48363 -3.49305 0
M  V30 6200 H 623.648 -3.46234 -3.55578 0
M  V30 6201 H 618.904 -4.86832 -3.69871 0
M  V30 6202 H 623.078 -5.85279 -3.77388 0
M  V30 6203 H 620.705 -6.56017 -3.84117 0
M  V30 6204 N 622.28 1.30327 -0.886154 0
M  V30 6205 C 623.557 1.90922 -0.425217 0
M  V30 6206 C 623.937 1.80533 1.09413 0
M  V30 6207 O 623.285 1.2233 1.92996 0
M  V30 6208 C 623.495 3.36529 -0.924638 0
M  V30 6209 C 624.843 4.13598 -0.960305 0
M  V30 6210 O 625.867 3.45377 -0.871382 0
M  V30 6211 O 624.726 5.35482 -1.09184 0
M  V30 6212 H 621.82 0.81668 -0.130238 0
M  V30 6213 H 624.366 1.38886 -0.975132 0
M  V30 6214 H 623.138 3.38181 -1.96849 0
M  V30 6215 H 622.761 3.96021 -0.353955 0
M  V30 6216 N 623.758 0.647228 1.43697 0
M  V30 6217 C 625.035 0.0883758 1.954 0
M  V30 6218 C 625.415 -1.39006 1.58873 0
M  V30 6219 O 624.763 -2.11255 0.87083 0
M  V30 6220 C 624.973 0.328263 3.47453 0
M  V30 6221 C 626.321 0.230009 4.23977 0
M  V30 6222 O 627.345 0.260496 3.55246 0
M  V30 6223 O 626.204 0.148615 5.46298 0
M  V30 6224 H 623.298 -0.0130683 0.826897 0
M  V30 6225 H 625.844 0.72005 1.53666 0
M  V30 6226 H 624.616 1.3535 3.67146 0
M  V30 6227 H 624.239 -0.336772 3.96171 0
M  V30 6228 N 625.236 -1.5273 0.388769 0
M  V30 6229 C 626.461 -2.0647 -0.19621 0
M  V30 6230 C 626.886 -1.25865 -1.39784 0
M  V30 6231 O 626.244 -0.283562 -1.79069 0
M  V30 6232 C 626.292 -3.56456 -0.5451 0
M  V30 6233 O 625.396 -3.78426 -1.63912 0
M  V30 6234 H 624.737 -0.663599 -0.023067 0
M  V30 6235 H 627.267 -1.96898 0.556084 0
M  V30 6236 H 627.277 -3.99888 -0.809557 0
M  V30 6237 H 625.952 -4.14561 0.333417 0
M  V30 6238 H 624.529 -3.46884 -1.36842 0
M  V30 6239 N 626.714 -0.118576 -1.57153 0
M  V30 6240 C 627.96 0.540326 -1.95469 0
M  V30 6241 C 628.293 1.66356 -1.00196 0
M  V30 6242 O 627.568 1.94461 -0.039104 0
M  V30 6243 C 627.851 1.07342 -3.43729 0
M  V30 6244 C 627.704 -0.0463732 -4.49776 0
M  V30 6245 C 629.023 1.96442 -3.93826 0
M  V30 6246 H 626.142 0.19494 -0.710751 0
M  V30 6247 H 628.784 -0.19405 -1.89006 0
M  V30 6248 H 626.934 1.69925 -3.49368 0
M  V30 6249 H 628.606 -0.681648 -4.56236 0
M  V30 6250 H 626.849 -0.709574 -4.27957 0
M  V30 6251 H 627.52 0.367856 -5.50773 0
M  V30 6252 H 629.996 1.43731 -3.90488 0
M  V30 6253 H 628.872 2.3066 -4.98084 0
M  V30 6254 H 629.133 2.89077 -3.34495 0
M  V30 6255 N 628.193 1.56834 0.155195 0
M  V30 6256 C 629.609 1.51315 0.50755 0
M  V30 6257 C 629.809 0.825614 1.83809 0
M  V30 6258 O 628.865 0.39271 2.49427 0
M  V30 6259 C 630.178 2.96074 0.52542 0
M  V30 6260 C 631.726 3.06968 0.611505 0
M  V30 6261 C 632.201 4.53218 0.660115 0
M  V30 6262 N 633.692 4.5753 0.722564 0
M  V30 6263 C 634.427 5.68056 0.781023 0
M  V30 6264 N 633.923 6.88173 0.799327 0
M  V30 6265 N 635.716 5.56068 0.821278 0
M  V30 6266 H 627.867 1.9993 -0.717063 0
M  V30 6267 H 630.13 0.911507 -0.260496 0
M  V30 6268 H 629.836 3.49599 -0.383875 0
M  V30 6269 H 629.71 3.51587 1.36624 0
M  V30 6270 H 632.097 2.53468 1.51122 0
M  V30 6271 H 632.178 2.54513 -0.256306 0
M  V30 6272 H 631.822 5.07354 -0.23541 0
M  V30 6273 H 631.752 5.03447 1.5443 0
M  V30 6274 H 634.243 3.71054 0.716049 0
M  V30 6275 H 634.556 7.6816 0.845553 0
M  V30 6276 H 632.901 6.90751 0.767337 0
M  V30 6277 H 636.092 4.61142 0.804091 0
M  V30 6278 H 636.265 6.42223 0.863372 0
M  V30 6279 N 629.671 -0.424282 1.51781 0
M  V30 6280 C 630.618 -1.51591 1.74037 0
M  V30 6281 C 631.588 -1.55556 0.582358 0
M  V30 6282 O 632.773 -1.72364 0.818245 0
M  V30 6283 C 629.913 -2.89188 1.8832 0
M  V30 6284 C 629.026 -2.9465 3.1592 0
M  V30 6285 C 628.161 -4.23452 3.20721 0
M  V30 6286 C 627.2 -4.22831 4.42584 0
M  V30 6287 N 626.337 -5.43178 4.44862 0
M  V30 6288 H 631.177 -1.31917 2.67212 0
M  V30 6289 H 628.714 -0.640599 1.32419 0
M  V30 6290 H 630.672 -3.69044 1.94583 0
M  V30 6291 H 629.302 -3.07392 0.985402 0
M  V30 6292 H 628.354 -2.07378 3.18902 0
M  V30 6293 H 629.666 -2.90055 4.05795 0
M  V30 6294 H 628.82 -5.1169 3.25973 0
M  V30 6295 H 627.559 -4.30722 2.28757 0
M  V30 6296 H 626.564 -3.32984 4.37495 0
M  V30 6297 H 627.789 -4.17213 5.35826 0
M  V30 6298 H 625.735 -5.51145 3.55775 0
M  V30 6299 H 625.652 -5.40515 5.28563 0
M  V30 6300 H 626.92 -6.33412 4.54324 0
M  V30 6301 N 631.149 -1.42148 -0.680565 0
M  V30 6302 C 632.374 -1.45901 -1.47403 0
M  V30 6303 C 632.799 -0.0700985 -1.87969 0
M  V30 6304 O 632.157 0.930145 -1.55621 0
M  V30 6305 C 632.205 -2.38661 -2.70321 0
M  V30 6306 O 631.309 -1.85399 -3.68376 0
M  V30 6307 H 630.65 -0.494565 -0.443059 0
M  V30 6308 H 633.18 -1.86774 -0.835251 0
M  V30 6309 H 633.19 -2.55046 -3.18458 0
M  V30 6310 H 631.865 -3.39571 -2.40134 0
M  V30 6311 H 630.442 -1.78541 -3.2738 0
M  V30 6312 N 632.627 0.916307 -1.28225 0
M  V30 6313 C 633.557 2.0352 -1.14464 0
M  V30 6314 C 634.538 1.70045 -0.0430844 0
M  V30 6315 O 635.723 1.92954 -0.219619 0
M  V30 6316 C 632.853 3.37889 -0.803027 0
M  V30 6317 C 631.807 3.85516 -1.85908 0
M  V30 6318 C 631.133 5.1682 -1.37116 0
M  V30 6319 C 632.433 4.07655 -3.26519 0
M  V30 6320 H 634.127 2.1529 -2.08064 0
M  V30 6321 H 631.673 1.03446 -1.00174 0
M  V30 6322 H 633.626 4.15654 -0.693537 0
M  V30 6323 H 632.35 3.26164 0.168674 0
M  V30 6324 H 631.009 3.09953 -1.95767 0
M  V30 6325 H 630.657 5.01497 -0.38859 0
M  V30 6326 H 630.357 5.49657 -2.07728 0
M  V30 6327 H 631.881 5.97143 -1.27484 0
M  V30 6328 H 633.295 4.75953 -3.19596 0
M  V30 6329 H 631.692 4.51818 -3.94943 0
M  V30 6330 H 632.762 3.12553 -3.70727 0
M  V30 6331 N 634.105 1.10431 1.1244 0
M  V30 6332 C 635.33 0.869089 1.88313 0
M  V30 6333 C 635.755 -0.574912 1.79099 0
M  V30 6334 O 635.113 -1.40496 1.14589 0
M  V30 6335 C 635.161 1.32208 3.3549 0
M  V30 6336 O 634.265 0.487092 4.09513 0
M  V30 6337 H 633.606 0.313894 0.585121 0
M  V30 6338 H 636.136 1.47111 1.42195 0
M  V30 6339 H 636.146 1.31201 3.86329 0
M  V30 6340 H 634.821 2.37364 3.41513 0
M  V30 6341 H 633.398 0.562372 3.68635 0
M  V30 6342 N 635.583 -1.29855 0.893053 0
M  V30 6343 C 636.53 -2.27909 0.364161 0
M  V30 6344 C 637.5 -1.56726 -0.550093 0
M  V30 6345 O 638.685 -1.84747 -0.47677 0
M  V30 6346 C 635.825 -3.42678 -0.408178 0
M  V30 6347 C 634.938 -4.28659 0.536212 0
M  V30 6348 C 634.073 -5.30599 -0.252521 0
M  V30 6349 C 633.112 -6.08234 0.686822 0
M  V30 6350 N 632.249 -7.02068 -0.0670902 0
M  V30 6351 H 637.089 -2.72531 1.20544 0
M  V30 6352 H 634.626 -1.34047 0.605779 0
M  V30 6353 H 636.584 -4.07986 -0.871962 0
M  V30 6354 H 635.214 -2.99103 -1.21397 0
M  V30 6355 H 634.266 -3.63584 1.1185 0
M  V30 6356 H 635.578 -4.8274 1.25552 0
M  V30 6357 H 634.732 -6.01694 -0.777801 0
M  V30 6358 H 633.471 -4.77233 -1.005 0
M  V30 6359 H 632.476 -5.3601 1.22366 0
M  V30 6360 H 633.701 -6.63689 1.43852 0
M  V30 6361 H 631.647 -6.5108 -0.801955 0
M  V30 6362 H 631.564 -7.53675 0.59243 0
M  V30 6363 H 632.832 -7.77392 -0.572851 0
M  V30 6364 N 637.061 -0.65484 -1.43351 0
M  V30 6365 C 638.31 -0.166215 -2.01014 0
M  V30 6366 C 638.623 1.22764 -1.52278 0
M  V30 6367 O 639.829 1.81156 -2.02224 0
M  V30 6368 C 638.285 -0.246341 -3.59056 0
M  V30 6369 C 637.893 -1.64299 -4.16785 0
M  V30 6370 C 639.637 0.184597 -4.24098 0
M  V30 6371 C 637.544 -1.67695 -5.67126 0
M  V30 6372 H 636.474 -0.0583769 -0.751737 0
M  V30 6373 H 639.125 -0.817111 -1.64303 0
M  V30 6374 H 637.507 0.472092 -3.93176 0
M  V30 6375 H 638.681 -2.3869 -3.94162 0
M  V30 6376 H 636.996 -2.02004 -3.6412 0
M  V30 6377 H 639.593 0.179088 -5.344 0
M  V30 6378 H 639.936 1.21632 -3.98135 0
M  V30 6379 H 640.469 -0.482141 -3.94867 0
M  V30 6380 H 637.208 -2.68783 -5.9786 0
M  V30 6381 H 636.728 -0.976313 -5.91801 0
M  V30 6382 H 638.407 -1.42142 -6.31193 0
M  V30 6383 N 638.539 1.52521 -0.396863 0
M  V30 6384 C 639.816 1.94112 0.240842 0
M  V30 6385 C 640.196 1.33288 1.637 0
M  V30 6386 O 639.544 0.503901 2.22875 0
M  V30 6387 C 639.754 3.48033 0.259567 0
M  V30 6388 C 641.102 4.21822 0.484866 0
M  V30 6389 O 642.126 3.54579 0.339453 0
M  V30 6390 O 640.985 5.41042 0.770412 0
M  V30 6391 H 638.079 0.812973 0.151671 0
M  V30 6392 H 640.625 1.63572 -0.451918 0
M  V30 6393 H 639.397 3.84655 -0.718078 0
M  V30 6394 H 639.02 3.84899 0.996937 0
M  V30 6395 N 640.017 0.126909 1.57088 0
M  V30 6396 C 640.964 -0.82036 2.15728 0
M  V30 6397 C 641.934 -1.25811 1.08447 0
M  V30 6398 O 643.119 -1.33422 1.36393 0
M  V30 6399 C 640.259 -2.06199 2.76724 0
M  V30 6400 C 639.372 -1.67188 3.98337 0
M  V30 6401 C 638.507 -2.86378 4.47393 0
M  V30 6402 C 637.546 -2.43644 5.61519 0
M  V30 6403 N 636.683 -3.55775 6.05284 0
M  V30 6404 H 641.523 -0.313472 2.96347 0
M  V30 6405 H 639.06 -0.14303 1.46403 0
M  V30 6406 H 641.018 -2.78959 3.10222 0
M  V30 6407 H 639.648 -2.54333 1.98782 0
M  V30 6408 H 638.7 -0.842714 3.70948 0
M  V30 6409 H 640.012 -1.31789 4.81075 0
M  V30 6410 H 639.166 -3.67353 4.82842 0
M  V30 6411 H 637.905 -3.25009 3.63621 0
M  V30 6412 H 636.91 -1.61104 5.25667 0
M  V30 6413 H 638.135 -2.06122 6.47063 0
M  V30 6414 H 636.081 -3.94065 5.24451 0
M  V30 6415 H 635.998 -3.24325 6.82898 0
M  V30 6416 H 637.266 -4.37166 6.45373 0
M  V30 6417 N 641.495 -1.56914 -0.146875 0
M  V30 6418 C 642.725 -1.87243 -0.873126 0
M  V30 6419 C 643.133 -0.713127 -1.75246 0
M  V30 6420 O 642.476 0.326228 -1.8078 0
M  V30 6421 C 642.538 -3.12279 -1.78107 0
M  V30 6422 C 642.202 -4.44082 -1.07889 0
M  V30 6423 C 643.199 -5.18096 -0.432734 0
M  V30 6424 C 640.884 -4.90807 -1.06836 0
M  V30 6425 C 642.878 -6.37039 0.214569 0
M  V30 6426 C 640.565 -6.09674 -0.417243 0
M  V30 6427 C 641.563 -6.82636 0.223093 0
M  V30 6428 O 641.251 -7.99245 0.863884 0
M  V30 6429 H 640.983 -0.624896 -0.257839 0
M  V30 6430 H 643.537 -2.04892 -0.14434 0
M  V30 6431 H 641.767 -2.90639 -2.5508 0
M  V30 6432 H 643.456 -3.28854 -2.37929 0
M  V30 6433 H 644.222 -4.83066 -0.432677 0
M  V30 6434 H 640.101 -4.3394 -1.55618 0
M  V30 6435 H 643.645 -6.93927 0.714965 0
M  V30 6436 H 639.542 -6.44165 -0.414967 0
M  V30 6437 H 640.31 -8.14912 0.765564 0
M  V30 6438 N 642.974 0.416227 -1.52004 0
M  V30 6439 C 644.223 1.16088 -1.64944 0
M  V30 6440 C 644.536 1.91835 -0.381928 0
M  V30 6441 O 645.742 2.6867 -0.391013 0
M  V30 6442 C 644.198 2.1124 -2.91386 0
M  V30 6443 C 643.806 1.41042 -4.25219 0
M  V30 6444 C 645.55 2.86008 -3.13688 0
M  V30 6445 C 643.457 2.34801 -5.42791 0
M  V30 6446 H 642.387 0.437041 -0.61442 0
M  V30 6447 H 645.038 0.425971 -1.78487 0
M  V30 6448 H 643.42 2.88254 -2.71525 0
M  V30 6449 H 644.594 0.694416 -4.55538 0
M  V30 6450 H 642.909 0.78344 -4.08964 0
M  V30 6451 H 645.506 3.56286 -3.98703 0
M  V30 6452 H 645.849 3.48556 -2.27628 0
M  V30 6453 H 646.382 2.16095 -3.33988 0
M  V30 6454 H 643.121 1.7691 -6.31176 0
M  V30 6455 H 642.641 3.04395 -5.16821 0
M  V30 6456 H 644.32 2.9548 -5.75587 0
M  V30 6457 N 644.452 1.42507 0.673017 0
M  V30 6458 C 645.7 1.42789 1.43023 0
M  V30 6459 C 646.021 0.0459738 1.94946 0
M  V30 6460 O 645.291 -0.915765 1.73178 0
M  V30 6461 H 643.871 0.525657 0.530748 0
M  V30 6462 H 646.533 1.77944 0.795113 0
M  V30 6463 H 645.629 2.12872 2.28237 0
M  V30 6464 N 645.93 -0.909495 1.28709 0
M  V30 6465 C 646.86 -2.0291 1.15542 0
M  V30 6466 C 647.841 -1.7002 0.0521017 0
M  V30 6467 O 649.026 -1.92835 0.229849 0
M  V30 6468 C 646.156 -3.37458 0.820935 0
M  V30 6469 C 645.11 -3.84524 1.87949 0
M  V30 6470 C 644.436 -5.16086 1.39854 0
M  V30 6471 C 645.736 -4.05918 3.28676 0
M  V30 6472 H 647.43 -2.14183 2.09203 0
M  V30 6473 H 644.976 -1.02913 1.00722 0
M  V30 6474 H 646.929 -4.1528 0.715571 0
M  V30 6475 H 645.653 -3.26249 -0.151374 0
M  V30 6476 H 644.312 -3.08911 1.97408 0
M  V30 6477 H 643.96 -5.01284 0.41518 0
M  V30 6478 H 643.66 -5.48547 2.1064 0
M  V30 6479 H 645.184 -5.96459 1.30649 0
M  V30 6480 H 646.598 -4.74252 3.22115 0
M  V30 6481 H 644.995 -4.49717 3.97334 0
M  V30 6482 H 646.065 -3.10583 3.72379 0
M  V30 6483 N 647.408 -1.11026 -1.11852 0
M  V30 6484 C 648.656 -0.854769 -1.83134 0
M  V30 6485 C 648.977 0.621375 -1.84835 0
M  V30 6486 O 648.247 1.45129 -1.31584 0
M  V30 6487 H 646.827 -0.313229 -0.678157 0
M  V30 6488 H 649.489 -1.40178 -1.35411 0
M  V30 6489 H 648.585 -1.22311 -2.87135 0
M  V30 6490 N 648.886 1.2938 -0.899927 0
M  V30 6491 C 650.132 1.9584 -0.526742 0
M  V30 6492 C 650.465 1.70774 0.924651 0
M  V30 6493 O 649.74 1.02084 1.65557 0
M  V30 6494 C 650.023 3.50638 -0.820062 0
M  V30 6495 C 649.876 3.85161 -2.32317 0
M  V30 6496 C 651.195 4.3903 -0.30671 0
M  V30 6497 H 648.314 0.711322 -0.192848 0
M  V30 6498 H 650.956 1.52992 -1.12665 0
M  V30 6499 H 649.106 3.87265 -0.309491 0
M  V30 6500 H 650.778 3.58477 -2.9033 0
M  V30 6501 H 649.021 3.32696 -2.78381 0
M  V30 6502 H 649.692 4.93204 -2.47898 0
M  V30 6503 H 652.168 4.09396 -0.743908 0
M  V30 6504 H 651.044 5.46226 -0.541144 0
M  V30 6505 H 651.305 4.34937 0.792588 0
M  V30 6506 N 650.364 0.662433 1.43002 0
M  V30 6507 C 651.327 -0.0142016 2.29196 0
M  V30 6508 C 652.327 -0.741394 1.42688 0
M  V30 6509 O 653.517 -0.581257 1.64216 0
M  V30 6510 C 650.649 -1.03084 3.24941 0
M  V30 6511 H 651.842 0.7443 2.90517 0
M  V30 6512 H 649.395 0.424133 1.50435 0
M  V30 6513 H 650.13 -1.81826 2.68533 0
M  V30 6514 H 649.915 -0.512946 3.8873 0
M  V30 6515 H 651.405 -1.50308 3.89612 0
M  V30 6516 N 651.842 -1.52309 0.404946 0
M  V30 6517 C 653.253 -1.86585 -0.0655926 0
M  V30 6518 C 653.604 -1.3239 -1.44801 0
M  V30 6519 O 652.729 -0.6615 -2.06042 0
M  V30 6520 C 653.324 -3.38566 -0.125801 0
M  V30 6521 C 651.883 -3.72497 -0.540666 0
M  V30 6522 C 651.03 -2.75806 0.287487 0
M  V30 6523 H 653.981 -1.45995 0.622185 0
M  V30 6524 H 654.002 -3.68658 -0.941888 0
M  V30 6525 H 653.514 -3.77981 0.880473 0
M  V30 6526 H 651.615 -3.38659 -1.55373 0
M  V30 6527 H 651.728 -4.78234 -0.287956 0
M  V30 6528 H 650.092 -2.53474 -0.249561 0
M  V30 6529 H 650.875 -3.18059 1.29203 0
M  V30 6530 N 653.32 -0.135238 -1.57019 0
M  V30 6531 C 654.548 0.526066 -2.001 0
M  V30 6532 C 654.963 1.59184 -1.01519 0
M  V30 6533 O 654.32 1.82497 -0.0104258 0
M  V30 6534 C 654.371 1.13744 -3.43139 0
M  V30 6535 O 654.092 0.114259 -4.37951 0
M  V30 6536 C 655.593 1.8805 -4.01438 0
M  V30 6537 H 652.813 0.137962 -0.656664 0
M  V30 6538 H 655.357 -0.226359 -2.03243 0
M  V30 6539 H 653.512 1.84056 -3.40885 0
M  V30 6540 H 653.926 0.56058 -5.21496 0
M  V30 6541 H 655.4 2.26133 -5.03555 0
M  V30 6542 H 655.877 2.76194 -3.41487 0
M  V30 6543 H 656.483 1.22464 -4.07287 0
M  V30 6544 N 654.798 1.5699 0.138552 0
M  V30 6545 C 655.761 1.97984 1.15478 0
M  V30 6546 C 656.761 0.867416 1.35398 0
M  V30 6547 O 657.951 1.13387 1.32246 0
M  V30 6548 C 655.083 2.3031 2.51337 0
M  V30 6549 H 656.276 2.88953 0.802896 0
M  V30 6550 H 653.829 1.51555 0.382189 0
M  V30 6551 H 654.564 1.42159 2.91481 0
M  V30 6552 H 654.349 3.11425 2.38237 0
M  V30 6553 H 655.839 2.62834 3.24512 0
M  V30 6554 N 656.276 -0.40816 1.52223 0
M  V30 6555 C 657.553 -1.16807 1.56893 0
M  V30 6556 C 657.933 -2.08169 0.350537 0
M  V30 6557 O 657.281 -2.18684 -0.662536 0
M  V30 6558 C 657.491 -1.94451 2.8981 0
M  V30 6559 C 658.839 -2.50484 3.42845 0
M  V30 6560 O 659.863 -2.0463 2.91556 0
M  V30 6561 O 658.722 -3.34192 4.3241 0
M  V30 6562 H 655.816 -0.533382 0.632007 0
M  V30 6563 H 658.362 -0.414862 1.64551 0
M  V30 6564 H 657.134 -1.27527 3.69936 0
M  V30 6565 H 656.757 -2.76775 2.85449 0
M  V30 6566 N 657.755 -1.42862 -0.66545 0
M  V30 6567 C 658.98 -1.47456 -1.45848 0
M  V30 6568 C 659.405 -0.0900312 -1.87884 0
M  V30 6569 O 658.763 0.913587 -1.56599 0
M  V30 6570 C 658.811 -2.41514 -2.67774 0
M  V30 6571 O 657.915 -1.89296 -3.66389 0
M  V30 6572 H 657.256 -0.499236 -0.437789 0
M  V30 6573 H 659.786 -1.8765 -0.815394 0
M  V30 6574 H 659.796 -2.58409 -3.15735 0
M  V30 6575 H 658.471 -3.42099 -2.36519 0
M  V30 6576 H 657.048 -1.82003 -3.25468 0
M  V30 6577 N 659.233 0.902656 -1.29189 0
M  V30 6578 C 660.163 2.02294 -1.16616 0
M  V30 6579 C 661.144 1.6999 -0.0611175 0
M  V30 6580 O 662.329 1.9271 -0.240072 0
M  V30 6581 C 659.459 3.37018 -0.83882 0
M  V30 6582 C 658.413 3.83522 -1.89986 0
M  V30 6583 C 657.739 5.15337 -1.42589 0
M  V30 6584 C 659.039 4.04169 -3.30824 0
M  V30 6585 H 660.733 2.13071 -2.10336 0
M  V30 6586 H 658.279 1.02378 -1.01266 0
M  V30 6587 H 660.232 4.14895 -0.737584 0
M  V30 6588 H 658.956 3.26325 0.134071 0
M  V30 6589 H 657.615 3.07859 -1.99043 0
M  V30 6590 H 657.263 5.01056 -0.441759 0
M  V30 6591 H 656.963 5.47423 -2.13547 0
M  V30 6592 H 658.487 5.95758 -1.3381 0
M  V30 6593 H 659.901 4.72537 -3.24626 0
M  V30 6594 H 658.298 4.47604 -3.99713 0
M  V30 6595 H 659.368 3.08604 -3.74021 0
M  V30 6596 N 660.711 1.11618 1.11262 0
M  V30 6597 C 661.957 0.867463 1.83311 0
M  V30 6598 C 662.29 -0.605366 1.84524 0
M  V30 6599 O 661.565 -1.44704 1.29965 0
M  V30 6600 C 661.848 1.43207 3.30399 0
M  V30 6601 C 661.701 2.97265 3.3757 0
M  V30 6602 C 663.02 1.08454 4.26528 0
M  V30 6603 H 660.139 0.316578 0.665543 0
M  V30 6604 H 662.781 1.38137 1.30454 0
M  V30 6605 H 660.931 0.994982 3.75543 0
M  V30 6606 H 662.603 3.49591 3.00971 0
M  V30 6607 H 660.846 3.33237 2.77733 0
M  V30 6608 H 661.517 3.31859 4.41105 0
M  V30 6609 H 663.993 1.4619 3.89574 0
M  V30 6610 H 662.869 1.50633 5.27826 0
M  V30 6611 H 663.13 -0.00444568 4.421 0
M  V30 6612 N 662.189 -1.289 0.906776 0
M  V30 6613 C 663.136 -2.2751 0.388313 0
M  V30 6614 C 664.106 -1.57301 -0.533439 0
M  V30 6615 O 665.291 -1.85243 -0.457148 0
M  V30 6616 C 662.431 -3.43091 -0.37181 0
M  V30 6617 C 661.544 -4.28066 0.581647 0
M  V30 6618 C 660.679 -5.30837 -0.19623 0
M  V30 6619 C 659.718 -6.07472 0.751294 0
M  V30 6620 N 658.855 -7.021 0.00737727 0
M  V30 6621 H 663.695 -2.71237 1.23428 0
M  V30 6622 H 661.232 -1.33397 0.619962 0
M  V30 6623 H 663.19 -4.08888 -0.828641 0
M  V30 6624 H 661.82 -3.00374 -1.18218 0
M  V30 6625 H 660.872 -3.62378 1.157 0
M  V30 6626 H 662.184 -4.81382 1.30665 0
M  V30 6627 H 661.338 -6.02485 -0.71394 0
M  V30 6628 H 660.077 -4.78272 -0.954324 0
M  V30 6629 H 659.082 -5.34682 1.28044 0
M  V30 6630 H 660.307 -6.62126 1.50883 0
M  V30 6631 H 658.253 -6.51894 -0.732854 0
M  V30 6632 H 658.17 -7.53004 0.672334 0
M  V30 6633 H 659.438 -7.77956 -0.490365 0
M  V30 6634 N 663.667 -0.670007 -1.42649 0
M  V30 6635 C 664.597 -0.00258501 -2.335 0
M  V30 6636 C 665.578 0.794364 -1.50412 0
M  V30 6637 O 666.763 0.75248 -1.79029 0
M  V30 6638 C 663.893 0.952748 -3.33976 0
M  V30 6639 C 662.847 0.264733 -4.2718 0
M  V30 6640 C 662.173 1.33267 -5.17826 0
M  V30 6641 C 663.473 -0.853289 -5.15283 0
M  V30 6642 H 665.167 -0.761326 -2.89559 0
M  V30 6643 H 662.713 -0.367561 -1.3923 0
M  V30 6644 H 664.666 1.4287 -3.96442 0
M  V30 6645 H 663.39 1.74285 -2.7621 0
M  V30 6646 H 662.049 -0.190938 -3.66102 0
M  V30 6647 H 661.697 2.11464 -4.5639 0
M  V30 6648 H 661.397 0.877476 -5.81011 0
M  V30 6649 H 662.921 1.80965 -5.83167 0
M  V30 6650 H 664.335 -0.458763 -5.71462 0
M  V30 6651 H 662.732 -1.23398 -5.87276 0
M  V30 6652 H 663.802 -1.70412 -4.53969 0
M  V30 6653 N 665.145 1.52092 -0.413018 0
M  V30 6654 C 666.393 2.01456 0.161178 0
M  V30 6655 C 666.714 1.30034 1.45314 0
M  V30 6656 O 665.984 0.427435 1.9118 0
M  V30 6657 H 664.564 0.744376 0.0625526 0
M  V30 6658 H 667.226 1.86974 -0.550151 0
M  V30 6659 H 666.322 3.1008 0.354517 0
M  V30 6660 N 666.623 0.143563 1.56945 0
M  V30 6661 C 667.57 -0.797433 2.16586 0
M  V30 6662 C 668.54 -1.24654 1.09775 0
M  V30 6663 O 669.725 -1.31968 1.37801 0
M  V30 6664 C 666.865 -2.03253 2.78895 0
M  V30 6665 C 665.978 -1.62954 4.00087 0
M  V30 6666 C 665.113 -2.81617 4.50406 0
M  V30 6667 C 664.152 -2.37675 5.64072 0
M  V30 6668 N 663.289 -3.49335 6.09023 0
M  V30 6669 H 668.129 -0.282023 2.96662 0
M  V30 6670 H 665.666 -0.127494 1.46546 0
M  V30 6671 H 667.624 -2.75653 3.13163 0
M  V30 6672 H 666.254 -2.52211 2.01469 0
M  V30 6673 H 665.306 -0.803322 3.71821 0
M  V30 6674 H 666.618 -1.26679 4.82446 0
M  V30 6675 H 665.772 -3.62212 4.86711 0
M  V30 6676 H 664.511 -3.21134 3.67048 0
M  V30 6677 H 663.516 -1.55519 5.27346 0
M  V30 6678 H 664.741 -1.99247 6.49213 0
M  V30 6679 H 662.687 -3.8848 5.28601 0
M  V30 6680 H 662.604 -3.17064 6.86299 0
M  V30 6681 H 663.872 -4.30297 6.49973 0
M  V30 6682 N 668.101 -1.57061 -0.130224 0
M  V30 6683 C 669.034 -1.94698 -1.19029 0
M  V30 6684 C 670.012 -0.815074 -1.40696 0
M  V30 6685 O 671.196 -1.07223 -1.55034 0
M  V30 6686 C 668.323 -2.23352 -2.5462 0
M  V30 6687 C 667.369 -3.45945 -2.49448 0
M  V30 6688 S 668.202 -4.98927 -1.94505 0
M  V30 6689 C 669.358 -5.30721 -3.31792 0
M  V30 6690 H 669.591 -2.84308 -0.869272 0
M  V30 6691 H 667.124 -1.50688 -0.336531 0
M  V30 6692 H 669.082 -2.40539 -3.32643 0
M  V30 6693 H 667.743 -1.34376 -2.83905 0
M  V30 6694 H 666.936 -3.63324 -3.49302 0
M  V30 6695 H 666.538 -3.28086 -1.79543 0
M  V30 6696 H 668.83 -5.25215 -4.27966 0
M  V30 6697 H 669.773 -6.32048 -3.19251 0
M  V30 6698 H 670.181 -4.5821 -3.29703 0
M  V30 6699 N 669.579 0.400081 -1.52437 0
M  V30 6700 C 670.489 1.51253 -1.79331 0
M  V30 6701 C 671.505 1.60188 -0.679396 0
M  V30 6702 O 672.681 1.76733 -0.965791 0
M  V30 6703 C 669.746 2.869 -1.94652 0
M  V30 6704 C 668.807 2.87777 -3.18564 0
M  V30 6705 C 668.04 4.16954 -3.33145 0
M  V30 6706 O 668.263 5.11329 -2.52783 0
M  V30 6707 O 667.197 4.2487 -4.26343 0
M  V30 6708 H 671.023 1.31461 -2.73773 0
M  V30 6709 H 668.608 0.586834 -1.37392 0
M  V30 6710 H 670.49 3.67336 -2.065 0
M  V30 6711 H 669.165 3.06741 -1.034 0
M  V30 6712 H 668.072 2.06162 -3.12167 0
M  V30 6713 H 669.405 2.72886 -4.09627 0
M  V30 6714 N 671.057 1.43213 0.657864 0
M  V30 6715 C 672.305 1.44298 1.41501 0
M  V30 6716 C 672.626 0.0666478 1.94886 0
M  V30 6717 O 671.896 -0.897345 1.74139 0
M  V30 6718 H 670.476 0.531257 0.525143 0
M  V30 6719 H 673.138 1.78777 0.776195 0
M  V30 6720 H 672.234 2.1528 2.25966 0
M  V30 6721 N 672.536 -0.895792 1.29666 0
M  V30 6722 C 673.785 -1.64131 1.17234 0
M  V30 6723 C 674.098 -1.93665 -0.274416 0
M  V30 6724 O 675.304 -2.66472 -0.520105 0
M  V30 6725 C 673.76 -2.95764 2.05065 0
M  V30 6726 C 673.368 -2.7381 3.54587 0
M  V30 6727 C 675.112 -3.737 2.01367 0
M  V30 6728 C 673.019 -4.01194 4.34508 0
M  V30 6729 H 671.949 -0.615742 0.435175 0
M  V30 6730 H 674.6 -0.992626 1.54335 0
M  V30 6731 H 672.982 -3.61867 1.60837 0
M  V30 6732 H 674.156 -2.16277 4.06892 0
M  V30 6733 H 672.471 -2.09265 3.59996 0
M  V30 6734 H 675.068 -4.68152 2.58337 0
M  V30 6735 H 675.411 -4.04245 0.994575 0
M  V30 6736 H 675.944 -3.14444 2.43659 0
M  V30 6737 H 672.683 -3.75813 5.37071 0
M  V30 6738 H 672.203 -4.58272 3.86971 0
M  V30 6739 H 673.882 -4.69307 4.45376 0
M  V30 6740 N 674.014 -1.12206 -1.10668 0
M  V30 6741 C 675.291 -0.787382 -1.79052 0
M  V30 6742 C 675.671 0.723267 -1.98323 0
M  V30 6743 O 675.019 1.6561 -1.57434 0
M  V30 6744 C 675.229 -1.55968 -3.1221 0
M  V30 6745 C 676.577 -1.74413 -3.87125 0
M  V30 6746 O 677.601 -1.5246 -3.21923 0
M  V30 6747 O 676.46 -2.10952 -5.04144 0
M  V30 6748 H 673.554 -0.286137 -0.775922 0
M  V30 6749 H 676.1 -1.22595 -1.1734 0
M  V30 6750 H 674.872 -2.58692 -2.93588 0
M  V30 6751 H 674.495 -1.1152 -3.8164 0
M  V30 6752 N 675.492 1.28418 -0.913599 0
M  V30 6753 C 676.74 1.94596 -0.545594 0
M  V30 6754 C 677.061 1.7227 0.913668 0
M  V30 6755 O 676.331 1.06233 1.64595 0
M  V30 6756 H 674.911 0.720065 -0.198783 0
M  V30 6757 H 677.573 1.56404 -1.16292 0
M  V30 6758 H 676.669 3.03202 -0.739911 0
M  V30 6759 N 676.97 0.677563 1.42291 0
M  V30 6760 C 677.917 0.000947061 2.308 0
M  V30 6761 C 678.887 -0.789889 1.46116 0
M  V30 6762 O 680.072 -0.761578 1.74942 0
M  V30 6763 C 677.212 -0.942387 3.31984 0
M  V30 6764 C 676.325 -0.14508 4.31756 0
M  V30 6765 C 675.46 -1.08442 5.20013 0
M  V30 6766 C 674.499 -0.278958 6.11464 0
M  V30 6767 N 673.636 -1.17115 6.92263 0
M  V30 6768 H 678.476 0.761521 2.88106 0
M  V30 6769 H 676.013 0.38727 1.41911 0
M  V30 6770 H 677.971 -1.50317 3.89179 0
M  V30 6771 H 676.601 -1.66956 2.76271 0
M  V30 6772 H 675.653 0.532368 3.76656 0
M  V30 6773 H 676.965 0.48015 4.96484 0
M  V30 6774 H 676.119 -1.71504 5.81955 0
M  V30 6775 H 674.858 -1.74353 4.55469 0
M  V30 6776 H 673.863 0.364856 5.48588 0
M  V30 6777 H 675.088 0.376099 6.78058 0
M  V30 6778 H 673.034 -1.81661 6.30345 0
M  V30 6779 H 672.951 -0.601063 7.53607 0
M  V30 6780 H 674.219 -1.78915 7.58689 0
M  V30 6781 N 678.448 -1.51871 0.421078 0
M  V30 6782 C 679.411 -2.25914 -0.386712 0
M  V30 6783 C 680.411 -1.28733 -0.963555 0
M  V30 6784 O 681.601 -1.52579 -0.840556 0
M  V30 6785 C 678.733 -3.03853 -1.54551 0
M  V30 6786 H 679.926 -2.98754 0.261978 0
M  V30 6787 H 677.479 -1.5533 0.173862 0
M  V30 6788 H 678.214 -2.35392 -2.23072 0
M  V30 6789 H 677.999 -3.75215 -1.13824 0
M  V30 6790 H 679.489 -3.59984 -2.11663 0
M  V30 6791 N 679.926 -0.151884 -1.56866 0
M  V30 6792 C 680.856 0.781943 -2.20018 0
M  V30 6793 C 681.837 1.25347 -1.14987 0
M  V30 6794 O 683.022 1.31015 -1.43348 0
M  V30 6795 C 680.152 2.01928 -2.82564 0
M  V30 6796 C 679.106 1.68434 -3.93464 0
M  V30 6797 C 678.432 2.99472 -4.42968 0
M  V30 6798 C 679.732 0.927244 -5.14003 0
M  V30 6799 H 681.426 0.255607 -2.98307 0
M  V30 6800 H 678.972 0.121502 -1.43486 0
M  V30 6801 H 680.925 2.67741 -3.25411 0
M  V30 6802 H 679.649 2.56943 -2.01614 0
M  V30 6803 H 678.308 1.04998 -3.51242 0
M  V30 6804 H 677.956 3.52488 -3.58834 0
M  V30 6805 H 677.656 2.77823 -5.17772 0
M  V30 6806 H 679.18 3.66348 -4.88489 0
M  V30 6807 H 680.594 1.48756 -5.53665 0
M  V30 6808 H 678.991 0.810513 -5.94601 0
M  V30 6809 H 680.061 -0.0801163 -4.84834 0
M  V30 6810 N 681.404 1.57128 0.121893 0
M  V30 6811 C 682.632 1.88883 0.844451 0
M  V30 6812 C 683.047 0.742824 1.73573 0
M  V30 6813 O 682.404 -0.286475 1.80238 0
M  V30 6814 C 682.455 3.20076 1.68029 0
M  V30 6815 O 682.176 4.30264 0.824898 0
M  V30 6816 C 683.677 3.65515 2.50826 0
M  V30 6817 H 680.897 0.62549 0.242907 0
M  V30 6818 H 683.441 2.04219 0.107151 0
M  V30 6819 H 681.596 3.06418 2.37038 0
M  V30 6820 H 682.01 5.05439 1.40113 0
M  V30 6821 H 683.484 4.60081 3.05008 0
M  V30 6822 H 683.961 2.92029 3.28048 0
M  V30 6823 H 684.567 3.81952 1.87064 0
M  V30 6824 N 682.882 -0.391992 1.52647 0
M  V30 6825 C 683.792 -1.503 1.80131 0
M  V30 6826 C 684.808 -1.59825 0.687882 0
M  V30 6827 O 685.984 -1.76218 0.975149 0
M  V30 6828 C 683.049 -2.85863 1.96171 0
M  V30 6829 C 682.11 -2.86084 3.20085 0
M  V30 6830 C 681.343 -4.15181 3.35351 0
M  V30 6831 O 681.566 -5.09981 2.55491 0
M  V30 6832 O 680.5 -4.22603 4.28591 0
M  V30 6833 H 684.326 -1.30007 2.74466 0
M  V30 6834 H 681.911 -0.579539 1.37701 0
M  V30 6835 H 683.793 -3.66236 2.08445 0
M  V30 6836 H 682.468 -3.06189 1.05025 0
M  V30 6837 H 681.375 -2.04504 3.13256 0
M  V30 6838 H 682.708 -2.7071 4.11068 0
M  V30 6839 N 684.36 -1.4356 -0.65026 0
M  V30 6840 C 685.588 -1.48779 -1.43779 0
M  V30 6841 C 686.003 -0.106593 -1.88499 0
M  V30 6842 O 685.36 0.883766 -1.59674 0
M  V30 6843 C 685.411 -2.43618 -2.67081 0
M  V30 6844 O 685.132 -3.76367 -2.24231 0
M  V30 6845 C 686.633 -2.5811 -3.60409 0
M  V30 6846 H 683.853 -0.50521 -0.441593 0
M  V30 6847 H 686.397 -1.88332 -0.796941 0
M  V30 6848 H 684.552 -2.07253 -3.273 0
M  V30 6849 H 684.966 -4.27394 -3.0403 0
M  V30 6850 H 686.44 -3.28539 -4.43583 0
M  V30 6851 H 686.917 -1.627 -4.07953 0
M  V30 6852 H 687.523 -2.95298 -3.0607 0
M  V30 6853 N 685.838 0.888903 -1.30139 0
M  V30 6854 C 687.084 1.6428 -1.18912 0
M  V30 6855 C 687.417 1.92499 0.256477 0
M  V30 6856 O 686.692 1.54312 1.18397 0
M  V30 6857 C 686.975 2.9851 -2.01405 0
M  V30 6858 C 686.828 2.77288 -3.54163 0
M  V30 6859 C 688.147 3.99383 -1.84882 0
M  V30 6860 H 685.266 0.596148 -0.433333 0
M  V30 6861 H 687.908 1.0289 -1.5973 0
M  V30 6862 H 686.058 3.50907 -1.66722 0
M  V30 6863 H 687.73 2.31709 -3.98884 0
M  V30 6864 H 685.973 2.11867 -3.78543 0
M  V30 6865 H 686.644 3.72717 -4.07168 0
M  V30 6866 H 689.12 3.56132 -2.15196 0
M  V30 6867 H 687.996 4.91222 -2.44934 0
M  V30 6868 H 688.257 4.34674 -0.806902 0
M  V30 6869 N 687.317 1.12792 1.10072 0
M  V30 6870 C 688.28 0.802264 2.14701 0
M  V30 6871 C 689.28 -0.18515 1.59731 0
M  V30 6872 O 690.47 0.041109 1.74151 0
M  V30 6873 C 687.602 0.19285 3.40354 0
M  V30 6874 H 688.795 1.72932 2.45019 0
M  V30 6875 H 686.348 0.931662 1.25498 0
M  V30 6876 H 687.083 -0.743748 3.15656 0
M  V30 6877 H 686.868 0.903827 3.81541 0
M  V30 6878 H 688.358 -0.0183704 4.17596 0
M  V30 6879 N 688.795 -1.27931 0.920396 0
M  V30 6880 C 690.211 -1.47085 0.619537 0
M  V30 6881 C 690.411 -1.83463 -0.833291 0
M  V30 6882 O 689.467 -1.94363 -1.61181 0
M  V30 6883 C 690.78 -2.56878 1.56314 0
M  V30 6884 C 692.328 -2.70743 1.57058 0
M  V30 6885 C 692.803 -3.83687 2.50097 0
M  V30 6886 N 694.294 -3.9105 2.48262 0
M  V30 6887 C 695.029 -4.77842 3.16945 0
M  V30 6888 N 694.525 -5.69176 3.94982 0
M  V30 6889 N 696.318 -4.71509 3.06 0
M  V30 6890 H 688.469 -1.02601 1.85975 0
M  V30 6891 H 690.732 -0.511682 0.798051 0
M  V30 6892 H 690.438 -2.36923 2.59923 0
M  V30 6893 H 690.312 -3.54117 1.29928 0
M  V30 6894 H 692.699 -2.90083 0.541832 0
M  V30 6895 H 692.78 -1.74015 1.8749 0
M  V30 6896 H 692.424 -3.65101 3.53077 0
M  V30 6897 H 692.354 -4.79827 2.16964 0
M  V30 6898 H 694.845 -3.25738 1.91581 0
M  V30 6899 H 695.158 -6.32245 4.44394 0
M  V30 6900 H 693.503 -5.68995 3.99086 0
M  V30 6901 H 696.694 -3.99151 2.44533 0
M  V30 6902 H 696.867 -5.38933 3.59799 0
M  V30 6903 N 690.273 -0.685099 -1.4193 0
M  V30 6904 C 691.503 -0.220052 -2.05425 0
M  V30 6905 C 691.911 1.13185 -1.51611 0
M  V30 6906 O 691.254 1.71631 -0.654875 0
M  V30 6907 C 691.316 -0.0888364 -3.5939 0
M  V30 6908 C 690.98 -1.37109 -4.35947 0
M  V30 6909 C 691.977 -2.30675 -4.65924 0
M  V30 6910 C 689.662 -1.62155 -4.75406 0
M  V30 6911 C 691.656 -3.47556 -5.34306 0
M  V30 6912 C 689.343 -2.79324 -5.43527 0
M  V30 6913 C 690.341 -3.71848 -5.72903 0
M  V30 6914 O 690.029 -4.86966 -6.39624 0
M  V30 6915 H 689.761 -0.102165 -0.668235 0
M  V30 6916 H 692.315 -0.935194 -1.82875 0
M  V30 6917 H 690.545 0.681981 -3.80639 0
M  V30 6918 H 692.234 0.337669 -4.04493 0
M  V30 6919 H 693 -2.12579 -4.3593 0
M  V30 6920 H 688.879 -0.910053 -4.51928 0
M  V30 6921 H 692.423 -4.19794 -5.57153 0
M  V30 6922 H 688.32 -2.97342 -5.72938 0
M  V30 6923 H 689.088 -4.86644 -6.58118 0
M  V30 6924 N 691.751 1.51645 -0.429126 0
M  V30 6925 C 692.699 2.29119 0.400921 0
M  V30 6926 C 693.693 1.34628 1.02819 0
M  V30 6927 O 694.899 1.52004 0.964098 0
M  V30 6928 H 691.274 0.737273 0.148095 0
M  V30 6929 H 693.245 2.97144 -0.273457 0
M  V30 6930 C 691.994 3.13953 1.49429 0
M  V30 6931 H 691.317 3.86544 1.02097 0
M  V30 6932 H 692.757 3.71232 2.04849 0
M  V30 6933 C 691.216 2.28796 2.47293 0
M  V30 6934 O 691.746 1.94193 3.51642 0
M  V30 6935 N 689.952 1.92177 2.17982 0
M  V30 6936 H 689.499 2.20517 1.33154 0
M  V30 6937 H 689.457 1.35497 2.83704 0
M  V30 6938 N 693.229 0.160201 1.56784 0
M  V30 6939 C 694.454 -0.497373 2.01348 0
M  V30 6940 C 694.879 -1.56757 1.03966 0
M  V30 6941 O 694.237 -1.81292 0.0174455 0
M  V30 6942 C 694.285 -1.0628 3.44582 0
M  V30 6943 O 693.389 -2.17723 3.50244 0
M  V30 6944 H 692.73 -0.120295 0.653012 0
M  V30 6945 H 695.26 0.260821 2.02931 0
M  V30 6946 H 695.27 -1.38819 3.83658 0
M  V30 6947 H 693.945 -0.279166 4.14962 0
M  V30 6948 H 692.522 -1.86313 3.2302 0
M  V30 6949 N 694.707 -1.5719 -0.113559 0
M  V30 6950 C 695.637 -2.03772 -1.14013 0
M  V30 6951 C 696.618 -0.923176 -1.42869 0
M  V30 6952 O 697.803 -1.19325 -1.53216 0
M  V30 6953 C 694.933 -2.44663 -2.4649 0
M  V30 6954 C 693.887 -3.59612 -2.32085 0
M  V30 6955 C 693.213 -3.8642 -3.69573 0
M  V30 6956 C 694.513 -4.91149 -1.7768 0
M  V30 6957 H 696.207 -2.89785 -0.752665 0
M  V30 6958 H 693.753 -1.39412 -0.360609 0
M  V30 6959 H 695.706 -2.75857 -3.18561 0
M  V30 6960 H 694.43 -1.55628 -2.87137 0
M  V30 6961 H 693.089 -3.28636 -1.62461 0
M  V30 6962 H 692.737 -2.94581 -4.07715 0
M  V30 6963 H 692.437 -4.63797 -3.60786 0
M  V30 6964 H 693.961 -4.2007 -4.4314 0
M  V30 6965 H 695.375 -5.20843 -2.39574 0
M  V30 6966 H 693.772 -5.72562 -1.79701 0
M  V30 6967 H 694.842 -4.79301 -0.734776 0
M  V30 6968 N 696.185 0.383891 -1.52853 0
M  V30 6969 C 697.431 1.13009 -1.68395 0
M  V30 6970 C 697.764 1.89488 -0.425195 0
M  V30 6971 O 697.039 1.8574 0.577136 0
M  V30 6972 C 697.322 2.10419 -2.92226 0
M  V30 6973 C 697.175 1.3767 -4.28214 0
M  V30 6974 C 698.494 3.10781 -3.11614 0
M  V30 6975 H 695.613 0.409463 -0.612788 0
M  V30 6976 H 698.255 0.412895 -1.85459 0
M  V30 6977 H 696.405 2.71579 -2.77808 0
M  V30 6978 H 698.077 0.794352 -4.54409 0
M  V30 6979 H 696.32 0.678533 -4.2846 0
M  V30 6980 H 696.991 2.08874 -5.10956 0
M  V30 6981 H 699.467 2.59715 -3.25096 0
M  V30 6982 H 698.343 3.76179 -3.99725 0
M  V30 6983 H 698.604 3.79933 -2.2606 0
M  V30 6984 N 697.663 1.43903 0.642637 0
M  V30 6985 C 698.888 1.49758 1.43483 0
M  V30 6986 C 699.313 0.119911 1.87717 0
M  V30 6987 O 698.671 -0.888558 1.58033 0
M  V30 6988 C 698.719 2.45744 2.63898 0
M  V30 6989 O 697.823 1.95101 3.63331 0
M  V30 6990 H 697.164 0.506138 0.429791 0
M  V30 6991 H 699.694 1.88923 0.785438 0
M  V30 6992 H 699.704 2.63399 3.11584 0
M  V30 6993 H 698.379 3.45818 2.31046 0
M  V30 6994 H 696.956 1.87158 3.22531 0
M  V30 6995 N 699.141 -0.881989 1.30609 0
M  V30 6996 C 700.366 -1.67236 1.22665 0
M  V30 6997 C 700.791 -1.8696 -0.206777 0
M  V30 6998 O 700.149 -1.4027 -1.14865 0
M  V30 6999 C 700.197 -3.02446 1.96363 0
M  V30 7000 O 699.301 -3.91614 1.29276 0
M  V30 7001 H 698.642 -0.510902 0.424117 0
M  V30 7002 H 701.172 -1.10055 1.72479 0
M  V30 7003 H 701.182 -3.52468 2.055 0
M  V30 7004 H 699.857 -2.8741 3.00613 0
M  V30 7005 H 698.434 -3.50055 1.28514 0
M  V30 7006 N 700.619 -1.13374 -1.09472 0
M  V30 7007 C 701.867 -0.893422 -1.8128 0
M  V30 7008 C 702.188 0.582029 -1.86111 0
M  V30 7009 O 701.458 1.42305 -1.34633 0
M  V30 7010 H 700.038 -0.327543 -0.67136 0
M  V30 7011 H 702.7 -1.43018 -1.32408 0
M  V30 7012 H 701.796 -1.28374 -2.84476 0
M  V30 7013 N 702.098 1.27442 -0.927168 0
M  V30 7014 C 703.045 2.26863 -0.424459 0
M  V30 7015 C 704.015 1.5813 0.508346 0
M  V30 7016 O 705.2 1.85946 0.42762 0
M  V30 7017 C 702.34 3.43639 0.31718 0
M  V30 7018 C 701.453 4.27087 -0.649675 0
M  V30 7019 C 700.588 5.31082 0.111753 0
M  V30 7020 C 699.627 6.062 -0.847843 0
M  V30 7021 N 698.764 7.01999 -0.119074 0
M  V30 7022 H 703.604 2.69239 -1.27728 0
M  V30 7023 H 701.141 1.32394 -0.641106 0
M  V30 7024 H 703.099 4.10155 0.763486 0
M  V30 7025 H 701.729 3.02217 1.13424 0
M  V30 7026 H 700.781 3.60491 -1.21451 0
M  V30 7027 H 702.093 4.79242 -1.38307 0
M  V30 7028 H 701.247 6.03544 0.618 0
M  V30 7029 H 699.986 4.7973 0.878114 0
M  V30 7030 H 698.991 5.32577 -1.36534 0
M  V30 7031 H 700.216 6.59642 -1.61398 0
M  V30 7032 H 698.162 6.52977 0.629051 0
M  V30 7033 H 698.079 7.5184 -0.792046 0
M  V30 7034 H 699.347 7.78638 0.366537 0
M  V30 7035 N 703.576 0.692616 1.41565 0
M  V30 7036 C 704.853 0.150496 1.9502 0
M  V30 7037 C 705.233 -1.33881 1.63215 0
M  V30 7038 O 704.581 -2.08378 0.937598 0
M  V30 7039 C 704.791 0.438636 3.46233 0
M  V30 7040 C 706.139 0.364777 4.2303 0
M  V30 7041 O 707.163 0.373383 3.54238 0
M  V30 7042 O 706.022 0.32234 5.45549 0
M  V30 7043 H 703.116 0.0132454 0.826894 0
M  V30 7044 H 705.662 0.768574 1.51298 0
M  V30 7045 H 704.434 1.46962 3.62654 0
M  V30 7046 H 704.057 -0.210562 3.97042 0
M  V30 7047 N 705.054 -1.51416 0.437162 0
M  V30 7048 C 706.282 -2.06503 -0.128045 0
M  V30 7049 C 706.697 -1.30461 -1.36475 0
M  V30 7050 O 706.054 -0.364127 -1.78831 0
M  V30 7051 C 706.105 -3.58683 -0.450437 0
M  V30 7052 O 705.826 -4.31853 0.737186 0
M  V30 7053 C 707.327 -4.30284 -1.06633 0
M  V30 7054 H 704.547 -0.670952 -0.00800269 0
M  V30 7055 H 707.091 -1.94996 0.616193 0
M  V30 7056 H 705.246 -3.70106 -1.14457 0
M  V30 7057 H 705.66 -5.22467 0.461347 0
M  V30 7058 H 707.134 -5.37848 -1.24191 0
M  V30 7059 H 707.611 -3.88564 -2.0473 0
M  V30 7060 H 708.217 -4.23304 -0.411585 0
M  V30 7061 N 706.532 -0.168513 -1.56696 0
M  V30 7062 C 707.809 0.523367 -1.88468 0
M  V30 7063 C 708.189 1.81503 -1.07796 0
M  V30 7064 O 707.537 2.27859 -0.171045 0
M  V30 7065 C 707.747 0.767991 -3.40445 0
M  V30 7066 C 709.095 1.09924 -4.10124 0
M  V30 7067 O 710.119 0.856625 -3.45746 0
M  V30 7068 O 708.978 1.55681 -5.23856 0
M  V30 7069 H 706.072 0.269447 -0.781874 0
M  V30 7070 H 708.618 -0.206739 -1.68436 0
M  V30 7071 H 707.39 -0.145254 -3.9103 0
M  V30 7072 H 707.013 1.55151 -3.66079 0
M  V30 7073 N 708.01 1.57248 0.105221 0
M  V30 7074 C 709.257 1.8557 0.810552 0
M  V30 7075 C 709.585 0.755595 1.79223 0
M  V30 7076 O 708.84 -0.251788 1.94073 0
M  V30 7077 C 709.139 3.20437 1.58287 0
M  V30 7078 C 708.805 4.44716 0.744235 0
M  V30 7079 C 707.467 4.78458 0.513013 0
M  V30 7080 C 709.819 5.20953 0.160578 0
M  V30 7081 C 707.147 5.8587 -0.311894 0
M  V30 7082 C 709.499 6.29235 -0.651596 0
M  V30 7083 C 708.163 6.615 -0.893005 0
M  V30 7084 H 707.433 0.67905 0.296602 0
M  V30 7085 H 710.08 1.91363 0.0723968 0
M  V30 7086 H 708.385 3.10283 2.39232 0
M  V30 7087 H 710.082 3.39576 2.13282 0
M  V30 7088 H 706.672 4.18287 0.934555 0
M  V30 7089 H 710.856 4.95226 0.3264 0
M  V30 7090 H 706.112 6.09286 -0.508012 0
M  V30 7091 H 710.286 6.87484 -1.11077 0
M  V30 7092 H 707.913 7.44562 -1.53401 0
M  V30 7093 N 709.488 -0.375779 1.53054 0
M  V30 7094 C 710.398 -1.48381 1.81715 0
M  V30 7095 C 711.414 -1.59087 0.704795 0
M  V30 7096 O 712.59 -1.75174 0.993785 0
M  V30 7097 C 709.655 -2.83767 1.99192 0
M  V30 7098 C 708.716 -2.82673 3.23102 0
M  V30 7099 C 707.949 -4.11601 3.39736 0
M  V30 7100 O 708.172 -5.07243 2.60885 0
M  V30 7101 O 707.106 -4.18034 4.33049 0
M  V30 7102 H 710.932 -1.27089 2.7583 0
M  V30 7103 H 708.517 -0.564902 1.38308 0
M  V30 7104 H 710.399 -3.64004 2.12318 0
M  V30 7105 H 709.074 -3.05057 1.08267 0
M  V30 7106 H 707.981 -2.0117 3.15407 0
M  V30 7107 H 709.314 -2.66335 4.13916 0
M  V30 7108 N 710.966 -1.44241 -0.634997 0
M  V30 7109 C 712.382 -1.28043 -0.952742 0
M  V30 7110 C 712.582 -0.21338 -2.00367 0
M  V30 7111 O 711.638 0.402042 -2.49279 0
M  V30 7112 C 712.951 -2.65076 -1.41968 0
M  V30 7113 C 714.499 -2.72755 -1.53537 0
M  V30 7114 C 714.974 -4.10249 -2.03616 0
M  V30 7115 N 716.465 -4.12406 -2.10892 0
M  V30 7116 C 717.2 -5.15641 -2.50803 0
M  V30 7117 N 716.696 -6.29239 -2.89879 0
M  V30 7118 N 718.489 -5.02995 -2.50903 0
M  V30 7119 H 710.64 -2.12315 0.060098 0
M  V30 7120 H 712.903 -0.947326 -0.0357325 0
M  V30 7121 H 712.609 -3.44213 -0.721804 0
M  V30 7122 H 712.483 -2.91704 -2.39141 0
M  V30 7123 H 714.87 -1.93939 -2.22422 0
M  V30 7124 H 714.951 -2.49872 -0.547496 0
M  V30 7125 H 714.595 -4.8954 -1.35327 0
M  V30 7126 H 714.525 -4.30507 -3.03268 0
M  V30 7127 H 717.016 -3.30417 -1.83393 0
M  V30 7128 H 717.329 -7.03827 -3.19135 0
M  V30 7129 H 715.674 -6.32683 -2.8764 0
M  V30 7130 H 718.865 -4.13306 -2.19763 0
M  V30 7131 H 719.038 -5.83574 -2.81683 0
M  V30 7132 N 712.444 0.87505 -1.31075 0
M  V30 7133 C 713.855 1.4433 -1.18431 0
M  V30 7134 C 714.206 1.9506 0.211189 0
M  V30 7135 O 713.331 1.85847 1.10859 0
M  V30 7136 C 713.926 2.62341 -2.14389 0
M  V30 7137 C 712.485 3.15225 -2.05694 0
M  V30 7138 C 711.632 1.87929 -2.03907 0
M  V30 7139 H 714.583 0.684061 -1.432 0
M  V30 7140 H 714.604 3.3887 -1.73053 0
M  V30 7141 H 714.116 2.25388 -3.15946 0
M  V30 7142 H 712.217 3.56812 -1.07314 0
M  V30 7143 H 712.33 3.77853 -2.94558 0
M  V30 7144 H 710.694 2.06679 -1.48849 0
M  V30 7145 H 711.477 1.53221 -3.07211 0
M  V30 7146 N 713.922 1.13953 1.08869 0
M  V30 7147 C 714.87 0.817664 2.17754 0
M  V30 7148 C 715.864 -0.202444 1.68186 0
M  V30 7149 O 717.07 -0.0590159 1.79903 0
M  V30 7150 H 713.445 0.246671 0.710392 0
M  V30 7151 H 715.416 1.74401 2.4213 0
M  V30 7152 C 714.165 0.3063 3.46348 0
M  V30 7153 H 713.488 1.08259 3.84864 0
M  V30 7154 H 714.928 0.119584 4.23831 0
M  V30 7155 C 713.387 -0.969158 3.22659 0
M  V30 7156 O 713.917 -2.04386 3.45817 0
M  V30 7157 N 712.123 -0.902516 2.7623 0
M  V30 7158 H 711.67 -0.027801 2.57585 0
M  V30 7159 H 711.628 -1.75649 2.60758 0
M  V30 7160 N 715.4 -1.26948 0.933913 0
M  V30 7161 C 716.33 -2.29017 0.45534 0
M  V30 7162 C 717.311 -1.62961 -0.487605 0
M  V30 7163 O 718.496 -1.90223 -0.391022 0
M  V30 7164 C 715.626 -3.46112 -0.287015 0
M  V30 7165 C 714.58 -4.24205 0.568682 0
M  V30 7166 C 713.906 -5.3384 -0.303206 0
M  V30 7167 C 715.206 -4.88954 1.83633 0
M  V30 7168 H 716.9 -2.69298 1.30839 0
M  V30 7169 H 714.446 -1.29459 0.630579 0
M  V30 7170 H 716.399 -4.16622 -0.6328 0
M  V30 7171 H 715.123 -3.04765 -1.17414 0
M  V30 7172 H 713.782 -3.5545 0.897261 0
M  V30 7173 H 713.43 -4.88734 -1.18947 0
M  V30 7174 H 713.13 -5.86998 0.265879 0
M  V30 7175 H 714.654 -6.0719 -0.644423 0
M  V30 7176 H 716.068 -5.51717 1.55823 0
M  V30 7177 H 714.465 -5.52198 2.34941 0
M  V30 7178 H 715.535 -4.12305 2.55211 0
M  V30 7179 N 716.879 -0.700114 -1.41195 0
M  V30 7180 C 718.29 -0.307249 -1.84154 0
M  V30 7181 C 718.641 1.15539 -1.58572 0
M  V30 7182 O 717.766 1.88744 -1.05852 0
M  V30 7183 C 718.361 -0.550872 -3.34292 0
M  V30 7184 C 716.92 -0.211877 -3.75803 0
M  V30 7185 C 716.067 -0.830915 -2.64558 0
M  V30 7186 H 719.018 -0.900431 -1.30683 0
M  V30 7187 H 719.039 0.188954 -3.80031 0
M  V30 7188 H 718.551 -1.61548 -3.5288 0
M  V30 7189 H 716.652 0.848283 -3.62815 0
M  V30 7190 H 716.765 -0.67007 -4.74391 0
M  V30 7191 H 715.129 -0.260155 -2.53368 0
M  V30 7192 H 715.912 -1.89948 -2.85963 0
M  V30 7193 N 718.357 1.51182 -0.445186 0
M  V30 7194 C 719.773 1.59299 -0.0978954 0
M  V30 7195 C 719.973 1.4555 1.39346 0
M  V30 7196 O 719.029 1.30073 2.16419 0
M  V30 7197 C 720.342 2.94133 -0.625005 0
M  V30 7198 C 721.89 3.07463 -0.586137 0
M  V30 7199 C 722.365 4.44832 -1.09035 0
M  V30 7200 N 723.856 4.51173 -1.04867 0
M  V30 7201 C 724.591 5.55804 -1.40959 0
M  V30 7202 N 724.087 6.67816 -1.84375 0
M  V30 7203 N 725.88 5.46205 -1.32726 0
M  V30 7204 H 718.031 1.58363 -1.41544 0
M  V30 7205 H 720.294 0.746946 -0.58376 0
M  V30 7206 H 720 3.09589 -1.66876 0
M  V30 7207 H 719.874 3.77161 -0.0542262 0
M  V30 7208 H 722.261 2.9167 0.448646 0
M  V30 7209 H 722.342 2.26255 -1.19341 0
M  V30 7210 H 721.986 4.61372 -2.12364 0
M  V30 7211 H 721.916 5.24591 -0.459539 0
M  V30 7212 H 724.407 3.70783 -0.729932 0
M  V30 7213 H 724.72 7.43683 -2.10131 0
M  V30 7214 H 723.065 6.69003 -1.88308 0
M  V30 7215 H 726.256 4.57583 -0.986678 0
M  V30 7216 H 726.429 6.27634 -1.61182 0
M  V30 7217 N 719.835 0.176821 1.56605 0
M  V30 7218 C 720.798 -0.737429 2.17013 0
M  V30 7219 C 721.798 -1.15414 1.11965 0
M  V30 7220 O 722.988 -1.0702 1.37449 0
M  V30 7221 C 720.12 -2.00445 2.75744 0
M  V30 7222 H 721.313 -0.211455 2.99154 0
M  V30 7223 H 718.866 -0.0727582 1.56131 0
M  V30 7224 H 719.601 -2.57338 1.97352 0
M  V30 7225 H 719.386 -1.71456 3.52626 0
M  V30 7226 H 720.876 -2.65679 3.22187 0
M  V30 7227 N 721.313 -1.57302 -0.09688 0
M  V30 7228 C 722.243 -2.0497 -1.11846 0
M  V30 7229 C 723.224 -0.938278 -1.41882 0
M  V30 7230 O 724.409 -1.20943 -1.51942 0
M  V30 7231 C 721.539 -2.47264 -2.43881 0
M  V30 7232 C 720.493 -3.62053 -2.28257 0
M  V30 7233 C 719.819 -3.90318 -3.65453 0
M  V30 7234 C 721.119 -4.93005 -1.72461 0
M  V30 7235 H 722.813 -2.90567 -0.721888 0
M  V30 7236 H 720.359 -1.39786 -0.345803 0
M  V30 7237 H 722.312 -2.7922 -3.15617 0
M  V30 7238 H 721.036 -1.58664 -2.8547 0
M  V30 7239 H 719.695 -3.30341 -1.58967 0
M  V30 7240 H 719.343 -2.98889 -4.04567 0
M  V30 7241 H 719.043 -4.67597 -3.55846 0
M  V30 7242 H 720.567 -4.24747 -4.3866 0
M  V30 7243 H 721.981 -5.23354 -2.34036 0
M  V30 7244 H 720.378 -5.74436 -1.73618 0
M  V30 7245 H 721.448 -4.80053 -0.683898 0
M  V30 7246 N 722.791 0.367657 -1.53252 0
M  V30 7247 C 723.739 1.47061 -1.8021 0
M  V30 7248 C 724.733 1.55539 -0.671112 0
M  V30 7249 O 725.939 1.58451 -0.854014 0
M  V30 7250 H 722.314 0.489868 -0.570555 0
M  V30 7251 H 724.285 1.21527 -2.72532 0
M  V30 7252 C 723.034 2.83924 -2.00706 0
M  V30 7253 H 722.357 2.78158 -2.87172 0
M  V30 7254 H 723.797 3.60281 -2.23547 0
M  V30 7255 C 722.256 3.27613 -0.785568 0
M  V30 7256 O 722.786 4.01691 0.0267459 0
M  V30 7257 N 720.992 2.84134 -0.609597 0
M  V30 7258 H 720.539 2.24017 -1.27178 0
M  V30 7259 H 720.497 3.13723 0.206281 0
M  V30 7260 N 724.269 1.44576 0.627338 0
M  V30 7261 C 725.179 1.54232 1.76776 0
M  V30 7262 C 726.195 0.427782 1.6866 0
M  V30 7263 O 727.371 0.685671 1.89369 0
M  V30 7264 C 724.436 1.48738 3.13174 0
M  V30 7265 C 723.497 2.71074 3.32893 0
M  V30 7266 C 722.73 2.65832 4.62784 0
M  V30 7267 O 722.953 1.72048 5.43834 0
M  V30 7268 O 721.887 3.56742 4.84787 0
M  V30 7269 H 725.713 2.50586 1.71582 0
M  V30 7270 H 723.298 1.26865 0.789028 0
M  V30 7271 H 725.18 1.48211 3.94476 0
M  V30 7272 H 723.855 0.555292 3.18902 0
M  V30 7273 H 722.762 2.77168 2.51254 0
M  V30 7274 H 724.095 3.63342 3.32029 0
M  V30 7275 N 725.747 -0.868086 1.31537 0
M  V30 7276 C 726.995 -1.61807 1.21091 0
M  V30 7277 C 727.316 -1.93631 -0.230623 0
M  V30 7278 O 726.586 -1.5846 -1.15183 0
M  V30 7279 H 725.166 -0.599854 0.445178 0
M  V30 7280 H 727.828 -1.03915 1.64887 0
M  V30 7281 H 726.924 -2.56088 1.78396 0
M  V30 7282 N 727.225 -1.14528 -1.08264 0
M  V30 7283 C 728.173 -0.829201 -2.17318 0
M  V30 7284 C 729.167 0.193521 -1.68291 0
M  V30 7285 O 730.373 0.0494744 -1.79932 0
M  V30 7286 H 726.748 -0.250435 -0.709074 0
M  V30 7287 H 728.719 -1.75683 -2.41201 0
M  V30 7288 C 727.468 -0.324663 -3.46181 0
M  V30 7289 H 726.791 -1.10299 -3.84284 0
M  V30 7290 H 728.231 -0.142059 -4.23762 0
M  V30 7291 C 726.69 0.952033 -3.23169 0
M  V30 7292 O 727.22 2.02549 -3.46896 0
M  V30 7293 N 725.426 0.887854 -2.76705 0
M  V30 7294 H 724.973 0.0141402 -2.57596 0
M  V30 7295 H 724.931 1.74263 -2.61686 0
M  V30 7296 N 728.703 1.26451 -0.940633 0
M  V30 7297 C 729.933 1.97581 -0.603766 0
M  V30 7298 C 730.341 1.70246 0.825395 0
M  V30 7299 O 729.684 0.967001 1.56188 0
M  V30 7300 C 729.746 3.51256 -0.765463 0
M  V30 7301 C 729.41 4.0224 -2.16915 0
M  V30 7302 C 730.407 4.1402 -3.14457 0
M  V30 7303 C 728.092 4.36263 -2.48958 0
M  V30 7304 C 730.086 4.59117 -4.42143 0
M  V30 7305 C 727.773 4.81048 -3.76877 0
M  V30 7306 C 728.771 4.92436 -4.73282 0
M  V30 7307 O 728.459 5.36234 -5.98923 0
M  V30 7308 H 728.191 0.636948 -0.226436 0
M  V30 7309 H 730.745 1.61941 -1.2635 0
M  V30 7310 H 728.975 3.86669 -0.0485956 0
M  V30 7311 H 730.664 4.03597 -0.431738 0
M  V30 7312 H 731.43 3.87981 -2.91026 0
M  V30 7313 H 727.309 4.26634 -1.74656 0
M  V30 7314 H 730.853 4.6792 -5.17394 0
M  V30 7315 H 726.75 5.06531 -4.00121 0
M  V30 7316 H 727.518 5.54456 -6.02097 0
M  V30 7317 N 730.181 0.707592 1.40822 0
M  V30 7318 C 731.411 0.252706 2.05049 0
M  V30 7319 C 731.819 -1.10758 1.53393 0
M  V30 7320 O 731.162 -1.70567 0.682097 0
M  V30 7321 C 731.224 0.146001 3.59203 0
M  V30 7322 C 730.888 1.44027 4.33711 0
M  V30 7323 C 731.885 2.38058 4.62195 0
M  V30 7324 C 729.57 1.69698 4.72766 0
M  V30 7325 C 731.564 3.56013 5.28709 0
M  V30 7326 C 729.251 2.87936 5.39014 0
M  V30 7327 C 730.249 3.80915 5.66915 0
M  V30 7328 O 729.937 4.9708 6.31796 0
M  V30 7329 H 729.669 0.112784 0.666525 0
M  V30 7330 H 732.223 0.96417 1.81364 0
M  V30 7331 H 730.453 -0.621338 3.81676 0
M  V30 7332 H 732.142 -0.273275 4.04979 0
M  V30 7333 H 732.908 2.19487 4.32493 0
M  V30 7334 H 728.787 0.981835 4.50423 0
M  V30 7335 H 732.331 4.28604 5.50404 0
M  V30 7336 H 728.228 3.06419 5.68135 0
M  V30 7337 H 728.996 4.97053 6.50293 0
M  V30 7338 N 731.66 -1.50943 0.453197 0
M  V30 7339 C 732.623 -2.26684 -0.338705 0
M  V30 7340 C 733.623 -1.30748 -0.936032 0
M  V30 7341 O 734.813 -1.54327 -0.808002 0
M  V30 7342 C 731.945 -3.07063 -1.48071 0
M  V30 7343 H 733.138 -2.98131 0.325289 0
M  V30 7344 H 730.691 -1.54926 0.206771 0
M  V30 7345 H 731.426 -2.4007 -2.18029 0
M  V30 7346 H 731.211 -3.77545 -1.0584 0
M  V30 7347 H 732.701 -3.64393 -2.0398 0
M  V30 7348 N 733.138 -0.185124 -1.56509 0
M  V30 7349 C 734.387 0.456421 -1.96468 0
M  V30 7350 C 734.7 1.63448 -1.07444 0
M  V30 7351 O 735.906 2.34316 -1.37143 0
M  V30 7352 C 734.362 0.863404 -3.4939 0
M  V30 7353 C 733.97 -0.289815 -4.47062 0
M  V30 7354 C 735.714 1.47259 -3.98139 0
M  V30 7355 C 733.621 0.137571 -5.9124 0
M  V30 7356 H 732.551 0.17429 -0.733579 0
M  V30 7357 H 735.202 -0.275554 -1.81419 0
M  V30 7358 H 733.584 1.65176 -3.59907 0
M  V30 7359 H 734.758 -1.06728 -4.4827 0
M  V30 7360 H 733.073 -0.809851 -4.08449 0
M  V30 7361 H 735.67 1.80463 -5.03326 0
M  V30 7362 H 736.013 2.3755 -3.41871 0
M  V30 7363 H 736.546 0.748405 -3.90696 0
M  V30 7364 H 733.285 -0.730907 -6.51412 0
M  V30 7365 H 732.805 0.8801 -5.93308 0
M  V30 7366 H 734.484 0.576771 -6.44424 0
M  V30 7367 N 734.616 1.57351 0.0885366 0
M  V30 7368 C 735.526 2.05858 1.12516 0
M  V30 7369 C 736.542 0.984758 1.43452 0
M  V30 7370 O 737.718 1.29836 1.53963 0
M  V30 7371 C 734.783 2.47882 2.42395 0
M  V30 7372 C 733.844 3.69487 2.18582 0
M  V30 7373 C 733.077 4.09497 3.42268 0
M  V30 7374 O 733.3 3.49536 4.50755 0
M  V30 7375 O 732.234 5.02406 3.31469 0
M  V30 7376 H 736.06 2.94467 0.743146 0
M  V30 7377 H 733.645 1.46326 0.301507 0
M  V30 7378 H 735.527 2.75509 3.18862 0
M  V30 7379 H 734.202 1.62408 2.8001 0
M  V30 7380 H 733.109 3.46967 1.39875 0
M  V30 7381 H 734.442 4.55761 1.85857 0
M  V30 7382 N 736.094 -0.359525 1.53444 0
M  V30 7383 C 737.34 -1.10315 1.70172 0
M  V30 7384 C 737.673 -1.88788 0.455287 0
M  V30 7385 O 736.948 -1.86635 -0.547514 0
M  V30 7386 C 737.231 -2.05744 2.95536 0
M  V30 7387 C 737.084 -1.3084 4.3035 0
M  V30 7388 C 738.403 -3.05784 3.16518 0
M  V30 7389 H 735.522 -0.399662 0.619225 0
M  V30 7390 H 738.164 -0.383338 1.86093 0
M  V30 7391 H 736.314 -2.67125 2.82093 0
M  V30 7392 H 737.986 -0.721959 4.55615 0
M  V30 7393 H 736.229 -0.610283 4.29486 0
M  V30 7394 H 736.9 -2.00718 5.14214 0
M  V30 7395 H 739.376 -2.5451 3.29187 0
M  V30 7396 H 738.252 -3.69772 4.05659 0
M  V30 7397 H 738.513 -3.76289 2.32076 0
M  V30 7398 N 737.572 -1.44907 -0.619662 0
M  V30 7399 C 738.8 -1.51795 -1.40591 0
M  V30 7400 C 739.215 -0.146553 -1.8823 0
M  V30 7401 O 738.572 0.849698 -1.61513 0
M  V30 7402 C 738.623 -2.49229 -2.61853 0
M  V30 7403 O 738.344 -3.81039 -2.16197 0
M  V30 7404 C 739.845 -2.65696 -3.54853 0
M  V30 7405 H 737.065 -0.514463 -0.430777 0
M  V30 7406 H 739.609 -1.8998 -0.756813 0
M  V30 7407 H 737.764 -2.14149 -3.2283 0
M  V30 7408 H 738.178 -4.33747 -2.94896 0
M  V30 7409 H 739.652 -3.37874 -4.36515 0
M  V30 7410 H 740.129 -1.71316 -4.0441 0
M  V30 7411 H 740.735 -3.01724 -2.99737 0
M  V30 7412 N 739.05 0.861098 -1.31996 0
M  V30 7413 C 740.461 1.43065 -1.19955 0
M  V30 7414 C 740.812 1.95273 0.190489 0
M  V30 7415 O 739.937 1.87012 1.08882 0
M  V30 7416 C 740.532 2.60052 -2.1716 0
M  V30 7417 C 739.091 3.13026 -2.09026 0
M  V30 7418 C 738.238 1.85756 -2.05888 0
M  V30 7419 H 741.189 0.668834 -1.43918 0
M  V30 7420 H 741.21 3.37016 -1.76637 0
M  V30 7421 H 740.722 2.22024 -3.18319 0
M  V30 7422 H 738.823 3.55653 -1.11092 0
M  V30 7423 H 738.936 3.74707 -2.98549 0
M  V30 7424 H 737.3 2.05088 -1.51033 0
M  V30 7425 H 738.083 1.49954 -3.08818 0
M  V30 7426 N 740.528 1.15101 1.07655 0
M  V30 7427 C 741.776 0.922149 1.79836 0
M  V30 7428 C 742.097 -0.552346 1.87014 0
M  V30 7429 O 741.367 -1.40145 1.3688 0
M  V30 7430 H 739.947 0.338182 0.666064 0
M  V30 7431 H 742.609 1.45107 1.30115 0
M  V30 7432 H 741.705 1.32883 2.82398 0
M  V30 7433 N 742.006 -1.2595 0.947325 0
M  V30 7434 C 743.252 -1.9375 0.599064 0
M  V30 7435 C 743.585 -1.74088 -0.860632 0
M  V30 7436 O 742.86 -1.08158 -1.61654 0
M  V30 7437 C 743.143 -3.47353 0.949634 0
M  V30 7438 C 742.996 -3.76273 2.46452 0
M  V30 7439 C 744.315 -4.37589 0.469442 0
M  V30 7440 H 741.434 -0.703674 0.219115 0
M  V30 7441 H 744.076 -1.48705 1.18266 0
M  V30 7442 H 742.226 -3.8585 0.453008 0
M  V30 7443 H 743.898 -3.47455 3.03435 0
M  V30 7444 H 742.141 -3.22135 2.90537 0
M  V30 7445 H 742.812 -4.83664 2.66032 0
M  V30 7446 H 745.288 -4.06353 0.89534 0
M  V30 7447 H 744.164 -5.43841 0.7435 0
M  V30 7448 H 744.425 -4.37579 -0.630618 0
M  V30 7449 N 743.484 -0.715051 -1.40445 0
M  V30 7450 C 744.434 -0.038591 -2.27967 0
M  V30 7451 C 745.418 0.733099 -1.43229 0
M  V30 7452 O 746.61 0.605388 -1.66325 0
M  V30 7453 C 743.739 0.882801 -3.31755 0
M  V30 7454 C 742.825 0.106325 -4.23967 0
M  V30 7455 N 743.216 -0.910143 -4.97544 0
M  V30 7456 C 741.514 0.33896 -4.4471 0
M  V30 7457 C 742.215 -1.37665 -5.65175 0
M  V30 7458 N 741.191 -0.698905 -5.39088 0
M  V30 7459 H 744.993 -0.81765 -2.82297 0
M  V30 7460 H 742.507 -0.547591 -1.5289 0
M  V30 7461 H 744.504 1.38273 -3.93302 0
M  V30 7462 H 743.164 1.66124 -2.78985 0
M  V30 7463 H 744.175 -1.29097 -5.01552 0
M  V30 7464 H 740.852 1.09377 -4.02918 0
M  V30 7465 H 742.242 -2.22122 -6.34123 0
M  V30 7466 N 744.962 1.50701 -0.461195 0
M  V30 7467 C 745.912 2.25195 0.35653 0
M  V30 7468 C 746.896 1.2838 0.96992 0
M  V30 7469 O 748.088 1.53338 0.884108 0
M  V30 7470 C 745.217 3.11471 1.44364 0
M  V30 7471 C 744.303 4.15729 0.83847 0
M  V30 7472 N 744.694 5.05788 -0.0353198 0
M  V30 7473 C 742.992 4.32133 1.1035 0
M  V30 7474 C 743.693 5.80472 -0.37774 0
M  V30 7475 N 742.669 5.43049 0.24463 0
M  V30 7476 H 746.471 2.92188 -0.316746 0
M  V30 7477 H 743.985 1.60059 -0.274725 0
M  V30 7478 H 745.982 3.63436 2.04255 0
M  V30 7479 H 744.642 2.46025 2.11901 0
M  V30 7480 H 745.653 5.16326 -0.403465 0
M  V30 7481 H 742.33 3.77908 1.77458 0
M  V30 7482 H 743.72 6.62996 -1.09024 0
M  V30 7483 N 746.441 0.193421 1.56409 0
M  V30 7484 C 747.669 -0.451438 2.01915 0
M  V30 7485 C 748.084 -1.55306 1.07357 0
M  V30 7486 O 747.441 -1.82333 0.0781512 0
M  V30 7487 C 747.492 -1.00931 3.47124 0
M  V30 7488 O 747.213 0.0483623 4.38073 0
M  V30 7489 C 748.714 -1.73021 4.0814 0
M  V30 7490 H 745.934 -0.113495 0.661332 0
M  V30 7491 H 748.478 0.301636 2.02263 0
M  V30 7492 H 746.633 -1.71277 3.47481 0
M  V30 7493 H 747.047 -0.366644 5.23217 0
M  V30 7494 H 748.521 -2.07289 5.11601 0
M  V30 7495 H 748.998 -2.6333 3.51502 0
M  V30 7496 H 749.604 -1.07264 4.11551 0
M  V30 7497 N 747.919 -1.57396 -0.0801906 0
M  V30 7498 C 748.852 -1.98386 -1.12774 0
M  V30 7499 C 749.83 -0.859423 -1.38031 0
M  V30 7500 O 751.014 -1.12101 -1.51544 0
M  V30 7501 C 748.141 -2.3134 -2.47386 0
M  V30 7502 C 747.187 -3.53706 -2.38316 0
M  V30 7503 S 748.02 -5.04862 -1.78534 0
M  V30 7504 C 749.176 -5.41008 -3.1474 0
M  V30 7505 H 749.409 -2.86929 -0.778382 0
M  V30 7506 H 746.942 -1.51682 -0.28842 0
M  V30 7507 H 748.9 -2.51 -3.24822 0
M  V30 7508 H 747.561 -1.4334 -2.79486 0
M  V30 7509 H 746.754 -3.74253 -3.37566 0
M  V30 7510 H 746.356 -3.33632 -1.69014 0
M  V30 7511 H 748.648 -5.38565 -4.1104 0
M  V30 7512 H 749.591 -6.41885 -2.98981 0
M  V30 7513 H 749.999 -4.68467 -3.14958 0
M  V30 7514 N 749.397 0.351382 -1.53633 0
M  V30 7515 C 750.645 1.09034 -1.70165 0
M  V30 7516 C 750.966 1.89413 -0.463422 0
M  V30 7517 O 750.236 1.888 0.522624 0
M  V30 7518 H 748.816 0.405522 -0.627344 0
M  V30 7519 H 751.478 0.394554 -1.90865 0
M  V30 7520 H 750.574 1.77215 -2.56907 0
M  V30 7521 N 750.875 1.45233 0.611969 0
M  V30 7522 C 752.123 1.48727 1.36838 0
M  V30 7523 C 752.444 0.128616 1.94575 0
M  V30 7524 O 751.714 -0.84149 1.76906 0
M  V30 7525 H 750.294 0.547695 0.507976 0
M  V30 7526 H 752.956 1.81156 0.718925 0
M  V30 7527 H 752.052 2.2236 2.19003 0
M  V30 7528 N 752.353 -0.854086 1.3245 0
M  V30 7529 C 753.599 -1.61069 1.23225 0
M  V30 7530 C 753.932 -1.93111 -0.205349 0
M  V30 7531 O 753.207 -1.57397 -1.14265 0
M  V30 7532 C 753.49 -2.93065 2.09249 0
M  V30 7533 C 753.343 -2.67801 3.6139 0
M  V30 7534 C 754.662 -3.94341 1.95406 0
M  V30 7535 H 751.781 -0.584449 0.448986 0
M  V30 7536 H 754.423 -0.986189 1.62402 0
M  V30 7537 H 752.573 -3.46364 1.75967 0
M  V30 7538 H 754.245 -2.21052 4.04887 0
M  V30 7539 H 752.488 -2.01756 3.84027 0
M  V30 7540 H 753.159 -3.6179 4.16907 0
M  V30 7541 H 755.635 -3.50301 2.24562 0
M  V30 7542 H 754.511 -4.84555 2.57872 0
M  V30 7543 H 754.772 -4.32382 0.921865 0
M  V30 7544 N 753.831 -1.1567 -1.07043 0
M  V30 7545 C 754.764 -0.799867 -2.13723 0
M  V30 7546 C 755.742 0.225098 -1.61034 0
M  V30 7547 O 756.926 0.11093 -1.88173 0
M  V30 7548 C 754.053 -0.18997 -3.38167 0
M  V30 7549 C 753.099 -1.18733 -4.0964 0
M  V30 7550 S 753.932 -2.73074 -4.60642 0
M  V30 7551 C 755.088 -2.13512 -5.88356 0
M  V30 7552 H 755.321 -1.70342 -2.43661 0
M  V30 7553 H 752.854 -0.979377 -1.19363 0
M  V30 7554 H 754.812 0.155471 -4.10205 0
M  V30 7555 H 753.473 0.691229 -3.064 0
M  V30 7556 H 752.666 -0.708873 -4.9899 0
M  V30 7557 H 752.268 -1.47747 -3.43579 0
M  V30 7558 H 754.56 -1.49911 -6.60706 0
M  V30 7559 H 755.503 -3.01042 -6.40921 0
M  V30 7560 H 755.911 -1.57693 -5.42027 0
M  V30 7561 N 755.309 1.25446 -0.953992 0
M  V30 7562 C 756.558 1.92441 -0.604101 0
M  V30 7563 C 756.871 1.75543 0.862796 0
M  V30 7564 O 758.077 2.37106 1.32262 0
M  V30 7565 C 756.533 3.44854 -1.02974 0
M  V30 7566 C 756.141 3.70464 -2.51914 0
M  V30 7567 C 757.885 4.1778 -0.752352 0
M  V30 7568 C 755.792 5.1638 -2.88281 0
M  V30 7569 H 754.722 0.720508 -0.222227 0
M  V30 7570 H 757.373 1.42318 -1.15836 0
M  V30 7571 H 755.755 3.93935 -0.403904 0
M  V30 7572 H 756.929 3.32038 -3.19511 0
M  V30 7573 H 755.244 3.10797 -2.77117 0
M  V30 7574 H 757.841 5.25261 -1.00024 0
M  V30 7575 H 758.184 4.15135 0.311212 0
M  V30 7576 H 758.717 3.74605 -1.33851 0
M  V30 7577 H 755.456 5.24135 -3.93653 0
M  V30 7578 H 754.976 5.55855 -2.25357 0
M  V30 7579 H 756.655 5.84497 -2.77439 0
M  V30 7580 N 756.787 0.722489 1.40064 0
M  V30 7581 C 758.064 0.191829 1.94657 0
M  V30 7582 C 758.444 -1.30389 1.66018 0
M  V30 7583 O 757.792 -2.06342 0.981588 0
M  V30 7584 C 758.002 0.511978 3.45224 0
M  V30 7585 C 759.35 0.454426 4.22161 0
M  V30 7586 O 760.374 0.448438 3.53366 0
M  V30 7587 O 759.233 0.437986 5.44742 0
M  V30 7588 H 756.327 0.0307821 0.826427 0
M  V30 7589 H 758.873 0.800493 1.49634 0
M  V30 7590 H 757.645 1.54622 3.59455 0
M  V30 7591 H 757.268 -0.126296 3.97399 0
M  V30 7592 N 758.265 -1.50454 0.469181 0
M  V30 7593 C 759.493 -2.06729 -0.0842134 0
M  V30 7594 C 759.908 -1.33326 -1.33677 0
M  V30 7595 O 759.265 -0.401977 -1.78018 0
M  V30 7596 C 759.316 -3.59557 -0.374253 0
M  V30 7597 O 759.037 -4.30192 0.828622 0
M  V30 7598 C 760.538 -4.32449 -0.974824 0
M  V30 7599 H 757.758 -0.670971 0.006231 0
M  V30 7600 H 760.302 -1.93645 0.657415 0
M  V30 7601 H 758.457 -3.7245 -1.06581 0
M  V30 7602 H 758.871 -5.21371 0.572066 0
M  V30 7603 H 760.345 -5.40361 -1.12755 0
M  V30 7604 H 760.822 -3.92819 -1.96442 0
M  V30 7605 H 761.428 -4.24082 -0.321703 0
M  V30 7606 N 759.743 -0.201713 -1.56304 0
M  V30 7607 C 760.69 0.716499 -2.19397 0
M  V30 7608 C 761.66 1.20494 -1.14326 0
M  V30 7609 O 762.845 1.26763 -1.42604 0
M  V30 7610 C 759.985 1.92762 -2.86246 0
M  V30 7611 C 759.098 1.47993 -4.0586 0
M  V30 7612 C 758.233 2.64706 -4.60547 0
M  V30 7613 C 757.272 2.16576 -5.72504 0
M  V30 7614 N 756.409 3.26491 -6.21569 0
M  V30 7615 H 761.249 0.171724 -2.97505 0
M  V30 7616 H 758.786 0.073016 -1.46919 0
M  V30 7617 H 760.744 2.6384 -3.23178 0
M  V30 7618 H 759.374 2.44559 -2.10691 0
M  V30 7619 H 758.426 0.66477 -3.74546 0
M  V30 7620 H 759.738 1.08686 -4.86815 0
M  V30 7621 H 758.892 3.43898 -4.99819 0
M  V30 7622 H 757.631 3.0729 -3.78713 0
M  V30 7623 H 756.636 1.3584 -5.32755 0
M  V30 7624 H 757.861 1.75015 -6.56161 0
M  V30 7625 H 755.807 3.68594 -5.42655 0
M  V30 7626 H 755.724 2.91374 -6.97594 0
M  V30 7627 H 756.992 4.05877 -6.65495 0
M  V30 7628 N 761.222 1.57436 0.0718424 0
M  V30 7629 C 762.185 2.02703 1.06977 0
M  V30 7630 C 763.185 0.924062 1.31597 0
M  V30 7631 O 764.375 1.18894 1.27318 0
M  V30 7632 C 761.507 2.40763 2.41342 0
M  V30 7633 H 762.7 2.92098 0.679619 0
M  V30 7634 H 760.253 1.5304 0.317565 0
M  V30 7635 H 760.988 1.54394 2.8519 0
M  V30 7636 H 760.773 3.21249 2.24814 0
M  V30 7637 H 762.263 2.76361 3.13073 0
M  V30 7638 N 762.7 -0.34323 1.53817 0
M  V30 7639 C 763.61 -1.44493 1.84821 0
M  V30 7640 C 764.626 -1.57556 0.738381 0
M  V30 7641 O 765.802 -1.73026 1.03072 0
M  V30 7642 C 762.867 -2.79478 2.05166 0
M  V30 7643 C 761.928 -2.75756 3.29025 0
M  V30 7644 C 761.161 -4.04302 3.4839 0
M  V30 7645 O 761.384 -5.01595 2.71586 0
M  V30 7646 O 760.318 -4.08754 4.41819 0
M  V30 7647 H 764.144 -1.21209 2.78464 0
M  V30 7648 H 761.729 -0.535437 1.39476 0
M  V30 7649 H 763.611 -3.59419 2.19991 0
M  V30 7650 H 762.286 -3.02692 1.14713 0
M  V30 7651 H 761.193 -1.94434 3.19603 0
M  V30 7652 H 762.526 -2.57495 4.19472 0
M  V30 7653 N 764.178 -1.45556 -0.604258 0
M  V30 7654 C 765.424 -1.49968 -1.36519 0
M  V30 7655 C 765.757 -0.142236 -1.93678 0
M  V30 7656 O 765.032 0.843717 -1.75247 0
M  V30 7657 C 765.315 -2.58146 -2.51063 0
M  V30 7658 C 765.168 -4.03346 -1.99078 0
M  V30 7659 C 766.487 -2.62581 -3.53184 0
M  V30 7660 H 763.606 -0.545993 -0.495036 0
M  V30 7661 H 766.248 -1.77382 -0.680845 0
M  V30 7662 H 764.398 -2.34901 -3.09441 0
M  V30 7663 H 766.07 -4.37811 -1.45323 0
M  V30 7664 H 764.313 -4.13845 -1.30055 0
M  V30 7665 H 764.984 -4.74731 -2.81664 0
M  V30 7666 H 767.46 -2.83419 -3.04652 0
M  V30 7667 H 766.336 -3.40131 -4.30816 0
M  V30 7668 H 766.597 -1.67798 -4.09019 0
M  V30 7669 N 765.656 0.84705 -1.32902 0
M  V30 7670 C 766.589 1.96038 -1.1681 0
M  V30 7671 C 767.567 1.62468 -0.0656144 0
M  V30 7672 O 768.751 1.87136 -0.226339 0
M  V30 7673 C 765.878 3.29362 -0.789839 0
M  V30 7674 C 764.924 3.81908 -1.89865 0
M  V30 7675 S 765.757 4.04576 -3.50826 0
M  V30 7676 C 766.913 5.40863 -3.14989 0
M  V30 7677 H 767.146 2.09387 -2.11055 0
M  V30 7678 H 764.679 0.999896 -1.1765 0
M  V30 7679 H 766.637 4.06405 -0.578369 0
M  V30 7680 H 765.298 3.13815 0.133878 0
M  V30 7681 H 764.491 4.78357 -1.58716 0
M  V30 7682 H 764.093 3.11733 -2.06636 0
M  V30 7683 H 766.385 6.23393 -2.65306 0
M  V30 7684 H 767.328 5.7698 -4.10488 0
M  V30 7685 H 767.736 5.05228 -2.51804 0
M  V30 7686 N 767.134 1.16236 1.06428 0
M  V30 7687 C 768.082 0.863669 2.15971 0
M  V30 7688 C 769.076 -0.166723 1.68578 0
M  V30 7689 O 770.282 -0.0208425 1.79988 0
M  V30 7690 H 766.657 0.261684 0.705 0
M  V30 7691 H 768.628 1.79498 2.38376 0
M  V30 7692 C 767.377 0.379697 3.45621 0
M  V30 7693 H 766.7 1.16399 3.82481 0
M  V30 7694 H 768.14 0.209458 4.23482 0
M  V30 7695 C 766.599 -0.900499 3.24642 0
M  V30 7696 O 767.129 -1.97004 3.50074 0
M  V30 7697 N 765.335 -0.843721 2.78082 0
M  V30 7698 H 764.882 0.0268429 2.57586 0
M  V30 7699 H 764.84 -1.70078 2.64425 0
M  V30 7700 N 768.612 -1.24939 0.960631 0
M  V30 7701 C 769.575 -2.239 0.49006 0
M  V30 7702 C 770.575 -1.55497 -0.409535 0
M  V30 7703 O 771.765 -1.72978 -0.205984 0
M  V30 7704 C 768.897 -3.39654 -0.291193 0
M  V30 7705 H 770.09 -2.67044 1.36482 0
M  V30 7706 H 767.643 -1.37429 0.744505 0
M  V30 7707 H 768.378 -3.01939 -1.18336 0
M  V30 7708 H 768.163 -3.90496 0.354276 0
M  V30 7709 H 769.653 -4.13125 -0.609693 0
M  V30 7710 N 770.09 -0.729906 -1.39679 0
M  V30 7711 C 771.037 -0.0866063 -2.30637 0
M  V30 7712 C 772.007 0.735115 -1.48947 0
M  V30 7713 O 773.192 0.696125 -1.77648 0
M  V30 7714 C 770.332 0.818524 -3.35252 0
M  V30 7715 C 769.445 -0.0152635 -4.31997 0
M  V30 7716 C 768.58 0.890669 -5.2368 0
M  V30 7717 C 767.619 0.0518246 -6.12078 0
M  V30 7718 N 766.756 0.913411 -6.96133 0
M  V30 7719 H 771.596 -0.867925 -2.85081 0
M  V30 7720 H 769.133 -0.439673 -1.40376 0
M  V30 7721 H 771.091 1.3577 -3.9449 0
M  V30 7722 H 769.721 1.56587 -2.82277 0
M  V30 7723 H 768.773 -0.671794 -3.74421 0
M  V30 7724 H 770.085 -0.664086 -4.9436 0
M  V30 7725 H 769.239 1.49787 -5.87919 0
M  V30 7726 H 767.978 1.57328 -4.61627 0
M  V30 7727 H 766.983 -0.568209 -5.46856 0
M  V30 7728 H 768.208 -0.627497 -6.76195 0
M  V30 7729 H 766.154 1.58141 -6.36653 0
M  V30 7730 H 766.071 0.320952 -7.55318 0
M  V30 7731 H 767.339 1.50633 -7.64807 0
M  V30 7732 N 771.568 1.50203 -0.477153 0
M  V30 7733 C 772.515 2.28656 0.31386 0
M  V30 7734 C 773.485 1.33977 0.981802 0
M  V30 7735 O 774.67 1.62919 0.993072 0
M  V30 7736 C 771.81 3.16027 1.38639 0
M  V30 7737 C 770.923 4.25743 0.732615 0
M  V30 7738 C 770.058 5.00363 1.78355 0
M  V30 7739 C 769.097 6.01945 1.11035 0
M  V30 7740 N 768.234 6.6982 2.10441 0
M  V30 7741 H 773.074 2.958 -0.361445 0
M  V30 7742 H 770.611 1.45867 -0.190093 0
M  V30 7743 H 772.569 3.6504 2.01994 0
M  V30 7744 H 771.199 2.50917 2.03077 0
M  V30 7745 H 770.251 3.80398 -0.0136546 0
M  V30 7746 H 771.563 4.98393 0.201513 0
M  V30 7747 H 770.717 5.53124 2.49276 0
M  V30 7748 H 769.456 4.27432 2.34847 0
M  V30 7749 H 768.461 5.48438 0.386797 0
M  V30 7750 H 769.686 6.76851 0.552248 0
M  V30 7751 H 767.632 5.99677 2.65939 0
M  V30 7752 H 767.549 7.38366 1.62332 0
M  V30 7753 H 768.817 7.27196 2.80724 0
M  V30 7754 N 773.046 0.209999 1.56195 0
M  V30 7755 C 773.978 -0.736967 2.17029 0
M  V30 7756 C 774.991 -1.16599 1.13616 0
M  V30 7757 O 776.18 -1.09914 1.40646 0
M  V30 7758 C 773.28 -2.00852 2.72969 0
M  V30 7759 C 772.453 -1.73691 4.01435 0
M  V30 7760 C 771.512 -2.85439 4.42053 0
M  V30 7761 O 770.538 -2.54405 5.09183 0
M  V30 7762 N 771.74 -4.14135 4.06783 0
M  V30 7763 H 774.505 -0.216656 2.98916 0
M  V30 7764 H 772.066 0.0285672 1.61875 0
M  V30 7765 H 774.058 -2.74778 2.97118 0
M  V30 7766 H 772.628 -2.43963 1.95451 0
M  V30 7767 H 771.848 -0.834676 3.85262 0
M  V30 7768 H 773.136 -1.52961 4.85263 0
M  V30 7769 H 772.534 -4.42196 3.52816 0
M  V30 7770 H 771.091 -4.84642 4.35851 0
M  V30 7771 N 774.524 -1.57472 -0.0634922 0
M  V30 7772 C 775.77 -1.87932 -0.762194 0
M  V30 7773 C 776.103 -0.803377 -1.76804 0
M  V30 7774 O 775.378 0.185468 -1.93614 0
M  V30 7775 C 775.661 -3.29053 -1.46275 0
M  V30 7776 C 775.514 -4.47309 -0.472755 0
M  V30 7777 C 776.833 -3.68537 -2.40558 0
M  V30 7778 H 773.952 -0.683521 -0.275624 0
M  V30 7779 H 776.594 -1.89983 -0.0252651 0
M  V30 7780 H 774.744 -3.27435 -2.0909 0
M  V30 7781 H 776.416 -4.61053 0.150828 0
M  V30 7782 H 774.659 -4.33286 0.211187 0
M  V30 7783 H 775.33 -5.42853 -1.00072 0
M  V30 7784 H 777.806 -3.71302 -1.87814 0
M  V30 7785 H 776.682 -4.68152 -2.86574 0
M  V30 7786 H 776.943 -2.98917 -3.25731 0
M  V30 7787 N 776.003 0.335068 -1.53997 0
M  V30 7788 C 777.252 1.07182 -1.70865 0
M  V30 7789 C 777.565 1.89541 -0.483078 0
M  V30 7790 O 778.771 2.66219 -0.532879 0
M  V30 7791 C 777.227 1.95497 -3.02174 0
M  V30 7792 C 776.835 1.18304 -4.32097 0
M  V30 7793 C 778.579 2.68978 -3.28407 0
M  V30 7794 C 776.486 2.05699 -5.54474 0
M  V30 7795 H 775.416 0.403857 -0.636722 0
M  V30 7796 H 778.067 0.33076 -1.80494 0
M  V30 7797 H 776.449 2.73456 -2.86423 0
M  V30 7798 H 777.623 0.451969 -4.58578 0
M  V30 7799 H 775.938 0.565556 -4.12541 0
M  V30 7800 H 778.535 3.34651 -4.17029 0
M  V30 7801 H 778.878 3.36 -2.45784 0
M  V30 7802 H 779.411 1.98087 -3.44973 0
M  V30 7803 H 776.15 1.43204 -6.39666 0
M  V30 7804 H 775.67 2.76572 -5.32229 0
M  V30 7805 H 777.349 2.64554 -5.90441 0
M  V30 7806 N 777.481 1.45874 0.596531 0
M  V30 7807 C 778.892 1.44798 1.17857 0
M  V30 7808 C 779.243 0.181443 1.95359 0
M  V30 7809 O 778.368 -0.716336 2.042 0
M  V30 7810 C 778.963 2.62333 2.14398 0
M  V30 7811 C 777.522 2.64342 2.67955 0
M  V30 7812 C 776.669 2.37244 1.43564 0
M  V30 7813 H 779.62 1.53954 0.385222 0
M  V30 7814 H 779.641 2.37063 2.97626 0
M  V30 7815 H 779.153 3.54499 1.57963 0
M  V30 7816 H 777.254 1.76213 3.28298 0
M  V30 7817 H 777.367 3.63897 3.11634 0
M  V30 7818 H 775.731 1.87022 1.72901 0
M  V30 7819 H 776.514 3.31568 0.889805 0
M  V30 7820 N 778.959 -0.83999 1.33349 0
M  V30 7821 C 780.207 -1.59202 1.24496 0
M  V30 7822 C 780.528 -1.94077 -0.189499 0
M  V30 7823 O 779.798 -1.60868 -1.11796 0
M  V30 7824 H 778.378 -0.590276 0.457802 0
M  V30 7825 H 781.04 -1.00394 1.67054 0
M  V30 7826 H 780.136 -2.52247 1.83788 0
M  V30 7827 N 780.437 -1.16799 -1.0581 0
M  V30 7828 C 781.367 -0.902241 -2.15364 0
M  V30 7829 C 782.348 0.153351 -1.69407 0
M  V30 7830 O 783.533 0.00442032 -1.94199 0
M  V30 7831 C 780.663 -0.407911 -3.44896 0
M  V30 7832 C 779.617 -1.40197 -4.04387 0
M  V30 7833 C 778.943 -0.765848 -5.29187 0
M  V30 7834 C 780.243 -2.77316 -4.42598 0
M  V30 7835 H 781.937 -1.81841 -2.37853 0
M  V30 7836 H 779.483 -0.875731 -1.14311 0
M  V30 7837 H 781.436 -0.20945 -4.20879 0
M  V30 7838 H 780.16 0.54378 -3.22041 0
M  V30 7839 H 778.819 -1.58707 -3.30466 0
M  V30 7840 H 778.467 0.192482 -5.02632 0
M  V30 7841 H 778.167 -1.42939 -5.69949 0
M  V30 7842 H 779.691 -0.577519 -6.07863 0
M  V30 7843 H 781.105 -2.62561 -5.09642 0
M  V30 7844 H 779.502 -3.4019 -4.94359 0
M  V30 7845 H 780.572 -3.32199 -3.53231 0
M  V30 7846 N 781.915 1.24427 -0.967243 0
M  V30 7847 C 783.145 1.96256 -0.64554 0
M  V30 7848 C 783.553 1.71959 0.789098 0
M  V30 7849 O 782.896 0.999913 1.54102 0
M  V30 7850 C 782.958 3.49553 -0.839798 0
M  V30 7851 C 782.622 3.97548 -2.25399 0
M  V30 7852 C 783.619 4.07257 -3.23168 0
M  V30 7853 C 781.304 4.30884 -2.58156 0
M  V30 7854 C 783.298 4.49635 -4.51782 0
M  V30 7855 C 780.985 4.72946 -3.86996 0
M  V30 7856 C 781.983 4.82286 -4.83621 0
M  V30 7857 O 781.671 5.23409 -6.10162 0
M  V30 7858 H 781.403 0.632002 -0.239895 0
M  V30 7859 H 783.957 1.59224 -1.29757 0
M  V30 7860 H 782.187 3.86479 -0.130603 0
M  V30 7861 H 783.876 4.02591 -0.517249 0
M  V30 7862 H 784.642 3.8172 -2.9919 0
M  V30 7863 H 780.521 4.22833 -1.83666 0
M  V30 7864 H 784.065 4.5684 -5.27203 0
M  V30 7865 H 779.962 4.9793 -4.10775 0
M  V30 7866 H 780.73 5.4156 -6.13722 0
M  V30 7867 N 783.393 0.737304 1.3929 0
M  V30 7868 C 784.641 0.285691 2.00071 0
M  V30 7869 C 784.962 -1.13169 1.58801 0
M  V30 7870 O 784.232 -1.77104 0.837308 0
M  V30 7871 H 782.812 0.102638 0.739915 0
M  V30 7872 H 785.474 0.947775 1.70303 0
M  V30 7873 H 784.57 0.335906 3.10287 0
M  V30 7874 N 784.871 -1.49948 0.485112 0
M  V30 7875 C 785.834 -2.27351 -0.290546 0
M  V30 7876 C 786.834 -1.32704 -0.908087 0
M  V30 7877 O 788.024 -1.56007 -0.775085 0
M  V30 7878 C 785.156 -3.10135 -1.41524 0
M  V30 7879 H 786.349 -2.97374 0.388454 0
M  V30 7880 H 783.902 -1.54453 0.239586 0
M  V30 7881 H 784.637 -2.44641 -2.12888 0
M  V30 7882 H 784.422 -3.79705 -0.978074 0
M  V30 7883 H 785.912 -3.68638 -1.96204 0
M  V30 7884 N 786.349 -0.21828 -1.56081 0
M  V30 7885 C 787.597 0.413488 -1.97825 0
M  V30 7886 C 787.918 1.60527 -1.10707 0
M  V30 7887 O 787.188 1.9504 -0.183378 0
M  V30 7888 H 785.768 0.155757 -0.730581 0
M  V30 7889 H 788.43 -0.310413 -1.92412 0
M  V30 7890 H 787.526 0.742024 -3.03151 0
M  V30 7891 N 787.827 1.57504 0.0551401 0
M  V30 7892 C 788.737 2.08198 1.08124 0
M  V30 7893 C 789.753 1.01496 1.41331 0
M  V30 7894 O 790.929 1.33073 1.51174 0
M  V30 7895 C 787.994 2.52968 2.37083 0
M  V30 7896 C 787.055 3.7404 2.10696 0
M  V30 7897 C 786.288 4.16665 3.33505 0
M  V30 7898 O 786.511 3.59019 4.4324 0
M  V30 7899 O 785.445 5.09324 3.20737 0
M  V30 7900 H 789.271 2.95977 0.680518 0
M  V30 7901 H 786.856 1.46933 0.270401 0
M  V30 7902 H 788.738 2.82211 3.12946 0
M  V30 7903 H 787.413 1.6831 2.76502 0
M  V30 7904 H 786.32 3.49855 1.32484 0
M  V30 7905 H 787.653 4.59601 1.76148 0
M  V30 7906 N 789.305 -0.326896 1.54172 0
M  V30 7907 C 790.551 -1.06681 1.72473 0
M  V30 7908 C 790.884 -1.87779 0.49523 0
M  V30 7909 O 790.159 -1.87754 -0.507803 0
M  V30 7910 C 790.442 -1.99429 2.99834 0
M  V30 7911 C 790.295 -1.21682 4.33028 0
M  V30 7912 C 791.614 -2.99002 3.22933 0
M  V30 7913 H 788.733 -0.386438 0.627563 0
M  V30 7914 H 791.375 -0.343779 1.86864 0
M  V30 7915 H 789.525 -2.61081 2.87696 0
M  V30 7916 H 791.197 -0.625153 4.57044 0
M  V30 7917 H 789.44 -0.519045 4.30684 0
M  V30 7918 H 790.111 -1.89766 5.18356 0
M  V30 7919 H 792.587 -2.4747 3.34511 0
M  V30 7920 H 791.463 -3.61085 4.13412 0
M  V30 7921 H 791.724 -3.71281 2.40006 0
M  V30 7922 N 790.784 -1.46188 -0.588786 0
M  V30 7923 C 792.012 -1.54743 -1.37339 0
M  V30 7924 C 792.427 -0.186446 -1.87877 0
M  V30 7925 O 791.784 0.815247 -1.63279 0
M  V30 7926 C 791.835 -2.54727 -2.56508 0
M  V30 7927 O 791.556 -3.85539 -2.08066 0
M  V30 7928 C 793.057 -2.73163 -3.49137 0
M  V30 7929 H 790.277 -0.523484 -0.419768 0
M  V30 7930 H 792.821 -1.91543 -0.716345 0
M  V30 7931 H 790.976 -2.20948 -3.18215 0
M  V30 7932 H 791.39 -4.39905 -2.85629 0
M  V30 7933 H 792.864 -3.47057 -4.2925 0
M  V30 7934 H 793.341 -1.79856 -4.00685 0
M  V30 7935 H 793.947 -3.08014 -2.9327 0
M  V30 7936 N 792.262 0.832906 -1.33792 0
M  V30 7937 C 793.51 1.58539 -1.25338 0
M  V30 7938 C 793.831 1.94175 0.179204 0
M  V30 7939 O 793.101 1.61458 1.10941 0
M  V30 7940 H 791.681 0.58784 -0.460926 0
M  V30 7941 H 794.343 0.995064 -1.67584 0
M  V30 7942 H 793.439 2.51268 -1.85123 0
M  V30 7943 N 793.74 1.17359 1.05189 0
M  V30 7944 C 794.988 0.960087 1.77839 0
M  V30 7945 C 795.309 -0.512554 1.88143 0
M  V30 7946 O 794.579 -1.3721 1.39822 0
M  V30 7947 H 793.159 0.352234 0.658741 0
M  V30 7948 H 795.821 1.47834 1.27008 0
M  V30 7949 H 794.917 1.38843 2.79516 0
M  V30 7950 N 795.218 -1.23913 0.973828 0
M  V30 7951 C 796.464 -1.92436 0.640026 0
M  V30 7952 C 796.797 -1.75875 -0.823512 0
M  V30 7953 O 796.072 -1.11563 -1.59323 0
M  V30 7954 C 796.355 -3.4526 1.0231 0
M  V30 7955 C 796.208 -3.70961 2.54378 0
M  V30 7956 C 797.527 -4.36495 0.562155 0
M  V30 7957 H 794.646 -0.698868 0.233992 0
M  V30 7958 H 797.288 -1.46163 1.21393 0
M  V30 7959 H 795.438 -3.84802 0.534751 0
M  V30 7960 H 797.11 -3.40941 3.10737 0
M  V30 7961 H 795.353 -3.15899 2.97305 0
M  V30 7962 H 796.024 -4.77912 2.76232 0
M  V30 7963 H 798.5 -4.04363 0.981333 0
M  V30 7964 H 797.376 -5.42142 0.858689 0
M  V30 7965 H 797.637 -4.38818 -0.537659 0
M  V30 7966 N 796.696 -0.74468 -1.38897 0
M  V30 7967 C 797.646 -0.0869375 -2.27834 0
M  V30 7968 C 798.63 0.702553 -1.44751 0
M  V30 7969 O 799.822 0.569972 -1.67572 0
M  V30 7970 C 796.951 0.812232 -3.33553 0
M  V30 7971 C 796.037 0.0163713 -4.24097 0
M  V30 7972 N 796.428 -1.01547 -4.95502 0
M  V30 7973 C 794.726 0.244554 -4.45329 0
M  V30 7974 C 795.427 -1.49622 -5.62128 0
M  V30 7975 N 794.403 -0.813097 -5.37485 0
M  V30 7976 H 798.205 -0.877345 -2.80499 0
M  V30 7977 H 795.719 -0.579898 -1.51694 0
M  V30 7978 H 797.716 1.299 -3.96146 0
M  V30 7979 H 796.376 1.60169 -2.82446 0
M  V30 7980 H 797.387 -1.39707 -4.98701 0
M  V30 7981 H 794.064 1.00806 -4.05147 0
M  V30 7982 H 795.454 -2.35523 -6.29268 0
M  V30 7983 N 798.174 1.49689 -0.493057 0
M  V30 7984 C 799.422 2.02027 0.0541642 0
M  V30 7985 C 799.743 1.37554 1.38217 0
M  V30 7986 O 799.013 0.528174 1.88646 0
M  V30 7987 H 797.593 0.746646 0.0230069 0
M  V30 7988 H 800.255 1.83795 -0.648489 0
M  V30 7989 H 799.351 3.11523 0.189652 0
M  V30 7990 N 799.652 0.226554 1.55963 0
M  V30 7991 C 800.615 -0.668015 2.19249 0
M  V30 7992 C 801.615 -1.11794 1.1558 0
M  V30 7993 O 802.805 -1.02593 1.40784 0
M  V30 7994 C 799.937 -1.91571 2.81981 0
M  V30 7995 H 801.13 -0.116175 2.99675 0
M  V30 7996 H 798.683 -0.0230497 1.56283 0
M  V30 7997 H 799.418 -2.50929 2.05439 0
M  V30 7998 H 799.203 -1.6015 3.57903 0
M  V30 7999 H 800.693 -2.55294 3.30477 0
M  V30 8000 N 801.13 -1.57531 -0.0467866 0
M  V30 8001 C 802.078 -2.06455 -1.0714 0
M  V30 8002 C 803.072 -0.974744 -1.38546 0
M  V30 8003 O 804.278 -1.15974 -1.37659 0
M  V30 8004 H 800.653 -0.658607 -0.362962 0
M  V30 8005 H 802.624 -2.91613 -0.632813 0
M  V30 8006 C 801.373 -2.54481 -2.36927 0
M  V30 8007 H 800.696 -3.37946 -2.13617 0
M  V30 8008 H 802.136 -2.92442 -3.07007 0
M  V30 8009 C 800.595 -1.43836 -3.04652 0
M  V30 8010 O 801.125 -0.794531 -3.93764 0
M  V30 8011 N 799.331 -1.17727 -2.65686 0
M  V30 8012 H 798.878 -1.70265 -1.93307 0
M  V30 8013 H 798.836 -0.439051 -3.11319 0
M  V30 8014 N 802.608 0.318715 -1.54344 0
M  V30 8015 C 804.024 0.663345 -1.45162 0
M  V30 8016 C 804.224 1.9145 -0.62842 0
M  V30 8017 O 803.28 2.5217 -0.129126 0
M  V30 8018 C 804.593 0.832836 -2.88937 0
M  V30 8019 C 806.141 0.929866 -2.98869 0
M  V30 8020 C 806.616 1.13149 -4.43803 0
M  V30 8021 N 808.107 1.19811 -4.47437 0
M  V30 8022 C 808.842 1.37209 -5.56742 0
M  V30 8023 N 808.338 1.51619 -6.76006 0
M  V30 8024 N 810.131 1.39956 -5.44398 0
M  V30 8025 H 802.282 -0.50357 -2.06344 0
M  V30 8026 H 804.545 -0.163528 -0.933789 0
M  V30 8027 H 804.251 -0.0153519 -3.51697 0
M  V30 8028 H 804.125 1.72721 -3.35332 0
M  V30 8029 H 806.512 1.76855 -2.36233 0
M  V30 8030 H 806.593 0.0118561 -2.55797 0
M  V30 8031 H 806.237 0.297636 -5.07027 0
M  V30 8032 H 806.167 2.06345 -4.84489 0
M  V30 8033 H 808.658 1.101 -3.61506 0
M  V30 8034 H 808.971 1.64599 -7.55067 0
M  V30 8035 H 807.316 1.48708 -6.78904 0
M  V30 8036 H 810.507 1.28298 -4.50175 0
M  V30 8037 H 810.68 1.53172 -6.29637 0
M  V30 8038 N 804.086 1.46499 0.581025 0
M  V30 8039 C 805.016 1.60052 1.70017 0
M  V30 8040 C 805.997 0.450788 1.64018 0
M  V30 8041 O 807.182 0.677237 1.82009 0
M  V30 8042 C 804.312 1.5921 3.08658 0
M  V30 8043 C 803.266 2.73169 3.29488 0
M  V30 8044 C 802.592 2.57389 4.68674 0
M  V30 8045 C 803.892 4.14978 3.1716 0
M  V30 8046 H 805.586 2.53735 1.5893 0
M  V30 8047 H 803.132 1.22113 0.763173 0
M  V30 8048 H 805.085 1.67285 3.86773 0
M  V30 8049 H 803.809 0.620718 3.20647 0
M  V30 8050 H 802.468 2.64566 2.53773 0
M  V30 8051 H 802.116 1.58331 4.77431 0
M  V30 8052 H 801.816 3.33826 4.83564 0
M  V30 8053 H 803.34 2.67358 5.48956 0
M  V30 8054 H 804.754 4.24684 3.85119 0
M  V30 8055 H 803.151 4.92016 3.4357 0
M  V30 8056 H 804.221 4.35016 2.14218 0
M  V30 8057 N 805.565 -0.825799 1.34232 0
M  V30 8058 C 806.813 -1.57873 1.26177 0
M  V30 8059 C 807.134 -1.94267 -0.168904 0
M  V30 8060 O 806.404 -1.62045 -1.10084 0
M  V30 8061 H 804.984 -0.585388 0.464037 0
M  V30 8062 H 807.646 -0.986163 1.6811 0
M  V30 8063 H 806.742 -2.50283 1.86453 0
M  V30 8064 N 807.043 -1.17915 -1.04565 0
M  V30 8065 C 808.291 -0.969505 -1.77327 0
M  V30 8066 C 808.612 0.502569 -1.88412 0
M  V30 8067 O 807.882 1.36467 -1.40547 0
M  V30 8068 H 806.462 -0.355723 -0.656864 0
M  V30 8069 H 809.124 -1.48506 -1.26223 0
M  V30 8070 H 808.22 -1.40324 -2.78775 0
M  V30 8071 N 808.521 1.23394 -0.980386 0
M  V30 8072 C 809.469 2.26872 -0.513018 0
M  V30 8073 C 810.463 1.63853 0.429948 0
M  V30 8074 O 811.669 1.77417 0.303842 0
M  V30 8075 H 808.044 0.737398 -0.147473 0
M  V30 8076 H 810.015 2.63654 -1.39746 0
M  V30 8077 C 808.764 3.47289 0.168962 0
M  V30 8078 H 808.087 3.96033 -0.547546 0
M  V30 8079 H 809.527 4.21502 0.459616 0
M  V30 8080 C 807.986 3.06425 1.40019 0
M  V30 8081 O 808.516 3.14708 2.49643 0
M  V30 8082 N 806.722 2.61339 1.27084 0
M  V30 8083 H 806.269 2.54799 0.378872 0
M  V30 8084 H 806.227 2.34364 2.09573 0
M  V30 8085 N 809.999 0.752036 1.385 0
M  V30 8086 C 810.962 0.131587 2.28822 0
M  V30 8087 C 811.962 -0.649149 1.47115 0
M  V30 8088 O 813.152 -0.475645 1.67581 0
M  V30 8089 C 810.284 -0.822101 3.30839 0
M  V30 8090 H 811.477 0.927551 2.85196 0
M  V30 8091 H 809.03 0.518945 1.47434 0
M  V30 8092 H 809.765 -1.6438 2.79553 0
M  V30 8093 H 809.55 -0.264689 3.91206 0
M  V30 8094 H 811.04 -1.25226 3.98382 0
M  V30 8095 N 811.477 -1.49425 0.500989 0
M  V30 8096 C 812.726 -2.01649 -0.04538 0
M  V30 8097 C 813.039 -1.38572 -1.38047 0
M  V30 8098 O 814.245 -1.82124 -2.01353 0
M  V30 8099 C 812.701 -3.5966 -0.131337 0
M  V30 8100 C 812.309 -4.3171 1.19711 0
M  V30 8101 C 814.053 -4.19828 -0.628071 0
M  V30 8102 C 811.96 -5.81579 1.07332 0
M  V30 8103 H 810.89 -0.753715 -0.0207329 0
M  V30 8104 H 813.541 -1.71962 0.640407 0
M  V30 8105 H 811.923 -3.86063 -0.881574 0
M  V30 8106 H 813.097 -4.17008 1.96064 0
M  V30 8107 H 811.412 -3.83286 1.62729 0
M  V30 8108 H 814.009 -5.2958 -0.738198 0
M  V30 8109 H 814.352 -3.83194 -1.6269 0
M  V30 8110 H 814.885 -3.97746 0.0656314 0
M  V30 8111 H 811.624 -6.22738 2.04642 0
M  V30 8112 H 811.144 -5.98774 0.350679 0
M  V30 8113 H 812.823 -6.42614 0.752047 0
M  V30 8114 N 812.955 -0.234822 -1.55841 0
M  V30 8115 C 814.18 0.400741 -2.03492 0
M  V30 8116 C 814.605 1.51618 -1.11327 0
M  V30 8117 O 813.963 1.81002 -0.103922 0
M  V30 8118 C 814.011 0.897184 -3.49261 0
M  V30 8119 O 813.115 2.00764 -3.60233 0
M  V30 8120 H 812.456 0.0890023 -0.658008 0
M  V30 8121 H 814.986 -0.357345 -2.01455 0
M  V30 8122 H 814.996 1.20356 -3.89844 0
M  V30 8123 H 813.671 0.0808639 -4.15821 0
M  V30 8124 H 812.248 1.70689 -3.31541 0
M  V30 8125 N 814.433 1.57553 0.0384317 0
M  V30 8126 C 815.71 1.79977 0.766002 0
M  V30 8127 C 816.09 0.830625 1.94072 0
M  V30 8128 O 815.438 -0.129243 2.28134 0
M  V30 8129 C 815.648 3.27434 1.20781 0
M  V30 8130 C 816.996 3.92167 1.62758 0
M  V30 8131 O 818.02 3.31527 1.30263 0
M  V30 8132 O 816.879 4.98917 2.23035 0
M  V30 8133 H 813.973 0.739787 0.369654 0
M  V30 8134 H 816.519 1.69693 0.0159312 0
M  V30 8135 H 815.291 3.89558 0.368792 0
M  V30 8136 H 814.914 3.42571 2.01819 0
M  V30 8137 N 815.911 -0.310526 1.54511 0
M  V30 8138 C 817.16 -1.0445 1.72549 0
M  V30 8139 C 817.473 -1.88748 0.513172 0
M  V30 8140 O 818.679 -2.65338 0.575165 0
M  V30 8141 C 817.135 -1.90665 3.05246 0
M  V30 8142 C 816.743 -1.11415 4.33925 0
M  V30 8143 C 818.487 -2.63719 3.32645 0
M  V30 8144 C 816.394 -1.96852 5.57677 0
M  V30 8145 H 815.324 -0.393676 0.643067 0
M  V30 8146 H 817.975 -0.302003 1.80998 0
M  V30 8147 H 816.357 -2.68864 2.90737 0
M  V30 8148 H 817.531 -0.378956 4.59239 0
M  V30 8149 H 815.846 -0.499853 4.13389 0
M  V30 8150 H 818.443 -3.27974 4.223 0
M  V30 8151 H 818.786 -3.32047 2.51098 0
M  V30 8152 H 819.319 -1.92574 3.48081 0
M  V30 8153 H 816.058 -1.33009 6.41864 0
M  V30 8154 H 815.578 -2.68069 5.36562 0
M  V30 8155 H 817.257 -2.55127 5.94575 0
M  V30 8156 N 817.389 -1.46805 -0.573248 0
M  V30 8157 C 818.638 -1.51868 -1.32736 0
M  V30 8158 C 818.951 -0.178765 -1.94781 0
M  V30 8159 O 820.157 -0.107272 -2.71288 0
M  V30 8160 C 818.613 -2.67641 -2.40616 0
M  V30 8161 C 818.221 -4.08094 -1.84832 0
M  V30 8162 C 819.965 -2.81984 -3.17309 0
M  V30 8163 C 817.872 -5.15193 -2.90397 0
M  V30 8164 H 816.802 -0.56523 -0.49903 0
M  V30 8165 H 819.453 -1.7304 -0.610695 0
M  V30 8166 H 817.835 -2.39818 -3.15124 0
M  V30 8167 H 819.009 -4.45751 -1.16803 0
M  V30 8168 H 817.324 -3.985 -1.20775 0
M  V30 8169 H 819.921 -3.59166 -3.96111 0
M  V30 8170 H 820.264 -1.89842 -3.70494 0
M  V30 8171 H 820.797 -3.095 -2.4991 0
M  V30 8172 H 817.536 -6.09158 -2.42088 0
M  V30 8173 H 817.056 -4.82071 -3.56886 0
M  V30 8174 H 818.735 -5.41448 -3.54179 0
M  V30 8175 N 818.867 0.818669 -1.34668 0
M  V30 8176 C 820.095 1.60674 -1.30351 0
M  V30 8177 C 820.51 1.88408 0.121546 0
M  V30 8178 O 819.867 1.47849 1.06991 0
M  V30 8179 C 819.918 2.94516 -2.09625 0
M  V30 8180 O 819.639 2.6799 -3.46573 0
M  V30 8181 C 821.14 3.8891 -2.12754 0
M  V30 8182 H 818.36 0.499306 -0.448258 0
M  V30 8183 H 820.904 1.01828 -1.77345 0
M  V30 8184 H 819.059 3.49908 -1.66262 0
M  V30 8185 H 819.473 3.53361 -3.87603 0
M  V30 8186 H 820.947 4.79972 -2.72637 0
M  V30 8187 H 821.424 4.24599 -1.12306 0
M  V30 8188 H 822.03 3.39453 -2.56225 0
M  V30 8189 N 820.346 1.18468 1.03938 0
M  V30 8190 C 821.593 0.980833 1.77161 0
M  V30 8191 C 821.921 -0.489425 1.88242 0
M  V30 8192 O 821.176 -1.37961 1.388 0
M  V30 8193 C 821.475 1.58229 3.20466 0
M  V30 8194 C 821.141 3.07889 3.29416 0
M  V30 8195 C 819.803 3.48737 3.31566 0
M  V30 8196 C 822.155 4.03903 3.29411 0
M  V30 8197 C 819.483 4.84171 3.31355 0
M  V30 8198 C 821.835 5.39253 3.3074 0
M  V30 8199 C 820.499 5.79547 3.31182 0
M  V30 8200 H 819.769 0.358912 0.648277 0
M  V30 8201 H 822.416 1.47552 1.22069 0
M  V30 8202 H 820.721 1.00964 3.78568 0
M  V30 8203 H 822.418 1.39998 3.75768 0
M  V30 8204 H 819.008 2.75335 3.28464 0
M  V30 8205 H 823.192 3.73395 3.2694 0
M  V30 8206 H 818.448 5.14685 3.30015 0
M  V30 8207 H 822.622 6.13417 3.29686 0
M  V30 8208 H 820.249 6.84466 3.30772 0
M  V30 8209 N 821.824 -1.22873 0.986916 0
M  V30 8210 C 823.072 -1.91084 0.658121 0
M  V30 8211 C 823.393 -1.77304 -0.811675 0
M  V30 8212 O 822.663 -1.15649 -1.58121 0
M  V30 8213 H 821.243 -0.707251 0.240427 0
M  V30 8214 H 823.905 -1.49357 1.25213 0
M  V30 8215 H 823.001 -2.98373 0.915428 0
M  V30 8216 N 823.302 -0.75937 -1.38099 0
M  V30 8217 C 824.718 -0.437606 -1.53483 0
M  V30 8218 C 824.918 1.04849 -1.72072 0
M  V30 8219 O 823.974 1.83448 -1.73502 0
M  V30 8220 C 825.287 -1.24189 -2.73857 0
M  V30 8221 C 826.835 -1.23255 -2.8771 0
M  V30 8222 C 827.31 -2.01992 -4.11051 0
M  V30 8223 N 828.801 -1.99282 -4.1814 0
M  V30 8224 C 829.536 -2.56996 -5.12583 0
M  V30 8225 N 829.032 -3.23446 -6.12662 0
M  V30 8226 N 830.825 -2.46894 -5.04975 0
M  V30 8227 H 822.976 -1.72242 -1.24283 0
M  V30 8228 H 825.239 -0.730507 -0.604205 0
M  V30 8229 H 824.945 -2.29449 -2.66545 0
M  V30 8230 H 824.819 -0.862672 -3.67203 0
M  V30 8231 H 827.206 -0.187988 -2.94501 0
M  V30 8232 H 827.287 -1.65132 -1.95359 0
M  V30 8233 H 826.931 -3.06462 -4.05023 0
M  V30 8234 H 826.861 -1.57505 -5.02494 0
M  V30 8235 H 829.352 -1.50893 -3.46467 0
M  V30 8236 H 829.665 -3.6489 -6.81231 0
M  V30 8237 H 828.01 -3.27543 -6.12977 0
M  V30 8238 H 831.201 -1.94604 -4.25731 0
M  V30 8239 H 831.374 -2.92168 -5.78396 0
M  V30 8240 N 824.78 1.49157 -0.508906 0
M  V30 8241 C 825.71 2.32109 0.254469 0
M  V30 8242 C 826.691 1.40754 0.955111 0
M  V30 8243 O 827.876 1.69658 0.944983 0
M  V30 8244 C 825.006 3.21458 1.3146 0
M  V30 8245 C 823.96 4.2167 0.733368 0
M  V30 8246 C 823.286 5.00009 1.8946 0
M  V30 8247 C 824.586 5.21544 -0.280875 0
M  V30 8248 H 826.28 2.9618 -0.43795 0
M  V30 8249 H 823.826 1.4243 -0.212062 0
M  V30 8250 H 825.779 3.78305 1.85643 0
M  V30 8251 H 824.503 2.55346 2.03632 0
M  V30 8252 H 823.162 3.65979 0.213231 0
M  V30 8253 H 822.81 4.30338 2.60419 0
M  V30 8254 H 822.51 5.67821 1.51173 0
M  V30 8255 H 824.034 5.59702 2.44061 0
M  V30 8256 H 825.448 5.73039 0.173095 0
M  V30 8257 H 823.845 5.97291 -0.580006 0
M  V30 8258 H 824.915 4.69969 -1.19404 0
M  V30 8259 N 826.258 0.243083 1.55714 0
M  V30 8260 C 827.221 -0.644723 2.19945 0
M  V30 8261 C 828.221 -1.10562 1.16759 0
M  V30 8262 O 829.411 -1.01095 1.41865 0
M  V30 8263 C 826.543 -1.88569 2.83997 0
M  V30 8264 H 827.736 -0.0843839 2.99781 0
M  V30 8265 H 825.289 -0.00647246 1.56299 0
M  V30 8266 H 826.024 -2.48736 2.08089 0
M  V30 8267 H 825.809 -1.56345 3.59581 0
M  V30 8268 H 827.299 -2.51774 3.33166 0
M  V30 8269 N 827.736 -1.57571 -0.0300757 0
M  V30 8270 C 828.984 -1.88852 -0.719666 0
M  V30 8271 C 829.305 -0.840645 -1.75949 0
M  V30 8272 O 828.575 0.125854 -1.95495 0
M  V30 8273 H 827.155 -0.696965 -0.268792 0
M  V30 8274 H 829.817 -1.949 0.00373285 0
M  V30 8275 H 828.913 -2.87695 -1.20987 0
M  V30 8276 N 829.214 0.302327 -1.54673 0
M  V30 8277 C 830.124 1.39542 -1.88587 0
M  V30 8278 C 831.14 1.55543 -0.779895 0
M  V30 8279 O 832.316 1.70233 -1.07623 0
M  V30 8280 C 829.381 2.7394 -2.12504 0
M  V30 8281 C 828.442 2.66935 -3.3622 0
M  V30 8282 C 827.675 3.94923 -3.58987 0
M  V30 8283 O 827.898 4.94218 -2.84789 0
M  V30 8284 O 826.832 3.96896 -4.52501 0
M  V30 8285 H 830.658 1.13784 -2.81579 0
M  V30 8286 H 828.243 0.49827 -1.40846 0
M  V30 8287 H 830.125 3.5346 -2.29443 0
M  V30 8288 H 828.8 2.99544 -1.22698 0
M  V30 8289 H 827.707 1.85892 -3.24646 0
M  V30 8290 H 829.04 2.46283 -4.26152 0
M  V30 8291 N 830.692 1.47107 0.565454 0
M  V30 8292 C 831.602 1.61591 1.70075 0
M  V30 8293 C 832.618 0.498931 1.66693 0
M  V30 8294 O 833.794 0.765372 1.8629 0
M  V30 8295 C 830.859 1.61887 3.06583 0
M  V30 8296 C 829.92 2.84949 3.21096 0
M  V30 8297 C 829.153 2.85221 4.51093 0
M  V30 8298 O 829.376 1.94959 5.36048 0
M  V30 8299 O 828.31 3.76982 4.69221 0
M  V30 8300 H 832.136 2.57638 1.60799 0
M  V30 8301 H 829.721 1.30097 0.73451 0
M  V30 8302 H 831.603 1.64809 3.87835 0
M  V30 8303 H 830.278 0.69005 3.16259 0
M  V30 8304 H 829.185 2.87575 2.39273 0
M  V30 8305 H 830.518 3.77098 3.1632 0
M  V30 8306 N 832.17 -0.811516 1.35101 0
M  V30 8307 C 833.133 -1.90467 1.27495 0
M  V30 8308 C 834.133 -1.59703 0.187516 0
M  V30 8309 O 835.323 -1.68528 0.440896 0
M  V30 8310 C 832.455 -3.26774 0.971154 0
M  V30 8311 H 833.648 -1.98631 2.2469 0
M  V30 8312 H 831.201 -1.00681 1.19553 0
M  V30 8313 H 831.936 -3.243 0.0028557 0
M  V30 8314 H 831.721 -3.50488 1.75785 0
M  V30 8315 H 833.211 -4.06804 0.943414 0
M  V30 8316 N 833.648 -1.19017 -1.03309 0
M  V30 8317 C 834.611 -0.926076 -2.09658 0
M  V30 8318 C 835.611 0.0917077 -1.60538 0
M  V30 8319 O 836.801 -0.142574 -1.73616 0
M  V30 8320 C 833.933 -0.390958 -3.38651 0
M  V30 8321 H 835.126 -1.86923 -2.3452 0
M  V30 8322 H 832.679 -1.00325 -1.19853 0
M  V30 8323 H 833.414 0.558446 -3.19456 0
M  V30 8324 H 833.199 -1.12474 -3.75622 0
M  V30 8325 H 834.689 -0.225131 -4.16993 0
M  V30 8326 N 835.127 1.22348 -0.993418 0
M  V30 8327 C 836.074 2.24294 -0.544118 0
M  V30 8328 C 837.044 1.60602 0.42381 0
M  V30 8329 O 838.229 1.87952 0.328453 0
M  V30 8330 C 835.369 3.44837 0.134578 0
M  V30 8331 C 834.482 4.23043 -0.875151 0
M  V30 8332 C 833.617 5.30928 -0.169919 0
M  V30 8333 C 832.656 6.00853 -1.16798 0
M  V30 8334 N 831.793 7.00381 -0.491021 0
M  V30 8335 H 836.633 2.6209 -1.4182 0
M  V30 8336 H 834.17 1.2881 -0.710384 0
M  V30 8337 H 836.128 4.13625 0.544998 0
M  V30 8338 H 834.758 3.07804 0.972446 0
M  V30 8339 H 833.81 3.53546 -1.40389 0
M  V30 8340 H 835.122 4.71237 -1.63516 0
M  V30 8341 H 834.276 6.05972 0.297205 0
M  V30 8342 H 833.015 4.8371 0.622586 0
M  V30 8343 H 832.02 5.24591 -1.64573 0
M  V30 8344 H 833.245 6.50159 -1.96137 0
M  V30 8345 H 831.191 6.55393 0.282037 0
M  V30 8346 H 831.108 7.46584 -1.18947 0
M  V30 8347 H 832.376 7.79486 -0.0467169 0
M  V30 8348 N 836.605 0.766683 1.37694 0
M  V30 8349 C 837.835 0.339446 2.03792 0
M  V30 8350 C 838.243 -1.04153 1.57952 0
M  V30 8351 O 837.586 -1.67521 0.753826 0
M  V30 8352 C 837.648 0.29822 3.58261 0
M  V30 8353 C 837.312 1.62293 4.27212 0
M  V30 8354 C 838.309 2.57447 4.51682 0
M  V30 8355 C 835.994 1.89597 4.65143 0
M  V30 8356 C 837.988 3.78117 5.13134 0
M  V30 8357 C 835.675 3.10538 5.26317 0
M  V30 8358 C 836.673 4.04617 5.50249 0
M  V30 8359 O 836.361 5.23429 6.10145 0
M  V30 8360 H 836.093 0.140952 0.661142 0
M  V30 8361 H 838.647 1.04022 1.77111 0
M  V30 8362 H 836.877 -0.458897 3.83967 0
M  V30 8363 H 838.566 -0.101263 4.05774 0
M  V30 8364 H 839.332 2.37633 4.22795 0
M  V30 8365 H 835.211 1.17199 4.45854 0
M  V30 8366 H 838.755 4.51563 5.3173 0
M  V30 8367 H 834.652 3.3024 5.54628 0
M  V30 8368 H 835.42 5.24187 6.28626 0
M  V30 8369 N 838.083 -1.48885 0.516809 0
M  V30 8370 C 839.308 -2.0739 -0.0205201 0
M  V30 8371 C 839.733 -1.37259 -1.28614 0
M  V30 8372 O 839.091 -0.434304 -1.76021 0
M  V30 8373 C 839.139 -3.59793 -0.24104 0
M  V30 8374 O 838.243 -3.90957 -1.31251 0
M  V30 8375 H 837.584 -0.663167 0.0332564 0
M  V30 8376 H 840.114 -1.91477 0.720956 0
M  V30 8377 H 840.124 -4.0531 -0.467737 0
M  V30 8378 H 838.799 -4.10244 0.68356 0
M  V30 8379 H 837.376 -3.57234 -1.06951 0
M  V30 8380 N 839.561 -0.251338 -1.55583 0
M  V30 8381 C 840.508 0.646337 -2.21565 0
M  V30 8382 C 841.478 1.16796 -1.18102 0
M  V30 8383 O 842.663 1.22162 -1.46564 0
M  V30 8384 C 839.803 1.83557 -2.92234 0
M  V30 8385 C 838.916 1.35006 -4.10363 0
M  V30 8386 C 838.051 2.4992 -4.68736 0
M  V30 8387 C 837.09 1.98253 -5.79105 0
M  V30 8388 N 836.227 3.06551 -6.31642 0
M  V30 8389 H 841.067 0.0769881 -2.97901 0
M  V30 8390 H 838.604 0.026238 -1.47077 0
M  V30 8391 H 840.562 2.53425 -3.31408 0
M  V30 8392 H 839.192 2.37733 -2.18364 0
M  V30 8393 H 838.244 0.545274 -3.76472 0
M  V30 8394 H 839.556 0.931435 -4.90026 0
M  V30 8395 H 838.71 3.27823 -5.10507 0
M  V30 8396 H 837.449 2.95086 -3.88298 0
M  V30 8397 H 836.454 1.18822 -5.36807 0
M  V30 8398 H 837.679 1.54051 -6.61396 0
M  V30 8399 H 835.625 3.51143 -5.54107 0
M  V30 8400 H 835.542 2.69033 -7.06511 0
M  V30 8401 H 836.81 3.84499 -6.78071 0
M  V30 8402 N 841.039 1.57585 0.0217189 0
M  V30 8403 C 841.986 2.07036 1.02004 0
M  V30 8404 C 842.956 0.96106 1.35473 0
M  V30 8405 O 844.141 1.23211 1.45684 0
M  V30 8406 C 841.281 2.56056 2.31364 0
M  V30 8407 C 840.394 3.80805 2.03989 0
M  V30 8408 C 839.529 4.18409 3.27272 0
M  V30 8409 C 838.568 5.36055 2.95486 0
M  V30 8410 N 837.705 5.69056 4.11242 0
M  V30 8411 H 842.545 2.92073 0.591396 0
M  V30 8412 H 840.082 1.44403 0.280384 0
M  V30 8413 H 842.04 2.82548 3.06957 0
M  V30 8414 H 840.67 1.73925 2.71937 0
M  V30 8415 H 839.722 3.61354 1.1886 0
M  V30 8416 H 841.034 4.66512 1.76546 0
M  V30 8417 H 840.188 4.46068 4.11228 0
M  V30 8418 H 838.927 3.31369 3.57835 0
M  V30 8419 H 837.932 5.08142 2.09933 0
M  V30 8420 H 839.157 6.24755 2.66193 0
M  V30 8421 H 837.103 4.84974 4.41742 0
M  V30 8422 H 837.02 6.49288 3.87247 0
M  V30 8423 H 838.288 6.01295 4.96049 0
M  V30 8424 N 842.517 -0.29412 1.54831 0
M  V30 8425 C 843.465 -1.38296 1.87021 0
M  V30 8426 C 844.459 -1.5216 0.744557 0
M  V30 8427 O 845.665 -1.54196 0.92864 0
M  V30 8428 H 842.04 -0.462088 0.593278 0
M  V30 8429 H 844.011 -1.08386 2.7802 0
M  V30 8430 C 842.76 -2.74024 2.14023 0
M  V30 8431 H 842.083 -2.6414 3.00117 0
M  V30 8432 H 843.523 -3.49205 2.40482 0
M  V30 8433 C 841.982 -3.23492 0.940982 0
M  V30 8434 O 842.512 -4.01361 0.164937 0
M  V30 8435 N 840.718 -2.80902 0.744467 0
M  V30 8436 H 840.265 -2.17694 1.37721 0
M  V30 8437 H 840.223 -3.14349 -0.0563652 0
M  V30 8438 O 844.034 -1.55391 -0.439992 0
M  V30 8439 H 844.725 -1.59875 -1.0936 0
M  V30 END ATOM
M  V30 BEGIN BOND
M  V30 END BOND
M  V30 END CTAB
M  END
$$$$
