drugbank_target|P17568 NADH dehydrogenase [ubiquinone] 1 beta subcomplex subunit 7 (DB00157)
 OpenBabel12092119333D

  0  0  0     0  0            999 V3000
M  V30 BEGIN CTAB
M  V30 COUNTS 2294 2319 0 0 0
M  V30 BEGIN ATOM
M  V30 1 H -0.908 1.98254 -0.117106 0
M  V30 2 N 0 1.576 0 0
M  V30 3 C 0.933 2.03868 1.02534 0
M  V30 4 C 1.911 0.928543 1.3348 0
M  V30 5 O 3.095 1.19667 1.45644 0
M  V30 6 C 0.222 2.43627 2.35294 0
M  V30 7 C -0.732 3.65373 2.2001 0
M  V30 8 S 0.101 5.13292 1.52614 0
M  V30 9 C 1.257 5.56322 2.86805 0
M  V30 10 H 1.49 2.90518 0.631377 0
M  V30 11 H -0.977 1.52953 0.210867 0
M  V30 12 H 0.981 2.67203 3.11629 0
M  V30 13 H -0.358 1.57376 2.7183 0
M  V30 14 H -1.165 3.90944 3.18086 0
M  V30 15 H -1.563 3.418 1.51819 0
M  V30 16 H 0.729 5.58782 3.83104 0
M  V30 17 H 1.672 6.56266 2.65933 0
M  V30 18 H 2.08 4.83886 2.90714 0
M  V30 19 N 1.4781 -0.272755 1.55222 0
M  V30 20 C 2.7261 -1.00234 1.75492 0
M  V30 21 C 3.0471 -1.8681 0.5592 0
M  V30 22 O 2.3171 -1.91215 -0.425882 0
M  V30 23 H 0.8971 -0.373076 0.647166 0
M  V30 24 H 3.5591 -0.296926 1.92625 0
M  V30 25 H 2.6551 -1.63913 2.65592 0
M  V30 26 N 2.9562 -1.48159 -0.537278 0
M  V30 27 C 3.9192 -1.61665 -1.62472 0
M  V30 28 C 4.9192 -0.490395 -1.5314 0
M  V30 29 O 6.1092 -0.755998 -1.5694 0
M  V30 30 C 3.2412 -1.57997 -3.02076 0
M  V30 31 H 4.4342 -2.58621 -1.51839 0
M  V30 32 H 1.9872 -1.36647 -0.758771 0
M  V30 33 H 2.7222 -0.624913 -3.18222 0
M  V30 34 H 2.5072 -2.39755 -3.10258 0
M  V30 35 H 3.9972 -1.70627 -3.81151 0
M  V30 36 N 4.4343 0.785586 -1.36625 0
M  V30 37 C 5.3843 1.88822 -1.27789 0
M  V30 38 C 6.3683 1.60014 -0.168579 0
M  V30 39 O 7.5603 1.72381 -0.401737 0
M  V30 40 C 4.6893 3.26092 -1.07327 0
M  V30 41 C 3.7753 3.60897 -2.22743 0
M  V30 42 N 4.1663 3.66982 -3.48077 0
M  V30 43 C 2.4643 3.90981 -2.14593 0
M  V30 44 C 3.1653 3.98137 -4.24101 0
M  V30 45 N 2.1413 4.13319 -3.53084 0
M  V30 46 H 5.9433 1.91759 -2.22723 0
M  V30 47 H 3.4573 0.981311 -1.29399 0
M  V30 48 H 5.4543 4.04954 -0.990842 0
M  V30 49 H 4.1143 3.24428 -0.132977 0
M  V30 50 H 5.1253 3.49531 -3.82163 0
M  V30 51 H 1.8023 3.9722 -1.2854 0
M  V30 52 H 3.1923 4.09737 -5.32509 0
M  V30 53 N 5.9124 1.20967 1.01018 0
M  V30 54 C 6.8424 0.988272 2.11555 0
M  V30 55 C 7.8234 -0.0849778 1.69888 0
M  V30 56 O 9.0084 0.0738202 1.9406 0
M  V30 57 C 6.1384 0.546528 3.42973 0
M  V30 58 C 5.0924 1.56375 3.9841 0
M  V30 59 C 4.4184 0.97842 5.25672 0
M  V30 60 C 5.7184 2.94922 4.31066 0
M  V30 61 H 7.4124 1.91276 2.30334 0
M  V30 62 H 4.9584 0.921073 1.1069 0
M  V30 63 H 6.9114 0.378839 4.19694 0
M  V30 64 H 5.6354 -0.413598 3.23971 0
M  V30 65 H 4.2944 1.71891 3.23804 0
M  V30 66 H 3.9424 0.0101688 5.02999 0
M  V30 67 H 3.6424 1.65784 5.63728 0
M  V30 68 H 5.1664 0.821939 6.05043 0
M  V30 69 H 6.5804 2.8288 4.9865 0
M  V30 70 H 4.9774 3.5983 4.80253 0
M  V30 71 H 6.0474 3.4616 3.39561 0
M  V30 72 N 7.3905 -1.2043 1.01659 0
M  V30 73 C 8.6365 -1.90079 0.706963 0
M  V30 74 C 8.9695 -1.78648 -0.761474 0
M  V30 75 O 8.2445 -1.17069 -1.55323 0
M  V30 76 C 8.5275 -3.41469 1.14327 0
M  V30 77 C 8.3805 -3.61833 2.67201 0
M  V30 78 C 9.6995 -4.34261 0.714529 0
M  V30 79 H 6.8185 -0.690254 0.2583 0
M  V30 80 H 9.4605 -1.41826 1.26433 0
M  V30 81 H 7.6105 -3.82696 0.669056 0
M  V30 82 H 9.2825 -3.2986 3.22475 0
M  V30 83 H 7.5255 -3.05304 3.08175 0
M  V30 84 H 8.1965 -4.67955 2.92783 0
M  V30 85 H 10.6725 -4.00682 1.12221 0
M  V30 86 H 9.5485 -5.38806 1.04784 0
M  V30 87 H 9.8095 -4.40431 -0.383799 0
M  V30 88 N 8.8686 -0.792821 -1.36206 0
M  V30 89 C 10.2846 -0.474903 -1.52371 0
M  V30 90 C 10.4846 1.00622 -1.74578 0
M  V30 91 O 9.5406 1.79162 -1.77924 0
M  V30 92 C 10.8536 -1.3083 -2.70747 0
M  V30 93 C 12.4016 -1.30234 -2.84619 0
M  V30 94 C 12.8766 -2.11956 -4.06004 0
M  V30 95 N 14.3676 -2.09419 -4.13156 0
M  V30 96 C 15.1026 -2.69419 -5.06163 0
M  V30 97 N 14.5986 -3.3829 -6.04592 0
M  V30 98 N 16.3916 -2.59134 -4.98804 0
M  V30 99 H 8.5426 -1.75222 -1.20046 0
M  V30 100 H 10.8056 -0.745024 -0.586211 0
M  V30 101 H 10.5116 -2.35881 -2.6087 0
M  V30 102 H 10.3856 -0.95196 -3.6499 0
M  V30 103 H 12.7726 -0.259748 -2.93955 0
M  V30 104 H 12.8536 -1.69847 -1.91274 0
M  V30 105 H 12.4976 -3.16248 -3.97429 0
M  V30 106 H 12.4276 -1.69711 -4.98503 0
M  V30 107 H 14.9186 -1.59297 -3.42685 0
M  V30 108 H 15.2316 -3.81394 -6.7213 0
M  V30 109 H 13.5766 -3.42393 -6.04807 0
M  V30 110 H 16.7676 -2.04927 -4.20859 0
M  V30 111 H 16.9406 -3.06185 -5.711 0
M  V30 112 N 10.3467 1.47872 -0.545128 0
M  V30 113 C 11.7627 1.5829 -0.204032 0
M  V30 114 C 11.9627 1.54529 1.29317 0
M  V30 115 O 11.0187 1.44232 2.07252 0
M  V30 116 C 12.3317 2.89304 -0.819987 0
M  V30 117 C 13.8797 3.02864 -0.790105 0
M  V30 118 C 14.3547 4.3656 -1.38491 0
M  V30 119 N 15.8457 4.43165 -1.34755 0
M  V30 120 C 16.5807 5.45153 -1.77753 0
M  V30 121 N 16.0767 6.54016 -2.2855 0
M  V30 122 N 17.8697 5.36125 -1.68897 0
M  V30 123 H 10.0207 1.4856 -1.51802 0
M  V30 124 H 12.2837 0.706305 -0.632327 0
M  V30 125 H 11.9897 2.97757 -1.87173 0
M  V30 126 H 11.8637 3.75957 -0.305915 0
M  V30 127 H 14.2507 2.94014 0.252913 0
M  V30 128 H 14.3317 2.17782 -1.34181 0
M  V30 129 H 13.9757 4.46164 -2.42693 0
M  V30 130 H 13.9057 5.20353 -0.808754 0
M  V30 131 H 16.3967 3.65083 -0.975855 0
M  V30 132 H 16.7097 7.27994 -2.59314 0
M  V30 133 H 15.0547 6.54938 -2.32553 0
M  V30 134 H 18.2457 4.49975 -1.28998 0
M  V30 135 H 18.4187 6.15472 -2.02726 0
M  V30 136 N 11.8248 0.280983 1.55075 0
M  V30 137 C 13.0548 -0.336804 2.03836 0
M  V30 138 C 13.4628 -1.49577 1.15859 0
M  V30 139 O 12.8058 -1.82888 0.172503 0
M  V30 140 C 12.8678 -0.874616 3.48699 0
M  V30 141 C 12.5318 0.156478 4.56732 0
M  V30 142 C 13.5288 0.978032 5.10618 0
M  V30 143 C 11.2138 0.292409 5.01448 0
M  V30 144 C 13.2078 1.92165 6.07743 0
M  V30 145 C 10.8948 1.23949 5.98398 0
M  V30 146 C 11.8928 2.05261 6.51427 0
M  V30 147 O 11.5808 2.98367 7.4648 0
M  V30 148 H 11.3128 -0.0800885 0.671239 0
M  V30 149 H 13.8668 0.412589 2.01213 0
M  V30 150 H 12.0968 -1.67418 3.4858 0
M  V30 151 H 13.7858 -1.40612 3.80766 0
M  V30 152 H 14.5518 0.883782 4.7688 0
M  V30 153 H 10.4308 -0.330498 4.59814 0
M  V30 154 H 13.9748 2.55672 6.49059 0
M  V30 155 H 9.8718 1.33454 6.31554 0
M  V30 156 H 10.6398 2.93116 7.64215 0
M  V30 157 N 13.3029 -1.57598 0.00835791 0
M  V30 158 C 14.2329 -2.1198 -0.979113 0
M  V30 159 C 15.2139 -1.03091 -1.35301 0
M  V30 160 O 16.3989 -1.30818 -1.43528 0
M  V30 161 C 13.5289 -2.62995 -2.26828 0
M  V30 162 C 12.4829 -3.76485 -2.03576 0
M  V30 163 C 11.8089 -4.13846 -3.38579 0
M  V30 164 C 13.1089 -5.0342 -1.39161 0
M  V30 165 H 14.8029 -2.94738 -0.526281 0
M  V30 166 H 12.3489 -1.41783 -0.251704 0
M  V30 167 H 14.3019 -2.99669 -2.96271 0
M  V30 168 H 13.0259 -1.7737 -2.7424 0
M  V30 169 H 11.6849 -3.40217 -1.36557 0
M  V30 170 H 11.3329 -3.25232 -3.83709 0
M  V30 171 H 11.0329 -4.90312 -3.23834 0
M  V30 172 H 12.5569 -4.53086 -4.09323 0
M  V30 173 H 13.9709 -5.37812 -1.98573 0
M  V30 174 H 12.3679 -5.84746 -1.34878 0
M  V30 175 H 13.4379 -4.83548 -0.361868 0
M  V30 176 N 14.781 0.264519 -1.55364 0
M  V30 177 C 16.029 0.993021 -1.76021 0
M  V30 178 C 16.35 1.86511 -0.569099 0
M  V30 179 O 15.62 1.91438 0.415735 0
M  V30 180 H 14.2 0.369639 -0.649135 0
M  V30 181 H 16.862 0.286707 -1.9278 0
M  V30 182 H 15.958 1.62502 -2.66457 0
M  V30 183 N 16.2591 1.48442 0.529413 0
M  V30 184 C 17.5361 1.46978 1.29062 0
M  V30 185 C 17.9161 0.181769 2.10316 0
M  V30 186 O 17.2641 -0.836481 2.12639 0
M  V30 187 C 17.4741 2.7321 2.17157 0
M  V30 188 C 18.8221 3.21562 2.77278 0
M  V30 189 O 19.8461 2.74131 2.27444 0
M  V30 190 O 18.7051 4.04094 3.67927 0
M  V30 191 H 15.7991 0.587003 0.582543 0
M  V30 192 H 18.3451 1.60676 0.546021 0
M  V30 193 H 17.1171 3.58465 1.56903 0
M  V30 194 H 16.7401 2.62235 2.98862 0
M  V30 195 N 17.7372 -0.778329 1.37039 0
M  V30 196 C 18.7002 -1.87301 1.32102 0
M  V30 197 C 19.7002 -1.59198 0.226405 0
M  V30 198 O 20.8902 -1.67403 0.481861 0
M  V30 199 C 18.0222 -3.24309 1.05055 0
M  V30 200 H 19.2152 -1.93093 2.29467 0
M  V30 201 H 16.7682 -0.977358 1.21973 0
M  V30 202 H 17.5032 -3.24196 0.0819373 0
M  V30 203 H 17.2882 -3.46098 1.84279 0
M  V30 204 H 18.7782 -4.04382 1.04234 0
M  V30 205 N 19.2153 -1.21501 -1.00376 0
M  V30 206 C 20.4403 -1.05977 -1.78279 0
M  V30 207 C 20.8653 0.385994 -1.84097 0
M  V30 208 O 20.2233 1.27849 -1.28547 0
M  V30 209 C 20.2713 -1.66302 -3.19963 0
M  V30 210 O 19.3753 -0.909333 -4.0225 0
M  V30 211 H 18.7163 -0.372906 -0.549397 0
M  V30 212 H 21.2463 -1.6107 -1.26165 0
M  V30 213 H 21.2563 -1.70574 -3.70632 0
M  V30 214 H 19.9313 -2.71515 -3.15043 0
M  V30 215 H 18.5083 -0.941795 -3.60811 0
M  V30 216 N 20.6934 1.19889 -1.02296 0
M  V30 217 C 21.9394 1.89701 -0.717033 0
M  V30 218 C 22.2724 1.7905 0.751989 0
M  V30 219 O 21.5474 1.17891 1.547 0
M  V30 220 C 21.8304 3.40858 -1.16136 0
M  V30 221 C 21.6834 3.60411 -2.69117 0
M  V30 222 C 23.0024 4.33876 -0.737549 0
M  V30 223 H 20.1214 0.688874 -0.261957 0
M  V30 224 H 22.7634 1.41154 -1.27183 0
M  V30 225 H 20.9134 3.82335 -0.689342 0
M  V30 226 H 22.5854 3.28145 -3.2422 0
M  V30 227 H 20.8284 3.03665 -3.0979 0
M  V30 228 H 21.4994 4.66396 -2.95261 0
M  V30 229 H 23.9754 4.00081 -1.14344 0
M  V30 230 H 22.8514 5.38242 -1.0764 0
M  V30 231 H 23.1124 4.40628 0.360436 0
M  V30 232 N 22.1715 0.800033 1.35784 0
M  V30 233 C 23.0815 0.207204 2.33683 0
M  V30 234 C 24.0975 -0.64631 1.61551 0
M  V30 235 O 25.2735 -0.559604 1.93469 0
M  V30 236 C 22.3385 -0.639659 3.40748 0
M  V30 237 C 21.3995 0.233585 4.28664 0
M  V30 238 C 20.6325 -0.572954 5.30616 0
M  V30 239 O 20.8555 -1.80816 5.40982 0
M  V30 240 O 19.7895 0.0327285 6.01891 0
M  V30 241 H 23.6155 1.01692 2.86169 0
M  V30 242 H 21.2005 0.561691 1.38439 0
M  V30 243 H 23.0825 -1.12223 4.06182 0
M  V30 244 H 21.7575 -1.42708 2.90544 0
M  V30 245 H 20.6645 0.763147 3.66233 0
M  V30 246 H 21.9975 0.984784 4.82248 0
M  V30 247 N 23.6496 -1.47581 0.552962 0
M  V30 248 C 25.0606 -1.86324 0.118463 0
M  V30 249 C 25.4116 -1.46006 -1.3106 0
M  V30 250 O 24.5366 -0.861182 -1.98526 0
M  V30 251 C 25.1316 -3.3816 0.20821 0
M  V30 252 C 23.6906 -3.7601 -0.171226 0
M  V30 253 C 22.8376 -2.71634 0.557686 0
M  V30 254 H 25.7886 -1.39159 0.762928 0
M  V30 255 H 25.8096 -3.76141 -0.574278 0
M  V30 256 H 25.3216 -3.67473 1.24841 0
M  V30 257 H 23.4226 -3.52313 -1.21269 0
M  V30 258 H 23.5356 -4.78745 0.184379 0
M  V30 259 H 21.8996 -2.547 0.00125792 0
M  V30 260 H 22.6826 -3.0379 1.59896 0
M  V30 261 N 25.1277 -0.289203 -1.54924 0
M  V30 262 C 26.4047 0.376032 -1.91951 0
M  V30 263 C 26.7847 1.72622 -1.21511 0
M  V30 264 O 26.1327 2.25853 -0.346767 0
M  V30 265 C 26.3427 0.502378 -3.45365 0
M  V30 266 C 27.6907 0.778741 -4.17398 0
M  V30 267 O 28.7147 0.586647 -3.51336 0
M  V30 268 O 27.5737 1.14698 -5.34328 0
M  V30 269 H 24.6677 0.208167 -0.800372 0
M  V30 270 H 27.2137 -0.336394 -1.66332 0
M  V30 271 H 25.9857 -0.447255 -3.88736 0
M  V30 272 H 25.6087 1.26373 -3.76982 0
M  V30 273 N 26.6058 1.57591 -0.0167156 0
M  V30 274 C 28.0168 1.79201 0.523834 0
M  V30 275 C 28.3678 0.925796 1.72984 0
M  V30 276 O 27.4928 0.132792 2.15992 0
M  V30 277 C 28.0878 3.25 0.957091 0
M  V30 278 C 26.6468 3.47648 1.44283 0
M  V30 279 C 25.7938 2.74374 0.401757 0
M  V30 280 H 28.7448 1.56831 -0.242816 0
M  V30 281 H 28.7658 3.34031 1.82219 0
M  V30 282 H 28.2778 3.88019 0.0791415 0
M  V30 283 H 26.3788 2.89866 2.34113 0
M  V30 284 H 26.4918 4.56352 1.45877 0
M  V30 285 H 24.8558 2.39485 0.867121 0
M  V30 286 H 25.6388 3.40102 -0.467513 0
M  V30 287 N 28.0839 -0.256276 1.55502 0
M  V30 288 C 29.0139 -1.32102 1.92539 0
M  V30 289 C 29.9949 -1.50684 0.789194 0
M  V30 290 O 31.1799 -1.63449 1.04872 0
M  V30 291 C 28.3099 -2.67752 2.21192 0
M  V30 292 C 27.2639 -2.63878 3.36975 0
M  V30 293 C 26.5899 -4.03236 3.51147 0
M  V30 294 C 27.8899 -2.21682 4.72921 0
M  V30 295 H 29.5839 -1.01351 2.81724 0
M  V30 296 H 27.1299 -0.486105 1.35547 0
M  V30 297 H 29.0829 -3.42365 2.45691 0
M  V30 298 H 27.8069 -3.0012 1.28824 0
M  V30 299 H 26.4659 -1.91722 3.12471 0
M  V30 300 H 26.1139 -4.32854 2.56216 0
M  V30 301 H 25.8139 -4.01535 4.29003 0
M  V30 302 H 27.3379 -4.79563 3.77957 0
M  V30 303 H 28.7519 -2.86023 4.96854 0
M  V30 304 H 27.1489 -2.3111 5.53812 0
M  V30 305 H 28.2189 -1.16833 4.70615 0
M  V30 306 N 29.562 -1.4872 -0.521534 0
M  V30 307 C 30.494 -1.59968 -1.64143 0
M  V30 308 C 31.507 -0.483463 -1.55456 0
M  V30 309 O 32.696 -0.75467 -1.61762 0
M  V30 310 C 29.796 -1.52127 -3.02838 0
M  V30 311 C 28.969 -2.78932 -3.36921 0
M  V30 312 C 28.028 -2.64428 -4.54933 0
M  V30 313 O 27.054 -3.38331 -4.57735 0
M  V30 314 N 28.256 -1.74606 -5.53618 0
M  V30 315 H 31.021 -2.56548 -1.54929 0
M  V30 316 H 28.582 -1.45551 -0.708988 0
M  V30 317 H 30.574 -1.40106 -3.79674 0
M  V30 318 H 29.144 -0.634868 -3.06085 0
M  V30 319 H 28.364 -3.05455 -2.4918 0
M  V30 320 H 29.652 -3.63041 -3.56481 0
M  V30 321 H 29.05 -1.13782 -5.54139 0
M  V30 322 H 27.607 -1.6852 -6.29638 0
M  V30 323 N 31.0401 0.771051 -1.3745 0
M  V30 324 C 31.9731 1.89166 -1.27638 0
M  V30 325 C 32.9511 1.61842 -0.156782 0
M  V30 326 O 34.1351 1.85569 -0.331111 0
M  V30 327 C 31.2621 3.24405 -0.973621 0
M  V30 328 C 30.3081 3.70638 -2.1102 0
M  V30 329 S 31.1411 3.84228 -3.73 0
M  V30 330 C 32.2971 5.22313 -3.44876 0
M  V30 331 H 32.5301 1.972 -2.22485 0
M  V30 332 H 30.0631 0.932224 -1.23081 0
M  V30 333 H 32.0211 4.02514 -0.805766 0
M  V30 334 H 30.6821 3.14071 -0.0426279 0
M  V30 335 H 29.8751 4.68685 -1.85338 0
M  V30 336 H 29.4771 2.99632 -2.23822 0
M  V30 337 H 31.7691 6.07505 -2.99908 0
M  V30 338 H 32.7121 5.53008 -4.42253 0
M  V30 339 H 33.1201 4.90284 -2.79789 0
M  V30 340 N 32.5182 1.22032 0.997298 0
M  V30 341 C 33.9292 1.0397 1.55071 0
M  V30 342 C 34.2802 -0.398192 1.92117 0
M  V30 343 O 33.4052 -1.28254 1.74298 0
M  V30 344 C 34.0002 1.88109 2.81781 0
M  V30 345 C 32.5592 1.74357 3.33581 0
M  V30 346 C 31.7062 1.84846 2.06706 0
M  V30 347 H 34.6572 1.35941 0.818883 0
M  V30 348 H 34.6782 1.39589 3.53971 0
M  V30 349 H 34.1902 2.92754 2.54787 0
M  V30 350 H 32.2912 0.72427 3.65493 0
M  V30 351 H 32.4042 2.56772 4.04481 0
M  V30 352 H 30.7682 1.28238 2.20062 0
M  V30 353 H 31.5512 2.91014 1.82114 0
M  V30 354 N 33.9963 -1.19345 1.0293 0
M  V30 355 C 35.2243 -1.92997 0.745644 0
M  V30 356 C 35.6393 -1.75519 -0.695589 0
M  V30 357 O 34.9963 -1.07737 -1.47306 0
M  V30 358 C 35.0473 -3.44741 1.08792 0
M  V30 359 O 34.7683 -3.61658 2.47256 0
M  V30 360 C 36.2693 -4.35515 0.827129 0
M  V30 361 H 33.4893 -0.613042 0.272801 0
M  V30 362 H 36.0333 -1.51473 1.3739 0
M  V30 363 H 34.1883 -3.84097 0.504832 0
M  V30 364 H 34.6023 -4.55514 2.60015 0
M  V30 365 H 36.0763 -5.40589 1.11658 0
M  V30 366 H 36.5533 -4.38552 -0.238436 0
M  V30 367 H 37.1593 -4.01841 1.39297 0
M  V30 368 N 35.4744 -0.807222 -1.35358 0
M  V30 369 C 36.7214 -0.387888 -1.9875 0
M  V30 370 C 37.0494 1.04509 -1.64037 0
M  V30 371 O 36.3044 1.73986 -0.895946 0
M  V30 372 C 36.6034 -0.519036 -3.53611 0
M  V30 373 C 36.2694 -1.91542 -4.08194 0
M  V30 374 C 34.9314 -2.29745 -4.22813 0
M  V30 375 C 37.2834 -2.82896 -4.37744 0
M  V30 376 C 34.6114 -3.58668 -4.643 0
M  V30 377 C 36.9634 -4.11265 -4.8067 0
M  V30 378 C 35.6274 -4.49466 -4.93494 0
M  V30 379 H 34.8974 -0.141938 -0.727279 0
M  V30 380 H 37.5444 -1.02814 -1.6156 0
M  V30 381 H 35.8494 0.204658 -3.91265 0
M  V30 382 H 37.5464 -0.175345 -4.00616 0
M  V30 383 H 34.1364 -1.60862 -3.97268 0
M  V30 384 H 38.3204 -2.54629 -4.26002 0
M  V30 385 H 33.5764 -3.88113 -4.72418 0
M  V30 386 H 37.7504 -4.82153 -5.02496 0
M  V30 387 H 35.3774 -5.49418 -5.25399 0
M  V30 388 N 36.9525 1.47285 -0.560781 0
M  V30 389 C 38.3635 1.86258 -0.128343 0
M  V30 390 C 38.7145 1.46699 1.30284 0
M  V30 391 O 37.8395 0.871698 1.98067 0
M  V30 392 C 38.4345 3.38044 -0.22614 0
M  V30 393 C 36.9935 3.76096 0.151283 0
M  V30 394 C 36.1405 2.71335 -0.572084 0
M  V30 395 H 39.0915 1.38752 -0.770297 0
M  V30 396 H 39.1125 3.76441 0.554322 0
M  V30 397 H 38.6245 3.66806 -1.26788 0
M  V30 398 H 36.7255 3.52951 1.19399 0
M  V30 399 H 36.8385 4.78641 -0.209765 0
M  V30 400 H 35.2025 2.54696 -0.0147653 0
M  V30 401 H 35.9855 3.02938 -1.61504 0
M  V30 402 N 38.4306 0.297415 1.54768 0
M  V30 403 C 39.8416 -0.195947 1.85669 0
M  V30 404 C 40.1926 -1.53707 1.21937 0
M  V30 405 O 39.3176 -2.10164 0.515754 0
M  V30 406 C 39.9126 -0.362318 3.36857 0
M  V30 407 C 38.4716 -0.799901 3.67802 0
M  V30 408 C 37.6186 0.0938578 2.77141 0
M  V30 409 H 40.5696 0.518538 1.4999 0
M  V30 410 H 40.5906 -1.19745 3.61167 0
M  V30 411 H 40.1026 0.613921 3.83214 0
M  V30 412 H 38.2036 -1.78682 3.26961 0
M  V30 413 H 38.3166 -0.621773 4.75048 0
M  V30 414 H 36.6806 -0.426254 2.51108 0
M  V30 415 H 37.4636 1.06639 3.26318 0
M  V30 416 N 39.9087 -1.5758 0.0250728 0
M  V30 417 C 41.1857 -1.82917 -0.692873 0
M  V30 418 C 41.5657 -0.908137 -1.90568 0
M  V30 419 O 40.9137 0.0372298 -2.2847 0
M  V30 420 C 41.1237 -3.32034 -1.07492 0
M  V30 421 C 42.4717 -3.98406 -1.46826 0
M  V30 422 O 43.4957 -3.36505 -1.16801 0
M  V30 423 O 42.3547 -5.07497 -2.02754 0
M  V30 424 H 39.4487 -0.754079 -0.33955 0
M  V30 425 H 41.9947 -1.69619 0.0524456 0
M  V30 426 H 40.7667 -3.90728 -0.211552 0
M  V30 427 H 40.3897 -3.50424 -1.87854 0
M  V30 428 N 41.3868 0.248026 -1.55636 0
M  V30 429 C 42.6168 0.992367 -1.81206 0
M  V30 430 C 43.0248 1.7949 -0.598324 0
M  V30 431 O 42.3678 1.78292 0.442434 0
M  V30 432 C 42.4298 1.97926 -3.00109 0
M  V30 433 C 42.0938 1.36377 -4.36177 0
M  V30 434 C 43.0908 0.76682 -5.14214 0
M  V30 435 C 40.7758 1.38347 -4.82872 0
M  V30 436 C 42.7698 0.197778 -6.37093 0
M  V30 437 C 40.4568 0.810574 -6.057 0
M  V30 438 C 41.4548 0.218754 -6.8265 0
M  V30 439 O 41.1428 -0.345298 -8.03158 0
M  V30 440 H 40.8748 0.297704 -0.606917 0
M  V30 441 H 43.4288 0.276517 -2.0353 0
M  V30 442 H 41.6588 2.73339 -2.73538 0
M  V30 443 H 43.3478 2.58694 -3.12781 0
M  V30 444 H 44.1138 0.744114 -4.79258 0
M  V30 445 H 39.9928 1.8335 -4.2297 0
M  V30 446 H 43.5368 -0.264788 -6.97097 0
M  V30 447 H 39.4338 0.830604 -6.40134 0
M  V30 448 H 40.2018 -0.237055 -8.18157 0
M  V30 449 N 42.8649 1.48995 0.513639 0
M  V30 450 C 44.1129 1.57531 1.26604 0
M  V30 451 C 44.4339 0.258236 1.93283 0
M  V30 452 O 43.7039 -0.721502 1.8213 0
M  V30 453 H 42.2839 0.580387 0.470276 0
M  V30 454 H 44.9459 1.85552 0.596373 0
M  V30 455 H 44.0419 2.36486 2.03669 0
M  V30 456 N 44.343 -0.763751 1.37857 0
M  V30 457 C 45.59 -1.52257 1.33506 0
M  V30 458 C 45.918 -1.94343 -0.078022 0
M  V30 459 O 45.173 -1.64958 -1.05297 0
M  V30 460 C 45.472 -2.79499 2.22745 0
M  V30 461 C 45.138 -2.56426 3.70886 0
M  V30 462 C 43.8 -2.49842 4.11257 0
M  V30 463 C 46.152 -2.36008 4.64704 0
M  V30 464 C 43.48 -2.20841 5.43549 0
M  V30 465 C 45.832 -2.0853 5.97242 0
M  V30 466 C 44.496 -2.00396 6.36709 0
M  V30 467 H 43.766 -0.557149 0.488534 0
M  V30 468 H 46.413 -0.879073 1.70131 0
M  V30 469 H 44.718 -3.48447 1.79142 0
M  V30 470 H 46.415 -3.37413 2.16688 0
M  V30 471 H 43.005 -2.62416 3.38874 0
M  V30 472 H 47.189 -2.40079 4.34368 0
M  V30 473 H 42.445 -2.13045 5.73081 0
M  V30 474 H 46.619 -1.91732 6.69486 0
M  V30 475 H 44.246 -1.77688 7.39142 0
M  V30 476 N 45.8211 -1.22559 -0.990812 0
M  V30 477 C 47.2321 -1.04791 -1.54518 0
M  V30 478 C 47.5831 0.387998 -1.92325 0
M  V30 479 O 46.7081 1.27328 -1.74976 0
M  V30 480 C 47.3031 -1.896 -2.80779 0
M  V30 481 C 45.8621 -1.76124 -3.32652 0
M  V30 482 C 45.0091 -1.8594 -2.05722 0
M  V30 483 H 47.9601 -1.36374 -0.811662 0
M  V30 484 H 47.9811 -1.41464 -3.53225 0
M  V30 485 H 47.4931 -2.94101 -2.53231 0
M  V30 486 H 45.5941 -0.743643 -3.65104 0
M  V30 487 H 45.7071 -2.58913 -4.03114 0
M  V30 488 H 44.0711 -1.29403 -2.19379 0
M  V30 489 H 44.8541 -2.91976 -1.80568 0
M  V30 490 N 47.2992 1.18797 -1.03562 0
M  V30 491 C 48.2092 2.25913 -0.632505 0
M  V30 492 C 49.2252 1.70668 0.338882 0
M  V30 493 O 50.4012 2.00453 0.195076 0
M  V30 494 C 47.4662 3.467 0.00350942 0
M  V30 495 C 46.5272 4.17098 -1.01624 0
M  V30 496 C 45.7602 5.32119 -0.410478 0
M  V30 497 O 45.9832 5.64976 0.784725 0
M  V30 498 O 44.9172 5.9107 -1.13667 0
M  V30 499 H 48.7432 2.62648 -1.52478 0
M  V30 500 H 46.3282 1.25781 -0.806195 0
M  V30 501 H 48.2102 4.19878 0.35781 0
M  V30 502 H 46.8852 3.11798 0.869686 0
M  V30 503 H 45.7922 3.4601 -1.42224 0
M  V30 504 H 47.1252 4.55987 -1.85301 0
M  V30 505 N 48.7773 0.814389 1.34928 0
M  V30 506 C 50.1933 0.499084 1.51596 0
M  V30 507 C 50.3933 -0.978319 1.76157 0
M  V30 508 O 49.4493 -1.76309 1.80752 0
M  V30 509 C 50.7623 1.35121 2.68631 0
M  V30 510 C 52.3103 1.34746 2.82511 0
M  V30 511 C 52.7853 2.18388 4.0258 0
M  V30 512 N 54.2763 2.15966 4.09772 0
M  V30 513 C 55.0113 2.77437 5.01813 0
M  V30 514 N 54.5073 3.47866 5.99134 0
M  V30 515 N 56.3003 2.67037 4.94619 0
M  V30 516 H 48.4513 1.7711 1.17243 0
M  V30 517 H 50.7143 0.754256 0.574284 0
M  V30 518 H 50.4203 2.40001 2.57085 0
M  V30 519 H 50.2943 1.00991 3.63429 0
M  V30 520 H 52.6813 0.30648 2.93504 0
M  V30 521 H 52.7623 1.72869 1.88547 0
M  V30 522 H 52.4063 3.2253 3.92347 0
M  V30 523 H 52.3363 1.77621 4.9574 0
M  V30 524 H 54.8273 1.64729 3.40107 0
M  V30 525 H 55.1403 3.92038 6.65977 0
M  V30 526 H 53.4853 3.51972 5.99284 0
M  V30 527 H 56.6763 2.11597 4.17546 0
M  V30 528 H 56.8493 3.15232 5.66156 0
M  V30 529 N 50.2554 -1.46986 0.568584 0
M  V30 530 C 51.2024 -2.30153 -0.172707 0
M  V30 531 C 52.1724 -1.39759 -0.897586 0
M  V30 532 O 53.3574 -1.68716 -0.891044 0
M  V30 533 C 50.4974 -3.23952 -1.1895 0
M  V30 534 C 49.6104 -4.29441 -0.469517 0
M  V30 535 C 48.7454 -5.1038 -1.47259 0
M  V30 536 C 47.7844 -6.07632 -0.738225 0
M  V30 537 N 46.9214 -6.8149 -1.68868 0
M  V30 538 H 51.7614 -2.93019 0.542596 0
M  V30 539 H 49.2984 -1.44422 0.279401 0
M  V30 540 H 51.2564 -3.76767 -1.79173 0
M  V30 541 H 49.8864 -2.62926 -1.87269 0
M  V30 542 H 48.9384 -3.79594 0.247467 0
M  V30 543 H 50.2504 -4.98689 0.105241 0
M  V30 544 H 49.4044 -5.67402 -2.14803 0
M  V30 545 H 48.1434 -4.4106 -2.08128 0
M  V30 546 H 47.1484 -5.49778 -0.0489293 0
M  V30 547 H 48.3734 -6.78966 -0.135129 0
M  V30 548 H 46.3194 -6.14891 -2.28573 0
M  V30 549 H 46.2364 -7.46948 -1.16636 0
M  V30 550 H 47.5044 -7.43078 -2.3549 0
M  V30 551 N 51.7335 -0.305618 -1.54608 0
M  V30 552 C 52.6435 0.57778 -2.27374 0
M  V30 553 C 53.6595 1.14451 -1.31061 0
M  V30 554 O 54.8355 1.16831 -1.6405 0
M  V30 555 C 51.9005 1.73123 -3.00382 0
M  V30 556 C 50.9615 1.19812 -4.12242 0
M  V30 557 C 50.1945 2.2966 -4.81759 0
M  V30 558 O 50.4175 3.49651 -4.50666 0
M  V30 559 O 49.3515 1.96091 -5.69062 0
M  V30 560 H 53.1775 -0.012624 -3.03697 0
M  V30 561 H 50.7625 -0.0719184 -1.49227 0
M  V30 562 H 52.6445 2.40315 -3.4616 0
M  V30 563 H 51.3195 2.30815 -2.26949 0
M  V30 564 H 50.2265 0.491798 -3.70853 0
M  V30 565 H 51.5595 0.666566 -4.87666 0
M  V30 566 N 53.2116 1.57565 -0.0334293 0
M  V30 567 C 54.6276 1.56297 0.322997 0
M  V30 568 C 54.8276 1.03945 1.7262 0
M  V30 569 O 53.8836 0.688109 2.42943 0
M  V30 570 C 55.1966 3.00232 0.167664 0
M  V30 571 C 56.7446 3.12078 0.240107 0
M  V30 572 C 57.2196 4.57859 0.113513 0
M  V30 573 N 58.7106 4.62887 0.170359 0
M  V30 574 C 59.4456 5.73319 0.0962517 0
M  V30 575 N 58.9416 6.92794 -0.0291881 0
M  V30 576 N 60.7346 5.61898 0.150551 0
M  V30 577 H 52.8856 1.89923 -0.950956 0
M  V30 578 H 55.1486 0.873824 -0.367608 0
M  V30 579 H 54.8546 3.42501 -0.799102 0
M  V30 580 H 54.7286 3.654 0.936083 0
M  V30 581 H 57.1156 2.69718 1.19733 0
M  V30 582 H 57.1966 2.49623 -0.558763 0
M  V30 583 H 56.8406 5.009 -0.840314 0
M  V30 584 H 56.7706 5.18299 0.931302 0
M  V30 585 H 59.2616 3.76954 0.26728 0
M  V30 586 H 59.5746 7.7276 -0.0789252 0
M  V30 587 H 57.9196 6.94971 -0.0640299 0
M  V30 588 H 61.1106 4.67448 0.246981 0
M  V30 589 H 61.2836 6.47938 0.0893365 0
M  V30 590 N 54.6897 -0.239769 1.55765 0
M  V30 591 C 55.5997 -1.31831 1.94056 0
M  V30 592 C 56.6157 -1.52275 0.841925 0
M  V30 593 O 57.7917 -1.65759 1.14394 0
M  V30 594 C 54.8567 -2.65156 2.23368 0
M  V30 595 C 53.9177 -2.53173 3.46701 0
M  V30 596 C 53.1507 -3.8014 3.74606 0
M  V30 597 O 53.3737 -4.82343 3.04469 0
M  V30 598 O 52.3077 -3.78344 4.68123 0
M  V30 599 H 56.1337 -1.02347 2.85935 0
M  V30 600 H 53.7187 -0.441123 1.42739 0
M  V30 601 H 55.6007 -3.43929 2.43497 0
M  V30 602 H 54.2757 -2.94358 1.34666 0
M  V30 603 H 53.1827 -1.72662 3.31871 0
M  V30 604 H 54.5157 -2.28915 4.35728 0
M  V30 605 N 56.1678 -1.49265 -0.50573 0
M  V30 606 C 57.1008 -1.60183 -1.62532 0
M  V30 607 C 58.0788 -0.451107 -1.56217 0
M  V30 608 O 59.2628 -0.666016 -1.76342 0
M  V30 609 C 56.3898 -1.55238 -3.01029 0
M  V30 610 C 55.4358 -2.7545 -3.25621 0
M  V30 611 S 56.2688 -4.37174 -3.09256 0
M  V30 612 C 57.4248 -4.34866 -4.50158 0
M  V30 613 H 57.6578 -2.54894 -1.53025 0
M  V30 614 H 55.1908 -1.38098 -0.690535 0
M  V30 615 H 57.1488 -1.53071 -3.80893 0
M  V30 616 H 55.8098 -0.618238 -3.07956 0
M  V30 617 H 55.0028 -2.68197 -4.26716 0
M  V30 618 H 54.6048 -2.75005 -2.53472 0
M  V30 619 H 56.8968 -4.06295 -5.42154 0
M  V30 620 H 57.8398 -5.36223 -4.62462 0
M  V30 621 H 58.2478 -3.65007 -4.30616 0
M  V30 622 N 57.6459 0.756429 -1.3826 0
M  V30 623 C 58.8919 1.51772 -1.34511 0
M  V30 624 C 59.2249 1.94089 0.0656691 0
M  V30 625 O 58.4999 1.65221 1.02626 0
M  V30 626 C 58.7829 2.77226 -2.29821 0
M  V30 627 C 58.6359 2.41065 -3.79747 0
M  V30 628 C 59.9549 3.79236 -2.23312 0
M  V30 629 H 57.0739 0.550578 -0.489931 0
M  V30 630 H 59.7159 0.866607 -1.69086 0
M  V30 631 H 57.8659 3.32784 -2.00467 0
M  V30 632 H 59.5379 1.91303 -4.19763 0
M  V30 633 H 57.7809 1.7356 -3.97567 0
M  V30 634 H 58.4519 3.3081 -4.41892 0
M  V30 635 H 60.9279 3.3321 -2.49219 0
M  V30 636 H 59.8039 4.64714 -2.92116 0
M  V30 637 H 60.0649 4.24615 -1.23102 0
M  V30 638 N 59.124 1.23083 0.984299 0
M  V30 639 C 60.087 1.00979 2.05757 0
M  V30 640 C 61.087 -0.0269573 1.60777 0
M  V30 641 O 62.277 0.212403 1.729 0
M  V30 642 C 59.409 0.527072 3.36801 0
M  V30 643 H 60.602 1.9622 2.26799 0
M  V30 644 H 58.155 1.05072 1.15714 0
M  V30 645 H 58.89 -0.429294 3.21446 0
M  V30 646 H 58.675 1.27515 3.70786 0
M  V30 647 H 60.165 0.392942 4.15747 0
M  V30 648 N 60.6021 -1.18246 1.0419 0
M  V30 649 C 61.8301 -1.92195 0.766072 0
M  V30 650 C 62.2451 -1.76247 -0.676933 0
M  V30 651 O 61.6021 -1.09293 -1.46155 0
M  V30 652 C 61.6531 -3.43568 1.12442 0
M  V30 653 O 61.3741 -3.59015 2.51078 0
M  V30 654 C 62.8751 -4.34613 0.873275 0
M  V30 655 H 60.0951 -0.610114 0.279288 0
M  V30 656 H 62.6391 -1.50007 1.38989 0
M  V30 657 H 60.7941 -3.8354 0.545542 0
M  V30 658 H 61.2081 -4.5273 2.64831 0
M  V30 659 H 62.6821 -5.39374 1.17385 0
M  V30 660 H 63.1591 -4.38781 -0.191909 0
M  V30 661 H 63.7651 -4.00341 1.43551 0
M  V30 662 N 62.0802 -0.821533 -1.34494 0
M  V30 663 C 63.0122 -0.199946 -2.28326 0
M  V30 664 C 64.0252 0.609377 -1.50965 0
M  V30 665 O 65.2142 0.439285 -1.7301 0
M  V30 666 C 62.3142 0.738431 -3.30757 0
M  V30 667 C 61.4872 -0.0277632 -4.37391 0
M  V30 668 C 60.5462 0.831332 -5.19591 0
M  V30 669 O 59.5722 0.276822 -5.68526 0
M  V30 670 N 60.7742 2.15132 -5.39165 0
M  V30 671 H 63.5392 -1.00609 -2.82308 0
M  V30 672 H 61.1002 -0.678366 -1.47003 0
M  V30 673 H 63.0922 1.31773 -3.82646 0
M  V30 674 H 61.6622 1.44533 -2.7718 0
M  V30 675 H 60.8822 -0.788359 -3.86236 0
M  V30 676 H 62.1702 -0.555251 -5.05761 0
M  V30 677 H 61.5682 2.62559 -5.01078 0
M  V30 678 H 60.1252 2.6795 -5.94177 0
M  V30 679 N 63.5583 1.46682 -0.576371 0
M  V30 680 C 64.4903 2.28341 0.198231 0
M  V30 681 C 65.5033 1.38141 0.861453 0
M  V30 682 O 66.6923 1.62797 0.732082 0
M  V30 683 C 63.7923 3.12986 1.29972 0
M  V30 684 C 62.9653 4.31271 0.729639 0
M  V30 685 C 62.0243 4.97363 1.71803 0
M  V30 686 O 61.0503 5.55156 1.25658 0
M  V30 687 N 62.2523 4.93796 3.05198 0
M  V30 688 H 65.0173 2.9546 -0.502324 0
M  V30 689 H 62.5783 1.56525 -0.413715 0
M  V30 690 H 64.5703 3.54066 1.96008 0
M  V30 691 H 63.1403 2.47984 1.90323 0
M  V30 692 H 62.3603 3.94052 -0.108012 0
M  V30 693 H 63.6483 5.07739 0.328438 0
M  V30 694 H 63.0463 4.48077 3.45317 0
M  V30 695 H 61.6033 5.38837 3.6674 0
M  V30 696 N 65.0364 0.313813 1.54444 0
M  V30 697 C 65.9464 -0.565714 2.27677 0
M  V30 698 C 66.9624 -1.13754 1.31666 0
M  V30 699 O 68.1384 -1.15959 1.64668 0
M  V30 700 C 65.2034 -1.71528 3.01296 0
M  V30 701 C 64.2644 -1.17624 4.12872 0
M  V30 702 C 63.4974 -2.27102 4.8297 0
M  V30 703 O 63.7204 -3.47256 4.52514 0
M  V30 704 O 62.6544 -1.9307 5.70094 0
M  V30 705 H 66.4804 0.0287296 3.03686 0
M  V30 706 H 64.0654 0.0798312 1.49187 0
M  V30 707 H 65.9474 -2.38476 3.4743 0
M  V30 708 H 64.6224 -2.29608 2.2817 0
M  V30 709 H 63.5294 -0.472124 3.71109 0
M  V30 710 H 64.8624 -0.640695 4.88012 0
M  V30 711 N 66.5145 -1.57545 0.0417849 0
M  V30 712 C 67.4475 -2.06514 -0.970928 0
M  V30 713 C 68.4255 -0.963607 -1.30971 0
M  V30 714 O 69.6095 -1.23486 -1.4242 0
M  V30 715 C 66.7365 -2.4978 -2.28752 0
M  V30 716 C 65.7825 -3.71078 -2.10246 0
M  V30 717 S 66.6155 -5.17158 -1.38952 0
M  V30 718 C 67.7715 -5.6373 -2.71954 0
M  V30 719 H 68.0045 -2.9209 -0.554129 0
M  V30 720 H 65.5375 -1.53459 -0.17024 0
M  V30 721 H 67.4955 -2.75371 -3.04435 0
M  V30 722 H 66.1565 -1.64527 -2.67562 0
M  V30 723 H 65.3495 -3.9924 -3.07609 0
M  V30 724 H 64.9515 -3.45705 -1.42704 0
M  V30 725 H 67.2435 -5.68743 -3.68154 0
M  V30 726 H 68.1865 -6.63086 -2.4844 0
M  V30 727 H 68.5945 -4.91424 -2.77782 0
M  V30 728 N 67.9926 0.231505 -1.5589 0
M  V30 729 C 68.9256 1.31369 -1.86595 0
M  V30 730 C 69.9036 1.45671 -0.722397 0
M  V30 731 O 71.0876 1.61642 -0.969743 0
M  V30 732 C 68.2146 2.68529 -2.06421 0
M  V30 733 C 67.2606 2.71295 -3.29092 0
M  V30 734 S 68.0936 2.26358 -4.85306 0
M  V30 735 C 69.2496 3.65414 -5.08157 0
M  V30 736 H 69.4826 1.05128 -2.78092 0
M  V30 737 H 67.0156 0.433259 -1.48197 0
M  V30 738 H 68.9736 3.47499 -2.18528 0
M  V30 739 H 67.6346 2.91999 -1.15738 0
M  V30 740 H 66.8276 3.72063 -3.39978 0
M  V30 741 H 66.4296 2.0038 -3.15791 0
M  V30 742 H 68.7216 4.6103 -4.96445 0
M  V30 743 H 69.6646 3.5945 -6.10083 0
M  V30 744 H 70.0726 3.5864 -4.35933 0
M  V30 745 N 69.4707 1.49531 0.497807 0
M  V30 746 C 70.7477 1.49682 1.25915 0
M  V30 747 C 71.1277 0.226339 2.09883 0
M  V30 748 O 70.4757 -0.791189 2.14365 0
M  V30 749 C 70.6857 2.77755 2.11313 0
M  V30 750 C 72.0337 3.27371 2.70395 0
M  V30 751 O 73.0577 2.78894 2.21578 0
M  V30 752 O 71.9167 4.11808 3.59272 0
M  V30 753 H 69.0107 0.599228 0.56996 0
M  V30 754 H 71.5567 1.61798 0.511816 0
M  V30 755 H 70.3287 3.61713 1.49264 0
M  V30 756 H 69.9517 2.68515 2.93233 0
M  V30 757 N 70.9488 -0.749086 1.3866 0
M  V30 758 C 71.9118 -1.84457 1.36045 0
M  V30 759 C 72.9118 -1.58682 0.260122 0
M  V30 760 O 74.1018 -1.66343 0.517261 0
M  V30 761 C 71.2338 -3.22008 1.11911 0
M  V30 762 H 72.4268 -1.88182 2.33512 0
M  V30 763 H 69.9798 -0.951266 1.24019 0
M  V30 764 H 70.7148 -3.2395 0.150686 0
M  V30 765 H 70.4998 -3.42111 1.91579 0
M  V30 766 H 71.9898 -4.0208 1.12788 0
M  V30 767 N 72.4269 -1.23603 -0.977757 0
M  V30 768 C 73.3589 -0.977369 -2.07317 0
M  V30 769 C 74.3719 0.0495845 -1.62724 0
M  V30 770 O 75.5609 -0.186261 -1.77526 0
M  V30 771 C 72.6609 -0.451216 -3.35883 0
M  V30 772 C 71.8339 -1.53896 -4.09432 0
M  V30 773 C 70.8929 -1.01721 -5.16274 0
M  V30 774 O 69.9189 -1.70676 -5.43009 0
M  V30 775 N 71.1209 0.153594 -5.80297 0
M  V30 776 H 73.8859 -1.92047 -2.30082 0
M  V30 777 H 71.4469 -1.14497 -1.14465 0
M  V30 778 H 73.4389 -0.0871574 -4.04606 0
M  V30 779 H 72.0089 0.397368 -3.10064 0
M  V30 780 H 71.2289 -2.07566 -3.35127 0
M  V30 781 H 72.5169 -2.27037 -4.55337 0
M  V30 782 H 71.9149 0.730323 -5.60966 0
M  V30 783 H 70.4719 0.458892 -6.50183 0
M  V30 784 N 73.905 1.17692 -1.04816 0
M  V30 785 C 74.835 2.23777 -0.666791 0
M  V30 786 C 75.816 1.66796 0.33361 0
M  V30 787 O 77.001 1.93039 0.212042 0
M  V30 788 C 74.131 3.47281 -0.0367933 0
M  V30 789 C 73.085 4.17059 -0.961546 0
M  V30 790 C 72.411 5.34342 -0.195626 0
M  V30 791 C 73.711 4.69713 -2.28402 0
M  V30 792 H 75.405 2.55933 -1.55367 0
M  V30 793 H 72.951 1.23019 -0.748484 0
M  V30 794 H 74.904 4.20706 0.241775 0
M  V30 795 H 73.628 3.14381 0.885004 0
M  V30 796 H 72.287 3.45541 -1.22462 0
M  V30 797 H 71.935 4.97692 0.728816 0
M  V30 798 H 71.635 5.81966 -0.811775 0
M  V30 799 H 73.159 6.10553 0.0757473 0
M  V30 800 H 74.573 5.34794 -2.06563 0
M  V30 801 H 72.97 5.279 -2.8538 0
M  V30 802 H 74.04 3.86726 -2.92525 0
M  V30 803 N 75.3831 0.828654 1.34056 0
M  V30 804 C 76.7991 0.515135 1.51058 0
M  V30 805 C 76.9991 -0.959581 1.77184 0
M  V30 806 O 76.0551 -1.74382 1.82612 0
M  V30 807 C 77.3681 1.37963 2.67183 0
M  V30 808 C 78.9161 1.37735 2.81066 0
M  V30 809 C 79.3911 2.22645 4.00241 0
M  V30 810 N 80.8821 2.203 4.07458 0
M  V30 811 C 81.6171 2.82744 4.98842 0
M  V30 812 N 81.1131 3.54201 5.9541 0
M  V30 813 N 82.9061 2.72268 4.91759 0
M  V30 814 H 75.0571 1.78343 1.15358 0
M  V30 815 H 77.3201 0.760304 0.566252 0
M  V30 816 H 77.0261 2.42714 2.54525 0
M  V30 817 H 76.9001 1.0484 3.62338 0
M  V30 818 H 79.2871 0.337593 2.93163 0
M  V30 819 H 79.3681 1.74859 1.86703 0
M  V30 820 H 79.0121 3.26674 3.88905 0
M  V30 821 H 78.9421 1.82869 4.93829 0
M  V30 822 H 81.4331 1.68327 3.38341 0
M  V30 823 H 81.7461 3.9908 6.61782 0
M  V30 824 H 80.0911 3.58308 5.95517 0
M  V30 825 H 83.2821 2.16014 4.15278 0
M  V30 826 H 83.4551 3.21219 5.62781 0
M  V30 827 N 76.8612 -1.46375 0.584142 0
M  V30 828 C 77.7912 -2.33103 -0.136037 0
M  V30 829 C 78.7722 -1.45431 -0.882255 0
M  V30 830 O 79.9572 -1.74246 -0.857434 0
M  V30 831 C 77.0872 -3.27731 -1.14933 0
M  V30 832 C 76.0412 -4.24855 -0.517862 0
M  V30 833 C 75.3672 -5.09001 -1.63773 0
M  V30 834 C 76.6672 -5.19439 0.545886 0
M  V30 835 H 78.3612 -2.93568 0.588086 0
M  V30 836 H 75.9072 -1.41166 0.284259 0
M  V30 837 H 77.8602 -3.87261 -1.66153 0
M  V30 838 H 76.5842 -2.65377 -1.90375 0
M  V30 839 H 75.2432 -3.6659 -0.0267361 0
M  V30 840 H 74.8912 -4.43031 -2.38185 0
M  V30 841 H 74.5912 -5.74777 -1.22085 0
M  V30 842 H 76.1152 -5.71396 -2.15266 0
M  V30 843 H 77.5292 -5.73177 0.118704 0
M  V30 844 H 75.9262 -5.93566 0.88317 0
M  V30 845 H 76.9962 -4.63285 1.43162 0
M  V30 846 N 78.3393 -0.321999 -1.54275 0
M  V30 847 C 79.2713 0.578671 -2.21775 0
M  V30 848 C 80.2843 1.08109 -1.21722 0
M  V30 849 O 81.4733 0.994938 -1.482 0
M  V30 850 C 78.5733 1.80661 -2.86731 0
M  V30 851 C 77.7463 1.44314 -4.12907 0
M  V30 852 C 76.8053 2.52845 -4.61472 0
M  V30 853 O 75.8313 2.17054 -5.2619 0
M  V30 854 N 77.0333 3.83748 -4.35566 0
M  V30 855 H 79.7983 0.000709447 -2.997 0
M  V30 856 H 77.3593 -0.145132 -1.61248 0
M  V30 857 H 79.3513 2.52655 -3.16145 0
M  V30 858 H 77.9213 2.29245 -2.12521 0
M  V30 859 H 77.1413 0.554906 -3.90275 0
M  V30 860 H 78.4293 1.17598 -4.95023 0
M  V30 861 H 77.8273 4.15625 -3.83761 0
M  V30 862 H 76.3843 4.51977 -4.69638 0
M  V30 863 N 79.8174 1.5752 -0.0501392 0
M  V30 864 C 80.7474 2.14502 0.922566 0
M  V30 865 C 81.7284 1.06642 1.3252 0
M  V30 866 O 82.9134 1.34577 1.4001 0
M  V30 867 C 80.0434 2.68916 2.19776 0
M  V30 868 C 78.9974 3.8175 1.93523 0
M  V30 869 C 78.3234 4.22677 3.27487 0
M  V30 870 C 79.6234 5.06932 1.25765 0
M  V30 871 H 81.3174 2.9603 0.447952 0
M  V30 872 H 78.8634 1.42401 0.214024 0
M  V30 873 H 80.8164 3.07419 2.88222 0
M  V30 874 H 79.5404 1.84578 2.69441 0
M  V30 875 H 78.1994 3.43718 1.27489 0
M  V30 876 H 77.8474 3.35291 3.74952 0
M  V30 877 H 77.5474 4.98725 3.1072 0
M  V30 878 H 79.0714 4.63779 3.97166 0
M  V30 879 H 80.4854 5.42888 1.84244 0
M  V30 880 H 78.8824 5.88116 1.19328 0
M  V30 881 H 79.9524 4.84337 0.233536 0
M  V30 882 N 81.2955 -0.223234 1.56011 0
M  V30 883 C 82.7115 -0.572856 1.48965 0
M  V30 884 C 82.9115 -1.87225 0.74492 0
M  V30 885 O 81.9675 -2.50899 0.283896 0
M  V30 886 C 83.2805 -0.653646 2.9351 0
M  V30 887 C 84.8285 -0.744386 3.0402 0
M  V30 888 C 85.3035 -0.856535 4.49919 0
M  V30 889 N 86.7945 -0.9208 4.53955 0
M  V30 890 C 87.5295 -1.02726 5.64123 0
M  V30 891 N 87.0255 -1.09777 6.84047 0
M  V30 892 N 88.8185 -1.06226 5.51971 0
M  V30 893 H 80.9695 0.629462 2.02858 0
M  V30 894 H 83.2325 0.220621 0.921971 0
M  V30 895 H 82.9385 0.231518 3.50937 0
M  V30 896 H 82.8125 -1.51781 3.45315 0
M  V30 897 H 85.1995 -1.61999 2.46658 0
M  V30 898 H 85.2805 0.14541 2.55386 0
M  V30 899 H 84.9245 0.0146069 5.07898 0
M  V30 900 H 84.8545 -1.76172 4.96257 0
M  V30 901 H 87.3455 -0.876694 3.6759 0
M  V30 902 H 87.6585 -1.17872 7.63758 0
M  V30 903 H 86.0035 -1.06693 6.86762 0
M  V30 904 H 89.1945 -1.00382 4.5721 0
M  V30 905 H 89.3675 -1.14177 6.37862 0
M  V30 906 N 82.7736 -1.49793 -0.48987 0
M  V30 907 C 84.0506 -1.50348 -1.25119 0
M  V30 908 C 84.4306 -0.237466 -2.0976 0
M  V30 909 O 83.7786 0.77981 -2.14782 0
M  V30 910 C 83.9886 -2.78872 -2.09837 0
M  V30 911 C 85.3366 -3.288 -2.68655 0
M  V30 912 O 86.3606 -2.80065 -2.20096 0
M  V30 913 O 85.2196 -4.13707 -3.57083 0
M  V30 914 H 82.3136 -0.602242 -0.566775 0
M  V30 915 H 84.8596 -1.62067 -0.503229 0
M  V30 916 H 83.6316 -3.62499 -1.47343 0
M  V30 917 H 83.2546 -2.70066 -2.91805 0
M  V30 918 N 84.2517 0.741722 -1.39055 0
M  V30 919 C 85.4817 1.52876 -1.3897 0
M  V30 920 C 85.8897 1.8919 0.0193266 0
M  V30 921 O 85.2327 1.54138 0.999356 0
M  V30 922 C 85.2947 2.84929 -2.19216 0
M  V30 923 C 84.9587 2.71086 -3.67915 0
M  V30 924 C 85.9557 2.40084 -4.61146 0
M  V30 925 C 83.6407 2.88168 -4.11418 0
M  V30 926 C 85.6347 2.26335 -5.95862 0
M  V30 927 C 83.3217 2.74037 -5.46211 0
M  V30 928 C 84.3197 2.43166 -6.38247 0
M  V30 929 O 84.0077 2.29115 -7.70559 0
M  V30 930 H 83.7397 0.479252 -0.476753 0
M  V30 931 H 86.2937 0.924751 -1.83405 0
M  V30 932 H 84.5237 3.47564 -1.69518 0
M  V30 933 H 86.2127 3.46509 -2.11392 0
M  V30 934 H 86.9787 2.26545 -4.28838 0
M  V30 935 H 82.8577 3.11191 -3.40119 0
M  V30 936 H 86.4017 2.0216 -6.67665 0
M  V30 937 H 82.2987 2.87153 -5.78112 0
M  V30 938 H 83.0667 2.44237 -7.81211 0
M  V30 939 N 85.7298 1.2412 0.971189 0
M  V30 940 C 86.9698 1.09066 1.7287 0
M  V30 941 C 87.3338 -0.364794 1.88503 0
M  V30 942 O 88.5348 -0.636748 2.61149 0
M  V30 943 C 86.8058 1.80629 3.08396 0
M  V30 944 S 88.3648 1.81263 3.99611 0
M  V30 945 H 85.1828 0.390145 0.594397 0
M  V30 946 H 87.7848 1.57397 1.15959 0
M  V30 947 H 86.4888 2.85647 2.94676 0
M  V30 948 H 86.0198 1.32617 3.70373 0
M  V30 949 H 88.0348 0.877804 4.88374 0
M  V30 950 N 87.2079 -1.17134 1.05439 0
M  V30 951 C 88.1709 -2.19439 0.661764 0
M  V30 952 C 89.1709 -1.58199 -0.288042 0
M  V30 953 O 90.3609 -1.74053 -0.0715803 0
M  V30 954 C 87.4929 -3.40889 -0.0276209 0
M  V30 955 H 88.6859 -2.55688 1.56728 0
M  V30 956 H 86.2389 -1.31259 0.848567 0
M  V30 957 H 86.9739 -3.10187 -0.94629 0
M  V30 958 H 86.7589 -3.86586 0.655238 0
M  V30 959 H 88.2489 -4.16603 -0.288342 0
M  V30 960 N 88.686 -0.835752 -1.33615 0
M  V30 961 C 89.636 -0.238856 -2.26745 0
M  V30 962 C 90.62 0.604343 -1.49119 0
M  V30 963 O 91.812 0.456822 -1.71003 0
M  V30 964 C 88.941 0.587725 -3.38232 0
M  V30 965 C 88.027 -0.266811 -4.2326 0
M  V30 966 N 88.418 -1.34403 -4.87616 0
M  V30 967 C 86.716 -0.0533131 -4.45968 0
M  V30 968 C 87.417 -1.86819 -5.50884 0
M  V30 969 N 86.393 -1.17013 -5.30857 0
M  V30 970 H 90.195 -1.06266 -2.74016 0
M  V30 971 H 87.709 -0.679881 -1.47483 0
M  V30 972 H 89.706 1.03161 -4.03935 0
M  V30 973 H 88.366 1.40954 -2.9251 0
M  V30 974 H 89.377 -1.7269 -4.88261 0
M  V30 975 H 86.054 0.735312 -4.10974 0
M  V30 976 H 87.444 -2.7701 -6.1214 0
M  V30 977 N 90.1641 1.46063 -0.591896 0
M  V30 978 C 91.1141 2.27458 0.157172 0
M  V30 979 C 92.0981 1.3641 0.853301 0
M  V30 980 O 93.2901 1.60517 0.74588 0
M  V30 981 C 90.4191 3.22956 1.16423 0
M  V30 982 C 89.5051 4.2149 0.469742 0
M  V30 983 N 89.8961 5.03519 -0.479839 0
M  V30 984 C 88.1941 4.40161 0.719319 0
M  V30 985 C 88.8951 5.74904 -0.886591 0
M  V30 986 N 87.8711 5.43097 -0.233731 0
M  V30 987 H 91.6731 2.88272 -0.572392 0
M  V30 988 H 89.1871 1.57024 -0.414375 0
M  V30 989 H 91.1841 3.79986 1.71513 0
M  V30 990 H 89.8441 2.63701 1.89451 0
M  V30 991 H 90.8551 5.1078 -0.855823 0
M  V30 992 H 87.5321 3.92046 1.43548 0
M  V30 993 H 88.9221 6.50844 -1.66888 0
M  V30 994 N 91.6422 0.330177 1.54103 0
M  V30 995 C 92.5722 -0.525353 2.27513 0
M  V30 996 C 93.5532 -1.11383 1.2856 0
M  V30 997 O 94.7382 -1.13773 1.57383 0
M  V30 998 C 91.8682 -1.6831 3.03791 0
M  V30 999 C 90.8222 -1.2236 4.10137 0
M  V30 1000 C 90.1482 -2.46882 4.74293 0
M  V30 1001 C 91.4482 -0.333697 5.21233 0
M  V30 1002 H 93.1422 0.087013 2.99274 0
M  V30 1003 H 90.6882 0.0432893 1.43935 0
M  V30 1004 H 92.6412 -2.28795 3.5388 0
M  V30 1005 H 91.3652 -2.32216 2.29659 0
M  V30 1006 H 90.0242 -0.64165 3.60941 0
M  V30 1007 H 89.6722 -3.09165 3.96769 0
M  V30 1008 H 89.3722 -2.16825 5.46133 0
M  V30 1009 H 90.8962 -3.08117 5.27159 0
M  V30 1010 H 92.3102 -0.845013 5.67038 0
M  V30 1011 H 90.7072 -0.125612 5.99969 0
M  V30 1012 H 91.7772 0.633724 4.80741 0
M  V30 1013 N 93.1203 -1.57491 0.0584922 0
M  V30 1014 C 94.3693 -1.92155 -0.613146 0
M  V30 1015 C 94.6823 -0.939334 -1.71569 0
M  V30 1016 O 95.8883 -1.17829 -2.44599 0
M  V30 1017 C 94.3443 -3.41303 -1.14195 0
M  V30 1018 C 93.9523 -4.47944 -0.0711265 0
M  V30 1019 C 95.6963 -3.84988 -1.78841 0
M  V30 1020 C 93.6033 -5.88212 -0.613225 0
M  V30 1021 H 92.5333 -0.717162 -0.232796 0
M  V30 1022 H 95.1843 -1.83049 0.12857 0
M  V30 1023 H 93.5663 -3.45437 -1.93621 0
M  V30 1024 H 94.7403 -4.55408 0.702836 0
M  V30 1025 H 93.0553 -4.13644 0.478313 0
M  V30 1026 H 95.6523 -4.87159 -2.20408 0
M  V30 1027 H 95.9953 -3.21632 -2.64308 0
M  V30 1028 H 96.5283 -3.83401 -1.06059 0
M  V30 1029 H 93.2673 -6.55183 0.203978 0
M  V30 1030 H 92.7873 -5.84294 -1.35501 0
M  V30 1031 H 94.4663 -6.37687 -1.09383 0
M  V30 1032 N 94.5984 0.214957 -1.56127 0
M  V30 1033 C 96.0144 0.564948 -1.49267 0
M  V30 1034 C 96.2144 1.86827 -0.754838 0
M  V30 1035 O 95.2704 2.50745 -0.297198 0
M  V30 1036 C 96.5834 0.638071 -2.93852 0
M  V30 1037 C 98.1314 0.728253 -3.0441 0
M  V30 1038 C 98.6064 0.832663 -4.50367 0
M  V30 1039 N 100.097 0.896712 -4.54437 0
M  V30 1040 C 100.832 0.997324 -5.6466 0
M  V30 1041 N 100.328 1.06147 -6.8462 0
M  V30 1042 N 102.121 1.03297 -5.52527 0
M  V30 1043 H 94.2724 -0.640211 -2.02522 0
M  V30 1044 H 96.5354 -0.225507 -0.920788 0
M  V30 1045 H 96.2414 -0.250126 -3.50809 0
M  V30 1046 H 96.1154 1.49947 -3.46115 0
M  V30 1047 H 98.5024 1.60689 -2.47514 0
M  V30 1048 H 98.5834 -0.158952 -2.55306 0
M  V30 1049 H 98.2274 -0.0415417 -5.07883 0
M  V30 1050 H 98.1574 1.73538 -4.97184 0
M  V30 1051 H 100.648 0.857188 -3.6805 0
M  V30 1052 H 100.961 1.1382 -7.64372 0
M  V30 1053 H 99.3064 1.03049 -6.87318 0
M  V30 1054 H 102.497 0.979558 -4.57736 0
M  V30 1055 H 102.67 1.10793 -6.38458 0
M  V30 1056 N 96.0765 1.50051 0.48192 0
M  V30 1057 C 97.0065 1.71046 1.58951 0
M  V30 1058 C 97.9875 0.559288 1.60642 0
M  V30 1059 O 99.1725 0.797243 1.77081 0
M  V30 1060 C 96.3025 1.79462 2.97339 0
M  V30 1061 C 95.2565 2.94558 3.10515 0
M  V30 1062 C 94.5825 2.88105 4.50444 0
M  V30 1063 C 95.8825 4.35227 2.88747 0
M  V30 1064 H 97.5765 2.6378 1.41635 0
M  V30 1065 H 95.1225 1.26936 0.679942 0
M  V30 1066 H 97.0755 1.92734 3.74742 0
M  V30 1067 H 95.7995 0.833412 3.15788 0
M  V30 1068 H 94.4585 2.80918 2.35543 0
M  V30 1069 H 94.1065 1.89853 4.65795 0
M  V30 1070 H 93.8065 3.65366 4.60197 0
M  V30 1071 H 95.3305 3.03412 5.29881 0
M  V30 1072 H 96.7445 4.49449 3.55905 0
M  V30 1073 H 95.1415 5.13856 3.09955 0
M  V30 1074 H 96.2115 4.48347 1.84696 0
M  V30 1075 N 97.5546 -0.734337 1.39446 0
M  V30 1076 C 98.4846 -1.86155 1.40955 0
M  V30 1077 C 99.4656 -1.67898 0.272827 0
M  V30 1078 O 100.651 -1.88207 0.478743 0
M  V30 1079 C 97.7806 -3.23912 1.25294 0
M  V30 1080 C 96.7346 -3.56808 2.36373 0
M  V30 1081 C 96.0606 -4.93508 2.058 0
M  V30 1082 C 97.3606 -3.59713 3.78687 0
M  V30 1083 H 99.0546 -1.8515 2.35287 0
M  V30 1084 H 96.6006 -0.889367 1.13253 0
M  V30 1085 H 98.5536 -4.02443 1.2497 0
M  V30 1086 H 97.2776 -3.25446 0.274308 0
M  V30 1087 H 95.9366 -2.80606 2.35914 0
M  V30 1088 H 95.5846 -4.91623 1.06374 0
M  V30 1089 H 95.2846 -5.16486 2.80208 0
M  V30 1090 H 96.8086 -5.74396 2.07128 0
M  V30 1091 H 98.2226 -4.2832 3.81071 0
M  V30 1092 H 96.6196 -3.94209 4.52459 0
M  V30 1093 H 97.6896 -2.59504 4.09617 0
M  V30 1094 N 99.0327 -1.24633 -0.964593 0
M  V30 1095 C 99.9797 -1.04144 -2.05968 0
M  V30 1096 C 100.95 0.046262 -1.66036 0
M  V30 1097 O 102.135 -0.108972 -1.90489 0
M  V30 1098 C 99.2747 -0.65563 -3.38815 0
M  V30 1099 C 98.3877 -1.81714 -3.91923 0
M  V30 1100 C 97.5227 -1.37662 -5.13052 0
M  V30 1101 C 96.5617 -2.50788 -5.58365 0
M  V30 1102 N 95.6987 -2.07582 -6.70712 0
M  V30 1103 H 100.539 -1.9787 -2.22827 0
M  V30 1104 H 98.0757 -0.9855 -1.09208 0
M  V30 1105 H 100.034 -0.412954 -4.15151 0
M  V30 1106 H 98.6637 0.244627 -3.21872 0
M  V30 1107 H 97.7157 -2.1734 -3.12198 0
M  V30 1108 H 99.0277 -2.66705 -4.21509 0
M  V30 1109 H 98.1817 -1.093 -5.96773 0
M  V30 1110 H 96.9207 -0.497293 -4.85158 0
M  V30 1111 H 95.9257 -2.79906 -4.73215 0
M  V30 1112 H 97.1507 -3.39283 -5.88272 0
M  V30 1113 H 95.0967 -1.22051 -6.44546 0
M  V30 1114 H 95.0137 -2.86125 -6.99763 0
M  V30 1115 H 96.2817 -1.82369 -7.57867 0
M  V30 1116 N 100.511 1.16574 -1.06058 0
M  V30 1117 C 101.751 1.88723 -0.78504 0
M  V30 1118 C 102.115 1.79706 0.676006 0
M  V30 1119 O 103.316 2.46757 1.06603 0
M  V30 1120 C 101.587 3.34338 -1.26304 0
M  V30 1121 S 103.146 4.24366 -1.1162 0
M  V30 1122 H 99.9638 0.651448 -0.284846 0
M  V30 1123 H 102.566 1.40732 -1.35701 0
M  V30 1124 H 101.27 3.38439 -2.32136 0
M  V30 1125 H 100.801 3.87378 -0.685719 0
M  V30 1126 H 102.816 4.96179 -0.0456539 0
M  V30 1127 N 101.989 0.842826 1.3317 0
M  V30 1128 C 102.936 0.276885 2.29133 0
M  V30 1129 C 103.906 -0.609527 1.54512 0
M  V30 1130 O 105.091 -0.546955 1.82792 0
M  V30 1131 C 102.231 -0.538707 3.40869 0
M  V30 1132 C 101.344 0.372169 4.30394 0
M  V30 1133 C 100.479 -0.454908 5.29249 0
M  V30 1134 C 99.5179 0.45411 6.10413 0
M  V30 1135 N 98.6549 -0.335075 7.013 0
M  V30 1136 H 103.495 1.10052 2.76934 0
M  V30 1137 H 101.032 0.554161 1.36262 0
M  V30 1138 H 102.99 -1.02709 4.0436 0
M  V30 1139 H 101.62 -1.32727 2.9425 0
M  V30 1140 H 100.672 0.97888 3.6759 0
M  V30 1141 H 101.984 1.0703 4.87182 0
M  V30 1142 H 101.138 -1.00695 5.98285 0
M  V30 1143 H 99.8769 -1.18646 4.73048 0
M  V30 1144 H 98.8819 1.01813 5.40291 0
M  V30 1145 H 100.107 1.18409 6.68697 0
M  V30 1146 H 98.0529 -1.04994 6.47543 0
M  V30 1147 H 97.9699 0.304262 7.55387 0
M  V30 1148 H 99.2379 -0.869224 7.74638 0
M  V30 1149 N 103.467 -1.45747 0.599634 0
M  V30 1150 C 104.883 -1.57424 0.26264 0
M  V30 1151 C 105.083 -1.59222 -1.23493 0
M  V30 1152 O 104.139 -1.51825 -2.01756 0
M  V30 1153 C 105.452 -2.86061 0.926795 0
M  V30 1154 C 107 -2.99722 0.901967 0
M  V30 1155 C 107.475 -4.31119 1.54598 0
M  V30 1156 N 108.966 -4.37858 1.5111 0
M  V30 1157 C 109.701 -5.3818 1.97863 0
M  V30 1158 N 109.197 -6.45083 2.52666 0
M  V30 1159 N 110.99 -5.29487 1.88679 0
M  V30 1160 H 103.141 -1.42823 1.57211 0
M  V30 1161 H 105.404 -0.68235 0.658105 0
M  V30 1162 H 105.11 -2.90605 1.98095 0
M  V30 1163 H 104.984 -3.74563 0.445238 0
M  V30 1164 H 107.371 -2.9475 -0.143617 0
M  V30 1165 H 107.452 -2.12652 1.42171 0
M  V30 1166 H 107.096 -4.36849 2.59085 0
M  V30 1167 H 107.026 -5.16992 1.00132 0
M  V30 1168 H 109.517 -3.61209 1.11068 0
M  V30 1169 H 109.83 -7.17869 2.86155 0
M  V30 1170 H 108.175 -6.45856 2.56701 0
M  V30 1171 H 111.366 -4.44877 1.4561 0
M  V30 1172 H 111.539 -6.07524 2.25429 0
M  V30 1173 N 104.945 -0.338344 -1.53925 0
M  V30 1174 C 106.222 0.314774 -1.93051 0
M  V30 1175 C 106.602 1.68669 -1.26941 0
M  V30 1176 O 105.95 2.24636 -0.418445 0
M  V30 1177 C 106.16 0.392249 -3.46789 0
M  V30 1178 C 107.508 0.645554 -4.19664 0
M  V30 1179 O 108.532 0.474575 -3.53024 0
M  V30 1180 O 107.391 0.976408 -5.37707 0
M  V30 1181 H 104.485 0.182598 -0.80659 0
M  V30 1182 H 107.031 -0.389141 -1.65178 0
M  V30 1183 H 105.803 -0.570702 -3.87116 0
M  V30 1184 H 105.426 1.14316 -3.80812 0
M  V30 1185 N 106.423 1.57458 -0.0668435 0
M  V30 1186 C 107.648 1.9804 0.616027 0
M  V30 1187 C 108.073 0.944771 1.62652 0
M  V30 1188 O 107.431 -0.0902094 1.81075 0
M  V30 1189 C 107.479 3.37665 1.26549 0
M  V30 1190 O 106.583 3.36701 2.38131 0
M  V30 1191 H 105.924 0.644719 0.158849 0
M  V30 1192 H 108.454 2.04121 -0.139891 0
M  V30 1193 H 108.464 3.7474 1.6135 0
M  V30 1194 H 107.139 4.12573 0.525016 0
M  V30 1195 H 105.716 3.1139 2.0516 0
M  V30 1196 N 107.901 -0.206675 1.56239 0
M  V30 1197 C 109.148 -0.928842 1.79941 0
M  V30 1198 C 109.476 -1.83734 0.638131 0
M  V30 1199 O 108.731 -1.92039 -0.376746 0
M  V30 1200 C 109.03 -1.78675 3.09532 0
M  V30 1201 C 108.696 -1.03022 4.38973 0
M  V30 1202 C 107.358 -0.821302 4.74139 0
M  V30 1203 C 109.71 -0.497081 5.18824 0
M  V30 1204 C 107.038 -0.0675719 5.86661 0
M  V30 1205 C 109.39 0.24338 6.32132 0
M  V30 1206 C 108.054 0.463422 6.65889 0
M  V30 1207 H 107.324 -0.339887 0.658451 0
M  V30 1208 H 109.971 -0.195977 1.90495 0
M  V30 1209 H 108.276 -2.58794 2.94165 0
M  V30 1210 H 109.973 -2.34792 3.25075 0
M  V30 1211 H 106.563 -1.20306 4.11369 0
M  V30 1212 H 110.747 -0.645921 4.92079 0
M  V30 1213 H 106.003 0.112995 6.11296 0
M  V30 1214 H 110.177 0.66393 6.93228 0
M  V30 1215 H 107.804 1.04938 7.52922 0
M  V30 1216 N 109.379 -1.50304 -0.473955 0
M  V30 1217 C 110.79 -1.54042 -1.0549 0
M  V30 1218 C 111.141 -0.342248 -1.93192 0
M  V30 1219 O 110.266 0.545157 -2.09421 0
M  V30 1220 C 110.861 -2.79152 -1.91989 0
M  V30 1221 C 109.42 -2.8558 -2.45196 0
M  V30 1222 C 108.567 -2.48295 -1.2347 0
M  V30 1223 H 111.518 -1.5661 -0.256693 0
M  V30 1224 H 111.539 -2.60845 -2.7702 0
M  V30 1225 H 111.051 -3.66339 -1.28131 0
M  V30 1226 H 109.152 -2.02738 -3.12615 0
M  V30 1227 H 109.265 -3.88403 -2.80499 0
M  V30 1228 H 107.629 -2.00669 -1.56856 0
M  V30 1229 H 108.412 -3.37787 -0.612789 0
M  V30 1230 N 110.857 0.726932 -1.39834 0
M  V30 1231 C 111.805 1.86235 -1.39353 0
M  V30 1232 C 112.799 1.67144 -0.275555 0
M  V30 1233 O 114.005 1.74387 -0.44601 0
M  V30 1234 H 110.38 0.613174 -0.43534 0
M  V30 1235 H 112.351 1.83756 -2.35109 0
M  V30 1236 C 111.1 3.23995 -1.26185 0
M  V30 1237 H 110.423 3.39285 -2.11484 0
M  V30 1238 H 111.863 4.03609 -1.29907 0
M  V30 1239 C 110.322 3.36888 0.0290018 0
M  V30 1240 O 110.852 3.89152 0.99619 0
M  V30 1241 N 109.058 2.90446 0.0947437 0
M  V30 1242 H 108.605 2.48102 -0.693035 0
M  V30 1243 H 108.563 2.99451 0.957932 0
M  V30 1244 N 112.336 1.25143 0.95797 0
M  V30 1245 C 113.583 1.09692 1.70217 0
M  V30 1246 C 113.911 -0.362654 1.91089 0
M  V30 1247 O 113.166 -1.28386 1.47701 0
M  V30 1248 C 113.465 1.79272 3.09187 0
M  V30 1249 C 113.131 3.29196 3.08125 0
M  V30 1250 C 111.793 3.70096 3.07543 0
M  V30 1251 C 114.145 4.24995 3.0171 0
M  V30 1252 C 111.473 5.05213 2.9829 0
M  V30 1253 C 113.825 5.60132 2.93999 0
M  V30 1254 C 112.489 6.00365 2.9175 0
M  V30 1255 H 111.759 0.401393 0.622868 0
M  V30 1256 H 114.406 1.55372 1.11945 0
M  V30 1257 H 112.711 1.26014 3.70982 0
M  V30 1258 H 114.408 1.64773 3.65583 0
M  V30 1259 H 110.998 2.96651 3.09348 0
M  V30 1260 H 115.182 3.9439 3.01281 0
M  V30 1261 H 110.438 5.35569 2.94916 0
M  V30 1262 H 114.612 6.3406 2.87996 0
M  V30 1263 H 112.239 7.05023 2.84336 0
M  V30 1264 N 113.814 -1.1601 1.06675 0
M  V30 1265 C 114.744 -2.22688 0.702307 0
M  V30 1266 C 115.725 -1.67306 -0.307032 0
M  V30 1267 O 116.91 -1.93352 -0.181305 0
M  V30 1268 C 114.04 -3.47178 0.092038 0
M  V30 1269 C 112.994 -4.15477 1.02777 0
M  V30 1270 C 112.32 -5.33963 0.28061 0
M  V30 1271 C 113.62 -4.66019 2.35846 0
M  V30 1272 H 115.314 -2.53429 1.59419 0
M  V30 1273 H 112.86 -1.21813 0.767961 0
M  V30 1274 H 114.813 -4.21037 -0.174814 0
M  V30 1275 H 113.537 -3.15749 -0.834877 0
M  V30 1276 H 112.196 -3.43549 1.27944 0
M  V30 1277 H 111.844 -4.98788 -0.649545 0
M  V30 1278 H 111.544 -5.806 0.904258 0
M  V30 1279 H 113.068 -6.10596 0.021396 0
M  V30 1280 H 114.482 -5.3144 2.15045 0
M  V30 1281 H 112.879 -5.23293 2.93743 0
M  V30 1282 H 113.949 -3.82023 2.98641 0
M  V30 1283 N 115.292 -0.849877 -1.32721 0
M  V30 1284 C 116.255 -0.296122 -2.27279 0
M  V30 1285 C 117.255 0.541458 -1.5141 0
M  V30 1286 O 118.445 0.353658 -1.70572 0
M  V30 1287 C 115.577 0.581579 -3.35902 0
M  V30 1288 H 116.77 -1.13064 -2.77771 0
M  V30 1289 H 114.323 -0.62383 -1.43311 0
M  V30 1290 H 115.058 1.43809 -2.9067 0
M  V30 1291 H 114.843 -0.0178814 -3.92096 0
M  V30 1292 H 116.333 0.961951 -4.0637 0
M  V30 1293 N 116.77 1.45427 -0.607355 0
M  V30 1294 C 118.01 2.04128 -0.105458 0
M  V30 1295 C 118.374 1.46555 1.24039 0
M  V30 1296 O 119.575 1.96608 1.833 0
M  V30 1297 C 117.846 3.57338 -0.0665324 0
M  V30 1298 S 119.405 4.37201 0.374207 0
M  V30 1299 H 116.223 0.709278 -0.0494575 0
M  V30 1300 H 118.825 1.78139 -0.805404 0
M  V30 1301 H 117.529 3.96752 -1.04957 0
M  V30 1302 H 117.06 3.87902 0.655415 0
M  V30 1303 H 119.075 4.6888 1.62377 0
M  V30 1304 N 118.248 0.346503 1.53744 0
M  V30 1305 C 119.195 -0.508914 2.25119 0
M  V30 1306 C 120.165 -1.09315 1.25058 0
M  V30 1307 O 121.35 -1.12921 1.53797 0
M  V30 1308 C 118.49 -1.65246 3.02965 0
M  V30 1309 C 117.603 -1.09525 4.17886 0
M  V30 1310 C 116.738 -2.20634 4.83212 0
M  V30 1311 C 115.777 -1.62279 5.90196 0
M  V30 1312 N 114.914 -2.67143 6.49291 0
M  V30 1313 H 119.754 0.106283 2.9781 0
M  V30 1314 H 117.291 0.0642227 1.4696 0
M  V30 1315 H 119.249 -2.32574 3.4636 0
M  V30 1316 H 117.879 -2.2386 2.32565 0
M  V30 1317 H 116.931 -0.312818 3.79112 0
M  V30 1318 H 118.243 -0.628444 4.94825 0
M  V30 1319 H 117.397 -2.95821 5.29693 0
M  V30 1320 H 116.136 -2.70659 4.05703 0
M  V30 1321 H 115.141 -0.855989 5.43096 0
M  V30 1322 H 116.366 -1.13102 6.69615 0
M  V30 1323 H 114.312 -3.16417 5.74645 0
M  V30 1324 H 114.229 -2.25093 7.21713 0
M  V30 1325 H 115.497 -3.4209 7.00425 0
M  V30 1326 N 119.726 -1.57421 0.075193 0
M  V30 1327 C 120.658 -2.09904 -0.920483 0
M  V30 1328 C 121.671 -1.03191 -1.25918 0
M  V30 1329 O 122.86 -1.30695 -1.21577 0
M  V30 1330 C 119.96 -2.54726 -2.23534 0
M  V30 1331 C 119.133 -3.8505 -2.07498 0
M  V30 1332 C 118.192 -4.15929 -3.22319 0
M  V30 1333 O 117.218 -4.85474 -2.9716 0
M  V30 1334 N 118.42 -3.69745 -4.47514 0
M  V30 1335 H 121.185 -2.95954 -0.472359 0
M  V30 1336 H 118.746 -1.61523 -0.110444 0
M  V30 1337 H 120.738 -2.72443 -2.9926 0
M  V30 1338 H 119.308 -1.73795 -2.59835 0
M  V30 1339 H 118.528 -3.76679 -1.16219 0
M  V30 1340 H 119.816 -4.70348 -1.94038 0
M  V30 1341 H 119.214 -3.13569 -4.7084 0
M  V30 1342 H 117.771 -3.92655 -5.20255 0
M  V30 1343 N 121.204 0.198386 -1.56346 0
M  V30 1344 C 122.114 1.2664 -1.97483 0
M  V30 1345 C 123.13 1.49989 -0.882002 0
M  V30 1346 O 124.306 1.62668 -1.18748 0
M  V30 1347 C 121.371 2.59141 -2.30319 0
M  V30 1348 C 120.432 2.43892 -3.53292 0
M  V30 1349 C 119.665 3.70074 -3.84553 0
M  V30 1350 O 119.888 4.74101 -3.1715 0
M  V30 1351 O 118.822 3.658 -4.7799 0
M  V30 1352 H 122.648 0.947304 -2.88548 0
M  V30 1353 H 120.233 0.403123 -1.43859 0
M  V30 1354 H 122.115 3.37352 -2.5253 0
M  V30 1355 H 120.79 2.90684 -1.42423 0
M  V30 1356 H 119.697 1.63803 -3.36332 0
M  V30 1357 H 121.03 2.17282 -4.41644 0
M  V30 1358 N 122.682 1.50554 0.465978 0
M  V30 1359 C 124.098 1.38093 0.800154 0
M  V30 1360 C 124.298 0.440988 1.96615 0
M  V30 1361 O 123.354 -0.114499 2.5224 0
M  V30 1362 C 124.667 2.79565 1.10742 0
M  V30 1363 C 126.215 2.88516 1.21357 0
M  V30 1364 C 126.69 4.30833 1.55393 0
M  V30 1365 N 128.181 4.33807 1.62375 0
M  V30 1366 C 128.916 5.40927 1.90225 0
M  V30 1367 N 128.412 6.58247 2.16062 0
M  V30 1368 N 130.205 5.28376 1.9177 0
M  V30 1369 H 122.356 2.10237 -0.302366 0
M  V30 1370 H 124.619 0.945203 -0.0727746 0
M  V30 1371 H 124.325 3.50208 0.323661 0
M  V30 1372 H 124.199 3.17125 2.04234 0
M  V30 1373 H 126.586 2.1809 1.98799 0
M  V30 1374 H 126.667 2.54492 0.258321 0
M  V30 1375 H 126.311 5.01799 0.784889 0
M  V30 1376 H 126.241 4.62347 2.52076 0
M  V30 1377 H 128.732 3.49212 1.44427 0
M  V30 1378 H 129.045 7.3569 2.36601 0
M  V30 1379 H 127.39 6.61413 2.13444 0
M  V30 1380 H 130.581 4.35715 1.71085 0
M  V30 1381 H 130.754 6.11944 2.13139 0
M  V30 1382 N 124.16 -0.719506 1.40217 0
M  V30 1383 C 125.11 -1.8251 1.36653 0
M  V30 1384 C 126.094 -1.59028 0.244732 0
M  V30 1385 O 127.286 -1.70268 0.483524 0
M  V30 1386 C 124.415 -3.20599 1.22763 0
M  V30 1387 C 123.501 -3.49858 2.39708 0
M  V30 1388 N 123.892 -3.49957 3.6519 0
M  V30 1389 C 122.19 -3.80297 2.33002 0
M  V30 1390 C 122.891 -3.77449 4.42614 0
M  V30 1391 N 121.867 -3.96002 3.72402 0
M  V30 1392 H 125.669 -1.80914 2.31619 0
M  V30 1393 H 123.183 -0.918455 1.33933 0
M  V30 1394 H 125.18 -3.99766 1.18292 0
M  V30 1395 H 123.84 -3.23424 0.287614 0
M  V30 1396 H 124.851 -3.309 3.98404 0
M  V30 1397 H 121.528 -3.90635 1.47346 0
M  V30 1398 H 122.918 -3.83863 5.51451 0
M  V30 1399 N 125.638 -1.25649 -0.95132 0
M  V30 1400 C 126.915 -1.01361 -1.67288 0
M  V30 1401 C 127.295 0.459135 -2.06046 0
M  V30 1402 O 126.643 1.43723 -1.7764 0
M  V30 1403 C 126.853 -1.95256 -2.89268 0
M  V30 1404 C 128.201 -2.23289 -3.61147 0
M  V30 1405 O 129.225 -1.93041 -2.99355 0
M  V30 1406 O 128.084 -2.74741 -4.72419 0
M  V30 1407 H 125.178 -0.38464 -0.732107 0
M  V30 1408 H 127.724 -1.36817 -1.00395 0
M  V30 1409 H 126.496 -2.94685 -2.57442 0
M  V30 1410 H 126.119 -1.60218 -3.6389 0
M  V30 1411 N 127.117 1.15442 -1.07289 0
M  V30 1412 C 128.363 1.8672 -0.806679 0
M  V30 1413 C 128.718 1.80723 0.660084 0
M  V30 1414 O 128.011 1.21902 1.47819 0
M  V30 1415 C 128.205 3.3489 -1.24834 0
M  V30 1416 C 128.034 3.55313 -2.7565 0
M  V30 1417 C 126.804 3.7082 -3.4325 0
M  V30 1418 C 129.002 3.53188 -3.73848 0
M  V30 1419 N 126.984 3.7929 -4.82713 0
M  V30 1420 C 128.355 3.67765 -4.99149 0
M  V30 1421 C 130.41 3.36459 -3.67015 0
M  V30 1422 C 129.113 3.6734 -6.18428 0
M  V30 1423 C 131.139 3.37333 -4.85758 0
M  V30 1424 C 130.501 3.52438 -6.09891 0
M  V30 1425 H 126.6 0.700433 -0.347733 0
M  V30 1426 H 129.184 1.38441 -1.36902 0
M  V30 1427 H 127.355 3.81786 -0.713713 0
M  V30 1428 H 129.087 3.93875 -0.929745 0
M  V30 1429 H 125.842 3.71568 -2.93656 0
M  V30 1430 H 126.266 3.8727 -5.55294 0
M  V30 1431 H 130.908 3.237 -2.71989 0
M  V30 1432 H 128.626 3.78878 -7.13777 0
M  V30 1433 H 132.212 3.25617 -4.82146 0
M  V30 1434 H 131.092 3.53047 -7.00234 0
M  V30 1435 N 128.595 0.856903 1.32268 0
M  V30 1436 C 129.872 0.382583 1.91822 0
M  V30 1437 C 130.252 -1.13407 1.78051 0
M  V30 1438 O 129.6 -1.95673 1.18001 0
M  V30 1439 C 129.81 0.849446 3.38505 0
M  V30 1440 C 131.158 0.867936 4.15634 0
M  V30 1441 O 132.182 0.794232 3.47232 0
M  V30 1442 O 131.041 0.972286 5.37781 0
M  V30 1443 H 128.135 0.112014 0.819379 0
M  V30 1444 H 130.681 0.943952 1.41024 0
M  V30 1445 H 129.453 1.89267 3.42482 0
M  V30 1446 H 129.076 0.265652 3.96712 0
M  V30 1447 N 130.073 -1.45103 0.615059 0
M  V30 1448 C 131.303 -2.06254 0.119596 0
M  V30 1449 C 131.711 -1.4591 -1.20445 0
M  V30 1450 O 131.054 -0.570384 -1.7462 0
M  V30 1451 C 131.116 -3.59396 -0.0865591 0
M  V30 1452 C 130.78 -4.42116 1.15683 0
M  V30 1453 C 131.777 -4.7662 2.07676 0
M  V30 1454 C 129.462 -4.82749 1.38775 0
M  V30 1455 C 131.456 -5.50622 3.21082 0
M  V30 1456 C 129.143 -5.56504 2.52481 0
M  V30 1457 C 130.141 -5.90358 3.43463 0
M  V30 1458 O 129.829 -6.62615 4.55189 0
M  V30 1459 H 129.561 -0.672423 0.0694512 0
M  V30 1460 H 132.115 -1.87219 0.844885 0
M  V30 1461 H 130.345 -3.76859 -0.866823 0
M  V30 1462 H 132.034 -4.02365 -0.534555 0
M  V30 1463 H 132.8 -4.4578 1.91063 0
M  V30 1464 H 128.679 -4.55829 0.688545 0
M  V30 1465 H 132.223 -5.76965 3.92119 0
M  V30 1466 H 128.12 -5.86759 2.69043 0
M  V30 1467 H 128.888 -6.81071 4.53966 0
M  V30 1468 N 131.551 -0.354651 -1.53558 0
M  V30 1469 C 132.791 0.238651 -2.03002 0
M  V30 1470 C 133.155 1.46878 -1.23656 0
M  V30 1471 O 134.356 2.13699 -1.63053 0
M  V30 1472 C 132.627 0.534175 -3.53386 0
M  V30 1473 S 134.186 1.10271 -4.24719 0
M  V30 1474 H 131.004 0.0702908 -0.707517 0
M  V30 1475 H 133.606 -0.494987 -1.8913 0
M  V30 1476 H 132.31 -0.368765 -4.0874 0
M  V30 1477 H 131.841 1.29718 -3.71398 0
M  V30 1478 H 133.856 2.38772 -4.34974 0
M  V30 1479 N 133.029 1.57378 -0.0835403 0
M  V30 1480 C 133.939 2.16897 0.894021 0
M  V30 1481 C 134.955 1.13528 1.31861 0
M  V30 1482 O 136.131 1.45848 1.3889 0
M  V30 1483 C 133.196 2.72831 2.13925 0
M  V30 1484 C 132.257 3.91115 1.76997 0
M  V30 1485 C 131.49 4.44371 2.95584 0
M  V30 1486 O 131.713 3.96596 4.09961 0
M  V30 1487 O 130.647 5.35549 2.74719 0
M  V30 1488 H 134.473 3.00814 0.417679 0
M  V30 1489 H 132.058 1.48741 0.140181 0
M  V30 1490 H 133.94 3.0863 2.86924 0
M  V30 1491 H 132.615 1.91967 2.60635 0
M  V30 1492 H 131.522 3.60148 1.01214 0
M  V30 1493 H 132.855 4.73307 1.3506 0
M  V30 1494 N 134.507 -0.190092 1.56449 0
M  V30 1495 C 135.457 -1.23977 1.91347 0
M  V30 1496 C 136.441 -1.40747 0.779693 0
M  V30 1497 O 137.633 -1.43033 1.04262 0
M  V30 1498 C 134.762 -2.58347 2.26079 0
M  V30 1499 C 133.848 -2.4535 3.45925 0
M  V30 1500 N 134.239 -2.02039 4.63696 0
M  V30 1501 C 132.537 -2.76229 3.50162 0
M  V30 1502 C 133.238 -2.01053 5.4585 0
M  V30 1503 N 132.214 -2.42747 4.8639 0
M  V30 1504 H 136.016 -0.896318 2.79899 0
M  V30 1505 H 133.53 -0.398496 1.57435 0
M  V30 1506 H 135.527 -3.34173 2.49267 0
M  V30 1507 H 134.187 -2.93512 1.38856 0
M  V30 1508 H 135.198 -1.7267 4.88268 0
M  V30 1509 H 131.875 -3.15556 2.73369 0
M  V30 1510 H 133.265 -1.69426 6.50188 0
M  V30 1511 N 135.985 -1.50799 -0.457987 0
M  V30 1512 C 137.401 -1.38515 -0.792819 0
M  V30 1513 C 137.601 -0.451409 -1.96379 0
M  V30 1514 O 136.657 0.10112 -2.52297 0
M  V30 1515 C 137.97 -2.80149 -1.09258 0
M  V30 1516 C 139.518 -2.89156 -1.19825 0
M  V30 1517 C 139.993 -4.31651 -1.53106 0
M  V30 1518 N 141.484 -4.34662 -1.60072 0
M  V30 1519 C 142.219 -5.41928 -1.87354 0
M  V30 1520 N 141.715 -6.59384 -2.12568 0
M  V30 1521 N 143.508 -5.29385 -1.88965 0
M  V30 1522 H 135.659 -2.10073 0.313511 0
M  V30 1523 H 137.922 -0.944803 0.0777862 0
M  V30 1524 H 137.628 -3.50374 -0.305084 0
M  V30 1525 H 137.502 -3.18204 -2.02549 0
M  V30 1526 H 139.889 -2.19141 -1.97639 0
M  V30 1527 H 139.97 -2.54626 -0.244821 0
M  V30 1528 H 139.614 -5.02208 -0.758266 0
M  V30 1529 H 139.544 -4.63678 -2.49621 0
M  V30 1530 H 142.035 -3.49973 -1.42573 0
M  V30 1531 H 142.348 -7.36934 -2.32696 0
M  V30 1532 H 140.693 -6.62535 -2.09933 0
M  V30 1533 H 143.884 -4.36616 -1.68772 0
M  V30 1534 H 144.057 -6.13066 -2.09891 0
M  V30 1535 N 137.463 0.71206 -1.40597 0
M  V30 1536 C 138.74 1.46536 -1.29563 0
M  V30 1537 C 139.12 2.10931 0.0844217 0
M  V30 1538 O 138.468 2.00418 1.0975 0
M  V30 1539 C 138.678 2.49821 -2.43701 0
M  V30 1540 C 140.026 3.15551 -2.841 0
M  V30 1541 O 141.05 2.60142 -2.4332 0
M  V30 1542 O 139.909 4.15867 -3.54566 0
M  V30 1543 H 137.003 0.651801 -0.509004 0
M  V30 1544 H 139.549 0.743935 -1.52524 0
M  V30 1545 H 138.321 2.00778 -3.35863 0
M  V30 1546 H 137.944 3.29495 -2.22528 0
M  V30 1547 N 138.941 1.26152 0.944643 0
M  V30 1548 C 140.171 1.14094 1.72239 0
M  V30 1549 C 140.579 -0.306931 1.86694 0
M  V30 1550 O 139.922 -1.22222 1.3714 0
M  V30 1551 C 139.984 1.73316 3.14963 0
M  V30 1552 C 139.648 3.2239 3.23904 0
M  V30 1553 C 140.645 4.19252 3.07447 0
M  V30 1554 C 138.33 3.62788 3.47405 0
M  V30 1555 C 140.324 5.54491 3.14353 0
M  V30 1556 C 138.011 4.98162 3.53947 0
M  V30 1557 C 139.009 5.93823 3.37436 0
M  V30 1558 O 138.697 7.26732 3.43679 0
M  V30 1559 H 138.429 0.398292 0.546205 0
M  V30 1560 H 140.983 1.67201 1.19301 0
M  V30 1561 H 139.213 1.14667 3.69308 0
M  V30 1562 H 140.902 1.56214 3.74636 0
M  V30 1563 H 141.668 3.8938 2.8915 0
M  V30 1564 H 137.547 2.88816 3.59313 0
M  V30 1565 H 141.091 6.29137 3.01384 0
M  V30 1566 H 136.988 5.27695 3.71763 0
M  V30 1567 H 137.756 7.3496 3.60245 0
M  V30 1568 N 140.419 -1.14872 1.07899 0
M  V30 1569 C 141.665 -1.86064 0.806725 0
M  V30 1570 C 141.998 -1.82434 -0.665706 0
M  V30 1571 O 141.273 -1.25138 -1.48899 0
M  V30 1572 C 141.556 -3.34929 1.32267 0
M  V30 1573 C 141.409 -3.47161 2.86006 0
M  V30 1574 C 142.728 -4.29863 0.943717 0
M  V30 1575 H 139.847 -0.675591 0.294526 0
M  V30 1576 H 142.489 -1.34925 1.33773 0
M  V30 1577 H 140.639 -3.78611 0.870974 0
M  V30 1578 H 142.311 -3.12302 3.39507 0
M  V30 1579 H 140.554 -2.88539 3.23925 0
M  V30 1580 H 141.225 -4.51777 3.17177 0
M  V30 1581 H 143.701 -3.9417 1.33302 0
M  V30 1582 H 142.577 -5.32494 1.33198 0
M  V30 1583 H 142.838 -4.41846 -0.149796 0
M  V30 1584 N 141.898 -0.863906 -1.31812 0
M  V30 1585 C 142.831 -0.259963 -2.26714 0
M  V30 1586 C 143.809 0.607392 -1.50829 0
M  V30 1587 O 144.993 0.562155 -1.79922 0
M  V30 1588 C 142.12 0.632456 -3.32743 0
M  V30 1589 C 141.166 -0.162743 -4.26189 0
M  V30 1590 S 141.999 -1.53726 -5.12961 0
M  V30 1591 C 143.155 -0.650803 -6.22507 0
M  V30 1592 H 143.388 -1.06445 -2.77591 0
M  V30 1593 H 140.921 -0.662071 -1.39485 0
M  V30 1594 H 142.879 1.14167 -3.94305 0
M  V30 1595 H 141.54 1.41083 -2.80632 0
M  V30 1596 H 140.733 0.517366 -5.01338 0
M  V30 1597 H 140.335 -0.60385 -3.69093 0
M  V30 1598 H 142.627 0.141134 -6.77353 0
M  V30 1599 H 143.57 -1.37322 -6.94657 0
M  V30 1600 H 143.978 -0.221041 -5.64067 0
M  V30 1601 N 143.376 1.44774 -0.622745 0
M  V30 1602 C 144.792 1.56986 -0.287652 0
M  V30 1603 C 144.992 1.61167 1.20944 0
M  V30 1604 O 144.048 1.55015 1.99315 0
M  V30 1605 C 145.361 2.84551 -0.972188 0
M  V30 1606 C 146.909 2.9825 -0.949536 0
M  V30 1607 C 147.384 4.28605 -1.61437 0
M  V30 1608 N 148.875 4.35399 -1.58057 0
M  V30 1609 C 149.61 5.34964 -2.064 0
M  V30 1610 N 149.106 6.40981 -2.62897 0
M  V30 1611 N 150.899 5.26419 -1.97078 0
M  V30 1612 H 143.05 1.40304 -1.59463 0
M  V30 1613 H 145.313 0.671794 -0.668878 0
M  V30 1614 H 145.019 2.87417 -2.02693 0
M  V30 1615 H 144.893 3.73807 -0.504771 0
M  V30 1616 H 147.28 2.94941 0.0967067 0
M  V30 1617 H 147.361 2.10364 -1.45536 0
M  V30 1618 H 147.005 4.32672 -2.66002 0
M  V30 1619 H 146.935 5.15334 -1.08344 0
M  V30 1620 H 149.426 3.59397 -1.16801 0
M  V30 1621 H 149.739 7.13225 -2.97539 0
M  V30 1622 H 148.084 6.4169 -2.66943 0
M  V30 1623 H 151.275 4.42504 -1.52669 0
M  V30 1624 H 151.448 6.03861 -2.35066 0
M  V30 1625 N 144.854 0.36279 1.53368 0
M  V30 1626 C 145.787 -0.528507 2.21996 0
M  V30 1627 C 146.765 -1.0852 1.21087 0
M  V30 1628 O 147.949 -1.14186 1.4998 0
M  V30 1629 C 145.076 -1.72893 2.91249 0
M  V30 1630 C 144.122 -1.29994 4.06207 0
M  V30 1631 S 144.955 -0.303575 5.34639 0
M  V30 1632 C 146.111 -1.51039 6.07403 0
M  V30 1633 H 146.344 0.0543423 2.9725 0
M  V30 1634 H 143.877 0.146889 1.537 0
M  V30 1635 H 145.835 -2.41751 3.31763 0
M  V30 1636 H 144.496 -2.28303 2.15724 0
M  V30 1637 H 143.689 -2.19549 4.53667 0
M  V30 1638 H 143.291 -0.690608 3.67569 0
M  V30 1639 H 145.583 -2.44186 6.31965 0
M  V30 1640 H 146.526 -1.07721 6.99858 0
M  V30 1641 H 146.934 -1.71518 5.37812 0
M  V30 1642 N 146.332 -1.57332 0.0918853 0
M  V30 1643 C 147.279 -2.13847 -0.868211 0
M  V30 1644 C 148.249 -1.05618 -1.28196 0
M  V30 1645 O 149.434 -1.33387 -1.36427 0
M  V30 1646 C 146.574 -2.72062 -2.12312 0
M  V30 1647 C 145.687 -3.94514 -1.7602 0
M  V30 1648 C 144.822 -4.40903 -2.96273 0
M  V30 1649 C 143.861 -5.55953 -2.56092 0
M  V30 1650 N 142.998 -5.97209 -3.69169 0
M  V30 1651 H 147.838 -2.95575 -0.379406 0
M  V30 1652 H 145.375 -1.46048 -0.175606 0
M  V30 1653 H 147.333 -3.03931 -2.858 0
M  V30 1654 H 145.963 -1.93068 -2.58698 0
M  V30 1655 H 145.015 -3.68979 -0.925135 0
M  V30 1656 H 146.327 -4.7802 -1.42472 0
M  V30 1657 H 145.481 -4.74539 -3.78018 0
M  V30 1658 H 144.22 -3.56291 -3.33029 0
M  V30 1659 H 143.225 -5.21948 -1.72773 0
M  V30 1660 H 144.45 -6.42311 -2.20484 0
M  V30 1661 H 142.396 -5.15543 -4.05649 0
M  V30 1662 H 142.313 -6.75504 -3.39456 0
M  V30 1663 H 143.581 -6.35475 -4.51434 0
M  V30 1664 N 147.81 0.181792 -1.56548 0
M  V30 1665 C 148.72 1.24538 -1.98815 0
M  V30 1666 C 149.736 1.49045 -0.897861 0
M  V30 1667 O 150.912 1.61399 -1.20467 0
M  V30 1668 C 147.977 2.56683 -2.33055 0
M  V30 1669 C 147.038 2.40131 -3.55859 0
M  V30 1670 C 146.271 3.65975 -3.88456 0
M  V30 1671 O 146.494 4.70711 -3.22161 0
M  V30 1672 O 145.428 3.6071 -4.81842 0
M  V30 1673 H 149.254 0.916647 -2.89536 0
M  V30 1674 H 146.839 0.387842 -1.44278 0
M  V30 1675 H 148.721 3.34655 -2.56094 0
M  V30 1676 H 147.396 2.89157 -1.45498 0
M  V30 1677 H 146.303 1.60226 -3.38051 0
M  V30 1678 H 147.636 2.12585 -4.43924 0
M  V30 1679 N 149.288 1.51039 0.449983 0
M  V30 1680 C 150.535 1.63081 1.20045 0
M  V30 1681 C 150.863 0.341024 1.91487 0
M  V30 1682 O 150.118 -0.674276 1.83717 0
M  V30 1683 C 150.417 2.77556 2.25161 0
M  V30 1684 C 150.083 4.17289 1.70823 0
M  V30 1685 C 148.745 4.55305 1.55725 0
M  V30 1686 C 151.097 5.04536 1.3074 0
M  V30 1687 C 148.425 5.78287 0.989999 0
M  V30 1688 C 150.777 6.28085 0.754482 0
M  V30 1689 C 149.441 6.64885 0.590308 0
M  V30 1690 H 148.711 0.596755 0.439277 0
M  V30 1691 H 151.358 1.85037 0.49333 0
M  V30 1692 H 149.663 2.49771 3.01863 0
M  V30 1693 H 151.36 2.84073 2.83026 0
M  V30 1694 H 147.95 3.8731 1.83546 0
M  V30 1695 H 152.134 4.75782 1.41229 0
M  V30 1696 H 147.39 6.05456 0.850451 0
M  V30 1697 H 151.564 6.95038 0.435324 0
M  V30 1698 H 149.191 7.60055 0.14862 0
M  V30 1699 N 150.766 -0.704594 1.40972 0
M  V30 1700 C 151.676 -1.84856 1.44448 0
M  V30 1701 C 152.692 -1.70726 0.335961 0
M  V30 1702 O 153.868 -1.92799 0.582276 0
M  V30 1703 C 150.933 -3.20758 1.31587 0
M  V30 1704 C 149.994 -3.47063 2.52677 0
M  V30 1705 C 149.227 -4.76481 2.4042 0
M  V30 1706 O 149.45 -5.52341 1.42391 0
M  V30 1707 O 148.384 -5.03367 3.30007 0
M  V30 1708 H 152.21 -1.8488 2.40942 0
M  V30 1709 H 149.795 -0.85647 1.22413 0
M  V30 1710 H 151.677 -4.01913 1.26665 0
M  V30 1711 H 150.352 -3.21438 0.382049 0
M  V30 1712 H 149.259 -2.65873 2.63177 0
M  V30 1713 H 150.592 -3.5119 3.44858 0
M  V30 1714 N 152.244 -1.26651 -0.937939 0
M  V30 1715 C 153.66 -1.03834 -1.21205 0
M  V30 1716 C 153.86 0.234502 -2.00131 0
M  V30 1717 O 152.916 0.942767 -2.3424 0
M  V30 1718 C 154.229 -2.27167 -1.97017 0
M  V30 1719 C 155.777 -2.32101 -2.09996 0
M  V30 1720 C 156.252 -3.55136 -2.8921 0
M  V30 1721 N 157.743 -3.55632 -2.96783 0
M  V30 1722 C 158.478 -4.475 -3.58512 0
M  V30 1723 N 157.974 -5.4966 -4.21717 0
M  V30 1724 N 159.767 -4.35145 -3.55816 0
M  V30 1725 H 151.918 -2.08398 -0.410391 0
M  V30 1726 H 154.181 -0.916031 -0.244114 0
M  V30 1727 H 153.887 -3.19765 -1.46434 0
M  V30 1728 H 153.761 -2.31672 -2.97671 0
M  V30 1729 H 156.148 -1.40015 -2.59769 0
M  V30 1730 H 156.229 -2.31605 -1.08594 0
M  V30 1731 H 155.873 -4.47553 -2.40123 0
M  V30 1732 H 155.803 -3.5288 -3.90875 0
M  V30 1733 H 158.294 -2.81743 -2.51852 0
M  V30 1734 H 158.607 -6.15943 -4.66727 0
M  V30 1735 H 156.952 -5.53514 -4.20294 0
M  V30 1736 H 160.143 -3.5455 -3.05634 0
M  V30 1737 H 160.316 -5.06934 -4.03636 0
M  V30 1738 N 153.722 1.14298 -1.08507 0
M  V30 1739 C 154.632 2.23027 -0.727753 0
M  V30 1740 C 155.648 1.71952 0.26619 0
M  V30 1741 O 156.824 2.011 0.109882 0
M  V30 1742 C 153.889 3.46403 -0.143541 0
M  V30 1743 C 152.95 4.12413 -1.19223 0
M  V30 1744 C 152.183 5.29899 -0.635798 0
M  V30 1745 O 152.406 5.67796 0.544393 0
M  V30 1746 O 151.34 5.85717 -1.38634 0
M  V30 1747 H 155.166 2.55945 -1.63481 0
M  V30 1748 H 152.751 1.22248 -0.858817 0
M  V30 1749 H 154.633 4.21018 0.179404 0
M  V30 1750 H 153.308 3.15206 0.736659 0
M  V30 1751 H 152.215 3.39667 -1.56772 0
M  V30 1752 H 153.548 4.47718 -2.04474 0
M  V30 1753 N 155.201 0.870884 1.31352 0
M  V30 1754 C 156.617 0.562932 1.49343 0
M  V30 1755 C 156.817 -0.902725 1.80148 0
M  V30 1756 O 155.873 -1.68484 1.88067 0
M  V30 1757 C 157.186 1.46393 2.62659 0
M  V30 1758 C 158.734 1.46607 2.76542 0
M  V30 1759 C 159.209 2.35266 3.92955 0
M  V30 1760 N 160.7 2.33151 4.00243 0
M  V30 1761 C 161.435 2.98471 4.89594 0
M  V30 1762 N 160.931 3.72964 5.8384 0
M  V30 1763 N 162.724 2.87775 4.82848 0
M  V30 1764 H 154.875 1.81923 1.09626 0
M  V30 1765 H 157.138 0.777934 0.541777 0
M  V30 1766 H 156.844 2.50689 2.46674 0
M  V30 1767 H 156.718 1.16314 3.58819 0
M  V30 1768 H 159.105 0.43069 2.9194 0
M  V30 1769 H 159.186 1.8071 1.81046 0
M  V30 1770 H 158.83 3.38881 3.78315 0
M  V30 1771 H 158.76 1.98487 4.87761 0
M  V30 1772 H 161.251 1.79006 3.32814 0
M  V30 1773 H 161.564 4.19932 6.4875 0
M  V30 1774 H 159.909 3.77073 5.83816 0
M  V30 1775 H 163.1 2.29116 4.08195 0
M  V30 1776 H 163.273 3.38961 5.52277 0
M  V30 1777 N 156.679 -1.44442 0.630414 0
M  V30 1778 C 158.095 -1.56832 0.295973 0
M  V30 1779 C 158.295 -1.61806 -1.20088 0
M  V30 1780 O 157.351 -1.5607 -1.9849 0
M  V30 1781 C 158.664 -2.84031 0.987264 0
M  V30 1782 C 160.212 -2.97742 0.96534 0
M  V30 1783 C 160.687 -4.27743 1.63708 0
M  V30 1784 N 162.178 -4.34555 1.60364 0
M  V30 1785 C 162.913 -5.33862 2.09234 0
M  V30 1786 N 162.409 -6.39578 2.66292 0
M  V30 1787 N 164.202 -5.25366 1.99867 0
M  V30 1788 H 156.353 -1.39457 1.60205 0
M  V30 1789 H 158.616 -0.668237 0.672431 0
M  V30 1790 H 158.322 -2.86338 2.04215 0
M  V30 1791 H 158.196 -3.73534 0.524588 0
M  V30 1792 H 160.583 -2.94989 -0.0810639 0
M  V30 1793 H 160.664 -2.09589 1.4665 0
M  V30 1794 H 160.308 -4.31255 2.68293 0
M  V30 1795 H 160.238 -5.14752 1.11076 0
M  V30 1796 H 162.729 -3.58772 1.18705 0
M  V30 1797 H 163.042 -7.11637 3.01317 0
M  V30 1798 H 161.387 -6.40265 2.70343 0
M  V30 1799 H 164.578 -4.41688 1.55013 0
M  V30 1800 H 164.751 -6.02606 2.38265 0
M  V30 1801 N 158.157 -0.370918 -1.53173 0
M  V30 1802 C 159.087 0.464847 -2.28826 0
M  V30 1803 C 160.068 1.07936 -1.31468 0
M  V30 1804 O 161.253 1.0956 -1.60344 0
M  V30 1805 C 158.383 1.60196 -3.08147 0
M  V30 1806 C 157.337 1.11443 -4.13237 0
M  V30 1807 C 156.663 2.3422 -4.80672 0
M  V30 1808 C 157.963 0.195384 -5.21934 0
M  V30 1809 H 159.657 -0.166329 -2.98938 0
M  V30 1810 H 157.203 -0.0814359 -1.4377 0
M  V30 1811 H 159.156 2.19332 -3.59822 0
M  V30 1812 H 157.88 2.26045 -2.35735 0
M  V30 1813 H 156.539 0.545727 -3.62515 0
M  V30 1814 H 156.187 2.98537 -4.04827 0
M  V30 1815 H 155.887 2.02269 -5.51689 0
M  V30 1816 H 157.411 2.94032 -5.35143 0
M  V30 1817 H 158.825 0.694375 -5.69079 0
M  V30 1818 H 157.222 -0.0335027 -6.00091 0
M  V30 1819 H 158.292 -0.760961 -4.78892 0
M  V30 1820 N 159.635 1.57281 -0.100228 0
M  V30 1821 C 160.565 2.17328 0.853857 0
M  V30 1822 C 161.546 1.10804 1.2906 0
M  V30 1823 O 162.731 1.38963 1.35657 0
M  V30 1824 C 159.861 2.75772 2.11109 0
M  V30 1825 C 158.815 3.87713 1.81279 0
M  V30 1826 C 158.141 4.32882 3.13874 0
M  V30 1827 C 159.441 5.10677 1.09574 0
M  V30 1828 H 161.135 2.97305 0.353545 0
M  V30 1829 H 158.681 1.43009 0.168612 0
M  V30 1830 H 160.634 3.16433 2.78296 0
M  V30 1831 H 159.358 1.93057 2.63432 0
M  V30 1832 H 158.017 3.476 1.16489 0
M  V30 1833 H 157.665 3.47051 3.64095 0
M  V30 1834 H 157.365 5.08358 2.94696 0
M  V30 1835 H 158.889 4.7618 3.82211 0
M  V30 1836 H 160.303 5.48474 1.66879 0
M  V30 1837 H 158.7 5.91615 1.00557 0
M  V30 1838 H 159.77 4.84835 0.0793299 0
M  V30 1839 N 161.113 -0.173488 1.56642 0
M  V30 1840 C 162.045 -1.23935 1.92802 0
M  V30 1841 C 163.058 -1.40589 0.820889 0
M  V30 1842 O 164.247 -1.40631 1.09933 0
M  V30 1843 C 161.347 -2.60837 2.16373 0
M  V30 1844 C 160.52 -2.6551 3.47596 0
M  V30 1845 C 159.579 -3.8376 3.60021 0
M  V30 1846 O 158.605 -3.69859 4.32658 0
M  V30 1847 N 159.807 -5.00127 2.94709 0
M  V30 1848 H 162.572 -0.932236 2.84832 0
M  V30 1849 H 160.133 -0.363268 1.57772 0
M  V30 1850 H 162.125 -3.38407 2.21952 0
M  V30 1851 H 160.695 -2.83948 1.30738 0
M  V30 1852 H 159.915 -1.74052 3.53694 0
M  V30 1853 H 161.203 -2.65641 4.33949 0
M  V30 1854 H 160.601 -5.14322 2.35563 0
M  V30 1855 H 159.158 -5.75567 3.05886 0
M  V30 1856 N 162.591 -1.51276 -0.441967 0
M  V30 1857 C 164.007 -1.39349 -0.778083 0
M  V30 1858 C 164.207 -0.472212 -1.95889 0
M  V30 1859 O 163.263 0.0743551 -2.5239 0
M  V30 1860 C 164.576 -2.81292 -1.0628 0
M  V30 1861 C 166.124 -2.9041 -1.16751 0
M  V30 1862 C 166.599 -4.33251 -1.48519 0
M  V30 1863 N 168.09 -4.36336 -1.55453 0
M  V30 1864 C 168.825 -5.43885 -1.81596 0
M  V30 1865 N 168.321 -6.61601 -2.05562 0
M  V30 1866 N 170.114 -5.3136 -1.8334 0
M  V30 1867 H 162.265 -2.09729 0.335774 0
M  V30 1868 H 164.528 -0.943925 0.0878028 0
M  V30 1869 H 164.234 -3.50678 -0.267905 0
M  V30 1870 H 164.108 -3.20334 -1.99163 0
M  V30 1871 H 166.495 -2.21225 -1.95304 0
M  V30 1872 H 166.576 -2.54871 -0.217801 0
M  V30 1873 H 166.22 -5.02984 -0.704958 0
M  V30 1874 H 166.15 -4.66299 -2.44689 0
M  V30 1875 H 168.641 -3.51466 -1.38853 0
M  V30 1876 H 168.954 -7.39361 -2.24867 0
M  V30 1877 H 167.299 -6.64725 -2.02894 0
M  V30 1878 H 170.49 -4.38382 -1.64132 0
M  V30 1879 H 170.663 -6.15258 -2.03377 0
M  V30 1880 N 164.069 0.697108 -1.41344 0
M  V30 1881 C 165.016 1.81106 -1.43071 0
M  V30 1882 C 165.986 1.63632 -0.285275 0
M  V30 1883 O 167.171 1.84504 -0.486091 0
M  V30 1884 C 164.311 3.18975 -1.31715 0
M  V30 1885 C 163.424 3.47892 -2.56115 0
M  V30 1886 C 162.559 4.75367 -2.37064 0
M  V30 1887 C 161.598 4.97247 -3.56948 0
M  V30 1888 N 160.735 6.15947 -3.36977 0
M  V30 1889 H 165.575 1.78965 -2.38276 0
M  V30 1890 H 163.112 0.873975 -1.18322 0
M  V30 1891 H 165.07 3.98615 -1.23133 0
M  V30 1892 H 163.7 3.20297 -0.401183 0
M  V30 1893 H 162.752 2.62669 -2.75153 0
M  V30 1894 H 164.064 3.59962 -3.45295 0
M  V30 1895 H 163.218 5.63059 -2.25941 0
M  V30 1896 H 161.957 4.65541 -1.45338 0
M  V30 1897 H 160.962 4.08004 -3.68527 0
M  V30 1898 H 162.187 5.08934 -4.49626 0
M  V30 1899 H 160.133 6.07336 -2.47949 0
M  V30 1900 H 160.05 6.28777 -4.19732 0
M  V30 1901 H 161.318 7.06377 -3.29623 0
M  V30 1902 N 165.547 1.27147 0.931209 0
M  V30 1903 C 166.494 1.09568 2.03134 0
M  V30 1904 C 167.464 -0.00222433 1.661 0
M  V30 1905 O 168.649 0.159439 1.90133 0
M  V30 1906 C 165.789 0.745231 3.36957 0
M  V30 1907 C 164.902 1.92041 3.86968 0
M  V30 1908 C 164.037 1.51216 5.09222 0
M  V30 1909 C 163.076 2.65504 5.5152 0
M  V30 1910 N 162.213 2.25291 6.64972 0
M  V30 1911 H 167.053 2.03708 2.17502 0
M  V30 1912 H 164.59 1.01411 1.06556 0
M  V30 1913 H 166.548 0.522878 4.1391 0
M  V30 1914 H 165.178 -0.159202 3.22407 0
M  V30 1915 H 164.23 2.25541 3.06326 0
M  V30 1916 H 165.542 2.77787 4.1429 0
M  V30 1917 H 164.696 1.25084 5.93666 0
M  V30 1918 H 163.435 0.625749 4.83669 0
M  V30 1919 H 162.44 2.92354 4.65628 0
M  V30 1920 H 163.665 3.54761 5.7907 0
M  V30 1921 H 161.611 1.39098 6.41083 0
M  V30 1922 H 161.528 3.04577 6.91931 0
M  V30 1923 H 162.796 2.02398 7.52765 0
M  V30 1924 N 167.025 -1.13721 1.09112 0
M  V30 1925 C 168.441 -1.36914 0.820174 0
M  V30 1926 C 168.641 -1.93356 -0.567079 0
M  V30 1927 O 167.697 -2.15093 -1.32255 0
M  V30 1928 C 169.01 -2.3235 1.90877 0
M  V30 1929 C 170.558 -2.45973 1.93562 0
M  V30 1930 C 171.033 -3.44714 3.01556 0
M  V30 1931 N 172.524 -3.52263 3.00775 0
M  V30 1932 C 173.259 -4.28536 3.80978 0
M  V30 1933 N 172.755 -5.07991 4.71081 0
M  V30 1934 N 174.548 -4.23804 3.69251 0
M  V30 1935 H 166.699 -0.754348 1.98553 0
M  V30 1936 H 168.962 -0.3944 0.862063 0
M  V30 1937 H 168.668 -1.98027 2.90651 0
M  V30 1938 H 168.542 -3.32332 1.78424 0
M  V30 1939 H 170.929 -2.79584 0.944286 0
M  V30 1940 H 171.01 -1.45926 2.10093 0
M  V30 1941 H 170.654 -3.11835 4.00901 0
M  V30 1942 H 170.584 -4.44558 2.82269 0
M  V30 1943 H 173.075 -2.95567 2.35475 0
M  V30 1944 H 173.388 -5.63487 5.28869 0
M  V30 1945 H 171.733 -5.07235 4.75119 0
M  V30 1946 H 174.924 -3.60806 2.98222 0
M  V30 1947 H 175.097 -4.82995 4.31995 0
M  V30 1948 N 168.503 -0.877838 -1.30888 0
M  V30 1949 C 169.919 -0.570844 -1.49042 0
M  V30 1950 C 170.119 0.893159 -1.80624 0
M  V30 1951 O 169.175 1.67485 -1.88958 0
M  V30 1952 C 170.488 -1.47784 -2.61878 0
M  V30 1953 C 172.036 -1.48071 -2.75761 0
M  V30 1954 C 172.511 -2.37347 -3.91702 0
M  V30 1955 N 174.002 -2.35271 -3.99001 0
M  V30 1956 C 174.737 -3.01063 -4.88004 0
M  V30 1957 N 174.233 -3.76055 -5.81854 0
M  V30 1958 N 176.026 -2.90332 -4.81315 0
M  V30 1959 H 168.177 -1.82502 -1.0866 0
M  V30 1960 H 170.44 -0.780797 -0.537644 0
M  V30 1961 H 170.146 -2.51993 -2.45341 0
M  V30 1962 H 170.02 -1.18215 -3.58197 0
M  V30 1963 H 172.407 -0.446166 -2.91708 0
M  V30 1964 H 172.488 -1.81668 -1.80085 0
M  V30 1965 H 172.132 -3.40883 -3.76512 0
M  V30 1966 H 172.062 -2.01071 -4.86701 0
M  V30 1967 H 174.553 -1.80768 -3.3186 0
M  V30 1968 H 174.866 -4.23366 -6.46514 0
M  V30 1969 H 173.211 -3.80163 -5.81808 0
M  V30 1970 H 176.402 -2.31278 -4.06974 0
M  V30 1971 H 176.575 -3.41885 -5.50471 0
M  V30 1972 N 169.982 1.44106 -0.638065 0
M  V30 1973 C 170.892 2.34513 0.0637334 0
M  V30 1974 C 171.908 1.53018 0.828346 0
M  V30 1975 O 173.084 1.85723 0.779036 0
M  V30 1976 C 170.149 3.31095 1.02844 0
M  V30 1977 C 169.21 4.28497 0.26244 0
M  V30 1978 C 168.443 5.20465 1.1812 0
M  V30 1979 O 168.666 5.16514 2.42011 0
M  V30 1980 O 167.6 5.98251 0.661774 0
M  V30 1981 H 171.426 2.95989 -0.68003 0
M  V30 1982 H 169.011 1.43994 -0.398252 0
M  V30 1983 H 170.893 3.90526 1.58327 0
M  V30 1984 H 169.568 2.72144 1.7527 0
M  V30 1985 H 168.475 3.72592 -0.335602 0
M  V30 1986 H 169.808 4.90388 -0.421936 0
M  V30 1987 N 171.46 0.379036 1.52974 0
M  V30 1988 C 172.407 -0.461048 2.26148 0
M  V30 1989 C 173.377 -1.06637 1.27349 0
M  V30 1990 O 174.562 -1.09633 1.56157 0
M  V30 1991 C 171.702 -1.58782 3.06402 0
M  V30 1992 C 170.815 -1.00636 4.20115 0
M  V30 1993 C 169.95 -2.10334 4.87784 0
M  V30 1994 C 168.989 -1.49724 5.93506 0
M  V30 1995 N 168.126 -2.5331 6.54812 0
M  V30 1996 H 172.966 0.169429 2.97518 0
M  V30 1997 H 170.503 0.0953806 1.4679 0
M  V30 1998 H 172.461 -2.25174 3.51215 0
M  V30 1999 H 171.091 -2.18876 2.37261 0
M  V30 2000 H 170.143 -0.232332 3.7969 0
M  V30 2001 H 171.455 -0.523343 4.96047 0
M  V30 2002 H 170.609 -2.84519 5.35849 0
M  V30 2003 H 169.348 -2.61992 4.11353 0
M  V30 2004 H 168.353 -0.740598 5.44789 0
M  V30 2005 H 169.578 -0.988732 6.71864 0
M  V30 2006 H 167.524 -3.04156 5.81227 0
M  V30 2007 H 167.441 -2.09734 7.26325 0
M  V30 2008 H 168.709 -3.27155 7.07524 0
M  V30 2009 N 172.938 -1.57226 0.108567 0
M  V30 2010 C 173.885 -2.14756 -0.845481 0
M  V30 2011 C 174.855 -1.06971 -1.27068 0
M  V30 2012 O 176.04 -1.34827 -1.35005 0
M  V30 2013 C 173.18 -2.74298 -2.09415 0
M  V30 2014 C 172.293 -3.96358 -1.71826 0
M  V30 2015 C 171.428 -4.44021 -2.9158 0
M  V30 2016 C 170.467 -5.58637 -2.50181 0
M  V30 2017 N 169.604 -6.01091 -3.62814 0
M  V30 2018 H 174.444 -2.95961 -0.348035 0
M  V30 2019 H 171.981 -1.46226 -0.160106 0
M  V30 2020 H 173.939 -3.06945 -2.82561 0
M  V30 2021 H 172.569 -1.95801 -2.56636 0
M  V30 2022 H 171.621 -3.69939 -0.885947 0
M  V30 2023 H 172.933 -4.79504 -1.37394 0
M  V30 2024 H 172.087 -4.78522 -3.72963 0
M  V30 2025 H 170.826 -3.59803 -3.29231 0
M  V30 2026 H 169.831 -5.23751 -1.67228 0
M  V30 2027 H 171.056 -6.44613 -2.13659 0
M  V30 2028 H 169.002 -5.19817 -4.00158 0
M  V30 2029 H 168.919 -6.79066 -3.32273 0
M  V30 2030 H 170.187 -6.40227 -4.44668 0
M  V30 2031 N 174.416 0.165178 -1.56732 0
M  V30 2032 C 175.379 1.18822 -1.95995 0
M  V30 2033 C 176.379 1.3685 -0.84431 0
M  V30 2034 O 177.569 1.34152 -1.11126 0
M  V30 2035 C 174.701 2.5521 -2.26011 0
M  V30 2036 H 175.894 0.851825 -2.87548 0
M  V30 2037 H 173.447 0.407857 -1.50885 0
M  V30 2038 H 174.182 2.93852 -1.37191 0
M  V30 2039 H 173.967 2.43489 -3.07336 0
M  V30 2040 H 175.457 3.28927 -2.57288 0
M  V30 2041 N 175.894 1.51508 0.433938 0
M  V30 2042 C 176.857 1.72473 1.50949 0
M  V30 2043 C 177.857 0.594725 1.49398 0
M  V30 2044 O 179.047 0.862315 1.5136 0
M  V30 2045 C 176.179 1.78431 2.90474 0
M  V30 2046 H 177.372 2.68467 1.33662 0
M  V30 2047 H 174.925 1.41549 0.662836 0
M  V30 2048 H 175.66 0.842645 3.13161 0
M  V30 2049 H 175.445 2.60558 2.93005 0
M  V30 2050 H 176.935 1.96479 3.68491 0
M  V30 2051 N 177.372 -0.689602 1.41712 0
M  V30 2052 C 178.282 -1.83314 1.46401 0
M  V30 2053 C 179.298 -1.7036 0.35405 0
M  V30 2054 O 180.474 -1.92171 0.602692 0
M  V30 2055 C 177.539 -3.19344 1.34982 0
M  V30 2056 C 176.6 -3.44363 2.56344 0
M  V30 2057 C 175.833 -4.73904 2.45461 0
M  V30 2058 O 176.056 -5.508 1.48241 0
M  V30 2059 O 174.99 -4.99839 3.35328 0
M  V30 2060 H 178.816 -1.82314 2.42889 0
M  V30 2061 H 176.401 -0.843438 1.23315 0
M  V30 2062 H 178.283 -4.00547 1.3092 0
M  V30 2063 H 176.958 -3.21014 0.41612 0
M  V30 2064 H 175.865 -2.63067 2.65982 0
M  V30 2065 H 177.198 -3.47512 3.48563 0
M  V30 2066 N 178.85 -1.27639 -0.924453 0
M  V30 2067 C 179.78 -1.13166 -2.04244 0
M  V30 2068 C 180.761 -0.032256 -1.70069 0
M  V30 2069 O 181.946 -0.207328 -1.9309 0
M  V30 2070 C 179.076 -0.781496 -3.38393 0
M  V30 2071 C 178.03 -1.83449 -3.86692 0
M  V30 2072 C 177.356 -1.33822 -5.17683 0
M  V30 2073 C 178.656 -3.23917 -4.09726 0
M  V30 2074 H 180.35 -2.06689 -2.1661 0
M  V30 2075 H 177.896 -0.995136 -1.04082 0
M  V30 2076 H 179.849 -0.667057 -4.16087 0
M  V30 2077 H 178.573 0.189439 -3.2605 0
M  V30 2078 H 177.232 -1.93789 -3.11193 0
M  V30 2079 H 176.88 -0.35665 -5.01734 0
M  V30 2080 H 176.58 -2.04224 -5.50968 0
M  V30 2081 H 178.104 -1.23679 -5.97943 0
M  V30 2082 H 179.518 -3.16559 -4.77978 0
M  V30 2083 H 177.915 -3.92059 -4.54324 0
M  V30 2084 H 178.985 -3.68729 -3.14908 0
M  V30 2085 N 180.328 1.1314 -1.09713 0
M  V30 2086 C 181.291 2.16831 -0.742751 0
M  V30 2087 C 182.291 1.59159 0.229129 0
M  V30 2088 O 183.481 1.74199 0.00693237 0
M  V30 2089 C 180.613 3.40756 -0.0989168 0
M  V30 2090 H 181.806 2.49695 -1.66109 0
M  V30 2091 H 179.359 1.2802 -0.896699 0
M  V30 2092 H 180.094 3.13485 0.830514 0
M  V30 2093 H 179.879 3.83888 -0.798265 0
M  V30 2094 H 181.369 4.17386 0.133524 0
M  V30 2095 N 181.806 0.884767 1.30421 0
M  V30 2096 C 182.753 0.349642 2.28136 0
M  V30 2097 C 183.723 -0.560061 1.56373 0
M  V30 2098 O 184.908 -0.488524 1.8444 0
M  V30 2099 C 182.048 -0.42999 3.42411 0
M  V30 2100 C 181.161 0.508907 4.28992 0
M  V30 2101 C 180.296 -0.286301 5.30428 0
M  V30 2102 C 179.335 0.648079 6.08659 0
M  V30 2103 N 178.472 -0.111792 7.02011 0
M  V30 2104 H 183.312 1.18807 2.73293 0
M  V30 2105 H 180.849 0.597231 1.3443 0
M  V30 2106 H 182.807 -0.897923 4.07423 0
M  V30 2107 H 181.437 -1.23299 2.98324 0
M  V30 2108 H 180.489 1.09533 3.64289 0
M  V30 2109 H 181.801 1.22475 4.8353 0
M  V30 2110 H 180.955 -0.816098 6.01186 0
M  V30 2111 H 179.694 -1.03536 4.76583 0
M  V30 2112 H 178.699 1.18951 5.36778 0
M  V30 2113 H 179.924 1.39623 6.64592 0
M  V30 2114 H 177.87 -0.843395 6.50556 0
M  V30 2115 H 177.787 0.544429 7.54037 0
M  V30 2116 H 179.055 -0.622339 7.77012 0
M  V30 2117 N 183.284 -1.43765 0.645699 0
M  V30 2118 C 184.532 -2.01499 0.155731 0
M  V30 2119 C 184.853 -1.51151 -1.232 0
M  V30 2120 O 184.123 -0.721044 -1.82148 0
M  V30 2121 H 182.703 -0.745003 0.0545817 0
M  V30 2122 H 185.365 -1.76075 0.835677 0
M  V30 2123 H 184.461 -3.1181 0.134577 0
M  V30 2124 N 184.763 -0.387143 -1.52771 0
M  V30 2125 C 185.695 0.484089 -2.2403 0
M  V30 2126 C 186.708 1.02849 -1.26198 0
M  V30 2127 O 187.897 0.931186 -1.52286 0
M  V30 2128 C 184.997 1.68337 -2.94136 0
M  V30 2129 C 184.17 1.26672 -4.18656 0
M  V30 2130 C 183.229 2.33045 -4.7178 0
M  V30 2131 O 182.255 1.94541 -5.34923 0
M  V30 2132 N 183.457 3.64929 -4.5145 0
M  V30 2133 H 186.222 -0.126404 -2.99433 0
M  V30 2134 H 183.783 -0.213392 -1.60488 0
M  V30 2135 H 185.775 2.39019 -3.26577 0
M  V30 2136 H 184.345 2.20025 -2.22053 0
M  V30 2137 H 183.565 0.388878 -3.92277 0
M  V30 2138 H 184.853 0.964964 -4.99566 0
M  V30 2139 H 184.251 3.98974 -4.01044 0
M  V30 2140 H 182.808 4.31651 -4.88386 0
M  V30 2141 N 186.241 1.57166 -0.116904 0
M  V30 2142 C 187.489 1.94737 0.540533 0
M  V30 2143 C 187.81 1.00096 1.67349 0
M  V30 2144 O 187.08 0.0568854 1.95817 0
M  V30 2145 H 185.66 0.718981 0.202669 0
M  V30 2146 H 188.322 1.94017 -0.185353 0
M  V30 2147 H 187.418 2.97719 0.936483 0
M  V30 2148 N 187.719 -0.156864 1.56817 0
M  V30 2149 C 189.13 -0.717916 1.72345 0
M  V30 2150 C 189.481 -1.82124 0.729747 0
M  V30 2151 O 188.606 -2.16141 -0.105781 0
M  V30 2152 C 189.201 -1.30904 3.12489 0
M  V30 2153 C 187.76 -1.81676 3.29653 0
M  V30 2154 C 186.907 -0.701349 2.68284 0
M  V30 2155 H 189.858 0.0686989 1.58551 0
M  V30 2156 H 189.879 -2.17882 3.11942 0
M  V30 2157 H 189.391 -0.505796 3.8479 0
M  V30 2158 H 187.492 -2.64598 2.62333 0
M  V30 2159 H 187.605 -1.95226 4.3752 0
M  V30 2160 H 185.969 -1.12548 2.28484 0
M  V30 2161 H 186.752 0.0902846 3.43181 0
M  V30 2162 N 189.197 -1.51736 -0.425897 0
M  V30 2163 C 190.445 -1.64644 -1.17204 0
M  V30 2164 C 190.766 -0.370486 -1.91448 0
M  V30 2165 O 190.036 0.614088 -1.86026 0
M  V30 2166 H 188.616 -0.606819 -0.435638 0
M  V30 2167 H 191.278 -1.88713 -0.487177 0
M  V30 2168 H 190.374 -2.47958 -1.89534 0
M  V30 2169 N 190.675 0.682077 -1.42076 0
M  V30 2170 C 191.585 1.82535 -1.47371 0
M  V30 2171 C 192.601 1.7017 -0.363079 0
M  V30 2172 O 193.777 1.91848 -0.612875 0
M  V30 2173 C 190.842 3.18624 -1.36674 0
M  V30 2174 C 189.903 3.42999 -2.58167 0
M  V30 2175 C 189.136 4.72595 -2.4797 0
M  V30 2176 O 189.359 5.50006 -1.5116 0
M  V30 2177 O 188.293 4.98054 -3.37974 0
M  V30 2178 H 192.119 1.81023 -2.43853 0
M  V30 2179 H 189.704 0.836887 -1.2376 0
M  V30 2180 H 191.586 3.99847 -1.33043 0
M  V30 2181 H 190.261 3.20789 -0.433138 0
M  V30 2182 H 189.168 2.61653 -2.67373 0
M  V30 2183 H 190.501 3.45659 -3.50401 0
M  V30 2184 N 192.153 1.28127 0.917671 0
M  V30 2185 C 193.399 1.15223 1.66888 0
M  V30 2186 C 193.732 -0.299293 1.9188 0
M  V30 2187 O 193.007 -1.21805 1.51637 0
M  V30 2188 C 193.29 1.94706 3.02922 0
M  V30 2189 C 193.143 3.47898 2.85109 0
M  V30 2190 C 194.462 1.75939 4.03402 0
M  V30 2191 H 191.581 0.419946 0.605652 0
M  V30 2192 H 194.223 1.57398 1.06423 0
M  V30 2193 H 192.373 1.58864 3.54534 0
M  V30 2194 H 194.045 3.93624 2.40537 0
M  V30 2195 H 192.288 3.7373 2.20246 0
M  V30 2196 H 192.959 3.98765 3.81694 0
M  V30 2197 H 195.435 2.07209 3.60837 0
M  V30 2198 H 194.311 2.33931 4.96556 0
M  V30 2199 H 194.572 0.709877 4.36364 0
M  V30 2200 N 193.631 -1.12557 1.10312 0
M  V30 2201 C 194.908 -1.80363 0.756878 0
M  V30 2202 C 195.288 -1.97067 -0.756824 0
M  V30 2203 O 194.636 -1.54601 -1.68259 0
M  V30 2204 C 194.846 -3.14812 1.50647 0
M  V30 2205 C 196.194 -3.90029 1.67817 0
M  V30 2206 O 197.218 -3.24464 1.46974 0
M  V30 2207 O 196.077 -5.07652 2.02365 0
M  V30 2208 H 193.171 -0.780667 0.272926 0
M  V30 2209 H 195.717 -1.19404 1.20586 0
M  V30 2210 H 194.489 -2.97936 2.53672 0
M  V30 2211 H 194.112 -3.83478 1.05026 0
M  V30 2212 N 195.109 -0.891671 -1.2995 0
M  V30 2213 C 196.52 -0.563104 -1.78006 0
M  V30 2214 C 196.871 0.920978 -1.73241 0
M  V30 2215 O 195.996 1.71987 -1.31337 0
M  V30 2216 C 196.591 -1.01539 -3.23226 0
M  V30 2217 C 195.15 -0.738124 -3.69092 0
M  V30 2218 C 194.297 -1.19461 -2.50249 0
M  V30 2219 H 197.248 -1.07522 -1.16725 0
M  V30 2220 H 197.269 -0.347217 -3.78912 0
M  V30 2221 H 196.781 -2.09555 -3.26662 0
M  V30 2222 H 194.882 0.329766 -3.71138 0
M  V30 2223 H 194.995 -1.33037 -4.60259 0
M  V30 2224 H 193.359 -0.613787 -2.47194 0
M  V30 2225 H 194.142 -2.28265 -2.56417 0
M  V30 2226 N 196.587 1.43421 -0.653314 0
M  V30 2227 C 197.534 2.30768 0.0382271 0
M  V30 2228 C 198.504 1.44755 0.814576 0
M  V30 2229 O 199.689 1.73624 0.791162 0
M  V30 2230 C 196.829 3.30336 0.998599 0
M  V30 2231 C 195.942 4.31448 0.218342 0
M  V30 2232 C 195.077 5.18098 1.17252 0
M  V30 2233 C 194.116 6.10902 0.382702 0
M  V30 2234 N 193.253 6.90176 1.28848 0
M  V30 2235 H 198.093 2.89357 -0.712511 0
M  V30 2236 H 195.63 1.42548 -0.363128 0
M  V30 2237 H 197.588 3.86572 1.56901 0
M  V30 2238 H 196.218 2.73397 1.71621 0
M  V30 2239 H 195.27 3.77506 -0.46836 0
M  V30 2240 H 196.582 4.97227 -0.395812 0
M  V30 2241 H 195.736 5.7896 1.81356 0
M  V30 2242 H 194.475 4.52444 1.82058 0
M  V30 2243 H 193.48 5.49128 -0.27169 0
M  V30 2244 H 194.705 6.78598 -0.260957 0
M  V30 2245 H 192.651 6.27171 1.92334 0
M  V30 2246 H 192.568 7.52478 0.728887 0
M  V30 2247 H 193.836 7.55543 1.91766 0
M  V30 2248 N 198.065 0.39524 1.52563 0
M  V30 2249 C 199.311 -0.185318 2.01952 0
M  V30 2250 C 199.644 -1.45964 1.28095 0
M  V30 2251 O 198.919 -1.90689 0.38315 0
M  V30 2252 C 199.202 -0.447193 3.57312 0
M  V30 2253 C 199.055 0.842828 4.41833 0
M  V30 2254 C 200.374 -1.23529 4.22408 0
M  V30 2255 H 197.493 -0.0658788 0.73405 0
M  V30 2256 H 200.135 0.525975 1.82575 0
M  V30 2257 H 198.285 -1.05312 3.73954 0
M  V30 2258 H 199.957 1.4795 4.36931 0
M  V30 2259 H 198.2 1.45686 4.08605 0
M  V30 2260 H 198.871 0.614165 5.48573 0
M  V30 2261 H 201.347 -0.722445 4.0978 0
M  V30 2262 H 200.223 -1.38727 5.3108 0
M  V30 2263 H 200.484 -2.25213 3.80436 0
M  V30 2264 N 199.544 -1.57102 0.125237 0
M  V30 2265 C 200.507 -2.14471 -0.80838 0
M  V30 2266 C 201.507 -1.0811 -1.19033 0
M  V30 2267 O 202.697 -1.33856 -1.11482 0
M  V30 2268 C 199.829 -2.69005 -2.09402 0
M  V30 2269 H 201.022 -2.98297 -0.309696 0
M  V30 2270 H 198.575 -1.55807 -0.124051 0
M  V30 2271 H 199.31 -1.88785 -2.63687 0
M  V30 2272 H 199.095 -3.46799 -1.82957 0
M  V30 2273 H 200.585 -3.13278 -2.76128 0
M  V30 2274 N 201.022 0.148545 -1.56898 0
M  V30 2275 C 201.952 1.18524 -2.01182 0
M  V30 2276 C 202.933 1.4489 -0.891123 0
M  V30 2277 O 204.118 1.55836 -1.15882 0
M  V30 2278 C 201.248 2.51879 -2.39112 0
M  V30 2279 C 200.202 2.40038 -3.54353 0
M  V30 2280 C 199.528 3.78089 -3.78091 0
M  V30 2281 C 200.828 1.88577 -4.87069 0
M  V30 2282 H 202.522 0.817029 -2.88036 0
M  V30 2283 H 200.068 0.391575 -1.38574 0
M  V30 2284 H 202.021 3.24627 -2.68692 0
M  V30 2285 H 200.745 2.90532 -1.49193 0
M  V30 2286 H 199.404 1.69742 -3.24936 0
M  V30 2287 H 199.052 4.14175 -2.85426 0
M  V30 2288 H 198.752 3.71028 -4.55645 0
M  V30 2289 H 200.276 4.52387 -4.10095 0
M  V30 2290 H 201.69 2.51117 -5.15377 0
M  V30 2291 H 200.087 1.9241 -5.68417 0
M  V30 2292 H 201.157 0.84136 -4.77545 0
M  V30 2293 O 202.539 1.58815 0.29326 0
M  V30 2294 H 203.23 1.69371 0.939843 0
M  V30 END ATOM
M  V30 BEGIN BOND
M  V30 END BOND
M  V30 END CTAB
M  END
$$$$
