drugbank_target|Q8RQP5 2-C-methyl-D-erythritol 2,4-cyclodiphosphate synthase (DB03403; DB04555)
 OpenBabel12092119573D

  0  0  0     0  0            999 V3000
M  V30 BEGIN CTAB
M  V30 COUNTS 2368 2389 0 0 0
M  V30 BEGIN ATOM
M  V30 1 H -0.908 1.98254 -0.117106 0
M  V30 2 N 0 1.576 0 0
M  V30 3 C 0.933 2.03868 1.02534 0
M  V30 4 C 1.911 0.928543 1.3348 0
M  V30 5 O 3.095 1.19667 1.45644 0
M  V30 6 C 0.222 2.43627 2.35294 0
M  V30 7 C -0.732 3.65373 2.2001 0
M  V30 8 S 0.101 5.13292 1.52614 0
M  V30 9 C 1.257 5.56322 2.86805 0
M  V30 10 H 1.49 2.90518 0.631377 0
M  V30 11 H -0.977 1.52953 0.210867 0
M  V30 12 H 0.981 2.67203 3.11629 0
M  V30 13 H -0.358 1.57376 2.7183 0
M  V30 14 H -1.165 3.90944 3.18086 0
M  V30 15 H -1.563 3.418 1.51819 0
M  V30 16 H 0.729 5.58782 3.83104 0
M  V30 17 H 1.672 6.56266 2.65933 0
M  V30 18 H 2.08 4.83886 2.90714 0
M  V30 19 N 1.4781 -0.272755 1.55222 0
M  V30 20 C 2.8941 -0.619959 1.47067 0
M  V30 21 C 3.0941 -1.895 0.684978 0
M  V30 22 O 2.1501 -2.51675 0.203931 0
M  V30 23 C 3.4631 -0.746693 2.91282 0
M  V30 24 C 5.0111 -0.840731 3.01497 0
M  V30 25 C 5.4861 -0.99924 4.46967 0
M  V30 26 N 6.9771 -1.06476 4.50796 0
M  V30 27 C 7.7121 -1.20621 5.6057 0
M  V30 28 N 7.2081 -1.31483 6.80209 0
M  V30 29 N 9.0011 -1.23733 5.48312 0
M  V30 30 H 1.1521 0.564606 2.04758 0
M  V30 31 H 3.4151 0.191177 0.928523 0
M  V30 32 H 3.1211 0.119753 3.51496 0
M  V30 33 H 2.9951 -1.6269 3.40311 0
M  V30 34 H 5.3821 -1.69764 2.41379 0
M  V30 35 H 5.4631 0.0640874 2.5572 0
M  V30 36 H 5.1071 -0.146984 5.07687 0
M  V30 37 H 5.0371 -1.91871 4.90401 0
M  V30 38 H 7.5281 -0.993196 3.64615 0
M  V30 39 H 7.8411 -1.42111 7.59621 0
M  V30 40 H 6.1861 -1.28487 6.8302 0
M  V30 41 H 9.3771 -1.14877 4.53785 0
M  V30 42 H 9.5501 -1.34412 6.33906 0
M  V30 43 N 2.9562 -1.48159 -0.537278 0
M  V30 44 C 4.2052 -1.5506 -1.28993 0
M  V30 45 C 4.5182 -0.226211 -1.94288 0
M  V30 46 O 5.7242 -0.173395 -2.70946 0
M  V30 47 C 4.1802 -2.73429 -2.34018 0
M  V30 48 C 3.7882 -4.1248 -1.74825 0
M  V30 49 C 5.5322 -2.89638 -3.10339 0
M  V30 50 C 3.4392 -5.22121 -2.77747 0
M  V30 51 H 2.3692 -0.577231 -0.485098 0
M  V30 52 H 5.0202 -1.74478 -0.568317 0
M  V30 53 H 3.4022 -2.47431 -3.09182 0
M  V30 54 H 4.5762 -4.48466 -1.05899 0
M  V30 55 H 2.8912 -4.01327 -1.11022 0
M  V30 56 H 5.4882 -3.68718 -3.87235 0
M  V30 57 H 5.8312 -1.9882 -3.65754 0
M  V30 58 H 6.3642 -3.15502 -2.42288 0
M  V30 59 H 3.1032 -6.1488 -2.27161 0
M  V30 60 H 2.6232 -4.90631 -3.45024 0
M  V30 61 H 4.3022 -5.49924 -3.4087 0
M  V30 62 N 4.4343 0.785586 -1.36625 0
M  V30 63 C 5.6823 1.54057 -1.30808 0
M  V30 64 C 6.0033 1.94683 0.111157 0
M  V30 65 O 5.2733 1.65241 1.05224 0
M  V30 66 H 3.8533 0.571354 -0.481211 0
M  V30 67 H 6.5153 0.935821 -1.70963 0
M  V30 68 H 5.6113 2.44637 -1.93801 0
M  V30 69 N 5.9124 1.20967 1.01018 0
M  V30 70 C 7.1424 1.04803 1.78044 0
M  V30 71 C 7.5504 -0.405462 1.84804 0
M  V30 72 O 6.8934 -1.2932 1.30468 0
M  V30 73 C 6.9554 1.56377 3.23707 0
M  V30 74 C 6.6194 3.04767 3.40538 0
M  V30 75 C 7.6164 4.02366 3.29239 0
M  V30 76 C 5.3014 3.43862 3.66147 0
M  V30 77 C 7.2954 5.37049 3.43304 0
M  V30 78 C 4.9824 4.78699 3.79855 0
M  V30 79 C 5.9804 5.75101 3.68439 0
M  V30 80 O 5.6684 7.07493 3.81719 0
M  V30 81 H 5.4004 0.368778 0.56655 0
M  V30 82 H 7.9544 1.60642 1.27997 0
M  V30 83 H 6.1844 0.949297 3.74867 0
M  V30 84 H 7.8734 1.36136 3.8239 0
M  V30 85 H 8.6394 3.73506 3.09384 0
M  V30 86 H 4.5184 2.69364 3.74118 0
M  V30 87 H 8.0624 6.12277 3.34309 0
M  V30 88 H 3.9594 5.07247 3.99213 0
M  V30 89 H 4.7274 7.1483 3.98697 0
M  V30 90 N 7.3905 -1.2043 1.01659 0
M  V30 91 C 8.6385 -1.89423 0.704522 0
M  V30 92 C 8.9595 -1.79231 -0.768197 0
M  V30 93 O 8.2295 -1.1947 -1.55254 0
M  V30 94 H 6.8095 -0.701178 0.257602 0
M  V30 95 H 9.4715 -1.4626 1.28818 0
M  V30 96 H 8.5675 -2.96052 0.987916 0
M  V30 97 N 8.8686 -0.792821 -1.36206 0
M  V30 98 C 9.7786 -0.194808 -2.3379 0
M  V30 99 C 10.7946 0.654869 -1.61206 0
M  V30 100 O 11.9706 0.569856 -1.9317 0
M  V30 101 C 9.0356 0.657721 -3.40404 0
M  V30 102 C 8.0966 -0.210849 -4.28782 0
M  V30 103 C 7.3296 0.601086 -5.30304 0
M  V30 104 O 7.5526 1.83682 -5.40016 0
M  V30 105 O 6.4866 -0.000808277 -6.019 0
M  V30 106 H 10.3126 -1.00172 -2.86704 0
M  V30 107 H 7.8976 -0.554341 -1.38735 0
M  V30 108 H 9.7796 1.14375 -4.05581 0
M  V30 109 H 8.4546 1.44247 -2.89784 0
M  V30 110 H 7.3616 -0.743714 -3.66633 0
M  V30 111 H 8.6946 -0.959195 -4.82763 0
M  V30 112 N 10.3467 1.47872 -0.545128 0
M  V30 113 C 11.6237 1.9554 0.0485222 0
M  V30 114 C 12.0037 1.4876 1.49779 0
M  V30 115 O 11.3517 0.720925 2.16829 0
M  V30 116 C 11.5617 3.48898 -0.084417 0
M  V30 117 C 12.9097 4.24547 0.0671239 0
M  V30 118 O 13.9337 3.56198 -0.0113649 0
M  V30 119 O 12.7927 5.45999 0.233882 0
M  V30 120 H 9.8867 0.823957 0.0708773 0
M  V30 121 H 12.4327 1.58327 -0.610798 0
M  V30 122 H 11.2047 3.75714 -1.09337 0
M  V30 123 H 10.8277 3.92845 0.613066 0
M  V30 124 N 11.8248 0.280983 1.55075 0
M  V30 125 C 13.0498 -0.340154 2.04592 0
M  V30 126 C 13.4748 -1.48246 1.15779 0
M  V30 127 O 12.8328 -1.80614 0.15761 0
M  V30 128 C 12.8808 -0.793104 3.5177 0
M  V30 129 O 11.9848 -1.89981 3.66034 0
M  V30 130 H 11.3258 -0.0694289 0.66036 0
M  V30 131 H 13.8558 0.416993 2.00306 0
M  V30 132 H 13.8658 -1.08729 3.93245 0
M  V30 133 H 12.5408 0.0426163 4.15878 0
M  V30 134 H 11.1178 -1.60771 3.36463 0
M  V30 135 N 13.3029 -1.57598 0.00835791 0
M  V30 136 C 14.2529 -2.05431 -0.989045 0
M  V30 137 C 15.2369 -0.950662 -1.29812 0
M  V30 138 O 16.4289 -1.21438 -1.28771 0
M  V30 139 C 13.5579 -2.56801 -2.27833 0
M  V30 140 C 12.6439 -3.74058 -1.99853 0
M  V30 141 N 13.0349 -4.8544 -1.42062 0
M  V30 142 C 11.3329 -3.82148 -2.29953 0
M  V30 143 C 12.0339 -5.66817 -1.30743 0
M  V30 144 N 11.0099 -5.13077 -1.7959 0
M  V30 145 H 14.8119 -2.88955 -0.536853 0
M  V30 146 H 12.3259 -1.61199 -0.197148 0
M  V30 147 H 14.3229 -2.89349 -3.00137 0
M  V30 148 H 12.9829 -1.74699 -2.73698 0
M  V30 149 H 13.9939 -5.0612 -1.09833 0
M  V30 150 H 10.6709 -3.10916 -2.78635 0
M  V30 151 H 12.0609 -6.66343 -0.862328 0
M  V30 152 N 14.781 0.264519 -1.55364 0
M  V30 153 C 16.197 0.61215 -1.47394 0
M  V30 154 C 16.397 1.89134 -0.695018 0
M  V30 155 O 15.453 2.51563 -0.217275 0
M  V30 156 C 16.766 0.731235 -2.91674 0
M  V30 157 C 18.314 0.82473 -3.01939 0
M  V30 158 C 18.789 0.975522 -4.4749 0
M  V30 159 N 20.28 1.04083 -4.51354 0
M  V30 160 C 21.015 1.17646 -5.61201 0
M  V30 161 N 20.511 1.27874 -6.80896 0
M  V30 162 N 22.304 1.20823 -5.48961 0
M  V30 163 H 14.455 -0.575456 -2.04456 0
M  V30 164 H 16.718 -0.196099 -0.927496 0
M  V30 165 H 16.424 -0.138392 -3.51428 0
M  V30 166 H 16.298 1.60883 -3.41169 0
M  V30 167 H 18.685 1.68482 -2.42276 0
M  V30 168 H 18.766 -0.0776479 -2.55682 0
M  V30 169 H 18.41 0.120058 -5.07758 0
M  V30 170 H 18.34 1.89268 -4.91412 0
M  V30 171 H 20.831 0.973846 -3.65136 0
M  V30 172 H 21.144 1.38081 -7.60364 0
M  V30 173 H 19.489 1.24863 -6.83692 0
M  V30 174 H 22.68 1.12469 -4.54388 0
M  V30 175 H 22.853 1.31049 -6.3461 0
M  V30 176 N 16.2591 1.48442 0.529413 0
M  V30 177 C 17.1891 1.65902 1.64313 0
M  V30 178 C 18.1701 0.507897 1.6234 0
M  V30 179 O 19.3551 0.740503 1.79528 0
M  V30 180 C 16.4851 1.69911 3.02898 0
M  V30 181 C 15.4391 2.8453 3.19729 0
M  V30 182 C 14.7651 2.73629 4.59381 0
M  V30 183 C 16.0651 4.25821 3.02447 0
M  V30 184 H 17.7591 2.5914 1.49955 0
M  V30 185 H 15.3051 1.24709 0.719982 0
M  V30 186 H 17.2581 1.80715 3.80684 0
M  V30 187 H 15.9821 0.732524 3.18279 0
M  V30 188 H 14.6411 2.73283 2.44361 0
M  V30 189 H 14.2891 1.74938 4.71599 0
M  V30 190 H 13.9891 3.50541 4.71588 0
M  V30 191 H 15.5131 2.86401 5.39265 0
M  V30 192 H 16.9271 4.37898 3.70024 0
M  V30 193 H 15.3241 5.03735 3.26146 0
M  V30 194 H 16.3941 4.42244 1.98867 0
M  V30 195 N 17.7372 -0.778329 1.37039 0
M  V30 196 C 18.6472 -1.92253 1.34446 0
M  V30 197 C 19.6632 -1.72267 0.244991 0
M  V30 198 O 20.8392 -1.95615 0.479258 0
M  V30 199 C 17.9042 -3.27282 1.144 0
M  V30 200 C 16.9652 -3.59969 2.33925 0
M  V30 201 C 16.1982 -4.88555 2.14825 0
M  V30 202 O 16.4212 -5.59113 1.12912 0
M  V30 203 O 15.3552 -5.20153 3.02861 0
M  V30 204 H 19.1812 -1.97392 2.30803 0
M  V30 205 H 16.7662 -0.920154 1.17701 0
M  V30 206 H 18.6482 -4.08062 1.05182 0
M  V30 207 H 17.3232 -3.23011 0.211124 0
M  V30 208 H 16.2302 -2.7945 2.48714 0
M  V30 209 H 17.5632 -3.68976 3.25757 0
M  V30 210 N 19.2153 -1.21501 -1.00376 0
M  V30 211 C 20.1253 -0.991447 -2.12621 0
M  V30 212 C 21.1413 0.0568446 -1.73907 0
M  V30 213 O 22.3173 -0.13348 -2.00957 0
M  V30 214 C 19.3823 -0.560312 -3.42142 0
M  V30 215 C 18.4433 -1.68096 -3.95022 0
M  V30 216 C 17.6763 -1.2703 -5.18362 0
M  V30 217 O 17.8993 -0.144438 -5.70217 0
M  V30 218 O 16.8333 -2.08269 -5.64719 0
M  V30 219 H 20.6593 -1.93158 -2.34358 0
M  V30 220 H 18.2443 -0.999999 -1.10997 0
M  V30 221 H 20.1263 -0.329724 -4.20108 0
M  V30 222 H 18.8013 0.351089 -3.2179 0
M  V30 223 H 17.7083 -1.96597 -3.18278 0
M  V30 224 H 19.0413 -2.56983 -4.19786 0
M  V30 225 N 20.6934 1.19889 -1.02296 0
M  V30 226 C 21.9414 1.89046 -0.714558 0
M  V30 227 C 22.2624 1.79636 0.758681 0
M  V30 228 O 21.5324 1.20292 1.54618 0
M  V30 229 H 20.1124 0.699802 -0.261317 0
M  V30 230 H 22.7744 1.45574 -1.29592 0
M  V30 231 H 21.8704 2.95524 -1.0036 0
M  V30 232 N 22.1715 0.800033 1.35784 0
M  V30 233 C 23.5875 0.482977 1.52117 0
M  V30 234 C 23.7875 -0.996948 1.75109 0
M  V30 235 O 22.8435 -1.78216 1.78872 0
M  V30 236 C 24.1565 1.32264 2.70049 0
M  V30 237 C 25.7045 1.31742 2.83924 0
M  V30 238 C 26.1795 2.14106 4.04874 0
M  V30 239 N 27.6705 2.11607 4.12039 0
M  V30 240 C 28.4055 2.72099 5.04727 0
M  V30 241 N 27.9015 3.41492 6.02789 0
M  V30 242 N 29.6945 2.61776 4.97423 0
M  V30 243 H 21.8455 1.75856 1.19115 0
M  V30 244 H 24.1085 0.748122 0.582252 0
M  V30 245 H 23.8145 2.37261 2.59616 0
M  V30 246 H 23.6885 0.971303 3.6448 0
M  V30 247 H 26.0755 0.275333 2.93813 0
M  V30 248 H 26.1565 1.70859 1.9037 0
M  V30 249 H 25.8005 3.18351 3.95746 0
M  V30 250 H 25.7305 1.72353 4.97596 0
M  V30 251 H 28.2215 1.61112 3.41835 0
M  V30 252 H 28.5345 3.84953 6.70098 0
M  V30 253 H 26.8795 3.45596 6.02983 0
M  V30 254 H 30.0705 2.07157 4.19766 0
M  V30 255 H 30.2435 3.0921 5.69468 0
M  V30 256 N 23.6496 -1.47581 0.552962 0
M  V30 257 C 25.0606 -1.86324 0.118463 0
M  V30 258 C 25.4116 -1.46006 -1.3106 0
M  V30 259 O 24.5366 -0.861182 -1.98526 0
M  V30 260 C 25.1316 -3.3816 0.20821 0
M  V30 261 C 23.6906 -3.7601 -0.171226 0
M  V30 262 C 22.8376 -2.71634 0.557686 0
M  V30 263 H 25.7886 -1.39159 0.762928 0
M  V30 264 H 25.8096 -3.76141 -0.574278 0
M  V30 265 H 25.3216 -3.67473 1.24841 0
M  V30 266 H 23.4226 -3.52313 -1.21269 0
M  V30 267 H 23.5356 -4.78745 0.184379 0
M  V30 268 H 21.8996 -2.547 0.00125792 0
M  V30 269 H 22.6826 -3.0379 1.59896 0
M  V30 270 N 25.1277 -0.289203 -1.54924 0
M  V30 271 C 26.0577 0.58549 -2.2604 0
M  V30 272 C 27.0387 1.14753 -1.25562 0
M  V30 273 O 28.2237 1.17906 -1.54311 0
M  V30 274 C 25.3537 1.76305 -2.99222 0
M  V30 275 C 24.3077 1.33191 -4.06748 0
M  V30 276 C 23.6337 2.5937 -4.6758 0
M  V30 277 C 24.9337 0.471775 -5.20165 0
M  V30 278 H 26.6277 -0.00763532 -2.99399 0
M  V30 279 H 24.1737 -0.00511229 -1.43999 0
M  V30 280 H 26.1267 2.38097 -3.47689 0
M  V30 281 H 24.8507 2.38223 -2.23422 0
M  V30 282 H 23.5097 0.737121 -3.59113 0
M  V30 283 H 23.1577 3.19576 -3.88433 0
M  V30 284 H 22.8577 2.31228 -5.40192 0
M  V30 285 H 24.3817 3.21985 -5.18804 0
M  V30 286 H 25.7957 0.995056 -5.64599 0
M  V30 287 H 24.1927 0.284639 -5.99425 0
M  V30 288 H 25.2627 -0.506041 -4.82252 0
M  V30 289 N 26.6058 1.57591 -0.0167156 0
M  V30 290 C 27.8358 1.95292 0.674149 0
M  V30 291 C 28.2438 0.891097 1.66901 0
M  V30 292 O 27.5868 -0.136908 1.83189 0
M  V30 293 C 27.6488 3.29072 1.44747 0
M  V30 294 C 27.3128 4.52879 0.612331 0
M  V30 295 C 28.3098 5.1979 -0.107126 0
M  V30 296 C 25.9948 4.99242 0.553381 0
M  V30 297 C 27.9888 6.31375 -0.874339 0
M  V30 298 C 25.6758 6.10713 -0.217546 0
M  V30 299 C 26.6738 6.76637 -0.930123 0
M  V30 300 O 26.3618 7.85969 -1.68844 0
M  V30 301 H 26.0938 0.648275 0.191615 0
M  V30 302 H 28.6478 2.05284 -0.0690148 0
M  V30 303 H 26.8778 3.15535 2.2355 0
M  V30 304 H 28.5668 3.51764 2.02526 0
M  V30 305 H 29.3328 4.84948 -0.0708392 0
M  V30 306 H 25.2118 4.47744 1.09757 0
M  V30 307 H 28.7558 6.82764 -1.43106 0
M  V30 308 H 24.6528 6.44994 -0.255593 0
M  V30 309 H 25.4208 8.02571 -1.6069 0
M  V30 310 N 28.0839 -0.256276 1.55502 0
M  V30 311 C 29.0139 -1.32102 1.92539 0
M  V30 312 C 29.9949 -1.50684 0.789194 0
M  V30 313 O 31.1799 -1.63449 1.04872 0
M  V30 314 C 28.3099 -2.67752 2.21192 0
M  V30 315 C 27.2639 -2.63878 3.36975 0
M  V30 316 C 26.5899 -4.03236 3.51147 0
M  V30 317 C 27.8899 -2.21682 4.72921 0
M  V30 318 H 29.5839 -1.01351 2.81724 0
M  V30 319 H 27.1299 -0.486105 1.35547 0
M  V30 320 H 29.0829 -3.42365 2.45691 0
M  V30 321 H 27.8069 -3.0012 1.28824 0
M  V30 322 H 26.4659 -1.91722 3.12471 0
M  V30 323 H 26.1139 -4.32854 2.56216 0
M  V30 324 H 25.8139 -4.01535 4.29003 0
M  V30 325 H 27.3379 -4.79563 3.77957 0
M  V30 326 H 28.7519 -2.86023 4.96854 0
M  V30 327 H 27.1489 -2.3111 5.53812 0
M  V30 328 H 28.2189 -1.16833 4.70615 0
M  V30 329 N 29.562 -1.4872 -0.521534 0
M  V30 330 C 30.802 -1.58771 -1.28729 0
M  V30 331 C 31.166 -0.259394 -1.9024 0
M  V30 332 O 32.367 -0.234942 -2.67771 0
M  V30 333 C 30.638 -2.70039 -2.34124 0
M  V30 334 S 32.197 -2.9991 -3.20312 0
M  V30 335 H 29.015 -0.560251 -0.437767 0
M  V30 336 H 31.617 -1.86283 -0.593188 0
M  V30 337 H 30.321 -3.65101 -1.87429 0
M  V30 338 H 29.852 -2.44455 -3.08229 0
M  V30 339 H 31.867 -2.39855 -4.34378 0
M  V30 340 N 31.0401 0.771051 -1.3745 0
M  V30 341 C 32.2881 1.52661 -1.32435 0
M  V30 342 C 32.6091 1.9479 0.0905024 0
M  V30 343 O 31.8791 1.66348 1.03466 0
M  V30 344 H 30.4591 0.566218 -0.487244 0
M  V30 345 H 33.1211 0.917636 -1.71946 0
M  V30 346 H 32.2171 2.42568 -1.96385 0
M  V30 347 N 32.5182 1.22032 0.997298 0
M  V30 348 C 33.4482 1.01065 2.10495 0
M  V30 349 C 34.4292 -0.0669542 1.69968 0
M  V30 350 O 35.6142 0.0943987 1.9397 0
M  V30 351 C 32.7442 0.582874 3.42374 0
M  V30 352 C 31.6982 1.60592 3.96729 0
M  V30 353 C 31.0242 1.03412 5.24605 0
M  V30 354 C 32.3242 2.99478 4.27914 0
M  V30 355 H 34.0182 1.93708 2.28292 0
M  V30 356 H 31.5642 0.932761 1.09707 0
M  V30 357 H 33.5172 0.423332 4.19268 0
M  V30 358 H 32.2412 -0.379213 3.24391 0
M  V30 359 H 30.9002 1.75316 3.21963 0
M  V30 360 H 30.5482 0.063518 5.0296 0
M  V30 361 H 30.2482 1.71754 5.61938 0
M  V30 362 H 31.7722 0.886066 6.04137 0
M  V30 363 H 33.1862 2.88153 4.95622 0
M  V30 364 H 31.5832 3.64903 4.76409 0
M  V30 365 H 32.6532 3.49742 3.3587 0
M  V30 366 N 33.9963 -1.19345 1.0293 0
M  V30 367 C 34.9263 -2.2481 0.631105 0
M  V30 368 C 35.9073 -1.66245 -0.360104 0
M  V30 369 O 37.0923 -1.92677 -0.242726 0
M  V30 370 C 34.2223 -3.47295 -0.0184607 0
M  V30 371 C 33.1763 -4.18536 0.895073 0
M  V30 372 C 32.5023 -5.34586 0.110592 0
M  V30 373 C 33.8023 -4.73287 2.209 0
M  V30 374 H 35.4963 -2.58372 1.51275 0
M  V30 375 H 33.0423 -1.24194 0.728818 0
M  V30 376 H 34.9953 -4.20268 -0.308675 0
M  V30 377 H 33.7193 -3.12933 -0.934907 0
M  V30 378 H 32.3783 -3.47446 1.16949 0
M  V30 379 H 32.0263 -4.96469 -0.807902 0
M  V30 380 H 31.7263 -5.83183 0.719087 0
M  V30 381 H 33.2503 -6.10355 -0.172871 0
M  V30 382 H 34.6643 -5.38013 1.98028 0
M  V30 383 H 33.0613 -5.32373 2.76946 0
M  V30 384 H 34.1313 -3.91331 2.86336 0
M  V30 385 N 35.4744 -0.807222 -1.35358 0
M  V30 386 C 36.7234 -0.384376 -1.98004 0
M  V30 387 C 37.0364 1.0543 -1.64754 0
M  V30 388 O 38.2424 1.58029 -2.20769 0
M  V30 389 C 36.6984 -0.636326 -3.5423 0
M  V30 390 C 36.3064 -2.08759 -3.96388 0
M  V30 391 C 38.0504 -0.278869 -4.23583 0
M  V30 392 C 35.9574 -2.28525 -5.45463 0
M  V30 393 H 34.8874 -0.139986 -0.740891 0
M  V30 394 H 37.5384 -0.991369 -1.54415 0
M  V30 395 H 35.9204 0.0406256 -3.95979 0
M  V30 396 H 37.0944 -2.8024 -3.6579 0
M  V30 397 H 35.4094 -2.40497 -3.39926 0
M  V30 398 H 38.0064 -0.404599 -5.33167 0
M  V30 399 H 38.3494 0.775012 -4.09022 0
M  V30 400 H 38.8824 -0.909764 -3.87257 0
M  V30 401 H 35.6214 -3.32361 -5.64992 0
M  V30 402 H 35.1414 -1.61569 -5.77629 0
M  V30 403 H 36.8204 -2.10109 -6.11934 0
M  V30 404 N 36.9525 1.47285 -0.560781 0
M  V30 405 C 38.3635 1.86258 -0.128343 0
M  V30 406 C 38.7145 1.46699 1.30284 0
M  V30 407 O 37.8395 0.871698 1.98067 0
M  V30 408 C 38.4345 3.38044 -0.22614 0
M  V30 409 C 36.9935 3.76096 0.151283 0
M  V30 410 C 36.1405 2.71335 -0.572084 0
M  V30 411 H 39.0915 1.38752 -0.770297 0
M  V30 412 H 39.1125 3.76441 0.554322 0
M  V30 413 H 38.6245 3.66806 -1.26788 0
M  V30 414 H 36.7255 3.52951 1.19399 0
M  V30 415 H 36.8385 4.78641 -0.209765 0
M  V30 416 H 35.2025 2.54696 -0.0147653 0
M  V30 417 H 35.9855 3.02938 -1.61504 0
M  V30 418 N 38.4306 0.297415 1.54768 0
M  V30 419 C 39.6556 -0.318435 2.04941 0
M  V30 420 C 40.0806 -1.4701 1.17345 0
M  V30 421 O 39.4386 -1.80436 0.176758 0
M  V30 422 C 39.4866 -0.755749 3.52592 0
M  V30 423 O 38.5906 -1.86088 3.68028 0
M  V30 424 H 37.9316 -0.062421 0.661059 0
M  V30 425 H 40.4616 0.438215 1.99852 0
M  V30 426 H 40.4716 -1.04552 3.94376 0
M  V30 427 H 39.1466 0.0867233 4.1581 0
M  V30 428 H 37.7236 -1.57193 3.38149 0
M  V30 429 N 39.9087 -1.5758 0.0250728 0
M  V30 430 C 41.3197 -1.79476 -0.514323 0
M  V30 431 C 41.6707 -0.934956 -1.72491 0
M  V30 432 O 40.7957 -0.144245 -2.15919 0
M  V30 433 C 41.3907 -3.25503 -0.939842 0
M  V30 434 C 39.9497 -3.48408 -1.42438 0
M  V30 435 C 39.0967 -2.74583 -0.387201 0
M  V30 436 H 42.0477 -1.567 0.25113 0
M  V30 437 H 42.0687 -3.34992 -1.80445 0
M  V30 438 H 41.5807 -3.88056 -0.0585628 0
M  V30 439 H 39.6817 -2.91103 -2.32572 0
M  V30 440 H 39.7947 -4.57119 -1.43455 0
M  V30 441 H 38.1587 -2.39942 -0.854409 0
M  V30 442 H 38.9417 -3.39849 0.485543 0
M  V30 443 N 41.3868 0.248026 -1.55636 0
M  V30 444 C 42.6328 0.97767 -1.77678 0
M  V30 445 C 42.9658 1.85016 -0.590135 0
M  V30 446 O 42.2408 1.90095 0.411611 0
M  V30 447 C 42.5238 1.83914 -3.09593 0
M  V30 448 C 42.3768 0.99491 -4.38659 0
M  V30 449 C 43.6958 2.82183 -3.37729 0
M  V30 450 H 40.8148 0.354005 -0.646413 0
M  V30 451 H 43.4568 0.248253 -1.88371 0
M  V30 452 H 41.6068 2.46104 -3.00608 0
M  V30 453 H 43.2788 0.391789 -4.59633 0
M  V30 454 H 41.5218 0.299231 -4.32767 0
M  V30 455 H 42.1928 1.63145 -5.2734 0
M  V30 456 H 44.6688 2.30129 -3.4667 0
M  V30 457 H 43.5448 3.39582 -4.31249 0
M  V30 458 H 43.8058 3.58588 -2.58586 0
M  V30 459 N 42.8649 1.48995 0.513639 0
M  V30 460 C 44.1129 1.57531 1.26604 0
M  V30 461 C 44.4339 0.258236 1.93283 0
M  V30 462 O 43.7039 -0.721502 1.8213 0
M  V30 463 H 42.2839 0.580387 0.470276 0
M  V30 464 H 44.9459 1.85552 0.596373 0
M  V30 465 H 44.0419 2.36486 2.03669 0
M  V30 466 N 44.343 -0.763751 1.37857 0
M  V30 467 C 45.306 -1.85889 1.34081 0
M  V30 468 C 46.306 -1.58949 0.243277 0
M  V30 469 O 47.496 -1.66882 0.499589 0
M  V30 470 C 44.628 -3.23176 1.08489 0
M  V30 471 H 45.821 -1.90648 2.31502 0
M  V30 472 H 43.374 -0.964367 1.23003 0
M  V30 473 H 44.109 -3.24091 0.116318 0
M  V30 474 H 43.894 -3.44124 1.8794 0
M  V30 475 H 45.384 -4.03254 1.08517 0
M  V30 476 N 45.8211 -1.22559 -0.990812 0
M  V30 477 C 46.7511 -1.0218 -2.09956 0
M  V30 478 C 47.7321 0.0579394 -1.70001 0
M  V30 479 O 48.9171 -0.104684 -1.93918 0
M  V30 480 C 46.0471 -0.601023 -3.4206 0
M  V30 481 C 45.0011 -1.62694 -3.95872 0
M  V30 482 C 44.3271 -1.06193 -5.24049 0
M  V30 483 C 45.6271 -3.01743 -4.2632 0
M  V30 484 H 47.3211 -1.94916 -2.27262 0
M  V30 485 H 44.8671 -0.938566 -1.09211 0
M  V30 486 H 46.8201 -0.445561 -4.19038 0
M  V30 487 H 45.5441 0.362005 -3.24588 0
M  V30 488 H 44.2031 -1.77021 -3.21028 0
M  V30 489 H 43.8511 -0.0901903 -5.02919 0
M  V30 490 H 43.5511 -1.74732 -5.61019 0
M  V30 491 H 45.0751 -0.918092 -6.03658 0
M  V30 492 H 46.4891 -2.90777 -4.94087 0
M  V30 493 H 44.8861 -3.67425 -4.74467 0
M  V30 494 H 45.9561 -3.51518 -3.34011 0
M  V30 495 N 47.2992 1.18797 -1.03562 0
M  V30 496 C 48.2622 2.20464 -0.626769 0
M  V30 497 C 49.2622 1.57721 0.313173 0
M  V30 498 O 50.4522 1.73917 0.0992615 0
M  V30 499 C 47.5842 3.40802 0.0818498 0
M  V30 500 H 48.7772 2.58149 -1.5264 0
M  V30 501 H 46.3302 1.32593 -0.827578 0
M  V30 502 H 47.0652 3.08642 0.995518 0
M  V30 503 H 46.8502 3.8758 -0.593652 0
M  V30 504 H 48.3402 4.16092 0.354584 0
M  V30 505 N 48.7773 0.814389 1.34928 0
M  V30 506 C 49.7273 0.202752 2.27097 0
M  V30 507 C 50.7113 -0.62799 1.48139 0
M  V30 508 O 51.9033 -0.483969 1.70255 0
M  V30 509 C 49.0323 -0.64146 3.37254 0
M  V30 510 C 48.1183 0.19944 4.23631 0
M  V30 511 N 48.5093 1.26628 4.89693 0
M  V30 512 C 46.8073 -0.0176433 4.45997 0
M  V30 513 C 47.5083 1.78031 5.53787 0
M  V30 514 N 46.4843 1.08553 5.32651 0
M  V30 515 H 50.2863 1.01893 2.75672 0
M  V30 516 H 47.8003 0.656332 1.48546 0
M  V30 517 H 49.7973 -1.09575 4.02243 0
M  V30 518 H 48.4573 -1.4559 2.9023 0
M  V30 519 H 49.4683 1.64901 4.90946 0
M  V30 520 H 46.1453 -0.800601 4.09752 0
M  V30 521 H 47.5353 2.67236 6.16469 0
M  V30 522 N 50.2554 -1.46986 0.568584 0
M  V30 523 C 51.4804 -2.07335 0.0520528 0
M  V30 524 C 51.9054 -1.41675 -1.23733 0
M  V30 525 O 51.2634 -0.495623 -1.74394 0
M  V30 526 C 51.3114 -3.60417 -0.11501 0
M  V30 527 O 50.4154 -3.95309 -1.17492 0
M  V30 528 H 49.7564 -0.661597 0.0564385 0
M  V30 529 H 52.2864 -1.88837 0.787507 0
M  V30 530 H 52.2964 -4.06698 -0.325644 0
M  V30 531 H 50.9714 -4.07601 0.826675 0
M  V30 532 H 49.5484 -3.60757 -0.943869 0
M  V30 533 N 51.7335 -0.305618 -1.54608 0
M  V30 534 C 53.0105 0.355652 -1.92339 0
M  V30 535 C 53.3905 1.71324 -1.23335 0
M  V30 536 O 52.7385 2.25473 -0.370702 0
M  V30 537 C 52.9485 0.46572 -3.45879 0
M  V30 538 C 54.2965 0.734426 -4.182 0
M  V30 539 O 55.3205 0.54935 -3.51938 0
M  V30 540 O 54.1795 1.09024 -5.35515 0
M  V30 541 H 51.2735 0.199666 -0.802535 0
M  V30 542 H 53.8195 -0.354017 -1.65966 0
M  V30 543 H 52.5915 -0.488461 -3.88239 0
M  V30 544 H 52.2145 1.22367 -3.78301 0
M  V30 545 N 53.2116 1.57565 -0.0334293 0
M  V30 546 C 54.4596 1.91598 0.642999 0
M  V30 547 C 54.7806 0.910847 1.7242 0
M  V30 548 O 54.0506 -0.0469931 1.95844 0
M  V30 549 H 52.6306 0.707228 0.240496 0
M  V30 550 H 55.2926 1.94726 -0.0822488 0
M  V30 551 H 54.3886 2.92336 1.09298 0
M  V30 552 N 54.6897 -0.239769 1.55765 0
M  V30 553 C 55.9667 -0.990056 1.68693 0
M  V30 554 C 56.3467 -2.03107 0.5754 0
M  V30 555 O 55.6947 -2.24604 -0.42017 0
M  V30 556 C 55.9047 -1.61696 3.09282 0
M  V30 557 C 57.2527 -2.11613 3.6811 0
M  V30 558 O 58.2767 -1.71624 3.12127 0
M  V30 559 O 57.1357 -2.85057 4.66267 0
M  V30 560 H 54.2297 -0.461299 0.686391 0
M  V30 561 H 56.7757 -0.232991 1.68093 0
M  V30 562 H 55.5477 -0.864357 3.81634 0
M  V30 563 H 55.1707 -2.44005 3.13923 0
M  V30 564 N 56.1678 -1.49265 -0.50573 0
M  V30 565 C 57.1308 -1.65075 -1.59006 0
M  V30 566 C 58.1308 -0.522768 -1.52065 0
M  V30 567 O 59.3208 -0.789117 -1.55302 0
M  V30 568 C 56.4528 -1.64369 -2.98656 0
M  V30 569 H 57.6458 -2.61784 -1.46319 0
M  V30 570 H 55.1988 -1.38226 -0.729616 0
M  V30 571 H 55.9338 -0.692272 -3.16825 0
M  V30 572 H 55.7188 -2.46282 -3.05103 0
M  V30 573 H 57.2088 -1.78674 -3.77446 0
M  V30 574 N 57.6459 0.756429 -1.3826 0
M  V30 575 C 58.6089 1.85176 -1.35065 0
M  V30 576 C 59.6089 1.58818 -0.251703 0
M  V30 577 O 60.7989 1.66615 -0.508433 0
M  V30 578 C 57.9309 3.22596 -1.10201 0
M  V30 579 H 59.1239 1.89417 -2.3251 0
M  V30 580 H 56.6769 0.95783 -1.23512 0
M  V30 581 H 57.4119 3.24025 -0.133504 0
M  V30 582 H 57.1969 3.43122 -1.89762 0
M  V30 583 H 58.6869 4.02673 -1.10654 0
M  V30 584 N 59.124 1.23083 0.984299 0
M  V30 585 C 60.054 1.03292 2.09411 0
M  V30 586 C 61.035 -0.048923 1.7003 0
M  V30 587 O 62.22 0.114967 1.93859 0
M  V30 588 C 59.35 0.619155 3.41736 0
M  V30 589 C 58.304 1.64791 3.95004 0
M  V30 590 C 57.63 1.0897 5.23478 0
M  V30 591 C 58.93 3.03999 4.24714 0
M  V30 592 H 60.624 1.96119 2.26225 0
M  V30 593 H 58.17 0.944344 1.08711 0
M  V30 594 H 60.123 0.467777 4.18796 0
M  V30 595 H 58.847 -0.344786 3.24775 0
M  V30 596 H 57.506 1.78721 3.20085 0
M  V30 597 H 57.154 0.11686 5.02864 0
M  V30 598 H 56.854 1.77704 5.60085 0
M  V30 599 H 58.378 0.950093 6.03163 0
M  V30 600 H 59.792 2.93393 4.92538 0
M  V30 601 H 58.189 3.69936 4.72512 0
M  V30 602 H 59.259 3.53285 3.32142 0
M  V30 603 N 60.6021 -1.18246 1.0419 0
M  V30 604 C 61.5521 -2.19843 0.604392 0
M  V30 605 C 62.5361 -1.56962 -0.353814 0
M  V30 606 O 63.7281 -1.76156 -0.17267 0
M  V30 607 C 60.8571 -3.43287 -0.0298975 0
M  V30 608 C 59.9431 -4.13288 0.951531 0
M  V30 609 N 60.3341 -4.59271 2.11906 0
M  V30 610 C 58.6321 -4.39165 0.7778 0
M  V30 611 C 59.3331 -5.13173 2.73912 0
M  V30 612 N 58.3091 -5.04763 2.01779 0
M  V30 613 H 62.1111 -2.53089 1.4941 0
M  V30 614 H 59.6251 -1.34465 0.910658 0
M  V30 615 H 61.6221 -4.15334 -0.361037 0
M  V30 616 H 60.2821 -3.11537 -0.915127 0
M  V30 617 H 61.2931 -4.5368 2.49789 0
M  V30 618 H 57.9701 -4.17461 -0.0572331 0
M  V30 619 H 59.3601 -5.58947 3.72864 0
M  V30 620 N 62.0802 -0.821533 -1.34494 0
M  V30 621 C 63.0432 -0.247847 -2.27856 0
M  V30 622 C 64.0432 0.573453 -1.50227 0
M  V30 623 O 65.2332 0.389759 -1.69784 0
M  V30 624 C 62.3652 0.652698 -3.34593 0
M  V30 625 H 63.5582 -1.07146 -2.80107 0
M  V30 626 H 61.1112 -0.593291 -1.44602 0
M  V30 627 H 61.8462 1.49943 -2.87555 0
M  V30 628 H 61.6312 0.065292 -3.92046 0
M  V30 629 H 63.1212 1.04793 -4.04238 0
M  V30 630 N 63.5583 1.46682 -0.576371 0
M  V30 631 C 64.4883 2.33028 0.148397 0
M  V30 632 C 65.4693 1.44961 0.889956 0
M  V30 633 O 66.6543 1.73789 0.866662 0
M  V30 634 C 63.7843 3.27117 1.1667 0
M  V30 635 C 62.7383 4.24575 0.540386 0
M  V30 636 C 62.0643 5.08126 1.6647 0
M  V30 637 C 63.3643 5.19722 -0.518331 0
M  V30 638 H 65.0583 2.93875 -0.572509 0
M  V30 639 H 62.6043 1.41315 -0.276768 0
M  V30 640 H 64.5573 3.86374 1.68204 0
M  V30 641 H 63.2813 2.64364 1.9178 0
M  V30 642 H 61.9403 3.66571 0.0461769 0
M  V30 643 H 61.5883 4.41762 2.40531 0
M  V30 644 H 61.2883 5.74122 1.25131 0
M  V30 645 H 62.8123 5.70246 2.18293 0
M  V30 646 H 64.2263 5.73232 -0.0883058 0
M  V30 647 H 62.6233 5.94026 -0.851679 0
M  V30 648 H 63.6933 4.64037 -1.40703 0
M  V30 649 N 65.0364 0.313813 1.54444 0
M  V30 650 C 66.2644 -0.293918 2.04802 0
M  V30 651 C 66.6794 -1.46537 1.19047 0
M  V30 652 O 66.0364 -1.81182 0.218939 0
M  V30 653 C 66.0874 -0.737806 3.53891 0
M  V30 654 O 65.8084 0.387038 4.36387 0
M  V30 655 C 67.3094 -1.40936 4.203 0
M  V30 656 H 64.5294 -0.0620057 0.668129 0
M  V30 657 H 67.0734 0.457169 1.99324 0
M  V30 658 H 65.2284 -1.43889 3.59687 0
M  V30 659 H 65.6424 0.0391274 5.24485 0
M  V30 660 H 67.1164 -1.67099 5.26101 0
M  V30 661 H 67.5934 -2.35355 3.70816 0
M  V30 662 H 68.1994 -0.751117 4.18615 0
M  V30 663 N 66.5145 -1.57545 0.0417849 0
M  V30 664 C 67.7915 -1.83642 -0.673433 0
M  V30 665 C 68.1715 -0.928298 -1.89594 0
M  V30 666 O 67.5195 0.0129955 -2.28496 0
M  V30 667 C 67.7295 -3.33155 -1.03964 0
M  V30 668 C 69.0775 -3.99941 -1.42592 0
M  V30 669 O 70.1015 -3.37725 -1.13226 0
M  V30 670 O 68.9605 -5.09619 -1.9736 0
M  V30 671 H 66.0545 -0.757638 -0.331533 0
M  V30 672 H 68.6005 -1.69554 0.070433 0
M  V30 673 H 67.3725 -3.9093 -0.170098 0
M  V30 674 H 66.9955 -3.52396 -1.84126 0
M  V30 675 N 67.9926 0.231505 -1.5589 0
M  V30 676 C 68.9556 1.27028 -1.90779 0
M  V30 677 C 69.9556 1.40308 -0.785507 0
M  V30 678 O 71.1456 1.38744 -1.05336 0
M  V30 679 C 68.2776 2.64566 -2.14983 0
M  V30 680 H 69.4706 0.973017 -2.83677 0
M  V30 681 H 67.0236 0.471486 -1.49019 0
M  V30 682 H 67.7586 2.99406 -1.24604 0
M  V30 683 H 67.5436 2.56305 -2.96732 0
M  V30 684 H 69.0336 3.39543 -2.43105 0
M  V30 685 N 69.4707 1.49531 0.497807 0
M  V30 686 C 70.4007 1.6935 1.60757 0
M  V30 687 C 71.3817 0.542218 1.61227 0
M  V30 688 O 72.5667 0.778417 1.77917 0
M  V30 689 C 69.6967 1.76298 2.99226 0
M  V30 690 C 68.6507 2.91248 3.13622 0
M  V30 691 C 67.9767 2.83312 4.53474 0
M  V30 692 C 69.2767 4.3214 2.93346 0
M  V30 693 H 70.9707 2.62263 1.44425 0
M  V30 694 H 68.5167 1.26208 0.693367 0
M  V30 695 H 70.4697 1.88749 3.76765 0
M  V30 696 H 69.1937 0.799871 3.16654 0
M  V30 697 H 67.8527 2.78404 2.38509 0
M  V30 698 H 67.5007 1.84902 4.67782 0
M  V30 699 H 67.2007 3.60465 4.64046 0
M  V30 700 H 68.7247 2.97775 5.33069 0
M  V30 701 H 70.1387 4.45649 3.60652 0
M  V30 702 H 68.5357 5.1054 3.15387 0
M  V30 703 H 69.6057 4.46363 1.89441 0
M  V30 704 N 70.9488 -0.749086 1.3866 0
M  V30 705 C 71.8788 -1.8764 1.38973 0
M  V30 706 C 72.8598 -1.68178 0.255004 0
M  V30 707 O 74.0448 -1.88704 0.458754 0
M  V30 708 C 71.1748 -3.25222 1.21851 0
M  V30 709 C 70.1288 -3.59295 2.32575 0
M  V30 710 C 69.4548 -4.95663 2.00555 0
M  V30 711 C 70.7548 -3.63709 3.7485 0
M  V30 712 H 72.4488 -1.87635 2.3331 0
M  V30 713 H 69.9948 -0.901329 1.12303 0
M  V30 714 H 71.9478 -4.03746 1.20695 0
M  V30 715 H 70.6718 -3.25719 0.239775 0
M  V30 716 H 69.3308 -2.83093 2.32925 0
M  V30 717 H 68.9788 -4.92724 1.01154 0
M  V30 718 H 68.6788 -5.19429 2.74714 0
M  V30 719 H 70.2028 -5.7656 2.01024 0
M  V30 720 H 71.6168 -4.32338 3.76506 0
M  V30 721 H 70.0138 -3.98986 4.48252 0
M  V30 722 H 71.0838 -2.63834 4.06841 0
M  V30 723 N 72.4269 -1.23603 -0.977757 0
M  V30 724 C 73.6519 -1.09735 -1.75991 0
M  V30 725 C 74.0769 0.346858 -1.84874 0
M  V30 726 O 73.4349 1.25093 -1.3123 0
M  V30 727 C 73.4829 -1.73051 -3.16363 0
M  V30 728 O 72.5869 -0.994452 -4.0023 0
M  V30 729 H 71.9279 -0.384476 -0.541364 0
M  V30 730 H 74.4579 -1.6371 -1.2272 0
M  V30 731 H 74.4679 -1.78398 -3.66931 0
M  V30 732 H 73.1429 -2.78137 -3.09213 0
M  V30 733 H 71.7199 -1.01812 -3.58732 0
M  V30 734 N 73.905 1.17692 -1.04816 0
M  V30 735 C 74.868 2.19787 -0.650117 0
M  V30 736 C 75.868 1.58044 0.296427 0
M  V30 737 O 77.058 1.74012 0.0808097 0
M  V30 738 C 74.19 3.40869 0.0456987 0
M  V30 739 H 75.383 2.56516 -1.5537 0
M  V30 740 H 72.936 1.31708 -0.841594 0
M  V30 741 H 73.671 3.09681 0.962726 0
M  V30 742 H 73.456 3.86928 -0.634727 0
M  V30 743 H 74.946 4.16445 0.310432 0
M  V30 744 N 75.3831 0.828654 1.34056 0
M  V30 745 C 76.6131 0.431993 2.02033 0
M  V30 746 C 77.0211 -0.96844 1.62536 0
M  V30 747 O 76.3641 -1.6391 0.829408 0
M  V30 748 C 76.4261 0.461224 3.56529 0
M  V30 749 C 76.0901 1.81599 4.1937 0
M  V30 750 C 77.0871 2.7777 4.39477 0
M  V30 751 C 74.7721 2.10604 4.56017 0
M  V30 752 C 76.7661 4.01115 4.95364 0
M  V30 753 C 74.4531 3.34207 5.11614 0
M  V30 754 C 75.4511 4.2928 5.31232 0
M  V30 755 O 75.1391 5.50699 5.8565 0
M  V30 756 H 74.8711 0.170943 0.654029 0
M  V30 757 H 77.4251 1.11988 1.72185 0
M  V30 758 H 75.6551 -0.283388 3.8566 0
M  V30 759 H 77.3441 0.0838149 4.05813 0
M  V30 760 H 78.1101 2.56659 4.11523 0
M  V30 761 H 73.9891 1.37402 4.40047 0
M  V30 762 H 77.5331 4.75333 5.10592 0
M  V30 763 H 73.4301 3.55179 5.38997 0
M  V30 764 H 74.1981 5.52298 6.04077 0
M  V30 765 N 76.8612 -1.46375 0.584142 0
M  V30 766 C 78.1092 -2.01978 0.0701287 0
M  V30 767 C 78.4302 -1.4579 -1.295 0
M  V30 768 O 77.7002 -0.64314 -1.85042 0
M  V30 769 H 76.2802 -0.746648 0.0229345 0
M  V30 770 H 78.9422 -1.79461 0.760245 0
M  V30 771 H 78.0382 -3.121 0.0022064 0
M  V30 772 N 78.3393 -0.321999 -1.54275 0
M  V30 773 C 79.2693 0.537411 -2.27231 0
M  V30 774 C 80.2503 1.12064 -1.27968 0
M  V30 775 O 81.4353 1.14606 -1.56777 0
M  V30 776 C 78.5653 1.69919 -3.02894 0
M  V30 777 C 77.5193 1.24534 -4.09482 0
M  V30 778 C 76.8453 2.49394 -4.72977 0
M  V30 779 C 78.1453 0.361335 -5.21049 0
M  V30 780 H 79.8393 -0.0711406 -2.99315 0
M  V30 781 H 77.3853 -0.0356555 -1.43956 0
M  V30 782 H 79.3383 2.30668 -3.52662 0
M  V30 783 H 78.0623 2.33431 -2.28424 0
M  V30 784 H 76.7213 0.660782 -3.60596 0
M  V30 785 H 76.3693 3.11265 -3.95124 0
M  V30 786 H 76.0693 2.19718 -5.44975 0
M  V30 787 H 77.5933 3.10908 -5.25517 0
M  V30 788 H 79.0073 0.875072 -5.66582 0
M  V30 789 H 77.4043 0.157428 -5.99893 0
M  V30 790 H 78.4743 -0.60822 -4.8107 0
M  V30 791 N 79.8174 1.5752 -0.0501392 0
M  V30 792 C 81.0654 1.9227 0.622642 0
M  V30 793 C 81.3864 0.929083 1.71444 0
M  V30 794 O 80.6564 -0.0262186 1.95882 0
M  V30 795 H 79.2364 0.709739 0.232981 0
M  V30 796 H 81.8984 1.94628 -0.102898 0
M  V30 797 H 80.9944 2.93479 1.06191 0
M  V30 798 N 81.2955 -0.223234 1.56011 0
M  V30 799 C 82.5725 -0.972108 1.69733 0
M  V30 800 C 82.9525 -2.02485 0.59691 0
M  V30 801 O 82.3005 -2.25037 -0.396324 0
M  V30 802 C 82.5105 -1.58407 3.10979 0
M  V30 803 C 83.8585 -2.07696 3.70334 0
M  V30 804 O 84.8825 -1.68304 3.1393 0
M  V30 805 O 83.7415 -2.80096 4.69264 0
M  V30 806 H 80.8355 -0.453993 0.691245 0
M  V30 807 H 83.3815 -0.215149 1.68331 0
M  V30 808 H 82.1535 -0.823831 3.82529 0
M  V30 809 H 81.7765 -2.40661 3.16493 0
M  V30 810 N 82.7736 -1.49793 -0.48987 0
M  V30 811 C 84.0226 -1.59085 -1.23995 0
M  V30 812 C 84.3356 -0.287907 -1.9347 0
M  V30 813 O 85.5416 -0.259506 -2.70257 0
M  V30 814 C 83.9976 -2.80736 -2.252 0
M  V30 815 C 83.6056 -4.17833 -1.61614 0
M  V30 816 C 85.3496 -2.99364 -3.00967 0
M  V30 817 C 83.2566 -5.30693 -2.60996 0
M  V30 818 H 82.1866 -0.592372 -0.466488 0
M  V30 819 H 84.8376 -1.76197 -0.51252 0
M  V30 820 H 83.2196 -2.57142 -3.01154 0
M  V30 821 H 84.3936 -4.51608 -0.915774 0
M  V30 822 H 82.7086 -4.04656 -0.981977 0
M  V30 823 H 85.3056 -3.80851 -3.75308 0
M  V30 824 H 85.6486 -2.10356 -3.59244 0
M  V30 825 H 86.1816 -3.2305 -2.32128 0
M  V30 826 H 82.9206 -6.21796 -2.07485 0
M  V30 827 H 82.4406 -5.01359 -3.2924 0
M  V30 828 H 84.1196 -5.6049 -3.23202 0
M  V30 829 N 84.2517 0.741722 -1.39055 0
M  V30 830 C 85.4997 1.49818 -1.35643 0
M  V30 831 C 85.8207 1.94938 0.0491642 0
M  V30 832 O 85.0907 1.68505 0.999141 0
M  V30 833 H 83.6707 0.555755 -0.499144 0
M  V30 834 H 86.3327 0.880957 -1.73854 0
M  V30 835 H 85.4287 2.38348 -2.01486 0
M  V30 836 N 85.7298 1.2412 0.971189 0
M  V30 837 C 86.6598 1.05508 2.08304 0
M  V30 838 C 87.6408 -0.0308864 1.70072 0
M  V30 839 O 88.8258 0.135521 1.93727 0
M  V30 840 C 85.9558 0.655365 3.4106 0
M  V30 841 C 84.9098 1.68971 3.93234 0
M  V30 842 C 84.2358 1.14516 5.22293 0
M  V30 843 C 85.5358 3.08487 4.21465 0
M  V30 844 H 87.2298 1.98507 2.24132 0
M  V30 845 H 84.7758 0.955821 1.07704 0
M  V30 846 H 86.7288 0.51217 4.18276 0
M  V30 847 H 85.4528 -0.31032 3.25122 0
M  V30 848 H 84.1118 1.82106 3.18171 0
M  V30 849 H 83.7598 0.170189 5.02712 0
M  V30 850 H 83.4598 1.83635 5.58168 0
M  V30 851 H 84.9838 1.01401 6.02121 0
M  V30 852 H 86.3978 2.98601 4.89398 0
M  V30 853 H 84.7948 3.74926 4.68562 0
M  V30 854 H 85.8648 3.56787 3.28376 0
M  V30 855 N 87.2079 -1.17134 1.05439 0
M  V30 856 C 88.1379 -2.2342 0.678649 0
M  V30 857 C 89.1189 -1.66971 -0.32476 0
M  V30 858 O 90.3039 -1.93149 -0.201802 0
M  V30 859 C 87.4339 -3.47256 0.0552099 0
M  V30 860 C 86.3879 -4.16543 0.98365 0
M  V30 861 C 85.7139 -5.34231 0.223961 0
M  V30 862 C 87.0139 -4.68495 2.3089 0
M  V30 863 H 88.7079 -2.55105 1.56722 0
M  V30 864 H 86.2539 -1.2262 0.754998 0
M  V30 865 H 88.2069 -4.20828 -0.21946 0
M  V30 866 H 86.9309 -3.14846 -0.868319 0
M  V30 867 H 85.5899 -3.44887 1.24293 0
M  V30 868 H 85.2379 -4.98071 -0.702412 0
M  V30 869 H 84.9379 -5.81527 0.842627 0
M  V30 870 H 86.4619 -6.10585 -0.0433671 0
M  V30 871 H 87.8759 -5.33691 2.09396 0
M  V30 872 H 86.2729 -5.26379 2.88176 0
M  V30 873 H 87.3429 -3.85169 2.94572 0
M  V30 874 N 88.686 -0.835752 -1.33615 0
M  V30 875 C 89.933 -0.429959 -1.97883 0
M  V30 876 C 90.261 1.01006 -1.66217 0
M  V30 877 O 89.516 1.72047 -0.93265 0
M  V30 878 C 89.815 -0.593925 -3.52431 0
M  V30 879 C 89.481 -2.00158 -4.04039 0
M  V30 880 C 88.143 -2.38662 -4.17844 0
M  V30 881 C 90.495 -2.92117 -4.31644 0
M  V30 882 C 87.823 -3.68435 -4.56588 0
M  V30 883 C 90.175 -4.21368 -4.71838 0
M  V30 884 C 88.839 -4.59833 -4.83849 0
M  V30 885 H 88.109 -0.157333 -0.724104 0
M  V30 886 H 90.756 -1.06217 -1.59343 0
M  V30 887 H 89.061 0.121619 -3.91611 0
M  V30 888 H 90.758 -0.260282 -4.00154 0
M  V30 889 H 87.348 -1.69252 -3.93766 0
M  V30 890 H 91.532 -2.63608 -4.20505 0
M  V30 891 H 86.788 -3.98046 -4.64079 0
M  V30 892 H 90.962 -4.92703 -4.92155 0
M  V30 893 H 88.589 -5.60438 -5.13627 0
M  V30 894 N 90.1641 1.46063 -0.591896 0
M  V30 895 C 91.5751 1.85944 -0.167822 0
M  V30 896 C 91.9261 1.49429 1.27143 0
M  V30 897 O 91.0511 0.913515 1.96173 0
M  V30 898 C 91.6461 3.37489 -0.297794 0
M  V30 899 C 90.2051 3.76332 0.0714732 0
M  V30 900 C 89.3521 2.7006 -0.629509 0
M  V30 901 H 92.3031 1.37087 -0.799555 0
M  V30 902 H 92.3241 3.77532 0.474349 0
M  V30 903 H 91.8361 3.64034 -1.3454 0
M  V30 904 H 89.9371 3.55405 1.11886 0
M  V30 905 H 90.0501 4.78088 -0.311245 0
M  V30 906 H 88.4141 2.54607 -0.0687867 0
M  V30 907 H 89.1971 2.99444 -1.67894 0
M  V30 908 N 91.6422 0.330177 1.54103 0
M  V30 909 C 92.9192 -0.325007 1.92881 0
M  V30 910 C 93.2992 -1.6934 1.26045 0
M  V30 911 O 92.6472 -2.24855 0.406526 0
M  V30 912 C 92.8572 -0.410634 3.46576 0
M  V30 913 C 94.2052 -0.667801 4.19316 0
M  V30 914 O 95.2292 -0.49329 3.52768 0
M  V30 915 O 94.0882 -1.00491 5.37181 0
M  V30 916 H 91.1822 -0.186873 0.80561 0
M  V30 917 H 93.7282 0.380376 1.65382 0
M  V30 918 H 92.5002 0.550164 3.87413 0
M  V30 919 H 92.1232 -1.16333 3.802 0
M  V30 920 N 93.1203 -1.57491 0.0584922 0
M  V30 921 C 94.3483 -1.97296 -0.623037 0
M  V30 922 C 94.7633 -0.936338 -1.63946 0
M  V30 923 O 94.1203 0.0785981 -1.82331 0
M  V30 924 C 94.1713 -3.37183 -1.30345 0
M  V30 925 O 93.8923 -4.36872 -0.32773 0
M  V30 926 C 95.3933 -3.91788 -2.07406 0
M  V30 927 H 92.6133 -0.649153 -0.169826 0
M  V30 928 H 95.1573 -2.04106 0.12696 0
M  V30 929 H 93.3123 -3.31502 -2.00463 0
M  V30 930 H 93.7263 -5.18141 -0.814269 0
M  V30 931 H 95.2003 -4.91926 -2.50425 0
M  V30 932 H 95.6773 -3.27609 -2.92521 0
M  V30 933 H 96.2833 -4.00829 -1.42184 0
M  V30 934 N 94.5984 0.214957 -1.56127 0
M  V30 935 C 95.8754 0.963093 -1.70247 0
M  V30 936 C 96.2554 2.02166 -0.60764 0
M  V30 937 O 95.6034 2.25244 0.384385 0
M  V30 938 C 95.8134 1.56756 -3.11815 0
M  V30 939 C 97.1614 2.0573 -3.7143 0
M  V30 940 O 98.1854 1.66637 -3.14818 0
M  V30 941 O 97.0444 2.77603 -4.70743 0
M  V30 942 H 94.1384 0.450321 -0.693643 0
M  V30 943 H 96.6844 0.206219 -1.68442 0
M  V30 944 H 95.4564 0.803533 -3.82961 0
M  V30 945 H 95.0794 2.3898 -3.17765 0
M  V30 946 N 96.0765 1.50051 0.48192 0
M  V30 947 C 97.4875 1.5348 1.06305 0
M  V30 948 C 97.8385 0.331997 1.93371 0
M  V30 949 O 96.9635 -0.556256 2.09129 0
M  V30 950 C 97.5585 2.7813 1.93466 0
M  V30 951 C 96.1175 2.84275 2.46707 0
M  V30 952 C 95.2645 2.47637 1.24785 0
M  V30 953 H 98.2155 1.56472 0.264995 0
M  V30 954 H 98.2365 2.59372 2.78399 0
M  V30 955 H 97.7485 3.65654 1.30072 0
M  V30 956 H 95.8495 2.01077 3.13686 0
M  V30 957 H 95.9625 3.8691 2.82555 0
M  V30 958 H 94.3265 1.99835 1.57918 0
M  V30 959 H 95.1095 3.37457 0.630694 0
M  V30 960 N 97.5546 -0.734337 1.39446 0
M  V30 961 C 98.9706 -1.03997 1.21065 0
M  V30 962 C 99.1706 -2.01369 0.0727019 0
M  V30 963 O 98.2266 -2.45856 -0.575426 0
M  V30 964 C 99.5396 -1.60163 2.54496 0
M  V30 965 C 101.088 -1.7224 2.61347 0
M  V30 966 C 101.563 -2.31814 3.95002 0
M  V30 967 N 103.054 -2.39223 3.96644 0
M  V30 968 C 103.789 -2.86258 4.96834 0
M  V30 969 N 103.285 -3.33184 6.07421 0
M  V30 970 N 105.078 -2.85473 4.84213 0
M  V30 971 H 97.2286 -0.0885624 2.12215 0
M  V30 972 H 99.4916 -0.10191 0.942506 0
M  V30 973 H 99.1976 -0.960811 3.38321 0
M  V30 974 H 99.0716 -2.5896 2.74262 0
M  V30 975 H 101.459 -2.35443 1.77906 0
M  V30 976 H 101.54 -0.720939 2.4543 0
M  V30 977 H 101.184 -1.69238 4.78875 0
M  V30 978 H 101.114 -3.32638 4.08239 0
M  V30 979 H 103.605 -2.06057 3.16779 0
M  V30 980 H 103.918 -3.67586 6.7978 0
M  V30 981 H 102.263 -3.31191 6.11013 0
M  V30 982 H 105.454 -2.48136 3.96921 0
M  V30 983 H 105.627 -3.21814 5.62441 0
M  V30 984 N 99.0327 -1.24633 -0.964593 0
M  V30 985 C 100.279 -1.09957 -1.71117 0
M  V30 986 C 100.634 0.357422 -1.89051 0
M  V30 987 O 99.9267 1.26029 -1.44317 0
M  V30 988 C 100.121 -1.7763 -3.10133 0
M  V30 989 C 99.9497 -3.29759 -3.05759 0
M  V30 990 C 98.7197 -3.98981 -3.10068 0
M  V30 991 C 100.918 -4.26305 -2.87695 0
M  V30 992 N 98.8997 -5.37966 -2.95747 0
M  V30 993 C 100.271 -5.52308 -2.81702 0
M  V30 994 C 102.326 -4.16842 -2.72299 0
M  V30 995 C 101.029 -6.69931 -2.61887 0
M  V30 996 C 103.055 -5.34147 -2.53853 0
M  V30 997 C 102.417 -6.59084 -2.48572 0
M  V30 998 H 98.5157 -0.457003 -0.634564 0
M  V30 999 H 101.1 -1.57592 -1.14337 0
M  V30 1000 H 99.2707 -1.32504 -3.65099 0
M  V30 1001 H 101.003 -1.55786 -3.73514 0
M  V30 1002 H 97.7577 -3.50169 -3.18871 0
M  V30 1003 H 98.1817 -6.10877 -2.91818 0
M  V30 1004 H 102.824 -3.21007 -2.75163 0
M  V30 1005 H 100.542 -7.65886 -2.57767 0
M  V30 1006 H 104.128 -5.28678 -2.4288 0
M  V30 1007 H 103.008 -7.48324 -2.34481 0
M  V30 1008 N 100.511 1.16574 -1.06058 0
M  V30 1009 C 101.927 1.3904 -0.783585 0
M  V30 1010 C 102.127 1.91784 0.618145 0
M  V30 1011 O 101.183 2.11511 1.37911 0
M  V30 1012 C 102.496 2.37329 -1.84649 0
M  V30 1013 C 104.044 2.51018 -1.86973 0
M  V30 1014 C 104.519 3.52588 -2.92311 0
M  V30 1015 N 106.01 3.60113 -2.91329 0
M  V30 1016 C 106.745 4.38486 -3.69482 0
M  V30 1017 N 106.241 5.20302 -4.57447 0
M  V30 1018 N 108.034 4.33446 -3.57885 0
M  V30 1019 H 100.185 0.806725 -1.96483 0
M  V30 1020 H 102.448 0.417117 -0.851303 0
M  V30 1021 H 102.154 2.05663 -2.85299 0
M  V30 1022 H 102.028 3.36946 -1.6955 0
M  V30 1023 H 104.415 2.81989 -0.869827 0
M  V30 1024 H 104.496 1.51445 -2.0615 0
M  V30 1025 H 104.14 3.22354 -3.92492 0
M  V30 1026 H 104.07 4.51886 -2.70383 0
M  V30 1027 H 106.561 3.01707 -2.27555 0
M  V30 1028 H 106.874 5.77311 -5.13743 0
M  V30 1029 H 105.219 5.19653 -4.61503 0
M  V30 1030 H 108.41 3.68586 -2.88551 0
M  V30 1031 H 108.583 4.94279 -4.19037 0
M  V30 1032 N 101.989 0.842826 1.3317 0
M  V30 1033 C 103.237 0.439577 1.97262 0
M  V30 1034 C 103.558 -1.00548 1.67078 0
M  V30 1035 O 102.828 -1.70098 0.971779 0
M  V30 1036 H 101.408 0.159558 0.72976 0
M  V30 1037 H 104.07 1.07665 1.62463 0
M  V30 1038 H 103.166 0.574886 3.0676 0
M  V30 1039 N 103.467 -1.45747 0.599634 0
M  V30 1040 C 104.377 -2.34262 -0.125888 0
M  V30 1041 C 105.393 -1.50768 -0.868625 0
M  V30 1042 O 106.569 -1.83592 -0.828003 0
M  V30 1043 C 103.634 -3.28252 -1.11587 0
M  V30 1044 C 102.695 -4.27651 -0.375956 0
M  V30 1045 C 101.928 -5.1715 -1.31877 0
M  V30 1046 O 102.151 -5.09916 -2.55621 0
M  V30 1047 O 101.085 -5.96286 -0.820157 0
M  V30 1048 H 104.911 -2.97688 0.601315 0
M  V30 1049 H 102.496 -1.44999 0.359934 0
M  V30 1050 H 104.378 -3.86191 -1.68626 0
M  V30 1051 H 103.053 -2.67401 -1.82424 0
M  V30 1052 H 101.96 -3.7335 0.236698 0
M  V30 1053 H 103.293 -4.91334 0.29177 0
M  V30 1054 N 104.945 -0.338344 -1.53925 0
M  V30 1055 C 106.361 0.0137736 -1.59594 0
M  V30 1056 C 106.561 1.49186 -1.35447 0
M  V30 1057 O 105.617 2.24987 -1.14616 0
M  V30 1058 C 106.93 -0.41773 -2.97784 0
M  V30 1059 C 108.478 -0.369633 -3.1081 0
M  V30 1060 C 108.953 -0.776524 -4.51369 0
M  V30 1061 N 110.444 -0.730506 -4.57403 0
M  V30 1062 C 111.179 -1.01736 -5.64303 0
M  V30 1063 N 110.675 -1.3721 -6.79077 0
M  V30 1064 N 112.468 -0.941942 -5.54151 0
M  V30 1065 H 104.619 -1.3012 -1.67876 0
M  V30 1066 H 106.882 -0.530082 -0.78595 0
M  V30 1067 H 106.588 -1.44811 -3.20504 0
M  V30 1068 H 106.462 0.209729 -3.76616 0
M  V30 1069 H 108.849 0.651568 -2.87817 0
M  V30 1070 H 108.93 -1.03223 -2.34049 0
M  V30 1071 H 108.574 -1.79571 -4.75096 0
M  V30 1072 H 108.504 -0.0914649 -5.26521 0
M  V30 1073 H 110.995 -0.468783 -3.74981 0
M  V30 1074 H 111.308 -1.57597 -7.5656 0
M  V30 1075 H 109.653 -1.4105 -6.80536 0
M  V30 1076 H 112.844 -0.664184 -4.63364 0
M  V30 1077 H 113.017 -1.16884 -6.37371 0
M  V30 1078 N 106.423 1.57458 -0.0668435 0
M  V30 1079 C 107.648 1.9804 0.616027 0
M  V30 1080 C 108.073 0.944771 1.62652 0
M  V30 1081 O 107.431 -0.0902094 1.81075 0
M  V30 1082 C 107.479 3.37665 1.26549 0
M  V30 1083 O 106.583 3.36701 2.38131 0
M  V30 1084 H 105.924 0.644719 0.158849 0
M  V30 1085 H 108.454 2.04121 -0.139891 0
M  V30 1086 H 108.464 3.7474 1.6135 0
M  V30 1087 H 107.139 4.12573 0.525016 0
M  V30 1088 H 105.716 3.1139 2.0516 0
M  V30 1089 N 107.901 -0.206675 1.56239 0
M  V30 1090 C 108.811 -1.27686 1.96808 0
M  V30 1091 C 109.827 -1.50455 0.874035 0
M  V30 1092 O 111.003 -1.63295 1.17884 0
M  V30 1093 C 108.068 -2.60358 2.28942 0
M  V30 1094 C 107.129 -2.45762 3.51994 0
M  V30 1095 C 106.362 -3.72108 3.82585 0
M  V30 1096 O 106.585 -4.75776 3.14631 0
M  V30 1097 O 105.519 -3.6833 4.76043 0
M  V30 1098 H 109.345 -0.962593 2.88041 0
M  V30 1099 H 106.93 -0.410746 1.43643 0
M  V30 1100 H 108.812 -3.38687 2.50737 0
M  V30 1101 H 107.487 -2.91435 1.4088 0
M  V30 1102 H 106.394 -1.65584 3.35459 0
M  V30 1103 H 107.727 -2.19621 4.40486 0
M  V30 1104 N 109.379 -1.50304 -0.473955 0
M  V30 1105 C 110.625 -1.61389 -1.22806 0
M  V30 1106 C 110.958 -0.311955 -1.91678 0
M  V30 1107 O 110.233 0.686384 -1.81986 0
M  V30 1108 C 110.516 -2.79219 -2.27396 0
M  V30 1109 C 110.369 -4.19286 -1.62848 0
M  V30 1110 C 111.688 -2.92614 -3.28732 0
M  V30 1111 H 108.807 -0.587399 -0.445119 0
M  V30 1112 H 111.449 -1.82681 -0.522265 0
M  V30 1113 H 109.599 -2.61195 -2.87592 0
M  V30 1114 H 111.271 -4.48892 -1.06271 0
M  V30 1115 H 109.514 -4.23677 -0.931693 0
M  V30 1116 H 110.185 -4.97655 -2.38838 0
M  V30 1117 H 112.661 -3.09105 -2.78556 0
M  V30 1118 H 111.537 -3.76688 -3.99246 0
M  V30 1119 H 111.798 -2.03107 -3.92683 0
M  V30 1120 N 110.857 0.726932 -1.39834 0
M  V30 1121 C 112.104 1.48664 -1.37496 0
M  V30 1122 C 112.432 1.94482 0.0264678 0
M  V30 1123 O 111.687 1.67692 1.00886 0
M  V30 1124 C 111.986 2.73495 -2.30077 0
M  V30 1125 C 111.652 2.46502 -3.77555 0
M  V30 1126 C 110.314 2.3885 -4.17737 0
M  V30 1127 C 112.666 2.23604 -4.70798 0
M  V30 1128 C 109.994 2.06352 -5.49214 0
M  V30 1129 C 112.346 1.92622 -6.02561 0
M  V30 1130 C 111.01 1.83444 -6.41798 0
M  V30 1131 H 110.28 0.544001 -0.503135 0
M  V30 1132 H 112.927 0.833657 -1.72402 0
M  V30 1133 H 111.232 3.43575 -1.88317 0
M  V30 1134 H 112.929 3.31549 -2.25558 0
M  V30 1135 H 109.519 2.5334 -3.45712 0
M  V30 1136 H 113.703 2.28479 -4.40581 0
M  V30 1137 H 108.959 1.97776 -5.78528 0
M  V30 1138 H 113.133 1.73914 -6.74334 0
M  V30 1139 H 110.76 1.58029 -7.43593 0
M  V30 1140 N 112.336 1.25143 0.95797 0
M  V30 1141 C 113.266 1.07711 2.07173 0
M  V30 1142 C 114.247 -0.0128462 1.70095 0
M  V30 1143 O 115.432 0.156061 1.93572 0
M  V30 1144 C 112.562 0.691503 3.40346 0
M  V30 1145 C 111.516 1.73132 3.9142 0
M  V30 1146 C 110.842 1.20049 5.21049 0
M  V30 1147 C 112.142 3.1294 4.1817 0
M  V30 1148 H 113.836 2.00873 2.22014 0
M  V30 1149 H 111.382 0.967191 1.06684 0
M  V30 1150 H 113.335 0.556505 4.17709 0
M  V30 1151 H 112.059 -0.275819 3.25433 0
M  V30 1152 H 110.718 1.8547 3.16222 0
M  V30 1153 H 110.366 0.223499 5.02503 0
M  V30 1154 H 110.066 1.89545 5.56189 0
M  V30 1155 H 111.59 1.07782 6.01012 0
M  V30 1156 H 113.004 3.03775 4.86203 0
M  V30 1157 H 111.401 3.79875 4.64559 0
M  V30 1158 H 112.471 3.6025 3.24573 0
M  V30 1159 N 113.814 -1.1601 1.06675 0
M  V30 1160 C 115.23 -1.38622 0.790948 0
M  V30 1161 C 115.43 -1.92109 -0.607965 0
M  V30 1162 O 114.486 -2.12239 -1.36787 0
M  V30 1163 C 115.799 -2.36347 1.85905 0
M  V30 1164 C 117.347 -2.50023 1.88301 0
M  V30 1165 C 117.822 -3.51033 2.94176 0
M  V30 1166 N 119.313 -3.58563 2.93235 0
M  V30 1167 C 120.048 -4.36521 3.71803 0
M  V30 1168 N 119.544 -5.17869 4.602 0
M  V30 1169 N 121.337 -4.31541 3.60178 0
M  V30 1170 H 113.488 -0.796294 1.96908 0
M  V30 1171 H 115.751 -0.412597 0.853503 0
M  V30 1172 H 115.457 -2.04147 2.86386 0
M  V30 1173 H 115.331 -3.36042 1.71334 0
M  V30 1174 H 117.718 -2.81524 0.884769 0
M  V30 1175 H 117.799 -1.5035 2.06951 0
M  V30 1176 H 117.443 -3.20268 3.94196 0
M  V30 1177 H 117.373 -4.50445 2.72776 0
M  V30 1178 H 119.864 -3.00496 2.29152 0
M  V30 1179 H 120.177 -5.74578 5.16797 0
M  V30 1180 H 118.522 -5.17199 4.64253 0
M  V30 1181 H 121.713 -3.67051 2.90502 0
M  V30 1182 H 121.886 -4.9205 4.21653 0
M  V30 1183 N 115.292 -0.849877 -1.32721 0
M  V30 1184 C 116.202 -0.293791 -2.32753 0
M  V30 1185 C 117.218 0.585906 -1.63839 0
M  V30 1186 O 118.394 0.487413 -1.95413 0
M  V30 1187 C 115.459 0.512752 -3.42887 0
M  V30 1188 C 114.52 -0.39252 -4.27502 0
M  V30 1189 C 113.753 0.375625 -5.32377 0
M  V30 1190 O 113.976 1.60613 -5.4732 0
M  V30 1191 O 112.91 -0.256094 -6.01355 0
M  V30 1192 H 116.736 -1.12242 -2.82197 0
M  V30 1193 H 114.321 -0.612685 -1.36259 0
M  V30 1194 H 116.203 0.970704 -4.10067 0
M  V30 1195 H 114.878 1.31826 -2.95641 0
M  V30 1196 H 113.785 -0.898547 -3.63149 0
M  V30 1197 H 115.118 -1.16309 -4.7826 0
M  V30 1198 N 116.77 1.45427 -0.607355 0
M  V30 1199 C 117.733 2.28974 0.101693 0
M  V30 1200 C 118.733 1.39754 0.795329 0
M  V30 1201 O 119.923 1.61878 0.643527 0
M  V30 1202 C 117.055 3.20768 1.15414 0
M  V30 1203 H 118.248 2.93147 -0.632844 0
M  V30 1204 H 115.801 1.51945 -0.366391 0
M  V30 1205 H 116.536 2.61395 1.91945 0
M  V30 1206 H 116.321 3.86489 0.66098 0
M  V30 1207 H 117.811 3.83589 1.65073 0
M  V30 1208 N 118.248 0.346503 1.53744 0
M  V30 1209 C 119.178 -0.501193 2.28058 0
M  V30 1210 C 120.159 -1.10014 1.29734 0
M  V30 1211 O 121.344 -1.12097 1.58581 0
M  V30 1212 C 118.474 -1.65078 3.05559 0
M  V30 1213 C 117.428 -1.18003 4.11411 0
M  V30 1214 C 116.754 -2.41837 4.76884 0
M  V30 1215 C 118.054 -0.278394 5.21558 0
M  V30 1216 H 119.748 0.11875 2.99164 0
M  V30 1217 H 117.294 0.0585531 1.43881 0
M  V30 1218 H 119.247 -2.25028 3.56287 0
M  V30 1219 H 117.971 -2.29767 2.32109 0
M  V30 1220 H 116.63 -0.603331 3.61601 0
M  V30 1221 H 116.278 -3.0494 4.00026 0
M  V30 1222 H 115.978 -2.1102 5.48402 0
M  V30 1223 H 117.502 -3.02508 5.30397 0
M  V30 1224 H 118.916 -0.784823 5.67903 0
M  V30 1225 H 117.313 -0.0619707 6.00068 0
M  V30 1226 H 118.383 0.684677 4.80042 0
M  V30 1227 N 119.726 -1.57421 0.075193 0
M  V30 1228 C 121.142 -1.57099 -0.281444 0
M  V30 1229 C 121.342 -1.08486 -1.69803 0
M  V30 1230 O 120.398 -0.752279 -2.41033 0
M  V30 1231 C 121.711 -3.00571 -0.0880041 0
M  V30 1232 C 123.259 -3.12605 -0.157281 0
M  V30 1233 C 123.734 -4.57999 0.0079207 0
M  V30 1234 N 125.225 -4.63176 -0.0475725 0
M  V30 1235 C 125.96 -5.73373 0.0557876 0
M  V30 1236 N 125.456 -6.92473 0.21286 0
M  V30 1237 N 127.249 -5.621 -0.00152098 0
M  V30 1238 H 119.4 -1.87335 1.00098 0
M  V30 1239 H 121.663 -0.86377 0.390646 0
M  V30 1240 H 121.369 -3.40262 0.889629 0
M  V30 1241 H 121.243 -3.67754 -0.838875 0
M  V30 1242 H 123.63 -2.72798 -1.1254 0
M  V30 1243 H 123.711 -2.48053 0.62475 0
M  V30 1244 H 123.355 -4.98496 0.972824 0
M  V30 1245 H 123.285 -5.20586 -0.793556 0
M  V30 1246 H 125.776 -3.7753 -0.167244 0
M  V30 1247 H 126.089 -7.72279 0.283781 0
M  V30 1248 H 124.434 -6.94556 0.248267 0
M  V30 1249 H 127.625 -4.67938 -0.122958 0
M  V30 1250 H 127.798 -6.47948 0.0824844 0
M  V30 1251 N 121.204 0.198386 -1.56346 0
M  V30 1252 C 122.134 1.24865 -1.9731 0
M  V30 1253 C 123.115 1.47651 -0.844576 0
M  V30 1254 O 124.3 1.59444 -1.10866 0
M  V30 1255 C 121.43 2.59358 -2.30977 0
M  V30 1256 C 120.384 2.5119 -3.46537 0
M  V30 1257 C 119.71 3.89926 -3.65871 0
M  V30 1258 C 121.01 2.03977 -4.80823 0
M  V30 1259 H 122.704 0.908252 -2.85291 0
M  V30 1260 H 120.25 0.435462 -1.37258 0
M  V30 1261 H 122.203 3.33011 -2.58228 0
M  V30 1262 H 120.927 2.95132 -1.39874 0
M  V30 1263 H 119.586 1.79993 -3.19371 0
M  V30 1264 H 119.234 4.23046 -2.72105 0
M  V30 1265 H 118.934 3.85336 -4.4361 0
M  V30 1266 H 120.458 4.65205 -3.95495 0
M  V30 1267 H 121.872 2.67386 -5.07127 0
M  V30 1268 H 120.269 2.10397 -5.62008 0
M  V30 1269 H 121.339 0.992861 -4.74626 0
M  V30 1270 N 122.682 1.50554 0.465978 0
M  V30 1271 C 123.928 1.62038 1.21949 0
M  V30 1272 C 124.261 0.322116 1.9151 0
M  V30 1273 O 123.536 -0.676723 1.82348 0
M  V30 1274 C 123.819 2.80421 2.25912 0
M  V30 1275 C 123.672 4.20144 1.60622 0
M  V30 1276 C 124.991 2.94354 3.27176 0
M  V30 1277 H 122.11 0.589752 0.441998 0
M  V30 1278 H 124.752 1.82956 0.51257 0
M  V30 1279 H 122.902 2.62717 2.86203 0
M  V30 1280 H 124.574 4.49449 1.03889 0
M  V30 1281 H 122.817 4.24165 0.909211 0
M  V30 1282 H 123.488 4.98914 2.36196 0
M  V30 1283 H 125.964 3.10578 2.76913 0
M  V30 1284 H 124.84 3.788 3.97242 0
M  V30 1285 H 125.101 2.05186 3.916 0
M  V30 1286 N 124.16 -0.719506 1.40217 0
M  V30 1287 C 125.07 -1.86378 1.42479 0
M  V30 1288 C 126.086 -1.71073 0.317834 0
M  V30 1289 O 127.262 -1.93406 0.561794 0
M  V30 1290 C 124.327 -3.22136 1.28178 0
M  V30 1291 C 123.388 -3.49723 2.48982 0
M  V30 1292 C 122.621 -4.79004 2.35353 0
M  V30 1293 O 122.844 -5.53821 1.36524 0
M  V30 1294 O 121.778 -5.06839 3.2465 0
M  V30 1295 H 125.604 -1.87425 2.38968 0
M  V30 1296 H 123.189 -0.869405 1.21498 0
M  V30 1297 H 125.071 -4.03234 1.22395 0
M  V30 1298 H 123.746 -3.21825 0.347934 0
M  V30 1299 H 122.653 -2.6865 2.60342 0
M  V30 1300 H 123.986 -3.54828 3.41113 0
M  V30 1301 N 125.638 -1.25649 -0.95132 0
M  V30 1302 C 126.601 -1.06399 -2.03007 0
M  V30 1303 C 127.601 -0.0156794 -1.60792 0
M  V30 1304 O 128.791 -0.25817 -1.72276 0
M  V30 1305 C 125.923 -0.616184 -3.35285 0
M  V30 1306 H 127.116 -2.02164 -2.21517 0
M  V30 1307 H 124.669 -1.08103 -1.12887 0
M  V30 1308 H 125.404 0.343917 -3.22471 0
M  V30 1309 H 125.189 -1.37301 -3.67275 0
M  V30 1310 H 126.679 -0.503032 -4.14559 0
M  V30 1311 N 127.117 1.15442 -1.07289 0
M  V30 1312 C 128.533 1.38201 -0.798288 0
M  V30 1313 C 128.733 1.92429 0.597769 0
M  V30 1314 O 127.789 2.12962 1.3566 0
M  V30 1315 C 129.102 2.35357 -1.87156 0
M  V30 1316 C 130.65 2.49021 -1.89624 0
M  V30 1317 C 131.125 3.49468 -2.96034 0
M  V30 1318 N 132.616 3.57003 -2.95132 0
M  V30 1319 C 133.351 4.34543 -3.74112 0
M  V30 1320 N 132.847 5.15421 -4.6294 0
M  V30 1321 N 134.64 4.29625 -3.62462 0
M  V30 1322 H 126.791 0.78584 -1.97328 0
M  V30 1323 H 129.054 0.408065 -0.855679 0
M  V30 1324 H 128.76 2.02626 -2.87464 0
M  V30 1325 H 128.634 3.35129 -1.73114 0
M  V30 1326 H 131.021 2.81051 -0.899687 0
M  V30 1327 H 131.102 1.4925 -2.07745 0
M  V30 1328 H 130.746 3.18173 -3.95889 0
M  V30 1329 H 130.676 4.48992 -2.75161 0
M  V30 1330 H 133.167 2.99276 -2.30743 0
M  V30 1331 H 133.48 5.7183 -5.19837 0
M  V30 1332 H 131.825 5.14729 -4.66989 0
M  V30 1333 H 135.016 3.65505 -2.92444 0
M  V30 1334 H 135.189 4.89807 -4.24256 0
M  V30 1335 N 128.595 0.856903 1.32268 0
M  V30 1336 C 129.843 0.460474 1.96784 0
M  V30 1337 C 130.164 -0.987701 1.68135 0
M  V30 1338 O 129.434 -1.69058 0.989765 0
M  V30 1339 H 128.014 0.167289 0.728027 0
M  V30 1340 H 130.676 1.09383 1.61312 0
M  V30 1341 H 129.772 0.60739 3.06133 0
M  V30 1342 N 130.073 -1.45103 0.615059 0
M  V30 1343 C 131.036 -2.29025 -0.0895485 0
M  V30 1344 C 132.036 -1.40174 -0.787906 0
M  V30 1345 O 133.226 -1.62217 -0.634933 0
M  V30 1346 C 130.358 -3.21376 -1.13711 0
M  V30 1347 H 131.551 -2.92807 0.648382 0
M  V30 1348 H 129.104 -1.51749 0.374444 0
M  V30 1349 H 129.839 -2.6241 -1.90556 0
M  V30 1350 H 129.624 -3.86834 -0.640475 0
M  V30 1351 H 131.114 -3.84459 -1.63036 0
M  V30 1352 N 131.551 -0.354651 -1.53558 0
M  V30 1353 C 132.498 0.496968 -2.25386 0
M  V30 1354 C 133.468 1.0865 -1.25636 0
M  V30 1355 O 134.653 1.12104 -1.54394 0
M  V30 1356 C 131.793 1.63637 -3.03837 0
M  V30 1357 C 130.906 1.07307 -4.18461 0
M  V30 1358 C 130.041 2.18068 -4.84376 0
M  V30 1359 C 129.08 1.59147 -5.91049 0
M  V30 1360 N 128.217 2.63695 -6.50699 0
M  V30 1361 H 133.057 -0.122075 -2.9775 0
M  V30 1362 H 130.594 -0.0720154 -1.46924 0
M  V30 1363 H 132.552 2.30734 -3.47589 0
M  V30 1364 H 131.182 2.22623 -2.33749 0
M  V30 1365 H 130.234 0.292708 -3.79272 0
M  V30 1366 H 131.546 0.602193 -4.95152 0
M  V30 1367 H 130.7 2.93007 -5.31255 0
M  V30 1368 H 129.439 2.68504 -4.07133 0
M  V30 1369 H 128.444 0.827175 -5.43542 0
M  V30 1370 H 129.669 1.09549 -6.70206 0
M  V30 1371 H 127.615 3.13365 -5.76315 0
M  V30 1372 H 127.532 2.21263 -7.22896 0
M  V30 1373 H 128.8 3.3837 -7.02229 0
M  V30 1374 N 133.029 1.57378 -0.0835403 0
M  V30 1375 C 133.959 2.1641 0.87686 0
M  V30 1376 C 134.94 1.09429 1.30228 0
M  V30 1377 O 136.125 1.37516 1.37124 0
M  V30 1378 C 133.255 2.73517 2.14022 0
M  V30 1379 C 132.209 3.85769 1.85381 0
M  V30 1380 C 131.535 4.29529 3.18448 0
M  V30 1381 C 132.835 5.09486 1.14984 0
M  V30 1382 H 134.529 2.96914 0.385059 0
M  V30 1383 H 132.075 1.42823 0.18377 0
M  V30 1384 H 134.028 3.13463 2.81636 0
M  V30 1385 H 132.752 1.90252 2.65465 0
M  V30 1386 H 131.411 3.46345 1.20169 0
M  V30 1387 H 131.059 3.43169 3.67755 0
M  V30 1388 H 130.759 5.05204 3.00071 0
M  V30 1389 H 132.283 4.72099 3.8724 0
M  V30 1390 H 133.697 5.46674 1.72687 0
M  V30 1391 H 132.094 5.90515 1.06826 0
M  V30 1392 H 133.164 4.84724 0.130749 0
M  V30 1393 N 134.507 -0.190092 1.56449 0
M  V30 1394 C 135.437 -1.23816 1.97969 0
M  V30 1395 C 136.418 -1.47201 0.852395 0
M  V30 1396 O 137.603 -1.58854 1.1171 0
M  V30 1397 C 134.733 -2.5813 2.3235 0
M  V30 1398 C 133.687 -2.49348 3.47864 0
M  V30 1399 C 133.013 -3.8798 3.67934 0
M  V30 1400 C 134.313 -2.01424 4.81898 0
M  V30 1401 H 136.007 -0.89311 2.85769 0
M  V30 1402 H 133.553 -0.428177 1.37487 0
M  V30 1403 H 135.506 -3.31637 2.59991 0
M  V30 1404 H 134.23 -2.94386 1.41438 0
M  V30 1405 H 132.889 -1.78297 3.20321 0
M  V30 1406 H 132.537 -4.21597 2.74344 0
M  V30 1407 H 132.237 -3.82978 4.45648 0
M  V30 1408 H 133.761 -4.63101 3.97957 0
M  V30 1409 H 135.175 -2.64693 5.08538 0
M  V30 1410 H 133.572 -2.07413 5.63116 0
M  V30 1411 H 134.642 -0.967677 4.75146 0
M  V30 1412 N 135.985 -1.50799 -0.457987 0
M  V30 1413 C 136.917 -1.66786 -1.57211 0
M  V30 1414 C 137.93 -0.548962 -1.53265 0
M  V30 1415 O 139.119 -0.8226 -1.58416 0
M  V30 1416 C 136.219 -1.64834 -2.96113 0
M  V30 1417 C 135.392 -2.92971 -3.24787 0
M  V30 1418 C 134.451 -2.83485 -4.43309 0
M  V30 1419 O 133.477 -3.5744 -4.42973 0
M  V30 1420 N 134.679 -1.97929 -5.45714 0
M  V30 1421 H 137.444 -2.62889 -1.43909 0
M  V30 1422 H 135.005 -1.48427 -0.646617 0
M  V30 1423 H 136.997 -1.56084 -3.7339 0
M  V30 1424 H 135.567 -0.764118 -3.03117 0
M  V30 1425 H 134.787 -3.15749 -2.36 0
M  V30 1426 H 136.075 -3.77834 -3.40762 0
M  V30 1427 H 135.473 -1.37182 -5.48815 0
M  V30 1428 H 134.03 -1.95073 -6.21924 0
M  V30 1429 N 137.463 0.71206 -1.40597 0
M  V30 1430 C 138.426 1.80785 -1.40888 0
M  V30 1431 C 139.426 1.57937 -0.302103 0
M  V30 1432 O 140.616 1.64913 -0.561182 0
M  V30 1433 C 137.748 3.18927 -1.20409 0
M  V30 1434 H 138.941 1.81924 -2.38419 0
M  V30 1435 H 136.494 0.91805 -1.26497 0
M  V30 1436 H 137.229 3.23436 -0.236522 0
M  V30 1437 H 137.014 3.36911 -2.00582 0
M  V30 1438 H 138.504 3.98949 -1.23408 0
M  V30 1439 N 138.941 1.26152 0.944643 0
M  V30 1440 C 140.166 1.14363 1.7302 0
M  V30 1441 C 140.591 -0.29772 1.85729 0
M  V30 1442 O 139.949 -1.2157 1.34501 0
M  V30 1443 C 139.997 1.81378 3.11664 0
M  V30 1444 O 139.101 1.10022 3.97453 0
M  V30 1445 H 138.442 0.398694 0.53098 0
M  V30 1446 H 140.972 1.66906 1.18337 0
M  V30 1447 H 140.982 1.88064 3.62072 0
M  V30 1448 H 139.657 2.86237 3.0173 0
M  V30 1449 H 138.234 1.11287 3.55907 0
M  V30 1450 N 140.419 -1.14872 1.07899 0
M  V30 1451 C 141.349 -2.2193 0.725887 0
M  V30 1452 C 142.33 -1.67622 -0.28927 0
M  V30 1453 O 143.515 -1.93533 -0.160787 0
M  V30 1454 C 140.645 -3.47061 0.128856 0
M  V30 1455 C 139.599 -4.14363 1.07178 0
M  V30 1456 C 138.925 -5.33636 0.337229 0
M  V30 1457 C 140.225 -4.63492 2.40775 0
M  V30 1458 H 141.919 -2.51724 1.62097 0
M  V30 1459 H 139.465 -1.20991 0.780838 0
M  V30 1460 H 141.418 -4.21199 -0.130147 0
M  V30 1461 H 140.142 -3.16617 -0.80134 0
M  V30 1462 H 138.801 -3.42173 1.3158 0
M  V30 1463 H 138.449 -4.99449 -0.596606 0
M  V30 1464 H 138.149 -5.79609 0.965788 0
M  V30 1465 H 139.673 -6.10539 0.0861567 0
M  V30 1466 H 141.087 -5.2913 2.20669 0
M  V30 1467 H 139.484 -5.20148 2.99276 0
M  V30 1468 H 140.554 -3.78834 3.02676 0
M  V30 1469 N 141.898 -0.863906 -1.31812 0
M  V30 1470 C 143.144 -0.472535 -1.97218 0
M  V30 1471 C 143.477 0.971394 -1.68159 0
M  V30 1472 O 142.752 1.68309 -0.974798 0
M  V30 1473 C 143.035 -0.723054 -3.52766 0
M  V30 1474 C 142.888 -2.21608 -3.91421 0
M  V30 1475 C 144.207 -0.185522 -4.39709 0
M  V30 1476 H 141.326 -0.173158 -0.71637 0
M  V30 1477 H 143.968 -1.08403 -1.56041 0
M  V30 1478 H 142.118 -0.202577 -3.87971 0
M  V30 1479 H 143.79 -2.80334 -3.66347 0
M  V30 1480 H 142.033 -2.691 -3.40246 0
M  V30 1481 H 142.704 -2.34203 -4.99853 0
M  V30 1482 H 145.18 -0.630726 -4.11292 0
M  V30 1483 H 144.056 -0.390306 -5.47511 0
M  V30 1484 H 144.317 0.912229 -4.32586 0
M  V30 1485 N 143.376 1.44774 -0.622745 0
M  V30 1486 C 144.306 2.33382 0.0741861 0
M  V30 1487 C 145.287 1.47719 0.843387 0
M  V30 1488 O 146.472 1.76458 0.810934 0
M  V30 1489 C 143.602 3.30663 1.06204 0
M  V30 1490 C 142.556 4.26079 0.405037 0
M  V30 1491 C 141.882 5.13165 1.5022 0
M  V30 1492 C 143.182 5.1781 -0.683414 0
M  V30 1493 H 144.876 2.91905 -0.665713 0
M  V30 1494 H 142.422 1.40363 -0.321587 0
M  V30 1495 H 144.375 3.9153 1.55827 0
M  V30 1496 H 143.099 2.70331 1.83272 0
M  V30 1497 H 141.758 3.66532 -0.0704683 0
M  V30 1498 H 141.406 4.49191 2.26355 0
M  V30 1499 H 141.106 5.77812 1.06803 0
M  V30 1500 H 142.63 5.76902 2.00041 0
M  V30 1501 H 144.044 5.72661 -0.270631 0
M  V30 1502 H 142.441 5.91015 -1.04023 0
M  V30 1503 H 143.511 4.59326 -1.55395 0
M  V30 1504 N 144.854 0.36279 1.53368 0
M  V30 1505 C 146.082 -0.228613 2.05633 0
M  V30 1506 C 146.497 -1.42676 1.23649 0
M  V30 1507 O 145.854 -1.80394 0.27647 0
M  V30 1508 C 145.905 -0.624845 3.56059 0
M  V30 1509 O 145.626 0.525675 4.34935 0
M  V30 1510 C 147.127 -1.27493 4.24571 0
M  V30 1511 H 144.347 -0.0407183 0.669763 0
M  V30 1512 H 146.891 0.520352 1.97769 0
M  V30 1513 H 145.046 -1.32373 3.64083 0
M  V30 1514 H 145.46 0.205969 5.24095 0
M  V30 1515 H 146.934 -1.50277 5.31151 0
M  V30 1516 H 147.411 -2.23439 3.78116 0
M  V30 1517 H 148.017 -0.617558 4.20792 0
M  V30 1518 N 146.332 -1.57332 0.0918853 0
M  V30 1519 C 147.262 -2.16872 -0.865371 0
M  V30 1520 C 148.243 -1.10118 -1.29646 0
M  V30 1521 O 149.428 -1.38242 -1.36392 0
M  V30 1522 C 146.558 -2.74649 -2.12569 0
M  V30 1523 C 145.512 -3.86747 -1.83333 0
M  V30 1524 C 144.838 -4.31212 -3.16166 0
M  V30 1525 C 146.138 -5.10089 -1.1228 0
M  V30 1526 H 147.832 -2.97114 -0.369307 0
M  V30 1527 H 145.378 -1.42918 -0.176194 0
M  V30 1528 H 147.331 -3.14952 -2.7997 0
M  V30 1529 H 146.055 -1.91657 -2.64452 0
M  V30 1530 H 144.714 -3.46978 -1.18331 0
M  V30 1531 H 144.362 -3.45115 -3.6593 0
M  V30 1532 H 144.062 -5.06788 -2.97388 0
M  V30 1533 H 145.586 -4.74146 -3.84731 0
M  V30 1534 H 147 -5.47582 -1.69785 0
M  V30 1535 H 145.397 -5.91073 -1.03693 0
M  V30 1536 H 146.467 -4.84786 -0.105041 0
M  V30 1537 N 147.81 0.181792 -1.56548 0
M  V30 1538 C 149.087 0.926765 -1.72251 0
M  V30 1539 C 149.467 2.00831 -0.650386 0
M  V30 1540 O 148.815 2.26008 0.336521 0
M  V30 1541 C 149.025 1.50106 -3.1507 0
M  V30 1542 C 150.373 1.97805 -3.75711 0
M  V30 1543 O 151.397 1.59922 -3.18282 0
M  V30 1544 O 150.256 2.67555 -4.76525 0
M  V30 1545 H 147.35 0.435506 -0.703039 0
M  V30 1546 H 149.896 0.170443 -1.68842 0
M  V30 1547 H 148.668 0.72212 -3.84579 0
M  V30 1548 H 148.291 2.32186 -3.22763 0
M  V30 1549 N 149.288 1.51039 0.449983 0
M  V30 1550 C 150.704 1.38934 0.785462 0
M  V30 1551 C 150.904 0.461817 1.96136 0
M  V30 1552 O 149.96 -0.0877389 2.52348 0
M  V30 1553 C 151.273 2.80724 1.0777 0
M  V30 1554 C 152.821 2.89787 1.1829 0
M  V30 1555 C 153.296 4.32457 1.50815 0
M  V30 1556 N 154.787 4.35505 1.57764 0
M  V30 1557 C 155.522 5.42914 1.84477 0
M  V30 1558 N 155.018 6.60502 2.09068 0
M  V30 1559 N 156.811 5.3038 1.86155 0
M  V30 1560 H 148.962 2.09904 -0.324647 0
M  V30 1561 H 151.225 0.944378 -0.0827957 0
M  V30 1562 H 150.931 3.50531 0.286498 0
M  V30 1563 H 150.805 3.19273 2.00859 0
M  V30 1564 H 153.192 2.20186 1.96474 0
M  V30 1565 H 153.273 2.54752 0.231314 0
M  V30 1566 H 152.917 5.02603 0.731622 0
M  V30 1567 H 152.847 4.64995 2.47158 0
M  V30 1568 H 155.338 3.50724 1.40715 0
M  V30 1569 H 155.651 7.38158 2.28785 0
M  V30 1570 H 153.996 6.63639 2.06416 0
M  V30 1571 H 157.187 4.37505 1.66454 0
M  V30 1572 H 157.36 6.1417 2.06637 0
M  V30 1573 N 150.766 -0.704594 1.40972 0
M  V30 1574 C 152.177 -1.28418 1.3552 0
M  V30 1575 C 152.528 -1.96171 0.0339434 0
M  V30 1576 O 151.653 -1.98231 -0.867944 0
M  V30 1577 C 152.248 -2.33528 2.45459 0
M  V30 1578 C 150.807 -2.87085 2.43433 0
M  V30 1579 C 149.954 -1.61007 2.2577 0
M  V30 1580 H 152.905 -0.499963 1.50619 0
M  V30 1581 H 152.926 -3.14619 2.13998 0
M  V30 1582 H 152.438 -1.84187 3.41609 0
M  V30 1583 H 150.539 -3.40626 1.51013 0
M  V30 1584 H 150.652 -3.3813 3.39419 0
M  V30 1585 H 149.016 -1.86482 1.73483 0
M  V30 1586 H 149.799 -1.13675 3.23933 0
M  V30 1587 N 152.244 -1.26651 -0.937939 0
M  V30 1588 C 153.191 -1.0849 -2.03712 0
M  V30 1589 C 154.161 0.011033 -1.66096 0
M  V30 1590 O 155.346 -0.149353 -1.90215 0
M  V30 1591 C 152.486 -0.72735 -3.37348 0
M  V30 1592 C 151.599 -1.89986 -3.87981 0
M  V30 1593 C 150.734 -1.48513 -5.10017 0
M  V30 1594 C 149.773 -2.62575 -5.5292 0
M  V30 1595 N 148.91 -2.21762 -6.66158 0
M  V30 1596 H 153.75 -2.02551 -2.18579 0
M  V30 1597 H 151.287 -1.00844 -1.07093 0
M  V30 1598 H 153.245 -0.50092 -4.14182 0
M  V30 1599 H 151.875 0.176298 -3.22318 0
M  V30 1600 H 150.927 -2.23913 -3.07518 0
M  V30 1601 H 152.239 -2.75586 -4.15757 0
M  V30 1602 H 151.393 -1.21934 -5.94321 0
M  V30 1603 H 150.132 -0.60009 -4.83994 0
M  V30 1604 H 149.137 -2.8988 -4.67172 0
M  V30 1605 H 150.362 -3.51685 -5.80943 0
M  V30 1606 H 148.308 -1.35696 -6.41812 0
M  V30 1607 H 148.225 -3.00903 -6.93537 0
M  V30 1608 H 149.493 -1.98403 -7.53828 0
M  V30 1609 N 153.722 1.14298 -1.08507 0
M  V30 1610 C 154.652 2.21542 -0.737646 0
M  V30 1611 C 155.633 1.67773 0.280377 0
M  V30 1612 O 156.818 1.93616 0.150521 0
M  V30 1613 C 153.948 3.46988 -0.147259 0
M  V30 1614 C 152.902 4.13789 -1.09374 0
M  V30 1615 C 152.228 5.33449 -0.365524 0
M  V30 1616 C 153.528 4.62208 -2.4323 0
M  V30 1617 H 155.222 2.5086 -1.6343 0
M  V30 1618 H 152.768 1.20576 -0.787243 0
M  V30 1619 H 154.721 4.21262 0.107808 0
M  V30 1620 H 153.445 3.17037 0.784538 0
M  V30 1621 H 152.104 3.4147 -1.33393 0
M  V30 1622 H 151.752 4.99759 0.57011 0
M  V30 1623 H 151.452 5.79088 -0.996512 0
M  V30 1624 H 152.976 6.10485 -0.118534 0
M  V30 1625 H 154.39 5.27952 -2.23472 0
M  V30 1626 H 152.787 5.18553 -3.02031 0
M  V30 1627 H 153.857 3.77224 -3.04681 0
M  V30 1628 N 155.201 0.870884 1.31352 0
M  V30 1629 C 156.449 0.48132 1.96285 0
M  V30 1630 C 156.77 -0.969813 1.69173 0
M  V30 1631 O 156.04 -1.67998 1.00764 0
M  V30 1632 H 154.62 0.175002 0.726212 0
M  V30 1633 H 157.282 1.11087 1.60143 0
M  V30 1634 H 156.378 0.639825 3.05471 0
M  V30 1635 N 156.679 -1.44442 0.630414 0
M  V30 1636 C 158.09 -1.85434 0.217063 0
M  V30 1637 C 158.441 -1.52748 -1.23136 0
M  V30 1638 O 157.566 -0.965205 -1.93682 0
M  V30 1639 C 158.161 -3.36581 0.387168 0
M  V30 1640 C 156.72 -3.76389 0.0283297 0
M  V30 1641 C 155.867 -2.68296 0.700889 0
M  V30 1642 H 158.818 -1.34919 0.83562 0
M  V30 1643 H 158.839 -3.78657 -0.374086 0
M  V30 1644 H 158.351 -3.60339 1.44144 0
M  V30 1645 H 156.452 -3.58246 -1.02423 0
M  V30 1646 H 156.565 -4.77095 0.437892 0
M  V30 1647 H 154.929 -2.54335 0.136267 0
M  V30 1648 H 155.712 -2.94887 1.75774 0
M  V30 1649 N 158.157 -0.370918 -1.53173 0
M  V30 1650 C 159.107 0.489588 -2.22681 0
M  V30 1651 C 160.091 1.04442 -1.22395 0
M  V30 1652 O 161.283 0.973578 -1.47819 0
M  V30 1653 C 158.412 1.626 -3.02351 0
M  V30 1654 C 157.498 1.08379 -4.10018 0
M  V30 1655 N 157.889 0.265004 -5.05105 0
M  V30 1656 C 156.187 1.35809 -4.2482 0
M  V30 1657 C 156.888 -0.0324755 -5.81691 0
M  V30 1658 N 155.864 0.566581 -5.40639 0
M  V30 1659 H 159.666 -0.142729 -2.93553 0
M  V30 1660 H 157.18 -0.179221 -1.61408 0
M  V30 1661 H 159.177 2.2547 -3.50669 0
M  V30 1662 H 157.837 2.26132 -2.33011 0
M  V30 1663 H 158.848 -0.0962352 -5.17811 0
M  V30 1664 H 155.525 1.9958 -3.66707 0
M  V30 1665 H 156.915 -0.69473 -6.68299 0
M  V30 1666 N 159.635 1.57281 -0.100228 0
M  V30 1667 C 161.051 1.57527 0.256416 0
M  V30 1668 C 161.251 1.11173 1.68056 0
M  V30 1669 O 160.307 0.79053 2.39806 0
M  V30 1670 C 161.62 3.00673 0.0401747 0
M  V30 1671 C 163.168 3.12815 0.107528 0
M  V30 1672 C 163.643 4.57929 -0.0807834 0
M  V30 1673 N 165.134 4.63193 -0.0261207 0
M  V30 1674 C 165.869 5.73212 -0.146999 0
M  V30 1675 N 165.365 6.92047 -0.322999 0
M  V30 1676 N 167.158 5.62031 -0.0879044 0
M  V30 1677 H 159.309 1.85718 -1.03065 0
M  V30 1678 H 161.572 0.857446 -0.404339 0
M  V30 1679 H 161.278 3.38804 -0.943649 0
M  V30 1680 H 161.152 3.69042 0.780262 0
M  V30 1681 H 163.539 2.74554 1.08186 0
M  V30 1682 H 163.62 2.47028 -0.664134 0
M  V30 1683 H 163.264 4.96886 -1.05201 0
M  V30 1684 H 163.194 5.21783 0.710635 0
M  V30 1685 H 165.685 3.77748 0.107161 0
M  V30 1686 H 165.998 7.7173 -0.406608 0
M  V30 1687 H 164.343 6.94074 -0.358733 0
M  V30 1688 H 167.534 4.68075 0.048498 0
M  V30 1689 H 167.707 6.47734 -0.185557 0
M  V30 1690 N 161.113 -0.173488 1.56642 0
M  V30 1691 C 162.06 -1.21482 1.96242 0
M  V30 1692 C 163.03 -1.44104 0.826027 0
M  V30 1693 O 164.215 -1.5688 1.08597 0
M  V30 1694 C 161.355 -2.54964 2.32567 0
M  V30 1695 C 160.468 -2.39739 3.59373 0
M  V30 1696 C 159.603 -3.66072 3.84921 0
M  V30 1697 C 158.642 -3.45771 5.05083 0
M  V30 1698 N 157.779 -4.64169 5.26775 0
M  V30 1699 H 162.619 -0.870123 2.85014 0
M  V30 1700 H 160.156 -0.418245 1.41029 0
M  V30 1701 H 162.114 -3.32758 2.5165 0
M  V30 1702 H 160.744 -2.87433 1.46908 0
M  V30 1703 H 159.796 -1.53131 3.48217 0
M  V30 1704 H 161.108 -2.20683 4.47326 0
M  V30 1705 H 160.262 -4.52303 4.0436 0
M  V30 1706 H 159.001 -3.88105 2.9534 0
M  V30 1707 H 158.006 -2.57927 4.85545 0
M  V30 1708 H 159.231 -3.25163 5.96193 0
M  V30 1709 H 157.177 -4.86425 4.40144 0
M  V30 1710 H 157.094 -4.48019 6.08946 0
M  V30 1711 H 158.362 -5.51689 5.5069 0
M  V30 1712 N 162.591 -1.51276 -0.441967 0
M  V30 1713 C 163.554 -1.7167 -1.51862 0
M  V30 1714 C 164.554 -0.586793 -1.49711 0
M  V30 1715 O 165.744 -0.854276 -1.51815 0
M  V30 1716 C 162.876 -1.76889 -2.91416 0
M  V30 1717 H 164.069 -2.67754 -1.35084 0
M  V30 1718 H 161.622 -1.41196 -0.670333 0
M  V30 1719 H 162.357 -0.826026 -3.13604 0
M  V30 1720 H 162.142 -2.59001 -2.94382 0
M  V30 1721 H 163.632 -1.94522 -3.69528 0
M  V30 1722 N 164.069 0.697108 -1.41344 0
M  V30 1723 C 164.999 1.82353 -1.45841 0
M  V30 1724 C 165.98 1.67115 -0.317247 0
M  V30 1725 O 167.165 1.86871 -0.528474 0
M  V30 1726 C 164.295 3.20476 -1.33838 0
M  V30 1727 C 163.249 3.50415 -2.4575 0
M  V30 1728 C 162.575 4.87878 -2.18813 0
M  V30 1729 C 163.875 3.49546 -3.88091 0
M  V30 1730 H 165.569 1.78846 -2.40113 0
M  V30 1731 H 163.115 0.859028 -1.15571 0
M  V30 1732 H 165.068 3.98988 -1.35596 0
M  V30 1733 H 163.792 3.24604 -0.360498 0
M  V30 1734 H 162.451 2.74253 -2.43271 0
M  V30 1735 H 162.099 4.8863 -1.19371 0
M  V30 1736 H 161.799 5.08875 -2.93803 0
M  V30 1737 H 163.323 5.68702 -2.22284 0
M  V30 1738 H 164.737 4.18066 -3.92293 0
M  V30 1739 H 163.134 3.82075 -4.62751 0
M  V30 1740 H 164.204 2.48552 -4.16353 0
M  V30 1741 N 165.547 1.27147 0.931209 0
M  V30 1742 C 166.793 1.13446 1.68101 0
M  V30 1743 C 167.126 -0.319628 1.91552 0
M  V30 1744 O 166.401 -1.23407 1.50336 0
M  V30 1745 C 166.684 1.91482 3.0497 0
M  V30 1746 C 166.537 3.44855 2.88782 0
M  V30 1747 C 167.856 1.71651 4.05246 0
M  V30 1748 H 164.975 0.413498 0.610072 0
M  V30 1749 H 167.617 1.56261 1.08086 0
M  V30 1750 H 165.767 1.55095 3.56199 0
M  V30 1751 H 167.439 3.9105 2.44698 0
M  V30 1752 H 165.682 3.71373 2.24198 0
M  V30 1753 H 166.353 3.94694 3.85902 0
M  V30 1754 H 168.829 2.0337 3.63015 0
M  V30 1755 H 167.705 2.28651 4.99009 0
M  V30 1756 H 167.966 0.663555 4.37092 0
M  V30 1757 N 167.025 -1.13721 1.09112 0
M  V30 1758 C 168.302 -1.81155 0.737706 0
M  V30 1759 C 168.682 -1.96253 -0.777683 0
M  V30 1760 O 168.03 -1.52807 -1.69889 0
M  V30 1761 C 168.24 -3.16392 1.47299 0
M  V30 1762 C 169.588 -3.91787 1.63671 0
M  V30 1763 O 170.612 -3.26005 1.43524 0
M  V30 1764 O 169.471 -5.0977 1.96969 0
M  V30 1765 H 166.565 -0.783518 0.26463 0
M  V30 1766 H 169.111 -1.20676 1.19312 0
M  V30 1767 H 167.883 -3.0061 2.50498 0
M  V30 1768 H 167.506 -3.8457 1.00953 0
M  V30 1769 N 168.503 -0.877838 -1.30888 0
M  V30 1770 C 169.728 -0.506629 -2.01117 0
M  V30 1771 C 170.153 0.895564 -1.65412 0
M  V30 1772 O 169.511 1.5923 -0.866922 0
M  V30 1773 C 169.559 -0.680223 -3.54126 0
M  V30 1774 O 168.663 0.277033 -4.11468 0
M  V30 1775 H 168.004 -0.200518 -0.633 0
M  V30 1776 H 170.534 -1.18342 -1.66902 0
M  V30 1777 H 170.544 -0.5765 -4.03907 0
M  V30 1778 H 169.219 -1.70261 -3.79452 0
M  V30 1779 H 167.796 0.127606 -3.72682 0
M  V30 1780 N 169.982 1.44106 -0.638065 0
M  V30 1781 C 170.912 2.33448 0.0494287 0
M  V30 1782 C 171.893 1.48606 0.827672 0
M  V30 1783 O 173.078 1.77308 0.792173 0
M  V30 1784 C 170.208 3.31771 1.02691 0
M  V30 1785 C 169.162 4.26485 0.359823 0
M  V30 1786 C 168.488 5.14729 1.44769 0
M  V30 1787 C 169.788 5.17056 -0.738296 0
M  V30 1788 H 171.482 2.91183 -0.696636 0
M  V30 1789 H 169.028 1.40014 -0.336456 0
M  V30 1790 H 170.981 3.93161 1.51666 0
M  V30 1791 H 169.705 2.7226 1.80395 0
M  V30 1792 H 168.364 3.66437 -0.10934 0
M  V30 1793 H 168.012 4.51566 2.21578 0
M  V30 1794 H 167.712 5.78913 1.00668 0
M  V30 1795 H 169.236 5.78991 1.93911 0
M  V30 1796 H 170.65 5.72342 -0.331354 0
M  V30 1797 H 169.047 5.89879 -1.10286 0
M  V30 1798 H 170.117 4.57652 -1.60258 0
M  V30 1799 N 171.46 0.379036 1.52974 0
M  V30 1800 C 172.685 -0.209353 2.06341 0
M  V30 1801 C 173.11 -1.40583 1.24972 0
M  V30 1802 O 172.468 -1.79246 0.272155 0
M  V30 1803 C 172.516 -0.567786 3.56102 0
M  V30 1804 O 171.62 -1.66318 3.77375 0
M  V30 1805 H 170.961 -0.0272919 0.663439 0
M  V30 1806 H 173.491 0.543536 1.97248 0
M  V30 1807 H 173.501 -0.835003 3.99364 0
M  V30 1808 H 172.176 0.307013 4.14765 0
M  V30 1809 H 170.753 -1.39048 3.46006 0
M  V30 1810 N 172.938 -1.57226 0.108567 0
M  V30 1811 C 174.354 -1.5766 -0.248058 0
M  V30 1812 C 174.554 -1.12063 -1.67464 0
M  V30 1813 O 173.61 -0.803236 -2.39383 0
M  V30 1814 C 174.923 -3.0069 -0.0242287 0
M  V30 1815 C 176.471 -3.12868 -0.0909372 0
M  V30 1816 C 176.946 -4.57879 0.105067 0
M  V30 1817 N 178.437 -4.63172 0.0506846 0
M  V30 1818 C 179.172 -5.73126 0.177396 0
M  V30 1819 N 178.668 -6.91866 0.359696 0
M  V30 1820 N 180.461 -5.61977 0.117709 0
M  V30 1821 H 172.612 -1.85169 1.04049 0
M  V30 1822 H 174.875 -0.85529 0.40888 0
M  V30 1823 H 174.581 -3.38299 0.961604 0
M  V30 1824 H 174.455 -3.6945 -0.76068 0
M  V30 1825 H 176.842 -2.75124 -1.06729 0
M  V30 1826 H 176.923 -2.46672 0.677225 0
M  V30 1827 H 176.567 -4.96321 1.07834 0
M  V30 1828 H 176.497 -5.22153 -0.682954 0
M  V30 1829 H 178.988 -3.778 -0.0871266 0
M  V30 1830 H 179.301 -7.71503 0.447529 0
M  V30 1831 H 177.646 -6.93874 0.395536 0
M  V30 1832 H 180.837 -4.68094 -0.0236741 0
M  V30 1833 H 181.01 -6.47627 0.219905 0
M  V30 1834 N 174.416 0.165178 -1.56732 0
M  V30 1835 C 175.346 1.20651 -1.99914 0
M  V30 1836 C 176.327 1.45827 -0.875705 0
M  V30 1837 O 177.512 1.57057 -1.14223 0
M  V30 1838 C 174.642 2.54401 -2.36427 0
M  V30 1839 C 173.596 2.43782 -3.51787 0
M  V30 1840 C 172.922 3.82078 -3.7406 0
M  V30 1841 C 174.222 1.93732 -4.85041 0
M  V30 1842 H 175.916 0.847534 -2.87154 0
M  V30 1843 H 173.462 0.40625 -1.38151 0
M  V30 1844 H 175.415 3.27458 -2.65234 0
M  V30 1845 H 174.139 2.92098 -1.46103 0
M  V30 1846 H 172.798 1.73178 -3.23117 0
M  V30 1847 H 172.446 4.17179 -2.81017 0
M  V30 1848 H 172.146 3.7584 -4.51684 0
M  V30 1849 H 173.67 4.56712 -4.05274 0
M  V30 1850 H 175.084 2.56569 -5.12684 0
M  V30 1851 H 173.481 1.98428 -5.66345 0
M  V30 1852 H 174.551 0.891962 -4.76626 0
M  V30 1853 N 175.894 1.51508 0.433938 0
M  V30 1854 C 176.824 1.76016 1.53429 0
M  V30 1855 C 177.805 0.610112 1.58782 0
M  V30 1856 O 178.99 0.853177 1.74455 0
M  V30 1857 C 176.12 1.88831 2.9148 0
M  V30 1858 C 175.074 3.04288 3.00987 0
M  V30 1859 C 174.4 3.0229 4.4105 0
M  V30 1860 C 175.7 4.44193 2.74754 0
M  V30 1861 H 177.394 2.68152 1.33171 0
M  V30 1862 H 174.94 1.29035 0.639214 0
M  V30 1863 H 176.893 2.04559 3.6842 0
M  V30 1864 H 175.617 0.933455 3.12976 0
M  V30 1865 H 174.276 2.8827 2.26486 0
M  V30 1866 H 173.924 2.04576 4.59519 0
M  V30 1867 H 173.624 3.79822 4.4834 0
M  V30 1868 H 175.148 3.20116 5.1996 0
M  V30 1869 H 176.562 4.60544 3.41426 0
M  V30 1870 H 174.959 5.23457 2.9345 0
M  V30 1871 H 176.029 4.53996 1.70339 0
M  V30 1872 N 177.372 -0.689602 1.41712 0
M  V30 1873 C 178.788 -1.00093 1.24312 0
M  V30 1874 C 178.988 -2.01036 0.136729 0
M  V30 1875 O 178.044 -2.47562 -0.496918 0
M  V30 1876 C 179.357 -1.51985 2.59463 0
M  V30 1877 C 180.905 -1.63838 2.66695 0
M  V30 1878 C 181.38 -2.1913 4.02177 0
M  V30 1879 N 182.871 -2.26483 4.04054 0
M  V30 1880 C 183.606 -2.70306 5.0569 0
M  V30 1881 N 183.102 -3.13691 6.17713 0
M  V30 1882 N 184.895 -2.69923 4.9305 0
M  V30 1883 H 177.046 -0.0210029 2.1239 0
M  V30 1884 H 179.309 -0.0718733 0.945272 0
M  V30 1885 H 179.015 -0.85269 3.41207 0
M  V30 1886 H 178.889 -2.50103 2.82362 0
M  V30 1887 H 181.276 -2.29664 1.85306 0
M  V30 1888 H 181.357 -0.642492 2.476 0
M  V30 1889 H 181.001 -1.53918 4.84016 0
M  V30 1890 H 180.931 -3.19482 4.18615 0
M  V30 1891 H 183.422 -1.95874 3.23174 0
M  V30 1892 H 183.735 -3.45773 6.9113 0
M  V30 1893 H 182.08 -3.11585 6.21241 0
M  V30 1894 H 185.271 -2.35382 4.04614 0
M  V30 1895 H 185.444 -3.03758 5.72394 0
M  V30 1896 N 178.85 -1.27639 -0.924453 0
M  V30 1897 C 179.78 -1.13166 -2.04244 0
M  V30 1898 C 180.761 -0.032256 -1.70069 0
M  V30 1899 O 181.946 -0.207328 -1.9309 0
M  V30 1900 C 179.076 -0.781496 -3.38393 0
M  V30 1901 C 178.03 -1.83449 -3.86692 0
M  V30 1902 C 177.356 -1.33822 -5.17683 0
M  V30 1903 C 178.656 -3.23917 -4.09726 0
M  V30 1904 H 180.35 -2.06689 -2.1661 0
M  V30 1905 H 177.896 -0.995136 -1.04082 0
M  V30 1906 H 179.849 -0.667057 -4.16087 0
M  V30 1907 H 178.573 0.189439 -3.2605 0
M  V30 1908 H 177.232 -1.93789 -3.11193 0
M  V30 1909 H 176.88 -0.35665 -5.01734 0
M  V30 1910 H 176.58 -2.04224 -5.50968 0
M  V30 1911 H 178.104 -1.23679 -5.97943 0
M  V30 1912 H 179.518 -3.16559 -4.77978 0
M  V30 1913 H 177.915 -3.92059 -4.54324 0
M  V30 1914 H 178.985 -3.68729 -3.14908 0
M  V30 1915 N 180.328 1.1314 -1.09713 0
M  V30 1916 C 181.739 1.66029 -0.853885 0
M  V30 1917 C 182.09 1.86241 0.617142 0
M  V30 1918 O 181.215 1.5834 1.47503 0
M  V30 1919 C 181.81 3.01599 -1.5435 0
M  V30 1920 C 180.369 3.51467 -1.34714 0
M  V30 1921 C 179.516 2.26648 -1.59769 0
M  V30 1922 H 182.467 0.970226 -1.25588 0
M  V30 1923 H 182.488 3.67709 -0.978267 0
M  V30 1924 H 182 2.86856 -2.6141 0
M  V30 1925 H 180.101 3.71408 -0.297838 0
M  V30 1926 H 180.214 4.314 -2.08401 0
M  V30 1927 H 178.578 2.33385 -1.01998 0
M  V30 1928 H 179.361 2.14467 -2.68065 0
M  V30 1929 N 181.806 0.884767 1.30421 0
M  V30 1930 C 182.738 0.308655 2.27112 0
M  V30 1931 C 183.751 -0.536655 1.53701 0
M  V30 1932 O 184.94 -0.35624 1.74909 0
M  V30 1933 C 182.04 -0.579782 3.33904 0
M  V30 1934 C 181.213 0.236417 4.36761 0
M  V30 1935 C 180.272 -0.582482 5.22966 0
M  V30 1936 O 179.298 -0.00525502 5.692 0
M  V30 1937 N 180.5 -1.89163 5.48815 0
M  V30 1938 H 183.265 1.13964 2.77186 0
M  V30 1939 H 180.826 0.747731 1.43599 0
M  V30 1940 H 182.818 -1.13366 3.88497 0
M  V30 1941 H 181.388 -1.31144 2.83761 0
M  V30 1942 H 180.608 0.97174 3.82035 0
M  V30 1943 H 181.896 0.795924 5.02536 0
M  V30 1944 H 181.294 -2.38352 5.13035 0
M  V30 1945 H 179.851 -2.39296 6.06284 0
M  V30 1946 N 183.284 -1.43765 0.645699 0
M  V30 1947 C 184.561 -1.9541 0.0862963 0
M  V30 1948 C 184.941 -1.58725 -1.39175 0
M  V30 1949 O 184.289 -0.868581 -2.11348 0
M  V30 1950 C 184.499 -3.47488 0.324565 0
M  V30 1951 C 185.847 -4.24001 0.225497 0
M  V30 1952 O 186.871 -3.55274 0.256715 0
M  V30 1953 O 185.73 -5.46313 0.142801 0
M  V30 1954 H 182.824 -0.826882 -0.0139483 0
M  V30 1955 H 185.37 -1.53743 0.718415 0
M  V30 1956 H 184.142 -3.67289 1.3496 0
M  V30 1957 H 183.765 -3.96135 -0.340987 0
M  V30 1958 N 184.763 -0.387143 -1.52771 0
M  V30 1959 C 186.179 -0.037007 -1.59557 0
M  V30 1960 C 186.379 1.44801 -1.40124 0
M  V30 1961 O 185.435 2.21227 -1.21716 0
M  V30 1962 C 186.748 -0.512256 -2.96305 0
M  V30 1963 C 188.296 -0.468328 -3.09476 0
M  V30 1964 C 188.771 -0.919731 -4.4867 0
M  V30 1965 N 190.262 -0.875656 -4.54848 0
M  V30 1966 C 190.997 -1.19637 -5.6078 0
M  V30 1967 N 190.493 -1.58745 -6.74368 0
M  V30 1968 N 192.286 -1.11776 -5.50874 0
M  V30 1969 H 184.437 -1.35395 -1.63652 0
M  V30 1970 H 186.7 -0.554818 -0.768688 0
M  V30 1971 H 186.406 -1.54935 -3.15734 0
M  V30 1972 H 186.28 0.089805 -3.77093 0
M  V30 1973 H 188.667 0.559671 -2.89744 0
M  V30 1974 H 188.748 -1.10616 -2.30646 0
M  V30 1975 H 188.392 -1.94595 -4.69143 0
M  V30 1976 H 188.322 -0.258927 -5.25963 0
M  V30 1977 H 190.813 -0.587843 -3.733 0
M  V30 1978 H 191.126 -1.81586 -7.51163 0
M  V30 1979 H 189.471 -1.6263 -6.75705 0
M  V30 1980 H 192.662 -0.811264 -4.61016 0
M  V30 1981 H 192.835 -1.37103 -6.3333 0
M  V30 1982 N 186.241 1.57166 -0.116904 0
M  V30 1983 C 187.49 1.94298 0.541407 0
M  V30 1984 C 187.803 1.00236 1.67964 0
M  V30 1985 O 189.009 1.26826 2.40057 0
M  V30 1986 C 187.465 3.45306 1.01449 0
M  V30 1987 C 187.073 4.47899 -0.0951738 0
M  V30 1988 C 188.817 3.91361 1.6443 0
M  V30 1989 C 186.724 5.90083 0.394491 0
M  V30 1990 H 185.654 0.725308 0.206019 0
M  V30 1991 H 188.305 1.82446 -0.196419 0
M  V30 1992 H 186.687 3.52385 1.80667 0
M  V30 1993 H 187.861 4.52486 -0.871374 0
M  V30 1994 H 186.176 4.11583 -0.631505 0
M  V30 1995 H 188.773 4.95004 2.02176 0
M  V30 1996 H 189.116 3.3122 2.52189 0
M  V30 1997 H 189.649 3.87073 0.917559 0
M  V30 1998 H 186.388 6.53974 -0.447004 0
M  V30 1999 H 185.908 5.88921 1.13722 0
M  V30 2000 H 187.587 6.41307 0.856399 0
M  V30 2001 N 187.719 -0.156864 1.56817 0
M  V30 2002 C 188.967 -0.869404 1.82444 0
M  V30 2003 C 189.288 -1.82147 0.69623 0
M  V30 2004 O 188.558 -1.93847 -0.28287 0
M  V30 2005 H 187.138 -0.324043 0.673056 0
M  V30 2006 H 189.8 -0.153224 1.94297 0
M  V30 2007 H 188.896 -1.43761 2.77019 0
M  V30 2008 N 189.197 -1.51736 -0.425897 0
M  V30 2009 C 190.127 -1.76827 -1.52494 0
M  V30 2010 C 191.108 -0.618524 -1.58456 0
M  V30 2011 O 192.293 -0.862416 -1.74 0
M  V30 2012 C 189.423 -1.90374 -2.90474 0
M  V30 2013 C 188.377 -3.0588 -2.99369 0
M  V30 2014 C 187.703 -3.04625 -4.3944 0
M  V30 2015 C 189.003 -4.45644 -2.72394 0
M  V30 2016 H 190.697 -2.68855 -1.31748 0
M  V30 2017 H 188.243 -1.29372 -0.632362 0
M  V30 2018 H 190.196 -2.0651 -3.6733 0
M  V30 2019 H 188.92 -0.95004 -3.12477 0
M  V30 2020 H 187.579 -2.89467 -2.24954 0
M  V30 2021 H 187.227 -2.0701 -4.58428 0
M  V30 2022 H 186.927 -3.82195 -4.46319 0
M  V30 2023 H 188.451 -3.22869 -5.18255 0
M  V30 2024 H 189.865 -4.62348 -3.38979 0
M  V30 2025 H 188.262 -5.25006 -2.9067 0
M  V30 2026 H 189.332 -4.54893 -1.67929 0
M  V30 2027 N 190.675 0.682077 -1.42076 0
M  V30 2028 C 191.903 1.47057 -1.4554 0
M  V30 2029 C 192.318 1.8869 -0.0645779 0
M  V30 2030 O 191.675 1.57666 0.919115 0
M  V30 2031 C 191.726 2.72442 -2.37609 0
M  V30 2032 O 191.447 2.32559 -3.71279 0
M  V30 2033 C 192.948 3.66069 -2.50017 0
M  V30 2034 H 190.168 0.452737 -0.495248 0
M  V30 2035 H 192.712 0.838695 -1.8651 0
M  V30 2036 H 190.867 3.31835 -1.9991 0
M  V30 2037 H 191.281 3.13475 -4.20516 0
M  V30 2038 H 192.755 4.50792 -3.18576 0
M  V30 2039 H 193.232 4.11476 -1.53572 0
M  V30 2040 H 193.838 3.12572 -2.88407 0
M  V30 2041 N 192.153 1.28127 0.917671 0
M  V30 2042 C 193.4 1.15052 1.66641 0
M  V30 2043 C 193.728 -0.301677 1.92146 0
M  V30 2044 O 192.983 -1.23622 1.51711 0
M  V30 2045 C 193.282 1.89018 3.03327 0
M  V30 2046 C 192.948 3.38832 2.97496 0
M  V30 2047 C 191.61 3.79693 2.95613 0
M  V30 2048 C 193.962 4.34378 2.88036 0
M  V30 2049 C 191.29 5.14447 2.82066 0
M  V30 2050 C 193.642 5.69201 2.7603 0
M  V30 2051 C 192.306 6.09343 2.72502 0
M  V30 2052 H 191.576 0.421006 0.609783 0
M  V30 2053 H 194.223 1.58855 1.06945 0
M  V30 2054 H 192.528 1.37752 3.66785 0
M  V30 2055 H 194.225 1.76321 3.60156 0
M  V30 2056 H 190.815 3.06342 2.99754 0
M  V30 2057 H 194.999 4.03775 2.88581 0
M  V30 2058 H 190.255 5.44681 2.77728 0
M  V30 2059 H 194.429 6.42901 2.67678 0
M  V30 2060 H 192.056 7.13712 2.61762 0
M  V30 2061 N 193.631 -1.12557 1.10312 0
M  V30 2062 C 194.578 -2.18247 0.750781 0
M  V30 2063 C 195.548 -1.63853 -0.272293 0
M  V30 2064 O 196.733 -1.90195 -0.151862 0
M  V30 2065 C 193.873 -3.44591 0.187379 0
M  V30 2066 C 192.986 -4.13046 1.2656 0
M  V30 2067 C 192.121 -5.27034 0.663978 0
M  V30 2068 C 191.16 -5.87353 1.72287 0
M  V30 2069 N 190.297 -6.92757 1.1416 0
M  V30 2070 H 195.137 -2.47732 1.65628 0
M  V30 2071 H 192.674 -1.21629 0.827337 0
M  V30 2072 H 194.632 -4.16904 -0.157148 0
M  V30 2073 H 193.262 -3.15527 -0.681355 0
M  V30 2074 H 192.314 -3.38924 1.72727 0
M  V30 2075 H 193.626 -4.53947 2.06721 0
M  V30 2076 H 192.78 -6.06104 0.268824 0
M  V30 2077 H 191.519 -4.87407 -0.169082 0
M  V30 2078 H 190.524 -5.06971 2.12746 0
M  V30 2079 H 191.749 -6.29051 2.55875 0
M  V30 2080 H 189.695 -6.5517 0.329984 0
M  V30 2081 H 189.612 -7.3225 1.88007 0
M  V30 2082 H 190.88 -7.75658 0.772956 0
M  V30 2083 N 195.109 -0.891671 -1.2995 0
M  V30 2084 C 196.337 -0.52866 -2.00032 0
M  V30 2085 C 196.752 0.884574 -1.66795 0
M  V30 2086 O 196.109 1.5827 -0.908669 0
M  V30 2087 C 196.16 -0.701814 -3.54622 0
M  V30 2088 O 195.881 -2.05942 -3.86678 0
M  V30 2089 C 197.382 -0.342683 -4.41973 0
M  V30 2090 H 194.602 -0.203659 -0.639347 0
M  V30 2091 H 197.146 -1.19881 -1.65677 0
M  V30 2092 H 195.301 -0.0789468 -3.8732 0
M  V30 2093 H 195.715 -2.08291 -4.81368 0
M  V30 2094 H 197.189 -0.514709 -5.49595 0
M  V30 2095 H 197.666 0.71975 -4.33262 0
M  V30 2096 H 198.272 -0.942154 -4.14733 0
M  V30 2097 N 196.587 1.43421 -0.653314 0
M  V30 2098 C 197.812 2.06678 -0.172846 0
M  V30 2099 C 198.237 1.48648 1.15262 0
M  V30 2100 O 197.595 0.596457 1.71208 0
M  V30 2101 C 197.643 3.60474 -0.0953184 0
M  V30 2102 O 196.747 4.01487 0.942442 0
M  V30 2103 H 196.088 0.657181 -0.0949155 0
M  V30 2104 H 198.618 1.83925 -0.896265 0
M  V30 2105 H 198.628 4.07905 0.0879728 0
M  V30 2106 H 197.303 4.02088 -1.06291 0
M  V30 2107 H 195.88 3.65646 0.731932 0
M  V30 2108 N 198.065 0.39524 1.52563 0
M  V30 2109 C 198.975 -0.444232 2.30356 0
M  V30 2110 C 199.991 -1.06615 1.37511 0
M  V30 2111 O 201.167 -1.07067 1.70583 0
M  V30 2112 C 198.232 -1.55315 3.09964 0
M  V30 2113 C 197.293 -0.955734 4.18526 0
M  V30 2114 C 196.526 -2.01181 4.9433 0
M  V30 2115 O 196.749 -3.22781 4.70285 0
M  V30 2116 O 195.683 -1.62579 5.79527 0
M  V30 2117 H 199.509 0.189667 3.03107 0
M  V30 2118 H 197.094 0.1588 1.48554 0
M  V30 2119 H 198.976 -2.19724 3.59582 0
M  V30 2120 H 197.651 -2.17191 2.4002 0
M  V30 2121 H 196.558 -0.274743 3.7309 0
M  V30 2122 H 197.891 -0.381109 4.90722 0
M  V30 2123 N 199.544 -1.57102 0.125237 0
M  V30 2124 C 200.792 -1.95021 -0.530198 0
M  V30 2125 C 201.113 -1.00982 -1.66816 0
M  V30 2126 O 200.383 -0.0672693 -1.95784 0
M  V30 2127 H 198.963 -0.720046 -0.198853 0
M  V30 2128 H 201.625 -1.93916 0.19564 0
M  V30 2129 H 200.721 -2.98211 -0.920681 0
M  V30 2130 N 201.022 0.148545 -1.56898 0
M  V30 2131 C 201.952 1.18524 -2.01182 0
M  V30 2132 C 202.933 1.4489 -0.891123 0
M  V30 2133 O 204.118 1.55836 -1.15882 0
M  V30 2134 C 201.248 2.51879 -2.39112 0
M  V30 2135 C 200.202 2.40038 -3.54353 0
M  V30 2136 C 199.528 3.78089 -3.78091 0
M  V30 2137 C 200.828 1.88577 -4.87069 0
M  V30 2138 H 202.522 0.817029 -2.88036 0
M  V30 2139 H 200.068 0.391575 -1.38574 0
M  V30 2140 H 202.021 3.24627 -2.68692 0
M  V30 2141 H 200.745 2.90532 -1.49193 0
M  V30 2142 H 199.404 1.69742 -3.24936 0
M  V30 2143 H 199.052 4.14175 -2.85426 0
M  V30 2144 H 198.752 3.71028 -4.55645 0
M  V30 2145 H 200.276 4.52387 -4.10095 0
M  V30 2146 H 201.69 2.51117 -5.15377 0
M  V30 2147 H 200.087 1.9241 -5.68417 0
M  V30 2148 H 201.157 0.84136 -4.77545 0
M  V30 2149 N 202.5 1.5196 0.417844 0
M  V30 2150 C 203.463 1.74065 1.49111 0
M  V30 2151 C 204.463 0.610537 1.48758 0
M  V30 2152 O 205.653 0.87832 1.50437 0
M  V30 2153 C 202.785 1.81502 2.88565 0
M  V30 2154 H 203.978 2.69869 1.30807 0
M  V30 2155 H 201.531 1.42244 0.647785 0
M  V30 2156 H 202.266 0.875813 3.1225 0
M  V30 2157 H 202.051 2.63651 2.90225 0
M  V30 2158 H 203.541 2.00376 3.66387 0
M  V30 2159 N 203.978 -0.674533 1.42435 0
M  V30 2160 C 205.389 -1.25514 1.38214 0
M  V30 2161 C 205.74 -1.96055 0.0755464 0
M  V30 2162 O 204.865 -2.00028 -0.8257 0
M  V30 2163 C 205.46 -2.28269 2.50357 0
M  V30 2164 C 204.019 -2.81856 2.49467 0
M  V30 2165 C 203.166 -1.56182 2.29134 0
M  V30 2166 H 206.117 -0.467902 1.51646 0
M  V30 2167 H 206.138 -3.10009 2.20624 0
M  V30 2168 H 205.65 -1.769 3.45439 0
M  V30 2169 H 203.751 -3.37346 1.58204 0
M  V30 2170 H 203.864 -3.30854 3.46515 0
M  V30 2171 H 202.228 -1.82761 1.774 0
M  V30 2172 H 203.011 -1.06778 3.26272 0
M  V30 2173 N 205.456 -1.28612 -0.910864 0
M  V30 2174 C 206.681 -1.1891 -1.69927 0
M  V30 2175 C 207.106 0.248372 -1.86453 0
M  V30 2176 O 206.464 1.17961 -1.37676 0
M  V30 2177 C 206.512 -1.89578 -3.06745 0
M  V30 2178 O 205.616 -1.20521 -3.94396 0
M  V30 2179 H 204.957 -0.412632 -0.520222 0
M  V30 2180 H 207.487 -1.69985 -1.1387 0
M  V30 2181 H 207.497 -1.97597 -3.56958 0
M  V30 2182 H 206.172 -2.94136 -2.94035 0
M  V30 2183 H 204.749 -1.20684 -3.52831 0
M  V30 2184 N 206.934 1.1197 -1.10907 0
M  V30 2185 C 207.884 2.15946 -0.731538 0
M  V30 2186 C 208.868 1.58758 0.261699 0
M  V30 2187 O 210.06 1.76863 0.0696722 0
M  V30 2188 C 207.189 3.42877 -0.170299 0
M  V30 2189 C 206.275 4.07037 -1.19087 0
M  V30 2190 N 206.666 4.46135 -2.38322 0
M  V30 2191 C 204.964 4.33884 -1.03252 0
M  V30 2192 C 205.665 4.96331 -3.03366 0
M  V30 2193 N 204.641 4.9214 -2.30865 0
M  V30 2194 H 208.443 2.43947 -1.63912 0
M  V30 2195 H 205.957 1.28927 -0.987505 0
M  V30 2196 H 207.954 4.16732 0.118271 0
M  V30 2197 H 206.614 3.16343 0.731935 0
M  V30 2198 H 207.625 4.38345 -2.75815 0
M  V30 2199 H 204.302 4.17084 -0.186256 0
M  V30 2200 H 205.692 5.36257 -4.04818 0
M  V30 2201 N 208.412 0.89855 1.29475 0
M  V30 2202 C 209.658 0.524658 1.95896 0
M  V30 2203 C 209.991 -0.926468 1.70676 0
M  V30 2204 O 209.266 -1.65665 1.01908 0
M  V30 2205 C 209.549 0.81633 3.50725 0
M  V30 2206 C 209.402 2.31907 3.85408 0
M  V30 2207 C 210.721 0.302038 4.39062 0
M  V30 2208 H 207.84 0.19209 0.711527 0
M  V30 2209 H 210.482 1.12502 1.53112 0
M  V30 2210 H 208.632 0.305369 3.87298 0
M  V30 2211 H 210.304 2.89949 3.58786 0
M  V30 2212 H 208.547 2.78027 3.32992 0
M  V30 2213 H 209.218 2.47373 4.93468 0
M  V30 2214 H 211.694 0.739551 4.09475 0
M  V30 2215 H 210.57 0.535331 5.46283 0
M  V30 2216 H 210.831 -0.797216 4.34853 0
M  V30 2217 N 209.89 -1.43072 0.660911 0
M  V30 2218 C 210.822 -2.29108 -0.0647641 0
M  V30 2219 C 211.835 -1.42928 -0.779448 0
M  V30 2220 O 213.024 -1.66788 -0.635921 0
M  V30 2221 C 210.124 -3.20032 -1.11503 0
M  V30 2222 C 209.297 -4.34792 -0.476955 0
M  V30 2223 C 208.356 -5.06534 -1.42513 0
M  V30 2224 O 207.382 -5.61538 -0.930771 0
M  V30 2225 N 208.584 -5.1075 -2.75889 0
M  V30 2226 H 211.349 -2.92029 0.673731 0
M  V30 2227 H 208.91 -1.53846 0.50427 0
M  V30 2228 H 210.902 -3.64892 -1.75032 0
M  V30 2229 H 209.472 -2.58658 -1.75541 0
M  V30 2230 H 208.692 -3.92752 0.337572 0
M  V30 2231 H 209.98 -5.0879 -0.0318525 0
M  V30 2232 H 209.378 -4.67447 -3.18606 0
M  V30 2233 H 207.935 -5.59302 -3.347 0
M  V30 2234 N 211.368 -0.403325 -1.52352 0
M  V30 2235 C 212.331 0.413051 -2.25447 0
M  V30 2236 C 213.331 0.978513 -1.276 0
M  V30 2237 O 214.521 0.858305 -1.51587 0
M  V30 2238 C 211.653 1.58087 -3.02029 0
M  V30 2239 H 212.846 -0.227094 -2.99039 0
M  V30 2240 H 210.399 -0.155722 -1.55522 0
M  V30 2241 H 211.134 2.25804 -2.32772 0
M  V30 2242 H 210.919 1.18195 -3.73861 0
M  V30 2243 H 212.409 2.1585 -3.57489 0
M  V30 2244 N 212.846 1.57033 -0.133567 0
M  V30 2245 C 214.262 1.58035 0.222944 0
M  V30 2246 C 214.462 1.14713 1.6566 0
M  V30 2247 O 213.518 0.841218 2.38075 0
M  V30 2248 C 214.831 3.00691 -0.0236116 0
M  V30 2249 C 216.379 3.12973 0.0411512 0
M  V30 2250 C 216.854 4.57654 -0.177899 0
M  V30 2251 N 218.345 4.63033 -0.124365 0
M  V30 2252 C 219.08 5.72771 -0.268553 0
M  V30 2253 N 218.576 6.91206 -0.46972 0
M  V30 2254 N 220.369 5.61718 -0.2071 0
M  V30 2255 H 212.52 1.8349 -1.06981 0
M  V30 2256 H 214.783 0.848677 -0.422436 0
M  V30 2257 H 214.489 3.36726 -1.0153 0
M  V30 2258 H 214.363 3.70614 0.701808 0
M  V30 2259 H 216.75 2.76787 1.02338 0
M  V30 2260 H 216.831 2.45564 -0.716383 0
M  V30 2261 H 216.475 4.94542 -1.15717 0
M  V30 2262 H 216.405 5.23173 0.599797 0
M  V30 2263 H 218.896 3.7789 0.027011 0
M  V30 2264 H 219.209 7.70693 -0.570212 0
M  V30 2265 H 217.554 6.93156 -0.505876 0
M  V30 2266 H 220.745 4.68072 -0.0507986 0
M  V30 2267 H 220.918 6.47195 -0.322909 0
M  V30 2268 N 214.325 -0.140222 1.56975 0
M  V30 2269 C 215.288 -1.15689 1.97861 0
M  V30 2270 C 216.288 -1.3549 0.865974 0
M  V30 2271 O 217.478 -1.32367 1.13246 0
M  V30 2272 C 214.61 -2.51582 2.30042 0
M  V30 2273 H 215.803 -0.805971 2.88867 0
M  V30 2274 H 213.356 -0.383801 1.51515 0
M  V30 2275 H 214.091 -2.91632 1.41849 0
M  V30 2276 H 213.876 -2.38569 3.11171 0
M  V30 2277 H 215.366 -3.24792 2.62488 0
M  V30 2278 N 215.803 -1.52179 -0.40978 0
M  V30 2279 C 217.049 -1.66453 -1.15851 0
M  V30 2280 C 217.382 -0.392972 -1.90182 0
M  V30 2281 O 216.657 0.608579 -1.84734 0
M  V30 2282 C 216.94 -2.88612 -2.15349 0
M  V30 2283 C 216.793 -4.25815 -1.44918 0
M  V30 2284 C 218.112 -3.06294 -3.16026 0
M  V30 2285 H 215.231 -0.60575 -0.419805 0
M  V30 2286 H 217.873 -1.84732 -0.444314 0
M  V30 2287 H 216.023 -2.73158 -2.76255 0
M  V30 2288 H 217.695 -4.52995 -0.871365 0
M  V30 2289 H 215.938 -4.27247 -0.751159 0
M  V30 2290 H 216.609 -5.07337 -2.17516 0
M  V30 2291 H 219.085 -3.20641 -2.65195 0
M  V30 2292 H 217.961 -3.93283 -3.8291 0
M  V30 2293 H 218.222 -2.19579 -3.83715 0
M  V30 2294 N 217.281 0.66697 -1.42791 0
M  V30 2295 C 218.527 1.4291 -1.43891 0
M  V30 2296 C 218.86 1.94114 -0.0578972 0
M  V30 2297 O 218.135 1.71414 0.91911 0
M  V30 2298 C 218.418 2.62049 -2.46987 0
M  V30 2299 C 218.271 2.16426 -3.94309 0
M  V30 2300 C 219.59 3.64266 -2.46978 0
M  V30 2301 H 216.709 0.518306 -0.523954 0
M  V30 2302 H 219.351 0.757321 -1.74255 0
M  V30 2303 H 217.501 3.19361 -2.21225 0
M  V30 2304 H 219.173 1.64221 -4.31079 0
M  V30 2305 H 217.416 1.47925 -4.078 0
M  V30 2306 H 218.087 3.02038 -4.62036 0
M  V30 2307 H 220.563 3.16686 -2.69906 0
M  V30 2308 H 219.439 4.45196 -3.21079 0
M  V30 2309 H 219.7 4.15927 -1.49857 0
M  V30 2310 N 218.759 1.29093 0.90403 0
M  V30 2311 C 219.689 1.16401 2.02418 0
M  V30 2312 C 220.67 0.0593085 1.69997 0
M  V30 2313 O 221.855 0.238021 1.92736 0
M  V30 2314 C 218.985 0.835233 3.37107 0
M  V30 2315 C 217.939 1.89578 3.83724 0
M  V30 2316 C 217.265 1.42041 5.15489 0
M  V30 2317 C 218.565 3.30394 4.04521 0
M  V30 2318 H 220.259 2.10109 2.13295 0
M  V30 2319 H 217.805 1.01157 1.02486 0
M  V30 2320 H 219.758 0.733169 4.14973 0
M  V30 2321 H 218.482 -0.137543 3.2631 0
M  V30 2322 H 217.141 1.98715 3.08071 0
M  V30 2323 H 216.789 0.436426 5.01103 0
M  V30 2324 H 216.489 2.12964 5.4765 0
M  V30 2325 H 218.013 1.33176 5.959 0
M  V30 2326 H 219.427 3.24123 4.72882 0
M  V30 2327 H 217.824 3.99237 4.48029 0
M  V30 2328 H 218.894 3.73692 3.09002 0
M  V30 2329 N 220.237 -1.11381 1.11499 0
M  V30 2330 C 221.167 -2.19509 0.796125 0
M  V30 2331 C 222.148 -1.68458 -0.235796 0
M  V30 2332 O 223.333 -1.93947 -0.0991344 0
M  V30 2333 C 220.463 -3.46475 0.239205 0
M  V30 2334 C 219.417 -4.10744 1.20307 0
M  V30 2335 C 218.743 -5.32293 0.50683 0
M  V30 2336 C 220.043 -4.55597 2.55399 0
M  V30 2337 H 221.737 -2.46439 1.70024 0
M  V30 2338 H 219.283 -1.18446 0.818935 0
M  V30 2339 H 221.236 -4.214 0.00392006 0
M  V30 2340 H 219.96 -3.19006 -0.700206 0
M  V30 2341 H 218.619 -3.37813 1.42399 0
M  V30 2342 H 218.267 -5.01095 -0.437408 0
M  V30 2343 H 217.967 -5.76243 1.1497 0
M  V30 2344 H 219.491 -6.09956 0.280351 0
M  V30 2345 H 220.905 -5.21841 2.37391 0
M  V30 2346 H 219.302 -5.10363 3.15673 0
M  V30 2347 H 220.372 -3.69013 3.14575 0
M  V30 2348 N 221.715 -0.905404 -1.28997 0
M  V30 2349 C 222.992 -0.453513 -1.9027 0
M  V30 2350 C 223.372 1.06721 -1.82137 0
M  V30 2351 O 222.72 1.91159 -1.25182 0
M  V30 2352 C 222.93 -0.974494 -3.35119 0
M  V30 2353 C 224.278 -1.0216 -4.12127 0
M  V30 2354 O 225.302 -0.922557 -3.44046 0
M  V30 2355 O 224.161 -1.17121 -5.33802 0
M  V30 2356 H 221.255 -0.142347 -0.814657 0
M  V30 2357 H 223.801 -0.995642 -1.37423 0
M  V30 2358 H 222.573 -2.01848 -3.35221 0
M  V30 2359 H 222.196 -0.412706 -3.95452 0
M  V30 2360 N 223.193 1.4272 -0.668489 0
M  V30 2361 C 224.441 2.01226 -0.187769 0
M  V30 2362 C 224.762 1.53092 1.2078 0
M  V30 2363 O 224.032 0.74993 1.80977 0
M  V30 2364 H 222.612 0.744041 -0.0664272 0
M  V30 2365 H 225.274 1.74723 -0.863583 0
M  V30 2366 H 224.37 3.11556 -0.184166 0
M  V30 2367 O 224.71 0.553536 1.51718 0
M  V30 2368 H 225.401 0.050045 1.93635 0
M  V30 END ATOM
M  V30 BEGIN BOND
M  V30 END BOND
M  V30 END CTAB
M  END
$$$$
