drugbank_target|P51161 Gastrotropin (DB02659; DB02691; DB04348)
 OpenBabel12092120023D

  0  0  0     0  0            999 V3000
M  V30 BEGIN CTAB
M  V30 COUNTS 2001 2018 0 0 0
M  V30 BEGIN ATOM
M  V30 1 H -0.908 1.98254 -0.117106 0
M  V30 2 N 0 1.576 0 0
M  V30 3 C 0.933 2.03868 1.02534 0
M  V30 4 C 1.911 0.928543 1.3348 0
M  V30 5 O 3.095 1.19667 1.45644 0
M  V30 6 C 0.222 2.43627 2.35294 0
M  V30 7 C -0.732 3.65373 2.2001 0
M  V30 8 S 0.101 5.13292 1.52614 0
M  V30 9 C 1.257 5.56322 2.86805 0
M  V30 10 H 1.49 2.90518 0.631377 0
M  V30 11 H -0.977 1.52953 0.210867 0
M  V30 12 H 0.981 2.67203 3.11629 0
M  V30 13 H -0.358 1.57376 2.7183 0
M  V30 14 H -1.165 3.90944 3.18086 0
M  V30 15 H -1.563 3.418 1.51819 0
M  V30 16 H 0.729 5.58782 3.83104 0
M  V30 17 H 1.672 6.56266 2.65933 0
M  V30 18 H 2.08 4.83886 2.90714 0
M  V30 19 N 1.4781 -0.272755 1.55222 0
M  V30 20 C 2.4411 -1.32041 1.87344 0
M  V30 21 C 3.4411 -1.42342 0.74803 0
M  V30 22 O 4.6311 -1.41488 1.0162 0
M  V30 23 C 1.7631 -2.70173 2.07893 0
M  V30 24 H 2.9561 -1.04789 2.80997 0
M  V30 25 H 0.5091 -0.51083 1.47717 0
M  V30 26 H 1.2441 -3.02605 1.16622 0
M  V30 27 H 1.0291 -2.64082 2.89833 0
M  V30 28 H 2.5191 -3.45869 2.34017 0
M  V30 29 N 2.9562 -1.48159 -0.537278 0
M  V30 30 C 4.2032 -1.55804 -1.29349 0
M  V30 31 C 4.5312 -0.228802 -1.9315 0
M  V30 32 O 3.7862 0.780242 -1.79473 0
M  V30 33 C 4.0852 -2.63956 -2.40961 0
M  V30 34 C 3.7512 -4.0662 -1.94861 0
M  V30 35 C 2.4132 -4.45452 -1.82006 0
M  V30 36 C 4.7652 -4.96055 -1.59933 0
M  V30 37 C 2.0932 -5.71531 -1.32547 0
M  V30 38 C 4.4452 -6.22617 -1.11939 0
M  V30 39 C 3.1092 -6.60312 -0.976951 0
M  V30 40 H 2.3792 -0.570129 -0.473322 0
M  V30 41 H 5.0262 -1.81845 -0.600372 0
M  V30 42 H 3.3312 -2.31747 -3.15912 0
M  V30 43 H 5.0282 -2.67089 -2.99107 0
M  V30 44 H 1.6182 -3.75949 -2.05815 0
M  V30 45 H 5.8022 -4.66738 -1.68728 0
M  V30 46 H 1.0582 -5.99468 -1.202 0
M  V30 47 H 5.2322 -6.91318 -0.839811 0
M  V30 48 H 2.8592 -7.57895 -0.591501 0
M  V30 49 N 4.4343 0.785586 -1.36625 0
M  V30 50 C 5.6623 1.57448 -1.3423 0
M  V30 51 C 6.0773 1.88649 0.0755653 0
M  V30 52 O 5.4343 1.50414 1.03354 0
M  V30 53 C 5.4853 2.89316 -2.16745 0
M  V30 54 O 5.2063 2.59459 -3.53005 0
M  V30 55 C 6.7073 3.83606 -2.22174 0
M  V30 56 H 3.9273 0.488226 -0.4603 0
M  V30 57 H 6.4713 0.974733 -1.79775 0
M  V30 58 H 4.6263 3.4575 -1.74745 0
M  V30 59 H 5.0403 3.43804 -3.96105 0
M  V30 60 H 6.5143 4.73181 -2.8426 0
M  V30 61 H 6.9913 4.21734 -1.22627 0
M  V30 62 H 7.5973 3.33104 -2.64427 0
M  V30 63 N 5.9124 1.20967 1.01018 0
M  V30 64 C 7.1604 1.02172 1.74371 0
M  V30 65 C 7.4814 -0.446414 1.89821 0
M  V30 66 O 6.7514 -1.32234 1.44537 0
M  V30 67 H 5.3314 0.375066 0.646014 0
M  V30 68 H 7.9934 1.52187 1.21758 0
M  V30 69 H 7.0894 1.48538 2.74487 0
M  V30 70 N 7.3905 -1.2043 1.01659 0
M  V30 71 C 8.3375 -2.23215 0.586822 0
M  V30 72 C 9.3075 -1.61382 -0.393085 0
M  V30 73 O 10.4925 -1.88544 -0.292525 0
M  V30 74 C 7.6325 -3.45032 -0.0687464 0
M  V30 75 C 6.7455 -4.21296 0.955724 0
M  V30 76 C 5.8805 -5.30507 0.271208 0
M  V30 77 C 4.9195 -5.98515 1.28244 0
M  V30 78 N 4.0565 -6.99316 0.62459 0
M  V30 79 H 8.8965 -2.59336 1.46796 0
M  V30 80 H 6.4335 -1.27431 0.734836 0
M  V30 81 H 8.3915 -4.1459 -0.465965 0
M  V30 82 H 7.0215 -3.09604 -0.913529 0
M  V30 83 H 6.0735 -3.50803 1.4711 0
M  V30 84 H 7.3855 -4.6803 1.72479 0
M  V30 85 H 6.5395 -6.06428 -0.18151 0
M  V30 86 H 5.2785 -4.8481 -0.530163 0
M  V30 87 H 4.2835 -5.21355 1.74554 0
M  V30 88 H 5.5085 -6.46298 2.08509 0
M  V30 89 H 3.4545 -6.55812 -0.156914 0
M  V30 90 H 3.3715 -7.44178 1.33172 0
M  V30 91 H 4.6395 -7.79255 0.195462 0
M  V30 92 N 8.8686 -0.792821 -1.36206 0
M  V30 93 C 10.1156 -0.366786 -1.99151 0
M  V30 94 C 10.4436 1.06243 -1.62919 0
M  V30 95 O 9.6986 1.74927 -0.877442 0
M  V30 96 C 9.9976 -0.481501 -3.54142 0
M  V30 97 C 9.6636 -1.87202 -4.10203 0
M  V30 98 C 8.3256 -2.25248 -4.25226 0
M  V30 99 C 10.6776 -2.78237 -4.40719 0
M  V30 100 C 8.0056 -3.53723 -4.68078 0
M  V30 101 C 10.3576 -4.06144 -4.85005 0
M  V30 102 C 9.0216 -4.44207 -4.98234 0
M  V30 103 H 8.2916 -0.134217 -0.728743 0
M  V30 104 H 10.9386 -1.01094 -1.62641 0
M  V30 105 H 9.2436 0.246146 -3.91026 0
M  V30 106 H 10.9406 -0.132844 -4.0078 0
M  V30 107 H 7.5306 -1.56639 -3.98951 0
M  V30 108 H 11.7146 -2.50097 -4.28679 0
M  V30 109 H 6.9706 -3.8308 -4.76508 0
M  V30 110 H 11.1446 -4.76796 -5.07581 0
M  V30 111 H 8.7716 -5.43814 -5.31197 0
M  V30 112 N 10.3467 1.47872 -0.545128 0
M  V30 113 C 11.2567 2.33633 0.212746 0
M  V30 114 C 12.2727 1.4744 0.923983 0
M  V30 115 O 13.4487 1.80393 0.895572 0
M  V30 116 C 10.5137 3.23884 1.23693 0
M  V30 117 C 9.5747 4.25961 0.534417 0
M  V30 118 C 8.8077 5.11899 1.5098 0
M  V30 119 O 9.0307 5.00077 2.7437 0
M  V30 120 O 7.9647 5.92831 1.0409 0
M  V30 121 H 11.7907 2.99714 -0.490416 0
M  V30 122 H 9.3757 1.46235 -0.305871 0
M  V30 123 H 11.2577 3.79666 1.82843 0
M  V30 124 H 9.9327 2.60446 1.92222 0
M  V30 125 H 8.8397 3.73972 -0.0979679 0
M  V30 126 H 10.1727 4.92079 -0.109213 0
M  V30 127 N 11.8248 0.280983 1.55075 0
M  V30 128 C 12.7578 -0.645439 2.18882 0
M  V30 129 C 13.7358 -1.14786 1.15165 0
M  V30 130 O 14.9198 -1.21975 1.43716 0
M  V30 131 C 12.0468 -1.88088 2.81674 0
M  V30 132 C 11.0928 -1.51343 3.98745 0
M  V30 133 S 11.9258 -0.586548 5.32278 0
M  V30 134 C 13.0818 -1.83024 5.98543 0
M  V30 135 H 13.3148 -0.1033 2.9712 0
M  V30 136 H 10.8478 0.0652099 1.54262 0
M  V30 137 H 12.8058 -2.58997 3.18482 0
M  V30 138 H 11.4668 -2.39417 2.03318 0
M  V30 139 H 10.6598 -2.43289 4.41392 0
M  V30 140 H 10.2618 -0.884477 3.63391 0
M  V30 141 H 12.5538 -2.77342 6.18133 0
M  V30 142 H 13.4968 -1.44668 6.93164 0
M  V30 143 H 13.9048 -1.99785 5.27964 0
M  V30 144 N 13.3029 -1.57598 0.00835791 0
M  V30 145 C 14.2129 -2.12385 -0.996487 0
M  V30 146 C 15.2289 -1.07108 -1.37127 0
M  V30 147 O 16.4049 -1.39055 -1.4569 0
M  V30 148 C 13.4699 -2.62314 -2.26699 0
M  V30 149 C 12.5309 -3.82225 -1.95456 0
M  V30 150 C 11.7639 -4.29763 -3.16449 0
M  V30 151 O 11.9869 -3.76584 -4.28416 0
M  V30 152 O 10.9209 -5.21832 -2.99958 0
M  V30 153 H 14.7469 -2.98479 -0.560725 0
M  V30 154 H 12.3319 -1.47903 -0.210987 0
M  V30 155 H 14.2139 -2.94589 -3.01322 0
M  V30 156 H 12.8889 -1.79313 -2.69497 0
M  V30 157 H 11.7959 -3.54909 -1.18282 0
M  V30 158 H 13.1289 -4.66324 -1.57489 0
M  V30 159 N 14.781 0.264519 -1.55364 0
M  V30 160 C 16.006 1.01726 -1.80739 0
M  V30 161 C 16.431 1.78836 -0.583044 0
M  V30 162 O 15.789 1.75167 0.467566 0
M  V30 163 C 15.837 1.94482 -3.03659 0
M  V30 164 O 14.941 3.03386 -2.7934 0
M  V30 165 H 14.282 0.290395 -0.597132 0
M  V30 166 H 16.812 0.290854 -2.02522 0
M  V30 167 H 16.822 2.36278 -3.32621 0
M  V30 168 H 15.497 1.37772 -3.92418 0
M  V30 169 H 14.074 2.65844 -2.61498 0
M  V30 170 N 16.2591 1.48442 0.529413 0
M  V30 171 C 17.1691 1.6569 1.66084 0
M  V30 172 C 18.1851 0.539432 1.65427 0
M  V30 173 O 19.3611 0.810572 1.84368 0
M  V30 174 C 16.4261 1.69315 3.02545 0
M  V30 175 C 15.4871 2.92694 3.14052 0
M  V30 176 C 14.7201 2.96137 4.44003 0
M  V30 177 O 14.9431 2.07973 5.31134 0
M  V30 178 O 13.8771 3.88312 4.59888 0
M  V30 179 H 17.7031 2.61483 1.54469 0
M  V30 180 H 15.2881 1.3185 0.702567 0
M  V30 181 H 17.1701 1.74217 3.83701 0
M  V30 182 H 15.8451 0.766966 3.14483 0
M  V30 183 H 14.7521 2.93324 2.32189 0
M  V30 184 H 16.0851 3.84699 3.0703 0
M  V30 185 N 17.7372 -0.778329 1.37039 0
M  V30 186 C 18.6842 -1.89139 1.32269 0
M  V30 187 C 19.6542 -1.65017 0.189387 0
M  V30 188 O 20.8392 -1.87024 0.377693 0
M  V30 189 C 17.9792 -3.26112 1.12894 0
M  V30 190 C 17.0922 -3.62233 2.35396 0
M  V30 191 C 16.2272 -4.8838 2.08946 0
M  V30 192 C 15.2662 -5.17212 3.2735 0
M  V30 193 N 14.4032 -6.34546 3.00492 0
M  V30 194 H 19.2432 -1.92552 2.27437 0
M  V30 195 H 16.7802 -0.941473 1.13025 0
M  V30 196 H 18.7382 -4.05116 0.996835 0
M  V30 197 H 17.3682 -3.22091 0.213758 0
M  V30 198 H 16.4202 -2.78265 2.5937 0
M  V30 199 H 17.7322 -3.79481 3.23721 0
M  V30 200 H 16.8862 -5.75274 1.92729 0
M  V30 201 H 15.6252 -4.73222 1.17949 0
M  V30 202 H 14.6302 -4.28796 3.44113 0
M  V30 203 H 15.8552 -5.34283 4.19188 0
M  V30 204 H 13.8012 -6.20759 2.12118 0
M  V30 205 H 13.7182 -6.52179 3.82358 0
M  V30 206 H 14.9862 -7.24394 2.87879 0
M  V30 207 N 19.2153 -1.21501 -1.00376 0
M  V30 208 C 20.1633 -0.972442 -2.11297 0
M  V30 209 C 21.1573 0.080731 -1.69208 0
M  V30 210 O 22.3633 -0.0707666 -1.79861 0
M  V30 211 H 18.7383 -0.297218 -0.690772 0
M  V30 212 H 20.7093 -1.91394 -2.28934 0
M  V30 213 C 19.4583 -0.555065 -3.43241 0
M  V30 214 H 18.7813 -1.35709 -3.76062 0
M  V30 215 H 20.2213 -0.424664 -4.21868 0
M  V30 216 C 18.6803 0.734147 -3.28804 0
M  V30 217 O 19.2103 1.78937 -3.59645 0
M  V30 218 N 17.4163 0.701133 -2.82015 0
M  V30 219 H 16.9633 -0.157874 -2.57116 0
M  V30 220 H 16.9213 1.56403 -2.72737 0
M  V30 221 N 20.6934 1.19889 -1.02296 0
M  V30 222 C 21.9234 1.93109 -0.734332 0
M  V30 223 C 22.3314 1.75377 0.709889 0
M  V30 224 O 21.6744 1.06912 1.49384 0
M  V30 225 C 21.7364 3.45362 -0.99827 0
M  V30 226 C 21.4004 3.8686 -2.43287 0
M  V30 227 C 22.3974 3.92102 -3.41397 0
M  V30 228 C 20.0824 4.18668 -2.77529 0
M  V30 229 C 22.0764 4.28573 -4.71809 0
M  V30 230 C 19.7634 4.54813 -4.08153 0
M  V30 231 C 20.7614 4.59739 -5.05103 0
M  V30 232 O 20.4494 4.95051 -6.33388 0
M  V30 233 H 20.1814 0.620409 -0.268456 0
M  V30 234 H 22.7354 1.53144 -1.3688 0
M  V30 235 H 20.9654 3.85482 -0.306645 0
M  V30 236 H 22.6544 3.99814 -0.700234 0
M  V30 237 H 23.4204 3.67685 -3.1628 0
M  V30 238 H 19.2994 4.14021 -2.0275 0
M  V30 239 H 22.8434 4.32333 -5.4748 0
M  V30 240 H 18.7404 4.78687 -4.33047 0
M  V30 241 H 19.5084 5.1302 -6.37772 0
M  V30 242 N 22.1715 0.800033 1.35784 0
M  V30 243 C 23.4485 0.30088 1.93272 0
M  V30 244 C 23.8285 -1.20857 1.73081 0
M  V30 245 O 23.1765 -2.00502 1.09596 0
M  V30 246 C 23.3865 0.70511 3.41803 0
M  V30 247 C 24.7345 0.690871 4.18942 0
M  V30 248 O 25.7585 0.646244 3.50289 0
M  V30 249 O 24.6175 0.74332 5.41421 0
M  V30 250 H 21.7115 0.0771605 0.823393 0
M  V30 251 H 24.2575 0.88329 1.449 0
M  V30 252 H 23.0295 1.74571 3.50201 0
M  V30 253 H 22.6525 0.0971541 3.97481 0
M  V30 254 N 23.6496 -1.47581 0.552962 0
M  V30 255 C 24.5596 -2.33743 -0.200353 0
M  V30 256 C 25.5756 -1.47928 -0.916151 0
M  V30 257 O 26.7516 -1.80865 -0.885993 0
M  V30 258 C 23.8166 -3.24536 -1.21973 0
M  V30 259 C 22.8776 -4.26238 -0.511819 0
M  V30 260 C 22.1106 -5.12693 -1.48263 0
M  V30 261 O 22.3336 -5.01525 -2.71714 0
M  V30 262 O 21.2676 -5.93375 -1.00945 0
M  V30 263 H 25.0936 -2.9945 0.506304 0
M  V30 264 H 22.6786 -1.46071 0.313622 0
M  V30 265 H 24.5606 -3.80631 -1.80827 0
M  V30 266 H 23.2356 -2.61462 -1.90839 0
M  V30 267 H 22.1426 -3.73914 0.117799 0
M  V30 268 H 23.4756 -4.92014 0.135308 0
M  V30 269 N 25.1277 -0.289203 -1.54924 0
M  V30 270 C 26.3747 0.323519 -1.99899 0
M  V30 271 C 26.7027 1.54797 -1.17762 0
M  V30 272 O 25.9577 1.94237 -0.238835 0
M  V30 273 C 26.2567 0.736119 -3.49737 0
M  V30 274 C 25.9227 -0.385276 -4.49251 0
M  V30 275 C 24.5847 -0.693156 -4.76181 0
M  V30 276 C 26.9367 -1.14021 -5.08575 0
M  V30 277 C 24.2647 -1.7593 -5.59701 0
M  V30 278 C 26.6167 -2.19619 -5.93254 0
M  V30 279 C 25.2807 -2.51026 -6.185 0
M  V30 280 H 24.5507 0.118384 -0.731482 0
M  V30 281 H 27.1977 -0.405847 -1.8715 0
M  V30 282 H 25.5027 1.54539 -3.60035 0
M  V30 283 H 27.1997 1.22118 -3.81953 0
M  V30 284 H 23.7897 -0.135202 -4.28387 0
M  V30 285 H 27.9737 -0.915611 -4.87781 0
M  V30 286 H 23.2297 -2.0075 -5.77503 0
M  V30 287 H 27.4037 -2.78581 -6.38252 0
M  V30 288 H 25.0307 -3.33772 -6.83008 0
M  V30 289 N 26.6058 1.57591 -0.0167156 0
M  V30 290 C 27.5388 2.04944 1.00366 0
M  V30 291 C 28.5168 0.942648 1.32487 0
M  V30 292 O 29.7008 1.21205 1.44367 0
M  V30 293 C 26.8278 2.46109 2.32697 0
M  V30 294 C 25.8738 3.67686 2.16123 0
M  V30 295 S 26.7068 5.14882 1.47161 0
M  V30 296 C 27.8628 5.59332 2.80888 0
M  V30 297 H 28.0958 2.91172 0.600528 0
M  V30 298 H 25.6288 1.53168 0.194632 0
M  V30 299 H 27.5868 2.70493 3.08778 0
M  V30 300 H 26.2478 1.6025 2.70146 0
M  V30 301 H 25.4408 3.94296 3.13922 0
M  V30 302 H 25.0428 3.43391 1.48185 0
M  V30 303 H 27.3348 5.62814 3.77156 0
M  V30 304 H 28.2778 6.5905 2.58958 0
M  V30 305 H 28.6858 4.86942 2.85565 0
M  V30 306 N 28.0839 -0.256276 1.55502 0
M  V30 307 C 29.0309 -1.31714 1.89526 0
M  V30 308 C 30.0009 -1.4828 0.748479 0
M  V30 309 O 31.1859 -1.62416 1.00128 0
M  V30 310 C 28.3259 -2.66933 2.18725 0
M  V30 311 C 27.4389 -2.58452 3.4616 0
M  V30 312 C 26.5739 -3.85961 3.64976 0
M  V30 313 C 25.6129 -3.72059 4.86044 0
M  V30 314 N 24.7499 -4.9144 5.01429 0
M  V30 315 H 29.5899 -1.01998 2.80001 0
M  V30 316 H 27.1269 -0.492413 1.38613 0
M  V30 317 H 29.0849 -3.4563 2.33657 0
M  V30 318 H 27.7149 -2.94816 1.31466 0
M  V30 319 H 26.7669 -1.71374 3.3961 0
M  V30 320 H 28.0789 -2.44085 4.34999 0
M  V30 321 H 27.2329 -4.73101 3.79816 0
M  V30 322 H 25.9719 -4.03215 2.74353 0
M  V30 323 H 24.9769 -2.83302 4.7119 0
M  V30 324 H 26.2019 -3.56309 5.78118 0
M  V30 325 H 24.1479 -5.09072 4.13741 0
M  V30 326 H 24.0649 -4.79668 5.84341 0
M  V30 327 H 25.3329 -5.80104 5.20672 0
M  V30 328 N 29.562 -1.4872 -0.521534 0
M  V30 329 C 30.492 -1.66771 -1.63431 0
M  V30 330 C 31.473 -0.516499 -1.62069 0
M  V30 331 O 32.658 -0.750013 -1.79132 0
M  V30 332 C 29.788 -1.71515 -3.01993 0
M  V30 333 C 28.742 -2.86222 -3.18216 0
M  V30 334 C 28.068 -2.76061 -4.57924 0
M  V30 335 C 29.368 -4.27419 -3.00184 0
M  V30 336 H 31.062 -2.59932 -1.48579 0
M  V30 337 H 28.608 -1.25089 -0.713358 0
M  V30 338 H 30.561 -1.82731 -3.7972 0
M  V30 339 H 29.285 -0.749393 -3.17886 0
M  V30 340 H 27.944 -2.74575 -2.42908 0
M  V30 341 H 27.592 -1.77437 -4.70665 0
M  V30 342 H 27.292 -3.53037 -4.69722 0
M  V30 343 H 28.816 -2.89256 -5.37739 0
M  V30 344 H 30.23 -4.39855 -3.67697 0
M  V30 345 H 28.627 -5.05458 -3.2347 0
M  V30 346 H 29.697 -4.43293 -1.96518 0
M  V30 347 N 31.0401 0.771051 -1.3745 0
M  V30 348 C 31.9701 1.89827 -1.3597 0
M  V30 349 C 32.9511 1.68562 -0.228216 0
M  V30 350 O 34.1361 1.8941 -0.428675 0
M  V30 351 C 31.2661 3.2712 -1.16662 0
M  V30 352 C 30.2201 3.6295 -2.2683 0
M  V30 353 C 29.5461 4.98791 -1.92644 0
M  V30 354 C 30.8461 3.69627 -3.69017 0
M  V30 355 H 32.5401 1.91323 -2.30295 0
M  V30 356 H 30.0861 0.919082 -1.10855 0
M  V30 357 H 32.0391 4.05615 -1.14256 0
M  V30 358 H 30.7631 3.26059 -0.187926 0
M  V30 359 H 29.4221 2.86763 -2.28392 0
M  V30 360 H 29.0701 4.94271 -0.933021 0
M  V30 361 H 28.7701 5.23733 -2.66416 0
M  V30 362 H 30.2941 5.79685 -1.91826 0
M  V30 363 H 31.7081 4.38273 -3.69581 0
M  V30 364 H 30.1051 4.06067 -4.41848 0
M  V30 365 H 31.1751 2.70273 -4.02592 0
M  V30 366 N 32.5182 1.22032 0.997298 0
M  V30 367 C 33.7662 1.04016 1.73278 0
M  V30 368 C 34.0872 -0.426255 1.90284 0
M  V30 369 O 33.3572 -1.30694 1.45931 0
M  V30 370 H 31.9372 0.381897 0.642 0
M  V30 371 H 34.5992 1.5347 1.20137 0
M  V30 372 H 33.6952 1.51441 2.72896 0
M  V30 373 N 33.9963 -1.19345 1.0293 0
M  V30 374 C 35.2453 -1.88363 0.721256 0
M  V30 375 C 35.5583 -1.80514 -0.753254 0
M  V30 376 O 36.7643 -2.44788 -1.17436 0
M  V30 377 C 35.2203 -3.37872 1.23978 0
M  V30 378 C 34.8283 -3.54278 2.74211 0
M  V30 379 C 36.5723 -4.12365 1.00775 0
M  V30 380 C 34.4793 -4.97682 3.19479 0
M  V30 381 H 33.4093 -0.705484 0.266098 0
M  V30 382 H 36.0603 -1.34928 1.24365 0
M  V30 383 H 34.4423 -3.90707 0.6453 0
M  V30 384 H 35.6163 -3.11769 3.39318 0
M  V30 385 H 33.9313 -2.93174 2.95699 0
M  V30 386 H 36.5283 -5.18119 1.32123 0
M  V30 387 H 36.8713 -4.16263 -0.0554308 0
M  V30 388 H 37.4043 -3.65668 1.56625 0
M  V30 389 H 34.1433 -4.98945 4.25128 0
M  V30 390 H 33.6633 -5.4095 2.591 0
M  V30 391 H 35.3423 -5.66337 3.12845 0
M  V30 392 N 35.4744 -0.807222 -1.35358 0
M  V30 393 C 36.6994 -0.399309 -2.0352 0
M  V30 394 C 37.1244 0.981986 -1.60433 0
M  V30 395 O 36.4824 1.63601 -0.781299 0
M  V30 396 C 36.5304 -0.491552 -3.57234 0
M  V30 397 O 35.6344 0.494754 -4.09421 0
M  V30 398 H 34.9754 -0.166682 -0.642739 0
M  V30 399 H 37.5054 -1.09328 -1.72941 0
M  V30 400 H 37.5154 -0.361588 -4.06395 0
M  V30 401 H 36.1904 -1.49907 -3.87944 0
M  V30 402 H 34.7674 0.324977 -3.71481 0
M  V30 403 N 36.9525 1.47285 -0.560781 0
M  V30 404 C 38.1775 2.07359 -0.0410566 0
M  V30 405 C 38.6025 1.41017 1.24483 0
M  V30 406 O 37.9605 0.486368 1.74654 0
M  V30 407 C 38.0085 3.6035 0.134123 0
M  V30 408 O 37.1125 3.94681 1.19587 0
M  V30 409 H 36.4535 0.661887 -0.0529291 0
M  V30 410 H 38.9835 1.89252 -0.777482 0
M  V30 411 H 38.9935 4.0652 0.347207 0
M  V30 412 H 37.6685 4.08034 -0.805047 0
M  V30 413 H 36.2455 3.60251 0.962987 0
M  V30 414 N 38.4306 0.297415 1.54768 0
M  V30 415 C 39.7076 -0.365847 1.92148 0
M  V30 416 C 40.0876 -1.71975 1.22424 0
M  V30 417 O 39.4356 -2.25666 0.358739 0
M  V30 418 C 39.6456 -0.484056 3.45627 0
M  V30 419 C 40.9936 -0.756594 4.17805 0
M  V30 420 O 42.0176 -0.568007 3.51642 0
M  V30 421 O 40.8766 -1.11863 5.34929 0
M  V30 422 H 37.9706 -0.203919 0.801465 0
M  V30 423 H 40.5166 0.34521 1.66152 0
M  V30 424 H 39.2886 0.467865 3.88493 0
M  V30 425 H 38.9116 -1.24372 3.77647 0
M  V30 426 N 39.9087 -1.5758 0.0250728 0
M  V30 427 C 41.1547 -1.91917 -0.655413 0
M  V30 428 C 41.4877 -0.901433 -1.72011 0
M  V30 429 O 40.7627 0.0764069 -1.9435 0
M  V30 430 C 41.0457 -3.36751 -1.27558 0
M  V30 431 C 40.8987 -4.49258 -0.220719 0
M  V30 432 C 42.2177 -3.81469 -2.19475 0
M  V30 433 H 39.3367 -0.697925 -0.23679 0
M  V30 434 H 41.9787 -1.89825 0.0815036 0
M  V30 435 H 40.1287 -3.38664 -1.90365 0
M  V30 436 H 41.8007 -4.59478 0.409601 0
M  V30 437 H 40.0437 -4.31415 0.454264 0
M  V30 438 H 40.7147 -5.47618 -0.694175 0
M  V30 439 H 43.1907 -3.81266 -1.66659 0
M  V30 440 H 42.0667 -4.83512 -2.59822 0
M  V30 441 H 42.3277 -3.16744 -3.08424 0
M  V30 442 N 41.3868 0.248026 -1.55636 0
M  V30 443 C 42.6358 0.974134 -1.76617 0
M  V30 444 C 42.9488 1.86528 -0.588796 0
M  V30 445 O 44.1548 2.62805 -0.681594 0
M  V30 446 C 42.6108 1.78213 -3.12679 0
M  V30 447 C 42.2188 0.93843 -4.38061 0
M  V30 448 C 43.9628 2.50104 -3.42999 0
M  V30 449 C 41.8698 1.74225 -5.65155 0
M  V30 450 H 40.7998 0.36745 -0.658405 0
M  V30 451 H 43.4508 0.22884 -1.82067 0
M  V30 452 H 41.8328 2.56933 -3.01333 0
M  V30 453 H 43.0068 0.193635 -4.60393 0
M  V30 454 H 41.3218 0.332905 -4.15067 0
M  V30 455 H 43.9188 3.10694 -4.3517 0
M  V30 456 H 44.2618 3.21662 -2.64271 0
M  V30 457 H 44.7948 1.78395 -3.55556 0
M  V30 458 H 41.5338 1.07043 -6.46701 0
M  V30 459 H 41.0538 2.46235 -5.46926 0
M  V30 460 H 42.7328 2.30967 -6.0437 0
M  V30 461 N 42.8649 1.48995 0.513639 0
M  V30 462 C 43.7749 1.67443 1.64317 0
M  V30 463 C 44.7909 0.556947 1.64846 0
M  V30 464 O 45.9669 0.830082 1.83498 0
M  V30 465 C 43.0319 1.72515 3.00732 0
M  V30 466 C 42.0929 2.96009 3.1093 0
M  V30 467 C 41.3259 3.00829 4.40837 0
M  V30 468 O 41.5489 2.13594 5.28898 0
M  V30 469 O 40.4829 3.93168 4.55744 0
M  V30 470 H 44.3089 2.63106 1.51687 0
M  V30 471 H 41.8939 1.32588 0.688543 0
M  V30 472 H 43.7759 1.78277 3.81831 0
M  V30 473 H 42.4509 0.800278 3.13651 0
M  V30 474 H 41.3579 2.9577 2.29065 0
M  V30 475 H 42.6909 3.87934 3.02933 0
M  V30 476 N 44.343 -0.763751 1.37857 0
M  V30 477 C 45.29 -1.87726 1.34267 0
M  V30 478 C 46.26 -1.64807 0.206879 0
M  V30 479 O 47.445 -1.86613 0.397508 0
M  V30 480 C 44.585 -3.24896 1.16346 0
M  V30 481 C 43.698 -3.59716 2.39225 0
M  V30 482 C 42.833 -4.86137 2.14114 0
M  V30 483 C 41.872 -5.13711 3.32817 0
M  V30 484 N 41.009 -6.31323 3.07206 0
M  V30 485 H 45.849 -1.90129 2.29466 0
M  V30 486 H 43.386 -0.929433 1.14017 0
M  V30 487 H 45.344 -4.04036 1.03975 0
M  V30 488 H 43.974 -3.21847 0.247909 0
M  V30 489 H 43.026 -2.75498 2.62307 0
M  V30 490 H 44.338 -3.76027 3.27728 0
M  V30 491 H 43.492 -5.73198 1.9882 0
M  V30 492 H 42.231 -4.71945 1.22961 0
M  V30 493 H 41.236 -4.25123 3.48641 0
M  V30 494 H 42.461 -5.29807 4.24832 0
M  V30 495 H 40.407 -6.18474 2.1869 0
M  V30 496 H 40.324 -6.48087 3.89254 0
M  V30 497 H 41.592 -7.213 2.95546 0
M  V30 498 N 45.8211 -1.22559 -0.990812 0
M  V30 499 C 46.7841 -0.998863 -2.0629 0
M  V30 500 C 47.7841 0.0354834 -1.60761 0
M  V30 501 O 48.9741 -0.203231 -1.7301 0
M  V30 502 C 46.1061 -0.509203 -3.37076 0
M  V30 503 H 47.2991 -1.95014 -2.27837 0
M  V30 504 H 44.8521 -1.04456 -1.16269 0
M  V30 505 H 45.5871 0.446335 -3.21214 0
M  V30 506 H 45.3721 -1.25547 -3.71457 0
M  V30 507 H 46.8621 -0.370888 -4.1595 0
M  V30 508 N 47.2992 1.18797 -1.03562 0
M  V30 509 C 48.7152 1.40671 -0.753917 0
M  V30 510 C 48.9152 1.9043 0.658686 0
M  V30 511 O 47.9712 2.08538 1.42366 0
M  V30 512 C 49.2842 2.41192 -1.79574 0
M  V30 513 C 50.8322 2.54928 -1.81606 0
M  V30 514 C 51.3072 3.58709 -2.84766 0
M  V30 515 N 52.7982 3.66212 -2.83625 0
M  V30 516 C 53.5332 4.46225 -3.60098 0
M  V30 517 N 53.0292 5.29888 -4.46308 0
M  V30 518 N 54.8222 4.40939 -3.4861 0
M  V30 519 H 46.9732 0.848221 -1.94728 0
M  V30 520 H 49.2362 0.435081 -0.842264 0
M  V30 521 H 48.9422 2.11669 -2.80872 0
M  V30 522 H 48.8162 3.40467 -1.62365 0
M  V30 523 H 51.2032 2.83771 -0.809817 0
M  V30 524 H 51.2842 1.55784 -2.02891 0
M  V30 525 H 50.9282 3.30607 -3.85566 0
M  V30 526 H 50.8582 4.57519 -2.60737 0
M  V30 527 H 53.3492 3.06466 -2.21105 0
M  V30 528 H 53.6622 5.88078 -5.01382 0
M  V30 529 H 52.0072 5.29326 -4.50377 0
M  V30 530 H 55.1982 3.74624 -2.80668 0
M  V30 531 H 55.3712 5.03056 -4.08459 0
M  V30 532 N 48.7773 0.814389 1.34928 0
M  V30 533 C 49.7253 0.218424 2.31572 0
M  V30 534 C 50.7193 -0.636128 1.57002 0
M  V30 535 O 51.9253 -0.52842 1.72069 0
M  V30 536 H 48.3003 0.0518799 0.750208 0
M  V30 537 H 50.2713 1.04852 2.79372 0
M  V30 538 C 49.0203 -0.61207 3.4227 0
M  V30 539 H 48.3433 0.0361578 3.99784 0
M  V30 540 H 49.7833 -0.995317 4.12152 0
M  V30 541 C 48.2423 -1.78087 2.85984 0
M  V30 542 O 48.7723 -2.8787 2.80168 0
M  V30 543 N 46.9783 -1.59488 2.42924 0
M  V30 544 H 46.5253 -0.701874 2.47854 0
M  V30 545 H 46.4833 -2.37846 2.05613 0
M  V30 546 N 50.2554 -1.46986 0.568584 0
M  V30 547 C 51.5024 -2.02441 0.0487986 0
M  V30 548 C 51.8304 -1.44169 -1.30559 0
M  V30 549 O 51.0854 -0.591213 -1.86556 0
M  V30 550 C 51.3844 -3.57306 -0.081836 0
M  V30 551 C 51.0504 -4.34552 1.20313 0
M  V30 552 C 49.7124 -4.55376 1.5552 0
M  V30 553 C 52.0644 -4.79016 2.05411 0
M  V30 554 C 49.3924 -5.17913 2.7565 0
M  V30 555 C 51.7444 -5.42879 3.24754 0
M  V30 556 C 50.4084 -5.61933 3.60261 0
M  V30 557 H 49.6784 -0.740785 0.0178567 0
M  V30 558 H 52.3254 -1.76525 0.742384 0
M  V30 559 H 50.6304 -3.8228 -0.858463 0
M  V30 560 H 52.3274 -3.97876 -0.499546 0
M  V30 561 H 48.9174 -4.18631 0.919014 0
M  V30 562 H 53.1014 -4.62696 1.79516 0
M  V30 563 H 48.3574 -5.30858 3.03315 0
M  V30 564 H 52.5314 -5.76293 3.90973 0
M  V30 565 H 50.1584 -6.10161 4.53439 0
M  V30 566 N 51.7335 -0.305618 -1.54608 0
M  V30 567 C 52.6805 0.568421 -2.23691 0
M  V30 568 C 53.6505 1.12592 -1.22116 0
M  V30 569 O 54.8355 1.16959 -1.50749 0
M  V30 570 C 51.9755 1.7322 -2.98477 0
M  V30 571 C 51.0885 1.20566 -4.14835 0
M  V30 572 C 50.2235 2.33368 -4.77193 0
M  V30 573 C 49.2625 1.7787 -5.85686 0
M  V30 574 N 48.3995 2.84263 -6.4198 0
M  V30 575 H 53.2395 -0.0272867 -2.97988 0
M  V30 576 H 50.7765 -0.0252363 -1.47078 0
M  V30 577 H 52.7345 2.41675 -3.40072 0
M  V30 578 H 51.3645 2.29947 -2.26548 0
M  V30 579 H 50.4165 0.413223 -3.78149 0
M  V30 580 H 51.7285 0.759417 -4.92985 0
M  V30 581 H 50.8825 3.09761 -5.21664 0
M  V30 582 H 49.6215 2.8132 -3.98385 0
M  V30 583 H 48.6265 0.99968 -5.40635 0
M  V30 584 H 49.8515 1.30816 -6.66381 0
M  V30 585 H 47.7975 3.31541 -5.66053 0
M  V30 586 H 47.7145 2.44149 -7.15491 0
M  V30 587 H 48.9825 3.6054 -6.91109 0
M  V30 588 N 53.2116 1.57565 -0.0334293 0
M  V30 589 C 54.4606 1.91155 0.643639 0
M  V30 590 C 54.7736 0.91192 1.73042 0
M  V30 591 O 55.9796 1.13923 2.46442 0
M  V30 592 C 54.4356 3.39443 1.1961 0
M  V30 593 C 54.0436 4.47774 0.142381 0
M  V30 594 C 55.7876 3.82094 1.84944 0
M  V30 595 C 53.6946 5.87162 0.706727 0
M  V30 596 H 52.6246 0.713368 0.244176 0
M  V30 597 H 55.2756 1.8323 -0.0994323 0
M  V30 598 H 53.6576 3.42313 1.99092 0
M  V30 599 H 54.8316 4.56469 -0.630296 0
M  V30 600 H 53.1466 4.14352 -0.412446 0
M  V30 601 H 55.7436 4.83591 2.2813 0
M  V30 602 H 56.0866 3.17386 2.69392 0
M  V30 603 H 56.6196 3.81665 1.12145 0
M  V30 604 H 53.3586 6.55424 -0.0997178 0
M  V30 605 H 52.8786 5.82064 1.44779 0
M  V30 606 H 54.5576 6.35866 1.19514 0
M  V30 607 N 54.6897 -0.239769 1.55765 0
M  V30 608 C 55.9357 -0.968234 1.78194 0
M  V30 609 C 56.2687 -1.84701 0.599938 0
M  V30 610 O 55.5437 -1.9031 -0.401524 0
M  V30 611 C 55.8267 -1.8227 3.10564 0
M  V30 612 C 55.6797 -0.971633 4.3918 0
M  V30 613 C 56.9987 -2.80388 3.39221 0
M  V30 614 H 54.1177 -0.350572 0.648281 0
M  V30 615 H 56.7597 -0.238259 1.885 0
M  V30 616 H 54.9097 -2.44507 3.01908 0
M  V30 617 H 56.5817 -0.367408 4.59835 0
M  V30 618 H 54.8247 -0.276276 4.32919 0
M  V30 619 H 55.4957 -1.60346 5.28198 0
M  V30 620 H 57.9717 -2.28287 3.47885 0
M  V30 621 H 56.8477 -3.3729 4.33044 0
M  V30 622 H 57.1087 -3.57212 2.60484 0
M  V30 623 N 56.1678 -1.49265 -0.50573 0
M  V30 624 C 57.3958 -1.62215 -1.28429 0
M  V30 625 C 57.8108 -0.291697 -1.86533 0
M  V30 626 O 57.1678 0.722233 -1.67601 0
M  V30 627 C 57.2188 -2.68735 -2.41793 0
M  V30 628 O 56.9398 -3.96619 -1.86078 0
M  V30 629 C 58.4408 -2.92346 -3.3324 0
M  V30 630 H 55.6608 -0.546239 -0.389697 0
M  V30 631 H 58.2048 -1.95265 -0.607609 0
M  V30 632 H 56.3598 -2.38476 -3.053 0
M  V30 633 H 56.7738 -4.55256 -2.60465 0
M  V30 634 H 58.2478 -3.70623 -4.09075 0
M  V30 635 H 58.7248 -2.02081 -3.89948 0
M  V30 636 H 59.3308 -3.24003 -2.75503 0
M  V30 637 N 57.6459 0.756429 -1.3826 0
M  V30 638 C 58.5559 1.9009 -1.37488 0
M  V30 639 C 59.5719 1.71855 -0.272366 0
M  V30 640 O 60.7479 1.94827 -0.510318 0
M  V30 641 C 57.8129 3.25421 -1.19592 0
M  V30 642 C 56.8739 3.56202 -2.39622 0
M  V30 643 C 56.1069 4.85075 -2.2257 0
M  V30 644 O 56.3299 5.57246 -1.21793 0
M  V30 645 O 55.2639 5.15269 -3.11098 0
M  V30 646 H 59.0899 1.93695 -2.33914 0
M  V30 647 H 56.6749 0.901313 -1.1915 0
M  V30 648 H 58.5569 4.06337 -1.11661 0
M  V30 649 H 57.2319 3.22634 -0.262486 0
M  V30 650 H 56.1389 2.75458 -2.53128 0
M  V30 651 H 57.4719 3.63747 -3.31586 0
M  V30 652 N 59.124 1.23083 0.984299 0
M  V30 653 C 60.37 1.06214 1.72761 0
M  V30 654 C 60.703 -0.400584 1.90024 0
M  V30 655 O 59.978 -1.29672 1.44967 0
M  V30 656 C 60.261 1.78375 3.12817 0
M  V30 657 C 60.114 3.32296 3.03149 0
M  V30 658 C 61.433 1.54309 4.12161 0
M  V30 659 H 58.552 0.387251 0.627061 0
M  V30 660 H 61.194 1.51536 1.14616 0
M  V30 661 H 59.344 1.39848 3.62457 0
M  V30 662 H 61.016 3.8032 2.61064 0
M  V30 663 H 59.259 3.6153 2.39747 0
M  V30 664 H 59.93 3.77972 4.02295 0
M  V30 665 H 62.406 1.87791 3.71314 0
M  V30 666 H 61.282 2.07281 5.08258 0
M  V30 667 H 61.543 0.477572 4.39513 0
M  V30 668 N 60.6021 -1.18246 1.0419 0
M  V30 669 C 61.5341 -2.2142 0.592088 0
M  V30 670 C 62.5471 -1.59233 -0.338909 0
M  V30 671 O 63.7361 -1.78002 -0.133231 0
M  V30 672 C 60.8361 -3.38546 -0.154854 0
M  V30 673 C 60.0091 -4.3031 0.784328 0
M  V30 674 C 59.0681 -5.26138 0.0804583 0
M  V30 675 O 58.0941 -5.64738 0.711292 0
M  V30 676 N 59.2961 -5.68261 -1.18574 0
M  V30 677 H 62.0611 -2.60636 1.47949 0
M  V30 678 H 59.6221 -1.33044 0.922544 0
M  V30 679 H 61.6141 -3.99678 -0.635606 0
M  V30 680 H 60.1841 -2.98012 -0.943811 0
M  V30 681 H 59.4041 -3.66764 1.44491 0
M  V30 682 H 60.6921 -4.8852 1.42218 0
M  V30 683 H 60.0901 -5.38957 -1.71876 0
M  V30 684 H 58.6471 -6.31584 -1.61074 0
M  V30 685 N 62.0802 -0.821533 -1.34494 0
M  V30 686 C 63.0122 -0.199946 -2.28326 0
M  V30 687 C 64.0252 0.609377 -1.50965 0
M  V30 688 O 65.2142 0.439285 -1.7301 0
M  V30 689 C 62.3142 0.738431 -3.30757 0
M  V30 690 C 61.4872 -0.0277632 -4.37391 0
M  V30 691 C 60.5462 0.831332 -5.19591 0
M  V30 692 O 59.5722 0.276822 -5.68526 0
M  V30 693 N 60.7742 2.15132 -5.39165 0
M  V30 694 H 63.5392 -1.00609 -2.82308 0
M  V30 695 H 61.1002 -0.678366 -1.47003 0
M  V30 696 H 63.0922 1.31773 -3.82646 0
M  V30 697 H 61.6622 1.44533 -2.7718 0
M  V30 698 H 60.8822 -0.788359 -3.86236 0
M  V30 699 H 62.1702 -0.555251 -5.05761 0
M  V30 700 H 61.5682 2.62559 -5.01078 0
M  V30 701 H 60.1252 2.6795 -5.94177 0
M  V30 702 N 63.5583 1.46682 -0.576371 0
M  V30 703 C 64.8353 1.95599 0.00703437 0
M  V30 704 C 65.2153 1.51904 1.46589 0
M  V30 705 O 64.5633 0.766755 2.15251 0
M  V30 706 C 64.7733 3.4864 -0.158404 0
M  V30 707 C 66.1213 4.24594 -0.0229439 0
M  V30 708 O 67.1453 3.56094 -0.0869173 0
M  V30 709 O 66.0043 5.46373 0.118015 0
M  V30 710 H 63.0983 0.825275 0.053384 0
M  V30 711 H 65.6443 1.56996 -0.644244 0
M  V30 712 H 64.4163 3.7331 -1.17282 0
M  V30 713 H 64.0393 3.94057 0.5296 0
M  V30 714 N 65.0364 0.313813 1.54444 0
M  V30 715 C 66.2844 -0.291099 1.99993 0
M  V30 716 C 66.6054 -1.53418 1.20366 0
M  V30 717 O 65.8754 -1.93544 0.302927 0
M  V30 718 H 64.4554 -0.110552 0.738774 0
M  V30 719 H 67.1174 0.428106 1.9014 0
M  V30 720 H 66.2134 -0.554268 3.07139 0
M  V30 721 N 66.5145 -1.57545 0.0417849 0
M  V30 722 C 67.4465 -2.07904 -0.964799 0
M  V30 723 C 68.4595 -1.00497 -1.28079 0
M  V30 724 O 69.6485 -1.28087 -1.24322 0
M  V30 725 C 66.7485 -2.49928 -2.28887 0
M  V30 726 C 65.9215 -3.80562 -2.15619 0
M  V30 727 C 64.9805 -4.08999 -3.31069 0
M  V30 728 O 64.0065 -4.79061 -3.0739 0
M  V30 729 N 65.2085 -3.6017 -4.55256 0
M  V30 730 H 67.9735 -2.94886 -0.535029 0
M  V30 731 H 65.5345 -1.61252 -0.144681 0
M  V30 732 H 67.5265 -2.66034 -3.04972 0
M  V30 733 H 66.0965 -1.68245 -2.63463 0
M  V30 734 H 65.3165 -3.74129 -1.24183 0
M  V30 735 H 66.6045 -4.66126 -2.03971 0
M  V30 736 H 66.0025 -3.03512 -4.77386 0
M  V30 737 H 64.5595 -3.81532 -5.28466 0
M  V30 738 N 67.9926 0.231505 -1.5589 0
M  V30 739 C 69.2696 0.981096 -1.69215 0
M  V30 740 C 69.6496 2.02799 -0.586164 0
M  V30 741 O 68.9976 2.24823 0.408253 0
M  V30 742 C 69.2076 1.60054 -3.10135 0
M  V30 743 C 70.5556 2.09658 -3.69227 0
M  V30 744 O 71.5796 1.69967 -3.13033 0
M  V30 745 O 70.4386 2.8258 -4.67772 0
M  V30 746 H 67.5326 0.457653 -0.688827 0
M  V30 747 H 70.0786 0.224073 -1.68214 0
M  V30 748 H 68.8506 0.844105 -3.82087 0
M  V30 749 H 68.4736 2.42336 -3.15212 0
M  V30 750 N 69.4707 1.49531 0.497807 0
M  V30 751 C 70.7177 1.59179 1.25173 0
M  V30 752 C 71.0457 0.279932 1.92475 0
M  V30 753 O 70.3007 -0.732383 1.81479 0
M  V30 754 C 70.5997 2.70252 2.33878 0
M  V30 755 C 70.2657 4.11644 1.84012 0
M  V30 756 C 68.9277 4.50121 1.70132 0
M  V30 757 C 71.2797 5.00121 1.46725 0
M  V30 758 C 68.6077 5.74845 1.17348 0
M  V30 759 C 70.9597 6.25366 0.95392 0
M  V30 760 C 69.6237 6.6267 0.801538 0
M  V30 761 H 68.8937 0.582478 0.45804 0
M  V30 762 H 71.5407 1.83373 0.551948 0
M  V30 763 H 69.8457 2.40041 3.09657 0
M  V30 764 H 71.5427 2.74925 2.9192 0
M  V30 765 H 68.1327 3.81274 1.95775 0
M  V30 766 H 72.3167 4.71048 1.56294 0
M  V30 767 H 67.5727 6.02444 1.04264 0
M  V30 768 H 71.7467 6.93301 0.656225 0
M  V30 769 H 69.3737 7.59197 0.390351 0
M  V30 770 N 70.9488 -0.749086 1.3866 0
M  V30 771 C 72.1768 -1.53834 1.38358 0
M  V30 772 C 72.5918 -1.88783 -0.0255219 0
M  V30 773 O 71.9488 -1.53101 -0.993292 0
M  V30 774 C 71.9998 -2.83468 2.2434 0
M  V30 775 O 71.7208 -2.50008 3.5976 0
M  V30 776 C 73.2218 -3.7758 2.32267 0
M  V30 777 H 70.4418 -0.47585 0.473083 0
M  V30 778 H 72.9858 -0.926726 1.82297 0
M  V30 779 H 71.1408 -3.40995 1.83851 0
M  V30 780 H 71.5548 -3.33182 4.05081 0
M  V30 781 H 73.0288 -4.65478 2.96706 0
M  V30 782 H 73.5058 -4.18334 1.33765 0
M  V30 783 H 74.1118 -3.25976 2.73166 0
M  V30 784 N 72.4269 -1.23603 -0.977757 0
M  V30 785 C 73.6729 -1.08136 -1.72274 0
M  V30 786 C 74.0279 0.377453 -1.88661 0
M  V30 787 O 73.3209 1.27552 -1.42972 0
M  V30 788 C 73.5149 -1.7433 -3.11999 0
M  V30 789 C 73.3439 -3.26498 -3.0924 0
M  V30 790 C 72.1139 -3.9567 -3.14282 0
M  V30 791 C 74.3119 -4.2323 -2.92201 0
M  V30 792 N 72.2939 -5.34799 -3.01436 0
M  V30 793 C 73.6649 -5.49289 -2.87544 0
M  V30 794 C 75.7199 -4.13931 -2.76705 0
M  V30 795 C 74.4229 -6.67116 -2.68978 0
M  V30 796 C 76.4489 -5.31424 -2.59504 0
M  V30 797 C 75.8109 -6.5641 -2.55548 0
M  V30 798 H 71.9099 -0.450247 -0.639376 0
M  V30 799 H 74.4939 -1.5637 -1.16002 0
M  V30 800 H 72.6649 -1.28624 -3.66484 0
M  V30 801 H 74.3969 -1.51815 -3.75146 0
M  V30 802 H 71.1519 -3.46767 -3.22567 0
M  V30 803 H 71.5759 -6.07748 -2.98281 0
M  V30 804 H 76.2179 -3.1807 -2.78552 0
M  V30 805 H 73.9359 -7.63109 -2.65876 0
M  V30 806 H 77.5219 -5.26072 -2.48474 0
M  V30 807 H 76.4019 -7.45795 -2.42405 0
M  V30 808 N 73.905 1.17692 -1.04816 0
M  V30 809 C 75.13 1.92327 -0.776207 0
M  V30 810 C 75.555 1.76082 0.661581 0
M  V30 811 O 74.913 1.076 1.45917 0
M  V30 812 C 74.961 3.41539 -1.15687 0
M  V30 813 O 74.065 4.11402 -0.286775 0
M  V30 814 H 73.406 0.599735 -0.284981 0
M  V30 815 H 75.936 1.49201 -1.4 0
M  V30 816 H 75.946 3.92269 -1.12202 0
M  V30 817 H 74.621 3.52684 -2.20425 0
M  V30 818 H 73.198 3.70939 -0.381903 0
M  V30 819 N 75.3831 0.828654 1.34056 0
M  V30 820 C 76.3151 0.212052 2.28217 0
M  V30 821 C 77.3281 -0.601362 1.51286 0
M  V30 822 O 78.5171 -0.430104 1.73241 0
M  V30 823 C 75.6171 -0.72088 3.31144 0
M  V30 824 C 74.7901 0.0509587 4.3737 0
M  V30 825 C 73.8491 -0.803766 5.20025 0
M  V30 826 O 72.8751 -0.246667 5.68665 0
M  V30 827 N 74.0771 -2.1227 5.40298 0
M  V30 828 H 76.8421 1.02105 2.81771 0
M  V30 829 H 74.4031 0.686153 1.46641 0
M  V30 830 H 76.3951 -1.29742 3.8334 0
M  V30 831 H 74.9651 -1.43061 2.77943 0
M  V30 832 H 74.1851 0.808831 3.85813 0
M  V30 833 H 75.4731 0.582065 5.0546 0
M  V30 834 H 74.8711 -2.59898 5.02464 0
M  V30 835 H 73.4281 -2.64796 5.95589 0
M  V30 836 N 76.8612 -1.46375 0.584142 0
M  V30 837 C 77.8112 -2.27371 -0.169232 0
M  V30 838 C 78.7952 -1.35955 -0.860523 0
M  V30 839 O 79.9872 -1.60119 -0.754382 0
M  V30 840 C 77.1162 -3.22334 -1.18134 0
M  V30 841 C 76.2022 -4.21235 -0.492088 0
M  V30 842 N 76.5932 -5.03766 0.453129 0
M  V30 843 C 74.8912 -4.39773 -0.742652 0
M  V30 844 C 75.5922 -5.75366 0.85609 0
M  V30 845 N 74.5682 -5.43214 0.204926 0
M  V30 846 H 78.3702 -2.88572 0.557097 0
M  V30 847 H 75.8842 -1.57242 0.406042 0
M  V30 848 H 77.8812 -3.79071 -1.73525 0
M  V30 849 H 76.5412 -2.62693 -1.90847 0
M  V30 850 H 77.5522 -5.11227 0.828723 0
M  V30 851 H 74.2292 -3.91279 -1.45625 0
M  V30 852 H 75.6192 -6.5172 1.63434 0
M  V30 853 N 78.3393 -0.321999 -1.54275 0
M  V30 854 C 79.5693 0.282642 -2.04658 0
M  V30 855 C 79.9773 1.46453 -1.19784 0
M  V30 856 O 79.3203 1.82367 -0.220932 0
M  V30 857 C 79.3823 0.781857 -3.50895 0
M  V30 858 C 79.0463 -0.277517 -4.56157 0
M  V30 859 C 80.0433 -1.11307 -5.07845 0
M  V30 860 C 77.7283 -0.425256 -5.00497 0
M  V30 861 C 79.7223 -2.08211 -6.02434 0
M  V30 862 C 77.4093 -1.39771 -5.94901 0
M  V30 863 C 78.4073 -2.2246 -6.45756 0
M  V30 864 O 78.0953 -3.18054 -7.38307 0
M  V30 865 H 77.8273 0.0622636 -0.673126 0
M  V30 866 H 80.3813 -0.465792 -2.00049 0
M  V30 867 H 78.6113 1.58118 -3.52896 0
M  V30 868 H 80.3003 1.30467 -3.84361 0
M  V30 869 H 81.0663 -1.00991 -4.74369 0
M  V30 870 H 76.9453 0.20847 -4.60528 0
M  V30 871 H 80.4893 -2.72791 -6.42052 0
M  V30 872 H 76.3863 -1.50152 -6.27794 0
M  V30 873 H 77.1543 -3.13275 -7.56175 0
M  V30 874 N 79.8174 1.5752 -0.0501392 0
M  V30 875 C 81.0424 1.97376 0.636997 0
M  V30 876 C 81.4674 0.927466 1.63645 0
M  V30 877 O 80.8254 -0.10941 1.8097 0
M  V30 878 C 80.8734 3.36304 1.30123 0
M  V30 879 O 79.9774 3.34156 2.41689 0
M  V30 880 H 79.3184 0.642998 0.165679 0
M  V30 881 H 81.8484 2.04258 -0.118233 0
M  V30 882 H 81.8584 3.73008 1.65315 0
M  V30 883 H 80.5334 4.11993 0.568746 0
M  V30 884 H 79.1104 3.09196 2.08451 0
M  V30 885 N 81.2955 -0.223234 1.56011 0
M  V30 886 C 82.5435 -0.946003 1.78592 0
M  V30 887 C 82.8645 -1.84936 0.618349 0
M  V30 888 O 82.1345 -1.92473 -0.364833 0
M  V30 889 H 80.7145 -0.352298 0.658707 0
M  V30 890 H 83.3765 -0.235494 1.93472 0
M  V30 891 H 82.4725 -1.55381 2.70672 0
M  V30 892 N 82.7736 -1.49793 -0.48987 0
M  V30 893 C 84.0216 -1.59525 -1.24081 0
M  V30 894 C 84.3426 -0.288953 -1.92847 0
M  V30 895 O 83.6126 0.692436 -1.83254 0
M  V30 896 H 82.1926 -0.587796 -0.460983 0
M  V30 897 H 84.8546 -1.86477 -0.566778 0
M  V30 898 H 83.9506 -2.39696 -1.99881 0
M  V30 899 N 84.2517 0.741722 -1.39055 0
M  V30 900 C 85.2017 1.84661 -1.33732 0
M  V30 901 C 86.1857 1.59397 -0.219401 0
M  V30 902 O 87.3777 1.71015 -0.456375 0
M  V30 903 C 84.5067 3.22512 -1.17647 0
M  V30 904 C 83.5927 3.53628 -2.34112 0
M  V30 905 N 83.9837 3.55723 -3.59576 0
M  V30 906 C 82.2817 3.83956 -2.26923 0
M  V30 907 C 82.9827 3.84443 -4.36553 0
M  V30 908 N 81.9587 4.01877 -3.66055 0
M  V30 909 H 85.7607 1.84576 -2.28711 0
M  V30 910 H 83.2747 0.939647 -1.32455 0
M  V30 911 H 85.2717 4.01597 -1.11917 0
M  V30 912 H 83.9317 3.2384 -0.236124 0
M  V30 913 H 84.9427 3.37196 -3.93089 0
M  V30 914 H 81.6197 3.92929 -1.41113 0
M  V30 915 H 83.0097 3.92588 -5.45274 0
M  V30 916 N 85.7298 1.2412 0.971189 0
M  V30 917 C 86.9578 1.10575 1.74874 0
M  V30 918 C 87.3728 -0.342017 1.85676 0
M  V30 919 O 86.7298 -1.23617 1.34258 0
M  V30 920 C 86.7808 1.73579 3.171 0
M  V30 921 O 86.5018 3.12695 3.06844 0
M  V30 922 C 88.0028 1.65598 4.11208 0
M  V30 923 H 85.2228 0.386504 0.548503 0
M  V30 924 H 87.7668 1.64156 1.21955 0
M  V30 925 H 85.9218 1.24009 3.67016 0
M  V30 926 H 86.3358 3.43412 3.96445 0
M  V30 927 H 87.8098 2.1437 5.08674 0
M  V30 928 H 88.2868 0.616532 4.34851 0
M  V30 929 H 88.8928 2.14578 3.67201 0
M  V30 930 N 87.2079 -1.17134 1.05439 0
M  V30 931 C 88.1409 -2.2012 0.601855 0
M  V30 932 C 89.1189 -1.58314 -0.370854 0
M  V30 933 O 90.3029 -1.8638 -0.281882 0
M  V30 934 C 87.4299 -3.38491 -0.118868 0
M  V30 935 C 86.4759 -4.18752 0.809242 0
M  V30 936 S 87.3089 -4.83602 2.29977 0
M  V30 937 C 88.4649 -6.0536 1.59029 0
M  V30 938 H 88.6979 -2.58165 1.47438 0
M  V30 939 H 86.2309 -1.27788 0.866573 0
M  V30 940 H 88.1889 -4.07084 -0.528495 0
M  V30 941 H 86.8499 -2.98829 -0.967465 0
M  V30 942 H 86.0429 -5.03373 0.251379 0
M  V30 943 H 85.6449 -3.5561 1.15835 0
M  V30 944 H 87.9369 -6.71615 0.891017 0
M  V30 945 H 88.8799 -6.65679 2.41407 0
M  V30 946 H 89.2879 -5.54138 1.07663 0
M  V30 947 N 88.686 -0.835752 -1.33615 0
M  V30 948 C 89.914 -0.443344 -2.02094 0
M  V30 949 C 90.329 0.954522 -1.62894 0
M  V30 950 O 89.686 1.61982 -0.840723 0
M  V30 951 C 89.737 -0.550775 -3.5728 0
M  V30 952 O 89.458 -1.89356 -3.95065 0
M  V30 953 C 90.959 -0.154919 -4.43029 0
M  V30 954 H 88.179 -0.176359 -0.647409 0
M  V30 955 H 90.723 -1.12746 -1.70612 0
M  V30 956 H 88.878 0.0853997 -3.87306 0
M  V30 957 H 89.292 -1.87687 -4.89769 0
M  V30 958 H 90.766 -0.281144 -5.51284 0
M  V30 959 H 91.243 0.902863 -4.2982 0
M  V30 960 H 91.849 -0.765404 -4.18356 0
M  V30 961 N 90.1641 1.46063 -0.591896 0
M  V30 962 C 91.1121 2.32124 0.148739 0
M  V30 963 C 92.1061 1.45035 0.875286 0
M  V30 964 O 93.3121 1.61609 0.792632 0
M  V30 965 H 89.6871 0.749024 0.066832 0
M  V30 966 H 91.6581 2.92392 -0.595783 0
M  V30 967 C 90.4071 3.28373 1.1431 0
M  V30 968 H 89.7301 3.95371 0.59346 0
M  V30 969 H 91.1701 3.91352 1.63155 0
M  V30 970 C 89.6291 2.54393 2.20875 0
M  V30 971 O 90.1591 2.31373 3.28374 0
M  V30 972 N 88.3651 2.14797 1.95731 0
M  V30 973 H 87.9121 2.33719 1.08319 0
M  V30 974 H 87.8701 1.65619 2.67241 0
M  V30 975 N 91.6422 0.330177 1.54103 0
M  V30 976 C 92.5892 -0.532762 2.24567 0
M  V30 977 C 93.5592 -1.10635 1.23892 0
M  V30 978 O 94.7442 -1.14546 1.5259 0
M  V30 979 C 91.8842 -1.6845 3.01195 0
M  V30 980 C 90.9972 -1.13951 4.167 0
M  V30 981 C 90.1322 -2.25746 4.80845 0
M  V30 982 C 89.1712 -1.6853 5.88442 0
M  V30 983 N 88.3082 -2.74014 6.46421 0
M  V30 984 H 93.1482 0.0746905 2.97906 0
M  V30 985 H 90.6852 0.048632 1.4702 0
M  V30 986 H 92.6432 -2.36234 3.43874 0
M  V30 987 H 91.2732 -2.26314 2.30178 0
M  V30 988 H 90.3252 -0.35301 3.78758 0
M  V30 989 H 91.6372 -0.680892 4.94131 0
M  V30 990 H 90.7912 -3.01422 5.26526 0
M  V30 991 H 89.5302 -2.74947 4.0281 0
M  V30 992 H 88.5352 -0.913543 5.42157 0
M  V30 993 H 89.7602 -1.20198 6.68378 0
M  V30 994 H 87.7062 -3.22494 5.71256 0
M  V30 995 H 87.6232 -2.32735 7.19285 0
M  V30 996 H 88.8912 -3.49499 6.96757 0
M  V30 997 N 93.1203 -1.57491 0.0584922 0
M  V30 998 C 94.3673 -1.92978 -0.613648 0
M  V30 999 C 94.6953 -0.937461 -1.70417 0
M  V30 1000 O 93.9503 0.049078 -1.95638 0
M  V30 1001 C 94.2493 -3.3513 -1.24188 0
M  V30 1002 C 93.9153 -4.50037 -0.278826 0
M  V30 1003 C 92.5773 -4.81198 -0.0138447 0
M  V30 1004 C 94.9293 -5.19807 0.380777 0
M  V30 1005 C 92.2573 -5.79473 0.918052 0
M  V30 1006 C 94.6093 -6.19079 1.30091 0
M  V30 1007 C 93.2733 -6.48665 1.57449 0
M  V30 1008 H 92.5433 -0.706157 -0.22455 0
M  V30 1009 H 95.1903 -1.91082 0.126533 0
M  V30 1010 H 93.4953 -3.33429 -2.05749 0
M  V30 1011 H 95.1923 -3.59871 -1.769 0
M  V30 1012 H 91.7823 -4.25726 -0.495539 0
M  V30 1013 H 95.9663 -4.95939 0.189158 0
M  V30 1014 H 91.2223 -6.00727 1.1374 0
M  V30 1015 H 95.3963 -6.7225 1.81804 0
M  V30 1016 H 93.0233 -7.24628 2.29822 0
M  V30 1017 N 94.5984 0.214957 -1.56127 0
M  V30 1018 C 95.8264 0.955092 -1.83536 0
M  V30 1019 C 96.2414 1.77677 -0.638472 0
M  V30 1020 O 95.5984 1.78219 0.392968 0
M  V30 1021 C 95.6494 1.86734 -3.09536 0
M  V30 1022 O 95.3704 1.07887 -4.24608 0
M  V30 1023 C 96.8714 2.72082 -3.4998 0
M  V30 1024 H 94.0914 0.279611 -0.609966 0
M  V30 1025 H 96.6354 0.228197 -2.03223 0
M  V30 1026 H 94.7904 2.5481 -2.91806 0
M  V30 1027 H 95.2044 1.69872 -4.9623 0
M  V30 1028 H 96.6784 3.31782 -4.41163 0
M  V30 1029 H 97.1554 3.44806 -2.7204 0
M  V30 1030 H 97.7614 2.09409 -3.70173 0
M  V30 1031 N 96.0765 1.50051 0.48192 0
M  V30 1032 C 97.3225 1.60736 1.2366 0
M  V30 1033 C 97.6555 0.301786 1.91841 0
M  V30 1034 O 96.9305 -0.696025 1.8162 0
M  V30 1035 C 97.2135 2.78009 2.28874 0
M  V30 1036 C 97.0665 4.18416 1.65069 0
M  V30 1037 C 98.3855 2.90867 3.30279 0
M  V30 1038 H 95.5045 0.585031 0.448228 0
M  V30 1039 H 98.1465 1.82402 0.531946 0
M  V30 1040 H 96.2965 2.59667 2.88973 0
M  V30 1041 H 97.9685 4.48322 1.0865 0
M  V30 1042 H 96.2115 4.23177 0.954148 0
M  V30 1043 H 96.8825 4.96381 2.41474 0
M  V30 1044 H 99.3585 3.07623 2.80191 0
M  V30 1045 H 98.2345 3.74566 4.01238 0
M  V30 1046 H 98.4955 2.01021 3.93755 0
M  V30 1047 N 97.5546 -0.734337 1.39446 0
M  V30 1048 C 98.8026 -1.49096 1.36436 0
M  V30 1049 C 99.1236 -1.94961 -0.0388255 0
M  V30 1050 O 98.3936 -1.69033 -0.990191 0
M  V30 1051 H 96.9736 -0.5531 0.502085 0
M  V30 1052 H 99.6356 -0.871725 1.74319 0
M  V30 1053 H 98.7316 -2.37276 2.02747 0
M  V30 1054 N 99.0327 -1.24633 -0.964593 0
M  V30 1055 C 99.9797 -1.04144 -2.05968 0
M  V30 1056 C 100.95 0.046262 -1.66036 0
M  V30 1057 O 102.135 -0.108972 -1.90489 0
M  V30 1058 C 99.2747 -0.65563 -3.38815 0
M  V30 1059 C 98.3877 -1.81714 -3.91923 0
M  V30 1060 C 97.5227 -1.37662 -5.13052 0
M  V30 1061 C 96.5617 -2.50788 -5.58365 0
M  V30 1062 N 95.6987 -2.07582 -6.70712 0
M  V30 1063 H 100.539 -1.9787 -2.22827 0
M  V30 1064 H 98.0757 -0.9855 -1.09208 0
M  V30 1065 H 100.034 -0.412954 -4.15151 0
M  V30 1066 H 98.6637 0.244627 -3.21872 0
M  V30 1067 H 97.7157 -2.1734 -3.12198 0
M  V30 1068 H 99.0277 -2.66705 -4.21509 0
M  V30 1069 H 98.1817 -1.093 -5.96773 0
M  V30 1070 H 96.9207 -0.497293 -4.85158 0
M  V30 1071 H 95.9257 -2.79906 -4.73215 0
M  V30 1072 H 97.1507 -3.39283 -5.88272 0
M  V30 1073 H 95.0967 -1.22051 -6.44546 0
M  V30 1074 H 95.0137 -2.86125 -6.99763 0
M  V30 1075 H 96.2817 -1.82369 -7.57867 0
M  V30 1076 N 100.511 1.16574 -1.06058 0
M  V30 1077 C 101.421 2.2452 -0.680282 0
M  V30 1078 C 102.437 1.71348 0.302604 0
M  V30 1079 O 103.613 2.00822 0.152513 0
M  V30 1080 C 100.678 3.46629 -0.0700315 0
M  V30 1081 C 99.7388 4.14849 -1.10448 0
M  V30 1082 C 98.9718 5.31129 -0.523256 0
M  V30 1083 O 99.1948 5.66514 0.664709 0
M  V30 1084 O 98.1288 5.88526 -1.26179 0
M  V30 1085 H 101.955 2.59355 -1.58015 0
M  V30 1086 H 99.5398 1.24043 -0.832694 0
M  V30 1087 H 101.422 4.20543 0.268667 0
M  V30 1088 H 100.097 3.13573 0.803353 0
M  V30 1089 H 99.0038 3.42916 -1.49532 0
M  V30 1090 H 100.337 4.51954 -1.94931 0
M  V30 1091 N 101.989 0.842826 1.3317 0
M  V30 1092 C 103.214 0.453129 2.02389 0
M  V30 1093 C 103.639 -0.939105 1.6298 0
M  V30 1094 O 102.997 -1.61472 0.8244 0
M  V30 1095 C 103.045 0.586094 3.55805 0
M  V30 1096 O 102.149 -0.386029 4.10589 0
M  V30 1097 H 101.49 0.183664 0.638094 0
M  V30 1098 H 104.02 1.13875 1.69981 0
M  V30 1099 H 104.03 0.469209 4.05293 0
M  V30 1100 H 102.705 1.6014 3.83833 0
M  V30 1101 H 101.282 -0.226371 3.72212 0
M  V30 1102 N 103.467 -1.45747 0.599634 0
M  V30 1103 C 104.415 -2.322 -0.136426 0
M  V30 1104 C 105.409 -1.45497 -0.867583 0
M  V30 1105 O 106.615 -1.62027 -0.78405 0
M  V30 1106 H 102.99 -0.749368 -0.0628588 0
M  V30 1107 H 104.961 -2.92072 0.611281 0
M  V30 1108 C 103.71 -3.28974 -1.12567 0
M  V30 1109 H 103.033 -3.9568 -0.572484 0
M  V30 1110 H 104.473 -3.92212 -1.61077 0
M  V30 1111 C 102.932 -2.55561 -2.19523 0
M  V30 1112 O 103.462 -2.33111 -3.27143 0
M  V30 1113 N 101.668 -2.15832 -1.94589 0
M  V30 1114 H 101.215 -2.3429 -1.07078 0
M  V30 1115 H 101.173 -1.67034 -2.66359 0
M  V30 1116 N 104.945 -0.338344 -1.53925 0
M  V30 1117 C 106.194 0.260732 -2.00008 0
M  V30 1118 C 106.507 1.52073 -1.23017 0
M  V30 1119 O 107.713 2.19672 -1.5955 0
M  V30 1120 C 106.169 0.51515 -3.56194 0
M  V30 1121 C 105.777 -0.728645 -4.42035 0
M  V30 1122 C 107.521 1.07337 -4.10706 0
M  V30 1123 C 105.428 -0.445315 -5.89721 0
M  V30 1124 H 104.358 0.101205 -0.747177 0
M  V30 1125 H 107.009 -0.452866 -1.77824 0
M  V30 1126 H 105.391 1.28932 -3.74423 0
M  V30 1127 H 106.565 -1.50352 -4.35581 0
M  V30 1128 H 104.88 -1.20813 -3.98489 0
M  V30 1129 H 107.477 1.30022 -5.18651 0
M  V30 1130 H 107.82 2.0273 -3.63602 0
M  V30 1131 H 108.353 0.360034 -3.96167 0
M  V30 1132 H 105.092 -1.36883 -6.41049 0
M  V30 1133 H 104.612 0.291569 -5.99091 0
M  V30 1134 H 106.291 -0.0606218 -6.46972 0
M  V30 1135 N 106.423 1.57458 -0.0668435 0
M  V30 1136 C 107.355 2.09413 0.931601 0
M  V30 1137 C 108.368 1.02522 1.26464 0
M  V30 1138 O 109.557 1.30049 1.22269 0
M  V30 1139 C 106.657 2.53537 2.24882 0
M  V30 1140 C 105.83 3.83944 2.09537 0
M  V30 1141 C 104.889 4.14214 3.2452 0
M  V30 1142 O 103.915 4.83891 2.9973 0
M  V30 1143 N 105.117 3.67367 4.49469 0
M  V30 1144 H 107.882 2.95699 0.488048 0
M  V30 1145 H 105.443 1.61462 0.119009 0
M  V30 1146 H 107.435 2.70853 3.00701 0
M  V30 1147 H 106.005 1.72415 2.60753 0
M  V30 1148 H 105.225 3.76057 1.18215 0
M  V30 1149 H 106.513 4.69312 1.96529 0
M  V30 1150 H 105.911 3.11068 4.72497 0
M  V30 1151 H 104.468 3.89891 5.2233 0
M  V30 1152 N 107.901 -0.206675 1.56239 0
M  V30 1153 C 109.129 -0.945345 1.8404 0
M  V30 1154 C 109.544 -1.77336 0.647885 0
M  V30 1155 O 108.901 -1.78425 -0.383511 0
M  V30 1156 C 108.952 -1.8509 3.10522 0
M  V30 1157 O 108.673 -1.05634 4.25174 0
M  V30 1158 C 110.174 -2.70222 3.51418 0
M  V30 1159 H 107.394 -0.276372 0.61144 0
M  V30 1160 H 109.938 -0.217417 2.03341 0
M  V30 1161 H 108.093 -2.53259 2.93153 0
M  V30 1162 H 108.507 -1.67238 4.97124 0
M  V30 1163 H 109.981 -3.29438 4.42916 0
M  V30 1164 H 110.458 -3.43358 2.73864 0
M  V30 1165 H 111.064 -2.07443 3.71278 0
M  V30 1166 N 109.379 -1.50304 -0.473955 0
M  V30 1167 C 110.312 -1.63595 -1.59097 0
M  V30 1168 C 111.29 -0.484142 -1.55225 0
M  V30 1169 O 112.474 -0.703271 -1.7489 0
M  V30 1170 C 109.601 -1.61589 -2.97669 0
M  V30 1171 C 108.647 -2.82295 -3.19705 0
M  V30 1172 S 109.48 -4.43635 -2.99913 0
M  V30 1173 C 110.636 -4.44317 -4.40832 0
M  V30 1174 H 110.869 -2.58082 -1.47583 0
M  V30 1175 H 108.402 -1.39531 -0.661087 0
M  V30 1176 H 110.36 -1.61116 -3.7756 0
M  V30 1177 H 109.021 -0.683421 -3.06575 0
M  V30 1178 H 108.214 -2.77188 -4.20931 0
M  V30 1179 H 107.816 -2.8032 -2.47582 0
M  V30 1180 H 110.108 -4.17703 -5.33414 0
M  V30 1181 H 111.051 -5.45911 -4.50984 0
M  V30 1182 H 111.459 -3.74059 -4.22777 0
M  V30 1183 N 110.857 0.726932 -1.39834 0
M  V30 1184 C 112.105 1.4837 -1.37225 0
M  V30 1185 C 112.426 1.94979 0.0284857 0
M  V30 1186 O 111.696 1.69555 0.981213 0
M  V30 1187 H 110.276 0.55043 -0.505011 0
M  V30 1188 H 112.938 0.862468 -1.74778 0
M  V30 1189 H 112.034 2.36198 -2.04003 0
M  V30 1190 N 112.336 1.25143 0.95797 0
M  V30 1191 C 113.584 1.09476 1.69881 0
M  V30 1192 C 113.905 -0.365502 1.91544 0
M  V30 1193 O 113.175 -1.25985 1.50015 0
M  V30 1194 H 111.755 0.402128 0.629525 0
M  V30 1195 H 114.417 1.57214 1.15194 0
M  V30 1196 H 113.513 1.60046 2.6794 0
M  V30 1197 N 113.814 -1.1601 1.06675 0
M  V30 1198 C 114.761 -2.20525 0.680967 0
M  V30 1199 C 115.731 -1.62904 -0.324283 0
M  V30 1200 O 116.916 -1.89615 -0.212294 0
M  V30 1201 C 114.056 -3.45013 0.0776551 0
M  V30 1202 C 113.169 -4.16863 1.13355 0
M  V30 1203 C 112.304 -5.2888 0.49597 0
M  V30 1204 C 111.343 -5.92537 1.53513 0
M  V30 1205 N 110.48 -6.96038 0.920631 0
M  V30 1206 H 115.32 -2.52876 1.57663 0
M  V30 1207 H 112.857 -1.24199 0.788223 0
M  V30 1208 H 114.815 -4.16193 -0.289704 0
M  V30 1209 H 113.445 -3.132 -0.781393 0
M  V30 1210 H 112.497 -3.44248 1.61857 0
M  V30 1211 H 113.809 -4.60294 1.92174 0
M  V30 1212 H 112.963 -6.06653 0.0758604 0
M  V30 1213 H 111.702 -4.86622 -0.324062 0
M  V30 1214 H 110.707 -5.13482 1.9651 0
M  V30 1215 H 111.932 -6.36873 2.35733 0
M  V30 1216 H 109.878 -6.55888 0.12138 0
M  V30 1217 H 109.795 -7.3786 1.64616 0
M  V30 1218 H 111.063 -7.77725 0.525795 0
M  V30 1219 N 115.292 -0.849877 -1.32721 0
M  V30 1220 C 116.52 -0.464754 -2.01613 0
M  V30 1221 C 116.935 0.937191 -1.63897 0
M  V30 1222 O 116.292 1.61081 -0.857856 0
M  V30 1223 C 116.343 -0.588638 -3.56675 0
M  V30 1224 O 116.064 -1.93535 -3.93034 0
M  V30 1225 C 117.565 -0.2019 -4.4284 0
M  V30 1226 H 114.785 -0.183215 -0.645502 0
M  V30 1227 H 117.329 -1.1455 -1.69407 0
M  V30 1228 H 115.484 0.0443159 -3.87375 0
M  V30 1229 H 115.898 -1.92871 -4.87751 0
M  V30 1230 H 117.372 -0.339599 -5.50954 0
M  V30 1231 H 117.849 0.857224 -4.30753 0
M  V30 1232 H 118.455 -0.809733 -4.17521 0
M  V30 1233 N 116.77 1.45427 -0.607355 0
M  V30 1234 C 118.017 2.02241 -0.102455 0
M  V30 1235 C 118.345 1.4758 1.26691 0
M  V30 1236 O 117.6 0.640468 1.84923 0
M  V30 1237 C 117.899 3.57398 -0.0129263 0
M  V30 1238 C 117.565 4.3121 -1.31792 0
M  V30 1239 C 116.227 4.51092 -1.67539 0
M  V30 1240 C 118.579 4.73401 -2.18039 0
M  V30 1241 C 115.907 5.10422 -2.89285 0
M  V30 1242 C 118.259 5.34078 -3.39034 0
M  V30 1243 C 116.923 5.52184 -3.75033 0
M  V30 1244 H 116.193 0.740051 -0.037491 0
M  V30 1245 H 118.84 1.74494 -0.788926 0
M  V30 1246 H 117.145 3.84421 0.756806 0
M  V30 1247 H 118.842 3.99061 0.393881 0
M  V30 1248 H 115.432 4.16047 -1.02968 0
M  V30 1249 H 119.616 4.57774 -1.91721 0
M  V30 1250 H 114.872 5.22629 -3.17283 0
M  V30 1251 H 119.046 5.65724 -4.06115 0
M  V30 1252 H 116.673 5.97925 -4.69457 0
M  V30 1253 N 118.248 0.346503 1.53744 0
M  V30 1254 C 119.195 -0.508914 2.25119 0
M  V30 1255 C 120.165 -1.09315 1.25058 0
M  V30 1256 O 121.35 -1.12921 1.53797 0
M  V30 1257 C 118.49 -1.65246 3.02965 0
M  V30 1258 C 117.603 -1.09525 4.17886 0
M  V30 1259 C 116.738 -2.20634 4.83212 0
M  V30 1260 C 115.777 -1.62279 5.90196 0
M  V30 1261 N 114.914 -2.67143 6.49291 0
M  V30 1262 H 119.754 0.106283 2.9781 0
M  V30 1263 H 117.291 0.0642227 1.4696 0
M  V30 1264 H 119.249 -2.32574 3.4636 0
M  V30 1265 H 117.879 -2.2386 2.32565 0
M  V30 1266 H 116.931 -0.312818 3.79112 0
M  V30 1267 H 118.243 -0.628444 4.94825 0
M  V30 1268 H 117.397 -2.95821 5.29693 0
M  V30 1269 H 116.136 -2.70659 4.05703 0
M  V30 1270 H 115.141 -0.855989 5.43096 0
M  V30 1271 H 116.366 -1.13102 6.69615 0
M  V30 1272 H 114.312 -3.16417 5.74645 0
M  V30 1273 H 114.229 -2.25093 7.21713 0
M  V30 1274 H 115.497 -3.4209 7.00425 0
M  V30 1275 N 119.726 -1.57421 0.075193 0
M  V30 1276 C 120.689 -2.11791 -0.876203 0
M  V30 1277 C 121.689 -1.04268 -1.22412 0
M  V30 1278 O 122.879 -1.30242 -1.15684 0
M  V30 1279 C 120.011 -2.62207 -2.17854 0
M  V30 1280 H 121.204 -2.9716 -0.40444 0
M  V30 1281 H 118.757 -1.55333 -0.173557 0
M  V30 1282 H 119.492 -1.803 -2.6956 0
M  V30 1283 H 119.277 -3.40802 -1.93897 0
M  V30 1284 H 120.767 -3.04335 -2.85955 0
M  V30 1285 N 121.204 0.198386 -1.56346 0
M  V30 1286 C 122.432 0.935572 -1.84539 0
M  V30 1287 C 122.847 1.76989 -0.657281 0
M  V30 1288 O 122.204 1.78626 0.374043 0
M  V30 1289 C 122.255 1.8344 -3.11499 0
M  V30 1290 O 121.976 1.03377 -4.25728 0
M  V30 1291 C 123.477 2.68355 -3.52846 0
M  V30 1292 H 120.697 0.273126 -0.612897 0
M  V30 1293 H 123.241 0.20663 -2.03453 0
M  V30 1294 H 121.396 2.51701 -2.94492 0
M  V30 1295 H 121.81 1.64599 -4.98003 0
M  V30 1296 H 123.284 3.27085 -4.44657 0
M  V30 1297 H 123.761 3.41901 -2.75681 0
M  V30 1298 H 124.367 2.05471 -3.72373 0
M  V30 1299 N 122.682 1.50554 0.465978 0
M  V30 1300 C 123.928 1.62038 1.21949 0
M  V30 1301 C 124.261 0.322116 1.9151 0
M  V30 1302 O 123.536 -0.676723 1.82348 0
M  V30 1303 C 123.819 2.80421 2.25912 0
M  V30 1304 C 123.672 4.20144 1.60622 0
M  V30 1305 C 124.991 2.94354 3.27176 0
M  V30 1306 H 122.11 0.589752 0.441998 0
M  V30 1307 H 124.752 1.82956 0.51257 0
M  V30 1308 H 122.902 2.62717 2.86203 0
M  V30 1309 H 124.574 4.49449 1.03889 0
M  V30 1310 H 122.817 4.24165 0.909211 0
M  V30 1311 H 123.488 4.98914 2.36196 0
M  V30 1312 H 125.964 3.10578 2.76913 0
M  V30 1313 H 124.84 3.788 3.97242 0
M  V30 1314 H 125.101 2.05186 3.916 0
M  V30 1315 N 124.16 -0.719506 1.40217 0
M  V30 1316 C 125.092 -1.84428 1.36084 0
M  V30 1317 C 126.105 -1.60597 0.266913 0
M  V30 1318 O 127.294 -1.70544 0.526983 0
M  V30 1319 C 124.394 -3.20757 1.094 0
M  V30 1320 C 123.567 -3.71817 2.30372 0
M  V30 1321 C 122.626 -4.86748 1.99907 0
M  V30 1322 O 121.652 -4.99603 2.72737 0
M  V30 1323 N 122.854 -5.7226 0.974635 0
M  V30 1324 H 125.619 -1.88473 2.33019 0
M  V30 1325 H 123.18 -0.900885 1.3452 0
M  V30 1326 H 125.172 -3.95235 0.870116 0
M  V30 1327 H 123.742 -3.11884 0.211452 0
M  V30 1328 H 122.962 -2.88514 2.68614 0
M  V30 1329 H 124.25 -4.02666 3.11026 0
M  V30 1330 H 123.648 -5.6448 0.371368 0
M  V30 1331 H 122.205 -6.46739 0.810656 0
M  V30 1332 N 125.638 -1.25649 -0.95132 0
M  V30 1333 C 126.571 -1.00644 -2.04807 0
M  V30 1334 C 127.549 0.0654271 -1.62468 0
M  V30 1335 O 128.733 -0.074911 -1.88351 0
M  V30 1336 C 125.86 -0.522052 -3.34653 0
M  V30 1337 C 124.906 -1.58495 -3.95957 0
M  V30 1338 S 125.739 -3.17108 -4.31512 0
M  V30 1339 C 126.895 -2.70412 -5.64471 0
M  V30 1340 H 127.128 -1.93508 -2.25703 0
M  V30 1341 H 124.661 -1.09216 -1.09139 0
M  V30 1342 H 126.619 -0.24923 -4.09743 0
M  V30 1343 H 125.28 0.386146 -3.11717 0
M  V30 1344 H 124.473 -1.1968 -4.89584 0
M  V30 1345 H 124.075 -1.80862 -3.2736 0
M  V30 1346 H 126.367 -2.14245 -6.42733 0
M  V30 1347 H 127.31 -3.62693 -6.08161 0
M  V30 1348 H 127.718 -2.10302 -5.23864 0
M  V30 1349 N 127.117 1.15442 -1.07289 0
M  V30 1350 C 128.027 2.23786 -0.704057 0
M  V30 1351 C 129.043 1.7166 0.284413 0
M  V30 1352 O 130.219 2.00972 0.131205 0
M  V30 1353 C 127.284 3.46535 -0.106792 0
M  V30 1354 C 126.345 4.13654 -1.14842 0
M  V30 1355 C 125.578 5.30544 -0.57956 0
M  V30 1356 O 125.801 5.67187 0.604585 0
M  V30 1357 O 124.735 5.87154 -1.32414 0
M  V30 1358 H 128.561 2.57664 -1.60757 0
M  V30 1359 H 126.146 1.23152 -0.845803 0
M  V30 1360 H 128.028 4.20804 0.224048 0
M  V30 1361 H 126.703 3.14407 0.770049 0
M  V30 1362 H 125.61 3.4131 -1.5316 0
M  V30 1363 H 126.943 4.49861 -1.99714 0
M  V30 1364 N 128.595 0.856903 1.32268 0
M  V30 1365 C 129.843 0.460474 1.96784 0
M  V30 1366 C 130.164 -0.987701 1.68135 0
M  V30 1367 O 129.434 -1.69058 0.989765 0
M  V30 1368 H 128.014 0.167289 0.728027 0
M  V30 1369 H 130.676 1.09383 1.61312 0
M  V30 1370 H 129.772 0.60739 3.06133 0
M  V30 1371 N 130.073 -1.45103 0.615059 0
M  V30 1372 C 131.321 -2.01784 0.112955 0
M  V30 1373 C 131.642 -1.48504 -1.26378 0
M  V30 1374 O 130.912 -0.682245 -1.83636 0
M  V30 1375 H 129.492 -0.745993 0.0387668 0
M  V30 1376 H 132.154 -1.77808 0.798141 0
M  V30 1377 H 131.25 -3.12025 0.0684069 0
M  V30 1378 N 131.551 -0.354651 -1.53558 0
M  V30 1379 C 132.498 0.496968 -2.25386 0
M  V30 1380 C 133.468 1.0865 -1.25636 0
M  V30 1381 O 134.653 1.12104 -1.54394 0
M  V30 1382 C 131.793 1.63637 -3.03837 0
M  V30 1383 C 130.906 1.07307 -4.18461 0
M  V30 1384 C 130.041 2.18068 -4.84376 0
M  V30 1385 C 129.08 1.59147 -5.91049 0
M  V30 1386 N 128.217 2.63695 -6.50699 0
M  V30 1387 H 133.057 -0.122075 -2.9775 0
M  V30 1388 H 130.594 -0.0720154 -1.46924 0
M  V30 1389 H 132.552 2.30734 -3.47589 0
M  V30 1390 H 131.182 2.22623 -2.33749 0
M  V30 1391 H 130.234 0.292708 -3.79272 0
M  V30 1392 H 131.546 0.602193 -4.95152 0
M  V30 1393 H 130.7 2.93007 -5.31255 0
M  V30 1394 H 129.439 2.68504 -4.07133 0
M  V30 1395 H 128.444 0.827175 -5.43542 0
M  V30 1396 H 129.669 1.09549 -6.70206 0
M  V30 1397 H 127.615 3.13365 -5.76315 0
M  V30 1398 H 127.532 2.21263 -7.22896 0
M  V30 1399 H 128.8 3.3837 -7.02229 0
M  V30 1400 N 133.029 1.57378 -0.0835403 0
M  V30 1401 C 133.959 2.1641 0.87686 0
M  V30 1402 C 134.94 1.09429 1.30228 0
M  V30 1403 O 136.125 1.37516 1.37124 0
M  V30 1404 C 133.255 2.73517 2.14022 0
M  V30 1405 C 132.209 3.85769 1.85381 0
M  V30 1406 C 131.535 4.29529 3.18448 0
M  V30 1407 C 132.835 5.09486 1.14984 0
M  V30 1408 H 134.529 2.96914 0.385059 0
M  V30 1409 H 132.075 1.42823 0.18377 0
M  V30 1410 H 134.028 3.13463 2.81636 0
M  V30 1411 H 132.752 1.90252 2.65465 0
M  V30 1412 H 131.411 3.46345 1.20169 0
M  V30 1413 H 131.059 3.43169 3.67755 0
M  V30 1414 H 130.759 5.05204 3.00071 0
M  V30 1415 H 132.283 4.72099 3.8724 0
M  V30 1416 H 133.697 5.46674 1.72687 0
M  V30 1417 H 132.094 5.90515 1.06826 0
M  V30 1418 H 133.164 4.84724 0.130749 0
M  V30 1419 N 134.507 -0.190092 1.56449 0
M  V30 1420 C 135.753 -0.911052 1.81184 0
M  V30 1421 C 136.086 -1.82699 0.658396 0
M  V30 1422 O 135.361 -1.91491 -0.340775 0
M  V30 1423 C 135.644 -1.72297 3.16205 0
M  V30 1424 C 135.497 -0.831419 4.42049 0
M  V30 1425 C 136.816 -2.69454 3.47969 0
M  V30 1426 H 133.935 -0.32977 0.659106 0
M  V30 1427 H 136.577 -0.178169 1.89163 0
M  V30 1428 H 134.727 -2.34778 3.09534 0
M  V30 1429 H 136.399 -0.220929 4.60771 0
M  V30 1430 H 134.642 -0.138406 4.33579 0
M  V30 1431 H 135.313 -1.43461 5.33032 0
M  V30 1432 H 137.789 -2.17104 3.54972 0
M  V30 1433 H 136.665 -3.23342 4.43555 0
M  V30 1434 H 136.926 -3.48744 2.71717 0
M  V30 1435 N 135.985 -1.50799 -0.457987 0
M  V30 1436 C 137.231 -1.62683 -1.21088 0
M  V30 1437 C 137.564 -0.332268 -1.91336 0
M  V30 1438 O 136.839 0.667043 -1.82704 0
M  V30 1439 C 137.122 -2.81615 -2.24422 0
M  V30 1440 C 136.975 -4.20989 -1.58392 0
M  V30 1441 C 138.294 -2.96085 -3.2561 0
M  V30 1442 H 135.413 -0.592087 -0.438864 0
M  V30 1443 H 138.055 -1.83225 -0.50286 0
M  V30 1444 H 136.205 -2.64231 -2.84806 0
M  V30 1445 H 137.877 -4.49994 -1.01504 0
M  V30 1446 H 136.12 -4.24641 -0.886704 0
M  V30 1447 H 136.791 -5.0016 -2.33547 0
M  V30 1448 H 139.267 -3.12042 -2.75262 0
M  V30 1449 H 138.143 -3.80902 -3.95228 0
M  V30 1450 H 138.404 -2.0726 -3.90507 0
M  V30 1451 N 137.463 0.71206 -1.40597 0
M  V30 1452 C 138.411 1.84746 -1.41321 0
M  V30 1453 C 139.405 1.66842 -0.293268 0
M  V30 1454 O 140.611 1.73904 -0.464481 0
M  V30 1455 H 136.986 0.608522 -0.441819 0
M  V30 1456 H 138.957 1.81252 -2.37045 0
M  V30 1457 C 137.706 3.22638 -1.29614 0
M  V30 1458 H 137.029 3.37023 -2.15071 0
M  V30 1459 H 138.469 4.02209 -1.3418 0
M  V30 1460 C 136.928 3.36899 -0.00673121 0
M  V30 1461 O 137.458 3.90186 0.954859 0
M  V30 1462 N 135.664 2.9053 0.0639327 0
M  V30 1463 H 135.211 2.47353 -0.719311 0
M  V30 1464 H 135.169 3.0045 0.926118 0
M  V30 1465 N 138.941 1.26152 0.944643 0
M  V30 1466 C 140.188 1.11492 1.69044 0
M  V30 1467 C 140.516 -0.342366 1.91463 0
M  V30 1468 O 139.771 -1.26812 1.49054 0
M  V30 1469 C 140.07 1.82541 3.07268 0
M  V30 1470 C 139.736 3.32445 3.04616 0
M  V30 1471 C 138.398 3.73337 3.036 0
M  V30 1472 C 140.75 4.28171 2.97185 0
M  V30 1473 C 138.078 5.08348 2.92915 0
M  V30 1474 C 140.43 5.63218 2.88041 0
M  V30 1475 C 139.094 6.03426 2.85366 0
M  V30 1476 H 138.364 0.407977 0.618576 0
M  V30 1477 H 141.011 1.56551 1.10291 0
M  V30 1478 H 139.316 1.29941 3.69625 0
M  V30 1479 H 141.013 1.68642 3.63815 0
M  V30 1480 H 137.603 2.99915 3.06185 0
M  V30 1481 H 141.787 3.97563 2.97081 0
M  V30 1482 H 137.043 5.38667 2.89219 0
M  V30 1483 H 141.217 6.37078 2.81254 0
M  V30 1484 H 138.844 7.07999 2.76842 0
M  V30 1485 N 140.419 -1.14872 1.07899 0
M  V30 1486 C 141.83 -1.67367 0.827363 0
M  V30 1487 C 142.181 -1.85236 -0.646693 0
M  V30 1488 O 141.306 -1.55974 -1.50004 0
M  V30 1489 C 141.901 -3.04016 1.49532 0
M  V30 1490 C 140.46 -3.53566 1.29106 0
M  V30 1491 C 139.607 -2.29161 1.56143 0
M  V30 1492 H 142.558 -0.990083 1.24028 0
M  V30 1493 H 142.579 -3.69219 0.919643 0
M  V30 1494 H 142.091 -2.90978 2.56814 0
M  V30 1495 H 140.192 -3.71835 0.238713 0
M  V30 1496 H 140.305 -4.34661 2.01511 0
M  V30 1497 H 138.669 -2.34978 0.982717 0
M  V30 1498 H 139.452 -2.18705 2.64619 0
M  V30 1499 N 141.898 -0.863906 -1.31812 0
M  V30 1500 C 142.846 -0.30422 -2.30602 0
M  V30 1501 C 143.84 0.577419 -1.59255 0
M  V30 1502 O 145.046 0.464194 -1.73912 0
M  V30 1503 H 141.421 -0.0796877 -0.747766 0
M  V30 1504 H 143.392 -1.15148 -2.75288 0
M  V30 1505 C 142.141 0.484617 -3.44306 0
M  V30 1506 H 141.464 -0.18451 -3.99374 0
M  V30 1507 H 142.904 0.841664 -4.15562 0
M  V30 1508 C 141.363 1.6735 -2.92396 0
M  V30 1509 O 141.893 2.77273 -2.90659 0
M  V30 1510 N 140.099 1.50362 -2.48676 0
M  V30 1511 H 139.646 0.609402 -2.50288 0
M  V30 1512 H 139.604 2.30051 -2.14299 0
M  V30 1513 N 143.376 1.44774 -0.622745 0
M  V30 1514 C 144.606 2.06187 -0.130532 0
M  V30 1515 C 145.014 1.46547 1.19669 0
M  V30 1516 O 144.357 0.579636 1.74316 0
M  V30 1517 C 144.419 3.59437 0.0674983 0
M  V30 1518 C 144.083 4.41496 -1.18026 0
M  V30 1519 C 145.08 4.75512 -2.102 0
M  V30 1520 C 142.765 4.82007 -1.41333 0
M  V30 1521 C 144.759 5.48912 -3.23998 0
M  V30 1522 C 142.446 5.55157 -2.55429 0
M  V30 1523 C 143.444 5.88528 -3.46589 0
M  V30 1524 O 143.132 6.60191 -4.58697 0
M  V30 1525 H 142.864 0.672045 -0.0730162 0
M  V30 1526 H 145.418 1.86768 -0.854802 0
M  V30 1527 H 143.648 3.77314 0.846825 0
M  V30 1528 H 145.337 4.02642 0.513209 0
M  V30 1529 H 146.103 4.4476 -1.93425 0
M  V30 1530 H 141.982 4.55457 -0.712709 0
M  V30 1531 H 145.526 5.74877 -3.95174 0
M  V30 1532 H 141.423 5.85324 -2.72151 0
M  V30 1533 H 142.191 6.78654 -4.57571 0
M  V30 1534 N 144.854 0.36279 1.53368 0
M  V30 1535 C 145.804 -0.501391 2.22419 0
M  V30 1536 C 146.788 -1.0509 1.2184 0
M  V30 1537 O 147.98 -0.981404 1.47301 0
M  V30 1538 C 145.109 -1.64201 3.01484 0
M  V30 1539 C 144.195 -1.10552 4.09438 0
M  V30 1540 N 144.586 -0.291788 5.04958 0
M  V30 1541 C 142.884 -1.3806 4.24094 0
M  V30 1542 C 143.585 0.00162655 5.817 0
M  V30 1543 N 142.561 -0.595244 5.40331 0
M  V30 1544 H 146.363 0.127159 2.93625 0
M  V30 1545 H 143.877 0.170658 1.61501 0
M  V30 1546 H 145.874 -2.27326 3.49469 0
M  V30 1547 H 144.534 -2.27365 2.31809 0
M  V30 1548 H 145.545 0.0687731 5.17854 0
M  V30 1549 H 142.222 -2.01522 3.65644 0
M  V30 1550 H 143.612 0.659278 6.68658 0
M  V30 1551 N 146.332 -1.57332 0.0918853 0
M  V30 1552 C 147.264 -2.10869 -0.898168 0
M  V30 1553 C 148.277 -1.04521 -1.24817 0
M  V30 1554 O 149.466 -1.31977 -1.20184 0
M  V30 1555 C 146.566 -2.57083 -2.2082 0
M  V30 1556 C 145.739 -3.87229 -2.03402 0
M  V30 1557 C 144.798 -4.19324 -3.17889 0
M  V30 1558 O 143.824 -4.88598 -2.91994 0
M  V30 1559 N 145.026 -3.74471 -4.43567 0
M  V30 1560 H 147.791 -2.96439 -0.440943 0
M  V30 1561 H 145.352 -1.61631 -0.0933064 0
M  V30 1562 H 147.344 -2.75602 -2.96354 0
M  V30 1563 H 145.914 -1.76541 -2.57977 0
M  V30 1564 H 145.134 -3.7789 -1.12218 0
M  V30 1565 H 146.422 -4.72379 -1.89038 0
M  V30 1566 H 145.82 -3.18546 -4.67488 0
M  V30 1567 H 144.377 -3.98151 -5.16061 0
M  V30 1568 N 147.81 0.181792 -1.56548 0
M  V30 1569 C 149.038 0.915947 -1.85521 0
M  V30 1570 C 149.453 1.76282 -0.676016 0
M  V30 1571 O 148.81 1.79012 0.355077 0
M  V30 1572 C 148.861 1.80126 -3.13427 0
M  V30 1573 O 148.582 0.988562 -4.26801 0
M  V30 1574 C 150.083 2.64597 -3.55673 0
M  V30 1575 H 147.303 0.26661 -0.61576 0
M  V30 1576 H 149.847 0.185039 -2.03661 0
M  V30 1577 H 148.002 2.48563 -2.97145 0
M  V30 1578 H 148.416 1.59308 -4.99721 0
M  V30 1579 H 149.89 3.2235 -4.48101 0
M  V30 1580 H 150.367 3.38958 -2.79292 0
M  V30 1581 H 150.973 2.0151 -3.74532 0
M  V30 1582 N 149.288 1.51039 0.449983 0
M  V30 1583 C 150.513 1.6715 1.22783 0
M  V30 1584 C 150.938 0.363081 1.84563 0
M  V30 1585 O 150.296 -0.675433 1.68249 0
M  V30 1586 C 150.344 2.77985 2.29689 0
M  V30 1587 O 149.448 2.40707 3.34864 0
M  V30 1588 H 148.789 0.557746 0.360299 0
M  V30 1589 H 151.319 1.97535 0.533005 0
M  V30 1590 H 151.329 3.01693 2.74673 0
M  V30 1591 H 150.004 3.72935 1.84098 0
M  V30 1592 H 148.581 2.27523 2.95445 0
M  V30 1593 N 150.766 -0.704594 1.40972 0
M  V30 1594 C 151.676 -1.84856 1.44448 0
M  V30 1595 C 152.692 -1.70726 0.335961 0
M  V30 1596 O 153.868 -1.92799 0.582276 0
M  V30 1597 C 150.933 -3.20758 1.31587 0
M  V30 1598 C 149.994 -3.47063 2.52677 0
M  V30 1599 C 149.227 -4.76481 2.4042 0
M  V30 1600 O 149.45 -5.52341 1.42391 0
M  V30 1601 O 148.384 -5.03367 3.30007 0
M  V30 1602 H 152.21 -1.8488 2.40942 0
M  V30 1603 H 149.795 -0.85647 1.22413 0
M  V30 1604 H 151.677 -4.01913 1.26665 0
M  V30 1605 H 150.352 -3.21438 0.382049 0
M  V30 1606 H 149.259 -2.65873 2.63177 0
M  V30 1607 H 150.592 -3.5119 3.44858 0
M  V30 1608 N 152.244 -1.26651 -0.937939 0
M  V30 1609 C 153.493 -1.11775 -1.67897 0
M  V30 1610 C 153.806 0.33794 -1.92659 0
M  V30 1611 O 155.012 0.607434 -2.64618 0
M  V30 1612 C 153.468 -1.9523 -3.02346 0
M  V30 1613 C 153.076 -3.45393 -2.8532 0
M  V30 1614 C 154.82 -1.88972 -3.80118 0
M  V30 1615 C 152.727 -4.21083 -4.15263 0
M  V30 1616 H 151.657 -0.414696 -0.629717 0
M  V30 1617 H 154.308 -1.50988 -1.04283 0
M  V30 1618 H 152.69 -1.48853 -3.66959 0
M  V30 1619 H 153.864 -3.99561 -2.29537 0
M  V30 1620 H 152.179 -3.52921 -2.20988 0
M  V30 1621 H 154.776 -2.42805 -4.76392 0
M  V30 1622 H 155.119 -0.86113 -4.07296 0
M  V30 1623 H 155.652 -2.33189 -3.22285 0
M  V30 1624 H 152.391 -5.24425 -3.93267 0
M  V30 1625 H 151.911 -3.71695 -4.70747 0
M  V30 1626 H 153.59 -4.29706 -4.83696 0
M  V30 1627 N 153.722 1.14298 -1.08507 0
M  V30 1628 C 154.968 1.85633 -0.816581 0
M  V30 1629 C 155.301 1.82784 0.656021 0
M  V30 1630 O 154.576 1.25926 1.48233 0
M  V30 1631 C 154.859 3.34223 -1.34041 0
M  V30 1632 C 154.712 3.45639 -2.87843 0
M  V30 1633 C 156.031 4.29356 -0.9665 0
M  V30 1634 H 153.15 0.67402 -0.298104 0
M  V30 1635 H 155.792 1.34214 -1.34487 0
M  V30 1636 H 153.942 3.78144 -0.89104 0
M  V30 1637 H 155.614 3.10498 -3.41158 0
M  V30 1638 H 153.857 2.86817 -3.25451 0
M  V30 1639 H 154.528 4.50089 -3.19569 0
M  V30 1640 H 157.004 3.93457 -1.35391 0
M  V30 1641 H 155.88 5.3178 -1.3602 0
M  V30 1642 H 156.141 4.41919 0.126362 0
M  V30 1643 N 155.201 0.870884 1.31352 0
M  V30 1644 C 156.449 0.48132 1.96285 0
M  V30 1645 C 156.77 -0.969813 1.69173 0
M  V30 1646 O 156.04 -1.67998 1.00764 0
M  V30 1647 H 154.62 0.175002 0.726212 0
M  V30 1648 H 157.282 1.11087 1.60143 0
M  V30 1649 H 156.378 0.639825 3.05471 0
M  V30 1650 N 156.679 -1.44442 0.630414 0
M  V30 1651 C 157.956 -1.9549 0.0655657 0
M  V30 1652 C 158.336 -1.5724 -1.40851 0
M  V30 1653 O 157.684 -0.846116 -2.12257 0
M  V30 1654 C 157.894 -3.47812 0.287691 0
M  V30 1655 C 159.242 -4.24216 0.180513 0
M  V30 1656 O 160.266 -3.55526 0.219019 0
M  V30 1657 O 159.125 -5.46434 0.0848493 0
M  V30 1658 H 156.219 -0.826688 -0.0227177 0
M  V30 1659 H 158.765 -1.54496 0.702068 0
M  V30 1660 H 157.537 -3.687 1.31056 0
M  V30 1661 H 157.16 -3.95751 -0.382984 0
M  V30 1662 N 158.157 -0.370918 -1.53173 0
M  V30 1663 C 159.104 0.473035 -2.259 0
M  V30 1664 C 160.074 1.07311 -1.26781 0
M  V30 1665 O 161.259 1.1046 -1.55574 0
M  V30 1666 C 158.399 1.60405 -3.05556 0
M  V30 1667 C 157.512 1.02863 -4.19575 0
M  V30 1668 C 156.647 2.12918 -4.86661 0
M  V30 1669 C 155.686 1.52869 -5.92704 0
M  V30 1670 N 154.823 2.56779 -6.53459 0
M  V30 1671 H 159.663 -0.153649 -2.97604 0
M  V30 1672 H 157.2 -0.0875946 -1.46839 0
M  V30 1673 H 159.158 2.27034 -3.50016 0
M  V30 1674 H 157.788 2.20131 -2.36097 0
M  V30 1675 H 156.84 0.252465 -3.79561 0
M  V30 1676 H 158.152 0.549642 -4.95762 0
M  V30 1677 H 157.306 2.87356 -5.34333 0
M  V30 1678 H 156.045 2.6417 -4.09958 0
M  V30 1679 H 155.05 0.769479 -5.44389 0
M  V30 1680 H 156.275 1.02435 -6.7133 0
M  V30 1681 H 154.221 3.07235 -5.79606 0
M  V30 1682 H 154.138 2.13583 -7.25202 0
M  V30 1683 H 155.406 3.30903 -7.05779 0
M  V30 1684 N 159.635 1.57281 -0.100228 0
M  V30 1685 C 160.565 2.17328 0.853857 0
M  V30 1686 C 161.546 1.10804 1.2906 0
M  V30 1687 O 162.731 1.38963 1.35657 0
M  V30 1688 C 159.861 2.75772 2.11109 0
M  V30 1689 C 158.815 3.87713 1.81279 0
M  V30 1690 C 158.141 4.32882 3.13874 0
M  V30 1691 C 159.441 5.10677 1.09574 0
M  V30 1692 H 161.135 2.97305 0.353545 0
M  V30 1693 H 158.681 1.43009 0.168612 0
M  V30 1694 H 160.634 3.16433 2.78296 0
M  V30 1695 H 159.358 1.93057 2.63432 0
M  V30 1696 H 158.017 3.476 1.16489 0
M  V30 1697 H 157.665 3.47051 3.64095 0
M  V30 1698 H 157.365 5.08358 2.94696 0
M  V30 1699 H 158.889 4.7618 3.82211 0
M  V30 1700 H 160.303 5.48474 1.66879 0
M  V30 1701 H 158.7 5.91615 1.00557 0
M  V30 1702 H 159.77 4.84835 0.0793299 0
M  V30 1703 N 161.113 -0.173488 1.56642 0
M  V30 1704 C 162.359 -0.891784 1.8214 0
M  V30 1705 C 162.692 -1.8199 0.677736 0
M  V30 1706 O 161.967 -1.91842 -0.320446 0
M  V30 1707 C 162.25 -1.68933 3.18015 0
M  V30 1708 C 162.103 -0.784487 4.42906 0
M  V30 1709 C 163.422 -2.65748 3.50808 0
M  V30 1710 H 160.541 -0.322761 0.662567 0
M  V30 1711 H 163.183 -0.158095 1.89341 0
M  V30 1712 H 161.333 -2.31482 3.12007 0
M  V30 1713 H 163.005 -0.172046 4.60979 0
M  V30 1714 H 161.248 -0.0924117 4.33702 0
M  V30 1715 H 161.919 -1.37799 5.34524 0
M  V30 1716 H 164.395 -2.13327 3.57255 0
M  V30 1717 H 163.271 -3.18619 4.4696 0
M  V30 1718 H 163.532 -3.45842 2.75401 0
M  V30 1719 N 162.591 -1.51276 -0.441967 0
M  V30 1720 C 163.501 -1.75092 -1.56141 0
M  V30 1721 C 164.517 -0.634963 -1.62001 0
M  V30 1722 O 165.693 -0.916686 -1.79329 0
M  V30 1723 C 162.758 -1.86666 -2.92158 0
M  V30 1724 C 161.819 -3.10506 -2.96453 0
M  V30 1725 C 161.052 -3.21519 -4.25982 0
M  V30 1726 O 161.275 -2.38586 -5.18105 0
M  V30 1727 O 160.209 -4.14465 -4.36466 0
M  V30 1728 H 164.035 -2.70044 -1.38961 0
M  V30 1729 H 161.62 -1.35722 -0.624499 0
M  V30 1730 H 163.502 -1.96292 -3.72891 0
M  V30 1731 H 162.177 -0.949014 -3.09476 0
M  V30 1732 H 161.084 -3.06363 -2.14692 0
M  V30 1733 H 162.417 -4.01945 -2.84079 0
M  V30 1734 N 164.069 0.697108 -1.41344 0
M  V30 1735 C 165.315 1.4593 -1.40827 0
M  V30 1736 C 165.648 1.94193 -0.0167098 0
M  V30 1737 O 164.923 1.69425 0.955263 0
M  V30 1738 C 165.206 2.67229 -2.41373 0
M  V30 1739 C 165.059 2.24741 -3.8963 0
M  V30 1740 C 166.378 3.69423 -2.39196 0
M  V30 1741 H 163.497 0.529303 -0.512842 0
M  V30 1742 H 166.139 0.794112 -1.72609 0
M  V30 1743 H 164.289 3.23982 -2.14401 0
M  V30 1744 H 165.961 1.73327 -4.27499 0
M  V30 1745 H 164.204 1.56542 -4.0457 0
M  V30 1746 H 164.875 3.1177 -4.55525 0
M  V30 1747 H 167.351 3.2234 -2.63128 0
M  V30 1748 H 166.227 4.51907 -3.11563 0
M  V30 1749 H 166.488 4.19012 -1.41001 0
M  V30 1750 N 165.547 1.27147 0.931209 0
M  V30 1751 C 166.772 1.16191 1.71797 0
M  V30 1752 C 167.197 -0.278004 1.86034 0
M  V30 1753 O 166.555 -1.20137 1.35782 0
M  V30 1754 C 166.603 1.84673 3.09723 0
M  V30 1755 O 165.707 1.14231 3.96264 0
M  V30 1756 H 165.048 0.404303 0.526721 0
M  V30 1757 H 167.578 1.68152 1.1656 0
M  V30 1758 H 167.588 1.91893 3.60057 0
M  V30 1759 H 166.263 2.89421 2.98677 0
M  V30 1760 H 164.84 1.15056 3.54706 0
M  V30 1761 N 167.025 -1.13721 1.09112 0
M  V30 1762 C 168.253 -1.88773 0.846899 0
M  V30 1763 C 168.668 -1.7896 -0.601572 0
M  V30 1764 O 168.025 -1.15394 -1.41388 0
M  V30 1765 C 168.076 -3.3849 1.26913 0
M  V30 1766 O 167.797 -3.48043 2.66079 0
M  V30 1767 C 169.298 -4.30518 1.05682 0
M  V30 1768 H 166.518 -0.59772 0.304914 0
M  V30 1769 H 169.062 -1.43977 1.45227 0
M  V30 1770 H 167.217 -3.80881 0.707723 0
M  V30 1771 H 167.631 -4.4109 2.83795 0
M  V30 1772 H 169.105 -5.3391 1.40156 0
M  V30 1773 H 169.582 -4.392 -0.00563416 0
M  V30 1774 H 170.188 -3.93893 1.60402 0
M  V30 1775 N 168.503 -0.877838 -1.30888 0
M  V30 1776 C 169.752 -0.488793 -1.95688 0
M  V30 1777 C 170.065 0.965485 -1.70111 0
M  V30 1778 O 171.271 1.46104 -2.28836 0
M  V30 1779 C 169.727 -0.823201 -3.50359 0
M  V30 1780 C 169.335 -2.29477 -3.84765 0
M  V30 1781 C 171.079 -0.503009 -4.21509 0
M  V30 1782 C 168.986 -2.57118 -5.32583 0
M  V30 1783 H 167.916 -0.179062 -0.732429 0
M  V30 1784 H 170.567 -1.07183 -1.48943 0
M  V30 1785 H 168.949 -0.169331 -3.95638 0
M  V30 1786 H 170.123 -2.99236 -3.5042 0
M  V30 1787 H 168.438 -2.58178 -3.267 0
M  V30 1788 H 171.035 -0.68665 -5.30273 0
M  V30 1789 H 171.378 0.557109 -4.12555 0
M  V30 1790 H 171.911 -1.11376 -3.8189 0
M  V30 1791 H 168.65 -3.61843 -5.4658 0
M  V30 1792 H 168.17 -1.91961 -5.68253 0
M  V30 1793 H 169.849 -2.42251 -5.99936 0
M  V30 1794 N 169.982 1.44106 -0.638065 0
M  V30 1795 C 171.23 2.01579 -0.145043 0
M  V30 1796 C 171.551 1.50496 1.24 0
M  V30 1797 O 170.821 0.711374 1.82527 0
M  V30 1798 H 169.401 0.745282 -0.05063 0
M  V30 1799 H 172.063 1.76516 -0.826327 0
M  V30 1800 H 171.159 3.11877 -0.118039 0
M  V30 1801 N 171.46 0.379036 1.52974 0
M  V30 1802 C 172.708 -0.206014 2.01047 0
M  V30 1803 C 173.029 -1.48175 1.26765 0
M  V30 1804 O 172.299 -1.92085 0.384743 0
M  V30 1805 H 170.879 -0.0791184 0.742798 0
M  V30 1806 H 173.541 0.508366 1.88153 0
M  V30 1807 H 172.637 -0.423501 3.09213 0
M  V30 1808 N 172.938 -1.57226 0.108567 0
M  V30 1809 C 174.184 -1.95121 -0.552761 0
M  V30 1810 C 174.517 -0.991345 -1.66991 0
M  V30 1811 O 173.792 -0.0267211 -1.94482 0
M  V30 1812 C 174.075 -3.43039 -1.09528 0
M  V30 1813 C 173.928 -4.49797 0.0177332 0
M  V30 1814 C 175.247 -3.92567 -1.98945 0
M  V30 1815 H 172.366 -0.709496 -0.199461 0
M  V30 1816 H 175.008 -1.89126 0.182011 0
M  V30 1817 H 173.158 -3.48279 -1.72146 0
M  V30 1818 H 174.83 -4.56661 0.652584 0
M  V30 1819 H 173.073 -4.284 0.682309 0
M  V30 1820 H 173.744 -5.50528 -0.402919 0
M  V30 1821 H 176.22 -3.89565 -1.46214 0
M  V30 1822 H 175.096 -4.96605 -2.33827 0
M  V30 1823 H 175.357 -3.32648 -2.91201 0
M  V30 1824 N 174.416 0.165178 -1.56732 0
M  V30 1825 C 175.644 0.896218 -1.86482 0
M  V30 1826 C 176.059 1.75555 -0.694675 0
M  V30 1827 O 175.416 1.79379 0.33607 0
M  V30 1828 C 175.467 1.76792 -3.1532 0
M  V30 1829 O 175.188 0.943239 -4.27825 0
M  V30 1830 C 176.689 2.6081 -3.58459 0
M  V30 1831 H 173.909 0.260064 -0.618553 0
M  V30 1832 H 176.453 0.163428 -2.03846 0
M  V30 1833 H 174.608 2.45398 -2.99764 0
M  V30 1834 H 175.022 1.53998 -5.01383 0
M  V30 1835 H 176.496 3.17579 -4.51495 0
M  V30 1836 H 176.973 3.35977 -2.82872 0
M  V30 1837 H 177.579 1.97526 -3.76648 0
M  V30 1838 N 175.894 1.51508 0.433938 0
M  V30 1839 C 177.124 1.67914 1.20369 0
M  V30 1840 C 177.532 0.377461 1.85397 0
M  V30 1841 O 176.875 -0.654255 1.71654 0
M  V30 1842 C 176.937 2.74045 2.32679 0
M  V30 1843 C 176.601 4.16543 1.87991 0
M  V30 1844 C 177.598 5.01211 1.38145 0
M  V30 1845 C 175.283 4.6266 1.95579 0
M  V30 1846 C 177.277 6.30056 0.964774 0
M  V30 1847 C 174.964 5.91501 1.53523 0
M  V30 1848 C 175.962 6.75027 1.04055 0
M  V30 1849 O 175.65 8.01459 0.625964 0
M  V30 1850 H 175.382 0.566578 0.368735 0
M  V30 1851 H 177.936 1.98709 0.51999 0
M  V30 1852 H 176.166 2.38572 3.04336 0
M  V30 1853 H 177.855 2.79295 2.94532 0
M  V30 1854 H 178.621 4.66783 1.31675 0
M  V30 1855 H 174.5 3.97767 2.33029 0
M  V30 1856 H 178.044 6.95202 0.57796 0
M  V30 1857 H 173.941 6.25442 1.59665 0
M  V30 1858 H 174.709 8.15043 0.751509 0
M  V30 1859 N 177.372 -0.689602 1.41712 0
M  V30 1860 C 178.282 -1.83314 1.46401 0
M  V30 1861 C 179.298 -1.7036 0.35405 0
M  V30 1862 O 180.474 -1.92171 0.602692 0
M  V30 1863 C 177.539 -3.19344 1.34982 0
M  V30 1864 C 176.6 -3.44363 2.56344 0
M  V30 1865 C 175.833 -4.73904 2.45461 0
M  V30 1866 O 176.056 -5.508 1.48241 0
M  V30 1867 O 174.99 -4.99839 3.35328 0
M  V30 1868 H 178.816 -1.82314 2.42889 0
M  V30 1869 H 176.401 -0.843438 1.23315 0
M  V30 1870 H 178.283 -4.00547 1.3092 0
M  V30 1871 H 176.958 -3.21014 0.41612 0
M  V30 1872 H 175.865 -2.63067 2.65982 0
M  V30 1873 H 177.198 -3.47512 3.48563 0
M  V30 1874 N 178.85 -1.27639 -0.924453 0
M  V30 1875 C 180.266 -1.05113 -1.20097 0
M  V30 1876 C 180.466 0.213262 -2.00368 0
M  V30 1877 O 179.522 0.91787 -2.35226 0
M  V30 1878 C 180.835 -2.29244 -1.94596 0
M  V30 1879 C 182.383 -2.34315 -2.07522 0
M  V30 1880 C 182.858 -3.58183 -2.85427 0
M  V30 1881 N 184.349 -3.5876 -2.92994 0
M  V30 1882 C 185.084 -4.51277 -3.53746 0
M  V30 1883 N 184.58 -5.54102 -4.15863 0
M  V30 1884 N 186.373 -4.38894 -3.51181 0
M  V30 1885 H 178.524 -2.08821 -0.388264 0
M  V30 1886 H 180.787 -0.918568 -0.234385 0
M  V30 1887 H 180.493 -3.21301 -1.43034 0
M  V30 1888 H 180.367 -2.34816 -2.95197 0
M  V30 1889 H 182.754 -1.42762 -2.58269 0
M  V30 1890 H 182.835 -2.32744 -1.06131 0
M  V30 1891 H 182.479 -4.50074 -2.35363 0
M  V30 1892 H 182.409 -3.57006 -3.8711 0
M  V30 1893 H 184.9 -2.84398 -2.4885 0
M  V30 1894 H 185.213 -6.20859 -4.60168 0
M  V30 1895 H 183.558 -5.57941 -4.144 0
M  V30 1896 H 186.749 -3.57772 -3.01856 0
M  V30 1897 H 186.922 -5.11186 -3.98237 0
M  V30 1898 N 180.328 1.1314 -1.09713 0
M  V30 1899 C 181.574 1.84757 -0.836224 0
M  V30 1900 C 181.907 1.8347 0.636598 0
M  V30 1901 O 181.182 1.27491 1.46889 0
M  V30 1902 C 181.465 3.32782 -1.37578 0
M  V30 1903 C 181.318 3.42567 -2.91493 0
M  V30 1904 C 182.637 4.28307 -1.01198 0
M  V30 1905 H 179.756 0.67082 -0.305236 0
M  V30 1906 H 182.398 1.3278 -1.35903 0
M  V30 1907 H 180.548 3.77177 -0.931097 0
M  V30 1908 H 182.22 3.06862 -3.44432 0
M  V30 1909 H 180.463 2.83349 -3.28475 0
M  V30 1910 H 181.134 4.46674 -3.24324 0
M  V30 1911 H 183.61 3.91999 -1.39556 0
M  V30 1912 H 182.486 5.30307 -1.41653 0
M  V30 1913 H 182.747 4.42029 0.0794833 0
M  V30 1914 N 181.806 0.884767 1.30421 0
M  V30 1915 C 183.031 0.517288 2.00845 0
M  V30 1916 C 183.456 -0.886779 1.65885 0
M  V30 1917 O 182.814 -1.58768 0.875354 0
M  V30 1918 C 182.862 0.698994 3.5376 0
M  V30 1919 O 181.966 -0.255208 4.1161 0
M  V30 1920 H 181.307 0.203872 0.631927 0
M  V30 1921 H 183.837 1.19225 1.66272 0
M  V30 1922 H 183.847 0.597912 4.03595 0
M  V30 1923 H 182.522 1.72271 3.78544 0
M  V30 1924 H 181.099 -0.10784 3.72744 0
M  V30 1925 N 183.284 -1.43765 0.645699 0
M  V30 1926 C 184.231 -2.30745 -0.0504648 0
M  V30 1927 C 185.201 -1.4432 -0.822241 0
M  V30 1928 O 186.386 -1.73202 -0.800358 0
M  V30 1929 C 183.526 -3.29802 -1.0161 0
M  V30 1930 C 182.639 -4.31326 -0.241219 0
M  V30 1931 C 181.774 -5.17469 -1.19998 0
M  V30 1932 C 180.813 -6.10691 -0.415094 0
M  V30 1933 N 179.95 -6.89483 -1.32506 0
M  V30 1934 H 184.79 -2.8973 0.697155 0
M  V30 1935 H 182.327 -1.42738 0.355563 0
M  V30 1936 H 184.285 -3.85734 -1.58949 0
M  V30 1937 H 182.915 -2.72483 -1.73069 0
M  V30 1938 H 181.967 -3.77749 0.448334 0
M  V30 1939 H 183.279 -4.9743 0.369437 0
M  V30 1940 H 182.433 -5.7799 -1.84424 0
M  V30 1941 H 181.172 -4.51473 -1.84455 0
M  V30 1942 H 180.177 -5.49265 0.242565 0
M  V30 1943 H 181.402 -6.78727 0.224966 0
M  V30 1944 H 179.348 -6.26142 -1.95657 0
M  V30 1945 H 179.265 -7.52081 -0.768783 0
M  V30 1946 H 180.533 -7.54516 -1.9577 0
M  V30 1947 N 184.763 -0.387143 -1.52771 0
M  V30 1948 C 186.179 -0.037007 -1.59557 0
M  V30 1949 C 186.379 1.44801 -1.40124 0
M  V30 1950 O 185.435 2.21227 -1.21716 0
M  V30 1951 C 186.748 -0.512256 -2.96305 0
M  V30 1952 C 188.296 -0.468328 -3.09476 0
M  V30 1953 C 188.771 -0.919731 -4.4867 0
M  V30 1954 N 190.262 -0.875656 -4.54848 0
M  V30 1955 C 190.997 -1.19637 -5.6078 0
M  V30 1956 N 190.493 -1.58745 -6.74368 0
M  V30 1957 N 192.286 -1.11776 -5.50874 0
M  V30 1958 H 184.437 -1.35395 -1.63652 0
M  V30 1959 H 186.7 -0.554818 -0.768688 0
M  V30 1960 H 186.406 -1.54935 -3.15734 0
M  V30 1961 H 186.28 0.089805 -3.77093 0
M  V30 1962 H 188.667 0.559671 -2.89744 0
M  V30 1963 H 188.748 -1.10616 -2.30646 0
M  V30 1964 H 188.392 -1.94595 -4.69143 0
M  V30 1965 H 188.322 -0.258927 -5.25963 0
M  V30 1966 H 190.813 -0.587843 -3.733 0
M  V30 1967 H 191.126 -1.81586 -7.51163 0
M  V30 1968 H 189.471 -1.6263 -6.75705 0
M  V30 1969 H 192.662 -0.811264 -4.61016 0
M  V30 1970 H 192.835 -1.37103 -6.3333 0
M  V30 1971 N 186.241 1.57166 -0.116904 0
M  V30 1972 C 187.171 2.18222 0.830759 0
M  V30 1973 C 188.152 1.12167 1.27877 0
M  V30 1974 O 189.337 1.40394 1.34176 0
M  V30 1975 C 186.467 2.77996 2.08172 0
M  V30 1976 C 185.421 3.89614 1.77157 0
M  V30 1977 C 184.747 4.36187 3.09265 0
M  V30 1978 C 186.047 5.1181 1.04151 0
M  V30 1979 H 187.741 2.97664 0.321992 0
M  V30 1980 H 185.287 1.4318 0.153434 0
M  V30 1981 H 187.24 3.19366 2.74924 0
M  V30 1982 H 185.964 1.9584 2.6137 0
M  V30 1983 H 184.623 3.48816 1.12796 0
M  V30 1984 H 184.271 3.50893 3.60393 0
M  V30 1985 H 183.971 5.11455 2.89288 0
M  V30 1986 H 185.495 4.80207 3.77139 0
M  V30 1987 H 186.909 5.50214 1.61052 0
M  V30 1988 H 185.306 5.92648 0.942762 0
M  V30 1989 H 186.376 4.84892 0.0279022 0
M  V30 1990 N 187.719 -0.156864 1.56817 0
M  V30 1991 C 188.682 -1.17781 1.96622 0
M  V30 1992 C 189.682 -1.36401 0.851555 0
M  V30 1993 O 190.872 -1.33561 1.11836 0
M  V30 1994 C 188.004 -2.54008 2.27361 0
M  V30 1995 H 189.197 -0.836564 2.87996 0
M  V30 1996 H 186.75 -0.39985 1.51099 0
M  V30 1997 H 187.485 -2.9312 1.38748 0
M  V30 1998 H 187.27 -2.41856 3.08623 0
M  V30 1999 H 188.76 -3.27558 2.59029 0
M  V30 2000 O 189.236 -1.58657 -0.301679 0
M  V30 2001 H 189.927 -1.6887 -0.948812 0
M  V30 END ATOM
M  V30 BEGIN BOND
M  V30 END BOND
M  V30 END CTAB
M  END
$$$$
