drugbank_target|P54997 2'-hydroxybiphenyl-2-sulfinate desulfinase (DB07483; DB08319)
 OpenBabel12092120443D

  0  0  0     0  0            999 V3000
M  V30 BEGIN CTAB
M  V30 COUNTS 5467 5524 0 0 0
M  V30 BEGIN ATOM
M  V30 1 H -0.908 1.98254 -0.117106 0
M  V30 2 N 0 1.576 0 0
M  V30 3 C 0.933 2.03868 1.02534 0
M  V30 4 C 1.911 0.928543 1.3348 0
M  V30 5 O 3.095 1.19667 1.45644 0
M  V30 6 C 0.222 2.43627 2.35294 0
M  V30 7 C -0.732 3.65373 2.2001 0
M  V30 8 S 0.101 5.13292 1.52614 0
M  V30 9 C 1.257 5.56322 2.86805 0
M  V30 10 H 1.49 2.90518 0.631377 0
M  V30 11 H -0.977 1.52953 0.210867 0
M  V30 12 H 0.981 2.67203 3.11629 0
M  V30 13 H -0.358 1.57376 2.7183 0
M  V30 14 H -1.165 3.90944 3.18086 0
M  V30 15 H -1.563 3.418 1.51819 0
M  V30 16 H 0.729 5.58782 3.83104 0
M  V30 17 H 1.672 6.56266 2.65933 0
M  V30 18 H 2.08 4.83886 2.90714 0
M  V30 19 N 1.4781 -0.272755 1.55222 0
M  V30 20 C 2.7061 -1.02255 1.79865 0
M  V30 21 C 3.1211 -1.79924 0.572088 0
M  V30 22 O 2.4781 -1.76638 -0.458842 0
M  V30 23 C 2.5291 -1.98094 3.02392 0
M  V30 24 O 2.2501 -1.23572 4.20311 0
M  V30 25 C 3.7511 -2.84884 3.39641 0
M  V30 26 H 0.9711 -0.302057 0.599168 0
M  V30 27 H 3.5151 -0.303465 2.02236 0
M  V30 28 H 1.6701 -2.65465 2.82147 0
M  V30 29 H 2.0841 -1.88172 4.89583 0
M  V30 30 H 3.5581 -3.47927 4.28545 0
M  V30 31 H 4.0351 -3.54665 2.59055 0
M  V30 32 H 4.6411 -2.23003 3.62146 0
M  V30 33 N 2.9562 -1.48159 -0.537278 0
M  V30 34 C 4.1812 -1.59707 -1.32319 0
M  V30 35 C 4.6062 -0.254859 -1.86365 0
M  V30 36 O 3.9642 0.772378 -1.64024 0
M  V30 37 C 4.0122 -2.6412 -2.45505 0
M  V30 38 O 3.1162 -2.20774 -3.48328 0
M  V30 39 H 2.4572 -0.535791 -0.392204 0
M  V30 40 H 4.9872 -1.94092 -0.647268 0
M  V30 41 H 4.9972 -2.85166 -2.91795 0
M  V30 42 H 3.6722 -3.61567 -2.05528 0
M  V30 43 H 2.2492 -2.09911 -3.08207 0
M  V30 44 N 4.4343 0.785586 -1.36625 0
M  V30 45 C 5.8503 1.08419 -1.17122 0
M  V30 46 C 6.0503 2.015 0.00208491 0
M  V30 47 O 5.1063 2.43551 0.666278 0
M  V30 48 C 6.4193 1.69498 -2.48377 0
M  V30 49 C 7.9673 1.81821 -2.54775 0
M  V30 50 C 8.4423 2.46315 -3.86126 0
M  V30 51 N 9.9333 2.53779 -3.87492 0
M  V30 52 C 10.6683 3.045 -4.85868 0
M  V30 53 N 10.1643 3.55499 -5.94637 0
M  V30 54 N 11.9573 3.03247 -4.73284 0
M  V30 55 H 4.1083 0.167264 -2.1174 0
M  V30 56 H 6.3713 0.13682 -0.938075 0
M  V30 57 H 6.0773 1.08571 -3.34522 0
M  V30 58 H 5.9513 2.6896 -2.64462 0
M  V30 59 H 8.3383 2.41884 -1.69045 0
M  V30 60 H 8.4193 0.811532 -2.42586 0
M  V30 61 H 8.0633 1.86895 -4.72263 0
M  V30 62 H 7.9933 3.47561 -3.95612 0
M  V30 63 H 10.4843 2.17672 -3.08913 0
M  V30 64 H 10.7973 3.92562 -6.65669 0
M  V30 65 H 9.1423 3.5364 -5.98301 0
M  V30 66 H 12.3333 2.62696 -3.87438 0
M  V30 67 H 12.5063 3.42467 -5.50109 0
M  V30 68 N 5.9124 1.20967 1.01018 0
M  V30 69 C 7.1584 1.02526 1.74975 0
M  V30 70 C 7.4914 -0.4408 1.89131 0
M  V30 71 O 6.7664 -1.32718 1.42184 0
M  V30 72 C 7.0494 1.71699 3.1653 0
M  V30 73 C 6.9024 3.25791 3.10129 0
M  V30 74 C 8.2214 1.45531 4.15342 0
M  V30 75 H 5.3404 0.373863 0.635134 0
M  V30 76 H 7.9824 1.49071 1.17805 0
M  V30 77 H 6.1324 1.32128 3.65341 0
M  V30 78 H 7.8044 3.74697 2.69072 0
M  V30 79 H 6.0474 3.56363 2.47362 0
M  V30 80 H 6.7184 3.69353 4.10222 0
M  V30 81 H 9.1944 1.79872 3.75213 0
M  V30 82 H 8.0704 1.96453 5.1254 0
M  V30 83 H 8.3314 0.384237 4.40427 0
M  V30 84 N 7.3905 -1.2043 1.01659 0
M  V30 85 C 8.6675 -1.8548 0.621004 0
M  V30 86 C 9.0475 -1.9091 -0.900919 0
M  V30 87 O 8.3955 -1.41694 -1.79263 0
M  V30 88 C 8.6055 -3.25119 1.2688 0
M  V30 89 C 9.9535 -4.01403 1.38423 0
M  V30 90 O 10.9775 -3.34473 1.22501 0
M  V30 91 O 9.8365 -5.21265 1.64151 0
M  V30 92 H 6.9305 -0.798761 0.214266 0
M  V30 93 H 9.4765 -1.28019 1.11396 0
M  V30 94 H 8.2485 -3.15932 2.30873 0
M  V30 95 H 7.8715 -3.90212 0.762917 0
M  V30 96 N 8.8686 -0.792821 -1.36206 0
M  V30 97 C 10.2796 -0.429513 -1.81692 0
M  V30 98 C 10.6306 1.04695 -1.65932 0
M  V30 99 O 9.7556 1.81256 -1.18218 0
M  V30 100 C 10.3506 -0.772831 -3.29868 0
M  V30 101 C 8.9096 -0.462307 -3.7355 0
M  V30 102 C 8.0566 -1.00569 -2.5842 0
M  V30 103 H 11.0076 -0.985672 -1.24379 0
M  V30 104 H 11.0286 -0.0651928 -3.80444 0
M  V30 105 H 10.5406 -1.84747 -3.41307 0
M  V30 106 H 8.6416 0.604158 -3.67669 0
M  V30 107 H 8.7546 -0.985299 -4.68859 0
M  V30 108 H 7.1186 -0.428734 -2.51066 0
M  V30 109 H 7.9016 -2.08616 -2.72643 0
M  V30 110 N 10.3467 1.47872 -0.545128 0
M  V30 111 C 11.3097 2.28337 0.198717 0
M  V30 112 C 12.3097 1.36255 0.853888 0
M  V30 113 O 13.4997 1.59003 0.711606 0
M  V30 114 C 10.6317 3.15585 1.28915 0
M  V30 115 H 11.8247 2.95567 -0.507941 0
M  V30 116 H 9.3777 1.53362 -0.301616 0
M  V30 117 H 10.1127 2.53019 2.02859 0
M  V30 118 H 9.8977 3.83337 0.824309 0
M  V30 119 H 11.3877 3.76243 1.81194 0
M  V30 120 N 11.8248 0.280983 1.55075 0
M  V30 121 C 12.7728 -0.619864 2.24188 0
M  V30 122 C 13.7668 -1.15315 1.24092 0
M  V30 123 O 14.9728 -1.1061 1.42005 0
M  V30 124 H 11.3478 -0.218459 0.719569 0
M  V30 125 H 13.3188 -0.0141831 2.98397 0
M  V30 126 C 12.0678 -1.7899 2.98091 0
M  V30 127 H 11.3908 -1.38874 3.74905 0
M  V30 128 H 12.8308 -2.39672 3.49762 0
M  V30 129 C 11.2898 -2.68192 2.03899 0
M  V30 130 O 11.8198 -3.6872 1.594 0
M  V30 131 N 10.0258 -2.35488 1.70275 0
M  V30 132 H 9.5728 -1.53787 2.06658 0
M  V30 133 H 9.5308 -2.95442 1.07524 0
M  V30 134 N 13.3029 -1.57598 0.00835791 0
M  V30 135 C 14.7139 -1.7892 -0.53333 0
M  V30 136 C 15.0649 -0.916609 -1.73473 0
M  V30 137 O 14.1899 -0.121336 -2.1606 0
M  V30 138 C 14.7849 -3.24488 -0.974313 0
M  V30 139 C 13.3439 -3.46878 -1.46125 0
M  V30 140 C 12.4909 -2.74157 -0.416302 0
M  V30 141 H 15.4419 -1.56958 0.234495 0
M  V30 142 H 15.4629 -3.3306 -1.83988 0
M  V30 143 H 14.9749 -3.87972 -0.099718 0
M  V30 144 H 13.0759 -2.8862 -2.35646 0
M  V30 145 H 13.1889 -4.55572 -1.48295 0
M  V30 146 H 11.5529 -2.39022 -0.87981 0
M  V30 147 H 12.3359 -3.40345 0.44947 0
M  V30 148 N 14.781 0.264519 -1.55364 0
M  V30 149 C 16.029 0.993021 -1.76021 0
M  V30 150 C 16.35 1.86511 -0.569099 0
M  V30 151 O 15.62 1.91438 0.415735 0
M  V30 152 H 14.2 0.369639 -0.649135 0
M  V30 153 H 16.862 0.286707 -1.9278 0
M  V30 154 H 15.958 1.62502 -2.66457 0
M  V30 155 N 16.2591 1.48442 0.529413 0
M  V30 156 C 17.4841 1.60406 1.31471 0
M  V30 157 C 17.9091 0.264738 1.86228 0
M  V30 158 O 17.2671 -0.763668 1.64432 0
M  V30 159 C 17.3151 2.65419 2.44101 0
M  V30 160 O 16.4191 2.22618 3.47153 0
M  V30 161 H 15.7601 0.537863 0.389357 0
M  V30 162 H 18.2901 1.94432 0.636965 0
M  V30 163 H 18.3001 2.86709 2.90279 0
M  V30 164 H 16.9751 3.62652 2.03608 0
M  V30 165 H 15.5521 2.11543 3.0709 0
M  V30 166 N 17.7372 -0.778329 1.37039 0
M  V30 167 C 18.6472 -1.92253 1.34446 0
M  V30 168 C 19.6632 -1.72267 0.244991 0
M  V30 169 O 20.8392 -1.95615 0.479258 0
M  V30 170 C 17.9042 -3.27282 1.144 0
M  V30 171 C 16.9652 -3.59969 2.33925 0
M  V30 172 C 16.1982 -4.88555 2.14825 0
M  V30 173 O 16.4212 -5.59113 1.12912 0
M  V30 174 O 15.3552 -5.20153 3.02861 0
M  V30 175 H 19.1812 -1.97392 2.30803 0
M  V30 176 H 16.7662 -0.920154 1.17701 0
M  V30 177 H 18.6482 -4.08062 1.05182 0
M  V30 178 H 17.3232 -3.23011 0.211124 0
M  V30 179 H 16.2302 -2.7945 2.48714 0
M  V30 180 H 17.5632 -3.68976 3.25757 0
M  V30 181 N 19.2153 -1.21501 -1.00376 0
M  V30 182 C 20.1453 -0.999478 -2.11028 0
M  V30 183 C 21.1263 0.0759671 -1.6993 0
M  V30 184 O 22.3113 -0.0841106 -1.94018 0
M  V30 185 C 19.4413 -0.564709 -3.42678 0
M  V30 186 C 18.3953 -1.58486 -3.97576 0
M  V30 187 C 17.7213 -1.00628 -5.25146 0
M  V30 188 C 19.0213 -2.97204 -4.29496 0
M  V30 189 H 20.7153 -1.92495 -2.29317 0
M  V30 190 H 18.2613 -0.92693 -1.102 0
M  V30 191 H 20.2143 -0.401091 -4.19487 0
M  V30 192 H 18.9383 0.396411 -3.24185 0
M  V30 193 H 17.5973 -1.73606 -3.22888 0
M  V30 194 H 17.2453 -0.0368439 -5.02987 0
M  V30 195 H 16.9453 -1.68771 -5.62841 0
M  V30 196 H 18.4693 -0.854015 -6.04598 0
M  V30 197 H 19.8833 -2.8552 -4.97143 0
M  V30 198 H 18.2803 -3.62372 -4.78338 0
M  V30 199 H 19.3503 -3.47956 -3.3772 0
M  V30 200 N 20.6934 1.19889 -1.02296 0
M  V30 201 C 21.9704 1.85148 -0.630832 0
M  V30 202 C 22.3504 1.91385 0.890782 0
M  V30 203 O 21.6984 1.42642 1.78509 0
M  V30 204 C 21.9084 3.24442 -1.28602 0
M  V30 205 C 23.2564 4.00663 -1.4055 0
M  V30 206 O 24.2804 3.33818 -1.24273 0
M  V30 207 O 23.1394 5.20387 -1.66913 0
M  V30 208 H 20.2334 0.797613 -0.218499 0
M  V30 209 H 22.7794 1.27427 -1.12074 0
M  V30 210 H 21.5514 3.14704 -2.32545 0
M  V30 211 H 21.1744 3.89802 -0.7836 0
M  V30 212 N 22.1715 0.800033 1.35784 0
M  V30 213 C 23.3965 0.388511 2.03729 0
M  V30 214 C 23.8215 -0.990481 1.5991 0
M  V30 215 O 23.1795 -1.64013 0.772612 0
M  V30 216 C 23.2275 0.4726 3.5749 0
M  V30 217 O 22.3315 -0.51646 4.09153 0
M  V30 218 H 21.6725 0.163271 0.643614 0
M  V30 219 H 24.2025 1.0841 1.73518 0
M  V30 220 H 24.2125 0.34003 4.06581 0
M  V30 221 H 22.8875 1.47848 3.88734 0
M  V30 222 H 21.4645 -0.344673 3.71304 0
M  V30 223 N 23.6496 -1.47581 0.552962 0
M  V30 224 C 24.6126 -2.28439 -0.186605 0
M  V30 225 C 25.6126 -1.36706 -0.84665 0
M  V30 226 O 26.8026 -1.59378 -0.703164 0
M  V30 227 C 23.9346 -3.16264 -1.2724 0
M  V30 228 H 25.1276 -2.95294 0.523609 0
M  V30 229 H 22.6806 -1.532 0.309745 0
M  V30 230 H 23.4156 -2.54091 -2.01514 0
M  V30 231 H 23.2006 -3.83769 -0.803968 0
M  V30 232 H 24.6906 -3.77198 -1.79196 0
M  V30 233 N 25.1277 -0.289203 -1.54924 0
M  V30 234 C 26.3767 0.324231 -1.99077 0
M  V30 235 C 26.6897 1.5591 -1.18117 0
M  V30 236 O 27.8957 2.24637 -1.52481 0
M  V30 237 C 26.3517 0.628209 -3.54375 0
M  V30 238 C 25.9597 -0.587647 -4.44129 0
M  V30 239 C 27.7037 1.20349 -4.07083 0
M  V30 240 C 25.6107 -0.257475 -5.90839 0
M  V30 241 H 24.5407 0.124924 -0.743579 0
M  V30 242 H 27.1917 -0.396063 -1.79175 0
M  V30 243 H 25.5737 1.40778 -3.70132 0
M  V30 244 H 26.7477 -1.36418 -4.40144 0
M  V30 245 H 25.0627 -1.08074 -4.0213 0
M  V30 246 H 27.6597 1.46456 -5.14252 0
M  V30 247 H 28.0027 2.14195 -3.56968 0
M  V30 248 H 28.5357 0.485889 -3.94821 0
M  V30 249 H 25.2747 -1.16419 -6.45079 0
M  V30 250 H 24.7947 0.482018 -5.9786 0
M  V30 251 H 26.4737 0.145238 -6.46837 0
M  V30 252 N 26.6058 1.57591 -0.0167156 0
M  V30 253 C 28.0218 1.55946 0.339557 0
M  V30 254 C 28.2218 1.02109 1.73713 0
M  V30 255 O 27.2778 0.662303 2.43659 0
M  V30 256 C 28.5908 3.00037 0.199499 0
M  V30 257 C 30.1388 3.11805 0.273193 0
M  V30 258 C 30.6138 4.57713 0.162068 0
M  V30 259 N 32.1048 4.6268 0.219444 0
M  V30 260 C 32.8398 5.73185 0.157054 0
M  V30 261 N 32.3358 6.92786 0.0442936 0
M  V30 262 N 34.1288 5.61707 0.21014 0
M  V30 263 H 26.2798 1.90921 -0.930758 0
M  V30 264 H 28.5428 0.877674 -0.358319 0
M  V30 265 H 28.2488 3.4333 -0.76273 0
M  V30 266 H 28.1228 3.64387 0.974786 0
M  V30 267 H 30.5098 2.68433 1.22587 0
M  V30 268 H 30.5908 2.50201 -0.532256 0
M  V30 269 H 30.2348 5.01763 -0.78714 0
M  V30 270 H 30.1648 5.17283 0.986222 0
M  V30 271 H 32.6558 3.76649 0.307246 0
M  V30 272 H 32.9688 7.728 0.00304069 0
M  V30 273 H 31.3138 6.94999 0.00968457 0
M  V30 274 H 34.5048 4.6716 0.296546 0
M  V30 275 H 34.6778 6.47807 0.158054 0
M  V30 276 N 28.0839 -0.256276 1.55502 0
M  V30 277 C 29.3609 -1.00789 1.67633 0
M  V30 278 C 29.7409 -2.03706 0.553826 0
M  V30 279 O 29.0889 -2.24145 -0.443969 0
M  V30 280 C 29.2989 -1.64968 3.07549 0
M  V30 281 C 30.6469 -2.15505 3.65845 0
M  V30 282 O 31.6709 -1.74925 3.1029 0
M  V30 283 O 30.5299 -2.89986 4.63217 0
M  V30 284 H 27.6239 -0.468553 0.681459 0
M  V30 285 H 30.1699 -0.250806 1.67836 0
M  V30 286 H 28.9419 -0.904785 3.80696 0
M  V30 287 H 28.5649 -2.47321 3.11317 0
M  V30 288 N 29.562 -1.4872 -0.521534 0
M  V30 289 C 30.79 -1.60843 -1.30142 0
M  V30 290 C 31.205 -0.271897 -1.86832 0
M  V30 291 O 30.562 0.739969 -1.66825 0
M  V30 292 C 30.613 -2.66155 -2.4463 0
M  V30 293 O 30.334 -3.94623 -1.90275 0
M  V30 294 C 31.835 -2.88795 -3.36322 0
M  V30 295 H 29.055 -0.542075 -0.395468 0
M  V30 296 H 31.599 -1.94609 -0.628285 0
M  V30 297 H 29.754 -2.35224 -3.07812 0
M  V30 298 H 30.168 -4.52468 -2.65279 0
M  V30 299 H 31.642 -3.66264 -4.12983 0
M  V30 300 H 32.119 -1.97934 -3.9207 0
M  V30 301 H 32.725 -3.21063 -2.78924 0
M  V30 302 N 31.0401 0.771051 -1.3745 0
M  V30 303 C 31.9701 1.89827 -1.3597 0
M  V30 304 C 32.9511 1.68562 -0.228216 0
M  V30 305 O 34.1361 1.8941 -0.428675 0
M  V30 306 C 31.2661 3.2712 -1.16662 0
M  V30 307 C 30.2201 3.6295 -2.2683 0
M  V30 308 C 29.5461 4.98791 -1.92644 0
M  V30 309 C 30.8461 3.69627 -3.69017 0
M  V30 310 H 32.5401 1.91323 -2.30295 0
M  V30 311 H 30.0861 0.919082 -1.10855 0
M  V30 312 H 32.0391 4.05615 -1.14256 0
M  V30 313 H 30.7631 3.26059 -0.187926 0
M  V30 314 H 29.4221 2.86763 -2.28392 0
M  V30 315 H 29.0701 4.94271 -0.933021 0
M  V30 316 H 28.7701 5.23733 -2.66416 0
M  V30 317 H 30.2941 5.79685 -1.91826 0
M  V30 318 H 31.7081 4.38273 -3.69581 0
M  V30 319 H 30.1051 4.06067 -4.41848 0
M  V30 320 H 31.1751 2.70273 -4.02592 0
M  V30 321 N 32.5182 1.22032 0.997298 0
M  V30 322 C 33.7462 1.06841 1.7718 0
M  V30 323 C 34.1612 -0.381325 1.84909 0
M  V30 324 O 33.5182 -1.26437 1.31605 0
M  V30 325 C 33.5692 1.66814 3.20711 0
M  V30 326 O 33.2902 3.06116 3.13408 0
M  V30 327 C 34.7912 1.56838 4.14628 0
M  V30 328 H 32.0112 0.374782 0.556578 0
M  V30 329 H 34.5552 1.61532 1.2541 0
M  V30 330 H 32.7102 1.16196 3.69564 0
M  V30 331 H 33.1242 3.34926 4.0364 0
M  V30 332 H 34.5982 2.03532 5.13107 0
M  V30 333 H 35.0752 0.524155 4.36061 0
M  V30 334 H 35.6812 2.06741 3.7167 0
M  V30 335 N 33.9963 -1.19345 1.0293 0
M  V30 336 C 35.2263 -1.92717 0.744563 0
M  V30 337 C 35.6343 -1.75751 -0.700579 0
M  V30 338 O 34.9773 -1.07703 -1.48815 0
M  V30 339 C 35.0393 -3.44828 1.01657 0
M  V30 340 C 34.7033 -3.85564 2.45335 0
M  V30 341 C 35.7003 -3.90286 3.43472 0
M  V30 342 C 33.3853 -4.1719 2.79746 0
M  V30 343 C 35.3793 -4.26065 4.74075 0
M  V30 344 C 33.0663 -4.52642 4.10559 0
M  V30 345 C 34.0643 -4.57054 5.07534 0
M  V30 346 O 33.7523 -4.91685 6.36004 0
M  V30 347 H 33.4843 -0.618977 0.271742 0
M  V30 348 H 36.0383 -1.52415 1.37691 0
M  V30 349 H 34.2683 -3.85314 0.327084 0
M  V30 350 H 35.9573 -3.99437 0.721427 0
M  V30 351 H 36.7233 -3.66002 3.18225 0
M  V30 352 H 32.6023 -4.1294 2.04943 0
M  V30 353 H 36.1463 -4.29423 5.49765 0
M  V30 354 H 32.0433 -4.76383 4.35579 0
M  V30 355 H 32.8113 -5.09631 6.40483 0
M  V30 356 N 35.4744 -0.807222 -1.35358 0
M  V30 357 C 36.6994 -0.399309 -2.0352 0
M  V30 358 C 37.1244 0.981986 -1.60433 0
M  V30 359 O 36.4824 1.63601 -0.781299 0
M  V30 360 C 36.5304 -0.491552 -3.57234 0
M  V30 361 O 35.6344 0.494754 -4.09421 0
M  V30 362 H 34.9754 -0.166682 -0.642739 0
M  V30 363 H 37.5054 -1.09328 -1.72941 0
M  V30 364 H 37.5154 -0.361588 -4.06395 0
M  V30 365 H 36.1904 -1.49907 -3.87944 0
M  V30 366 H 34.7674 0.324977 -3.71481 0
M  V30 367 N 36.9525 1.47285 -0.560781 0
M  V30 368 C 37.9005 2.31756 0.197942 0
M  V30 369 C 38.8945 1.43146 0.905854 0
M  V30 370 O 40.1005 1.59891 0.826733 0
M  V30 371 H 36.4755 0.747438 0.0827049 0
M  V30 372 H 38.4465 2.9359 -0.533629 0
M  V30 373 C 37.1955 3.25874 1.21249 0
M  V30 374 H 36.5185 3.94023 0.67719 0
M  V30 375 H 37.9585 3.87803 1.71419 0
M  V30 376 C 36.4175 2.49651 2.26221 0
M  V30 377 O 36.9475 2.24355 3.33208 0
M  V30 378 N 35.1535 2.10597 2.00243 0
M  V30 379 H 34.7005 2.31369 1.13252 0
M  V30 380 H 34.6585 1.59913 2.70694 0
M  V30 381 N 38.4306 0.297415 1.54768 0
M  V30 382 C 39.6706 -0.313829 2.01976 0
M  V30 383 C 40.0346 -1.51366 1.1812 0
M  V30 384 O 41.2356 -2.19603 1.5501 0
M  V30 385 C 39.5066 -0.664964 3.51159 0
M  V30 386 S 41.0656 -1.25958 4.20333 0
M  V30 387 H 37.8836 -0.0965014 0.704421 0
M  V30 388 H 40.4856 0.424451 1.90837 0
M  V30 389 H 39.1896 0.21681 4.09827 0
M  V30 390 H 38.7206 -1.43413 3.66328 0
M  V30 391 H 40.7356 -2.54751 4.25813 0
M  V30 392 N 39.9087 -1.5758 0.0250728 0
M  V30 393 C 41.3197 -1.79476 -0.514323 0
M  V30 394 C 41.6707 -0.934956 -1.72491 0
M  V30 395 O 40.7957 -0.144245 -2.15919 0
M  V30 396 C 41.3907 -3.25503 -0.939842 0
M  V30 397 C 39.9497 -3.48408 -1.42438 0
M  V30 398 C 39.0967 -2.74583 -0.387201 0
M  V30 399 H 42.0477 -1.567 0.25113 0
M  V30 400 H 42.0687 -3.34992 -1.80445 0
M  V30 401 H 41.5807 -3.88056 -0.0585628 0
M  V30 402 H 39.6817 -2.91103 -2.32572 0
M  V30 403 H 39.7947 -4.57119 -1.43455 0
M  V30 404 H 38.1587 -2.39942 -0.854409 0
M  V30 405 H 38.9417 -3.39849 0.485543 0
M  V30 406 N 41.3868 0.248026 -1.55636 0
M  V30 407 C 42.6328 0.97767 -1.77678 0
M  V30 408 C 42.9658 1.85016 -0.590135 0
M  V30 409 O 42.2408 1.90095 0.411611 0
M  V30 410 C 42.5238 1.83914 -3.09593 0
M  V30 411 C 42.3768 0.99491 -4.38659 0
M  V30 412 C 43.6958 2.82183 -3.37729 0
M  V30 413 H 40.8148 0.354005 -0.646413 0
M  V30 414 H 43.4568 0.248253 -1.88371 0
M  V30 415 H 41.6068 2.46104 -3.00608 0
M  V30 416 H 43.2788 0.391789 -4.59633 0
M  V30 417 H 41.5218 0.299231 -4.32767 0
M  V30 418 H 42.1928 1.63145 -5.2734 0
M  V30 419 H 44.6688 2.30129 -3.4667 0
M  V30 420 H 43.5448 3.39582 -4.31249 0
M  V30 421 H 43.8058 3.58588 -2.58586 0
M  V30 422 N 42.8649 1.48995 0.513639 0
M  V30 423 C 44.2759 1.5119 1.09537 0
M  V30 424 C 44.6269 0.290906 1.94031 0
M  V30 425 O 43.7519 -0.60049 2.07902 0
M  V30 426 C 44.3469 2.73964 1.99322 0
M  V30 427 C 42.9059 2.78978 2.52682 0
M  V30 428 C 42.0529 2.44934 1.30009 0
M  V30 429 H 45.0039 1.55875 0.298125 0
M  V30 430 H 45.0249 2.53409 2.83838 0
M  V30 431 H 44.5369 3.62813 1.37799 0
M  V30 432 H 42.6379 1.94378 3.1788 0
M  V30 433 H 42.7509 3.8083 2.90698 0
M  V30 434 H 41.1149 1.9644 1.62122 0
M  V30 435 H 41.8979 3.36043 0.702131 0
M  V30 436 N 44.343 -0.763751 1.37857 0
M  V30 437 C 45.291 -1.89864 1.34367 0
M  V30 438 C 46.285 -1.67816 0.231143 0
M  V30 439 O 47.491 -1.75508 0.399617 0
M  V30 440 H 43.866 -0.624501 0.41893 0
M  V30 441 H 45.837 -1.89925 2.30155 0
M  V30 442 C 44.586 -3.27227 1.1755 0
M  V30 443 H 43.909 -3.44773 2.02414 0
M  V30 444 H 45.349 -4.06911 1.1916 0
M  V30 445 C 43.808 -3.36692 -0.118311 0
M  V30 446 O 44.338 -3.86374 -1.09902 0
M  V30 447 N 42.544 -2.90092 -0.171717 0
M  V30 448 H 42.091 -2.49853 0.627012 0
M  V30 449 H 42.049 -2.96806 -1.03699 0
M  V30 450 N 45.8211 -1.22559 -0.990812 0
M  V30 451 C 46.7841 -0.998863 -2.0629 0
M  V30 452 C 47.7841 0.0354834 -1.60761 0
M  V30 453 O 48.9741 -0.203231 -1.7301 0
M  V30 454 C 46.1061 -0.509203 -3.37076 0
M  V30 455 H 47.2991 -1.95014 -2.27837 0
M  V30 456 H 44.8521 -1.04456 -1.16269 0
M  V30 457 H 45.5871 0.446335 -3.21214 0
M  V30 458 H 45.3721 -1.25547 -3.71457 0
M  V30 459 H 46.8621 -0.370888 -4.1595 0
M  V30 460 N 47.2992 1.18797 -1.03562 0
M  V30 461 C 48.2292 2.24472 -0.643019 0
M  V30 462 C 49.2102 1.66433 0.351283 0
M  V30 463 O 50.3952 1.92803 0.232505 0
M  V30 464 C 47.5252 3.473 4.24935e-05 0
M  V30 465 C 46.4792 4.18055 -0.917257 0
M  V30 466 C 45.8052 5.34519 -0.138941 0
M  V30 467 C 47.1052 4.72109 -2.23407 0
M  V30 468 H 48.7992 2.57566 -1.52643 0
M  V30 469 H 46.3452 1.23806 -0.735394 0
M  V30 470 H 48.2982 4.20426 0.286383 0
M  V30 471 H 47.0222 3.13424 0.918299 0
M  V30 472 H 45.6812 3.46821 -1.1879 0
M  V30 473 H 45.3292 4.96891 0.781562 0
M  V30 474 H 45.0292 5.82794 -0.750005 0
M  V30 475 H 46.5532 6.10438 0.1405 0
M  V30 476 H 47.9672 5.36955 -2.00879 0
M  V30 477 H 46.3642 5.30897 -2.79765 0
M  V30 478 H 47.4342 3.89807 -2.88407 0
M  V30 479 N 48.7773 0.814389 1.34928 0
M  V30 480 C 49.7073 0.244827 2.32213 0
M  V30 481 C 50.6883 -0.634024 1.57842 0
M  V30 482 O 51.8733 -0.562676 1.8587 0
M  V30 483 C 49.0033 -0.601106 3.42058 0
M  V30 484 C 47.9573 0.179896 4.27622 0
M  V30 485 C 47.2833 -0.788237 5.28858 0
M  V30 486 C 48.5833 1.38329 5.03649 0
M  V30 487 H 50.2773 1.05763 2.80097 0
M  V30 488 H 47.8233 0.510029 1.34665 0
M  V30 489 H 49.7763 -1.00968 4.09125 0
M  V30 490 H 48.5003 -1.44688 2.92802 0
M  V30 491 H 47.1593 0.569739 3.62146 0
M  V30 492 H 46.8073 -1.62973 4.75866 0
M  V30 493 H 46.5073 -0.269942 5.8698 0
M  V30 494 H 48.0313 -1.19485 5.98795 0
M  V30 495 H 49.4453 1.04918 5.63618 0
M  V30 496 H 47.8423 1.83662 5.71304 0
M  V30 497 H 48.9123 2.16592 4.33839 0
M  V30 498 N 50.2554 -1.46986 0.568584 0
M  V30 499 C 51.4834 -2.0683 0.0539956 0
M  V30 500 C 51.8984 -1.41953 -1.24478 0
M  V30 501 O 51.2554 -0.519933 -1.74937 0
M  V30 502 C 51.3064 -3.61254 -0.133362 0
M  V30 503 O 51.0274 -4.237 1.11399 0
M  V30 504 C 52.5284 -4.37992 -0.683927 0
M  V30 505 H 49.7484 -0.669058 0.0510141 0
M  V30 506 H 52.2924 -1.88824 0.785234 0
M  V30 507 H 50.4474 -3.78735 -0.81477 0
M  V30 508 H 50.8614 -5.16388 0.91888 0
M  V30 509 H 52.3354 -5.46684 -0.764263 0
M  V30 510 H 52.8124 -4.05058 -1.69778 0
M  V30 511 H 53.4184 -4.25283 -0.0378494 0
M  V30 512 N 51.7335 -0.305618 -1.54608 0
M  V30 513 C 52.6965 0.555591 -2.22364 0
M  V30 514 C 53.6965 1.05768 -1.21119 0
M  V30 515 O 54.8865 0.952972 -1.45822 0
M  V30 516 C 52.0185 1.76974 -2.91364 0
M  V30 517 H 53.2115 -0.0364572 -2.99878 0
M  V30 518 H 50.7645 -0.0565007 -1.56198 0
M  V30 519 H 51.4995 2.40151 -2.17941 0
M  V30 520 H 51.2845 1.41732 -3.65588 0
M  V30 521 H 52.7745 2.38148 -3.43038 0
M  V30 522 N 53.2116 1.57565 -0.0334293 0
M  V30 523 C 54.4366 1.96689 0.657895 0
M  V30 524 C 54.8616 0.910057 1.64619 0
M  V30 525 O 54.2196 -0.128598 1.80843 0
M  V30 526 C 54.2676 3.34905 1.33683 0
M  V30 527 O 53.3716 3.31574 2.45219 0
M  V30 528 H 52.7126 0.641205 0.172489 0
M  V30 529 H 55.2426 2.04372 -0.0965621 0
M  V30 530 H 55.2526 3.71234 1.69262 0
M  V30 531 H 53.9276 4.11366 0.612411 0
M  V30 532 H 52.5046 3.06968 2.11719 0
M  V30 533 N 54.6897 -0.239769 1.55765 0
M  V30 534 C 55.5997 -1.31831 1.94056 0
M  V30 535 C 56.6157 -1.52275 0.841925 0
M  V30 536 O 57.7917 -1.65759 1.14394 0
M  V30 537 C 54.8567 -2.65156 2.23368 0
M  V30 538 C 53.9177 -2.53173 3.46701 0
M  V30 539 C 53.1507 -3.8014 3.74606 0
M  V30 540 O 53.3737 -4.82343 3.04469 0
M  V30 541 O 52.3077 -3.78344 4.68123 0
M  V30 542 H 56.1337 -1.02347 2.85935 0
M  V30 543 H 53.7187 -0.441123 1.42739 0
M  V30 544 H 55.6007 -3.43929 2.43497 0
M  V30 545 H 54.2757 -2.94358 1.34666 0
M  V30 546 H 53.1827 -1.72662 3.31871 0
M  V30 547 H 54.5157 -2.28915 4.35728 0
M  V30 548 N 56.1678 -1.49265 -0.50573 0
M  V30 549 C 57.3928 -1.62478 -1.28902 0
M  V30 550 C 57.8178 -0.294332 -1.85783 0
M  V30 551 O 57.1758 0.737412 -1.65626 0
M  V30 552 C 57.2238 -2.69268 -2.39848 0
M  V30 553 O 56.3278 -2.28113 -3.43567 0
M  V30 554 H 55.6688 -0.54399 -0.380751 0
M  V30 555 H 58.1988 -1.95421 -0.605952 0
M  V30 556 H 58.2088 -2.91291 -2.85681 0
M  V30 557 H 56.8838 -3.65846 -1.97812 0
M  V30 558 H 55.4608 -2.16401 -3.03685 0
M  V30 559 N 57.6459 0.756429 -1.3826 0
M  V30 560 C 58.8939 1.51248 -1.34047 0
M  V30 561 C 59.2149 1.94875 0.0698372 0
M  V30 562 O 58.4849 1.67436 1.01696 0
M  V30 563 H 57.0649 0.561018 -0.493222 0
M  V30 564 H 59.7269 0.899347 -1.7291 0
M  V30 565 H 58.8229 2.40472 -1.98947 0
M  V30 566 N 59.124 1.23083 0.984299 0
M  V30 567 C 60.371 1.06057 1.72505 0
M  V30 568 C 60.699 -0.403105 1.90277 0
M  V30 569 O 59.954 -1.3149 1.44944 0
M  V30 570 C 60.253 1.72673 3.1292 0
M  V30 571 C 59.919 3.22586 3.15038 0
M  V30 572 C 58.581 3.63489 3.15324 0
M  V30 573 C 60.933 4.185 3.10657 0
M  V30 574 C 58.261 4.98772 3.08939 0
M  V30 575 C 60.613 5.53769 3.05814 0
M  V30 576 C 59.277 5.94041 3.04419 0
M  V30 577 H 58.547 0.388091 0.631242 0
M  V30 578 H 61.194 1.52963 1.15215 0
M  V30 579 H 59.499 1.18116 3.73572 0
M  V30 580 H 61.196 1.56982 3.68996 0
M  V30 581 H 57.786 2.90022 3.15571 0
M  V30 582 H 61.97 3.87911 3.09579 0
M  V30 583 H 57.226 5.29193 3.0621 0
M  V30 584 H 61.4 6.27808 3.0138 0
M  V30 585 H 59.027 6.98833 2.99227 0
M  V30 586 N 60.6021 -1.18246 1.0419 0
M  V30 587 C 61.5321 -2.24127 0.654914 0
M  V30 588 C 62.5131 -1.66617 -0.342451 0
M  V30 589 O 63.6981 -1.92924 -0.222277 0
M  V30 590 C 60.8281 -3.47295 0.0183757 0
M  V30 591 C 59.7821 -4.17563 0.939414 0
M  V30 592 C 59.1081 -5.34438 0.167286 0
M  V30 593 C 60.4081 -4.70917 2.25908 0
M  V30 594 H 62.1021 -2.56753 1.54007 0
M  V30 595 H 59.6481 -1.23414 0.74195 0
M  V30 596 H 61.6011 -4.20572 -0.264082 0
M  V30 597 H 60.3251 -3.13907 -0.901664 0
M  V30 598 H 58.9841 -3.46186 1.20628 0
M  V30 599 H 58.6321 -4.97298 -0.7552 0
M  V30 600 H 58.3321 -5.82388 0.780901 0
M  V30 601 H 59.8561 -6.10504 -0.108125 0
M  V30 602 H 61.2701 -5.35882 2.03724 0
M  V30 603 H 59.6671 -5.29406 2.82577 0
M  V30 604 H 60.7371 -3.88272 2.9047 0
M  V30 605 N 62.0802 -0.821533 -1.34494 0
M  V30 606 C 63.3572 -0.33159 -1.92769 0
M  V30 607 C 63.7372 1.18088 -1.74981 0
M  V30 608 O 63.0852 1.98733 -1.12772 0
M  V30 609 C 63.2952 -0.759398 -3.40638 0
M  V30 610 C 64.6432 -0.757433 -4.1779 0
M  V30 611 O 65.6672 -0.70189 -3.49216 0
M  V30 612 O 64.5262 -0.829361 -5.4017 0
M  V30 613 H 61.6202 -0.0902502 -0.822061 0
M  V30 614 H 64.1662 -0.906231 -1.43477 0
M  V30 615 H 62.9382 -1.8012 -3.47379 0
M  V30 616 H 62.5612 -0.160378 -3.97276 0
M  V30 617 N 63.5583 1.46682 -0.576371 0
M  V30 618 C 64.5213 2.28707 0.150239 0
M  V30 619 C 65.5213 1.38035 0.824794 0
M  V30 620 O 66.7113 1.60476 0.677719 0
M  V30 621 C 63.8433 3.18248 1.22192 0
M  V30 622 H 65.0363 2.94423 -0.570521 0
M  V30 623 H 62.5893 1.52688 -0.334078 0
M  V30 624 H 63.3243 2.57265 1.97447 0
M  V30 625 H 63.1093 3.85 0.742812 0
M  V30 626 H 64.5993 3.80001 1.73172 0
M  V30 627 N 65.0364 0.313813 1.54444 0
M  V30 628 C 65.9994 -0.54379 2.22656 0
M  V30 629 C 66.9994 -1.05124 1.21678 0
M  V30 630 O 68.1894 -0.945225 1.46325 0
M  V30 631 C 65.3214 -1.75427 2.92298 0
M  V30 632 H 66.5144 0.0523599 2.99854 0
M  V30 633 H 64.0674 0.0647834 1.56166 0
M  V30 634 H 64.8024 -2.38991 2.19211 0
M  V30 635 H 64.5874 -1.39791 3.66334 0
M  V30 636 H 66.0774 -2.36325 3.44297 0
M  V30 637 N 66.5145 -1.57545 0.0417849 0
M  V30 638 C 67.7625 -1.91937 -0.632829 0
M  V30 639 C 68.0835 -0.919978 -1.71934 0
M  V30 640 O 67.3535 0.0366064 -1.95866 0
M  V30 641 H 65.9335 -0.708493 -0.236742 0
M  V30 642 H 68.5955 -1.9468 0.0925745 0
M  V30 643 H 67.6915 -2.92912 -1.07746 0
M  V30 644 N 67.9926 0.231505 -1.5589 0
M  V30 645 C 69.2416 0.955346 -1.7764 0
M  V30 646 C 69.5546 1.85893 -0.608546 0
M  V30 647 O 70.7606 2.62067 -0.70943 0
M  V30 648 C 69.2166 1.74886 -3.14552 0
M  V30 649 C 68.8246 0.891915 -4.39032 0
M  V30 650 C 70.5686 2.46452 -3.45633 0
M  V30 651 C 68.4756 1.68221 -5.66971 0
M  V30 652 H 67.4056 0.360446 -0.662265 0
M  V30 653 H 70.0566 0.209516 -1.823 0
M  V30 654 H 68.4386 2.53723 -3.04041 0
M  V30 655 H 69.6126 0.144793 -4.60572 0
M  V30 656 H 67.9276 0.288863 -4.15397 0
M  V30 657 H 70.5246 3.06061 -4.38441 0
M  V30 658 H 70.8676 3.18841 -2.67668 0
M  V30 659 H 71.4006 1.74613 -3.57428 0
M  V30 660 H 68.1396 1.00178 -6.478 0
M  V30 661 H 67.6596 2.4042 -5.49507 0
M  V30 662 H 69.3386 2.24544 -6.06786 0
M  V30 663 N 69.4707 1.49531 0.497807 0
M  V30 664 C 70.3807 1.69176 1.62532 0
M  V30 665 C 71.3967 0.5744 1.64246 0
M  V30 666 O 72.5727 0.849497 1.82608 0
M  V30 667 C 69.6377 1.75695 2.98885 0
M  V30 668 C 68.6987 2.9929 3.07773 0
M  V30 669 C 67.9317 3.05488 4.37622 0
M  V30 670 O 68.1547 2.19192 5.26603 0
M  V30 671 O 67.0887 3.9798 4.51548 0
M  V30 672 H 70.9147 2.647 1.48887 0
M  V30 673 H 68.4997 1.3331 0.674441 0
M  V30 674 H 70.3817 1.82317 3.79919 0
M  V30 675 H 69.0567 0.8335 3.12785 0
M  V30 676 H 67.9637 2.98183 2.25915 0
M  V30 677 H 69.2967 3.91125 2.98801 0
M  V30 678 N 70.9488 -0.749086 1.3866 0
M  V30 679 C 71.8788 -1.8764 1.38973 0
M  V30 680 C 72.8598 -1.68178 0.255004 0
M  V30 681 O 74.0448 -1.88704 0.458754 0
M  V30 682 C 71.1748 -3.25222 1.21851 0
M  V30 683 C 70.1288 -3.59295 2.32575 0
M  V30 684 C 69.4548 -4.95663 2.00555 0
M  V30 685 C 70.7548 -3.63709 3.7485 0
M  V30 686 H 72.4488 -1.87635 2.3331 0
M  V30 687 H 69.9948 -0.901329 1.12303 0
M  V30 688 H 71.9478 -4.03746 1.20695 0
M  V30 689 H 70.6718 -3.25719 0.239775 0
M  V30 690 H 69.3308 -2.83093 2.32925 0
M  V30 691 H 68.9788 -4.92724 1.01154 0
M  V30 692 H 68.6788 -5.19429 2.74714 0
M  V30 693 H 70.2028 -5.7656 2.01024 0
M  V30 694 H 71.6168 -4.32338 3.76506 0
M  V30 695 H 70.0138 -3.98986 4.48252 0
M  V30 696 H 71.0838 -2.63834 4.06841 0
M  V30 697 N 72.4269 -1.23603 -0.977757 0
M  V30 698 C 73.7039 -0.977897 -1.69401 0
M  V30 699 C 74.0839 0.502738 -2.05026 0
M  V30 700 O 73.4319 1.47459 -1.74551 0
M  V30 701 C 73.6419 -1.89077 -2.93345 0
M  V30 702 C 74.9899 -2.15579 -3.65802 0
M  V30 703 O 76.0139 -1.86648 -3.03383 0
M  V30 704 O 74.8729 -2.64658 -4.78141 0
M  V30 705 H 71.9669 -0.369025 -0.740101 0
M  V30 706 H 74.5129 -1.34657 -1.03274 0
M  V30 707 H 73.2849 -2.89158 -2.63634 0
M  V30 708 H 72.9079 -1.52463 -3.67207 0
M  V30 709 N 73.905 1.17692 -1.04816 0
M  V30 710 C 75.151 1.88137 -0.75711 0
M  V30 711 C 75.484 1.80604 0.713841 0
M  V30 712 O 74.759 1.21146 1.52164 0
M  V30 713 C 75.042 3.38318 -1.2334 0
M  V30 714 C 74.895 3.54622 -2.76701 0
M  V30 715 C 76.214 4.32214 -0.829415 0
M  V30 716 H 73.333 0.683163 -0.27651 0
M  V30 717 H 75.975 1.38424 -1.30149 0
M  V30 718 H 74.125 3.80787 -0.770286 0
M  V30 719 H 75.797 3.21194 -3.31107 0
M  V30 720 H 74.04 2.97026 -3.16161 0
M  V30 721 H 74.711 4.60028 -3.05088 0
M  V30 722 H 77.187 3.97565 -1.22805 0
M  V30 723 H 76.063 5.35838 -1.19033 0
M  V30 724 H 76.324 4.41294 0.266891 0
M  V30 725 N 75.3831 0.828654 1.34056 0
M  V30 726 C 76.3131 0.269443 2.3194 0
M  V30 727 C 77.2941 -0.617247 1.58506 0
M  V30 728 O 78.4791 -0.542931 1.86456 0
M  V30 729 C 75.6091 -0.564793 3.42677 0
M  V30 730 C 74.5631 0.225241 4.27407 0
M  V30 731 C 73.8891 -0.7321 5.29664 0
M  V30 732 C 75.1891 1.43663 5.02154 0
M  V30 733 H 76.8831 1.08728 2.7896 0
M  V30 734 H 74.4291 0.524283 1.34117 0
M  V30 735 H 76.3821 -0.966233 4.10173 0
M  V30 736 H 75.1061 -1.41574 2.9432 0
M  V30 737 H 73.7651 0.608117 3.61521 0
M  V30 738 H 73.4131 -1.57916 4.77568 0
M  V30 739 H 73.1131 -0.20767 5.87233 0
M  V30 740 H 74.6371 -1.13128 6.00029 0
M  V30 741 H 76.0511 1.1089 5.62473 0
M  V30 742 H 74.4481 1.89711 5.69324 0
M  V30 743 H 75.5181 2.21181 4.31517 0
M  V30 744 N 76.8612 -1.46375 0.584142 0
M  V30 745 C 78.0862 -2.07268 0.0740405 0
M  V30 746 C 78.5112 -1.42979 -1.22223 0
M  V30 747 O 77.8692 -0.514092 -1.73859 0
M  V30 748 C 77.9172 -3.60518 -0.0767769 0
M  V30 749 O 77.0212 -3.96533 -1.13292 0
M  V30 750 H 76.3622 -0.660961 0.0634524 0
M  V30 751 H 78.8922 -1.87991 0.807492 0
M  V30 752 H 78.9022 -4.07021 -0.282489 0
M  V30 753 H 77.5772 -4.06702 0.86986 0
M  V30 754 H 76.1542 -3.61738 -0.905553 0
M  V30 755 N 78.3393 -0.321999 -1.54275 0
M  V30 756 C 79.5873 0.280489 -2.00144 0
M  V30 757 C 79.9083 1.52777 -1.21178 0
M  V30 758 O 79.1783 1.9338 -0.313187 0
M  V30 759 H 77.7583 0.106632 -0.73935 0
M  V30 760 H 80.4203 -0.438184 -1.8991 0
M  V30 761 H 79.5163 0.537972 -3.07428 0
M  V30 762 N 79.8174 1.5752 -0.0501392 0
M  V30 763 C 80.7494 2.08413 0.95376 0
M  V30 764 C 81.7624 1.01175 1.27544 0
M  V30 765 O 82.9514 1.28744 1.23641 0
M  V30 766 C 80.0514 2.51138 2.27559 0
M  V30 767 C 79.2244 3.817 2.13598 0
M  V30 768 C 78.2834 4.10749 3.28895 0
M  V30 769 O 77.3094 4.80685 3.04845 0
M  V30 770 N 78.5114 3.62579 4.5334 0
M  V30 771 H 81.2764 2.95165 0.519383 0
M  V30 772 H 78.8374 1.61327 0.136127 0
M  V30 773 H 80.8294 2.67648 3.03557 0
M  V30 774 H 79.3994 1.6964 2.62567 0
M  V30 775 H 78.6194 3.74782 1.22197 0
M  V30 776 H 79.9074 4.67201 2.01496 0
M  V30 777 H 79.3054 3.06039 4.75769 0
M  V30 778 H 77.8624 3.84329 5.26436 0
M  V30 779 N 81.2955 -0.223234 1.56011 0
M  V30 780 C 82.2275 -1.30006 1.88762 0
M  V30 781 C 83.2405 -1.43129 0.775746 0
M  V30 782 O 84.4295 -1.44057 1.05403 0
M  V30 783 C 81.5295 -2.67589 2.07965 0
M  V30 784 C 80.7025 -2.76434 3.38973 0
M  V30 785 C 79.7615 -3.95019 3.47629 0
M  V30 786 O 78.7875 -3.83436 4.20672 0
M  V30 787 N 79.9895 -5.09249 2.78649 0
M  V30 788 H 82.7545 -1.02238 2.81722 0
M  V30 789 H 80.3155 -0.413278 1.56536 0
M  V30 790 H 82.3075 -3.45297 2.11073 0
M  V30 791 H 80.8775 -2.87964 1.21638 0
M  V30 792 H 80.0975 -1.85216 3.47978 0
M  V30 793 H 81.3855 -2.79313 4.25278 0
M  V30 794 H 80.7835 -5.21556 2.19081 0
M  V30 795 H 79.3405 -5.85007 2.8742 0
M  V30 796 N 82.7736 -1.49793 -0.48987 0
M  V30 797 C 84.0216 -1.59525 -1.24081 0
M  V30 798 C 84.3426 -0.288953 -1.92847 0
M  V30 799 O 83.6126 0.692436 -1.83254 0
M  V30 800 H 82.1926 -0.587796 -0.460983 0
M  V30 801 H 84.8546 -1.86477 -0.566778 0
M  V30 802 H 83.9506 -2.39696 -1.99881 0
M  V30 803 N 84.2517 0.741722 -1.39055 0
M  V30 804 C 85.4797 1.53098 -1.39171 0
M  V30 805 C 85.8947 1.88794 0.0155099 0
M  V30 806 O 85.2517 1.53626 0.985159 0
M  V30 807 C 85.3027 2.82274 -2.2584 0
M  V30 808 O 85.0237 2.48097 -3.61081 0
M  V30 809 C 86.5247 3.76343 -2.34266 0
M  V30 810 H 83.7447 0.473335 -0.4756 0
M  V30 811 H 86.2887 0.917045 -1.82785 0
M  V30 812 H 84.4437 3.40015 -1.85656 0
M  V30 813 H 84.8577 3.31029 -4.06842 0
M  V30 814 H 86.3317 4.63898 -2.9917 0
M  V30 815 H 86.8087 4.17619 -1.35982 0
M  V30 816 H 87.4147 3.24523 -2.74891 0
M  V30 817 N 85.7298 1.2412 0.971189 0
M  V30 818 C 86.9758 1.08041 1.71625 0
M  V30 819 C 87.3088 -0.380407 1.90438 0
M  V30 820 O 86.5838 -1.28127 1.46334 0
M  V30 821 C 86.8668 1.81682 3.10908 0
M  V30 822 C 86.7198 3.35493 2.99608 0
M  V30 823 C 88.0388 1.58671 4.10501 0
M  V30 824 H 85.1578 0.39388 0.622919 0
M  V30 825 H 87.7998 1.52743 1.13003 0
M  V30 826 H 85.9498 1.43684 3.60953 0
M  V30 827 H 87.6218 3.83068 2.57015 0
M  V30 828 H 85.8648 3.64052 2.35899 0
M  V30 829 H 86.5358 3.82217 3.98264 0
M  V30 830 H 89.0118 1.91719 3.69301 0
M  V30 831 H 87.8878 2.1266 5.06031 0
M  V30 832 H 88.1488 0.524161 4.38982 0
M  V30 833 N 87.2079 -1.17134 1.05439 0
M  V30 834 C 88.1579 -2.1919 0.627675 0
M  V30 835 C 89.1419 -1.57328 -0.337147 0
M  V30 836 O 90.3339 -1.76329 -0.153976 0
M  V30 837 C 87.4629 -3.43299 0.00651435 0
M  V30 838 C 86.5489 -4.12255 0.995312 0
M  V30 839 N 86.9399 -4.56997 2.16765 0
M  V30 840 C 85.2379 -4.38316 0.824336 0
M  V30 841 C 85.9389 -5.10239 2.7934 0
M  V30 842 N 84.9149 -5.02595 2.07122 0
M  V30 843 H 88.7169 -2.5149 1.52086 0
M  V30 844 H 86.2309 -1.33491 0.924868 0
M  V30 845 H 88.2279 -4.15693 -0.316965 0
M  V30 846 H 86.8879 -3.1249 -0.882033 0
M  V30 847 H 87.8989 -4.51006 2.54587 0
M  V30 848 H 84.5759 -4.17498 -0.0129526 0
M  V30 849 H 85.9659 -5.54961 3.78772 0
M  V30 850 N 88.686 -0.835752 -1.33615 0
M  V30 851 C 89.933 -0.429959 -1.97883 0
M  V30 852 C 90.261 1.01006 -1.66217 0
M  V30 853 O 89.516 1.72047 -0.93265 0
M  V30 854 C 89.815 -0.593925 -3.52431 0
M  V30 855 C 89.481 -2.00158 -4.04039 0
M  V30 856 C 88.143 -2.38662 -4.17844 0
M  V30 857 C 90.495 -2.92117 -4.31644 0
M  V30 858 C 87.823 -3.68435 -4.56588 0
M  V30 859 C 90.175 -4.21368 -4.71838 0
M  V30 860 C 88.839 -4.59833 -4.83849 0
M  V30 861 H 88.109 -0.157333 -0.724104 0
M  V30 862 H 90.756 -1.06217 -1.59343 0
M  V30 863 H 89.061 0.121619 -3.91611 0
M  V30 864 H 90.758 -0.260282 -4.00154 0
M  V30 865 H 87.348 -1.69252 -3.93766 0
M  V30 866 H 91.532 -2.63608 -4.20505 0
M  V30 867 H 86.788 -3.98046 -4.64079 0
M  V30 868 H 90.962 -4.92703 -4.92155 0
M  V30 869 H 88.589 -5.60438 -5.13627 0
M  V30 870 N 90.1641 1.46063 -0.591896 0
M  V30 871 C 91.3921 2.06717 -0.0868936 0
M  V30 872 C 91.8071 1.43916 1.22203 0
M  V30 873 O 91.1641 0.547698 1.74088 0
M  V30 874 C 91.2151 3.6142 0.0758725 0
M  V30 875 O 90.9361 4.21874 -1.18126 0
M  V30 876 C 92.4371 4.39025 0.61416 0
M  V30 877 H 89.6571 0.668162 -0.0616518 0
M  V30 878 H 92.2011 1.8755 -0.815175 0
M  V30 879 H 90.3561 3.79983 0.754413 0
M  V30 880 H 90.7701 5.14861 -1.00092 0
M  V30 881 H 92.2441 5.4783 0.677193 0
M  V30 882 H 92.7211 4.07708 1.63312 0
M  V30 883 H 93.3271 4.2529 -0.0298142 0
M  V30 884 N 91.6422 0.330177 1.54103 0
M  V30 885 C 92.8722 -0.271784 2.04805 0
M  V30 886 C 93.2802 -1.45816 1.20559 0
M  V30 887 O 92.6232 -1.82247 0.2306 0
M  V30 888 C 92.6852 -0.763238 3.51305 0
M  V30 889 C 92.3492 0.301705 4.56003 0
M  V30 890 C 93.3462 1.13999 5.07248 0
M  V30 891 C 91.0312 0.451793 5.00264 0
M  V30 892 C 93.0252 2.11402 6.01322 0
M  V30 893 C 90.7122 1.42924 5.94151 0
M  V30 894 C 91.7102 2.25882 6.44567 0
M  V30 895 O 91.3982 3.21965 7.3661 0
M  V30 896 H 91.1302 -0.058693 0.673447 0
M  V30 897 H 93.6842 0.476395 1.99799 0
M  V30 898 H 91.9142 -1.56244 3.5373 0
M  V30 899 H 93.6032 -1.28427 3.85047 0
M  V30 900 H 94.3692 1.03505 4.73827 0
M  V30 901 H 90.2482 -0.184044 4.60632 0
M  V30 902 H 93.7922 2.76192 6.40596 0
M  V30 903 H 89.6892 1.53479 6.26988 0
M  V30 904 H 90.4572 3.17281 7.54503 0
M  V30 905 N 93.1203 -1.57491 0.0584922 0
M  V30 906 C 94.3973 -1.84346 -0.653918 0
M  V30 907 C 94.7773 -0.948355 -1.88599 0
M  V30 908 O 94.1253 -0.0112403 -2.28497 0
M  V30 909 C 94.3353 -3.34239 -1.00425 0
M  V30 910 C 95.6833 -4.01431 -1.38342 0
M  V30 911 O 96.7073 -3.38907 -1.09637 0
M  V30 912 O 95.5663 -5.11683 -1.91943 0
M  V30 913 H 92.6603 -0.761112 -0.323478 0
M  V30 914 H 95.2063 -1.6947 0.0884125 0
M  V30 915 H 93.9783 -3.91089 -0.128625 0
M  V30 916 H 93.6013 -3.54329 -1.80378 0
M  V30 917 N 94.5984 0.214957 -1.56127 0
M  V30 918 C 95.5304 1.29004 -1.89448 0
M  V30 919 C 96.5434 1.42716 -0.783326 0
M  V30 920 O 97.7324 1.43496 -1.06166 0
M  V30 921 C 94.8324 2.66482 -2.09381 0
M  V30 922 C 94.0054 2.74633 -3.40434 0
M  V30 923 C 93.0644 3.9317 -3.49719 0
M  V30 924 O 92.0904 3.812 -4.227 0
M  V30 925 N 93.2924 5.07765 -2.81346 0
M  V30 926 H 96.0574 1.00743 -2.82261 0
M  V30 927 H 93.6184 0.40497 -1.56753 0
M  V30 928 H 95.6104 3.44173 -2.12901 0
M  V30 929 H 94.1804 2.87314 -1.23163 0
M  V30 930 H 93.4004 1.83368 -3.48955 0
M  V30 931 H 94.6884 2.77054 -4.26754 0
M  V30 932 H 94.0864 5.20386 -2.21843 0
M  V30 933 H 92.6434 5.83474 -2.90519 0
M  V30 934 N 96.0765 1.50051 0.48192 0
M  V30 935 C 97.4875 1.5348 1.06305 0
M  V30 936 C 97.8385 0.331997 1.93371 0
M  V30 937 O 96.9635 -0.556256 2.09129 0
M  V30 938 C 97.5585 2.7813 1.93466 0
M  V30 939 C 96.1175 2.84275 2.46707 0
M  V30 940 C 95.2645 2.47637 1.24785 0
M  V30 941 H 98.2155 1.56472 0.264995 0
M  V30 942 H 98.2365 2.59372 2.78399 0
M  V30 943 H 97.7485 3.65654 1.30072 0
M  V30 944 H 95.8495 2.01077 3.13686 0
M  V30 945 H 95.9625 3.8691 2.82555 0
M  V30 946 H 94.3265 1.99835 1.57918 0
M  V30 947 H 95.1095 3.37457 0.630694 0
M  V30 948 N 97.5546 -0.734337 1.39446 0
M  V30 949 C 98.5176 -1.83004 1.37994 0
M  V30 950 C 99.5176 -1.58397 0.276938 0
M  V30 951 O 100.708 -1.65785 0.534875 0
M  V30 952 C 97.8396 -3.20802 1.1532 0
M  V30 953 H 99.0326 -1.85694 2.35494 0
M  V30 954 H 96.5856 -0.938059 1.25021 0
M  V30 955 H 97.3206 -3.23772 0.185036 0
M  V30 956 H 97.1056 -3.4006 1.95197 0
M  V30 957 H 98.5956 -4.00862 1.17046 0
M  V30 958 N 99.0327 -1.24633 -0.964593 0
M  V30 959 C 100.263 -1.11339 -1.74032 0
M  V30 960 C 100.671 0.336593 -1.86182 0
M  V30 961 O 100.014 1.24389 -1.35178 0
M  V30 962 C 100.076 -1.68284 -3.1768 0
M  V30 963 C 99.7397 -3.17196 -3.28992 0
M  V30 964 C 100.737 -4.14308 -3.14078 0
M  V30 965 C 98.4217 -3.57215 -3.53133 0
M  V30 966 C 100.416 -5.4942 -3.23135 0
M  V30 967 C 98.1027 -4.92468 -3.61827 0
M  V30 968 C 99.1007 -5.8838 -3.46841 0
M  V30 969 O 98.7887 -7.21173 -3.55197 0
M  V30 970 H 98.5207 -0.389551 -0.552472 0
M  V30 971 H 101.075 -1.65282 -1.21946 0
M  V30 972 H 99.3047 -1.08777 -3.71085 0
M  V30 973 H 100.994 -1.50234 -3.77074 0
M  V30 974 H 101.76 -3.84731 -2.95308 0
M  V30 975 H 97.6387 -2.83063 -3.63863 0
M  V30 976 H 101.183 -6.24263 -3.11355 0
M  V30 977 H 97.0797 -5.21714 -3.80111 0
M  V30 978 H 97.8477 -7.29135 -3.71892 0
M  V30 979 N 100.511 1.16574 -1.06058 0
M  V30 980 C 101.739 1.90952 -0.796552 0
M  V30 981 C 102.154 1.77302 0.648808 0
M  V30 982 O 101.511 1.11605 1.44397 0
M  V30 983 C 101.562 3.41736 -1.17894 0
M  V30 984 O 101.283 3.54975 -2.56758 0
M  V30 985 C 102.784 4.33169 -0.942308 0
M  V30 986 H 100.004 0.605594 -0.288959 0
M  V30 987 H 102.548 1.47777 -1.41358 0
M  V30 988 H 100.703 3.82623 -0.606491 0
M  V30 989 H 101.117 4.4846 -2.72 0
M  V30 990 H 102.591 5.37439 -1.25952 0
M  V30 991 H 103.068 4.3903 0.122078 0
M  V30 992 H 103.674 3.98007 -1.49902 0
M  V30 993 N 101.989 0.842826 1.3317 0
M  V30 994 C 103.405 0.531128 1.50503 0
M  V30 995 C 103.605 -0.940734 1.78192 0
M  V30 996 O 102.661 -1.72436 1.84451 0
M  V30 997 C 103.974 1.40789 2.65705 0
M  V30 998 C 105.522 1.40708 2.79589 0
M  V30 999 C 105.997 2.26878 3.97857 0
M  V30 1000 N 107.488 2.24609 4.05099 0
M  V30 1001 C 108.223 2.88019 4.95815 0
M  V30 1002 N 107.719 3.60496 5.9162 0
M  V30 1003 N 109.512 2.77469 4.88843 0
M  V30 1004 H 101.663 1.79557 1.1346 0
M  V30 1005 H 103.926 0.766267 0.558156 0
M  V30 1006 H 103.632 2.454 2.51936 0
M  V30 1007 H 103.506 1.08677 3.61205 0
M  V30 1008 H 105.893 0.368668 2.92788 0
M  V30 1009 H 105.974 1.76829 1.84838 0
M  V30 1010 H 105.618 3.3078 3.85418 0
M  V30 1011 H 105.548 1.88096 4.91861 0
M  V30 1012 H 108.039 1.71906 3.36536 0
M  V30 1013 H 108.352 4.06076 6.57512 0
M  V30 1014 H 106.697 3.64604 5.91683 0
M  V30 1015 H 109.888 2.20406 4.12963 0
M  V30 1016 H 110.061 3.2717 5.59342 0
M  V30 1017 N 103.467 -1.45747 0.599634 0
M  V30 1018 C 104.714 -2.02292 0.0917284 0
M  V30 1019 C 105.042 -1.46906 -1.27472 0
M  V30 1020 O 104.297 -0.630652 -1.8526 0
M  V30 1021 C 104.596 -3.57399 -0.00602758 0
M  V30 1022 C 104.262 -4.31902 1.29503 0
M  V30 1023 C 102.924 -4.51974 1.65144 0
M  V30 1024 C 105.276 -4.74551 2.15525 0
M  V30 1025 C 102.604 -5.11949 2.86574 0
M  V30 1026 C 104.956 -5.35868 3.36196 0
M  V30 1027 C 103.62 -5.54165 3.72099 0
M  V30 1028 H 102.89 -0.740239 0.0335658 0
M  V30 1029 H 105.537 -1.7491 0.779661 0
M  V30 1030 H 103.842 -3.84014 -0.777183 0
M  V30 1031 H 105.539 -3.98846 -0.415038 0
M  V30 1032 H 102.129 -4.16588 1.00761 0
M  V30 1033 H 106.313 -4.58784 1.8929 0
M  V30 1034 H 101.569 -5.24305 3.14507 0
M  V30 1035 H 105.743 -5.6787 4.03109 0
M  V30 1036 H 103.37 -6.00406 4.6628 0
M  V30 1037 N 104.945 -0.338344 -1.53925 0
M  V30 1038 C 106.193 0.259245 -2.0043 0
M  V30 1039 C 106.514 1.51484 -1.22791 0
M  V30 1040 O 105.784 1.93037 -0.33368 0
M  V30 1041 H 104.364 0.0987845 -0.740439 0
M  V30 1042 H 107.026 -0.458302 -1.89435 0
M  V30 1043 H 106.122 0.505334 -3.07982 0
M  V30 1044 N 106.423 1.57458 -0.0668435 0
M  V30 1045 C 107.671 1.92919 0.602214 0
M  V30 1046 C 107.992 0.947215 1.70449 0
M  V30 1047 O 107.262 -0.00544117 1.95899 0
M  V30 1048 H 105.842 0.71217 0.22544 0
M  V30 1049 H 108.504 1.94508 -0.123535 0
M  V30 1050 H 107.6 2.94589 1.03073 0
M  V30 1051 N 107.901 -0.206675 1.56239 0
M  V30 1052 C 108.811 -1.27686 1.96808 0
M  V30 1053 C 109.827 -1.50455 0.874035 0
M  V30 1054 O 111.003 -1.63295 1.17884 0
M  V30 1055 C 108.068 -2.60358 2.28942 0
M  V30 1056 C 107.129 -2.45762 3.51994 0
M  V30 1057 C 106.362 -3.72108 3.82585 0
M  V30 1058 O 106.585 -4.75776 3.14631 0
M  V30 1059 O 105.519 -3.6833 4.76043 0
M  V30 1060 H 109.345 -0.962593 2.88041 0
M  V30 1061 H 106.93 -0.410746 1.43643 0
M  V30 1062 H 108.812 -3.38687 2.50737 0
M  V30 1063 H 107.487 -2.91435 1.4088 0
M  V30 1064 H 106.394 -1.65584 3.35459 0
M  V30 1065 H 107.727 -2.19621 4.40486 0
M  V30 1066 N 109.379 -1.50304 -0.473955 0
M  V30 1067 C 110.628 -1.60392 -1.22301 0
M  V30 1068 C 110.941 -0.308411 -1.93153 0
M  V30 1069 O 112.147 -0.288156 -2.69966 0
M  V30 1070 C 110.603 -2.83109 -2.2221 0
M  V30 1071 C 110.211 -4.19524 -1.57173 0
M  V30 1072 C 111.955 -3.0254 -2.97775 0
M  V30 1073 C 109.862 -5.33431 -2.55353 0
M  V30 1074 H 108.792 -0.597286 -0.460179 0
M  V30 1075 H 111.443 -1.76731 -0.493803 0
M  V30 1076 H 109.825 -2.60322 -2.9841 0
M  V30 1077 H 110.999 -4.52554 -0.867824 0
M  V30 1078 H 109.314 -4.05674 -0.939002 0
M  V30 1079 H 111.911 -3.84811 -3.71248 0
M  V30 1080 H 112.254 -2.14154 -3.56992 0
M  V30 1081 H 112.787 -3.25494 -2.28688 0
M  V30 1082 H 109.526 -6.23962 -2.00878 0
M  V30 1083 H 109.046 -5.04823 -3.23904 0
M  V30 1084 H 110.725 -5.63887 -3.17239 0
M  V30 1085 N 110.857 0.726932 -1.39834 0
M  V30 1086 C 112.268 1.30558 -1.3346 0
M  V30 1087 C 112.619 1.962 -0.00273003 0
M  V30 1088 O 111.744 1.96826 0.899371 0
M  V30 1089 C 112.339 2.37404 -2.41713 0
M  V30 1090 C 110.898 2.90921 -2.38835 0
M  V30 1091 C 110.045 1.64578 -2.2318 0
M  V30 1092 H 112.996 0.523862 -1.49804 0
M  V30 1093 H 113.017 3.17984 -2.08966 0
M  V30 1094 H 112.529 1.89599 -3.38635 0
M  V30 1095 H 110.63 3.42985 -1.45575 0
M  V30 1096 H 110.743 3.43487 -3.33997 0
M  V30 1097 H 109.107 1.89219 -1.70494 0
M  V30 1098 H 109.89 1.18814 -3.22084 0
M  V30 1099 N 112.336 1.25143 0.95797 0
M  V30 1100 C 113.747 1.08851 1.51685 0
M  V30 1101 C 114.098 -0.33687 1.93286 0
M  V30 1102 O 113.223 -1.22644 1.7829 0
M  V30 1103 C 113.818 1.96978 2.75654 0
M  V30 1104 C 112.377 1.84881 3.27866 0
M  V30 1105 C 111.524 1.91329 2.0072 0
M  V30 1106 H 114.475 1.38478 0.77522 0
M  V30 1107 H 114.496 1.5078 3.4935 0
M  V30 1108 H 114.008 3.00712 2.45345 0
M  V30 1109 H 112.109 0.840182 3.63004 0
M  V30 1110 H 112.222 2.6951 3.96107 0
M  V30 1111 H 110.586 1.35174 2.15871 0
M  V30 1112 H 111.369 2.96661 1.72764 0
M  V30 1113 N 113.814 -1.1601 1.06675 0
M  V30 1114 C 114.744 -2.22688 0.702307 0
M  V30 1115 C 115.725 -1.67306 -0.307032 0
M  V30 1116 O 116.91 -1.93352 -0.181305 0
M  V30 1117 C 114.04 -3.47178 0.092038 0
M  V30 1118 C 112.994 -4.15477 1.02777 0
M  V30 1119 C 112.32 -5.33963 0.28061 0
M  V30 1120 C 113.62 -4.66019 2.35846 0
M  V30 1121 H 115.314 -2.53429 1.59419 0
M  V30 1122 H 112.86 -1.21813 0.767961 0
M  V30 1123 H 114.813 -4.21037 -0.174814 0
M  V30 1124 H 113.537 -3.15749 -0.834877 0
M  V30 1125 H 112.196 -3.43549 1.27944 0
M  V30 1126 H 111.844 -4.98788 -0.649545 0
M  V30 1127 H 111.544 -5.806 0.904258 0
M  V30 1128 H 113.068 -6.10596 0.021396 0
M  V30 1129 H 114.482 -5.3144 2.15045 0
M  V30 1130 H 112.879 -5.23293 2.93743 0
M  V30 1131 H 113.949 -3.82023 2.98641 0
M  V30 1132 N 115.292 -0.849877 -1.32721 0
M  V30 1133 C 116.222 -0.306308 -2.31482 0
M  V30 1134 C 117.203 0.591952 -1.59468 0
M  V30 1135 O 118.388 0.513199 -1.87296 0
M  V30 1136 C 115.518 0.510204 -3.43532 0
M  V30 1137 C 114.472 -0.293209 -4.26994 0
M  V30 1138 C 113.798 0.647743 -5.30762 0
M  V30 1139 C 115.098 -1.51634 -4.99804 0
M  V30 1140 H 116.792 -1.13153 -2.77195 0
M  V30 1141 H 114.338 -0.545553 -1.33266 0
M  V30 1142 H 116.291 0.900856 -4.11658 0
M  V30 1143 H 115.015 1.36874 -2.96535 0
M  V30 1144 H 113.674 -0.665555 -3.60508 0
M  V30 1145 H 113.322 1.50299 -4.8002 0
M  V30 1146 H 113.022 0.11422 -5.87489 0
M  V30 1147 H 114.546 1.03567 -6.01753 0
M  V30 1148 H 115.96 -1.19824 -5.60638 0
M  V30 1149 H 114.357 -1.98745 -5.66234 0
M  V30 1150 H 115.427 -2.28018 -4.27943 0
M  V30 1151 N 116.77 1.45427 -0.607355 0
M  V30 1152 C 117.995 2.07124 -0.107006 0
M  V30 1153 C 118.42 1.44906 1.19933 0
M  V30 1154 O 117.778 0.541687 1.73019 0
M  V30 1155 C 117.826 3.60595 0.0194119 0
M  V30 1156 O 116.93 3.98285 1.0697 0
M  V30 1157 H 116.271 0.659868 -0.0739597 0
M  V30 1158 H 118.801 1.86683 -0.837297 0
M  V30 1159 H 118.811 4.07419 0.2177 0
M  V30 1160 H 117.486 4.05266 -0.934453 0
M  V30 1161 H 116.063 3.63133 0.847889 0
M  V30 1162 N 118.248 0.346503 1.53744 0
M  V30 1163 C 119.158 -0.517293 2.28826 0
M  V30 1164 C 120.174 -1.10935 1.3405 0
M  V30 1165 O 121.35 -1.1244 1.6709 0
M  V30 1166 C 118.415 -1.65098 3.04866 0
M  V30 1167 C 117.476 -1.0884 4.15274 0
M  V30 1168 C 116.709 -2.16806 4.87679 0
M  V30 1169 O 116.932 -3.3758 4.59778 0
M  V30 1170 O 115.866 -1.80934 5.74061 0
M  V30 1171 H 119.692 0.0931396 3.03557 0
M  V30 1172 H 117.277 0.111458 1.48984 0
M  V30 1173 H 119.159 -2.31053 3.5241 0
M  V30 1174 H 117.834 -2.24717 2.32989 0
M  V30 1175 H 116.741 -0.3933 3.72027 0
M  V30 1176 H 118.074 -0.537036 4.89261 0
M  V30 1177 N 119.726 -1.57421 0.075193 0
M  V30 1178 C 120.974 -1.93236 -0.591974 0
M  V30 1179 C 121.295 -0.956241 -1.69944 0
M  V30 1180 O 120.565 -0.00494792 -1.95899 0
M  V30 1181 H 119.145 -0.713355 -0.22166 0
M  V30 1182 H 121.807 -1.9444 0.133848 0
M  V30 1183 H 120.903 -2.95131 -1.01509 0
M  V30 1184 N 121.204 0.198386 -1.56346 0
M  V30 1185 C 122.134 1.24865 -1.9731 0
M  V30 1186 C 123.115 1.47651 -0.844576 0
M  V30 1187 O 124.3 1.59444 -1.10866 0
M  V30 1188 C 121.43 2.59358 -2.30977 0
M  V30 1189 C 120.384 2.5119 -3.46537 0
M  V30 1190 C 119.71 3.89926 -3.65871 0
M  V30 1191 C 121.01 2.03977 -4.80823 0
M  V30 1192 H 122.704 0.908252 -2.85291 0
M  V30 1193 H 120.25 0.435462 -1.37258 0
M  V30 1194 H 122.203 3.33011 -2.58228 0
M  V30 1195 H 120.927 2.95132 -1.39874 0
M  V30 1196 H 119.586 1.79993 -3.19371 0
M  V30 1197 H 119.234 4.23046 -2.72105 0
M  V30 1198 H 118.934 3.85336 -4.4361 0
M  V30 1199 H 120.458 4.65205 -3.95495 0
M  V30 1200 H 121.872 2.67386 -5.07127 0
M  V30 1201 H 120.269 2.10397 -5.62008 0
M  V30 1202 H 121.339 0.992861 -4.74626 0
M  V30 1203 N 122.682 1.50554 0.465978 0
M  V30 1204 C 124.098 1.38093 0.800154 0
M  V30 1205 C 124.298 0.440988 1.96615 0
M  V30 1206 O 123.354 -0.114499 2.5224 0
M  V30 1207 C 124.667 2.79565 1.10742 0
M  V30 1208 C 126.215 2.88516 1.21357 0
M  V30 1209 C 126.69 4.30833 1.55393 0
M  V30 1210 N 128.181 4.33807 1.62375 0
M  V30 1211 C 128.916 5.40927 1.90225 0
M  V30 1212 N 128.412 6.58247 2.16062 0
M  V30 1213 N 130.205 5.28376 1.9177 0
M  V30 1214 H 122.356 2.10237 -0.302366 0
M  V30 1215 H 124.619 0.945203 -0.0727746 0
M  V30 1216 H 124.325 3.50208 0.323661 0
M  V30 1217 H 124.199 3.17125 2.04234 0
M  V30 1218 H 126.586 2.1809 1.98799 0
M  V30 1219 H 126.667 2.54492 0.258321 0
M  V30 1220 H 126.311 5.01799 0.784889 0
M  V30 1221 H 126.241 4.62347 2.52076 0
M  V30 1222 H 128.732 3.49212 1.44427 0
M  V30 1223 H 129.045 7.3569 2.36601 0
M  V30 1224 H 127.39 6.61413 2.13444 0
M  V30 1225 H 130.581 4.35715 1.71085 0
M  V30 1226 H 130.754 6.11944 2.13139 0
M  V30 1227 N 124.16 -0.719506 1.40217 0
M  V30 1228 C 125.123 -1.8153 1.39927 0
M  V30 1229 C 126.123 -1.58095 0.293723 0
M  V30 1230 O 127.313 -1.65209 0.552429 0
M  V30 1231 C 124.445 -3.19561 1.18716 0
M  V30 1232 H 125.638 -1.83186 2.37451 0
M  V30 1233 H 123.191 -0.924746 1.26008 0
M  V30 1234 H 123.926 -3.23557 0.219366 0
M  V30 1235 H 123.711 -3.3797 1.98793 0
M  V30 1236 H 125.201 -3.99598 1.21291 0
M  V30 1237 N 125.638 -1.25649 -0.95132 0
M  V30 1238 C 127.049 -1.09654 -1.51106 0
M  V30 1239 C 127.4 0.326615 -1.93462 0
M  V30 1240 O 126.525 1.21697 -1.78938 0
M  V30 1241 C 127.12 -1.98437 -2.74605 0
M  V30 1242 C 125.679 -1.86618 -3.2688 0
M  V30 1243 C 124.826 -1.9239 -1.99703 0
M  V30 1244 H 127.777 -1.38887 -0.767865 0
M  V30 1245 H 127.798 -1.5263 -3.48546 0
M  V30 1246 H 127.31 -3.02009 -2.43746 0
M  V30 1247 H 125.411 -0.859421 -3.62553 0
M  V30 1248 H 125.524 -2.71607 -3.94673 0
M  V30 1249 H 123.888 -1.36317 -2.15151 0
M  V30 1250 H 124.671 -2.97573 -1.71188 0
M  V30 1251 N 127.117 1.15442 -1.07289 0
M  V30 1252 C 128.365 1.85845 -0.794096 0
M  V30 1253 C 128.686 1.82692 0.681809 0
M  V30 1254 O 127.956 1.26741 1.49377 0
M  V30 1255 H 126.536 0.688089 -0.290763 0
M  V30 1256 H 129.198 1.39947 -1.3565 0
M  V30 1257 H 128.294 2.91001 -1.12804 0
M  V30 1258 N 128.595 0.856903 1.32268 0
M  V30 1259 C 130.011 0.547061 1.49931 0
M  V30 1260 C 130.211 -0.921781 1.7918 0
M  V30 1261 O 129.267 -1.70469 1.8627 0
M  V30 1262 C 130.58 1.43599 2.64196 0
M  V30 1263 C 132.128 1.43665 2.78081 0
M  V30 1264 C 132.603 2.31085 3.95428 0
M  V30 1265 N 134.094 2.28893 4.02694 0
M  V30 1266 C 134.829 2.93262 4.92732 0
M  V30 1267 N 134.325 3.66751 5.87763 0
M  V30 1268 N 136.118 2.82638 4.85873 0
M  V30 1269 H 128.269 1.8075 1.11549 0
M  V30 1270 H 130.532 0.772144 0.549997 0
M  V30 1271 H 130.238 2.48058 2.49319 0
M  V30 1272 H 130.112 1.12502 3.60032 0
M  V30 1273 H 132.499 0.399701 2.92381 0
M  V30 1274 H 132.58 1.7878 1.82952 0
M  V30 1275 H 132.224 3.34849 3.81888 0
M  V30 1276 H 132.154 1.93302 4.89839 0
M  V30 1277 H 134.645 1.75466 3.34694 0
M  V30 1278 H 134.958 4.13027 6.53168 0
M  V30 1279 H 133.303 3.70859 5.87783 0
M  V30 1280 H 136.494 2.24774 4.10602 0
M  V30 1281 H 136.667 3.33084 5.55841 0
M  V30 1282 N 130.073 -1.45103 0.615059 0
M  V30 1283 C 131.301 -2.06553 0.11977 0
M  V30 1284 C 131.716 -1.45842 -1.19898 0
M  V30 1285 O 131.073 -0.575325 -1.73194 0
M  V30 1286 C 131.124 -3.61495 -0.018364 0
M  V30 1287 O 130.845 -4.19942 1.24822 0
M  V30 1288 C 132.346 -4.39947 -0.544237 0
M  V30 1289 H 129.566 -0.667096 0.0722739 0
M  V30 1290 H 132.11 -1.8623 0.84491 0
M  V30 1291 H 130.265 -3.81135 -0.693865 0
M  V30 1292 H 130.679 -5.13204 1.0827 0
M  V30 1293 H 132.153 -5.48838 -0.589953 0
M  V30 1294 H 132.63 -4.10255 -1.56805 0
M  V30 1295 H 133.236 -4.25188 0.0974703 0
M  V30 1296 N 131.551 -0.354651 -1.53558 0
M  V30 1297 C 132.967 -0.00315426 -1.596 0
M  V30 1298 C 133.167 1.47741 -1.37021 0
M  V30 1299 O 132.223 2.23759 -1.16996 0
M  V30 1300 C 133.536 -0.44929 -2.97325 0
M  V30 1301 C 135.084 -0.402578 -3.104 0
M  V30 1302 C 135.559 -0.824355 -4.5052 0
M  V30 1303 N 137.05 -0.778979 -4.56603 0
M  V30 1304 C 137.785 -1.07715 -5.63192 0
M  V30 1305 N 137.281 -1.44405 -6.77583 0
M  V30 1306 N 139.074 -1.00066 -5.53121 0
M  V30 1307 H 131.225 -1.31893 -1.66487 0
M  V30 1308 H 133.488 -0.538388 -0.780284 0
M  V30 1309 H 133.194 -1.48202 -3.1895 0
M  V30 1310 H 133.068 0.169772 -3.76818 0
M  V30 1311 H 135.455 0.621004 -2.88492 0
M  V30 1312 H 135.536 -1.05699 -2.32941 0
M  V30 1313 H 135.18 -1.846 -4.73165 0
M  V30 1314 H 135.11 -0.147304 -5.26394 0
M  V30 1315 H 137.601 -0.508528 -3.74463 0
M  V30 1316 H 137.914 -1.65612 -7.54846 0
M  V30 1317 H 136.259 -1.4826 -6.79002 0
M  V30 1318 H 139.45 -0.713293 -4.62633 0
M  V30 1319 H 139.623 -1.23638 -6.36096 0
M  V30 1320 N 133.029 1.57378 -0.0835403 0
M  V30 1321 C 133.959 2.1641 0.87686 0
M  V30 1322 C 134.94 1.09429 1.30228 0
M  V30 1323 O 136.125 1.37516 1.37124 0
M  V30 1324 C 133.255 2.73517 2.14022 0
M  V30 1325 C 132.209 3.85769 1.85381 0
M  V30 1326 C 131.535 4.29529 3.18448 0
M  V30 1327 C 132.835 5.09486 1.14984 0
M  V30 1328 H 134.529 2.96914 0.385059 0
M  V30 1329 H 132.075 1.42823 0.18377 0
M  V30 1330 H 134.028 3.13463 2.81636 0
M  V30 1331 H 132.752 1.90252 2.65465 0
M  V30 1332 H 131.411 3.46345 1.20169 0
M  V30 1333 H 131.059 3.43169 3.67755 0
M  V30 1334 H 130.759 5.05204 3.00071 0
M  V30 1335 H 132.283 4.72099 3.8724 0
M  V30 1336 H 133.697 5.46674 1.72687 0
M  V30 1337 H 132.094 5.90515 1.06826 0
M  V30 1338 H 133.164 4.84724 0.130749 0
M  V30 1339 N 134.507 -0.190092 1.56449 0
M  V30 1340 C 135.437 -1.23816 1.97969 0
M  V30 1341 C 136.418 -1.47201 0.852395 0
M  V30 1342 O 137.603 -1.58854 1.1171 0
M  V30 1343 C 134.733 -2.5813 2.3235 0
M  V30 1344 C 133.687 -2.49348 3.47864 0
M  V30 1345 C 133.013 -3.8798 3.67934 0
M  V30 1346 C 134.313 -2.01424 4.81898 0
M  V30 1347 H 136.007 -0.89311 2.85769 0
M  V30 1348 H 133.553 -0.428177 1.37487 0
M  V30 1349 H 135.506 -3.31637 2.59991 0
M  V30 1350 H 134.23 -2.94386 1.41438 0
M  V30 1351 H 132.889 -1.78297 3.20321 0
M  V30 1352 H 132.537 -4.21597 2.74344 0
M  V30 1353 H 132.237 -3.82978 4.45648 0
M  V30 1354 H 133.761 -4.63101 3.97957 0
M  V30 1355 H 135.175 -2.64693 5.08538 0
M  V30 1356 H 133.572 -2.07413 5.63116 0
M  V30 1357 H 134.642 -0.967677 4.75146 0
M  V30 1358 N 135.985 -1.50799 -0.457987 0
M  V30 1359 C 137.233 -1.62121 -1.2067 0
M  V30 1360 C 137.554 -0.329793 -1.92191 0
M  V30 1361 O 136.824 0.653409 -1.84682 0
M  V30 1362 H 135.404 -0.597441 -0.448411 0
M  V30 1363 H 138.066 -1.87637 -0.527096 0
M  V30 1364 H 137.162 -2.43882 -1.94751 0
M  V30 1365 N 137.463 0.71206 -1.40597 0
M  V30 1366 C 138.712 1.46754 -1.38369 0
M  V30 1367 C 139.025 1.95598 0.0097839 0
M  V30 1368 O 140.231 2.71059 0.154677 0
M  V30 1369 C 138.687 2.65289 -2.43207 0
M  V30 1370 C 138.295 2.23301 -3.88382 0
M  V30 1371 C 140.039 3.43008 -2.50091 0
M  V30 1372 C 137.946 3.38696 -4.84808 0
M  V30 1373 H 136.876 0.55118 -0.514506 0
M  V30 1374 H 139.527 0.774616 -1.66349 0
M  V30 1375 H 137.909 3.36769 -2.08332 0
M  V30 1376 H 139.083 1.59218 -4.32419 0
M  V30 1377 H 137.398 1.58618 -3.85006 0
M  V30 1378 H 139.995 4.28881 -3.1932 0
M  V30 1379 H 140.338 3.87065 -1.53253 0
M  V30 1380 H 140.871 2.78574 -2.83974 0
M  V30 1381 H 137.61 2.99668 -5.82992 0
M  V30 1382 H 137.13 4.01683 -4.45433 0
M  V30 1383 H 138.809 4.04712 -5.04794 0
M  V30 1384 N 138.941 1.26152 0.944643 0
M  V30 1385 C 140.169 1.14259 1.72489 0
M  V30 1386 C 140.584 -0.302555 1.8636 0
M  V30 1387 O 139.941 -1.20741 1.36849 0
M  V30 1388 C 139.992 1.80266 3.13347 0
M  V30 1389 O 139.713 3.19133 3.00143 0
M  V30 1390 C 141.214 1.74283 4.07603 0
M  V30 1391 H 138.434 0.398051 0.540181 0
M  V30 1392 H 140.978 1.66706 1.18446 0
M  V30 1393 H 139.133 1.31766 3.64303 0
M  V30 1394 H 139.547 3.51744 3.89071 0
M  V30 1395 H 141.021 2.25111 5.04013 0
M  V30 1396 H 141.498 0.708631 4.33446 0
M  V30 1397 H 142.104 2.22319 3.62567 0
M  V30 1398 N 140.419 -1.14872 1.07899 0
M  V30 1399 C 141.83 -1.67367 0.827363 0
M  V30 1400 C 142.181 -1.85236 -0.646693 0
M  V30 1401 O 141.306 -1.55974 -1.50004 0
M  V30 1402 C 141.901 -3.04016 1.49532 0
M  V30 1403 C 140.46 -3.53566 1.29106 0
M  V30 1404 C 139.607 -2.29161 1.56143 0
M  V30 1405 H 142.558 -0.990083 1.24028 0
M  V30 1406 H 142.579 -3.69219 0.919643 0
M  V30 1407 H 142.091 -2.90978 2.56814 0
M  V30 1408 H 140.192 -3.71835 0.238713 0
M  V30 1409 H 140.305 -4.34661 2.01511 0
M  V30 1410 H 138.669 -2.34978 0.982717 0
M  V30 1411 H 139.452 -2.18705 2.64619 0
M  V30 1412 N 141.898 -0.863906 -1.31812 0
M  V30 1413 C 142.828 -0.330843 -2.31144 0
M  V30 1414 C 143.809 0.575005 -1.60087 0
M  V30 1415 O 144.994 0.493304 -1.8783 0
M  V30 1416 C 142.124 0.47374 -3.44054 0
M  V30 1417 C 141.078 -0.338481 -4.26659 0
M  V30 1418 C 140.404 0.591412 -5.31419 0
M  V30 1419 C 141.704 -1.56926 -4.98168 0
M  V30 1420 H 143.398 -1.16086 -2.75979 0
M  V30 1421 H 140.944 -0.559657 -1.32679 0
M  V30 1422 H 142.897 0.857143 -4.12591 0
M  V30 1423 H 141.621 1.33721 -2.9797 0
M  V30 1424 H 140.28 -0.703754 -3.59782 0
M  V30 1425 H 139.928 1.45199 -4.81587 0
M  V30 1426 H 139.628 0.0519022 -5.87577 0
M  V30 1427 H 141.152 0.97179 -6.02817 0
M  V30 1428 H 142.566 -1.25764 -5.59336 0
M  V30 1429 H 140.963 -2.04739 -5.64094 0
M  V30 1430 H 142.033 -2.32544 -4.25501 0
M  V30 1431 N 143.376 1.44774 -0.622745 0
M  V30 1432 C 144.306 2.33382 0.0741861 0
M  V30 1433 C 145.287 1.47719 0.843387 0
M  V30 1434 O 146.472 1.76458 0.810934 0
M  V30 1435 C 143.602 3.30663 1.06204 0
M  V30 1436 C 142.556 4.26079 0.405037 0
M  V30 1437 C 141.882 5.13165 1.5022 0
M  V30 1438 C 143.182 5.1781 -0.683414 0
M  V30 1439 H 144.876 2.91905 -0.665713 0
M  V30 1440 H 142.422 1.40363 -0.321587 0
M  V30 1441 H 144.375 3.9153 1.55827 0
M  V30 1442 H 143.099 2.70331 1.83272 0
M  V30 1443 H 141.758 3.66532 -0.0704683 0
M  V30 1444 H 141.406 4.49191 2.26355 0
M  V30 1445 H 141.106 5.77812 1.06803 0
M  V30 1446 H 142.63 5.76902 2.00041 0
M  V30 1447 H 144.044 5.72661 -0.270631 0
M  V30 1448 H 142.441 5.91015 -1.04023 0
M  V30 1449 H 143.511 4.59326 -1.55395 0
M  V30 1450 N 144.854 0.36279 1.53368 0
M  V30 1451 C 146.102 -0.227326 2.00817 0
M  V30 1452 C 146.423 -1.49511 1.25186 0
M  V30 1453 O 145.693 -1.92482 0.364348 0
M  V30 1454 H 144.273 -0.0869923 0.741917 0
M  V30 1455 H 146.935 0.488381 1.88682 0
M  V30 1456 H 146.031 -0.456273 3.08747 0
M  V30 1457 N 146.332 -1.57332 0.0918853 0
M  V30 1458 C 147.748 -1.57389 -0.264766 0
M  V30 1459 C 147.948 -1.10281 -1.68643 0
M  V30 1460 O 147.004 -0.777801 -2.40222 0
M  V30 1461 C 148.317 -3.00648 -0.0561195 0
M  V30 1462 C 149.865 -3.12754 -0.124116 0
M  V30 1463 C 150.34 -4.57965 0.0564972 0
M  V30 1464 N 151.831 -4.632 0.00155611 0
M  V30 1465 C 152.566 -5.73281 0.116598 0
M  V30 1466 N 152.062 -6.92208 0.286294 0
M  V30 1467 N 153.855 -5.6207 0.0580973 0
M  V30 1468 H 146.006 -1.86262 1.02079 0
M  V30 1469 H 148.269 -0.859579 0.399786 0
M  V30 1470 H 147.975 -3.393 0.925669 0
M  V30 1471 H 147.849 -3.68623 -0.799823 0
M  V30 1472 H 150.236 -2.73976 -1.09641 0
M  V30 1473 H 150.317 -2.47377 0.651024 0
M  V30 1474 H 149.961 -4.97436 1.02564 0
M  V30 1475 H 149.891 -5.21399 -0.738297 0
M  V30 1476 H 152.382 -3.77686 -0.127192 0
M  V30 1477 H 152.695 -7.71934 0.365676 0
M  V30 1478 H 151.04 -6.94254 0.32192 0
M  V30 1479 H 154.231 -4.68043 -0.0733204 0
M  V30 1480 H 154.404 -6.47824 0.151203 0
M  V30 1481 N 147.81 0.181792 -1.56548 0
M  V30 1482 C 148.742 1.24956 -1.92142 0
M  V30 1483 C 149.755 1.41022 -0.813422 0
M  V30 1484 O 150.944 1.41212 -1.09186 0
M  V30 1485 C 148.044 2.61981 -2.14987 0
M  V30 1486 C 147.217 2.6735 -3.46183 0
M  V30 1487 C 146.276 3.85664 -3.5798 0
M  V30 1488 O 145.302 3.72148 -4.30691 0
M  V30 1489 N 146.504 5.01683 -2.92053 0
M  V30 1490 H 149.269 0.947329 -2.84334 0
M  V30 1491 H 146.83 0.371629 -1.57577 0
M  V30 1492 H 148.822 3.3958 -2.20154 0
M  V30 1493 H 147.392 2.84637 -1.2923 0
M  V30 1494 H 146.612 1.75925 -3.52766 0
M  V30 1495 H 147.9 2.67939 -4.32534 0
M  V30 1496 H 147.298 5.15564 -2.32832 0
M  V30 1497 H 145.855 5.77181 -3.0283 0
M  V30 1498 N 149.288 1.51039 0.449983 0
M  V30 1499 C 150.536 1.62759 1.19808 0
M  V30 1500 C 150.857 0.339981 1.92013 0
M  V30 1501 O 150.127 -0.643606 1.85026 0
M  V30 1502 H 148.707 0.599811 0.445237 0
M  V30 1503 H 151.369 1.87914 0.517138 0
M  V30 1504 H 150.465 2.44911 1.93455 0
M  V30 1505 N 150.766 -0.704594 1.40972 0
M  V30 1506 C 152.013 -1.46458 1.39844 0
M  V30 1507 C 152.341 -1.94499 0.00447594 0
M  V30 1508 O 151.596 -1.69275 -0.982057 0
M  V30 1509 C 151.895 -2.698 2.34399 0
M  V30 1510 C 151.561 -2.40464 3.81429 0
M  V30 1511 C 150.223 -2.32174 4.21484 0
M  V30 1512 C 152.575 -2.16086 4.74296 0
M  V30 1513 C 149.903 -1.97589 5.52427 0
M  V30 1514 C 152.255 -1.83011 6.05549 0
M  V30 1515 C 150.919 -1.7321 6.44635 0
M  V30 1516 H 150.189 -0.535927 0.511725 0
M  V30 1517 H 152.836 -0.806124 1.73706 0
M  V30 1518 H 151.141 -3.40536 1.93759 0
M  V30 1519 H 152.838 -3.27919 2.30804 0
M  V30 1520 H 149.428 -2.47808 3.49699 0
M  V30 1521 H 153.612 -2.2144 4.4416 0
M  V30 1522 H 148.868 -1.88547 5.81601 0
M  V30 1523 H 153.042 -1.63164 6.77016 0
M  V30 1524 H 150.669 -1.46179 7.46013 0
M  V30 1525 N 152.244 -1.26651 -0.937939 0
M  V30 1526 C 153.491 -1.12387 -1.6845 0
M  V30 1527 C 153.819 0.332208 -1.91642 0
M  V30 1528 O 153.074 1.2602 -1.49725 0
M  V30 1529 C 153.373 -1.84168 -3.06295 0
M  V30 1530 C 153.039 -3.34056 -3.02849 0
M  V30 1531 C 151.701 -3.74942 -3.01616 0
M  V30 1532 C 154.053 -4.29741 -2.9491 0
M  V30 1533 C 151.381 -5.09894 -2.90215 0
M  V30 1534 C 153.733 -5.64738 -2.8505 0
M  V30 1535 C 152.397 -6.0493 -2.82162 0
M  V30 1536 H 151.667 -0.411252 -0.616403 0
M  V30 1537 H 154.314 -1.57134 -1.09459 0
M  V30 1538 H 152.619 -1.319 -3.6893 0
M  V30 1539 H 154.316 -1.70569 -3.62915 0
M  V30 1540 H 150.906 -3.01534 -3.0459 0
M  V30 1541 H 155.09 -3.99133 -2.94969 0
M  V30 1542 H 150.346 -5.40194 -2.86358 0
M  V30 1543 H 154.52 -6.38561 -2.77872 0
M  V30 1544 H 152.147 -7.09457 -2.73084 0
M  V30 1545 N 153.722 1.14298 -1.08507 0
M  V30 1546 C 154.968 1.85633 -0.816581 0
M  V30 1547 C 155.301 1.82784 0.656021 0
M  V30 1548 O 154.576 1.25926 1.48233 0
M  V30 1549 C 154.859 3.34223 -1.34041 0
M  V30 1550 C 154.712 3.45639 -2.87843 0
M  V30 1551 C 156.031 4.29356 -0.9665 0
M  V30 1552 H 153.15 0.67402 -0.298104 0
M  V30 1553 H 155.792 1.34214 -1.34487 0
M  V30 1554 H 153.942 3.78144 -0.89104 0
M  V30 1555 H 155.614 3.10498 -3.41158 0
M  V30 1556 H 153.857 2.86817 -3.25451 0
M  V30 1557 H 154.528 4.50089 -3.19569 0
M  V30 1558 H 157.004 3.93457 -1.35391 0
M  V30 1559 H 155.88 5.3178 -1.3602 0
M  V30 1560 H 156.141 4.41919 0.126362 0
M  V30 1561 N 155.201 0.870884 1.31352 0
M  V30 1562 C 156.617 0.562932 1.49343 0
M  V30 1563 C 156.817 -0.902725 1.80148 0
M  V30 1564 O 155.873 -1.68484 1.88067 0
M  V30 1565 C 157.186 1.46393 2.62659 0
M  V30 1566 C 158.734 1.46607 2.76542 0
M  V30 1567 C 159.209 2.35266 3.92955 0
M  V30 1568 N 160.7 2.33151 4.00243 0
M  V30 1569 C 161.435 2.98471 4.89594 0
M  V30 1570 N 160.931 3.72964 5.8384 0
M  V30 1571 N 162.724 2.87775 4.82848 0
M  V30 1572 H 154.875 1.81923 1.09626 0
M  V30 1573 H 157.138 0.777934 0.541777 0
M  V30 1574 H 156.844 2.50689 2.46674 0
M  V30 1575 H 156.718 1.16314 3.58819 0
M  V30 1576 H 159.105 0.43069 2.9194 0
M  V30 1577 H 159.186 1.8071 1.81046 0
M  V30 1578 H 158.83 3.38881 3.78315 0
M  V30 1579 H 158.76 1.98487 4.87761 0
M  V30 1580 H 161.251 1.79006 3.32814 0
M  V30 1581 H 161.564 4.19932 6.4875 0
M  V30 1582 H 159.909 3.77073 5.83816 0
M  V30 1583 H 163.1 2.29116 4.08195 0
M  V30 1584 H 163.273 3.38961 5.52277 0
M  V30 1585 N 156.679 -1.44442 0.630414 0
M  V30 1586 C 157.956 -1.9549 0.0655657 0
M  V30 1587 C 158.336 -1.5724 -1.40851 0
M  V30 1588 O 157.684 -0.846116 -2.12257 0
M  V30 1589 C 157.894 -3.47812 0.287691 0
M  V30 1590 C 159.242 -4.24216 0.180513 0
M  V30 1591 O 160.266 -3.55526 0.219019 0
M  V30 1592 O 159.125 -5.46434 0.0848493 0
M  V30 1593 H 156.219 -0.826688 -0.0227177 0
M  V30 1594 H 158.765 -1.54496 0.702068 0
M  V30 1595 H 157.537 -3.687 1.31056 0
M  V30 1596 H 157.16 -3.95751 -0.382984 0
M  V30 1597 N 158.157 -0.370918 -1.53173 0
M  V30 1598 C 159.434 0.273754 -1.93675 0
M  V30 1599 C 159.814 1.65938 -1.3049 0
M  V30 1600 O 159.162 2.23698 -0.465999 0
M  V30 1601 C 159.372 0.318602 -3.47543 0
M  V30 1602 C 160.72 0.556392 -4.20939 0
M  V30 1603 O 161.744 0.399587 -3.53952 0
M  V30 1604 O 160.603 0.862133 -5.39657 0
M  V30 1605 H 157.697 0.165448 -0.810281 0
M  V30 1606 H 160.243 -0.42409 -1.64315 0
M  V30 1607 H 159.015 -0.652687 -3.85818 0
M  V30 1608 H 158.638 1.06212 -3.83151 0
M  V30 1609 N 159.635 1.57281 -0.100228 0
M  V30 1610 C 160.86 1.99302 0.573881 0
M  V30 1611 C 161.285 0.979059 1.60611 0
M  V30 1612 O 160.643 -0.0517803 1.81226 0
M  V30 1613 C 160.691 3.40274 1.19358 0
M  V30 1614 O 159.795 3.41676 2.30935 0
M  V30 1615 H 159.136 0.647944 0.145138 0
M  V30 1616 H 161.666 2.03779 -0.183156 0
M  V30 1617 H 161.676 3.78078 1.53365 0
M  V30 1618 H 160.351 4.13594 0.437385 0
M  V30 1619 H 158.928 3.15672 1.98509 0
M  V30 1620 N 161.113 -0.173488 1.56642 0
M  V30 1621 C 162.524 -0.736155 1.71574 0
M  V30 1622 C 162.875 -1.82888 0.710389 0
M  V30 1623 O 162 -2.16017 -0.1287 0
M  V30 1624 C 162.595 -1.34211 3.11083 0
M  V30 1625 C 161.154 -1.85162 3.27707 0
M  V30 1626 C 160.301 -0.729765 2.67525 0
M  V30 1627 H 163.252 0.0518786 1.58615 0
M  V30 1628 H 163.273 -2.21178 3.09613 0
M  V30 1629 H 162.785 -0.546579 3.84232 0
M  V30 1630 H 160.886 -2.67366 2.59512 0
M  V30 1631 H 160.999 -1.99855 4.35425 0
M  V30 1632 H 159.363 -1.14965 2.27278 0
M  V30 1633 H 160.146 0.0538806 3.43258 0
M  V30 1634 N 162.591 -1.51276 -0.441967 0
M  V30 1635 C 163.84 -1.6295 -1.18871 0
M  V30 1636 C 164.153 -0.349312 -1.92456 0
M  V30 1637 O 165.359 -0.345355 -2.69295 0
M  V30 1638 C 163.815 -2.87759 -2.16155 0
M  V30 1639 C 163.423 -4.22764 -1.48239 0
M  V30 1640 C 165.167 -3.08788 -2.91291 0
M  V30 1641 C 163.074 -5.38728 -2.4398 0
M  V30 1642 H 162.004 -0.606913 -0.447406 0
M  V30 1643 H 164.655 -1.77739 -0.456205 0
M  V30 1644 H 163.037 -2.66593 -2.92821 0
M  V30 1645 H 164.211 -4.54293 -0.771635 0
M  V30 1646 H 162.526 -4.07575 -0.852741 0
M  V30 1647 H 165.123 -3.92599 -3.63002 0
M  V30 1648 H 165.466 -2.21679 -3.5237 0
M  V30 1649 H 165.999 -3.30272 -2.21733 0
M  V30 1650 H 162.738 -6.28082 -1.87598 0
M  V30 1651 H 162.258 -5.1158 -3.13123 0
M  V30 1652 H 163.937 -5.70489 -3.05207 0
M  V30 1653 N 164.069 0.697108 -1.41344 0
M  V30 1654 C 165.297 1.48593 -1.43972 0
M  V30 1655 C 165.712 1.88747 -0.0445612 0
M  V30 1656 O 165.069 1.56682 0.935785 0
M  V30 1657 C 165.12 2.74946 -2.34706 0
M  V30 1658 O 164.841 2.36484 -3.68791 0
M  V30 1659 C 166.342 3.687 -2.46121 0
M  V30 1660 H 163.562 0.457964 -0.490418 0
M  V30 1661 H 166.106 0.858429 -1.8561 0
M  V30 1662 H 164.261 3.33937 -1.9638 0
M  V30 1663 H 164.675 3.17918 -4.17167 0
M  V30 1664 H 166.149 4.54145 -3.13777 0
M  V30 1665 H 166.626 4.13081 -1.49199 0
M  V30 1666 H 167.232 3.15613 -2.85076 0
M  V30 1667 N 165.547 1.27147 0.931209 0
M  V30 1668 C 166.51 1.09615 2.01289 0
M  V30 1669 C 167.51 0.0412581 1.60747 0
M  V30 1670 O 168.7 0.285545 1.71844 0
M  V30 1671 C 165.832 0.669447 3.34262 0
M  V30 1672 H 167.025 2.05662 2.18273 0
M  V30 1673 H 164.578 1.09885 1.11153 0
M  V30 1674 H 165.313 -0.292572 3.22978 0
M  V30 1675 H 165.098 1.43127 3.65044 0
M  V30 1676 H 166.588 0.568921 4.13706 0
M  V30 1677 N 167.025 -1.13721 1.09112 0
M  V30 1678 C 167.988 -2.17222 0.731241 0
M  V30 1679 C 168.988 -1.59035 -0.237566 0
M  V30 1680 O 170.178 -1.74192 -0.0161704 0
M  V30 1681 C 167.31 -3.40804 0.0808443 0
M  V30 1682 H 168.503 -2.50573 1.64783 0
M  V30 1683 H 166.056 -1.28493 0.889897 0
M  V30 1684 H 166.791 -3.1304 -0.847127 0
M  V30 1685 H 166.576 -3.84306 0.777896 0
M  V30 1686 H 168.066 -4.1731 -0.155657 0
M  V30 1687 N 168.503 -0.877838 -1.30888 0
M  V30 1688 C 169.466 -0.344265 -2.266 0
M  V30 1689 C 170.466 0.50922 -1.52524 0
M  V30 1690 O 171.656 0.317398 -1.71284 0
M  V30 1691 C 168.788 0.510198 -3.37061 0
M  V30 1692 H 169.981 -1.1893 -2.7531 0
M  V30 1693 H 167.534 -0.654088 -1.41956 0
M  V30 1694 H 168.269 1.37612 -2.93655 0
M  V30 1695 H 168.054 -0.101047 -3.9197 0
M  V30 1696 H 169.544 0.875537 -4.08319 0
M  V30 1697 N 169.982 1.44106 -0.638065 0
M  V30 1698 C 171.259 1.95453 -0.0759321 0
M  V30 1699 C 171.639 1.57984 1.40015 0
M  V30 1700 O 170.987 0.857361 2.11806 0
M  V30 1701 C 171.197 3.47655 -0.306132 0
M  V30 1702 C 172.545 4.24114 -0.203008 0
M  V30 1703 O 173.569 3.55405 -0.237871 0
M  V30 1704 O 172.428 5.46381 -0.113827 0
M  V30 1705 H 169.522 0.826797 0.0183332 0
M  V30 1706 H 172.068 1.54122 -0.710251 0
M  V30 1707 H 170.84 3.68 -1.3301 0
M  V30 1708 H 170.463 3.95949 0.361991 0
M  V30 1709 N 171.46 0.379036 1.52974 0
M  V30 1710 C 172.39 -0.452706 2.29069 0
M  V30 1711 C 173.371 -1.07237 1.32039 0
M  V30 1712 O 174.556 -1.08708 1.60923 0
M  V30 1713 C 171.686 -1.5856 3.08992 0
M  V30 1714 C 170.64 -1.0925 4.13822 0
M  V30 1715 C 169.966 -2.31668 4.81907 0
M  V30 1716 C 171.266 -0.167702 5.22031 0
M  V30 1717 H 172.96 0.182181 2.98845 0
M  V30 1718 H 170.506 0.0890592 1.43724 0
M  V30 1719 H 172.459 -2.1742 3.6098 0
M  V30 1720 H 171.183 -2.24792 2.36931 0
M  V30 1721 H 169.842 -0.526494 3.628 0
M  V30 1722 H 169.49 -2.96386 4.06404 0
M  V30 1723 H 169.19 -1.9934 5.52754 0
M  V30 1724 H 170.714 -2.91189 5.36695 0
M  V30 1725 H 172.128 -0.664186 5.6944 0
M  V30 1726 H 170.525 0.0653265 6.00064 0
M  V30 1727 H 171.595 0.786347 4.78482 0
M  V30 1728 N 172.938 -1.57226 0.108567 0
M  V30 1729 C 173.901 -2.13602 -0.831082 0
M  V30 1730 C 174.901 -1.06841 -1.20173 0
M  V30 1731 O 176.091 -1.32666 -1.12895 0
M  V30 1732 C 173.223 -2.66769 -2.12243 0
M  V30 1733 H 174.416 -2.97951 -0.341317 0
M  V30 1734 H 171.969 -1.55667 -0.14057 0
M  V30 1735 H 172.704 -1.85977 -2.65675 0
M  V30 1736 H 172.489 -3.44839 -1.86625 0
M  V30 1737 H 173.979 -3.10332 -2.79435 0
M  V30 1738 N 174.416 0.165178 -1.56732 0
M  V30 1739 C 175.664 0.879068 -1.8198 0
M  V30 1740 C 175.985 1.82514 -0.686561 0
M  V30 1741 O 175.255 1.93694 0.293146 0
M  V30 1742 H 173.835 0.327608 -0.671329 0
M  V30 1743 H 176.497 0.163526 -1.94213 0
M  V30 1744 H 175.593 1.45228 -2.76252 0
M  V30 1745 N 175.894 1.51508 0.433938 0
M  V30 1746 C 177.31 1.39759 0.770682 0
M  V30 1747 C 177.51 0.482594 1.95636 0
M  V30 1748 O 176.566 -0.0609691 2.52426 0
M  V30 1749 C 177.879 2.81851 1.04787 0
M  V30 1750 C 179.427 2.91025 1.1521 0
M  V30 1751 C 179.902 4.34032 1.46219 0
M  V30 1752 N 181.393 4.37154 1.53136 0
M  V30 1753 C 182.128 5.4484 1.78709 0
M  V30 1754 N 181.624 6.62682 2.02051 0
M  V30 1755 N 183.417 5.32324 1.80519 0
M  V30 1756 H 175.568 2.09548 -0.346892 0
M  V30 1757 H 177.831 0.943446 -0.0928074 0
M  V30 1758 H 177.537 3.50815 0.249304 0
M  V30 1759 H 177.411 3.21386 1.97461 0
M  V30 1760 H 179.798 2.22257 1.94128 0
M  V30 1761 H 179.879 2.54983 0.204281 0
M  V30 1762 H 179.523 5.03351 0.678274 0
M  V30 1763 H 179.453 4.6759 2.42212 0
M  V30 1764 H 181.944 3.52197 1.36987 0
M  V30 1765 H 182.257 7.40543 2.20943 0
M  V30 1766 H 180.602 6.65791 1.99366 0
M  V30 1767 H 183.793 4.39246 1.61805 0
M  V30 1768 H 183.966 6.16328 2.00111 0
M  V30 1769 N 177.372 -0.689602 1.41712 0
M  V30 1770 C 178.788 -1.00093 1.24312 0
M  V30 1771 C 178.988 -2.01036 0.136729 0
M  V30 1772 O 178.044 -2.47562 -0.496918 0
M  V30 1773 C 179.357 -1.51985 2.59463 0
M  V30 1774 C 180.905 -1.63838 2.66695 0
M  V30 1775 C 181.38 -2.1913 4.02177 0
M  V30 1776 N 182.871 -2.26483 4.04054 0
M  V30 1777 C 183.606 -2.70306 5.0569 0
M  V30 1778 N 183.102 -3.13691 6.17713 0
M  V30 1779 N 184.895 -2.69923 4.9305 0
M  V30 1780 H 177.046 -0.0210029 2.1239 0
M  V30 1781 H 179.309 -0.0718733 0.945272 0
M  V30 1782 H 179.015 -0.85269 3.41207 0
M  V30 1783 H 178.889 -2.50103 2.82362 0
M  V30 1784 H 181.276 -2.29664 1.85306 0
M  V30 1785 H 181.357 -0.642492 2.476 0
M  V30 1786 H 181.001 -1.53918 4.84016 0
M  V30 1787 H 180.931 -3.19482 4.18615 0
M  V30 1788 H 183.422 -1.95874 3.23174 0
M  V30 1789 H 183.735 -3.45773 6.9113 0
M  V30 1790 H 182.08 -3.11585 6.21241 0
M  V30 1791 H 185.271 -2.35382 4.04614 0
M  V30 1792 H 185.444 -3.03758 5.72394 0
M  V30 1793 N 178.85 -1.27639 -0.924453 0
M  V30 1794 C 180.099 -1.13549 -1.66702 0
M  V30 1795 C 180.412 0.317487 -1.93006 0
M  V30 1796 O 181.618 0.579333 -2.65247 0
M  V30 1797 C 180.074 -1.98426 -3.00259 0
M  V30 1798 C 179.682 -3.484 -2.81641 0
M  V30 1799 C 181.426 -1.92993 -3.78092 0
M  V30 1800 C 179.333 -4.25464 -4.10773 0
M  V30 1801 H 178.263 -0.421351 -0.625283 0
M  V30 1802 H 180.914 -1.52085 -1.02676 0
M  V30 1803 H 179.296 -1.52736 -3.6536 0
M  V30 1804 H 180.47 -4.01973 -2.25287 0
M  V30 1805 H 178.785 -3.55245 -2.17232 0
M  V30 1806 H 181.382 -2.47844 -4.7379 0
M  V30 1807 H 181.725 -0.904281 -4.0636 0
M  V30 1808 H 182.258 -2.36595 -3.19793 0
M  V30 1809 H 178.997 -5.28566 -3.87683 0
M  V30 1810 H 178.517 -3.76667 -4.66779 0
M  V30 1811 H 180.196 -4.34812 -4.79111 0
M  V30 1812 N 180.328 1.1314 -1.09713 0
M  V30 1813 C 181.576 1.84119 -0.833338 0
M  V30 1814 C 181.897 1.84097 0.642904 0
M  V30 1815 O 181.167 1.29881 1.46655 0
M  V30 1816 H 179.747 0.681766 -0.305293 0
M  V30 1817 H 182.409 1.37038 -1.38588 0
M  V30 1818 H 181.505 2.88543 -1.18951 0
M  V30 1819 N 181.806 0.884767 1.30421 0
M  V30 1820 C 183.052 0.503851 1.96441 0
M  V30 1821 C 183.385 -0.944518 1.69684 0
M  V30 1822 O 182.66 -1.66737 1.00145 0
M  V30 1823 C 182.943 0.779085 3.51571 0
M  V30 1824 C 182.796 2.27807 3.87846 0
M  V30 1825 C 184.115 0.255452 4.39358 0
M  V30 1826 H 181.234 0.184533 0.713524 0
M  V30 1827 H 183.876 1.10872 1.54297 0
M  V30 1828 H 182.026 0.264274 3.876 0
M  V30 1829 H 183.698 2.86127 3.61841 0
M  V30 1830 H 181.941 2.74479 3.35922 0
M  V30 1831 H 182.612 2.42125 4.96064 0
M  V30 1832 H 185.088 0.696079 4.10236 0
M  V30 1833 H 183.964 0.477361 5.4682 0
M  V30 1834 H 184.225 -0.843293 4.33983 0
M  V30 1835 N 183.284 -1.43765 0.645699 0
M  V30 1836 C 184.509 -2.06767 0.161883 0
M  V30 1837 C 184.934 -1.48034 -1.16049 0
M  V30 1838 O 184.292 -0.587369 -1.71522 0
M  V30 1839 C 184.34 -3.60519 0.0762003 0
M  V30 1840 O 183.444 -4.00982 -0.963721 0
M  V30 1841 H 182.785 -0.657675 0.091429 0
M  V30 1842 H 185.315 -1.84397 0.886499 0
M  V30 1843 H 185.325 -4.07853 -0.109604 0
M  V30 1844 H 184 -4.02646 1.04157 0
M  V30 1845 H 182.577 -3.65253 -0.751312 0
M  V30 1846 N 184.763 -0.387143 -1.52771 0
M  V30 1847 C 185.726 0.436939 -2.24997 0
M  V30 1848 C 186.726 0.991991 -1.26555 0
M  V30 1849 O 187.916 0.874335 -1.50669 0
M  V30 1850 C 185.048 1.61281 -3.00335 0
M  V30 1851 H 186.241 -0.195365 -2.99263 0
M  V30 1852 H 183.794 -0.139218 -1.55679 0
M  V30 1853 H 184.529 2.2826 -2.30364 0
M  V30 1854 H 184.314 1.22154 -3.72587 0
M  V30 1855 H 185.804 2.19629 -3.5518 0
M  V30 1856 N 186.241 1.57166 -0.116904 0
M  V30 1857 C 187.466 1.999 0.55271 0
M  V30 1858 C 187.891 0.996039 1.59564 0
M  V30 1859 O 187.249 -0.032556 1.81271 0
M  V30 1860 C 187.297 3.4152 1.15742 0
M  V30 1861 O 186.401 3.44106 2.27299 0
M  V30 1862 H 185.742 0.649447 0.138258 0
M  V30 1863 H 188.272 2.03573 -0.204759 0
M  V30 1864 H 188.282 3.79684 1.49346 0
M  V30 1865 H 186.957 4.14034 0.393493 0
M  V30 1866 H 185.534 3.17759 1.9515 0
M  V30 1867 N 187.719 -0.156864 1.56817 0
M  V30 1868 C 188.682 -1.17781 1.96622 0
M  V30 1869 C 189.682 -1.36401 0.851555 0
M  V30 1870 O 190.872 -1.33561 1.11836 0
M  V30 1871 C 188.004 -2.54008 2.27361 0
M  V30 1872 H 189.197 -0.836564 2.87996 0
M  V30 1873 H 186.75 -0.39985 1.51099 0
M  V30 1874 H 187.485 -2.9312 1.38748 0
M  V30 1875 H 187.27 -2.41856 3.08623 0
M  V30 1876 H 188.76 -3.27558 2.59029 0
M  V30 1877 N 189.197 -1.51736 -0.425897 0
M  V30 1878 C 190.446 -1.64201 -1.17136 0
M  V30 1879 C 190.759 -0.369705 -1.92074 0
M  V30 1880 O 191.965 -0.373898 -2.68913 0
M  V30 1881 C 190.421 -2.90035 -2.13091 0
M  V30 1882 C 190.029 -4.24312 -1.43747 0
M  V30 1883 C 191.773 -3.1186 -2.87999 0
M  V30 1884 C 189.68 -5.41285 -2.38253 0
M  V30 1885 H 188.61 -0.611624 -0.440944 0
M  V30 1886 H 191.261 -1.78212 -0.437328 0
M  V30 1887 H 189.643 -2.69684 -2.89977 0
M  V30 1888 H 190.817 -4.55086 -0.723408 0
M  V30 1889 H 189.132 -4.08456 -0.809465 0
M  V30 1890 H 191.729 -3.96427 -3.58817 0
M  V30 1891 H 192.072 -2.25403 -3.49999 0
M  V30 1892 H 192.605 -3.32605 -2.18217 0
M  V30 1893 H 189.344 -6.30037 -1.80925 0
M  V30 1894 H 188.864 -5.14872 -3.0768 0
M  V30 1895 H 190.543 -5.73694 -2.99139 0
M  V30 1896 N 190.675 0.682077 -1.42076 0
M  V30 1897 C 192.091 0.994324 -1.24841 0
M  V30 1898 C 192.291 2.0096 -0.147389 0
M  V30 1899 O 191.347 2.47822 0.483782 0
M  V30 1900 C 192.66 1.50607 -2.60265 0
M  V30 1901 C 194.208 1.62421 -2.6756 0
M  V30 1902 C 194.683 2.16994 -4.03333 0
M  V30 1903 N 196.174 2.24337 -4.0525 0
M  V30 1904 C 196.909 2.67621 -5.07116 0
M  V30 1905 N 196.405 3.1041 -6.19368 0
M  V30 1906 N 198.198 2.67305 -4.94474 0
M  V30 1907 H 190.349 0.00973908 -2.12398 0
M  V30 1908 H 192.612 0.0668593 -0.945639 0
M  V30 1909 H 192.318 0.834583 -3.41654 0
M  V30 1910 H 192.192 2.48602 -2.83684 0
M  V30 1911 H 194.579 2.28678 -1.86521 0
M  V30 1912 H 194.66 0.629352 -2.47937 0
M  V30 1913 H 194.304 1.51349 -4.84826 0
M  V30 1914 H 194.234 3.17258 -4.20304 0
M  V30 1915 H 196.725 1.94158 -3.24209 0
M  V30 1916 H 197.038 3.42103 -6.92954 0
M  V30 1917 H 195.383 3.08286 -6.22884 0
M  V30 1918 H 198.574 2.33233 -4.05857 0
M  V30 1919 H 198.747 3.00718 -5.73997 0
M  V30 1920 N 192.153 1.28127 0.917671 0
M  V30 1921 C 193.402 1.14432 1.66097 0
M  V30 1922 C 193.715 -0.307247 1.93172 0
M  V30 1923 O 194.921 -0.565259 2.65551 0
M  V30 1924 C 193.377 2.00015 2.99202 0
M  V30 1925 C 192.985 3.49889 2.79789 0
M  V30 1926 C 194.729 1.94996 3.77064 0
M  V30 1927 C 192.636 4.27636 4.08511 0
M  V30 1928 H 191.566 0.424662 0.62304 0
M  V30 1929 H 194.217 1.52628 1.01868 0
M  V30 1930 H 192.599 1.54672 3.64544 0
M  V30 1931 H 193.773 4.03162 2.23152 0
M  V30 1932 H 192.088 3.56392 2.15345 0
M  V30 1933 H 194.685 2.50354 4.72469 0
M  V30 1934 H 195.028 0.925819 4.05875 0
M  V30 1935 H 195.561 2.38287 3.18534 0
M  V30 1936 H 192.3 5.30615 3.84874 0
M  V30 1937 H 191.82 3.79137 4.64774 0
M  V30 1938 H 193.499 4.37346 4.76799 0
M  V30 1939 N 193.631 -1.12557 1.10312 0
M  V30 1940 C 194.561 -2.20341 0.772798 0
M  V30 1941 C 195.542 -1.68198 -0.25365 0
M  V30 1942 O 196.727 -1.93831 -0.119699 0
M  V30 1943 C 193.857 -3.46709 0.202443 0
M  V30 1944 C 192.811 -4.11996 1.15943 0
M  V30 1945 C 192.137 -5.328 0.450345 0
M  V30 1946 C 193.437 -4.5828 2.50552 0
M  V30 1947 H 195.131 -2.48229 1.674 0
M  V30 1948 H 192.677 -1.19308 0.806326 0
M  V30 1949 H 194.63 -4.2138 -0.0407752 0
M  V30 1950 H 193.354 -3.18245 -0.734001 0
M  V30 1951 H 192.013 -3.39305 1.38808 0
M  V30 1952 H 191.661 -5.00602 -0.490531 0
M  V30 1953 H 191.361 -5.7743 1.08851 0
M  V30 1954 H 192.885 -6.10219 0.215642 0
M  V30 1955 H 194.299 -5.2433 2.31843 0
M  V30 1956 H 192.696 -5.13683 3.10242 0
M  V30 1957 H 193.766 -3.72329 3.10643 0
M  V30 1958 N 195.109 -0.891671 -1.2995 0
M  V30 1959 C 196.525 -0.58662 -1.48428 0
M  V30 1960 C 196.725 0.873951 -1.81561 0
M  V30 1961 O 195.781 1.65471 -1.90724 0
M  V30 1962 C 197.094 -1.50553 -2.60296 0
M  V30 1963 C 198.642 -1.50988 -2.74175 0
M  V30 1964 C 199.117 -2.41488 -3.89163 0
M  V30 1965 N 200.608 -2.39489 -3.96483 0
M  V30 1966 C 201.343 -3.06223 -4.84784 0
M  V30 1967 N 200.839 -3.82206 -5.77833 0
M  V30 1968 N 202.632 -2.95421 -4.78208 0
M  V30 1969 H 194.783 -1.83644 -1.06718 0
M  V30 1970 H 197.046 -0.786455 -0.529332 0
M  V30 1971 H 196.752 -2.54581 -2.42654 0
M  V30 1972 H 196.626 -1.22008 -3.56923 0
M  V30 1973 H 199.013 -0.47708 -2.91218 0
M  V30 1974 H 199.094 -1.83567 -1.78148 0
M  V30 1975 H 198.738 -3.44857 -3.72876 0
M  V30 1976 H 198.668 -2.06222 -4.84541 0
M  V30 1977 H 201.159 -1.84278 -3.29924 0
M  V30 1978 H 201.472 -4.302 -6.41988 0
M  V30 1979 H 199.817 -3.86313 -5.77743 0
M  V30 1980 H 203.008 -2.35581 -4.04499 0
M  V30 1981 H 203.181 -3.47704 -5.46814 0
M  V30 1982 N 196.587 1.43421 -0.653314 0
M  V30 1983 C 197.835 2.01414 -0.166415 0
M  V30 1984 C 198.156 1.51803 1.22397 0
M  V30 1985 O 197.426 0.730693 1.81763 0
M  V30 1986 H 196.006 0.744703 -0.0585319 0
M  V30 1987 H 198.668 1.75629 -0.845003 0
M  V30 1988 H 197.764 3.11734 -0.151111 0
M  V30 1989 N 198.065 0.39524 1.52563 0
M  V30 1990 C 198.997 -0.472201 2.24283 0
M  V30 1991 C 200.01 -1.02178 1.26742 0
M  V30 1992 O 201.199 -0.923097 1.52778 0
M  V30 1993 C 198.299 -1.66775 2.95024 0
M  V30 1994 C 197.472 -1.2445 4.19322 0
M  V30 1995 C 196.531 -2.30539 4.7301 0
M  V30 1996 O 195.557 -1.91702 5.35947 0
M  V30 1997 N 196.759 -3.6253 4.53379 0
M  V30 1998 H 199.524 0.142282 2.99362 0
M  V30 1999 H 197.085 0.2219 1.60372 0
M  V30 2000 H 199.077 -2.37283 3.27839 0
M  V30 2001 H 197.647 -2.18845 2.23217 0
M  V30 2002 H 196.867 -0.368069 3.92478 0
M  V30 2003 H 198.155 -0.938457 5.0007 0
M  V30 2004 H 197.553 -3.96841 4.03154 0
M  V30 2005 H 196.11 -4.29055 4.90668 0
M  V30 2006 N 199.544 -1.57102 0.125237 0
M  V30 2007 C 200.474 -2.18659 -0.819174 0
M  V30 2008 C 201.455 -1.12843 -1.27281 0
M  V30 2009 O 202.64 -1.41104 -1.33429 0
M  V30 2010 C 199.77 -2.79096 -2.06695 0
M  V30 2011 C 198.724 -3.90548 -1.75088 0
M  V30 2012 C 198.05 -4.37821 -3.06948 0
M  V30 2013 C 199.35 -5.12356 -1.01435 0
M  V30 2014 H 201.044 -2.9783 -0.306202 0
M  V30 2015 H 198.59 -1.4326 -0.145839 0
M  V30 2016 H 200.543 -3.2082 -2.73226 0
M  V30 2017 H 199.267 -1.97223 -2.60328 0
M  V30 2018 H 197.926 -3.49409 -1.10944 0
M  V30 2019 H 197.574 -3.52799 -3.58527 0
M  V30 2020 H 197.274 -5.12982 -2.86571 0
M  V30 2021 H 198.798 -4.822 -3.74587 0
M  V30 2022 H 200.212 -5.5106 -1.58132 0
M  V30 2023 H 198.609 -5.9314 -0.911319 0
M  V30 2024 H 199.679 -4.849 -0.00218681 0
M  V30 2025 N 201.022 0.148545 -1.56898 0
M  V30 2026 C 202.27 0.859717 -1.82902 0
M  V30 2027 C 202.591 1.81775 -0.70588 0
M  V30 2028 O 201.861 1.93994 0.272586 0
M  V30 2029 H 200.441 0.320469 -0.674766 0
M  V30 2030 H 203.103 0.142918 -1.94375 0
M  V30 2031 H 202.199 1.4229 -2.77777 0
M  V30 2032 N 202.5 1.5196 0.417844 0
M  V30 2033 C 203.777 1.56146 1.17803 0
M  V30 2034 C 204.157 0.337275 2.08388 0
M  V30 2035 O 203.505 -0.676447 2.18258 0
M  V30 2036 C 203.715 2.88566 1.96293 0
M  V30 2037 C 205.063 3.41244 2.52662 0
M  V30 2038 O 206.087 2.90247 2.06483 0
M  V30 2039 O 204.946 4.30273 3.36938 0
M  V30 2040 H 202.04 0.628598 0.537395 0
M  V30 2041 H 204.586 1.64283 0.425331 0
M  V30 2042 H 203.358 3.69116 1.2988 0
M  V30 2043 H 202.981 2.83681 2.78587 0
M  V30 2044 N 203.978 -0.674533 1.42435 0
M  V30 2045 C 205.208 -1.46071 1.46105 0
M  V30 2046 C 205.616 -1.89067 0.0709605 0
M  V30 2047 O 204.959 -1.58731 -0.924677 0
M  V30 2048 C 205.021 -2.74145 2.32561 0
M  V30 2049 C 204.685 -2.53224 3.8043 0
M  V30 2050 C 205.682 -2.17809 4.72075 0
M  V30 2051 C 203.367 -2.6821 4.24698 0
M  V30 2052 C 205.361 -1.97648 6.05982 0
M  V30 2053 C 203.048 -2.47665 5.58664 0
M  V30 2054 C 204.046 -2.12437 6.49122 0
M  V30 2055 O 203.734 -1.9209 7.80613 0
M  V30 2056 H 203.466 -0.455959 0.499076 0
M  V30 2057 H 206.02 -0.836193 1.87609 0
M  V30 2058 H 204.25 -3.3908 1.85908 0
M  V30 2059 H 205.939 -3.36028 2.27683 0
M  V30 2060 H 206.705 -2.05826 4.39159 0
M  V30 2061 H 202.584 -2.94609 3.54579 0
M  V30 2062 H 206.128 -1.70075 6.7655 0
M  V30 2063 H 202.025 -2.59244 5.91154 0
M  V30 2064 H 202.793 -2.06686 7.91974 0
M  V30 2065 N 205.456 -1.28612 -0.910864 0
M  V30 2066 C 206.386 -1.15326 -2.03032 0
M  V30 2067 C 207.367 -0.0502924 -1.70026 0
M  V30 2068 O 208.552 -0.227797 -1.92859 0
M  V30 2069 C 205.682 -0.817343 -3.37545 0
M  V30 2070 C 204.636 -1.8754 -3.84724 0
M  V30 2071 C 203.962 -1.39305 -5.16235 0
M  V30 2072 C 205.262 -3.28244 -4.06267 0
M  V30 2073 H 206.956 -2.08975 -2.14406 0
M  V30 2074 H 204.502 -1.00612 -1.03021 0
M  V30 2075 H 206.455 -0.711151 -4.15356 0
M  V30 2076 H 205.179 0.154846 -3.26233 0
M  V30 2077 H 203.838 -1.97079 -3.09121 0
M  V30 2078 H 203.486 -0.409846 -5.01328 0
M  V30 2079 H 203.186 -2.10057 -5.48771 0
M  V30 2080 H 204.71 -1.30014 -5.96598 0
M  V30 2081 H 206.124 -3.21611 -4.74594 0
M  V30 2082 H 204.521 -3.96855 -4.5014 0
M  V30 2083 H 205.591 -3.72048 -3.10979 0
M  V30 2084 N 206.934 1.1197 -1.10907 0
M  V30 2085 C 207.844 2.21433 -0.774896 0
M  V30 2086 C 208.86 1.72478 0.229657 0
M  V30 2087 O 210.036 2.01288 0.0672008 0
M  V30 2088 C 207.101 3.4602 -0.216986 0
M  V30 2089 C 206.162 4.09791 -1.27944 0
M  V30 2090 C 205.395 5.28431 -0.748055 0
M  V30 2091 O 205.618 5.68823 0.423833 0
M  V30 2092 O 204.552 5.82644 -1.51027 0
M  V30 2093 H 208.378 2.5242 -1.68873 0
M  V30 2094 H 205.963 1.20399 -0.884555 0
M  V30 2095 H 207.845 4.21304 0.090059 0
M  V30 2096 H 206.52 3.16698 0.669633 0
M  V30 2097 H 205.427 3.36265 -1.63941 0
M  V30 2098 H 206.76 4.4328 -2.13925 0
M  V30 2099 N 208.412 0.89855 1.29475 0
M  V30 2100 C 209.342 0.39201 2.30186 0
M  V30 2101 C 210.323 -0.532359 1.61555 0
M  V30 2102 O 211.508 -0.443331 1.89072 0
M  V30 2103 C 208.638 -0.382353 3.45189 0
M  V30 2104 C 207.592 0.451483 4.25612 0
M  V30 2105 C 206.918 -0.450307 5.328 0
M  V30 2106 C 208.218 1.70079 4.93832 0
M  V30 2107 H 209.912 1.23362 2.72804 0
M  V30 2108 H 207.458 0.594638 1.31149 0
M  V30 2109 H 209.411 -0.747451 4.14718 0
M  V30 2110 H 208.135 -1.25774 3.01411 0
M  V30 2111 H 206.794 0.798897 3.57789 0
M  V30 2112 H 206.442 -1.32379 4.85268 0
M  V30 2113 H 206.142 0.103902 5.87508 0
M  V30 2114 H 207.666 -0.811623 6.05182 0
M  V30 2115 H 209.08 1.40549 5.55805 0
M  V30 2116 H 207.477 2.19623 5.58467 0
M  V30 2117 H 208.547 2.43744 4.19186 0
M  V30 2118 N 209.89 -1.43072 0.660911 0
M  V30 2119 C 211.167 -1.95307 0.107017 0
M  V30 2120 C 211.547 -1.60192 -1.37484 0
M  V30 2121 O 210.895 -0.890949 -2.10415 0
M  V30 2122 C 211.105 -3.47124 0.361402 0
M  V30 2123 C 212.453 -4.23738 0.270455 0
M  V30 2124 O 213.477 -3.54981 0.294382 0
M  V30 2125 O 212.336 -5.46131 0.200737 0
M  V30 2126 H 209.43 -0.826984 -0.00517729 0
M  V30 2127 H 211.976 -1.52972 0.734681 0
M  V30 2128 H 210.748 -3.65837 1.38848 0
M  V30 2129 H 210.371 -3.96475 -0.298953 0
M  V30 2130 N 211.368 -0.403325 -1.52352 0
M  V30 2131 C 212.779 0.0675782 -1.86578 0
M  V30 2132 C 213.13 1.44941 -1.32236 0
M  V30 2133 O 212.255 2.06112 -0.659307 0
M  V30 2134 C 212.85 0.129404 -3.38553 0
M  V30 2135 C 211.409 0.544629 -3.72439 0
M  V30 2136 C 210.556 -0.284551 -2.75836 0
M  V30 2137 H 213.507 -0.620631 -1.46061 0
M  V30 2138 H 213.528 0.94581 -3.68558 0
M  V30 2139 H 213.04 -0.87645 -3.78074 0
M  V30 2140 H 211.141 1.55734 -3.38493 0
M  V30 2141 H 211.254 0.293046 -4.78203 0
M  V30 2142 H 209.618 0.252258 -2.53448 0
M  V30 2143 H 210.401 -1.28865 -3.18196 0
M  V30 2144 N 212.846 1.57033 -0.133567 0
M  V30 2145 C 214.092 1.96764 0.515326 0
M  V30 2146 C 214.447 1.01653 1.63353 0
M  V30 2147 O 213.74 0.0491374 1.91537 0
M  V30 2148 C 213.934 3.40674 1.08057 0
M  V30 2149 C 213.763 4.49696 0.0186522 0
M  V30 2150 C 212.533 5.03567 -0.418174 0
M  V30 2151 C 214.731 5.08536 -0.767809 0
M  V30 2152 N 212.713 5.9618 -1.46434 0
M  V30 2153 C 214.084 5.97231 -1.6648 0
M  V30 2154 C 216.139 4.9115 -0.817087 0
M  V30 2155 C 214.842 6.70401 -2.60681 0
M  V30 2156 C 216.868 5.65012 -1.74687 0
M  V30 2157 C 216.23 6.53403 -2.63141 0
M  V30 2158 H 212.329 0.765919 0.157771 0
M  V30 2159 H 214.913 1.93395 -0.22506 0
M  V30 2160 H 213.084 3.44662 1.79061 0
M  V30 2161 H 214.816 3.67495 1.69497 0
M  V30 2162 H 211.571 4.73594 -0.0229803 0
M  V30 2163 H 211.995 6.47191 -1.98678 0
M  V30 2164 H 216.637 4.22543 -0.147326 0
M  V30 2165 H 214.355 7.38245 -3.28664 0
M  V30 2166 H 217.941 5.53559 -1.79063 0
M  V30 2167 H 216.821 7.09556 -3.33917 0
M  V30 2168 N 214.325 -0.140222 1.56975 0
M  V30 2169 C 215.741 -0.493088 1.51792 0
M  V30 2170 C 215.941 -1.83013 0.843116 0
M  V30 2171 O 214.997 -2.49041 0.416493 0
M  V30 2172 C 216.31 -0.497144 2.96562 0
M  V30 2173 C 217.858 -0.582186 3.07538 0
M  V30 2174 C 218.333 -0.616838 4.53827 0
M  V30 2175 N 219.824 -0.678873 4.58198 0
M  V30 2176 C 220.559 -0.726782 5.68775 0
M  V30 2177 N 220.055 -0.733623 6.88905 0
M  V30 2178 N 221.848 -0.768179 5.56826 0
M  V30 2179 H 213.999 0.736108 1.99237 0
M  V30 2180 H 216.262 0.269182 0.90898 0
M  V30 2181 H 215.968 0.417217 3.49217 0
M  V30 2182 H 215.842 -1.33263 3.52875 0
M  V30 2183 H 218.229 -1.48697 2.54899 0
M  V30 2184 H 218.31 0.280581 2.54257 0
M  V30 2185 H 217.954 0.283812 5.07106 0
M  V30 2186 H 217.884 -1.49619 5.04898 0
M  V30 2187 H 220.375 -0.68061 3.7172 0
M  V30 2188 H 220.688 -0.772215 7.68932 0
M  V30 2189 H 219.033 -0.701389 6.91452 0
M  V30 2190 H 222.224 -0.760051 4.61888 0
M  V30 2191 H 222.397 -0.80205 6.43017 0
M  V30 2192 N 215.803 -1.52179 -0.40978 0
M  V30 2193 C 216.735 -1.71703 -1.51825 0
M  V30 2194 C 217.748 -0.597445 -1.51441 0
M  V30 2195 O 218.937 -0.872582 -1.55719 0
M  V30 2196 C 216.037 -1.74171 -2.90719 0
M  V30 2197 C 215.21 -3.03156 -3.15302 0
M  V30 2198 C 214.269 -2.97445 -4.34065 0
M  V30 2199 O 213.295 -3.71352 -4.31377 0
M  V30 2200 N 214.497 -2.15191 -5.39141 0
M  V30 2201 H 217.262 -2.67334 -1.35472 0
M  V30 2202 H 214.823 -1.50409 -0.599069 0
M  V30 2203 H 216.815 -1.67884 -3.68235 0
M  V30 2204 H 215.385 -0.860166 -3.00533 0
M  V30 2205 H 214.605 -3.23097 -2.25836 0
M  V30 2206 H 215.893 -3.88484 -3.28569 0
M  V30 2207 H 215.291 -1.54573 -5.44173 0
M  V30 2208 H 213.848 -2.1476 -6.15403 0
M  V30 2209 N 217.281 0.66697 -1.42791 0
M  V30 2210 C 218.509 1.45505 -1.47091 0
M  V30 2211 C 218.924 1.8861 -0.0845873 0
M  V30 2212 O 218.281 1.58632 0.90234 0
M  V30 2213 C 218.332 2.69906 -2.40485 0
M  V30 2214 O 218.053 2.28608 -3.73725 0
M  V30 2215 C 219.554 3.63396 -2.53886 0
M  V30 2216 H 216.774 0.447459 -0.500022 0
M  V30 2217 H 219.318 0.818866 -1.8739 0
M  V30 2218 H 217.473 3.29696 -2.03419 0
M  V30 2219 H 217.887 3.08997 -4.23817 0
M  V30 2220 H 219.361 4.47387 -3.2334 0
M  V30 2221 H 219.838 4.09824 -1.57927 0
M  V30 2222 H 220.444 3.09495 -2.91706 0
M  V30 2223 N 218.759 1.29093 0.90403 0
M  V30 2224 C 219.689 1.16401 2.02418 0
M  V30 2225 C 220.67 0.0593085 1.69997 0
M  V30 2226 O 221.855 0.238021 1.92736 0
M  V30 2227 C 218.985 0.835233 3.37107 0
M  V30 2228 C 217.939 1.89578 3.83724 0
M  V30 2229 C 217.265 1.42041 5.15489 0
M  V30 2230 C 218.565 3.30394 4.04521 0
M  V30 2231 H 220.259 2.10109 2.13295 0
M  V30 2232 H 217.805 1.01157 1.02486 0
M  V30 2233 H 219.758 0.733169 4.14973 0
M  V30 2234 H 218.482 -0.137543 3.2631 0
M  V30 2235 H 217.141 1.98715 3.08071 0
M  V30 2236 H 216.789 0.436426 5.01103 0
M  V30 2237 H 216.489 2.12964 5.4765 0
M  V30 2238 H 218.013 1.33176 5.959 0
M  V30 2239 H 219.427 3.24123 4.72882 0
M  V30 2240 H 217.824 3.99237 4.48029 0
M  V30 2241 H 218.894 3.73692 3.09002 0
M  V30 2242 N 220.237 -1.11381 1.11499 0
M  V30 2243 C 221.483 -1.83403 0.865512 0
M  V30 2244 C 221.816 -1.84459 -0.607329 0
M  V30 2245 O 221.091 -1.29811 -1.44842 0
M  V30 2246 C 221.374 -3.30552 1.42855 0
M  V30 2247 C 221.227 -3.37886 2.96906 0
M  V30 2248 C 222.546 -4.26643 1.08 0
M  V30 2249 H 219.665 -0.665879 0.31587 0
M  V30 2250 H 222.307 -1.30601 1.37998 0
M  V30 2251 H 220.457 -3.75648 0.990985 0
M  V30 2252 H 222.129 -3.01343 3.49271 0
M  V30 2253 H 220.372 -2.78088 3.32941 0
M  V30 2254 H 221.043 -4.41458 3.31389 0
M  V30 2255 H 223.519 -3.89729 1.45775 0
M  V30 2256 H 222.395 -5.27986 1.50072 0
M  V30 2257 H 222.656 -4.42099 -0.00915037 0
M  V30 2258 N 221.715 -0.905404 -1.28997 0
M  V30 2259 C 222.678 -0.392253 -2.25819 0
M  V30 2260 C 223.678 0.476753 -1.5357 0
M  V30 2261 O 224.868 0.280994 -1.71919 0
M  V30 2262 C 222 0.438588 -3.38067 0
M  V30 2263 H 223.193 -1.24743 -2.72725 0
M  V30 2264 H 220.746 -0.684051 -1.40536 0
M  V30 2265 H 221.481 1.31352 -2.96508 0
M  V30 2266 H 221.266 -0.184167 -3.91667 0
M  V30 2267 H 222.756 0.78873 -4.10084 0
M  V30 2268 N 223.193 1.4272 -0.668489 0
M  V30 2269 C 224.123 2.335 -0.000100175 0
M  V30 2270 C 225.104 1.50328 0.795964 0
M  V30 2271 O 226.289 1.78949 0.754385 0
M  V30 2272 C 223.419 3.33874 0.956302 0
M  V30 2273 C 222.373 4.27152 0.269278 0
M  V30 2274 C 221.699 5.17684 1.33818 0
M  V30 2275 C 222.999 5.15373 -0.847805 0
M  V30 2276 H 224.693 2.89639 -0.758244 0
M  V30 2277 H 222.239 1.39269 -0.366079 0
M  V30 2278 H 224.192 3.9629 1.43292 0
M  V30 2279 H 222.916 2.76025 1.74579 0
M  V30 2280 H 221.575 3.66123 -0.187042 0
M  V30 2281 H 221.223 4.56165 2.1195 0
M  V30 2282 H 220.923 5.80918 0.883659 0
M  V30 2283 H 222.447 5.82974 1.81586 0
M  V30 2284 H 223.861 5.7151 -0.452681 0
M  V30 2285 H 222.258 5.87407 -1.22773 0
M  V30 2286 H 223.328 4.5415 -1.69929 0
M  V30 2287 N 224.671 0.411399 1.52136 0
M  V30 2288 C 225.919 -0.163322 2.01439 0
M  V30 2289 C 226.24 -1.45453 1.29879 0
M  V30 2290 O 225.51 -1.91225 0.4254 0
M  V30 2291 H 224.09 -0.0633447 0.744309 0
M  V30 2292 H 226.752 0.548161 1.87033 0
M  V30 2293 H 225.848 -0.357817 3.10042 0
M  V30 2294 N 226.149 -1.5696 0.141893 0
M  V30 2295 C 227.374 -2.00754 -0.520838 0
M  V30 2296 C 227.799 -1.0213 -1.57959 0
M  V30 2297 O 227.157 0.00371324 -1.813 0
M  V30 2298 C 227.205 -3.43318 -1.10294 0
M  V30 2299 O 226.309 -3.47679 -2.21795 0
M  V30 2300 H 225.65 -0.651564 -0.127908 0
M  V30 2301 H 228.18 -2.03221 0.23712 0
M  V30 2302 H 228.19 -3.82012 -1.43287 0
M  V30 2303 H 226.865 -4.14608 -0.327574 0
M  V30 2304 H 225.442 -3.20824 -1.9007 0
M  V30 2305 N 227.627 0.131896 -1.57047 0
M  V30 2306 C 228.873 0.838268 -1.85323 0
M  V30 2307 C 229.228 1.78098 -0.727937 0
M  V30 2308 O 228.521 1.89645 0.27304 0
M  V30 2309 C 228.715 1.63703 -3.17704 0
M  V30 2310 C 228.544 0.773167 -4.43004 0
M  V30 2311 C 227.314 0.432956 -5.03442 0
M  V30 2312 C 229.512 0.0966216 -5.14209 0
M  V30 2313 N 227.494 -0.442924 -6.123 0
M  V30 2314 C 228.865 -0.638778 -6.16701 0
M  V30 2315 C 230.92 0.018861 -4.97896 0
M  V30 2316 C 229.623 -1.44462 -7.04644 0
M  V30 2317 C 231.649 -0.773762 -5.86316 0
M  V30 2318 C 231.011 -1.4974 -6.883 0
M  V30 2319 H 227.11 0.284086 -0.728573 0
M  V30 2320 H 229.694 0.102731 -1.94429 0
M  V30 2321 H 227.865 2.3437 -3.09718 0
M  V30 2322 H 229.597 2.28774 -3.33833 0
M  V30 2323 H 226.352 0.772237 -4.67262 0
M  V30 2324 H 226.776 -0.872332 -6.71356 0
M  V30 2325 H 231.418 0.56397 -4.19022 0
M  V30 2326 H 229.136 -2.00093 -7.82936 0
M  V30 2327 H 232.722 -0.83612 -5.75761 0
M  V30 2328 H 231.602 -2.10087 -7.55535 0
M  V30 2329 N 229.106 1.52395 0.401703 0
M  V30 2330 C 230.016 1.7917 1.51444 0
M  V30 2331 C 231.032 0.677691 1.6026 0
M  V30 2332 O 232.208 0.963909 1.76835 0
M  V30 2333 C 229.273 1.94347 2.87107 0
M  V30 2334 C 228.334 3.18257 2.88116 0
M  V30 2335 C 227.567 3.32701 4.17308 0
M  V30 2336 O 227.79 2.52238 5.11598 0
M  V30 2337 O 226.724 4.25891 4.25324 0
M  V30 2338 H 230.55 2.73633 1.31752 0
M  V30 2339 H 228.135 1.3733 0.588296 0
M  V30 2340 H 230.017 2.06109 3.67555 0
M  V30 2341 H 228.692 1.03073 3.06851 0
M  V30 2342 H 227.599 3.11947 2.06494 0
M  V30 2343 H 228.932 4.09336 2.73322 0
M  V30 2344 N 230.584 -0.659388 1.43143 0
M  V30 2345 C 231.547 -1.75432 1.47501 0
M  V30 2346 C 232.547 -1.56707 0.360512 0
M  V30 2347 O 233.737 -1.62717 0.622002 0
M  V30 2348 C 230.869 -3.14239 1.32162 0
M  V30 2349 H 232.062 -1.7295 2.45006 0
M  V30 2350 H 229.615 -0.870469 1.29817 0
M  V30 2351 H 230.35 -3.22336 0.356401 0
M  V30 2352 H 230.135 -3.29235 2.12948 0
M  V30 2353 H 231.625 -3.94094 1.3813 0
M  V30 2354 N 232.062 -1.29571 -0.897171 0
M  V30 2355 C 233.478 -1.07637 -1.17841 0
M  V30 2356 C 233.678 0.170713 -2.00776 0
M  V30 2357 O 232.734 0.867768 -2.3712 0
M  V30 2358 C 234.047 -2.3332 -1.8969 0
M  V30 2359 C 235.595 -2.38664 -2.02505 0
M  V30 2360 C 236.07 -3.64157 -2.77765 0
M  V30 2361 N 237.561 -3.64894 -2.85318 0
M  V30 2362 C 238.296 -4.58679 -3.44094 0
M  V30 2363 N 237.792 -5.62799 -4.04017 0
M  V30 2364 N 239.585 -4.46245 -3.41793 0
M  V30 2365 H 231.736 -2.09598 -0.343883 0
M  V30 2366 H 233.999 -0.923333 -0.214848 0
M  V30 2367 H 233.705 -3.24262 -1.36187 0
M  V30 2368 H 233.579 -2.41025 -2.9015 0
M  V30 2369 H 235.966 -1.48208 -2.55183 0
M  V30 2370 H 236.047 -2.34943 -1.01171 0
M  V30 2371 H 235.691 -4.54965 -2.25763 0
M  V30 2372 H 235.621 -3.65137 -3.7945 0
M  V30 2373 H 238.112 -2.89613 -2.42761 0
M  V30 2374 H 238.425 -6.3048 -4.46895 0
M  V30 2375 H 236.77 -5.66605 -4.02472 0
M  V30 2376 H 239.961 -3.64094 -2.94199 0
M  V30 2377 H 240.134 -5.19518 -3.87304 0
M  V30 2378 N 233.54 1.10788 -1.12088 0
M  V30 2379 C 234.503 2.15207 -0.788577 0
M  V30 2380 C 235.503 1.59609 0.195317 0
M  V30 2381 O 236.693 1.74174 -0.0300193 0
M  V30 2382 C 233.825 3.4047 -0.171174 0
M  V30 2383 H 235.018 2.46116 -1.71368 0
M  V30 2384 H 232.571 1.26089 -0.923652 0
M  V30 2385 H 233.306 3.15176 0.763832 0
M  V30 2386 H 233.091 3.82109 -0.879514 0
M  V30 2387 H 234.581 4.17576 0.04496 0
M  V30 2388 N 235.018 0.912232 1.28515 0
M  V30 2389 C 235.948 0.416403 2.29757 0
M  V30 2390 C 236.929 -0.515194 1.6211 0
M  V30 2391 O 238.114 -0.423253 1.89532 0
M  V30 2392 C 235.244 -0.34572 3.45575 0
M  V30 2393 C 234.198 0.496599 4.25109 0
M  V30 2394 C 233.524 -0.393771 5.33248 0
M  V30 2395 C 234.824 1.75307 4.92001 0
M  V30 2396 H 236.518 1.26249 2.7148 0
M  V30 2397 H 234.064 0.608515 1.30511 0
M  V30 2398 H 236.017 -0.703422 4.15488 0
M  V30 2399 H 234.741 -1.2257 3.02728 0
M  V30 2400 H 233.4 0.8368 3.56922 0
M  V30 2401 H 233.048 -1.27225 4.86644 0
M  V30 2402 H 232.748 0.166209 5.87365 0
M  V30 2403 H 234.272 -0.747389 6.06009 0
M  V30 2404 H 235.686 1.46437 5.54283 0
M  V30 2405 H 234.083 2.25534 5.56106 0
M  V30 2406 H 235.153 2.48176 4.16577 0
M  V30 2407 N 236.496 -1.42363 0.676048 0
M  V30 2408 C 237.426 -2.33497 0.0124832 0
M  V30 2409 C 238.407 -1.50748 -0.787981 0
M  V30 2410 O 239.592 -1.79346 -0.744884 0
M  V30 2411 C 236.722 -3.34377 -0.938582 0
M  V30 2412 C 235.676 -4.27289 -0.246622 0
M  V30 2413 C 235.002 -5.18386 -1.31071 0
M  V30 2414 C 236.302 -5.14916 0.875125 0
M  V30 2415 H 237.996 -2.89233 0.773593 0
M  V30 2416 H 235.542 -1.39073 0.37346 0
M  V30 2417 H 237.495 -3.97044 -1.41188 0
M  V30 2418 H 236.219 -2.76947 -1.73113 0
M  V30 2419 H 234.878 -3.66018 0.206456 0
M  V30 2420 H 234.526 -4.57282 -2.09528 0
M  V30 2421 H 234.226 -5.81378 -0.852839 0
M  V30 2422 H 235.75 -5.83929 -1.78492 0
M  V30 2423 H 237.164 -5.71262 0.482983 0
M  V30 2424 H 235.561 -5.86747 1.25887 0
M  V30 2425 H 236.631 -4.53242 1.72335 0
M  V30 2426 N 237.974 -0.419461 -1.51915 0
M  V30 2427 C 238.924 0.418496 -2.24126 0
M  V30 2428 C 239.908 1.00495 -1.25656 0
M  V30 2429 O 241.1 0.926058 -1.50842 0
M  V30 2430 C 238.229 1.52899 -3.07371 0
M  V30 2431 C 237.315 0.952797 -4.13258 0
M  V30 2432 N 237.706 0.104175 -5.05693 0
M  V30 2433 C 236.004 1.22224 -4.28926 0
M  V30 2434 C 236.705 -0.21752 -5.81293 0
M  V30 2435 N 235.681 0.394293 -5.42168 0
M  V30 2436 H 239.483 -0.236048 -2.92951 0
M  V30 2437 H 236.997 -0.230481 -1.60756 0
M  V30 2438 H 238.994 2.14199 -3.57665 0
M  V30 2439 H 237.654 2.18605 -2.40088 0
M  V30 2440 H 238.665 -0.260924 -5.17242 0
M  V30 2441 H 235.342 1.87812 -3.72871 0
M  V30 2442 H 236.732 -0.906992 -6.6575 0
M  V30 2443 N 239.452 1.56882 -0.150215 0
M  V30 2444 C 240.68 2.00593 0.506948 0
M  V30 2445 C 241.095 1.03033 1.58208 0
M  V30 2446 O 240.452 0.0278396 1.82479 0
M  V30 2447 C 240.503 3.44209 1.10465 0
M  V30 2448 O 240.224 4.3804 0.0724636 0
M  V30 2449 C 241.725 4.03214 1.84211 0
M  V30 2450 H 238.945 0.65795 0.13169 0
M  V30 2451 H 241.489 2.03018 -0.245743 0
M  V30 2452 H 239.644 3.42625 1.80795 0
M  V30 2453 H 240.058 5.22007 0.510793 0
M  V30 2454 H 241.532 5.0569 2.21318 0
M  V30 2455 H 242.009 3.44107 2.72923 0
M  V30 2456 H 242.615 4.08437 1.18572 0
M  V30 2457 N 240.93 -0.123565 1.57115 0
M  V30 2458 C 241.86 -1.15309 2.03042 0
M  V30 2459 C 242.841 -1.43454 0.914061 0
M  V30 2460 O 244.026 -1.53973 1.18347 0
M  V30 2461 C 241.156 -2.48043 2.43089 0
M  V30 2462 C 240.11 -2.3437 3.58127 0
M  V30 2463 C 239.436 -3.72026 3.84059 0
M  V30 2464 C 240.736 -1.80804 4.90007 0
M  V30 2465 H 242.43 -0.771102 2.893 0
M  V30 2466 H 239.976 -0.369479 1.39179 0
M  V30 2467 H 241.929 -3.20311 2.73823 0
M  V30 2468 H 240.653 -2.88122 1.53796 0
M  V30 2469 H 239.312 -1.64551 3.27595 0
M  V30 2470 H 238.96 -4.09582 2.91979 0
M  V30 2471 H 238.66 -3.63732 4.6149 0
M  V30 2472 H 240.184 -4.45806 4.1724 0
M  V30 2473 H 241.598 -2.42886 5.19307 0
M  V30 2474 H 239.995 -1.83343 5.71407 0
M  V30 2475 H 241.065 -0.76528 4.78823 0
M  V30 2476 N 242.408 -1.52605 -0.393616 0
M  V30 2477 C 243.318 -1.79971 -1.50492 0
M  V30 2478 C 244.334 -0.686181 -1.59899 0
M  V30 2479 O 245.51 -0.973274 -1.76322 0
M  V30 2480 C 242.575 -1.95867 -2.86072 0
M  V30 2481 C 241.636 -3.19781 -2.86424 0
M  V30 2482 C 240.869 -3.34909 -4.15538 0
M  V30 2483 O 241.092 -2.54948 -5.10253 0
M  V30 2484 O 240.026 -4.28141 -4.23059 0
M  V30 2485 H 243.852 -2.74328 -1.30299 0
M  V30 2486 H 241.437 -1.3764 -0.581005 0
M  V30 2487 H 243.319 -2.08056 -3.66457 0
M  V30 2488 H 241.994 -1.04699 -3.063 0
M  V30 2489 H 240.901 -3.13038 -2.04837 0
M  V30 2490 H 242.234 -4.1078 -2.71147 0
M  V30 2491 N 243.887 0.651787 -1.4349 0
M  V30 2492 C 244.837 1.75783 -1.45205 0
M  V30 2493 C 245.821 1.57679 -0.320328 0
M  V30 2494 O 247.013 1.67767 -0.564211 0
M  V30 2495 C 244.142 3.14377 -1.3792 0
M  V30 2496 C 243.228 3.38023 -2.56127 0
M  V30 2497 N 243.619 3.32135 -3.81471 0
M  V30 2498 C 241.917 3.68747 -2.50882 0
M  V30 2499 C 242.618 3.55902 -4.60118 0
M  V30 2500 N 241.594 3.77783 -3.90872 0
M  V30 2501 H 245.396 1.69657 -2.39987 0
M  V30 2502 H 242.91 0.853508 -1.38163 0
M  V30 2503 H 244.907 3.93666 -1.37231 0
M  V30 2504 H 243.567 3.21683 -0.441596 0
M  V30 2505 H 244.578 3.11515 -4.13738 0
M  V30 2506 H 241.255 3.8316 -1.65816 0
M  V30 2507 H 242.645 3.57116 -5.69138 0
M  V30 2508 N 245.365 1.30045 0.890287 0
M  V30 2509 C 246.613 1.18327 1.63839 0
M  V30 2510 C 246.934 -0.263455 1.93212 0
M  V30 2511 O 246.204 -1.17856 1.56482 0
M  V30 2512 H 244.784 0.434933 0.607324 0
M  V30 2513 H 247.446 1.631 1.06698 0
M  V30 2514 H 246.542 1.74024 2.59079 0
M  V30 2515 N 246.843 -1.10192 1.12674 0
M  V30 2516 C 247.753 -2.20172 0.810026 0
M  V30 2517 C 248.769 -1.72821 -0.202188 0
M  V30 2518 O 249.945 -2.01369 -0.0351691 0
M  V30 2519 C 247.01 -3.45631 0.272007 0
M  V30 2520 C 246.071 -4.07704 1.34447 0
M  V30 2521 C 245.304 -5.27175 0.832029 0
M  V30 2522 O 245.527 -5.69425 -0.333284 0
M  V30 2523 O 244.461 -5.80168 1.60277 0
M  V30 2524 H 248.287 -2.49701 1.72867 0
M  V30 2525 H 245.872 -1.18977 0.903597 0
M  V30 2526 H 247.754 -4.21394 -0.0230219 0
M  V30 2527 H 246.429 -3.17723 -0.619164 0
M  V30 2528 H 245.336 -3.33614 1.6927 0
M  V30 2529 H 246.669 -4.3982 2.2095 0
M  V30 2530 N 248.321 -0.919034 -1.28029 0
M  V30 2531 C 249.251 -0.428581 -2.29533 0
M  V30 2532 C 250.232 0.50659 -1.62381 0
M  V30 2533 O 251.417 0.413195 -1.89753 0
M  V30 2534 C 248.547 0.327388 -3.45753 0
M  V30 2535 C 247.501 -0.519137 -4.2484 0
M  V30 2536 C 246.827 0.365486 -5.33449 0
M  V30 2537 C 248.127 -1.77914 -4.91064 0
M  V30 2538 H 249.821 -1.27687 -2.70807 0
M  V30 2539 H 247.367 -0.615428 -1.30186 0
M  V30 2540 H 249.32 0.681378 -4.15855 0
M  V30 2541 H 248.044 1.20963 -3.03374 0
M  V30 2542 H 246.703 -0.855717 -3.56473 0
M  V30 2543 H 246.351 1.24642 -4.87312 0
M  V30 2544 H 246.051 -0.197356 -5.87268 0
M  V30 2545 H 247.575 0.715241 -6.06396 0
M  V30 2546 H 248.989 -1.49374 -5.53498 0
M  V30 2547 H 247.386 -2.2848 -5.54903 0
M  V30 2548 H 248.456 -2.50382 -4.15255 0
M  V30 2549 N 249.799 1.42003 -0.683588 0
M  V30 2550 C 251.047 2.01015 -0.209101 0
M  V30 2551 C 251.368 1.54365 1.19149 0
M  V30 2552 O 250.638 0.769083 1.80172 0
M  V30 2553 H 249.218 0.743294 -0.074315 0
M  V30 2554 H 251.88 1.73798 -0.882066 0
M  V30 2555 H 250.976 3.11343 -0.2172 0
M  V30 2556 N 251.277 0.427512 1.51691 0
M  V30 2557 C 252.523 -0.142439 2.02299 0
M  V30 2558 C 252.856 -1.43214 1.31162 0
M  V30 2559 O 252.131 -1.89833 0.423511 0
M  V30 2560 C 252.414 -0.371301 3.58181 0
M  V30 2561 C 252.267 0.936358 4.39946 0
M  V30 2562 C 253.586 -1.14542 4.24933 0
M  V30 2563 H 250.705 -0.0502937 0.735282 0
M  V30 2564 H 253.347 0.564584 1.81418 0
M  V30 2565 H 251.497 -0.973559 3.76104 0
M  V30 2566 H 253.169 1.57184 4.33694 0
M  V30 2567 H 251.412 1.5432 4.05423 0
M  V30 2568 H 252.083 0.730388 5.47147 0
M  V30 2569 H 254.559 -0.635362 4.11221 0
M  V30 2570 H 253.435 -1.27431 5.33903 0
M  V30 2571 H 253.696 -2.17093 3.85127 0
M  V30 2572 N 252.755 -1.56801 0.158532 0
M  V30 2573 C 254.032 -1.88131 -0.535357 0
M  V30 2574 C 254.412 -1.06638 -1.82186 0
M  V30 2575 O 253.76 -0.156533 -2.27963 0
M  V30 2576 C 253.97 -3.39949 -0.789653 0
M  V30 2577 C 255.318 -4.09416 -1.12533 0
M  V30 2578 O 256.342 -3.45194 -0.878622 0
M  V30 2579 O 255.201 -5.22855 -1.59014 0
M  V30 2580 H 252.295 -0.780143 -0.27442 0
M  V30 2581 H 254.841 -1.68564 0.19601 0
M  V30 2582 H 253.613 -3.91115 0.120353 0
M  V30 2583 H 253.236 -3.65084 -1.57479 0
M  V30 2584 N 254.233 0.115231 -1.57178 0
M  V30 2585 C 255.51 0.852873 -1.76027 0
M  V30 2586 C 255.89 1.97892 -0.73498 0
M  V30 2587 O 255.238 2.27232 0.24036 0
M  V30 2588 C 255.448 1.36608 -3.21153 0
M  V30 2589 C 256.796 1.81692 -3.83762 0
M  V30 2590 O 257.82 1.46278 -3.24779 0
M  V30 2591 O 256.679 2.47104 -4.87444 0
M  V30 2592 H 253.773 0.405296 -0.720877 0
M  V30 2593 H 256.319 0.0986785 -1.69413 0
M  V30 2594 H 255.091 0.558357 -3.87296 0
M  V30 2595 H 254.714 2.18287 -3.3232 0
M  V30 2596 N 255.711 1.52812 0.385517 0
M  V30 2597 C 256.957 1.68275 1.13188 0
M  V30 2598 C 257.29 0.423179 1.89533 0
M  V30 2599 O 256.565 -0.579113 1.85679 0
M  V30 2600 C 256.848 2.92001 2.1073 0
M  V30 2601 C 256.701 4.28067 1.38125 0
M  V30 2602 C 258.02 3.11283 3.11113 0
M  V30 2603 H 255.139 0.612352 0.410115 0
M  V30 2604 H 257.781 1.85415 0.414869 0
M  V30 2605 H 255.931 2.77519 2.71874 0
M  V30 2606 H 257.603 4.54324 0.799187 0
M  V30 2607 H 255.846 4.28388 0.683092 0
M  V30 2608 H 256.517 5.10733 2.09417 0
M  V30 2609 H 258.993 3.2482 2.6006 0
M  V30 2610 H 257.869 3.99325 3.76605 0
M  V30 2611 H 258.13 2.25656 3.80173 0
M  V30 2612 N 257.189 -0.644168 1.43834 0
M  V30 2613 C 258.099 -1.78563 1.52159 0
M  V30 2614 C 259.115 -1.69147 0.408069 0
M  V30 2615 O 260.291 -1.90156 0.663524 0
M  V30 2616 C 257.356 -3.14888 1.45073 0
M  V30 2617 C 256.417 -3.36034 2.6717 0
M  V30 2618 C 255.65 -4.65855 2.60413 0
M  V30 2619 O 255.873 -5.45805 1.65689 0
M  V30 2620 O 254.807 -4.88918 3.5106 0
M  V30 2621 H 258.633 -1.74494 2.48567 0
M  V30 2622 H 256.218 -0.80378 1.25935 0
M  V30 2623 H 258.1 -3.96179 1.43597 0
M  V30 2624 H 256.775 -3.19528 0.518037 0
M  V30 2625 H 255.682 -2.54472 2.74217 0
M  V30 2626 H 257.015 -3.36247 3.59442 0
M  V30 2627 N 258.668 -1.30515 -0.883378 0
M  V30 2628 C 259.598 -1.19607 -2.00541 0
M  V30 2629 C 260.579 -0.086346 -1.69881 0
M  V30 2630 O 261.764 -0.268654 -1.92333 0
M  V30 2631 C 258.894 -0.888758 -3.35736 0
M  V30 2632 C 257.848 -1.95659 -3.8066 0
M  V30 2633 C 257.174 -1.50224 -5.13164 0
M  V30 2634 C 258.474 -3.36788 -3.99213 0
M  V30 2635 H 260.168 -2.13476 -2.09925 0
M  V30 2636 H 257.714 -1.02775 -1.00863 0
M  V30 2637 H 259.667 -0.799094 -4.13754 0
M  V30 2638 H 258.391 0.0856125 -3.26488 0
M  V30 2639 H 257.05 -2.03591 -3.04871 0
M  V30 2640 H 256.698 -0.516092 -5.00345 0
M  V30 2641 H 256.398 -2.2165 -5.44192 0
M  V30 2642 H 257.922 -1.42639 -5.93706 0
M  V30 2643 H 259.336 -3.31605 -4.67665 0
M  V30 2644 H 257.733 -4.06314 -4.41621 0
M  V30 2645 H 258.803 -3.78561 -3.03017 0
M  V30 2646 N 260.146 1.09593 -1.13257 0
M  V30 2647 C 261.392 1.82003 -0.89458 0
M  V30 2648 C 261.725 1.85402 0.577906 0
M  V30 2649 O 261 1.32099 1.42759 0
M  V30 2650 C 261.283 3.28237 -1.48096 0
M  V30 2651 C 261.136 3.3312 -3.02244 0
M  V30 2652 C 262.455 4.24871 -1.14774 0
M  V30 2653 H 259.574 0.66077 -0.326424 0
M  V30 2654 H 262.216 1.28389 -1.40058 0
M  V30 2655 H 260.366 3.74024 -1.05062 0
M  V30 2656 H 262.038 2.95748 -3.54021 0
M  V30 2657 H 260.281 2.72756 -3.37323 0
M  V30 2658 H 260.952 4.3613 -3.38371 0
M  V30 2659 H 263.428 3.87361 -1.51957 0
M  V30 2660 H 262.304 5.25532 -1.58452 0
M  V30 2661 H 262.565 4.42058 -0.0611849 0
M  V30 2662 N 261.624 0.925811 1.2754 0
M  V30 2663 C 263.035 0.610102 1.7645 0
M  V30 2664 C 263.386 -0.874723 1.75622 0
M  V30 2665 O 262.511 -1.68444 1.35851 0
M  V30 2666 C 263.106 1.10073 3.20421 0
M  V30 2667 C 261.665 0.835723 3.67005 0
M  V30 2668 C 260.812 1.26054 2.46993 0
M  V30 2669 H 263.763 1.10579 1.13833 0
M  V30 2670 H 263.784 0.447557 3.77859 0
M  V30 2671 H 263.296 2.18143 3.20991 0
M  V30 2672 H 261.397 -0.231249 3.71882 0
M  V30 2673 H 261.51 1.45193 4.56569 0
M  V30 2674 H 259.874 0.679111 2.45479 0
M  V30 2675 H 260.657 2.34984 2.50275 0
M  V30 2676 N 263.102 -1.41638 0.69111 0
M  V30 2677 C 264.351 -2.00526 0.217318 0
M  V30 2678 C 264.664 -1.55353 -1.18848 0
M  V30 2679 O 265.87 -2.06769 -1.75951 0
M  V30 2680 C 264.326 -3.58313 0.337639 0
M  V30 2681 C 263.934 -4.12469 1.74852 0
M  V30 2682 C 265.678 -4.24431 -0.0766066 0
M  V30 2683 C 263.585 -5.62675 1.82074 0
M  V30 2684 H 262.515 -0.750008 0.0774893 0
M  V30 2685 H 265.166 -1.6217 0.858661 0
M  V30 2686 H 263.548 -3.9425 -0.371879 0
M  V30 2687 H 264.722 -3.8796 2.48644 0
M  V30 2688 H 263.037 -3.58861 2.11205 0
M  V30 2689 H 265.634 -5.34683 -0.0430284 0
M  V30 2690 H 265.977 -4.01101 -1.1146 0
M  V30 2691 H 266.51 -3.93512 0.582476 0
M  V30 2692 H 263.249 -5.90826 2.83911 0
M  V30 2693 H 262.769 -5.89124 1.12661 0
M  V30 2694 H 264.448 -6.27371 1.58159 0
M  V30 2695 N 264.58 -0.43555 -1.51462 0
M  V30 2696 C 265.805 0.132627 -2.06976 0
M  V30 2697 C 266.23 1.35848 -1.30104 0
M  V30 2698 O 265.588 1.78112 -0.338493 0
M  V30 2699 C 265.636 0.43523 -3.57964 0
M  V30 2700 O 264.74 1.52198 -3.83288 0
M  V30 2701 H 264.081 0.00265 -0.663995 0
M  V30 2702 H 266.611 -0.616369 -1.95095 0
M  V30 2703 H 266.621 0.686206 -4.02188 0
M  V30 2704 H 265.296 -0.460739 -4.1334 0
M  V30 2705 H 263.873 1.2611 -3.50928 0
M  V30 2706 N 266.058 1.56714 -0.166846 0
M  V30 2707 C 267.283 2.01557 0.488833 0
M  V30 2708 C 267.708 1.0463 1.56314 0
M  V30 2709 O 267.066 0.0251304 1.81283 0
M  V30 2710 C 267.114 3.4503 1.04818 0
M  V30 2711 O 266.218 3.51163 2.16236 0
M  V30 2712 H 265.559 0.653516 0.117526 0
M  V30 2713 H 268.089 2.02818 -0.269421 0
M  V30 2714 H 268.099 3.84243 1.37191 0
M  V30 2715 H 266.774 4.15077 0.261572 0
M  V30 2716 H 265.351 3.23807 1.84942 0
M  V30 2717 N 267.536 -0.106894 1.57237 0
M  V30 2718 C 268.947 -0.662723 1.74542 0
M  V30 2719 C 269.298 -1.7971 0.787319 0
M  V30 2720 O 268.423 -2.16368 -0.0369636 0
M  V30 2721 C 269.018 -1.20896 3.16496 0
M  V30 2722 C 267.577 -1.71096 3.35266 0
M  V30 2723 C 266.724 -0.615642 2.7038 0
M  V30 2724 H 269.675 0.119106 1.58252 0
M  V30 2725 H 269.696 -2.07847 3.18716 0
M  V30 2726 H 269.208 -0.383122 3.86204 0
M  V30 2727 H 267.309 -2.56119 2.70618 0
M  V30 2728 H 267.422 -1.81208 4.43509 0
M  V30 2729 H 265.786 -1.05222 2.31949 0
M  V30 2730 H 266.569 0.199419 3.4272 0
M  V30 2731 N 269.014 -1.53014 -0.377408 0
M  V30 2732 C 270.262 -1.6829 -1.11906 0
M  V30 2733 C 270.583 -0.431206 -1.90173 0
M  V30 2734 O 269.853 0.554595 -1.87886 0
M  V30 2735 H 268.433 -0.620371 -0.416112 0
M  V30 2736 H 271.095 -1.90167 -0.426893 0
M  V30 2737 H 270.191 -2.53862 -1.8155 0
M  V30 2738 N 270.492 0.636531 -1.44174 0
M  V30 2739 C 271.738 1.39826 -1.4689 0
M  V30 2740 C 272.071 1.93947 -0.0990585 0
M  V30 2741 O 271.346 1.73325 0.882544 0
M  V30 2742 C 271.629 2.56751 -2.5249 0
M  V30 2743 C 271.482 2.08014 -3.98811 0
M  V30 2744 C 272.801 3.58946 -2.54649 0
M  V30 2745 H 269.92 0.507075 -0.53483 0
M  V30 2746 H 272.562 0.720188 -1.75822 0
M  V30 2747 H 270.712 3.14597 -2.2795 0
M  V30 2748 H 272.384 1.5504 -4.34466 0
M  V30 2749 H 270.627 1.39242 -4.10846 0
M  V30 2750 H 271.298 2.92169 -4.68339 0
M  V30 2751 H 273.774 3.1089 -2.76563 0
M  V30 2752 H 272.65 4.38286 -3.3045 0
M  V30 2753 H 272.911 4.12655 -1.58646 0
M  V30 2754 N 271.97 1.30982 0.876444 0
M  V30 2755 C 273.247 1.10942 1.61094 0
M  V30 2756 C 273.627 -0.338223 2.08373 0
M  V30 2757 O 272.975 -1.33122 1.85717 0
M  V30 2758 C 273.185 2.11789 2.77392 0
M  V30 2759 C 274.533 2.43965 3.47514 0
M  V30 2760 O 275.557 2.10166 2.87591 0
M  V30 2761 O 274.416 3.01817 4.55597 0
M  V30 2762 H 271.51 0.42667 0.708436 0
M  V30 2763 H 274.056 1.42438 0.922474 0
M  V30 2764 H 272.828 3.09194 2.39823 0
M  V30 2765 H 272.451 1.81161 3.5393 0
M  V30 2766 N 273.449 -1.08991 1.13837 0
M  V30 2767 C 274.695 -1.81526 0.90422 0
M  V30 2768 C 275.028 -1.85706 -0.568066 0
M  V30 2769 O 274.303 -1.32855 -1.42056 0
M  V30 2770 C 274.586 -3.27447 1.49835 0
M  V30 2771 C 274.439 -3.31512 3.04006 0
M  V30 2772 C 275.758 -4.24256 1.17025 0
M  V30 2773 H 272.877 -0.659029 0.329923 0
M  V30 2774 H 275.519 -1.27644 1.40737 0
M  V30 2775 H 273.669 -3.73462 1.07044 0
M  V30 2776 H 275.341 -2.93867 3.55584 0
M  V30 2777 H 273.584 -2.70963 3.38765 0
M  V30 2778 H 274.255 -4.34329 3.40679 0
M  V30 2779 H 276.731 -3.86549 1.54009 0
M  V30 2780 H 275.607 -5.24684 1.61237 0
M  V30 2781 H 275.868 -4.42019 0.0846274 0
M  V30 2782 N 274.927 -0.932562 -1.27047 0
M  V30 2783 C 276.338 -0.619451 -1.76124 0
M  V30 2784 C 276.689 0.865397 -1.76083 0
M  V30 2785 O 275.814 1.67722 -1.36742 0
M  V30 2786 C 276.409 -1.11771 -3.19832 0
M  V30 2787 C 274.968 -0.855174 -3.66557 0
M  V30 2788 C 274.115 -1.27362 -2.46321 0
M  V30 2789 H 277.066 -1.11181 -1.13245 0
M  V30 2790 H 277.087 -0.46759 -3.77616 0
M  V30 2791 H 276.599 -2.19842 -3.1983 0
M  V30 2792 H 274.7 0.211524 -3.71999 0
M  V30 2793 H 274.813 -1.47613 -4.55793 0
M  V30 2794 H 273.177 -0.692119 -2.45116 0
M  V30 2795 H 273.96 -2.36307 -2.49025 0
M  V30 2796 N 276.405 1.4127 -0.698611 0
M  V30 2797 C 277.368 2.29158 -0.044132 0
M  V30 2798 C 278.368 1.44529 0.704841 0
M  V30 2799 O 279.558 1.65643 0.539276 0
M  V30 2800 C 276.69 3.27459 0.947809 0
M  V30 2801 H 277.883 2.88529 -0.817994 0
M  V30 2802 H 275.436 1.49307 -0.46228 0
M  V30 2803 H 276.171 2.73073 1.74933 0
M  V30 2804 H 275.956 3.8991 0.41385 0
M  V30 2805 H 277.446 3.93311 1.40344 0
M  V30 2806 N 277.883 0.443576 1.51229 0
M  V30 2807 C 278.793 -0.370721 2.31652 0
M  V30 2808 C 279.809 -1.02186 1.40833 0
M  V30 2809 O 280.985 -1.01586 1.73903 0
M  V30 2810 C 278.05 -1.45376 3.14749 0
M  V30 2811 C 277.111 -0.822099 4.21355 0
M  V30 2812 C 276.344 -1.85353 5.0048 0
M  V30 2813 O 276.567 -3.07656 4.80316 0
M  V30 2814 O 275.501 -1.4406 5.84406 0
M  V30 2815 H 279.327 0.286002 3.0235 0
M  V30 2816 H 276.912 0.20598 1.47973 0
M  V30 2817 H 278.794 -2.08173 3.66391 0
M  V30 2818 H 277.469 -2.09445 2.46809 0
M  V30 2819 H 276.376 -0.155909 3.73775 0
M  V30 2820 H 277.709 -0.224797 4.91686 0
M  V30 2821 N 279.361 -1.56624 0.175154 0
M  V30 2822 C 280.293 -2.15333 -0.785128 0
M  V30 2823 C 281.306 -1.1099 -1.19101 0
M  V30 2824 O 282.495 -1.38162 -1.13019 0
M  V30 2825 C 279.595 -2.68427 -2.06882 0
M  V30 2826 C 278.768 -3.97466 -1.8259 0
M  V30 2827 C 277.827 -4.35585 -2.95215 0
M  V30 2828 O 276.853 -5.03389 -2.65684 0
M  V30 2829 N 278.055 -3.97457 -4.23094 0
M  V30 2830 H 280.82 -2.98359 -0.283187 0
M  V30 2831 H 278.381 -1.61898 -0.00749817 0
M  V30 2832 H 280.373 -2.90924 -2.81328 0
M  V30 2833 H 278.943 -1.89968 -2.48256 0
M  V30 2834 H 278.163 -3.83307 -0.920287 0
M  V30 2835 H 279.451 -4.81736 -1.63733 0
M  V30 2836 H 278.849 -3.42878 -4.49945 0
M  V30 2837 H 277.406 -4.24947 -4.9423 0
M  V30 2838 N 280.839 0.0985539 -1.57292 0
M  V30 2839 C 281.769 1.12064 -2.04851 0
M  V30 2840 C 282.75 1.41981 -0.936767 0
M  V30 2841 O 283.935 1.52071 -1.20781 0
M  V30 2842 C 281.065 2.44144 -2.47004 0
M  V30 2843 C 280.019 2.28643 -3.6181 0
M  V30 2844 C 279.345 3.65869 -3.89929 0
M  V30 2845 C 280.645 1.72986 -4.92822 0
M  V30 2846 H 282.339 0.724979 -2.9049 0
M  V30 2847 H 279.885 0.34729 -1.39749 0
M  V30 2848 H 281.838 3.15914 -2.78884 0
M  V30 2849 H 280.562 2.85639 -1.5836 0
M  V30 2850 H 279.221 1.59318 -3.30172 0
M  V30 2851 H 278.869 4.04885 -2.98458 0
M  V30 2852 H 278.569 3.56344 -4.67218 0
M  V30 2853 H 280.093 4.39112 -4.2428 0
M  V30 2854 H 281.507 2.34593 -5.23105 0
M  V30 2855 H 279.904 1.74229 -5.74251 0
M  V30 2856 H 280.974 0.689007 -4.7998 0
M  V30 2857 N 282.317 1.53212 0.369288 0
M  V30 2858 C 283.227 1.82342 1.47609 0
M  V30 2859 C 284.243 0.711532 1.58787 0
M  V30 2860 O 285.419 1.0012 1.74751 0
M  V30 2861 C 282.484 2.00393 2.8292 0
M  V30 2862 C 281.545 3.24297 2.81301 0
M  V30 2863 C 280.778 3.41478 4.10157 0
M  V30 2864 O 281.001 2.63033 5.06132 0
M  V30 2865 O 279.935 4.34817 4.16194 0
M  V30 2866 H 283.761 2.76366 1.25918 0
M  V30 2867 H 281.346 1.38547 0.559034 0
M  V30 2868 H 283.228 2.13859 3.63101 0
M  V30 2869 H 281.903 1.09559 3.04596 0
M  V30 2870 H 280.81 3.16257 1.99831 0
M  V30 2871 H 282.143 4.15041 2.64578 0
M  V30 2872 N 283.795 -0.628877 1.44509 0
M  V30 2873 C 284.705 -1.7694 1.54044 0
M  V30 2874 C 285.721 -1.68705 0.425987 0
M  V30 2875 O 286.897 -1.89442 0.683656 0
M  V30 2876 C 283.962 -3.13332 1.48405 0
M  V30 2877 C 283.023 -3.33181 2.70719 0
M  V30 2878 C 282.256 -4.63067 2.6534 0
M  V30 2879 O 282.479 -5.44017 1.71469 0
M  V30 2880 O 281.413 -4.85167 3.56226 0
M  V30 2881 H 285.239 -1.71848 2.50403 0
M  V30 2882 H 282.824 -0.790378 1.26781 0
M  V30 2883 H 284.706 -3.94634 1.47791 0
M  V30 2884 H 283.381 -3.1896 0.551898 0
M  V30 2885 H 282.288 -2.51549 2.769 0
M  V30 2886 H 283.621 -3.32416 3.62988 0
M  V30 2887 N 285.273 -1.31445 -0.869486 0
M  V30 2888 C 286.498 -1.24256 -1.66058 0
M  V30 2889 C 286.923 0.188928 -1.87149 0
M  V30 2890 O 286.281 1.13522 -1.4136 0
M  V30 2891 C 286.329 -1.9924 -3.00559 0
M  V30 2892 O 285.433 -1.33007 -3.90362 0
M  V30 2893 H 284.774 -0.428973 -0.506831 0
M  V30 2894 H 287.304 -1.73521 -1.08404 0
M  V30 2895 H 287.314 -2.08854 -3.50491 0
M  V30 2896 H 285.989 -3.03342 -2.84528 0
M  V30 2897 H 284.566 -1.31848 -3.48813 0
M  V30 2898 N 286.751 1.08385 -1.14413 0
M  V30 2899 C 287.714 2.13486 -0.834048 0
M  V30 2900 C 288.714 1.59988 0.161418 0
M  V30 2901 O 289.904 1.74071 -0.0669575 0
M  V30 2902 C 287.036 3.4003 -0.243354 0
M  V30 2903 H 288.229 2.42425 -1.7655 0
M  V30 2904 H 285.782 1.24101 -0.950189 0
M  V30 2905 H 286.517 3.16726 0.696807 0
M  V30 2906 H 286.302 3.80157 -0.960367 0
M  V30 2907 H 287.792 4.17577 -0.0436242 0
M  V30 2908 N 288.23 0.939286 1.26551 0
M  V30 2909 C 289.458 0.602536 1.97932 0
M  V30 2910 C 289.873 -0.82206 1.69964 0
M  V30 2911 O 289.23 -1.54789 0.966784 0
M  V30 2912 C 289.281 0.832946 3.51773 0
M  V30 2913 O 289.002 2.20151 3.78768 0
M  V30 2914 C 290.503 0.506483 4.40397 0
M  V30 2915 H 287.723 0.227248 0.631347 0
M  V30 2916 H 290.267 1.25948 1.61113 0
M  V30 2917 H 288.422 0.222644 3.8676 0
M  V30 2918 H 288.836 2.26013 4.73306 0
M  V30 2919 H 290.31 0.718333 5.47306 0
M  V30 2920 H 290.787 -0.558451 4.35635 0
M  V30 2921 H 291.393 1.09543 4.10951 0
M  V30 2922 N 289.708 -1.40897 0.706093 0
M  V30 2923 C 290.954 -2.01352 0.241889 0
M  V30 2924 C 291.287 -1.55832 -1.15888 0
M  V30 2925 O 290.562 -0.774145 -1.7843 0
M  V30 2926 C 290.845 -3.58752 0.311311 0
M  V30 2927 C 290.698 -4.1437 1.74978 0
M  V30 2928 C 292.017 -4.38914 -0.322922 0
M  V30 2929 H 289.136 -0.731562 0.0893687 0
M  V30 2930 H 291.778 -1.67504 0.896802 0
M  V30 2931 H 289.928 -3.87718 -0.246302 0
M  V30 2932 H 291.6 -3.96239 2.36205 0
M  V30 2933 H 289.843 -3.69016 2.28057 0
M  V30 2934 H 290.514 -5.23532 1.74981 0
M  V30 2935 H 292.99 -4.15822 0.152089 0
M  V30 2936 H 291.866 -5.48358 -0.243855 0
M  V30 2937 H 292.127 -4.19176 -1.40513 0
M  V30 2938 N 291.186 -0.45159 -1.50991 0
M  V30 2939 C 292.133 0.352625 -2.2809 0
M  V30 2940 C 293.103 1.0044 -1.32291 0
M  V30 2941 O 294.288 1.02058 -1.6121 0
M  V30 2942 C 291.428 1.43983 -3.13629 0
M  V30 2943 C 290.541 0.804772 -4.24438 0
M  V30 2944 C 289.676 1.86822 -4.97263 0
M  V30 2945 C 288.715 1.21236 -5.99973 0
M  V30 2946 N 287.852 2.2178 -6.66152 0
M  V30 2947 H 292.692 -0.311186 -2.96371 0
M  V30 2948 H 290.229 -0.165308 -1.46168 0
M  V30 2949 H 292.187 2.08161 -3.61559 0
M  V30 2950 H 290.817 2.07307 -2.47434 0
M  V30 2951 H 289.869 0.0509129 -3.80366 0
M  V30 2952 H 291.181 0.286076 -4.97979 0
M  V30 2953 H 290.335 2.58628 -5.48813 0
M  V30 2954 H 289.074 2.42068 -4.23385 0
M  V30 2955 H 288.079 0.479828 -5.47702 0
M  V30 2956 H 289.304 0.667051 -6.75816 0
M  V30 2957 H 287.25 2.76079 -5.95077 0
M  V30 2958 H 287.167 1.74841 -7.35504 0
M  V30 2959 H 288.435 2.93026 -7.22327 0
M  V30 2960 N 292.664 1.56529 -0.183458 0
M  V30 2961 C 293.912 1.96855 0.457452 0
M  V30 2962 C 294.233 1.07104 1.62953 0
M  V30 2963 O 293.503 0.139887 1.954 0
M  V30 2964 H 292.083 0.72693 0.171992 0
M  V30 2965 H 294.745 1.93056 -0.267476 0
M  V30 2966 H 293.841 3.01423 0.809368 0
M  V30 2967 N 294.142 -0.090211 1.57342 0
M  V30 2968 C 295.105 -1.09335 2.01441 0
M  V30 2969 C 296.105 -1.32666 0.908641 0
M  V30 2970 O 297.295 -1.28697 1.174 0
M  V30 2971 C 294.427 -2.44136 2.3793 0
M  V30 2972 H 295.62 -0.713662 2.91285 0
M  V30 2973 H 293.173 -0.335404 1.52659 0
M  V30 2974 H 293.908 -2.86972 1.51055 0
M  V30 2975 H 293.693 -2.28548 3.18603 0
M  V30 2976 H 295.183 -3.16277 2.72688 0
M  V30 2977 N 295.62 -1.53406 -0.361157 0
M  V30 2978 C 296.897 -1.60411 -1.11927 0
M  V30 2979 C 297.277 -0.414385 -2.06993 0
M  V30 2980 O 296.625 0.594976 -2.20618 0
M  V30 2981 C 296.835 -2.95652 -1.85448 0
M  V30 2982 C 298.183 -3.50386 -2.39823 0
M  V30 2983 O 299.207 -2.97711 -1.95568 0
M  V30 2984 O 298.066 -4.42482 -3.20737 0
M  V30 2985 H 295.16 -0.64811 -0.513695 0
M  V30 2986 H 297.706 -1.65749 -0.364065 0
M  V30 2987 H 296.478 -3.73682 -1.16091 0
M  V30 2988 H 296.101 -2.93825 -2.67866 0
M  V30 2989 N 297.098 0.621204 -1.44841 0
M  V30 2990 C 298.028 1.74366 -1.55303 0
M  V30 2991 C 299.009 1.65199 -0.405385 0
M  V30 2992 O 300.194 1.83807 -0.626787 0
M  V30 2993 C 297.324 3.12931 -1.50637 0
M  V30 2994 C 296.278 3.36896 -2.63979 0
M  V30 2995 C 295.604 4.75594 -2.44366 0
M  V30 2996 C 296.904 3.28483 -4.06074 0
M  V30 2997 H 298.598 1.65867 -2.49256 0
M  V30 2998 H 296.144 0.796558 -1.19962 0
M  V30 2999 H 298.097 3.9124 -1.56555 0
M  V30 3000 H 296.821 3.22237 -0.532057 0
M  V30 3001 H 295.48 2.60972 -2.57467 0
M  V30 3002 H 295.128 4.81616 -1.45105 0
M  V30 3003 H 294.828 4.92586 -3.20364 0
M  V30 3004 H 296.352 5.5612 -2.52117 0
M  V30 3005 H 297.766 3.96684 -4.13902 0
M  V30 3006 H 296.163 3.57008 -4.82354 0
M  V30 3007 H 297.233 2.26133 -4.28943 0
M  V30 3008 N 298.576 1.31904 0.862503 0
M  V30 3009 C 299.823 1.22017 1.61611 0
M  V30 3010 C 300.151 -0.21991 1.93253 0
M  V30 3011 O 299.406 -1.17076 1.56817 0
M  V30 3012 C 299.705 2.01713 2.95037 0
M  V30 3013 C 299.371 3.51145 2.82857 0
M  V30 3014 C 298.033 3.91889 2.79243 0
M  V30 3015 C 300.385 4.46204 2.69353 0
M  V30 3016 C 297.713 5.25947 2.59993 0
M  V30 3017 C 300.065 5.80397 2.5164 0
M  V30 3018 C 298.729 6.20352 2.46413 0
M  V30 3019 H 297.999 0.44649 0.591378 0
M  V30 3020 H 300.646 1.63248 1.00111 0
M  V30 3021 H 298.951 1.53185 3.60613 0
M  V30 3022 H 300.648 1.91437 3.52353 0
M  V30 3023 H 297.238 3.1878 2.86491 0
M  V30 3024 H 301.422 4.15652 2.71196 0
M  V30 3025 H 296.678 5.5597 2.54376 0
M  V30 3026 H 300.852 6.53676 2.40169 0
M  V30 3027 H 298.479 7.24172 2.31256 0
M  V30 3028 N 300.054 -1.07777 1.14986 0
M  V30 3029 C 301.465 -1.61766 0.932127 0
M  V30 3030 C 301.816 -1.88974 -0.527581 0
M  V30 3031 O 300.941 -1.65198 -1.39781 0
M  V30 3032 C 301.536 -2.93891 1.68563 0
M  V30 3033 C 300.095 -3.44639 1.5133 0
M  V30 3034 C 299.242 -2.18767 1.704 0
M  V30 3035 H 302.193 -0.909201 1.30074 0
M  V30 3036 H 302.214 -3.62623 1.15259 0
M  V30 3037 H 301.726 -2.74057 2.74799 0
M  V30 3038 H 299.827 -3.69564 0.474702 0
M  V30 3039 H 299.94 -4.20966 2.28746 0
M  V30 3040 H 298.304 -2.28253 1.13016 0
M  V30 3041 H 299.087 -2.01433 2.77992 0
M  V30 3042 N 301.532 -0.945985 -1.26051 0
M  V30 3043 C 302.809 -0.513816 -1.88731 0
M  V30 3044 C 303.189 1.00872 -1.8544 0
M  V30 3045 O 302.537 1.8708 -1.312 0
M  V30 3046 C 302.747 -1.08062 -3.31849 0
M  V30 3047 C 304.095 -1.1522 -4.08668 0
M  V30 3048 O 305.119 -1.03155 -3.40936 0
M  V30 3049 O 303.978 -1.34044 -5.29806 0
M  V30 3050 H 301.072 -0.168193 -0.809716 0
M  V30 3051 H 303.618 -1.03886 -1.34186 0
M  V30 3052 H 302.39 -2.1241 -3.2863 0
M  V30 3053 H 302.013 -0.538307 -3.93939 0
M  V30 3054 N 303.011 1.40521 -0.713556 0
M  V30 3055 C 304.257 2.01221 -0.252564 0
M  V30 3056 C 304.59 1.56444 1.1506 0
M  V30 3057 O 303.865 0.783597 1.78017 0
M  V30 3058 C 304.148 3.58582 -0.330332 0
M  V30 3059 C 304.001 4.13437 -1.77173 0
M  V30 3060 C 305.32 4.39079 0.299641 0
M  V30 3061 H 302.439 0.731077 -0.0932471 0
M  V30 3062 H 305.081 1.67026 -0.905673 0
M  V30 3063 H 303.231 3.87844 0.225737 0
M  V30 3064 H 304.903 3.9498 -2.38303 0
M  V30 3065 H 303.146 3.67801 -2.3001 0
M  V30 3066 H 303.817 5.22597 -1.77755 0
M  V30 3067 H 306.293 4.15735 -0.174139 0
M  V30 3068 H 305.169 5.4848 0.214771 0
M  V30 3069 H 305.43 4.19915 1.38288 0
M  V30 3070 N 304.489 0.459591 1.5075 0
M  V30 3071 C 305.452 -0.329093 2.26825 0
M  V30 3072 C 306.452 -0.930481 1.31144 0
M  V30 3073 O 307.642 -0.801453 1.54669 0
M  V30 3074 C 304.774 -1.46768 3.07688 0
M  V30 3075 H 305.967 0.337924 2.9799 0
M  V30 3076 H 303.52 0.213336 1.54837 0
M  V30 3077 H 304.255 -2.17009 2.40993 0
M  V30 3078 H 304.04 -1.04238 3.77991 0
M  V30 3079 H 305.53 -2.02433 3.65254 0
M  V30 3080 N 305.967 -1.56429 0.191757 0
M  V30 3081 C 307.383 -1.58754 -0.164137 0
M  V30 3082 C 307.583 -1.20782 -1.61288 0
M  V30 3083 O 306.639 -0.928999 -2.34789 0
M  V30 3084 C 307.952 -3.00396 0.135195 0
M  V30 3085 C 309.5 -3.1291 0.0750351 0
M  V30 3086 C 309.975 -4.56679 0.347632 0
M  V30 3087 N 311.466 -4.62252 0.296131 0
M  V30 3088 C 312.201 -5.71379 0.480948 0
M  V30 3089 N 311.697 -6.88986 0.725933 0
M  V30 3090 N 313.49 -5.60563 0.415435 0
M  V30 3091 H 305.641 -1.79393 1.13718 0
M  V30 3092 H 307.904 -0.832414 0.453643 0
M  V30 3093 H 307.61 -3.32726 1.13958 0
M  V30 3094 H 307.484 -3.72963 -0.563773 0
M  V30 3095 H 309.871 -2.80394 -0.919948 0
M  V30 3096 H 309.952 -2.42736 0.807029 0
M  V30 3097 H 309.596 -4.89907 1.33992 0
M  V30 3098 H 309.526 -5.25039 -0.405212 0
M  V30 3099 H 312.017 -3.7773 0.113259 0
M  V30 3100 H 312.33 -7.68046 0.855857 0
M  V30 3101 H 310.675 -6.90801 0.762788 0
M  V30 3102 H 313.866 -4.67561 0.224486 0
M  V30 3103 H 314.039 -6.45551 0.562889 0
M  V30 3104 N 307.445 0.0818655 -1.57387 0
M  V30 3105 C 308.693 0.781368 -1.86384 0
M  V30 3106 C 309.014 1.78618 -0.782342 0
M  V30 3107 O 308.284 1.94976 0.190061 0
M  V30 3108 H 306.864 0.291562 -0.687751 0
M  V30 3109 H 309.526 0.060348 -1.94807 0
M  V30 3110 H 308.622 1.3038 -2.83562 0
M  V30 3111 N 308.923 1.53595 0.353017 0
M  V30 3112 C 309.855 1.77219 1.45348 0
M  V30 3113 C 310.868 0.65324 1.49119 0
M  V30 3114 O 312.057 0.929775 1.52373 0
M  V30 3115 C 309.157 1.84841 2.84055 0
M  V30 3116 C 308.33 3.14649 3.03833 0
M  V30 3117 C 307.389 3.13351 4.22727 0
M  V30 3118 O 306.415 3.87107 4.17297 0
M  V30 3119 N 307.617 2.35052 5.30783 0
M  V30 3120 H 310.382 2.72178 1.25457 0
M  V30 3121 H 307.943 1.52528 0.542833 0
M  V30 3122 H 309.935 1.81435 3.61751 0
M  V30 3123 H 308.505 0.971114 2.97133 0
M  V30 3124 H 307.725 3.31256 2.13689 0
M  V30 3125 H 309.013 4.00411 3.13925 0
M  V30 3126 H 308.411 1.74663 5.38061 0
M  V30 3127 H 306.968 2.37453 6.07009 0
M  V30 3128 N 310.401 -0.613514 1.45168 0
M  V30 3129 C 311.364 -1.7065 1.53007 0
M  V30 3130 C 312.364 -1.5548 0.410184 0
M  V30 3131 O 313.554 -1.60656 0.673455 0
M  V30 3132 C 310.686 -3.09875 1.42093 0
M  V30 3133 H 311.879 -1.65068 2.50385 0
M  V30 3134 H 309.432 -0.828728 1.32521 0
M  V30 3135 H 310.167 -3.21039 0.458769 0
M  V30 3136 H 309.952 -3.22293 2.23315 0
M  V30 3137 H 311.442 -3.895 1.50598 0
M  V30 3138 N 311.879 -1.3236 -0.855495 0
M  V30 3139 C 312.842 -1.21164 -1.94556 0
M  V30 3140 C 313.842 -0.134908 -1.60233 0
M  V30 3141 O 315.032 -0.385249 -1.69887 0
M  V30 3142 C 312.164 -0.863192 -3.29791 0
M  V30 3143 H 313.357 -2.18038 -2.05911 0
M  V30 3144 H 310.91 -1.16179 -1.04557 0
M  V30 3145 H 311.645 0.103769 -3.24134 0
M  V30 3146 H 311.43 -1.64166 -3.56078 0
M  V30 3147 H 312.92 -0.809156 -4.09686 0
M  V30 3148 N 313.357 1.07166 -1.15556 0
M  V30 3149 C 314.603 1.80065 -0.932984 0
M  V30 3150 C 314.936 1.86586 0.53845 0
M  V30 3151 O 314.211 1.35098 1.39924 0
M  V30 3152 C 314.494 3.25022 -1.55025 0
M  V30 3153 C 314.347 3.26634 -3.09242 0
M  V30 3154 C 315.666 4.22341 -1.2376 0
M  V30 3155 H 312.785 0.653697 -0.340366 0
M  V30 3156 H 315.427 1.25389 -1.4275 0
M  V30 3157 H 313.577 3.71712 -1.12972 0
M  V30 3158 H 315.249 2.88173 -3.60214 0
M  V30 3159 H 313.492 2.65539 -3.43033 0
M  V30 3160 H 314.163 4.28854 -3.47546 0
M  V30 3161 H 316.639 3.8405 -1.60139 0
M  V30 3162 H 315.515 5.22053 -1.69564 0
M  V30 3163 H 315.776 4.41828 -0.154938 0
M  V30 3164 N 314.835 0.952656 1.25548 0
M  V30 3165 C 315.765 0.489287 2.28316 0
M  V30 3166 C 316.746 -0.463359 1.63667 0
M  V30 3167 O 317.931 -0.36274 1.90782 0
M  V30 3168 C 315.061 -0.235603 3.465 0
M  V30 3169 C 314.015 0.631593 4.23314 0
M  V30 3170 C 313.341 -0.223923 5.34231 0
M  V30 3171 C 314.641 1.90871 4.86174 0
M  V30 3172 H 316.335 1.34822 2.67326 0
M  V30 3173 H 313.881 0.649728 1.28509 0
M  V30 3174 H 315.834 -0.570882 4.17515 0
M  V30 3175 H 314.558 -1.12877 3.06474 0
M  V30 3176 H 313.217 0.949929 3.54079 0
M  V30 3177 H 312.865 -1.11678 4.90446 0
M  V30 3178 H 312.565 0.35299 5.86539 0
M  V30 3179 H 314.089 -0.554214 6.0808 0
M  V30 3180 H 315.503 1.63997 5.49343 0
M  V30 3181 H 313.9 2.43112 5.4865 0
M  V30 3182 H 314.97 2.61304 4.08471 0
M  V30 3183 N 316.313 -1.40141 0.720998 0
M  V30 3184 C 317.276 -2.29058 0.0805834 0
M  V30 3185 C 318.276 -1.45632 -0.681758 0
M  V30 3186 O 319.466 -1.6648 -0.512856 0
M  V30 3187 C 316.598 -3.28925 -0.895593 0
M  V30 3188 H 317.791 -2.87191 0.863793 0
M  V30 3189 H 315.344 -1.48553 0.485975 0
M  V30 3190 H 316.079 -2.75822 -1.70566 0
M  V30 3191 H 315.864 -3.90519 -0.351766 0
M  V30 3192 H 317.354 -3.95494 -1.34069 0
M  V30 3193 N 317.792 -0.46758 -1.50504 0
M  V30 3194 C 319.017 0.0886943 -2.0721 0
M  V30 3195 C 319.442 1.33057 -1.32956 0
M  V30 3196 O 318.8 1.77354 -0.376197 0
M  V30 3197 C 318.848 0.359202 -3.58806 0
M  V30 3198 O 317.952 1.44034 -3.8643 0
M  V30 3199 H 317.293 -0.0114349 -0.663902 0
M  V30 3200 H 319.823 -0.657613 -1.93744 0
M  V30 3201 H 319.833 0.600742 -4.03553 0
M  V30 3202 H 318.508 -0.548311 -4.1227 0
M  V30 3203 H 317.085 1.18638 -3.53524 0
M  V30 3204 N 319.27 1.56325 -0.20005 0
M  V30 3205 C 320.518 1.97329 0.436547 0
M  V30 3206 C 320.839 1.08826 1.61808 0
M  V30 3207 O 320.109 0.160604 1.95241 0
M  V30 3208 H 318.689 0.728714 0.164272 0
M  V30 3209 H 321.351 1.92761 -0.287937 0
M  V30 3210 H 320.447 3.02264 0.777353 0
M  V30 3211 N 320.748 -0.0735177 1.57428 0
M  V30 3212 C 322.025 -0.805903 1.78226 0
M  V30 3213 C 322.405 -1.95874 0.787189 0
M  V30 3214 O 321.753 -2.2779 -0.180029 0
M  V30 3215 C 321.963 -1.28045 3.24662 0
M  V30 3216 C 323.311 -1.71453 3.88444 0
M  V30 3217 O 324.335 -1.37616 3.28543 0
M  V30 3218 O 323.194 -2.34093 4.93825 0
M  V30 3219 H 320.288 -0.386041 0.73137 0
M  V30 3220 H 322.834 -0.0537269 1.69615 0
M  V30 3221 H 321.606 -0.455476 3.8864 0
M  V30 3222 H 321.229 -2.094 3.37991 0
M  V30 3223 N 322.226 -1.5378 -0.344866 0
M  V30 3224 C 323.472 -1.71216 -1.08687 0
M  V30 3225 C 323.805 -0.473281 -1.88345 0
M  V30 3226 O 323.08 0.52968 -1.87149 0
M  V30 3227 C 323.363 -2.97486 -2.02914 0
M  V30 3228 C 323.216 -4.31579 -1.26727 0
M  V30 3229 C 324.535 -3.19422 -3.0275 0
M  V30 3230 H 321.654 -0.62301 -0.393735 0
M  V30 3231 H 324.296 -1.8645 -0.365563 0
M  V30 3232 H 322.446 -2.84629 -2.64421 0
M  V30 3233 H 324.118 -4.56284 -0.67845 0
M  V30 3234 H 322.361 -4.30049 -0.569273 0
M  V30 3235 H 323.032 -5.16106 -1.95803 0
M  V30 3236 H 325.508 -3.316 -2.51357 0
M  V30 3237 H 324.384 -4.09169 -3.65885 0
M  V30 3238 H 324.645 -2.35656 -3.74057 0
M  V30 3239 N 323.704 0.605807 -1.45491 0
M  V30 3240 C 324.981 1.36522 -1.40075 0
M  V30 3241 C 325.361 2.10976 -0.0722744 0
M  V30 3242 O 324.709 2.08007 0.945808 0
M  V30 3243 C 324.919 2.31056 -2.61561 0
M  V30 3244 C 326.267 2.93608 -3.06724 0
M  V30 3245 O 327.291 2.41376 -2.61946 0
M  V30 3246 O 326.15 3.88421 -3.84437 0
M  V30 3247 H 323.244 0.612248 -0.555951 0
M  V30 3248 H 325.79 0.628747 -1.57623 0
M  V30 3249 H 324.562 1.75311 -3.49831 0
M  V30 3250 H 324.185 3.12081 -2.46356 0
M  V30 3251 N 325.182 1.32811 0.848464 0
M  V30 3252 C 326.145 1.22194 1.9391 0
M  V30 3253 C 327.145 0.143404 1.60159 0
M  V30 3254 O 328.335 0.394253 1.6968 0
M  V30 3255 C 325.467 0.88067 3.29328 0
M  V30 3256 H 326.66 2.19127 2.04752 0
M  V30 3257 H 324.213 1.16731 1.0394 0
M  V30 3258 H 324.948 -0.0865776 3.24184 0
M  V30 3259 H 324.733 1.66052 3.55203 0
M  V30 3260 H 326.223 0.830871 4.09251 0
M  V30 3261 N 326.66 -1.06551 1.16123 0
M  V30 3262 C 327.59 -2.15935 0.88851 0
M  V30 3263 C 328.571 -1.69306 -0.164135 0
M  V30 3264 O 329.756 -1.94193 -0.0167857 0
M  V30 3265 C 326.886 -3.45149 0.385942 0
M  V30 3266 C 325.84 -4.05271 1.3762 0
M  V30 3267 C 325.166 -5.29664 0.732137 0
M  V30 3268 C 326.466 -4.44355 2.74493 0
M  V30 3269 H 328.16 -2.39006 1.80323 0
M  V30 3270 H 325.706 -1.14866 0.868435 0
M  V30 3271 H 327.659 -4.21004 0.182647 0
M  V30 3272 H 326.383 -3.21689 -0.564274 0
M  V30 3273 H 325.042 -3.3147 1.56599 0
M  V30 3274 H 324.69 -5.02499 -0.224483 0
M  V30 3275 H 324.39 -5.70848 1.39307 0
M  V30 3276 H 325.914 -6.08218 0.538802 0
M  V30 3277 H 327.328 -5.11303 2.59311 0
M  V30 3278 H 325.725 -4.96515 3.37035 0
M  V30 3279 H 326.795 -3.55339 3.29943 0
M  V30 3280 N 328.138 -0.959301 -1.25041 0
M  V30 3281 C 329.368 -0.63303 -1.96663 0
M  V30 3282 C 329.776 0.800031 -1.71453 0
M  V30 3283 O 329.119 1.54736 -0.99008 0
M  V30 3284 C 329.181 -0.817523 -3.50081 0
M  V30 3285 C 328.845 -2.22863 -3.98975 0
M  V30 3286 C 329.842 -3.20569 -4.09306 0
M  V30 3287 C 327.527 -2.55407 -4.32519 0
M  V30 3288 C 329.521 -4.4891 -4.52503 0
M  V30 3289 C 327.208 -3.83976 -4.754 0
M  V30 3290 C 328.206 -4.8054 -4.85356 0
M  V30 3291 O 327.894 -6.06817 -5.27284 0
M  V30 3292 H 327.626 -0.235866 -0.633516 0
M  V30 3293 H 330.18 -1.2874 -1.60047 0
M  V30 3294 H 328.41 -0.105992 -3.86555 0
M  V30 3295 H 330.099 -0.491604 -4.02912 0
M  V30 3296 H 330.865 -2.96753 -3.83618 0
M  V30 3297 H 326.744 -1.8097 -4.23994 0
M  V30 3298 H 330.288 -5.24283 -4.60188 0
M  V30 3299 H 326.185 -4.07596 -5.00535 0
M  V30 3300 H 326.953 -6.10262 -5.45457 0
M  V30 3301 N 329.616 1.39756 -0.72842 0
M  V30 3302 C 330.841 2.05472 -0.282159 0
M  V30 3303 C 331.266 1.54549 1.07221 0
M  V30 3304 O 330.624 0.686372 1.67805 0
M  V30 3305 C 330.672 3.59462 -0.286264 0
M  V30 3306 O 329.776 4.05918 0.728298 0
M  V30 3307 H 329.117 0.651226 -0.129618 0
M  V30 3308 H 331.647 1.78915 -0.992499 0
M  V30 3309 H 331.657 4.07798 -0.128373 0
M  V30 3310 H 330.332 3.95889 -1.27456 0
M  V30 3311 H 328.909 3.69012 0.537081 0
M  V30 3312 N 331.094 0.475555 1.50254 0
M  V30 3313 C 332.34 -0.0701075 2.03279 0
M  V30 3314 C 332.695 -1.37007 1.35081 0
M  V30 3315 O 331.988 -1.8577 0.469052 0
M  V30 3316 C 332.182 -0.305114 3.56095 0
M  V30 3317 C 332.011 0.970515 4.39103 0
M  V30 3318 C 330.781 1.51509 4.82051 0
M  V30 3319 C 332.979 1.8671 4.79212 0
M  V30 3320 N 330.961 2.73928 5.49397 0
M  V30 3321 C 332.332 2.93715 5.46014 0
M  V30 3322 C 334.387 1.87695 4.61167 0
M  V30 3323 C 333.09 4.01699 5.96683 0
M  V30 3324 C 335.116 2.94637 5.12779 0
M  V30 3325 C 334.478 4.00361 5.79561 0
M  V30 3326 H 330.577 0.014486 0.781866 0
M  V30 3327 H 333.161 0.644755 1.83714 0
M  V30 3328 H 331.332 -0.989019 3.75597 0
M  V30 3329 H 333.064 -0.845516 3.95769 0
M  V30 3330 H 329.819 1.06367 4.61501 0
M  V30 3331 H 330.243 3.36109 5.87673 0
M  V30 3332 H 334.885 1.07273 4.08965 0
M  V30 3333 H 332.603 4.82934 6.4792 0
M  V30 3334 H 336.189 2.96388 5.00645 0
M  V30 3335 H 335.069 4.81751 6.18778 0
M  V30 3336 N 332.573 -1.56217 0.208337 0
M  V30 3337 C 333.503 -2.22694 -0.702116 0
M  V30 3338 C 334.484 -1.19432 -1.2112 0
M  V30 3339 O 335.669 -1.47978 -1.25762 0
M  V30 3340 C 332.799 -2.8966 -1.9161 0
M  V30 3341 C 331.753 -3.9928 -1.5414 0
M  V30 3342 C 331.079 -4.53476 -2.83308 0
M  V30 3343 C 332.379 -5.17012 -0.741339 0
M  V30 3344 H 334.073 -2.99034 -0.147898 0
M  V30 3345 H 331.619 -1.43831 -0.0696951 0
M  V30 3346 H 333.572 -3.34852 -2.55836 0
M  V30 3347 H 332.296 -2.10746 -2.49507 0
M  V30 3348 H 330.955 -3.54799 -0.922668 0
M  V30 3349 H 330.603 -3.71308 -3.39322 0
M  V30 3350 H 330.303 -5.27451 -2.58976 0
M  V30 3351 H 331.827 -5.01378 -3.485 0
M  V30 3352 H 333.241 -5.58667 -1.28699 0
M  V30 3353 H 331.638 -5.97137 -0.595627 0
M  V30 3354 H 332.708 -4.8423 0.254851 0
M  V30 3355 N 334.051 0.0651679 -1.57465 0
M  V30 3356 C 335.462 0.616213 -1.76238 0
M  V30 3357 C 335.813 1.7756 -0.834689 0
M  V30 3358 O 334.938 2.1639 -0.0204156 0
M  V30 3359 C 335.533 1.12462 -3.1959 0
M  V30 3360 C 334.092 1.62147 -3.39684 0
M  V30 3361 C 333.239 0.543739 -2.71917 0
M  V30 3362 H 336.19 -0.161022 -1.57881 0
M  V30 3363 H 336.211 1.99324 -3.24114 0
M  V30 3364 H 335.723 0.280592 -3.87084 0
M  V30 3365 H 333.824 2.48854 -2.77313 0
M  V30 3366 H 333.937 1.69385 -4.48158 0
M  V30 3367 H 332.301 0.990352 -2.34657 0
M  V30 3368 H 333.084 -0.290216 -3.42071 0
M  V30 3369 N 335.529 1.53961 0.336706 0
M  V30 3370 C 336.775 1.7273 1.07406 0
M  V30 3371 C 337.13 0.488095 1.86106 0
M  V30 3372 O 336.423 -0.519379 1.84426 0
M  V30 3373 C 336.617 2.93493 2.03953 0
M  V30 3374 C 336.446 4.29039 1.34744 0
M  V30 3375 C 335.216 4.93416 1.08942 0
M  V30 3376 C 337.414 5.08501 0.770115 0
M  V30 3377 N 335.396 6.12821 0.363864 0
M  V30 3378 C 336.767 6.19752 0.175472 0
M  V30 3379 C 338.822 4.93349 0.671633 0
M  V30 3380 C 337.525 7.17503 -0.508081 0
M  V30 3381 C 339.551 5.914 0.0018076 0
M  V30 3382 C 338.913 7.01993 -0.581835 0
M  V30 3383 H 335.012 0.685026 0.377177 0
M  V30 3384 H 337.596 1.91403 0.356815 0
M  V30 3385 H 335.767 2.76308 2.72962 0
M  V30 3386 H 337.499 3.00949 2.70577 0
M  V30 3387 H 334.254 4.53099 1.37833 0
M  V30 3388 H 334.678 6.76998 0.0156092 0
M  V30 3389 H 339.32 4.08007 1.1086 0
M  V30 3390 H 337.038 8.02414 -0.956918 0
M  V30 3391 H 340.624 5.81753 -0.0738538 0
M  V30 3392 H 339.504 7.76561 -1.09192 0
M  V30 3393 N 337.007 -0.598083 1.45811 0
M  V30 3394 C 337.97 -1.69018 1.54808 0
M  V30 3395 C 338.97 -1.55037 0.426652 0
M  V30 3396 O 340.16 -1.59932 0.690456 0
M  V30 3397 C 337.292 -3.0835 1.45371 0
M  V30 3398 H 338.485 -1.62403 2.52121 0
M  V30 3399 H 336.038 -0.814626 1.33392 0
M  V30 3400 H 336.773 -3.20534 0.492793 0
M  V30 3401 H 336.558 -3.19907 2.26721 0
M  V30 3402 H 338.048 -3.8788 1.54721 0
M  V30 3403 N 338.485 -1.33259 -0.841409 0
M  V30 3404 C 339.733 -1.24326 -1.59334 0
M  V30 3405 C 340.054 0.191564 -1.94057 0
M  V30 3406 O 339.324 1.11967 -1.60749 0
M  V30 3407 H 337.904 -0.457174 -0.590763 0
M  V30 3408 H 340.566 -1.66947 -1.00571 0
M  V30 3409 H 339.662 -1.8352 -2.52442 0
M  V30 3410 N 339.963 1.05934 -1.16686 0
M  V30 3411 C 340.873 2.17014 -0.891183 0
M  V30 3412 C 341.889 1.73453 0.137907 0
M  V30 3413 O 343.065 2.01361 -0.039592 0
M  V30 3414 C 340.13 3.44384 -0.400099 0
M  V30 3415 C 339.191 4.02433 -1.49486 0
M  V30 3416 C 338.424 5.23723 -1.02711 0
M  V30 3417 O 338.647 5.7027 0.121716 0
M  V30 3418 O 337.581 5.7382 -1.81699 0
M  V30 3419 H 341.407 2.43113 -1.82015 0
M  V30 3420 H 338.992 1.15541 -0.947132 0
M  V30 3421 H 340.874 4.21189 -0.133392 0
M  V30 3422 H 339.549 3.19802 0.500817 0
M  V30 3423 H 338.456 3.27102 -1.81535 0
M  V30 3424 H 339.789 4.31317 -2.37121 0
M  V30 3425 N 341.441 0.965919 1.2453 0
M  V30 3426 C 342.371 0.513476 2.27784 0
M  V30 3427 C 343.352 -0.445974 1.6415 0
M  V30 3428 O 344.537 -0.342485 1.91156 0
M  V30 3429 C 341.667 -0.198839 3.4673 0
M  V30 3430 C 340.621 0.676456 4.2262 0
M  V30 3431 C 339.947 -0.167248 5.34438 0
M  V30 3432 C 341.247 1.96017 4.84123 0
M  V30 3433 H 342.941 1.3765 2.65881 0
M  V30 3434 H 340.487 0.663321 1.27813 0
M  V30 3435 H 342.44 -0.526567 4.18097 0
M  V30 3436 H 341.164 -1.0962 3.07654 0
M  V30 3437 H 339.823 0.98743 3.53052 0
M  V30 3438 H 339.471 -1.0647 4.91603 0
M  V30 3439 H 339.171 0.415181 5.86131 0
M  V30 3440 H 340.695 -0.489688 6.08633 0
M  V30 3441 H 342.109 1.69814 5.47573 0
M  V30 3442 H 340.506 2.48918 5.4604 0
M  V30 3443 H 341.576 2.65622 4.05676 0
M  V30 3444 N 342.919 -1.39368 0.735821 0
M  V30 3445 C 343.851 -2.2913 0.0567723 0
M  V30 3446 C 344.864 -1.46859 -0.702589 0
M  V30 3447 O 346.053 -1.69925 -0.546616 0
M  V30 3448 C 343.153 -3.25492 -0.943823 0
M  V30 3449 C 342.326 -4.36709 -0.24581 0
M  V30 3450 C 341.385 -5.13376 -1.15463 0
M  V30 3451 O 340.411 -5.65683 -0.631803 0
M  V30 3452 N 341.613 -5.24656 -2.48427 0
M  V30 3453 H 344.378 -2.88047 0.827582 0
M  V30 3454 H 341.939 -1.50957 0.585112 0
M  V30 3455 H 343.931 -3.73657 -1.55443 0
M  V30 3456 H 342.501 -2.676 -1.61583 0
M  V30 3457 H 341.721 -3.9041 0.545286 0
M  V30 3458 H 343.009 -5.08244 0.237891 0
M  V30 3459 H 342.407 -4.83679 -2.93379 0
M  V30 3460 H 340.964 -5.76258 -3.04582 0
M  V30 3461 N 344.397 -0.483516 -1.5 0
M  V30 3462 C 345.36 0.292965 -2.2732 0
M  V30 3463 C 346.36 0.909499 -1.32608 0
M  V30 3464 O 347.55 0.776745 -1.55924 0
M  V30 3465 C 344.682 1.41854 -3.09984 0
M  V30 3466 H 345.875 -0.385289 -2.97415 0
M  V30 3467 H 343.428 -0.237942 -1.54478 0
M  V30 3468 H 344.163 2.13148 -2.44414 0
M  V30 3469 H 343.948 0.982114 -3.79601 0
M  V30 3470 H 345.438 1.96597 -3.68429 0
M  V30 3471 N 345.875 1.56104 -0.216619 0
M  V30 3472 C 347.103 2.02563 0.421413 0
M  V30 3473 C 347.518 1.0965 1.53695 0
M  V30 3474 O 346.875 0.10521 1.82196 0
M  V30 3475 C 346.926 3.48584 0.957665 0
M  V30 3476 O 346.647 4.37953 -0.113389 0
M  V30 3477 C 348.148 4.10664 1.66943 0
M  V30 3478 H 345.368 0.662944 0.103665 0
M  V30 3479 H 347.912 2.01793 -0.331629 0
M  V30 3480 H 346.067 3.49985 1.661 0
M  V30 3481 H 346.481 5.23704 0.288932 0
M  V30 3482 H 347.955 5.14622 1.99671 0
M  V30 3483 H 348.432 3.55373 2.58083 0
M  V30 3484 H 349.038 4.13098 1.01142 0
M  V30 3485 N 347.353 -0.0568162 1.57498 0
M  V30 3486 C 348.601 -0.751617 1.87604 0
M  V30 3487 C 348.922 -1.77351 0.81066 0
M  V30 3488 O 348.192 -1.95254 -0.159018 0
M  V30 3489 H 346.772 -0.280583 0.692302 0
M  V30 3490 H 349.434 -0.0293483 1.94878 0
M  V30 3491 H 348.53 -1.25852 2.856 0
M  V30 3492 N 348.832 -1.54138 -0.328536 0
M  V30 3493 C 349.795 -1.82462 -1.38709 0
M  V30 3494 C 350.795 -0.696229 -1.44946 0
M  V30 3495 O 351.985 -0.964535 -1.4506 0
M  V30 3496 C 349.117 -1.98018 -2.77492 0
M  V30 3497 H 350.31 -2.77037 -1.14851 0
M  V30 3498 H 347.863 -1.45779 -0.563751 0
M  V30 3499 H 348.598 -1.05637 -3.06613 0
M  V30 3500 H 348.383 -2.80124 -2.74359 0
M  V30 3501 H 349.873 -2.21396 -3.54081 0
M  V30 3502 N 350.31 0.590341 -1.46126 0
M  V30 3503 C 351.726 0.912917 -1.30912 0
M  V30 3504 C 351.926 1.99616 -0.274893 0
M  V30 3505 O 350.982 2.50397 0.325197 0
M  V30 3506 C 352.295 1.3375 -2.69317 0
M  V30 3507 C 353.843 1.45077 -2.77348 0
M  V30 3508 C 354.318 1.90904 -4.16317 0
M  V30 3509 N 355.809 1.9811 -4.18696 0
M  V30 3510 C 356.544 2.34828 -5.23109 0
M  V30 3511 N 356.04 2.70393 -6.37856 0
M  V30 3512 N 357.833 2.35317 -5.10473 0
M  V30 3513 H 349.984 -0.125358 -2.1203 0
M  V30 3514 H 352.247 0.00658481 -0.947977 0
M  V30 3515 H 351.953 0.615614 -3.4627 0
M  V30 3516 H 351.827 2.30058 -2.9892 0
M  V30 3517 H 354.214 2.16353 -2.00687 0
M  V30 3518 H 354.295 0.4704 -2.51438 0
M  V30 3519 H 353.939 1.20209 -4.9347 0
M  V30 3520 H 353.869 2.89886 -4.39629 0
M  V30 3521 H 356.36 1.73146 -3.359 0
M  V30 3522 H 356.673 2.97341 -7.13308 0
M  V30 3523 H 355.018 2.68048 -6.41229 0
M  V30 3524 H 358.209 2.0695 -4.19868 0
M  V30 3525 H 358.382 2.63605 -5.9196 0
M  V30 3526 N 351.788 1.33704 0.83433 0
M  V30 3527 C 353.199 1.22813 1.4062 0
M  V30 3528 C 353.55 -0.151107 1.95617 0
M  V30 3529 O 352.675 -1.05092 1.89168 0
M  V30 3530 C 353.27 2.22355 2.55624 0
M  V30 3531 C 351.829 2.1529 3.08751 0
M  V30 3532 C 350.976 2.09589 1.8157 0
M  V30 3533 H 353.927 1.45236 0.639702 0
M  V30 3534 H 353.948 1.83391 3.33389 0
M  V30 3535 H 353.46 3.22728 2.15566 0
M  V30 3536 H 351.561 1.18235 3.53343 0
M  V30 3537 H 351.674 3.06038 3.68616 0
M  V30 3538 H 350.038 1.55134 2.02004 0
M  V30 3539 H 350.821 3.11777 1.43701 0
M  V30 3540 N 353.266 -1.05314 1.17247 0
M  V30 3541 C 354.512 -1.78557 0.961513 0
M  V30 3542 C 354.845 -1.87419 -0.508697 0
M  V30 3543 O 354.12 -1.37307 -1.37757 0
M  V30 3544 C 354.403 -3.22514 1.60176 0
M  V30 3545 C 354.256 -3.21673 3.14399 0
M  V30 3546 C 355.575 -4.20318 1.30463 0
M  V30 3547 H 352.694 -0.6482 0.350723 0
M  V30 3548 H 355.336 -1.23102 1.44727 0
M  V30 3549 H 353.486 -3.69867 1.18871 0
M  V30 3550 H 355.158 -2.82405 3.64753 0
M  V30 3551 H 353.401 -2.60048 3.47214 0
M  V30 3552 H 354.072 -4.23271 3.54324 0
M  V30 3553 H 356.548 -3.81454 1.66229 0
M  V30 3554 H 355.424 -5.19289 1.77848 0
M  V30 3555 H 355.685 -4.41526 0.22521 0
M  V30 3556 N 354.744 -0.972509 -1.24016 0
M  V30 3557 C 355.99 -0.637978 -1.92504 0
M  V30 3558 C 356.323 0.825383 -1.75787 0
M  V30 3559 O 355.598 1.59442 -1.11393 0
M  V30 3560 C 355.881 -1.01942 -3.45369 0
M  V30 3561 C 355.734 -2.53983 -3.71231 0
M  V30 3562 C 357.053 -0.55751 -4.36555 0
M  V30 3563 H 354.172 -0.233248 -0.699117 0
M  V30 3564 H 356.814 -1.21238 -1.46292 0
M  V30 3565 H 354.964 -0.530656 -3.84859 0
M  V30 3566 H 356.636 -3.10374 -3.41271 0
M  V30 3567 H 354.879 -2.96968 -3.16216 0
M  V30 3568 H 355.55 -2.75723 -4.78206 0
M  V30 3569 H 358.026 -0.977029 -4.04467 0
M  V30 3570 H 356.902 -0.85292 -5.42233 0
M  V30 3571 H 357.163 0.542328 -4.38761 0
M  V30 3572 N 356.222 1.38976 -0.743202 0
M  V30 3573 C 357.499 1.94351 -0.220705 0
M  V30 3574 C 357.879 1.67935 1.2791 0
M  V30 3575 O 357.227 1.01211 2.04862 0
M  V30 3576 C 357.437 3.44426 -0.563171 0
M  V30 3577 C 358.785 4.2144 -0.517046 0
M  V30 3578 O 359.809 3.52661 -0.500846 0
M  V30 3579 O 358.668 5.44032 -0.518806 0
M  V30 3580 H 355.762 0.825879 -0.043047 0
M  V30 3581 H 358.308 1.48429 -0.822618 0
M  V30 3582 H 357.08 3.5712 -1.59941 0
M  V30 3583 H 356.703 3.97543 0.0672883 0
M  V30 3584 N 357.7 0.491464 1.49741 0
M  V30 3585 C 358.63 -0.28154 2.31796 0
M  V30 3586 C 359.611 -0.971473 1.3963 0
M  V30 3587 O 360.796 -0.964719 1.68543 0
M  V30 3588 C 357.926 -1.35203 3.19902 0
M  V30 3589 C 356.88 -0.782529 4.20786 0
M  V30 3590 C 356.206 -1.95283 4.97764 0
M  V30 3591 C 357.506 0.21999 5.21837 0
M  V30 3592 H 359.2 0.403355 2.96671 0
M  V30 3593 H 356.746 0.195425 1.42668 0
M  V30 3594 H 358.699 -1.90045 3.76113 0
M  V30 3595 H 357.423 -2.06598 2.52953 0
M  V30 3596 H 356.082 -0.255928 3.65706 0
M  V30 3597 H 355.73 -2.65423 4.2727 0
M  V30 3598 H 355.43 -1.57789 5.66018 0
M  V30 3599 H 356.954 -2.50577 5.56816 0
M  V30 3600 H 358.368 -0.23996 5.72798 0
M  V30 3601 H 356.765 0.51026 5.97927 0
M  V30 3602 H 357.835 1.13911 4.7133 0
M  V30 3603 N 359.178 -1.55987 0.224894 0
M  V30 3604 C 360.426 -1.97998 -0.405099 0
M  V30 3605 C 360.747 -1.11387 -1.60056 0
M  V30 3606 O 360.017 -0.191645 -1.9496 0
M  V30 3607 H 358.597 -0.731235 -0.152658 0
M  V30 3608 H 361.259 -1.92279 0.318567 0
M  V30 3609 H 360.355 -3.03463 -0.729167 0
M  V30 3610 N 360.656 0.0484629 -1.57525 0
M  V30 3611 C 361.586 1.0549 -2.08313 0
M  V30 3612 C 362.567 1.38929 -0.981463 0
M  V30 3613 O 363.752 1.48151 -1.25558 0
M  V30 3614 C 360.882 2.36162 -2.54646 0
M  V30 3615 C 359.836 2.17016 -3.68901 0
M  V30 3616 C 359.162 3.53278 -4.01371 0
M  V30 3617 C 360.462 1.57219 -4.98076 0
M  V30 3618 H 362.156 0.632195 -2.92649 0
M  V30 3619 H 359.702 0.302654 -1.40784 0
M  V30 3620 H 361.655 3.06882 -2.88793 0
M  V30 3621 H 360.379 2.80456 -1.67368 0
M  V30 3622 H 359.038 1.48733 -3.35073 0
M  V30 3623 H 358.686 3.95185 -3.11188 0
M  V30 3624 H 358.386 3.41299 -4.78318 0
M  V30 3625 H 359.91 4.25391 -4.38035 0
M  V30 3626 H 361.324 2.17832 -5.30304 0
M  V30 3627 H 359.721 1.55871 -5.79503 0
M  V30 3628 H 360.791 0.535956 -4.81929 0
M  V30 3629 N 362.134 1.5431 0.320358 0
M  V30 3630 C 363.411 1.63322 1.07635 0
M  V30 3631 C 363.791 0.46912 2.05821 0
M  V30 3632 O 363.139 -0.536274 2.22118 0
M  V30 3633 C 363.349 3.00465 1.77544 0
M  V30 3634 C 364.697 3.56621 2.30449 0
M  V30 3635 O 365.721 3.02791 1.87606 0
M  V30 3636 O 364.58 4.5083 3.08892 0
M  V30 3637 H 361.674 0.661502 0.496331 0
M  V30 3638 H 364.22 1.66656 0.319992 0
M  V30 3639 H 362.992 3.76629 1.06143 0
M  V30 3640 H 362.615 3.00824 2.59982 0
M  V30 3641 N 363.613 -0.582584 1.46437 0
M  V30 3642 C 364.523 -1.71949 1.59595 0
M  V30 3643 C 365.539 -1.67264 0.479443 0
M  V30 3644 O 366.715 -1.87171 0.743579 0
M  V30 3645 C 363.78 -3.08452 1.58298 0
M  V30 3646 C 362.841 -3.244 2.81182 0
M  V30 3647 C 362.074 -4.54391 2.79937 0
M  V30 3648 O 362.297 -5.38287 1.8869 0
M  V30 3649 O 361.231 -4.73588 3.71481 0
M  V30 3650 H 365.057 -1.63795 2.55744 0
M  V30 3651 H 362.642 -0.749643 1.29231 0
M  V30 3652 H 364.524 -3.89732 1.60271 0
M  V30 3653 H 363.199 -3.17043 0.653094 0
M  V30 3654 H 362.106 -2.42613 2.84763 0
M  V30 3655 H 363.439 -3.20699 3.7338 0
M  V30 3656 N 365.091 -1.34144 -0.827227 0
M  V30 3657 C 366.507 -1.13732 -1.11969 0
M  V30 3658 C 366.707 0.0640463 -2.01398 0
M  V30 3659 O 365.763 0.740856 -2.41387 0
M  V30 3660 C 367.076 -2.43047 -1.77055 0
M  V30 3661 C 368.624 -2.49063 -1.89569 0
M  V30 3662 C 369.099 -3.78369 -2.58072 0
M  V30 3663 N 370.59 -3.79505 -2.65575 0
M  V30 3664 C 371.325 -4.76274 -3.19297 0
M  V30 3665 N 370.821 -5.83424 -3.73616 0
M  V30 3666 N 372.614 -4.63735 -3.17658 0
M  V30 3667 H 364.765 -2.11126 -0.232296 0
M  V30 3668 H 367.028 -0.933424 -0.165602 0
M  V30 3669 H 366.734 -3.31025 -1.18807 0
M  V30 3670 H 366.608 -2.56066 -2.76966 0
M  V30 3671 H 368.995 -1.61527 -2.46968 0
M  V30 3672 H 369.076 -2.39975 -0.885745 0
M  V30 3673 H 368.72 -4.66293 -2.01329 0
M  V30 3674 H 368.65 -3.84737 -3.59562 0
M  V30 3675 H 371.141 -3.02074 -2.27068 0
M  V30 3676 H 371.454 -6.53282 -4.12846 0
M  V30 3677 H 369.799 -5.87143 -3.71871 0
M  V30 3678 H 372.99 -3.79177 -2.74486 0
M  V30 3679 H 373.163 -5.39318 -3.59221 0
M  V30 3680 N 366.569 1.04691 -1.17803 0
M  V30 3681 C 367.517 2.14665 -0.895635 0
M  V30 3682 C 368.511 1.68806 0.141679 0
M  V30 3683 O 369.717 1.79999 -0.00587914 0
M  V30 3684 H 366.092 0.701038 -0.272121 0
M  V30 3685 H 368.063 2.35685 -1.83017 0
M  V30 3686 C 366.812 3.45019 -0.430962 0
M  V30 3687 H 366.135 3.8071 -1.22064 0
M  V30 3688 H 367.575 4.23125 -0.272301 0
M  V30 3689 C 366.034 3.25943 0.852207 0
M  V30 3690 O 366.564 3.5296 1.91786 0
M  V30 3691 N 364.77 2.79304 0.802346 0
M  V30 3692 H 364.317 2.57518 -0.0650788 0
M  V30 3693 H 364.275 2.66921 1.66134 0
M  V30 3694 N 368.047 0.979072 1.23499 0
M  V30 3695 C 369.01 0.523244 2.23147 0
M  V30 3696 C 370.01 -0.386406 1.56088 0
M  V30 3697 O 371.2 -0.180283 1.73265 0
M  V30 3698 C 368.332 -0.240739 3.40049 0
M  V30 3699 H 369.525 1.40432 2.64989 0
M  V30 3700 H 367.078 0.764824 1.36309 0
M  V30 3701 H 367.813 -1.13841 3.03662 0
M  V30 3702 H 367.598 0.412207 3.89927 0
M  V30 3703 H 369.088 -0.548297 4.13985 0
M  V30 3704 N 369.525 -1.3858 0.750561 0
M  V30 3705 C 370.755 -2.04175 0.31564 0
M  V30 3706 C 371.163 -1.56726 -1.05989 0
M  V30 3707 O 370.506 -0.734225 -1.68389 0
M  V30 3708 C 370.568 -3.58585 0.256389 0
M  V30 3709 C 370.232 -4.29077 1.57296 0
M  V30 3710 C 371.229 -4.54656 2.52159 0
M  V30 3711 C 368.914 -4.67324 1.84156 0
M  V30 3712 C 370.908 -5.17512 3.72103 0
M  V30 3713 C 368.595 -5.29905 3.04374 0
M  V30 3714 C 369.593 -5.54933 3.98168 0
M  V30 3715 O 369.281 -6.16212 5.16273 0
M  V30 3716 H 369.013 -0.662742 0.133226 0
M  V30 3717 H 371.567 -1.78313 1.01948 0
M  V30 3718 H 369.797 -3.83406 -0.503677 0
M  V30 3719 H 371.486 -4.05628 -0.148612 0
M  V30 3720 H 372.252 -4.25539 2.32683 0
M  V30 3721 H 368.131 -4.47191 1.11988 0
M  V30 3722 H 371.675 -5.36963 4.45327 0
M  V30 3723 H 367.572 -5.58444 3.23745 0
M  V30 3724 H 368.34 -6.34701 5.16815 0
M  V30 3725 N 371.003 -0.499398 -1.49478 0
M  V30 3726 C 371.966 0.268838 -2.27618 0
M  V30 3727 C 372.966 0.895383 -1.33565 0
M  V30 3728 O 374.156 0.760164 -1.56739 0
M  V30 3729 C 371.288 1.38559 -3.11471 0
M  V30 3730 H 372.481 -0.416812 -2.96989 0
M  V30 3731 H 370.034 -0.254313 -1.54217 0
M  V30 3732 H 370.769 2.10544 -2.46661 0
M  V30 3733 H 370.554 0.941797 -3.80621 0
M  V30 3734 H 372.044 1.92678 -3.70493 0
M  V30 3735 N 372.481 1.55866 -0.233164 0
M  V30 3736 C 373.706 2.03449 0.402906 0
M  V30 3737 C 374.131 1.11166 1.51736 0
M  V30 3738 O 373.489 0.101996 1.81013 0
M  V30 3739 C 373.537 3.49165 0.9009 0
M  V30 3740 O 372.641 3.60019 2.01147 0
M  V30 3741 H 371.982 0.657913 0.0897025 0
M  V30 3742 H 374.512 2.01493 -0.355201 0
M  V30 3743 H 374.522 3.89716 1.2077 0
M  V30 3744 H 373.197 4.15813 0.0852889 0
M  V30 3745 H 371.774 3.3136 1.71042 0
M  V30 3746 N 373.959 -0.0401083 1.57549 0
M  V30 3747 C 375.205 -0.734211 1.89043 0
M  V30 3748 C 375.538 -1.75591 0.829535 0
M  V30 3749 O 374.813 -1.93868 -0.156706 0
M  V30 3750 C 375.096 -1.41374 3.31188 0
M  V30 3751 C 374.949 -0.406299 4.47961 0
M  V30 3752 C 376.268 -2.35061 3.72068 0
M  V30 3753 H 373.387 -0.265447 0.687537 0
M  V30 3754 H 376.029 0.00294087 1.9 0
M  V30 3755 H 374.179 -2.04206 3.30503 0
M  V30 3756 H 375.851 0.219255 4.60779 0
M  V30 3757 H 374.094 0.275485 4.32924 0
M  V30 3758 H 374.765 -0.920022 5.44279 0
M  V30 3759 H 377.241 -1.82282 3.74049 0
M  V30 3760 H 376.117 -2.79593 4.72355 0
M  V30 3761 H 376.378 -3.21258 3.0372 0
M  V30 3762 N 375.437 -1.54477 -0.31217 0
M  V30 3763 C 376.683 -1.74417 -1.04644 0
M  V30 3764 C 377.038 -0.517641 -1.85306 0
M  V30 3765 O 376.331 0.489973 -1.85229 0
M  V30 3766 C 376.525 -2.967 -1.99258 0
M  V30 3767 C 376.354 -4.31128 -1.27901 0
M  V30 3768 C 375.124 -4.95087 -1.01079 0
M  V30 3769 C 377.322 -5.09662 -0.689119 0
M  V30 3770 N 375.304 -6.13322 -0.266323 0
M  V30 3771 C 376.675 -6.19952 -0.0768523 0
M  V30 3772 C 378.73 -4.94355 -0.593061 0
M  V30 3773 C 377.433 -7.16604 0.622165 0
M  V30 3774 C 379.459 -5.91328 0.0922792 0
M  V30 3775 C 378.821 -7.00978 0.693443 0
M  V30 3776 H 374.92 -0.69094 -0.366231 0
M  V30 3777 H 377.504 -1.91946 -0.326319 0
M  V30 3778 H 375.675 -2.80616 -2.68532 0
M  V30 3779 H 377.407 -3.05216 -2.65755 0
M  V30 3780 H 374.162 -4.55235 -1.30607 0
M  V30 3781 H 374.586 -6.76937 0.0920973 0
M  V30 3782 H 379.228 -4.09719 -1.04355 0
M  V30 3783 H 376.946 -8.0079 1.08445 0
M  V30 3784 H 380.532 -5.81562 0.166396 0
M  V30 3785 H 379.412 -7.74725 1.21533 0
M  V30 3786 N 376.915 0.57481 -1.46744 0
M  V30 3787 C 378.143 1.35856 -1.56047 0
M  V30 3788 C 378.558 1.87691 -0.204365 0
M  V30 3789 O 377.915 1.64049 0.79963 0
M  V30 3790 C 377.966 2.54066 -2.57163 0
M  V30 3791 O 377.687 2.04377 -3.87507 0
M  V30 3792 C 379.188 3.46514 -2.76483 0
M  V30 3793 H 376.408 0.414754 -0.527466 0
M  V30 3794 H 378.952 0.698035 -1.92218 0
M  V30 3795 H 377.107 3.16092 -2.23974 0
M  V30 3796 H 377.521 2.81419 -4.4261 0
M  V30 3797 H 378.995 4.25919 -3.51137 0
M  V30 3798 H 379.472 3.98951 -1.83671 0
M  V30 3799 H 380.078 2.90318 -3.10799 0
M  V30 3800 N 378.394 1.34581 0.820102 0
M  V30 3801 C 379.64 1.27285 1.57881 0
M  V30 3802 C 379.973 -0.156137 1.93571 0
M  V30 3803 O 379.248 -1.10222 1.60254 0
M  V30 3804 C 379.531 2.16639 2.87645 0
M  V30 3805 C 379.384 3.68088 2.58517 0
M  V30 3806 C 380.703 2.05378 3.8924 0
M  V30 3807 H 377.822 0.463714 0.572833 0
M  V30 3808 H 380.464 1.64859 0.944539 0
M  V30 3809 H 378.614 1.84725 3.41773 0
M  V30 3810 H 380.286 4.10382 2.10676 0
M  V30 3811 H 378.529 3.89038 1.91917 0
M  V30 3812 H 379.2 4.2598 3.51063 0
M  V30 3813 H 381.676 2.33404 3.44473 0
M  V30 3814 H 380.552 2.7012 4.77835 0
M  V30 3815 H 380.813 1.0316 4.29896 0
M  V30 3816 N 379.872 -1.04064 1.18357 0
M  V30 3817 C 381.097 -1.81454 1.00445 0
M  V30 3818 C 381.522 -1.82823 -0.442423 0
M  V30 3819 O 380.88 -1.24555 -1.31741 0
M  V30 3820 C 380.928 -3.24925 1.56384 0
M  V30 3821 O 380.032 -4.04856 0.785209 0
M  V30 3822 H 379.373 -0.560604 0.355835 0
M  V30 3823 H 381.903 -1.31059 1.57114 0
M  V30 3824 H 381.913 -3.75702 1.59097 0
M  V30 3825 H 380.588 -3.23244 2.61699 0
M  V30 3826 H 379.165 -3.63537 0.830399 0
M  V30 3827 N 381.35 -0.985608 -1.22978 0
M  V30 3828 C 382.575 -0.675254 -1.961 0
M  V30 3829 C 383 0.752154 -1.72407 0
M  V30 3830 O 382.358 1.5131 -0.998751 0
M  V30 3831 C 382.406 -0.977899 -3.47087 0
M  V30 3832 O 381.51 -0.072685 -4.12336 0
M  V30 3833 H 380.851 -0.253443 -0.613728 0
M  V30 3834 H 383.381 -1.32061 -1.56272 0
M  V30 3835 H 383.391 -0.916739 -3.97567 0
M  V30 3836 H 382.066 -2.01807 -3.63657 0
M  V30 3837 H 380.643 -0.188703 -3.72422 0
M  V30 3838 N 382.828 1.3818 -0.7579 0
M  V30 3839 C 384.076 1.99624 -0.315361 0
M  V30 3840 C 384.397 1.60464 1.10799 0
M  V30 3841 O 383.667 0.863507 1.75842 0
M  V30 3842 H 382.247 0.73831 -0.113611 0
M  V30 3843 H 384.909 1.68878 -0.972952 0
M  V30 3844 H 384.005 3.09754 -0.381931 0
M  V30 3845 N 384.306 0.507319 1.49211 0
M  V30 3846 C 385.236 -0.256939 2.32082 0
M  V30 3847 C 386.217 -0.956609 1.40652 0
M  V30 3848 O 387.402 -0.946788 1.69557 0
M  V30 3849 C 384.532 -1.31802 3.21318 0
M  V30 3850 C 383.486 -0.737855 4.21592 0
M  V30 3851 C 382.812 -1.89992 4.99807 0
M  V30 3852 C 384.112 0.275325 5.21574 0
M  V30 3853 H 385.806 0.434798 2.96226 0
M  V30 3854 H 383.352 0.210546 1.42452 0
M  V30 3855 H 385.305 -1.86045 3.78107 0
M  V30 3856 H 384.029 -2.03903 2.5513 0
M  V30 3857 H 382.688 -0.217126 3.65956 0
M  V30 3858 H 382.336 -2.60877 4.30061 0
M  V30 3859 H 382.036 -1.51777 5.6766 0
M  V30 3860 H 383.56 -2.44657 5.59442 0
M  V30 3861 H 384.974 -0.179193 5.7302 0
M  V30 3862 H 383.371 0.573649 5.97352 0
M  V30 3863 H 384.441 1.18903 4.70096 0
M  V30 3864 N 385.784 -1.5574 0.241426 0
M  V30 3865 C 387.03 -1.99104 -0.385406 0
M  V30 3866 C 387.363 -1.1293 -1.57988 0
M  V30 3867 O 386.638 -0.191449 -1.93555 0
M  V30 3868 C 386.921 -3.51087 -0.800616 0
M  V30 3869 C 386.774 -4.48028 0.398874 0
M  V30 3870 C 388.093 -4.08015 -1.64959 0
M  V30 3871 H 385.212 -0.723848 -0.138614 0
M  V30 3872 H 387.854 -1.86903 0.341642 0
M  V30 3873 H 386.004 -3.61615 -1.4201 0
M  V30 3874 H 387.676 -4.49487 1.03726 0
M  V30 3875 H 385.919 -4.21077 1.04293 0
M  V30 3876 H 386.59 -5.51962 0.0651056 0
M  V30 3877 H 389.066 -4.00555 -1.12672 0
M  V30 3878 H 387.942 -5.14635 -1.90898 0
M  V30 3879 H 388.203 -3.56131 -2.61961 0
M  V30 3880 N 387.262 0.0317525 -1.57568 0
M  V30 3881 C 388.678 0.38735 -1.54828 0
M  V30 3882 C 388.878 1.7677 -0.967187 0
M  V30 3883 O 387.934 2.45581 -0.587063 0
M  V30 3884 C 389.247 0.291667 -2.99282 0
M  V30 3885 C 390.795 0.368946 -3.10818 0
M  V30 3886 C 391.27 0.302741 -4.56998 0
M  V30 3887 N 392.761 0.361617 -4.61786 0
M  V30 3888 C 393.496 0.333238 -5.72431 0
M  V30 3889 N 392.992 0.257308 -6.92322 0
M  V30 3890 N 394.785 0.382769 -5.60795 0
M  V30 3891 H 386.936 -0.871609 -1.93692 0
M  V30 3892 H 389.199 -0.331161 -0.888277 0
M  V30 3893 H 388.905 -0.656794 -3.45513 0
M  V30 3894 H 388.779 1.08638 -3.61217 0
M  V30 3895 H 391.166 1.30784 -2.64536 0
M  V30 3896 H 391.247 -0.455066 -2.5172 0
M  V30 3897 H 390.891 -0.632473 -5.03947 0
M  V30 3898 H 390.821 1.14482 -5.14005 0
M  V30 3899 H 393.312 0.422923 -3.75526 0
M  V30 3900 H 393.625 0.24068 -7.72425 0
M  V30 3901 H 391.97 0.223396 -6.94641 0
M  V30 3902 H 395.161 0.44006 -4.66027 0
M  V30 3903 H 395.334 0.357184 -6.47015 0
M  V30 3904 N 388.74 1.54641 0.303973 0
M  V30 3905 C 389.672 1.81754 1.39636 0
M  V30 3906 C 390.685 0.70035 1.46966 0
M  V30 3907 O 391.874 0.97778 1.49338 0
M  V30 3908 C 388.974 1.93785 2.7803 0
M  V30 3909 C 388.147 3.24156 2.93669 0
M  V30 3910 C 387.206 3.26641 4.12544 0
M  V30 3911 O 386.232 4.00187 4.04771 0
M  V30 3912 N 387.434 2.5182 5.23036 0
M  V30 3913 H 390.199 2.76031 1.16734 0
M  V30 3914 H 387.76 1.54178 0.494033 0
M  V30 3915 H 389.752 1.92852 3.55795 0
M  V30 3916 H 388.322 1.06515 2.93893 0
M  V30 3917 H 387.542 3.37887 2.03042 0
M  V30 3918 H 388.83 4.10195 3.01027 0
M  V30 3919 H 388.228 1.91692 5.32232 0
M  V30 3920 H 386.785 2.56644 5.99147 0
M  V30 3921 N 390.218 -0.567019 1.47046 0
M  V30 3922 C 391.634 -0.891975 1.32348 0
M  V30 3923 C 391.834 -1.99154 0.306616 0
M  V30 3924 O 390.89 -2.50883 -0.28532 0
M  V30 3925 C 392.203 -1.29449 2.7141 0
M  V30 3926 C 393.751 -1.40646 2.79621 0
M  V30 3927 C 394.226 -1.84257 4.19301 0
M  V30 3928 N 395.717 -1.91424 4.21795 0
M  V30 3929 C 396.452 -2.26476 5.26779 0
M  V30 3930 N 395.948 -2.60211 6.42077 0
M  V30 3931 N 397.741 -2.27166 5.14152 0
M  V30 3932 H 389.892 0.159074 2.11803 0
M  V30 3933 H 392.155 0.00849752 0.947962 0
M  V30 3934 H 391.861 -0.560448 3.47206 0
M  V30 3935 H 391.735 -2.25273 3.02542 0
M  V30 3936 H 394.122 -2.13133 2.04104 0
M  V30 3937 H 394.203 -0.430339 2.52154 0
M  V30 3938 H 393.847 -1.12343 4.95319 0
M  V30 3939 H 393.777 -2.82855 4.44185 0
M  V30 3940 H 396.268 -1.6778 3.38612 0
M  V30 3941 H 396.581 -2.85956 7.17948 0
M  V30 3942 H 394.926 -2.57813 6.45413 0
M  V30 3943 H 398.117 -2.00244 4.23107 0
M  V30 3944 H 398.29 -2.54154 5.96079 0
M  V30 3945 N 391.696 -1.35014 -0.812953 0
M  V30 3946 C 393.107 -1.25035 -1.38648 0
M  V30 3947 C 393.458 0.119967 -1.95833 0
M  V30 3948 O 392.583 1.02069 -1.90816 0
M  V30 3949 C 393.178 -2.26394 -2.52054 0
M  V30 3950 C 391.737 -2.20175 -3.05287 0
M  V30 3951 C 390.884 -2.12451 -1.78213 0
M  V30 3952 H 393.835 -1.46235 -0.616516 0
M  V30 3953 H 393.856 -1.88672 -3.30429 0
M  V30 3954 H 393.368 -3.26116 -2.10404 0
M  V30 3955 H 391.469 -1.23841 -3.51417 0
M  V30 3956 H 391.582 -3.11863 -3.63701 0
M  V30 3957 H 389.946 -1.58328 -1.9951 0
M  V30 3958 H 390.729 -3.14024 -1.38723 0
M  V30 3959 N 393.175 1.03435 -1.18907 0
M  V30 3960 C 394.423 1.76394 -0.986382 0
M  V30 3961 C 394.744 1.88883 0.484567 0
M  V30 3962 O 394.014 1.41843 1.3512 0
M  V30 3963 H 392.594 0.65344 -0.361975 0
M  V30 3964 H 395.256 1.248 -1.49703 0
M  V30 3965 H 394.352 2.77424 -1.42978 0
M  V30 3966 N 394.653 0.992116 1.22453 0
M  V30 3967 C 395.583 0.561677 2.26644 0
M  V30 3968 C 396.564 -0.411055 1.65059 0
M  V30 3969 O 397.749 -0.301861 1.9184 0
M  V30 3970 C 394.879 -0.125247 3.47074 0
M  V30 3971 C 393.833 0.765948 4.21091 0
M  V30 3972 C 393.159 -0.0538484 5.34673 0
M  V30 3973 C 394.459 2.06242 4.79856 0
M  V30 3974 H 396.153 1.43259 2.62902 0
M  V30 3975 H 393.699 0.690283 1.26377 0
M  V30 3976 H 395.652 -0.437764 4.1912 0
M  V30 3977 H 394.376 -1.03069 3.0991 0
M  V30 3978 H 393.035 1.0621 3.50878 0
M  V30 3979 H 392.683 -0.960188 4.9375 0
M  V30 3980 H 392.383 0.539415 5.85119 0
M  V30 3981 H 393.907 -0.360477 6.09535 0
M  V30 3982 H 395.321 1.8139 5.43848 0
M  V30 3983 H 393.718 2.60444 5.40638 0
M  V30 3984 H 394.788 2.74167 3.99951 0
M  V30 3985 N 396.131 -1.37776 0.765217 0
M  V30 3986 C 397.377 -2.00145 0.327072 0
M  V30 3987 C 397.71 -1.60607 -1.09175 0
M  V30 3988 O 396.985 -0.849127 -1.74986 0
M  V30 3989 C 397.268 -3.57109 0.46319 0
M  V30 3990 C 397.121 -4.06576 1.92395 0
M  V30 3991 C 398.44 -4.39888 -0.136473 0
M  V30 3992 H 395.559 -0.727113 0.120316 0
M  V30 3993 H 398.201 -1.63549 0.967039 0
M  V30 3994 H 396.351 -3.88414 -0.0816358 0
M  V30 3995 H 398.023 -3.85864 2.52798 0
M  V30 3996 H 396.266 -3.59011 2.43503 0
M  V30 3997 H 396.937 -5.15639 1.97028 0
M  V30 3998 H 399.413 -4.14803 0.328317 0
M  V30 3999 H 398.289 -5.48899 -0.0110582 0
M  V30 4000 H 398.55 -4.24758 -1.22608 0
M  V30 4001 N 397.609 -0.515225 -1.4894 0
M  V30 4002 C 398.541 0.292481 -2.27326 0
M  V30 4003 C 399.554 0.917838 -1.3446 0
M  V30 4004 O 400.743 0.798772 -1.5963 0
M  V30 4005 C 397.843 1.42803 -3.07344 0
M  V30 4006 C 397.016 0.907347 -4.27885 0
M  V30 4007 C 396.075 1.92222 -4.89834 0
M  V30 4008 O 395.101 1.48506 -5.49486 0
M  V30 4009 N 396.303 3.25355 -4.80754 0
M  V30 4010 H 399.068 -0.379721 -2.97285 0
M  V30 4011 H 396.629 -0.348638 -1.58102 0
M  V30 4012 H 398.621 2.10481 -3.45658 0
M  V30 4013 H 397.191 2.00414 -2.39902 0
M  V30 4014 H 396.411 0.0550218 -3.94162 0
M  V30 4015 H 397.699 0.538108 -5.05946 0
M  V30 4016 H 397.097 3.6355 -4.33414 0
M  V30 4017 H 395.654 3.88707 -5.23211 0
M  V30 4018 N 399.087 1.5561 -0.249682 0
M  V30 4019 C 400.503 1.59254 0.105103 0
M  V30 4020 C 400.703 1.26685 1.56694 0
M  V30 4021 O 399.759 1.0155 2.31179 0
M  V30 4022 C 401.072 2.99687 -0.246592 0
M  V30 4023 C 402.62 3.12416 -0.191118 0
M  V30 4024 C 403.095 4.55074 -0.516885 0
M  V30 4025 N 404.586 4.60835 -0.467489 0
M  V30 4026 C 405.321 5.69201 -0.69268 0
M  V30 4027 N 404.817 6.85817 -0.981146 0
M  V30 4028 N 406.61 5.58635 -0.623198 0
M  V30 4029 H 398.761 1.75049 -1.20298 0
M  V30 4030 H 401.024 0.815003 -0.484225 0
M  V30 4031 H 400.73 3.28267 -1.26228 0
M  V30 4032 H 400.604 3.74798 0.424962 0
M  V30 4033 H 402.991 2.83615 0.815247 0
M  V30 4034 H 403.072 2.39573 -0.896563 0
M  V30 4035 H 402.716 4.84596 -1.52082 0
M  V30 4036 H 402.646 5.26181 0.210068 0
M  V30 4037 H 405.137 3.7705 -0.253373 0
M  V30 4038 H 405.45 7.64341 -1.14032 0
M  V30 4039 H 403.795 6.87494 -1.01865 0
M  V30 4040 H 406.986 4.66406 -0.397863 0
M  V30 4041 H 407.159 6.43017 -0.802093 0
M  V30 4042 N 400.565 -0.0233959 1.57583 0
M  V30 4043 C 401.495 -1.02162 2.09965 0
M  V30 4044 C 402.476 -1.3735 1.00344 0
M  V30 4045 O 403.661 -1.46135 1.27899 0
M  V30 4046 C 400.791 -2.32081 2.58371 0
M  V30 4047 C 399.745 -2.1112 3.72307 0
M  V30 4048 C 399.071 -3.46848 4.06941 0
M  V30 4049 C 400.371 -1.49276 5.00514 0
M  V30 4050 H 402.065 -0.585557 2.93618 0
M  V30 4051 H 399.611 -0.280218 1.41247 0
M  V30 4052 H 401.564 -3.02249 2.93639 0
M  V30 4053 H 400.288 -2.77758 1.71808 0
M  V30 4054 H 398.947 -1.43384 3.37397 0
M  V30 4055 H 398.595 -3.90184 3.17436 0
M  V30 4056 H 398.295 -3.33646 4.83688 0
M  V30 4057 H 399.819 -4.18369 4.44747 0
M  V30 4058 H 401.233 -2.09368 5.33702 0
M  V30 4059 H 399.63 -1.46632 5.8191 0
M  V30 4060 H 400.7 -0.459217 4.82721 0
M  V30 4061 N 402.043 -1.548 -0.295768 0
M  V30 4062 C 403.289 -1.74588 -1.03184 0
M  V30 4063 C 403.622 -0.532962 -1.86744 0
M  V30 4064 O 402.897 0.469872 -1.88739 0
M  V30 4065 C 403.18 -3.03791 -1.93347 0
M  V30 4066 C 403.033 -4.35392 -1.12933 0
M  V30 4067 C 404.352 -3.28892 -2.92435 0
M  V30 4068 H 401.471 -0.635221 -0.373715 0
M  V30 4069 H 404.113 -1.87519 -0.30606 0
M  V30 4070 H 402.263 -2.92898 -2.55232 0
M  V30 4071 H 403.935 -4.58211 -0.532943 0
M  V30 4072 H 402.178 -4.31642 -0.432168 0
M  V30 4073 H 402.849 -5.22074 -1.79284 0
M  V30 4074 H 405.325 -3.39429 -2.4068 0
M  V30 4075 H 404.201 -4.20603 -3.52682 0
M  V30 4076 H 404.462 -2.47437 -3.6637 0
M  V30 4077 N 403.521 0.559213 -1.47345 0
M  V30 4078 C 404.798 1.31997 -1.44348 0
M  V30 4079 C 405.178 2.1064 -0.139358 0
M  V30 4080 O 404.526 2.1091 0.879153 0
M  V30 4081 C 404.736 2.22618 -2.68779 0
M  V30 4082 C 406.084 2.83701 -3.1591 0
M  V30 4083 O 407.108 2.32921 -2.69493 0
M  V30 4084 O 405.967 3.75993 -3.966 0
M  V30 4085 H 403.061 0.594251 -0.575147 0
M  V30 4086 H 405.607 0.578282 -1.59543 0
M  V30 4087 H 404.379 1.64093 -3.55231 0
M  V30 4088 H 404.002 3.04085 -2.5616 0
M  V30 4089 N 404.999 1.35443 0.805782 0
M  V30 4090 C 405.962 1.28301 1.89925 0
M  V30 4091 C 406.962 0.194285 1.59622 0
M  V30 4092 O 408.152 0.448036 1.6834 0
M  V30 4093 C 405.284 0.984997 3.2636 0
M  V30 4094 H 406.477 2.2553 1.97677 0
M  V30 4095 H 404.03 1.19979 1.00173 0
M  V30 4096 H 404.765 0.016603 3.24296 0
M  V30 4097 H 404.55 1.77269 3.4974 0
M  V30 4098 H 406.04 0.960651 4.064 0
M  V30 4099 N 406.477 -1.02803 1.19454 0
M  V30 4100 C 407.44 -2.09264 0.934955 0
M  V30 4101 C 408.44 -1.60576 -0.0849015 0
M  V30 4102 O 409.63 -1.73554 0.149933 0
M  V30 4103 C 406.762 -3.38482 0.40531 0
M  V30 4104 H 407.955 -2.33726 1.87916 0
M  V30 4105 H 405.508 -1.19426 1.00832 0
M  V30 4106 H 406.243 -3.19689 -0.544899 0
M  V30 4107 H 406.028 -3.75142 1.14065 0
M  V30 4108 H 407.518 -4.16894 0.242806 0
M  V30 4109 N 407.956 -0.998596 -1.21925 0
M  V30 4110 C 409.202 -0.678667 -1.91107 0
M  V30 4111 C 409.535 0.78791 -1.77498 0
M  V30 4112 O 408.81 1.57043 -1.1475 0
M  V30 4113 C 409.093 -1.09245 -3.43129 0
M  V30 4114 C 408.946 -2.61801 -3.6576 0
M  V30 4115 C 410.265 -0.649984 -4.35274 0
M  V30 4116 H 407.384 -0.248025 -0.694012 0
M  V30 4117 H 410.026 -1.24314 -1.43688 0
M  V30 4118 H 408.176 -0.612171 -3.83647 0
M  V30 4119 H 409.848 -3.17543 -3.34611 0
M  V30 4120 H 408.091 -3.03609 -3.09845 0
M  V30 4121 H 408.762 -2.85804 -4.7225 0
M  V30 4122 H 411.238 -1.0626 -4.02303 0
M  V30 4123 H 410.114 -0.967743 -5.40302 0
M  V30 4124 H 410.375 0.449139 -4.39813 0
M  V30 4125 N 409.434 1.37368 -0.772513 0
M  V30 4126 C 410.711 1.93839 -0.26188 0
M  V30 4127 C 411.091 1.7061 1.24319 0
M  V30 4128 O 410.439 1.05534 2.02669 0
M  V30 4129 C 410.649 3.43154 -0.636102 0
M  V30 4130 C 411.997 4.20249 -0.606324 0
M  V30 4131 O 413.021 3.5152 -0.575538 0
M  V30 4132 O 411.88 5.42809 -0.634086 0
M  V30 4133 H 408.974 0.82478 -0.0605555 0
M  V30 4134 H 411.52 1.4665 -0.853917 0
M  V30 4135 H 410.292 3.53647 -1.6748 0
M  V30 4136 H 409.915 3.97596 -0.0170516 0
M  V30 4137 N 410.912 0.523116 1.48665 0
M  V30 4138 C 411.875 -0.232592 2.28017 0
M  V30 4139 C 412.875 -0.874021 1.34972 0
M  V30 4140 O 414.065 -0.735132 1.57929 0
M  V30 4141 C 411.197 -1.33586 3.13636 0
M  V30 4142 H 412.39 0.464008 2.96289 0
M  V30 4143 H 409.943 0.278816 1.53793 0
M  V30 4144 H 410.678 -2.06593 2.4998 0
M  V30 4145 H 410.463 -0.881125 3.82071 0
M  V30 4146 H 411.953 -1.86759 3.73511 0
M  V30 4147 N 412.39 -1.55475 0.257931 0
M  V30 4148 C 413.638 -1.98813 -0.363009 0
M  V30 4149 C 413.959 -1.14757 -1.57657 0
M  V30 4150 O 413.229 -0.232956 -1.9451 0
M  V30 4151 H 411.809 -0.734308 -0.137113 0
M  V30 4152 H 414.471 -1.9156 0.359281 0
M  V30 4153 H 413.567 -3.04941 -0.664634 0
M  V30 4154 N 413.868 0.0150385 -1.57593 0
M  V30 4155 C 414.798 1.01047 -2.10503 0
M  V30 4156 C 415.779 1.36816 -1.01071 0
M  V30 4157 O 416.964 1.45455 -1.28672 0
M  V30 4158 C 414.094 2.30708 -2.59598 0
M  V30 4159 C 413.048 2.09142 -3.73421 0
M  V30 4160 C 412.374 3.44685 -4.08774 0
M  V30 4161 C 413.674 1.46619 -5.01298 0
M  V30 4162 H 415.368 0.569978 -2.93925 0
M  V30 4163 H 412.914 0.272724 -1.41394 0
M  V30 4164 H 414.867 3.00687 -2.95238 0
M  V30 4165 H 413.591 2.76843 -1.73279 0
M  V30 4166 H 412.25 1.41592 -3.38153 0
M  V30 4167 H 411.898 3.88495 -3.195 0
M  V30 4168 H 411.598 3.31077 -4.8545 0
M  V30 4169 H 413.122 4.16004 -4.4696 0
M  V30 4170 H 414.536 2.06535 -5.34805 0
M  V30 4171 H 412.933 1.43544 -5.82679 0
M  V30 4172 H 414.003 0.433611 -4.82957 0
M  V30 4173 N 415.346 1.54954 0.287554 0
M  V30 4174 C 416.592 1.76059 1.01856 0
M  V30 4175 C 416.947 0.547056 1.84459 0
M  V30 4176 O 416.24 -0.460442 1.85985 0
M  V30 4177 C 416.434 2.99833 1.94512 0
M  V30 4178 C 416.263 4.33108 1.21026 0
M  V30 4179 C 415.033 4.96632 0.931896 0
M  V30 4180 C 417.231 5.10694 0.607949 0
M  V30 4181 N 415.213 6.13668 0.168716 0
M  V30 4182 C 416.584 6.19996 -0.0217865 0
M  V30 4183 C 418.639 4.95236 0.514338 0
M  V30 4184 C 417.342 7.15524 -0.736092 0
M  V30 4185 C 419.368 5.91106 -0.186343 0
M  V30 4186 C 418.73 6.99786 -0.804875 0
M  V30 4187 H 414.829 0.696679 0.355193 0
M  V30 4188 H 417.413 1.92441 0.295741 0
M  V30 4189 H 415.584 2.84853 2.64033 0
M  V30 4190 H 417.316 3.09405 2.60865 0
M  V30 4191 H 414.071 4.57255 1.23348 0
M  V30 4192 H 414.495 6.76705 -0.199781 0
M  V30 4193 H 419.137 4.11328 0.978234 0
M  V30 4194 H 416.855 7.98964 -1.21172 0
M  V30 4195 H 420.441 5.81224 -0.258897 0
M  V30 4196 H 419.321 7.72694 -1.33843 0
M  V30 4197 N 416.824 -0.551391 1.4764 0
M  V30 4198 C 417.787 -1.64007 1.60107 0
M  V30 4199 C 418.787 -1.53601 0.47576 0
M  V30 4200 O 419.977 -1.57655 0.740988 0
M  V30 4201 C 417.109 -3.03569 1.55108 0
M  V30 4202 H 418.302 -1.543 2.57161 0
M  V30 4203 H 415.855 -0.771776 1.35917 0
M  V30 4204 H 416.59 -3.18804 0.594519 0
M  V30 4205 H 416.375 -3.12532 2.36783 0
M  V30 4206 H 417.865 -3.82762 1.66982 0
M  V30 4207 N 418.302 -1.35869 -0.798587 0
M  V30 4208 C 419.718 -1.16082 -1.09532 0
M  V30 4209 C 419.918 0.0213124 -2.01489 0
M  V30 4210 O 418.974 0.689488 -2.42904 0
M  V30 4211 C 420.287 -2.46748 -1.7186 0
M  V30 4212 C 421.835 -2.53028 -1.84244 0
M  V30 4213 C 422.31 -3.83758 -2.49988 0
M  V30 4214 N 423.801 -3.85053 -2.57465 0
M  V30 4215 C 424.536 -4.8294 -3.09122 0
M  V30 4216 N 424.032 -5.91217 -3.61157 0
M  V30 4217 N 425.825 -4.70369 -3.0775 0
M  V30 4218 H 417.976 -2.11571 -0.187461 0
M  V30 4219 H 420.239 -0.936726 -0.145765 0
M  V30 4220 H 419.945 -3.33471 -1.11759 0
M  V30 4221 H 419.819 -2.61883 -2.71472 0
M  V30 4222 H 422.206 -1.66729 -2.43486 0
M  V30 4223 H 422.287 -2.418 -0.834643 0
M  V30 4224 H 421.931 -4.70459 -1.91393 0
M  V30 4225 H 421.861 -3.92278 -3.5132 0
M  V30 4226 H 424.352 -3.06822 -2.20609 0
M  V30 4227 H 424.665 -6.61892 -3.98896 0
M  V30 4228 H 423.01 -5.94899 -3.59333 0
M  V30 4229 H 426.201 -3.84914 -2.66381 0
M  V30 4230 H 426.374 -5.46816 -3.47701 0
M  V30 4231 N 419.78 1.02168 -1.19998 0
M  V30 4232 C 421.057 1.72816 -0.916191 0
M  V30 4233 C 421.437 2.03081 0.576325 0
M  V30 4234 O 420.785 1.69122 1.53656 0
M  V30 4235 C 420.995 2.9997 -1.78378 0
M  V30 4236 C 422.343 3.73336 -2.02251 0
M  V30 4237 O 423.367 3.09914 -1.75589 0
M  V30 4238 O 422.226 4.87371 -2.47249 0
M  V30 4239 H 419.32 0.752924 -0.342103 0
M  V30 4240 H 421.866 1.08062 -1.30846 0
M  V30 4241 H 420.638 2.73888 -2.79466 0
M  V30 4242 H 420.261 3.72464 -1.39126 0
M  V30 4243 N 421.258 1.00505 1.21394 0
M  V30 4244 C 422.208 0.536503 2.21598 0
M  V30 4245 C 423.192 -0.401914 1.55799 0
M  V30 4246 O 424.384 -0.226757 1.75541 0
M  V30 4247 C 421.513 -0.135446 3.43033 0
M  V30 4248 C 420.599 0.823992 4.16018 0
M  V30 4249 N 420.99 1.97683 4.6557 0
M  V30 4250 C 419.288 0.642387 4.4135 0
M  V30 4251 C 419.989 2.58003 5.21354 0
M  V30 4252 N 418.965 1.86162 5.1073 0
M  V30 4253 H 422.767 1.41557 2.57563 0
M  V30 4254 H 420.281 0.868878 1.37202 0
M  V30 4255 H 422.278 -0.488584 4.14027 0
M  V30 4256 H 420.938 -1.01049 3.08576 0
M  V30 4257 H 421.949 2.3572 4.61147 0
M  V30 4258 H 418.626 -0.185578 4.17087 0
M  V30 4259 H 420.016 3.555 5.70149 0
M  V30 4260 N 422.737 -1.36956 0.779787 0
M  V30 4261 C 423.962 -2.04283 0.358224 0
M  V30 4262 C 424.387 -1.58422 -1.01411 0
M  V30 4263 O 423.745 -0.748179 -1.65142 0
M  V30 4264 C 423.793 -3.58152 0.419479 0
M  V30 4265 O 422.897 -4.08342 -0.577142 0
M  V30 4266 H 422.238 -0.645967 0.153698 0
M  V30 4267 H 424.768 -1.75108 1.05822 0
M  V30 4268 H 424.778 -4.07041 0.279636 0
M  V30 4269 H 423.453 -3.90886 1.42061 0
M  V30 4270 H 422.03 -3.70751 -0.399755 0
M  V30 4271 N 424.215 -0.530993 -1.48385 0
M  V30 4272 C 425.492 0.0671788 -1.95485 0
M  V30 4273 C 425.872 1.51191 -1.47324 0
M  V30 4274 O 425.22 2.17507 -0.700202 0
M  V30 4275 C 425.43 -0.0511206 -3.48963 0
M  V30 4276 C 426.778 0.107632 -4.24464 0
M  V30 4277 O 427.802 0.0226248 -3.56193 0
M  V30 4278 O 426.661 0.285972 -5.45751 0
M  V30 4279 H 423.755 0.0787365 -0.823243 0
M  V30 4280 H 426.301 -0.595662 -1.58902 0
M  V30 4281 H 425.073 -1.05747 -3.7674 0
M  V30 4282 H 424.696 0.650525 -3.92242 0
M  V30 4283 N 425.693 1.55336 -0.266172 0
M  V30 4284 C 426.656 2.20878 0.612001 0
M  V30 4285 C 427.656 1.18388 1.08816 0
M  V30 4286 O 428.846 1.4335 0.989774 0
M  V30 4287 C 425.978 2.86765 1.84332 0
M  V30 4288 H 427.171 2.99873 0.0398718 0
M  V30 4289 H 424.724 1.56291 -0.0167309 0
M  V30 4290 H 425.459 2.11759 2.45619 0
M  V30 4291 H 425.244 3.61862 1.5099 0
M  V30 4292 H 426.734 3.36867 2.46801 0
M  V30 4293 N 427.171 -0.0066808 1.57599 0
M  V30 4294 C 428.417 -0.693947 1.90558 0
M  V30 4295 C 428.75 -1.73792 0.866594 0
M  V30 4296 O 428.025 -1.94156 -0.115548 0
M  V30 4297 C 428.308 -1.34317 3.34112 0
M  V30 4298 C 428.161 -0.311189 4.48722 0
M  V30 4299 C 429.48 -2.27116 3.7697 0
M  V30 4300 H 426.599 -0.250803 0.693013 0
M  V30 4301 H 429.241 0.043242 1.89951 0
M  V30 4302 H 427.391 -1.9715 3.3476 0
M  V30 4303 H 429.063 0.316944 4.6021 0
M  V30 4304 H 427.306 0.367253 4.32243 0
M  V30 4305 H 427.977 -0.804366 5.46108 0
M  V30 4306 H 430.453 -1.74306 3.77831 0
M  V30 4307 H 429.329 -2.69511 4.78179 0
M  V30 4308 H 429.59 -3.14743 3.10466 0
M  V30 4309 N 428.649 -1.55105 -0.279332 0
M  V30 4310 C 429.877 -1.7943 -1.03017 0
M  V30 4311 C 430.292 -0.564456 -1.80165 0
M  V30 4312 O 429.649 0.466326 -1.76442 0
M  V30 4313 C 429.7 -3.0155 -1.99374 0
M  V30 4314 O 429.421 -4.19784 -1.25352 0
M  V30 4315 C 430.922 -3.3843 -2.86321 0
M  V30 4316 H 428.142 -0.597882 -0.304594 0
M  V30 4317 H 430.686 -2.02105 -0.312035 0
M  V30 4318 H 428.841 -2.81019 -2.66659 0
M  V30 4319 H 429.255 -4.88781 -1.90246 0
M  V30 4320 H 430.729 -4.27066 -3.49741 0
M  V30 4321 H 431.206 -2.57549 -3.5576 0
M  V30 4322 H 431.812 -3.61197 -2.24536 0
M  V30 4323 N 430.127 0.543554 -1.4793 0
M  V30 4324 C 431.352 1.32995 -1.59145 0
M  V30 4325 C 431.777 1.86472 -0.246956 0
M  V30 4326 O 431.135 1.63696 0.779324 0
M  V30 4327 C 431.183 2.46623 -2.63077 0
M  V30 4328 O 430.287 3.49261 -2.19295 0
M  V30 4329 H 429.628 0.394472 -0.534124 0
M  V30 4330 H 432.158 0.655489 -1.93816 0
M  V30 4331 H 432.168 2.93001 -2.83926 0
M  V30 4332 H 430.843 2.07059 -3.60693 0
M  V30 4333 H 429.42 3.09094 -2.08603 0
M  V30 4334 N 431.605 1.3629 0.791371 0
M  V30 4335 C 432.535 1.33137 1.91825 0
M  V30 4336 C 433.516 0.203168 1.68882 0
M  V30 4337 O 434.701 0.400509 1.90025 0
M  V30 4338 C 431.831 1.11793 3.28816 0
M  V30 4339 C 430.785 2.21417 3.66277 0
M  V30 4340 C 430.111 1.85218 5.01596 0
M  V30 4341 C 431.411 3.63489 3.75064 0
M  V30 4342 H 433.105 2.2743 1.9472 0
M  V30 4343 H 430.651 1.09479 0.935437 0
M  V30 4344 H 432.604 1.08222 4.07266 0
M  V30 4345 H 431.328 0.139501 3.26302 0
M  V30 4346 H 429.987 2.2411 2.90121 0
M  V30 4347 H 429.635 0.859544 4.95602 0
M  V30 4348 H 429.335 2.58611 5.27631 0
M  V30 4349 H 430.859 1.832 5.82469 0
M  V30 4350 H 432.273 3.63034 4.43711 0
M  V30 4351 H 430.67 4.35771 4.12582 0
M  V30 4352 H 431.74 3.98536 2.76219 0
M  V30 4353 N 433.083 -1.0153 1.20538 0
M  V30 4354 C 434.033 -2.08482 0.922991 0
M  V30 4355 C 435.017 -1.60469 -0.117702 0
M  V30 4356 O 436.209 -1.76772 0.0898465 0
M  V30 4357 C 433.338 -3.39952 0.478312 0
M  V30 4358 C 432.424 -3.94662 1.5525 0
M  V30 4359 N 432.815 -4.22866 2.77521 0
M  V30 4360 C 431.113 -4.22825 1.41897 0
M  V30 4361 C 431.814 -4.67002 3.4682 0
M  V30 4362 N 430.79 -4.69356 2.74237 0
M  V30 4363 H 434.592 -2.28199 1.85209 0
M  V30 4364 H 432.106 -1.19512 1.09957 0
M  V30 4365 H 434.103 -4.16105 0.257408 0
M  V30 4366 H 432.763 -3.21648 -0.444148 0
M  V30 4367 H 433.774 -4.11732 3.1416 0
M  V30 4368 H 430.451 -4.13714 0.561015 0
M  V30 4369 H 431.841 -4.97632 4.51455 0
M  V30 4370 N 434.561 -1.01147 -1.20859 0
M  V30 4371 C 435.524 -0.582224 -2.21682 0
M  V30 4372 C 436.524 0.344887 -1.57058 0
M  V30 4373 O 437.714 0.134281 -1.73682 0
M  V30 4374 C 434.846 0.150496 -3.40568 0
M  V30 4375 H 436.039 -1.47408 -2.61172 0
M  V30 4376 H 433.592 -0.800695 -1.34233 0
M  V30 4377 H 434.327 1.0575 -3.06574 0
M  V30 4378 H 434.112 -0.515444 -3.88697 0
M  V30 4379 H 435.602 0.438344 -4.15293 0
M  V30 4380 N 436.039 1.36541 -0.78704 0
M  V30 4381 C 437.002 2.28413 -0.189778 0
M  V30 4382 C 438.002 1.48719 0.611499 0
M  V30 4383 O 439.192 1.68737 0.432842 0
M  V30 4384 C 436.324 3.32824 0.737638 0
M  V30 4385 H 437.517 2.82743 -0.999831 0
M  V30 4386 H 435.07 1.46065 -0.556298 0
M  V30 4387 H 435.805 2.83646 1.57212 0
M  V30 4388 H 435.59 3.91752 0.165044 0
M  V30 4389 H 437.08 4.0144 1.15047 0
M  V30 4390 N 437.518 0.538854 1.48102 0
M  V30 4391 C 438.466 -0.232325 2.31437 0
M  V30 4392 C 439.46 -0.927004 1.41785 0
M  V30 4393 O 440.666 -0.850378 1.58646 0
M  V30 4394 H 437.041 -0.0937916 0.746128 0
M  V30 4395 H 439.012 0.489986 2.9435 0
M  V30 4396 C 437.761 -1.26074 3.24038 0
M  V30 4397 H 437.084 -0.735609 3.92974 0
M  V30 4398 H 438.524 -1.77157 3.85216 0
M  V30 4399 C 436.983 -2.29902 2.46265 0
M  V30 4400 O 437.513 -3.36502 2.19384 0
M  V30 4401 N 435.719 -2.03348 2.07601 0
M  V30 4402 H 435.266 -1.16675 2.29662 0
M  V30 4403 H 435.224 -2.73038 1.55877 0
M  V30 4404 N 438.996 -1.55193 0.274407 0
M  V30 4405 C 439.926 -2.25471 -0.607032 0
M  V30 4406 C 440.907 -1.24461 -1.15946 0
M  V30 4407 O 442.092 -1.53179 -1.19373 0
M  V30 4408 C 439.222 -2.97526 -1.79153 0
M  V30 4409 C 438.176 -4.05459 -1.37067 0
M  V30 4410 C 437.502 -4.65084 -2.6382 0
M  V30 4411 C 438.802 -5.19691 -0.521389 0
M  V30 4412 H 440.496 -2.99393 -0.0209343 0
M  V30 4413 H 438.042 -1.43997 -0.00862866 0
M  V30 4414 H 439.995 -3.45402 -2.41404 0
M  V30 4415 H 438.719 -2.21138 -2.40344 0
M  V30 4416 H 437.378 -3.58393 -0.771355 0
M  V30 4417 H 437.026 -3.85365 -3.23268 0
M  V30 4418 H 436.726 -5.37961 -2.36372 0
M  V30 4419 H 438.25 -5.15708 -3.26921 0
M  V30 4420 H 439.664 -5.63623 -1.04889 0
M  V30 4421 H 438.061 -5.99126 -0.341825 0
M  V30 4422 H 439.131 -4.82713 0.46 0
M  V30 4423 N 440.474 -0.00167713 -1.576 0
M  V30 4424 C 441.722 0.681471 -1.90264 0
M  V30 4425 C 442.043 1.7422 -0.875924 0
M  V30 4426 O 441.313 1.95709 0.0864412 0
M  V30 4427 H 439.893 0.254696 -0.702239 0
M  V30 4428 H 442.555 -0.0429996 -1.94853 0
M  V30 4429 H 441.651 1.15166 -2.90075 0
M  V30 4430 N 441.952 1.55251 0.271103 0
M  V30 4431 C 443.198 1.76207 1.00394 0
M  V30 4432 C 443.531 0.562604 1.85872 0
M  V30 4433 O 442.806 -0.439785 1.89463 0
M  V30 4434 C 443.089 3.06828 1.8849 0
M  V30 4435 C 442.942 4.37134 1.05992 0
M  V30 4436 C 444.261 3.33503 2.87165 0
M  V30 4437 H 441.38 0.641086 0.363562 0
M  V30 4438 H 444.022 1.87982 0.276189 0
M  V30 4439 H 442.172 2.96921 2.5054 0
M  V30 4440 H 443.844 4.59001 0.459978 0
M  V30 4441 H 442.087 4.32275 0.363443 0
M  V30 4442 H 442.758 5.2486 1.70955 0
M  V30 4443 H 445.234 3.43215 2.3525 0
M  V30 4444 H 444.11 4.2616 3.45946 0
M  V30 4445 H 444.371 2.53235 3.62387 0
M  V30 4446 N 443.43 -0.535701 1.48216 0
M  V30 4447 C 444.655 -1.32149 1.59848 0
M  V30 4448 C 445.08 -1.86338 0.256842 0
M  V30 4449 O 444.438 -1.64107 -0.770632 0
M  V30 4450 C 444.486 -2.45224 2.64381 0
M  V30 4451 O 443.59 -3.48093 2.21144 0
M  V30 4452 H 442.931 -0.391634 0.536208 0
M  V30 4453 H 445.461 -0.645202 1.94161 0
M  V30 4454 H 445.471 -2.91491 2.85476 0
M  V30 4455 H 444.146 -2.05143 3.61786 0
M  V30 4456 H 442.723 -3.07984 2.10239 0
M  V30 4457 N 444.908 -1.36708 -0.784132 0
M  V30 4458 C 446.136 -1.34398 -1.57305 0
M  V30 4459 C 446.551 0.0735577 -1.88657 0
M  V30 4460 O 445.908 1.03193 -1.50524 0
M  V30 4461 C 445.959 -2.17053 -2.89085 0
M  V30 4462 O 445.68 -3.53281 -2.59083 0
M  V30 4463 C 447.181 -2.22583 -3.83369 0
M  V30 4464 H 444.401 -0.460819 -0.487736 0
M  V30 4465 H 446.945 -1.79879 -0.972819 0
M  V30 4466 H 445.1 -1.75113 -3.45564 0
M  V30 4467 H 445.514 -3.9647 -3.43383 0
M  V30 4468 H 446.988 -2.84763 -4.72878 0
M  V30 4469 H 447.465 -1.23075 -4.21603 0
M  V30 4470 H 448.071 -2.64781 -3.32823 0
M  V30 4471 N 446.386 1.0089 -1.21074 0
M  V30 4472 C 447.634 1.74262 -1.02358 0
M  V30 4473 C 447.955 1.89869 0.444393 0
M  V30 4474 O 447.225 1.44677 1.32081 0
M  V30 4475 H 445.805 0.645615 -0.375754 0
M  V30 4476 H 448.467 1.21596 -1.52317 0
M  V30 4477 H 447.563 2.74328 -1.4883 0
M  V30 4478 N 447.864 1.01787 1.20321 0
M  V30 4479 C 448.827 0.593972 2.2137 0
M  V30 4480 C 449.827 -0.336553 1.57239 0
M  V30 4481 O 451.017 -0.125069 1.7375 0
M  V30 4482 C 448.149 -0.132433 3.40643 0
M  V30 4483 H 449.342 1.48791 2.60387 0
M  V30 4484 H 446.895 0.807803 1.33807 0
M  V30 4485 H 447.63 -1.04123 3.0713 0
M  V30 4486 H 447.415 0.53605 3.88418 0
M  V30 4487 H 448.905 -0.416314 4.1552 0
M  V30 4488 N 449.342 -1.36122 0.79427 0
M  V30 4489 C 450.588 -1.99406 0.369452 0
M  V30 4490 C 450.921 -1.62886 -1.05743 0
M  V30 4491 O 450.196 -0.886053 -1.73145 0
M  V30 4492 C 450.479 -3.56046 0.538833 0
M  V30 4493 C 450.332 -4.02404 2.00976 0
M  V30 4494 C 451.651 -4.40079 -0.0431359 0
M  V30 4495 H 448.77 -0.724397 0.135712 0
M  V30 4496 H 451.412 -1.61461 1.00151 0
M  V30 4497 H 449.562 -3.885 0.000771004 0
M  V30 4498 H 451.234 -3.80415 2.60926 0
M  V30 4499 H 449.477 -3.53765 2.51063 0
M  V30 4500 H 450.148 -5.11344 2.07922 0
M  V30 4501 H 452.624 -4.14013 0.416228 0
M  V30 4502 H 451.5 -5.48799 0.105374 0
M  V30 4503 H 451.761 -4.27264 -1.13571 0
M  V30 4504 N 450.82 -0.546701 -1.47814 0
M  V30 4505 C 452.068 -0.0187037 -2.02091 0
M  V30 4506 C 452.389 1.33168 -1.42447 0
M  V30 4507 O 451.659 1.86619 -0.595839 0
M  V30 4508 H 450.239 -0.00392531 -0.74699 0
M  V30 4509 H 452.901 -0.714327 -1.81338 0
M  V30 4510 H 451.997 0.0772219 -3.12004 0
M  V30 4511 N 452.299 1.55045 -0.282633 0
M  V30 4512 C 453.231 2.2023 0.634924 0
M  V30 4513 C 454.244 1.18931 1.11172 0
M  V30 4514 O 455.433 1.4562 1.03233 0
M  V30 4515 C 452.533 2.82041 1.87899 0
M  V30 4516 C 451.706 4.091 1.54776 0
M  V30 4517 C 450.765 4.54887 2.64507 0
M  V30 4518 O 449.791 5.20496 2.30375 0
M  V30 4519 N 450.993 4.25659 3.94709 0
M  V30 4520 H 453.758 2.99601 0.0769811 0
M  V30 4521 H 451.319 1.61565 -0.104048 0
M  V30 4522 H 453.311 3.09613 2.60619 0
M  V30 4523 H 451.881 2.06618 2.3458 0
M  V30 4524 H 451.101 3.88736 0.654049 0
M  V30 4525 H 452.389 4.9187 1.30158 0
M  V30 4526 H 451.787 3.7306 4.25256 0
M  V30 4527 H 450.344 4.57984 4.63782 0
M  V30 4528 N 453.777 0.010035 1.57597 0
M  V30 4529 C 455.025 -0.671371 1.90623 0
M  V30 4530 C 455.346 -1.73753 0.885151 0
M  V30 4531 O 454.616 -1.95752 -0.0760611 0
M  V30 4532 H 453.196 -0.250968 0.703579 0
M  V30 4533 H 455.858 0.0533325 1.94827 0
M  V30 4534 H 454.954 -1.13626 2.90681 0
M  V30 4535 N 455.255 -1.55392 -0.262866 0
M  V30 4536 C 456.502 -1.76476 -0.993109 0
M  V30 4537 C 456.83 -0.571479 -1.85915 0
M  V30 4538 O 456.085 0.445733 -1.90556 0
M  V30 4539 C 456.384 -3.02889 -1.89718 0
M  V30 4540 C 456.05 -4.34974 -1.18781 0
M  V30 4541 C 454.712 -4.7087 -0.991699 0
M  V30 4542 C 457.064 -5.16695 -0.683798 0
M  V30 4543 C 454.392 -5.86036 -0.279024 0
M  V30 4544 C 456.744 -6.32598 0.0153327 0
M  V30 4545 C 455.408 -6.67127 0.223062 0
M  V30 4546 H 454.678 -0.64577 -0.363404 0
M  V30 4547 H 457.325 -1.89664 -0.264525 0
M  V30 4548 H 455.63 -2.84644 -2.6923 0
M  V30 4549 H 457.327 -3.16399 -2.46359 0
M  V30 4550 H 453.917 -4.06765 -1.35058 0
M  V30 4551 H 458.101 -4.8943 -0.8229 0
M  V30 4552 H 453.357 -6.11306 -0.107456 0
M  V30 4553 H 457.531 -6.95171 0.413584 0
M  V30 4554 H 455.158 -7.56216 0.777265 0
M  V30 4555 N 456.733 0.527833 -1.48498 0
M  V30 4556 C 457.981 1.28101 -1.56316 0
M  V30 4557 C 458.302 1.9352 -0.239781 0
M  V30 4558 O 457.572 1.81433 0.738849 0
M  V30 4559 H 456.152 0.475793 -0.575873 0
M  V30 4560 H 458.814 0.614052 -1.84974 0
M  V30 4561 H 457.91 2.05916 -2.34532 0
M  V30 4562 N 458.211 1.37122 0.776871 0
M  V30 4563 C 459.174 1.32301 1.8716 0
M  V30 4564 C 460.174 0.228099 1.59174 0
M  V30 4565 O 461.364 0.483642 1.67352 0
M  V30 4566 C 458.496 1.054 3.24197 0
M  V30 4567 H 459.689 2.29673 1.92848 0
M  V30 4568 H 457.242 1.22077 0.97606 0
M  V30 4569 H 457.977 0.0853872 3.24188 0
M  V30 4570 H 457.762 1.84648 3.45901 0
M  V30 4571 H 459.252 1.04664 4.04271 0
M  V30 4572 N 459.689 -1.00246 1.21608 0
M  V30 4573 C 460.966 -1.71336 0.943568 0
M  V30 4574 C 461.346 -2.03972 -0.543943 0
M  V30 4575 O 460.694 -1.71545 -1.50946 0
M  V30 4576 C 460.904 -2.97094 1.83128 0
M  V30 4577 C 462.252 -3.70071 2.08165 0
M  V30 4578 O 463.276 -3.07081 1.80498 0
M  V30 4579 O 462.135 -4.83376 2.54971 0
M  V30 4580 H 459.229 -0.747386 0.354039 0
M  V30 4581 H 461.775 -1.05967 1.32549 0
M  V30 4582 H 460.547 -2.69407 2.83788 0
M  V30 4583 H 460.17 -3.70204 1.45034 0
M  V30 4584 N 461.167 -1.02423 -1.1978 0
M  V30 4585 C 462.414 -0.717988 -1.89344 0
M  V30 4586 C 462.742 0.753036 -1.79331 0
M  V30 4587 O 461.997 1.56355 -1.17692 0
M  V30 4588 C 462.296 -1.1088 -3.39765 0
M  V30 4589 C 461.962 -2.57731 -3.6998 0
M  V30 4590 C 460.624 -2.97854 -3.77937 0
M  V30 4591 C 462.976 -3.52763 -3.83677 0
M  V30 4592 C 460.304 -4.31931 -3.97054 0
M  V30 4593 C 462.656 -4.86538 -4.04306 0
M  V30 4594 C 461.32 -5.26356 -4.10494 0
M  V30 4595 H 460.59 -0.26273 -0.692859 0
M  V30 4596 H 463.237 -1.28623 -1.41875 0
M  V30 4597 H 461.542 -0.459094 -3.89101 0
M  V30 4598 H 463.239 -0.849432 -3.919 0
M  V30 4599 H 459.829 -2.25646 -3.64393 0
M  V30 4600 H 464.013 -3.2292 -3.76877 0
M  V30 4601 H 459.269 -4.62324 -4.00083 0
M  V30 4602 H 463.443 -5.60093 -4.13846 0
M  V30 4603 H 461.07 -6.3026 -4.2506 0
M  V30 4604 N 462.645 1.35699 -0.801477 0
M  V30 4605 C 463.577 2.28598 -0.166028 0
M  V30 4606 C 464.59 1.50044 0.631721 0
M  V30 4607 O 465.779 1.72339 0.464921 0
M  V30 4608 C 462.879 3.29625 0.787451 0
M  V30 4609 C 462.052 4.37384 0.037171 0
M  V30 4610 C 461.111 5.183 0.908375 0
M  V30 4611 O 460.137 5.68053 0.361189 0
M  V30 4612 N 461.339 5.35912 2.23112 0
M  V30 4613 H 464.104 2.83771 -0.964071 0
M  V30 4614 H 461.665 1.47994 -0.656469 0
M  V30 4615 H 463.657 3.80648 1.37439 0
M  V30 4616 H 462.227 2.75004 1.48632 0
M  V30 4617 H 461.447 3.87364 -0.730935 0
M  V30 4618 H 462.735 5.0653 -0.480109 0
M  V30 4619 H 462.133 4.97125 2.69968 0
M  V30 4620 H 460.69 5.90133 2.76741 0
M  V30 4621 N 464.123 0.554532 1.47522 0
M  V30 4622 C 465.055 -0.232106 2.28022 0
M  V30 4623 C 466.068 -0.881865 1.36847 0
M  V30 4624 O 467.257 -0.756168 1.61692 0
M  V30 4625 C 464.357 -1.34604 3.11022 0
M  V30 4626 C 463.53 -0.793582 4.30141 0
M  V30 4627 C 462.589 -1.79168 4.94758 0
M  V30 4628 O 461.615 -1.33886 5.5323 0
M  V30 4629 N 462.817 -3.12495 4.89211 0
M  V30 4630 H 465.582 0.458407 2.96173 0
M  V30 4631 H 463.143 0.390433 1.57122 0
M  V30 4632 H 465.135 -2.01243 3.51118 0
M  V30 4633 H 463.705 -1.93983 2.45131 0
M  V30 4634 H 462.925 0.0495025 3.94169 0
M  V30 4635 H 464.213 -0.403776 5.07195 0
M  V30 4636 H 463.611 -3.51931 4.42901 0
M  V30 4637 H 462.168 -3.74698 5.33333 0
M  V30 4638 N 465.601 -1.54893 0.290851 0
M  V30 4639 C 467.017 -1.59476 -0.0628432 0
M  V30 4640 C 467.217 -1.30795 -1.5328 0
M  V30 4641 O 466.273 -1.07644 -2.28406 0
M  V30 4642 C 467.586 -2.98928 0.325962 0
M  V30 4643 C 469.134 -3.11799 0.273882 0
M  V30 4644 C 469.609 -4.53544 0.637359 0
M  V30 4645 N 471.1 -4.59433 0.589507 0
M  V30 4646 C 471.835 -5.67164 0.84335 0
M  V30 4647 N 471.331 -6.82975 1.16263 0
M  V30 4648 N 473.124 -5.56786 0.771091 0
M  V30 4649 H 465.275 -1.71798 1.24896 0
M  V30 4650 H 467.538 -0.801879 0.505663 0
M  V30 4651 H 467.244 -3.24805 1.34887 0
M  V30 4652 H 467.118 -3.75793 -0.325441 0
M  V30 4653 H 469.505 -2.85677 -0.739765 0
M  V30 4654 H 469.586 -2.37112 0.959766 0
M  V30 4655 H 469.23 -4.80394 1.64877 0
M  V30 4656 H 469.16 -5.26553 -0.0704866 0
M  V30 4657 H 471.651 -3.76245 0.353252 0
M  V30 4658 H 471.964 -7.61048 1.34257 0
M  V30 4659 H 470.309 -6.84552 1.20057 0
M  V30 4660 H 473.5 -4.65187 0.521383 0
M  V30 4661 H 473.673 -6.40664 0.972295 0
M  V30 4662 N 467.08 -0.0183926 -1.57589 0
M  V30 4663 C 468.01 0.965596 -2.12599 0
M  V30 4664 C 468.991 1.34641 -1.0395 0
M  V30 4665 O 470.176 1.42693 -1.31729 0
M  V30 4666 C 467.306 2.25149 -2.64434 0
M  V30 4667 C 466.26 2.01175 -3.77773 0
M  V30 4668 C 465.586 3.35937 -4.15994 0
M  V30 4669 C 466.886 1.35953 -5.04296 0
M  V30 4670 H 468.58 0.507504 -2.95067 0
M  V30 4671 H 466.126 0.242671 -1.41941 0
M  V30 4672 H 468.079 2.94357 -3.01549 0
M  V30 4673 H 466.803 2.73105 -1.79112 0
M  V30 4674 H 465.462 1.34388 -3.4108 0
M  V30 4675 H 465.11 3.81631 -3.27669 0
M  V30 4676 H 464.81 3.20705 -4.92364 0
M  V30 4677 H 466.334 4.0643 -4.55683 0
M  V30 4678 H 467.748 1.95144 -5.39065 0
M  V30 4679 H 466.145 1.31152 -5.85593 0
M  V30 4680 H 467.215 0.331071 -4.83768 0
M  V30 4681 N 468.558 1.5553 0.254621 0
M  V30 4682 C 469.804 1.77262 0.985193 0
M  V30 4683 C 470.137 0.582286 1.85265 0
M  V30 4684 O 469.412 -0.419666 1.89919 0
M  V30 4685 C 469.695 3.0881 1.85225 0
M  V30 4686 C 469.548 4.38233 1.0135 0
M  V30 4687 C 470.867 3.3653 2.83612 0
M  V30 4688 H 467.986 0.644906 0.356742 0
M  V30 4689 H 470.628 1.88264 0.256236 0
M  V30 4690 H 468.778 2.99562 2.47376 0
M  V30 4691 H 470.45 4.59463 0.411269 0
M  V30 4692 H 468.693 4.32636 0.317574 0
M  V30 4693 H 469.364 5.26644 1.65379 0
M  V30 4694 H 471.84 3.45691 2.31596 0
M  V30 4695 H 470.716 4.29805 3.41407 0
M  V30 4696 H 470.977 2.57064 3.59681 0
M  V30 4697 N 470.036 -0.519951 1.48776 0
M  V30 4698 C 471.447 -1.10177 1.50725 0
M  V30 4699 C 471.798 -1.94153 0.282678 0
M  V30 4700 O 470.923 -2.07645 -0.609298 0
M  V30 4701 C 471.518 -2.00482 2.73116 0
M  V30 4702 C 470.077 -2.53862 2.77905 0
M  V30 4703 C 469.224 -1.31047 2.44381 0
M  V30 4704 H 472.175 -0.30473 1.55747 0
M  V30 4705 H 472.196 -2.8491 2.52203 0
M  V30 4706 H 471.708 -1.39335 3.62225 0
M  V30 4707 H 469.809 -3.18702 1.93029 0
M  V30 4708 H 469.922 -2.9231 3.79594 0
M  V30 4709 H 468.286 -1.62953 1.95751 0
M  V30 4710 H 469.069 -0.71637 3.35743 0
M  V30 4711 N 471.514 -1.37532 -0.769588 0
M  V30 4712 C 472.93 -1.18379 -1.07045 0
M  V30 4713 C 473.13 -0.0214312 -2.01489 0
M  V30 4714 O 472.186 0.637809 -2.44312 0
M  V30 4715 C 473.499 -2.50338 -1.66588 0
M  V30 4716 C 475.047 -2.56879 -1.78835 0
M  V30 4717 C 475.522 -3.88974 -2.41792 0
M  V30 4718 N 477.013 -3.90428 -2.4924 0
M  V30 4719 C 477.748 -4.89388 -2.98809 0
M  V30 4720 N 477.244 -5.98745 -3.48535 0
M  V30 4721 N 479.037 -4.76791 -2.97703 0
M  V30 4722 H 471.188 -2.11921 -0.142541 0
M  V30 4723 H 473.451 -0.939608 -0.125863 0
M  V30 4724 H 473.157 -3.35767 -1.0466 0
M  V30 4725 H 473.031 -2.67583 -2.65856 0
M  V30 4726 H 475.418 -1.71856 -2.39895 0
M  V30 4727 H 475.499 -2.43516 -0.783166 0
M  V30 4728 H 475.143 -4.74412 -1.81371 0
M  V30 4729 H 475.073 -3.99641 -3.4292 0
M  V30 4730 H 477.564 -3.11433 -2.14052 0
M  V30 4731 H 477.877 -6.70205 -3.84767 0
M  V30 4732 H 476.222 -6.02387 -3.46634 0
M  V30 4733 H 479.413 -3.90478 -2.58157 0
M  V30 4734 H 479.586 -5.54069 -3.36024 0
M  V30 4735 N 472.992 0.995999 -1.22138 0
M  V30 4736 C 473.922 2.10387 -1.01289 0
M  V30 4737 C 474.903 1.69975 0.0651454 0
M  V30 4738 O 476.088 1.9396 -0.0964628 0
M  V30 4739 C 473.218 3.42312 -0.586517 0
M  V30 4740 C 472.172 3.96558 -1.61014 0
M  V30 4741 C 471.498 5.24494 -1.0397 0
M  V30 4742 C 472.798 4.27595 -2.99933 0
M  V30 4743 H 474.492 2.28086 -1.93951 0
M  V30 4744 H 472.038 1.09607 -0.933928 0
M  V30 4745 H 473.991 4.19223 -0.427793 0
M  V30 4746 H 472.715 3.24431 0.375761 0
M  V30 4747 H 471.374 3.21776 -1.75658 0
M  V30 4748 H 471.022 5.02953 -0.0688703 0
M  V30 4749 H 470.722 5.61755 -1.72352 0
M  V30 4750 H 472.246 6.04042 -0.892494 0
M  V30 4751 H 473.66 4.95315 -2.8868 0
M  V30 4752 H 472.057 4.76021 -3.6541 0
M  V30 4753 H 473.127 3.35498 -3.50099 0
M  V30 4754 N 474.47 1.03057 1.19235 0
M  V30 4755 C 475.747 0.642608 1.84743 0
M  V30 4756 C 476.127 -0.878577 1.91948 0
M  V30 4757 O 475.475 -1.77597 1.43776 0
M  V30 4758 C 475.685 1.30665 3.23616 0
M  V30 4759 C 477.033 1.43098 3.9976 0
M  V30 4760 O 478.057 1.26396 3.3302 0
M  V30 4761 O 476.916 1.70223 5.19313 0
M  V30 4762 H 474.01 0.223573 0.796206 0
M  V30 4763 H 476.556 1.12883 1.26711 0
M  V30 4764 H 475.328 2.34544 3.13217 0
M  V30 4765 H 474.951 0.808405 3.89295 0
M  V30 4766 N 475.948 -1.35272 0.808662 0
M  V30 4767 C 476.898 -2.27181 0.193124 0
M  V30 4768 C 477.882 -1.47871 -0.634265 0
M  V30 4769 O 479.074 -1.70048 -0.491182 0
M  V30 4770 C 476.203 -3.36979 -0.655751 0
M  V30 4771 C 475.289 -4.23712 0.181481 0
M  V30 4772 N 475.68 -4.90225 1.24551 0
M  V30 4773 C 473.978 -4.45985 -0.0365493 0
M  V30 4774 C 474.679 -5.54537 1.75682 0
M  V30 4775 N 473.655 -5.33107 1.06294 0
M  V30 4776 H 477.457 -2.76101 1.00724 0
M  V30 4777 H 474.971 -1.48823 0.650029 0
M  V30 4778 H 476.968 -4.01774 -1.11279 0
M  V30 4779 H 475.628 -2.89611 -1.46819 0
M  V30 4780 H 476.639 -4.91641 1.62818 0
M  V30 4781 H 473.316 -4.09409 -0.817964 0
M  V30 4782 H 474.706 -6.17597 2.64621 0
M  V30 4783 N 477.426 -0.562348 -1.47226 0
M  V30 4784 C 478.703 0.0256985 -1.95583 0
M  V30 4785 C 479.083 1.48032 -1.50498 0
M  V30 4786 O 478.431 2.15973 -0.746181 0
M  V30 4787 C 478.641 -0.125129 -3.48776 0
M  V30 4788 C 479.989 0.0175728 -4.24596 0
M  V30 4789 O 481.013 -0.0529341 -3.56161 0
M  V30 4790 O 479.872 0.170145 -5.46235 0
M  V30 4791 H 476.966 0.0612565 -0.824728 0
M  V30 4792 H 479.512 -0.629233 -1.57603 0
M  V30 4793 H 478.284 -1.13715 -3.74412 0
M  V30 4794 H 477.907 0.567178 -3.93534 0
M  V30 4795 N 478.904 1.54736 -0.299062 0
M  V30 4796 C 479.867 2.22127 0.565012 0
M  V30 4797 C 480.867 1.20669 1.06281 0
M  V30 4798 O 482.057 1.45417 0.959145 0
M  V30 4799 C 479.189 2.90611 1.78208 0
M  V30 4800 H 480.382 2.99891 -0.0237448 0
M  V30 4801 H 477.935 1.5622 -0.0498788 0
M  V30 4802 H 478.67 2.16921 2.41072 0
M  V30 4803 H 478.455 3.64984 1.43281 0
M  V30 4804 H 479.945 3.42026 2.396 0
M  V30 4805 N 480.382 0.0267497 1.57577 0
M  V30 4806 C 481.312 -0.954308 2.13108 0
M  V30 4807 C 482.293 -1.34088 1.04663 0
M  V30 4808 O 483.478 -1.41992 1.32484 0
M  V30 4809 C 480.608 -2.23744 2.65624 0
M  V30 4810 C 479.562 -1.99168 3.78835 0
M  V30 4811 C 478.888 -3.33726 4.17769 0
M  V30 4812 C 480.188 -1.33277 5.0501 0
M  V30 4813 H 481.882 -0.491848 2.95332 0
M  V30 4814 H 479.428 -0.23514 1.42067 0
M  V30 4815 H 481.381 -2.92754 3.03106 0
M  V30 4816 H 480.105 -2.72151 1.80558 0
M  V30 4817 H 478.764 -1.32577 3.41788 0
M  V30 4818 H 478.412 -3.79888 3.29688 0
M  V30 4819 H 478.112 -3.18089 4.94058 0
M  V30 4820 H 479.636 -4.04008 4.57832 0
M  V30 4821 H 481.05 -1.92283 5.40093 0
M  V30 4822 H 479.447 -1.28045 5.8628 0
M  V30 4823 H 480.517 -0.305411 4.83937 0
M  V30 4824 N 481.861 -1.55662 -0.24637 0
M  V30 4825 C 482.824 -1.89558 -1.28842 0
M  V30 4826 C 483.824 -0.772082 -1.41052 0
M  V30 4827 O 485.014 -1.04007 -1.39743 0
M  V30 4828 C 482.146 -2.12449 -2.66605 0
M  V30 4829 H 483.339 -2.82735 -1.00004 0
M  V30 4830 H 480.892 -1.48562 -0.485684 0
M  V30 4831 H 481.627 -1.21742 -3.00582 0
M  V30 4832 H 481.412 -2.94273 -2.59125 0
M  V30 4833 H 482.902 -2.39854 -3.41847 0
M  V30 4834 N 483.339 0.512053 -1.4905 0
M  V30 4835 C 484.269 1.62365 -1.67809 0
M  V30 4836 C 485.25 1.61737 -0.526809 0
M  V30 4837 O 486.435 1.78651 -0.761404 0
M  V30 4838 C 483.565 3.00895 -1.73435 0
M  V30 4839 C 482.519 3.16387 -2.88242 0
M  V30 4840 C 481.845 4.56157 -2.78971 0
M  V30 4841 C 483.145 2.97457 -4.29321 0
M  V30 4842 H 484.839 1.46921 -2.60873 0
M  V30 4843 H 482.385 0.705379 -1.2554 0
M  V30 4844 H 484.338 3.78549 -1.85145 0
M  V30 4845 H 483.062 3.17403 -0.769619 0
M  V30 4846 H 481.721 2.41155 -2.76116 0
M  V30 4847 H 481.369 4.69525 -1.8043 0
M  V30 4848 H 481.069 4.67465 -3.5602 0
M  V30 4849 H 482.593 5.35886 -2.92675 0
M  V30 4850 H 484.007 3.64888 -4.42187 0
M  V30 4851 H 482.404 3.20245 -5.07507 0
M  V30 4852 H 483.474 1.93692 -4.44535 0
M  V30 4853 N 484.817 1.37938 0.762283 0
M  V30 4854 C 485.747 1.37176 1.88958 0
M  V30 4855 C 486.728 0.238945 1.68413 0
M  V30 4856 O 487.913 0.440726 1.89133 0
M  V30 4857 C 485.043 1.18742 3.2637 0
M  V30 4858 C 483.997 2.29136 3.61498 0
M  V30 4859 C 483.323 1.95816 4.97554 0
M  V30 4860 C 484.623 3.71363 3.6727 0
M  V30 4861 H 486.317 2.31509 1.89853 0
M  V30 4862 H 483.863 1.11438 0.912005 0
M  V30 4863 H 485.816 1.16837 4.04879 0
M  V30 4864 H 484.54 0.208683 3.25933 0
M  V30 4865 H 483.199 2.30213 2.85303 0
M  V30 4866 H 482.847 0.964475 4.93667 0
M  V30 4867 H 482.547 2.69745 5.22026 0
M  V30 4868 H 484.071 1.95513 5.78452 0
M  V30 4869 H 485.485 3.72364 4.35911 0
M  V30 4870 H 483.882 4.44425 4.03245 0
M  V30 4871 H 484.952 4.04305 2.67704 0
M  V30 4872 N 486.295 -0.989507 1.22664 0
M  V30 4873 C 487.205 -2.11449 1.01619 0
M  V30 4874 C 488.221 -1.73962 -0.036545 0
M  V30 4875 O 489.397 -2.00788 0.156924 0
M  V30 4876 C 486.462 -3.41465 0.600204 0
M  V30 4877 C 485.523 -3.93033 1.72695 0
M  V30 4878 C 484.756 -5.16844 1.33071 0
M  V30 4879 O 484.979 -5.7001 0.210975 0
M  V30 4880 O 483.913 -5.6225 2.14845 0
M  V30 4881 H 487.739 -2.32088 1.9588 0
M  V30 4882 H 485.324 -1.09823 1.01289 0
M  V30 4883 H 487.206 -4.19695 0.37873 0
M  V30 4884 H 485.881 -3.22178 -0.313511 0
M  V30 4885 H 484.788 -3.15961 2.00298 0
M  V30 4886 H 486.121 -4.16758 2.61865 0
M  V30 4887 N 487.773 -1.03688 -1.18687 0
M  V30 4888 C 489.189 -0.755413 -1.4059 0
M  V30 4889 C 489.389 0.656659 -1.905 0
M  V30 4890 O 488.445 1.42144 -2.08689 0
M  V30 4891 C 489.758 -1.7983 -2.41001 0
M  V30 4892 C 491.306 -1.81877 -2.54735 0
M  V30 4893 C 491.781 -2.85148 -3.58406 0
M  V30 4894 N 493.272 -2.84015 -3.6591 0
M  V30 4895 C 494.007 -3.60573 -4.45841 0
M  V30 4896 N 493.503 -4.46871 -5.29413 0
M  V30 4897 N 495.296 -3.49079 -4.40568 0
M  V30 4898 H 487.447 -1.94818 -0.846148 0
M  V30 4899 H 489.71 -0.842727 -0.434184 0
M  V30 4900 H 489.416 -2.81097 -2.1137 0
M  V30 4901 H 489.29 -1.62727 -3.40294 0
M  V30 4902 H 491.677 -0.812836 -2.83685 0
M  V30 4903 H 491.758 -2.03057 -1.55568 0
M  V30 4904 H 491.402 -3.85918 -3.30197 0
M  V30 4905 H 491.332 -2.61224 -4.57241 0
M  V30 4906 H 493.823 -2.21431 -3.0623 0
M  V30 4907 H 494.136 -5.02007 -5.87545 0
M  V30 4908 H 492.481 -4.5094 -5.28846 0
M  V30 4909 H 495.672 -2.81066 -3.74325 0
M  V30 4910 H 495.845 -4.08994 -5.02621 0
M  V30 4911 N 489.251 1.34841 -0.815825 0
M  V30 4912 C 490.479 2.0273 -0.413294 0
M  V30 4913 C 490.894 1.61459 0.978599 0
M  V30 4914 O 490.251 0.816584 1.63212 0
M  V30 4915 C 490.302 3.58058 -0.497676 0
M  V30 4916 O 490.023 3.97832 -1.8347 0
M  V30 4917 C 491.524 4.4321 -0.0891339 0
M  V30 4918 H 488.744 0.649956 -0.166728 0
M  V30 4919 H 491.288 1.72267 -1.10201 0
M  V30 4920 H 489.443 3.87136 0.142886 0
M  V30 4921 H 489.857 4.92501 -1.80396 0
M  V30 4922 H 491.331 5.5164 -0.199274 0
M  V30 4923 H 491.808 4.28432 0.966571 0
M  V30 4924 H 492.414 4.19446 -0.703214 0
M  V30 4925 N 490.729 0.570148 1.46925 0
M  V30 4926 C 491.661 -0.207909 2.28255 0
M  V30 4927 C 492.674 -0.867301 1.37774 0
M  V30 4928 O 493.863 -0.738976 1.62485 0
M  V30 4929 C 490.963 -1.31298 3.12433 0
M  V30 4930 C 490.136 -0.747915 4.30958 0
M  V30 4931 C 489.195 -1.7391 4.9663 0
M  V30 4932 O 488.221 -1.2801 5.54619 0
M  V30 4933 N 489.423 -3.07288 4.92498 0
M  V30 4934 H 492.188 0.489794 2.95671 0
M  V30 4935 H 489.749 0.407076 1.56699 0
M  V30 4936 H 491.741 -1.97507 3.53232 0
M  V30 4937 H 490.311 -1.91373 2.47175 0
M  V30 4938 H 489.531 0.0913066 3.94094 0
M  V30 4939 H 490.819 -0.349958 5.07595 0
M  V30 4940 H 490.217 -3.47213 4.46609 0
M  V30 4941 H 488.774 -3.69021 5.37277 0
M  V30 4942 N 492.207 -1.54576 0.307264 0
M  V30 4943 C 493.139 -2.21212 -0.599807 0
M  V30 4944 C 494.152 -1.20685 -1.09266 0
M  V30 4945 O 495.341 -1.47244 -1.00903 0
M  V30 4946 C 492.441 -2.84994 -1.83389 0
M  V30 4947 C 491.614 -4.11511 -1.48248 0
M  V30 4948 C 490.673 -4.59038 -2.57237 0
M  V30 4949 O 489.699 -5.24095 -2.22065 0
M  V30 4950 N 490.901 -4.31884 -3.87887 0
M  V30 4951 H 493.666 -2.99686 -0.0293075 0
M  V30 4952 H 491.227 -1.61379 0.129738 0
M  V30 4953 H 493.219 -3.1372 -2.5566 0
M  V30 4954 H 491.789 -2.10324 -2.31263 0
M  V30 4955 H 491.009 -3.89728 -0.592122 0
M  V30 4956 H 492.297 -4.93879 -1.22316 0
M  V30 4957 H 491.695 -3.79778 -4.19268 0
M  V30 4958 H 490.252 -4.65304 -4.56438 0
M  V30 4959 N 493.685 -0.035106 -1.57561 0
M  V30 4960 C 494.932 0.642229 -1.92046 0
M  V30 4961 C 495.26 1.7179 -0.91206 0
M  V30 4962 O 494.515 1.95544 0.0781153 0
M  V30 4963 C 494.814 1.29149 -3.3325 0
M  V30 4964 C 494.48 0.345604 -4.49574 0
M  V30 4965 C 493.142 0.0852775 -4.81124 0
M  V30 4966 C 495.494 -0.303569 -5.20315 0
M  V30 4967 C 492.822 -0.831927 -5.80772 0
M  V30 4968 C 495.174 -1.20886 -6.20942 0
M  V30 4969 C 493.838 -1.47802 -6.50931 0
M  V30 4970 H 493.108 0.235008 -0.702746 0
M  V30 4971 H 495.755 -0.0981529 -1.91248 0
M  V30 4972 H 494.06 2.10676 -3.30337 0
M  V30 4973 H 495.757 1.82223 -3.57205 0
M  V30 4974 H 492.347 0.558683 -4.24943 0
M  V30 4975 H 496.531 -0.115515 -4.96166 0
M  V30 4976 H 491.787 -1.0481 -6.02349 0
M  V30 4977 H 495.961 -1.71804 -6.74875 0
M  V30 4978 H 493.588 -2.19039 -7.2796 0
M  V30 4979 N 495.163 1.55791 0.238111 0
M  V30 4980 C 496.093 1.94068 1.29846 0
M  V30 4981 C 497.074 0.806726 1.49753 0
M  V30 4982 O 498.259 1.06772 1.62214 0
M  V30 4983 C 495.389 2.24302 2.65153 0
M  V30 4984 C 494.343 3.40032 2.59927 0
M  V30 4985 C 493.669 3.55829 3.99111 0
M  V30 4986 C 494.969 4.75476 2.16148 0
M  V30 4987 H 496.663 2.82887 0.980563 0
M  V30 4988 H 494.209 1.36105 0.470253 0
M  V30 4989 H 496.162 2.4967 3.39475 0
M  V30 4990 H 494.886 1.32318 2.98596 0
M  V30 4991 H 493.545 3.14687 1.88063 0
M  V30 4992 H 493.193 2.6125 4.29834 0
M  V30 4993 H 492.893 4.3366 3.96501 0
M  V30 4994 H 494.417 3.83528 4.7512 0
M  V30 4995 H 495.831 5.00158 2.80205 0
M  V30 4996 H 494.228 5.56472 2.24631 0
M  V30 4997 H 495.298 4.71946 1.11333 0
M  V30 4998 N 496.642 -0.504142 1.49319 0
M  V30 4999 C 497.572 -1.61473 1.68667 0
M  V30 5000 C 498.553 -1.61455 0.535378 0
M  V30 5001 O 499.738 -1.78245 0.770868 0
M  V30 5002 C 496.868 -2.99971 1.75028 0
M  V30 5003 C 495.822 -3.14854 2.89916 0
M  V30 5004 C 495.148 -4.54671 2.81387 0
M  V30 5005 C 496.448 -2.95176 4.30893 0
M  V30 5006 H 498.142 -1.45535 2.61648 0
M  V30 5007 H 495.688 -0.698711 1.25913 0
M  V30 5008 H 497.641 -3.77562 1.8715 0
M  V30 5009 H 496.365 -3.1699 0.786441 0
M  V30 5010 H 495.024 -2.39687 2.77391 0
M  V30 5011 H 494.672 -4.68562 1.82917 0
M  V30 5012 H 494.372 -4.6557 3.58494 0
M  V30 5013 H 495.896 -5.34327 2.95512 0
M  V30 5014 H 497.31 -3.62538 4.44116 0
M  V30 5015 H 495.707 -3.17549 5.09198 0
M  V30 5016 H 496.777 -1.91332 4.45556 0
M  V30 5017 N 498.12 -1.38341 -0.754957 0
M  V30 5018 C 499.348 -1.37704 -1.54419 0
M  V30 5019 C 499.763 0.0335243 -1.8877 0
M  V30 5020 O 499.12 0.999773 -1.52679 0
M  V30 5021 C 499.171 -2.23136 -2.84416 0
M  V30 5022 O 498.892 -3.58697 -2.51531 0
M  V30 5023 C 500.393 -2.30664 -3.78562 0
M  V30 5024 H 497.613 -0.471061 -0.477852 0
M  V30 5025 H 500.157 -1.81902 -0.934446 0
M  V30 5026 H 498.312 -1.82403 -3.41772 0
M  V30 5027 H 498.726 -4.03665 -3.34896 0
M  V30 5028 H 500.2 -2.9473 -4.66732 0
M  V30 5029 H 500.677 -1.3199 -4.18898 0
M  V30 5030 H 501.283 -2.71781 -3.27131 0
M  V30 5031 N 499.598 0.982988 -1.23187 0
M  V30 5032 C 500.546 2.09616 -1.00817 0
M  V30 5033 C 501.54 1.6932 0.0519995 0
M  V30 5034 O 502.746 1.79715 -0.101284 0
M  V30 5035 H 499.121 0.685628 -0.308899 0
M  V30 5036 H 501.092 2.25652 -1.95253 0
M  V30 5037 C 499.841 3.42249 -0.613243 0
M  V30 5038 H 499.164 3.73705 -1.42073 0
M  V30 5039 H 500.604 4.21086 -0.496208 0
M  V30 5040 C 499.063 3.30002 0.678233 0
M  V30 5041 O 499.593 3.6263 1.72807 0
M  V30 5042 N 497.799 2.83164 0.653165 0
M  V30 5043 H 497.346 2.56811 -0.201492 0
M  V30 5044 H 497.304 2.75352 1.51752 0
M  V30 5045 N 501.076 1.04316 1.18135 0
M  V30 5046 C 502.024 0.630175 2.23901 0
M  V30 5047 C 503.018 -0.344254 1.65865 0
M  V30 5048 O 504.224 -0.211273 1.78756 0
M  V30 5049 H 500.599 0.185578 0.728742 0
M  V30 5050 H 502.57 1.53253 2.56039 0
M  V30 5051 C 501.319 0.011666 3.47698 0
M  V30 5052 H 500.642 0.752526 3.92654 0
M  V30 5053 H 502.082 -0.240046 4.2332 0
M  V30 5054 C 500.541 -1.23913 3.13285 0
M  V30 5055 O 501.071 -2.32959 3.27251 0
M  V30 5056 N 499.277 -1.13338 2.67587 0
M  V30 5057 H 498.824 -0.246006 2.56423 0
M  V30 5058 H 498.782 -1.97116 2.44934 0
M  V30 5059 N 502.554 -1.34406 0.822964 0
M  V30 5060 C 503.484 -2.32052 0.259608 0
M  V30 5061 C 504.465 -1.58243 -0.623961 0
M  V30 5062 O 505.65 -1.86224 -0.55083 0
M  V30 5063 C 502.78 -3.42434 -0.579314 0
M  V30 5064 C 501.734 -4.27499 0.20712 0
M  V30 5065 C 501.06 -5.29349 -0.754547 0
M  V30 5066 C 502.36 -5.02758 1.41533 0
M  V30 5067 H 504.054 -2.79418 1.07545 0
M  V30 5068 H 501.6 -1.34338 0.518593 0
M  V30 5069 H 503.553 -4.0976 -0.983612 0
M  V30 5070 H 502.277 -2.93717 -1.4282 0
M  V30 5071 H 500.936 -3.61776 0.592787 0
M  V30 5072 H 500.584 -4.76895 -1.59939 0
M  V30 5073 H 500.284 -5.8714 -0.232561 0
M  V30 5074 H 501.808 -5.99544 -1.1567 0
M  V30 5075 H 503.222 -5.62938 1.08504 0
M  V30 5076 H 501.619 -5.70123 1.87296 0
M  V30 5077 H 502.689 -4.32451 2.1935 0
M  V30 5078 N 504.032 -0.577932 -1.46621 0
M  V30 5079 C 504.962 0.145917 -2.33044 0
M  V30 5080 C 505.943 0.888412 -1.45056 0
M  V30 5081 O 507.128 0.864812 -1.73881 0
M  V30 5082 C 504.258 1.16322 -3.27241 0
M  V30 5083 C 503.212 0.535868 -4.24632 0
M  V30 5084 C 502.538 1.65929 -5.08303 0
M  V30 5085 C 503.838 -0.523861 -5.19666 0
M  V30 5086 H 505.532 -0.575636 -2.93814 0
M  V30 5087 H 503.078 -0.278272 -1.41286 0
M  V30 5088 H 505.031 1.67793 -3.86553 0
M  V30 5089 H 503.755 1.91498 -2.64567 0
M  V30 5090 H 502.414 0.0422759 -3.66576 0
M  V30 5091 H 502.062 2.40061 -4.42018 0
M  V30 5092 H 501.762 1.2452 -5.74255 0
M  V30 5093 H 503.286 2.17686 -5.70478 0
M  V30 5094 H 504.7 -0.0944059 -5.73222 0
M  V30 5095 H 503.097 -0.858 -5.93935 0
M  V30 5096 H 504.167 -1.41197 -4.63887 0
M  V30 5097 N 505.51 1.54411 -0.315457 0
M  V30 5098 C 506.442 2.21527 0.588067 0
M  V30 5099 C 507.455 1.21263 1.08624 0
M  V30 5100 O 508.644 1.47777 1.00121 0
M  V30 5101 C 505.744 2.85963 1.81875 0
M  V30 5102 C 504.917 4.12291 1.46063 0
M  V30 5103 C 503.976 4.60396 2.54799 0
M  V30 5104 O 503.002 5.25265 2.19283 0
M  V30 5105 N 504.204 4.33935 3.85591 0
M  V30 5106 H 506.969 2.99697 0.013414 0
M  V30 5107 H 504.53 1.61308 -0.138295 0
M  V30 5108 H 506.522 3.15071 2.53993 0
M  V30 5109 H 505.092 2.11548 2.30144 0
M  V30 5110 H 504.312 3.90036 0.571445 0
M  V30 5111 H 505.6 4.9452 1.19695 0
M  V30 5112 H 504.998 3.81996 4.17248 0
M  V30 5113 H 503.555 4.67718 4.53964 0
M  V30 5114 N 506.988 0.0434614 1.5754 0
M  V30 5115 C 507.898 -0.94893 2.14552 0
M  V30 5116 C 508.914 -1.34707 1.10136 0
M  V30 5117 O 510.09 -1.42557 1.42266 0
M  V30 5118 C 507.155 -2.208 2.67298 0
M  V30 5119 C 506.216 -1.86893 3.86484 0
M  V30 5120 C 505.449 -3.06797 4.36705 0
M  V30 5121 O 505.672 -4.19921 3.86034 0
M  V30 5122 O 504.606 -2.8826 5.28384 0
M  V30 5123 H 508.432 -0.494099 2.99654 0
M  V30 5124 H 506.017 -0.177989 1.48336 0
M  V30 5125 H 507.899 -2.94686 3.01228 0
M  V30 5126 H 506.574 -2.65436 1.85272 0
M  V30 5127 H 505.481 -1.10347 3.57455 0
M  V30 5128 H 506.814 -1.47062 4.69716 0
M  V30 5129 N 508.466 -1.55915 -0.229846 0
M  V30 5130 C 509.877 -1.68809 -0.797531 0
M  V30 5131 C 510.228 -0.643995 -1.8533 0
M  V30 5132 O 509.353 0.206492 -2.15413 0
M  V30 5133 C 509.948 -3.06043 -1.45338 0
M  V30 5134 C 508.507 -3.20819 -1.96856 0
M  V30 5135 C 507.654 -2.6472 -0.825736 0
M  V30 5136 H 510.605 -1.58699 -0.00533733 0
M  V30 5137 H 510.626 -3.01438 -2.32196 0
M  V30 5138 H 510.138 -3.82012 -0.684743 0
M  V30 5139 H 508.239 -2.49704 -2.76548 0
M  V30 5140 H 508.352 -4.27937 -2.15423 0
M  V30 5141 H 506.716 -2.22985 -1.23084 0
M  V30 5142 H 507.499 -3.43229 -0.0699019 0
M  V30 5143 N 509.944 0.496216 -1.49584 0
M  V30 5144 C 511.19 1.25189 -1.59548 0
M  V30 5145 C 511.523 1.9212 -0.283466 0
M  V30 5146 O 510.798 1.80947 0.713324 0
M  V30 5147 C 511.081 2.31516 -2.75812 0
M  V30 5148 C 510.934 1.69054 -4.16822 0
M  V30 5149 C 512.253 3.3304 -2.87702 0
M  V30 5150 H 509.372 0.45379 -0.580727 0
M  V30 5151 H 512.014 0.549327 -1.81886 0
M  V30 5152 H 510.164 2.91438 -2.56897 0
M  V30 5153 H 511.836 1.12923 -4.47265 0
M  V30 5154 H 510.079 0.994485 -4.22247 0
M  V30 5155 H 510.75 2.462 -4.94054 0
M  V30 5156 H 513.226 2.83114 -3.04936 0
M  V30 5157 H 512.102 4.04794 -3.7072 0
M  V30 5158 H 512.363 3.95655 -1.97255 0
M  V30 5159 N 511.423 1.38739 0.74761 0
M  V30 5160 C 512.386 1.36241 1.84312 0
M  V30 5161 C 513.386 0.261811 1.58654 0
M  V30 5162 O 514.576 0.519031 1.66288 0
M  V30 5163 C 511.708 1.12253 3.21888 0
M  V30 5164 H 512.901 2.33712 1.87933 0
M  V30 5165 H 510.454 1.2412 0.949946 0
M  V30 5166 H 511.189 0.154133 3.23934 0
M  V30 5167 H 510.974 1.91943 3.41907 0
M  V30 5168 H 512.464 1.13215 4.0196 0
M  V30 5169 N 512.901 -0.976442 1.23707 0
M  V30 5170 C 513.831 -2.08749 1.04624 0
M  V30 5171 C 514.812 -1.70057 -0.0380956 0
M  V30 5172 O 515.997 -1.93782 0.127308 0
M  V30 5173 C 513.127 -3.41335 0.640902 0
M  V30 5174 C 512.081 -3.93947 1.67302 0
M  V30 5175 C 511.407 -5.22774 1.12301 0
M  V30 5176 C 512.707 -4.22769 3.06697 0
M  V30 5177 H 514.401 -2.24972 1.97555 0
M  V30 5178 H 511.947 -1.08108 0.951247 0
M  V30 5179 H 513.9 -4.18489 0.494434 0
M  V30 5180 H 512.624 -3.24988 -0.324099 0
M  V30 5181 H 511.283 -3.18941 1.80755 0
M  V30 5182 H 510.931 -5.0278 0.148877 0
M  V30 5183 H 510.631 -5.58942 1.81267 0
M  V30 5184 H 512.155 -6.02546 0.988479 0
M  V30 5185 H 513.569 -4.90659 2.96524 0
M  V30 5186 H 511.966 -4.70147 3.72937 0
M  V30 5187 H 513.036 -3.29885 3.55392 0
M  V30 5188 N 514.379 -1.04941 -1.1758 0
M  V30 5189 C 515.656 -0.671918 -1.83697 0
M  V30 5190 C 516.036 0.847929 -1.93322 0
M  V30 5191 O 515.384 1.75287 -1.46583 0
M  V30 5192 C 515.594 -1.35797 -3.21497 0
M  V30 5193 C 516.942 -1.4944 -3.97433 0
M  V30 5194 O 517.966 -1.31678 -3.30967 0
M  V30 5195 O 516.825 -1.78463 -5.1654 0
M  V30 5196 H 513.919 -0.236212 -0.792548 0
M  V30 5197 H 516.465 -1.14884 -1.24899 0
M  V30 5198 H 515.237 -2.39498 -3.09446 0
M  V30 5199 H 514.86 -0.870236 -3.8796 0
M  V30 5200 N 515.857 1.33968 -0.830081 0
M  V30 5201 C 516.789 2.28194 -0.21448 0
M  V30 5202 C 517.802 1.5135 0.599752 0
M  V30 5203 O 518.991 1.73286 0.42826 0
M  V30 5204 C 516.091 3.31221 0.717356 0
M  V30 5205 C 515.264 4.37365 -0.055613 0
M  V30 5206 C 514.323 5.2011 0.798231 0
M  V30 5207 O 513.349 5.68691 0.240616 0
M  V30 5208 N 514.551 5.40523 2.11695 0
M  V30 5209 H 517.316 2.81662 -1.02405 0
M  V30 5210 H 514.877 1.46568 -0.687713 0
M  V30 5211 H 516.869 3.83477 1.29334 0
M  V30 5212 H 515.439 2.78095 1.42765 0
M  V30 5213 H 514.659 3.85727 -0.812936 0
M  V30 5214 H 515.947 5.05397 -0.587444 0
M  V30 5215 H 515.345 5.0274 2.59363 0
M  V30 5216 H 513.902 5.95871 2.64162 0
M  V30 5217 N 517.335 0.585699 1.46312 0
M  V30 5218 C 518.581 0.0808731 2.03239 0
M  V30 5219 C 518.936 -1.26609 1.44872 0
M  V30 5220 O 518.229 -1.81779 0.60556 0
M  V30 5221 C 518.423 -0.0401312 3.57377 0
M  V30 5222 C 518.252 1.29356 4.30694 0
M  V30 5223 C 517.022 1.86849 4.69484 0
M  V30 5224 C 519.22 2.21742 4.64042 0
M  V30 5225 N 517.202 3.13926 5.27564 0
M  V30 5226 C 518.573 3.33408 5.22723 0
M  V30 5227 C 520.628 2.21386 4.45974 0
M  V30 5228 C 519.331 4.44852 5.65242 0
M  V30 5229 C 521.357 3.31862 4.89511 0
M  V30 5230 C 520.719 4.42248 5.48266 0
M  V30 5231 H 516.818 0.072443 0.778637 0
M  V30 5232 H 519.402 0.779254 1.78426 0
M  V30 5233 H 517.573 -0.707686 3.81898 0
M  V30 5234 H 519.305 -0.549615 4.00951 0
M  V30 5235 H 516.06 1.40307 4.52339 0
M  V30 5236 H 516.484 3.78775 5.61122 0
M  V30 5237 H 521.126 1.37314 3.99881 0
M  V30 5238 H 518.844 5.29665 6.10312 0
M  V30 5239 H 522.43 3.32708 4.7728 0
M  V30 5240 H 521.31 5.26323 5.81338 0
M  V30 5241 N 518.813 -1.54241 0.323641 0
M  V30 5242 C 519.776 -2.22997 -0.529602 0
M  V30 5243 C 520.776 -1.22345 -1.04347 0
M  V30 5244 O 521.966 -1.46924 -0.935889 0
M  V30 5245 C 519.098 -2.93409 -1.73562 0
M  V30 5246 H 520.291 -2.99815 0.0714518 0
M  V30 5247 H 517.844 -1.56121 0.0747258 0
M  V30 5248 H 518.579 -2.20729 -2.37591 0
M  V30 5249 H 518.364 -3.67217 -1.37456 0
M  V30 5250 H 519.854 -3.45794 -2.34128 0
M  V30 5251 N 520.291 -0.0518155 -1.57515 0
M  V30 5252 C 521.254 0.907547 -2.10467 0
M  V30 5253 C 522.254 1.23947 -1.02439 0
M  V30 5254 O 523.444 1.17604 -1.2851 0
M  V30 5255 C 520.576 2.21723 -2.58944 0
M  V30 5256 H 521.769 0.44851 -2.96527 0
M  V30 5257 H 519.322 0.196598 -1.55059 0
M  V30 5258 H 520.057 2.72206 -1.76279 0
M  V30 5259 H 519.842 1.98935 -3.37886 0
M  V30 5260 H 521.332 2.90441 -3.00056 0
M  V30 5261 N 521.769 1.56035 0.221574 0
M  V30 5262 C 523.18 1.69229 0.788567 0
M  V30 5263 C 523.531 0.653814 1.84986 0
M  V30 5264 O 522.656 -0.195065 2.15519 0
M  V30 5265 C 523.251 3.06809 1.43713 0
M  V30 5266 C 521.81 3.21858 1.95152 0
M  V30 5267 C 520.957 2.65155 0.811685 0
M  V30 5268 H 523.908 1.587 -0.00307894 0
M  V30 5269 H 523.929 3.02666 2.30594 0
M  V30 5270 H 523.441 3.82369 0.664475 0
M  V30 5271 H 521.542 2.51167 2.7522 0
M  V30 5272 H 521.655 4.29073 2.1315 0
M  V30 5273 H 520.019 2.23635 1.21899 0
M  V30 5274 H 520.802 3.43261 0.0516987 0
M  V30 5275 N 523.247 -0.488276 1.49845 0
M  V30 5276 C 524.157 -1.61451 1.70207 0
M  V30 5277 C 525.173 -1.63877 0.584846 0
M  V30 5278 O 526.349 -1.82063 0.861107 0
M  V30 5279 C 523.414 -2.9776 1.77594 0
M  V30 5280 C 522.475 -3.05861 3.01243 0
M  V30 5281 C 521.708 -4.35668 3.08268 0
M  V30 5282 O 521.931 -5.25197 2.22541 0
M  V30 5283 O 520.865 -4.49005 4.00847 0
M  V30 5284 H 524.691 -1.47199 2.65643 0
M  V30 5285 H 522.276 -0.665939 1.33737 0
M  V30 5286 H 524.158 -3.7875 1.84732 0
M  V30 5287 H 522.833 -3.12248 0.8534 0
M  V30 5288 H 521.74 -2.24012 2.99616 0
M  V30 5289 H 523.073 -2.96304 3.9302 0
M  V30 5290 N 524.725 -1.39134 -0.740242 0
M  V30 5291 C 525.972 -1.36071 -1.49969 0
M  V30 5292 C 526.3 0.0450245 -1.94448 0
M  V30 5293 O 525.555 1.02482 -1.66721 0
M  V30 5294 C 525.854 -2.27457 -2.75678 0
M  V30 5295 C 525.52 -3.75185 -2.50094 0
M  V30 5296 C 524.182 -4.15439 -2.42825 0
M  V30 5297 C 526.534 -4.68643 -2.28086 0
M  V30 5298 C 523.862 -5.4722 -2.11584 0
M  V30 5299 C 526.214 -6.00695 -1.98363 0
M  V30 5300 C 524.878 -6.40018 -1.8956 0
M  V30 5301 H 524.148 -0.497921 -0.548777 0
M  V30 5302 H 526.795 -1.71599 -0.85007 0
M  V30 5303 H 525.1 -1.8503 -3.45356 0
M  V30 5304 H 526.797 -2.22384 -3.33686 0
M  V30 5305 H 523.387 -3.43279 -2.56627 0
M  V30 5306 H 527.571 -4.3838 -2.32672 0
M  V30 5307 H 522.827 -5.76615 -2.03287 0
M  V30 5308 H 527.001 -6.72644 -1.80341 0
M  V30 5309 H 524.628 -7.42051 -1.65117 0
M  V30 5310 N 526.204 0.969867 -1.24223 0
M  V30 5311 C 527.134 2.08191 -1.05729 0
M  V30 5312 C 528.115 1.70075 0.0290765 0
M  V30 5313 O 529.3 1.93712 -0.137583 0
M  V30 5314 C 526.43 3.40991 -0.658995 0
M  V30 5315 C 525.384 3.93054 -1.69389 0
M  V30 5316 C 524.71 5.22171 -1.15072 0
M  V30 5317 C 526.01 4.21137 -3.08935 0
M  V30 5318 H 527.704 2.23921 -1.98746 0
M  V30 5319 H 525.25 1.07602 -0.956967 0
M  V30 5320 H 527.203 4.18221 -0.51662 0
M  V30 5321 H 525.927 3.25155 0.30686 0
M  V30 5322 H 524.586 3.17977 -1.82444 0
M  V30 5323 H 524.234 5.02694 -0.175539 0
M  V30 5324 H 523.934 5.57973 -1.84229 0
M  V30 5325 H 525.458 6.02013 -1.02042 0
M  V30 5326 H 526.872 4.8908 -2.99121 0
M  V30 5327 H 525.269 4.68163 -3.75425 0
M  V30 5328 H 526.339 3.27996 -3.57137 0
M  V30 5329 N 527.682 1.05563 1.17022 0
M  V30 5330 C 528.63 0.653887 2.2322 0
M  V30 5331 C 529.624 -0.326642 1.66221 0
M  V30 5332 O 530.83 -0.192301 1.7897 0
M  V30 5333 H 527.205 0.193297 0.726733 0
M  V30 5334 H 529.176 1.5596 2.54399 0
M  V30 5335 C 527.925 0.0485434 3.47666 0
M  V30 5336 H 527.248 0.79413 3.91834 0
M  V30 5337 H 528.688 -0.195133 4.23551 0
M  V30 5338 C 527.147 -1.20583 3.14581 0
M  V30 5339 O 527.677 -2.29475 3.29703 0
M  V30 5340 N 525.883 -1.10493 2.68774 0
M  V30 5341 H 525.43 -0.218795 2.56669 0
M  V30 5342 H 525.388 -1.94507 2.47011 0
M  V30 5343 N 529.16 -1.33526 0.837174 0
M  V30 5344 C 530.108 -2.31168 0.257698 0
M  V30 5345 C 531.102 -1.5806 -0.609388 0
M  V30 5346 O 532.308 -1.72941 -0.499139 0
M  V30 5347 H 528.683 -0.74922 0.0646058 0
M  V30 5348 H 530.654 -2.77552 1.09578 0
M  V30 5349 C 529.403 -3.4326 -0.553887 0
M  V30 5350 H 528.726 -3.99665 0.104008 0
M  V30 5351 H 530.166 -4.13782 -0.925219 0
M  V30 5352 C 528.625 -2.88965 -1.73207 0
M  V30 5353 O 529.155 -2.85013 -2.83073 0
M  V30 5354 N 527.361 -2.45596 -1.55342 0
M  V30 5355 H 526.908 -2.49009 -0.659705 0
M  V30 5356 H 526.866 -2.0962 -2.34322 0
M  V30 5357 N 530.638 -0.59345 -1.46 0
M  V30 5358 C 531.863 -0.0872365 -2.07216 0
M  V30 5359 C 532.288 1.2131 -1.43755 0
M  V30 5360 O 531.646 1.73528 -0.525152 0
M  V30 5361 C 531.694 0.0538197 -3.6056 0
M  V30 5362 O 530.798 1.10765 -3.97247 0
M  V30 5363 H 530.139 -0.0676598 -0.660544 0
M  V30 5364 H 532.669 -0.819445 -1.87473 0
M  V30 5365 H 532.679 0.256567 -4.07193 0
M  V30 5366 H 531.354 -0.895739 -4.0614 0
M  V30 5367 H 529.931 0.882501 -3.62307 0
M  V30 5368 N 532.116 1.54067 -0.331816 0
M  V30 5369 C 533.046 2.27569 0.522932 0
M  V30 5370 C 534.027 1.28679 1.11247 0
M  V30 5371 O 535.212 1.57504 1.13605 0
M  V30 5372 C 532.342 3.0397 1.67987 0
M  V30 5373 C 531.296 4.10267 1.21924 0
M  V30 5374 C 530.622 4.74555 2.46377 0
M  V30 5375 C 531.922 5.21268 0.32815 0
M  V30 5376 H 533.616 2.99264 -0.0901977 0
M  V30 5377 H 531.162 1.4393 -0.044821 0
M  V30 5378 H 533.115 3.54123 2.28418 0
M  V30 5379 H 531.839 2.29906 2.31971 0
M  V30 5380 H 530.498 3.61009 0.637809 0
M  V30 5381 H 530.146 3.97098 3.08743 0
M  V30 5382 H 529.846 5.46363 2.16243 0
M  V30 5383 H 531.37 5.27487 3.07555 0
M  V30 5384 H 532.784 5.67128 0.838978 0
M  V30 5385 H 531.181 5.99982 0.119228 0
M  V30 5386 H 532.251 4.80673 -0.638839 0
M  V30 5387 N 533.594 0.0601682 1.57485 0
M  V30 5388 C 534.542 -0.928899 2.13247 0
M  V30 5389 C 535.536 -1.31616 1.06647 0
M  V30 5390 O 536.742 -1.29476 1.25043 0
M  V30 5391 H 533.117 -0.317455 0.681708 0
M  V30 5392 H 535.088 -0.433566 2.95233 0
M  V30 5393 C 533.837 -2.19121 2.69965 0
M  V30 5394 H 533.16 -1.90204 3.51657 0
M  V30 5395 H 534.6 -2.86465 3.12592 0
M  V30 5396 C 533.059 -2.94195 1.64168 0
M  V30 5397 O 533.589 -3.87468 1.05978 0
M  V30 5398 N 531.795 -2.57089 1.35476 0
M  V30 5399 H 531.342 -1.81314 1.82984 0
M  V30 5400 H 531.3 -3.07624 0.649196 0
M  V30 5401 N 535.072 -1.5615 -0.213296 0
M  V30 5402 C 536.488 -1.49327 -0.56336 0
M  V30 5403 C 536.688 -0.756826 -1.86747 0
M  V30 5404 O 535.744 -0.299866 -2.50713 0
M  V30 5405 C 537.057 -2.9392 -0.634944 0
M  V30 5406 C 538.605 -3.04487 -0.725013 0
M  V30 5407 C 539.08 -4.50456 -0.82787 0
M  V30 5408 N 540.571 -4.54533 -0.891876 0
M  V30 5409 C 541.306 -5.64766 -0.991315 0
M  V30 5410 N 540.802 -6.84733 -1.05419 0
M  V30 5411 N 542.595 -5.52637 -1.02709 0
M  V30 5412 H 534.746 -2.02453 0.642366 0
M  V30 5413 H 537.009 -0.920548 0.226487 0
M  V30 5414 H 536.715 -3.50783 0.253859 0
M  V30 5415 H 536.589 -3.46274 -1.49579 0
M  V30 5416 H 538.976 -2.47685 -1.60425 0
M  V30 5417 H 539.057 -2.55289 0.161669 0
M  V30 5418 H 538.701 -5.07878 0.0469464 0
M  V30 5419 H 538.631 -4.97369 -1.73009 0
M  V30 5420 H 541.122 -3.68141 -0.85327 0
M  V30 5421 H 541.435 -7.64493 -1.13007 0
M  V30 5422 H 539.78 -6.87427 -1.02318 0
M  V30 5423 H 542.971 -4.5784 -0.974687 0
M  V30 5424 H 543.144 -6.38576 -1.10113 0
M  V30 5425 N 536.55 0.480323 -1.50102 0
M  V30 5426 C 537.5 1.57685 -1.6468 0
M  V30 5427 C 538.484 1.52878 -0.5017 0
M  V30 5428 O 539.676 1.60058 -0.755668 0
M  V30 5429 C 536.805 2.96185 -1.73578 0
M  V30 5430 C 535.891 3.0591 -2.93734 0
M  V30 5431 N 536.282 2.85471 -4.1754 0
M  V30 5432 C 534.58 3.37036 -2.92101 0
M  V30 5433 C 535.281 2.99921 -4.9842 0
M  V30 5434 N 534.257 3.29715 -4.32191 0
M  V30 5435 H 538.059 1.40568 -2.58104 0
M  V30 5436 H 535.573 0.686874 -1.47159 0
M  V30 5437 H 537.57 3.75015 -1.82124 0
M  V30 5438 H 536.23 3.14356 -0.813057 0
M  V30 5439 H 537.241 2.61235 -4.47188 0
M  V30 5440 H 533.918 3.61253 -2.09291 0
M  V30 5441 H 535.308 2.88436 -6.06839 0
M  V30 5442 N 538.028 1.39524 0.732853 0
M  V30 5443 C 539.444 1.21176 1.03868 0
M  V30 5444 C 539.644 0.0748448 2.01361 0
M  V30 5445 O 538.7 -0.57281 2.45917 0
M  V30 5446 C 540.013 2.54667 1.59892 0
M  V30 5447 C 541.561 2.6153 1.71962 0
M  V30 5448 C 542.036 3.95248 2.31394 0
M  V30 5449 N 543.527 3.96899 2.38801 0
M  V30 5450 C 544.262 4.97138 2.85729 0
M  V30 5451 N 543.758 6.07775 3.32537 0
M  V30 5452 N 545.551 4.84516 2.84957 0
M  V30 5453 H 537.702 2.12225 0.086304 0
M  V30 5454 H 539.965 0.942614 0.100907 0
M  V30 5455 H 539.671 3.38423 0.95721 0
M  V30 5456 H 539.545 2.74538 2.58668 0
M  V30 5457 H 541.932 1.78156 2.35254 0
M  V30 5458 H 542.013 2.45507 0.718327 0
M  V30 5459 H 541.657 4.79054 1.68729 0
M  V30 5460 H 541.587 4.08593 3.32204 0
M  V30 5461 H 544.078 3.16998 2.05719 0
M  V30 5462 H 544.391 6.8017 3.66862 0
M  V30 5463 H 542.736 6.11366 3.30541 0
M  V30 5464 H 545.927 3.97185 2.47713 0
M  V30 5465 H 546.1 5.62783 3.21215 0
M  V30 5466 O 539.545 -0.874016 1.35806 0
M  V30 5467 H 540.236 -1.51229 1.21035 0
M  V30 END ATOM
M  V30 BEGIN BOND
M  V30 END BOND
M  V30 END CTAB
M  END
$$$$
