drugbank_target|P22055 Genome polyprotein (DB08231)
 OpenBabel12092120493D

  0  0  0     0  0            999 V3000
M  V30 BEGIN CTAB
M  V30 COUNTS 34374 34778 0 0 0
M  V30 BEGIN ATOM
M  V30 1 H -0.908 1.98254 -0.117106 0
M  V30 2 N 0 1.576 0 0
M  V30 3 C 0.933 2.03868 1.02534 0
M  V30 4 C 1.911 0.928543 1.3348 0
M  V30 5 O 3.095 1.19667 1.45644 0
M  V30 6 C 0.222 2.43627 2.35294 0
M  V30 7 C -0.732 3.65373 2.2001 0
M  V30 8 S 0.101 5.13292 1.52614 0
M  V30 9 C 1.257 5.56322 2.86805 0
M  V30 10 H 1.49 2.90518 0.631377 0
M  V30 11 H -0.977 1.52953 0.210867 0
M  V30 12 H 0.981 2.67203 3.11629 0
M  V30 13 H -0.358 1.57376 2.7183 0
M  V30 14 H -1.165 3.90944 3.18086 0
M  V30 15 H -1.563 3.418 1.51819 0
M  V30 16 H 0.729 5.58782 3.83104 0
M  V30 17 H 1.672 6.56266 2.65933 0
M  V30 18 H 2.08 4.83886 2.90714 0
M  V30 19 N 1.4781 -0.272755 1.55222 0
M  V30 20 C 2.7261 -1.00234 1.75492 0
M  V30 21 C 3.0471 -1.8681 0.5592 0
M  V30 22 O 2.3171 -1.91215 -0.425882 0
M  V30 23 H 0.8971 -0.373076 0.647166 0
M  V30 24 H 3.5591 -0.296926 1.92625 0
M  V30 25 H 2.6551 -1.63913 2.65592 0
M  V30 26 N 2.9562 -1.48159 -0.537278 0
M  V30 27 C 3.9192 -1.61665 -1.62472 0
M  V30 28 C 4.9192 -0.490395 -1.5314 0
M  V30 29 O 6.1092 -0.755998 -1.5694 0
M  V30 30 C 3.2412 -1.57997 -3.02076 0
M  V30 31 H 4.4342 -2.58621 -1.51839 0
M  V30 32 H 1.9872 -1.36647 -0.758771 0
M  V30 33 H 2.7222 -0.624913 -3.18222 0
M  V30 34 H 2.5072 -2.39755 -3.10258 0
M  V30 35 H 3.9972 -1.70627 -3.81151 0
M  V30 36 N 4.4343 0.785586 -1.36625 0
M  V30 37 C 5.3663 1.90711 -1.2713 0
M  V30 38 C 6.3793 1.61688 -0.189986 0
M  V30 39 O 7.5683 1.72864 -0.445014 0
M  V30 40 C 4.6683 3.25611 -0.939713 0
M  V30 41 C 3.8413 3.82385 -2.12369 0
M  V30 42 C 2.9003 4.95732 -1.76456 0
M  V30 43 O 1.9263 5.12047 -2.48589 0
M  V30 44 N 3.1283 5.76258 -0.700492 0
M  V30 45 H 5.8933 1.99376 -2.23762 0
M  V30 46 H 3.4543 0.964041 -1.30069 0
M  V30 47 H 5.4463 3.98937 -0.680554 0
M  V30 48 H 4.0163 3.12538 -0.0624074 0
M  V30 49 H 3.2363 3.01001 -2.54543 0
M  V30 50 H 4.5243 4.17047 -2.9146 0
M  V30 51 H 3.9223 5.65609 -0.101624 0
M  V30 52 H 2.4793 6.4987 -0.501165 0
M  V30 53 N 5.9124 1.20967 1.01018 0
M  V30 54 C 7.1584 1.02526 1.74975 0
M  V30 55 C 7.4914 -0.4408 1.89131 0
M  V30 56 O 6.7664 -1.32718 1.42184 0
M  V30 57 C 7.0494 1.71699 3.1653 0
M  V30 58 C 6.9024 3.25791 3.10129 0
M  V30 59 C 8.2214 1.45531 4.15342 0
M  V30 60 H 5.3404 0.373863 0.635134 0
M  V30 61 H 7.9824 1.49071 1.17805 0
M  V30 62 H 6.1324 1.32128 3.65341 0
M  V30 63 H 7.8044 3.74697 2.69072 0
M  V30 64 H 6.0474 3.56363 2.47362 0
M  V30 65 H 6.7184 3.69353 4.10222 0
M  V30 66 H 9.1944 1.79872 3.75213 0
M  V30 67 H 8.0704 1.96453 5.1254 0
M  V30 68 H 8.3314 0.384237 4.40427 0
M  V30 69 N 7.3905 -1.2043 1.01659 0
M  V30 70 C 8.6155 -1.94318 0.724942 0
M  V30 71 C 9.0405 -1.74266 -0.708034 0
M  V30 72 O 8.3985 -1.03694 -1.48719 0
M  V30 73 C 8.4465 -3.44486 1.06591 0
M  V30 74 O 7.5505 -4.12017 0.177599 0
M  V30 75 H 6.8915 -0.60708 0.26898 0
M  V30 76 H 9.4215 -1.52861 1.35995 0
M  V30 77 H 9.4315 -3.95106 1.01762 0
M  V30 78 H 8.1065 -3.58404 2.10997 0
M  V30 79 H 6.6835 -3.71821 0.283421 0
M  V30 80 N 8.8686 -0.792821 -1.36206 0
M  V30 81 C 10.0966 -0.378825 -2.03402 0
M  V30 82 C 10.5116 1.00586 -1.59774 0
M  V30 83 O 9.8686 1.64574 -0.788764 0
M  V30 84 C 9.9196 -0.43683 -3.58851 0
M  V30 85 O 9.6406 -1.76691 -4.00889 0
M  V30 86 C 11.1416 -0.0138943 -4.43298 0
M  V30 87 H 8.3616 -0.155673 -0.652692 0
M  V30 88 H 10.9056 -1.07261 -1.74113 0
M  V30 89 H 9.0606 0.208575 -3.86838 0
M  V30 90 H 9.4746 -1.72011 -4.95492 0
M  V30 91 H 10.9486 -0.105615 -5.51899 0
M  V30 92 H 11.4256 1.03915 -4.2673 0
M  V30 93 H 12.0316 -0.63192 -4.20579 0
M  V30 94 N 10.3467 1.47872 -0.545128 0
M  V30 95 C 11.2787 2.27869 0.246621 0
M  V30 96 C 12.2917 1.36282 0.890561 0
M  V30 97 O 13.4807 1.61207 0.766449 0
M  V30 98 C 10.5807 3.10159 1.36582 0
M  V30 99 C 9.7537 4.29627 0.820954 0
M  V30 100 C 8.8127 4.93607 1.82314 0
M  V30 101 O 7.8387 5.52366 1.37406 0
M  V30 102 N 9.0407 4.87211 3.15603 0
M  V30 103 H 11.8057 2.96459 -0.439539 0
M  V30 104 H 9.3667 1.57367 -0.380421 0
M  V30 105 H 11.3587 3.49829 2.03474 0
M  V30 106 H 9.9287 2.43891 1.9554 0
M  V30 107 H 9.1487 3.94192 -0.0244032 0
M  V30 108 H 10.4367 5.06928 0.436063 0
M  V30 109 H 9.8347 4.40651 3.54744 0
M  V30 110 H 8.3917 5.30937 3.78087 0
M  V30 111 N 11.8248 0.280983 1.55075 0
M  V30 112 C 12.7718 -0.603937 2.22758 0
M  V30 113 C 13.7418 -1.1452 1.20309 0
M  V30 114 O 14.9268 -1.19343 1.48869 0
M  V30 115 C 12.0668 -1.77947 2.95684 0
M  V30 116 C 11.1798 -1.2715 4.12864 0
M  V30 117 C 10.3148 -2.4093 4.7342 0
M  V30 118 C 9.3538 -1.87165 5.82783 0
M  V30 119 N 8.4908 -2.94441 6.37377 0
M  V30 120 H 13.3308 -0.020124 2.97993 0
M  V30 121 H 10.8678 0.00183425 1.471 0
M  V30 122 H 12.8258 -2.47055 3.36184 0
M  V30 123 H 11.4558 -2.33522 2.22861 0
M  V30 124 H 10.5078 -0.473331 3.77444 0
M  V30 125 H 11.8198 -0.837751 4.91715 0
M  V30 126 H 10.9738 -3.18021 5.1667 0
M  V30 127 H 9.7128 -2.87623 3.93859 0
M  V30 128 H 8.7178 -1.08556 5.38976 0
M  V30 129 H 9.9428 -1.41401 6.64216 0
M  V30 130 H 7.8888 -3.40505 5.60707 0
M  V30 131 H 7.8058 -2.55501 7.11516 0
M  V30 132 H 9.0738 -3.71489 6.85285 0
M  V30 133 N 13.3029 -1.57598 0.00835791 0
M  V30 134 C 14.5309 -1.95214 -0.68549 0
M  V30 135 C 14.9459 -0.883706 -1.66841 0
M  V30 136 O 14.3029 0.136565 -1.81988 0
M  V30 137 C 14.3539 -3.32865 -1.41007 0
M  V30 138 O 14.0749 -4.35609 -0.466552 0
M  V30 139 C 15.5759 -3.84991 -2.19765 0
M  V30 140 H 12.7959 -0.643422 -0.190392 0
M  V30 141 H 15.3399 -2.04406 0.0619607 0
M  V30 142 H 13.4949 -3.24956 -2.10908 0
M  V30 143 H 13.9089 -5.15288 -0.978699 0
M  V30 144 H 15.3829 -4.8371 -2.65948 0
M  V30 145 H 15.8599 -3.18137 -3.02796 0
M  V30 146 H 16.4659 -3.96103 -1.54864 0
M  V30 147 N 14.781 0.264519 -1.55364 0
M  V30 148 C 16.029 0.993021 -1.76021 0
M  V30 149 C 16.35 1.86511 -0.569099 0
M  V30 150 O 15.62 1.91438 0.415735 0
M  V30 151 H 14.2 0.369639 -0.649135 0
M  V30 152 H 16.862 0.286707 -1.9278 0
M  V30 153 H 15.958 1.62502 -2.66457 0
M  V30 154 N 16.2591 1.48442 0.529413 0
M  V30 155 C 17.2221 1.62524 1.61612 0
M  V30 156 C 18.2221 0.498509 1.52877 0
M  V30 157 O 19.4121 0.76431 1.56537 0
M  V30 158 C 16.5441 1.59597 3.01233 0
M  V30 159 H 17.7371 2.59423 1.50465 0
M  V30 160 H 15.2901 1.37047 0.751514 0
M  V30 161 H 16.0251 0.641781 3.17886 0
M  V30 162 H 15.8101 2.41397 3.08982 0
M  V30 163 H 17.3001 1.72646 3.80241 0
M  V30 164 N 17.7372 -0.778329 1.37039 0
M  V30 165 C 18.6872 -1.88142 1.28789 0
M  V30 166 C 19.6712 -1.59923 0.177063 0
M  V30 167 O 20.8632 -1.72165 0.410873 0
M  V30 168 C 17.9922 -3.25518 1.09055 0
M  V30 169 C 17.0782 -3.5971 2.24654 0
M  V30 170 N 17.4692 -3.65131 3.50018 0
M  V30 171 C 15.7672 -3.89837 2.16663 0
M  V30 172 C 16.4682 -3.95882 4.26207 0
M  V30 173 N 15.4442 -4.11441 3.55271 0
M  V30 174 H 19.2462 -1.90575 2.23737 0
M  V30 175 H 16.7602 -0.974435 1.29917 0
M  V30 176 H 18.7572 -4.04423 1.0123 0
M  V30 177 H 17.4172 -3.24353 0.15018 0
M  V30 178 H 18.4282 -3.475 3.84011 0
M  V30 179 H 15.1052 -3.96533 1.30645 0
M  V30 180 H 16.4952 -4.06907 5.34674 0
M  V30 181 N 19.2153 -1.21501 -1.00376 0
M  V30 182 C 20.1253 -0.991447 -2.12621 0
M  V30 183 C 21.1413 0.0568446 -1.73907 0
M  V30 184 O 22.3173 -0.13348 -2.00957 0
M  V30 185 C 19.3823 -0.560312 -3.42142 0
M  V30 186 C 18.4433 -1.68096 -3.95022 0
M  V30 187 C 17.6763 -1.2703 -5.18362 0
M  V30 188 O 17.8993 -0.144438 -5.70217 0
M  V30 189 O 16.8333 -2.08269 -5.64719 0
M  V30 190 H 20.6593 -1.93158 -2.34358 0
M  V30 191 H 18.2443 -0.999999 -1.10997 0
M  V30 192 H 20.1263 -0.329724 -4.20108 0
M  V30 193 H 18.8013 0.351089 -3.2179 0
M  V30 194 H 17.7083 -1.96597 -3.18278 0
M  V30 195 H 19.0413 -2.56983 -4.19786 0
M  V30 196 N 20.6934 1.19889 -1.02296 0
M  V30 197 C 21.6414 2.24938 -0.592081 0
M  V30 198 C 22.6354 1.65257 0.372357 0
M  V30 199 O 23.8414 1.78371 0.241583 0
M  V30 200 H 20.2164 0.731787 -0.173182 0
M  V30 201 H 22.1874 2.58603 -1.48885 0
M  V30 202 C 20.9364 3.47668 0.047351 0
M  V30 203 H 20.2594 3.93875 -0.685772 0
M  V30 204 H 21.6994 4.22852 0.311862 0
M  V30 205 C 20.1584 3.11136 1.29212 0
M  V30 206 O 20.6884 3.2325 2.38479 0
M  V30 207 N 18.8944 2.65625 1.17863 0
M  V30 208 H 18.4414 2.55968 0.289493 0
M  V30 209 H 18.3994 2.41553 2.01245 0
M  V30 210 N 22.1715 0.800033 1.35784 0
M  V30 211 C 23.1035 0.163596 2.28615 0
M  V30 212 C 24.1165 -0.633317 1.49976 0
M  V30 213 O 25.3055 -0.466754 1.72289 0
M  V30 214 C 22.4055 -0.790958 3.29541 0
M  V30 215 C 21.5785 -0.0418255 4.3738 0
M  V30 216 C 20.6375 -0.91389 5.18203 0
M  V30 217 O 19.6635 -0.367234 5.68014 0
M  V30 218 N 20.8655 -2.23682 5.35674 0
M  V30 219 H 23.6305 0.96105 2.83873 0
M  V30 220 H 21.1915 0.654894 1.48063 0
M  V30 221 H 23.1835 -1.37844 3.80501 0
M  V30 222 H 21.7535 -1.48925 2.74846 0
M  V30 223 H 20.9735 0.726813 3.87442 0
M  V30 224 H 22.2615 0.474719 5.06581 0
M  V30 225 H 21.6595 -2.70497 4.96838 0
M  V30 226 H 20.2165 -2.77369 5.89839 0
M  V30 227 N 23.6496 -1.47581 0.552962 0
M  V30 228 C 24.5976 -2.31648 -0.21023 0
M  V30 229 C 25.5916 -1.42663 -0.913432 0
M  V30 230 O 26.7976 -1.5945 -0.835201 0
M  V30 231 H 23.1726 -0.746989 -0.0866676 0
M  V30 232 H 25.1436 -2.93869 0.518051 0
M  V30 233 C 23.8926 -3.25226 -1.22976 0
M  V30 234 H 23.2156 -3.93658 -0.698077 0
M  V30 235 H 24.6556 -3.86889 -1.73473 0
M  V30 236 C 23.1146 -2.48448 -2.27542 0
M  V30 237 O 23.6446 -2.22585 -3.34393 0
M  V30 238 N 21.8506 -2.09532 -2.01357 0
M  V30 239 H 21.3976 -2.30765 -1.14478 0
M  V30 240 H 21.3556 -1.58476 -2.71538 0
M  V30 241 N 25.1277 -0.289203 -1.54924 0
M  V30 242 C 26.3737 0.323998 -2.00195 0
M  V30 243 C 26.7067 1.54441 -1.17735 0
M  V30 244 O 25.9817 1.92875 -0.250878 0
M  V30 245 C 26.2647 0.692276 -3.53383 0
M  V30 246 C 26.1177 -0.536457 -4.46589 0
M  V30 247 C 27.4367 1.52335 -4.12895 0
M  V30 248 H 24.5557 0.116289 -0.727768 0
M  V30 249 H 27.1977 -0.398954 -1.85764 0
M  V30 250 H 25.3477 1.30822 -3.65811 0
M  V30 251 H 27.0197 -1.17499 -4.46085 0
M  V30 252 H 25.2627 -1.17192 -4.1767 0
M  V30 253 H 25.9337 -0.234806 -5.515 0
M  V30 254 H 28.4097 1.00302 -4.0383 0
M  V30 255 H 27.2857 1.74982 -5.20262 0
M  V30 256 H 27.5467 2.50886 -3.64018 0
M  V30 257 N 26.6058 1.57591 -0.0167156 0
M  V30 258 C 27.5688 2.08393 0.954204 0
M  V30 259 C 28.5688 0.996531 1.26198 0
M  V30 260 O 29.7588 1.25858 1.20438 0
M  V30 261 C 26.8908 2.5394 2.27436 0
M  V30 262 H 28.0838 2.95455 0.514451 0
M  V30 263 H 25.6368 1.54582 0.231089 0
M  V30 264 H 26.3718 1.70171 2.76066 0
M  V30 265 H 26.1568 3.33371 2.06412 0
M  V30 266 H 27.6468 2.93512 2.97053 0
M  V30 267 N 28.0839 -0.256276 1.55502 0
M  V30 268 C 29.0469 -1.30047 1.88734 0
M  V30 269 C 30.0469 -1.4154 0.763086 0
M  V30 270 O 31.2369 -1.40403 1.03115 0
M  V30 271 C 28.3689 -2.67953 2.10747 0
M  V30 272 H 29.5619 -1.01802 2.82093 0
M  V30 273 H 27.1149 -0.495134 1.4825 0
M  V30 274 H 27.8499 -3.01351 1.19825 0
M  V30 275 H 27.6349 -2.60993 2.92617 0
M  V30 276 H 29.1249 -3.43368 2.37673 0
M  V30 277 N 29.562 -1.4872 -0.521534 0
M  V30 278 C 30.51 -1.64328 -1.64618 0
M  V30 279 C 31.504 -0.50953 -1.61555 0
M  V30 280 O 32.71 -0.688525 -1.66311 0
M  V30 281 H 29.085 -0.517805 -0.545328 0
M  V30 282 H 31.056 -2.58767 -1.48601 0
M  V30 283 C 29.805 -1.70805 -3.02855 0
M  V30 284 H 29.128 -2.5741 -3.05909 0
M  V30 285 H 30.568 -1.85766 -3.81139 0
M  V30 286 C 29.027 -0.448479 -3.33902 0
M  V30 287 O 29.557 0.434928 -3.99339 0
M  V30 288 N 27.763 -0.317616 -2.88859 0
M  V30 289 H 27.31 -1.03748 -2.35784 0
M  V30 290 H 27.268 0.524113 -3.10001 0
M  V30 291 N 31.0401 0.771051 -1.3745 0
M  V30 292 C 32.2881 1.52661 -1.32435 0
M  V30 293 C 32.6091 1.9479 0.0905024 0
M  V30 294 O 31.8791 1.66348 1.03466 0
M  V30 295 H 30.4591 0.566218 -0.487244 0
M  V30 296 H 33.1211 0.917636 -1.71946 0
M  V30 297 H 32.2171 2.42568 -1.96385 0
M  V30 298 N 32.5182 1.22032 0.997298 0
M  V30 299 C 33.7432 1.06921 1.77715 0
M  V30 300 C 34.1682 -0.376226 1.84299 0
M  V30 301 O 33.5262 -1.27165 1.29223 0
M  V30 302 C 33.5742 1.67996 3.19076 0
M  V30 303 O 32.6782 0.930653 4.01762 0
M  V30 304 H 32.0192 0.375814 0.547412 0
M  V30 305 H 34.5492 1.61737 1.25309 0
M  V30 306 H 34.5592 1.72538 3.69723 0
M  V30 307 H 33.2342 2.73182 3.13599 0
M  V30 308 H 31.8112 0.960917 3.60307 0
M  V30 309 N 33.9963 -1.19345 1.0293 0
M  V30 310 C 35.2243 -1.92997 0.745644 0
M  V30 311 C 35.6393 -1.75519 -0.695589 0
M  V30 312 O 34.9963 -1.07737 -1.47306 0
M  V30 313 C 35.0473 -3.44741 1.08792 0
M  V30 314 O 34.7683 -3.61658 2.47256 0
M  V30 315 C 36.2693 -4.35515 0.827129 0
M  V30 316 H 33.4893 -0.613042 0.272801 0
M  V30 317 H 36.0333 -1.51473 1.3739 0
M  V30 318 H 34.1883 -3.84097 0.504832 0
M  V30 319 H 34.6023 -4.55514 2.60015 0
M  V30 320 H 36.0763 -5.40589 1.11658 0
M  V30 321 H 36.5533 -4.38552 -0.238436 0
M  V30 322 H 37.1593 -4.01841 1.39297 0
M  V30 323 N 35.4744 -0.807222 -1.35358 0
M  V30 324 C 36.7234 -0.384376 -1.98004 0
M  V30 325 C 37.0364 1.0543 -1.64754 0
M  V30 326 O 38.2424 1.58029 -2.20769 0
M  V30 327 C 36.6984 -0.636326 -3.5423 0
M  V30 328 C 36.3064 -2.08759 -3.96388 0
M  V30 329 C 38.0504 -0.278869 -4.23583 0
M  V30 330 C 35.9574 -2.28525 -5.45463 0
M  V30 331 H 34.8874 -0.139986 -0.740891 0
M  V30 332 H 37.5384 -0.991369 -1.54415 0
M  V30 333 H 35.9204 0.0406256 -3.95979 0
M  V30 334 H 37.0944 -2.8024 -3.6579 0
M  V30 335 H 35.4094 -2.40497 -3.39926 0
M  V30 336 H 38.0064 -0.404599 -5.33167 0
M  V30 337 H 38.3494 0.775012 -4.09022 0
M  V30 338 H 38.8824 -0.909764 -3.87257 0
M  V30 339 H 35.6214 -3.32361 -5.64992 0
M  V30 340 H 35.1414 -1.61569 -5.77629 0
M  V30 341 H 36.8204 -2.10109 -6.11934 0
M  V30 342 N 36.9525 1.47285 -0.560781 0
M  V30 343 C 37.9005 2.31756 0.197942 0
M  V30 344 C 38.8945 1.43146 0.905854 0
M  V30 345 O 40.1005 1.59891 0.826733 0
M  V30 346 H 36.4755 0.747438 0.0827049 0
M  V30 347 H 38.4465 2.9359 -0.533629 0
M  V30 348 C 37.1955 3.25874 1.21249 0
M  V30 349 H 36.5185 3.94023 0.67719 0
M  V30 350 H 37.9585 3.87803 1.71419 0
M  V30 351 C 36.4175 2.49651 2.26221 0
M  V30 352 O 36.9475 2.24355 3.33208 0
M  V30 353 N 35.1535 2.10597 2.00243 0
M  V30 354 H 34.7005 2.31369 1.13252 0
M  V30 355 H 34.6585 1.59913 2.70694 0
M  V30 356 N 38.4306 0.297415 1.54768 0
M  V30 357 C 39.6606 -0.315165 2.04182 0
M  V30 358 C 40.0686 -1.4834 1.17439 0
M  V30 359 O 39.4116 -1.82695 0.191891 0
M  V30 360 C 39.4736 -0.837583 3.49607 0
M  V30 361 C 39.1376 0.204912 4.5654 0
M  V30 362 C 40.1346 1.03214 5.09552 0
M  V30 363 C 37.8196 0.345578 5.0111 0
M  V30 364 C 39.8136 1.986 6.05671 0
M  V30 365 C 37.5006 1.30289 5.97049 0
M  V30 366 C 38.4986 2.12159 6.49213 0
M  V30 367 O 38.1866 3.06268 7.43273 0
M  V30 368 H 37.9186 -0.0729646 0.672051 0
M  V30 369 H 40.4726 0.433907 2.00765 0
M  V30 370 H 38.7026 -1.63712 3.50336 0
M  V30 371 H 40.3916 -1.36566 3.82236 0
M  V30 372 H 41.1576 0.934312 4.75916 0
M  V30 373 H 37.0366 -0.28171 4.60138 0
M  V30 374 H 40.5806 2.62542 6.46311 0
M  V30 375 H 36.4776 1.40145 6.30103 0
M  V30 376 H 37.2456 3.01205 7.61064 0
M  V30 377 N 39.9087 -1.5758 0.0250728 0
M  V30 378 C 41.1367 -1.9593 -0.664747 0
M  V30 379 C 41.5517 -0.901352 -1.65895 0
M  V30 380 O 40.9087 0.117255 -1.82123 0
M  V30 381 C 40.9597 -3.34342 -1.37468 0
M  V30 382 O 40.6807 -4.36079 -0.420324 0
M  V30 383 C 42.1817 -3.873 -2.1567 0
M  V30 384 H 39.4017 -0.645405 -0.183557 0
M  V30 385 H 41.9457 -2.04329 0.0836372 0
M  V30 386 H 40.1007 -3.27175 -2.0745 0
M  V30 387 H 40.5147 -5.16297 -0.923991 0
M  V30 388 H 41.9887 -4.86504 -2.60803 0
M  V30 389 H 42.4657 -3.21331 -2.99405 0
M  V30 390 H 43.0717 -3.97723 -1.50654 0
M  V30 391 N 41.3868 0.248026 -1.55636 0
M  V30 392 C 42.6148 0.993808 -1.81469 0
M  V30 393 C 43.0298 1.78991 -0.60064 0
M  V30 394 O 42.3868 1.77345 0.430682 0
M  V30 395 C 42.4378 1.93258 -3.05506 0
M  V30 396 O 42.1588 1.16869 -4.22224 0
M  V30 397 C 43.6598 2.79444 -3.4413 0
M  V30 398 H 40.8798 0.292486 -0.603898 0
M  V30 399 H 43.4238 0.271253 -2.02693 0
M  V30 400 H 41.5788 2.60943 -2.86335 0
M  V30 401 H 41.9928 1.80359 -4.92515 0
M  V30 402 H 43.4668 3.41066 -4.34026 0
M  V30 403 H 43.9438 3.50499 -2.64665 0
M  V30 404 H 44.5498 2.17214 -3.65648 0
M  V30 405 N 42.8649 1.48995 0.513639 0
M  V30 406 C 44.1139 1.57093 1.2651 0
M  V30 407 C 44.4269 0.257091 1.93903 0
M  V30 408 O 45.6329 0.216478 2.70636 0
M  V30 409 C 44.0889 2.77118 2.29638 0
M  V30 410 C 43.6969 4.15209 1.68241 0
M  V30 411 C 45.4409 2.94538 3.05692 0
M  V30 412 C 43.3479 5.26474 2.69406 0
M  V30 413 H 42.2779 0.584876 0.475854 0
M  V30 414 H 44.9289 1.7536 0.540487 0
M  V30 415 H 43.3109 2.52319 3.05207 0
M  V30 416 H 44.4849 4.50094 0.987505 0
M  V30 417 H 42.7999 4.03042 1.04623 0
M  V30 418 H 45.3969 3.74832 3.8132 0
M  V30 419 H 45.7399 2.04614 3.62545 0
M  V30 420 H 46.2729 3.19316 2.37238 0
M  V30 421 H 43.0119 6.18417 2.17351 0
M  V30 422 H 42.5319 4.96058 3.37175 0
M  V30 423 H 44.2109 5.55277 3.32078 0
M  V30 424 N 44.343 -0.763751 1.37857 0
M  V30 425 C 45.291 -1.89864 1.34367 0
M  V30 426 C 46.285 -1.67816 0.231143 0
M  V30 427 O 47.491 -1.75508 0.399617 0
M  V30 428 H 43.866 -0.624501 0.41893 0
M  V30 429 H 45.837 -1.89925 2.30155 0
M  V30 430 C 44.586 -3.27227 1.1755 0
M  V30 431 H 43.909 -3.44773 2.02414 0
M  V30 432 H 45.349 -4.06911 1.1916 0
M  V30 433 C 43.808 -3.36692 -0.118311 0
M  V30 434 O 44.338 -3.86374 -1.09902 0
M  V30 435 N 42.544 -2.90092 -0.171717 0
M  V30 436 H 42.091 -2.49853 0.627012 0
M  V30 437 H 42.049 -2.96806 -1.03699 0
M  V30 438 N 45.8211 -1.22559 -0.990812 0
M  V30 439 C 47.0511 -1.07623 -1.76355 0
M  V30 440 C 47.4591 0.37601 -1.85426 0
M  V30 441 O 46.8021 1.27228 -1.32509 0
M  V30 442 C 46.8641 -1.61507 -3.21179 0
M  V30 443 C 46.5281 -3.10146 -3.35646 0
M  V30 444 C 47.5251 -4.07553 -3.22796 0
M  V30 445 C 45.2101 -3.49644 -3.60631 0
M  V30 446 C 47.2041 -5.42442 -3.34716 0
M  V30 447 C 44.8911 -4.84682 -3.72192 0
M  V30 448 C 45.8891 -5.8089 -3.59243 0
M  V30 449 O 45.5771 -7.13476 -3.70415 0
M  V30 450 H 45.3091 -0.377745 -0.560611 0
M  V30 451 H 47.8631 -1.62658 -1.25425 0
M  V30 452 H 46.0931 -1.00881 -3.73309 0
M  V30 453 H 47.7821 -1.42202 -3.80175 0
M  V30 454 H 48.5481 -3.78381 -3.03403 0
M  V30 455 H 44.4271 -2.75282 -3.69785 0
M  V30 456 H 47.9711 -6.17518 -3.24526 0
M  V30 457 H 43.8681 -5.13534 -3.91092 0
M  V30 458 H 44.6361 -7.21083 -3.87275 0
M  V30 459 N 47.2992 1.18797 -1.03562 0
M  V30 460 C 48.5292 1.92319 -0.754773 0
M  V30 461 C 48.9372 1.7612 0.691248 0
M  V30 462 O 48.2802 1.08491 1.48241 0
M  V30 463 C 48.3422 3.44284 -1.03484 0
M  V30 464 C 48.0062 3.84258 -2.47376 0
M  V30 465 C 49.0032 3.88459 -3.45537 0
M  V30 466 C 46.6882 4.15701 -2.81954 0
M  V30 467 C 48.6822 4.23545 -4.76328 0
M  V30 468 C 46.3692 4.50458 -4.12954 0
M  V30 469 C 47.3672 4.54356 -5.09951 0
M  V30 470 O 47.0552 4.88305 -6.38603 0
M  V30 471 H 46.7872 0.617527 -0.275021 0
M  V30 472 H 49.3412 1.51683 -1.38497 0
M  V30 473 H 47.5712 3.85135 -0.347513 0
M  V30 474 H 49.2602 3.99049 -0.7426 0
M  V30 475 H 50.0262 3.6431 -3.20162 0
M  V30 476 H 45.9052 4.11847 -2.0713 0
M  V30 477 H 49.4492 4.26502 -5.52035 0
M  V30 478 H 45.3462 4.74067 -4.38099 0
M  V30 479 H 46.1142 5.06227 -6.43177 0
M  V30 480 N 48.7773 0.814389 1.34928 0
M  V30 481 C 49.7243 0.22822 2.29669 0
M  V30 482 C 50.6943 -0.642164 1.53184 0
M  V30 483 O 51.8793 -0.585605 1.81591 0
M  V30 484 C 49.0193 -0.61089 3.3965 0
M  V30 485 C 48.1323 0.280792 4.31086 0
M  V30 486 C 47.2673 -0.567067 5.28165 0
M  V30 487 C 46.3063 0.324531 6.11239 0
M  V30 488 N 45.4433 -0.483756 7.00431 0
M  V30 489 H 50.2833 1.04153 2.79206 0
M  V30 490 H 47.8203 0.525133 1.37407 0
M  V30 491 H 49.7783 -1.11263 4.0209 0
M  V30 492 H 48.4083 -1.38939 2.91369 0
M  V30 493 H 47.4603 0.900688 3.69583 0
M  V30 494 H 48.7723 0.966723 4.89342 0
M  V30 495 H 47.9263 -1.13363 5.96015 0
M  V30 496 H 46.6653 -1.28654 4.70425 0
M  V30 497 H 45.6703 0.903298 5.42329 0
M  V30 498 H 46.8953 1.04198 6.71059 0
M  V30 499 H 44.8413 -1.18706 6.45171 0
M  V30 500 H 44.7583 0.143965 7.55863 0
M  V30 501 H 46.0263 -1.03334 7.7262 0
M  V30 502 N 50.2554 -1.46986 0.568584 0
M  V30 503 C 51.5324 -1.95592 -0.0174074 0
M  V30 504 C 51.9124 -1.51124 -1.47393 0
M  V30 505 O 51.2604 -0.755329 -2.15655 0
M  V30 506 C 51.4704 -3.48719 0.139913 0
M  V30 507 C 52.8184 -4.246 0.000426376 0
M  V30 508 O 53.8424 -3.56135 0.0680316 0
M  V30 509 O 52.7014 -5.46302 -0.146988 0
M  V30 510 H 49.7954 -0.82498 -0.0577599 0
M  V30 511 H 52.3414 -1.57335 0.635909 0
M  V30 512 H 51.1134 -3.73927 1.15301 0
M  V30 513 H 50.7364 -3.93771 -0.550491 0
M  V30 514 N 51.7335 -0.305618 -1.54608 0
M  V30 515 C 52.9585 0.307562 -2.05107 0
M  V30 516 C 53.3835 1.46385 -1.18123 0
M  V30 517 O 52.7415 1.8034 -0.186324 0
M  V30 518 C 52.7895 0.73704 -3.52987 0
M  V30 519 O 51.8935 1.84134 -3.6901 0
M  V30 520 H 51.2345 0.0589143 -0.661381 0
M  V30 521 H 53.7645 -0.448807 -1.99617 0
M  V30 522 H 53.7745 1.02459 -3.94925 0
M  V30 523 H 52.4495 -0.108773 -4.15758 0
M  V30 524 H 51.0265 1.55398 -3.38978 0
M  V30 525 N 53.2116 1.57565 -0.0334293 0
M  V30 526 C 54.1746 2.09393 0.932048 0
M  V30 527 C 55.1746 1.00986 1.25134 0
M  V30 528 O 56.3646 1.27129 1.19096 0
M  V30 529 C 53.4966 2.56338 2.2473 0
M  V30 530 H 54.6896 2.95984 0.483085 0
M  V30 531 H 52.2426 1.54819 0.21468 0
M  V30 532 H 52.9776 1.7309 2.74245 0
M  V30 533 H 52.7626 3.35542 2.02865 0
M  V30 534 H 54.2526 2.96646 2.93923 0
M  V30 535 N 54.6897 -0.239769 1.55765 0
M  V30 536 C 55.9147 -0.988373 1.82335 0
M  V30 537 C 56.3397 -1.77886 0.611421 0
M  V30 538 O 55.6977 -1.75889 -0.439639 0
M  V30 539 C 55.7457 -1.89627 3.06715 0
M  V30 540 O 54.8497 -2.98904 2.84131 0
M  V30 541 H 54.1907 -0.280858 0.601677 0
M  V30 542 H 56.7207 -0.258597 2.02959 0
M  V30 543 H 56.7307 -2.30957 3.36338 0
M  V30 544 H 55.4057 -1.31511 3.9456 0
M  V30 545 H 53.9827 -2.61651 2.65694 0
M  V30 546 N 56.1678 -1.49265 -0.50573 0
M  V30 547 C 57.1158 -1.66065 -1.62866 0
M  V30 548 C 58.1098 -0.526636 -1.61006 0
M  V30 549 O 59.3158 -0.706126 -1.65571 0
M  V30 550 H 55.6908 -0.52356 -0.539805 0
M  V30 551 H 57.6618 -2.60329 -1.45848 0
M  V30 552 C 56.4108 -1.74008 -3.01026 0
M  V30 553 H 55.7338 -2.6064 -3.03161 0
M  V30 554 H 57.1738 -1.89798 -3.79147 0
M  V30 555 C 55.6328 -0.483868 -3.33407 0
M  V30 556 O 56.1628 0.392548 -3.99777 0
M  V30 557 N 54.3688 -0.348236 -2.88506 0
M  V30 558 H 53.9158 -1.06242 -2.34671 0
M  V30 559 H 53.8738 0.491204 -3.10539 0
M  V30 560 N 57.6459 0.756429 -1.3826 0
M  V30 561 C 58.8709 1.55077 -1.37717 0
M  V30 562 C 59.2959 1.88073 0.03164 0
M  V30 563 O 58.6539 1.50364 1.01293 0
M  V30 564 C 58.7019 2.8283 -2.23695 0
M  V30 565 O 57.8059 3.77862 -1.6521 0
M  V30 566 H 57.1469 0.469152 -0.469885 0
M  V30 567 H 59.6769 0.935019 -1.81985 0
M  V30 568 H 59.6869 3.31783 -2.37453 0
M  V30 569 H 58.3619 2.58144 -3.2609 0
M  V30 570 H 56.9389 3.36555 -1.60578 0
M  V30 571 N 59.124 1.23083 0.984299 0
M  V30 572 C 60.087 1.00979 2.05757 0
M  V30 573 C 61.087 -0.0269573 1.60777 0
M  V30 574 O 62.277 0.212403 1.729 0
M  V30 575 C 59.409 0.527072 3.36801 0
M  V30 576 H 60.602 1.9622 2.26799 0
M  V30 577 H 58.155 1.05072 1.15714 0
M  V30 578 H 58.89 -0.429294 3.21446 0
M  V30 579 H 58.675 1.27515 3.70786 0
M  V30 580 H 60.165 0.392942 4.15747 0
M  V30 581 N 60.6021 -1.18246 1.0419 0
M  V30 582 C 61.8301 -1.92195 0.766072 0
M  V30 583 C 62.2451 -1.76247 -0.676933 0
M  V30 584 O 61.6021 -1.09293 -1.46155 0
M  V30 585 C 61.6531 -3.43568 1.12442 0
M  V30 586 O 61.3741 -3.59015 2.51078 0
M  V30 587 C 62.8751 -4.34613 0.873275 0
M  V30 588 H 60.0951 -0.610114 0.279288 0
M  V30 589 H 62.6391 -1.50007 1.38989 0
M  V30 590 H 60.7941 -3.8354 0.545542 0
M  V30 591 H 61.2081 -4.5273 2.64831 0
M  V30 592 H 62.6821 -5.39374 1.17385 0
M  V30 593 H 63.1591 -4.38781 -0.191909 0
M  V30 594 H 63.7651 -4.00341 1.43551 0
M  V30 595 N 62.0802 -0.821533 -1.34494 0
M  V30 596 C 63.4962 -0.507117 -1.51329 0
M  V30 597 C 63.6962 0.968964 -1.76673 0
M  V30 598 O 62.7522 1.75348 -1.81685 0
M  V30 599 C 64.0652 -1.36544 -2.67911 0
M  V30 600 C 65.6132 -1.36242 -2.81793 0
M  V30 601 C 66.0882 -2.2052 -4.01416 0
M  V30 602 N 67.5792 -2.18136 -4.08621 0
M  V30 603 C 68.3142 -2.80095 -5.00334 0
M  V30 604 N 67.8102 -3.51039 -5.9728 0
M  V30 605 N 69.6032 -2.69656 -4.93196 0
M  V30 606 H 61.7542 -1.77729 -1.16302 0
M  V30 607 H 64.0172 -0.757291 -0.570276 0
M  V30 608 H 63.7232 -2.41361 -2.55808 0
M  V30 609 H 63.5972 -1.02917 -3.62888 0
M  V30 610 H 65.9842 -0.322041 -2.93338 0
M  V30 611 H 66.0652 -1.73866 -1.87628 0
M  V30 612 H 65.7092 -3.24607 -3.90631 0
M  V30 613 H 65.6392 -1.80247 -4.94791 0
M  V30 614 H 68.1302 -1.6653 -3.39229 0
M  V30 615 H 68.4432 -3.95565 -6.63889 0
M  V30 616 H 66.7882 -3.55145 -5.97409 0
M  V30 617 H 69.9792 -2.13808 -4.16418 0
M  V30 618 H 70.1522 -3.1823 -5.64476 0
M  V30 619 N 63.5583 1.46682 -0.576371 0
M  V30 620 C 64.4903 2.28341 0.198231 0
M  V30 621 C 65.5033 1.38141 0.861453 0
M  V30 622 O 66.6923 1.62797 0.732082 0
M  V30 623 C 63.7923 3.12986 1.29972 0
M  V30 624 C 62.9653 4.31271 0.729639 0
M  V30 625 C 62.0243 4.97363 1.71803 0
M  V30 626 O 61.0503 5.55156 1.25658 0
M  V30 627 N 62.2523 4.93796 3.05198 0
M  V30 628 H 65.0173 2.9546 -0.502324 0
M  V30 629 H 62.5783 1.56525 -0.413715 0
M  V30 630 H 64.5703 3.54066 1.96008 0
M  V30 631 H 63.1403 2.47984 1.90323 0
M  V30 632 H 62.3603 3.94052 -0.108012 0
M  V30 633 H 63.6483 5.07739 0.328438 0
M  V30 634 H 63.0463 4.48077 3.45317 0
M  V30 635 H 61.6033 5.38837 3.6674 0
M  V30 636 N 65.0364 0.313813 1.54444 0
M  V30 637 C 66.3134 -0.345447 1.92525 0
M  V30 638 C 66.6934 -1.70667 1.24242 0
M  V30 639 O 66.0414 -2.25273 0.382654 0
M  V30 640 C 66.2514 -0.44737 3.46121 0
M  V30 641 C 67.5994 -0.712238 4.18584 0
M  V30 642 O 68.6234 -0.530678 3.52225 0
M  V30 643 O 67.4824 -1.06183 5.36085 0
M  V30 644 H 64.5764 -0.195407 0.803583 0
M  V30 645 H 67.1224 0.362813 1.65776 0
M  V30 646 H 65.8944 0.509043 3.87975 0
M  V30 647 H 65.5174 -1.20359 3.78945 0
M  V30 648 N 66.5145 -1.57545 0.0417849 0
M  V30 649 C 67.4445 -2.14009 -0.933929 0
M  V30 650 C 68.4255 -1.05938 -1.33083 0
M  V30 651 O 69.6105 -1.33833 -1.40721 0
M  V30 652 C 66.7405 -2.67747 -2.21199 0
M  V30 653 C 65.6945 -3.80718 -1.95544 0
M  V30 654 C 65.0205 -4.20935 -3.29724 0
M  V30 655 C 66.3205 -5.06258 -1.28452 0
M  V30 656 H 68.0145 -2.95788 -0.463645 0
M  V30 657 H 65.5605 -1.42285 -0.221573 0
M  V30 658 H 67.5135 -3.05886 -2.89848 0
M  V30 659 H 66.2375 -1.83147 -2.70416 0
M  V30 660 H 64.8965 -3.43037 -1.2931 0
M  V30 661 H 64.5445 -3.33298 -3.76724 0
M  V30 662 H 64.2445 -4.9707 -3.13361 0
M  V30 663 H 65.7685 -4.61666 -3.9962 0
M  V30 664 H 67.1825 -5.41903 -1.8712 0
M  V30 665 H 65.5795 -5.87475 -1.22445 0
M  V30 666 H 66.6495 -4.84207 -0.259219 0
M  V30 667 N 67.9926 0.231505 -1.5589 0
M  V30 668 C 69.2176 0.978689 -1.82856 0
M  V30 669 C 69.6426 1.77559 -0.620846 0
M  V30 670 O 69.0006 1.76119 0.430305 0
M  V30 671 C 69.0486 1.87997 -3.07716 0
M  V30 672 O 68.1526 2.97393 -2.85712 0
M  V30 673 H 67.4936 0.277663 -0.603158 0
M  V30 674 H 70.0236 0.24783 -2.03093 0
M  V30 675 H 70.0336 2.2917 -3.37558 0
M  V30 676 H 68.7086 1.29417 -3.95252 0
M  V30 677 H 67.2856 2.60238 -2.67078 0
M  V30 678 N 69.4707 1.49531 0.497807 0
M  V30 679 C 70.4027 1.62559 1.61578 0
M  V30 680 C 71.4157 0.508134 1.54667 0
M  V30 681 O 72.6047 0.780309 1.60541 0
M  V30 682 C 69.7047 1.56925 3.00379 0
M  V30 683 C 68.8777 2.84257 3.3244 0
M  V30 684 C 67.9367 2.71632 4.50669 0
M  V30 685 O 66.9627 3.4557 4.52294 0
M  V30 686 N 68.1647 1.83391 5.5077 0
M  V30 687 H 70.9297 2.58981 1.50828 0
M  V30 688 H 68.4907 1.4666 0.685743 0
M  V30 689 H 70.4827 1.46129 3.77397 0
M  V30 690 H 69.0527 0.683483 3.05037 0
M  V30 691 H 68.2727 3.09381 2.44289 0
M  V30 692 H 69.5607 3.68666 3.5066 0
M  V30 693 H 68.9587 1.22583 5.52259 0
M  V30 694 H 67.5157 1.78515 6.26878 0
M  V30 695 N 70.9488 -0.749086 1.3866 0
M  V30 696 C 72.2258 -1.4992 1.25632 0
M  V30 697 C 72.6058 -2.10633 -0.140317 0
M  V30 698 O 71.9538 -1.97437 -1.15025 0
M  V30 699 C 72.1638 -2.56195 2.36992 0
M  V30 700 C 73.5118 -3.22972 2.75634 0
M  V30 701 O 74.5358 -2.66502 2.36337 0
M  V30 702 O 73.3948 -4.25122 3.43415 0
M  V30 703 H 70.4888 -0.665067 0.491544 0
M  V30 704 H 73.0348 -0.784113 1.50498 0
M  V30 705 H 71.8068 -2.09612 3.30422 0
M  V30 706 H 71.4298 -3.35279 2.13714 0
M  V30 707 N 72.4269 -1.23603 -0.977757 0
M  V30 708 C 73.8379 -1.06424 -1.53398 0
M  V30 709 C 74.1889 0.367578 -1.92726 0
M  V30 710 O 73.3139 1.25465 -1.76316 0
M  V30 711 C 73.9089 -1.92568 -2.78753 0
M  V30 712 C 72.4679 -1.79642 -3.30765 0
M  V30 713 C 71.6149 -1.88111 -2.03739 0
M  V30 714 H 74.5659 -1.37227 -0.797152 0
M  V30 715 H 74.5869 -1.45203 -3.51705 0
M  V30 716 H 74.0989 -2.96771 -2.50098 0
M  V30 717 H 72.1999 -0.782325 -3.64294 0
M  V30 718 H 72.3129 -2.63174 -4.00345 0
M  V30 719 H 70.6769 -1.31723 -2.17994 0
M  V30 720 H 71.4599 -2.93875 -1.77461 0
M  V30 721 N 73.905 1.17692 -1.04816 0
M  V30 722 C 75.13 1.92327 -0.776207 0
M  V30 723 C 75.555 1.76082 0.661581 0
M  V30 724 O 74.913 1.076 1.45917 0
M  V30 725 C 74.961 3.41539 -1.15687 0
M  V30 726 O 74.065 4.11402 -0.286775 0
M  V30 727 H 73.406 0.599735 -0.284981 0
M  V30 728 H 75.936 1.49201 -1.4 0
M  V30 729 H 75.946 3.92269 -1.12202 0
M  V30 730 H 74.621 3.52684 -2.20425 0
M  V30 731 H 73.198 3.70939 -0.381903 0
M  V30 732 N 75.3831 0.828654 1.34056 0
M  V30 733 C 76.3301 0.252567 2.29414 0
M  V30 734 C 77.3001 -0.62588 1.53857 0
M  V30 735 O 78.4851 -0.566312 1.82202 0
M  V30 736 C 75.6251 -0.574831 3.40279 0
M  V30 737 C 74.7381 0.326499 4.30764 0
M  V30 738 C 73.8731 -0.511016 5.28736 0
M  V30 739 C 72.9121 0.389342 6.1086 0
M  V30 740 N 72.0491 -0.409439 7.00905 0
M  V30 741 H 76.8891 1.07108 2.78086 0
M  V30 742 H 74.4261 0.539677 1.36843 0
M  V30 743 H 76.3841 -1.06992 4.03248 0
M  V30 744 H 75.0141 -1.35841 2.92826 0
M  V30 745 H 74.0661 0.939837 3.68607 0
M  V30 746 H 75.3781 1.01857 4.88289 0
M  V30 747 H 74.5321 -1.07035 5.97184 0
M  V30 748 H 73.2711 -1.23657 4.71763 0
M  V30 749 H 72.2761 0.960769 5.4134 0
M  V30 750 H 73.5011 1.1131 6.69916 0
M  V30 751 H 71.4471 -1.11856 6.46393 0
M  V30 752 H 71.3641 0.224126 7.55668 0
M  V30 753 H 72.6321 -0.951336 7.73673 0
M  V30 754 N 76.8612 -1.46375 0.584142 0
M  V30 755 C 78.1082 -2.02378 0.0702675 0
M  V30 756 C 78.4362 -1.45545 -1.29023 0
M  V30 757 O 77.6912 -0.610967 -1.85918 0
M  V30 758 C 77.9902 -3.57373 -0.0439342 0
M  V30 759 C 77.6562 -4.33252 1.24915 0
M  V30 760 C 76.3182 -4.53701 1.60341 0
M  V30 761 C 78.6702 -4.7681 2.1048 0
M  V30 762 C 75.9982 -5.1496 2.81128 0
M  V30 763 C 78.3502 -5.39404 3.30494 0
M  V30 764 C 77.0142 -5.5808 3.66201 0
M  V30 765 H 76.2842 -0.740554 0.0257127 0
M  V30 766 H 78.9312 -1.75727 0.761065 0
M  V30 767 H 77.2362 -3.83169 -0.817869 0
M  V30 768 H 78.9332 -3.98384 -0.457318 0
M  V30 769 H 75.5232 -4.17633 0.963364 0
M  V30 770 H 79.7072 -4.60766 1.84414 0
M  V30 771 H 74.9632 -5.27611 3.08928 0
M  V30 772 H 79.1372 -5.72114 3.97063 0
M  V30 773 H 76.7642 -6.05318 4.59885 0
M  V30 774 N 78.3393 -0.321999 -1.54275 0
M  V30 775 C 79.5673 0.283052 -2.04955 0
M  V30 776 C 79.9823 1.45904 -1.19823 0
M  V30 777 O 79.3393 1.81063 -0.228545 0
M  V30 778 C 79.3903 0.719028 -3.54277 0
M  V30 779 O 79.1113 -0.410175 -4.36176 0
M  V30 780 C 80.6123 1.38705 -4.21041 0
M  V30 781 H 77.8323 0.0584616 -0.668448 0
M  V30 782 H 80.3763 -0.467734 -1.99079 0
M  V30 783 H 78.5313 1.41979 -3.60445 0
M  V30 784 H 78.9453 -0.0669416 -5.24457 0
M  V30 785 H 80.4193 1.64306 -5.2698 0
M  V30 786 H 80.8963 2.33385 -3.72059 0
M  V30 787 H 81.5023 0.728906 -4.19007 0
M  V30 788 N 79.8174 1.5752 -0.0501392 0
M  V30 789 C 80.7274 2.14952 0.939827 0
M  V30 790 C 81.7434 1.10706 1.34239 0
M  V30 791 O 82.9194 1.42869 1.41952 0
M  V30 792 C 79.9844 2.68232 2.19665 0
M  V30 793 C 79.0454 3.87272 1.85253 0
M  V30 794 C 78.2784 4.38002 3.04943 0
M  V30 795 O 78.5014 3.87811 4.18281 0
M  V30 796 O 77.4354 5.29602 2.86017 0
M  V30 797 H 81.2614 2.9986 0.481392 0
M  V30 798 H 78.8464 1.4841 0.171699 0
M  V30 799 H 80.7284 3.02475 2.93406 0
M  V30 800 H 79.4034 1.86395 2.64648 0
M  V30 801 H 78.3104 3.5792 1.0883 0
M  V30 802 H 79.6434 4.70336 1.4507 0
M  V30 803 N 81.2955 -0.223234 1.56011 0
M  V30 804 C 82.7065 -0.790368 1.69145 0
M  V30 805 C 83.0575 -1.85055 0.651845 0
M  V30 806 O 82.1825 -2.15498 -0.197359 0
M  V30 807 C 82.7775 -1.4404 3.06656 0
M  V30 808 C 81.3365 -1.95494 3.2165 0
M  V30 809 C 80.4835 -0.814506 2.65068 0
M  V30 810 H 83.4345 0.00139011 1.587 0
M  V30 811 H 83.4555 -2.30916 3.0242 0
M  V30 812 H 82.9675 -0.668543 3.82298 0
M  V30 813 H 81.0685 -2.75487 2.50874 0
M  V30 814 H 81.1815 -2.13607 4.28846 0
M  V30 815 H 79.5455 -1.22137 2.23505 0
M  V30 816 H 80.3285 -0.0553515 3.43255 0
M  V30 817 N 82.7736 -1.49793 -0.48987 0
M  V30 818 C 84.0196 -1.60078 -1.24511 0
M  V30 819 C 84.3526 -0.291608 -1.91998 0
M  V30 820 O 83.6276 0.705647 -1.81248 0
M  V30 821 C 83.9106 -2.76791 -2.30345 0
M  V30 822 C 83.7636 -4.17535 -1.67286 0
M  V30 823 C 85.0826 -2.89111 -3.31817 0
M  V30 824 H 82.2016 -0.582645 -0.451324 0
M  V30 825 H 84.8436 -1.82117 -0.541612 0
M  V30 826 H 82.9936 -2.5813 -2.90346 0
M  V30 827 H 84.6656 -4.4774 -1.11026 0
M  V30 828 H 82.9086 -4.22665 -0.976577 0
M  V30 829 H 83.5796 -4.95094 -2.44103 0
M  V30 830 H 86.0556 -3.06133 -2.81819 0
M  V30 831 H 84.9316 -3.72433 -4.03219 0
M  V30 832 H 85.1926 -1.9893 -3.94815 0
M  V30 833 N 84.2517 0.741722 -1.39055 0
M  V30 834 C 85.1987 1.85566 -1.37237 0
M  V30 835 C 86.1687 1.64457 -0.233072 0
M  V30 836 O 87.3537 1.85957 -0.427147 0
M  V30 837 C 84.4937 3.23004 -1.215 0
M  V30 838 C 83.6067 3.55864 -2.44918 0
M  V30 839 C 82.7417 4.82669 -2.21821 0
M  V30 840 C 81.7807 5.08351 -3.40948 0
M  V30 841 N 80.9177 6.26356 -3.17211 0
M  V30 842 H 85.7577 1.86455 -2.32462 0
M  V30 843 H 83.2947 0.911176 -1.15482 0
M  V30 844 H 85.2527 4.02331 -1.10389 0
M  V30 845 H 83.8827 3.21411 -0.29908 0
M  V30 846 H 82.9347 2.7129 -2.66657 0
M  V30 847 H 84.2467 3.70765 -3.33668 0
M  V30 848 H 83.4007 5.69962 -2.07914 0
M  V30 849 H 82.1397 4.69929 -1.30454 0
M  V30 850 H 81.1447 4.19522 -3.55361 0
M  V30 851 H 82.3697 5.22981 -4.33207 0
M  V30 852 H 80.3157 6.14917 -2.28502 0
M  V30 853 H 80.2327 6.41813 -3.99515 0
M  V30 854 H 81.5007 7.16506 -3.06984 0
M  V30 855 N 85.7298 1.2412 0.971189 0
M  V30 856 C 87.0068 0.986867 1.6888 0
M  V30 857 C 87.3868 -0.491857 2.0529 0
M  V30 858 O 86.7348 -1.46531 1.75331 0
M  V30 859 C 86.9448 1.9063 2.92338 0
M  V30 860 C 88.2928 2.17515 3.64654 0
M  V30 861 O 89.3168 1.88254 3.02388 0
M  V30 862 O 88.1758 2.6719 4.7673 0
M  V30 863 H 85.2698 0.372944 0.738134 0
M  V30 864 H 87.8158 1.35203 1.02559 0
M  V30 865 H 86.5878 2.90552 2.62097 0
M  V30 866 H 86.2108 1.54408 3.66393 0
M  V30 867 N 87.2079 -1.17134 1.05439 0
M  V30 868 C 88.1379 -2.2342 0.678649 0
M  V30 869 C 89.1189 -1.66971 -0.32476 0
M  V30 870 O 90.3039 -1.93149 -0.201802 0
M  V30 871 C 87.4339 -3.47256 0.0552099 0
M  V30 872 C 86.3879 -4.16543 0.98365 0
M  V30 873 C 85.7139 -5.34231 0.223961 0
M  V30 874 C 87.0139 -4.68495 2.3089 0
M  V30 875 H 88.7079 -2.55105 1.56722 0
M  V30 876 H 86.2539 -1.2262 0.754998 0
M  V30 877 H 88.2069 -4.20828 -0.21946 0
M  V30 878 H 86.9309 -3.14846 -0.868319 0
M  V30 879 H 85.5899 -3.44887 1.24293 0
M  V30 880 H 85.2379 -4.98071 -0.702412 0
M  V30 881 H 84.9379 -5.81527 0.842627 0
M  V30 882 H 86.4619 -6.10585 -0.0433671 0
M  V30 883 H 87.8759 -5.33691 2.09396 0
M  V30 884 H 86.2729 -5.26379 2.88176 0
M  V30 885 H 87.3429 -3.85169 2.94572 0
M  V30 886 N 88.686 -0.835752 -1.33615 0
M  V30 887 C 89.619 -0.211815 -2.27215 0
M  V30 888 C 90.597 0.639249 -1.49507 0
M  V30 889 O 91.781 0.600193 -1.78689 0
M  V30 890 C 88.908 0.702893 -3.31326 0
M  V30 891 C 87.954 -0.0723049 -4.26439 0
M  V30 892 S 88.787 -1.42811 -5.16106 0
M  V30 893 C 89.943 -0.518613 -6.23748 0
M  V30 894 H 90.176 -1.00533 -2.79786 0
M  V30 895 H 87.709 -0.632336 -1.40858 0
M  V30 896 H 89.667 1.22505 -3.91794 0
M  V30 897 H 88.328 1.47004 -2.77576 0
M  V30 898 H 87.521 0.62359 -5.00127 0
M  V30 899 H 87.123 -0.525424 -3.70291 0
M  V30 900 H 89.415 0.284778 -6.76901 0
M  V30 901 H 90.358 -1.22556 -6.97413 0
M  V30 902 H 90.766 -0.101344 -5.64409 0
M  V30 903 N 90.1641 1.46063 -0.591896 0
M  V30 904 C 91.0941 2.33172 0.123673 0
M  V30 905 C 92.0751 1.45897 0.87453 0
M  V30 906 O 93.2601 1.74698 0.848181 0
M  V30 907 C 90.3901 3.28336 1.13194 0
M  V30 908 C 89.3441 4.25124 0.495324 0
M  V30 909 C 88.6701 5.09863 1.61071 0
M  V30 910 C 89.9701 5.19143 -0.573425 0
M  V30 911 H 91.6641 2.93252 -0.603646 0
M  V30 912 H 89.2101 1.41014 -0.291741 0
M  V30 913 H 91.1631 3.88137 1.64097 0
M  V30 914 H 89.8871 2.66383 1.88965 0
M  V30 915 H 88.5461 3.66599 0.00729452 0
M  V30 916 H 88.1941 4.44288 2.35832 0
M  V30 917 H 87.8941 5.75417 1.19035 0
M  V30 918 H 89.4181 5.72529 2.12233 0
M  V30 919 H 90.8321 5.73106 -0.1491 0
M  V30 920 H 89.2291 5.93089 -0.914636 0
M  V30 921 H 90.2991 4.62519 -1.45617 0
M  V30 922 N 91.6422 0.330177 1.54103 0
M  V30 923 C 92.5892 -0.532762 2.24567 0
M  V30 924 C 93.5592 -1.10635 1.23892 0
M  V30 925 O 94.7442 -1.14546 1.5259 0
M  V30 926 C 91.8842 -1.6845 3.01195 0
M  V30 927 C 90.9972 -1.13951 4.167 0
M  V30 928 C 90.1322 -2.25746 4.80845 0
M  V30 929 C 89.1712 -1.6853 5.88442 0
M  V30 930 N 88.3082 -2.74014 6.46421 0
M  V30 931 H 93.1482 0.0746905 2.97906 0
M  V30 932 H 90.6852 0.048632 1.4702 0
M  V30 933 H 92.6432 -2.36234 3.43874 0
M  V30 934 H 91.2732 -2.26314 2.30178 0
M  V30 935 H 90.3252 -0.35301 3.78758 0
M  V30 936 H 91.6372 -0.680892 4.94131 0
M  V30 937 H 90.7912 -3.01422 5.26526 0
M  V30 938 H 89.5302 -2.74947 4.0281 0
M  V30 939 H 88.5352 -0.913543 5.42157 0
M  V30 940 H 89.7602 -1.20198 6.68378 0
M  V30 941 H 87.7062 -3.22494 5.71256 0
M  V30 942 H 87.6232 -2.32735 7.19285 0
M  V30 943 H 88.8912 -3.49499 6.96757 0
M  V30 944 N 93.1203 -1.57491 0.0584922 0
M  V30 945 C 94.3483 -1.97296 -0.623037 0
M  V30 946 C 94.7633 -0.936338 -1.63946 0
M  V30 947 O 94.1203 0.0785981 -1.82331 0
M  V30 948 C 94.1713 -3.37183 -1.30345 0
M  V30 949 O 93.8923 -4.36872 -0.32773 0
M  V30 950 C 95.3933 -3.91788 -2.07406 0
M  V30 951 H 92.6133 -0.649153 -0.169826 0
M  V30 952 H 95.1573 -2.04106 0.12696 0
M  V30 953 H 93.3123 -3.31502 -2.00463 0
M  V30 954 H 93.7263 -5.18141 -0.814269 0
M  V30 955 H 95.2003 -4.91926 -2.50425 0
M  V30 956 H 95.6773 -3.27609 -2.92521 0
M  V30 957 H 96.2833 -4.00829 -1.42184 0
M  V30 958 N 94.5984 0.214957 -1.56127 0
M  V30 959 C 95.5614 1.24997 -1.92116 0
M  V30 960 C 96.5614 1.39467 -0.800344 0
M  V30 961 O 97.7514 1.37619 -1.06802 0
M  V30 962 C 94.8834 2.62271 -2.17777 0
M  V30 963 H 96.0764 0.942875 -2.84693 0
M  V30 964 H 93.6294 0.455654 -1.49511 0
M  V30 965 H 94.3644 2.98068 -1.27773 0
M  V30 966 H 94.1494 2.53143 -2.99434 0
M  V30 967 H 95.6394 3.36946 -2.46693 0
M  V30 968 N 96.0765 1.50051 0.48192 0
M  V30 969 C 97.4875 1.5348 1.06305 0
M  V30 970 C 97.8385 0.331997 1.93371 0
M  V30 971 O 96.9635 -0.556256 2.09129 0
M  V30 972 C 97.5585 2.7813 1.93466 0
M  V30 973 C 96.1175 2.84275 2.46707 0
M  V30 974 C 95.2645 2.47637 1.24785 0
M  V30 975 H 98.2155 1.56472 0.264995 0
M  V30 976 H 98.2365 2.59372 2.78399 0
M  V30 977 H 97.7485 3.65654 1.30072 0
M  V30 978 H 95.8495 2.01077 3.13686 0
M  V30 979 H 95.9625 3.8691 2.82555 0
M  V30 980 H 94.3265 1.99835 1.57918 0
M  V30 981 H 95.1095 3.37457 0.630694 0
M  V30 982 N 97.5546 -0.734337 1.39446 0
M  V30 983 C 98.5176 -1.83004 1.37994 0
M  V30 984 C 99.5176 -1.58397 0.276938 0
M  V30 985 O 100.708 -1.65785 0.534875 0
M  V30 986 C 97.8396 -3.20802 1.1532 0
M  V30 987 H 99.0326 -1.85694 2.35494 0
M  V30 988 H 96.5856 -0.938059 1.25021 0
M  V30 989 H 97.3206 -3.23772 0.185036 0
M  V30 990 H 97.1056 -3.4006 1.95197 0
M  V30 991 H 98.5956 -4.00862 1.17046 0
M  V30 992 N 99.0327 -1.24633 -0.964593 0
M  V30 993 C 99.9627 -1.06611 -2.07741 0
M  V30 994 C 100.944 0.0218666 -1.70086 0
M  V30 995 O 102.129 -0.145793 -1.93652 0
M  V30 996 C 99.2587 -0.673444 -3.40708 0
M  V30 997 C 98.2127 -1.71054 -3.92332 0
M  V30 998 C 97.5387 -1.17285 -5.21678 0
M  V30 999 C 98.8387 -3.10718 -4.19824 0
M  V30 1000 H 100.533 -1.99693 -2.23076 0
M  V30 1001 H 98.0787 -0.96152 -1.07195 0
M  V30 1002 H 100.032 -0.534345 -4.17998 0
M  V30 1003 H 98.7557 0.293073 -3.25282 0
M  V30 1004 H 97.4147 -1.83791 -3.17201 0
M  V30 1005 H 97.0627 -0.196847 -5.02615 0
M  V30 1006 H 96.7627 -1.86592 -5.57187 0
M  V30 1007 H 98.2867 -1.04593 -6.01575 0
M  V30 1008 H 99.7007 -3.01192 -4.87808 0
M  V30 1009 H 98.0977 -3.77406 -4.66567 0
M  V30 1010 H 99.1677 -3.58524 -3.26479 0
M  V30 1011 N 100.511 1.16574 -1.06058 0
M  V30 1012 C 101.459 2.22941 -0.663343 0
M  V30 1013 C 102.453 1.66358 0.319593 0
M  V30 1014 O 103.659 1.7905 0.184713 0
M  V30 1015 H 100.034 0.725907 -0.196376 0
M  V30 1016 H 102.005 2.53736 -1.57037 0
M  V30 1017 C 100.754 3.47642 -0.0632808 0
M  V30 1018 H 100.077 3.91493 -0.810733 0
M  V30 1019 H 101.517 4.2363 0.177177 0
M  V30 1020 C 99.9758 3.1509 1.19248 0
M  V30 1021 O 100.506 3.30673 2.28075 0
M  V30 1022 N 98.7118 2.6924 1.09353 0
M  V30 1023 H 98.2588 2.5676 0.207912 0
M  V30 1024 H 98.2168 2.47833 1.93458 0
M  V30 1025 N 101.989 0.842826 1.3317 0
M  V30 1026 C 103.214 0.453129 2.02389 0
M  V30 1027 C 103.639 -0.939105 1.6298 0
M  V30 1028 O 102.997 -1.61472 0.8244 0
M  V30 1029 C 103.045 0.586094 3.55805 0
M  V30 1030 O 102.149 -0.386029 4.10589 0
M  V30 1031 H 101.49 0.183664 0.638094 0
M  V30 1032 H 104.02 1.13875 1.69981 0
M  V30 1033 H 104.03 0.469209 4.05293 0
M  V30 1034 H 102.705 1.6014 3.83833 0
M  V30 1035 H 101.282 -0.226371 3.72212 0
M  V30 1036 N 103.467 -1.45747 0.599634 0
M  V30 1037 C 104.878 -1.85853 0.177681 0
M  V30 1038 C 105.229 -1.50102 -1.26348 0
M  V30 1039 O 104.354 -0.923905 -1.95686 0
M  V30 1040 C 104.949 -3.37326 0.315688 0
M  V30 1041 C 103.508 -3.76365 -0.0515144 0
M  V30 1042 C 102.655 -2.69722 0.643822 0
M  V30 1043 H 105.606 -1.36661 0.806814 0
M  V30 1044 H 105.627 -3.77778 -0.454321 0
M  V30 1045 H 105.139 -3.63315 1.36468 0
M  V30 1046 H 103.24 -3.55993 -1.09999 0
M  V30 1047 H 103.353 -4.77916 0.336594 0
M  V30 1048 H 101.717 -2.54567 0.0822881 0
M  V30 1049 H 102.5 -2.98549 1.6948 0
M  V30 1050 N 104.945 -0.338344 -1.53925 0
M  V30 1051 C 105.893 0.536231 -2.26335 0
M  V30 1052 C 106.887 1.1063 -1.28286 0
M  V30 1053 O 108.093 1.05264 -1.46012 0
M  V30 1054 H 104.468 0.191602 -0.727181 0
M  V30 1055 H 106.439 -0.0965747 -2.98244 0
M  V30 1056 C 105.188 1.67803 -3.04528 0
M  V30 1057 H 104.511 1.24864 -3.79801 0
M  V30 1058 H 105.951 2.26526 -3.58416 0
M  V30 1059 C 104.41 2.60439 -2.13712 0
M  V30 1060 O 104.94 3.6255 -1.72975 0
M  V30 1061 N 103.146 2.29006 -1.78898 0
M  V30 1062 H 102.693 1.46011 -2.12223 0
M  V30 1063 H 102.651 2.91248 -1.18416 0
M  V30 1064 N 106.423 1.57458 -0.0668435 0
M  V30 1065 C 107.669 1.93587 0.6043 0
M  V30 1066 C 108.002 0.946722 1.69561 0
M  V30 1067 O 107.277 -0.0248516 1.94484 0
M  V30 1068 C 107.56 3.40014 1.18585 0
M  V30 1069 C 107.413 4.49685 0.101529 0
M  V30 1070 C 108.732 3.87154 2.09284 0
M  V30 1071 H 105.851 0.703958 0.218202 0
M  V30 1072 H 108.493 1.89542 -0.131804 0
M  V30 1073 H 106.643 3.43592 1.81319 0
M  V30 1074 H 108.315 4.5823 -0.531279 0
M  V30 1075 H 106.558 4.30059 -0.568487 0
M  V30 1076 H 107.229 5.49266 0.54874 0
M  V30 1077 H 109.705 3.85551 1.56491 0
M  V30 1078 H 108.581 4.90231 2.46911 0
M  V30 1079 H 108.842 3.2481 2.99918 0
M  V30 1080 N 107.901 -0.206675 1.56239 0
M  V30 1081 C 108.811 -1.27686 1.96808 0
M  V30 1082 C 109.827 -1.50455 0.874035 0
M  V30 1083 O 111.003 -1.63295 1.17884 0
M  V30 1084 C 108.068 -2.60358 2.28942 0
M  V30 1085 C 107.129 -2.45762 3.51994 0
M  V30 1086 C 106.362 -3.72108 3.82585 0
M  V30 1087 O 106.585 -4.75776 3.14631 0
M  V30 1088 O 105.519 -3.6833 4.76043 0
M  V30 1089 H 109.345 -0.962593 2.88041 0
M  V30 1090 H 106.93 -0.410746 1.43643 0
M  V30 1091 H 108.812 -3.38687 2.50737 0
M  V30 1092 H 107.487 -2.91435 1.4088 0
M  V30 1093 H 106.394 -1.65584 3.35459 0
M  V30 1094 H 107.727 -2.19621 4.40486 0
M  V30 1095 N 109.379 -1.50304 -0.473955 0
M  V30 1096 C 110.342 -1.6841 -1.55469 0
M  V30 1097 C 111.342 -0.554905 -1.50922 0
M  V30 1098 O 112.532 -0.821882 -1.53593 0
M  V30 1099 C 109.664 -1.70667 -2.95102 0
M  V30 1100 H 110.857 -2.64828 -1.40733 0
M  V30 1101 H 108.41 -1.39742 -0.700132 0
M  V30 1102 H 109.145 -0.75932 -3.15285 0
M  V30 1103 H 108.93 -2.52698 -2.9981 0
M  V30 1104 H 110.42 -1.8664 -3.73571 0
M  V30 1105 N 110.857 0.726932 -1.39834 0
M  V30 1106 C 112.097 1.4992 -1.38936 0
M  V30 1107 C 112.461 1.91996 0.0126883 0
M  V30 1108 O 113.662 2.68399 0.146715 0
M  V30 1109 C 111.933 2.70013 -2.34153 0
M  V30 1110 S 113.492 3.59563 -2.51515 0
M  V30 1111 H 110.31 0.51271 -0.492595 0
M  V30 1112 H 112.912 0.85107 -1.76003 0
M  V30 1113 H 111.616 2.37254 -3.34871 0
M  V30 1114 H 111.147 3.39748 -1.98331 0
M  V30 1115 H 113.162 4.63973 -1.75909 0
M  V30 1116 N 112.336 1.25143 0.95797 0
M  V30 1117 C 113.584 1.09476 1.69881 0
M  V30 1118 C 113.905 -0.365502 1.91544 0
M  V30 1119 O 113.175 -1.25985 1.50015 0
M  V30 1120 H 111.755 0.402128 0.629525 0
M  V30 1121 H 114.417 1.57214 1.15194 0
M  V30 1122 H 113.513 1.60046 2.6794 0
M  V30 1123 N 113.814 -1.1601 1.06675 0
M  V30 1124 C 115.044 -1.90251 0.805497 0
M  V30 1125 C 115.452 -1.77891 -0.64431 0
M  V30 1126 O 114.795 -1.12383 -1.45313 0
M  V30 1127 C 114.857 -3.41419 1.12576 0
M  V30 1128 C 114.521 -3.77564 2.57477 0
M  V30 1129 C 115.518 -3.79161 3.55715 0
M  V30 1130 C 113.203 -4.08079 2.92877 0
M  V30 1131 C 115.197 -4.10767 4.8739 0
M  V30 1132 C 112.884 -4.39351 4.24751 0
M  V30 1133 C 113.882 -4.40675 5.21818 0
M  V30 1134 O 113.57 -4.71202 6.51325 0
M  V30 1135 H 113.302 -0.610018 0.291297 0
M  V30 1136 H 115.856 -1.47958 1.4247 0
M  V30 1137 H 114.086 -3.84079 0.449503 0
M  V30 1138 H 115.775 -3.9694 0.84814 0
M  V30 1139 H 116.541 -3.55693 3.29708 0
M  V30 1140 H 112.42 -4.06211 2.17976 0
M  V30 1141 H 115.964 -4.11715 5.63148 0
M  V30 1142 H 111.861 -4.62285 4.50514 0
M  V30 1143 H 112.629 -4.88996 6.56373 0
M  V30 1144 N 115.292 -0.849877 -1.32721 0
M  V30 1145 C 116.517 -0.463856 -2.02146 0
M  V30 1146 C 116.942 0.930449 -1.63476 0
M  V30 1147 O 116.3 1.61033 -0.832952 0
M  V30 1148 C 116.348 -0.604955 -3.55489 0
M  V30 1149 O 115.452 0.36425 -4.10788 0
M  V30 1150 H 114.793 -0.187046 -0.637111 0
M  V30 1151 H 117.323 -1.14775 -1.69375 0
M  V30 1152 H 117.333 -0.490696 -4.05038 0
M  V30 1153 H 116.008 -1.62174 -3.82978 0
M  V30 1154 H 114.585 0.206628 -3.72327 0
M  V30 1155 N 116.77 1.45427 -0.607355 0
M  V30 1156 C 118.047 1.9557 -0.0344566 0
M  V30 1157 C 118.427 1.54979 1.43334 0
M  V30 1158 O 117.775 0.812241 2.13576 0
M  V30 1159 C 117.985 3.48226 -0.232321 0
M  V30 1160 C 119.333 4.2445 -0.113001 0
M  V30 1161 O 120.357 3.55829 -0.162431 0
M  V30 1162 O 119.216 5.465 0.00209442 0
M  V30 1163 H 116.31 0.826222 0.0358667 0
M  V30 1164 H 118.856 1.55594 -0.6774 0
M  V30 1165 H 117.628 3.70739 -1.25174 0
M  V30 1166 H 117.251 3.95092 0.445896 0
M  V30 1167 N 118.248 0.346503 1.53744 0
M  V30 1168 C 119.664 -0.00530975 1.59599 0
M  V30 1169 C 119.864 -1.48465 1.36236 0
M  V30 1170 O 118.92 -2.24376 1.15808 0
M  V30 1171 C 120.233 0.433516 2.97559 0
M  V30 1172 C 121.781 0.386111 3.10609 0
M  V30 1173 C 122.256 0.800451 4.50951 0
M  V30 1174 N 123.747 0.754753 4.5701 0
M  V30 1175 C 124.482 1.04727 5.63755 0
M  V30 1176 N 123.978 1.4081 6.7834 0
M  V30 1177 N 125.771 0.971316 5.53644 0
M  V30 1178 H 117.922 1.31009 1.67184 0
M  V30 1179 H 120.185 0.534242 0.783128 0
M  V30 1180 H 119.891 1.46509 3.19731 0
M  V30 1181 H 119.765 -0.189753 3.76722 0
M  V30 1182 H 122.152 -0.636295 2.88158 0
M  V30 1183 H 122.233 1.04462 2.33498 0
M  V30 1184 H 121.877 1.82088 4.74137 0
M  V30 1185 H 121.807 0.119386 5.26465 0
M  V30 1186 H 124.298 0.488662 3.74727 0
M  V30 1187 H 124.611 1.61607 7.55714 0
M  V30 1188 H 122.956 1.44657 6.79779 0
M  V30 1189 H 126.147 0.688748 4.63005 0
M  V30 1190 H 126.32 1.20263 6.36742 0
M  V30 1191 N 119.726 -1.57421 0.075193 0
M  V30 1192 C 120.972 -1.93905 -0.594025 0
M  V30 1193 C 121.305 -0.955701 -1.69056 0
M  V30 1194 O 120.58 0.0145373 -1.94495 0
M  V30 1195 C 120.863 -3.40638 -1.1678 0
M  V30 1196 C 120.716 -4.49733 -0.0776792 0
M  V30 1197 C 122.035 -3.88259 -2.07228 0
M  V30 1198 H 119.154 -0.705105 -0.214466 0
M  V30 1199 H 121.796 -1.8947 0.141854 0
M  V30 1200 H 119.946 -3.44549 -1.79494 0
M  V30 1201 H 121.618 -4.57942 0.555573 0
M  V30 1202 H 119.861 -4.29751 0.591286 0
M  V30 1203 H 120.532 -5.49549 -0.519603 0
M  V30 1204 H 123.008 -3.86376 -1.54445 0
M  V30 1205 H 121.884 -4.91533 -2.44308 0
M  V30 1206 H 122.145 -3.26396 -2.98191 0
M  V30 1207 N 121.204 0.198386 -1.56346 0
M  V30 1208 C 122.62 0.549085 -1.49857 0
M  V30 1209 C 122.82 1.86016 -0.774611 0
M  V30 1210 O 121.876 2.50416 -0.323776 0
M  V30 1211 C 123.189 0.606868 -2.94512 0
M  V30 1212 C 124.737 0.695925 -3.05165 0
M  V30 1213 C 125.212 0.784848 -4.51225 0
M  V30 1214 N 126.703 0.848463 -4.55363 0
M  V30 1215 C 127.438 0.937378 -5.65686 0
M  V30 1216 N 126.934 0.9888 -6.85707 0
M  V30 1217 N 128.727 0.974312 -5.53592 0
M  V30 1218 H 120.878 -0.661655 -2.01831 0
M  V30 1219 H 123.141 -0.235261 -0.918344 0
M  V30 1220 H 122.847 -0.28732 -3.50524 0
M  V30 1221 H 122.721 1.46268 -3.47686 0
M  V30 1222 H 125.108 1.58055 -2.49204 0
M  V30 1223 H 125.189 -0.186022 -2.55123 0
M  V30 1224 H 124.833 -0.0954072 -5.0781 0
M  V30 1225 H 124.763 1.68255 -4.98997 0
M  V30 1226 H 127.254 0.818103 -3.68938 0
M  V30 1227 H 127.567 1.05707 -7.65536 0
M  V30 1228 H 125.912 0.957534 -6.88372 0
M  V30 1229 H 129.103 0.930954 -4.58749 0
M  V30 1230 H 129.276 1.04015 -6.39597 0
M  V30 1231 N 122.682 1.50554 0.465978 0
M  V30 1232 C 123.614 1.65949 1.58093 0
M  V30 1233 C 124.627 0.540827 1.53554 0
M  V30 1234 O 125.816 0.814187 1.5885 0
M  V30 1235 C 122.916 1.63261 2.96983 0
M  V30 1236 C 122.089 2.91245 3.26336 0
M  V30 1237 C 121.148 2.8113 4.44806 0
M  V30 1238 O 120.174 3.55086 4.44862 0
M  V30 1239 N 121.376 1.95032 5.46756 0
M  V30 1240 H 124.141 2.62122 1.45301 0
M  V30 1241 H 121.702 1.48082 0.65448 0
M  V30 1242 H 123.694 1.54101 3.74212 0
M  V30 1243 H 122.264 0.748032 3.03518 0
M  V30 1244 H 121.484 3.14493 2.37672 0
M  V30 1245 H 122.772 3.76022 3.42761 0
M  V30 1246 H 122.17 1.3427 5.49534 0
M  V30 1247 H 120.727 1.91772 6.2295 0
M  V30 1248 N 124.16 -0.719506 1.40217 0
M  V30 1249 C 125.409 -1.47486 1.37589 0
M  V30 1250 C 125.722 -1.9559 -0.0201568 0
M  V30 1251 O 126.928 -2.70973 -0.169049 0
M  V30 1252 C 125.384 -2.66575 2.41796 0
M  V30 1253 C 124.992 -2.25358 3.87192 0
M  V30 1254 C 126.736 -3.4433 2.48269 0
M  V30 1255 C 124.643 -3.41262 4.83005 0
M  V30 1256 H 123.573 -0.553901 0.511576 0
M  V30 1257 H 126.224 -0.783427 1.65936 0
M  V30 1258 H 124.606 -3.3787 2.06543 0
M  V30 1259 H 125.78 -1.61509 4.31569 0
M  V30 1260 H 124.095 -1.60657 3.84159 0
M  V30 1261 H 126.692 -4.30569 3.17041 0
M  V30 1262 H 127.035 -3.87872 1.51198 0
M  V30 1263 H 127.568 -2.80076 2.82493 0
M  V30 1264 H 124.307 -3.02755 5.81394 0
M  V30 1265 H 123.827 -4.0404 4.43297 0
M  V30 1266 H 125.506 -4.07383 5.02641 0
M  V30 1267 N 125.638 -1.25649 -0.95132 0
M  V30 1268 C 126.866 -1.13343 -1.73092 0
M  V30 1269 C 127.281 0.312434 -1.86197 0
M  V30 1270 O 126.638 1.21465 -1.36207 0
M  V30 1271 C 126.689 -1.78602 -3.14299 0
M  V30 1272 O 126.41 -3.17537 -3.01831 0
M  V30 1273 C 127.911 -1.72119 -4.08522 0
M  V30 1274 H 125.131 -0.395181 -0.542285 0
M  V30 1275 H 127.675 -1.66076 -1.19328 0
M  V30 1276 H 125.83 -1.29832 -3.64996 0
M  V30 1277 H 126.244 -3.49676 -3.90931 0
M  V30 1278 H 127.718 -2.22435 -5.052 0
M  V30 1279 H 128.195 -0.685635 -4.33815 0
M  V30 1280 H 128.801 -2.20393 -3.63741 0
M  V30 1281 N 127.117 1.15442 -1.07289 0
M  V30 1282 C 128.047 2.22312 -0.714107 0
M  V30 1283 C 129.028 1.67467 0.298155 0
M  V30 1284 O 130.213 1.93445 0.171048 0
M  V30 1285 C 127.343 3.47124 -0.110448 0
M  V30 1286 C 126.297 4.14926 -1.04979 0
M  V30 1287 C 125.623 5.33807 -0.308924 0
M  V30 1288 C 126.923 4.64762 -2.38314 0
M  V30 1289 H 128.617 2.5258 -1.6076 0
M  V30 1290 H 126.163 1.21404 -0.77441 0
M  V30 1291 H 128.116 4.21124 0.152482 0
M  V30 1292 H 126.84 3.16187 0.81812 0
M  V30 1293 H 125.499 3.42866 -1.29764 0
M  V30 1294 H 125.147 4.99126 0.623084 0
M  V30 1295 H 124.847 5.80113 -0.935036 0
M  V30 1296 H 126.371 6.10576 -0.0537771 0
M  V30 1297 H 127.785 5.30292 -2.1786 0
M  V30 1298 H 126.182 5.21728 -2.96514 0
M  V30 1299 H 127.252 3.80434 -3.00663 0
M  V30 1300 N 128.595 0.856903 1.32268 0
M  V30 1301 C 129.843 0.460474 1.96784 0
M  V30 1302 C 130.164 -0.987701 1.68135 0
M  V30 1303 O 129.434 -1.69058 0.989765 0
M  V30 1304 H 128.014 0.167289 0.728027 0
M  V30 1305 H 130.676 1.09383 1.61312 0
M  V30 1306 H 129.772 0.60739 3.06133 0
M  V30 1307 N 130.073 -1.45103 0.615059 0
M  V30 1308 C 131.021 -2.32331 -0.111791 0
M  V30 1309 C 132.015 -1.46409 -0.852102 0
M  V30 1310 O 133.221 -1.62849 -0.766821 0
M  V30 1311 H 129.596 -0.749993 -0.0549072 0
M  V30 1312 H 131.567 -2.91407 0.642225 0
M  V30 1313 C 130.316 -3.3015 -1.09071 0
M  V30 1314 H 129.639 -3.96265 -0.530485 0
M  V30 1315 H 131.079 -3.93898 -1.56908 0
M  V30 1316 C 129.538 -2.57875 -2.168 0
M  V30 1317 O 130.068 -2.36567 -3.24652 0
M  V30 1318 N 128.274 -2.17884 -1.92289 0
M  V30 1319 H 127.821 -2.35413 -1.04587 0
M  V30 1320 H 127.779 -1.6985 -2.64572 0
M  V30 1321 N 131.551 -0.354651 -1.53558 0
M  V30 1322 C 132.776 0.242153 -2.05981 0
M  V30 1323 C 133.201 1.42553 -1.2272 0
M  V30 1324 O 132.559 1.79656 -0.243604 0
M  V30 1325 C 132.607 0.624367 -3.55154 0
M  V30 1326 O 131.711 1.72301 -3.74681 0
M  V30 1327 H 131.052 0.0378432 -0.662921 0
M  V30 1328 H 133.582 -0.512087 -1.98088 0
M  V30 1329 H 133.592 0.898433 -3.97985 0
M  V30 1330 H 132.267 -0.240989 -4.15201 0
M  V30 1331 H 130.844 1.44535 -3.4375 0
M  V30 1332 N 133.029 1.57378 -0.0835403 0
M  V30 1333 C 134.257 1.98263 0.59157 0
M  V30 1334 C 134.672 0.962302 1.62435 0
M  V30 1335 O 134.029 -0.049581 1.82433 0
M  V30 1336 C 134.08 3.39214 1.24965 0
M  V30 1337 O 133.801 4.37339 0.258186 0
M  V30 1338 C 135.302 3.95038 2.01147 0
M  V30 1339 H 132.522 0.651773 0.159477 0
M  V30 1340 H 135.066 2.03878 -0.159415 0
M  V30 1341 H 133.221 3.34649 1.95164 0
M  V30 1342 H 133.635 5.19371 0.731734 0
M  V30 1343 H 135.109 4.95848 2.42567 0
M  V30 1344 H 135.586 3.32222 2.87272 0
M  V30 1345 H 136.192 4.0304 1.35789 0
M  V30 1346 N 134.507 -0.190092 1.56449 0
M  V30 1347 C 135.756 -0.907912 1.80111 0
M  V30 1348 C 136.069 -1.84214 0.657619 0
M  V30 1349 O 137.275 -2.60094 0.778663 0
M  V30 1350 C 135.731 -1.66485 3.19078 0
M  V30 1351 C 135.339 -0.7752 4.41242 0
M  V30 1352 C 137.083 -2.37201 3.52045 0
M  V30 1353 C 134.99 -1.53129 5.71231 0
M  V30 1354 H 133.92 -0.34276 0.671589 0
M  V30 1355 H 136.571 -0.161109 1.82791 0
M  V30 1356 H 134.953 -2.45572 3.10661 0
M  V30 1357 H 136.127 -0.0226298 4.60794 0
M  V30 1358 H 134.442 -0.178627 4.16017 0
M  V30 1359 H 137.039 -2.94329 4.46402 0
M  V30 1360 H 137.382 -3.11632 2.76028 0
M  V30 1361 H 137.915 -1.65075 3.61932 0
M  V30 1362 H 134.654 -0.82967 6.50228 0
M  V30 1363 H 134.174 -2.25767 5.55688 0
M  V30 1364 H 135.853 -2.08377 6.12526 0
M  V30 1365 N 135.985 -1.50799 -0.457987 0
M  V30 1366 C 137.213 -1.66218 -1.23203 0
M  V30 1367 C 137.628 -0.350894 -1.85511 0
M  V30 1368 O 136.985 0.668546 -1.69814 0
M  V30 1369 C 137.036 -2.76291 -2.33121 0
M  V30 1370 O 136.757 -4.02338 -1.73366 0
M  V30 1371 C 138.258 -3.028 -3.2377 0
M  V30 1372 H 135.478 -0.558361 -0.372121 0
M  V30 1373 H 138.022 -1.97099 -0.545179 0
M  V30 1374 H 136.177 -2.48068 -2.97558 0
M  V30 1375 H 136.591 -4.63312 -2.4585 0
M  V30 1376 H 138.065 -3.8345 -3.97077 0
M  V30 1377 H 138.542 -2.14385 -3.83322 0
M  V30 1378 H 139.148 -3.32604 -2.65056 0
M  V30 1379 N 137.463 0.71206 -1.40597 0
M  V30 1380 C 138.691 1.50111 -1.42388 0
M  V30 1381 C 139.106 1.88784 -0.0245395 0
M  V30 1382 O 138.463 1.55681 0.952351 0
M  V30 1383 C 138.514 2.7742 -2.31776 0
M  V30 1384 O 138.235 2.40382 -3.66262 0
M  V30 1385 C 139.736 3.7129 -2.42196 0
M  V30 1386 H 136.956 0.46314 -0.485533 0
M  V30 1387 H 139.5 0.878068 -1.8469 0
M  V30 1388 H 137.655 3.36001 -1.92827 0
M  V30 1389 H 138.069 3.22324 -4.13772 0
M  V30 1390 H 139.543 4.57448 -3.08943 0
M  V30 1391 H 140.02 4.14641 -1.44809 0
M  V30 1392 H 140.626 3.18619 -2.81712 0
M  V30 1393 N 138.941 1.26152 0.944643 0
M  V30 1394 C 139.873 1.03199 2.04652 0
M  V30 1395 C 140.886 -0.00642356 1.62799 0
M  V30 1396 O 142.075 0.233263 1.76969 0
M  V30 1397 C 139.175 0.540111 3.34568 0
M  V30 1398 C 138.348 1.64697 4.05208 0
M  V30 1399 C 137.407 1.15374 5.13396 0
M  V30 1400 O 136.433 1.85013 5.38293 0
M  V30 1401 N 137.635 0.00031529 5.805 0
M  V30 1402 H 140.4 1.9808 2.2491 0
M  V30 1403 H 137.961 1.17491 1.11389 0
M  V30 1404 H 139.953 0.194401 4.04233 0
M  V30 1405 H 138.523 -0.315021 3.11009 0
M  V30 1406 H 137.743 2.16379 3.29506 0
M  V30 1407 H 139.031 2.3903 4.49157 0
M  V30 1408 H 138.429 -0.581336 5.62705 0
M  V30 1409 H 136.986 -0.286346 6.51171 0
M  V30 1410 N 140.419 -1.14872 1.07899 0
M  V30 1411 C 141.329 -2.2341 0.715915 0
M  V30 1412 C 142.345 -1.71808 -0.275306 0
M  V30 1413 O 143.521 -2.01039 -0.120545 0
M  V30 1414 C 140.586 -3.46474 0.125168 0
M  V30 1415 C 139.647 -4.13039 1.17034 0
M  V30 1416 C 138.88 -5.30229 0.607688 0
M  V30 1417 O 139.103 -5.675 -0.574497 0
M  V30 1418 O 138.037 -5.86444 1.35526 0
M  V30 1419 H 141.863 -2.56808 1.62121 0
M  V30 1420 H 139.448 -1.22702 0.852322 0
M  V30 1421 H 141.33 -4.20917 -0.201729 0
M  V30 1422 H 140.005 -3.14811 -0.753364 0
M  V30 1423 H 138.912 -3.40493 1.54968 0
M  V30 1424 H 140.245 -4.48796 2.02097 0
M  V30 1425 N 141.898 -0.863906 -1.31812 0
M  V30 1426 C 142.861 -0.320212 -2.26952 0
M  V30 1427 C 143.861 0.525369 -1.51975 0
M  V30 1428 O 145.051 0.335547 -1.70938 0
M  V30 1429 C 142.183 0.545919 -3.365 0
M  V30 1430 H 143.376 -1.16004 -2.76556 0
M  V30 1431 H 140.929 -0.638995 -1.42641 0
M  V30 1432 H 141.664 1.40718 -2.92179 0
M  V30 1433 H 141.449 -0.0594674 -3.92055 0
M  V30 1434 H 142.939 0.918796 -4.07367 0
M  V30 1435 N 143.376 1.44774 -0.622745 0
M  V30 1436 C 144.339 2.29069 0.0774015 0
M  V30 1437 C 145.339 1.4059 0.780461 0
M  V30 1438 O 146.529 1.62551 0.626322 0
M  V30 1439 C 143.661 3.21974 1.12006 0
M  V30 1440 H 144.854 2.92459 -0.663901 0
M  V30 1441 H 142.407 1.51548 -0.382486 0
M  V30 1442 H 143.142 2.63417 1.89162 0
M  V30 1443 H 142.927 3.87168 0.619951 0
M  V30 1444 H 144.417 3.85318 1.60995 0
M  V30 1445 N 144.854 0.36279 1.53368 0
M  V30 1446 C 145.802 -0.500155 2.27159 0
M  V30 1447 C 146.796 -1.08575 1.3003 0
M  V30 1448 O 148.002 -1.02927 1.47668 0
M  V30 1449 H 144.377 -0.180009 0.730138 0
M  V30 1450 H 146.348 0.14401 2.98052 0
M  V30 1451 C 145.097 -1.62937 3.07159 0
M  V30 1452 H 144.42 -1.18806 3.8174 0
M  V30 1453 H 145.86 -2.20795 3.61975 0
M  V30 1454 C 144.319 -2.57007 2.17829 0
M  V30 1455 O 144.849 -3.59752 1.78721 0
M  V30 1456 N 143.055 -2.26131 1.82518 0
M  V30 1457 H 142.602 -1.42616 2.14519 0
M  V30 1458 H 142.56 -2.89327 1.23034 0
M  V30 1459 N 146.332 -1.57332 0.0918853 0
M  V30 1460 C 147.295 -2.12708 -0.85369 0
M  V30 1461 C 148.295 -1.05561 -1.213 0
M  V30 1462 O 149.485 -1.31461 -1.14296 0
M  V30 1463 C 146.617 -2.64503 -2.15061 0
M  V30 1464 H 147.81 -2.97573 -0.3729 0
M  V30 1465 H 145.363 -1.55509 -0.157072 0
M  V30 1466 H 146.098 -1.83149 -2.67632 0
M  V30 1467 H 145.883 -3.4284 -1.90272 0
M  V30 1468 H 147.373 -3.07351 -2.82711 0
M  V30 1469 N 147.81 0.181792 -1.56548 0
M  V30 1470 C 149.059 0.898348 -1.8059 0
M  V30 1471 C 149.372 1.83862 -0.667379 0
M  V30 1472 O 150.578 2.59678 -0.792446 0
M  V30 1473 C 149.034 1.64791 -3.19956 0
M  V30 1474 C 148.642 0.751789 -4.41647 0
M  V30 1475 C 150.386 2.35331 -3.53298 0
M  V30 1476 C 148.293 1.50098 -5.72035 0
M  V30 1477 H 147.223 0.339194 -0.673397 0
M  V30 1478 H 149.874 0.151413 -1.82874 0
M  V30 1479 H 148.256 2.43921 -3.11959 0
M  V30 1480 H 149.43 -0.0018076 -4.608 0
M  V30 1481 H 147.745 0.156562 -4.16106 0
M  V30 1482 H 150.342 2.91958 -4.47956 0
M  V30 1483 H 150.685 3.10164 -2.77676 0
M  V30 1484 H 151.218 1.63154 -3.62803 0
M  V30 1485 H 147.957 0.795175 -6.50659 0
M  V30 1486 H 147.477 2.22817 -5.56878 0
M  V30 1487 H 149.156 2.05125 -6.13622 0
M  V30 1488 N 149.288 1.51039 0.449983 0
M  V30 1489 C 150.534 1.63322 1.20223 0
M  V30 1490 C 150.867 0.34241 1.91158 0
M  V30 1491 O 150.142 -0.657344 1.83055 0
M  V30 1492 C 150.425 2.82801 2.22925 0
M  V30 1493 C 150.278 4.21823 1.56157 0
M  V30 1494 C 151.597 2.97807 3.24035 0
M  V30 1495 H 148.716 0.594407 0.435718 0
M  V30 1496 H 151.358 1.83489 0.493136 0
M  V30 1497 H 149.508 2.65738 2.834 0
M  V30 1498 H 151.18 4.50526 0.991162 0
M  V30 1499 H 149.423 4.25105 0.864172 0
M  V30 1500 H 150.094 5.01391 2.30891 0
M  V30 1501 H 152.57 3.13497 2.73603 0
M  V30 1502 H 151.446 3.82992 3.93202 0
M  V30 1503 H 151.707 2.09328 3.89402 0
M  V30 1504 N 150.766 -0.704594 1.40972 0
M  V30 1505 C 151.729 -1.80035 1.41845 0
M  V30 1506 C 152.729 -1.57774 0.310474 0
M  V30 1507 O 153.919 -1.64613 0.56992 0
M  V30 1508 C 151.051 -3.18284 1.22098 0
M  V30 1509 H 152.244 -1.80658 2.3938 0
M  V30 1510 H 149.797 -0.911329 1.26982 0
M  V30 1511 H 150.532 -3.23306 0.253672 0
M  V30 1512 H 150.317 -3.35843 2.02366 0
M  V30 1513 H 151.807 -3.98289 1.25522 0
M  V30 1514 N 152.244 -1.26651 -0.937939 0
M  V30 1515 C 153.474 -1.15006 -1.71631 0
M  V30 1516 C 153.882 0.297026 -1.86854 0
M  V30 1517 O 153.225 1.21493 -1.37786 0
M  V30 1518 C 153.287 -1.74984 -3.14039 0
M  V30 1519 C 152.951 -3.24103 -3.2219 0
M  V30 1520 C 153.948 -4.20877 -3.05219 0
M  V30 1521 C 151.633 -3.64625 -3.45476 0
M  V30 1522 C 153.627 -5.56151 -3.11408 0
M  V30 1523 C 151.314 -5.00032 -3.513 0
M  V30 1524 C 152.312 -5.95604 -3.34282 0
M  V30 1525 O 152 -7.28545 -3.3982 0
M  V30 1526 H 151.732 -0.401183 -0.544085 0
M  V30 1527 H 154.286 -1.67832 -1.18413 0
M  V30 1528 H 152.516 -1.16624 -3.68695 0
M  V30 1529 H 154.205 -1.58199 -3.73802 0
M  V30 1530 H 154.971 -3.90908 -2.87081 0
M  V30 1531 H 150.85 -2.90718 -3.57777 0
M  V30 1532 H 154.394 -6.30727 -2.98043 0
M  V30 1533 H 150.291 -5.29659 -3.68959 0
M  V30 1534 H 151.059 -7.3686 -3.56343 0
M  V30 1535 N 153.722 1.14298 -1.08507 0
M  V30 1536 C 154.97 1.84993 -0.813763 0
M  V30 1537 C 155.291 1.83405 0.662393 0
M  V30 1538 O 154.561 1.28319 1.48024 0
M  V30 1539 H 153.141 0.684966 -0.298045 0
M  V30 1540 H 155.803 1.385 -1.37126 0
M  V30 1541 H 154.899 2.89788 -1.15884 0
M  V30 1542 N 155.201 0.870884 1.31352 0
M  V30 1543 C 156.111 0.330783 2.32256 0
M  V30 1544 C 157.127 -0.559767 1.6475 0
M  V30 1545 O 158.303 -0.456263 1.96164 0
M  V30 1546 C 155.368 -0.458137 3.4366 0
M  V30 1547 C 154.429 0.460482 4.26823 0
M  V30 1548 C 153.662 -0.290881 5.32907 0
M  V30 1549 O 153.885 -1.51885 5.49806 0
M  V30 1550 O 152.819 0.351732 6.00871 0
M  V30 1551 H 156.645 1.16718 2.80376 0
M  V30 1552 H 154.23 0.634285 1.35267 0
M  V30 1553 H 156.112 -0.905343 4.1156 0
M  V30 1554 H 154.787 -1.27106 2.97701 0
M  V30 1555 H 153.694 0.956207 3.61673 0
M  V30 1556 H 155.027 1.23903 4.7635 0
M  V30 1557 N 156.679 -1.44442 0.630414 0
M  V30 1558 C 157.925 -2.02894 0.143332 0
M  V30 1559 C 158.28 -1.48697 -1.22094 0
M  V30 1560 O 157.573 -0.661171 -1.79831 0
M  V30 1561 C 157.767 -3.57332 0.0697835 0
M  V30 1562 C 157.596 -4.26512 1.42539 0
M  V30 1563 C 156.366 -4.63516 2.01198 0
M  V30 1564 C 158.564 -4.57004 2.35907 0
M  V30 1565 N 156.546 -5.17661 3.30001 0
M  V30 1566 C 157.917 -5.12223 3.49324 0
M  V30 1567 C 159.972 -4.38955 2.34995 0
M  V30 1568 C 158.675 -5.51295 4.62024 0
M  V30 1569 C 160.701 -4.79075 3.46758 0
M  V30 1570 C 160.063 -5.34407 4.58899 0
M  V30 1571 H 156.162 -0.776041 0.0963523 0
M  V30 1572 H 158.746 -1.75945 0.833752 0
M  V30 1573 H 156.917 -3.83894 -0.589915 0
M  V30 1574 H 158.649 -4.02451 -0.42606 0
M  V30 1575 H 155.404 -4.47811 1.54151 0
M  V30 1576 H 155.828 -5.4921 3.95851 0
M  V30 1577 H 160.47 -3.95469 1.49545 0
M  V30 1578 H 158.188 -5.93736 5.48182 0
M  V30 1579 H 161.774 -4.66824 3.47227 0
M  V30 1580 H 160.654 -5.64878 5.4395 0
M  V30 1581 N 158.157 -0.370918 -1.53173 0
M  V30 1582 C 159.568 0.107139 -1.86392 0
M  V30 1583 C 159.919 1.47714 -1.29132 0
M  V30 1584 O 159.044 2.07464 -0.615439 0
M  V30 1585 C 159.639 0.201187 -3.38202 0
M  V30 1586 C 158.198 0.623507 -3.712 0
M  V30 1587 C 157.345 -0.225978 -2.76378 0
M  V30 1588 H 160.296 -0.58951 -1.47345 0
M  V30 1589 H 160.317 1.02377 -3.66468 0
M  V30 1590 H 159.829 -0.796058 -3.79848 0
M  V30 1591 H 157.93 1.62879 -3.35114 0
M  V30 1592 H 158.043 0.394414 -4.77474 0
M  V30 1593 H 156.407 0.305962 -2.52856 0
M  V30 1594 H 157.19 -1.22086 -3.20858 0
M  V30 1595 N 159.635 1.57281 -0.100228 0
M  V30 1596 C 160.863 1.98879 0.570509 0
M  V30 1597 C 161.278 0.979476 1.61405 0
M  V30 1598 O 160.635 -0.0302288 1.82475 0
M  V30 1599 C 160.686 3.4052 1.2136 0
M  V30 1600 O 160.407 4.37588 0.211786 0
M  V30 1601 C 161.908 3.97149 1.96945 0
M  V30 1602 H 159.128 0.653428 0.152555 0
M  V30 1603 H 161.672 2.03697 -0.18103 0
M  V30 1604 H 159.827 3.367 1.91603 0
M  V30 1605 H 160.241 5.20118 0.676607 0
M  V30 1606 H 161.715 4.98393 2.37294 0
M  V30 1607 H 162.192 3.3525 2.83733 0
M  V30 1608 H 162.798 4.04458 1.31506 0
M  V30 1609 N 161.113 -0.173488 1.56642 0
M  V30 1610 C 162.343 -0.904781 1.85734 0
M  V30 1611 C 162.751 -1.76431 0.68328 0
M  V30 1612 O 162.094 -1.802 -0.356865 0
M  V30 1613 C 162.156 -1.83382 3.09211 0
M  V30 1614 C 161.82 -1.15411 4.42187 0
M  V30 1615 C 162.817 -0.520609 5.17287 0
M  V30 1616 C 160.502 -1.15151 4.88923 0
M  V30 1617 C 162.496 0.106412 6.37311 0
M  V30 1618 C 160.183 -0.520664 6.08878 0
M  V30 1619 C 161.181 0.107196 6.82916 0
M  V30 1620 O 160.869 0.728102 8.00596 0
M  V30 1621 H 160.601 -0.268408 0.62043 0
M  V30 1622 H 163.155 -0.179096 2.04618 0
M  V30 1623 H 161.385 -2.59976 2.86268 0
M  V30 1624 H 163.074 -2.43476 3.24768 0
M  V30 1625 H 163.84 -0.514606 4.82262 0
M  V30 1626 H 159.719 -1.62961 4.31236 0
M  V30 1627 H 163.263 0.597081 6.9504 0
M  V30 1628 H 159.16 -0.524242 6.43368 0
M  V30 1629 H 159.928 0.627138 8.16094 0
M  V30 1630 N 162.591 -1.51276 -0.441967 0
M  V30 1631 C 163.84 -1.6295 -1.18871 0
M  V30 1632 C 164.153 -0.349312 -1.92456 0
M  V30 1633 O 165.359 -0.345355 -2.69295 0
M  V30 1634 C 163.815 -2.87759 -2.16155 0
M  V30 1635 C 163.423 -4.22764 -1.48239 0
M  V30 1636 C 165.167 -3.08788 -2.91291 0
M  V30 1637 C 163.074 -5.38728 -2.4398 0
M  V30 1638 H 162.004 -0.606913 -0.447406 0
M  V30 1639 H 164.655 -1.77739 -0.456205 0
M  V30 1640 H 163.037 -2.66593 -2.92821 0
M  V30 1641 H 164.211 -4.54293 -0.771635 0
M  V30 1642 H 162.526 -4.07575 -0.852741 0
M  V30 1643 H 165.123 -3.92599 -3.63002 0
M  V30 1644 H 165.466 -2.21679 -3.5237 0
M  V30 1645 H 165.999 -3.30272 -2.21733 0
M  V30 1646 H 162.738 -6.28082 -1.87598 0
M  V30 1647 H 162.258 -5.1158 -3.13123 0
M  V30 1648 H 163.937 -5.70489 -3.05207 0
M  V30 1649 N 164.069 0.697108 -1.41344 0
M  V30 1650 C 165.017 1.83237 -1.43272 0
M  V30 1651 C 166.011 1.66522 -0.310947 0
M  V30 1652 O 167.217 1.73402 -0.482899 0
M  V30 1653 H 163.592 0.603802 -0.448249 0
M  V30 1654 H 165.563 1.78727 -2.38954 0
M  V30 1655 C 164.312 3.21245 -1.33029 0
M  V30 1656 H 163.635 3.34723 -2.18633 0
M  V30 1657 H 165.075 4.00763 -1.38439 0
M  V30 1658 C 163.534 3.36873 -0.0424635 0
M  V30 1659 O 164.064 3.91177 0.913421 0
M  V30 1660 N 162.27 2.90581 0.0331145 0
M  V30 1661 H 161.817 2.46577 -0.745506 0
M  V30 1662 H 161.775 3.01416 0.894199 0
M  V30 1663 N 165.547 1.27147 0.931209 0
M  V30 1664 C 166.824 1.0401 1.65654 0
M  V30 1665 C 167.204 -0.426297 2.06751 0
M  V30 1666 O 166.552 -1.40879 1.79904 0
M  V30 1667 C 166.762 1.99834 2.86125 0
M  V30 1668 C 168.11 2.29007 3.57549 0
M  V30 1669 O 169.134 1.97779 2.96246 0
M  V30 1670 O 167.993 2.82222 4.67989 0
M  V30 1671 H 165.087 0.396239 0.725895 0
M  V30 1672 H 167.633 1.38397 0.982056 0
M  V30 1673 H 166.405 2.98744 2.52721 0
M  V30 1674 H 166.028 1.65987 3.61295 0
M  V30 1675 N 167.025 -1.13721 1.09112 0
M  V30 1676 C 168.25 -1.89314 0.847053 0
M  V30 1677 C 168.675 -1.78416 -0.595774 0
M  V30 1678 O 168.033 -1.12942 -1.41823 0
M  V30 1679 C 168.081 -3.3701 1.28284 0
M  V30 1680 O 167.185 -4.10054 0.439267 0
M  V30 1681 H 166.526 -0.588745 0.307044 0
M  V30 1682 H 169.056 -1.43902 1.45442 0
M  V30 1683 H 169.066 -3.87834 1.26683 0
M  V30 1684 H 167.741 -3.4426 2.33363 0
M  V30 1685 H 166.318 -3.69266 0.519312 0
M  V30 1686 N 168.503 -0.877838 -1.30888 0
M  V30 1687 C 169.413 -0.343096 -2.32078 0
M  V30 1688 C 170.429 0.551022 -1.65045 0
M  V30 1689 O 171.605 0.445854 -1.96403 0
M  V30 1690 C 168.67 0.439905 -3.43898 0
M  V30 1691 C 167.731 -0.483111 -4.26573 0
M  V30 1692 C 166.964 0.262616 -5.33053 0
M  V30 1693 O 167.187 1.48967 -5.50604 0
M  V30 1694 O 166.121 -0.383593 -6.00676 0
M  V30 1695 H 169.947 -1.18203 -2.79753 0
M  V30 1696 H 167.532 -0.64145 -1.34929 0
M  V30 1697 H 169.414 0.883504 -4.12034 0
M  V30 1698 H 168.089 1.25526 -2.98371 0
M  V30 1699 H 166.996 -0.975374 -3.61161 0
M  V30 1700 H 168.329 -1.26427 -4.75686 0
M  V30 1701 N 169.982 1.44106 -0.638065 0
M  V30 1702 C 170.945 2.29138 0.0531013 0
M  V30 1703 C 171.945 1.41409 0.765506 0
M  V30 1704 O 173.135 1.63206 0.609046 0
M  V30 1705 C 170.267 3.23144 1.08584 0
M  V30 1706 H 171.46 2.91739 -0.694883 0
M  V30 1707 H 169.013 1.51134 -0.398538 0
M  V30 1708 H 169.748 2.65408 1.86357 0
M  V30 1709 H 169.533 3.87804 0.578852 0
M  V30 1710 H 171.023 3.87004 1.56899 0
M  V30 1711 N 171.46 0.379036 1.52974 0
M  V30 1712 C 172.408 -0.476033 2.27677 0
M  V30 1713 C 173.402 -1.0719 1.31174 0
M  V30 1714 O 174.608 -1.01355 1.48752 0
M  V30 1715 H 170.983 -0.172255 0.732006 0
M  V30 1716 H 172.954 0.175615 2.97883 0
M  V30 1717 C 171.703 -1.5967 3.0887 0
M  V30 1718 H 171.026 -1.1475 3.82978 0
M  V30 1719 H 172.466 -2.16943 3.64296 0
M  V30 1720 C 170.925 -2.54682 2.20542 0
M  V30 1721 O 171.455 -3.57836 1.82527 0
M  V30 1722 N 169.661 -2.24183 1.84907 0
M  V30 1723 H 169.208 -1.40333 2.1602 0
M  V30 1724 H 169.166 -2.88006 1.26096 0
M  V30 1725 N 172.938 -1.57226 0.108567 0
M  V30 1726 C 174.349 -1.8195 -0.418464 0
M  V30 1727 C 174.7 -1.02508 -1.67292 0
M  V30 1728 O 173.825 -0.258496 -2.14851 0
M  V30 1729 C 174.42 -3.30028 -0.765979 0
M  V30 1730 C 172.979 -3.55469 -1.23769 0
M  V30 1731 C 172.126 -2.7625 -0.241106 0
M  V30 1732 H 175.077 -1.55149 0.33384 0
M  V30 1733 H 175.098 -3.44086 -1.62434 0
M  V30 1734 H 174.61 -3.87821 0.147219 0
M  V30 1735 H 172.711 -3.03022 -2.16814 0
M  V30 1736 H 172.824 -4.6408 -1.19022 0
M  V30 1737 H 171.188 -2.44133 -0.72602 0
M  V30 1738 H 171.971 -3.36797 0.665007 0
M  V30 1739 N 174.416 0.165178 -1.56732 0
M  V30 1740 C 175.662 0.882112 -1.82611 0
M  V30 1741 C 175.995 1.81628 -0.687378 0
M  V30 1742 O 175.27 1.92009 0.310267 0
M  V30 1743 C 175.553 1.67245 -3.18906 0
M  V30 1744 C 175.406 0.760987 -4.43316 0
M  V30 1745 C 176.725 2.63884 -3.52212 0
M  V30 1746 H 173.844 0.319242 -0.664269 0
M  V30 1747 H 176.486 0.148052 -1.89422 0
M  V30 1748 H 174.636 2.29824 -3.1323 0
M  V30 1749 H 176.308 0.147596 -4.61064 0
M  V30 1750 H 174.551 0.0694102 -4.33744 0
M  V30 1751 H 175.222 1.34962 -5.35247 0
M  V30 1752 H 177.698 2.11429 -3.58381 0
M  V30 1753 H 176.574 3.16245 -4.48643 0
M  V30 1754 H 176.835 3.44377 -2.77231 0
M  V30 1755 N 175.894 1.51508 0.433938 0
M  V30 1756 C 177.171 1.54888 1.19453 0
M  V30 1757 C 177.551 0.315154 2.08734 0
M  V30 1758 O 176.899 -0.699558 2.17528 0
M  V30 1759 C 177.109 2.86467 1.99342 0
M  V30 1760 C 178.457 3.38545 2.56267 0
M  V30 1761 O 179.481 2.88041 2.0955 0
M  V30 1762 O 178.34 4.26675 3.41483 0
M  V30 1763 H 175.434 0.622863 0.544032 0
M  V30 1764 H 177.98 1.63823 0.442732 0
M  V30 1765 H 176.752 3.67718 1.33788 0
M  V30 1766 H 176.375 2.8071 2.8158 0
M  V30 1767 N 177.372 -0.689602 1.41712 0
M  V30 1768 C 178.335 -1.78521 1.43746 0
M  V30 1769 C 179.335 -1.57436 0.327191 0
M  V30 1770 O 180.525 -1.64 0.587348 0
M  V30 1771 C 177.657 -3.16971 1.25467 0
M  V30 1772 H 178.85 -1.78108 2.41283 0
M  V30 1773 H 176.403 -0.89781 1.27942 0
M  V30 1774 H 177.138 -3.23019 0.287948 0
M  V30 1775 H 176.923 -3.33678 2.05917 0
M  V30 1776 H 178.413 -3.96935 1.2974 0
M  V30 1777 N 178.85 -1.27639 -0.924453 0
M  V30 1778 C 180.261 -1.12834 -1.48746 0
M  V30 1779 C 180.612 0.285505 -1.94112 0
M  V30 1780 O 179.737 1.17874 -1.81479 0
M  V30 1781 C 180.332 -2.04217 -2.70334 0
M  V30 1782 C 178.891 -1.93509 -3.22848 0
M  V30 1783 C 178.038 -1.96583 -1.95577 0
M  V30 1784 H 180.989 -1.40484 -0.738233 0
M  V30 1785 H 181.01 -1.59989 -3.4523 0
M  V30 1786 H 180.522 -3.07111 -2.37285 0
M  V30 1787 H 178.623 -0.936131 -3.60649 0
M  V30 1788 H 178.736 -2.79917 -3.88823 0
M  V30 1789 H 177.1 -1.4085 -2.12211 0
M  V30 1790 H 177.883 -3.01137 -1.64837 0
M  V30 1791 N 180.328 1.1314 -1.09713 0
M  V30 1792 C 181.556 1.88321 -0.856898 0
M  V30 1793 C 181.971 1.79276 0.592073 0
M  V30 1794 O 181.328 1.16142 1.40774 0
M  V30 1795 C 181.379 3.37812 -1.28706 0
M  V30 1796 O 181.1 3.46627 -2.67921 0
M  V30 1797 C 182.601 4.29952 -1.07964 0
M  V30 1798 H 179.821 0.596094 -0.308079 0
M  V30 1799 H 182.365 1.43205 -1.45988 0
M  V30 1800 H 180.52 3.805 -0.727912 0
M  V30 1801 H 180.934 4.39579 -2.8613 0
M  V30 1802 H 182.408 5.33159 -1.42986 0
M  V30 1803 H 182.885 4.39196 -0.0176577 0
M  V30 1804 H 183.491 3.93036 -1.62489 0
M  V30 1805 N 181.806 0.884767 1.30421 0
M  V30 1806 C 182.716 0.355398 2.31892 0
M  V30 1807 C 183.732 -0.542261 1.65335 0
M  V30 1808 O 184.908 -0.435432 1.96637 0
M  V30 1809 C 181.973 -0.421661 3.44126 0
M  V30 1810 C 181.034 0.505727 4.26311 0
M  V30 1811 C 180.267 -0.234343 5.33185 0
M  V30 1812 O 180.49 -1.46045 5.51386 0
M  V30 1813 O 179.424 0.415443 6.00465 0
M  V30 1814 H 183.25 1.19685 2.79122 0
M  V30 1815 H 180.835 0.648596 1.34587 0
M  V30 1816 H 182.717 -0.861641 4.12497 0
M  V30 1817 H 181.392 -1.23942 2.99032 0
M  V30 1818 H 180.299 0.994513 3.60639 0
M  V30 1819 H 181.632 1.28948 4.75009 0
M  V30 1820 N 183.284 -1.43765 0.645699 0
M  V30 1821 C 184.695 -1.85193 0.236719 0
M  V30 1822 C 185.046 -1.54045 -1.21509 0
M  V30 1823 O 184.171 -0.985694 -1.92647 0
M  V30 1824 C 184.766 -3.36151 0.422845 0
M  V30 1825 C 183.325 -3.76338 0.0682492 0
M  V30 1826 C 182.472 -2.67538 0.729306 0
M  V30 1827 H 185.423 -1.34025 0.849883 0
M  V30 1828 H 185.444 -3.79032 -0.333904 0
M  V30 1829 H 184.956 -3.5879 1.47958 0
M  V30 1830 H 183.057 -3.59312 -0.986179 0
M  V30 1831 H 183.17 -4.76603 0.488469 0
M  V30 1832 H 181.534 -2.54176 0.163235 0
M  V30 1833 H 182.317 -2.93006 1.78892 0
M  V30 1834 N 184.763 -0.387143 -1.52771 0
M  V30 1835 C 186.04 0.253197 -1.93954 0
M  V30 1836 C 186.42 1.64545 -1.32243 0
M  V30 1837 O 185.768 2.23191 -0.489699 0
M  V30 1838 C 185.978 0.281722 -3.47861 0
M  V30 1839 C 187.326 0.511715 -4.21505 0
M  V30 1840 O 188.35 0.362023 -3.54356 0
M  V30 1841 O 187.209 0.804847 -5.40541 0
M  V30 1842 H 184.303 0.156845 -0.811991 0
M  V30 1843 H 186.849 -0.441494 -1.63856 0
M  V30 1844 H 185.621 -0.693571 -3.85104 0
M  V30 1845 H 185.244 1.02142 -3.84256 0
M  V30 1846 N 186.241 1.57166 -0.116904 0
M  V30 1847 C 187.487 1.95412 0.542405 0
M  V30 1848 C 187.82 1.00019 1.66463 0
M  V30 1849 O 187.095 0.0370346 1.94465 0
M  V30 1850 C 187.378 3.43615 1.07708 0
M  V30 1851 C 187.231 4.49781 -0.0415868 0
M  V30 1852 C 188.55 3.93616 1.96861 0
M  V30 1853 H 185.669 0.710543 0.195696 0
M  V30 1854 H 188.311 1.89027 -0.192038 0
M  V30 1855 H 186.461 3.49187 1.70296 0
M  V30 1856 H 188.133 4.56308 -0.676793 0
M  V30 1857 H 186.376 4.28033 -0.705019 0
M  V30 1858 H 187.047 5.50733 0.373717 0
M  V30 1859 H 189.523 3.90335 1.44146 0
M  V30 1860 H 188.399 4.97838 2.3119 0
M  V30 1861 H 188.66 3.34188 2.89432 0
M  V30 1862 N 187.719 -0.156864 1.56817 0
M  V30 1863 C 188.944 -0.890331 1.87318 0
M  V30 1864 C 189.369 -1.74394 0.704855 0
M  V30 1865 O 188.727 -1.77972 -0.345786 0
M  V30 1866 C 188.775 -1.73102 3.16336 0
M  V30 1867 O 187.879 -2.83422 2.99576 0
M  V30 1868 H 187.22 -0.24857 0.615718 0
M  V30 1869 H 189.75 -0.150649 2.04045 0
M  V30 1870 H 189.76 -2.12803 3.48107 0
M  V30 1871 H 188.435 -1.10412 4.00976 0
M  V30 1872 H 187.012 -2.47199 2.7919 0
M  V30 1873 N 189.197 -1.51736 -0.425897 0
M  V30 1874 C 190.422 -1.69082 -1.20108 0
M  V30 1875 C 190.847 -0.392398 -1.83962 0
M  V30 1876 O 190.205 0.64858 -1.69302 0
M  V30 1877 C 190.253 -2.81604 -2.25237 0
M  V30 1878 O 189.357 -2.46004 -3.30992 0
M  V30 1879 H 188.698 -0.563408 -0.35138 0
M  V30 1880 H 191.228 -1.98358 -0.501512 0
M  V30 1881 H 191.238 -3.06025 -2.69838 0
M  V30 1882 H 189.913 -3.75817 -1.78142 0
M  V30 1883 H 188.49 -2.32195 -2.91787 0
M  V30 1884 N 190.675 0.682077 -1.42076 0
M  V30 1885 C 191.623 1.81707 -1.45208 0
M  V30 1886 C 192.617 1.66183 -0.328591 0
M  V30 1887 O 193.823 1.7288 -0.501264 0
M  V30 1888 H 190.198 0.599014 -0.454628 0
M  V30 1889 H 192.169 1.76183 -2.40836 0
M  V30 1890 C 190.918 3.19816 -1.36428 0
M  V30 1891 H 190.241 3.32385 -2.22171 0
M  V30 1892 H 191.681 3.99272 -1.42681 0
M  V30 1893 C 190.14 3.36809 -0.078191 0
M  V30 1894 O 190.67 3.92124 0.87188 0
M  V30 1895 N 188.876 2.906 0.00229266 0
M  V30 1896 H 188.423 2.45772 -0.771616 0
M  V30 1897 H 188.381 3.02347 0.862179 0
M  V30 1898 N 192.153 1.28127 0.917671 0
M  V30 1899 C 193.569 1.05749 1.19538 0
M  V30 1900 C 193.769 -0.202633 2.00479 0
M  V30 1901 O 192.825 -0.905382 2.3571 0
M  V30 1902 C 194.138 2.30273 1.93378 0
M  V30 1903 C 195.686 2.35412 2.06277 0
M  V30 1904 C 196.161 3.59692 2.83524 0
M  V30 1905 N 197.652 3.60309 2.91087 0
M  V30 1906 C 198.387 4.53147 3.51348 0
M  V30 1907 N 197.883 5.563 4.12919 0
M  V30 1908 N 199.676 4.40751 3.48849 0
M  V30 1909 H 191.827 2.09024 0.377184 0
M  V30 1910 H 194.09 0.919798 0.22951 0
M  V30 1911 H 193.796 3.22055 1.41328 0
M  V30 1912 H 193.67 2.36378 2.93947 0
M  V30 1913 H 196.057 1.4413 2.57508 0
M  V30 1914 H 196.138 2.33304 1.04895 0
M  V30 1915 H 195.782 4.51316 2.32973 0
M  V30 1916 H 195.712 3.59054 3.85211 0
M  V30 1917 H 198.203 2.85714 2.47338 0
M  V30 1918 H 198.516 6.2329 4.56869 0
M  V30 1919 H 196.861 5.60131 4.11435 0
M  V30 1920 H 200.052 3.59367 2.99955 0
M  V30 1921 H 200.225 5.13291 3.9552 0
M  V30 1922 N 193.631 -1.12557 1.10312 0
M  V30 1923 C 194.878 -1.84038 0.844759 0
M  V30 1924 C 195.206 -1.84026 -0.629668 0
M  V30 1925 O 194.461 -1.28026 -1.48013 0
M  V30 1926 C 194.76 -3.31462 1.33669 0
M  V30 1927 C 194.426 -3.51647 2.82232 0
M  V30 1928 C 193.088 -3.56864 3.22802 0
M  V30 1929 C 195.44 -3.58867 3.77974 0
M  V30 1930 C 192.768 -3.66844 4.57867 0
M  V30 1931 C 195.12 -3.70375 5.1284 0
M  V30 1932 C 193.784 -3.73848 5.52986 0
M  V30 1933 H 193.054 -0.673444 0.309119 0
M  V30 1934 H 195.701 -1.32824 1.37949 0
M  V30 1935 H 194.006 -3.85091 0.721949 0
M  V30 1936 H 195.703 -3.85236 1.11329 0
M  V30 1937 H 192.293 -3.48249 2.49842 0
M  V30 1938 H 196.477 -3.54107 3.47738 0
M  V30 1939 H 191.733 -3.67804 4.88396 0
M  V30 1940 H 195.907 -3.74904 5.86873 0
M  V30 1941 H 193.534 -3.81333 6.57639 0
M  V30 1942 N 195.109 -0.891671 -1.2995 0
M  V30 1943 C 196.339 -0.527893 -1.99742 0
M  V30 1944 C 196.747 0.88979 -1.66971 0
M  V30 1945 O 196.09 1.59766 -0.906667 0
M  V30 1946 C 196.152 -0.630804 -3.53922 0
M  V30 1947 C 195.816 -2.01401 -4.10228 0
M  V30 1948 C 196.813 -2.98422 -4.25724 0
M  V30 1949 C 194.498 -2.32121 -4.45449 0
M  V30 1950 C 196.492 -4.24293 -4.75662 0
M  V30 1951 C 194.179 -3.58237 -4.95086 0
M  V30 1952 C 195.177 -4.54137 -5.10146 0
M  V30 1953 O 194.865 -5.78014 -5.58708 0
M  V30 1954 H 194.597 -0.201953 -0.645129 0
M  V30 1955 H 197.151 -1.20076 -1.66646 0
M  V30 1956 H 195.381 0.0990616 -3.86573 0
M  V30 1957 H 197.07 -0.277338 -4.04951 0
M  V30 1958 H 197.836 -2.76001 -3.98809 0
M  V30 1959 H 193.715 -1.5824 -4.32991 0
M  V30 1960 H 197.259 -4.99153 -4.87332 0
M  V30 1961 H 193.156 -3.80491 -5.21437 0
M  V30 1962 H 193.924 -5.8049 -5.77039 0
M  V30 1963 N 196.587 1.43421 -0.653314 0
M  V30 1964 C 197.815 2.06163 -0.174491 0
M  V30 1965 C 198.23 1.48969 1.1599 0
M  V30 1966 O 197.587 0.621042 1.71608 0
M  V30 1967 C 197.638 3.61417 -0.0774865 0
M  V30 1968 O 197.359 4.16485 -1.35912 0
M  V30 1969 C 198.86 4.41235 0.427402 0
M  V30 1970 H 196.08 0.664946 -0.0899353 0
M  V30 1971 H 198.624 1.83924 -0.893988 0
M  V30 1972 H 196.779 3.82841 0.59257 0
M  V30 1973 H 197.193 5.10153 -1.21839 0
M  V30 1974 H 198.667 5.5021 0.44423 0
M  V30 1975 H 199.144 4.14268 1.45873 0
M  V30 1976 H 199.75 4.2478 -0.210167 0
M  V30 1977 N 198.065 0.39524 1.52563 0
M  V30 1978 C 198.995 -0.428384 2.29537 0
M  V30 1979 C 199.976 -1.05831 1.33169 0
M  V30 1980 O 201.161 -1.06995 1.62067 0
M  V30 1981 C 198.291 -1.55274 3.10656 0
M  V30 1982 C 197.245 -1.04855 4.14957 0
M  V30 1983 C 196.571 -2.26543 4.84337 0
M  V30 1984 C 197.871 -0.112324 5.22179 0
M  V30 1985 H 199.565 0.213867 2.98635 0
M  V30 1986 H 197.111 0.104298 1.43622 0
M  V30 1987 H 199.064 -2.1358 3.63265 0
M  V30 1988 H 197.788 -2.22266 2.39302 0
M  V30 1989 H 196.447 -0.487985 3.63338 0
M  V30 1990 H 196.095 -2.92059 4.09525 0
M  V30 1991 H 195.795 -1.93466 5.54837 0
M  V30 1992 H 197.319 -2.85481 5.39753 0
M  V30 1993 H 198.733 -0.603752 5.70112 0
M  V30 1994 H 197.13 0.128968 5.99961 0
M  V30 1995 H 198.2 0.837052 4.77621 0
M  V30 1996 N 199.544 -1.57102 0.125237 0
M  V30 1997 C 200.454 -2.19191 -0.8362 0
M  V30 1998 C 201.47 -1.16985 -1.28805 0
M  V30 1999 O 202.646 -1.49479 -1.34974 0
M  V30 2000 C 199.711 -2.78407 -2.06617 0
M  V30 2001 C 198.772 -3.9567 -1.66565 0
M  V30 2002 C 198.005 -4.52052 -2.83698 0
M  V30 2003 O 198.228 -4.07326 -3.99302 0
M  V30 2004 O 197.162 -5.42645 -2.60423 0
M  V30 2005 H 200.988 -3.01816 -0.337776 0
M  V30 2006 H 198.573 -1.4906 -0.100695 0
M  V30 2007 H 200.455 -3.16129 -2.7864 0
M  V30 2008 H 199.13 -1.9881 -2.55453 0
M  V30 2009 H 198.037 -3.62705 -0.916296 0
M  V30 2010 H 199.37 -4.76722 -1.22464 0
M  V30 2011 N 201.022 0.148545 -1.56898 0
M  V30 2012 C 202.247 0.880385 -1.87787 0
M  V30 2013 C 202.672 1.74018 -0.714093 0
M  V30 2014 O 202.03 1.78153 0.336343 0
M  V30 2015 C 202.078 1.71422 -3.17249 0
M  V30 2016 O 201.182 2.8183 -3.01074 0
M  V30 2017 H 200.523 0.245301 -0.617028 0
M  V30 2018 H 203.053 0.139826 -2.04122 0
M  V30 2019 H 203.063 2.10954 -3.49231 0
M  V30 2020 H 201.738 1.08284 -4.01556 0
M  V30 2021 H 200.315 2.45715 -2.80497 0
M  V30 2022 N 202.5 1.5196 0.417844 0
M  V30 2023 C 203.746 1.65836 1.16732 0
M  V30 2024 C 204.079 0.382881 1.90388 0
M  V30 2025 O 203.354 -0.618368 1.84408 0
M  V30 2026 C 203.637 2.87466 2.16876 0
M  V30 2027 C 203.49 4.25041 1.47174 0
M  V30 2028 C 204.809 3.04613 3.17646 0
M  V30 2029 H 201.928 0.603515 0.423011 0
M  V30 2030 H 204.57 1.84494 0.454105 0
M  V30 2031 H 202.72 2.71689 2.777 0
M  V30 2032 H 204.392 4.52527 0.895376 0
M  V30 2033 H 202.635 4.26843 0.773806 0
M  V30 2034 H 203.306 5.06176 2.20204 0
M  V30 2035 H 205.782 3.1923 2.66892 0
M  V30 2036 H 204.658 3.91247 3.8499 0
M  V30 2037 H 204.919 2.17541 3.84874 0
M  V30 2038 N 203.978 -0.674533 1.42435 0
M  V30 2039 C 205.203 -1.46784 1.46524 0
M  V30 2040 C 205.628 -1.87938 0.078066 0
M  V30 2041 O 204.986 -1.56014 -0.92354 0
M  V30 2042 C 205.034 -2.69307 2.39805 0
M  V30 2043 O 204.138 -3.67587 1.86959 0
M  V30 2044 H 203.479 -0.440959 0.496439 0
M  V30 2045 H 206.009 -0.827326 1.87127 0
M  V30 2046 H 206.019 -3.17374 2.56393 0
M  V30 2047 H 204.694 -2.38692 3.40586 0
M  V30 2048 H 203.271 -3.2662 1.79927 0
M  V30 2049 N 205.456 -1.28612 -0.910864 0
M  V30 2050 C 206.702 -1.17116 -1.66299 0
M  V30 2051 C 207.057 0.276917 -1.90397 0
M  V30 2052 O 206.35 1.19795 -1.49532 0
M  V30 2053 C 206.544 -1.90624 -3.0232 0
M  V30 2054 C 206.373 -3.42431 -2.91498 0
M  V30 2055 C 205.143 -4.11773 -2.92867 0
M  V30 2056 C 207.341 -4.38124 -2.69355 0
M  V30 2057 N 205.323 -5.50025 -2.72664 0
M  V30 2058 C 206.694 -5.63759 -2.58023 0
M  V30 2059 C 208.749 -4.28016 -2.54375 0
M  V30 2060 C 207.452 -6.80436 -2.33238 0
M  V30 2061 C 209.478 -5.44433 -2.30969 0
M  V30 2062 C 208.84 -6.69034 -2.20394 0
M  V30 2063 H 204.939 -0.483506 -0.61461 0
M  V30 2064 H 207.523 -1.62299 -1.0755 0
M  V30 2065 H 205.694 -1.4787 -3.5915 0
M  V30 2066 H 207.426 -1.71488 -3.66571 0
M  V30 2067 H 204.181 -3.63378 -3.03732 0
M  V30 2068 H 204.605 -6.22705 -2.65646 0
M  V30 2069 H 209.247 -3.32388 -2.613 0
M  V30 2070 H 206.965 -7.7613 -2.25051 0
M  V30 2071 H 210.551 -5.38504 -2.20238 0
M  V30 2072 H 209.431 -7.57595 -2.02531 0
M  V30 2073 N 206.934 1.1197 -1.10907 0
M  V30 2074 C 207.881 2.17846 -0.762345 0
M  V30 2075 C 208.851 1.63995 0.263599 0
M  V30 2076 O 210.036 1.90273 0.141773 0
M  V30 2077 C 207.176 3.44487 -0.205651 0
M  V30 2078 C 206.289 4.12369 -1.28748 0
M  V30 2079 C 205.424 5.26674 -0.691919 0
M  V30 2080 C 204.463 5.86431 -1.75399 0
M  V30 2081 N 203.6 6.92142 -1.17833 0
M  V30 2082 H 208.44 2.46851 -1.6694 0
M  V30 2083 H 205.977 1.21188 -0.833776 0
M  V30 2084 H 207.935 4.16981 0.135037 0
M  V30 2085 H 206.565 3.15884 0.664613 0
M  V30 2086 H 205.617 3.38003 -1.74522 0
M  V30 2087 H 206.929 4.52844 -2.09125 0
M  V30 2088 H 206.083 6.05953 -0.300963 0
M  V30 2089 H 204.822 4.8749 0.143232 0
M  V30 2090 H 203.827 5.05835 -2.15432 0
M  V30 2091 H 205.052 6.27685 -2.59208 0
M  V30 2092 H 202.998 6.54985 -0.364725 0
M  V30 2093 H 202.915 7.31242 -1.91887 0
M  V30 2094 H 204.183 7.75237 -0.81408 0
M  V30 2095 N 208.412 0.89855 1.29475 0
M  V30 2096 C 209.64 0.539261 1.99749 0
M  V30 2097 C 210.055 -0.875716 1.67262 0
M  V30 2098 O 209.412 -1.57786 0.917049 0
M  V30 2099 C 209.463 0.72061 3.54245 0
M  V30 2100 O 209.184 2.07989 3.8558 0
M  V30 2101 C 210.685 0.366118 4.41786 0
M  V30 2102 H 207.905 0.207047 0.638258 0
M  V30 2103 H 210.449 1.20758 1.65039 0
M  V30 2104 H 208.604 0.0994862 3.87272 0
M  V30 2105 H 209.018 2.10841 4.80257 0
M  V30 2106 H 210.492 0.543848 5.49314 0
M  V30 2107 H 210.969 -0.696763 4.33638 0
M  V30 2108 H 211.575 0.964135 4.14228 0
M  V30 2109 N 209.89 -1.43072 0.660911 0
M  V30 2110 C 211.118 -2.06067 0.185422 0
M  V30 2111 C 211.533 -1.49582 -1.15198 0
M  V30 2112 O 210.89 -0.630134 -1.71276 0
M  V30 2113 C 210.941 -3.61371 0.0966523 0
M  V30 2114 O 210.662 -4.15758 1.38119 0
M  V30 2115 C 212.163 -4.41455 -0.403996 0
M  V30 2116 H 209.383 -0.664459 0.0934604 0
M  V30 2117 H 211.927 -1.83447 0.90373 0
M  V30 2118 H 210.082 -3.8315 -0.572259 0
M  V30 2119 H 210.496 -5.09499 1.24542 0
M  V30 2120 H 211.97 -5.50437 -0.415045 0
M  V30 2121 H 212.447 -4.15036 -1.43674 0
M  V30 2122 H 213.053 -4.24663 0.232691 0
M  V30 2123 N 211.368 -0.403325 -1.52352 0
M  V30 2124 C 212.593 0.176499 -2.06648 0
M  V30 2125 C 213.018 1.38577 -1.27193 0
M  V30 2126 O 212.376 1.7879 -0.300637 0
M  V30 2127 C 212.424 0.511061 -3.5696 0
M  V30 2128 O 211.528 1.60294 -3.79973 0
M  V30 2129 H 210.869 0.0167337 -0.663789 0
M  V30 2130 H 213.399 -0.574848 -1.96359 0
M  V30 2131 H 213.409 0.771362 -4.00642 0
M  V30 2132 H 212.084 -0.37296 -4.14224 0
M  V30 2133 H 210.661 1.33526 -3.48174 0
M  V30 2134 N 212.846 1.57033 -0.133567 0
M  V30 2135 C 214.262 1.58035 0.222944 0
M  V30 2136 C 214.462 1.14713 1.6566 0
M  V30 2137 O 213.518 0.841218 2.38075 0
M  V30 2138 C 214.831 3.00691 -0.0236116 0
M  V30 2139 C 216.379 3.12973 0.0411512 0
M  V30 2140 C 216.854 4.57654 -0.177899 0
M  V30 2141 N 218.345 4.63033 -0.124365 0
M  V30 2142 C 219.08 5.72771 -0.268553 0
M  V30 2143 N 218.576 6.91206 -0.46972 0
M  V30 2144 N 220.369 5.61718 -0.2071 0
M  V30 2145 H 212.52 1.8349 -1.06981 0
M  V30 2146 H 214.783 0.848677 -0.422436 0
M  V30 2147 H 214.489 3.36726 -1.0153 0
M  V30 2148 H 214.363 3.70614 0.701808 0
M  V30 2149 H 216.75 2.76787 1.02338 0
M  V30 2150 H 216.831 2.45564 -0.716383 0
M  V30 2151 H 216.475 4.94542 -1.15717 0
M  V30 2152 H 216.405 5.23173 0.599797 0
M  V30 2153 H 218.896 3.7789 0.027011 0
M  V30 2154 H 219.209 7.70693 -0.570212 0
M  V30 2155 H 217.554 6.93156 -0.505876 0
M  V30 2156 H 220.745 4.68072 -0.0507986 0
M  V30 2157 H 220.918 6.47195 -0.322909 0
M  V30 2158 N 214.325 -0.140222 1.56975 0
M  V30 2159 C 215.573 -0.850005 1.83356 0
M  V30 2160 C 215.894 -1.81399 0.71551 0
M  V30 2161 O 215.164 -1.94136 -0.262294 0
M  V30 2162 H 213.744 -0.316886 0.676456 0
M  V30 2163 H 216.406 -0.132608 1.94448 0
M  V30 2164 H 215.502 -1.40814 2.78528 0
M  V30 2165 N 215.803 -1.52179 -0.40978 0
M  V30 2166 C 217.049 -1.67408 -1.15525 0
M  V30 2167 C 217.404 -0.398746 -1.88223 0
M  V30 2168 O 216.697 0.60678 -1.81738 0
M  V30 2169 C 216.891 -2.83428 -2.17723 0
M  V30 2170 C 216.72 -4.22121 -1.55061 0
M  V30 2171 C 215.49 -4.87657 -1.3236 0
M  V30 2172 C 217.688 -5.04248 -1.01185 0
M  V30 2173 N 215.67 -6.10387 -0.655834 0
M  V30 2174 C 217.041 -6.18209 -0.470963 0
M  V30 2175 C 219.096 -4.89583 -0.906252 0
M  V30 2176 C 217.799 -7.1911 0.165172 0
M  V30 2177 C 219.825 -5.90718 -0.28397 0
M  V30 2178 C 219.187 -7.03969 0.246243 0
M  V30 2179 H 215.286 -0.666251 -0.409431 0
M  V30 2180 H 217.87 -1.89482 -0.447729 0
M  V30 2181 H 216.041 -2.6297 -2.85834 0
M  V30 2182 H 217.773 -2.87697 -2.84627 0
M  V30 2183 H 214.528 -4.46007 -1.59294 0
M  V30 2184 H 214.952 -6.76153 -0.338596 0
M  V30 2185 H 219.594 -4.02253 -1.302 0
M  V30 2186 H 217.312 -8.06066 0.572986 0
M  V30 2187 H 220.898 -5.81443 -0.203792 0
M  V30 2188 H 219.778 -7.80886 0.720173 0
M  V30 2189 N 217.281 0.66697 -1.42791 0
M  V30 2190 C 218.527 1.42754 -1.44889 0
M  V30 2191 C 218.882 1.92283 -0.0669755 0
M  V30 2192 O 218.175 1.68494 0.912154 0
M  V30 2193 C 218.369 2.6349 -2.4147 0
M  V30 2194 C 218.198 2.25776 -3.88915 0
M  V30 2195 C 216.968 2.1476 -4.57391 0
M  V30 2196 C 219.166 1.86927 -4.79127 0
M  V30 2197 N 217.148 1.70232 -5.89826 0
M  V30 2198 C 218.519 1.53378 -6.00729 0
M  V30 2199 C 220.574 1.73989 -4.66511 0
M  V30 2200 C 219.277 1.08187 -7.11117 0
M  V30 2201 C 221.303 1.30203 -5.76889 0
M  V30 2202 C 220.665 0.975818 -6.97608 0
M  V30 2203 H 216.764 0.518559 -0.585338 0
M  V30 2204 H 219.348 0.768906 -1.78874 0
M  V30 2205 H 217.519 3.27033 -2.09533 0
M  V30 2206 H 219.251 3.30123 -2.34096 0
M  V30 2207 H 216.006 2.3408 -4.11708 0
M  V30 2208 H 216.43 1.50369 -6.6009 0
M  V30 2209 H 221.072 1.97853 -3.7365 0
M  V30 2210 H 218.79 0.830701 -8.03819 0
M  V30 2211 H 222.376 1.20701 -5.69142 0
M  V30 2212 H 221.256 0.642157 -7.81566 0
M  V30 2213 N 218.759 1.29093 0.90403 0
M  V30 2214 C 220.005 1.17996 1.65676 0
M  V30 2215 C 220.36 -0.266816 1.90541 0
M  V30 2216 O 219.653 -1.19 1.50165 0
M  V30 2217 C 219.847 1.92224 3.01305 0
M  V30 2218 C 219.676 3.43972 2.89678 0
M  V30 2219 C 218.446 4.1332 2.90679 0
M  V30 2220 C 220.644 4.39546 2.67028 0
M  V30 2221 N 218.626 5.51463 2.69743 0
M  V30 2222 C 219.997 5.65119 2.5503 0
M  V30 2223 C 222.052 4.29359 2.52101 0
M  V30 2224 C 220.755 6.81663 2.29626 0
M  V30 2225 C 222.781 5.4565 2.28079 0
M  V30 2226 C 222.143 6.70193 2.16843 0
M  V30 2227 H 218.242 0.486759 0.612037 0
M  V30 2228 H 220.826 1.62868 1.06688 0
M  V30 2229 H 218.997 1.49773 3.58361 0
M  V30 2230 H 220.729 1.73429 3.65656 0
M  V30 2231 H 217.484 3.64984 3.01801 0
M  V30 2232 H 217.908 6.24105 2.6234 0
M  V30 2233 H 222.55 3.33769 2.59534 0
M  V30 2234 H 220.268 7.77313 2.20932 0
M  V30 2235 H 223.854 5.39664 2.1738 0
M  V30 2236 H 222.734 7.58659 1.98511 0
M  V30 2237 N 220.237 -1.11381 1.11499 0
M  V30 2238 C 221.184 -2.17439 0.773887 0
M  V30 2239 C 222.154 -1.64132 -0.254899 0
M  V30 2240 O 223.339 -1.90345 -0.13168 0
M  V30 2241 C 220.479 -3.44373 0.223917 0
M  V30 2242 C 219.592 -4.1168 1.30934 0
M  V30 2243 C 218.727 -5.263 0.71984 0
M  V30 2244 C 217.766 -5.85493 1.78507 0
M  V30 2245 N 216.903 -6.91507 1.21502 0
M  V30 2246 H 221.743 -2.45962 1.68246 0
M  V30 2247 H 219.28 -1.20744 0.840191 0
M  V30 2248 H 221.238 -4.17047 -0.112921 0
M  V30 2249 H 219.868 -3.16232 -0.647851 0
M  V30 2250 H 218.92 -3.37073 1.76312 0
M  V30 2251 H 220.232 -4.51729 2.11524 0
M  V30 2252 H 219.386 -6.05785 0.333094 0
M  V30 2253 H 218.125 -4.87559 -0.117377 0
M  V30 2254 H 217.13 -5.04686 2.18111 0
M  V30 2255 H 218.355 -6.26301 2.62533 0
M  V30 2256 H 216.301 -6.54783 0.399455 0
M  V30 2257 H 216.218 -7.30214 1.95763 0
M  V30 2258 H 217.486 -7.74795 0.855181 0
M  V30 2259 N 221.715 -0.905404 -1.28997 0
M  V30 2260 C 222.645 -0.404212 -2.29975 0
M  V30 2261 C 223.626 0.523784 -1.61835 0
M  V30 2262 O 224.811 0.433298 -1.89304 0
M  V30 2263 C 221.941 0.364042 -3.45387 0
M  V30 2264 C 220.895 -0.474048 -4.25367 0
M  V30 2265 C 220.221 0.422045 -5.33032 0
M  V30 2266 C 221.521 -1.72696 -4.92923 0
M  V30 2267 H 223.215 -1.24807 -2.72146 0
M  V30 2268 H 220.761 -0.601585 -1.30832 0
M  V30 2269 H 222.714 0.725447 -4.15109 0
M  V30 2270 H 221.438 1.24174 -3.02074 0
M  V30 2271 H 220.097 -0.81786 -3.57361 0
M  V30 2272 H 219.745 1.29804 -4.85963 0
M  V30 2273 H 219.445 -0.135057 -5.87445 0
M  V30 2274 H 220.969 0.779517 -6.05604 0
M  V30 2275 H 222.383 -1.43495 -5.55051 0
M  V30 2276 H 220.78 -2.22582 -5.57295 0
M  V30 2277 H 221.85 -2.45964 -4.17887 0
M  V30 2278 N 223.193 1.4272 -0.668489 0
M  V30 2279 C 224.604 1.84793 -0.266151 0
M  V30 2280 C 224.955 1.55959 1.19043 0
M  V30 2281 O 224.08 1.01622 1.91055 0
M  V30 2282 C 224.675 3.35436 -0.476271 0
M  V30 2283 C 223.234 3.76182 -0.128113 0
M  V30 2284 C 222.381 2.66344 -0.771777 0
M  V30 2285 H 225.332 1.32656 -0.871098 0
M  V30 2286 H 225.353 3.79515 0.273561 0
M  V30 2287 H 224.865 3.5639 -1.53647 0
M  V30 2288 H 222.966 3.60836 0.928891 0
M  V30 2289 H 223.079 4.75766 -0.564231 0
M  V30 2290 H 221.443 2.53885 -0.203652 0
M  V30 2291 H 222.226 2.90123 -1.83531 0
M  V30 2292 N 224.671 0.411399 1.52136 0
M  V30 2293 C 225.948 -0.222308 1.94333 0
M  V30 2294 C 226.328 -1.6242 1.34844 0
M  V30 2295 O 225.676 -2.22384 0.525145 0
M  V30 2296 C 225.886 -0.226345 3.48265 0
M  V30 2297 C 227.234 -0.444592 4.22266 0
M  V30 2298 O 228.258 -0.305602 3.54887 0
M  V30 2299 O 227.117 -0.718749 5.41753 0
M  V30 2300 H 224.211 -0.143907 0.814383 0
M  V30 2301 H 226.757 0.467506 1.63133 0
M  V30 2302 H 225.529 0.75475 3.83952 0
M  V30 2303 H 225.152 -0.960163 3.85832 0
M  V30 2304 N 226.149 -1.5696 0.141893 0
M  V30 2305 C 227.389 -1.9785 -0.513304 0
M  V30 2306 C 227.753 -1.02467 -1.62371 0
M  V30 2307 O 228.954 -1.32382 -2.33941 0
M  V30 2308 C 227.225 -3.42797 -1.01118 0
M  V30 2309 S 228.784 -4.05709 -1.67169 0
M  V30 2310 H 225.602 -0.691318 -0.166135 0
M  V30 2311 H 228.204 -1.94114 0.232398 0
M  V30 2312 H 226.908 -4.0995 -0.192179 0
M  V30 2313 H 226.439 -3.50235 -1.79162 0
M  V30 2314 H 228.454 -3.98342 -2.95868 0
M  V30 2315 N 227.627 0.131896 -1.57047 0
M  V30 2316 C 228.557 1.16384 -2.02428 0
M  V30 2317 C 229.538 1.43936 -0.90644 0
M  V30 2318 O 230.723 1.54599 -1.17528 0
M  V30 2319 C 227.853 2.49328 -2.4177 0
M  V30 2320 C 226.807 2.36266 -3.56879 0
M  V30 2321 C 226.133 3.74057 -3.8208 0
M  V30 2322 C 227.433 1.834 -4.89042 0
M  V30 2323 H 229.127 0.786433 -2.88887 0
M  V30 2324 H 226.673 0.376855 -1.38981 0
M  V30 2325 H 228.626 3.21759 -2.7212 0
M  V30 2326 H 227.35 2.88934 -1.52266 0
M  V30 2327 H 226.009 1.66286 -3.26718 0
M  V30 2328 H 225.657 4.11125 -2.89803 0
M  V30 2329 H 225.357 3.66174 -4.59554 0
M  V30 2330 H 226.881 4.48012 -4.1487 0
M  V30 2331 H 228.295 2.45636 -5.18011 0
M  V30 2332 H 226.692 1.8637 -5.70426 0
M  V30 2333 H 227.762 0.790662 -4.7841 0
M  V30 2334 N 229.106 1.52395 0.401703 0
M  V30 2335 C 230.053 1.76268 1.48991 0
M  V30 2336 C 231.023 0.605386 1.54675 0
M  V30 2337 O 232.208 0.843742 1.7113 0
M  V30 2338 C 229.348 1.92592 2.86361 0
M  V30 2339 C 228.461 3.20259 2.89928 0
M  V30 2340 C 227.596 3.26972 4.18644 0
M  V30 2341 C 226.635 4.48812 4.16214 0
M  V30 2342 N 225.772 4.52877 5.36514 0
M  V30 2343 H 230.612 2.6914 1.27935 0
M  V30 2344 H 228.149 1.33355 0.620871 0
M  V30 2345 H 230.107 2.0004 3.66115 0
M  V30 2346 H 228.737 1.03093 3.05895 0
M  V30 2347 H 227.789 3.21945 2.02621 0
M  V30 2348 H 229.101 4.10056 2.83999 0
M  V30 2349 H 228.255 3.33533 5.06794 0
M  V30 2350 H 226.994 2.35126 4.27278 0
M  V30 2351 H 225.999 4.4239 3.26453 0
M  V30 2352 H 227.224 5.41961 4.09213 0
M  V30 2353 H 225.17 3.63917 5.45802 0
M  V30 2354 H 225.087 5.36529 5.32609 0
M  V30 2355 H 226.355 4.63676 6.26597 0
M  V30 2356 N 230.584 -0.659388 1.43143 0
M  V30 2357 C 231.861 -1.41627 1.34912 0
M  V30 2358 C 232.241 -2.11099 -0.00607785 0
M  V30 2359 O 231.589 -2.04353 -1.02236 0
M  V30 2360 C 231.799 -2.40604 2.52805 0
M  V30 2361 C 233.147 -3.04789 2.95616 0
M  V30 2362 O 234.171 -2.50932 2.52807 0
M  V30 2363 O 233.03 -4.02421 3.69756 0
M  V30 2364 H 230.124 -0.63246 0.532844 0
M  V30 2365 H 232.67 -0.686814 1.5518 0
M  V30 2366 H 231.442 -1.88174 3.43083 0
M  V30 2367 H 231.065 -3.21009 2.34604 0
M  V30 2368 N 232.062 -1.29571 -0.897171 0
M  V30 2369 C 232.995 -1.0924 -2.00354 0
M  V30 2370 C 233.973 -0.00354011 -1.626 0
M  V30 2371 O 235.157 -0.15473 -1.87864 0
M  V30 2372 C 232.284 -0.66352 -3.32137 0
M  V30 2373 C 231.33 -1.75146 -3.88878 0
M  V30 2374 S 232.163 -3.35124 -4.17674 0
M  V30 2375 C 233.319 -2.9411 -5.52494 0
M  V30 2376 H 233.552 -2.02907 -2.17292 0
M  V30 2377 H 231.085 -1.13746 -1.04408 0
M  V30 2378 H 233.043 -0.422791 -4.08317 0
M  V30 2379 H 231.704 0.253588 -3.13075 0
M  V30 2380 H 230.897 -1.40337 -4.84068 0
M  V30 2381 H 230.499 -1.94584 -3.19395 0
M  V30 2382 H 232.791 -2.41312 -6.33068 0
M  V30 2383 H 233.734 -3.88161 -5.9223 0
M  V30 2384 H 234.142 -2.32332 -5.14473 0
M  V30 2385 N 233.54 1.10788 -1.12088 0
M  V30 2386 C 234.788 1.8231 -0.872205 0
M  V30 2387 C 235.109 1.85419 0.603709 0
M  V30 2388 O 234.379 1.32963 1.43867 0
M  V30 2389 H 232.959 0.675137 -0.319686 0
M  V30 2390 H 235.621 1.34068 -1.41463 0
M  V30 2391 H 234.717 2.85955 -1.25045 0
M  V30 2392 N 235.018 0.912232 1.28515 0
M  V30 2393 C 235.951 0.343928 2.25593 0
M  V30 2394 C 236.929 -0.550994 1.5298 0
M  V30 2395 O 238.113 -0.494991 1.81885 0
M  V30 2396 C 235.24 -0.508525 3.34861 0
M  V30 2397 C 234.286 0.320808 4.25292 0
M  V30 2398 S 235.119 1.72658 5.06902 0
M  V30 2399 C 236.275 0.881394 6.19663 0
M  V30 2400 H 236.508 1.16674 2.73449 0
M  V30 2401 H 234.041 0.713384 1.36931 0
M  V30 2402 H 235.999 -0.994539 3.9827 0
M  V30 2403 H 234.66 -1.30571 2.85675 0
M  V30 2404 H 233.853 -0.330941 5.02912 0
M  V30 2405 H 233.455 0.74042 3.66598 0
M  V30 2406 H 235.747 0.110359 6.7741 0
M  V30 2407 H 236.69 1.63009 6.89082 0
M  V30 2408 H 237.098 0.430239 5.62858 0
M  V30 2409 N 236.496 -1.42363 0.676048 0
M  V30 2410 C 237.743 -2.01522 0.19883 0
M  V30 2411 C 238.071 -1.53456 -1.19505 0
M  V30 2412 O 237.326 -0.727967 -1.81657 0
M  V30 2413 C 237.625 -3.56929 0.183431 0
M  V30 2414 C 237.291 -4.24431 1.52215 0
M  V30 2415 C 235.953 -4.42585 1.8887 0
M  V30 2416 C 238.305 -4.62459 2.40377 0
M  V30 2417 C 235.633 -4.96039 3.13309 0
M  V30 2418 C 237.985 -5.17294 3.64129 0
M  V30 2419 C 236.649 -5.33661 4.00951 0
M  V30 2420 H 235.919 -0.737419 0.0727571 0
M  V30 2421 H 238.566 -1.70531 0.871281 0
M  V30 2422 H 236.871 -3.87594 -0.572532 0
M  V30 2423 H 238.568 -4.00486 -0.203035 0
M  V30 2424 H 235.158 -4.10661 1.22701 0
M  V30 2425 H 239.342 -4.48105 2.13343 0
M  V30 2426 H 234.598 -5.06896 3.41857 0
M  V30 2427 H 238.772 -5.45704 4.32644 0
M  V30 2428 H 236.399 -5.74845 4.9745 0
M  V30 2429 N 237.974 -0.419461 -1.51915 0
M  V30 2430 C 239.222 0.152637 -2.01523 0
M  V30 2431 C 239.543 1.44762 -1.30649 0
M  V30 2432 O 238.813 1.90997 -0.435535 0
M  V30 2433 H 237.393 0.0593966 -0.744635 0
M  V30 2434 H 240.055 -0.558073 -1.86739 0
M  V30 2435 H 239.151 0.341369 -3.10227 0
M  V30 2436 N 239.452 1.56882 -0.150215 0
M  V30 2437 C 240.384 2.14057 0.819286 0
M  V30 2438 C 241.397 1.09082 1.20851 0
M  V30 2439 O 242.586 1.36347 1.15203 0
M  V30 2440 C 239.686 2.65102 2.11127 0
M  V30 2441 C 238.859 3.94511 1.88891 0
M  V30 2442 C 237.918 4.30834 3.02107 0
M  V30 2443 O 236.944 4.99099 2.73659 0
M  V30 2444 N 238.146 3.90676 4.29363 0
M  V30 2445 H 240.911 2.97871 0.330618 0
M  V30 2446 H 238.472 1.61866 0.0332538 0
M  V30 2447 H 240.464 2.86411 2.85921 0
M  V30 2448 H 239.034 1.85994 2.51247 0
M  V30 2449 H 238.254 3.81795 0.981152 0
M  V30 2450 H 239.542 4.7907 1.71376 0
M  V30 2451 H 238.94 3.35677 4.55343 0
M  V30 2452 H 237.497 4.1703 5.00928 0
M  V30 2453 N 240.93 -0.123565 1.57115 0
M  V30 2454 C 241.878 -1.17082 2.00984 0
M  V30 2455 C 242.872 -1.43136 0.906009 0
M  V30 2456 O 244.078 -1.43152 1.09121 0
M  V30 2457 H 240.453 -0.394653 0.64012 0
M  V30 2458 H 242.424 -0.774292 2.88179 0
M  V30 2459 C 241.173 -2.49057 2.42623 0
M  V30 2460 H 240.496 -2.29846 3.27125 0
M  V30 2461 H 241.936 -3.20906 2.7712 0
M  V30 2462 C 240.395 -3.11305 1.28805 0
M  V30 2463 O 240.925 -3.97171 0.60153 0
M  V30 2464 N 239.131 -2.71111 1.04628 0
M  V30 2465 H 238.678 -2.01382 1.60634 0
M  V30 2466 H 238.636 -3.1309 0.286685 0
M  V30 2467 N 242.408 -1.52605 -0.393616 0
M  V30 2468 C 243.341 -1.71798 -1.50202 0
M  V30 2469 C 244.319 -0.565743 -1.52441 0
M  V30 2470 O 245.503 -0.794987 -1.70916 0
M  V30 2471 C 242.63 -1.7714 -2.88685 0
M  V30 2472 C 241.676 -2.98845 -3.04292 0
M  V30 2473 S 242.509 -4.58909 -2.75976 0
M  V30 2474 C 243.665 -4.6706 -4.1666 0
M  V30 2475 H 243.898 -2.65542 -1.33696 0
M  V30 2476 H 241.431 -1.42839 -0.586195 0
M  V30 2477 H 243.389 -1.80903 -3.68489 0
M  V30 2478 H 242.05 -0.844969 -3.02521 0
M  V30 2479 H 241.243 -2.99111 -4.05646 0
M  V30 2480 H 240.845 -2.9305 -2.32374 0
M  V30 2481 H 243.137 -4.45391 -5.10523 0
M  V30 2482 H 244.08 -5.6905 -4.21412 0
M  V30 2483 H 244.488 -3.95944 -4.02354 0
M  V30 2484 N 243.887 0.651787 -1.4349 0
M  V30 2485 C 245.117 1.43728 -1.48411 0
M  V30 2486 C 245.525 1.8893 -0.10103 0
M  V30 2487 O 244.868 1.60182 0.899307 0
M  V30 2488 C 244.93 2.70411 -2.36893 0
M  V30 2489 C 244.594 2.4714 -3.8441 0
M  V30 2490 C 245.591 2.10271 -4.75481 0
M  V30 2491 C 243.276 2.6142 -4.28912 0
M  V30 2492 C 245.27 1.87982 -6.0905 0
M  V30 2493 C 242.957 2.38746 -5.62533 0
M  V30 2494 C 243.955 2.02083 -6.5242 0
M  V30 2495 O 243.643 1.79647 -7.8357 0
M  V30 2496 H 243.375 0.447962 -0.506267 0
M  V30 2497 H 245.929 0.80624 -1.88915 0
M  V30 2498 H 244.159 3.36079 -1.91278 0
M  V30 2499 H 245.848 3.32364 -2.33 0
M  V30 2500 H 246.614 1.98814 -4.42378 0
M  V30 2501 H 242.493 2.88931 -3.59222 0
M  V30 2502 H 246.037 1.5929 -6.7917 0
M  V30 2503 H 241.934 2.49806 -5.95203 0
M  V30 2504 H 242.702 1.9406 -7.95162 0
M  V30 2505 N 245.365 1.30045 0.890287 0
M  V30 2506 C 246.595 1.21296 1.67245 0
M  V30 2507 C 247.003 -0.227471 1.87828 0
M  V30 2508 O 246.346 -1.16296 1.422 0
M  V30 2509 C 246.408 1.86519 3.07329 0
M  V30 2510 C 246.072 3.35837 3.09939 0
M  V30 2511 C 247.069 4.31915 2.89389 0
M  V30 2512 C 244.754 3.77196 3.31706 0
M  V30 2513 C 246.748 5.67325 2.90552 0
M  V30 2514 C 244.435 5.12725 3.32499 0
M  V30 2515 C 245.433 6.076 3.11947 0
M  V30 2516 O 245.121 7.40655 3.12547 0
M  V30 2517 H 244.853 0.4211 0.528821 0
M  V30 2518 H 247.407 1.72111 1.12103 0
M  V30 2519 H 245.637 1.30228 3.64112 0
M  V30 2520 H 247.326 1.71963 3.67673 0
M  V30 2521 H 248.092 4.01294 2.72375 0
M  V30 2522 H 243.971 3.03796 3.4674 0
M  V30 2523 H 247.515 6.41354 2.74429 0
M  V30 2524 H 243.412 5.42988 3.49047 0
M  V30 2525 H 244.18 7.49577 3.28749 0
M  V30 2526 N 246.843 -1.10192 1.12674 0
M  V30 2527 C 247.793 -2.14754 0.765801 0
M  V30 2528 C 248.777 -1.59154 -0.236409 0
M  V30 2529 O 249.969 -1.76951 -0.0415261 0
M  V30 2530 C 247.098 -3.42563 0.224827 0
M  V30 2531 C 246.184 -4.05091 1.25548 0
M  V30 2532 N 246.575 -4.42287 2.4539 0
M  V30 2533 C 244.873 -4.32186 1.10142 0
M  V30 2534 C 245.574 -4.91441 3.11224 0
M  V30 2535 N 244.55 -4.88405 2.38666 0
M  V30 2536 H 248.352 -2.41309 1.67772 0
M  V30 2537 H 245.866 -1.27339 1.00789 0
M  V30 2538 H 247.863 -4.16868 -0.0519578 0
M  V30 2539 H 246.523 -3.17467 -0.681515 0
M  V30 2540 H 247.534 -4.33902 2.82754 0
M  V30 2541 H 244.211 -4.16735 0.252587 0
M  V30 2542 H 245.601 -5.29749 4.13298 0
M  V30 2543 N 248.321 -0.919034 -1.28029 0
M  V30 2544 C 249.551 -0.570143 -1.98577 0
M  V30 2545 C 249.959 0.854172 -1.68821 0
M  V30 2546 O 249.302 1.57807 -0.940351 0
M  V30 2547 C 249.364 -0.705734 -3.52505 0
M  V30 2548 C 249.028 -2.10057 -4.05863 0
M  V30 2549 C 250.025 -3.07385 -4.19298 0
M  V30 2550 C 247.71 -2.41517 -4.40426 0
M  V30 2551 C 249.704 -4.34287 -4.66555 0
M  V30 2552 C 247.391 -3.68657 -4.87376 0
M  V30 2553 C 248.389 -4.64856 -5.00398 0
M  V30 2554 O 248.077 -5.89735 -5.46322 0
M  V30 2555 H 247.809 -0.215592 -0.6407 0
M  V30 2556 H 250.363 -1.23583 -1.64062 0
M  V30 2557 H 248.593 0.0170414 -3.86696 0
M  V30 2558 H 250.282 -0.363172 -4.04272 0
M  V30 2559 H 251.048 -2.84398 -3.92865 0
M  V30 2560 H 246.927 -1.67389 -4.29537 0
M  V30 2561 H 250.471 -5.09377 -4.76635 0
M  V30 2562 H 246.368 -3.91466 -5.13249 0
M  V30 2563 H 247.136 -5.92599 -5.64596 0
M  V30 2564 N 249.799 1.42003 -0.683588 0
M  V30 2565 C 250.729 2.33487 -0.024866 0
M  V30 2566 C 251.71 1.51163 0.779975 0
M  V30 2567 O 252.895 1.79739 0.735362 0
M  V30 2568 C 250.025 3.3487 0.920836 0
M  V30 2569 C 248.979 4.27414 0.223958 0
M  V30 2570 C 248.305 5.19074 1.2832 0
M  V30 2571 C 249.605 5.14445 -0.90242 0
M  V30 2572 H 251.299 2.88819 -0.788921 0
M  V30 2573 H 248.845 1.38873 -0.38083 0
M  V30 2574 H 250.798 3.97787 1.39081 0
M  V30 2575 H 249.522 2.77861 1.71642 0
M  V30 2576 H 248.181 3.65904 -0.225864 0
M  V30 2577 H 247.829 4.58387 2.071 0
M  V30 2578 H 247.529 5.81822 0.821995 0
M  V30 2579 H 249.053 5.84867 1.75392 0
M  V30 2580 H 250.467 5.70998 -0.513272 0
M  V30 2581 H 248.864 5.86072 -1.28997 0
M  V30 2582 H 249.934 4.52322 -1.74737 0
M  V30 2583 N 251.277 0.427512 1.51691 0
M  V30 2584 C 252.525 -0.141948 2.01601 0
M  V30 2585 C 252.846 -1.44067 1.31414 0
M  V30 2586 O 252.116 -1.90763 0.445658 0
M  V30 2587 H 250.696 -0.0554468 0.744939 0
M  V30 2588 H 253.358 0.567968 1.86441 0
M  V30 2589 H 252.454 -0.324913 3.10404 0
M  V30 2590 N 252.755 -1.56801 0.158532 0
M  V30 2591 C 254.171 -1.5837 -0.197774 0
M  V30 2592 C 254.371 -1.17334 -1.63814 0
M  V30 2593 O 253.427 -0.878988 -2.36707 0
M  V30 2594 C 254.74 -3.00615 0.0714459 0
M  V30 2595 C 256.288 -3.12999 0.00864533 0
M  V30 2596 C 256.763 -4.57313 0.250685 0
M  V30 2597 N 258.254 -4.62777 0.198014 0
M  V30 2598 C 258.989 -5.72271 0.359642 0
M  V30 2599 N 258.485 -6.90371 0.579625 0
M  V30 2600 N 260.278 -5.61318 0.296438 0
M  V30 2601 H 252.429 -1.81765 1.09887 0
M  V30 2602 H 254.692 -0.841849 0.435884 0
M  V30 2603 H 254.398 -3.35068 1.06874 0
M  V30 2604 H 254.272 -3.71683 -0.642757 0
M  V30 2605 H 256.659 -2.7838 -0.979217 0
M  V30 2606 H 256.74 -2.44393 0.755359 0
M  V30 2607 H 256.384 -4.92639 1.2357 0
M  V30 2608 H 256.314 -5.24061 -0.516489 0
M  V30 2609 H 258.805 -3.77885 0.0331115 0
M  V30 2610 H 259.118 -7.69689 0.69275 0
M  V30 2611 H 257.463 -6.92264 0.616087 0
M  V30 2612 H 260.654 -4.67932 0.125258 0
M  V30 2613 H 260.827 -6.46599 0.425831 0
M  V30 2614 N 254.233 0.115231 -1.57178 0
M  V30 2615 C 255.458 0.840354 -1.89612 0
M  V30 2616 C 255.883 1.72464 -0.750845 0
M  V30 2617 O 255.241 1.78826 0.298478 0
M  V30 2618 C 255.289 1.64654 -3.20814 0
M  V30 2619 O 254.393 2.7538 -3.06985 0
M  V30 2620 H 253.734 0.232158 -0.622092 0
M  V30 2621 H 256.264 0.0964977 -2.04372 0
M  V30 2622 H 256.274 2.03499 -3.53627 0
M  V30 2623 H 254.949 0.997416 -4.03763 0
M  V30 2624 H 253.526 2.3971 -2.85646 0
M  V30 2625 N 255.711 1.52812 0.385517 0
M  V30 2626 C 256.959 1.67694 1.12797 0
M  V30 2627 C 257.28 0.421115 1.90399 0
M  V30 2628 O 256.55 -0.564551 1.87589 0
M  V30 2629 H 255.13 0.618155 0.419396 0
M  V30 2630 H 257.792 1.89938 0.436972 0
M  V30 2631 H 256.888 2.52896 1.82894 0
M  V30 2632 N 257.189 -0.644168 1.43834 0
M  V30 2633 C 258.419 -1.42939 1.49171 0
M  V30 2634 C 258.827 -1.88874 0.111048 0
M  V30 2635 O 258.17 -1.60656 -0.8908 0
M  V30 2636 C 258.232 -2.69151 2.38324 0
M  V30 2637 C 257.896 -2.45097 3.85715 0
M  V30 2638 C 258.893 -2.07747 4.76589 0
M  V30 2639 C 256.578 -2.59141 4.30292 0
M  V30 2640 C 258.572 -1.8475 6.10038 0
M  V30 2641 C 256.259 -2.35759 5.63792 0
M  V30 2642 C 257.257 -1.9862 6.53482 0
M  V30 2643 O 256.945 -1.75489 7.84512 0
M  V30 2644 H 256.677 -0.445271 0.508635 0
M  V30 2645 H 259.231 -0.79621 1.8934 0
M  V30 2646 H 257.461 -3.3506 1.93058 0
M  V30 2647 H 259.15 -3.31123 2.3476 0
M  V30 2648 H 259.916 -1.96465 4.43426 0
M  V30 2649 H 255.795 -2.87022 3.60749 0
M  V30 2650 H 259.339 -1.55686 6.80006 0
M  V30 2651 H 255.236 -2.46646 5.9652 0
M  V30 2652 H 256.004 -1.89841 7.9618 0
M  V30 2653 N 258.668 -1.30515 -0.883378 0
M  V30 2654 C 259.896 -1.22359 -1.66841 0
M  V30 2655 C 260.311 0.213296 -1.87591 0
M  V30 2656 O 259.668 1.14075 -1.42454 0
M  V30 2657 C 259.719 -1.95011 -3.04389 0
M  V30 2658 O 259.44 -3.3309 -2.84575 0
M  V30 2659 C 260.941 -1.93532 -3.98824 0
M  V30 2660 H 258.161 -0.423371 -0.520575 0
M  V30 2661 H 260.705 -1.72167 -1.10357 0
M  V30 2662 H 258.86 -1.48997 -3.57601 0
M  V30 2663 H 259.274 -3.69907 -3.71846 0
M  V30 2664 H 260.748 -2.48902 -4.92699 0
M  V30 2665 H 261.225 -0.914627 -4.29571 0
M  V30 2666 H 261.831 -2.39364 -3.51547 0
M  V30 2667 N 260.146 1.09593 -1.13257 0
M  V30 2668 C 261.395 1.81105 -0.887917 0
M  V30 2669 C 261.708 1.86563 0.587672 0
M  V30 2670 O 262.914 2.54367 0.949204 0
M  V30 2671 C 261.37 3.25338 -1.53895 0
M  V30 2672 C 260.978 3.28151 -3.04994 0
M  V30 2673 C 262.722 4.01617 -1.37492 0
M  V30 2674 C 260.629 4.66897 -3.6299 0
M  V30 2675 H 259.559 0.678661 -0.328534 0
M  V30 2676 H 262.21 1.23183 -1.36008 0
M  V30 2677 H 260.592 3.8331 -0.994446 0
M  V30 2678 H 261.766 2.79953 -3.66009 0
M  V30 2679 H 260.081 2.65361 -3.20893 0
M  V30 2680 H 262.678 5.04119 -1.78235 0
M  V30 2681 H 263.021 4.15072 -0.31957 0
M  V30 2682 H 263.554 3.50082 -1.88912 0
M  V30 2683 H 260.293 4.58643 -4.68323 0
M  V30 2684 H 259.813 5.15426 -3.06752 0
M  V30 2685 H 261.492 5.3587 -3.62563 0
M  V30 2686 N 261.624 0.925811 1.2754 0
M  V30 2687 C 262.574 0.394488 2.24561 0
M  V30 2688 C 263.558 -0.500183 1.52928 0
M  V30 2689 O 264.75 -0.337936 1.73744 0
M  V30 2690 C 261.879 -0.353328 3.41477 0
M  V30 2691 C 260.965 0.557752 4.20416 0
M  V30 2692 N 261.356 1.67674 4.77199 0
M  V30 2693 C 259.654 0.360404 4.44541 0
M  V30 2694 C 260.355 2.24324 5.36706 0
M  V30 2695 N 259.331 1.53305 5.21535 0
M  V30 2696 H 263.133 1.2489 2.66045 0
M  V30 2697 H 260.647 0.779864 1.4245 0
M  V30 2698 H 262.644 -0.7509 4.10082 0
M  V30 2699 H 261.304 -1.20469 3.01525 0
M  V30 2700 H 262.315 2.05915 4.75204 0
M  V30 2701 H 258.992 -0.450454 4.15063 0
M  V30 2702 H 260.382 3.18521 5.91603 0
M  V30 2703 N 263.102 -1.41638 0.69111 0
M  V30 2704 C 264.348 -2.01598 0.220519 0
M  V30 2705 C 264.681 -1.54594 -1.17535 0
M  V30 2706 O 263.956 -0.755177 -1.79241 0
M  V30 2707 C 264.239 -3.59062 0.273243 0
M  V30 2708 C 264.092 -4.16203 1.70573 0
M  V30 2709 C 265.411 -4.38546 -0.369457 0
M  V30 2710 H 262.53 -0.732468 0.0816045 0
M  V30 2711 H 265.172 -1.68445 0.878986 0
M  V30 2712 H 263.322 -3.87435 -0.287411 0
M  V30 2713 H 264.994 -3.98722 2.31989 0
M  V30 2714 H 263.237 -3.71414 2.2413 0
M  V30 2715 H 263.908 -5.25358 1.69419 0
M  V30 2716 H 266.384 -4.1596 0.107977 0
M  V30 2717 H 265.26 -5.48069 -0.302002 0
M  V30 2718 H 265.521 -4.17662 -1.44951 0
M  V30 2719 N 264.58 -0.43555 -1.51462 0
M  V30 2720 C 265.512 0.41257 -2.25456 0
M  V30 2721 C 266.525 0.987822 -1.29406 0
M  V30 2722 O 267.714 0.882266 -1.55172 0
M  V30 2723 C 264.814 1.58894 -2.99342 0
M  V30 2724 C 263.987 1.13288 -4.22474 0
M  V30 2725 C 263.046 2.17917 -4.78956 0
M  V30 2726 O 262.072 1.77425 -5.40841 0
M  V30 2727 N 263.274 3.50382 -4.62832 0
M  V30 2728 H 266.039 -0.221603 -2.9888 0
M  V30 2729 H 263.6 -0.264342 -1.59727 0
M  V30 2730 H 265.592 2.28508 -3.34015 0
M  V30 2731 H 264.162 2.12849 -2.28941 0
M  V30 2732 H 263.382 0.263881 -3.93316 0
M  V30 2733 H 264.67 0.805542 -5.02383 0
M  V30 2734 H 264.068 3.86013 -4.13534 0
M  V30 2735 H 262.625 4.15895 -5.01871 0
M  V30 2736 N 266.058 1.56714 -0.166846 0
M  V30 2737 C 267.298 1.98641 0.481763 0
M  V30 2738 C 267.662 1.05038 1.6072 0
M  V30 2739 O 268.863 1.36087 2.31805 0
M  V30 2740 C 267.134 3.44362 0.956517 0
M  V30 2741 S 268.693 4.08317 1.60694 0
M  V30 2742 H 265.511 0.693873 0.155116 0
M  V30 2743 H 268.113 1.93719 -0.263251 0
M  V30 2744 H 266.817 4.10204 0.126936 0
M  V30 2745 H 266.348 3.53041 1.73568 0
M  V30 2746 H 268.363 4.02999 2.89494 0
M  V30 2747 N 267.536 -0.106894 1.57237 0
M  V30 2748 C 268.484 -1.14944 2.02215 0
M  V30 2749 C 269.478 -1.42167 0.92114 0
M  V30 2750 O 270.684 -1.41987 1.10634 0
M  V30 2751 H 267.059 -0.387841 0.64427 0
M  V30 2752 H 269.03 -0.743683 2.88984 0
M  V30 2753 C 267.779 -2.4647 2.4525 0
M  V30 2754 H 267.102 -2.26363 3.29545 0
M  V30 2755 H 268.542 -3.17948 2.80508 0
M  V30 2756 C 267.001 -3.09921 1.321 0
M  V30 2757 O 267.531 -3.9651 0.643622 0
M  V30 2758 N 265.737 -2.69986 1.07497 0
M  V30 2759 H 265.284 -1.99667 1.62761 0
M  V30 2760 H 265.242 -3.12769 0.319876 0
M  V30 2761 N 269.014 -1.53014 -0.377408 0
M  V30 2762 C 269.977 -1.77957 -1.44444 0
M  V30 2763 C 270.977 -0.649763 -1.47087 0
M  V30 2764 O 272.167 -0.917897 -1.48055 0
M  V30 2765 C 269.299 -1.89089 -2.83651 0
M  V30 2766 H 270.492 -2.73243 -1.23606 0
M  V30 2767 H 268.045 -1.43912 -0.609844 0
M  V30 2768 H 268.78 -0.958293 -3.09818 0
M  V30 2769 H 268.565 -2.71254 -2.83132 0
M  V30 2770 H 270.055 -2.1002 -3.60945 0
M  V30 2771 N 270.492 0.636531 -1.44174 0
M  V30 2772 C 271.717 1.42847 -1.50364 0
M  V30 2773 C 272.142 1.87665 -0.127867 0
M  V30 2774 O 271.5 1.58408 0.88185 0
M  V30 2775 C 271.548 2.62854 -2.4686 0
M  V30 2776 O 270.652 3.62501 -1.9664 0
M  V30 2777 H 269.993 0.427642 -0.507955 0
M  V30 2778 H 272.523 0.777422 -1.89255 0
M  V30 2779 H 272.533 3.10465 -2.64718 0
M  V30 2780 H 271.208 2.29578 -3.46795 0
M  V30 2781 H 269.785 3.21735 -1.88523 0
M  V30 2782 N 271.97 1.30982 0.876444 0
M  V30 2783 C 272.917 1.18085 1.98304 0
M  V30 2784 C 273.887 0.0682263 1.6596 0
M  V30 2785 O 275.072 0.239937 1.89285 0
M  V30 2786 C 272.212 0.887475 3.33493 0
M  V30 2787 C 271.325 2.08281 3.78475 0
M  V30 2788 C 270.46 1.72678 5.0235 0
M  V30 2789 C 269.499 2.88657 5.39762 0
M  V30 2790 N 268.636 2.53292 6.54819 0
M  V30 2791 H 273.476 2.1275 2.08666 0
M  V30 2792 H 271.013 1.05839 1.02159 0
M  V30 2793 H 272.971 0.697961 4.1132 0
M  V30 2794 H 271.601 -0.022315 3.22792 0
M  V30 2795 H 270.653 2.3833 2.96484 0
M  V30 2796 H 271.965 2.95108 4.02135 0
M  V30 2797 H 271.119 1.50151 5.87826 0
M  V30 2798 H 269.858 0.830327 4.8058 0
M  V30 2799 H 268.863 3.1184 4.52809 0
M  V30 2800 H 270.088 3.79002 5.63502 0
M  V30 2801 H 268.034 1.66163 6.34607 0
M  V30 2802 H 267.951 3.3365 6.7839 0
M  V30 2803 H 269.219 2.34143 7.43503 0
M  V30 2804 N 273.449 -1.08991 1.13837 0
M  V30 2805 C 274.696 -1.81258 0.902882 0
M  V30 2806 C 275.024 -1.85936 -0.570803 0
M  V30 2807 O 274.279 -1.3267 -1.43865 0
M  V30 2808 C 274.578 -3.27042 1.44147 0
M  V30 2809 C 274.244 -3.4249 2.93276 0
M  V30 2810 C 272.906 -3.46414 3.33992 0
M  V30 2811 C 275.258 -3.4666 3.892 0
M  V30 2812 C 272.586 -3.52091 4.69307 0
M  V30 2813 C 274.938 -3.53872 5.24364 0
M  V30 2814 C 273.602 -3.56066 5.646 0
M  V30 2815 H 272.872 -0.663268 0.330388 0
M  V30 2816 H 275.519 -1.28368 1.42105 0
M  V30 2817 H 273.824 -3.82599 0.844097 0
M  V30 2818 H 275.521 -3.81499 1.23528 0
M  V30 2819 H 272.111 -3.40124 2.60794 0
M  V30 2820 H 276.295 -3.42865 3.58828 0
M  V30 2821 H 271.551 -3.52079 4.9985 0
M  V30 2822 H 275.725 -3.56043 5.98503 0
M  V30 2823 H 273.352 -3.60218 6.69438 0
M  V30 2824 N 274.927 -0.932562 -1.27047 0
M  V30 2825 C 275.877 -0.406392 -2.24349 0
M  V30 2826 C 276.861 0.492066 -1.53191 0
M  V30 2827 O 278.053 0.328717 -1.73921 0
M  V30 2828 C 275.182 0.335214 -3.41659 0
M  V30 2829 C 274.268 -0.58004 -4.20115 0
M  V30 2830 N 274.659 -1.70203 -4.76303 0
M  V30 2831 C 272.957 -0.383974 -4.44344 0
M  V30 2832 C 273.658 -2.27167 -5.35509 0
M  V30 2833 N 272.634 -1.56068 -5.20715 0
M  V30 2834 H 276.436 -1.26299 -2.65378 0
M  V30 2835 H 273.95 -0.787408 -1.42034 0
M  V30 2836 H 275.947 0.729142 -4.10474 0
M  V30 2837 H 274.607 1.18868 -3.0216 0
M  V30 2838 H 275.618 -2.08433 -4.74106 0
M  V30 2839 H 272.295 0.428436 -4.15296 0
M  V30 2840 H 273.685 -3.21654 -5.89905 0
M  V30 2841 N 276.405 1.4127 -0.698611 0
M  V30 2842 C 277.337 2.292 0.00399731 0
M  V30 2843 C 278.35 1.44944 0.741279 0
M  V30 2844 O 279.539 1.68416 0.591477 0
M  V30 2845 C 276.639 3.22875 1.02979 0
M  V30 2846 C 275.812 4.35904 0.36151 0
M  V30 2847 C 274.871 5.10134 1.29033 0
M  V30 2848 O 273.897 5.63809 0.781562 0
M  V30 2849 N 275.099 5.17885 2.6225 0
M  V30 2850 H 277.864 2.9014 -0.750921 0
M  V30 2851 H 275.425 1.52455 -0.544882 0
M  V30 2852 H 277.417 3.69404 1.65296 0
M  V30 2853 H 275.987 2.63221 1.68622 0
M  V30 2854 H 275.207 3.91719 -0.441584 0
M  V30 2855 H 276.495 5.08696 -0.103055 0
M  V30 2856 H 275.893 4.7573 3.061 0
M  V30 2857 H 274.45 5.6798 3.19754 0
M  V30 2858 N 277.883 0.443576 1.51229 0
M  V30 2859 C 279.131 -0.120557 2.0174 0
M  V30 2860 C 279.452 -1.42665 1.32935 0
M  V30 2861 O 278.722 -1.9028 0.465866 0
M  V30 2862 H 277.302 -0.0475426 0.745486 0
M  V30 2863 H 279.964 0.587711 1.85828 0
M  V30 2864 H 279.06 -0.291972 3.10731 0
M  V30 2865 N 279.361 -1.56624 0.175154 0
M  V30 2866 C 280.324 -2.16934 -0.739738 0
M  V30 2867 C 281.324 -1.11842 -1.15533 0
M  V30 2868 O 282.514 -1.37335 -1.07167 0
M  V30 2869 C 279.646 -2.75531 -2.00738 0
M  V30 2870 H 280.839 -2.99131 -0.214639 0
M  V30 2871 H 278.392 -1.56123 -0.0744197 0
M  V30 2872 H 279.127 -1.97078 -2.57548 0
M  V30 2873 H 278.912 -3.52444 -1.71831 0
M  V30 2874 H 280.402 -3.21904 -2.66021 0
M  V30 2875 N 280.839 0.0985539 -1.57292 0
M  V30 2876 C 281.769 1.12064 -2.04851 0
M  V30 2877 C 282.75 1.41981 -0.936767 0
M  V30 2878 O 283.935 1.52071 -1.20781 0
M  V30 2879 C 281.065 2.44144 -2.47004 0
M  V30 2880 C 280.019 2.28643 -3.6181 0
M  V30 2881 C 279.345 3.65869 -3.89929 0
M  V30 2882 C 280.645 1.72986 -4.92822 0
M  V30 2883 H 282.339 0.724979 -2.9049 0
M  V30 2884 H 279.885 0.34729 -1.39749 0
M  V30 2885 H 281.838 3.15914 -2.78884 0
M  V30 2886 H 280.562 2.85639 -1.5836 0
M  V30 2887 H 279.221 1.59318 -3.30172 0
M  V30 2888 H 278.869 4.04885 -2.98458 0
M  V30 2889 H 278.569 3.56344 -4.67218 0
M  V30 2890 H 280.093 4.39112 -4.2428 0
M  V30 2891 H 281.507 2.34593 -5.23105 0
M  V30 2892 H 279.904 1.74229 -5.74251 0
M  V30 2893 H 280.974 0.689007 -4.7998 0
M  V30 2894 N 282.317 1.53212 0.369288 0
M  V30 2895 C 283.565 1.68881 1.11012 0
M  V30 2896 C 283.886 0.441285 1.89941 0
M  V30 2897 O 283.156 -0.544623 1.88177 0
M  V30 2898 H 281.736 0.622569 0.412816 0
M  V30 2899 H 284.398 1.90391 0.416802 0
M  V30 2900 H 283.494 2.54822 1.80201 0
M  V30 2901 N 283.795 -0.628877 1.44509 0
M  V30 2902 C 285.041 -1.39045 1.47629 0
M  V30 2903 C 285.374 -1.93892 0.109343 0
M  V30 2904 O 284.649 -1.7379 -0.87334 0
M  V30 2905 C 284.932 -2.55408 2.53848 0
M  V30 2906 C 284.785 -2.05896 3.99909 0
M  V30 2907 C 286.104 -3.5759 2.56549 0
M  V30 2908 H 283.223 -0.504232 0.537512 0
M  V30 2909 H 285.865 -0.710854 1.76201 0
M  V30 2910 H 284.015 -3.13384 2.29615 0
M  V30 2911 H 285.687 -1.52734 4.35282 0
M  V30 2912 H 283.93 -1.37061 4.11578 0
M  V30 2913 H 284.601 -2.89681 4.69882 0
M  V30 2914 H 287.077 -3.09419 2.78207 0
M  V30 2915 H 285.953 -4.36527 3.32769 0
M  V30 2916 H 286.214 -4.11808 1.60832 0
M  V30 2917 N 285.273 -1.31445 -0.869486 0
M  V30 2918 C 286.52 -1.21158 -1.62256 0
M  V30 2919 C 286.848 0.230155 -1.93133 0
M  V30 2920 O 286.103 1.17906 -1.56194 0
M  V30 2921 C 286.402 -2.00145 -2.96102 0
M  V30 2922 C 286.068 -3.4964 -2.84715 0
M  V30 2923 C 284.73 -3.90403 -2.81317 0
M  V30 2924 C 287.082 -4.44769 -2.71716 0
M  V30 2925 C 284.41 -5.24561 -2.62778 0
M  V30 2926 C 286.762 -5.79054 -2.54714 0
M  V30 2927 C 285.426 -6.19037 -2.49699 0
M  V30 2928 H 284.696 -0.443348 -0.593737 0
M  V30 2929 H 287.343 -1.62715 -1.00976 0
M  V30 2930 H 285.648 -1.5127 -3.6142 0
M  V30 2931 H 287.345 -1.89566 -3.53363 0
M  V30 2932 H 283.935 -3.17256 -2.88178 0
M  V30 2933 H 288.119 -4.14208 -2.73397 0
M  V30 2934 H 283.375 -5.54613 -2.57321 0
M  V30 2935 H 287.549 -6.52393 -2.43632 0
M  V30 2936 H 285.176 -7.22935 -2.35093 0
M  V30 2937 N 286.751 1.08385 -1.14413 0
M  V30 2938 C 287.681 2.17321 -0.854044 0
M  V30 2939 C 288.662 1.69024 0.191049 0
M  V30 2940 O 289.847 1.94141 0.0476779 0
M  V30 2941 C 286.977 3.45719 -0.330983 0
M  V30 2942 C 285.931 4.07409 -1.31155 0
M  V30 2943 C 285.257 5.30762 -0.64778 0
M  V30 2944 C 286.557 4.48665 -2.67388 0
M  V30 2945 H 288.251 2.41845 -1.76498 0
M  V30 2946 H 285.797 1.16233 -0.850051 0
M  V30 2947 H 287.75 4.21241 -0.115645 0
M  V30 2948 H 286.474 3.2075 0.615381 0
M  V30 2949 H 285.133 3.33919 -1.51306 0
M  V30 2950 H 284.781 5.02078 0.304398 0
M  V30 2951 H 284.481 5.72992 -1.30207 0
M  V30 2952 H 286.005 6.08998 -0.441972 0
M  V30 2953 H 287.419 5.15364 -2.51143 0
M  V30 2954 H 285.816 5.01814 -3.29093 0
M  V30 2955 H 286.886 3.60543 -3.24248 0
M  V30 2956 N 288.23 0.939286 1.26551 0
M  V30 2957 C 289.479 0.581601 1.93133 0
M  V30 2958 C 289.792 -0.883224 1.74524 0
M  V30 2959 O 290.998 -1.3502 2.35546 0
M  V30 2960 C 289.454 0.989425 3.46032 0
M  V30 2961 C 289.062 2.47573 3.73379 0
M  V30 2962 C 290.806 0.703544 4.18629 0
M  V30 2963 C 288.713 2.82235 5.19709 0
M  V30 2964 H 287.643 0.213803 0.723052 0
M  V30 2965 H 290.294 1.14167 1.4366 0
M  V30 2966 H 288.676 0.357902 3.94379 0
M  V30 2967 H 289.85 3.15614 3.35744 0
M  V30 2968 H 288.165 2.73471 3.1401 0
M  V30 2969 H 290.762 0.938869 5.26393 0
M  V30 2970 H 291.105 -0.359639 4.14744 0
M  V30 2971 H 291.638 1.2947 3.76141 0
M  V30 2972 H 288.377 3.87509 5.28694 0
M  V30 2973 H 287.897 2.18854 5.58447 0
M  V30 2974 H 289.576 2.70599 5.87695 0
M  V30 2975 N 289.708 -1.40897 0.706093 0
M  V30 2976 C 291.119 -1.84023 0.315052 0
M  V30 2977 C 291.47 -1.5906 -1.14866 0
M  V30 2978 O 290.595 -1.06651 -1.88293 0
M  V30 2979 C 291.19 -3.34055 0.565038 0
M  V30 2980 C 289.749 -3.7571 0.227806 0
M  V30 2981 C 288.896 -2.64204 0.842122 0
M  V30 2982 H 291.847 -1.303 0.905963 0
M  V30 2983 H 291.868 -3.80107 -0.172843 0
M  V30 2984 H 291.38 -3.52192 1.63042 0
M  V30 2985 H 289.481 -3.63172 -0.832895 0
M  V30 2986 H 289.594 -4.74103 0.690174 0
M  V30 2987 H 287.958 -2.53255 0.270893 0
M  V30 2988 H 288.741 -2.85155 1.91158 0
M  V30 2989 N 291.186 -0.45159 -1.50991 0
M  V30 2990 C 292.096 0.358431 -2.31846 0
M  V30 2991 C 293.112 1.01438 -1.41373 0
M  V30 2992 O 294.288 1.00663 -1.74439 0
M  V30 2993 C 291.353 1.43704 -3.15515 0
M  V30 2994 C 290.414 0.799742 -4.21785 0
M  V30 2995 C 289.647 1.82696 -5.01456 0
M  V30 2996 O 289.87 3.05105 -4.81941 0
M  V30 2997 O 288.804 1.40958 -5.85162 0
M  V30 2998 H 292.63 -0.302032 -3.02194 0
M  V30 2999 H 290.215 -0.213825 -1.47862 0
M  V30 3000 H 292.097 2.06227 -3.67489 0
M  V30 3001 H 290.772 2.08133 -2.47916 0
M  V30 3002 H 289.679 0.136084 -3.73852 0
M  V30 3003 H 291.012 0.198718 -4.91799 0
M  V30 3004 N 292.664 1.56529 -0.183458 0
M  V30 3005 C 293.911 1.97244 0.458357 0
M  V30 3006 C 294.239 1.06992 1.62428 0
M  V30 3007 O 293.494 0.106542 1.9541 0
M  V30 3008 C 293.793 3.43939 0.971637 0
M  V30 3009 C 293.459 4.5083 -0.0796784 0
M  V30 3010 C 292.121 4.79786 -0.368584 0
M  V30 3011 C 294.473 5.15138 -0.792638 0
M  V30 3012 C 291.801 5.70345 -1.37563 0
M  V30 3013 C 294.153 6.06784 -1.78875 0
M  V30 3014 C 292.817 6.34102 -2.08497 0
M  V30 3015 H 292.087 0.721768 0.167725 0
M  V30 3016 H 294.734 1.89472 -0.277976 0
M  V30 3017 H 293.039 3.48724 1.78602 0
M  V30 3018 H 294.736 3.72791 1.47744 0
M  V30 3019 H 291.326 4.28317 0.155668 0
M  V30 3020 H 295.51 4.92868 -0.582659 0
M  V30 3021 H 290.766 5.89789 -1.61118 0
M  V30 3022 H 294.94 6.55677 -2.3465 0
M  V30 3023 H 292.567 7.04074 -2.86678 0
M  V30 3024 N 294.142 -0.090211 1.57342 0
M  V30 3025 C 295.388 -0.793982 1.86611 0
M  V30 3026 C 295.721 -1.78142 0.773252 0
M  V30 3027 O 294.996 -1.93271 -0.218304 0
M  V30 3028 C 295.279 -1.51839 3.26523 0
M  V30 3029 C 295.132 -0.548609 4.46442 0
M  V30 3030 C 296.451 -2.46779 3.64401 0
M  V30 3031 H 293.57 -0.287186 0.678744 0
M  V30 3032 H 296.212 -0.0575076 1.89913 0
M  V30 3033 H 294.362 -2.14617 3.23839 0
M  V30 3034 H 296.034 0.0725513 4.61243 0
M  V30 3035 H 294.277 0.137614 4.33582 0
M  V30 3036 H 294.948 -1.09271 5.41076 0
M  V30 3037 H 297.424 -1.94089 3.68061 0
M  V30 3038 H 296.3 -2.94479 4.63221 0
M  V30 3039 H 296.561 -3.30758 2.93346 0
M  V30 3040 N 295.62 -1.53406 -0.361157 0
M  V30 3041 C 296.553 -1.74946 -1.46524 0
M  V30 3042 C 297.531 -0.59795 -1.51206 0
M  V30 3043 O 298.715 -0.831062 -1.69191 0
M  V30 3044 C 295.842 -1.83224 -2.84863 0
M  V30 3045 C 294.888 -3.05233 -2.97885 0
M  V30 3046 S 295.721 -4.6466 -2.66179 0
M  V30 3047 C 296.877 -4.75793 -4.06659 0
M  V30 3048 H 297.11 -2.68319 -1.28033 0
M  V30 3049 H 294.643 -1.44051 -0.555764 0
M  V30 3050 H 296.601 -1.88679 -3.64569 0
M  V30 3051 H 295.262 -0.908948 -3.00661 0
M  V30 3052 H 294.455 -3.07648 -3.9921 0
M  V30 3053 H 294.057 -2.97913 -2.26106 0
M  V30 3054 H 296.349 -4.5612 -5.0096 0
M  V30 3055 H 297.292 -5.7786 -4.09247 0
M  V30 3056 H 297.7 -4.04389 -3.93865 0
M  V30 3057 N 297.098 0.621204 -1.44841 0
M  V30 3058 C 298.061 1.71459 -1.521 0
M  V30 3059 C 299.061 1.55696 -0.401933 0
M  V30 3060 O 300.251 1.61011 -0.664925 0
M  V30 3061 C 297.383 3.10624 -1.40447 0
M  V30 3062 H 298.576 1.66394 -2.49506 0
M  V30 3063 H 296.129 0.835745 -1.3208 0
M  V30 3064 H 296.864 3.21277 -0.441737 0
M  V30 3065 H 296.649 3.23473 -2.21602 0
M  V30 3066 H 298.139 3.90293 -1.4853 0
M  V30 3067 N 298.576 1.31904 0.862503 0
M  V30 3068 C 299.816 1.23324 1.63004 0
M  V30 3069 C 300.18 -0.203724 1.90916 0
M  V30 3070 O 301.381 -0.413132 2.65606 0
M  V30 3071 C 299.652 2.06116 2.91978 0
M  V30 3072 S 301.211 2.14478 3.82812 0
M  V30 3073 H 298.029 0.439117 0.559193 0
M  V30 3074 H 300.631 1.66658 1.02202 0
M  V30 3075 H 299.335 3.09593 2.69407 0
M  V30 3076 H 298.866 1.6353 3.57801 0
M  V30 3077 H 300.881 1.28855 4.79177 0
M  V30 3078 N 300.054 -1.07777 1.14986 0
M  V30 3079 C 301.002 -2.16964 0.838406 0
M  V30 3080 C 301.996 -1.68372 -0.186386 0
M  V30 3081 O 303.202 -1.79951 -0.0418465 0
M  V30 3082 H 299.577 -0.708006 0.253439 0
M  V30 3083 H 301.548 -2.40454 1.76704 0
M  V30 3084 C 300.297 -3.4604 0.339335 0
M  V30 3085 H 299.62 -3.83813 1.11927 0
M  V30 3086 H 301.06 -4.23698 0.160021 0
M  V30 3087 C 299.519 -3.23569 -0.938325 0
M  V30 3088 O 300.049 -3.47752 -2.01077 0
M  V30 3089 N 298.255 -2.77079 -0.876117 0
M  V30 3090 H 297.802 -2.576 -0.00322037 0
M  V30 3091 H 297.76 -2.62422 -1.73153 0
M  V30 3092 N 301.532 -0.945985 -1.26051 0
M  V30 3093 C 302.76 -0.613025 -1.9761 0
M  V30 3094 C 303.175 0.813035 -1.70397 0
M  V30 3095 O 302.532 1.54274 -0.974979 0
M  V30 3096 C 302.583 -0.85159 -3.51326 0
M  V30 3097 O 302.304 -2.22157 -3.77595 0
M  V30 3098 C 303.805 -0.529831 -4.40122 0
M  V30 3099 H 301.025 -0.230593 -0.630133 0
M  V30 3100 H 303.569 -1.268 -1.60443 0
M  V30 3101 H 301.724 -0.243151 -3.86636 0
M  V30 3102 H 302.138 -2.2852 -4.721 0
M  V30 3103 H 303.612 -0.747348 -5.46917 0
M  V30 3104 H 304.089 0.535341 -4.35925 0
M  V30 3105 H 304.695 -1.11721 -4.10364 0
M  V30 3106 N 303.011 1.40521 -0.713556 0
M  V30 3107 C 303.921 2.34522 -0.0606667 0
M  V30 3108 C 304.937 1.57193 0.74607 0
M  V30 3109 O 306.113 1.89591 0.679493 0
M  V30 3110 C 303.178 3.36081 0.851491 0
M  V30 3111 C 302.239 4.29286 0.0349339 0
M  V30 3112 C 301.472 5.25994 0.903649 0
M  V30 3113 O 301.695 5.28616 2.14292 0
M  V30 3114 O 300.629 6.00918 0.343723 0
M  V30 3115 H 304.455 2.91968 -0.835972 0
M  V30 3116 H 302.04 1.41681 -0.47402 0
M  V30 3117 H 303.922 3.98369 1.37404 0
M  V30 3118 H 302.597 2.81052 1.60598 0
M  V30 3119 H 301.504 3.70289 -0.532633 0
M  V30 3120 H 302.837 4.87462 -0.681287 0
M  V30 3121 N 304.489 0.459591 1.5075 0
M  V30 3122 C 305.714 -0.0996819 2.0716 0
M  V30 3123 C 306.139 -1.33761 1.32249 0
M  V30 3124 O 305.497 -1.77551 0.366786 0
M  V30 3125 C 305.545 -0.378226 3.58611 0
M  V30 3126 O 304.649 -1.46081 3.85661 0
M  V30 3127 H 303.99 0.00791392 0.663953 0
M  V30 3128 H 306.52 0.647329 1.9409 0
M  V30 3129 H 306.53 -0.622135 4.03229 0
M  V30 3130 H 305.205 0.526439 4.12555 0
M  V30 3131 H 303.782 -1.20511 3.5289 0
M  V30 3132 N 305.967 -1.56429 0.191757 0
M  V30 3133 C 306.914 -2.18936 -0.730454 0
M  V30 3134 C 307.884 -1.13557 -1.21219 0
M  V30 3135 O 309.069 -1.41794 -1.27668 0
M  V30 3136 C 306.209 -2.85013 -1.9458 0
M  V30 3137 C 305.322 -4.04909 -1.50574 0
M  V30 3138 C 304.457 -4.58853 -2.67634 0
M  V30 3139 C 303.496 -5.71114 -2.20217 0
M  V30 3140 N 302.633 -6.19478 -3.30442 0
M  V30 3141 H 307.473 -2.97389 -0.190664 0
M  V30 3142 H 305.01 -1.46869 -0.0823694 0
M  V30 3143 H 306.968 -3.21492 -2.65893 0
M  V30 3144 H 305.598 -2.09129 -2.45896 0
M  V30 3145 H 304.65 -3.74115 -0.688605 0
M  V30 3146 H 305.962 -4.86113 -1.11784 0
M  V30 3147 H 305.116 -4.97619 -3.47074 0
M  V30 3148 H 303.855 -3.76749 -3.09696 0
M  V30 3149 H 302.86 -5.31879 -1.3923 0
M  V30 3150 H 304.085 -6.55033 -1.79189 0
M  V30 3151 H 302.031 -5.40297 -3.72041 0
M  V30 3152 H 301.948 -6.95725 -2.9581 0
M  V30 3153 H 303.216 -6.62898 -4.10106 0
M  V30 3154 N 307.445 0.0818655 -1.57387 0
M  V30 3155 C 308.673 0.796108 -1.9097 0
M  V30 3156 C 309.088 1.71626 -0.786757 0
M  V30 3157 O 308.445 1.80908 0.240513 0
M  V30 3158 C 308.496 1.59829 -3.24248 0
M  V30 3159 O 308.217 0.715131 -4.32224 0
M  V30 3160 C 309.718 2.41442 -3.7178 0
M  V30 3161 H 306.938 0.22691 -0.631469 0
M  V30 3162 H 309.482 0.0551439 -2.04426 0
M  V30 3163 H 307.637 2.29163 -3.12351 0
M  V30 3164 H 308.051 1.27205 -5.08841 0
M  V30 3165 H 309.525 2.932 -4.67694 0
M  V30 3166 H 310.002 3.2051 -3.00283 0
M  V30 3167 H 310.608 1.77283 -3.86589 0
M  V30 3168 N 308.923 1.53595 0.353017 0
M  V30 3169 C 310.148 1.7462 1.11904 0
M  V30 3170 C 310.573 0.479721 1.8188 0
M  V30 3171 O 309.931 -0.567066 1.72204 0
M  V30 3172 C 309.979 2.92029 2.11545 0
M  V30 3173 O 309.083 2.61516 3.18878 0
M  V30 3174 H 308.424 0.579531 0.324099 0
M  V30 3175 H 310.954 2.00525 0.406301 0
M  V30 3176 H 310.964 3.18551 2.5493 0
M  V30 3177 H 309.639 3.83888 1.60008 0
M  V30 3178 H 308.216 2.45852 2.80377 0
M  V30 3179 N 310.401 -0.613514 1.45168 0
M  V30 3180 C 311.631 -1.39743 1.52169 0
M  V30 3181 C 312.039 -1.88596 0.151086 0
M  V30 3182 O 311.382 -1.6251 -0.856521 0
M  V30 3183 C 311.444 -2.64035 2.43979 0
M  V30 3184 C 311.108 -2.36861 3.90827 0
M  V30 3185 C 312.105 -1.97591 4.80889 0
M  V30 3186 C 309.79 -2.49956 4.35692 0
M  V30 3187 C 311.784 -1.71768 6.1382 0
M  V30 3188 C 309.471 -2.23747 5.68665 0
M  V30 3189 C 310.469 -1.84714 6.57548 0
M  V30 3190 O 310.157 -1.58809 7.88058 0
M  V30 3191 H 309.889 -0.434382 0.517966 0
M  V30 3192 H 312.443 -0.75587 1.90986 0
M  V30 3193 H 310.673 -3.3089 2.00122 0
M  V30 3194 H 312.362 -3.26069 2.41731 0
M  V30 3195 H 313.128 -1.87015 4.47493 0
M  V30 3196 H 309.007 -2.79305 3.66756 0
M  V30 3197 H 312.551 -1.41227 6.83155 0
M  V30 3198 H 308.448 -2.33938 6.01617 0
M  V30 3199 H 309.216 -1.7291 8.00028 0
M  V30 3200 N 311.879 -1.3236 -0.855495 0
M  V30 3201 C 313.125 -1.23054 -1.612 0
M  V30 3202 C 313.458 0.207404 -1.93089 0
M  V30 3203 O 312.733 1.14432 -1.57275 0
M  V30 3204 C 313.016 -2.08937 -2.93287 0
M  V30 3205 C 312.869 -3.61105 -2.68185 0
M  V30 3206 C 314.188 -1.94986 -3.94549 0
M  V30 3207 H 311.307 -0.448364 -0.584926 0
M  V30 3208 H 313.949 -1.62297 -0.987917 0
M  V30 3209 H 312.099 -1.75599 -3.46551 0
M  V30 3210 H 313.771 -4.04652 -2.21483 0
M  V30 3211 H 312.014 -3.83813 -2.02164 0
M  V30 3212 H 312.685 -4.16522 -3.62234 0
M  V30 3213 H 315.161 -2.24189 -3.5054 0
M  V30 3214 H 314.037 -2.57356 -4.84829 0
M  V30 3215 H 314.298 -0.917263 -4.3248 0
M  V30 3216 N 313.357 1.07166 -1.15556 0
M  V30 3217 C 314.582 1.84053 -0.955988 0
M  V30 3218 C 315.007 1.81586 0.490739 0
M  V30 3219 O 314.365 1.21018 1.34997 0
M  V30 3220 C 314.413 3.28957 -1.47714 0
M  V30 3221 O 313.517 4.06795 -0.677593 0
M  V30 3222 H 312.858 0.569842 -0.340847 0
M  V30 3223 H 315.388 1.35178 -1.53584 0
M  V30 3224 H 315.398 3.79788 -1.4908 0
M  V30 3225 H 314.073 3.30068 -2.53037 0
M  V30 3226 H 312.65 3.6561 -0.733721 0
M  V30 3227 N 314.835 0.952656 1.25548 0
M  V30 3228 C 316.065 0.622592 1.96996 0
M  V30 3229 C 316.473 -0.809112 1.71026 0
M  V30 3230 O 315.816 -1.55258 0.981861 0
M  V30 3231 C 315.878 0.798946 3.5051 0
M  V30 3232 C 315.542 2.20744 4.00151 0
M  V30 3233 C 316.539 3.18394 4.11001 0
M  V30 3234 C 314.224 2.5311 4.33867 0
M  V30 3235 C 316.218 4.46504 4.54877 0
M  V30 3236 C 313.905 3.8145 4.7743 0
M  V30 3237 C 314.903 4.77959 4.87897 0
M  V30 3238 O 314.591 6.04012 5.30494 0
M  V30 3239 H 314.323 0.232503 0.634758 0
M  V30 3240 H 316.877 1.2789 1.60728 0
M  V30 3241 H 315.107 0.0854903 3.86605 0
M  V30 3242 H 316.796 0.47023 4.03167 0
M  V30 3243 H 317.562 2.94715 3.85186 0
M  V30 3244 H 313.441 1.78719 4.24948 0
M  V30 3245 H 316.985 5.21835 4.62962 0
M  V30 3246 H 312.882 4.04936 5.0269 0
M  V30 3247 H 313.65 6.0736 5.48685 0
M  V30 3248 N 316.313 -1.40141 0.720998 0
M  V30 3249 C 317.562 -2.0002 0.259804 0
M  V30 3250 C 317.875 -1.57839 -1.15526 0
M  V30 3251 O 319.081 -2.10455 -1.71525 0
M  V30 3252 C 317.537 -3.57516 0.413566 0
M  V30 3253 C 317.145 -4.08667 1.83562 0
M  V30 3254 C 318.889 -4.24498 0.0134387 0
M  V30 3255 C 316.796 -5.58686 1.93968 0
M  V30 3256 H 315.726 -0.748195 0.0933806 0
M  V30 3257 H 318.377 -1.60313 0.892866 0
M  V30 3258 H 316.759 -3.9495 -0.288169 0
M  V30 3259 H 317.933 -3.82598 2.56817 0
M  V30 3260 H 316.248 -3.543 2.1877 0
M  V30 3261 H 318.845 -5.34654 0.0703954 0
M  V30 3262 H 319.188 -4.03375 -1.02927 0
M  V30 3263 H 319.721 -3.92188 0.665815 0
M  V30 3264 H 316.46 -5.8467 2.96379 0
M  V30 3265 H 315.98 -5.86602 1.25131 0
M  V30 3266 H 317.659 -6.23875 1.71431 0
M  V30 3267 N 317.792 -0.46758 -1.50504 0
M  V30 3268 C 318.74 0.342482 -2.30065 0
M  V30 3269 C 319.734 0.993596 -1.37201 0
M  V30 3270 O 320.94 0.925102 -1.54408 0
M  V30 3271 H 317.315 0.129283 -0.740803 0
M  V30 3272 H 319.286 -0.34899 -2.96352 0
M  V30 3273 C 318.035 1.4139 -3.17654 0
M  V30 3274 H 317.358 0.922264 -3.89017 0
M  V30 3275 H 318.798 1.95335 -3.76325 0
M  V30 3276 C 317.257 2.4139 -2.35016 0
M  V30 3277 O 317.787 3.46586 -2.03079 0
M  V30 3278 N 315.993 2.13021 -1.97662 0
M  V30 3279 H 315.54 1.27499 -2.23834 0
M  V30 3280 H 315.498 2.80164 -1.42673 0
M  V30 3281 N 319.27 1.56325 -0.20005 0
M  V30 3282 C 320.233 2.18084 0.705132 0
M  V30 3283 C 321.233 1.13666 1.1374 0
M  V30 3284 O 322.423 1.39023 1.04968 0
M  V30 3285 C 319.555 2.78689 1.96329 0
M  V30 3286 H 320.748 2.99435 0.167023 0
M  V30 3287 H 318.301 1.56221 0.0495725 0
M  V30 3288 H 319.036 2.0115 2.5438 0
M  V30 3289 H 318.821 3.55133 1.66202 0
M  V30 3290 H 320.311 3.26096 2.60866 0
M  V30 3291 N 320.748 -0.0735177 1.57428 0
M  V30 3292 C 321.696 -1.10628 2.04607 0
M  V30 3293 C 322.69 -1.40181 0.951088 0
M  V30 3294 O 323.896 -1.39608 1.1362 0
M  V30 3295 H 320.271 -0.374088 0.652351 0
M  V30 3296 H 322.242 -0.682218 2.90497 0
M  V30 3297 C 320.991 -2.41212 2.50423 0
M  V30 3298 H 320.314 -2.19322 3.34272 0
M  V30 3299 H 321.754 -3.11927 2.87189 0
M  V30 3300 C 320.213 -3.0705 1.38644 0
M  V30 3301 O 320.743 -3.95056 0.727582 0
M  V30 3302 N 318.949 -2.67645 1.132 0
M  V30 3303 H 318.496 -1.96169 1.66959 0
M  V30 3304 H 318.454 -3.1202 0.386147 0
M  V30 3305 N 322.226 -1.5378 -0.344866 0
M  V30 3306 C 323.637 -1.62428 -0.920552 0
M  V30 3307 C 323.988 -0.504747 -1.89596 0
M  V30 3308 O 323.113 0.365711 -2.13287 0
M  V30 3309 C 323.708 -2.94419 -1.67639 0
M  V30 3310 C 322.267 -3.05333 -2.20111 0
M  V30 3311 C 321.414 -2.57866 -1.01982 0
M  V30 3312 H 324.365 -1.58222 -0.123042 0
M  V30 3313 H 324.386 -2.83384 -2.53917 0
M  V30 3314 H 323.898 -3.7588 -0.966224 0
M  V30 3315 H 321.999 -2.28502 -2.94308 0
M  V30 3316 H 322.112 -4.10778 -2.46573 0
M  V30 3317 H 320.476 -2.13241 -1.39285 0
M  V30 3318 H 321.259 -3.41765 -0.324308 0
M  V30 3319 N 323.704 0.605807 -1.45491 0
M  V30 3320 C 324.952 1.36207 -1.49305 0
M  V30 3321 C 325.273 1.94519 -0.136863 0
M  V30 3322 O 324.543 1.77261 0.833983 0
M  V30 3323 H 323.123 0.50565 -0.549843 0
M  V30 3324 H 325.785 0.711239 -1.81459 0
M  V30 3325 H 324.881 2.18058 -2.23287 0
M  V30 3326 N 325.182 1.32811 0.848464 0
M  V30 3327 C 326.092 1.24278 1.98978 0
M  V30 3328 C 327.108 0.155176 1.73307 0
M  V30 3329 O 328.284 0.376999 1.9784 0
M  V30 3330 C 325.349 0.972444 3.32783 0
M  V30 3331 C 324.41 2.14911 3.71634 0
M  V30 3332 C 323.643 1.89157 4.99054 0
M  V30 3333 O 323.866 0.837165 5.64223 0
M  V30 3334 O 322.8 2.75433 5.35183 0
M  V30 3335 H 326.626 2.20238 2.09115 0
M  V30 3336 H 324.211 1.12762 0.980052 0
M  V30 3337 H 326.093 0.838432 4.12975 0
M  V30 3338 H 324.768 0.043051 3.23671 0
M  V30 3339 H 323.675 2.33862 2.91992 0
M  V30 3340 H 325.008 3.06151 3.85399 0
M  V30 3341 N 326.66 -1.06551 1.16123 0
M  V30 3342 C 328.076 -1.3142 0.905585 0
M  V30 3343 C 328.276 -1.96571 -0.442964 0
M  V30 3344 O 327.332 -2.23068 -1.18308 0
M  V30 3345 C 328.645 -2.19741 2.05267 0
M  V30 3346 C 330.193 -2.33165 2.08813 0
M  V30 3347 C 330.668 -3.24838 3.22868 0
M  V30 3348 N 332.159 -3.32421 3.22568 0
M  V30 3349 C 332.894 -4.0344 4.0746 0
M  V30 3350 N 332.39 -4.77003 5.02434 0
M  V30 3351 N 334.183 -3.99464 3.95456 0
M  V30 3352 H 326.334 -0.626548 2.02949 0
M  V30 3353 H 328.597 -0.338777 0.8854 0
M  V30 3354 H 328.303 -1.79142 3.02657 0
M  V30 3355 H 328.177 -3.20313 1.99198 0
M  V30 3356 H 330.564 -2.73013 1.12018 0
M  V30 3357 H 330.645 -1.3227 2.18948 0
M  V30 3358 H 330.289 -2.85708 4.19921 0
M  V30 3359 H 330.219 -4.25707 3.0997 0
M  V30 3360 H 332.71 -2.79994 2.53795 0
M  V30 3361 H 333.023 -5.28712 5.63634 0
M  V30 3362 H 331.368 -4.75992 5.06415 0
M  V30 3363 H 334.559 -3.4111 3.20564 0
M  V30 3364 H 334.732 -4.54544 4.61837 0
M  V30 3365 N 328.138 -0.959301 -1.25041 0
M  V30 3366 C 329.386 -0.615393 -1.92503 0
M  V30 3367 C 329.707 0.850969 -1.75452 0
M  V30 3368 O 328.977 1.60658 -1.12098 0
M  V30 3369 H 327.557 -0.224613 -0.712431 0
M  V30 3370 H 330.219 -1.21855 -1.5211 0
M  V30 3371 H 329.315 -0.848738 -3.00338 0
M  V30 3372 N 329.616 1.39756 -0.72842 0
M  V30 3373 C 330.864 2.00248 -0.272946 0
M  V30 3374 C 331.185 1.58077 1.14178 0
M  V30 3375 O 330.455 0.826014 1.77634 0
M  V30 3376 H 329.035 0.740554 -0.0979247 0
M  V30 3377 H 331.697 1.70903 -0.936912 0
M  V30 3378 H 330.793 3.10495 -0.316142 0
M  V30 3379 N 331.094 0.475555 1.50254 0
M  V30 3380 C 332.004 -0.321501 2.32387 0
M  V30 3381 C 333.02 -0.991755 1.42969 0
M  V30 3382 O 334.196 -0.978747 1.76018 0
M  V30 3383 C 331.261 -1.38667 3.17762 0
M  V30 3384 C 330.322 -0.732538 4.23004 0
M  V30 3385 C 329.555 -1.74695 5.04299 0
M  V30 3386 O 329.778 -2.97399 4.86734 0
M  V30 3387 O 328.712 -1.31631 5.8733 0
M  V30 3388 H 332.538 0.350071 3.01676 0
M  V30 3389 H 330.123 0.237321 1.47503 0
M  V30 3390 H 332.005 -2.00354 3.70724 0
M  V30 3391 H 330.68 -2.04163 2.51196 0
M  V30 3392 H 329.587 -0.0765902 3.74022 0
M  V30 3393 H 330.92 -0.120452 4.92053 0
M  V30 3394 N 332.573 -1.56217 0.208337 0
M  V30 3395 C 333.82 -1.97949 -0.42692 0
M  V30 3396 C 334.148 -1.09562 -1.60706 0
M  V30 3397 O 333.403 -0.137616 -1.95216 0
M  V30 3398 C 333.702 -3.45441 -0.916797 0
M  V30 3399 C 333.368 -4.50646 0.151391 0
M  V30 3400 C 332.03 -4.79139 0.444867 0
M  V30 3401 C 334.382 -5.13811 0.874492 0
M  V30 3402 C 331.71 -5.68084 1.46619 0
M  V30 3403 C 334.062 -6.03861 1.88506 0
M  V30 3404 C 332.726 -6.30704 2.18559 0
M  V30 3405 H 331.996 -0.724345 -0.156221 0
M  V30 3406 H 334.643 -1.89006 0.308084 0
M  V30 3407 H 332.948 -3.51521 -1.73032 0
M  V30 3408 H 334.645 -3.75094 -1.41794 0
M  V30 3409 H 331.235 -4.28511 -0.0875068 0
M  V30 3410 H 335.419 -4.91879 0.660996 0
M  V30 3411 H 330.675 -5.87151 1.7048 0
M  V30 3412 H 334.849 -6.51861 2.45051 0
M  V30 3413 H 332.476 -6.99424 2.97843 0
M  V30 3414 N 334.051 0.0651679 -1.57465 0
M  V30 3415 C 335.279 0.775808 -1.91804 0
M  V30 3416 C 335.694 1.70782 -0.804916 0
M  V30 3417 O 335.051 1.81153 0.221311 0
M  V30 3418 C 335.102 1.56381 -3.25925 0
M  V30 3419 O 334.823 0.669248 -4.32958 0
M  V30 3420 C 336.324 2.37485 -3.7432 0
M  V30 3421 H 333.544 0.2202 -0.63384 0
M  V30 3422 H 336.088 0.0334587 -2.04473 0
M  V30 3423 H 334.243 2.25837 -3.14764 0
M  V30 3424 H 334.657 1.21801 -5.10162 0
M  V30 3425 H 336.131 2.88223 -4.70778 0
M  V30 3426 H 336.608 3.17307 -3.03666 0
M  V30 3427 H 337.214 1.73173 -3.88447 0
M  V30 3428 N 335.529 1.53961 0.336706 0
M  V30 3429 C 336.477 1.83136 1.43401 0
M  V30 3430 C 337.471 0.702313 1.54156 0
M  V30 3431 O 338.677 0.885765 1.56698 0
M  V30 3432 H 335.052 0.580309 0.478273 0
M  V30 3433 H 337.023 2.74925 1.16012 0
M  V30 3434 C 335.772 2.06385 2.79822 0
M  V30 3435 H 335.095 2.92718 2.72316 0
M  V30 3436 H 336.535 2.30761 3.55704 0
M  V30 3437 C 334.994 0.851414 3.25964 0
M  V30 3438 O 335.524 0.0541904 4.01663 0
M  V30 3439 N 333.73 0.66672 2.82848 0
M  V30 3440 H 333.277 1.31665 2.21409 0
M  V30 3441 H 333.235 -0.143032 3.14074 0
M  V30 3442 N 337.007 -0.598083 1.45811 0
M  V30 3443 C 338.235 -1.38322 1.53866 0
M  V30 3444 C 338.65 -1.87992 0.174479 0
M  V30 3445 O 338.007 -1.62756 -0.825627 0
M  V30 3446 C 338.058 -2.58125 2.53089 0
M  V30 3447 O 337.779 -2.10516 3.84206 0
M  V30 3448 C 339.28 -3.50869 2.70935 0
M  V30 3449 H 336.5 -0.423093 0.520801 0
M  V30 3450 H 339.044 -0.728527 1.91083 0
M  V30 3451 H 337.199 -3.19615 2.18917 0
M  V30 3452 H 337.613 -2.88425 4.38077 0
M  V30 3453 H 339.087 -4.31451 3.44317 0
M  V30 3454 H 339.564 -4.01822 1.77301 0
M  V30 3455 H 340.17 -2.95225 3.06141 0
M  V30 3456 N 338.485 -1.33259 -0.841409 0
M  V30 3457 C 339.715 -1.2742 -1.62628 0
M  V30 3458 C 340.123 0.157604 -1.88542 0
M  V30 3459 O 339.466 1.10938 -1.46419 0
M  V30 3460 C 339.528 -1.97797 -3.00194 0
M  V30 3461 C 339.192 -3.47109 -2.97261 0
M  V30 3462 C 340.189 -4.42358 -2.73159 0
M  V30 3463 C 337.874 -3.89247 -3.17478 0
M  V30 3464 C 339.868 -5.77718 -2.69296 0
M  V30 3465 C 337.555 -5.24713 -3.13241 0
M  V30 3466 C 338.553 -6.1876 -2.89181 0
M  V30 3467 O 338.241 -7.51745 -2.84843 0
M  V30 3468 H 337.973 -0.440436 -0.512827 0
M  V30 3469 H 340.527 -1.76153 -1.05638 0
M  V30 3470 H 338.757 -1.43652 -3.59028 0
M  V30 3471 H 340.446 -1.8549 -3.61038 0
M  V30 3472 H 341.212 -4.11127 -2.57294 0
M  V30 3473 H 337.091 -3.16456 -3.35226 0
M  V30 3474 H 340.635 -6.51097 -2.50436 0
M  V30 3475 H 336.532 -5.55569 -3.28654 0
M  V30 3476 H 337.3 -7.61262 -3.00702 0
M  V30 3477 N 339.963 1.05934 -1.16686 0
M  V30 3478 C 340.911 2.15603 -0.872817 0
M  V30 3479 C 341.905 1.68647 0.159576 0
M  V30 3480 O 343.111 1.79995 0.0132125 0
M  V30 3481 H 339.486 0.703885 -0.264671 0
M  V30 3482 H 341.457 2.37613 -1.80507 0
M  V30 3483 C 340.206 3.45457 -0.394344 0
M  V30 3484 H 339.529 3.81984 -1.18019 0
M  V30 3485 H 340.969 4.2339 -0.227408 0
M  V30 3486 C 339.428 3.25021 0.88673 0
M  V30 3487 O 339.958 3.50906 1.95519 0
M  V30 3488 N 338.164 2.78437 0.831925 0
M  V30 3489 H 337.711 2.57572 -0.0377619 0
M  V30 3490 H 337.669 2.65144 1.68956 0
M  V30 3491 N 341.441 0.965919 1.2453 0
M  V30 3492 C 342.852 0.665929 1.7442 0
M  V30 3493 C 343.203 -0.818407 1.78316 0
M  V30 3494 O 342.328 -1.64037 1.41141 0
M  V30 3495 C 342.923 1.20211 3.16757 0
M  V30 3496 C 341.482 0.952059 3.6416 0
M  V30 3497 C 340.629 1.33848 2.42858 0
M  V30 3498 H 343.58 1.14144 1.10258 0
M  V30 3499 H 343.601 0.567544 3.76244 0
M  V30 3500 H 343.113 2.28244 3.13889 0
M  V30 3501 H 341.214 -0.112821 3.72429 0
M  V30 3502 H 341.327 1.59645 4.51719 0
M  V30 3503 H 339.691 0.756864 2.43195 0
M  V30 3504 H 340.474 2.42827 2.42673 0
M  V30 3505 N 342.919 -1.39368 0.735821 0
M  V30 3506 C 344.144 -2.05319 0.293052 0
M  V30 3507 C 344.569 -1.55115 -1.064 0
M  V30 3508 O 343.927 -0.695261 -1.67439 0
M  V30 3509 C 343.975 -3.59305 0.305323 0
M  V30 3510 O 343.079 -4.06299 -0.706761 0
M  V30 3511 H 342.42 -0.650529 0.13307 0
M  V30 3512 H 344.95 -1.78386 1.00197 0
M  V30 3513 H 344.96 -4.07724 0.149997 0
M  V30 3514 H 343.635 -3.95207 1.29553 0
M  V30 3515 H 342.212 -3.69292 -0.517504 0
M  V30 3516 N 344.397 -0.483516 -1.5 0
M  V30 3517 C 345.345 0.318061 -2.30415 0
M  V30 3518 C 346.339 0.978988 -1.38247 0
M  V30 3519 O 347.545 0.908673 -1.55381 0
M  V30 3520 H 343.92 0.121419 -0.742133 0
M  V30 3521 H 345.891 -0.380403 -2.95965 0
M  V30 3522 C 344.64 1.38013 -3.19136 0
M  V30 3523 H 343.963 0.880952 -3.89973 0
M  V30 3524 H 345.403 1.91332 -3.78375 0
M  V30 3525 C 343.862 2.38884 -2.37563 0
M  V30 3526 O 344.392 3.44412 -2.06744 0
M  V30 3527 N 342.598 2.10912 -1.99911 0
M  V30 3528 H 342.145 1.25118 -2.25174 0
M  V30 3529 H 342.103 2.78635 -1.45636 0
M  V30 3530 N 345.875 1.56104 -0.216619 0
M  V30 3531 C 347.103 2.02563 0.421413 0
M  V30 3532 C 347.518 1.0965 1.53695 0
M  V30 3533 O 346.875 0.10521 1.82196 0
M  V30 3534 C 346.926 3.48584 0.957665 0
M  V30 3535 O 346.647 4.37953 -0.113389 0
M  V30 3536 C 348.148 4.10664 1.66943 0
M  V30 3537 H 345.368 0.662944 0.103665 0
M  V30 3538 H 347.912 2.01793 -0.331629 0
M  V30 3539 H 346.067 3.49985 1.661 0
M  V30 3540 H 346.481 5.23704 0.288932 0
M  V30 3541 H 347.955 5.14622 1.99671 0
M  V30 3542 H 348.432 3.55373 2.58083 0
M  V30 3543 H 349.038 4.13098 1.01142 0
M  V30 3544 N 347.353 -0.0568162 1.57498 0
M  V30 3545 C 348.63 -0.786954 1.79071 0
M  V30 3546 C 349.01 -1.95028 0.80792 0
M  V30 3547 O 348.358 -2.27968 -0.155858 0
M  V30 3548 C 348.568 -1.24594 3.26002 0
M  V30 3549 C 349.916 -1.67323 3.90241 0
M  V30 3550 O 350.94 -1.34124 3.29984 0
M  V30 3551 O 349.799 -2.28842 4.9628 0
M  V30 3552 H 346.893 -0.378262 0.735423 0
M  V30 3553 H 349.439 -0.035734 1.69662 0
M  V30 3554 H 348.211 -0.41423 3.89101 0
M  V30 3555 H 347.834 -2.05803 3.40192 0
M  V30 3556 N 348.832 -1.54138 -0.328536 0
M  V30 3557 C 350.078 -1.7236 -1.06865 0
M  V30 3558 C 350.411 -0.493231 -1.87832 0
M  V30 3559 O 349.686 0.5098 -1.877 0
M  V30 3560 C 349.969 -2.99621 -1.99747 0
M  V30 3561 C 349.822 -4.32899 -1.22143 0
M  V30 3562 C 351.141 -3.22615 -2.99345 0
M  V30 3563 H 348.26 -0.627151 -0.387105 0
M  V30 3564 H 350.902 -1.86827 -0.345767 0
M  V30 3565 H 349.052 -2.87418 -2.61387 0
M  V30 3566 H 350.724 -4.56978 -0.630017 0
M  V30 3567 H 348.967 -4.30628 -0.523628 0
M  V30 3568 H 349.638 -5.18154 -1.90318 0
M  V30 3569 H 352.114 -3.34248 -2.47826 0
M  V30 3570 H 350.99 -4.13027 -3.61524 0
M  V30 3571 H 351.251 -2.3961 -3.71536 0
M  V30 3572 N 350.31 0.590341 -1.46126 0
M  V30 3573 C 351.535 1.37991 -1.54833 0
M  V30 3574 C 351.96 1.87163 -0.187506 0
M  V30 3575 O 351.318 1.61133 0.831008 0
M  V30 3576 C 351.366 2.54867 -2.55098 0
M  V30 3577 O 350.47 3.56061 -2.08073 0
M  V30 3578 H 349.811 0.411265 -0.521303 0
M  V30 3579 H 352.341 0.716819 -1.91632 0
M  V30 3580 H 352.351 3.01886 -2.74461 0
M  V30 3581 H 351.026 2.18429 -3.53923 0
M  V30 3582 H 349.603 3.15574 -1.98664 0
M  V30 3583 N 351.788 1.33704 0.83433 0
M  V30 3584 C 352.698 1.26382 1.97648 0
M  V30 3585 C 353.714 0.173548 1.73132 0
M  V30 3586 O 354.89 0.397962 1.97429 0
M  V30 3587 C 351.955 1.00769 3.31733 0
M  V30 3588 C 351.016 2.1884 3.69334 0
M  V30 3589 C 350.249 1.9444 4.9702 0
M  V30 3590 O 350.472 0.896961 5.63303 0
M  V30 3591 O 349.406 2.81093 5.32231 0
M  V30 3592 H 353.232 2.22444 2.06767 0
M  V30 3593 H 350.817 1.13795 0.968037 0
M  V30 3594 H 352.699 0.882186 4.12062 0
M  V30 3595 H 351.374 0.0773783 3.23608 0
M  V30 3596 H 350.281 2.36946 2.89495 0
M  V30 3597 H 351.614 3.10221 3.82131 0
M  V30 3598 N 353.266 -1.05314 1.17247 0
M  V30 3599 C 354.514 -1.77941 0.958194 0
M  V30 3600 C 354.835 -1.88089 -0.514556 0
M  V30 3601 O 354.105 -1.39676 -1.37359 0
M  V30 3602 H 352.685 -0.659116 0.351533 0
M  V30 3603 H 355.347 -1.27166 1.47699 0
M  V30 3604 H 354.443 -2.79663 1.38546 0
M  V30 3605 N 354.744 -0.972509 -1.24016 0
M  V30 3606 C 356.16 -0.679827 -1.44397 0
M  V30 3607 C 356.36 0.756716 -1.86751 0
M  V30 3608 O 355.416 1.53007 -2.00861 0
M  V30 3609 C 356.729 -1.66803 -2.50195 0
M  V30 3610 C 358.277 -1.68119 -2.64017 0
M  V30 3611 C 358.752 -2.65748 -3.73017 0
M  V30 3612 N 360.243 -2.64219 -3.8045 0
M  V30 3613 C 360.978 -3.36433 -4.64328 0
M  V30 3614 N 360.474 -4.1818 -5.52356 0
M  V30 3615 N 362.267 -3.25235 -4.58453 0
M  V30 3616 H 354.418 -1.90059 -0.948228 0
M  V30 3617 H 356.681 -0.818527 -0.478245 0
M  V30 3618 H 356.387 -2.69498 -2.25973 0
M  V30 3619 H 356.261 -1.4446 -3.48441 0
M  V30 3620 H 358.648 -0.661319 -2.87594 0
M  V30 3621 H 358.729 -1.94525 -1.66113 0
M  V30 3622 H 358.373 -3.67872 -3.50189 0
M  V30 3623 H 358.303 -2.36619 -4.70446 0
M  V30 3624 H 360.794 -2.04887 -3.17537 0
M  V30 3625 H 361.107 -4.70157 -6.13329 0
M  V30 3626 H 359.452 -4.22273 -5.52006 0
M  V30 3627 H 362.643 -2.60829 -3.88698 0
M  V30 3628 H 362.816 -3.81776 -5.23594 0
M  V30 3629 N 356.222 1.38976 -0.743202 0
M  V30 3630 C 357.154 2.29096 -0.0689228 0
M  V30 3631 C 358.167 1.47229 0.694791 0
M  V30 3632 O 359.356 1.70212 0.537597 0
M  V30 3633 C 356.456 3.25988 0.926548 0
M  V30 3634 C 355.629 4.36833 0.222647 0
M  V30 3635 C 354.688 5.13981 1.12739 0
M  V30 3636 O 353.714 5.6601 0.601795 0
M  V30 3637 N 354.916 5.25966 2.45641 0
M  V30 3638 H 357.681 2.87604 -0.842846 0
M  V30 3639 H 355.242 1.50645 -0.593109 0
M  V30 3640 H 357.234 3.74476 1.5346 0
M  V30 3641 H 355.804 2.68453 1.60162 0
M  V30 3642 H 355.024 3.90116 -0.565983 0
M  V30 3643 H 356.312 5.0811 -0.264841 0
M  V30 3644 H 355.71 4.85228 2.9081 0
M  V30 3645 H 354.267 5.77865 3.01522 0
M  V30 3646 N 357.7 0.491464 1.49741 0
M  V30 3647 C 358.947 -0.0564256 2.02421 0
M  V30 3648 C 359.275 -1.37872 1.37192 0
M  V30 3649 O 358.53 -1.89375 0.493508 0
M  V30 3650 C 358.829 -0.267329 3.56399 0
M  V30 3651 C 358.495 0.975775 4.40215 0
M  V30 3652 C 357.157 1.31655 4.62839 0
M  V30 3653 C 359.509 1.80251 4.89039 0
M  V30 3654 C 356.837 2.48375 5.31532 0
M  V30 3655 C 359.189 2.96116 5.59015 0
M  V30 3656 C 357.853 3.30585 5.79888 0
M  V30 3657 H 357.123 -0.0206476 0.740712 0
M  V30 3658 H 359.77 0.649686 1.80143 0
M  V30 3659 H 358.075 -1.05588 3.77304 0
M  V30 3660 H 359.772 -0.705549 3.94744 0
M  V30 3661 H 356.362 0.700315 4.2284 0
M  V30 3662 H 360.546 1.55239 4.71396 0
M  V30 3663 H 355.802 2.7533 5.45897 0
M  V30 3664 H 359.976 3.60509 5.95824 0
M  V30 3665 H 357.603 4.21132 6.32892 0
M  V30 3666 N 359.178 -1.55987 0.224894 0
M  V30 3667 C 360.141 -2.19178 -0.670348 0
M  V30 3668 C 361.141 -1.15461 -1.11917 0
M  V30 3669 O 362.331 -1.40675 -1.02743 0
M  V30 3670 C 359.463 -2.81777 -1.9187 0
M  V30 3671 H 360.656 -2.99662 -0.119364 0
M  V30 3672 H 358.209 -1.5628 -0.0247128 0
M  V30 3673 H 358.944 -2.05172 -2.51147 0
M  V30 3674 H 358.729 -3.57732 -1.60531 0
M  V30 3675 H 360.219 -3.30205 -2.55645 0
M  V30 3676 N 360.656 0.0484629 -1.57525 0
M  V30 3677 C 361.619 1.03956 -2.04269 0
M  V30 3678 C 362.619 1.30211 -0.943496 0
M  V30 3679 O 363.809 1.25539 -1.20771 0
M  V30 3680 C 360.941 2.37742 -2.44319 0
M  V30 3681 H 362.134 0.636182 -2.93075 0
M  V30 3682 H 359.687 0.294811 -1.53494 0
M  V30 3683 H 360.422 2.82866 -1.5861 0
M  V30 3684 H 360.207 2.20021 -3.24551 0
M  V30 3685 H 361.697 3.08936 -2.80978 0
M  V30 3686 N 362.134 1.5431 0.320358 0
M  V30 3687 C 363.064 1.86912 1.3995 0
M  V30 3688 C 364.045 0.726211 1.53819 0
M  V30 3689 O 365.23 0.980233 1.67646 0
M  V30 3690 C 362.36 2.09932 2.7667 0
M  V30 3691 C 361.314 3.25776 2.77586 0
M  V30 3692 C 360.64 3.34173 4.17412 0
M  V30 3693 C 361.94 4.6335 2.41048 0
M  V30 3694 H 363.634 2.77292 1.12914 0
M  V30 3695 H 361.18 1.33421 0.541738 0
M  V30 3696 H 363.133 2.31324 3.52232 0
M  V30 3697 H 361.857 1.16304 3.0519 0
M  V30 3698 H 360.516 3.04276 2.04479 0
M  V30 3699 H 360.164 2.38098 4.43078 0
M  V30 3700 H 359.864 4.12033 4.18931 0
M  V30 3701 H 361.388 3.57803 4.94782 0
M  V30 3702 H 362.802 4.84602 3.06324 0
M  V30 3703 H 361.199 5.43782 2.53813 0
M  V30 3704 H 362.269 4.65381 1.36193 0
M  V30 3705 N 363.613 -0.582584 1.46437 0
M  V30 3706 C 364.89 -1.34276 1.4223 0
M  V30 3707 C 365.27 -2.10835 0.10583 0
M  V30 3708 O 364.618 -2.09485 -0.912596 0
M  V30 3709 C 364.828 -2.26865 2.65204 0
M  V30 3710 C 366.176 -2.88691 3.11356 0
M  V30 3711 O 367.2 -2.37178 2.65753 0
M  V30 3712 O 366.059 -3.82255 3.90568 0
M  V30 3713 H 363.153 -0.603326 0.565621 0
M  V30 3714 H 365.699 -0.603591 1.58603 0
M  V30 3715 H 364.471 -1.69724 3.52576 0
M  V30 3716 H 364.094 -3.08122 2.5129 0
M  V30 3717 N 365.091 -1.34144 -0.827227 0
M  V30 3718 C 366.321 -1.29138 -1.61267 0
M  V30 3719 C 366.729 0.137597 -1.88699 0
M  V30 3720 O 366.072 1.09379 -1.47587 0
M  V30 3721 C 366.134 -2.0097 -2.9808 0
M  V30 3722 C 365.798 -3.50242 -2.93563 0
M  V30 3723 C 366.795 -4.4523 -2.68452 0
M  V30 3724 C 364.48 -3.92592 -3.13331 0
M  V30 3725 C 366.474 -5.80542 -2.63154 0
M  V30 3726 C 364.161 -5.28005 -3.07658 0
M  V30 3727 C 365.159 -6.21792 -2.82602 0
M  V30 3728 O 364.847 -7.54723 -2.76853 0
M  V30 3729 H 364.579 -0.445851 -0.508127 0
M  V30 3730 H 367.133 -1.77263 -1.03763 0
M  V30 3731 H 365.363 -1.47451 -3.57484 0
M  V30 3732 H 367.052 -1.89309 -3.5905 0
M  V30 3733 H 367.818 -4.13832 -2.52919 0
M  V30 3734 H 363.697 -3.19994 -3.31851 0
M  V30 3735 H 367.241 -6.53717 -2.43516 0
M  V30 3736 H 363.138 -5.59023 -3.22743 0
M  V30 3737 H 363.906 -7.64409 -2.92611 0
M  V30 3738 N 366.569 1.04691 -1.17803 0
M  V30 3739 C 367.499 2.14494 -0.92275 0
M  V30 3740 C 368.48 1.69546 0.137179 0
M  V30 3741 O 369.665 1.94195 -0.0141108 0
M  V30 3742 C 366.795 3.44491 -0.440803 0
M  V30 3743 C 365.749 4.03031 -1.4405 0
M  V30 3744 C 365.075 5.28432 -0.81631 0
M  V30 3745 C 366.375 4.39932 -2.81527 0
M  V30 3746 H 368.069 2.36107 -1.84103 0
M  V30 3747 H 365.615 1.1347 -0.886599 0
M  V30 3748 H 367.568 4.2066 -0.249602 0
M  V30 3749 H 366.292 3.22546 0.513025 0
M  V30 3750 H 364.951 3.28937 -1.61853 0
M  V30 3751 H 364.599 5.02792 0.144511 0
M  V30 3752 H 364.299 5.68559 -1.48371 0
M  V30 3753 H 365.823 6.07284 -0.635496 0
M  V30 3754 H 367.237 5.07113 -2.67412 0
M  V30 3755 H 365.634 4.9109 -3.44892 0
M  V30 3756 H 366.704 3.50045 -3.35554 0
M  V30 3757 N 368.047 0.979072 1.23499 0
M  V30 3758 C 368.977 0.537606 2.27227 0
M  V30 3759 C 369.958 -0.428539 1.64613 0
M  V30 3760 O 371.143 -0.322191 1.91509 0
M  V30 3761 C 368.273 -0.162052 3.46922 0
M  V30 3762 C 367.227 0.721242 4.21879 0
M  V30 3763 C 366.553 -0.110555 5.34586 0
M  V30 3764 C 367.853 2.01141 4.82016 0
M  V30 3765 H 369.547 1.40462 2.64406 0
M  V30 3766 H 367.093 0.67684 1.27102 0
M  V30 3767 H 369.046 -0.482192 4.18632 0
M  V30 3768 H 367.77 -1.06351 3.08799 0
M  V30 3769 H 366.429 1.02482 3.51984 0
M  V30 3770 H 366.077 -1.0125 4.92704 0
M  V30 3771 H 365.777 0.477325 5.85658 0
M  V30 3772 H 367.301 -0.425107 6.09118 0
M  V30 3773 H 368.715 1.75612 5.45741 0
M  V30 3774 H 367.112 2.54695 5.43369 0
M  V30 3775 H 368.182 2.69909 4.02836 0
M  V30 3776 N 369.525 -1.3858 0.750561 0
M  V30 3777 C 370.773 -1.99789 0.30477 0
M  V30 3778 C 371.094 -1.59874 -1.11649 0
M  V30 3779 O 370.364 -0.85417 -1.76297 0
M  V30 3780 H 368.944 -0.738902 0.109694 0
M  V30 3781 H 371.606 -1.69391 0.963983 0
M  V30 3782 H 370.702 -3.09952 0.365499 0
M  V30 3783 N 371.003 -0.499398 -1.49478 0
M  V30 3784 C 372.228 0.044722 -2.07352 0
M  V30 3785 C 372.653 1.30207 -1.35749 0
M  V30 3786 O 372.011 1.76516 -0.413732 0
M  V30 3787 C 372.059 0.283013 -3.59488 0
M  V30 3788 O 371.163 1.35804 -3.89398 0
M  V30 3789 H 370.504 -0.0255147 -0.66351 0
M  V30 3790 H 373.034 -0.698561 -1.92305 0
M  V30 3791 H 373.044 0.515007 -4.04737 0
M  V30 3792 H 371.719 -0.635636 -4.11014 0
M  V30 3793 H 370.296 1.11113 -3.55961 0
M  V30 3794 N 372.481 1.55866 -0.233164 0
M  V30 3795 C 373.729 1.9821 0.394593 0
M  V30 3796 C 374.05 1.12234 1.59463 0
M  V30 3797 O 373.32 0.201981 1.94856 0
M  V30 3798 H 371.9 0.732034 0.148778 0
M  V30 3799 H 374.562 1.92107 -0.32876 0
M  V30 3800 H 373.658 3.03845 0.713063 0
M  V30 3801 N 373.959 -0.0401083 1.57549 0
M  V30 3802 C 375.205 -0.734211 1.89043 0
M  V30 3803 C 375.538 -1.75591 0.829535 0
M  V30 3804 O 374.813 -1.93868 -0.156706 0
M  V30 3805 C 375.096 -1.41374 3.31188 0
M  V30 3806 C 374.949 -0.406299 4.47961 0
M  V30 3807 C 376.268 -2.35061 3.72068 0
M  V30 3808 H 373.387 -0.265447 0.687537 0
M  V30 3809 H 376.029 0.00294087 1.9 0
M  V30 3810 H 374.179 -2.04206 3.30503 0
M  V30 3811 H 375.851 0.219255 4.60779 0
M  V30 3812 H 374.094 0.275485 4.32924 0
M  V30 3813 H 374.765 -0.920022 5.44279 0
M  V30 3814 H 377.241 -1.82282 3.74049 0
M  V30 3815 H 376.117 -2.79593 4.72355 0
M  V30 3816 H 376.378 -3.21258 3.0372 0
M  V30 3817 N 375.437 -1.54477 -0.31217 0
M  V30 3818 C 376.367 -1.87652 -1.38957 0
M  V30 3819 C 377.348 -0.734358 -1.53431 0
M  V30 3820 O 378.533 -0.98911 -1.67123 0
M  V30 3821 C 375.663 -2.11396 -2.75552 0
M  V30 3822 C 374.617 -3.27243 -2.75855 0
M  V30 3823 C 373.943 -3.36382 -4.15633 0
M  V30 3824 C 375.243 -4.64622 -2.38587 0
M  V30 3825 H 376.937 -2.77887 -1.11442 0
M  V30 3826 H 374.483 -1.33707 -0.534655 0
M  V30 3827 H 376.436 -2.33189 -3.51 0
M  V30 3828 H 375.16 -1.17921 -3.04569 0
M  V30 3829 H 373.819 -3.05356 -2.02863 0
M  V30 3830 H 373.467 -2.40445 -4.41809 0
M  V30 3831 H 373.167 -4.14249 -4.1674 0
M  V30 3832 H 374.691 -3.60422 -4.92877 0
M  V30 3833 H 376.105 -4.86219 -3.03749 0
M  V30 3834 H 374.502 -5.45121 -2.50925 0
M  V30 3835 H 375.572 -4.66097 -1.33723 0
M  V30 3836 N 376.915 0.57481 -1.46744 0
M  V30 3837 C 377.878 1.66533 -1.57478 0
M  V30 3838 C 378.878 1.54338 -0.451263 0
M  V30 3839 O 380.068 1.58814 -0.715813 0
M  V30 3840 C 377.2 3.05999 -1.50259 0
M  V30 3841 H 378.393 1.58372 -2.54673 0
M  V30 3842 H 375.946 0.793301 -1.34672 0
M  V30 3843 H 376.681 3.19709 -0.543725 0
M  V30 3844 H 376.466 3.16259 -2.31781 0
M  V30 3845 H 377.956 3.8537 -1.60872 0
M  V30 3846 N 378.394 1.34581 0.820102 0
M  V30 3847 C 379.642 1.26845 1.57336 0
M  V30 3848 C 379.963 -0.160667 1.94337 0
M  V30 3849 O 379.233 -1.09396 1.6251 0
M  V30 3850 H 377.813 0.466514 0.583415 0
M  V30 3851 H 380.475 1.68526 0.979027 0
M  V30 3852 H 379.571 1.87513 2.4949 0
M  V30 3853 N 379.872 -1.04064 1.18357 0
M  V30 3854 C 380.82 -2.14187 0.907007 0
M  V30 3855 C 381.814 -1.68879 -0.132725 0
M  V30 3856 O 383.02 -1.79993 0.0154248 0
M  V30 3857 H 379.395 -0.699585 0.275835 0
M  V30 3858 H 381.366 -2.34711 1.84264 0
M  V30 3859 C 380.115 -3.44785 0.449254 0
M  V30 3860 H 379.438 -3.80058 1.24081 0
M  V30 3861 H 380.878 -4.22974 0.294737 0
M  V30 3862 C 379.337 -3.26391 -0.834909 0
M  V30 3863 O 379.867 -3.53973 -1.89911 0
M  V30 3864 N 378.073 -2.79726 -0.787523 0
M  V30 3865 H 377.62 -2.5748 0.0787347 0
M  V30 3866 H 377.578 -2.67798 -1.64716 0
M  V30 3867 N 381.35 -0.985608 -1.22978 0
M  V30 3868 C 382.313 -0.535071 -2.22867 0
M  V30 3869 C 383.313 0.378123 -1.56291 0
M  V30 3870 O 384.503 0.171092 -1.73358 0
M  V30 3871 C 381.635 0.222702 -3.40172 0
M  V30 3872 H 382.828 -1.41835 -2.6424 0
M  V30 3873 H 380.381 -0.772042 -1.35901 0
M  V30 3874 H 381.116 1.12229 -3.04262 0
M  V30 3875 H 380.901 -0.43288 -3.89703 0
M  V30 3876 H 382.391 0.526335 -4.1427 0
M  V30 3877 N 382.828 1.3818 -0.7579 0
M  V30 3878 C 384.075 2.00019 -0.315985 0
M  V30 3879 C 384.403 1.60163 1.10355 0
M  V30 3880 O 383.658 0.83264 1.77103 0
M  V30 3881 C 383.957 3.55252 -0.391218 0
M  V30 3882 C 383.623 4.14834 -1.76702 0
M  V30 3883 C 382.285 4.30821 -2.14353 0
M  V30 3884 C 384.637 4.47658 -2.66931 0
M  V30 3885 C 381.965 4.76928 -3.41696 0
M  V30 3886 C 384.317 4.95184 -3.93669 0
M  V30 3887 C 382.981 5.09377 -4.31383 0
M  V30 3888 H 382.251 0.731923 -0.115627 0
M  V30 3889 H 384.898 1.65161 -0.969223 0
M  V30 3890 H 383.203 3.90273 0.34558 0
M  V30 3891 H 384.9 4.00988 -0.030805 0
M  V30 3892 H 381.49 4.02808 -1.46435 0
M  V30 3893 H 385.674 4.34904 -2.39106 0
M  V30 3894 H 380.93 4.86103 -3.70829 0
M  V30 3895 H 385.104 5.19551 -4.63724 0
M  V30 3896 H 382.731 5.44865 -5.30119 0
M  V30 3897 N 384.306 0.507319 1.49211 0
M  V30 3898 C 385.552 -0.0350047 2.0277 0
M  V30 3899 C 385.885 -1.3606 1.38569 0
M  V30 3900 O 385.16 -1.87321 0.523542 0
M  V30 3901 C 385.443 -0.180916 3.59645 0
M  V30 3902 C 385.296 1.16825 4.34364 0
M  V30 3903 C 386.615 -0.918558 4.30407 0
M  V30 3904 H 383.734 -0.0112473 0.736914 0
M  V30 3905 H 386.376 0.659956 1.7817 0
M  V30 3906 H 384.526 -0.772826 3.80736 0
M  V30 3907 H 386.198 1.79952 4.24753 0
M  V30 3908 H 384.441 1.75594 3.96673 0
M  V30 3909 H 385.112 1.01939 5.42506 0
M  V30 3910 H 387.588 -0.41649 4.1401 0
M  V30 3911 H 386.464 -0.989505 5.39907 0
M  V30 3912 H 386.725 -1.96373 3.96093 0
M  V30 3913 N 385.784 -1.5574 0.241426 0
M  V30 3914 C 387.014 -2.02913 -0.38857 0
M  V30 3915 C 387.422 -1.12014 -1.52478 0
M  V30 3916 O 386.765 -0.125903 -1.83268 0
M  V30 3917 C 386.827 -3.4636 -0.963075 0
M  V30 3918 C 386.491 -4.56982 0.0401916 0
M  V30 3919 C 387.488 -5.12941 0.847766 0
M  V30 3920 C 385.173 -5.0203 0.164699 0
M  V30 3921 C 387.167 -6.12437 1.76636 0
M  V30 3922 C 384.854 -6.01358 1.0868 0
M  V30 3923 C 385.852 -6.5644 1.88616 0
M  V30 3924 O 385.54 -7.53831 2.79273 0
M  V30 3925 H 385.272 -0.668983 -0.0971452 0
M  V30 3926 H 387.826 -2.02198 0.361248 0
M  V30 3927 H 386.056 -3.44206 -1.76235 0
M  V30 3928 H 387.745 -3.77065 -1.50257 0
M  V30 3929 H 388.511 -4.78974 0.762133 0
M  V30 3930 H 384.39 -4.58824 -0.447411 0
M  V30 3931 H 387.934 -6.55355 2.39071 0
M  V30 3932 H 383.831 -6.34746 1.17338 0
M  V30 3933 H 384.599 -7.71428 2.73572 0
M  V30 3934 N 387.262 0.0317525 -1.57568 0
M  V30 3935 C 388.673 0.578692 -1.77505 0
M  V30 3936 C 389.024 1.75749 -0.872164 0
M  V30 3937 O 388.149 2.16298 -0.0663106 0
M  V30 3938 C 388.744 1.05658 -3.21904 0
M  V30 3939 C 387.303 1.54906 -3.43047 0
M  V30 3940 C 386.45 0.485939 -2.73009 0
M  V30 3941 H 389.401 -0.194475 -1.57504 0
M  V30 3942 H 389.422 1.92404 -3.28269 0
M  V30 3943 H 388.934 0.198422 -3.87592 0
M  V30 3944 H 387.035 2.42915 -2.82529 0
M  V30 3945 H 387.148 1.59841 -4.5165 0
M  V30 3946 H 385.512 0.940354 -2.36705 0
M  V30 3947 H 386.295 -0.362709 -3.41379 0
M  V30 3948 N 388.74 1.54641 0.303973 0
M  V30 3949 C 389.69 1.8177 1.37636 0
M  V30 3950 C 390.674 0.674697 1.46071 0
M  V30 3951 O 391.866 0.935251 1.50273 0
M  V30 3952 C 388.995 2.06584 2.74186 0
M  V30 3953 C 388.081 3.2706 2.69986 0
M  V30 3954 N 388.472 4.47682 2.35402 0
M  V30 3955 C 386.77 3.29028 3.01092 0
M  V30 3956 C 387.471 5.29689 2.40426 0
M  V30 3957 N 386.447 4.67339 2.7766 0
M  V30 3958 H 390.249 2.72596 1.09857 0
M  V30 3959 H 387.763 1.541 0.51254 0
M  V30 3960 H 389.76 2.24166 3.51504 0
M  V30 3961 H 388.42 1.17024 3.02879 0
M  V30 3962 H 389.431 4.74336 2.07908 0
M  V30 3963 H 386.108 2.49565 3.34699 0
M  V30 3964 H 387.498 6.3606 2.16512 0
M  V30 3965 N 390.218 -0.567019 1.47046 0
M  V30 3966 C 391.15 -1.68985 1.54844 0
M  V30 3967 C 392.163 -1.56869 0.435431 0
M  V30 3968 O 393.352 -1.64006 0.70457 0
M  V30 3969 C 390.452 -3.07373 1.42742 0
M  V30 3970 C 389.625 -3.45339 2.6844 0
M  V30 3971 C 388.684 -4.62849 2.50314 0
M  V30 3972 O 387.71 -4.67922 3.24095 0
M  V30 3973 N 388.912 -5.58726 1.57499 0
M  V30 3974 H 391.677 -1.62745 2.51663 0
M  V30 3975 H 389.238 -0.753411 1.43302 0
M  V30 3976 H 391.23 -3.83803 1.28365 0
M  V30 3977 H 389.8 -3.07893 0.540445 0
M  V30 3978 H 389.02 -2.58455 2.97648 0
M  V30 3979 H 390.308 -3.67476 3.51907 0
M  V30 3980 H 389.706 -5.57376 0.966876 0
M  V30 3981 H 388.263 -6.34523 1.49078 0
M  V30 3982 N 391.696 -1.35014 -0.812953 0
M  V30 3983 C 392.945 -1.27269 -1.56479 0
M  V30 3984 C 393.258 0.152771 -1.95002 0
M  V30 3985 O 394.464 0.352451 -2.69203 0
M  V30 3986 C 392.92 -2.23159 -2.82362 0
M  V30 3987 C 392.528 -3.71016 -2.511 0
M  V30 3988 C 394.272 -2.24342 -3.60376 0
M  V30 3989 C 392.179 -4.58746 -3.73237 0
M  V30 3990 H 391.109 -0.472829 -0.587324 0
M  V30 3991 H 393.76 -1.6024 -0.894171 0
M  V30 3992 H 392.142 -1.83151 -3.51101 0
M  V30 3993 H 393.316 -4.1962 -1.90409 0
M  V30 3994 H 391.631 -3.72378 -1.86343 0
M  V30 3995 H 394.228 -2.87107 -4.51081 0
M  V30 3996 H 394.571 -1.24542 -3.97234 0
M  V30 3997 H 395.104 -2.62846 -2.98591 0
M  V30 3998 H 391.843 -5.59521 -3.41492 0
M  V30 3999 H 391.363 -4.14871 -4.33176 0
M  V30 4000 H 393.042 -4.73852 -4.40537 0
M  V30 4001 N 393.175 1.03435 -1.18907 0
M  V30 4002 C 394.424 1.76143 -0.982669 0
M  V30 4003 C 394.737 1.89416 0.487953 0
M  V30 4004 O 395.943 2.59041 0.813036 0
M  V30 4005 C 394.399 3.16722 -1.70924 0
M  V30 4006 C 394.007 3.11522 -3.21959 0
M  V30 4007 C 395.751 3.93764 -1.58588 0
M  V30 4008 C 393.658 4.46999 -3.87228 0
M  V30 4009 H 392.588 0.660292 -0.364047 0
M  V30 4010 H 395.239 1.158 -1.42347 0
M  V30 4011 H 393.621 3.775 -1.19623 0
M  V30 4012 H 394.795 2.60158 -3.80335 0
M  V30 4013 H 393.11 2.47978 -3.34508 0
M  V30 4014 H 395.707 4.93963 -2.04707 0
M  V30 4015 H 396.05 4.12794 -0.539142 0
M  V30 4016 H 396.583 3.39576 -2.07203 0
M  V30 4017 H 393.322 4.33174 -4.91976 0
M  V30 4018 H 392.842 4.98441 -3.33642 0
M  V30 4019 H 394.521 5.15898 -3.90459 0
M  V30 4020 N 394.653 0.992116 1.22453 0
M  V30 4021 C 395.601 0.534644 2.26372 0
M  V30 4022 C 396.595 -0.414293 1.64256 0
M  V30 4023 O 397.801 -0.286899 1.77699 0
M  V30 4024 H 394.176 0.154502 0.735957 0
M  V30 4025 H 396.147 1.42256 2.62309 0
M  V30 4026 C 394.896 -0.135815 3.47435 0
M  V30 4027 H 394.219 0.585311 3.95492 0
M  V30 4028 H 395.659 -0.419374 4.21921 0
M  V30 4029 C 394.118 -1.37089 3.07747 0
M  V30 4030 O 394.648 -2.46629 3.17076 0
M  V30 4031 N 392.854 -1.24585 2.62539 0
M  V30 4032 H 392.401 -0.354542 2.55149 0
M  V30 4033 H 392.359 -2.07327 2.36353 0
M  V30 4034 N 396.131 -1.37776 0.765217 0
M  V30 4035 C 397.061 -2.32945 0.160953 0
M  V30 4036 C 398.042 -1.55454 -0.690516 0
M  V30 4037 O 399.227 -1.83721 -0.629318 0
M  V30 4038 C 396.357 -3.39669 -0.724031 0
M  V30 4039 C 395.311 -4.27992 0.0256173 0
M  V30 4040 C 394.637 -5.25673 -0.978383 0
M  V30 4041 C 395.937 -5.08309 1.20082 0
M  V30 4042 H 397.631 -2.83728 0.955969 0
M  V30 4043 H 395.177 -1.36416 0.461149 0
M  V30 4044 H 397.13 -4.05219 -1.15652 0
M  V30 4045 H 395.854 -2.87396 -1.5515 0
M  V30 4046 H 394.513 -3.63964 0.438812 0
M  V30 4047 H 394.161 -4.69682 -1.80022 0
M  V30 4048 H 393.861 -5.85625 -0.481378 0
M  V30 4049 H 395.385 -5.94098 -1.40995 0
M  V30 4050 H 396.799 -5.67034 0.845307 0
M  V30 4051 H 395.196 -5.77554 1.62947 0
M  V30 4052 H 396.266 -4.41365 2.00811 0
M  V30 4053 N 397.609 -0.515225 -1.4894 0
M  V30 4054 C 399.025 -0.172099 -1.58669 0
M  V30 4055 C 399.225 1.32405 -1.51892 0
M  V30 4056 O 398.281 2.10116 -1.40027 0
M  V30 4057 C 399.594 -0.761533 -2.90897 0
M  V30 4058 C 401.142 -0.728926 -3.04394 0
M  V30 4059 C 401.617 -1.29667 -4.39261 0
M  V30 4060 N 403.108 -1.25799 -4.4579 0
M  V30 4061 C 403.843 -1.66733 -5.48623 0
M  V30 4062 N 403.339 -2.15327 -6.58488 0
M  V30 4063 N 405.132 -1.58061 -5.39419 0
M  V30 4064 H 397.283 -1.48778 -1.51588 0
M  V30 4065 H 399.546 -0.617968 -0.718901 0
M  V30 4066 H 399.252 -1.81136 -3.01468 0
M  V30 4067 H 399.126 -0.230106 -3.76497 0
M  V30 4068 H 401.513 0.312098 -2.93445 0
M  V30 4069 H 401.594 -1.29766 -2.20442 0
M  V30 4070 H 401.238 -2.33655 -4.50963 0
M  V30 4071 H 401.168 -0.703752 -5.21876 0
M  V30 4072 H 403.659 -0.902102 -3.66975 0
M  V30 4073 H 403.972 -2.44594 -7.33071 0
M  V30 4074 H 402.317 -2.19311 -6.59491 0
M  V30 4075 H 405.508 -1.19906 -4.52482 0
M  V30 4076 H 405.681 -1.90284 -6.19432 0
M  V30 4077 N 399.087 1.5561 -0.249682 0
M  V30 4078 C 400.315 2.03411 0.378352 0
M  V30 4079 C 400.73 1.12886 1.51335 0
M  V30 4080 O 400.087 0.143833 1.81932 0
M  V30 4081 C 400.138 3.50537 0.88351 0
M  V30 4082 O 399.859 4.37614 -0.20626 0
M  V30 4083 C 401.36 4.14113 1.58195 0
M  V30 4084 H 398.58 0.664994 0.08958 0
M  V30 4085 H 401.124 2.01044 -0.374357 0
M  V30 4086 H 399.279 3.5343 1.58639 0
M  V30 4087 H 399.693 5.24199 0.177782 0
M  V30 4088 H 401.167 5.18741 1.8871 0
M  V30 4089 H 401.644 3.60767 2.50487 0
M  V30 4090 H 402.25 4.15151 0.923573 0
M  V30 4091 N 400.565 -0.0233959 1.57583 0
M  V30 4092 C 401.513 -1.04063 2.08023 0
M  V30 4093 C 402.507 -1.37084 0.995204 0
M  V30 4094 O 403.713 -1.35923 1.18004 0
M  V30 4095 H 400.088 -0.353144 0.663922 0
M  V30 4096 H 402.059 -0.589453 2.9252 0
M  V30 4097 C 400.808 -2.33123 2.57971 0
M  V30 4098 H 400.131 -2.08577 3.4108 0
M  V30 4099 H 401.571 -3.02632 2.96967 0
M  V30 4100 C 400.03 -3.02483 1.48342 0
M  V30 4101 O 400.56 -3.92541 0.852898 0
M  V30 4102 N 398.766 -2.63909 1.21658 0
M  V30 4103 H 398.313 -1.90758 1.73116 0
M  V30 4104 H 398.271 -3.10633 0.485218 0
M  V30 4105 N 402.043 -1.548 -0.295768 0
M  V30 4106 C 402.991 -1.86874 -1.38495 0
M  V30 4107 C 403.985 -0.742938 -1.52239 0
M  V30 4108 O 405.191 -0.926999 -1.54294 0
M  V30 4109 H 401.566 -0.592786 -0.462719 0
M  V30 4110 H 403.537 -2.77904 -1.08682 0
M  V30 4111 C 402.286 -2.13732 -2.74252 0
M  V30 4112 H 401.609 -2.99835 -2.64459 0
M  V30 4113 H 403.049 -2.4011 -3.49461 0
M  V30 4114 C 401.508 -0.937539 -3.23592 0
M  V30 4115 O 402.038 -0.160665 -4.01379 0
M  V30 4116 N 400.244 -0.741478 -2.80981 0
M  V30 4117 H 399.791 -1.37489 -2.1784 0
M  V30 4118 H 399.749 0.0597103 -3.14343 0
M  V30 4119 N 403.521 0.559213 -1.47345 0
M  V30 4120 C 404.746 1.34676 -1.57725 0
M  V30 4121 C 405.171 1.86723 -0.227164 0
M  V30 4122 O 404.529 1.6286 0.796642 0
M  V30 4123 C 404.577 2.49399 -2.60447 0
M  V30 4124 O 403.681 3.51567 -2.15578 0
M  V30 4125 H 403.022 0.400115 -0.52991 0
M  V30 4126 H 405.552 0.676009 -1.93109 0
M  V30 4127 H 405.562 2.95996 -2.80803 0
M  V30 4128 H 404.237 2.10873 -3.58477 0
M  V30 4129 H 402.814 3.11289 -2.05313 0
M  V30 4130 N 404.999 1.35443 0.805782 0
M  V30 4131 C 405.962 1.28301 1.89925 0
M  V30 4132 C 406.962 0.194285 1.59622 0
M  V30 4133 O 408.152 0.448036 1.6834 0
M  V30 4134 C 405.284 0.984997 3.2636 0
M  V30 4135 H 406.477 2.2553 1.97677 0
M  V30 4136 H 404.03 1.19979 1.00173 0
M  V30 4137 H 404.765 0.016603 3.24296 0
M  V30 4138 H 404.55 1.77269 3.4974 0
M  V30 4139 H 406.04 0.960651 4.064 0
M  V30 4140 N 406.477 -1.02803 1.19454 0
M  V30 4141 C 407.705 -1.79841 1.02297 0
M  V30 4142 C 408.12 -1.83879 -0.428259 0
M  V30 4143 O 407.477 -1.28345 -1.29745 0
M  V30 4144 C 407.528 -3.24852 1.58598 0
M  V30 4145 O 407.249 -3.21097 2.98041 0
M  V30 4146 C 408.75 -4.18485 1.46236 0
M  V30 4147 H 405.97 -0.565936 0.360496 0
M  V30 4148 H 408.514 -1.2948 1.58288 0
M  V30 4149 H 406.669 -3.72401 1.06753 0
M  V30 4150 H 407.083 -4.12033 3.24545 0
M  V30 4151 H 408.557 -5.18121 1.90407 0
M  V30 4152 H 409.034 -4.37254 0.41301 0
M  V30 4153 H 409.64 -3.76811 1.97215 0
M  V30 4154 N 407.956 -0.998596 -1.21925 0
M  V30 4155 C 409.205 -0.673085 -1.90138 0
M  V30 4156 C 409.518 0.79895 -1.78539 0
M  V30 4157 O 410.724 1.23628 -2.4172 0
M  V30 4158 C 409.18 -1.15339 -3.40918 0
M  V30 4159 C 408.788 -2.65106 -3.61141 0
M  V30 4160 C 410.532 -0.902476 -4.14796 0
M  V30 4161 C 408.439 -3.0671 -5.05651 0
M  V30 4162 H 407.369 -0.248057 -0.712028 0
M  V30 4163 H 410.02 -1.20891 -1.38049 0
M  V30 4164 H 408.402 -0.545658 -3.92223 0
M  V30 4165 H 409.576 -3.31274 -3.20304 0
M  V30 4166 H 407.891 -2.88142 -3.00605 0
M  V30 4167 H 410.488 -1.18895 -5.21314 0
M  V30 4168 H 410.831 0.161349 -4.15987 0
M  V30 4169 H 411.364 -1.47269 -3.69536 0
M  V30 4170 H 408.103 -4.12292 -5.09603 0
M  V30 4171 H 407.623 -2.45249 -5.47369 0
M  V30 4172 H 409.302 -2.9833 -5.74115 0
M  V30 4173 N 409.434 1.37368 -0.772513 0
M  V30 4174 C 410.68 1.99969 -0.337681 0
M  V30 4175 C 411.013 1.61184 1.08321 0
M  V30 4176 O 410.288 0.858395 1.74533 0
M  V30 4177 C 410.571 3.56858 -0.482121 0
M  V30 4178 C 410.424 4.0555 -1.94549 0
M  V30 4179 C 411.743 4.39955 0.113143 0
M  V30 4180 H 408.862 0.726464 -0.124171 0
M  V30 4181 H 411.504 1.63034 -0.975699 0
M  V30 4182 H 409.654 3.88452 0.0610361 0
M  V30 4183 H 411.326 3.84518 -2.54841 0
M  V30 4184 H 409.569 3.57715 -2.45403 0
M  V30 4185 H 410.24 5.14587 -1.9976 0
M  V30 4186 H 412.716 4.14623 -0.35031 0
M  V30 4187 H 411.592 5.48897 -0.0180514 0
M  V30 4188 H 411.853 4.25403 1.20354 0
M  V30 4189 N 410.912 0.523116 1.48665 0
M  V30 4190 C 412.158 -0.0134963 2.02796 0
M  V30 4191 C 412.491 -1.34582 1.40004 0
M  V30 4192 O 411.766 -1.86756 0.543381 0
M  V30 4193 C 412.049 -0.14276 3.59817 0
M  V30 4194 C 411.902 1.21425 4.331 0
M  V30 4195 C 413.221 -0.872856 4.31357 0
M  V30 4196 H 410.34 -0.00343074 0.736992 0
M  V30 4197 H 412.982 0.678816 1.7746 0
M  V30 4198 H 411.132 -0.732401 3.81534 0
M  V30 4199 H 412.804 1.84447 4.2282 0
M  V30 4200 H 411.047 1.79791 3.94788 0
M  V30 4201 H 411.718 1.07687 5.41394 0
M  V30 4202 H 414.194 -0.372555 4.14429 0
M  V30 4203 H 413.07 -0.932185 5.40927 0
M  V30 4204 H 413.331 -1.92161 3.98154 0
M  V30 4205 N 412.39 -1.55475 0.257931 0
M  V30 4206 C 413.801 -1.8511 -0.243135 0
M  V30 4207 C 414.152 -1.17986 -1.5676 0
M  V30 4208 O 413.277 -0.462102 -2.11409 0
M  V30 4209 C 413.872 -3.35826 -0.447929 0
M  V30 4210 C 412.431 -3.65647 -0.893245 0
M  V30 4211 C 411.578 -2.7729 0.0232965 0
M  V30 4212 H 414.529 -1.51261 0.480199 0
M  V30 4213 H 414.55 -3.58002 -1.28898 0
M  V30 4214 H 414.062 -3.84652 0.516196 0
M  V30 4215 H 412.163 -3.22308 -1.86945 0
M  V30 4216 H 412.276 -4.73312 -0.742469 0
M  V30 4217 H 410.64 -2.49942 -0.490021 0
M  V30 4218 H 411.423 -3.28926 0.982994 0
M  V30 4219 N 413.868 0.0150385 -1.57593 0
M  V30 4220 C 415.098 0.713359 -1.93894 0
M  V30 4221 C 415.506 1.68663 -0.857289 0
M  V30 4222 O 414.849 1.82876 0.173788 0
M  V30 4223 C 414.911 1.51348 -3.26089 0
M  V30 4224 C 414.575 0.703451 -4.51554 0
M  V30 4225 C 415.572 -0.00237924 -5.199 0
M  V30 4226 C 413.257 0.653854 -4.98026 0
M  V30 4227 C 415.251 -0.746955 -6.33008 0
M  V30 4228 C 412.938 -0.0944578 -6.11027 0
M  V30 4229 C 413.936 -0.793609 -6.78374 0
M  V30 4230 O 413.624 -1.52974 -7.89211 0
M  V30 4231 H 413.356 0.204637 -0.644282 0
M  V30 4232 H 415.91 -0.0276411 -2.05381 0
M  V30 4233 H 414.14 2.29862 -3.10967 0
M  V30 4234 H 415.829 2.09572 -3.47612 0
M  V30 4235 H 416.595 0.0268803 -4.84993 0
M  V30 4236 H 412.474 1.18756 -4.45441 0
M  V30 4237 H 416.018 -1.2932 -6.85509 0
M  V30 4238 H 411.915 -0.125591 -6.45378 0
M  V30 4239 H 412.683 -1.44488 -8.05646 0
M  V30 4240 N 415.346 1.54954 0.287554 0
M  V30 4241 C 416.592 1.75132 1.02257 0
M  V30 4242 C 416.925 0.542858 1.86458 0
M  V30 4243 O 416.2 -0.459856 1.88986 0
M  V30 4244 C 416.483 3.04812 1.91733 0
M  V30 4245 C 416.336 4.35985 1.10622 0
M  V30 4246 C 417.655 3.30438 2.90687 0
M  V30 4247 H 414.774 0.637194 0.370341 0
M  V30 4248 H 417.416 1.87678 0.296111 0
M  V30 4249 H 415.566 2.94247 2.53675 0
M  V30 4250 H 417.238 4.58487 0.508636 0
M  V30 4251 H 415.481 4.31865 0.409271 0
M  V30 4252 H 416.152 5.23017 1.76513 0
M  V30 4253 H 418.628 3.40701 2.38877 0
M  V30 4254 H 417.504 4.22467 3.50447 0
M  V30 4255 H 417.765 2.49377 3.65053 0
M  V30 4256 N 416.824 -0.551391 1.4764 0
M  V30 4257 C 417.772 -1.67896 1.60978 0
M  V30 4258 C 418.766 -1.62549 0.476877 0
M  V30 4259 O 419.972 -1.67664 0.654878 0
M  V30 4260 H 416.347 -0.555649 0.506713 0
M  V30 4261 H 418.318 -1.53784 2.55721 0
M  V30 4262 C 417.067 -3.06234 1.64669 0
M  V30 4263 H 416.39 -3.11033 2.51194 0
M  V30 4264 H 417.83 -3.84804 1.7805 0
M  V30 4265 C 416.289 -3.34737 0.381115 0
M  V30 4266 O 416.819 -3.98381 -0.515297 0
M  V30 4267 N 415.025 -2.8944 0.259354 0
M  V30 4268 H 414.572 -2.37827 0.98976 0
M  V30 4269 H 414.53 -3.08882 -0.586464 0
M  V30 4270 N 418.302 -1.35869 -0.798587 0
M  V30 4271 C 419.527 -1.32883 -1.59238 0
M  V30 4272 C 419.952 0.0894587 -1.87887 0
M  V30 4273 O 419.31 1.05869 -1.47178 0
M  V30 4274 C 419.358 -2.14892 -2.89575 0
M  V30 4275 O 418.462 -1.53512 -3.82763 0
M  V30 4276 H 417.803 -0.455236 -0.48338 0
M  V30 4277 H 420.333 -1.79024 -0.990539 0
M  V30 4278 H 420.343 -2.27139 -3.38928 0
M  V30 4279 H 419.018 -3.17998 -2.68049 0
M  V30 4280 H 417.595 -1.50153 -3.41334 0
M  V30 4281 N 419.78 1.02168 -1.19998 0
M  V30 4282 C 420.71 2.12488 -0.96804 0
M  V30 4283 C 421.691 1.69799 0.101185 0
M  V30 4284 O 422.876 1.94121 -0.0552993 0
M  V30 4285 C 420.006 3.43479 -0.513776 0
M  V30 4286 C 418.96 3.99884 -1.52566 0
M  V30 4287 C 418.286 5.26582 -0.928214 0
M  V30 4288 C 419.586 4.33861 -2.90795 0
M  V30 4289 H 421.28 2.32149 -1.89069 0
M  V30 4290 H 418.826 1.11564 -0.910468 0
M  V30 4291 H 420.779 4.20036 -0.338774 0
M  V30 4292 H 419.503 3.23561 0.444493 0
M  V30 4293 H 418.162 3.25429 -1.68794 0
M  V30 4294 H 417.81 5.02986 0.0378289 0
M  V30 4295 H 417.51 5.65284 -1.60397 0
M  V30 4296 H 419.034 6.05799 -0.764167 0
M  V30 4297 H 420.448 5.01327 -2.78109 0
M  V30 4298 H 418.845 4.83664 -3.55231 0
M  V30 4299 H 419.915 3.42848 -3.42904 0
M  V30 4300 N 421.258 1.00505 1.21394 0
M  V30 4301 C 422.504 0.688793 1.90745 0
M  V30 4302 C 422.837 -0.778486 1.77914 0
M  V30 4303 O 422.112 -1.56433 1.15581 0
M  V30 4304 C 422.395 1.11063 3.42545 0
M  V30 4305 C 422.248 2.63737 3.64367 0
M  V30 4306 C 423.567 0.673059 4.34923 0
M  V30 4307 H 420.686 0.251702 0.692687 0
M  V30 4308 H 423.328 1.25074 1.43026 0
M  V30 4309 H 421.478 0.632508 3.83317 0
M  V30 4310 H 423.15 3.19313 3.32922 0
M  V30 4311 H 421.393 3.05248 3.08231 0
M  V30 4312 H 422.064 2.88305 4.70727 0
M  V30 4313 H 424.54 1.08392 4.01734 0
M  V30 4314 H 423.416 0.996383 5.39781 0
M  V30 4315 H 423.677 -0.425808 4.40045 0
M  V30 4316 N 422.737 -1.36956 0.779787 0
M  V30 4317 C 423.986 -1.98738 0.344405 0
M  V30 4318 C 424.299 -1.62596 -1.08728 0
M  V30 4319 O 425.505 -2.1754 -1.62445 0
M  V30 4320 C 423.961 -3.5544 0.564829 0
M  V30 4321 C 423.569 -4.00514 2.0073 0
M  V30 4322 C 425.313 -4.24059 0.193471 0
M  V30 4323 C 423.22 -5.49957 2.17489 0
M  V30 4324 H 422.15 -0.743561 0.12503 0
M  V30 4325 H 424.801 -1.56381 0.960057 0
M  V30 4326 H 423.183 -3.95817 -0.120397 0
M  V30 4327 H 424.357 -3.71362 2.72814 0
M  V30 4328 H 422.672 -3.44703 2.336 0
M  V30 4329 H 425.269 -5.33874 0.297097 0
M  V30 4330 H 425.612 -4.07378 -0.857263 0
M  V30 4331 H 426.145 -3.89012 0.831556 0
M  V30 4332 H 422.884 -5.71574 3.2091 0
M  V30 4333 H 422.404 -5.80767 1.49899 0
M  V30 4334 H 424.083 -6.16043 1.97738 0
M  V30 4335 N 424.215 -0.530993 -1.48385 0
M  V30 4336 C 425.492 0.0671788 -1.95485 0
M  V30 4337 C 425.872 1.51191 -1.47324 0
M  V30 4338 O 425.22 2.17507 -0.700202 0
M  V30 4339 C 425.43 -0.0511206 -3.48963 0
M  V30 4340 C 426.778 0.107632 -4.24464 0
M  V30 4341 O 427.802 0.0226248 -3.56193 0
M  V30 4342 O 426.661 0.285972 -5.45751 0
M  V30 4343 H 423.755 0.0787365 -0.823243 0
M  V30 4344 H 426.301 -0.595662 -1.58902 0
M  V30 4345 H 425.073 -1.05747 -3.7674 0
M  V30 4346 H 424.696 0.650525 -3.92242 0
M  V30 4347 N 425.693 1.55336 -0.266172 0
M  V30 4348 C 426.933 2.01303 0.354459 0
M  V30 4349 C 427.297 1.15046 1.53715 0
M  V30 4350 O 428.498 1.50554 2.22681 0
M  V30 4351 C 426.769 3.49748 0.735579 0
M  V30 4352 S 428.328 4.1771 1.34401 0
M  V30 4353 H 425.146 0.702333 0.110674 0
M  V30 4354 H 427.748 1.91653 -0.385916 0
M  V30 4355 H 426.452 4.10181 -0.134196 0
M  V30 4356 H 425.983 3.63364 1.50764 0
M  V30 4357 H 427.998 4.20594 2.63278 0
M  V30 4358 N 427.171 -0.0066808 1.57599 0
M  V30 4359 C 428.104 -1.03397 2.03431 0
M  V30 4360 C 429.082 -1.33872 0.922877 0
M  V30 4361 O 430.266 -1.4615 1.19048 0
M  V30 4362 C 427.393 -2.36325 2.42628 0
M  V30 4363 C 426.439 -2.21557 3.64438 0
M  V30 4364 S 427.272 -1.54789 5.12641 0
M  V30 4365 C 428.428 -2.8916 5.55101 0
M  V30 4366 H 428.661 -0.643687 2.90248 0
M  V30 4367 H 426.194 -0.217349 1.52863 0
M  V30 4368 H 428.152 -3.12759 2.65879 0
M  V30 4369 H 426.813 -2.72495 1.56222 0
M  V30 4370 H 426.006 -3.1974 3.89592 0
M  V30 4371 H 425.608 -1.53267 3.41153 0
M  V30 4372 H 427.9 -3.8547 5.57153 0
M  V30 4373 H 428.843 -2.68713 6.55133 0
M  V30 4374 H 429.251 -2.92762 4.82649 0
M  V30 4375 N 428.649 -1.55105 -0.279332 0
M  V30 4376 C 429.612 -1.86783 -1.32834 0
M  V30 4377 C 430.612 -0.74199 -1.42657 0
M  V30 4378 O 431.802 -1.0102 -1.41918 0
M  V30 4379 C 428.934 -2.06746 -2.71052 0
M  V30 4380 H 430.127 -2.8055 -1.05979 0
M  V30 4381 H 427.68 -1.47499 -0.517087 0
M  V30 4382 H 428.415 -1.15339 -3.03097 0
M  V30 4383 H 428.2 -2.88711 -2.65309 0
M  V30 4384 H 429.69 -2.32549 -3.46858 0
M  V30 4385 N 430.127 0.543554 -1.4793 0
M  V30 4386 C 431.074 1.64942 -1.6144 0
M  V30 4387 C 432.044 1.59692 -0.456903 0
M  V30 4388 O 433.229 1.78321 -0.678688 0
M  V30 4389 C 430.369 3.03238 -1.64744 0
M  V30 4390 C 429.482 3.18823 -2.91506 0
M  V30 4391 C 428.617 4.47599 -2.86057 0
M  V30 4392 C 427.656 4.56664 -4.07584 0
M  V30 4393 N 426.793 5.76811 -4.00292 0
M  V30 4394 H 431.633 1.52733 -2.55884 0
M  V30 4395 H 429.17 0.7438 -1.2691 0
M  V30 4396 H 431.128 3.83339 -1.64641 0
M  V30 4397 H 429.758 3.1425 -0.738017 0
M  V30 4398 H 428.81 2.32064 -3.01414 0
M  V30 4399 H 430.122 3.21384 -3.81463 0
M  V30 4400 H 429.276 5.35975 -2.84281 0
M  V30 4401 H 428.015 4.47538 -1.93807 0
M  V30 4402 H 427.02 3.66697 -4.09651 0
M  V30 4403 H 428.245 4.58474 -5.00978 0
M  V30 4404 H 426.191 5.77673 -3.10853 0
M  V30 4405 H 426.108 5.80808 -4.8394 0
M  V30 4406 H 427.376 6.67512 -4.02553 0
M  V30 4407 N 431.605 1.3629 0.791371 0
M  V30 4408 C 432.555 1.26988 1.89362 0
M  V30 4409 C 433.539 0.161795 1.60084 0
M  V30 4410 O 434.731 0.394426 1.72549 0
M  V30 4411 C 431.86 1.05944 3.26544 0
M  V30 4412 C 430.946 2.21211 3.61838 0
M  V30 4413 N 431.337 3.46518 3.68455 0
M  V30 4414 C 429.635 2.12933 3.91887 0
M  V30 4415 C 430.336 4.2241 3.99931 0
M  V30 4416 N 429.312 3.51329 4.14812 0
M  V30 4417 H 433.114 2.21908 1.92702 0
M  V30 4418 H 430.628 1.28982 0.986787 0
M  V30 4419 H 432.625 0.973666 4.05371 0
M  V30 4420 H 431.285 0.119223 3.24481 0
M  V30 4421 H 432.296 3.80677 3.51148 0
M  V30 4422 H 428.973 1.26855 3.97761 0
M  V30 4423 H 430.363 5.30767 4.1199 0
M  V30 4424 N 433.083 -1.0153 1.20538 0
M  V30 4425 C 434.031 -2.12215 0.952235 0
M  V30 4426 C 435.025 -1.69123 -0.0968735 0
M  V30 4427 O 436.231 -1.7992 0.0536006 0
M  V30 4428 H 432.606 -0.693576 0.290613 0
M  V30 4429 H 434.577 -2.3075 1.89201 0
M  V30 4430 C 433.326 -3.43755 0.522287 0
M  V30 4431 H 432.649 -3.7734 1.32115 0
M  V30 4432 H 434.089 -4.22254 0.384389 0
M  V30 4433 C 432.548 -3.28088 -0.765489 0
M  V30 4434 O 433.078 -3.57921 -1.8236 0
M  V30 4435 N 431.284 -2.81333 -0.728011 0
M  V30 4436 H 430.831 -2.57255 0.133332 0
M  V30 4437 H 430.789 -2.71232 -1.58999 0
M  V30 4438 N 434.561 -1.01147 -1.20859 0
M  V30 4439 C 435.509 -0.57059 -2.25493 0
M  V30 4440 C 436.503 0.388109 -1.64894 0
M  V30 4441 O 437.709 0.258592 -1.78133 0
M  V30 4442 H 434.084 -0.166191 -0.733406 0
M  V30 4443 H 436.055 -1.46411 -2.60012 0
M  V30 4444 C 434.804 0.0805241 -3.47607 0
M  V30 4445 H 434.127 -0.648156 -3.94511 0
M  V30 4446 H 435.567 0.352197 -4.22535 0
M  V30 4447 C 434.026 1.32175 -3.09889 0
M  V30 4448 O 434.556 2.41553 -3.20959 0
M  V30 4449 N 432.762 1.20392 -2.64488 0
M  V30 4450 H 432.309 0.313905 -2.5568 0
M  V30 4451 H 432.267 2.03541 -2.39621 0
M  V30 4452 N 436.039 1.36541 -0.78704 0
M  V30 4453 C 437.285 2.00044 -0.367938 0
M  V30 4454 C 437.64 1.61345 1.04812 0
M  V30 4455 O 436.933 0.856936 1.71368 0
M  V30 4456 C 437.127 3.54343 -0.466485 0
M  V30 4457 C 436.956 4.08029 -1.89058 0
M  V30 4458 C 435.726 4.38284 -2.51466 0
M  V30 4459 C 437.924 4.27954 -2.85236 0
M  V30 4460 N 435.906 4.77778 -3.85488 0
M  V30 4461 C 437.277 4.70227 -4.04088 0
M  V30 4462 C 439.332 4.10119 -2.82324 0
M  V30 4463 C 438.035 4.96532 -5.20432 0
M  V30 4464 C 440.061 4.37569 -3.97854 0
M  V30 4465 C 439.423 4.80095 -5.15449 0
M  V30 4466 H 435.522 0.760525 -0.182004 0
M  V30 4467 H 438.106 1.65589 -1.02413 0
M  V30 4468 H 436.277 3.88072 0.159606 0
M  V30 4469 H 438.009 4.04693 -0.0238577 0
M  V30 4470 H 434.764 4.27905 -2.02965 0
M  V30 4471 H 435.188 5.01813 -4.54437 0
M  V30 4472 H 439.83 3.76399 -1.92571 0
M  V30 4473 H 437.548 5.29134 -6.10773 0
M  V30 4474 H 441.134 4.25341 -3.96958 0
M  V30 4475 H 440.014 5.00925 -6.0336 0
M  V30 4476 N 437.518 0.538854 1.48102 0
M  V30 4477 C 438.766 0.00798599 2.02098 0
M  V30 4478 C 439.087 -1.33922 1.41739 0
M  V30 4479 O 438.357 -1.86932 0.585934 0
M  V30 4480 H 436.937 -3.62179e-05 0.747 0
M  V30 4481 H 439.599 0.7047 1.81714 0
M  V30 4482 H 438.695 -0.0937672 3.11959 0
M  V30 4483 N 438.996 -1.55193 0.274407 0
M  V30 4484 C 440.245 -1.98758 -0.343213 0
M  V30 4485 C 440.558 -1.16624 -1.5703 0
M  V30 4486 O 441.764 -1.5033 -2.26082 0
M  V30 4487 C 440.22 -3.53759 -0.661996 0
M  V30 4488 C 439.828 -4.4467 0.54524 0
M  V30 4489 C 441.572 -4.05916 -1.24228 0
M  V30 4490 C 439.479 -5.91058 0.201084 0
M  V30 4491 H 438.409 -0.742353 -0.132014 0
M  V30 4492 H 441.06 -1.79545 0.378948 0
M  V30 4493 H 439.442 -3.68772 -1.44304 0
M  V30 4494 H 440.616 -4.41426 1.32212 0
M  V30 4495 H 438.931 -4.03143 1.04232 0
M  V30 4496 H 441.528 -5.12831 -1.51357 0
M  V30 4497 H 441.871 -3.54908 -2.17592 0
M  V30 4498 H 442.404 -3.9434 -0.523542 0
M  V30 4499 H 439.143 -6.46161 1.10258 0
M  V30 4500 H 438.663 -5.97373 -0.539045 0
M  V30 4501 H 440.342 -6.46669 -0.206954 0
M  V30 4502 N 440.474 -0.00167713 -1.576 0
M  V30 4503 C 441.72 0.683832 -1.90923 0
M  V30 4504 C 442.053 1.7333 -0.875799 0
M  V30 4505 O 441.328 1.94215 0.10525 0
M  V30 4506 C 441.611 1.32543 -3.3482 0
M  V30 4507 C 441.464 0.287387 -4.48881 0
M  V30 4508 C 442.783 2.25114 -3.78169 0
M  V30 4509 H 439.902 0.247125 -0.694333 0
M  V30 4510 H 442.544 -0.0533149 -1.89925 0
M  V30 4511 H 440.694 1.95372 -3.35801 0
M  V30 4512 H 442.366 -0.341346 -4.60035 0
M  V30 4513 H 440.609 -0.39017 -4.32042 0
M  V30 4514 H 441.28 0.775393 -5.46527 0
M  V30 4515 H 443.756 1.723 -3.7875 0
M  V30 4516 H 442.632 2.66971 -4.79602 0
M  V30 4517 H 442.893 3.13092 -3.12131 0
M  V30 4518 N 441.952 1.55251 0.271103 0
M  V30 4519 C 443.201 1.75151 1.00025 0
M  V30 4520 C 443.514 0.561041 1.87381 0
M  V30 4521 O 444.72 0.642506 2.63788 0
M  V30 4522 C 443.176 3.09999 1.82835 0
M  V30 4523 C 442.784 4.3662 1.00336 0
M  V30 4524 C 444.528 3.39249 2.55168 0
M  V30 4525 C 442.435 5.62506 1.82595 0
M  V30 4526 H 441.365 0.652877 0.377183 0
M  V30 4527 H 444.016 1.81708 0.255843 0
M  V30 4528 H 442.398 2.97485 2.61378 0
M  V30 4529 H 443.572 4.60055 0.261959 0
M  V30 4530 H 441.887 4.14527 0.394486 0
M  V30 4531 H 444.484 4.3051 3.1712 0
M  V30 4532 H 444.827 2.59467 3.2555 0
M  V30 4533 H 445.36 3.52869 1.83653 0
M  V30 4534 H 442.099 6.45041 1.16631 0
M  V30 4535 H 441.619 5.43211 2.54327 0
M  V30 4536 H 443.298 6.00875 2.39913 0
M  V30 4537 N 443.43 -0.535701 1.48216 0
M  V30 4538 C 444.36 -1.65014 1.65204 0
M  V30 4539 C 445.341 -1.62554 0.501011 0
M  V30 4540 O 446.526 -1.7984 0.732886 0
M  V30 4541 C 443.656 -3.03616 1.68626 0
M  V30 4542 C 442.61 -3.20932 2.83172 0
M  V30 4543 C 441.936 -4.60537 2.71679 0
M  V30 4544 C 443.236 -3.04249 4.24535 0
M  V30 4545 H 444.93 -1.51053 2.58502 0
M  V30 4546 H 442.476 -0.725262 1.24402 0
M  V30 4547 H 444.429 -3.81446 1.79099 0
M  V30 4548 H 443.153 -3.18587 0.719026 0
M  V30 4549 H 441.812 -2.45517 2.72244 0
M  V30 4550 H 441.46 -4.72336 1.72937 0
M  V30 4551 H 441.16 -4.73069 3.48538 0
M  V30 4552 H 442.684 -5.40475 2.84112 0
M  V30 4553 H 444.098 -3.71877 4.36326 0
M  V30 4554 H 442.495 -3.28278 5.02348 0
M  V30 4555 H 443.565 -2.00739 4.41397 0
M  V30 4556 N 444.908 -1.36708 -0.784132 0
M  V30 4557 C 446.319 -1.27947 -1.35965 0
M  V30 4558 C 446.67 0.0784013 -1.96043 0
M  V30 4559 O 445.795 0.979989 -1.92938 0
M  V30 4560 C 446.39 -2.31689 -2.47195 0
M  V30 4561 C 444.949 -2.26601 -3.00548 0
M  V30 4562 C 444.096 -2.16184 -1.73666 0
M  V30 4563 H 447.047 -1.4751 -0.585358 0
M  V30 4564 H 447.068 -1.95638 -3.26352 0
M  V30 4565 H 446.58 -3.30506 -2.03439 0
M  V30 4566 H 444.681 -1.31268 -3.48711 0
M  V30 4567 H 444.794 -3.19508 -3.57004 0
M  V30 4568 H 443.158 -1.62524 -1.96107 0
M  V30 4569 H 443.941 -3.16896 -1.32031 0
M  V30 4570 N 446.386 1.0089 -1.21074 0
M  V30 4571 C 447.316 2.1145 -0.990523 0
M  V30 4572 C 448.297 1.69897 0.0831699 0
M  V30 4573 O 449.482 1.94052 -0.0758853 0
M  V30 4574 C 446.612 3.42914 -0.550177 0
M  V30 4575 C 445.566 3.98244 -1.56799 0
M  V30 4576 C 444.892 5.25568 -0.984013 0
M  V30 4577 C 446.192 4.30752 -2.95381 0
M  V30 4578 H 447.886 2.3013 -1.91521 0
M  V30 4579 H 445.432 1.10592 -0.92225 0
M  V30 4580 H 447.385 4.19653 -0.383305 0
M  V30 4581 H 446.109 3.24014 0.41015 0
M  V30 4582 H 444.768 3.23621 -1.72236 0
M  V30 4583 H 444.416 5.02998 -0.0155216 0
M  V30 4584 H 444.116 5.63551 -1.66384 0
M  V30 4585 H 445.64 6.04955 -0.828378 0
M  V30 4586 H 447.054 4.98349 -2.8341 0
M  V30 4587 H 445.451 4.79869 -3.60341 0
M  V30 4588 H 446.521 3.39192 -3.46521 0
M  V30 4589 N 447.864 1.01787 1.20321 0
M  V30 4590 C 448.827 0.593972 2.2137 0
M  V30 4591 C 449.827 -0.336553 1.57239 0
M  V30 4592 O 451.017 -0.125069 1.7375 0
M  V30 4593 C 448.149 -0.132433 3.40643 0
M  V30 4594 H 449.342 1.48791 2.60387 0
M  V30 4595 H 446.895 0.807803 1.33807 0
M  V30 4596 H 447.63 -1.04123 3.0713 0
M  V30 4597 H 447.415 0.53605 3.88418 0
M  V30 4598 H 448.905 -0.416314 4.1552 0
M  V30 4599 N 449.342 -1.36122 0.79427 0
M  V30 4600 C 450.753 -1.81646 0.431446 0
M  V30 4601 C 451.104 -1.66043 -1.04518 0
M  V30 4602 O 450.229 -1.1841 -1.8113 0
M  V30 4603 C 450.824 -3.29785 0.776341 0
M  V30 4604 C 449.383 -3.73501 0.466282 0
M  V30 4605 C 448.53 -2.58313 1.00844 0
M  V30 4606 H 451.481 -1.24274 0.986995 0
M  V30 4607 H 451.502 -3.80437 0.0692413 0
M  V30 4608 H 451.014 -3.4111 1.8511 0
M  V30 4609 H 449.115 -3.67733 -0.600245 0
M  V30 4610 H 449.228 -4.68754 0.990288 0
M  V30 4611 H 447.592 -2.5102 0.431406 0
M  V30 4612 H 448.375 -2.72421 2.08906 0
M  V30 4613 N 450.82 -0.546701 -1.47814 0
M  V30 4614 C 451.75 0.195317 -2.32682 0
M  V30 4615 C 452.731 0.918981 -1.43139 0
M  V30 4616 O 453.916 0.901501 -1.72008 0
M  V30 4617 C 451.046 1.23237 -3.247 0
M  V30 4618 C 450 0.625818 -4.234 0
M  V30 4619 C 449.326 1.76674 -5.04669 0
M  V30 4620 C 450.626 -0.413515 -5.2066 0
M  V30 4621 H 452.32 -0.513184 -2.94969 0
M  V30 4622 H 449.866 -0.248241 -1.41844 0
M  V30 4623 H 451.819 1.75955 -3.82907 0
M  V30 4624 H 450.543 1.97067 -2.60446 0
M  V30 4625 H 449.202 0.120023 -3.66403 0
M  V30 4626 H 448.85 2.49383 -4.36826 0
M  V30 4627 H 448.55 1.36673 -5.71484 0
M  V30 4628 H 450.074 2.29738 -5.65732 0
M  V30 4629 H 451.488 0.0272042 -5.73294 0
M  V30 4630 H 449.885 -0.731825 -5.95621 0
M  V30 4631 H 450.955 -1.31325 -4.66778 0
M  V30 4632 N 452.299 1.55045 -0.282633 0
M  V30 4633 C 453.262 2.21515 0.588539 0
M  V30 4634 C 454.262 1.19535 1.07554 0
M  V30 4635 O 455.452 1.44391 0.974514 0
M  V30 4636 C 452.584 2.88704 1.8128 0
M  V30 4637 H 453.777 2.99899 0.00806397 0
M  V30 4638 H 451.33 1.56265 -0.0333067 0
M  V30 4639 H 452.065 2.14352 2.43359 0
M  V30 4640 H 451.85 3.63443 1.47144 0
M  V30 4641 H 453.34 3.39465 2.43214 0
M  V30 4642 N 453.777 0.010035 1.57597 0
M  V30 4643 C 455.024 -0.6727 1.91 0
M  V30 4644 C 455.352 -1.73219 0.884614 0
M  V30 4645 O 454.607 -1.95395 -0.109215 0
M  V30 4646 C 454.906 -1.34434 3.31153 0
M  V30 4647 C 454.572 -0.417083 4.48967 0
M  V30 4648 C 453.234 -0.161809 4.80928 0
M  V30 4649 C 455.586 0.220753 5.20732 0
M  V30 4650 C 452.914 0.739426 5.82022 0
M  V30 4651 C 455.266 1.10993 6.22787 0
M  V30 4652 C 453.93 1.37428 6.532 0
M  V30 4653 H 453.2 -0.246158 0.698918 0
M  V30 4654 H 455.847 0.0677145 1.9138 0
M  V30 4655 H 454.152 -2.15905 3.26944 0
M  V30 4656 H 455.849 -1.87883 3.54261 0
M  V30 4657 H 452.439 -0.626217 4.24001 0
M  V30 4658 H 456.623 0.0365643 4.96287 0
M  V30 4659 H 451.879 0.952139 6.03941 0
M  V30 4660 H 456.053 1.61046 6.77523 0
M  V30 4661 H 453.68 2.0743 7.31353 0
M  V30 4662 N 455.255 -1.55392 -0.262866 0
M  V30 4663 C 456.218 -1.88181 -1.30846 0
M  V30 4664 C 457.218 -0.757079 -1.41862 0
M  V30 4665 O 458.408 -1.02519 -1.40838 0
M  V30 4666 C 455.54 -2.09609 -2.68844 0
M  V30 4667 H 456.733 -2.81659 -1.02997 0
M  V30 4668 H 454.286 -1.48039 -0.501414 0
M  V30 4669 H 455.021 -1.18547 -3.01856 0
M  V30 4670 H 454.806 -2.91508 -2.62231 0
M  V30 4671 H 456.296 -2.36215 -3.44372 0
M  V30 4672 N 456.733 0.527833 -1.48498 0
M  V30 4673 C 457.696 1.61439 -1.62696 0
M  V30 4674 C 458.696 1.52824 -0.500136 0
M  V30 4675 O 459.886 1.56456 -0.765976 0
M  V30 4676 C 457.018 3.01063 -1.59918 0
M  V30 4677 H 458.211 1.50189 -2.59583 0
M  V30 4678 H 455.764 0.750055 -1.37127 0
M  V30 4679 H 456.499 3.17818 -0.645163 0
M  V30 4680 H 456.284 3.08725 -2.41726 0
M  V30 4681 H 457.774 3.80057 -1.73051 0
M  V30 4682 N 458.211 1.37122 0.776871 0
M  V30 4683 C 459.439 1.3523 1.5659 0
M  V30 4684 C 459.854 -0.0635518 1.88693 0
M  V30 4685 O 459.211 -1.02394 1.51069 0
M  V30 4686 C 459.262 2.18583 2.8793 0
M  V30 4687 O 458.983 3.5465 2.57206 0
M  V30 4688 C 460.484 2.24612 3.82183 0
M  V30 4689 H 457.704 0.4634 0.485285 0
M  V30 4690 H 460.248 1.80392 0.963266 0
M  V30 4691 H 458.403 1.76943 3.4463 0
M  V30 4692 H 458.817 3.98286 3.41275 0
M  V30 4693 H 460.291 2.87267 4.71361 0
M  V30 4694 H 460.768 1.25309 4.20944 0
M  V30 4695 H 461.374 2.66543 3.31414 0
M  V30 4696 N 459.689 -1.00246 1.21608 0
M  V30 4697 C 460.914 -1.78167 1.06167 0
M  V30 4698 C 461.339 -1.84138 -0.384035 0
M  V30 4699 O 460.697 -1.28683 -1.27712 0
M  V30 4700 C 460.745 -3.19786 1.66642 0
M  V30 4701 O 459.849 -4.02153 0.913613 0
M  V30 4702 H 459.19 -0.549 0.37349 0
M  V30 4703 H 461.72 -1.25994 1.61204 0
M  V30 4704 H 461.73 -3.70451 1.70969 0
M  V30 4705 H 460.405 -3.14754 2.7185 0
M  V30 4706 H 458.982 -3.60711 0.945635 0
M  V30 4707 N 461.167 -1.02423 -1.1978 0
M  V30 4708 C 462.392 -0.7373 -1.93852 0
M  V30 4709 C 462.817 0.696923 -1.74713 0
M  V30 4710 O 462.175 1.48056 -1.04638 0
M  V30 4711 C 462.223 -1.08783 -3.438 0
M  V30 4712 O 461.327 -0.20383 -4.11896 0
M  V30 4713 H 460.668 -0.27284 -0.605355 0
M  V30 4714 H 463.198 -1.36966 -1.51992 0
M  V30 4715 H 463.208 -1.04276 -3.9445 0
M  V30 4716 H 461.883 -2.13274 -3.57053 0
M  V30 4717 H 460.46 -0.307091 -3.71633 0
M  V30 4718 N 462.645 1.35699 -0.801477 0
M  V30 4719 C 464.056 1.81415 -0.441073 0
M  V30 4720 C 464.407 1.66595 1.03636 0
M  V30 4721 O 463.532 1.19369 1.80499 0
M  V30 4722 C 464.127 3.29369 -0.793819 0
M  V30 4723 C 462.686 3.73248 -0.486083 0
M  V30 4724 C 461.833 2.57775 -1.02213 0
M  V30 4725 H 464.784 1.23749 -0.993572 0
M  V30 4726 H 464.805 3.80395 -0.0894158 0
M  V30 4727 H 464.317 3.40123 -1.86917 0
M  V30 4728 H 462.418 3.68046 0.580735 0
M  V30 4729 H 462.531 4.68222 -1.01513 0
M  V30 4730 H 460.895 2.50788 -0.444712 0
M  V30 4731 H 461.678 2.71309 -2.10348 0
M  V30 4732 N 464.123 0.554532 1.47522 0
M  V30 4733 C 465.055 -0.232106 2.28022 0
M  V30 4734 C 466.068 -0.881865 1.36847 0
M  V30 4735 O 467.257 -0.756168 1.61692 0
M  V30 4736 C 464.357 -1.34604 3.11022 0
M  V30 4737 C 463.53 -0.793582 4.30141 0
M  V30 4738 C 462.589 -1.79168 4.94758 0
M  V30 4739 O 461.615 -1.33886 5.5323 0
M  V30 4740 N 462.817 -3.12495 4.89211 0
M  V30 4741 H 465.582 0.458407 2.96173 0
M  V30 4742 H 463.143 0.390433 1.57122 0
M  V30 4743 H 465.135 -2.01243 3.51118 0
M  V30 4744 H 463.705 -1.93983 2.45131 0
M  V30 4745 H 462.925 0.0495025 3.94169 0
M  V30 4746 H 464.213 -0.403776 5.07195 0
M  V30 4747 H 463.611 -3.51931 4.42901 0
M  V30 4748 H 462.168 -3.74698 5.33333 0
M  V30 4749 N 465.601 -1.54893 0.290851 0
M  V30 4750 C 466.847 -2.0023 -0.321867 0
M  V30 4751 C 467.18 -1.179 -1.54316 0
M  V30 4752 O 466.455 -0.25293 -1.92848 0
M  V30 4753 C 466.738 -3.53456 -0.688515 0
M  V30 4754 C 466.591 -4.46532 0.541209 0
M  V30 4755 C 467.91 -4.13057 -1.51895 0
M  V30 4756 H 465.029 -0.727891 -0.115515 0
M  V30 4757 H 467.671 -1.85722 0.400931 0
M  V30 4758 H 465.821 -3.6595 -1.30433 0
M  V30 4759 H 467.493 -4.4596 1.17973 0
M  V30 4760 H 465.736 -4.17545 1.17636 0
M  V30 4761 H 466.407 -5.51475 0.240675 0
M  V30 4762 H 468.883 -4.03937 -0.99872 0
M  V30 4763 H 467.759 -5.20448 -1.74429 0
M  V30 4764 H 468.02 -3.64284 -2.50498 0
M  V30 4765 N 467.08 -0.0183926 -1.57589 0
M  V30 4766 C 468.491 0.521927 -1.79256 0
M  V30 4767 C 468.842 1.72885 -0.927636 0
M  V30 4768 O 467.967 2.15978 -0.135091 0
M  V30 4769 C 468.562 0.953632 -3.25102 0
M  V30 4770 C 467.121 1.43913 -3.47801 0
M  V30 4771 C 466.268 0.398837 -2.74417 0
M  V30 4772 H 469.219 -0.244485 -1.56805 0
M  V30 4773 H 469.24 1.81863 -3.34224 0
M  V30 4774 H 468.752 0.0750123 -3.88028 0
M  V30 4775 H 466.853 2.33804 -2.90115 0
M  V30 4776 H 466.966 1.45391 -4.56507 0
M  V30 4777 H 465.33 0.864572 -2.39577 0
M  V30 4778 H 466.113 -0.471132 -3.40052 0
M  V30 4779 N 468.558 1.5553 0.254621 0
M  V30 4780 C 469.807 1.76202 0.981612 0
M  V30 4781 C 470.12 0.580883 1.86776 0
M  V30 4782 O 471.326 0.670448 2.63092 0
M  V30 4783 C 469.782 3.11921 1.79537 0
M  V30 4784 C 469.39 4.37659 0.956991 0
M  V30 4785 C 471.134 3.41936 2.51555 0
M  V30 4786 C 469.041 5.64411 1.76619 0
M  V30 4787 H 467.971 0.656841 0.370237 0
M  V30 4788 H 470.622 1.81969 0.236556 0
M  V30 4789 H 469.004 3.00241 2.58208 0
M  V30 4790 H 470.178 4.60307 0.21315 0
M  V30 4791 H 468.493 4.14922 0.350497 0
M  V30 4792 H 471.09 4.33849 3.12536 0
M  V30 4793 H 471.433 2.62905 3.22779 0
M  V30 4794 H 471.966 3.54797 1.799 0
M  V30 4795 H 468.705 6.46241 1.09783 0
M  V30 4796 H 468.225 5.45877 2.48551 0
M  V30 4797 H 469.904 6.03386 2.33527 0
M  V30 4798 N 470.036 -0.519951 1.48776 0
M  V30 4799 C 471.264 -1.29971 1.60982 0
M  V30 4800 C 471.679 -1.86803 0.273885 0
M  V30 4801 O 471.036 -1.66904 -0.738193 0
M  V30 4802 C 471.087 -2.44346 2.66415 0
M  V30 4803 O 470.808 -1.89855 3.94825 0
M  V30 4804 C 472.309 -3.36014 2.89153 0
M  V30 4805 H 469.529 -0.394891 0.542496 0
M  V30 4806 H 472.073 -0.626214 1.94676 0
M  V30 4807 H 470.228 -3.07562 2.35552 0
M  V30 4808 H 470.642 -2.64798 4.5275 0
M  V30 4809 H 472.116 -4.12593 3.66703 0
M  V30 4810 H 472.593 -3.91859 1.98351 0
M  V30 4811 H 473.199 -2.78582 3.21359 0
M  V30 4812 N 471.514 -1.37532 -0.769588 0
M  V30 4813 C 472.76 -1.33057 -1.53048 0
M  V30 4814 C 473.093 0.0841865 -1.94017 0
M  V30 4815 O 472.368 1.04198 -1.64235 0
M  V30 4816 C 472.651 -2.27166 -2.79406 0
M  V30 4817 C 472.504 -3.77429 -2.44677 0
M  V30 4818 C 473.823 -2.19683 -3.81349 0
M  V30 4819 H 470.942 -0.484655 -0.555228 0
M  V30 4820 H 473.584 -1.68251 -0.882702 0
M  V30 4821 H 471.734 -1.97283 -3.34682 0
M  V30 4822 H 473.406 -4.17918 -1.953 0
M  V30 4823 H 471.649 -3.95892 -1.77346 0
M  V30 4824 H 472.32 -4.38716 -3.35011 0
M  V30 4825 H 474.796 -2.46029 -3.35573 0
M  V30 4826 H 473.672 -2.87668 -4.67481 0
M  V30 4827 H 473.933 -1.19045 -4.25771 0
M  V30 4828 N 472.992 0.995999 -1.22138 0
M  V30 4829 C 474.22 1.77066 -1.07029 0
M  V30 4830 C 474.635 1.8495 0.379357 0
M  V30 4831 O 473.992 1.3174 1.26297 0
M  V30 4832 C 474.043 3.20533 -1.67155 0
M  V30 4833 O 473.764 3.13082 -3.06449 0
M  V30 4834 C 475.265 4.14461 -1.5728 0
M  V30 4835 H 472.485 0.556179 -0.375374 0
M  V30 4836 H 475.029 1.25238 -1.61666 0
M  V30 4837 H 473.184 3.6944 -1.16589 0
M  V30 4838 H 473.598 4.03283 -3.35355 0
M  V30 4839 H 475.072 5.1289 -2.04078 0
M  V30 4840 H 475.549 4.36005 -0.528795 0
M  V30 4841 H 476.155 3.71449 -2.07136 0
M  V30 4842 N 474.47 1.03057 1.19235 0
M  V30 4843 C 475.719 0.72326 1.88287 0
M  V30 4844 C 476.032 -0.751333 1.80594 0
M  V30 4845 O 477.238 -1.17176 2.44912 0
M  V30 4846 C 475.694 1.24338 3.3774 0
M  V30 4847 C 475.302 2.74587 3.53986 0
M  V30 4848 C 477.046 1.01213 4.12257 0
M  V30 4849 C 474.953 3.20009 4.97341 0
M  V30 4850 H 473.883 0.266848 0.705201 0
M  V30 4851 H 476.534 1.24509 1.34795 0
M  V30 4852 H 474.916 0.649457 3.90638 0
M  V30 4853 H 476.09 3.39649 3.11408 0
M  V30 4854 H 474.405 2.9601 2.9286 0
M  V30 4855 H 477.002 1.32675 5.17978 0
M  V30 4856 H 477.345 -0.051001 4.16269 0
M  V30 4857 H 477.878 1.57014 3.65501 0
M  V30 4858 H 474.617 4.25659 4.98493 0
M  V30 4859 H 474.137 2.59676 5.40674 0
M  V30 4860 H 475.816 3.13447 5.66003 0
M  V30 4861 N 475.948 -1.35272 0.808662 0
M  V30 4862 C 476.911 -2.28082 0.226093 0
M  V30 4863 C 477.911 -1.49673 -0.587762 0
M  V30 4864 O 479.101 -1.69404 -0.405943 0
M  V30 4865 C 476.233 -3.33955 -0.684596 0
M  V30 4866 H 477.426 -2.81116 1.04469 0
M  V30 4867 H 474.979 -1.45162 0.579466 0
M  V30 4868 H 475.714 -2.86111 -1.5268 0
M  V30 4869 H 475.499 -3.91965 -0.102699 0
M  V30 4870 H 476.989 -4.03219 -1.08646 0
M  V30 4871 N 477.426 -0.562348 -1.47226 0
M  V30 4872 C 478.837 -0.130325 -1.86245 0
M  V30 4873 C 479.188 1.30128 -1.46838 0
M  V30 4874 O 478.313 1.97974 -0.873805 0
M  V30 4875 C 478.908 -0.229738 -3.3802 0
M  V30 4876 C 477.467 0.14728 -3.76112 0
M  V30 4877 C 476.614 -0.574971 -2.71274 0
M  V30 4878 H 479.565 -0.771773 -1.3867 0
M  V30 4879 H 479.586 0.550316 -3.76499 0
M  V30 4880 H 479.098 -1.27178 -3.66671 0
M  V30 4881 H 477.199 1.19023 -3.53078 0
M  V30 4882 H 477.312 -0.214858 -4.78618 0
M  V30 4883 H 475.676 -0.0174756 -2.54694 0
M  V30 4884 H 476.459 -1.61827 -3.02766 0
M  V30 4885 N 478.904 1.54736 -0.299062 0
M  V30 4886 C 479.837 2.1962 0.619851 0
M  V30 4887 C 480.815 1.16496 1.13434 0
M  V30 4888 O 481.999 1.4513 1.2029 0
M  V30 4889 C 479.126 2.8385 1.84788 0
M  V30 4890 C 478.172 4.00484 1.46679 0
M  V30 4891 S 479.005 5.32926 0.524389 0
M  V30 4892 C 480.161 6.00638 1.76026 0
M  V30 4893 H 480.394 2.97221 0.0686177 0
M  V30 4894 H 477.927 1.54176 -0.0832085 0
M  V30 4895 H 479.885 3.21483 2.55263 0
M  V30 4896 H 478.546 2.06099 2.37028 0
M  V30 4897 H 477.739 4.44201 2.38121 0
M  V30 4898 H 477.341 3.64398 0.842008 0
M  V30 4899 H 479.633 6.21327 2.70109 0
M  V30 4900 H 480.576 6.94805 1.36569 0
M  V30 4901 H 480.984 5.3026 1.93609 0
M  V30 4902 N 480.382 0.0267497 1.57577 0
M  V30 4903 C 481.622 -0.65659 1.93567 0
M  V30 4904 C 481.986 -1.69429 0.903213 0
M  V30 4905 O 483.187 -2.42994 1.14923 0
M  V30 4906 C 481.458 -1.25912 3.34486 0
M  V30 4907 S 483.017 -1.96386 3.924 0
M  V30 4908 H 479.835 -0.216237 0.67732 0
M  V30 4909 H 482.437 0.0898475 1.95293 0
M  V30 4910 H 481.141 -0.491405 4.07447 0
M  V30 4911 H 480.672 -2.04291 3.36198 0
M  V30 4912 H 482.687 -3.24202 3.75643 0
M  V30 4913 N 481.861 -1.55662 -0.24637 0
M  V30 4914 C 483.089 -1.81575 -0.991876 0
M  V30 4915 C 483.504 -0.602545 -1.78927 0
M  V30 4916 O 482.861 0.428795 -1.77391 0
M  V30 4917 C 482.912 -3.05711 -1.92933 0
M  V30 4918 O 482.633 -4.22348 -1.1642 0
M  V30 4919 C 484.134 -3.44428 -2.79078 0
M  V30 4920 H 481.354 -0.604209 -0.291844 0
M  V30 4921 H 483.898 -2.02722 -0.269095 0
M  V30 4922 H 482.053 -2.86612 -2.60638 0
M  V30 4923 H 482.467 -4.92706 -1.79835 0
M  V30 4924 H 483.941 -4.34388 -3.40603 0
M  V30 4925 H 484.418 -2.65037 -3.50217 0
M  V30 4926 H 485.024 -3.65879 -2.16824 0
M  V30 4927 N 483.339 0.512053 -1.4905 0
M  V30 4928 C 484.249 1.64139 -1.67617 0
M  V30 4929 C 485.265 1.64786 -0.558701 0
M  V30 4930 O 486.441 1.8341 -0.832034 0
M  V30 4931 C 483.506 3.00548 -1.72835 0
M  V30 4932 C 482.567 3.10615 -2.96339 0
M  V30 4933 C 481.8 4.40517 -3.01298 0
M  V30 4934 O 482.023 5.28671 -2.14157 0
M  V30 4935 O 480.957 4.55325 -3.93653 0
M  V30 4936 H 484.783 1.51407 -2.63267 0
M  V30 4937 H 482.368 0.687131 -1.32661 0
M  V30 4938 H 484.25 3.81641 -1.78683 0
M  V30 4939 H 482.925 3.13566 -0.803616 0
M  V30 4940 H 481.832 2.2875 -2.96014 0
M  V30 4941 H 483.165 3.0252 -3.88256 0
M  V30 4942 N 484.817 1.37938 0.762283 0
M  V30 4943 C 486.064 1.33668 1.52115 0
M  V30 4944 C 486.392 -0.0759538 1.94352 0
M  V30 4945 O 485.647 -1.05121 1.6507 0
M  V30 4946 C 485.946 2.23042 2.79261 0
M  V30 4947 C 485.612 3.71159 2.56031 0
M  V30 4948 C 484.274 4.11523 2.49404 0
M  V30 4949 C 486.626 4.64955 2.35513 0
M  V30 4950 C 483.954 5.43784 2.20263 0
M  V30 4951 C 486.306 5.97464 2.07894 0
M  V30 4952 C 484.97 6.36922 1.99718 0
M  V30 4953 H 484.24 0.489127 0.556629 0
M  V30 4954 H 486.887 1.70224 0.877262 0
M  V30 4955 H 485.192 1.79512 3.48256 0
M  V30 4956 H 486.889 2.17047 3.37182 0
M  V30 4957 H 483.479 3.39153 2.62056 0
M  V30 4958 H 487.663 4.34623 2.39617 0
M  V30 4959 H 482.919 5.73307 2.12435 0
M  V30 4960 H 487.093 6.6969 1.91019 0
M  V30 4961 H 484.72 7.39331 1.76902 0
M  V30 4962 N 486.295 -0.989507 1.22664 0
M  V30 4963 C 487.243 -2.10148 0.997035 0
M  V30 4964 C 488.237 -1.6929 -0.0609783 0
M  V30 4965 O 489.443 -1.79766 0.0917523 0
M  V30 4966 H 485.818 -0.687256 0.305259 0
M  V30 4967 H 487.789 -2.26685 1.94053 0
M  V30 4968 C 486.538 -3.4257 0.595085 0
M  V30 4969 H 485.861 -3.74453 1.40089 0
M  V30 4970 H 487.301 -4.21344 0.473869 0
M  V30 4971 C 485.76 -3.29638 -0.695725 0
M  V30 4972 O 486.29 -3.61709 -1.74727 0
M  V30 4973 N 484.496 -2.82814 -0.668173 0
M  V30 4974 H 484.043 -2.56914 0.18787 0
M  V30 4975 H 484.001 -2.74544 -1.5321 0
M  V30 4976 N 487.773 -1.03688 -1.18687 0
M  V30 4977 C 489.021 -0.736572 -1.88199 0
M  V30 4978 C 489.342 0.737665 -1.80509 0
M  V30 4979 O 488.612 1.53204 -1.22088 0
M  V30 4980 H 487.192 -0.269466 -0.696704 0
M  V30 4981 H 489.854 -1.31282 -1.44052 0
M  V30 4982 H 488.95 -1.03802 -2.94332 0
M  V30 4983 N 489.251 1.34841 -0.815825 0
M  V30 4984 C 490.181 2.32187 -0.247298 0
M  V30 4985 C 491.162 1.5791 0.632344 0
M  V30 4986 O 492.347 1.8593 0.560698 0
M  V30 4987 C 489.477 3.42122 0.597466 0
M  V30 4988 C 488.431 4.27602 -0.184446 0
M  V30 4989 C 487.757 5.28942 0.782609 0
M  V30 4990 C 489.057 5.03502 -1.38865 0
M  V30 4991 H 490.751 2.79985 -1.06061 0
M  V30 4992 H 488.297 1.34611 -0.511461 0
M  V30 4993 H 490.25 4.09232 1.00533 0
M  V30 4994 H 488.974 2.92956 1.44376 0
M  V30 4995 H 487.633 3.62085 -0.573592 0
M  V30 4996 H 487.281 4.7604 1.62466 0
M  V30 4997 H 486.981 5.87008 0.263695 0
M  V30 4998 H 488.505 5.98922 1.18848 0
M  V30 4999 H 489.919 5.63506 -1.05518 0
M  V30 5000 H 488.316 5.71108 -1.8427 0
M  V30 5001 H 489.386 4.33608 -2.17054 0
M  V30 5002 N 490.729 0.570148 1.46925 0
M  V30 5003 C 492.145 0.23087 1.57921 0
M  V30 5004 C 492.345 -1.26676 1.56702 0
M  V30 5005 O 491.401 -2.04774 1.47729 0
M  V30 5006 C 492.714 0.868973 2.8787 0
M  V30 5007 C 494.262 0.841397 3.01479 0
M  V30 5008 C 494.737 1.45881 4.34146 0
M  V30 5009 N 496.228 1.42258 4.40814 0
M  V30 5010 C 496.963 1.8698 5.42057 0
M  V30 5011 N 496.459 2.39618 6.50042 0
M  V30 5012 N 498.252 1.77972 5.33181 0
M  V30 5013 H 490.403 1.54301 1.45962 0
M  V30 5014 H 492.666 0.644224 0.69547 0
M  V30 5015 H 492.372 1.922 2.94537 0
M  V30 5016 H 492.246 0.369682 3.75384 0
M  V30 5017 H 494.633 -0.202973 2.94401 0
M  V30 5018 H 494.714 1.37858 2.15474 0
M  V30 5019 H 494.358 2.50231 4.4198 0
M  V30 5020 H 494.288 0.896958 5.18905 0
M  V30 5021 H 496.779 1.03768 3.63374 0
M  V30 5022 H 497.092 2.71633 7.23488 0
M  V30 5023 H 495.437 2.43636 6.50897 0
M  V30 5024 H 498.628 1.36617 4.4772 0
M  V30 5025 H 498.801 2.13143 6.11943 0
M  V30 5026 N 492.207 -1.54576 0.307264 0
M  V30 5027 C 493.155 -2.25208 -0.581723 0
M  V30 5028 C 494.149 -1.26031 -1.13192 0
M  V30 5029 O 495.355 -1.43862 -1.08184 0
M  V30 5030 H 491.73 -0.723173 -0.206214 0
M  V30 5031 H 493.701 -2.98378 0.0364663 0
M  V30 5032 C 492.45 -3.01086 -1.73904 0
M  V30 5033 H 491.773 -3.77208 -1.32491 0
M  V30 5034 H 493.213 -3.5378 -2.33701 0
M  V30 5035 C 491.672 -2.08422 -2.64692 0
M  V30 5036 O 492.202 -1.65636 -3.65961 0
M  V30 5037 N 490.408 -1.74247 -2.32564 0
M  V30 5038 H 489.955 -2.09238 -1.50257 0
M  V30 5039 H 489.913 -1.12524 -2.93574 0
M  V30 5040 N 493.685 -0.035106 -1.57561 0
M  V30 5041 C 494.934 0.641604 -1.91223 0
M  V30 5042 C 495.247 1.72944 -0.913761 0
M  V30 5043 O 496.453 2.46321 -1.14185 0
M  V30 5044 C 494.909 1.19249 -3.3957 0
M  V30 5045 C 494.517 0.137616 -4.47789 0
M  V30 5046 C 496.261 1.84537 -3.82291 0
M  V30 5047 C 494.168 0.700478 -5.87237 0
M  V30 5048 H 493.098 0.243417 -0.713627 0
M  V30 5049 H 495.749 -0.101382 -1.8322 0
M  V30 5050 H 494.131 1.98728 -3.42525 0
M  V30 5051 H 495.305 -0.635153 -4.56402 0
M  V30 5052 H 493.62 -0.416855 -4.14308 0
M  V30 5053 H 496.217 2.27616 -4.83834 0
M  V30 5054 H 496.56 2.69054 -3.17672 0
M  V30 5055 H 497.093 1.11739 -3.81784 0
M  V30 5056 H 493.832 -0.106693 -6.55413 0
M  V30 5057 H 493.352 1.4416 -5.82218 0
M  V30 5058 H 495.031 1.18837 -6.35993 0
M  V30 5059 N 495.163 1.55791 0.238111 0
M  V30 5060 C 496.391 1.82098 0.982233 0
M  V30 5061 C 496.806 0.612025 1.78605 0
M  V30 5062 O 496.163 -0.419381 1.77616 0
M  V30 5063 C 496.214 3.0673 1.91309 0
M  V30 5064 O 495.935 4.2296 1.14179 0
M  V30 5065 C 497.436 3.45903 2.77248 0
M  V30 5066 H 494.656 0.605748 0.288635 0
M  V30 5067 H 497.2 2.02862 0.258341 0
M  V30 5068 H 495.355 2.87991 2.59114 0
M  V30 5069 H 495.769 4.93653 1.7722 0
M  V30 5070 H 497.243 4.36189 3.38295 0
M  V30 5071 H 497.72 2.66891 3.48806 0
M  V30 5072 H 498.326 3.67024 2.14881 0
M  V30 5073 N 496.642 -0.504142 1.49319 0
M  V30 5074 C 497.891 -1.25507 1.57895 0
M  V30 5075 C 498.204 -1.93735 0.269433 0
M  V30 5076 O 499.41 -2.70492 0.233706 0
M  V30 5077 C 497.866 -2.27869 2.78574 0
M  V30 5078 C 497.474 -1.65594 4.16272 0
M  V30 5079 C 499.218 -3.0381 2.96479 0
M  V30 5080 C 497.125 -2.66048 5.28178 0
M  V30 5081 H 496.055 -0.47212 0.587894 0
M  V30 5082 H 498.706 -0.52931 1.757 0
M  V30 5083 H 497.088 -3.03594 2.54257 0
M  V30 5084 H 498.262 -0.958826 4.50714 0
M  V30 5085 H 496.577 -1.02055 4.037 0
M  V30 5086 H 499.174 -3.78925 3.77253 0
M  V30 5087 H 499.517 -3.61235 2.06918 0
M  V30 5088 H 500.05 -2.352 3.20821 0
M  V30 5089 H 496.789 -2.13408 6.19788 0
M  V30 5090 H 496.309 -3.34009 4.98195 0
M  V30 5091 H 497.988 -3.28536 5.57381 0
M  V30 5092 N 498.12 -1.38341 -0.754957 0
M  V30 5093 C 499.531 -1.30803 -1.3322 0
M  V30 5094 C 499.882 0.0368 -1.96165 0
M  V30 5095 O 499.007 0.938844 -1.94974 0
M  V30 5096 C 499.602 -2.3688 -2.42225 0
M  V30 5097 C 498.161 -2.32925 -2.95674 0
M  V30 5098 C 497.308 -2.19819 -1.69042 0
M  V30 5099 H 500.259 -1.48719 -0.553937 0
M  V30 5100 H 500.28 -2.02517 -3.22129 0
M  V30 5101 H 499.792 -3.34747 -1.96383 0
M  V30 5102 H 497.893 -1.38635 -3.45848 0
M  V30 5103 H 498.006 -3.27008 -3.50146 0
M  V30 5104 H 496.37 -1.66648 -1.92615 0
M  V30 5105 H 497.153 -3.19625 -1.25279 0
M  V30 5106 N 499.598 0.982988 -1.23187 0
M  V30 5107 C 500.844 1.72648 -1.06398 0
M  V30 5108 C 501.177 1.90066 0.398561 0
M  V30 5109 O 500.452 1.45105 1.29518 0
M  V30 5110 C 500.735 3.12627 -1.78707 0
M  V30 5111 C 500.588 3.02795 -3.32618 0
M  V30 5112 C 501.907 4.11997 -1.54747 0
M  V30 5113 H 499.026 0.626649 -0.387918 0
M  V30 5114 H 501.668 1.14455 -1.51658 0
M  V30 5115 H 499.818 3.62308 -1.40234 0
M  V30 5116 H 501.49 2.60659 -3.80598 0
M  V30 5117 H 499.733 2.39362 -3.61785 0
M  V30 5118 H 500.404 4.01893 -3.78399 0
M  V30 5119 H 502.88 3.71114 -1.88186 0
M  V30 5120 H 501.756 5.08037 -2.07821 0
M  V30 5121 H 502.017 4.39462 -0.482249 0
M  V30 5122 N 501.076 1.04316 1.18135 0
M  V30 5123 C 502.026 0.606731 2.19779 0
M  V30 5124 C 503.01 -0.352144 1.56999 0
M  V30 5125 O 504.202 -0.170795 1.76174 0
M  V30 5126 C 501.331 -0.0262443 3.4329 0
M  V30 5127 C 500.417 0.955928 4.13186 0
M  V30 5128 N 500.808 2.12395 4.59045 0
M  V30 5129 C 499.106 0.782473 4.39082 0
M  V30 5130 C 499.807 2.74458 5.12882 0
M  V30 5131 N 498.783 2.02316 5.04548 0
M  V30 5132 H 502.585 1.49679 2.5293 0
M  V30 5133 H 500.099 0.912088 1.34368 0
M  V30 5134 H 502.096 -0.356617 4.15372 0
M  V30 5135 H 500.756 -0.911811 3.11635 0
M  V30 5136 H 501.767 2.50272 4.53414 0
M  V30 5137 H 498.444 -0.0527906 4.17467 0
M  V30 5138 H 499.834 3.73459 5.5855 0
M  V30 5139 N 502.554 -1.34406 0.822964 0
M  V30 5140 C 503.486 -2.28305 0.202375 0
M  V30 5141 C 504.499 -1.5103 -0.60777 0
M  V30 5142 O 505.688 -1.73057 -0.437444 0
M  V30 5143 C 502.788 -3.30836 -0.734911 0
M  V30 5144 C 501.961 -4.37388 0.0324177 0
M  V30 5145 C 501.02 -5.1968 -0.825803 0
M  V30 5146 O 500.046 -5.68556 -0.270771 0
M  V30 5147 N 501.248 -5.39393 -2.14558 0
M  V30 5148 H 504.013 -2.82201 1.00909 0
M  V30 5149 H 501.574 -1.4693 0.67993 0
M  V30 5150 H 503.566 -3.82786 -1.31365 0
M  V30 5151 H 502.136 -2.77334 -1.44238 0
M  V30 5152 H 501.356 -3.86152 0.792469 0
M  V30 5153 H 502.644 -5.05702 0.560633 0
M  V30 5154 H 502.042 -5.01357 -2.62025 0
M  V30 5155 H 500.599 -5.94461 -2.67318 0
M  V30 5156 N 504.032 -0.577932 -1.46621 0
M  V30 5157 C 505.28 -0.061566 -2.02006 0
M  V30 5158 C 505.601 1.30117 -1.4524 0
M  V30 5159 O 504.871 1.85313 -0.63529 0
M  V30 5160 H 503.451 -0.0197692 -0.746738 0
M  V30 5161 H 506.113 -0.752631 -1.79782 0
M  V30 5162 H 505.209 0.0110238 -3.12098 0
M  V30 5163 N 505.51 1.54411 -0.315457 0
M  V30 5164 C 506.44 2.27002 0.547039 0
M  V30 5165 C 507.421 1.27492 1.12605 0
M  V30 5166 O 508.606 1.5629 1.15269 0
M  V30 5167 C 505.736 3.02171 1.71201 0
M  V30 5168 C 504.69 4.0895 1.26268 0
M  V30 5169 C 504.016 4.71915 2.51396 0
M  V30 5170 C 505.316 5.20891 0.383419 0
M  V30 5171 H 507.01 2.99343 -0.0584517 0
M  V30 5172 H 504.556 1.4397 -0.0295527 0
M  V30 5173 H 506.509 3.51681 2.32161 0
M  V30 5174 H 505.233 2.27433 2.34397 0
M  V30 5175 H 503.892 3.60312 0.676062 0
M  V30 5176 H 503.54 3.93801 3.12937 0
M  V30 5177 H 503.24 5.44039 2.22026 0
M  V30 5178 H 504.764 5.24195 3.13133 0
M  V30 5179 H 506.178 5.66206 0.899082 0
M  V30 5180 H 504.575 5.99821 0.182857 0
M  V30 5181 H 505.645 4.81324 -0.587821 0
M  V30 5182 N 506.988 0.0434614 1.5754 0
M  V30 5183 C 508.399 -0.493343 1.80064 0
M  V30 5184 C 508.75 -1.71388 0.955023 0
M  V30 5185 O 507.875 -2.15736 0.169434 0
M  V30 5186 C 508.47 -0.90179 3.26578 0
M  V30 5187 C 507.029 -1.38362 3.50047 0
M  V30 5188 C 506.176 -0.355129 2.75017 0
M  V30 5189 H 509.127 0.2694 1.56397 0
M  V30 5190 H 509.148 -1.76523 3.37075 0
M  V30 5191 H 508.66 -0.013271 3.88098 0
M  V30 5192 H 506.761 -2.29159 2.93798 0
M  V30 5193 H 506.874 -1.3811 4.58762 0
M  V30 5194 H 505.238 -0.826348 2.40922 0
M  V30 5195 H 506.021 0.525172 3.39259 0
M  V30 5196 N 508.466 -1.55915 -0.229846 0
M  V30 5197 C 509.694 -1.82617 -0.972562 0
M  V30 5198 C 510.109 -0.621488 -1.78278 0
M  V30 5199 O 509.466 0.409956 -1.77836 0
M  V30 5200 C 509.517 -3.0774 -1.89679 0
M  V30 5201 O 509.238 -4.23559 -1.11934 0
M  V30 5202 C 510.739 -3.47368 -2.75409 0
M  V30 5203 H 507.959 -0.60727 -0.285419 0
M  V30 5204 H 510.503 -2.02996 -0.247579 0
M  V30 5205 H 508.658 -2.89361 -2.57583 0
M  V30 5206 H 509.072 -4.94586 -1.74599 0
M  V30 5207 H 510.546 -4.37977 -3.35977 0
M  V30 5208 H 511.023 -2.68737 -3.47386 0
M  V30 5209 H 511.629 -3.68158 -2.12931 0
M  V30 5210 N 509.944 0.496216 -1.49584 0
M  V30 5211 C 510.877 1.61508 -1.61215 0
M  V30 5212 C 511.855 1.55927 -0.461045 0
M  V30 5213 O 513.039 1.75914 -0.677231 0
M  V30 5214 C 510.166 3.00035 -1.57152 0
M  V30 5215 C 509.212 3.23861 -2.77518 0
M  V30 5216 S 510.045 3.06466 -4.39134 0
M  V30 5217 C 511.201 4.4738 -4.37724 0
M  V30 5218 H 511.434 1.51398 -2.55863 0
M  V30 5219 H 508.967 0.681727 -1.38535 0
M  V30 5220 H 510.925 3.7991 -1.55494 0
M  V30 5221 H 509.586 3.07556 -0.637834 0
M  V30 5222 H 508.779 4.25 -2.70908 0
M  V30 5223 H 508.381 2.51716 -2.76614 0
M  V30 5224 H 510.673 5.39556 -4.09738 0
M  V30 5225 H 511.616 4.59038 -5.39156 0
M  V30 5226 H 512.024 4.28283 -3.67742 0
M  V30 5227 N 511.423 1.38739 0.74761 0
M  V30 5228 C 512.371 1.36573 1.88283 0
M  V30 5229 C 513.365 0.250712 1.67534 0
M  V30 5230 O 514.571 0.420073 1.7503 0
M  V30 5231 H 510.946 0.42619 0.619569 0
M  V30 5232 H 512.917 2.32356 1.87226 0
M  V30 5233 C 511.666 1.21361 3.25832 0
M  V30 5234 H 510.989 2.06424 3.42388 0
M  V30 5235 H 512.429 1.23901 4.05493 0
M  V30 5236 C 510.888 -0.0790099 3.36807 0
M  V30 5237 O 511.418 -1.05385 3.8763 0
M  V30 5238 N 509.624 -0.13785 2.90273 0
M  V30 5239 H 509.171 0.656128 2.49104 0
M  V30 5240 H 509.129 -1.00228 2.97996 0
M  V30 5241 N 512.901 -0.976442 1.23707 0
M  V30 5242 C 514.129 -1.75341 1.09833 0
M  V30 5243 C 514.544 -1.8553 -0.349885 0
M  V30 5244 O 513.901 -1.33732 -1.24185 0
M  V30 5245 C 513.952 -3.17833 1.72233 0
M  V30 5246 O 513.673 -3.08167 3.11391 0
M  V30 5247 C 515.174 -4.11906 1.63853 0
M  V30 5248 H 512.394 -0.550137 0.384175 0
M  V30 5249 H 514.938 -1.2265 1.63638 0
M  V30 5250 H 513.093 -3.67538 1.22452 0
M  V30 5251 H 513.507 -3.97897 3.41729 0
M  V30 5252 H 514.981 -5.09579 2.12211 0
M  V30 5253 H 515.458 -4.35109 0.598092 0
M  V30 5254 H 516.064 -3.68107 2.13019 0
M  V30 5255 N 514.379 -1.04941 -1.1758 0
M  V30 5256 C 515.79 -0.784501 -1.69418 0
M  V30 5257 C 516.141 0.693625 -1.8353 0
M  V30 5258 O 515.266 1.53925 -1.52106 0
M  V30 5259 C 515.861 -1.41746 -3.07723 0
M  V30 5260 C 514.42 -1.20066 -3.56737 0
M  V30 5261 C 513.567 -1.5026 -2.33061 0
M  V30 5262 H 516.518 -1.21469 -1.02133 0
M  V30 5263 H 516.539 -0.825381 -3.7144 0
M  V30 5264 H 516.051 -2.49325 -2.9742 0
M  V30 5265 H 514.152 -0.144006 -3.72322 0
M  V30 5266 H 514.265 -1.90384 -4.39648 0
M  V30 5267 H 512.629 -0.922598 -2.37403 0
M  V30 5268 H 513.412 -2.58967 -2.25368 0
M  V30 5269 N 515.857 1.33968 -0.830081 0
M  V30 5270 C 517.105 1.97672 -0.420734 0
M  V30 5271 C 517.426 1.66111 1.02138 0
M  V30 5272 O 516.696 0.955503 1.71017 0
M  V30 5273 H 515.276 0.73125 -0.152587 0
M  V30 5274 H 517.938 1.63483 -1.0611 0
M  V30 5275 H 517.034 3.07294 -0.545588 0
M  V30 5276 N 517.335 0.585699 1.46312 0
M  V30 5277 C 518.56 0.0762461 2.0726 0
M  V30 5278 C 518.985 -1.22071 1.43109 0
M  V30 5279 O 518.343 -1.73804 0.515942 0
M  V30 5280 C 518.391 -0.0729404 3.60526 0
M  V30 5281 O 517.495 -1.1287 3.96654 0
M  V30 5282 H 516.836 0.0641558 0.660893 0
M  V30 5283 H 519.366 0.809492 1.87905 0
M  V30 5284 H 519.376 -0.278158 4.07051 0
M  V30 5285 H 518.051 0.874188 4.06609 0
M  V30 5286 H 516.628 -0.901703 3.61834 0
M  V30 5287 N 518.813 -1.54241 0.323641 0
M  V30 5288 C 519.761 -2.25813 -0.557804 0
M  V30 5289 C 520.755 -1.27225 -1.11849 0
M  V30 5290 O 521.961 -1.45001 -1.06652 0
M  V30 5291 H 518.336 -0.72532 -0.198532 0
M  V30 5292 H 520.307 -2.98322 0.0681112 0
M  V30 5293 C 519.056 -3.02913 -1.70701 0
M  V30 5294 H 518.379 -3.78593 -1.28482 0
M  V30 5295 H 519.819 -3.56238 -2.29935 0
M  V30 5296 C 518.278 -2.11217 -2.62467 0
M  V30 5297 O 518.808 -1.69508 -3.64184 0
M  V30 5298 N 517.014 -1.76704 -2.30703 0
M  V30 5299 H 516.561 -2.1082 -1.48029 0
M  V30 5300 H 516.519 -1.15631 -2.92364 0
M  V30 5301 N 520.291 -0.0518155 -1.57515 0
M  V30 5302 C 521.223 0.951542 -2.08515 0
M  V30 5303 C 522.236 1.27436 -1.01311 0
M  V30 5304 O 523.425 1.23504 -1.28876 0
M  V30 5305 C 520.525 2.27291 -2.5138 0
M  V30 5306 C 519.698 2.13191 -3.81927 0
M  V30 5307 C 518.757 3.28458 -4.11098 0
M  V30 5308 O 517.783 3.04334 -4.81009 0
M  V30 5309 N 518.985 4.52954 -3.63061 0
M  V30 5310 H 521.75 0.516242 -2.9522 0
M  V30 5311 H 519.311 0.13441 -1.61341 0
M  V30 5312 H 521.303 3.03272 -2.67971 0
M  V30 5313 H 519.873 2.62386 -1.69919 0
M  V30 5314 H 519.093 1.21798 -3.74912 0
M  V30 5315 H 520.381 2.00999 -4.67415 0
M  V30 5316 H 519.779 4.75444 -3.06545 0
M  V30 5317 H 518.336 5.26026 -3.84889 0
M  V30 5318 N 521.769 1.56035 0.221574 0
M  V30 5319 C 523.016 1.79047 0.94597 0
M  V30 5320 C 523.344 0.62057 1.84334 0
M  V30 5321 O 522.599 -0.395053 1.91671 0
M  V30 5322 C 522.898 3.07813 1.8162 0
M  V30 5323 C 522.564 4.3797 1.07206 0
M  V30 5324 C 521.226 4.73334 0.866508 0
M  V30 5325 C 523.578 5.18326 0.546565 0
M  V30 5326 C 520.906 5.8657 0.123549 0
M  V30 5327 C 523.258 6.32335 -0.18305 0
M  V30 5328 C 521.922 6.66301 -0.399861 0
M  V30 5329 H 521.192 0.655178 0.346155 0
M  V30 5330 H 523.839 1.90299 0.214146 0
M  V30 5331 H 522.144 2.91682 2.61589 0
M  V30 5332 H 523.841 3.2282 2.37884 0
M  V30 5333 H 520.431 4.10202 1.24226 0
M  V30 5334 H 524.615 4.9144 0.692847 0
M  V30 5335 H 519.871 6.11376 -0.0546591 0
M  V30 5336 H 524.045 6.9383 -0.59775 0
M  V30 5337 H 521.672 7.53889 -0.977489 0
M  V30 5338 N 523.247 -0.488276 1.49845 0
M  V30 5339 C 524.177 -1.59675 1.70371 0
M  V30 5340 C 525.158 -1.60878 0.552473 0
M  V30 5341 O 526.343 -1.77417 0.78973 0
M  V30 5342 C 523.473 -2.98098 1.782 0
M  V30 5343 C 522.427 -3.11761 2.93239 0
M  V30 5344 C 521.753 -4.51661 2.86193 0
M  V30 5345 C 523.053 -2.90589 4.33999 0
M  V30 5346 H 524.747 -1.42752 2.63177 0
M  V30 5347 H 522.293 -0.685317 1.26647 0
M  V30 5348 H 524.246 -3.75555 1.91144 0
M  V30 5349 H 522.97 -3.16138 0.820018 0
M  V30 5350 H 521.629 -2.36732 2.79917 0
M  V30 5351 H 521.277 -4.66595 1.87877 0
M  V30 5352 H 520.977 -4.61742 3.63412 0
M  V30 5353 H 522.501 -5.31162 3.01163 0
M  V30 5354 H 523.915 -3.57807 4.47936 0
M  V30 5355 H 522.312 -3.1213 5.12538 0
M  V30 5356 H 523.382 -1.86595 4.4756 0
M  V30 5357 N 524.725 -1.39134 -0.740242 0
M  V30 5358 C 525.953 -1.39334 -1.5295 0
M  V30 5359 C 526.368 0.0135008 -1.88795 0
M  V30 5360 O 525.725 0.983524 -1.5373 0
M  V30 5361 C 525.776 -2.2614 -2.82034 0
M  V30 5362 O 525.497 -3.61345 -2.47712 0
M  V30 5363 C 526.998 -2.34666 -3.76094 0
M  V30 5364 H 524.218 -0.476103 -0.472828 0
M  V30 5365 H 526.762 -1.82883 -0.9151 0
M  V30 5366 H 524.917 -1.86018 -3.39818 0
M  V30 5367 H 525.331 -4.07194 -3.30595 0
M  V30 5368 H 526.805 -2.99663 -4.63579 0
M  V30 5369 H 527.282 -1.36426 -4.17474 0
M  V30 5370 H 527.888 -2.75236 -3.2423 0
M  V30 5371 N 526.204 0.969867 -1.24223 0
M  V30 5372 C 527.429 1.75289 -1.10853 0
M  V30 5373 C 527.854 1.85091 0.335079 0
M  V30 5374 O 527.212 1.32024 1.24255 0
M  V30 5375 C 527.26 3.15255 -1.75062 0
M  V30 5376 O 526.364 3.99589 -1.01992 0
M  V30 5377 H 525.705 0.538904 -0.387915 0
M  V30 5378 H 528.235 1.21675 -1.64488 0
M  V30 5379 H 528.245 3.65787 -1.80731 0
M  V30 5380 H 526.92 3.07436 -2.801 0
M  V30 5381 H 525.497 3.58077 -1.04094 0
M  V30 5382 N 527.682 1.05563 1.17022 0
M  V30 5383 C 528.959 0.68165 1.83338 0
M  V30 5384 C 529.339 -0.837665 1.93769 0
M  V30 5385 O 528.687 -1.74507 1.47511 0
M  V30 5386 C 528.897 1.375 3.20772 0
M  V30 5387 C 530.245 1.51545 3.96635 0
M  V30 5388 O 531.269 1.33431 3.30264 0
M  V30 5389 O 530.128 1.812 5.15586 0
M  V30 5390 H 527.222 0.240412 0.791285 0
M  V30 5391 H 529.768 1.15545 1.24288 0
M  V30 5392 H 528.54 2.41135 3.08171 0
M  V30 5393 H 528.163 0.890798 3.87493 0
M  V30 5394 N 529.16 -1.33526 0.837174 0
M  V30 5395 C 530.437 -1.92369 0.354065 0
M  V30 5396 C 530.817 -1.76348 -1.16038 0
M  V30 5397 O 530.165 -1.15083 -1.97403 0
M  V30 5398 C 530.375 -3.39728 0.799101 0
M  V30 5399 C 531.723 -4.16877 0.806139 0
M  V30 5400 O 532.747 -3.48373 0.742597 0
M  V30 5401 O 531.606 -5.39166 0.892345 0
M  V30 5402 H 528.7 -0.820952 0.0998378 0
M  V30 5403 H 531.246 -1.42409 0.922913 0
M  V30 5404 H 530.018 -3.45254 1.84162 0
M  V30 5405 H 529.641 -3.97062 0.206731 0
M  V30 5406 N 530.638 -0.59345 -1.46 0
M  V30 5407 C 531.885 -0.0831523 -2.02329 0
M  V30 5408 C 532.213 1.28093 -1.46364 0
M  V30 5409 O 531.468 1.85526 -0.622793 0
M  V30 5410 C 531.767 0.021178 -3.57394 0
M  V30 5411 C 531.433 -1.27671 -4.32448 0
M  V30 5412 C 530.095 -1.63227 -4.5267 0
M  V30 5413 C 532.447 -2.13511 -4.7546 0
M  V30 5414 C 529.775 -2.84401 -5.1316 0
M  V30 5415 C 532.127 -3.33922 -5.37289 0
M  V30 5416 C 530.791 -3.69747 -5.55737 0
M  V30 5417 H 530.061 -0.0304276 -0.740375 0
M  V30 5418 H 532.708 -0.772239 -1.75239 0
M  V30 5419 H 531.013 0.793454 -3.83682 0
M  V30 5420 H 532.71 0.431942 -3.98667 0
M  V30 5421 H 529.3 -0.989937 -4.17011 0
M  V30 5422 H 533.484 -1.87344 -4.59582 0
M  V30 5423 H 528.74 -3.12282 -5.25633 0
M  V30 5424 H 532.914 -4.00698 -5.69574 0
M  V30 5425 H 530.541 -4.6373 -6.02377 0
M  V30 5426 N 532.116 1.54067 -0.331816 0
M  V30 5427 C 533.048 2.22139 0.564538 0
M  V30 5428 C 534.061 1.22408 1.07332 0
M  V30 5429 O 535.25 1.4883 0.985481 0
M  V30 5430 C 532.35 2.87876 1.78831 0
M  V30 5431 C 531.523 4.13817 1.41682 0
M  V30 5432 C 530.582 4.63072 2.49901 0
M  V30 5433 O 529.608 5.27562 2.13699 0
M  V30 5434 N 530.81 4.38001 3.80967 0
M  V30 5435 H 533.575 2.99694 -0.0183736 0
M  V30 5436 H 531.136 1.61153 -0.155396 0
M  V30 5437 H 533.128 3.17747 2.50637 0
M  V30 5438 H 531.698 2.13977 2.27887 0
M  V30 5439 H 530.918 3.9062 0.530044 0
M  V30 5440 H 532.206 4.95762 1.14443 0
M  V30 5441 H 531.604 3.864 4.13173 0
M  V30 5442 H 530.161 4.72507 4.48977 0
M  V30 5443 N 533.594 0.0601682 1.57485 0
M  V30 5444 C 534.819 -0.624416 1.97777 0
M  V30 5445 C 535.244 -1.63051 0.937867 0
M  V30 5446 O 534.602 -1.81036 -0.0978845 0
M  V30 5447 C 534.65 -1.27979 3.37126 0
M  V30 5448 O 533.754 -2.39556 3.35688 0
M  V30 5449 H 533.095 -0.161581 0.64404 0
M  V30 5450 H 535.625 0.131237 2.04179 0
M  V30 5451 H 535.635 -1.62937 3.74053 0
M  V30 5452 H 534.31 -0.542501 4.12347 0
M  V30 5453 H 532.887 -2.06478 3.10517 0
M  V30 5454 N 535.072 -1.5615 -0.213296 0
M  V30 5455 C 536.483 -1.69645 -0.779582 0
M  V30 5456 C 536.834 -0.663615 -1.84636 0
M  V30 5457 O 535.959 0.183633 -2.15619 0
M  V30 5458 C 536.554 -3.07567 -1.42084 0
M  V30 5459 C 535.113 -3.22889 -1.93442 0
M  V30 5460 C 534.26 -2.65581 -0.797612 0
M  V30 5461 H 537.211 -1.58696 0.0114951 0
M  V30 5462 H 537.232 -3.03884 -2.28986 0
M  V30 5463 H 536.744 -3.82716 -0.644187 0
M  V30 5464 H 534.845 -2.52623 -2.73884 0
M  V30 5465 H 534.958 -4.30197 -2.10872 0
M  V30 5466 H 533.322 -2.24278 -1.20712 0
M  V30 5467 H 534.105 -3.43284 -0.033494 0
M  V30 5468 N 536.55 0.480323 -1.50102 0
M  V30 5469 C 537.79 1.24301 -1.62261 0
M  V30 5470 C 538.154 1.89452 -0.311758 0
M  V30 5471 O 539.355 2.67022 -0.308696 0
M  V30 5472 C 537.626 2.26588 -2.76392 0
M  V30 5473 S 539.185 3.11919 -3.08629 0
M  V30 5474 H 536.003 0.42215 -0.57211 0
M  V30 5475 H 538.605 0.541591 -1.87848 0
M  V30 5476 H 537.309 1.7729 -3.70131 0
M  V30 5477 H 536.84 3.01371 -2.52862 0
M  V30 5478 H 538.855 4.27598 -2.51742 0
M  V30 5479 N 538.028 1.39524 0.732853 0
M  V30 5480 C 538.991 1.38189 1.82857 0
M  V30 5481 C 539.991 0.278624 1.58368 0
M  V30 5482 O 541.181 0.536639 1.65728 0
M  V30 5483 C 538.313 1.15661 3.2068 0
M  V30 5484 H 539.506 2.35692 1.85444 0
M  V30 5485 H 537.059 1.2512 0.936728 0
M  V30 5486 H 537.794 0.188482 3.23752 0
M  V30 5487 H 537.579 1.95559 3.39852 0
M  V30 5488 H 539.069 1.17472 4.00737 0
M  V30 5489 N 539.506 -0.963266 1.24736 0
M  V30 5490 C 540.436 -2.07628 1.06832 0
M  V30 5491 C 541.417 -1.70088 -0.0200566 0
M  V30 5492 O 542.602 -1.93636 0.147854 0
M  V30 5493 C 539.732 -3.40636 0.677069 0
M  V30 5494 C 538.686 -3.9215 1.71471 0
M  V30 5495 C 538.012 -5.21553 1.1784 0
M  V30 5496 C 539.312 -4.19493 3.11164 0
M  V30 5497 H 541.006 -2.22864 1.9993 0
M  V30 5498 H 538.552 -1.07093 0.96266 0
M  V30 5499 H 540.505 -4.17941 0.538792 0
M  V30 5500 H 539.229 -3.25313 -0.289612 0
M  V30 5501 H 537.888 -3.17005 1.84128 0
M  V30 5502 H 537.536 -5.02593 0.202195 0
M  V30 5503 H 537.236 -5.56988 1.87185 0
M  V30 5504 H 538.76 -6.01463 1.05233 0
M  V30 5505 H 540.174 -4.87487 3.01711 0
M  V30 5506 H 538.571 -4.66165 3.77902 0
M  V30 5507 H 539.641 -3.26097 3.58871 0
M  V30 5508 N 540.985 -1.06182 -1.16461 0
M  V30 5509 C 542.396 -0.802426 -1.68576 0
M  V30 5510 C 542.747 0.67412 -1.84255 0
M  V30 5511 O 541.872 1.52303 -1.5373 0
M  V30 5512 C 542.467 -1.45002 -3.06202 0
M  V30 5513 C 541.026 -1.23843 -3.55443 0
M  V30 5514 C 540.173 -1.52724 -2.31454 0
M  V30 5515 H 543.124 -1.22545 -1.00839 0
M  V30 5516 H 543.145 -0.864731 -3.70544 0
M  V30 5517 H 542.657 -2.52466 -2.94759 0
M  V30 5518 H 540.758 -0.183487 -3.72148 0
M  V30 5519 H 540.871 -1.95036 -4.37604 0
M  V30 5520 H 539.235 -0.947726 -2.36411 0
M  V30 5521 H 540.018 -2.61343 -2.22609 0
M  V30 5522 N 542.463 1.3308 -0.844243 0
M  V30 5523 C 543.411 2.31028 -0.269954 0
M  V30 5524 C 544.405 1.58381 0.600997 0
M  V30 5525 O 545.611 1.73203 0.48996 0
M  V30 5526 H 541.986 0.748866 -0.0685782 0
M  V30 5527 H 543.957 2.76967 -1.11049 0
M  V30 5528 C 542.706 3.43549 0.535676 0
M  V30 5529 H 542.029 3.99604 -0.125202 0
M  V30 5530 H 543.469 4.14267 0.903262 0
M  V30 5531 C 541.928 2.8988 1.71672 0
M  V30 5532 O 542.458 2.86511 2.81557 0
M  V30 5533 N 540.664 2.46416 1.54037 0
M  V30 5534 H 540.211 2.49356 0.64649 0
M  V30 5535 H 540.169 2.1086 2.33207 0
M  V30 5536 N 543.941 0.601185 1.45683 0
M  V30 5537 C 545.188 0.0938811 2.02282 0
M  V30 5538 C 545.516 -1.27315 1.47041 0
M  V30 5539 O 544.771 -1.85193 0.632623 0
M  V30 5540 C 545.07 -0.00222425 3.574 0
M  V30 5541 C 544.736 1.29963 4.31764 0
M  V30 5542 C 543.398 1.65625 4.51798 0
M  V30 5543 C 545.75 2.1603 4.74321 0
M  V30 5544 C 543.078 2.87119 5.11644 0
M  V30 5545 C 545.43 3.36766 5.3551 0
M  V30 5546 C 544.094 3.72689 5.53768 0
M  V30 5547 H 543.364 0.0343535 0.740203 0
M  V30 5548 H 546.011 0.781522 1.74827 0
M  V30 5549 H 544.316 -0.773096 3.84097 0
M  V30 5550 H 546.013 -0.410794 3.9889 0
M  V30 5551 H 542.603 1.01204 4.1648 0
M  V30 5552 H 546.787 1.89778 4.58582 0
M  V30 5553 H 542.043 3.15065 5.2397 0
M  V30 5554 H 546.217 4.03713 5.67441 0
M  V30 5555 H 543.844 4.66918 5.99909 0
M  V30 5556 N 545.419 -1.53889 0.339982 0
M  V30 5557 C 546.696 -1.93084 -0.312719 0
M  V30 5558 C 547.076 -1.2712 -1.68534 0
M  V30 5559 O 546.424 -0.420835 -2.24591 0
M  V30 5560 C 546.634 -3.4683 -0.388558 0
M  V30 5561 C 547.982 -4.19732 -0.641088 0
M  V30 5562 O 549.006 -3.53075 -0.470818 0
M  V30 5563 O 547.865 -5.3781 -0.970685 0
M  V30 5564 H 544.959 -0.806784 -0.18174 0
M  V30 5565 H 547.505 -1.65137 0.390898 0
M  V30 5566 H 546.277 -3.87055 0.574821 0
M  V30 5567 H 545.9 -3.80933 -1.1391 0
M  V30 5568 N 546.897 -0.0685191 -1.57451 0
M  V30 5569 C 548.143 0.602239 -1.93652 0
M  V30 5570 C 548.476 1.6946 -0.948526 0
M  V30 5571 O 547.751 1.94487 0.022782 0
M  V30 5572 C 548.034 1.18223 -3.4014 0
M  V30 5573 C 547.887 0.0967431 -4.49696 0
M  V30 5574 C 549.206 2.08872 -3.87377 0
M  V30 5575 H 546.325 0.217453 -0.70419 0
M  V30 5576 H 548.967 -0.133821 -1.89528 0
M  V30 5577 H 547.117 1.80953 -3.43785 0
M  V30 5578 H 548.789 -0.536155 -4.58174 0
M  V30 5579 H 547.032 -0.573063 -4.29998 0
M  V30 5580 H 547.703 0.542894 -5.49324 0
M  V30 5581 H 550.179 1.56081 -3.85717 0
M  V30 5582 H 549.055 2.46389 -4.90493 0
M  V30 5583 H 549.316 2.99572 -3.25129 0
M  V30 5584 N 548.375 1.56261 0.205012 0
M  V30 5585 C 549.603 1.84141 0.943386 0
M  V30 5586 C 550.018 0.649772 1.77266 0
M  V30 5587 O 549.375 -0.381612 1.78466 0
M  V30 5588 C 549.426 3.10719 1.84759 0
M  V30 5589 O 549.147 4.25286 1.05181 0
M  V30 5590 C 550.648 3.51706 2.69848 0
M  V30 5591 H 547.868 0.611734 0.275721 0
M  V30 5592 H 550.412 2.03364 0.215253 0
M  V30 5593 H 548.567 2.93422 2.52947 0
M  V30 5594 H 548.981 4.97301 1.66709 0
M  V30 5595 H 550.455 4.43266 3.28967 0
M  V30 5596 H 550.932 2.7423 3.43067 0
M  V30 5597 H 551.538 3.71499 2.07047 0
M  V30 5598 N 549.853 -0.472356 1.50355 0
M  V30 5599 C 551.264 -1.05326 1.54154 0
M  V30 5600 C 551.615 -1.93155 0.344303 0
M  V30 5601 O 550.74 -2.09479 -0.542928 0
M  V30 5602 C 551.335 -1.91691 2.79356 0
M  V30 5603 C 549.894 -2.44892 2.8584 0
M  V30 5604 C 549.041 -1.23205 2.48426 0
M  V30 5605 H 551.992 -0.255027 1.56637 0
M  V30 5606 H 552.013 -2.76742 2.6114 0
M  V30 5607 H 551.525 -1.27741 3.66475 0
M  V30 5608 H 549.626 -3.12399 2.0307 0
M  V30 5609 H 549.739 -2.80086 3.88701 0
M  V30 5610 H 548.103 -1.56643 2.00836 0
M  V30 5611 H 548.886 -0.609194 3.37852 0
M  V30 5612 N 551.331 -1.39911 -0.725443 0
M  V30 5613 C 552.742 -1.33599 -1.30415 0
M  V30 5614 C 553.093 -0.00481792 -1.96199 0
M  V30 5615 O 552.218 0.897275 -1.96921 0
M  V30 5616 C 552.813 -2.41965 -2.37146 0
M  V30 5617 C 551.372 -2.39144 -2.90667 0
M  V30 5618 C 550.519 -2.23355 -1.64341 0
M  V30 5619 H 553.47 -1.4986 -0.522267 0
M  V30 5620 H 553.491 -2.09304 -3.17761 0
M  V30 5621 H 553.003 -3.38837 -1.89238 0
M  V30 5622 H 551.104 -1.4594 -3.4283 0
M  V30 5623 H 551.217 -3.34362 -3.43131 0
M  V30 5624 H 549.581 -1.70696 -1.89037 0
M  V30 5625 H 550.364 -3.2221 -1.18471 0
M  V30 5626 N 552.809 0.956637 -1.25245 0
M  V30 5627 C 554.058 1.69537 -1.0927 0
M  V30 5628 C 554.371 1.92136 0.366503 0
M  V30 5629 O 555.577 2.63687 0.64665 0
M  V30 5630 C 554.033 3.05211 -1.9072 0
M  V30 5631 C 553.641 2.90416 -3.41119 0
M  V30 5632 C 555.385 3.82882 -1.83308 0
M  V30 5633 C 553.292 4.21468 -4.14872 0
M  V30 5634 H 552.222 0.635804 -0.405302 0
M  V30 5635 H 554.873 1.06513 -1.49423 0
M  V30 5636 H 553.255 3.69128 -1.43389 0
M  V30 5637 H 554.429 2.35444 -3.9611 0
M  V30 5638 H 552.744 2.26203 -3.49602 0
M  V30 5639 H 555.341 4.79944 -2.35706 0
M  V30 5640 H 555.684 4.0853 -0.800572 0
M  V30 5641 H 556.217 3.25711 -2.28379 0
M  V30 5642 H 552.956 4.01009 -5.18529 0
M  V30 5643 H 552.476 4.76213 -3.64665 0
M  V30 5644 H 554.155 4.90022 -4.22478 0
M  V30 5645 N 554.287 1.06798 1.15896 0
M  V30 5646 C 555.237 0.653213 2.18443 0
M  V30 5647 C 556.221 -0.318763 1.57711 0
M  V30 5648 O 557.413 -0.133388 1.76497 0
M  V30 5649 C 554.542 0.0465785 3.43268 0
M  V30 5650 C 553.628 1.04336 4.11066 0
M  V30 5651 N 554.019 2.22084 4.54436 0
M  V30 5652 C 552.317 0.875433 4.37324 0
M  V30 5653 C 553.018 2.85276 5.06944 0
M  V30 5654 N 551.994 2.12973 5.00143 0
M  V30 5655 H 555.796 1.55011 2.49698 0
M  V30 5656 H 553.31 0.940384 1.32403 0
M  V30 5657 H 555.307 -0.26843 4.16035 0
M  V30 5658 H 553.967 -0.845504 3.13499 0
M  V30 5659 H 554.978 2.59833 4.48004 0
M  V30 5660 H 551.655 0.0357721 4.17485 0
M  V30 5661 H 553.045 3.85223 5.50503 0
M  V30 5662 N 555.766 -1.3263 0.851289 0
M  V30 5663 C 557.015 -1.96633 0.449267 0
M  V30 5664 C 557.328 -1.68131 -0.999562 0
M  V30 5665 O 558.534 -2.25845 -1.50685 0
M  V30 5666 C 556.99 -3.51946 0.752446 0
M  V30 5667 C 556.598 -3.89311 2.21678 0
M  V30 5668 C 558.342 -4.22437 0.417983 0
M  V30 5669 C 556.249 -5.37655 2.46336 0
M  V30 5670 H 555.179 -0.735888 0.164269 0
M  V30 5671 H 557.83 -1.51073 1.0416 0
M  V30 5672 H 556.212 -3.95899 0.0895858 0
M  V30 5673 H 557.386 -3.56378 2.92115 0
M  V30 5674 H 555.701 -3.31836 2.51543 0
M  V30 5675 H 558.298 -5.31549 0.579674 0
M  V30 5676 H 558.641 -4.11349 -0.640115 0
M  V30 5677 H 559.174 -3.84057 1.03659 0
M  V30 5678 H 555.913 -5.5376 3.50757 0
M  V30 5679 H 555.433 -5.72005 1.80473 0
M  V30 5680 H 557.112 -6.04695 2.30115 0
M  V30 5681 N 557.244 -0.608902 -1.45362 0
M  V30 5682 C 558.655 -0.189511 -1.85736 0
M  V30 5683 C 559.006 1.2539 -1.50903 0
M  V30 5684 O 558.131 1.95094 -0.936347 0
M  V30 5685 C 558.726 -0.33716 -3.37118 0
M  V30 5686 C 557.285 0.0275487 -3.7639 0
M  V30 5687 C 556.432 -0.660983 -2.69307 0
M  V30 5688 H 559.383 -0.815499 -1.36144 0
M  V30 5689 H 559.404 0.430257 -3.7806 0
M  V30 5690 H 558.916 -1.38779 -3.62439 0
M  V30 5691 H 557.017 1.0773 -3.56686 0
M  V30 5692 H 557.13 -0.367018 -4.77692 0
M  V30 5693 H 555.494 -0.0984958 -2.54509 0
M  V30 5694 H 556.277 -1.71377 -2.97464 0
M  V30 5695 N 558.722 1.53707 -0.348139 0
M  V30 5696 C 559.97 2.00591 0.246478 0
M  V30 5697 C 560.291 1.23753 1.50699 0
M  V30 5698 O 559.561 0.345964 1.92821 0
M  V30 5699 H 558.141 0.741053 0.0940679 0
M  V30 5700 H 560.803 1.89139 -0.470354 0
M  V30 5701 H 559.899 3.08297 0.485714 0
M  V30 5702 N 560.2 0.0768682 1.57412 0
M  V30 5703 C 561.11 -0.903207 2.16516 0
M  V30 5704 C 562.126 -1.32341 1.12968 0
M  V30 5705 O 563.302 -1.39507 1.45258 0
M  V30 5706 C 560.367 -2.1508 2.71922 0
M  V30 5707 C 559.428 -1.78653 3.90361 0
M  V30 5708 C 558.661 -2.97465 4.43114 0
M  V30 5709 O 558.884 -4.11638 3.94854 0
M  V30 5710 O 557.818 -2.76987 5.3438 0
M  V30 5711 H 561.644 -0.430427 3.00634 0
M  V30 5712 H 559.229 -0.146485 1.4868 0
M  V30 5713 H 561.111 -2.8823 3.07411 0
M  V30 5714 H 559.786 -2.61446 1.9086 0
M  V30 5715 H 558.693 -1.0274 3.59716 0
M  V30 5716 H 560.026 -1.37066 4.7273 0
M  V30 5717 N 561.678 -1.56367 -0.196722 0
M  V30 5718 C 562.924 -1.80796 -0.918725 0
M  V30 5719 C 563.257 -0.650645 -1.82976 0
M  V30 5720 O 562.532 0.348889 -1.91345 0
M  V30 5721 C 562.815 -3.15472 -1.73636 0
M  V30 5722 C 562.668 -4.41693 -0.85015 0
M  V30 5723 C 563.987 -3.46824 -2.70927 0
M  V30 5724 H 561.106 -0.657702 -0.332561 0
M  V30 5725 H 563.748 -1.89086 -0.186186 0
M  V30 5726 H 561.898 -3.08536 -2.36088 0
M  V30 5727 H 563.57 -4.60673 -0.240459 0
M  V30 5728 H 561.813 -4.33517 -0.156785 0
M  V30 5729 H 562.484 -5.32419 -1.45719 0
M  V30 5730 H 564.96 -3.54049 -2.18607 0
M  V30 5731 H 563.836 -4.4218 -3.25219 0
M  V30 5732 H 564.097 -2.70236 -3.49893 0
M  V30 5733 N 563.156 0.464375 -1.50603 0
M  V30 5734 C 564.103 1.56152 -1.69956 0
M  V30 5735 C 565.073 1.57046 -0.54091 0
M  V30 5736 O 566.258 1.74473 -0.772258 0
M  V30 5737 C 563.398 2.94079 -1.80586 0
M  V30 5738 C 562.511 3.02923 -3.07996 0
M  V30 5739 C 561.646 4.31806 -3.09382 0
M  V30 5740 C 560.685 4.34417 -4.31218 0
M  V30 5741 N 559.822 5.54782 -4.30304 0
M  V30 5742 H 564.662 1.38955 -2.6362 0
M  V30 5743 H 562.199 0.675482 -1.30674 0
M  V30 5744 H 564.157 3.74073 -1.8473 0
M  V30 5745 H 562.787 3.09896 -0.903556 0
M  V30 5746 H 561.839 2.1576 -3.13292 0
M  V30 5747 H 563.151 3.00712 -3.97962 0
M  V30 5748 H 562.305 5.20153 -3.12292 0
M  V30 5749 H 561.044 4.36636 -2.17257 0
M  V30 5750 H 560.049 3.44467 -4.28512 0
M  V30 5751 H 561.274 4.31273 -5.24576 0
M  V30 5752 H 559.22 5.60384 -3.41037 0
M  V30 5753 H 559.137 5.54339 -5.14047 0
M  V30 5754 H 560.405 6.45235 -4.3737 0
M  V30 5755 N 564.634 1.40294 0.718013 0
M  V30 5756 C 565.582 1.40536 1.85344 0
M  V30 5757 C 566.576 0.286192 1.66965 0
M  V30 5758 O 567.782 0.457105 1.74099 0
M  V30 5759 H 564.157 0.439236 0.61039 0
M  V30 5760 H 566.128 2.36275 1.82255 0
M  V30 5761 C 564.877 1.28245 3.23185 0
M  V30 5762 H 564.2 2.1364 3.37932 0
M  V30 5763 H 565.64 1.32474 4.02774 0
M  V30 5764 C 564.099 -0.0075503 3.36899 0
M  V30 5765 O 564.629 -0.971391 3.89778 0
M  V30 5766 N 562.835 -0.0762479 2.905 0
M  V30 5767 H 562.382 0.708819 2.47656 0
M  V30 5768 H 562.34 -0.938846 3.00055 0
M  V30 5769 N 566.112 -0.949982 1.2575 0
M  V30 5770 C 567.045 -2.047 1.00862 0
M  V30 5771 C 568.023 -1.62475 -0.0636982 0
M  V30 5772 O 569.207 -1.88343 0.0769153 0
M  V30 5773 C 566.334 -3.34597 0.525613 0
M  V30 5774 C 565.38 -3.95788 1.58916 0
M  V30 5775 S 566.213 -4.31175 3.17567 0
M  V30 5776 C 567.369 -5.64183 2.71013 0
M  V30 5777 H 567.602 -2.25497 1.93749 0
M  V30 5778 H 565.135 -1.09022 1.09332 0
M  V30 5779 H 567.093 -4.09716 0.25359 0
M  V30 5780 H 565.754 -3.11758 -0.382828 0
M  V30 5781 H 564.947 -4.89457 1.20201 0
M  V30 5782 H 564.549 -3.27168 1.81211 0
M  V30 5783 H 566.841 -6.42504 2.14928 0
M  V30 5784 H 567.784 -6.07774 3.6334 0
M  V30 5785 H 568.192 -5.2364 2.1086 0
M  V30 5786 N 567.59 -1.07411 -1.15328 0
M  V30 5787 C 568.523 -0.63913 -2.19067 0
M  V30 5788 C 569.501 0.343929 -1.58921 0
M  V30 5789 O 570.685 0.250207 -1.86832 0
M  V30 5790 C 567.812 0.0613977 -3.38644 0
M  V30 5791 C 566.858 -0.880201 -4.17318 0
M  V30 5792 S 567.691 -2.38152 -4.79629 0
M  V30 5793 C 568.847 -1.69281 -6.02573 0
M  V30 5794 H 569.08 -1.51799 -2.55626 0
M  V30 5795 H 566.613 -0.888138 -1.26299 0
M  V30 5796 H 568.571 0.459323 -4.07922 0
M  V30 5797 H 567.232 0.916605 -3.00428 0
M  V30 5798 H 566.425 -0.336781 -5.02874 0
M  V30 5799 H 566.027 -1.21854 -3.53592 0
M  V30 5800 H 568.319 -1.00488 -6.70006 0
M  V30 5801 H 569.262 -2.52671 -6.61485 0
M  V30 5802 H 569.67 -1.17053 -5.52231 0
M  V30 5803 N 569.068 1.32177 -0.85831 0
M  V30 5804 C 569.978 2.32561 -0.308606 0
M  V30 5805 C 570.994 1.64209 0.575462 0
M  V30 5806 O 572.17 1.95719 0.474961 0
M  V30 5807 C 569.235 3.43207 0.490909 0
M  V30 5808 C 568.296 4.27243 -0.419733 0
M  V30 5809 C 567.529 5.32605 0.341719 0
M  V30 5810 O 567.752 5.48332 1.57125 0
M  V30 5811 O 566.686 6.0118 -0.294379 0
M  V30 5812 H 570.512 2.81477 -1.14037 0
M  V30 5813 H 568.097 1.35866 -0.621349 0
M  V30 5814 H 569.979 4.10677 0.944574 0
M  V30 5815 H 568.654 2.96474 1.29941 0
M  V30 5816 H 567.561 3.62569 -0.921652 0
M  V30 5817 H 568.894 4.7751 -1.19352 0
M  V30 5818 N 570.547 0.616602 1.45037 0
M  V30 5819 C 571.477 -0.0840787 2.33349 0
M  V30 5820 C 572.458 -0.849641 1.4736 0
M  V30 5821 O 573.643 -0.818407 1.76113 0
M  V30 5822 C 570.773 -1.07604 3.3021 0
M  V30 5823 C 569.727 -0.423096 4.25904 0
M  V30 5824 C 569.053 -1.52394 5.12523 0
M  V30 5825 C 570.353 0.661457 5.18095 0
M  V30 5826 H 572.047 0.653333 2.92185 0
M  V30 5827 H 569.593 0.315634 1.40498 0
M  V30 5828 H 571.546 -1.57485 3.90866 0
M  V30 5829 H 570.27 -1.84416 2.69552 0
M  V30 5830 H 568.929 0.05493 3.66559 0
M  V30 5831 H 568.577 -2.28257 4.48227 0
M  V30 5832 H 568.277 -1.09251 5.77354 0
M  V30 5833 H 569.801 -2.02485 5.76049 0
M  V30 5834 H 571.215 0.246353 5.7277 0
M  V30 5835 H 569.612 1.01517 5.91451 0
M  V30 5836 H 570.682 1.53446 4.59981 0
M  V30 5837 N 572.025 -1.5352 0.356285 0
M  V30 5838 C 572.988 -2.24071 -0.482182 0
M  V30 5839 C 573.988 -1.24531 -1.01729 0
M  V30 5840 O 575.178 -1.48876 -0.904513 0
M  V30 5841 C 572.31 -2.97025 -1.67299 0
M  V30 5842 H 573.503 -2.99596 0.135031 0
M  V30 5843 H 571.056 -1.55928 0.107825 0
M  V30 5844 H 571.791 -2.25719 -2.32855 0
M  V30 5845 H 571.576 -3.7005 -1.29636 0
M  V30 5846 H 573.066 -3.50683 -2.26741 0
M  V30 5847 N 573.503 -0.0852151 -1.57369 0
M  V30 5848 C 574.413 0.891712 -2.16992 0
M  V30 5849 C 575.429 1.3174 -1.13669 0
M  V30 5850 O 576.605 1.38735 -1.45995 0
M  V30 5851 C 573.67 2.13635 -2.73059 0
M  V30 5852 C 572.731 1.7658 -3.91303 0
M  V30 5853 C 571.964 2.95111 -4.44686 0
M  V30 5854 O 572.187 4.09539 -3.97032 0
M  V30 5855 O 571.121 2.74149 -5.35841 0
M  V30 5856 H 574.947 0.414477 -3.00858 0
M  V30 5857 H 572.532 0.138598 -1.48756 0
M  V30 5858 H 574.414 2.86595 -3.08935 0
M  V30 5859 H 573.089 2.6043 -1.92244 0
M  V30 5860 H 571.996 1.00831 -3.60255 0
M  V30 5861 H 573.329 1.34557 -4.7345 0
M  V30 5862 N 574.981 1.5647 0.188427 0
M  V30 5863 C 576.23 1.80207 0.905995 0
M  V30 5864 C 576.543 0.659579 1.84144 0
M  V30 5865 O 577.749 0.781431 2.60011 0
M  V30 5866 C 576.205 3.19255 1.66145 0
M  V30 5867 C 575.813 4.41324 0.770504 0
M  V30 5868 C 577.557 3.52298 2.36826 0
M  V30 5869 C 575.464 5.71394 1.52521 0
M  V30 5870 H 574.394 0.671953 0.342045 0
M  V30 5871 H 577.045 1.82808 0.159164 0
M  V30 5872 H 575.427 3.10922 2.45242 0
M  V30 5873 H 576.601 4.60797 0.0177261 0
M  V30 5874 H 574.916 4.16035 0.174199 0
M  V30 5875 H 577.513 4.46715 2.93854 0
M  V30 5876 H 577.856 2.76359 3.11338 0
M  V30 5877 H 578.389 3.62108 1.6469 0
M  V30 5878 H 575.128 6.50316 0.82275 0
M  V30 5879 H 574.648 5.55928 2.25175 0
M  V30 5880 H 576.327 6.12747 2.07725 0
M  V30 5881 N 576.459 -0.456382 1.50847 0
M  V30 5882 C 577.736 -1.21739 1.53098 0
M  V30 5883 C 578.116 -2.09179 0.284132 0
M  V30 5884 O 577.464 -2.16466 -0.731773 0
M  V30 5885 C 577.674 -2.03573 2.83477 0
M  V30 5886 C 579.022 -2.61264 3.34703 0
M  V30 5887 O 580.046 -2.13802 2.84898 0
M  V30 5888 O 578.905 -3.47779 4.21559 0
M  V30 5889 H 575.999 -0.553219 0.614718 0
M  V30 5890 H 578.545 -0.467003 1.63148 0
M  V30 5891 H 577.317 -1.39232 3.65691 0
M  V30 5892 H 576.94 -2.85716 2.76499 0
M  V30 5893 N 577.937 -1.40673 -0.710563 0
M  V30 5894 C 579.165 -1.42547 -1.4996 0
M  V30 5895 C 579.58 -0.0265485 -1.88781 0
M  V30 5896 O 578.937 0.950694 -1.55782 0
M  V30 5897 C 578.988 -2.32071 -2.77173 0
M  V30 5898 O 578.709 -3.66518 -2.39992 0
M  V30 5899 C 580.21 -2.42591 -3.71032 0
M  V30 5900 H 577.43 -0.486025 -0.462623 0
M  V30 5901 H 579.974 -1.84783 -0.876102 0
M  V30 5902 H 578.129 -1.93184 -3.35795 0
M  V30 5903 H 578.543 -4.14115 -3.21884 0
M  V30 5904 H 580.017 -3.09429 -4.57119 0
M  V30 5905 H 580.494 -1.4525 -4.14486 0
M  V30 5906 H 581.1 -2.82051 -3.18319 0
M  V30 5907 N 579.415 0.9433 -1.26252 0
M  V30 5908 C 580.345 2.05902 -1.10122 0
M  V30 5909 C 581.326 1.70099 -0.00700552 0
M  V30 5910 O 582.511 1.93377 -0.178641 0
M  V30 5911 C 579.641 3.39516 -0.731175 0
M  V30 5912 C 578.595 3.89372 -1.77688 0
M  V30 5913 C 577.921 5.19613 -1.26122 0
M  V30 5914 C 579.221 4.14489 -3.17799 0
M  V30 5915 H 580.915 2.19655 -2.03451 0
M  V30 5916 H 578.461 1.05548 -0.979576 0
M  V30 5917 H 580.414 4.17031 -0.605215 0
M  V30 5918 H 579.138 3.25733 0.23782 0
M  V30 5919 H 577.797 3.14036 -1.89148 0
M  V30 5920 H 577.445 5.02208 -0.282128 0
M  V30 5921 H 577.145 5.53939 -1.96023 0
M  V30 5922 H 578.669 5.99713 -1.14789 0
M  V30 5923 H 580.083 4.82625 -3.09428 0
M  V30 5924 H 578.48 4.60094 -3.85271 0
M  V30 5925 H 579.55 3.20347 -3.64014 0
M  V30 5926 N 580.893 1.08022 1.14757 0
M  V30 5927 C 582.142 0.802468 1.8505 0
M  V30 5928 C 582.455 -0.674061 1.83619 0
M  V30 5929 O 583.661 -1.06683 2.49662 0
M  V30 5930 C 582.117 1.38551 3.32162 0
M  V30 5931 C 581.725 2.89354 3.42021 0
M  V30 5932 C 583.469 1.18608 4.07594 0
M  V30 5933 C 581.376 3.40815 4.83321 0
M  V30 5934 H 580.306 0.296518 0.693248 0
M  V30 5935 H 582.957 1.30114 1.29393 0
M  V30 5936 H 581.339 0.814556 3.87532 0
M  V30 5937 H 582.513 3.52552 2.96722 0
M  V30 5938 H 580.828 3.08165 2.80041 0
M  V30 5939 H 583.425 1.54525 5.11885 0
M  V30 5940 H 583.768 0.125599 4.1611 0
M  V30 5941 H 584.301 1.72375 3.58513 0
M  V30 5942 H 581.04 4.46418 4.79991 0
M  V30 5943 H 580.56 2.82374 5.29174 0
M  V30 5944 H 582.239 3.37171 5.522 0
M  V30 5945 N 582.371 -1.3172 0.865308 0
M  V30 5946 C 583.782 -1.79104 0.527126 0
M  V30 5947 C 584.133 -1.7135 -0.955695 0
M  V30 5948 O 583.258 -1.27845 -1.74598 0
M  V30 5949 C 583.853 -3.25207 0.950061 0
M  V30 5950 C 582.412 -3.70504 0.663611 0
M  V30 5951 C 581.559 -2.52605 1.14395 0
M  V30 5952 H 584.51 -1.18868 1.05148 0
M  V30 5953 H 584.531 -3.79535 0.270805 0
M  V30 5954 H 584.043 -3.30818 2.02931 0
M  V30 5955 H 582.144 -3.70398 -0.404474 0
M  V30 5956 H 582.257 -4.62845 1.23737 0
M  V30 5957 H 580.621 -2.4838 0.563859 0
M  V30 5958 H 581.404 -2.60964 2.23053 0
M  V30 5959 N 583.85 -0.624285 -1.44708 0
M  V30 5960 C 584.783 0.133905 -2.27807 0
M  V30 5961 C 585.76 0.857794 -1.38133 0
M  V30 5962 O 586.945 0.863277 -1.6757 0
M  V30 5963 C 584.072 1.19541 -3.16903 0
M  V30 5964 C 583.118 0.572813 -4.22636 0
M  V30 5965 S 583.951 -0.631953 -5.31758 0
M  V30 5966 C 585.106 0.429733 -6.24423 0
M  V30 5967 H 585.34 -0.571072 -2.91764 0
M  V30 5968 H 582.873 -0.412261 -1.48794 0
M  V30 5969 H 584.831 1.80293 -3.68788 0
M  V30 5970 H 583.492 1.87255 -2.5218 0
M  V30 5971 H 582.685 1.37205 -4.84965 0
M  V30 5972 H 582.287 0.0400641 -3.73979 0
M  V30 5973 H 584.579 1.30421 -6.64828 0
M  V30 5974 H 585.522 -0.157804 -7.07924 0
M  V30 5975 H 585.93 0.75256 -5.59461 0
M  V30 5976 N 585.328 1.53329 -0.364422 0
M  V30 5977 C 586.276 2.27212 0.497737 0
M  V30 5978 C 587.27 1.30146 1.08437 0
M  V30 5979 O 588.476 1.47778 1.0277 0
M  V30 5980 H 584.851 0.730329 0.179232 0
M  V30 5981 H 586.822 2.98037 -0.147182 0
M  V30 5982 C 585.571 3.07333 1.6261 0
M  V30 5983 H 584.894 3.81866 1.184 0
M  V30 5984 H 586.334 3.62209 2.20409 0
M  V30 5985 C 584.793 2.18102 2.56775 0
M  V30 5986 O 585.323 1.79104 3.59562 0
M  V30 5987 N 583.529 1.82759 2.25937 0
M  V30 5988 H 583.076 2.14671 1.42387 0
M  V30 5989 H 583.034 1.23342 2.89196 0
M  V30 5990 N 586.806 0.0935595 1.57322 0
M  V30 5991 C 587.769 -0.851426 2.12799 0
M  V30 5992 C 588.769 -1.21187 1.0569 0
M  V30 5993 O 589.959 -1.14156 1.31583 0
M  V30 5994 C 587.091 -2.14779 2.64731 0
M  V30 5995 H 588.284 -0.369733 2.97612 0
M  V30 5996 H 585.837 -0.155417 1.55525 0
M  V30 5997 H 586.572 -2.67437 1.83434 0
M  V30 5998 H 586.357 -1.89907 3.43042 0
M  V30 5999 H 587.847 -2.82383 3.07651 0
M  V30 6000 N 588.284 -1.56567 -0.180126 0
M  V30 6001 C 589.53 -1.81761 -0.899497 0
M  V30 6002 C 589.863 -0.670015 -1.82276 0
M  V30 6003 O 589.138 0.328575 -1.91705 0
M  V30 6004 C 589.421 -3.17296 -1.7028 0
M  V30 6005 C 589.274 -4.4257 -0.803255 0
M  V30 6006 C 590.593 -3.49678 -2.67233 0
M  V30 6007 H 587.712 -0.661192 -0.325567 0
M  V30 6008 H 590.354 -1.89272 -0.16612 0
M  V30 6009 H 588.504 -3.11023 -2.32802 0
M  V30 6010 H 590.176 -4.60902 -0.191585 0
M  V30 6011 H 588.419 -4.33658 -0.110796 0
M  V30 6012 H 589.09 -5.33935 -1.40064 0
M  V30 6013 H 591.566 -3.56347 -2.14839 0
M  V30 6014 H 590.442 -4.45605 -3.20511 0
M  V30 6015 H 590.703 -2.73932 -3.47007 0
M  V30 6016 N 589.762 0.448376 -1.51087 0
M  V30 6017 C 591.039 1.20926 -1.53741 0
M  V30 6018 C 591.419 2.09025 -0.295222 0
M  V30 6019 O 590.767 2.16851 0.720283 0
M  V30 6020 C 590.977 2.02067 -2.84552 0
M  V30 6021 C 592.325 2.59486 -3.36084 0
M  V30 6022 O 593.349 2.12289 -2.86028 0
M  V30 6023 O 592.208 3.45539 -4.23397 0
M  V30 6024 H 589.302 0.549951 -0.617643 0
M  V30 6025 H 591.848 0.458344 -1.63393 0
M  V30 6026 H 590.62 1.37291 -3.66425 0
M  V30 6027 H 590.243 2.84246 -2.78011 0
M  V30 6028 N 591.24 1.41047 0.703093 0
M  V30 6029 C 592.488 1.39723 1.4602 0
M  V30 6030 C 592.809 0.00461257 1.94999 0
M  V30 6031 O 592.079 -0.952292 1.71196 0
M  V30 6032 H 590.659 0.514281 0.541779 0
M  V30 6033 H 593.321 1.76217 0.832678 0
M  V30 6034 H 592.417 2.07982 2.32701 0
M  V30 6035 N 592.718 -0.936591 1.26751 0
M  V30 6036 C 593.665 -2.03597 1.08706 0
M  V30 6037 C 594.635 -1.66097 -0.00926542 0
M  V30 6038 O 595.82 -1.90199 0.151377 0
M  V30 6039 C 592.96 -3.3727 0.73094 0
M  V30 6040 C 592.073 -3.87778 1.90399 0
M  V30 6041 C 591.208 -5.09859 1.49056 0
M  V30 6042 C 590.247 -5.5264 2.63164 0
M  V30 6043 N 589.384 -6.65921 2.22471 0
M  V30 6044 H 594.224 -2.18364 2.02784 0
M  V30 6045 H 591.761 -1.06985 1.00958 0
M  V30 6046 H 593.719 -4.14128 0.505328 0
M  V30 6047 H 592.349 -3.22337 -0.172868 0
M  V30 6048 H 591.401 -3.07279 2.2424 0
M  V30 6049 H 592.713 -4.15464 2.76028 0
M  V30 6050 H 591.867 -5.9419 1.22567 0
M  V30 6051 H 590.606 -4.8393 0.60524 0
M  V30 6052 H 589.611 -4.66863 2.90377 0
M  V30 6053 H 590.836 -5.80568 3.52303 0
M  V30 6054 H 588.782 -6.41667 1.36379 0
M  V30 6055 H 588.699 -6.93216 3.01641 0
M  V30 6056 H 589.967 -7.53616 1.99205 0
M  V30 6057 N 594.196 -1.08629 -1.14182 0
M  V30 6058 C 595.442 -0.818556 -1.85546 0
M  V30 6059 C 595.775 0.654076 -1.82854 0
M  V30 6060 O 595.05 1.48099 -1.26083 0
M  V30 6061 C 595.333 -1.34397 -3.3408 0
M  V30 6062 C 595.186 -2.8821 -3.45333 0
M  V30 6063 C 596.505 -0.971069 -4.29253 0
M  V30 6064 H 593.624 -0.298821 -0.673702 0
M  V30 6065 H 596.266 -1.34629 -1.34071 0
M  V30 6066 H 594.416 -0.895064 -3.78049 0
M  V30 6067 H 596.088 -3.41488 -3.10134 0
M  V30 6068 H 594.331 -3.25756 -2.86471 0
M  V30 6069 H 595.002 -3.20047 -4.49749 0
M  V30 6070 H 597.478 -1.35809 -3.93313 0
M  V30 6071 H 596.354 -1.36586 -5.31635 0
M  V30 6072 H 596.615 0.121659 -4.41933 0
M  V30 6073 N 595.674 1.31259 -0.872281 0
M  V30 6074 C 596.622 2.30404 -0.318897 0
M  V30 6075 C 597.616 1.5962 0.567267 0
M  V30 6076 O 598.822 1.74204 0.453111 0
M  V30 6077 H 595.197 0.747243 -0.0844474 0
M  V30 6078 H 597.168 2.74549 -1.16899 0
M  V30 6079 C 595.917 3.44608 0.462683 0
M  V30 6080 H 595.24 3.99248 -0.209936 0
M  V30 6081 H 596.68 4.1609 0.815187 0
M  V30 6082 C 595.139 2.93456 1.65485 0
M  V30 6083 O 595.669 2.92418 2.75417 0
M  V30 6084 N 593.875 2.49628 1.48776 0
M  V30 6085 H 593.422 2.50671 0.593452 0
M  V30 6086 H 593.38 2.15759 2.28682 0
M  V30 6087 N 597.152 0.631951 1.44375 0
M  V30 6088 C 598.38 0.143867 2.06399 0
M  V30 6089 C 598.795 -1.18188 1.47231 0
M  V30 6090 O 598.152 -1.72511 0.595498 0
M  V30 6091 C 598.203 0.0238253 3.61492 0
M  V30 6092 O 597.924 1.29715 4.18456 0
M  V30 6093 C 599.425 -0.492856 4.40552 0
M  V30 6094 H 596.645 0.0800542 0.666207 0
M  V30 6095 H 599.189 0.866586 1.85231 0
M  V30 6096 H 597.344 -0.649338 3.81919 0
M  V30 6097 H 597.758 1.14252 5.11905 0
M  V30 6098 H 599.232 -0.525861 5.49489 0
M  V30 6099 H 599.709 -1.52006 4.12057 0
M  V30 6100 H 600.315 0.147085 4.25046 0
M  V30 6101 N 598.631 -1.53133 0.372548 0
M  V30 6102 C 599.564 -2.22328 -0.514361 0
M  V30 6103 C 600.542 -1.21776 -1.07747 0
M  V30 6104 O 601.726 -1.50704 -1.13228 0
M  V30 6105 C 598.853 -2.92343 -1.71035 0
M  V30 6106 C 597.899 -4.07026 -1.27405 0
M  V30 6107 S 598.732 -5.34821 -0.269526 0
M  V30 6108 C 599.888 -6.08352 -1.47168 0
M  V30 6109 H 600.121 -2.9721 0.0732683 0
M  V30 6110 H 597.654 -1.53603 0.156673 0
M  V30 6111 H 599.612 -3.33296 -2.39634 0
M  V30 6112 H 598.273 -2.17173 -2.26925 0
M  V30 6113 H 597.466 -4.55056 -2.16656 0
M  V30 6114 H 597.068 -3.68001 -0.66719 0
M  V30 6115 H 599.36 -6.33507 -2.40157 0
M  V30 6116 H 600.303 -7.0053 -1.03263 0
M  V30 6117 H 600.711 -5.38893 -1.6809 0
M  V30 6118 N 600.109 -0.101901 -1.5727 0
M  V30 6119 C 601.019 0.868647 -2.17926 0
M  V30 6120 C 602.035 1.30527 -1.1506 0
M  V30 6121 O 603.211 1.37178 -1.47459 0
M  V30 6122 C 600.276 2.10727 -2.75309 0
M  V30 6123 C 599.337 1.7242 -3.93154 0
M  V30 6124 C 598.57 2.90377 -4.47791 0
M  V30 6125 O 598.793 4.05305 -4.01353 0
M  V30 6126 O 597.727 2.6845 -5.38719 0
M  V30 6127 H 601.553 0.382544 -3.01281 0
M  V30 6128 H 599.138 0.122812 -1.48894 0
M  V30 6129 H 601.02 2.83303 -3.11958 0
M  V30 6130 H 599.695 2.58376 -1.94996 0
M  V30 6131 H 598.602 0.970039 -3.61305 0
M  V30 6132 H 599.935 1.29528 -4.74851 0
M  V30 6133 N 601.587 1.56661 0.17182 0
M  V30 6134 C 602.52 1.91474 1.24149 0
M  V30 6135 C 603.498 0.777485 1.42807 0
M  V30 6136 O 604.682 1.03075 1.57822 0
M  V30 6137 C 601.809 2.16523 2.60453 0
M  V30 6138 C 600.855 3.39209 2.58533 0
M  V30 6139 S 601.688 4.93594 2.07665 0
M  V30 6140 C 602.844 5.21737 3.45747 0
M  V30 6141 H 603.077 2.81903 0.944346 0
M  V30 6142 H 600.61 1.49743 0.376364 0
M  V30 6143 H 602.568 2.31635 3.38903 0
M  V30 6144 H 601.229 1.26802 2.87368 0
M  V30 6145 H 600.422 3.53935 3.58812 0
M  V30 6146 H 600.024 3.2321 1.88178 0
M  V30 6147 H 602.316 5.13684 4.41741 0
M  V30 6148 H 603.259 6.23361 3.35896 0
M  V30 6149 H 603.667 4.49307 3.41736 0
M  V30 6150 N 603.065 -0.440357 1.51323 0
M  V30 6151 C 604.295 -1.21079 1.67402 0
M  V30 6152 C 604.703 -1.85555 0.369599 0
M  V30 6153 O 604.046 -1.71375 -0.661525 0
M  V30 6154 C 604.108 -2.33839 2.73056 0
M  V30 6155 C 603.772 -1.89755 4.15743 0
M  V30 6156 C 604.769 -1.40268 5.0062 0
M  V30 6157 C 602.454 -1.97539 4.61826 0
M  V30 6158 C 604.448 -0.991474 6.29642 0
M  V30 6159 C 602.135 -1.56029 5.90845 0
M  V30 6160 C 603.133 -1.06915 6.7458 0
M  V30 6161 O 602.821 -0.659933 8.01187 0
M  V30 6162 H 602.553 -0.371133 0.56501 0
M  V30 6163 H 605.107 -0.528409 1.98487 0
M  V30 6164 H 603.337 -3.05345 2.37279 0
M  V30 6165 H 605.026 -2.95713 2.78044 0
M  V30 6166 H 605.792 -1.33652 4.66221 0
M  V30 6167 H 601.671 -2.34713 3.96776 0
M  V30 6168 H 605.215 -0.607425 6.9495 0
M  V30 6169 H 601.112 -1.62315 6.24759 0
M  V30 6170 H 601.88 -0.786052 8.14717 0
M  V30 6171 N 604.543 -1.41418 -0.695603 0
M  V30 6172 C 605.475 -1.39195 -1.82092 0
M  V30 6173 C 606.488 -0.294132 -1.60121 0
M  V30 6174 O 607.677 -0.555854 -1.69625 0
M  V30 6175 C 604.777 -1.14828 -3.18854 0
M  V30 6176 C 603.95 -2.36649 -3.67853 0
M  V30 6177 C 603.009 -2.08139 -4.83285 0
M  V30 6178 O 602.035 -2.81177 -4.94902 0
M  V30 6179 N 603.237 -1.07162 -5.70523 0
M  V30 6180 H 606.002 -2.36185 -1.84491 0
M  V30 6181 H 603.563 -1.3603 -0.877923 0
M  V30 6182 H 605.555 -0.937075 -3.93702 0
M  V30 6183 H 604.125 -0.264358 -3.1148 0
M  V30 6184 H 603.345 -2.73472 -2.83913 0
M  V30 6185 H 604.633 -3.17816 -3.97329 0
M  V30 6186 H 604.031 -0.467124 -5.63768 0
M  V30 6187 H 602.588 -0.920311 -6.4527 0
M  V30 6188 N 606.021 0.929856 -1.27246 0
M  V30 6189 C 607.27 1.67182 -1.12842 0
M  V30 6190 C 607.583 1.9287 0.325666 0
M  V30 6191 O 608.789 2.64999 0.590572 0
M  V30 6192 C 607.245 3.01097 -1.97151 0
M  V30 6193 C 606.853 2.83115 -3.47203 0
M  V30 6194 C 608.597 3.78907 -1.91389 0
M  V30 6195 C 606.504 4.12573 -4.23719 0
M  V30 6196 H 605.434 0.627064 -0.418697 0
M  V30 6197 H 608.085 1.0332 -1.51649 0
M  V30 6198 H 606.467 3.66004 -1.51186 0
M  V30 6199 H 607.641 2.26989 -4.01015 0
M  V30 6200 H 605.956 2.18736 -3.54321 0
M  V30 6201 H 608.553 4.74837 -2.45834 0
M  V30 6202 H 608.896 4.0674 -0.887047 0
M  V30 6203 H 609.429 3.20794 -2.35237 0
M  V30 6204 H 606.168 3.8992 -5.26918 0
M  V30 6205 H 605.688 4.68371 -3.74685 0
M  V30 6206 H 607.367 4.8095 -4.32777 0
M  V30 6207 N 607.499 1.09233 1.13605 0
M  V30 6208 C 608.91 0.846839 1.6639 0
M  V30 6209 C 609.261 -0.625031 1.85978 0
M  V30 6210 O 608.386 -1.48173 1.57714 0
M  V30 6211 C 608.981 1.5307 3.0225 0
M  V30 6212 C 607.54 1.33223 3.52035 0
M  V30 6213 C 606.687 1.58806 2.27323 0
M  V30 6214 H 609.638 1.25175 0.975541 0
M  V30 6215 H 609.659 0.96267 3.68121 0
M  V30 6216 H 609.171 2.60192 2.87961 0
M  V30 6217 H 607.272 0.282091 3.71531 0
M  V30 6218 H 607.385 2.0657 4.32279 0
M  V30 6219 H 605.749 1.01007 2.33815 0
M  V30 6220 H 606.532 2.67153 2.15602 0
M  V30 6221 N 608.977 -1.30795 0.87923 0
M  V30 6222 C 609.907 -2.30742 0.357796 0
M  V30 6223 C 610.888 -1.60747 -0.556283 0
M  V30 6224 O 612.073 -1.88393 -0.47135 0
M  V30 6225 C 609.203 -3.44583 -0.433555 0
M  V30 6226 C 608.157 -4.26235 0.388251 0
M  V30 6227 C 607.483 -5.32073 -0.529352 0
M  V30 6228 C 608.783 -4.96303 1.62729 0
M  V30 6229 H 610.477 -2.74605 1.19299 0
M  V30 6230 H 608.023 -1.32017 0.575104 0
M  V30 6231 H 609.976 -4.13563 -0.808934 0
M  V30 6232 H 608.7 -2.99511 -1.30234 0
M  V30 6233 H 607.359 -3.58936 0.745695 0
M  V30 6234 H 607.007 -4.83249 -1.39569 0
M  V30 6235 H 606.707 -5.87598 0.0166741 0
M  V30 6236 H 608.231 -6.0391 -0.901373 0
M  V30 6237 H 609.645 -5.5783 1.32283 0
M  V30 6238 H 608.042 -5.61666 2.11309 0
M  V30 6239 H 609.112 -4.22758 2.37494 0
M  V30 6240 N 610.455 -0.639598 -1.44038 0
M  V30 6241 C 611.403 0.0723409 -2.32487 0
M  V30 6242 C 612.397 0.827129 -1.47834 0
M  V30 6243 O 613.603 0.73907 -1.64127 0
M  V30 6244 H 609.978 0.0421696 -0.750817 0
M  V30 6245 H 611.949 -0.691593 -2.90275 0
M  V30 6246 C 610.698 1.03452 -3.31953 0
M  V30 6247 H 610.021 0.46315 -3.97108 0
M  V30 6248 H 611.461 1.502 -3.96505 0
M  V30 6249 C 609.92 2.12392 -2.61518 0
M  V30 6250 O 610.45 3.2059 -2.42044 0
M  V30 6251 N 608.656 1.88563 -2.21116 0
M  V30 6252 H 608.203 1.00577 -2.37154 0
M  V30 6253 H 608.161 2.61651 -1.74316 0
M  V30 6254 N 611.933 1.52934 -0.380664 0
M  V30 6255 C 613.21 1.93845 0.261417 0
M  V30 6256 C 613.59 1.31544 1.65104 0
M  V30 6257 O 612.938 0.480234 2.23397 0
M  V30 6258 C 613.148 3.47739 0.296466 0
M  V30 6259 C 614.496 4.21284 0.529578 0
M  V30 6260 O 615.52 3.54199 0.377041 0
M  V30 6261 O 614.379 5.40195 0.827753 0
M  V30 6262 H 611.473 0.811318 0.160285 0
M  V30 6263 H 614.019 1.64042 -0.434544 0
M  V30 6264 H 612.791 3.85395 -0.67724 0
M  V30 6265 H 612.414 3.8382 1.0377 0
M  V30 6266 N 613.412 0.11024 1.57214 0
M  V30 6267 C 614.36 -0.860586 2.16094 0
M  V30 6268 C 615.354 -1.28156 1.1078 0
M  V30 6269 O 616.56 -1.25433 1.29099 0
M  V30 6270 H 612.935 -0.295606 0.691463 0
M  V30 6271 H 614.906 -0.33942 2.96463 0
M  V30 6272 C 613.655 -2.10421 2.768 0
M  V30 6273 H 612.978 -1.7892 3.5753 0
M  V30 6274 H 614.418 -2.76375 3.21547 0
M  V30 6275 C 612.877 -2.88823 1.73444 0
M  V30 6276 O 613.407 -3.839 1.18251 0
M  V30 6277 N 611.613 -2.52649 1.43586 0
M  V30 6278 H 611.16 -1.754 1.8866 0
M  V30 6279 H 611.118 -3.05403 0.746735 0
M  V30 6280 N 614.89 -1.56749 -0.16351 0
M  V30 6281 C 615.82 -2.00042 -1.20438 0
M  V30 6282 C 616.801 -0.877256 -1.45733 0
M  V30 6283 O 617.986 -1.1439 -1.56935 0
M  V30 6284 C 615.116 -2.36697 -2.54149 0
M  V30 6285 C 614.07 -3.52046 -2.43408 0
M  V30 6286 C 613.396 -3.74466 -3.81679 0
M  V30 6287 C 614.696 -4.85247 -1.93216 0
M  V30 6288 H 616.39 -2.87244 -0.844477 0
M  V30 6289 H 613.936 -1.38194 -0.40478 0
M  V30 6290 H 615.889 -2.65582 -3.27176 0
M  V30 6291 H 614.613 -1.46414 -2.91943 0
M  V30 6292 H 613.272 -3.23301 -1.72834 0
M  V30 6293 H 612.92 -2.81461 -4.1688 0
M  V30 6294 H 612.62 -4.52084 -3.75359 0
M  V30 6295 H 614.144 -4.0576 -4.5628 0
M  V30 6296 H 615.558 -5.12957 -2.56023 0
M  V30 6297 H 613.955 -5.66556 -1.97825 0
M  V30 6298 H 615.025 -4.7672 -0.88689 0
M  V30 6299 N 616.368 0.432326 -1.51554 0
M  V30 6300 C 617.593 1.20824 -1.68571 0
M  V30 6301 C 618.018 1.84126 -0.384596 0
M  V30 6302 O 617.376 1.69025 0.655751 0
M  V30 6303 C 617.424 2.26429 -2.80646 0
M  V30 6304 O 616.528 3.32032 -2.44598 0
M  V30 6305 H 615.869 0.353765 -0.561913 0
M  V30 6306 H 618.399 0.509916 -1.98144 0
M  V30 6307 H 618.409 2.71133 -3.04878 0
M  V30 6308 H 617.084 1.79733 -3.75058 0
M  V30 6309 H 615.661 2.92769 -2.30956 0
M  V30 6310 N 617.846 1.41785 0.688094 0
M  V30 6311 C 618.793 1.44221 1.80191 0
M  V30 6312 C 619.763 0.295688 1.63447 0
M  V30 6313 O 620.948 0.49783 1.84191 0
M  V30 6314 C 618.088 1.33743 3.1813 0
M  V30 6315 C 617.201 2.58325 3.46254 0
M  V30 6316 C 616.336 2.40086 4.73848 0
M  V30 6317 C 615.375 3.60107 4.94964 0
M  V30 6318 N 614.512 3.40892 6.13789 0
M  V30 6319 H 619.352 2.39411 1.77444 0
M  V30 6320 H 616.889 1.18876 0.866423 0
M  V30 6321 H 618.847 1.25669 3.97823 0
M  V30 6322 H 617.477 0.42157 3.20035 0
M  V30 6323 H 616.529 2.7682 2.60912 0
M  V30 6324 H 617.841 3.4758 3.57756 0
M  V30 6325 H 616.995 2.29522 5.61609 0
M  V30 6326 H 615.734 1.483 4.64606 0
M  V30 6327 H 614.739 3.71118 4.05649 0
M  V30 6328 H 615.964 4.52857 5.06061 0
M  V30 6329 H 613.91 2.51812 6.05745 0
M  V30 6330 H 613.827 4.23727 6.26092 0
M  V30 6331 H 615.095 3.34114 7.04264 0
M  V30 6332 N 619.324 -0.923095 1.27737 0
M  V30 6333 C 620.287 -2.00587 1.10894 0
M  V30 6334 C 621.287 -1.60718 0.0514927 0
M  V30 6335 O 622.477 -1.71658 0.296481 0
M  V30 6336 C 619.609 -3.33829 0.690717 0
M  V30 6337 H 620.802 -2.16959 2.07048 0
M  V30 6338 H 618.355 -1.10451 1.1059 0
M  V30 6339 H 619.09 -3.23157 -0.272 0
M  V30 6340 H 618.875 -3.64125 1.45448 0
M  V30 6341 H 620.365 -4.13336 0.595252 0
M  V30 6342 N 620.802 -1.09834 -1.13024 0
M  V30 6343 C 622.213 -0.855651 -1.65938 0
M  V30 6344 C 622.564 0.615159 -1.86307 0
M  V30 6345 O 621.689 1.47335 -1.58497 0
M  V30 6346 C 622.284 -1.5467 -3.01434 0
M  V30 6347 C 620.843 -1.35088 -3.51323 0
M  V30 6348 C 619.99 -1.6001 -2.26478 0
M  V30 6349 H 622.941 -1.25691 -0.968889 0
M  V30 6350 H 622.962 -0.982179 -3.67605 0
M  V30 6351 H 622.474 -2.61715 -2.86578 0
M  V30 6352 H 620.575 -0.30179 -3.71376 0
M  V30 6353 H 620.688 -2.0886 -4.31178 0
M  V30 6354 H 619.052 -1.02246 -2.33276 0
M  V30 6355 H 619.835 -2.68293 -2.14182 0
M  V30 6356 N 622.28 1.30327 -0.886154 0
M  V30 6357 C 623.529 1.95373 -0.501243 0
M  V30 6358 C 623.842 1.70722 0.954634 0
M  V30 6359 O 625.048 2.29761 1.44644 0
M  V30 6360 C 623.504 3.49828 -0.845493 0
M  V30 6361 C 623.112 3.83296 -2.31922 0
M  V30 6362 C 624.856 4.2118 -0.529838 0
M  V30 6363 C 622.763 5.30935 -2.60504 0
M  V30 6364 H 621.693 0.731274 -0.183722 0
M  V30 6365 H 624.344 1.48258 -1.08129 0
M  V30 6366 H 622.726 3.95522 -0.19452 0
M  V30 6367 H 623.9 3.48508 -3.01461 0
M  V30 6368 H 622.215 3.2505 -2.60253 0
M  V30 6369 H 624.812 5.29825 -0.720401 0
M  V30 6370 H 625.155 4.12902 0.530828 0
M  V30 6371 H 625.688 3.81173 -1.13806 0
M  V30 6372 H 622.427 5.44265 -3.65316 0
M  V30 6373 H 621.947 5.67019 -1.95575 0
M  V30 6374 H 623.626 5.98381 -2.46066 0
M  V30 6375 N 623.758 0.647228 1.43697 0
M  V30 6376 C 625.005 0.158188 2.01881 0
M  V30 6377 C 625.333 -1.22573 1.51017 0
M  V30 6378 O 624.588 -1.83086 0.69122 0
M  V30 6379 C 624.887 0.111481 3.57226 0
M  V30 6380 C 624.553 1.43633 4.27411 0
M  V30 6381 C 623.215 1.79915 4.463 0
M  V30 6382 C 625.567 2.31011 4.67208 0
M  V30 6383 C 622.895 3.03251 5.02251 0
M  V30 6384 C 625.247 3.53633 5.24525 0
M  V30 6385 C 623.911 3.90118 5.41631 0
M  V30 6386 H 623.181 0.0578851 0.738736 0
M  V30 6387 H 625.828 0.836746 1.72252 0
M  V30 6388 H 624.133 -0.650507 3.86362 0
M  V30 6389 H 625.83 -0.283682 3.99995 0
M  V30 6390 H 622.42 1.14403 4.1305 0
M  V30 6391 H 626.604 2.04272 4.52313 0
M  V30 6392 H 621.86 3.31575 5.13681 0
M  V30 6393 H 626.034 4.21561 5.5431 0
M  V30 6394 H 623.661 4.85768 5.84751 0
M  V30 6395 N 625.236 -1.5273 0.388769 0
M  V30 6396 C 626.476 -2.03483 -0.193372 0
M  V30 6397 C 626.84 -1.26897 -1.44087 0
M  V30 6398 O 628.041 -1.67773 -2.10014 0
M  V30 6399 C 626.312 -3.54488 -0.455325 0
M  V30 6400 S 627.871 -4.27069 -1.00783 0
M  V30 6401 H 624.689 -0.708907 -0.0545131 0
M  V30 6402 H 627.291 -1.8798 0.536993 0
M  V30 6403 H 625.995 -4.07817 0.459722 0
M  V30 6404 H 625.526 -3.74196 -1.21413 0
M  V30 6405 H 627.541 -4.40185 -2.29023 0
M  V30 6406 N 626.714 -0.118576 -1.57153 0
M  V30 6407 C 627.644 0.828436 -2.1831 0
M  V30 6408 C 628.625 1.27758 -1.12303 0
M  V30 6409 O 629.81 1.34026 -1.40537 0
M  V30 6410 C 626.94 2.07876 -2.78217 0
M  V30 6411 C 625.894 1.76742 -3.89803 0
M  V30 6412 C 625.22 3.08801 -4.36516 0
M  V30 6413 C 626.52 1.03606 -5.11921 0
M  V30 6414 H 628.214 0.318824 -2.97698 0
M  V30 6415 H 625.76 0.151911 -1.43196 0
M  V30 6416 H 627.713 2.74584 -3.19659 0
M  V30 6417 H 626.437 2.61161 -1.96118 0
M  V30 6418 H 625.096 1.12424 -3.48936 0
M  V30 6419 H 624.744 3.6002 -3.51276 0
M  V30 6420 H 624.444 2.88743 -5.11763 0
M  V30 6421 H 625.968 3.76627 -4.80608 0
M  V30 6422 H 627.382 1.60467 -5.50385 0
M  V30 6423 H 625.779 0.936454 -5.92748 0
M  V30 6424 H 626.849 0.0227421 -4.84895 0
M  V30 6425 N 628.193 1.56834 0.155195 0
M  V30 6426 C 629.418 1.87412 0.888337 0
M  V30 6427 C 629.843 0.70671 1.74319 0
M  V30 6428 O 629.201 -0.343892 1.78009 0
M  V30 6429 C 629.249 3.1652 1.72765 0
M  V30 6430 O 628.353 2.99877 2.83103 0
M  V30 6431 H 627.694 0.615983 0.247914 0
M  V30 6432 H 630.224 2.04061 0.148478 0
M  V30 6433 H 630.234 3.48334 2.12433 0
M  V30 6434 H 628.909 4.01094 1.09985 0
M  V30 6435 H 627.486 2.79453 2.46902 0
M  V30 6436 N 629.671 -0.424282 1.51781 0
M  V30 6437 C 630.601 -1.52305 1.7699 0
M  V30 6438 C 631.582 -1.5839 0.620209 0
M  V30 6439 O 632.767 -1.73908 0.864268 0
M  V30 6440 C 629.897 -2.90271 1.90683 0
M  V30 6441 C 628.851 -2.99043 3.06198 0
M  V30 6442 C 628.177 -4.39116 3.05092 0
M  V30 6443 C 629.477 -2.7192 4.45934 0
M  V30 6444 H 631.171 -1.31461 2.68995 0
M  V30 6445 H 628.717 -0.630985 1.29439 0
M  V30 6446 H 630.67 -3.6711 2.06901 0
M  V30 6447 H 629.394 -3.12376 0.953365 0
M  V30 6448 H 628.053 -2.24646 2.89706 0
M  V30 6449 H 627.701 -4.58207 2.07498 0
M  V30 6450 H 627.401 -4.45912 3.82669 0
M  V30 6451 H 628.925 -5.17911 3.2342 0
M  V30 6452 H 630.339 -3.38487 4.62709 0
M  V30 6453 H 628.736 -2.90111 5.25315 0
M  V30 6454 H 629.806 -1.67445 4.55072 0
M  V30 6455 N 631.149 -1.42148 -0.680565 0
M  V30 6456 C 632.374 -1.45901 -1.47403 0
M  V30 6457 C 632.799 -0.0700985 -1.87969 0
M  V30 6458 O 632.157 0.930145 -1.55621 0
M  V30 6459 C 632.205 -2.38661 -2.70321 0
M  V30 6460 O 631.309 -1.85399 -3.68376 0
M  V30 6461 H 630.65 -0.494565 -0.443059 0
M  V30 6462 H 633.18 -1.86774 -0.835251 0
M  V30 6463 H 633.19 -2.55046 -3.18458 0
M  V30 6464 H 631.865 -3.39571 -2.40134 0
M  V30 6465 H 630.442 -1.78541 -3.2738 0
M  V30 6466 N 632.627 0.916307 -1.28225 0
M  V30 6467 C 634.038 1.48024 -1.13779 0
M  V30 6468 C 634.389 1.94289 0.273139 0
M  V30 6469 O 633.514 1.82226 1.16716 0
M  V30 6470 C 634.109 2.69029 -2.05935 0
M  V30 6471 C 632.668 3.2161 -1.95561 0
M  V30 6472 C 631.815 1.94321 -1.97825 0
M  V30 6473 H 634.766 0.729272 -1.40951 0
M  V30 6474 H 634.787 3.44204 -1.62184 0
M  V30 6475 H 634.299 2.35325 -3.08616 0
M  V30 6476 H 632.4 3.60045 -0.959076 0
M  V30 6477 H 632.513 3.87032 -2.82388 0
M  V30 6478 H 630.877 2.1131 -1.42198 0
M  V30 6479 H 631.66 1.62917 -3.0218 0
M  V30 6480 N 634.105 1.10431 1.1244 0
M  V30 6481 C 635.068 0.756542 2.16354 0
M  V30 6482 C 636.068 -0.21899 1.59302 0
M  V30 6483 O 637.258 0.00415969 1.742 0
M  V30 6484 C 634.39 0.120612 3.40687 0
M  V30 6485 H 635.583 1.67696 2.48632 0
M  V30 6486 H 633.136 0.904832 1.27446 0
M  V30 6487 H 633.871 -0.810536 3.14008 0
M  V30 6488 H 633.656 0.822693 3.83372 0
M  V30 6489 H 635.146 -0.106945 4.17463 0
M  V30 6490 N 635.583 -1.29855 0.893053 0
M  V30 6491 C 636.808 -2.00512 0.530066 0
M  V30 6492 C 637.233 -1.66446 -0.876199 0
M  V30 6493 O 636.591 -0.885446 -1.58207 0
M  V30 6494 C 636.639 -3.53308 0.721505 0
M  V30 6495 O 635.743 -4.11764 -0.228994 0
M  V30 6496 H 635.084 -0.630617 0.207891 0
M  V30 6497 H 637.614 -1.6551 1.20282 0
M  V30 6498 H 637.624 -4.03206 0.623599 0
M  V30 6499 H 636.299 -3.77439 1.74678 0
M  V30 6500 H 634.876 -3.72805 -0.0841034 0
M  V30 6501 N 637.061 -0.65484 -1.43351 0
M  V30 6502 C 638.338 -0.0987371 -1.95351 0
M  V30 6503 C 638.718 1.38161 -1.59608 0
M  V30 6504 O 638.066 2.10791 -0.882021 0
M  V30 6505 C 638.276 -0.346684 -3.47274 0
M  V30 6506 C 639.624 -0.25249 -4.23849 0
M  V30 6507 O 640.648 -0.279332 -3.55103 0
M  V30 6508 O 639.507 -0.177584 -5.46211 0
M  V30 6509 H 636.601 0.0086829 -0.826954 0
M  V30 6510 H 639.147 -0.728189 -1.53282 0
M  V30 6511 H 637.919 -1.37296 -3.66423 0
M  V30 6512 H 637.542 0.315757 -3.96344 0
M  V30 6513 N 638.539 1.52521 -0.396863 0
M  V30 6514 C 639.486 2.26671 0.434624 0
M  V30 6515 C 640.456 1.28584 1.05144 0
M  V30 6516 O 641.641 1.57426 1.07804 0
M  V30 6517 C 638.781 3.08234 1.55196 0
M  V30 6518 C 637.894 4.21261 0.957262 0
M  V30 6519 C 637.029 4.90205 2.04627 0
M  V30 6520 C 636.068 5.95213 1.42787 0
M  V30 6521 N 635.205 6.57723 2.45651 0
M  V30 6522 H 640.045 2.973 -0.204139 0
M  V30 6523 H 637.582 1.46669 -0.112505 0
M  V30 6524 H 639.54 3.53819 2.2106 0
M  V30 6525 H 638.17 2.398 2.16092 0
M  V30 6526 H 637.222 3.79935 0.188005 0
M  V30 6527 H 638.534 4.96624 0.465416 0
M  V30 6528 H 637.688 5.39133 2.78246 0
M  V30 6529 H 636.427 4.14383 2.57174 0
M  V30 6530 H 635.432 5.45616 0.676968 0
M  V30 6531 H 636.657 6.72972 0.910255 0
M  V30 6532 H 634.603 5.84737 2.97353 0
M  V30 6533 H 634.52 7.28723 2.01243 0
M  V30 6534 H 635.788 7.11293 3.18876 0
M  V30 6535 N 640.017 0.126909 1.57088 0
M  V30 6536 C 641.433 -0.229641 1.57939 0
M  V30 6537 C 641.633 -1.66145 1.1401 0
M  V30 6538 O 640.689 -2.3843 0.831119 0
M  V30 6539 C 642.002 0.0108648 3.00698 0
M  V30 6540 C 643.55 -0.054418 3.12953 0
M  V30 6541 C 644.025 0.158497 4.57726 0
M  V30 6542 N 645.516 0.104735 4.63082 0
M  V30 6543 C 646.251 0.24427 5.72879 0
M  V30 6544 N 645.747 0.440415 6.91399 0
M  V30 6545 N 647.54 0.183286 5.61801 0
M  V30 6546 H 639.691 1.06203 1.83942 0
M  V30 6547 H 641.954 0.418834 0.85046 0
M  V30 6548 H 641.66 1.00102 3.37154 0
M  V30 6549 H 641.534 -0.717512 3.70313 0
M  V30 6550 H 643.921 -1.0351 2.7635 0
M  V30 6551 H 644.002 0.705967 2.45865 0
M  V30 6552 H 643.646 1.13619 4.95028 0
M  V30 6553 H 643.576 -0.62197 5.22914 0
M  V30 6554 H 646.067 -0.0430298 3.77876 0
M  V30 6555 H 646.38 0.537536 7.70928 0
M  V30 6556 H 644.725 0.476488 6.93365 0
M  V30 6557 H 647.916 0.0309561 4.6809 0
M  V30 6558 H 648.089 0.295471 6.47326 0
M  V30 6559 N 641.495 -1.56914 -0.146875 0
M  V30 6560 C 642.425 -2.01308 -1.1831 0
M  V30 6561 C 643.406 -0.892664 -1.44795 0
M  V30 6562 O 644.591 -1.16048 -1.55713 0
M  V30 6563 C 641.721 -2.3938 -2.51624 0
M  V30 6564 C 640.675 -3.54608 -2.3966 0
M  V30 6565 C 640.001 -3.78493 -3.77686 0
M  V30 6566 C 641.301 -4.87269 -1.88058 0
M  V30 6567 H 642.995 -2.88123 -0.813964 0
M  V30 6568 H 640.541 -1.38615 -0.3901 0
M  V30 6569 H 642.494 -2.69037 -3.24341 0
M  V30 6570 H 641.218 -1.49502 -2.90373 0
M  V30 6571 H 639.877 -3.25116 -1.69396 0
M  V30 6572 H 639.525 -2.85866 -4.13871 0
M  V30 6573 H 639.225 -4.56039 -3.70543 0
M  V30 6574 H 640.749 -4.10576 -4.51951 0
M  V30 6575 H 642.163 -5.15644 -2.50568 0
M  V30 6576 H 640.56 -5.68622 -1.91805 0
M  V30 6577 H 641.63 -4.77634 -0.836277 0
M  V30 6578 N 642.974 0.416227 -1.52004 0
M  V30 6579 C 644.199 1.19029 -1.69843 0
M  V30 6580 C 644.624 1.83708 -0.404103 0
M  V30 6581 O 643.982 1.69711 0.637787 0
M  V30 6582 C 644.03 2.23439 -2.83032 0
M  V30 6583 O 643.134 3.29419 -2.48106 0
M  V30 6584 H 642.475 0.347785 -0.565634 0
M  V30 6585 H 645.005 0.488871 -1.98674 0
M  V30 6586 H 645.015 2.67884 -3.07737 0
M  V30 6587 H 643.69 1.75745 -3.76944 0
M  V30 6588 H 642.267 2.90303 -2.34048 0
M  V30 6589 N 644.452 1.42507 0.673017 0
M  V30 6590 C 645.402 1.4258 1.77919 0
M  V30 6591 C 646.386 0.296885 1.58137 0
M  V30 6592 O 647.578 0.539243 1.68586 0
M  V30 6593 C 644.707 1.33238 3.1639 0
M  V30 6594 C 643.793 2.51081 3.41788 0
M  V30 6595 N 644.184 3.76498 3.37761 0
M  V30 6596 C 642.482 2.4538 3.72431 0
M  V30 6597 C 643.183 4.54784 3.62693 0
M  V30 6598 N 642.159 3.8522 3.83544 0
M  V30 6599 H 645.961 2.37442 1.73201 0
M  V30 6600 H 643.475 1.36881 0.873924 0
M  V30 6601 H 645.472 1.31372 3.9566 0
M  V30 6602 H 644.132 0.393794 3.22303 0
M  V30 6603 H 645.143 4.09068 3.17622 0
M  V30 6604 H 641.82 1.60109 3.85579 0
M  V30 6605 H 643.21 5.63774 3.65525 0
M  V30 6606 N 645.93 -0.909495 1.28709 0
M  V30 6607 C 647.158 -1.69272 1.18973 0
M  V30 6608 C 647.573 -1.87123 -0.251048 0
M  V30 6609 O 646.93 -1.40127 -1.16922 0
M  V30 6610 C 646.981 -3.08257 1.88839 0
M  V30 6611 O 646.702 -2.91228 3.27289 0
M  V30 6612 C 648.203 -4.02642 1.85457 0
M  V30 6613 H 645.423 -0.528999 0.412797 0
M  V30 6614 H 647.967 -1.13803 1.69909 0
M  V30 6615 H 646.122 -3.6053 1.41762 0
M  V30 6616 H 646.536 -3.79223 3.6234 0
M  V30 6617 H 648.01 -4.97613 2.38925 0
M  V30 6618 H 648.487 -4.31327 0.827893 0
M  V30 6619 H 649.093 -3.56298 2.32233 0
M  V30 6620 N 647.408 -1.11026 -1.11852 0
M  V30 6621 C 648.341 -0.708501 -2.16923 0
M  V30 6622 C 649.319 0.293196 -1.59935 0
M  V30 6623 O 650.503 0.190641 -1.87533 0
M  V30 6624 C 647.63 -0.0463705 -3.38668 0
M  V30 6625 C 646.676 -1.01252 -4.14307 0
M  V30 6626 S 647.509 -2.53291 -4.71809 0
M  V30 6627 C 648.665 -1.88366 -5.96883 0
M  V30 6628 H 648.898 -1.59854 -2.50667 0
M  V30 6629 H 646.431 -0.927869 -1.2341 0
M  V30 6630 H 648.389 0.329314 -4.09177 0
M  V30 6631 H 647.05 0.820562 -3.03192 0
M  V30 6632 H 646.243 -0.496596 -5.01548 0
M  V30 6633 H 645.845 -1.33042 -3.49537 0
M  V30 6634 H 648.137 -1.21753 -6.6647 0
M  V30 6635 H 649.08 -2.73588 -6.53112 0
M  V30 6636 H 649.488 -1.34562 -5.48227 0
M  V30 6637 N 648.886 1.2938 -0.899927 0
M  V30 6638 C 649.816 2.30144 -0.39446 0
M  V30 6639 C 650.797 1.61611 0.530639 0
M  V30 6640 O 651.982 1.89119 0.441319 0
M  V30 6641 C 649.112 3.45229 0.37868 0
M  V30 6642 C 648.066 4.25564 -0.456012 0
M  V30 6643 C 647.392 5.32848 0.444637 0
M  V30 6644 C 648.692 4.93651 -1.70605 0
M  V30 6645 H 650.386 2.72673 -1.23653 0
M  V30 6646 H 647.932 1.31086 -0.596034 0
M  V30 6647 H 649.885 4.14797 0.743037 0
M  V30 6648 H 648.609 3.01545 1.25453 0
M  V30 6649 H 647.268 3.57704 -0.802704 0
M  V30 6650 H 646.916 4.85408 1.31863 0
M  V30 6651 H 646.616 5.87497 -0.110154 0
M  V30 6652 H 648.14 6.05268 0.805182 0
M  V30 6653 H 649.554 5.55655 -1.41141 0
M  V30 6654 H 647.951 5.58233 -2.20217 0
M  V30 6655 H 649.021 4.18926 -2.4419 0
M  V30 6656 N 650.364 0.662433 1.43002 0
M  V30 6657 C 651.612 0.179237 2.01304 0
M  V30 6658 C 651.933 -1.21428 1.52579 0
M  V30 6659 O 651.203 -1.81294 0.742252 0
M  V30 6660 H 649.783 0.0632725 0.744316 0
M  V30 6661 H 652.445 0.856169 1.75088 0
M  V30 6662 H 651.541 0.170957 3.11631 0
M  V30 6663 N 651.842 -1.52309 0.404946 0
M  V30 6664 C 652.752 -2.30634 -0.429555 0
M  V30 6665 C 653.768 -1.38187 -1.05737 0
M  V30 6666 O 654.944 -1.71261 -1.05979 0
M  V30 6667 C 652.009 -3.10947 -1.53339 0
M  V30 6668 C 651.07 -4.19126 -0.929065 0
M  V30 6669 C 650.303 -4.95601 -1.9803 0
M  V30 6670 O 650.526 -4.72331 -3.1978 0
M  V30 6671 O 649.46 -5.80551 -1.58886 0
M  V30 6672 H 653.286 -3.0298 0.208963 0
M  V30 6673 H 650.871 -1.4845 0.168255 0
M  V30 6674 H 652.753 -3.60974 -2.1743 0
M  V30 6675 H 651.428 -2.41399 -2.15658 0
M  V30 6676 H 650.335 -3.73257 -0.250982 0
M  V30 6677 H 651.668 -4.90955 -0.349855 0
M  V30 6678 N 653.32 -0.135238 -1.57019 0
M  V30 6679 C 654.569 0.518694 -1.94917 0
M  V30 6680 C 654.882 1.66783 -1.0219 0
M  V30 6681 O 656.088 2.38561 -1.29619 0
M  V30 6682 C 654.544 0.974123 -3.46466 0
M  V30 6683 C 654.152 -0.147439 -4.47757 0
M  V30 6684 C 655.896 1.59851 -3.93253 0
M  V30 6685 C 653.803 0.325599 -5.90503 0
M  V30 6686 H 652.733 0.19754 -0.727663 0
M  V30 6687 H 655.384 -0.217698 -1.82204 0
M  V30 6688 H 653.766 1.76542 -3.5447 0
M  V30 6689 H 654.94 -0.924122 -4.51438 0
M  V30 6690 H 653.255 -0.679496 -4.10818 0
M  V30 6691 H 655.852 1.96385 -4.9733 0
M  V30 6692 H 656.195 2.48306 -3.3414 0
M  V30 6693 H 656.728 0.872323 -3.88118 0
M  V30 6694 H 653.467 -0.523295 -6.53408 0
M  V30 6695 H 652.987 1.06841 -5.90208 0
M  V30 6696 H 654.666 0.781498 -6.42263 0
M  V30 6697 N 654.798 1.5699 0.138552 0
M  V30 6698 C 655.728 2.01933 1.17241 0
M  V30 6699 C 656.709 0.90033 1.44319 0
M  V30 6700 O 657.894 1.16872 1.55095 0
M  V30 6701 C 655.024 2.40711 2.50351 0
M  V30 6702 C 653.978 3.55874 2.37776 0
M  V30 6703 C 653.304 3.80491 3.75674 0
M  V30 6704 C 654.604 4.8826 1.85472 0
M  V30 6705 H 656.298 2.88551 0.798672 0
M  V30 6706 H 653.844 1.3882 0.382743 0
M  V30 6707 H 655.797 2.70754 3.22909 0
M  V30 6708 H 654.521 1.5104 2.89576 0
M  V30 6709 H 653.18 3.2601 1.67669 0
M  V30 6710 H 652.828 2.88057 4.12349 0
M  V30 6711 H 652.528 4.57998 3.68119 0
M  V30 6712 H 654.052 4.12967 4.49767 0
M  V30 6713 H 655.466 5.16965 2.4783 0
M  V30 6714 H 653.863 5.69631 1.88787 0
M  V30 6715 H 654.933 4.78071 0.810935 0
M  V30 6716 N 656.276 -0.40816 1.52223 0
M  V30 6717 C 657.224 -1.51788 1.76248 0
M  V30 6718 C 658.218 -1.57264 0.629638 0
M  V30 6719 O 659.424 -1.60659 0.811704 0
M  V30 6720 H 655.799 -0.504823 0.557367 0
M  V30 6721 H 657.77 -1.2871 2.69214 0
M  V30 6722 C 656.519 -2.89145 1.93107 0
M  V30 6723 H 655.842 -2.85674 2.79697 0
M  V30 6724 H 657.282 -3.66082 2.13916 0
M  V30 6725 C 655.741 -3.29581 0.698431 0
M  V30 6726 O 656.271 -4.01479 -0.133238 0
M  V30 6727 N 654.477 -2.85651 0.53405 0
M  V30 6728 H 654.024 -2.2731 1.21194 0
M  V30 6729 H 653.982 -3.13065 -0.289387 0
M  V30 6730 N 657.755 -1.42862 -0.66545 0
M  V30 6731 C 658.985 -1.47032 -1.45138 0
M  V30 6732 C 659.393 -0.0829977 -1.89018 0
M  V30 6733 O 658.736 0.914551 -1.59316 0
M  V30 6734 C 658.798 -2.34302 -2.72659 0
M  V30 6735 C 658.462 -3.82034 -2.50796 0
M  V30 6736 C 659.459 -4.73453 -2.14799 0
M  V30 6737 C 657.144 -4.26397 -2.655 0
M  V30 6738 C 659.138 -6.07228 -1.93785 0
M  V30 6739 C 656.825 -5.6023 -2.44103 0
M  V30 6740 C 657.823 -6.50462 -2.08299 0
M  V30 6741 O 657.511 -7.8182 -1.87116 0
M  V30 6742 H 657.243 -0.501969 -0.452772 0
M  V30 6743 H 659.797 -1.88137 -0.82423 0
M  V30 6744 H 658.027 -1.88063 -3.37889 0
M  V30 6745 H 659.716 -2.29818 -3.34572 0
M  V30 6746 H 660.482 -4.4046 -2.03026 0
M  V30 6747 H 656.361 -3.56448 -2.92345 0
M  V30 6748 H 659.905 -6.7762 -1.65763 0
M  V30 6749 H 655.802 -5.92793 -2.55475 0
M  V30 6750 H 656.57 -7.93274 -2.01639 0
M  V30 6751 N 659.233 0.902656 -1.29189 0
M  V30 6752 C 660.463 1.68394 -1.19695 0
M  V30 6753 C 660.871 1.87602 0.245384 0
M  V30 6754 O 660.214 1.41084 1.17648 0
M  V30 6755 C 660.276 3.09094 -1.83578 0
M  V30 6756 C 659.94 3.1313 -3.32864 0
M  V30 6757 C 660.937 2.93497 -4.29134 0
M  V30 6758 C 658.622 3.3529 -3.74013 0
M  V30 6759 C 660.616 2.95953 -5.64527 0
M  V30 6760 C 658.303 3.37377 -5.09529 0
M  V30 6761 C 659.301 3.1773 -6.04596 0
M  V30 6762 O 658.989 3.196 -7.37639 0
M  V30 6763 H 658.721 0.532815 -0.416034 0
M  V30 6764 H 661.275 1.1374 -1.71033 0
M  V30 6765 H 659.505 3.65338 -1.26747 0
M  V30 6766 H 661.194 3.69297 -1.68447 0
M  V30 6767 H 661.96 2.76192 -3.98677 0
M  V30 6768 H 657.839 3.49623 -3.00474 0
M  V30 6769 H 661.383 2.80536 -6.38706 0
M  V30 6770 H 657.28 3.54213 -5.39633 0
M  V30 6771 H 658.048 3.35887 -7.46406 0
M  V30 6772 N 660.711 1.11618 1.11262 0
M  V30 6773 C 661.939 0.888739 1.8684 0
M  V30 6774 C 662.354 -0.561558 1.80255 0
M  V30 6775 O 661.711 -1.38782 1.18515 0
M  V30 6776 C 661.762 1.34422 3.35579 0
M  V30 6777 O 661.483 2.73766 3.42029 0
M  V30 6778 C 662.984 1.15246 4.28058 0
M  V30 6779 H 660.204 0.318152 0.590779 0
M  V30 6780 H 662.748 1.48398 1.40707 0
M  V30 6781 H 660.903 0.79239 3.7921 0
M  V30 6782 H 661.317 2.9355 4.34659 0
M  V30 6783 H 662.791 1.52015 5.30656 0
M  V30 6784 H 663.268 0.0922007 4.39103 0
M  V30 6785 H 663.874 1.69136 3.90222 0
M  V30 6786 N 662.189 -1.289 0.906776 0
M  V30 6787 C 663.139 -2.25122 0.361109 0
M  V30 6788 C 664.123 -1.52169 -0.52283 0
M  V30 6789 O 665.315 -1.73223 -0.363691 0
M  V30 6790 C 662.444 -3.40915 -0.403982 0
M  V30 6791 C 661.53 -4.21198 0.495279 0
M  V30 6792 N 661.921 -4.79636 1.60572 0
M  V30 6793 C 660.219 -4.45027 0.294372 0
M  V30 6794 C 660.92 -5.39977 2.16332 0
M  V30 6795 N 659.896 -5.23753 1.45546 0
M  V30 6796 H 663.698 -2.67869 1.20927 0
M  V30 6797 H 661.212 -1.43592 0.758632 0
M  V30 6798 H 663.209 -4.08922 -0.811695 0
M  V30 6799 H 661.869 -2.99703 -1.24932 0
M  V30 6800 H 662.88 -4.78209 1.98838 0
M  V30 6801 H 659.557 -4.14348 -0.512021 0
M  V30 6802 H 660.947 -5.96266 3.09704 0
M  V30 6803 N 663.667 -0.670007 -1.42649 0
M  V30 6804 C 664.913 -0.19923 -2.02422 0
M  V30 6805 C 665.268 1.17947 -1.52007 0
M  V30 6806 O 664.561 1.77939 -0.710512 0
M  V30 6807 C 664.755 -0.168298 -3.57004 0
M  V30 6808 C 664.584 -1.54246 -4.22419 0
M  V30 6809 C 663.354 -2.13904 -4.57792 0
M  V30 6810 C 665.552 -2.4842 -4.50324 0
M  V30 6811 N 663.534 -3.44151 -5.08364 0
M  V30 6812 C 664.905 -3.63317 -5.02395 0
M  V30 6813 C 666.96 -2.47011 -4.32308 0
M  V30 6814 C 665.663 -4.77051 -5.38345 0
M  V30 6815 C 667.689 -3.59838 -4.6933 0
M  V30 6816 C 667.051 -4.73462 -5.21549 0
M  V30 6817 H 663.15 -0.117717 -0.773089 0
M  V30 6818 H 665.734 -0.881955 -1.73579 0
M  V30 6819 H 663.905 0.483824 -3.85375 0
M  V30 6820 H 665.637 0.314914 -4.03473 0
M  V30 6821 H 662.392 -1.66441 -4.4339 0
M  V30 6822 H 662.816 -4.10846 -5.38084 0
M  V30 6823 H 667.458 -1.60394 -3.91195 0
M  V30 6824 H 665.176 -5.64347 -5.78393 0
M  V30 6825 H 668.762 -3.59969 -4.57071 0
M  V30 6826 H 667.642 -5.59321 -5.49663 0
M  V30 6827 N 665.145 1.52092 -0.413018 0
M  V30 6828 C 666.373 2.06274 0.160881 0
M  V30 6829 C 666.788 1.28273 1.38533 0
M  V30 6830 O 666.145 0.33563 1.79387 0
M  V30 6831 C 666.196 3.57921 0.507443 0
M  V30 6832 O 665.917 4.32971 -0.668388 0
M  V30 6833 C 667.418 4.28533 1.13465 0
M  V30 6834 H 664.638 0.67074 0.0186759 0
M  V30 6835 H 667.182 1.95951 -0.585092 0
M  V30 6836 H 665.337 3.68238 1.20331 0
M  V30 6837 H 665.751 5.23135 -0.378169 0
M  V30 6838 H 667.225 5.35804 1.32732 0
M  V30 6839 H 667.702 3.85258 2.10886 0
M  V30 6840 H 668.308 4.22595 0.478876 0
M  V30 6841 N 666.623 0.143563 1.56945 0
M  V30 6842 C 667.871 -0.507402 1.95627 0
M  V30 6843 C 668.192 -1.65626 1.02922 0
M  V30 6844 O 667.462 -1.95693 0.0901136 0
M  V30 6845 H 666.042 -0.190436 0.722318 0
M  V30 6846 H 668.704 0.218257 1.93674 0
M  V30 6847 H 667.8 -0.885816 2.99265 0
M  V30 6848 N 668.101 -1.57061 -0.130224 0
M  V30 6849 C 669.326 -1.88802 -0.858409 0
M  V30 6850 C 669.751 -0.734353 -1.73173 0
M  V30 6851 O 669.109 0.315529 -1.78533 0
M  V30 6852 C 669.157 -3.19228 -1.67708 0
M  V30 6853 O 668.261 -3.04343 -2.78297 0
M  V30 6854 H 667.602 -0.619849 -0.238083 0
M  V30 6855 H 670.132 -2.04271 -0.115995 0
M  V30 6856 H 670.142 -3.51669 -2.06864 0
M  V30 6857 H 668.817 -4.02793 -1.0359 0
M  V30 6858 H 667.394 -2.83346 -2.42425 0
M  V30 6859 N 669.579 0.400081 -1.52437 0
M  V30 6860 C 670.828 1.14332 -1.66166 0
M  V30 6861 C 671.141 1.91419 -0.402253 0
M  V30 6862 O 672.347 2.6824 -0.419487 0
M  V30 6863 C 670.803 2.08137 -2.9361 0
M  V30 6864 C 670.411 1.36524 -4.26691 0
M  V30 6865 C 672.155 2.82664 -3.16703 0
M  V30 6866 C 670.062 2.29031 -5.45251 0
M  V30 6867 H 668.992 0.430499 -0.61902 0
M  V30 6868 H 671.643 0.407017 -1.78929 0
M  V30 6869 H 670.025 2.85358 -2.74567 0
M  V30 6870 H 671.199 0.646061 -4.56249 0
M  V30 6871 H 669.514 0.74002 -4.09771 0
M  V30 6872 H 672.111 3.52037 -4.0246 0
M  V30 6873 H 672.454 3.46122 -2.31312 0
M  V30 6874 H 672.987 2.12541 -3.36261 0
M  V30 6875 H 669.726 1.70206 -6.33017 0
M  V30 6876 H 669.246 2.98896 -5.2002 0
M  V30 6877 H 670.925 2.89359 -5.78689 0
M  V30 6878 N 671.057 1.43213 0.657864 0
M  V30 6879 C 672.473 1.26511 0.972992 0
M  V30 6880 C 672.673 0.181477 2.00681 0
M  V30 6881 O 671.729 -0.441649 2.48608 0
M  V30 6882 C 673.042 2.62784 1.46168 0
M  V30 6883 C 674.59 2.70278 1.57857 0
M  V30 6884 C 675.065 4.06958 2.10117 0
M  V30 6885 N 676.556 4.08999 2.17426 0
M  V30 6886 C 677.291 5.11585 2.58975 0
M  V30 6887 N 676.787 6.24548 2.99853 0
M  V30 6888 N 678.58 4.9894 2.58873 0
M  V30 6889 H 670.731 2.12384 -0.0263129 0
M  V30 6890 H 672.994 0.946638 0.0507992 0
M  V30 6891 H 672.7 3.43022 0.776474 0
M  V30 6892 H 672.574 2.87863 2.43751 0
M  V30 6893 H 674.961 1.90376 2.25479 0
M  V30 6894 H 675.042 2.4897 0.587179 0
M  V30 6895 H 674.686 4.87325 1.43098 0
M  V30 6896 H 674.616 4.25628 3.10078 0
M  V30 6897 H 677.107 3.27457 1.88627 0
M  V30 6898 H 677.42 6.98661 3.30292 0
M  V30 6899 H 675.765 6.28027 2.97669 0
M  V30 6900 H 678.956 4.09757 2.26311 0
M  V30 6901 H 679.129 5.79019 2.90932 0
M  V30 6902 N 672.536 -0.895792 1.29666 0
M  V30 6903 C 673.783 -1.64664 1.17864 0
M  V30 6904 C 674.111 -1.92631 -0.26902 0
M  V30 6905 O 673.366 -1.53787 -1.21029 0
M  V30 6906 C 673.665 -3.00075 1.94139 0
M  V30 6907 C 673.331 -2.91702 3.43833 0
M  V30 6908 C 671.993 -2.89126 3.84656 0
M  V30 6909 C 674.345 -2.80622 4.39205 0
M  V30 6910 C 671.673 -2.73293 5.1916 0
M  V30 6911 C 674.025 -2.66329 5.73805 0
M  V30 6912 C 672.689 -2.62121 6.1388 0
M  V30 6913 H 671.959 -0.602549 0.431295 0
M  V30 6914 H 674.606 -1.04234 1.60648 0
M  V30 6915 H 672.911 -3.64394 1.43958 0
M  V30 6916 H 674.608 -3.57111 1.82408 0
M  V30 6917 H 671.198 -2.94511 3.11386 0
M  V30 6918 H 675.382 -2.81686 4.08615 0
M  V30 6919 H 670.638 -2.68443 5.49316 0
M  V30 6920 H 674.812 -2.56727 6.47352 0
M  V30 6921 H 672.439 -2.49611 7.18052 0
M  V30 6922 N 674.014 -1.12206 -1.10668 0
M  V30 6923 C 675.242 -0.898635 -1.86366 0
M  V30 6924 C 675.657 0.551991 -1.80551 0
M  V30 6925 O 675.014 1.38152 -1.19249 0
M  V30 6926 C 675.065 -1.36199 -3.34861 0
M  V30 6927 O 674.786 -2.75576 -3.40573 0
M  V30 6928 C 676.287 -1.17515 -4.2744 0
M  V30 6929 H 673.507 -0.321281 -0.589084 0
M  V30 6930 H 676.051 -1.49142 -1.39918 0
M  V30 6931 H 674.206 -0.81249 -3.78784 0
M  V30 6932 H 674.62 -2.95851 -4.33096 0
M  V30 6933 H 676.094 -1.54827 -5.29842 0
M  V30 6934 H 676.571 -0.115486 -4.39048 0
M  V30 6935 H 677.177 -1.71203 -3.89319 0
M  V30 6936 N 675.492 1.28418 -0.913599 0
M  V30 6937 C 676.739 1.94981 -0.546674 0
M  V30 6938 C 677.067 1.7192 0.909606 0
M  V30 6939 O 676.322 1.03314 1.66207 0
M  V30 6940 C 676.621 3.48283 -0.802099 0
M  V30 6941 C 676.287 3.91444 -2.2379 0
M  V30 6942 C 674.949 4.02939 -2.63046 0
M  V30 6943 C 677.301 4.13542 -3.17227 0
M  V30 6944 C 674.629 4.3391 -3.94891 0
M  V30 6945 C 676.981 4.45992 -4.48636 0
M  V30 6946 C 675.645 4.55698 -4.87746 0
M  V30 6947 H 674.915 0.713487 -0.200042 0
M  V30 6948 H 677.562 1.52756 -1.15489 0
M  V30 6949 H 675.867 3.91643 -0.111076 0
M  V30 6950 H 677.564 3.97903 -0.497375 0
M  V30 6951 H 674.154 3.83024 -1.9233 0
M  V30 6952 H 678.338 4.04114 -2.88107 0
M  V30 6953 H 673.594 4.39631 -4.24894 0
M  V30 6954 H 677.768 4.62038 -5.21051 0
M  V30 6955 H 675.395 4.79451 -5.89942 0
M  V30 6956 N 676.97 0.677563 1.42291 0
M  V30 6957 C 677.9 0.014968 2.33495 0
M  V30 6958 C 678.881 -0.786376 1.50831 0
M  V30 6959 O 680.066 -0.742975 1.79426 0
M  V30 6960 C 677.196 -0.935023 3.34477 0
M  V30 6961 C 676.15 -0.242074 4.27315 0
M  V30 6962 C 675.476 -1.30519 5.18526 0
M  V30 6963 C 676.776 0.880604 5.14823 0
M  V30 6964 H 678.47 0.776671 2.89151 0
M  V30 6965 H 676.016 0.37494 1.39033 0
M  V30 6966 H 677.969 -1.40766 3.97194 0
M  V30 6967 H 676.693 -1.72818 2.77131 0
M  V30 6968 H 675.352 0.210351 3.65996 0
M  V30 6969 H 675 -2.09041 4.57505 0
M  V30 6970 H 674.7 -0.846652 5.81468 0
M  V30 6971 H 676.224 -1.7787 5.84119 0
M  V30 6972 H 677.638 0.489062 5.7121 0
M  V30 6973 H 676.035 1.26511 5.86613 0
M  V30 6974 H 677.105 1.72818 4.53059 0
M  V30 6975 N 678.448 -1.51871 0.421078 0
M  V30 6976 C 679.695 -2.01938 -0.15079 0
M  V30 6977 C 680.023 -1.30611 -1.44121 0
M  V30 6978 O 679.278 -0.404631 -1.91471 0
M  V30 6979 C 679.577 -3.54764 -0.433292 0
M  V30 6980 C 679.243 -4.44288 0.76936 0
M  V30 6981 C 677.905 -4.68477 1.09921 0
M  V30 6982 C 680.257 -4.96915 1.57242 0
M  V30 6983 C 677.585 -5.4254 2.2331 0
M  V30 6984 C 679.937 -5.7222 2.69716 0
M  V30 6985 C 678.601 -5.94678 3.03174 0
M  V30 6986 H 677.871 -0.738943 -0.0551781 0
M  V30 6987 H 680.518 -1.82977 0.564945 0
M  V30 6988 H 678.823 -3.71968 -1.23074 0
M  V30 6989 H 680.52 -3.91023 -0.888922 0
M  V30 6990 H 677.11 -4.25646 0.502305 0
M  V30 6991 H 681.294 -4.78125 1.3308 0
M  V30 6992 H 676.55 -5.58146 2.49565 0
M  V30 6993 H 680.724 -6.11992 3.32323 0
M  V30 6994 H 678.351 -6.51848 3.9115 0
M  V30 6995 N 679.926 -0.151884 -1.56866 0
M  V30 6996 C 681.166 0.500695 -1.98173 0
M  V30 6997 C 681.53 1.61715 -1.03499 0
M  V30 6998 O 682.731 2.33093 -1.33869 0
M  V30 6999 C 681.002 0.989333 -3.43434 0
M  V30 7000 S 682.561 1.64583 -4.06765 0
M  V30 7001 H 679.379 0.16173 -0.692361 0
M  V30 7002 H 681.981 -0.244754 -1.93962 0
M  V30 7003 H 680.685 0.166072 -4.10064 0
M  V30 7004 H 680.216 1.76929 -3.51368 0
M  V30 7005 H 682.231 2.93326 -4.00218 0
M  V30 7006 N 681.404 1.57128 0.121893 0
M  V30 7007 C 682.652 1.84335 0.828548 0
M  V30 7008 C 682.973 0.736632 1.80551 0
M  V30 7009 O 682.243 -0.23962 1.94429 0
M  V30 7010 H 680.823 0.680108 0.30897 0
M  V30 7011 H 683.485 1.9459 0.109906 0
M  V30 7012 H 682.581 2.80152 1.37554 0
M  V30 7013 N 682.882 -0.391992 1.52647 0
M  V30 7014 C 684.107 -1.16312 1.71716 0
M  V30 7015 C 684.532 -1.83042 0.433279 0
M  V30 7016 O 683.89 -1.70705 -0.610707 0
M  V30 7017 C 683.938 -2.18908 2.86551 0
M  V30 7018 O 683.042 -3.2543 2.53316 0
M  V30 7019 H 682.383 -0.338743 0.571095 0
M  V30 7020 H 684.913 -0.457202 1.99426 0
M  V30 7021 H 684.923 -2.62954 3.1196 0
M  V30 7022 H 683.598 -1.69726 3.79692 0
M  V30 7023 H 682.175 -2.86543 2.38637 0
M  V30 7024 N 684.36 -1.4356 -0.65026 0
M  V30 7025 C 685.293 -1.434 -1.77515 0
M  V30 7026 C 686.271 -0.295082 -1.599 0
M  V30 7027 O 687.455 -0.489128 -1.82043 0
M  V30 7028 C 684.582 -1.2484 -3.14853 0
M  V30 7029 C 683.628 -2.42046 -3.51163 0
M  V30 7030 S 684.461 -4.04595 -3.50803 0
M  V30 7031 C 685.617 -3.88424 -4.90793 0
M  V30 7032 H 685.85 -2.38586 -1.77381 0
M  V30 7033 H 683.383 -1.30627 -0.823169 0
M  V30 7034 H 685.341 -1.14819 -3.94115 0
M  V30 7035 H 684.002 -0.311977 -3.12547 0
M  V30 7036 H 683.195 -2.24873 -4.51052 0
M  V30 7037 H 682.797 -2.48708 -2.79321 0
M  V30 7038 H 685.089 -3.50932 -5.79528 0
M  V30 7039 H 686.032 -4.88076 -5.13018 0
M  V30 7040 H 686.44 -3.20829 -4.64467 0
M  V30 7041 N 685.838 0.888903 -1.30139 0
M  V30 7042 C 686.771 1.99655 -1.10514 0
M  V30 7043 C 687.749 1.62594 -0.0138934 0
M  V30 7044 O 688.933 1.87762 -0.166689 0
M  V30 7045 C 686.06 3.31708 -0.684655 0
M  V30 7046 C 685.106 3.87755 -1.77619 0
M  V30 7047 S 685.939 4.15532 -3.37777 0
M  V30 7048 C 687.095 5.5061 -2.97622 0
M  V30 7049 H 687.328 2.15996 -2.04287 0
M  V30 7050 H 684.861 1.03682 -1.14409 0
M  V30 7051 H 686.819 4.08039 -0.448782 0
M  V30 7052 H 685.48 3.1323 0.233648 0
M  V30 7053 H 684.673 4.83164 -1.43417 0
M  V30 7054 H 684.275 3.18149 -1.96614 0
M  V30 7055 H 686.567 6.31518 -2.45338 0
M  V30 7056 H 687.51 5.89747 -3.91924 0
M  V30 7057 H 687.918 5.12983 -2.35603 0
M  V30 7058 N 687.317 1.12792 1.10072 0
M  V30 7059 C 688.28 0.802264 2.14701 0
M  V30 7060 C 689.28 -0.18515 1.59731 0
M  V30 7061 O 690.47 0.041109 1.74151 0
M  V30 7062 C 687.602 0.19285 3.40354 0
M  V30 7063 H 688.795 1.72932 2.45019 0
M  V30 7064 H 686.348 0.931662 1.25498 0
M  V30 7065 H 687.083 -0.743748 3.15656 0
M  V30 7066 H 686.868 0.903827 3.81541 0
M  V30 7067 H 688.358 -0.0183704 4.17596 0
M  V30 7068 N 688.795 -1.27931 0.920396 0
M  V30 7069 C 690.023 -1.98805 0.573087 0
M  V30 7070 C 690.438 -1.68724 -0.847201 0
M  V30 7071 O 689.795 -0.943699 -1.56207 0
M  V30 7072 C 689.846 -3.52971 0.780633 0
M  V30 7073 O 689.567 -3.81994 2.14504 0
M  V30 7074 C 691.068 -4.411 0.44105 0
M  V30 7075 H 688.288 -0.634651 0.21785 0
M  V30 7076 H 690.832 -1.62965 1.23542 0
M  V30 7077 H 688.987 -3.87048 0.165204 0
M  V30 7078 H 689.401 -4.76609 2.18962 0
M  V30 7079 H 690.875 -5.48312 0.637006 0
M  V30 7080 H 691.352 -4.34758 -0.62306 0
M  V30 7081 H 691.958 -4.12532 1.0343 0
M  V30 7082 N 690.273 -0.685099 -1.4193 0
M  V30 7083 C 691.521 -0.21124 -2.00993 0
M  V30 7084 C 691.842 1.18985 -1.54491 0
M  V30 7085 O 691.112 1.8009 -0.771 0
M  V30 7086 H 689.692 -0.0751059 -0.743215 0
M  V30 7087 H 692.354 -0.883915 -1.73704 0
M  V30 7088 H 691.45 -0.220513 -3.1132 0
M  V30 7089 N 691.751 1.51645 -0.429126 0
M  V30 7090 C 692.698 2.27542 0.386446 0
M  V30 7091 C 693.668 1.30786 1.02393 0
M  V30 7092 O 694.853 1.59678 1.0444 0
M  V30 7093 C 691.993 3.11457 1.48623 0
M  V30 7094 C 691.106 4.23196 0.867691 0
M  V30 7095 C 690.241 4.94435 1.94183 0
M  V30 7096 C 689.28 5.98108 1.30129 0
M  V30 7097 N 688.417 6.62786 2.31644 0
M  V30 7098 H 693.257 2.968 -0.267155 0
M  V30 7099 H 690.794 1.46397 -0.143591 0
M  V30 7100 H 692.752 3.58429 2.13506 0
M  V30 7101 H 691.382 2.44329 2.10957 0
M  V30 7102 H 690.434 3.80248 0.107373 0
M  V30 7103 H 691.746 4.97499 0.35997 0
M  V30 7104 H 690.9 5.44914 2.66747 0
M  V30 7105 H 689.639 4.19744 2.48326 0
M  V30 7106 H 688.644 5.4693 0.561082 0
M  V30 7107 H 689.869 6.74751 0.767303 0
M  V30 7108 H 687.815 5.90913 2.84883 0
M  V30 7109 H 687.732 7.32828 1.85741 0
M  V30 7110 H 689 7.17897 3.03717 0
M  V30 7111 N 693.229 0.160201 1.56784 0
M  V30 7112 C 694.159 -0.770264 2.2043 0
M  V30 7113 C 695.14 -1.24736 1.15651 0
M  V30 7114 O 696.325 -1.30253 1.44041 0
M  V30 7115 C 693.455 -2.00427 2.83631 0
M  V30 7116 C 692.409 -1.66345 3.94352 0
M  V30 7117 C 691.735 -2.97119 4.4455 0
M  V30 7118 C 693.035 -0.899972 5.14488 0
M  V30 7119 H 694.729 -0.239783 2.98438 0
M  V30 7120 H 692.275 -0.113891 1.43549 0
M  V30 7121 H 694.228 -2.66012 3.26827 0
M  V30 7122 H 692.952 -2.5587 2.02973 0
M  V30 7123 H 691.611 -1.03133 3.51794 0
M  V30 7124 H 691.259 -3.5058 3.60698 0
M  V30 7125 H 690.959 -2.75073 5.19238 0
M  V30 7126 H 692.483 -3.63753 4.90425 0
M  V30 7127 H 693.897 -1.45818 5.54446 0
M  V30 7128 H 692.294 -0.778968 5.95023 0
M  V30 7129 H 693.364 0.105827 4.84785 0
M  V30 7130 N 694.707 -1.5719 -0.113559 0
M  V30 7131 C 695.637 -2.03772 -1.14013 0
M  V30 7132 C 696.618 -0.923176 -1.42869 0
M  V30 7133 O 697.803 -1.19325 -1.53216 0
M  V30 7134 C 694.933 -2.44663 -2.4649 0
M  V30 7135 C 693.887 -3.59612 -2.32085 0
M  V30 7136 C 693.213 -3.8642 -3.69573 0
M  V30 7137 C 694.513 -4.91149 -1.7768 0
M  V30 7138 H 696.207 -2.89785 -0.752665 0
M  V30 7139 H 693.753 -1.39412 -0.360609 0
M  V30 7140 H 695.706 -2.75857 -3.18561 0
M  V30 7141 H 694.43 -1.55628 -2.87137 0
M  V30 7142 H 693.089 -3.28636 -1.62461 0
M  V30 7143 H 692.737 -2.94581 -4.07715 0
M  V30 7144 H 692.437 -4.63797 -3.60786 0
M  V30 7145 H 693.961 -4.2007 -4.4314 0
M  V30 7146 H 695.375 -5.20843 -2.39574 0
M  V30 7147 H 693.772 -5.72562 -1.79701 0
M  V30 7148 H 694.842 -4.79301 -0.734776 0
M  V30 7149 N 696.185 0.383891 -1.52853 0
M  V30 7150 C 697.115 1.47559 -1.80965 0
M  V30 7151 C 698.096 1.5669 -0.661986 0
M  V30 7152 O 699.281 1.71556 -0.910072 0
M  V30 7153 C 696.411 2.85114 -1.98312 0
M  V30 7154 C 695.365 2.9082 -3.14019 0
M  V30 7155 C 694.691 4.30873 -3.16627 0
M  V30 7156 C 695.991 2.60001 -4.52986 0
M  V30 7157 H 697.685 1.24283 -2.72386 0
M  V30 7158 H 695.231 0.596445 -1.31067 0
M  V30 7159 H 697.184 3.61496 -2.16561 0
M  V30 7160 H 695.908 3.09738 -1.03585 0
M  V30 7161 H 694.567 2.16886 -2.9556 0
M  V30 7162 H 694.215 4.52545 -2.19573 0
M  V30 7163 H 693.915 4.3561 -3.94357 0
M  V30 7164 H 695.439 5.09154 -3.37038 0
M  V30 7165 H 696.853 3.261 -4.71521 0
M  V30 7166 H 695.25 2.76081 -5.32822 0
M  V30 7167 H 696.32 1.5532 -4.59351 0
M  V30 7168 N 697.663 1.43903 0.642637 0
M  V30 7169 C 698.888 1.49758 1.43483 0
M  V30 7170 C 699.313 0.119911 1.87717 0
M  V30 7171 O 698.671 -0.888558 1.58033 0
M  V30 7172 C 698.719 2.45744 2.63898 0
M  V30 7173 O 697.823 1.95101 3.63331 0
M  V30 7174 H 697.164 0.506138 0.429791 0
M  V30 7175 H 699.694 1.88923 0.785438 0
M  V30 7176 H 699.704 2.63399 3.11584 0
M  V30 7177 H 698.379 3.45818 2.31046 0
M  V30 7178 H 696.956 1.87158 3.22531 0
M  V30 7179 N 699.141 -0.881989 1.30609 0
M  V30 7180 C 700.371 -1.66469 1.22359 0
M  V30 7181 C 700.779 -1.87969 -0.215507 0
M  V30 7182 O 700.122 -1.42938 -1.15388 0
M  V30 7183 C 700.184 -3.06135 1.88472 0
M  V30 7184 C 699.848 -3.07795 3.37804 0
M  V30 7185 C 700.845 -2.86633 4.33749 0
M  V30 7186 C 698.53 -3.29297 3.793 0
M  V30 7187 C 700.524 -2.86934 5.69164 0
M  V30 7188 C 698.211 -3.29228 5.14832 0
M  V30 7189 C 699.209 -3.08071 6.09574 0
M  V30 7190 O 698.897 -3.07824 7.4263 0
M  V30 7191 H 698.629 -0.526129 0.424458 0
M  V30 7192 H 701.183 -1.11004 1.72821 0
M  V30 7193 H 699.413 -3.63276 1.32543 0
M  V30 7194 H 701.102 -3.66571 1.74301 0
M  V30 7195 H 701.868 -2.69814 4.0302 0
M  V30 7196 H 697.747 -3.44799 3.05998 0
M  V30 7197 H 701.291 -2.70339 6.43088 0
M  V30 7198 H 697.188 -3.45583 5.452 0
M  V30 7199 H 697.956 -3.2397 7.51656 0
M  V30 7200 N 700.619 -1.13374 -1.09472 0
M  V30 7201 C 701.844 -0.918711 -1.85942 0
M  V30 7202 C 702.269 0.527225 -1.8056 0
M  V30 7203 O 701.627 1.37408 -1.18274 0
M  V30 7204 C 701.675 -1.41056 -3.31867 0
M  V30 7205 O 700.779 -0.595496 -4.08078 0
M  V30 7206 H 700.12 -0.329297 -0.576593 0
M  V30 7207 H 702.65 -1.50829 -1.38245 0
M  V30 7208 H 702.66 -1.41398 -3.82715 0
M  V30 7209 H 701.335 -2.46335 -3.35099 0
M  V30 7210 H 699.912 -0.659911 -3.67014 0
M  V30 7211 N 702.098 1.27442 -0.927168 0
M  V30 7212 C 703.509 1.76385 -0.611979 0
M  V30 7213 C 703.86 1.75715 0.872853 0
M  V30 7214 O 702.985 1.3603 1.683 0
M  V30 7215 C 703.58 3.20303 -1.10414 0
M  V30 7216 C 702.139 3.66916 -0.839628 0
M  V30 7217 C 701.286 2.46859 -1.26317 0
M  V30 7218 H 704.237 1.13716 -1.107 0
M  V30 7219 H 704.258 3.77811 -0.451578 0
M  V30 7220 H 703.77 3.20759 -2.18484 0
M  V30 7221 H 701.871 3.71906 0.227292 0
M  V30 7222 H 701.984 4.56415 -1.45679 0
M  V30 7223 H 700.348 2.45407 -0.681723 0
M  V30 7224 H 701.131 2.50025 -2.3525 0
M  V30 7225 N 703.576 0.692616 1.41565 0
M  V30 7226 C 704.987 0.297478 1.84315 0
M  V30 7227 C 705.338 -1.16379 1.57957 0
M  V30 7228 O 704.463 -1.89303 1.0485 0
M  V30 7229 C 705.058 0.533136 3.34579 0
M  V30 7230 C 703.617 0.191944 3.7591 0
M  V30 7231 C 702.764 0.816873 2.64995 0
M  V30 7232 H 705.715 0.893488 1.31158 0
M  V30 7233 H 705.736 -0.209105 3.79925 0
M  V30 7234 H 705.248 1.59674 3.53731 0
M  V30 7235 H 703.349 -0.867512 3.6236 0
M  V30 7236 H 703.462 0.644902 4.7474 0
M  V30 7237 H 701.826 0.246715 2.53502 0
M  V30 7238 H 702.609 1.88429 2.86966 0
M  V30 7239 N 705.054 -1.51416 0.437162 0
M  V30 7240 C 706.302 -2.01687 -0.129108 0
M  V30 7241 C 706.623 -1.32329 -1.43227 0
M  V30 7242 O 705.893 -0.457796 -1.90476 0
M  V30 7243 H 704.473 -0.745277 -0.0507023 0
M  V30 7244 H 707.135 -1.86075 0.579828 0
M  V30 7245 H 706.231 -3.10605 -0.305141 0
M  V30 7246 N 706.532 -0.168513 -1.56696 0
M  V30 7247 C 707.495 0.748928 -2.16619 0
M  V30 7248 C 708.495 1.16007 -1.11351 0
M  V30 7249 O 709.685 1.07748 -1.3688 0
M  V30 7250 C 706.817 2.01904 -2.74677 0
M  V30 7251 H 708.01 0.227317 -2.99037 0
M  V30 7252 H 705.563 0.0810372 -1.5609 0
M  V30 7253 H 706.298 2.58381 -1.95985 0
M  V30 7254 H 706.083 1.73323 -3.51712 0
M  V30 7255 H 707.573 2.67383 -3.20774 0
M  V30 7256 N 708.01 1.57248 0.105221 0
M  V30 7257 C 708.957 2.01338 1.12835 0
M  V30 7258 C 709.927 0.887897 1.40377 0
M  V30 7259 O 711.112 1.15315 1.5201 0
M  V30 7260 C 708.252 2.43432 2.44611 0
M  V30 7261 C 707.365 3.69457 2.23888 0
M  V30 7262 C 706.5 4.00473 3.48991 0
M  V30 7263 C 705.539 5.19638 3.23485 0
M  V30 7264 N 704.676 5.46457 4.40828 0
M  V30 7265 H 709.516 2.88527 0.745386 0
M  V30 7266 H 707.053 1.42714 0.356535 0
M  V30 7267 H 709.011 2.65879 3.21503 0
M  V30 7268 H 707.641 1.59266 2.80774 0
M  V30 7269 H 706.693 3.54545 1.37847 0
M  V30 7270 H 708.005 4.56497 2.01026 0
M  V30 7271 H 707.159 4.23642 4.34295 0
M  V30 7272 H 705.898 3.11935 3.74897 0
M  V30 7273 H 704.903 4.96299 2.36574 0
M  V30 7274 H 706.128 6.09766 2.98935 0
M  V30 7275 H 704.074 4.60876 4.66829 0
M  V30 7276 H 703.991 6.27849 4.2112 0
M  V30 7277 H 705.259 5.74155 5.27225 0
M  V30 7278 N 709.488 -0.375779 1.53054 0
M  V30 7279 C 710.899 -0.95309 1.6054 0
M  V30 7280 C 711.25 -1.90575 0.466446 0
M  V30 7281 O 710.375 -2.12507 -0.408609 0
M  V30 7282 C 710.97 -1.73537 2.90982 0
M  V30 7283 C 709.529 -2.26218 3.00836 0
M  V30 7284 C 708.676 -1.07157 2.55759 0
M  V30 7285 H 711.627 -0.154895 1.57942 0
M  V30 7286 H 711.648 -2.59574 2.78211 0
M  V30 7287 H 711.16 -1.04176 3.73857 0
M  V30 7288 H 709.261 -2.98852 2.22527 0
M  V30 7289 H 709.374 -2.54799 4.05727 0
M  V30 7290 H 707.738 -1.43553 2.10391 0
M  V30 7291 H 708.521 -0.393099 3.41042 0
M  V30 7292 N 710.966 -1.44241 -0.634997 0
M  V30 7293 C 712.377 -1.41622 -1.21655 0
M  V30 7294 C 712.728 -0.129584 -1.95772 0
M  V30 7295 O 711.853 0.770225 -2.02229 0
M  V30 7296 C 712.448 -2.56557 -2.21278 0
M  V30 7297 C 711.007 -2.57145 -2.7487 0
M  V30 7298 C 710.154 -2.33354 -1.49804 0
M  V30 7299 H 713.105 -1.52878 -0.425905 0
M  V30 7300 H 713.126 -2.29089 -3.03807 0
M  V30 7301 H 712.638 -3.50186 -1.67306 0
M  V30 7302 H 710.739 -1.67447 -3.32855 0
M  V30 7303 H 710.852 -3.55507 -3.21172 0
M  V30 7304 H 709.216 -1.82372 -1.77799 0
M  V30 7305 H 709.999 -3.29092 -0.977402 0
M  V30 7306 N 712.444 0.87505 -1.31075 0
M  V30 7307 C 713.672 1.66058 -1.23419 0
M  V30 7308 C 714.087 1.87723 0.201347 0
M  V30 7309 O 713.444 1.43178 1.13165 0
M  V30 7310 C 713.495 3.03142 -1.96945 0
M  V30 7311 O 713.216 2.82448 -3.34895 0
M  V30 7312 C 714.717 3.97583 -1.96067 0
M  V30 7313 H 711.937 0.517868 -0.426677 0
M  V30 7314 H 714.481 1.09258 -1.72867 0
M  V30 7315 H 712.636 3.56645 -1.51271 0
M  V30 7316 H 713.05 3.69483 -3.72267 0
M  V30 7317 H 714.524 4.91104 -2.52034 0
M  V30 7318 H 715.001 4.2898 -0.941961 0
M  V30 7319 H 715.607 3.50015 -2.41597 0
M  V30 7320 N 713.922 1.13953 1.08869 0
M  V30 7321 C 714.87 0.817664 2.17754 0
M  V30 7322 C 715.864 -0.202444 1.68186 0
M  V30 7323 O 717.07 -0.0590159 1.79903 0
M  V30 7324 H 713.445 0.246671 0.710392 0
M  V30 7325 H 715.416 1.74401 2.4213 0
M  V30 7326 C 714.165 0.3063 3.46348 0
M  V30 7327 H 713.488 1.08259 3.84864 0
M  V30 7328 H 714.928 0.119584 4.23831 0
M  V30 7329 C 713.387 -0.969158 3.22659 0
M  V30 7330 O 713.917 -2.04386 3.45817 0
M  V30 7331 N 712.123 -0.902516 2.7623 0
M  V30 7332 H 711.67 -0.027801 2.57585 0
M  V30 7333 H 711.628 -1.75649 2.60758 0
M  V30 7334 N 715.4 -1.26948 0.933913 0
M  V30 7335 C 716.816 -1.46419 0.635103 0
M  V30 7336 C 717.016 -1.84336 -0.813785 0
M  V30 7337 O 716.072 -1.96061 -1.59111 0
M  V30 7338 C 717.385 -2.55206 1.5903 0
M  V30 7339 C 718.933 -2.69062 1.5992 0
M  V30 7340 C 719.408 -3.81013 2.54152 0
M  V30 7341 N 720.899 -3.88395 2.52395 0
M  V30 7342 C 721.634 -4.74454 3.21996 0
M  V30 7343 N 721.13 -5.64954 4.00997 0
M  V30 7344 N 722.923 -4.68237 3.10983 0
M  V30 7345 H 715.074 -1.00622 1.87053 0
M  V30 7346 H 717.337 -0.503189 0.803433 0
M  V30 7347 H 717.043 -2.34153 2.62422 0
M  V30 7348 H 716.917 -3.52719 1.33677 0
M  V30 7349 H 719.304 -2.89492 0.572569 0
M  V30 7350 H 719.385 -1.72016 1.89325 0
M  V30 7351 H 719.029 -3.61336 3.5693 0
M  V30 7352 H 718.959 -4.77499 2.22041 0
M  V30 7353 H 721.45 -3.23687 1.95025 0
M  V30 7354 H 721.763 -6.27496 4.51074 0
M  V30 7355 H 720.108 -5.6473 4.05099 0
M  V30 7356 H 723.299 -3.96535 2.48753 0
M  V30 7357 H 723.472 -5.35087 3.65494 0
M  V30 7358 N 716.879 -0.700114 -1.41195 0
M  V30 7359 C 717.826 -0.0376652 -2.30769 0
M  V30 7360 C 718.796 0.766544 -1.47354 0
M  V30 7361 O 719.981 0.73365 -1.76131 0
M  V30 7362 C 717.121 0.889452 -3.33441 0
M  V30 7363 C 716.234 0.076373 -4.31932 0
M  V30 7364 C 715.369 1.00155 -5.21673 0
M  V30 7365 C 714.408 0.181644 -6.1183 0
M  V30 7366 N 713.545 1.06087 -6.94039 0
M  V30 7367 H 718.385 -0.80726 -2.86858 0
M  V30 7368 H 715.922 -0.409798 -1.41277 0
M  V30 7369 H 717.88 1.44107 -3.91522 0
M  V30 7370 H 716.51 1.6254 -2.78892 0
M  V30 7371 H 715.562 -0.592223 -3.75762 0
M  V30 7372 H 716.874 -0.559076 -4.95657 0
M  V30 7373 H 716.028 1.62223 -5.8461 0
M  V30 7374 H 714.767 1.67085 -4.58186 0
M  V30 7375 H 713.772 -0.452085 -5.47938 0
M  V30 7376 H 714.997 -0.483925 -6.77374 0
M  V30 7377 H 712.943 1.7161 -6.33156 0
M  V30 7378 H 712.86 0.481094 -7.54468 0
M  V30 7379 H 714.128 1.66822 -7.6144 0
M  V30 7380 N 718.357 1.51182 -0.445186 0
M  V30 7381 C 719.634 1.9478 0.178965 0
M  V30 7382 C 720.014 1.38428 1.59376 0
M  V30 7383 O 719.362 0.574552 2.21159 0
M  V30 7384 C 719.572 3.48683 0.148711 0
M  V30 7385 C 720.92 4.23152 0.35042 0
M  V30 7386 O 721.944 3.55479 0.226474 0
M  V30 7387 O 720.803 5.4322 0.597893 0
M  V30 7388 H 717.897 0.817387 0.12573 0
M  V30 7389 H 720.443 1.62051 -0.503729 0
M  V30 7390 H 719.215 3.82176 -0.84009 0
M  V30 7391 H 718.838 3.87875 0.873979 0
M  V30 7392 N 719.835 0.176821 1.56605 0
M  V30 7393 C 720.798 -0.737429 2.17013 0
M  V30 7394 C 721.798 -1.15414 1.11965 0
M  V30 7395 O 722.988 -1.0702 1.37449 0
M  V30 7396 C 720.12 -2.00445 2.75744 0
M  V30 7397 H 721.313 -0.211455 2.99154 0
M  V30 7398 H 718.866 -0.0727582 1.56131 0
M  V30 7399 H 719.601 -2.57338 1.97352 0
M  V30 7400 H 719.386 -1.71456 3.52626 0
M  V30 7401 H 720.876 -2.65679 3.22187 0
M  V30 7402 N 721.313 -1.57302 -0.09688 0
M  V30 7403 C 722.246 -1.97179 -1.14872 0
M  V30 7404 C 723.224 -0.844734 -1.38935 0
M  V30 7405 O 724.408 -1.10487 -1.52725 0
M  V30 7406 C 721.535 -2.28703 -2.49826 0
M  V30 7407 C 720.581 -3.51158 -2.42054 0
M  V30 7408 S 721.414 -5.0294 -1.83879 0
M  V30 7409 C 722.57 -5.37639 -3.2046 0
M  V30 7410 H 722.803 -2.86088 -0.808771 0
M  V30 7411 H 720.336 -1.51368 -0.304492 0
M  V30 7412 H 722.294 -2.47541 -3.27466 0
M  V30 7413 H 720.955 -1.40368 -2.8099 0
M  V30 7414 H 720.148 -3.70651 -3.41517 0
M  V30 7415 H 719.75 -3.31821 -1.72543 0
M  V30 7416 H 722.042 -5.34175 -4.16729 0
M  V30 7417 H 722.985 -6.38677 -3.05773 0
M  V30 7418 H 723.393 -4.651 -3.19909 0
M  V30 7419 N 722.791 0.367657 -1.53252 0
M  V30 7420 C 723.721 1.45632 -1.8252 0
M  V30 7421 C 724.702 1.55979 -0.678568 0
M  V30 7422 O 725.887 1.70581 -0.928217 0
M  V30 7423 C 723.017 2.82994 -2.01325 0
M  V30 7424 C 721.971 2.87473 -3.17086 0
M  V30 7425 C 721.297 4.2749 -3.21179 0
M  V30 7426 C 722.597 2.55182 -4.55719 0
M  V30 7427 H 724.291 1.21387 -2.73689 0
M  V30 7428 H 721.837 0.58251 -1.31692 0
M  V30 7429 H 723.79 3.59179 -2.20383 0
M  V30 7430 H 722.514 3.08622 -1.06864 0
M  V30 7431 H 721.173 2.13739 -2.97844 0
M  V30 7432 H 720.821 4.5019 -2.24361 0
M  V30 7433 H 720.521 4.31403 -3.98955 0
M  V30 7434 H 722.045 5.0555 -3.42419 0
M  V30 7435 H 723.459 3.21081 -4.74953 0
M  V30 7436 H 721.856 2.70414 -5.3572 0
M  V30 7437 H 722.926 1.5044 -4.60973 0
M  V30 7438 N 724.269 1.44576 0.627338 0
M  V30 7439 C 725.517 1.47267 1.38408 0
M  V30 7440 C 725.838 0.107971 1.94701 0
M  V30 7441 O 725.108 -0.860206 1.76004 0
M  V30 7442 H 723.688 0.542276 0.513756 0
M  V30 7443 H 726.35 1.80383 0.738099 0
M  V30 7444 H 725.446 2.20025 2.21349 0
M  V30 7445 N 725.747 -0.868086 1.31537 0
M  V30 7446 C 726.975 -1.65402 1.24298 0
M  V30 7447 C 727.39 -1.87827 -0.191389 0
M  V30 7448 O 726.747 -1.43776 -1.12404 0
M  V30 7449 C 726.798 -3.02093 1.9855 0
M  V30 7450 O 726.519 -2.80668 3.36388 0
M  V30 7451 C 728.02 -3.96538 1.98173 0
M  V30 7452 H 725.24 -0.515598 0.429417 0
M  V30 7453 H 727.784 -1.0834 1.73444 0
M  V30 7454 H 725.939 -3.55838 1.53161 0
M  V30 7455 H 726.353 -3.67504 3.74221 0
M  V30 7456 H 727.827 -4.8976 2.54635 0
M  V30 7457 H 728.304 -4.28474 0.964697 0
M  V30 7458 H 728.91 -3.48729 2.4345 0
M  V30 7459 N 727.225 -1.14528 -1.08264 0
M  V30 7460 C 728.175 -0.802141 -2.13424 0
M  V30 7461 C 729.159 0.209362 -1.59532 0
M  V30 7462 O 730.351 0.0114859 -1.76996 0
M  V30 7463 C 727.48 -0.282938 -3.42132 0
M  V30 7464 C 726.566 -1.32405 -4.02902 0
M  V30 7465 N 726.957 -2.52861 -4.38058 0
M  V30 7466 C 725.255 -1.17462 -4.30254 0
M  V30 7467 C 725.956 -3.1952 -4.86088 0
M  V30 7468 N 724.932 -2.46921 -4.84284 0
M  V30 7469 H 728.734 -1.71843 -2.38426 0
M  V30 7470 H 726.248 -1.02936 -1.2561 0
M  V30 7471 H 728.245 -0.0188053 -4.16896 0
M  V30 7472 H 726.905 0.627533 -3.18578 0
M  V30 7473 H 727.916 -2.90078 -4.2904 0
M  V30 7474 H 724.593 -0.323283 -4.16246 0
M  V30 7475 H 725.983 -4.2223 -5.22658 0
M  V30 7476 N 728.703 1.26451 -0.940633 0
M  V30 7477 C 729.952 1.93071 -0.583656 0
M  V30 7478 C 730.265 1.74618 0.881366 0
M  V30 7479 O 731.471 2.35689 1.34769 0
M  V30 7480 C 729.927 3.45927 -0.993106 0
M  V30 7481 C 729.535 3.73115 -2.4797 0
M  V30 7482 C 731.279 4.18554 -0.707998 0
M  V30 7483 C 729.186 5.19408 -2.82788 0
M  V30 7484 H 728.116 0.722824 -0.214572 0
M  V30 7485 H 730.767 1.43538 -1.1432 0
M  V30 7486 H 729.149 3.94341 -0.362099 0
M  V30 7487 H 730.323 3.35408 -3.15971 0
M  V30 7488 H 728.638 3.13719 -2.73805 0
M  V30 7489 H 731.235 5.26293 -0.94447 0
M  V30 7490 H 731.578 4.14782 0.355225 0
M  V30 7491 H 732.111 3.76003 -1.2987 0
M  V30 7492 H 728.85 5.28281 -3.88071 0
M  V30 7493 H 728.37 5.58214 -2.19449 0
M  V30 7494 H 730.049 5.87407 -2.71224 0
M  V30 7495 N 730.181 0.707592 1.40822 0
M  V30 7496 C 731.43 0.240705 2.00259 0
M  V30 7497 C 731.743 -1.17027 1.56729 0
M  V30 7498 O 732.949 -1.73526 2.08809 0
M  V30 7499 C 731.405 0.379432 3.57894 0
M  V30 7500 C 731.013 1.79654 4.104 0
M  V30 7501 C 732.757 -0.0270684 4.24491 0
M  V30 7502 C 730.664 1.88628 5.60512 0
M  V30 7503 H 729.594 0.0862369 0.749052 0
M  V30 7504 H 732.245 0.877528 1.61157 0
M  V30 7505 H 730.627 -0.325842 3.94657 0
M  V30 7506 H 731.801 2.53155 3.85032 0
M  V30 7507 H 730.116 2.15379 3.56372 0
M  V30 7508 H 732.713 0.0193743 5.34696 0
M  V30 7509 H 733.056 -1.06772 4.02375 0
M  V30 7510 H 733.589 0.628361 3.92806 0
M  V30 7511 H 730.328 2.90787 5.87472 0
M  V30 7512 H 729.848 1.19528 5.8777 0
M  V30 7513 H 731.527 1.6547 6.25483 0
M  V30 7514 N 731.66 -1.50943 0.453197 0
M  V30 7515 C 732.906 -2.03153 -0.100277 0
M  V30 7516 C 733.261 -1.33032 -1.38997 0
M  V30 7517 O 732.554 -0.441423 -1.86446 0
M  V30 7518 C 732.748 -3.55603 -0.357944 0
M  V30 7519 C 732.577 -4.40495 0.905223 0
M  V30 7520 C 731.347 -4.84247 1.44337 0
M  V30 7521 C 733.545 -4.81931 1.79575 0
M  V30 7522 N 731.527 -5.53403 2.65742 0
M  V30 7523 C 732.898 -5.50314 2.85577 0
M  V30 7524 C 734.953 -4.63903 1.80828 0
M  V30 7525 C 733.656 -6.02581 3.92797 0
M  V30 7526 C 735.682 -5.17097 2.86993 0
M  V30 7527 C 735.044 -5.8544 3.91713 0
M  V30 7528 H 731.143 -0.781995 0.00287755 0
M  V30 7529 H 733.727 -1.84651 0.617411 0
M  V30 7530 H 731.898 -3.74087 -1.04467 0
M  V30 7531 H 733.63 -3.9447 -0.904175 0
M  V30 7532 H 730.385 -4.63029 0.995045 0
M  V30 7533 H 730.809 -5.92598 3.27348 0
M  V30 7534 H 735.451 -4.10512 1.0119 0
M  V30 7535 H 733.169 -6.55018 4.73262 0
M  V30 7536 H 736.755 -5.0499 2.88923 0
M  V30 7537 H 735.635 -6.25861 4.72512 0
M  V30 7538 N 733.138 -0.185124 -1.56509 0
M  V30 7539 C 734.415 0.503348 -1.89013 0
M  V30 7540 C 734.795 1.80349 -1.09715 0
M  V30 7541 O 734.143 2.27665 -0.195203 0
M  V30 7542 C 734.353 0.731839 -3.41241 0
M  V30 7543 C 735.701 1.05568 -4.11267 0
M  V30 7544 O 736.725 0.819906 -3.46635 0
M  V30 7545 O 735.584 1.50116 -5.25478 0
M  V30 7546 H 732.678 0.261139 -0.784688 0
M  V30 7547 H 735.224 -0.224592 -1.68207 0
M  V30 7548 H 733.996 -0.18672 -3.90854 0
M  V30 7549 H 733.619 1.5126 -3.67704 0
M  V30 7550 N 734.616 1.57351 0.0885366 0
M  V30 7551 C 735.546 2.05561 1.10757 0
M  V30 7552 C 736.527 0.945789 1.41382 0
M  V30 7553 O 737.712 1.21747 1.51299 0
M  V30 7554 C 734.842 2.48554 2.42566 0
M  V30 7555 C 733.796 3.63259 2.26334 0
M  V30 7556 C 733.122 3.9225 3.63378 0
M  V30 7557 C 734.422 4.93913 1.69844 0
M  V30 7558 H 736.116 2.90946 0.706468 0
M  V30 7559 H 733.662 1.39968 0.338385 0
M  V30 7560 H 735.615 2.8089 3.14132 0
M  V30 7561 H 734.339 1.60176 2.84625 0
M  V30 7562 H 732.998 3.31179 1.57213 0
M  V30 7563 H 732.646 3.0103 4.02976 0
M  V30 7564 H 732.346 4.69478 3.53362 0
M  V30 7565 H 733.87 4.27067 4.36401 0
M  V30 7566 H 735.284 5.24588 2.31258 0
M  V30 7567 H 733.681 5.75349 1.70569 0
M  V30 7568 H 734.751 4.80409 0.65843 0
M  V30 7569 N 736.094 -0.359525 1.53444 0
M  V30 7570 C 737.342 -1.09935 1.69584 0
M  V30 7571 C 737.663 -1.89656 0.453371 0
M  V30 7572 O 736.933 -1.8852 -0.53263 0
M  V30 7573 H 735.513 -0.408843 0.625185 0
M  V30 7574 H 738.175 -0.40467 1.90653 0
M  V30 7575 H 737.271 -1.78575 2.55964 0
M  V30 7576 N 737.572 -1.44907 -0.619662 0
M  V30 7577 C 738.502 -1.55488 -1.742 0
M  V30 7578 C 739.483 -0.407143 -1.65156 0
M  V30 7579 O 740.668 -0.628743 -1.8374 0
M  V30 7580 C 737.798 -1.5097 -3.1277 0
M  V30 7581 C 736.752 -2.64337 -3.36615 0
M  V30 7582 C 736.078 -2.44872 -4.75333 0
M  V30 7583 C 737.378 -4.06423 -3.28051 0
M  V30 7584 H 739.072 -2.49432 -1.65602 0
M  V30 7585 H 736.618 -1.20047 -0.795281 0
M  V30 7586 H 738.571 -1.56971 -3.91073 0
M  V30 7587 H 737.295 -0.535486 -3.2218 0
M  V30 7588 H 735.954 -2.57744 -2.60698 0
M  V30 7589 H 735.602 -1.45617 -4.81461 0
M  V30 7590 H 735.302 -3.20888 -4.92244 0
M  V30 7591 H 736.826 -2.52709 -5.55851 0
M  V30 7592 H 738.24 -4.14324 -3.96243 0
M  V30 7593 H 736.637 -4.82733 -3.56495 0
M  V30 7594 H 737.707 -4.29183 -2.25676 0
M  V30 7595 N 739.05 0.861098 -1.31996 0
M  V30 7596 C 739.982 1.97551 -1.16216 0
M  V30 7597 C 740.995 1.625 -0.0988527 0
M  V30 7598 O 742.184 1.75091 -0.3472 0
M  V30 7599 C 739.284 3.30376 -0.755307 0
M  V30 7600 C 738.457 3.93711 -1.90552 0
M  V30 7601 C 737.516 5.04862 -1.48328 0
M  V30 7602 O 736.542 5.25204 -2.19431 0
M  V30 7603 N 737.744 5.79283 -0.375656 0
M  V30 7604 H 740.509 2.11632 -2.12208 0
M  V30 7605 H 738.07 1.03559 -1.24448 0
M  V30 7606 H 740.062 4.0213 -0.455364 0
M  V30 7607 H 738.632 3.12395 0.113269 0
M  V30 7608 H 737.852 3.14825 -2.37231 0
M  V30 7609 H 739.14 4.32762 -2.67571 0
M  V30 7610 H 738.538 5.65286 0.216284 0
M  V30 7611 H 737.095 6.5166 -0.135289 0
M  V30 7612 N 740.528 1.15101 1.07655 0
M  V30 7613 C 741.753 0.948177 1.84457 0
M  V30 7614 C 742.178 -0.498432 1.81376 0
M  V30 7615 O 741.536 -1.35509 1.20445 0
M  V30 7616 C 741.584 1.46318 3.29581 0
M  V30 7617 O 740.688 0.660342 4.07079 0
M  V30 7618 H 740.029 0.338428 0.571281 0
M  V30 7619 H 742.559 1.5301 1.35828 0
M  V30 7620 H 742.569 1.47468 3.80417 0
M  V30 7621 H 741.244 2.51635 3.31138 0
M  V30 7622 H 739.821 0.718216 3.65918 0
M  V30 7623 N 742.006 -1.2595 0.947325 0
M  V30 7624 C 743.231 -1.98083 0.614633 0
M  V30 7625 C 743.656 -1.70013 -0.804815 0
M  V30 7626 O 743.014 -0.95175 -1.54309 0
M  V30 7627 C 743.062 -3.4993 0.870706 0
M  V30 7628 O 742.166 -4.12364 -0.0541451 0
M  V30 7629 H 741.507 -0.621232 0.234451 0
M  V30 7630 H 744.037 -1.60259 1.27193 0
M  V30 7631 H 744.047 -4.00198 0.794051 0
M  V30 7632 H 742.722 -3.69691 1.90529 0
M  V30 7633 H 741.299 -3.72826 0.0740917 0
M  V30 7634 N 743.484 -0.715051 -1.40445 0
M  V30 7635 C 744.724 -0.258742 -2.02756 0
M  V30 7636 C 745.088 1.12661 -1.55472 0
M  V30 7637 O 746.289 1.67988 -2.09842 0
M  V30 7638 C 744.56 -0.335201 -3.55825 0
M  V30 7639 S 746.119 0.044201 -4.38778 0
M  V30 7640 H 742.937 -0.102683 -0.703546 0
M  V30 7641 H 745.539 -0.937151 -1.71574 0
M  V30 7642 H 744.243 -1.34511 -3.87731 0
M  V30 7643 H 743.774 0.361705 -3.91734 0
M  V30 7644 H 745.789 1.26639 -4.79768 0
M  V30 7645 N 744.962 1.50701 -0.461195 0
M  V30 7646 C 746.187 2.07171 0.0974773 0
M  V30 7647 C 746.612 1.32391 1.3362 0
M  V30 7648 O 745.97 0.368676 1.77512 0
M  V30 7649 C 746.018 3.58651 0.374409 0
M  V30 7650 O 745.122 3.85816 1.4567 0
M  V30 7651 H 744.463 0.663944 -0.00862047 0
M  V30 7652 H 746.993 1.94021 -0.649394 0
M  V30 7653 H 747.003 4.03295 0.617843 0
M  V30 7654 H 745.678 4.12498 -0.530829 0
M  V30 7655 H 744.255 3.53018 1.20136 0
M  V30 7656 N 746.441 0.193421 1.56409 0
M  V30 7657 C 747.374 -0.767384 2.1491 0
M  V30 7658 C 748.352 -1.21075 1.08534 0
M  V30 7659 O 749.536 -1.29856 1.36637 0
M  V30 7660 C 746.663 -2.03615 2.70663 0
M  V30 7661 C 745.709 -1.73505 3.89613 0
M  V30 7662 S 746.542 -0.884645 5.28142 0
M  V30 7663 C 747.698 -2.1636 5.87315 0
M  V30 7664 H 747.931 -0.270053 2.96071 0
M  V30 7665 H 745.464 -0.0215546 1.54385 0
M  V30 7666 H 747.422 -2.7648 3.03429 0
M  V30 7667 H 746.083 -2.50461 1.89547 0
M  V30 7668 H 745.276 -2.67701 4.27027 0
M  V30 7669 H 744.878 -1.08723 3.57848 0
M  V30 7670 H 747.17 -3.11629 6.01576 0
M  V30 7671 H 748.113 -1.8338 6.83943 0
M  V30 7672 H 748.521 -2.29129 5.15907 0
M  V30 7673 N 747.919 -1.57396 -0.0801906 0
M  V30 7674 C 749.165 -1.87113 -0.782083 0
M  V30 7675 C 749.498 -0.78458 -1.77646 0
M  V30 7676 O 748.773 0.205993 -1.93406 0
M  V30 7677 C 749.056 -3.27483 -1.49756 0
M  V30 7678 C 748.909 -4.46782 -0.520171 0
M  V30 7679 C 750.228 -3.65965 -2.44454 0
M  V30 7680 H 747.347 -0.680559 -0.282858 0
M  V30 7681 H 749.989 -1.89946 -0.0454139 0
M  V30 7682 H 748.139 -3.25199 -2.12551 0
M  V30 7683 H 749.811 -4.61187 0.101919 0
M  V30 7684 H 748.054 -4.33485 0.165219 0
M  V30 7685 H 748.725 -5.41761 -1.05824 0
M  V30 7686 H 751.201 -3.69289 -1.91742 0
M  V30 7687 H 750.077 -4.65086 -2.91524 0
M  V30 7688 H 750.338 -2.95446 -3.28883 0
M  V30 7689 N 749.397 0.351382 -1.53633 0
M  V30 7690 C 750.36 1.41403 -1.80383 0
M  V30 7691 C 751.36 1.45963 -0.674635 0
M  V30 7692 O 752.55 1.46476 -0.942895 0
M  V30 7693 C 749.682 2.80401 -1.93876 0
M  V30 7694 H 750.875 1.18951 -2.75301 0
M  V30 7695 H 748.428 0.58533 -1.44926 0
M  V30 7696 H 749.163 3.08147 -1.01074 0
M  V30 7697 H 748.948 2.78488 -2.7602 0
M  V30 7698 H 750.438 3.57329 -2.16116 0
M  V30 7699 N 750.875 1.45233 0.611969 0
M  V30 7700 C 752.286 1.4354 1.19387 0
M  V30 7701 C 752.637 0.160713 1.95541 0
M  V30 7702 O 751.762 -0.737954 2.03429 0
M  V30 7703 C 752.357 2.60045 2.17169 0
M  V30 7704 C 750.916 2.61486 2.70744 0
M  V30 7705 C 750.063 2.35708 1.46072 0
M  V30 7706 H 753.014 1.53536 0.401529 0
M  V30 7707 H 753.035 2.33893 3.00124 0
M  V30 7708 H 752.547 3.52803 1.61714 0
M  V30 7709 H 750.648 1.72721 3.30149 0
M  V30 7710 H 750.761 3.60572 3.15476 0
M  V30 7711 H 749.125 1.85178 1.74875 0
M  V30 7712 H 749.908 3.30606 0.924922 0
M  V30 7713 N 752.353 -0.854086 1.3245 0
M  V30 7714 C 753.599 -1.6105 1.24235 0
M  V30 7715 C 753.954 -1.91421 -0.193877 0
M  V30 7716 O 753.247 -1.54599 -1.1318 0
M  V30 7717 C 753.441 -2.93746 2.03587 0
M  V30 7718 C 753.27 -2.76335 3.54781 0
M  V30 7719 C 752.04 -2.74687 4.24117 0
M  V30 7720 C 754.238 -2.50052 4.4942 0
M  V30 7721 N 752.22 -2.48493 5.6136 0
M  V30 7722 C 753.591 -2.33269 5.74444 0
M  V30 7723 C 755.646 -2.35525 4.38671 0
M  V30 7724 C 754.349 -2.03434 6.89933 0
M  V30 7725 C 756.375 -2.07081 5.5396 0
M  V30 7726 C 755.737 -1.91098 6.77983 0
M  V30 7727 H 751.836 -0.593008 0.50977 0
M  V30 7728 H 754.42 -1.00392 1.66822 0
M  V30 7729 H 752.591 -3.52382 1.63345 0
M  V30 7730 H 754.323 -3.58768 1.87263 0
M  V30 7731 H 751.078 -2.87647 3.7624 0
M  V30 7732 H 751.502 -2.38322 6.33665 0
M  V30 7733 H 756.144 -2.46602 3.43435 0
M  V30 7734 H 753.862 -1.91095 7.85181 0
M  V30 7735 H 757.448 -1.96618 5.4757 0
M  V30 7736 H 756.328 -1.69402 7.65684 0
M  V30 7737 N 753.831 -1.1567 -1.07043 0
M  V30 7738 C 755.08 -0.928039 -1.79082 0
M  V30 7739 C 755.393 0.545968 -1.87826 0
M  V30 7740 O 756.599 0.892308 -2.56418 0
M  V30 7741 C 755.055 -1.61103 -3.21829 0
M  V30 7742 C 754.663 -3.12228 -3.21275 0
M  V30 7743 C 756.407 -1.46404 -3.98455 0
M  V30 7744 C 754.314 -3.733 -4.58695 0
M  V30 7745 H 753.244 -0.34357 -0.671175 0
M  V30 7746 H 755.895 -1.38718 -1.20123 0
M  V30 7747 H 754.277 -1.07958 -3.81 0
M  V30 7748 H 755.451 -3.72155 -2.71731 0
M  V30 7749 H 753.766 -3.26725 -2.58147 0
M  V30 7750 H 756.363 -1.8942 -5.00024 0
M  V30 7751 H 756.706 -0.41195 -4.14257 0
M  V30 7752 H 757.239 -1.96663 -3.45787 0
M  V30 7753 H 753.978 -4.78423 -4.48098 0
M  V30 7754 H 753.498 -3.18157 -5.08465 0
M  V30 7755 H 755.177 -3.7441 -5.27661 0
M  V30 7756 N 755.309 1.25446 -0.953992 0
M  V30 7757 C 756.534 1.97755 -0.625129 0
M  V30 7758 C 756.959 1.70437 0.795787 0
M  V30 7759 O 756.317 0.95992 1.53803 0
M  V30 7760 C 756.365 3.49463 -0.889251 0
M  V30 7761 O 755.469 4.12387 0.0322757 0
M  V30 7762 H 754.81 0.61998 -0.237742 0
M  V30 7763 H 757.34 1.59582 -1.28041 0
M  V30 7764 H 757.35 3.99772 -0.815263 0
M  V30 7765 H 756.025 3.68676 -1.92487 0
M  V30 7766 H 754.602 3.72782 -0.0938625 0
M  V30 7767 N 756.787 0.722489 1.40064 0
M  V30 7768 C 757.735 0.063329 2.32514 0
M  V30 7769 C 758.729 -0.73953 1.52405 0
M  V30 7770 O 759.935 -0.642122 1.68157 0
M  V30 7771 H 756.31 0.00167692 0.751998 0
M  V30 7772 H 758.281 0.859656 2.85749 0
M  V30 7773 C 757.03 -0.839219 3.3742 0
M  V30 7774 H 756.353 -0.230836 3.99133 0
M  V30 7775 H 757.793 -1.26827 4.04587 0
M  V30 7776 C 756.252 -1.96783 2.73456 0
M  V30 7777 O 756.782 -3.05933 2.60323 0
M  V30 7778 N 754.988 -1.75351 2.31734 0
M  V30 7779 H 754.535 -0.865787 2.42615 0
M  V30 7780 H 754.493 -2.51043 1.89275 0
M  V30 7781 N 758.265 -1.50454 0.469181 0
M  V30 7782 C 759.493 -2.06729 -0.0842134 0
M  V30 7783 C 759.908 -1.33326 -1.33677 0
M  V30 7784 O 759.265 -0.401977 -1.78018 0
M  V30 7785 C 759.316 -3.59557 -0.374253 0
M  V30 7786 O 759.037 -4.30192 0.828622 0
M  V30 7787 C 760.538 -4.32449 -0.974824 0
M  V30 7788 H 757.758 -0.670971 0.006231 0
M  V30 7789 H 760.302 -1.93645 0.657415 0
M  V30 7790 H 758.457 -3.7245 -1.06581 0
M  V30 7791 H 758.871 -5.21371 0.572066 0
M  V30 7792 H 760.345 -5.40361 -1.12755 0
M  V30 7793 H 760.822 -3.92819 -1.96442 0
M  V30 7794 H 761.428 -4.24082 -0.321703 0
M  V30 7795 N 759.743 -0.201713 -1.56304 0
M  V30 7796 C 760.989 0.435952 -1.98059 0
M  V30 7797 C 761.322 1.60811 -1.08873 0
M  V30 7798 O 760.597 1.9398 -0.142128 0
M  V30 7799 C 760.88 0.889706 -3.48936 0
M  V30 7800 C 760.733 -0.284725 -4.48898 0
M  V30 7801 C 762.052 1.7529 -4.03685 0
M  V30 7802 H 759.171 0.15699 -0.720085 0
M  V30 7803 H 761.813 -0.293965 -1.87712 0
M  V30 7804 H 759.963 1.51166 -3.57884 0
M  V30 7805 H 761.635 -0.922531 -4.51981 0
M  V30 7806 H 759.878 -0.935427 -4.23594 0
M  V30 7807 H 760.549 0.0753865 -5.51949 0
M  V30 7808 H 763.025 1.2283 -3.97558 0
M  V30 7809 H 761.901 2.03933 -5.0961 0
M  V30 7810 H 762.162 2.70939 -3.49348 0
M  V30 7811 N 761.222 1.57436 0.0718424 0
M  V30 7812 C 762.452 1.91196 0.782795 0
M  V30 7813 C 762.86 0.795927 1.71644 0
M  V30 7814 O 762.203 -0.239604 1.82131 0
M  V30 7815 C 762.265 3.20421 1.63005 0
M  V30 7816 C 761.929 4.48724 0.865782 0
M  V30 7817 C 762.926 5.19571 0.185051 0
M  V30 7818 C 760.611 4.95345 0.832971 0
M  V30 7819 C 762.605 6.3529 -0.518264 0
M  V30 7820 C 760.292 6.1097 0.125884 0
M  V30 7821 C 761.29 6.80794 -0.548533 0
M  V30 7822 O 760.978 7.94213 -1.24423 0
M  V30 7823 H 760.71 0.636486 0.227731 0
M  V30 7824 H 763.264 2.05348 0.0464187 0
M  V30 7825 H 761.494 3.02478 2.40923 0
M  V30 7826 H 763.183 3.39831 2.21968 0
M  V30 7827 H 763.949 4.8458 0.201707 0
M  V30 7828 H 759.828 4.40871 1.34737 0
M  V30 7829 H 763.372 6.89725 -1.04523 0
M  V30 7830 H 759.269 6.45411 0.107155 0
M  V30 7831 H 760.037 8.10331 -1.1535 0
M  V30 7832 N 762.7 -0.34323 1.53817 0
M  V30 7833 C 764.116 -0.686355 1.44088 0
M  V30 7834 C 764.316 -1.92426 0.597882 0
M  V30 7835 O 763.372 -2.52343 0.0889918 0
M  V30 7836 C 764.685 -0.878698 2.87575 0
M  V30 7837 C 766.233 -0.977296 2.97352 0
M  V30 7838 C 766.708 -1.20195 4.41947 0
M  V30 7839 N 768.199 -1.26915 4.45474 0
M  V30 7840 C 768.934 -1.46049 5.54488 0
M  V30 7841 N 768.43 -1.62354 6.73508 0
M  V30 7842 N 770.223 -1.48599 5.42102 0
M  V30 7843 H 762.374 0.470679 2.07119 0
M  V30 7844 H 764.637 0.148652 0.936273 0
M  V30 7845 H 764.343 -0.040602 3.51677 0
M  V30 7846 H 764.217 -1.78034 3.32541 0
M  V30 7847 H 766.604 -1.80591 2.3339 0
M  V30 7848 H 766.685 -0.0525498 2.55746 0
M  V30 7849 H 766.329 -0.378262 5.06489 0
M  V30 7850 H 766.259 -2.14027 4.81145 0
M  V30 7851 H 768.75 -1.15837 3.59708 0
M  V30 7852 H 769.063 -1.76591 7.52353 0
M  V30 7853 H 767.408 -1.5949 6.76453 0
M  V30 7854 H 770.599 -1.35443 4.48077 0
M  V30 7855 H 770.772 -1.6317 6.2712 0
M  V30 7856 N 764.178 -1.45556 -0.604258 0
M  V30 7857 C 765.594 -1.30035 -0.925368 0
M  V30 7858 C 765.794 -0.255833 -1.99869 0
M  V30 7859 O 764.85 0.349076 -2.50075 0
M  V30 7860 C 766.163 -2.68028 -1.36314 0
M  V30 7861 C 767.711 -2.75951 -1.47717 0
M  V30 7862 C 768.186 -4.14476 -1.94868 0
M  V30 7863 N 769.677 -4.16787 -2.02097 0
M  V30 7864 C 770.412 -5.20845 -2.39809 0
M  V30 7865 N 769.908 -6.35246 -2.76467 0
M  V30 7866 N 771.701 -5.08204 -2.40177 0
M  V30 7867 H 763.852 -2.1214 0.10512 0
M  V30 7868 H 766.115 -0.947871 -0.0156303 0
M  V30 7869 H 765.821 -3.45667 -0.648628 0
M  V30 7870 H 765.695 -2.96711 -2.329 0
M  V30 7871 H 768.082 -1.98613 -2.18258 0
M  V30 7872 H 768.163 -2.50977 -0.494371 0
M  V30 7873 H 767.807 -4.923 -1.24912 0
M  V30 7874 H 767.737 -4.36843 -2.94068 0
M  V30 7875 H 770.228 -3.34233 -1.76343 0
M  V30 7876 H 770.541 -7.10438 -3.04134 0
M  V30 7877 H 768.886 -6.38642 -2.74155 0
M  V30 7878 H 772.077 -4.17874 -2.10947 0
M  V30 7879 H 772.25 -5.89417 -2.69242 0
M  V30 7880 N 765.656 0.84705 -1.32902 0
M  V30 7881 C 766.896 1.61554 -1.25218 0
M  V30 7882 C 767.26 1.91141 0.18143 0
M  V30 7883 O 768.461 2.6607 0.382106 0
M  V30 7884 C 766.732 2.89553 -2.09509 0
M  V30 7885 S 768.291 3.80283 -2.18931 0
M  V30 7886 H 765.109 0.554031 -0.445613 0
M  V30 7887 H 767.711 1.00251 -1.67839 0
M  V30 7888 H 766.415 2.65776 -3.12716 0
M  V30 7889 H 765.946 3.55868 -1.67694 0
M  V30 7890 H 767.961 4.77641 -1.34438 0
M  V30 7891 N 767.134 1.16236 1.06428 0
M  V30 7892 C 768.097 0.870163 2.1204 0
M  V30 7893 C 769.097 -0.134239 1.60239 0
M  V30 7894 O 770.287 0.0964932 1.73933 0
M  V30 7895 C 767.419 0.301033 3.39568 0
M  V30 7896 H 768.612 1.8064 2.39394 0
M  V30 7897 H 766.165 0.971116 1.2247 0
M  V30 7898 H 766.9 -0.642948 3.17863 0
M  V30 7899 H 766.685 1.02475 3.78472 0
M  V30 7900 H 768.175 0.114494 4.17443 0
M  V30 7901 N 768.612 -1.24939 0.960631 0
M  V30 7902 C 770.028 -1.45039 0.666018 0
M  V30 7903 C 770.228 -1.86021 -0.774501 0
M  V30 7904 O 769.284 -1.99392 -1.54916 0
M  V30 7905 C 770.597 -2.51775 1.64408 0
M  V30 7906 C 772.145 -2.6561 1.65592 0
M  V30 7907 C 772.62 -3.75536 2.62177 0
M  V30 7908 N 774.111 -3.82954 2.60577 0
M  V30 7909 C 774.846 -4.67517 3.31987 0
M  V30 7910 N 774.342 -5.56321 4.1289 0
M  V30 7911 N 776.135 -4.61535 3.20845 0
M  V30 7912 H 768.286 -0.96632 1.89145 0
M  V30 7913 H 770.549 -0.486034 0.813926 0
M  V30 7914 H 770.255 -2.28534 2.67329 0
M  V30 7915 H 770.129 -3.49804 1.41128 0
M  V30 7916 H 772.516 -2.88212 0.633846 0
M  V30 7917 H 772.597 -1.67962 1.92931 0
M  V30 7918 H 772.241 -3.53684 3.64514 0
M  V30 7919 H 772.171 -4.72682 2.32119 0
M  V30 7920 H 774.662 -3.19478 2.01847 0
M  V30 7921 H 774.975 -6.17787 4.64283 0
M  V30 7922 H 773.32 -5.5601 4.16987 0
M  V30 7923 H 776.511 -3.91169 2.57108 0
M  V30 7924 H 776.684 -5.27214 3.76762 0
M  V30 7925 N 770.09 -0.729906 -1.39679 0
M  V30 7926 C 771.367 -0.202149 -1.94553 0
M  V30 7927 C 771.747 1.29507 -1.66707 0
M  V30 7928 O 771.095 2.05819 -0.992517 0
M  V30 7929 C 771.305 -0.530279 -3.44948 0
M  V30 7930 C 772.653 -0.476808 -4.21914 0
M  V30 7931 O 773.677 -0.467171 -3.53123 0
M  V30 7932 O 772.536 -0.466869 -5.44502 0
M  V30 7933 H 769.63 -0.0351644 -0.826252 0
M  V30 7934 H 772.176 -0.808417 -1.49207 0
M  V30 7935 H 770.948 -1.56526 -3.5863 0
M  V30 7936 H 770.571 0.10522 -3.97461 0
M  V30 7937 N 771.568 1.50203 -0.477153 0
M  V30 7938 C 772.845 1.95115 0.137609 0
M  V30 7939 C 773.225 1.41778 1.56404 0
M  V30 7940 O 772.573 0.621333 2.1989 0
M  V30 7941 C 772.783 3.4892 0.0747168 0
M  V30 7942 C 774.131 4.238 0.260585 0
M  V30 7943 O 775.155 3.5588 0.151021 0
M  V30 7944 O 774.014 5.44366 0.482534 0
M  V30 7945 H 771.108 0.81987 0.108364 0
M  V30 7946 H 773.654 1.60946 -0.537989 0
M  V30 7947 H 772.426 3.80308 -0.920966 0
M  V30 7948 H 772.049 3.89642 0.791509 0
M  V30 7949 N 773.046 0.209999 1.56195 0
M  V30 7950 C 774.293 -0.424813 1.97994 0
M  V30 7951 C 774.621 -1.60589 1.09733 0
M  V30 7952 O 773.876 -1.95201 0.139693 0
M  V30 7953 C 774.175 -0.91312 3.45539 0
M  V30 7954 C 773.841 0.156187 4.50629 0
M  V30 7955 C 772.503 0.449966 4.79092 0
M  V30 7956 C 774.855 0.879959 5.13718 0
M  V30 7957 C 772.183 1.47223 5.67928 0
M  V30 7958 C 774.535 1.89148 6.0366 0
M  V30 7959 C 773.199 2.1923 6.30472 0
M  V30 7960 H 772.469 -0.15545 0.724511 0
M  V30 7961 H 775.116 0.310095 1.88973 0
M  V30 7962 H 773.421 -1.72658 3.51705 0
M  V30 7963 H 775.118 -1.41395 3.75245 0
M  V30 7964 H 771.708 -0.0829466 4.2852 0
M  V30 7965 H 775.892 0.66623 4.91808 0
M  V30 7966 H 771.148 1.71105 5.86969 0
M  V30 7967 H 775.322 2.45745 6.516 0
M  V30 7968 H 772.949 2.98587 6.99107 0
M  V30 7969 N 774.524 -1.57472 -0.0634922 0
M  V30 7970 C 775.752 -1.91887 -0.773767 0
M  V30 7971 C 776.167 -0.806733 -1.70696 0
M  V30 7972 O 775.524 0.219383 -1.81177 0
M  V30 7973 C 775.575 -3.26092 -1.56034 0
M  V30 7974 O 775.296 -4.33029 -0.66464 0
M  V30 7975 C 776.797 -3.74573 -2.37087 0
M  V30 7976 H 774.017 -0.634074 -0.219525 0
M  V30 7977 H 776.561 -2.04476 -0.0312828 0
M  V30 7978 H 774.716 -3.15004 -2.25502 0
M  V30 7979 H 775.13 -5.10291 -1.21258 0
M  V30 7980 H 776.604 -4.71084 -2.87722 0
M  V30 7981 H 777.081 -3.04003 -3.16984 0
M  V30 7982 H 777.687 -3.88631 -1.72759 0
M  V30 7983 N 776.003 0.335068 -1.53997 0
M  V30 7984 C 776.913 1.43511 -1.85585 0
M  V30 7985 C 777.929 1.57162 -0.746726 0
M  V30 7986 O 779.105 1.72477 -1.03988 0
M  V30 7987 C 776.17 2.78386 -2.06646 0
M  V30 7988 C 775.231 2.74007 -3.30483 0
M  V30 7989 C 774.464 4.02449 -3.50529 0
M  V30 7990 O 774.687 5.00147 -2.74242 0
M  V30 7991 O 773.621 4.06405 -4.4398 0
M  V30 7992 H 777.447 1.19731 -2.79102 0
M  V30 7993 H 775.032 0.528033 -1.39758 0
M  V30 7994 H 776.914 3.58247 -2.21894 0
M  V30 7995 H 775.589 3.0208 -1.16317 0
M  V30 7996 H 774.496 1.92736 -3.2063 0
M  V30 7997 H 775.829 2.55267 -4.20832 0
M  V30 7998 N 777.481 1.45874 0.596531 0
M  V30 7999 C 778.729 1.5017 1.35253 0
M  V30 8000 C 779.05 0.149246 1.94428 0
M  V30 8001 O 778.32 -0.82268 1.77789 0
M  V30 8002 H 776.9 0.553052 0.502138 0
M  V30 8003 H 779.562 1.81908 0.699671 0
M  V30 8004 H 778.658 2.24671 2.16632 0
M  V30 8005 N 778.959 -0.83999 1.33349 0
M  V30 8006 C 780.207 -1.59202 1.24496 0
M  V30 8007 C 780.528 -1.94077 -0.189499 0
M  V30 8008 O 779.798 -1.60868 -1.11796 0
M  V30 8009 H 778.378 -0.590276 0.457802 0
M  V30 8010 H 781.04 -1.00394 1.67054 0
M  V30 8011 H 780.136 -2.52247 1.83788 0
M  V30 8012 N 780.437 -1.16799 -1.0581 0
M  V30 8013 C 781.684 -0.952524 -1.78699 0
M  V30 8014 C 782.012 0.51931 -1.87439 0
M  V30 8015 O 781.267 1.40151 -1.36587 0
M  V30 8016 C 781.566 -1.53111 -3.22942 0
M  V30 8017 C 781.232 -3.0261 -3.34273 0
M  V30 8018 C 779.894 -3.43418 -3.37072 0
M  V30 8019 C 782.246 -3.98611 -3.35795 0
M  V30 8020 C 779.574 -4.78838 -3.39015 0
M  V30 8021 C 781.926 -5.33923 -3.39277 0
M  V30 8022 C 780.59 -5.74205 -3.40361 0
M  V30 8023 H 779.86 -0.348553 -0.653905 0
M  V30 8024 H 782.507 -1.45591 -1.244 0
M  V30 8025 H 780.812 -0.949286 -3.80126 0
M  V30 8026 H 782.509 -1.34002 -3.77948 0
M  V30 8027 H 779.099 -2.70075 -3.32803 0
M  V30 8028 H 783.283 -3.68146 -3.32839 0
M  V30 8029 H 778.539 -5.09369 -3.38161 0
M  V30 8030 H 782.713 -6.08094 -3.39403 0
M  V30 8031 H 780.34 -6.79117 -3.4162 0
M  V30 8032 N 781.915 1.24427 -0.967243 0
M  V30 8033 C 783.164 1.91789 -0.624478 0
M  V30 8034 C 783.477 1.76448 0.844129 0
M  V30 8035 O 784.683 2.38495 1.2974 0
M  V30 8036 C 783.139 3.43743 -1.06626 0
M  V30 8037 C 782.747 3.67771 -2.55829 0
M  V30 8038 C 784.491 4.16958 -0.79662 0
M  V30 8039 C 782.398 5.13293 -2.93742 0
M  V30 8040 H 781.328 0.71811 -0.229856 0
M  V30 8041 H 783.979 1.41081 -1.17339 0
M  V30 8042 H 782.361 3.93484 -0.445663 0
M  V30 8043 H 783.535 3.28631 -3.23015 0
M  V30 8044 H 781.85 3.07841 -2.80398 0
M  V30 8045 H 784.447 5.24171 -1.05589 0
M  V30 8046 H 784.79 4.15442 0.267163 0
M  V30 8047 H 785.323 3.73164 -1.37816 0
M  V30 8048 H 782.062 5.19931 -3.9919 0
M  V30 8049 H 781.582 5.53433 -2.3124 0
M  V30 8050 H 783.261 5.81521 -2.83623 0
M  V30 8051 N 783.393 0.737304 1.3929 0
M  V30 8052 C 784.621 0.296573 2.04763 0
M  V30 8053 C 785.036 -1.06941 1.55592 0
M  V30 8054 O 784.393 -1.67619 0.721822 0
M  V30 8055 C 784.444 0.291906 3.6032 0
M  V30 8056 O 784.165 1.60397 4.07682 0
M  V30 8057 C 785.666 -0.164708 4.42994 0
M  V30 8058 H 782.886 0.129251 0.658434 0
M  V30 8059 H 785.43 1.0016 1.78293 0
M  V30 8060 H 783.585 -0.364251 3.85684 0
M  V30 8061 H 783.999 1.51909 5.0202 0
M  V30 8062 H 785.473 -0.116814 5.51876 0
M  V30 8063 H 785.95 -1.21022 4.22197 0
M  V30 8064 H 786.556 0.461968 4.22784 0
M  V30 8065 N 784.871 -1.49948 0.485112 0
M  V30 8066 C 786.111 -2.04301 -0.0635728 0
M  V30 8067 C 786.475 -1.35804 -1.35725 0
M  V30 8068 O 787.676 -1.80789 -1.98919 0
M  V30 8069 C 785.947 -3.56666 -0.228962 0
M  V30 8070 S 787.506 -4.32614 -0.734185 0
M  V30 8071 H 784.324 -0.710939 -0.00931895 0
M  V30 8072 H 786.926 -1.84185 0.655455 0
M  V30 8073 H 785.63 -4.04068 0.718148 0
M  V30 8074 H 785.161 -3.8116 -0.973696 0
M  V30 8075 H 787.176 -4.53859 -2.00565 0
M  V30 8076 N 786.349 -0.21828 -1.56081 0
M  V30 8077 C 787.596 0.414307 -1.98216 0
M  V30 8078 C 787.924 1.60005 -1.10584 0
M  V30 8079 O 787.179 1.95124 -0.150043 0
M  V30 8080 C 787.478 0.894782 -3.46018 0
M  V30 8081 C 787.144 -0.180083 -4.5054 0
M  V30 8082 C 785.806 -0.475367 -4.78846 0
M  V30 8083 C 788.158 -0.907191 -5.13244 0
M  V30 8084 C 785.486 -1.50233 -5.67139 0
M  V30 8085 C 787.838 -1.92347 -6.02649 0
M  V30 8086 C 786.502 -2.22571 -6.293 0
M  V30 8087 H 785.772 0.151606 -0.725325 0
M  V30 8088 H 788.419 -0.320113 -1.88806 0
M  V30 8089 H 786.724 1.7079 -3.52616 0
M  V30 8090 H 788.421 1.39403 -3.75989 0
M  V30 8091 H 785.011 0.06022 -4.28558 0
M  V30 8092 H 789.195 -0.692303 -4.91448 0
M  V30 8093 H 784.451 -1.74215 -5.86054 0
M  V30 8094 H 788.625 -2.49197 -6.50288 0
M  V30 8095 H 786.252 -3.0229 -6.97513 0
M  V30 8096 N 787.827 1.57504 0.0551401 0
M  V30 8097 C 789.057 1.92015 0.762472 0
M  V30 8098 C 789.465 0.814088 1.7079 0
M  V30 8099 O 788.808 -0.220273 1.82375 0
M  V30 8100 C 788.87 3.22132 1.59598 0
M  V30 8101 C 788.534 4.49617 0.818141 0
M  V30 8102 C 789.531 5.19738 0.129933 0
M  V30 8103 C 787.216 4.96201 0.780387 0
M  V30 8104 C 789.21 6.34704 -0.585616 0
M  V30 8105 C 786.897 6.11069 0.0610756 0
M  V30 8106 C 787.895 6.80174 -0.62071 0
M  V30 8107 O 787.583 7.92849 -1.3284 0
M  V30 8108 H 787.315 0.638866 0.220967 0
M  V30 8109 H 789.869 2.05385 0.0246362 0
M  V30 8110 H 788.099 3.05016 2.37701 0
M  V30 8111 H 789.788 3.42166 2.18351 0
M  V30 8112 H 790.554 4.84767 0.150299 0
M  V30 8113 H 786.433 4.42275 1.30054 0
M  V30 8114 H 789.977 6.88578 -1.11833 0
M  V30 8115 H 785.874 6.45488 0.0386945 0
M  V30 8116 H 786.642 8.09062 -1.23938 0
M  V30 8117 N 789.305 -0.326896 1.54172 0
M  V30 8118 C 790.237 -1.42319 1.79661 0
M  V30 8119 C 791.25 -1.47989 0.678456 0
M  V30 8120 O 792.439 -1.50773 0.955503 0
M  V30 8121 C 789.539 -2.80876 1.89636 0
M  V30 8122 C 788.712 -2.98449 3.19761 0
M  V30 8123 C 787.771 -4.17347 3.2048 0
M  V30 8124 O 786.797 -4.10667 3.94134 0
M  V30 8125 N 787.999 -5.26717 2.44027 0
M  V30 8126 H 790.764 -1.20819 2.74268 0
M  V30 8127 H 788.325 -0.516866 1.53428 0
M  V30 8128 H 790.317 -3.58619 1.87549 0
M  V30 8129 H 788.887 -2.95442 1.02141 0
M  V30 8130 H 788.107 -2.08035 3.34836 0
M  V30 8131 H 789.395 -3.07083 4.05681 0
M  V30 8132 H 788.793 -5.35019 1.8377 0
M  V30 8133 H 787.35 -6.02891 2.47721 0
M  V30 8134 N 790.784 -1.46188 -0.588786 0
M  V30 8135 C 792.012 -1.54743 -1.37339 0
M  V30 8136 C 792.427 -0.186446 -1.87877 0
M  V30 8137 O 791.784 0.815247 -1.63279 0
M  V30 8138 C 791.835 -2.54727 -2.56508 0
M  V30 8139 O 791.556 -3.85539 -2.08066 0
M  V30 8140 C 793.057 -2.73163 -3.49137 0
M  V30 8141 H 790.277 -0.523484 -0.419768 0
M  V30 8142 H 792.821 -1.91543 -0.716345 0
M  V30 8143 H 790.976 -2.20948 -3.18215 0
M  V30 8144 H 791.39 -4.39905 -2.85629 0
M  V30 8145 H 792.864 -3.47057 -4.2925 0
M  V30 8146 H 793.341 -1.79856 -4.00685 0
M  V30 8147 H 793.947 -3.08014 -2.9327 0
M  V30 8148 N 792.262 0.832906 -1.33792 0
M  V30 8149 C 793.678 1.1245 -1.13257 0
M  V30 8150 C 793.878 2.01369 0.0725832 0
M  V30 8151 O 792.934 2.41071 0.751082 0
M  V30 8152 C 794.247 1.78084 -2.42294 0
M  V30 8153 C 795.795 1.90624 -2.48257 0
M  V30 8154 C 796.27 2.59673 -3.77271 0
M  V30 8155 N 797.761 2.67181 -3.78376 0
M  V30 8156 C 798.496 3.21313 -4.74916 0
M  V30 8157 N 797.992 3.76086 -5.81835 0
M  V30 8158 N 799.785 3.19621 -4.62384 0
M  V30 8159 H 791.936 0.241244 -2.11026 0
M  V30 8160 H 794.199 0.169557 -0.932713 0
M  V30 8161 H 793.905 1.20209 -3.30519 0
M  V30 8162 H 793.779 2.78049 -2.5489 0
M  V30 8163 H 796.166 2.4765 -1.60478 0
M  V30 8164 H 796.247 0.89591 -2.39598 0
M  V30 8165 H 795.891 2.03304 -4.65435 0
M  V30 8166 H 795.821 3.61189 -3.8321 0
M  V30 8167 H 798.312 2.28346 -3.01108 0
M  V30 8168 H 798.625 4.15612 -6.51526 0
M  V30 8169 H 796.97 3.74357 -5.85561 0
M  V30 8170 H 800.161 2.76091 -3.7801 0
M  V30 8171 H 800.334 3.61504 -5.37791 0
M  V30 8172 N 793.74 1.17359 1.05189 0
M  V30 8173 C 794.989 0.956412 1.77583 0
M  V30 8174 C 795.302 -0.516018 1.88671 0
M  V30 8175 O 796.508 -0.851401 2.57805 0
M  V30 8176 C 794.964 1.66203 3.19225 0
M  V30 8177 C 794.572 3.17299 3.16267 0
M  V30 8178 C 796.316 1.52725 3.96075 0
M  V30 8179 C 794.223 3.8055 4.52698 0
M  V30 8180 H 793.153 0.354204 0.665624 0
M  V30 8181 H 795.804 1.40612 1.17901 0
M  V30 8182 H 794.186 1.14006 3.79234 0
M  V30 8183 H 795.36 3.76431 2.65776 0
M  V30 8184 H 793.675 3.3079 2.52917 0
M  V30 8185 H 796.272 1.97351 4.96947 0
M  V30 8186 H 796.615 0.477803 4.13549 0
M  V30 8187 H 797.148 2.02139 3.42614 0
M  V30 8188 H 793.887 4.85492 4.4043 0
M  V30 8189 H 793.407 3.26206 5.03339 0
M  V30 8190 H 795.086 3.82757 5.21638 0
M  V30 8191 N 795.218 -1.23913 0.973828 0
M  V30 8192 C 796.464 -1.92436 0.640026 0
M  V30 8193 C 796.797 -1.75875 -0.823512 0
M  V30 8194 O 796.072 -1.11563 -1.59323 0
M  V30 8195 C 796.355 -3.4526 1.0231 0
M  V30 8196 C 796.208 -3.70961 2.54378 0
M  V30 8197 C 797.527 -4.36495 0.562155 0
M  V30 8198 H 794.646 -0.698868 0.233992 0
M  V30 8199 H 797.288 -1.46163 1.21393 0
M  V30 8200 H 795.438 -3.84802 0.534751 0
M  V30 8201 H 797.11 -3.40941 3.10737 0
M  V30 8202 H 795.353 -3.15899 2.97305 0
M  V30 8203 H 796.024 -4.77912 2.76232 0
M  V30 8204 H 798.5 -4.04363 0.981333 0
M  V30 8205 H 797.376 -5.42142 0.858689 0
M  V30 8206 H 797.637 -4.38818 -0.537659 0
M  V30 8207 N 796.696 -0.74468 -1.38897 0
M  V30 8208 C 797.942 -0.297324 -2.00609 0
M  V30 8209 C 798.275 1.11547 -1.58968 0
M  V30 8210 O 797.55 1.76227 -0.823057 0
M  V30 8211 C 797.833 -0.410125 -3.57757 0
M  V30 8212 C 797.686 -1.86338 -4.09387 0
M  V30 8213 C 799.005 0.20176 -4.39637 0
M  V30 8214 H 796.124 -0.109509 -0.728819 0
M  V30 8215 H 798.766 -0.942653 -1.64967 0
M  V30 8216 H 796.916 0.139287 -3.8825 0
M  V30 8217 H 798.588 -2.47042 -3.89574 0
M  V30 8218 H 796.831 -2.38146 -3.62586 0
M  V30 8219 H 797.502 -1.89352 -5.18507 0
M  V30 8220 H 799.978 -0.266703 -4.15244 0
M  V30 8221 H 798.854 0.0925415 -5.48822 0
M  V30 8222 H 799.115 1.289 -4.22891 0
M  V30 8223 N 798.174 1.49689 -0.493057 0
M  V30 8224 C 799.585 1.8665 -0.0433032 0
M  V30 8225 C 799.936 1.40607 1.36836 0
M  V30 8226 O 799.061 0.780503 2.01834 0
M  V30 8227 C 799.656 3.38724 -0.0718069 0
M  V30 8228 C 798.215 3.75015 0.32257 0
M  V30 8229 C 797.362 2.7366 -0.4478 0
M  V30 8230 H 800.313 1.42119 -0.706246 0
M  V30 8231 H 800.334 3.73522 0.725347 0
M  V30 8232 H 799.846 3.72204 -1.09935 0
M  V30 8233 H 797.947 3.47142 1.35364 0
M  V30 8234 H 798.06 4.79099 0.00864259 0
M  V30 8235 H 796.424 2.54498 0.101354 0
M  V30 8236 H 797.207 3.09985 -1.47527 0
M  V30 8237 N 799.652 0.226554 1.55963 0
M  V30 8238 C 800.615 -0.668015 2.19249 0
M  V30 8239 C 801.615 -1.11794 1.1558 0
M  V30 8240 O 802.805 -1.02593 1.40784 0
M  V30 8241 C 799.937 -1.91571 2.81981 0
M  V30 8242 H 801.13 -0.116175 2.99675 0
M  V30 8243 H 798.683 -0.0230497 1.56283 0
M  V30 8244 H 799.418 -2.50929 2.05439 0
M  V30 8245 H 799.203 -1.6015 3.57903 0
M  V30 8246 H 800.693 -2.55294 3.30477 0
M  V30 8247 N 801.13 -1.57531 -0.0467866 0
M  V30 8248 C 802.355 -1.93087 -0.757123 0
M  V30 8249 C 802.78 -0.825116 -1.69037 0
M  V30 8250 O 802.138 0.220449 -1.79955 0
M  V30 8251 C 802.186 -3.27669 -1.5055 0
M  V30 8252 O 801.29 -3.18667 -2.61773 0
M  V30 8253 H 800.631 -0.631597 -0.204892 0
M  V30 8254 H 803.161 -2.04599 -0.00755232 0
M  V30 8255 H 803.171 -3.6214 -1.87932 0
M  V30 8256 H 801.846 -4.07717 -0.820931 0
M  V30 8257 H 800.423 -2.95798 -2.27064 0
M  V30 8258 N 802.608 0.318715 -1.54344 0
M  V30 8259 C 803.836 1.0755 -1.7675 0
M  V30 8260 C 804.251 1.81543 -0.518422 0
M  V30 8261 O 803.608 1.75198 0.511078 0
M  V30 8262 C 803.659 2.06983 -2.96378 0
M  V30 8263 O 803.38 1.35995 -4.16458 0
M  V30 8264 C 804.881 2.94841 -3.31034 0
M  V30 8265 H 802.101 0.319711 -0.589937 0
M  V30 8266 H 804.645 0.363369 -2.01246 0
M  V30 8267 H 802.8 2.73724 -2.74142 0
M  V30 8268 H 803.214 2.02623 -4.83781 0
M  V30 8269 H 804.688 3.60496 -4.18027 0
M  V30 8270 H 805.165 3.62199 -2.48412 0
M  V30 8271 H 805.771 2.33656 -3.55366 0
M  V30 8272 N 804.086 1.46499 0.581025 0
M  V30 8273 C 805.497 1.4604 1.16315 0
M  V30 8274 C 805.848 0.202154 1.95156 0
M  V30 8275 O 804.973 -0.694638 2.04948 0
M  V30 8276 C 805.568 2.64593 2.11604 0
M  V30 8277 C 804.127 2.6717 2.65136 0
M  V30 8278 C 803.274 2.38753 1.4104 0
M  V30 8279 H 806.225 1.54354 0.368871 0
M  V30 8280 H 806.246 2.40207 2.95095 0
M  V30 8281 H 805.758 3.56154 1.54194 0
M  V30 8282 H 803.859 1.79685 3.26411 0
M  V30 8283 H 803.972 3.67182 3.07757 0
M  V30 8284 H 802.336 1.88845 1.70908 0
M  V30 8285 H 803.119 3.32493 0.854588 0
M  V30 8286 N 805.565 -0.825799 1.34232 0
M  V30 8287 C 806.793 -1.61363 1.29497 0
M  V30 8288 C 807.208 -1.88341 -0.131536 0
M  V30 8289 O 806.565 -1.47279 -1.07773 0
M  V30 8290 C 806.616 -2.95623 2.08061 0
M  V30 8291 O 806.337 -2.69824 3.45147 0
M  V30 8292 C 807.838 -3.90032 2.10688 0
M  V30 8293 H 805.058 -0.501676 0.445603 0
M  V30 8294 H 807.602 -1.02767 1.76803 0
M  V30 8295 H 805.757 -3.50785 1.64404 0
M  V30 8296 H 806.171 -3.55412 3.85723 0
M  V30 8297 H 807.645 -4.81411 2.70087 0
M  V30 8298 H 808.122 -4.25188 1.10052 0
M  V30 8299 H 808.728 -3.40807 2.54422 0
M  V30 8300 N 807.043 -1.17915 -1.04565 0
M  V30 8301 C 808.268 -0.996749 -1.81878 0
M  V30 8302 C 808.693 0.450169 -1.82634 0
M  V30 8303 O 808.051 1.32268 -1.23995 0
M  V30 8304 C 808.099 -1.55005 -3.25585 0
M  V30 8305 O 807.203 -0.76804 -4.05185 0
M  V30 8306 H 806.544 -0.353456 -0.562108 0
M  V30 8307 H 809.074 -1.56557 -1.31723 0
M  V30 8308 H 809.084 -1.57503 -3.76373 0
M  V30 8309 H 807.759 -2.60327 -3.2435 0
M  V30 8310 H 806.336 -0.81498 -3.63885 0
M  V30 8311 N 808.521 1.23394 -0.980386 0
M  V30 8312 C 809.454 2.23404 -0.465404 0
M  V30 8313 C 810.432 1.55735 0.467471 0
M  V30 8314 O 811.616 1.84295 0.395921 0
M  V30 8315 C 808.743 3.3712 0.32672 0
M  V30 8316 C 807.789 4.22935 -0.550296 0
M  V30 8317 S 808.622 4.96824 -1.99814 0
M  V30 8318 C 809.778 6.13991 -1.21516 0
M  V30 8319 H 810.011 2.6674 -1.31289 0
M  V30 8320 H 807.544 1.32874 -0.78638 0
M  V30 8321 H 809.502 4.03065 0.777738 0
M  V30 8322 H 808.163 2.92317 1.14933 0
M  V30 8323 H 807.356 5.03966 0.0585298 0
M  V30 8324 H 806.958 3.62058 -0.937558 0
M  V30 8325 H 809.25 6.75822 -0.476476 0
M  V30 8326 H 810.193 6.7926 -2.0003 0
M  V30 8327 H 810.601 5.59708 -0.733949 0
M  V30 8328 N 809.999 0.752036 1.385 0
M  V30 8329 C 811.246 0.307503 2.00152 0
M  V30 8330 C 811.574 -1.11033 1.59693 0
M  V30 8331 O 810.829 -1.77455 0.825125 0
M  V30 8332 C 811.128 0.376155 3.55415 0
M  V30 8333 C 810.794 1.74942 4.15579 0
M  V30 8334 C 809.456 2.12525 4.31725 0
M  V30 8335 C 811.808 2.65031 4.48785 0
M  V30 8336 C 809.136 3.39671 4.78373 0
M  V30 8337 C 811.488 3.91567 4.96848 0
M  V30 8338 C 810.152 4.2922 5.11201 0
M  V30 8339 H 809.422 0.112523 0.732407 0
M  V30 8340 H 812.069 0.962213 1.65571 0
M  V30 8341 H 810.374 -0.362121 3.90123 0
M  V30 8342 H 812.071 0.0138065 4.00998 0
M  V30 8343 H 808.661 1.44726 4.03426 0
M  V30 8344 H 812.845 2.3726 4.35914 0
M  V30 8345 H 808.101 3.68765 4.8767 0
M  V30 8346 H 812.275 4.61517 5.21512 0
M  V30 8347 H 809.902 5.27805 5.47107 0
M  V30 8348 N 811.477 -1.49425 0.500989 0
M  V30 8349 C 812.41 -2.25887 -0.324087 0
M  V30 8350 C 813.388 -1.30469 -0.970388 0
M  V30 8351 O 814.572 -1.59758 -1.00049 0
M  V30 8352 C 811.699 -3.05787 -1.45643 0
M  V30 8353 C 810.745 -4.16359 -0.924508 0
M  V30 8354 S 811.578 -5.35181 0.184707 0
M  V30 8355 C 812.734 -6.18636 -0.950806 0
M  V30 8356 H 812.967 -2.95519 0.324891 0
M  V30 8357 H 810.5 -1.51723 0.286289 0
M  V30 8358 H 812.458 -3.52405 -2.10525 0
M  V30 8359 H 811.119 -2.35624 -2.07703 0
M  V30 8360 H 810.312 -4.71781 -1.77311 0
M  V30 8361 H 809.914 -3.72331 -0.352907 0
M  V30 8362 H 812.206 -6.51581 -1.85603 0
M  V30 8363 H 813.149 -7.06761 -0.435212 0
M  V30 8364 H 813.557 -5.512 -1.21813 0
M  V30 8365 N 812.955 -0.234822 -1.55841 0
M  V30 8366 C 813.885 0.664217 -2.23854 0
M  V30 8367 C 814.866 1.19076 -1.2147 0
M  V30 8368 O 816.051 1.23232 -1.50091 0
M  V30 8369 C 813.181 1.86666 -2.9287 0
M  V30 8370 C 812.135 1.47341 -4.01839 0
M  V30 8371 C 811.461 2.75571 -4.58219 0
M  V30 8372 C 812.761 0.653479 -5.18196 0
M  V30 8373 H 814.455 0.0971213 -2.99242 0
M  V30 8374 H 812.001 0.0452724 -1.43929 0
M  V30 8375 H 813.954 2.50116 -3.39146 0
M  V30 8376 H 812.678 2.45894 -2.1495 0
M  V30 8377 H 811.337 0.862314 -3.56314 0
M  V30 8378 H 810.985 3.32971 -3.77014 0
M  V30 8379 H 810.685 2.49987 -5.31771 0
M  V30 8380 H 812.209 3.39939 -5.07221 0
M  V30 8381 H 813.623 1.19198 -5.60771 0
M  V30 8382 H 812.02 0.494188 -5.98062 0
M  V30 8383 H 813.09 -0.337004 -4.83728 0
M  V30 8384 N 814.433 1.57553 0.0384317 0
M  V30 8385 C 815.681 1.88468 0.729672 0
M  V30 8386 C 816.002 0.831302 1.76393 0
M  V30 8387 O 815.272 -0.13622 1.95426 0
M  V30 8388 H 813.852 0.695529 0.272485 0
M  V30 8389 H 816.514 1.94899 0.0066032 0
M  V30 8390 H 815.61 2.8705 1.22511 0
M  V30 8391 N 815.911 -0.310526 1.54511 0
M  V30 8392 C 817.158 -1.04691 1.73338 0
M  V30 8393 C 817.486 -1.87584 0.514038 0
M  V30 8394 O 816.741 -1.89096 -0.504119 0
M  V30 8395 C 817.04 -1.98942 2.96912 0
M  V30 8396 C 816.706 -1.321 4.31115 0
M  V30 8397 C 815.368 -1.13603 4.67598 0
M  V30 8398 C 817.72 -0.842362 5.14348 0
M  V30 8399 C 815.048 -0.459102 5.84901 0
M  V30 8400 C 817.4 -0.179202 6.32346 0
M  V30 8401 C 816.064 0.0178111 6.67498 0
M  V30 8402 H 815.334 -0.38309 0.634289 0
M  V30 8403 H 817.981 -0.322723 1.88761 0
M  V30 8404 H 816.286 -2.77856 2.76231 0
M  V30 8405 H 817.983 -2.55972 3.08674 0
M  V30 8406 H 814.573 -1.47502 4.02419 0
M  V30 8407 H 818.757 -0.973013 4.86668 0
M  V30 8408 H 814.013 -0.295385 6.10686 0
M  V30 8409 H 818.187 0.199619 6.96114 0
M  V30 8410 H 815.814 0.544356 7.58249 0
M  V30 8411 N 817.389 -1.46805 -0.573248 0
M  V30 8412 C 818.635 -1.5283 -1.33307 0
M  V30 8413 C 818.968 -0.183287 -1.93333 0
M  V30 8414 O 818.243 0.806354 -1.76998 0
M  V30 8415 C 818.526 -2.63414 -2.45531 0
M  V30 8416 C 818.379 -4.07478 -1.90478 0
M  V30 8417 C 819.698 -2.70014 -3.47535 0
M  V30 8418 H 816.817 -0.556371 -0.483343 0
M  V30 8419 H 819.459 -1.78787 -0.643066 0
M  V30 8420 H 817.609 -2.41412 -3.04389 0
M  V30 8421 H 819.281 -4.40795 -1.36004 0
M  V30 8422 H 817.524 -4.16511 -1.21248 0
M  V30 8423 H 818.195 -4.80598 -2.71531 0
M  V30 8424 H 820.671 -2.89817 -2.98572 0
M  V30 8425 H 819.547 -3.49192 -4.23504 0
M  V30 8426 H 819.808 -1.76436 -4.05367 0
M  V30 8427 N 818.867 0.818669 -1.34668 0
M  V30 8428 C 820.092 1.61193 -1.30505 0
M  V30 8429 C 820.517 1.87734 0.117341 0
M  V30 8430 O 819.875 1.45591 1.08042 0
M  V30 8431 C 819.923 2.92733 -2.1057 0
M  V30 8432 O 819.027 3.85 -1.47813 0
M  V30 8433 H 818.368 0.490085 -0.44801 0
M  V30 8434 H 820.898 1.01701 -1.77534 0
M  V30 8435 H 820.908 3.42262 -2.22082 0
M  V30 8436 H 819.583 2.7274 -3.13984 0
M  V30 8437 H 818.16 3.43525 -1.45069 0
M  V30 8438 N 820.346 1.18468 1.03938 0
M  V30 8439 C 821.309 0.914944 2.10146 0
M  V30 8440 C 822.309 -0.10022 1.60487 0
M  V30 8441 O 823.499 0.133365 1.73689 0
M  V30 8442 C 820.631 0.372993 3.38853 0
M  V30 8443 H 821.824 1.85677 2.35508 0
M  V30 8444 H 819.377 0.996876 1.20383 0
M  V30 8445 H 820.112 -0.57538 3.19155 0
M  V30 8446 H 819.897 1.1048 3.76213 0
M  V30 8447 H 821.387 0.203014 4.17106 0
M  V30 8448 N 821.824 -1.22873 0.986916 0
M  V30 8449 C 823.064 -1.93192 0.667543 0
M  V30 8450 C 823.428 -1.7521 -0.785196 0
M  V30 8451 O 824.629 -2.39737 -1.2157 0
M  V30 8452 C 822.9 -3.4147 1.05513 0
M  V30 8453 S 824.459 -4.30425 0.853218 0
M  V30 8454 H 821.277 -0.667726 0.244261 0
M  V30 8455 H 823.879 -1.48808 1.26793 0
M  V30 8456 H 822.583 -3.52069 2.10892 0
M  V30 8457 H 822.114 -3.9086 0.446293 0
M  V30 8458 H 824.129 -4.95521 -0.259444 0
M  V30 8459 N 823.302 -0.75937 -1.38099 0
M  V30 8460 C 824.713 -0.385078 -1.82686 0
M  V30 8461 C 825.064 1.0871 -1.6333 0
M  V30 8462 O 824.189 1.84084 -1.13762 0
M  V30 8463 C 824.784 -0.692161 -3.31654 0
M  V30 8464 C 823.343 -0.371077 -3.74566 0
M  V30 8465 C 822.49 -0.942375 -2.60796 0
M  V30 8466 H 825.441 -0.955048 -1.26746 0
M  V30 8467 H 825.462 0.0276001 -3.8049 0
M  V30 8468 H 824.974 -1.76369 -3.4571 0
M  V30 8469 H 823.075 0.693637 -3.66087 0
M  V30 8470 H 823.188 -0.870672 -4.71122 0
M  V30 8471 H 821.552 -0.367383 -2.52036 0
M  V30 8472 H 822.335 -2.01905 -2.77649 0
M  V30 8473 N 824.78 1.49157 -0.508906 0
M  V30 8474 C 826.057 1.95363 0.0961913 0
M  V30 8475 C 826.437 1.45064 1.53362 0
M  V30 8476 O 825.785 0.667835 2.18523 0
M  V30 8477 C 825.995 3.49 0.000688881 0
M  V30 8478 C 827.343 4.24257 0.170632 0
M  V30 8479 O 828.367 3.5612 0.0754994 0
M  V30 8480 O 827.226 5.45267 0.366957 0
M  V30 8481 H 824.32 0.821984 0.0909489 0
M  V30 8482 H 826.866 1.59769 -0.572007 0
M  V30 8483 H 825.638 3.78269 -1.00143 0
M  V30 8484 H 825.261 3.91233 0.708682 0
M  V30 8485 N 826.258 0.243083 1.55714 0
M  V30 8486 C 827.505 -0.38272 1.9885 0
M  V30 8487 C 827.833 -1.58225 1.13115 0
M  V30 8488 O 827.088 -1.94861 0.181067 0
M  V30 8489 C 827.387 -0.839621 3.47398 0
M  V30 8490 C 827.053 0.251737 4.50197 0
M  V30 8491 C 825.715 0.551487 4.78029 0
M  V30 8492 C 828.067 0.988728 5.11736 0
M  V30 8493 C 825.395 1.59237 5.64677 0
M  V30 8494 C 827.747 2.0191 5.99512 0
M  V30 8495 C 826.411 2.32554 6.2568 0
M  V30 8496 H 825.681 -0.140047 0.727645 0
M  V30 8497 H 828.328 0.35011 1.88272 0
M  V30 8498 H 826.633 -1.65159 3.55288 0
M  V30 8499 H 828.33 -1.33404 3.78159 0
M  V30 8500 H 824.92 0.00796741 4.28599 0
M  V30 8501 H 829.104 0.7704 4.90284 0
M  V30 8502 H 824.36 1.83517 5.83208 0
M  V30 8503 H 828.534 2.59511 6.46241 0
M  V30 8504 H 826.161 3.13349 6.92616 0
M  V30 8505 N 827.736 -1.57571 -0.0300757 0
M  V30 8506 C 828.961 -1.93879 -0.736601 0
M  V30 8507 C 829.386 -0.842998 -1.68152 0
M  V30 8508 O 828.744 0.20135 -1.80178 0
M  V30 8509 C 828.792 -3.29247 -1.47066 0
M  V30 8510 O 827.896 -3.21426 -2.58378 0
M  V30 8511 H 827.237 -0.633735 -0.198181 0
M  V30 8512 H 829.767 -2.04595 0.0141485 0
M  V30 8513 H 829.777 -3.64113 -1.84081 0
M  V30 8514 H 828.452 -4.08565 -0.77764 0
M  V30 8515 H 827.029 -2.98189 -2.23914 0
M  V30 8516 N 829.214 0.302327 -1.54673 0
M  V30 8517 C 830.46 1.03924 -1.74149 0
M  V30 8518 C 830.793 1.86968 -0.525041 0
M  V30 8519 O 830.068 1.88538 0.477868 0
M  V30 8520 C 830.351 1.94633 -3.02969 0
M  V30 8521 C 830.204 1.14778 -4.34909 0
M  V30 8522 C 831.523 2.93826 -3.27649 0
M  V30 8523 H 828.642 0.376405 -0.633631 0
M  V30 8524 H 831.284 0.314007 -1.87387 0
M  V30 8525 H 829.434 2.56471 -2.91813 0
M  V30 8526 H 831.106 0.552363 -4.57981 0
M  V30 8527 H 829.349 0.450462 -4.31455 0
M  V30 8528 H 830.02 1.81495 -5.21309 0
M  V30 8529 H 832.496 2.42117 -3.38406 0
M  V30 8530 H 831.372 3.54462 -4.19104 0
M  V30 8531 H 831.633 3.67416 -2.45882 0
M  V30 8532 N 830.692 1.47107 0.565454 0
M  V30 8533 C 832.108 1.32443 0.890566 0
M  V30 8534 C 832.308 0.308735 1.99121 0
M  V30 8535 O 831.364 -0.28265 2.50913 0
M  V30 8536 C 832.677 2.71548 1.2916 0
M  V30 8537 C 834.225 2.7977 1.40349 0
M  V30 8538 C 834.7 4.19497 1.83811 0
M  V30 8539 N 836.191 4.21998 1.90975 0
M  V30 8540 C 836.926 5.2702 2.25916 0
M  V30 8541 N 836.422 6.42353 2.59527 0
M  V30 8542 N 838.215 5.14393 2.26619 0
M  V30 8543 H 830.366 2.11786 -0.161328 0
M  V30 8544 H 832.629 0.947952 -0.00950631 0
M  V30 8545 H 832.335 3.47265 0.556753 0
M  V30 8546 H 832.209 3.02782 2.24951 0
M  V30 8547 H 834.596 2.0433 2.12916 0
M  V30 8548 H 834.677 2.522 0.427655 0
M  V30 8549 H 834.321 4.95439 1.11816 0
M  V30 8550 H 834.251 4.44486 2.82382 0
M  V30 8551 H 836.742 3.38791 1.6742 0
M  V30 8552 H 837.055 7.18252 2.85191 0
M  V30 8553 H 835.4 6.45687 2.57126 0
M  V30 8554 H 838.591 4.2332 1.99794 0
M  V30 8555 H 838.764 5.96349 2.5352 0
M  V30 8556 N 832.17 -0.811516 1.35101 0
M  V30 8557 C 833.1 -1.9378 1.30275 0
M  V30 8558 C 834.081 -1.69165 0.178075 0
M  V30 8559 O 835.266 -1.90599 0.372256 0
M  V30 8560 C 832.396 -3.30439 1.06899 0
M  V30 8561 C 831.35 -3.69523 2.15955 0
M  V30 8562 C 830.676 -5.0429 1.77751 0
M  V30 8563 C 831.976 -3.80419 3.57881 0
M  V30 8564 H 833.67 -1.98075 2.24514 0
M  V30 8565 H 831.216 -0.951586 1.08078 0
M  V30 8566 H 833.169 -4.08828 1.02164 0
M  V30 8567 H 831.893 -3.26473 0.0910462 0
M  V30 8568 H 830.552 -2.93416 2.19778 0
M  V30 8569 H 830.2 -4.96823 0.785876 0
M  V30 8570 H 829.9 -5.31411 2.5075 0
M  V30 8571 H 831.424 -5.85125 1.74533 0
M  V30 8572 H 832.838 -4.49051 3.56407 0
M  V30 8573 H 831.235 -4.19005 4.29598 0
M  V30 8574 H 832.305 -2.82105 3.94391 0
M  V30 8575 N 833.648 -1.19017 -1.03309 0
M  V30 8576 C 834.578 -0.94772 -2.13402 0
M  V30 8577 C 835.559 0.117383 -1.69694 0
M  V30 8578 O 836.744 -0.0367733 -1.94165 0
M  V30 8579 C 833.874 -0.480977 -3.43953 0
M  V30 8580 C 832.828 -1.48743 -4.01322 0
M  V30 8581 C 832.154 -0.877924 -5.27443 0
M  V30 8582 C 833.454 -2.86642 -4.36616 0
M  V30 8583 H 835.148 -1.86846 -2.33942 0
M  V30 8584 H 832.694 -0.899781 -1.12427 0
M  V30 8585 H 834.647 -0.298677 -4.2034 0
M  V30 8586 H 833.371 0.475348 -3.23122 0
M  V30 8587 H 832.03 -1.65681 -3.27025 0
M  V30 8588 H 831.678 0.0858232 -5.02927 0
M  V30 8589 H 831.378 -1.54996 -5.66789 0
M  V30 8590 H 832.902 -0.706326 -6.06501 0
M  V30 8591 H 834.316 -2.73312 -5.03958 0
M  V30 8592 H 832.713 -3.50599 -4.87032 0
M  V30 8593 H 833.783 -3.39617 -3.46105 0
M  V30 8594 N 835.127 1.22348 -0.993418 0
M  V30 8595 C 836.543 1.43222 -0.704238 0
M  V30 8596 C 836.743 1.88009 0.724909 0
M  V30 8597 O 835.799 2.03429 1.49575 0
M  V30 8598 C 837.112 2.47328 -1.71025 0
M  V30 8599 C 838.66 2.61126 -1.72576 0
M  V30 8600 C 839.135 3.68453 -2.72041 0
M  V30 8601 N 840.626 3.75911 -2.70639 0
M  V30 8602 C 841.361 4.58551 -3.44266 0
M  V30 8603 N 840.857 5.45179 -4.27495 0
M  V30 8604 N 842.65 4.52866 -3.32969 0
M  V30 8605 H 834.801 0.915832 -1.91641 0
M  V30 8606 H 837.064 0.464283 -0.826526 0
M  V30 8607 H 836.77 2.21366 -2.73295 0
M  V30 8608 H 836.644 3.45939 -1.50353 0
M  V30 8609 H 839.031 2.86431 -0.710037 0
M  V30 8610 H 839.112 1.62787 -1.97317 0
M  V30 8611 H 838.756 3.43895 -3.73763 0
M  V30 8612 H 838.686 4.66362 -2.4457 0
M  V30 8613 H 841.177 3.14014 -2.10247 0
M  V30 8614 H 841.49 6.0526 -4.80499 0
M  V30 8615 H 839.835 5.44759 -4.31582 0
M  V30 8616 H 843.026 3.84215 -2.67389 0
M  V30 8617 H 843.199 5.17039 -3.90608 0
M  V30 8618 N 836.605 0.766683 1.37694 0
M  V30 8619 C 837.882 0.25366 1.93948 0
M  V30 8620 C 838.262 -1.25041 1.70082 0
M  V30 8621 O 837.61 -2.03115 1.04674 0
M  V30 8622 C 837.82 0.621549 3.43421 0
M  V30 8623 C 839.168 0.588504 4.20502 0
M  V30 8624 O 840.192 0.560632 3.5176 0
M  V30 8625 O 839.051 0.61107 5.43073 0
M  V30 8626 H 836.145 0.0570586 0.825029 0
M  V30 8627 H 838.691 0.847693 1.47011 0
M  V30 8628 H 837.463 1.65979 3.54354 0
M  V30 8629 H 837.086 0.000197027 3.976 0
M  V30 8630 N 838.083 -1.48885 0.516809 0
M  V30 8631 C 839.311 -2.06892 -0.0184017 0
M  V30 8632 C 839.726 -1.37511 -1.29368 0
M  V30 8633 O 839.083 -0.458409 -1.76649 0
M  V30 8634 C 839.134 -3.60566 -0.259673 0
M  V30 8635 O 838.855 -4.27338 0.965065 0
M  V30 8636 C 840.356 -4.35331 -0.836751 0
M  V30 8637 H 837.576 -0.670433 0.0275743 0
M  V30 8638 H 840.12 -1.91455 0.718689 0
M  V30 8639 H 838.275 -3.75653 -0.94678 0
M  V30 8640 H 838.689 -5.19287 0.737647 0
M  V30 8641 H 840.163 -5.43675 -0.955065 0
M  V30 8642 H 840.64 -3.9887 -1.83845 0
M  V30 8643 H 841.246 -4.2489 -0.186622 0
M  V30 8644 N 839.561 -0.251338 -1.55583 0
M  V30 8645 C 840.786 0.379136 -2.03905 0
M  V30 8646 C 841.211 1.50428 -1.12929 0
M  V30 8647 O 840.569 1.80882 -0.123114 0
M  V30 8648 C 840.617 0.86009 -3.50193 0
M  V30 8649 O 839.721 1.96932 -3.62342 0
M  V30 8650 H 839.062 0.0820183 -0.658915 0
M  V30 8651 H 841.592 -0.378692 -2.01065 0
M  V30 8652 H 841.602 1.16214 -3.91099 0
M  V30 8653 H 840.277 0.0367559 -4.15884 0
M  V30 8654 H 838.854 1.67163 -3.33333 0
M  V30 8655 N 841.039 1.57585 0.0217189 0
M  V30 8656 C 841.989 2.03506 1.02807 0
M  V30 8657 C 842.973 0.925716 1.31603 0
M  V30 8658 O 844.165 1.18958 1.31065 0
M  V30 8659 C 841.294 2.52407 2.32693 0
M  V30 8660 C 840.38 3.70176 2.06955 0
M  V30 8661 N 840.771 4.82641 1.513 0
M  V30 8662 C 839.069 3.77691 2.37204 0
M  V30 8663 C 839.77 5.64218 1.41536 0
M  V30 8664 N 838.746 5.09557 1.89348 0
M  V30 8665 H 842.548 2.87878 0.591899 0
M  V30 8666 H 840.062 1.60793 0.227875 0
M  V30 8667 H 842.059 2.83569 3.05605 0
M  V30 8668 H 840.719 1.69444 2.76982 0
M  V30 8669 H 841.73 5.03931 1.19472 0
M  V30 8670 H 838.407 3.05542 2.84517 0
M  V30 8671 H 839.797 6.64576 0.989333 0
M  V30 8672 N 842.517 -0.29412 1.54831 0
M  V30 8673 C 843.766 -1.02614 1.73647 0
M  V30 8674 C 844.079 -1.88193 0.533162 0
M  V30 8675 O 845.285 -2.64713 0.603275 0
M  V30 8676 C 843.741 -1.87417 3.07251 0
M  V30 8677 C 843.349 -1.06806 4.35082 0
M  V30 8678 C 845.093 -2.60176 3.35423 0
M  V30 8679 C 843 -1.90926 5.59733 0
M  V30 8680 H 841.93 -0.386834 0.647206 0
M  V30 8681 H 844.581 -0.282789 1.81308 0
M  V30 8682 H 842.963 -2.65765 2.93572 0
M  V30 8683 H 844.137 -0.330226 4.59615 0
M  V30 8684 H 842.452 -0.455979 4.13896 0
M  V30 8685 H 845.049 -3.23476 4.25755 0
M  V30 8686 H 845.392 -3.29365 2.54606 0
M  V30 8687 H 845.925 -1.88871 3.50103 0
M  V30 8688 H 842.664 -1.26194 6.43238 0
M  V30 8689 H 842.184 -2.62363 5.39375 0
M  V30 8690 H 843.863 -2.48807 5.97247 0
M  V30 8691 N 843.995 -1.47404 -0.557645 0
M  V30 8692 C 845.22 -1.57868 -1.34508 0
M  V30 8693 C 845.645 -0.229151 -1.86699 0
M  V30 8694 O 845.003 0.794908 -1.62944 0
M  V30 8695 C 845.051 -2.60712 -2.49122 0
M  V30 8696 O 844.155 -2.15952 -3.51338 0
M  V30 8697 H 843.496 -0.530335 -0.399551 0
M  V30 8698 H 846.026 -1.93181 -0.673954 0
M  V30 8699 H 846.036 -2.81118 -2.95697 0
M  V30 8700 H 844.711 -3.58701 -2.10491 0
M  V30 8701 H 843.288 -2.05644 -3.11071 0
M  V30 8702 N 845.473 0.80434 -1.35529 0
M  V30 8703 C 846.405 1.92445 -1.2449 0
M  V30 8704 C 847.418 1.61934 -0.167685 0
M  V30 8705 O 848.607 1.73461 -0.42115 0
M  V30 8706 C 845.707 3.26875 -0.894751 0
M  V30 8707 C 844.88 3.85275 -2.07079 0
M  V30 8708 C 843.939 4.98116 -1.69607 0
M  V30 8709 O 842.965 5.15424 -2.41509 0
M  V30 8710 N 844.167 5.77169 -0.621012 0
M  V30 8711 H 846.932 2.02441 -2.20993 0
M  V30 8712 H 844.493 0.981874 -1.28728 0
M  V30 8713 H 846.485 3.99837 -0.625511 0
M  V30 8714 H 845.055 3.12594 -0.0193306 0
M  V30 8715 H 844.275 3.0448 -2.5037 0
M  V30 8716 H 845.563 4.21024 -2.85685 0
M  V30 8717 H 844.961 5.65695 -0.0236679 0
M  V30 8718 H 843.518 6.50499 -0.411558 0
M  V30 8719 N 846.951 1.19563 1.02676 0
M  V30 8720 C 848.176 1.02556 1.80269 0
M  V30 8721 C 848.601 -0.421056 1.83327 0
M  V30 8722 O 847.959 -1.30279 1.26084 0
M  V30 8723 C 848.007 1.60165 3.23078 0
M  V30 8724 O 847.111 0.832404 4.03912 0
M  V30 8725 H 846.452 0.362354 0.556413 0
M  V30 8726 H 848.982 1.58633 1.29216 0
M  V30 8727 H 848.992 1.6347 3.7382 0
M  V30 8728 H 847.667 2.65454 3.20167 0
M  V30 8729 H 846.244 0.872768 3.62543 0
M  V30 8730 N 848.429 -1.21819 0.999893 0
M  V30 8731 C 849.376 -2.24003 0.556005 0
M  V30 8732 C 850.346 -1.60825 -0.415287 0
M  V30 8733 O 851.531 -1.88123 -0.318481 0
M  V30 8734 C 848.671 -3.44904 -0.116289 0
M  V30 8735 C 847.784 -4.22573 0.897574 0
M  V30 8736 C 846.919 -5.30831 0.198073 0
M  V30 8737 C 845.958 -6.00225 1.19983 0
M  V30 8738 N 845.095 -7.00111 0.528157 0
M  V30 8739 H 849.935 -2.61334 1.43208 0
M  V30 8740 H 847.472 -1.28431 0.717205 0
M  V30 8741 H 849.43 -4.13908 -0.523055 0
M  V30 8742 H 848.06 -3.08315 -0.956108 0
M  V30 8743 H 847.112 -3.52797 1.42262 0
M  V30 8744 H 848.424 -4.70363 1.66013 0
M  V30 8745 H 847.578 -6.06121 -0.265065 0
M  V30 8746 H 846.317 -4.84033 -0.596924 0
M  V30 8747 H 845.322 -5.23711 1.67353 0
M  V30 8748 H 846.547 -6.4911 1.99582 0
M  V30 8749 H 844.493 -6.55534 -0.247276 0
M  V30 8750 H 844.41 -7.45943 1.22904 0
M  V30 8751 H 845.678 -7.7945 0.0880543 0
M  V30 8752 N 849.908 -0.773975 -1.37286 0
M  V30 8753 C 850.838 -0.175782 -2.32837 0
M  V30 8754 C 851.819 0.680603 -1.5589 0
M  V30 8755 O 853.004 0.617607 -1.84117 0
M  V30 8756 C 850.134 0.702388 -3.40123 0
M  V30 8757 C 849.088 -0.0528687 -4.27967 0
M  V30 8758 C 848.414 0.944891 -5.26285 0
M  V30 8759 C 849.714 -1.23316 -5.07534 0
M  V30 8760 H 851.408 -0.974016 -2.83114 0
M  V30 8761 H 848.954 -0.469826 -1.3612 0
M  V30 8762 H 850.907 1.13069 -4.05947 0
M  V30 8763 H 849.631 1.53316 -2.88378 0
M  V30 8764 H 848.29 -0.461978 -3.63678 0
M  V30 8765 H 847.938 1.77028 -4.70819 0
M  V30 8766 H 847.638 0.444079 -5.8592 0
M  V30 8767 H 849.162 1.37209 -5.94984 0
M  V30 8768 H 850.576 -0.881395 -5.66484 0
M  V30 8769 H 848.973 -1.66621 -5.76504 0
M  V30 8770 H 850.043 -2.03617 -4.40077 0
M  V30 8771 N 851.386 1.48609 -0.524698 0
M  V30 8772 C 852.635 2.01696 0.0132937 0
M  V30 8773 C 852.948 1.40751 1.35825 0
M  V30 8774 O 854.154 1.85304 1.9843 0
M  V30 8775 C 852.61 3.59824 0.0741012 0
M  V30 8776 C 852.218 4.2975 -1.26564 0
M  V30 8777 C 853.962 4.20774 0.5612 0
M  V30 8778 C 851.869 5.79798 -1.16571 0
M  V30 8779 H 850.799 0.753949 0.00873931 0
M  V30 8780 H 853.45 1.70922 -0.667684 0
M  V30 8781 H 851.832 3.87416 0.820043 0
M  V30 8782 H 853.006 4.13836 -2.02674 0
M  V30 8783 H 851.321 3.80649 -1.68806 0
M  V30 8784 H 853.918 5.30687 0.653853 0
M  V30 8785 H 854.261 3.85734 1.56573 0
M  V30 8786 H 854.794 3.97591 -0.128901 0
M  V30 8787 H 851.533 6.19403 -2.14523 0
M  V30 8788 H 851.053 5.9814 -0.445894 0
M  V30 8789 H 852.732 6.41337 -0.854186 0
M  V30 8790 N 852.864 0.259585 1.55447 0
M  V30 8791 C 853.827 -0.621359 2.20617 0
M  V30 8792 C 854.827 -1.09317 1.17925 0
M  V30 8793 O 856.017 -0.995842 1.42929 0
M  V30 8794 C 853.149 -1.85546 2.85982 0
M  V30 8795 H 854.342 -0.0525833 2.99854 0
M  V30 8796 H 851.895 0.0101055 1.56297 0
M  V30 8797 H 852.63 -2.46515 2.10715 0
M  V30 8798 H 852.415 -1.52523 3.61219 0
M  V30 8799 H 853.905 -2.48227 3.35817 0
M  V30 8800 N 854.342 -1.57594 -0.0133615 0
M  V30 8801 C 855.758 -1.5527 -0.369255 0
M  V30 8802 C 855.958 -0.987751 -1.7563 0
M  V30 8803 O 855.014 -0.615683 -2.44879 0
M  V30 8804 C 856.327 -2.99602 -0.25672 0
M  V30 8805 C 857.875 -3.11227 -0.332647 0
M  V30 8806 C 858.35 -4.57321 -0.249387 0
M  V30 8807 N 859.841 -4.62177 -0.3077 0
M  V30 8808 C 860.576 -5.72781 -0.26641 0
M  V30 8809 N 860.072 -6.92575 -0.176494 0
M  V30 8810 N 861.865 -5.61204 -0.317295 0
M  V30 8811 H 854.016 -1.92662 0.894154 0
M  V30 8812 H 856.279 -0.884352 0.341505 0
M  V30 8813 H 855.985 -3.44723 0.697072 0
M  V30 8814 H 855.859 -3.6246 -1.04415 0
M  V30 8815 H 858.246 -2.66045 -1.27688 0
M  V30 8816 H 858.327 -2.51171 0.484412 0
M  V30 8817 H 857.971 -5.03174 0.691242 0
M  V30 8818 H 857.901 -5.15306 -1.08476 0
M  V30 8819 H 860.392 -3.75994 -0.379069 0
M  V30 8820 H 860.705 -7.72653 -0.150518 0
M  V30 8821 H 859.05 -6.94854 -0.142314 0
M  V30 8822 H 862.241 -4.66509 -0.385643 0
M  V30 8823 H 862.414 -6.47388 -0.28165 0
M  V30 8824 N 855.82 0.285905 -1.54985 0
M  V30 8825 C 857.048 1.03776 -1.78992 0
M  V30 8826 C 857.463 1.80402 -0.556814 0
M  V30 8827 O 856.82 1.76242 0.473801 0
M  V30 8828 C 856.871 2.0065 -3.00702 0
M  V30 8829 O 856.592 1.27131 -4.19249 0
M  V30 8830 C 858.093 2.87753 -3.37214 0
M  V30 8831 H 855.313 0.307126 -0.596586 0
M  V30 8832 H 857.857 0.3206 -2.01971 0
M  V30 8833 H 856.012 2.67847 -2.79887 0
M  V30 8834 H 856.426 1.92316 -4.8797 0
M  V30 8835 H 857.9 3.51548 -4.2558 0
M  V30 8836 H 858.377 3.56848 -2.56039 0
M  V30 8837 H 858.983 2.26065 -3.60242 0
M  V30 8838 N 857.298 1.47698 0.54982 0
M  V30 8839 C 858.23 1.56806 1.67166 0
M  V30 8840 C 859.243 0.453709 1.5635 0
M  V30 8841 O 860.432 0.723663 1.63173 0
M  V30 8842 C 857.532 1.4632 3.05686 0
M  V30 8843 C 856.705 2.72452 3.42182 0
M  V30 8844 C 855.764 2.55698 4.59897 0
M  V30 8845 O 854.79 3.29534 4.64108 0
M  V30 8846 N 855.992 1.64009 5.56849 0
M  V30 8847 H 858.757 2.53545 1.59797 0
M  V30 8848 H 856.318 1.44171 0.736635 0
M  V30 8849 H 858.31 1.32835 3.82279 0
M  V30 8850 H 856.88 0.57634 3.07241 0
M  V30 8851 H 856.1 3.00644 2.54964 0
M  V30 8852 H 857.388 3.56172 3.63344 0
M  V30 8853 H 856.786 1.03186 5.5621 0
M  V30 8854 H 855.343 1.56473 6.3274 0
M  V30 8855 N 858.776 -0.797141 1.35954 0
M  V30 8856 C 860.024 -1.55161 1.29497 0
M  V30 8857 C 860.345 -1.94582 -0.127659 0
M  V30 8858 O 859.615 -1.64343 -1.06622 0
M  V30 8859 H 858.195 -0.575413 0.47635 0
M  V30 8860 H 860.857 -0.950282 1.70164 0
M  V30 8861 H 859.953 -2.46272 1.9172 0
M  V30 8862 N 860.254 -1.20106 -1.0204 0
M  V30 8863 C 861.503 -1.00316 -1.74985 0
M  V30 8864 C 861.816 0.465814 -1.89972 0
M  V30 8865 O 863.022 0.782749 -2.59972 0
M  V30 8866 C 861.478 -1.74608 -3.14706 0
M  V30 8867 C 861.086 -3.25573 -3.07744 0
M  V30 8868 C 862.83 -1.63172 -3.91887 0
M  V30 8869 C 860.737 -3.92419 -4.42449 0
M  V30 8870 H 859.667 -0.371728 -0.655999 0
M  V30 8871 H 862.318 -1.43688 -1.14131 0
M  V30 8872 H 860.7 -1.24021 -3.76078 0
M  V30 8873 H 861.874 -3.83345 -2.55702 0
M  V30 8874 H 860.189 -3.3738 -2.44057 0
M  V30 8875 H 862.786 -2.10457 -4.9154 0
M  V30 8876 H 863.129 -0.58728 -4.12137 0
M  V30 8877 H 863.662 -2.11152 -3.37135 0
M  V30 8878 H 860.401 -4.96998 -4.27403 0
M  V30 8879 H 859.921 -3.39436 -4.94513 0
M  V30 8880 H 861.6 -3.96453 -5.11306 0
M  V30 8881 N 861.732 1.21287 -1.00634 0
M  V30 8882 C 862.642 2.27388 -0.577226 0
M  V30 8883 C 863.658 1.69791 0.380399 0
M  V30 8884 O 864.834 1.99918 0.2439 0
M  V30 8885 C 861.899 3.46588 0.0880532 0
M  V30 8886 C 860.96 4.19453 -0.914222 0
M  V30 8887 C 860.193 5.32962 -0.280596 0
M  V30 8888 O 860.416 5.62895 0.922265 0
M  V30 8889 O 859.35 5.93666 -0.992196 0
M  V30 8890 H 863.176 2.66289 -1.46028 0
M  V30 8891 H 860.761 1.2771 -0.775283 0
M  V30 8892 H 862.643 4.18881 0.460094 0
M  V30 8893 H 861.318 3.09585 0.945461 0
M  V30 8894 H 860.225 3.49376 -1.33744 0
M  V30 8895 H 861.558 4.6037 -1.74126 0
M  V30 8896 N 863.21 0.781244 1.36873 0
M  V30 8897 C 864.487 0.274217 1.93668 0
M  V30 8898 C 864.867 -1.2323 1.71399 0
M  V30 8899 O 864.215 -2.01993 1.06822 0
M  V30 8900 C 864.425 0.657939 3.42742 0
M  V30 8901 C 865.773 0.63307 4.19854 0
M  V30 8902 O 866.797 0.597909 3.51146 0
M  V30 8903 O 865.656 0.668636 5.42394 0
M  V30 8904 H 862.75 0.0658059 0.824378 0
M  V30 8905 H 865.296 0.863238 1.46104 0
M  V30 8906 H 864.068 1.69728 3.52573 0
M  V30 8907 H 863.691 0.0423678 3.97577 0
M  V30 8908 N 864.689 -1.48329 0.532571 0
M  V30 8909 C 865.619 -2.32485 -0.217511 0
M  V30 8910 C 866.6 -1.42255 -0.932598 0
M  V30 8911 O 867.785 -1.7114 -0.917873 0
M  V30 8912 C 864.915 -3.23509 -1.26329 0
M  V30 8913 C 863.869 -4.22784 -0.666191 0
M  V30 8914 C 863.195 -5.0296 -1.81482 0
M  V30 8915 C 864.495 -5.21031 0.363813 0
M  V30 8916 H 866.189 -2.95445 0.485014 0
M  V30 8917 H 863.735 -1.42075 0.234694 0
M  V30 8918 H 865.688 -3.81211 -1.79601 0
M  V30 8919 H 864.412 -2.58554 -1.99543 0
M  V30 8920 H 863.071 -3.66272 -0.15498 0
M  V30 8921 H 862.719 -4.34427 -2.5354 0
M  V30 8922 H 862.419 -5.70154 -1.4212 0
M  V30 8923 H 863.943 -5.63514 -2.35126 0
M  V30 8924 H 865.357 -5.73241 -0.0819079 0
M  V30 8925 H 863.754 -5.96292 0.674956 0
M  V30 8926 H 864.824 -4.6801 1.26865 0
M  V30 8927 N 866.167 -0.267825 -1.55308 0
M  V30 8928 C 867.416 0.351635 -1.98611 0
M  V30 8929 C 867.729 1.57522 -1.15957 0
M  V30 8930 O 868.935 2.26717 -1.49371 0
M  V30 8931 C 867.391 0.676986 -3.53475 0
M  V30 8932 C 866.999 -0.526385 -4.44897 0
M  V30 8933 C 868.743 1.25948 -4.05386 0
M  V30 8934 C 866.65 -0.176026 -5.91138 0
M  V30 8935 H 865.58 0.13516 -0.741787 0
M  V30 8936 H 868.231 -0.371333 -1.79704 0
M  V30 8937 H 866.613 1.45866 -3.68156 0
M  V30 8938 H 867.787 -1.30339 -4.41982 0
M  V30 8939 H 866.102 -1.02522 -4.03582 0
M  V30 8940 H 868.699 1.53529 -5.12184 0
M  V30 8941 H 869.042 2.19094 -3.53982 0
M  V30 8942 H 869.575 0.540253 -3.94114 0
M  V30 8943 H 866.314 -1.07518 -6.46622 0
M  V30 8944 H 865.834 0.564363 -5.97139 0
M  V30 8945 H 867.513 0.234365 -6.46575 0
M  V30 8946 N 867.645 1.57599 0.00500368 0
M  V30 8947 C 868.922 1.81561 0.727654 0
M  V30 8948 C 869.302 0.871604 1.92266 0
M  V30 8949 O 868.65 -0.0808232 2.28357 0
M  V30 8950 C 868.86 3.29922 1.13809 0
M  V30 8951 C 870.208 3.95531 1.54403 0
M  V30 8952 O 871.232 3.34215 1.23202 0
M  V30 8953 O 870.091 5.03535 2.12402 0
M  V30 8954 H 867.185 0.747462 0.353878 0
M  V30 8955 H 869.731 1.69688 -0.0200667 0
M  V30 8956 H 868.503 3.90253 0.286078 0
M  V30 8957 H 868.126 3.46775 1.94507 0
M  V30 8958 N 869.123 -0.277682 1.55134 0
M  V30 8959 C 870.351 -1.02826 1.7954 0
M  V30 8960 C 870.766 -1.80105 0.566373 0
M  V30 8961 O 870.123 -1.76491 -0.464448 0
M  V30 8962 C 870.174 -1.99053 3.01762 0
M  V30 8963 O 869.895 -1.24906 4.19917 0
M  V30 8964 C 871.396 -2.85961 3.38735 0
M  V30 8965 H 868.616 -0.303958 0.598206 0
M  V30 8966 H 871.16 -0.309884 2.02138 0
M  V30 8967 H 869.315 -2.66359 2.81303 0
M  V30 8968 H 869.729 -1.89725 4.88983 0
M  V30 8969 H 871.203 -3.49286 4.27438 0
M  V30 8970 H 871.68 -3.55486 2.57928 0
M  V30 8971 H 872.286 -2.24152 3.61436 0
M  V30 8972 N 870.601 -1.47988 -0.541979 0
M  V30 8973 C 871.564 -1.61148 -1.62984 0
M  V30 8974 C 872.564 -0.48553 -1.53295 0
M  V30 8975 O 873.754 -0.751012 -1.5718 0
M  V30 8976 C 870.886 -1.57038 -3.02576 0
M  V30 8977 H 872.079 -2.58138 -1.52659 0
M  V30 8978 H 869.632 -1.36405 -0.763106 0
M  V30 8979 H 870.367 -0.614807 -3.18419 0
M  V30 8980 H 870.152 -2.38769 -3.11018 0
M  V30 8981 H 871.642 -1.69416 -3.81691 0
M  V30 8982 N 872.079 0.78992 -1.36375 0
M  V30 8983 C 873.328 1.54296 -1.29906 0
M  V30 8984 C 873.641 1.95234 0.119651 0
M  V30 8985 O 874.847 2.69762 0.306708 0
M  V30 8986 C 873.303 2.78533 -2.27919 0
M  V30 8987 C 872.911 2.44767 -3.75224 0
M  V30 8988 C 874.655 3.56516 -2.30427 0
M  V30 8989 C 872.562 3.65397 -4.65015 0
M  V30 8990 H 871.492 0.579214 -0.482729 0
M  V30 8991 H 874.143 0.866845 -1.61735 0
M  V30 8992 H 872.525 3.47941 -1.89084 0
M  V30 8993 H 873.699 1.83259 -4.22792 0
M  V30 8994 H 872.014 1.79996 -3.75487 0
M  V30 8995 H 874.611 4.46143 -2.94722 0
M  V30 8996 H 874.954 3.95063 -1.31266 0
M  V30 8997 H 875.487 2.94087 -2.67876 0
M  V30 8998 H 872.226 3.31946 -5.65236 0
M  V30 8999 H 871.746 4.26072 -4.22164 0
M  V30 9000 H 873.425 4.32431 -4.81261 0
M  V30 9001 N 873.557 1.20646 1.01402 0
M  V30 9002 C 874.504 0.957618 2.09996 0
M  V30 9003 C 875.474 -0.113115 1.65714 0
M  V30 9004 O 876.659 0.032142 1.90773 0
M  V30 9005 C 873.799 0.5186 3.41181 0
M  V30 9006 C 872.912 1.65777 3.98926 0
M  V30 9007 C 872.047 1.16881 5.18182 0
M  V30 9008 C 871.086 2.2809 5.68015 0
M  V30 9009 N 870.223 1.80392 6.7853 0
M  V30 9010 H 875.063 1.88732 2.30617 0
M  V30 9011 H 872.6 0.940703 1.13089 0
M  V30 9012 H 874.558 0.245367 4.16478 0
M  V30 9013 H 873.188 -0.3741 3.20625 0
M  V30 9014 H 872.24 2.04586 3.207 0
M  V30 9015 H 873.552 2.49507 4.31912 0
M  V30 9016 H 872.706 0.851694 6.00692 0
M  V30 9017 H 871.445 0.301434 4.86768 0
M  V30 9018 H 870.45 2.60614 4.84108 0
M  V30 9019 H 871.675 3.15308 6.01463 0
M  V30 9020 H 869.621 0.959856 6.4894 0
M  V30 9021 H 869.538 2.57701 7.10722 0
M  V30 9022 H 870.806 1.51688 7.64598 0
M  V30 9023 N 875.035 -1.20752 1.01276 0
M  V30 9024 C 875.983 -2.25432 0.572989 0
M  V30 9025 C 876.977 -1.64935 -0.386354 0
M  V30 9026 O 878.183 -1.7816 -0.256696 0
M  V30 9027 H 874.558 -0.733229 0.166972 0
M  V30 9028 H 876.529 -2.59856 1.46687 0
M  V30 9029 C 875.278 -3.47615 -0.0768249 0
M  V30 9030 H 874.601 -3.94442 0.652354 0
M  V30 9031 H 876.041 -4.22572 -0.3477 0
M  V30 9032 C 874.5 -3.1003 -1.31845 0
M  V30 9033 O 875.03 -3.21216 -2.41211 0
M  V30 9034 N 873.236 -2.64616 -1.20111 0
M  V30 9035 H 872.783 -2.55714 -0.311184 0
M  V30 9036 H 872.741 -2.39838 -2.03286 0
M  V30 9037 N 876.513 -0.788492 -1.36457 0
M  V30 9038 C 877.476 -0.192209 -2.28393 0
M  V30 9039 C 878.476 0.609916 -1.48784 0
M  V30 9040 O 879.666 0.431046 -1.68783 0
M  V30 9041 C 876.798 0.734096 -3.32902 0
M  V30 9042 H 877.991 -1.00284 -2.82636 0
M  V30 9043 H 875.544 -0.557852 -1.46006 0
M  V30 9044 H 876.279 1.5691 -2.83813 0
M  V30 9045 H 876.064 0.160875 -3.9177 0
M  V30 9046 H 877.554 1.1462 -4.01562 0
M  V30 9047 N 877.991 1.48044 -0.54043 0
M  V30 9048 C 878.921 2.32597 0.205178 0
M  V30 9049 C 879.902 1.42748 0.925041 0
M  V30 9050 O 881.087 1.71624 0.908784 0
M  V30 9051 C 878.217 3.24175 1.24612 0
M  V30 9052 C 877.171 4.23131 0.64376 0
M  V30 9053 C 876.497 5.03915 1.78812 0
M  V30 9054 C 877.797 5.20831 -0.39144 0
M  V30 9055 H 879.491 2.95184 -0.500676 0
M  V30 9056 H 877.037 1.41948 -0.242225 0
M  V30 9057 H 878.99 3.82158 1.77576 0
M  V30 9058 H 877.714 2.59608 1.98169 0
M  V30 9059 H 876.373 3.66349 0.135554 0
M  V30 9060 H 876.021 4.35765 2.51232 0
M  V30 9061 H 875.721 5.709 1.39094 0
M  V30 9062 H 877.245 5.64753 2.32134 0
M  V30 9063 H 878.659 5.73277 0.0515064 0
M  V30 9064 H 877.056 5.95926 -0.706569 0
M  V30 9065 H 878.126 4.6733 -1.29345 0
M  V30 9066 N 879.47 0.276058 1.55163 0
M  V30 9067 C 880.886 -0.0780579 1.59409 0
M  V30 9068 C 881.086 -1.54521 1.29327 0
M  V30 9069 O 880.142 -2.29422 1.05459 0
M  V30 9070 C 881.455 0.297422 2.99225 0
M  V30 9071 C 883.003 0.244117 3.12047 0
M  V30 9072 C 883.478 0.594051 4.54131 0
M  V30 9073 N 884.969 0.54564 4.59975 0
M  V30 9074 C 885.704 0.789192 5.67943 0
M  V30 9075 N 885.2 1.09741 6.84053 0
M  V30 9076 N 886.993 0.717926 5.57496 0
M  V30 9077 H 879.144 1.23251 1.72982 0
M  V30 9078 H 881.407 0.497988 0.806667 0
M  V30 9079 H 881.113 1.31782 3.26077 0
M  V30 9080 H 880.987 -0.361286 3.75466 0
M  V30 9081 H 883.374 -0.766992 2.84958 0
M  V30 9082 H 883.455 0.937097 2.38017 0
M  V30 9083 H 883.099 1.60285 4.81945 0
M  V30 9084 H 883.029 -0.120728 5.26462 0
M  V30 9085 H 885.52 0.317334 3.76565 0
M  V30 9086 H 885.833 1.26989 7.62295 0
M  V30 9087 H 884.178 1.13519 6.85666 0
M  V30 9088 H 887.369 0.47697 4.65664 0
M  V30 9089 H 887.542 0.911118 6.41563 0
M  V30 9090 N 880.948 -1.576 0.00335426 0
M  V30 9091 C 882.194 -1.90996 -0.681799 0
M  V30 9092 C 882.527 -0.877643 -1.73237 0
M  V30 9093 O 881.802 0.103183 -1.94226 0
M  V30 9094 C 882.085 -3.34961 -1.32187 0
M  V30 9095 C 881.938 -4.48911 -0.28261 0
M  V30 9096 C 883.257 -3.78408 -2.24711 0
M  V30 9097 H 880.376 -0.694596 -0.246386 0
M  V30 9098 H 883.018 -1.89919 0.055336 0
M  V30 9099 H 881.168 -3.36008 -1.95014 0
M  V30 9100 H 882.84 -4.59999 0.346241 0
M  V30 9101 H 881.083 -4.32 0.394768 0
M  V30 9102 H 881.754 -5.46609 -0.769576 0
M  V30 9103 H 884.23 -3.78934 -1.71897 0
M  V30 9104 H 883.106 -4.79885 -2.66461 0
M  V30 9105 H 883.367 -3.12464 -3.1276 0
M  V30 9106 N 882.426 0.269451 -1.5528 0
M  V30 9107 C 883.651 1.02299 -1.80415 0
M  V30 9108 C 884.076 1.7902 -0.577363 0
M  V30 9109 O 883.434 1.75018 0.473125 0
M  V30 9110 C 883.482 1.95445 -3.0304 0
M  V30 9111 O 882.586 3.04271 -2.78375 0
M  V30 9112 H 881.927 0.292289 -0.596207 0
M  V30 9113 H 884.457 0.297282 -2.02429 0
M  V30 9114 H 884.467 2.37333 -3.31869 0
M  V30 9115 H 883.142 1.39017 -3.91978 0
M  V30 9116 H 881.719 2.66673 -2.60653 0
M  V30 9117 N 883.904 1.48273 0.534124 0
M  V30 9118 C 884.836 1.5857 1.65494 0
M  V30 9119 C 885.849 0.470266 1.5586 0
M  V30 9120 O 887.038 0.740928 1.62396 0
M  V30 9121 C 884.138 1.49554 3.04117 0
M  V30 9122 C 883.311 2.76066 3.39273 0
M  V30 9123 C 882.37 2.60562 4.57159 0
M  V30 9124 O 881.396 3.34438 4.60587 0
M  V30 9125 N 882.598 1.69906 5.55079 0
M  V30 9126 H 885.363 2.55226 1.57099 0
M  V30 9127 H 882.924 1.44944 0.721303 0
M  V30 9128 H 884.916 1.36882 3.80848 0
M  V30 9129 H 883.486 0.608895 3.06613 0
M  V30 9130 H 882.706 3.03332 2.51761 0
M  V30 9131 H 883.994 3.60006 3.59546 0
M  V30 9132 H 883.392 1.09079 5.55084 0
M  V30 9133 H 881.949 1.63175 6.31044 0
M  V30 9134 N 885.382 -0.782676 1.36792 0
M  V30 9135 C 886.793 -1.35828 1.28092 0
M  V30 9136 C 887.144 -1.96052 -0.076315 0
M  V30 9137 O 886.269 -1.93042 -0.977935 0
M  V30 9138 C 886.864 -2.46949 2.31952 0
M  V30 9139 C 885.423 -3.00307 2.2692 0
M  V30 9140 C 884.57 -1.73436 2.16368 0
M  V30 9141 H 887.521 -0.583788 1.47572 0
M  V30 9142 H 887.542 -3.26144 1.95986 0
M  V30 9143 H 887.054 -2.03087 3.30722 0
M  V30 9144 H 885.155 -3.48571 1.31639 0
M  V30 9145 H 885.268 -3.56663 3.19887 0
M  V30 9146 H 883.632 -1.95934 1.62733 0
M  V30 9147 H 884.415 -1.31693 3.17036 0
M  V30 9148 N 886.86 -1.21182 -1.00761 0
M  V30 9149 C 887.79 -0.992773 -2.11344 0
M  V30 9150 C 888.771 0.0813618 -1.69905 0
M  V30 9151 O 889.956 -0.0779503 -1.94043 0
M  V30 9152 C 887.086 -0.553826 -3.42856 0
M  V30 9153 C 886.04 -1.57223 -3.98077 0
M  V30 9154 C 885.366 -0.989605 -5.25463 0
M  V30 9155 C 886.666 -2.95839 -4.30438 0
M  V30 9156 H 888.36 -1.91766 -2.29927 0
M  V30 9157 H 885.906 -0.923426 -1.10494 0
M  V30 9158 H 887.859 -0.387771 -4.19612 0
M  V30 9159 H 886.583 0.406702 -3.24058 0
M  V30 9160 H 885.242 -1.7258 -3.23437 0
M  V30 9161 H 884.89 -0.0208743 -5.02996 0
M  V30 9162 H 884.59 -1.66984 -5.63374 0
M  V30 9163 H 886.114 -0.834815 -6.04866 0
M  V30 9164 H 887.528 -2.8394 -4.98047 0
M  V30 9165 H 885.925 -3.60851 -4.79486 0
M  V30 9166 H 886.995 -3.46882 -3.38823 0
M  V30 9167 N 888.338 1.20213 -1.01915 0
M  V30 9168 C 889.754 1.41696 -0.734459 0
M  V30 9169 C 889.954 1.89504 0.684867 0
M  V30 9170 O 889.01 2.06556 1.45227 0
M  V30 9171 C 890.323 2.43644 -1.76233 0
M  V30 9172 C 891.871 2.57406 -1.78076 0
M  V30 9173 C 892.346 3.626 -2.79796 0
M  V30 9174 N 893.837 3.70086 -2.78551 0
M  V30 9175 C 894.572 4.51145 -3.53915 0
M  V30 9176 N 894.068 5.35988 -4.38963 0
M  V30 9177 N 895.861 4.45702 -3.425 0
M  V30 9178 H 888.012 0.874976 -1.93541 0
M  V30 9179 H 890.275 0.446647 -0.836188 0
M  V30 9180 H 889.981 2.15519 -2.77929 0
M  V30 9181 H 889.855 3.42672 -1.57657 0
M  V30 9182 H 892.242 2.8486 -0.770634 0
M  V30 9183 H 892.323 1.58565 -2.00725 0
M  V30 9184 H 891.967 3.35889 -3.80973 0
M  V30 9185 H 891.897 4.61069 -2.54407 0
M  V30 9186 H 894.388 3.09484 -2.1686 0
M  V30 9187 H 894.701 5.94932 -4.9323 0
M  V30 9188 H 893.046 5.35482 -4.4304 0
M  V30 9189 H 896.237 3.78456 -2.75478 0
M  V30 9190 H 896.41 5.08637 -4.01487 0
M  V30 9191 N 889.816 0.795718 1.36037 0
M  V30 9192 C 891.227 0.433379 1.816 0
M  V30 9193 C 891.578 -1.04341 1.66155 0
M  V30 9194 O 890.703 -1.81004 1.18603 0
M  V30 9195 C 891.298 0.77985 3.29703 0
M  V30 9196 C 889.857 0.470256 3.73451 0
M  V30 9197 C 889.004 1.01119 2.58206 0
M  V30 9198 H 891.955 0.988317 1.24169 0
M  V30 9199 H 891.976 0.0732898 3.80429 0
M  V30 9200 H 891.488 1.85473 3.40913 0
M  V30 9201 H 889.589 -0.596332 3.67797 0
M  V30 9202 H 889.702 0.995276 4.68648 0
M  V30 9203 H 888.066 0.434077 2.50974 0
M  V30 9204 H 888.849 2.09196 2.72198 0
M  V30 9205 N 891.294 -1.47756 0.548274 0
M  V30 9206 C 892.519 -2.07387 0.023475 0
M  V30 9207 C 892.944 -1.39956 -1.25674 0
M  V30 9208 O 892.302 -0.471543 -1.7506 0
M  V30 9209 C 892.35 -3.60224 -0.164669 0
M  V30 9210 O 891.454 -3.93653 -1.22928 0
M  V30 9211 H 890.795 -0.662312 0.0473156 0
M  V30 9212 H 893.325 -1.89905 0.761409 0
M  V30 9213 H 893.335 -4.06211 -0.38166 0
M  V30 9214 H 892.01 -4.08702 0.770425 0
M  V30 9215 H 890.587 -3.59422 -0.993495 0
M  V30 9216 N 892.772 -0.284283 -1.55015 0
M  V30 9217 C 893.704 0.63258 -2.20298 0
M  V30 9218 C 894.717 1.11045 -1.1905 0
M  V30 9219 O 895.906 1.03078 -1.4573 0
M  V30 9220 C 893.006 1.87599 -2.82241 0
M  V30 9221 C 892.179 1.5434 -4.09265 0
M  V30 9222 C 891.238 2.64023 -4.55169 0
M  V30 9223 O 890.264 2.29821 -5.20741 0
M  V30 9224 N 891.466 3.94255 -4.26079 0
M  V30 9225 H 894.231 0.0737928 -2.99609 0
M  V30 9226 H 891.792 -0.105767 -1.61554 0
M  V30 9227 H 893.784 2.60289 -3.0989 0
M  V30 9228 H 892.354 2.3436 -2.06868 0
M  V30 9229 H 891.574 0.649912 -3.88806 0
M  V30 9230 H 892.862 1.29634 -4.92009 0
M  V30 9231 H 892.26 4.24859 -3.73512 0
M  V30 9232 H 890.817 4.63295 -4.58477 0
M  V30 9233 N 894.251 1.57596 -0.0117121 0
M  V30 9234 C 895.181 2.12188 0.9746 0
M  V30 9235 C 896.162 1.03379 1.35081 0
M  V30 9236 O 897.347 1.31123 1.4325 0
M  V30 9237 C 894.477 2.63477 2.26268 0
M  V30 9238 C 893.431 3.76917 2.02774 0
M  V30 9239 C 892.757 4.14566 3.37697 0
M  V30 9240 C 894.057 5.03715 1.38089 0
M  V30 9241 H 895.751 2.9485 0.520007 0
M  V30 9242 H 893.297 1.41836 0.248685 0
M  V30 9243 H 895.25 3.00299 2.95633 0
M  V30 9244 H 893.974 1.77953 2.73862 0
M  V30 9245 H 892.633 3.40507 1.35832 0
M  V30 9246 H 892.281 3.26048 3.83016 0
M  V30 9247 H 891.981 4.91 3.22789 0
M  V30 9248 H 893.505 4.53956 4.08358 0
M  V30 9249 H 894.919 5.38233 1.97428 0
M  V30 9250 H 893.316 5.85032 1.33634 0
M  V30 9251 H 894.386 4.83624 0.351575 0
M  V30 9252 N 895.729 -0.261212 1.5542 0
M  V30 9253 C 896.676 -1.32315 1.89107 0
M  V30 9254 C 897.646 -1.48517 0.743767 0
M  V30 9255 O 898.831 -1.62733 0.996123 0
M  V30 9256 C 895.971 -2.67626 2.17877 0
M  V30 9257 C 895.084 -2.59549 3.45338 0
M  V30 9258 C 894.219 -3.87118 3.63748 0
M  V30 9259 C 893.258 -3.736 4.8486 0
M  V30 9260 N 892.395 -4.93029 4.99867 0
M  V30 9261 H 897.235 -1.02886 2.79675 0
M  V30 9262 H 894.772 -0.496812 1.38456 0
M  V30 9263 H 896.73 -3.4637 2.32559 0
M  V30 9264 H 895.36 -2.95232 1.30529 0
M  V30 9265 H 894.412 -1.72452 3.39064 0
M  V30 9266 H 895.724 -2.45465 4.34222 0
M  V30 9267 H 894.878 -4.74305 3.78312 0
M  V30 9268 H 893.617 -4.04084 2.73071 0
M  V30 9269 H 892.622 -2.84797 4.70288 0
M  V30 9270 H 893.847 -3.58143 5.76984 0
M  V30 9271 H 891.793 -5.10383 4.12123 0
M  V30 9272 H 891.71 -4.81521 5.82815 0
M  V30 9273 H 892.978 -5.81754 5.18828 0
M  V30 9274 N 897.207 -1.48554 -0.526253 0
M  V30 9275 C 898.139 -1.59446 -1.6465 0
M  V30 9276 C 899.152 -0.478525 -1.55608 0
M  V30 9277 O 900.341 -0.74953 -1.62001 0
M  V30 9278 C 897.441 -1.51164 -3.03319 0
M  V30 9279 C 896.614 -2.77861 -3.37805 0
M  V30 9280 C 895.673 -2.62982 -4.5577 0
M  V30 9281 O 894.699 -3.36876 -4.58806 0
M  V30 9282 N 895.901 -1.72847 -5.5417 0
M  V30 9283 H 898.666 -2.56055 -1.55743 0
M  V30 9284 H 896.227 -1.45325 -0.713606 0
M  V30 9285 H 898.219 -1.389 -3.80117 0
M  V30 9286 H 896.789 -0.625147 -3.06285 0
M  V30 9287 H 896.009 -3.04663 -2.50149 0
M  V30 9288 H 897.297 -3.61908 -3.57632 0
M  V30 9289 H 896.695 -1.12022 -5.54498 0
M  V30 9290 H 895.252 -1.6652 -6.3017 0
M  V30 9291 N 898.685 0.775411 -1.37205 0
M  V30 9292 C 900.096 1.35147 -1.28811 0
M  V30 9293 C 900.447 1.96089 0.0659168 0
M  V30 9294 O 899.572 1.93558 0.967684 0
M  V30 9295 C 900.167 2.45715 -2.33258 0
M  V30 9296 C 898.726 2.99099 -2.2851 0
M  V30 9297 C 897.873 1.72286 -2.17285 0
M  V30 9298 H 900.824 0.575954 -1.4788 0
M  V30 9299 H 900.845 3.251 -1.97712 0
M  V30 9300 H 900.357 2.01331 -3.31795 0
M  V30 9301 H 898.458 3.47868 -1.33485 0
M  V30 9302 H 898.571 3.54962 -3.21774 0
M  V30 9303 H 896.935 1.95068 -1.6377 0
M  V30 9304 H 897.718 1.3001 -3.1773 0
M  V30 9305 N 900.163 1.21714 1.00117 0
M  V30 9306 C 901.111 0.976937 2.11089 0
M  V30 9307 C 902.105 -0.0771295 1.69224 0
M  V30 9308 O 903.311 0.0745945 1.79845 0
M  V30 9309 H 899.686 0.298687 0.690138 0
M  V30 9310 H 901.657 1.91881 2.28526 0
M  V30 9311 C 900.406 0.562369 3.43122 0
M  V30 9312 H 899.729 1.36509 3.75773 0
M  V30 9313 H 901.169 0.433642 4.21777 0
M  V30 9314 C 899.628 -0.727148 3.28959 0
M  V30 9315 O 900.158 -1.78171 3.60025 0
M  V30 9316 N 898.364 -0.695129 2.82164 0
M  V30 9317 H 897.911 0.163346 2.57082 0
M  V30 9318 H 897.869 -1.55822 2.73069 0
M  V30 9319 N 901.641 -1.19671 1.02551 0
M  V30 9320 C 902.889 -1.88894 0.71858 0
M  V30 9321 C 903.21 -1.79797 -0.754856 0
M  V30 9322 O 902.48 -1.20621 -1.54362 0
M  V30 9323 H 901.06 -0.699244 0.262806 0
M  V30 9324 H 903.722 -1.45298 1.29902 0
M  V30 9325 H 902.818 -2.95309 1.00989 0
M  V30 9326 N 903.119 -0.802921 -1.35613 0
M  V30 9327 C 904.365 -0.382141 -1.99167 0
M  V30 9328 C 904.698 1.04704 -1.63556 0
M  V30 9329 O 903.973 1.72578 -0.89706 0
M  V30 9330 C 904.256 -0.561493 -3.55695 0
M  V30 9331 C 904.109 -2.03534 -4.01116 0
M  V30 9332 C 905.428 0.0151135 -4.40097 0
M  V30 9333 H 902.547 -0.140322 -0.723518 0
M  V30 9334 H 905.189 -1.01177 -1.6082 0
M  V30 9335 H 903.339 -0.0255083 -3.88492 0
M  V30 9336 H 905.011 -2.63343 -3.78746 0
M  V30 9337 H 903.254 -2.5331 -3.52159 0
M  V30 9338 H 903.925 -2.11173 -5.1001 0
M  V30 9339 H 906.401 -0.442582 -4.1374 0
M  V30 9340 H 905.277 -0.140316 -5.48721 0
M  V30 9341 H 905.538 1.10848 -4.27978 0
M  V30 9342 N 904.597 1.47463 -0.556102 0
M  V30 9343 C 905.545 2.31692 0.205299 0
M  V30 9344 C 906.539 1.42857 0.910394 0
M  V30 9345 O 907.745 1.59628 0.831806 0
M  V30 9346 H 904.12 0.747172 0.0850775 0
M  V30 9347 H 906.091 2.93758 -0.524305 0
M  V30 9348 C 904.84 3.25487 1.22283 0
M  V30 9349 H 904.163 3.93806 0.689697 0
M  V30 9350 H 905.603 3.87257 1.7265 0
M  V30 9351 C 904.062 2.48931 2.27013 0
M  V30 9352 O 904.592 2.23296 3.33919 0
M  V30 9353 N 902.798 2.0996 2.00911 0
M  V30 9354 H 902.345 2.31008 1.13986 0
M  V30 9355 H 902.303 1.59053 2.712 0
M  V30 9356 N 906.075 0.2925 1.54862 0
M  V30 9357 C 907.3 -0.32494 2.04839 0
M  V30 9358 C 907.725 -1.47381 1.16877 0
M  V30 9359 O 907.083 -1.80492 0.171028 0
M  V30 9360 C 907.131 -0.76694 3.5235 0
M  V30 9361 O 906.235 -1.87256 3.67436 0
M  V30 9362 H 905.576 -0.0645195 0.660858 0
M  V30 9363 H 908.106 0.431867 1.9999 0
M  V30 9364 H 908.116 -1.05804 3.94043 0
M  V30 9365 H 906.791 0.0735212 4.15835 0
M  V30 9366 H 905.368 -1.58266 3.37648 0
M  V30 9367 N 907.553 -1.57587 0.0200696 0
M  V30 9368 C 908.485 -2.06555 -0.993359 0
M  V30 9369 C 909.498 -0.987227 -1.29451 0
M  V30 9370 O 910.687 -1.26361 -1.26075 0
M  V30 9371 C 907.787 -2.4675 -2.3231 0
M  V30 9372 C 906.96 -3.77554 -2.20843 0
M  V30 9373 C 906.019 -4.04397 -3.36674 0
M  V30 9374 O 905.045 -4.7478 -3.13963 0
M  V30 9375 N 906.247 -3.53861 -4.60176 0
M  V30 9376 H 909.012 -2.9412 -0.575617 0
M  V30 9377 H 906.573 -1.61038 -0.166889 0
M  V30 9378 H 908.565 -2.61806 -3.08609 0
M  V30 9379 H 907.135 -1.64598 -2.65756 0
M  V30 9380 H 906.355 -3.72382 -1.29327 0
M  V30 9381 H 907.643 -4.63271 -2.10375 0
M  V30 9382 H 907.041 -2.96904 -4.81523 0
M  V30 9383 H 905.598 -3.74213 -5.33674 0
M  V30 9384 N 909.032 0.252966 -1.55557 0
M  V30 9385 C 909.942 1.33472 -1.92931 0
M  V30 9386 C 910.958 1.52983 -0.828985 0
M  V30 9387 O 912.134 1.66723 -1.12984 0
M  V30 9388 C 909.199 2.6704 -2.21112 0
M  V30 9389 C 908.26 2.56103 -3.44542 0
M  V30 9390 C 907.493 3.83302 -3.71369 0
M  V30 9391 O 907.716 4.84907 -3.00368 0
M  V30 9392 O 906.65 3.823 -4.64898 0
M  V30 9393 H 910.476 1.04768 -2.85057 0
M  V30 9394 H 908.061 0.453208 -1.4236 0
M  V30 9395 H 909.943 3.45981 -2.40572 0
M  V30 9396 H 908.618 2.95489 -1.32166 0
M  V30 9397 H 907.525 1.7547 -3.30396 0
M  V30 9398 H 908.858 2.32601 -4.33772 0
M  V30 9399 N 910.51 1.48831 0.518367 0
M  V30 9400 C 911.756 1.57672 1.27543 0
M  V30 9401 C 912.089 0.254915 1.9252 0
M  V30 9402 O 911.364 -0.740107 1.79868 0
M  V30 9403 C 911.647 2.72345 2.35585 0
M  V30 9404 C 911.5 4.14267 1.75224 0
M  V30 9405 C 912.819 2.82726 3.37274 0
M  V30 9406 H 909.938 0.573926 0.462361 0
M  V30 9407 H 912.58 1.8105 0.576267 0
M  V30 9408 H 910.73 2.52543 2.95219 0
M  V30 9409 H 912.402 4.45539 1.19551 0
M  V30 9410 H 910.645 4.20724 1.05706 0
M  V30 9411 H 911.316 4.90345 2.53507 0
M  V30 9412 H 913.792 3.00699 2.8761 0
M  V30 9413 H 912.668 3.6467 4.10252 0
M  V30 9414 H 912.929 1.9136 3.9854 0
M  V30 9415 N 911.988 -0.768124 1.37614 0
M  V30 9416 C 913.399 -1.34462 1.29525 0
M  V30 9417 C 913.75 -1.96121 -0.0555168 0
M  V30 9418 O 912.875 -1.94069 -0.957406 0
M  V30 9419 C 913.47 -2.44475 2.34558 0
M  V30 9420 C 912.029 -2.97883 2.30093 0
M  V30 9421 C 911.176 -1.71131 2.18196 0
M  V30 9422 H 914.127 -0.568103 1.48183 0
M  V30 9423 H 914.148 -3.24047 1.99434 0
M  V30 9424 H 913.66 -1.99568 3.32858 0
M  V30 9425 H 911.761 -3.47156 1.35328 0
M  V30 9426 H 911.874 -3.53251 3.23652 0
M  V30 9427 H 910.238 -1.94197 1.64802 0
M  V30 9428 H 911.021 -1.28323 3.18415 0
M  V30 9429 N 913.466 -1.22244 -0.994698 0
M  V30 9430 C 914.429 -0.992308 -2.06606 0
M  V30 9431 C 915.429 0.0405872 -1.60749 0
M  V30 9432 O 916.619 -0.197737 -1.73074 0
M  V30 9433 C 913.751 -0.498499 -3.37236 0
M  V30 9434 H 914.944 -1.9429 -2.28455 0
M  V30 9435 H 912.497 -1.04087 -1.166 0
M  V30 9436 H 913.232 0.456531 -3.21071 0
M  V30 9437 H 913.017 -1.24367 -3.71854 0
M  V30 9438 H 914.507 -0.35768 -4.16065 0
M  V30 9439 N 914.944 1.19125 -1.03184 0
M  V30 9440 C 915.874 2.24675 -0.635889 0
M  V30 9441 C 916.855 1.66321 0.356565 0
M  V30 9442 O 918.04 1.92728 0.238625 0
M  V30 9443 C 915.17 3.47298 0.011069 0
M  V30 9444 C 914.124 4.18345 -0.903979 0
M  V30 9445 C 913.45 5.34561 -0.12197 0
M  V30 9446 C 914.75 4.72816 -2.21907 0
M  V30 9447 H 916.444 2.5805 -1.51825 0
M  V30 9448 H 913.99 1.24039 -0.73146 0
M  V30 9449 H 915.943 4.20333 0.299729 0
M  V30 9450 H 914.667 3.13131 0.928245 0
M  V30 9451 H 913.326 3.47196 -1.17688 0
M  V30 9452 H 912.974 4.9664 0.797334 0
M  V30 9453 H 912.674 5.83029 -0.731498 0
M  V30 9454 H 914.198 6.10391 0.159881 0
M  V30 9455 H 915.612 5.3759 -1.99173 0
M  V30 9456 H 914.009 5.31782 -2.78078 0
M  V30 9457 H 915.079 3.9072 -2.87168 0
M  V30 9458 N 916.422 0.810101 1.35185 0
M  V30 9459 C 917.65 0.404696 2.02903 0
M  V30 9460 C 918.065 -0.985434 1.61042 0
M  V30 9461 O 917.422 -1.63557 0.809658 0
M  V30 9462 C 917.473 0.482493 3.58266 0
M  V30 9463 O 917.194 1.81782 3.98606 0
M  V30 9464 C 918.695 0.070345 4.43244 0
M  V30 9465 H 915.915 0.163972 0.650657 0
M  V30 9466 H 918.459 1.0947 1.72733 0
M  V30 9467 H 916.614 -0.159296 3.87072 0
M  V30 9468 H 917.028 1.78306 4.93262 0
M  V30 9469 H 918.502 0.175888 5.5172 0
M  V30 9470 H 918.979 -0.984724 4.28018 0
M  V30 9471 H 919.585 0.685427 4.1974 0
M  V30 9472 N 917.9 -1.47166 0.563914 0
M  V30 9473 C 918.863 -2.28571 -0.169624 0
M  V30 9474 C 919.863 -1.37331 -0.836467 0
M  V30 9475 O 921.053 -1.59896 -0.6913 0
M  V30 9476 C 918.185 -3.17201 -1.24886 0
M  V30 9477 H 919.378 -2.94896 0.545539 0
M  V30 9478 H 916.931 -1.52966 0.321121 0
M  V30 9479 H 917.666 -2.55582 -1.99621 0
M  V30 9480 H 917.451 -3.84356 -0.775426 0
M  V30 9481 H 918.941 -3.7852 -1.76388 0
M  V30 9482 N 919.378 -0.300708 -1.54705 0
M  V30 9483 C 920.624 0.309111 -2.0043 0
M  V30 9484 C 920.957 1.53562 -1.1888 0
M  V30 9485 O 920.232 1.92683 -0.265205 0
M  V30 9486 C 920.515 0.665995 -3.53888 0
M  V30 9487 C 920.368 -0.56963 -4.46178 0
M  V30 9488 C 921.687 1.49262 -4.14016 0
M  V30 9489 H 918.806 0.110878 -0.728612 0
M  V30 9490 H 921.448 -0.412748 -1.85463 0
M  V30 9491 H 919.598 1.281 -3.66773 0
M  V30 9492 H 921.27 -1.20811 -4.45199 0
M  V30 9493 H 919.513 -1.20292 -4.16788 0
M  V30 9494 H 920.184 -0.275785 -5.51311 0
M  V30 9495 H 922.66 0.972979 -4.04564 0
M  V30 9496 H 921.536 1.71111 -5.21548 0
M  V30 9497 H 921.797 2.48174 -3.65872 0
M  V30 9498 N 920.856 1.57574 -0.0284266 0
M  V30 9499 C 921.766 2.13637 0.96936 0
M  V30 9500 C 922.782 1.08845 1.35752 0
M  V30 9501 O 923.958 1.40899 1.43908 0
M  V30 9502 C 921.023 2.65179 2.2334 0
M  V30 9503 C 920.084 3.84683 1.90572 0
M  V30 9504 C 919.317 4.33758 3.1095 0
M  V30 9505 O 919.54 3.82009 4.23586 0
M  V30 9506 O 918.474 5.2561 2.93288 0
M  V30 9507 H 922.3 2.99169 0.52267 0
M  V30 9508 H 919.885 1.48159 0.192135 0
M  V30 9509 H 921.767 2.98402 2.97547 0
M  V30 9510 H 920.442 1.82731 2.67191 0
M  V30 9511 H 919.349 3.56386 1.13753 0
M  V30 9512 H 920.682 4.68292 1.51538 0
M  V30 9513 N 922.334 -0.244713 1.55689 0
M  V30 9514 C 923.562 -0.989944 1.8168 0
M  V30 9515 C 923.977 -1.78863 0.604449 0
M  V30 9516 O 923.334 -1.77437 -0.426907 0
M  V30 9517 C 923.385 -1.92607 3.05916 0
M  V30 9518 O 923.106 -1.1597 4.22472 0
M  V30 9519 C 924.607 -2.78711 3.44724 0
M  V30 9520 H 921.827 -0.2912 0.604519 0
M  V30 9521 H 924.371 -0.266938 2.0275 0
M  V30 9522 H 922.526 -2.60333 2.8689 0
M  V30 9523 H 922.94 -1.79311 4.92898 0
M  V30 9524 H 924.414 -3.40141 4.34751 0
M  V30 9525 H 924.891 -3.49935 2.6541 0
M  V30 9526 H 925.497 -2.16435 3.66109 0
M  V30 9527 N 923.813 -1.49104 -0.510467 0
M  V30 9528 C 925.061 -1.578 -1.26268 0
M  V30 9529 C 925.382 -0.262349 -1.93227 0
M  V30 9530 O 924.652 0.717624 -1.82283 0
M  V30 9531 H 923.232 -0.581387 -0.46904 0
M  V30 9532 H 925.894 -1.85678 -0.592423 0
M  V30 9533 H 924.99 -2.36919 -2.03165 0
M  V30 9534 N 925.291 0.760815 -1.38019 0
M  V30 9535 C 926.254 1.85604 -1.34476 0
M  V30 9536 C 927.254 1.58897 -0.24666 0
M  V30 9537 O 928.444 1.66776 -0.50314 0
M  V30 9538 C 925.576 3.22945 -1.09176 0
M  V30 9539 H 926.769 1.90155 -2.31908 0
M  V30 9540 H 924.322 0.961746 -1.23208 0
M  V30 9541 H 925.057 3.24066 -0.123216 0
M  V30 9542 H 924.842 3.43723 -1.88672 0
M  V30 9543 H 926.332 4.03022 -1.09375 0
M  V30 9544 N 926.769 1.22769 0.988202 0
M  V30 9545 C 927.994 1.08239 1.76915 0
M  V30 9546 C 928.419 -0.362519 1.84574 0
M  V30 9547 O 927.777 -1.26202 1.30165 0
M  V30 9548 C 927.825 1.70363 3.17819 0
M  V30 9549 O 926.929 0.960484 4.01059 0
M  V30 9550 H 926.27 0.379872 0.544604 0
M  V30 9551 H 928.8 1.62663 1.24104 0
M  V30 9552 H 928.81 1.7528 3.6843 0
M  V30 9553 H 927.485 2.75505 3.1156 0
M  V30 9554 H 926.062 0.987667 3.59582 0
M  V30 9555 N 928.247 -1.18576 1.03814 0
M  V30 9556 C 929.495 -1.88121 0.738574 0
M  V30 9557 C 929.816 -1.80587 -0.735744 0
M  V30 9558 O 929.086 -1.22251 -1.53074 0
M  V30 9559 H 927.666 -0.696417 0.270208 0
M  V30 9560 H 930.328 -1.43912 1.31435 0
M  V30 9561 H 929.424 -2.94222 1.04115 0
M  V30 9562 N 929.725 -0.817259 -1.34754 0
M  V30 9563 C 930.657 -0.192695 -2.28389 0
M  V30 9564 C 931.67 0.614167 -1.50771 0
M  V30 9565 O 932.859 0.444776 -1.7287 0
M  V30 9566 C 929.959 0.748929 -3.30521 0
M  V30 9567 C 929.132 -0.0138762 -4.37398 0
M  V30 9568 C 928.191 0.847825 -5.19325 0
M  V30 9569 O 927.217 0.29487 -5.68436 0
M  V30 9570 N 928.419 2.16843 -5.38479 0
M  V30 9571 H 931.184 -0.997122 -2.82626 0
M  V30 9572 H 928.745 -0.673696 -1.47217 0
M  V30 9573 H 930.737 1.32987 -3.82226 0
M  V30 9574 H 929.307 1.45412 -2.7672 0
M  V30 9575 H 928.527 -0.776093 -3.86485 0
M  V30 9576 H 929.815 -0.539191 -5.05935 0
M  V30 9577 H 929.213 2.64148 -5.00242 0
M  V30 9578 H 927.77 2.69835 -5.93323 0
M  V30 9579 N 931.203 1.46865 -0.571711 0
M  V30 9580 C 932.166 2.28658 0.157499 0
M  V30 9581 C 933.166 1.37773 0.829172 0
M  V30 9582 O 934.356 1.6026 0.682811 0
M  V30 9583 C 931.488 3.17859 1.23202 0
M  V30 9584 H 932.681 2.94603 -0.561171 0
M  V30 9585 H 930.234 1.52793 -0.329229 0
M  V30 9586 H 930.969 2.56637 1.98262 0
M  V30 9587 H 930.754 3.84762 0.755031 0
M  V30 9588 H 932.244 3.7945 1.74378 0
M  V30 9589 N 932.681 0.308908 1.54543 0
M  V30 9590 C 933.93 -0.298854 1.99474 0
M  V30 9591 C 934.243 -1.54393 1.20093 0
M  V30 9592 O 935.449 -2.22677 1.55329 0
M  V30 9593 C 933.905 -0.58303 3.55146 0
M  V30 9594 C 933.513 0.644157 4.43345 0
M  V30 9595 C 935.257 -1.15155 4.08582 0
M  V30 9596 C 933.164 0.332694 5.90463 0
M  V30 9597 H 932.094 -0.115445 0.74511 0
M  V30 9598 H 934.745 0.418848 1.78656 0
M  V30 9599 H 933.127 -1.36053 3.71894 0
M  V30 9600 H 934.301 1.42012 4.38371 0
M  V30 9601 H 932.616 1.13186 4.00722 0
M  V30 9602 H 935.213 -1.39896 5.16075 0
M  V30 9603 H 935.556 -2.09632 3.59667 0
M  V30 9604 H 936.089 -0.435571 3.95408 0
M  V30 9605 H 932.828 1.24624 6.43544 0
M  V30 9606 H 932.348 -0.405844 5.98425 0
M  V30 9607 H 934.027 -0.0628545 6.46969 0
M  V30 9608 N 934.159 -1.57557 0.0367827 0
M  V30 9609 C 935.57 -1.79853 -0.500971 0
M  V30 9610 C 935.921 -0.947749 -1.71791 0
M  V30 9611 O 935.046 -0.160287 -2.15806 0
M  V30 9612 C 935.641 -3.26193 -0.915626 0
M  V30 9613 C 934.2 -3.49457 -1.39845 0
M  V30 9614 C 933.347 -2.74864 -0.366784 0
M  V30 9615 H 936.298 -1.56509 0.262768 0
M  V30 9616 H 936.319 -3.36324 -1.7795 0
M  V30 9617 H 935.831 -3.88089 -0.0297227 0
M  V30 9618 H 933.932 -2.92823 -2.30402 0
M  V30 9619 H 934.045 -4.58172 -1.40054 0
M  V30 9620 H 932.409 -2.4057 -0.836554 0
M  V30 9621 H 933.192 -3.39479 0.510785 0
M  V30 9622 N 935.637 0.236453 -1.55816 0
M  V30 9623 C 936.862 0.98449 -1.82545 0
M  V30 9624 C 937.287 1.77755 -0.615206 0
M  V30 9625 O 936.645 1.75982 0.435895 0
M  V30 9626 C 936.693 1.88973 -3.07118 0
M  V30 9627 O 935.797 2.98298 -2.84766 0
M  V30 9628 H 935.138 0.279577 -0.602273 0
M  V30 9629 H 937.668 0.254277 -2.03014 0
M  V30 9630 H 937.678 2.3024 -3.36829 0
M  V30 9631 H 936.353 1.30671 -3.94839 0
M  V30 9632 H 934.93 2.61085 -2.6625 0
M  V30 9633 N 937.115 1.49373 0.502552 0
M  V30 9634 C 938.392 1.49282 1.26389 0
M  V30 9635 C 938.772 0.219674 2.09954 0
M  V30 9636 O 938.12 -0.797991 2.14113 0
M  V30 9637 C 938.33 2.77083 2.12194 0
M  V30 9638 C 939.678 3.26511 2.71433 0
M  V30 9639 O 940.702 2.78189 2.22462 0
M  V30 9640 O 939.561 4.10665 3.60578 0
M  V30 9641 H 936.655 0.597415 0.57186 0
M  V30 9642 H 939.201 1.61634 0.516951 0
M  V30 9643 H 937.973 3.61237 1.50411 0
M  V30 9644 H 937.596 2.67583 2.94084 0
M  V30 9645 N 938.594 -0.753485 1.38421 0
M  V30 9646 C 939.84 -1.51485 1.34834 0
M  V30 9647 C 940.173 -1.94102 -0.0615381 0
M  V30 9648 O 939.448 -1.65439 -1.02274 0
M  V30 9649 C 939.731 -2.76736 2.30411 0
M  V30 9650 C 939.584 -2.40256 3.80259 0
M  V30 9651 C 940.903 -3.7876 2.24119 0
M  V30 9652 H 938.022 -0.549534 0.491102 0
M  V30 9653 H 940.664 -0.863006 1.6927 0
M  V30 9654 H 938.814 -3.32357 2.01175 0
M  V30 9655 H 940.486 -1.90409 4.20169 0
M  V30 9656 H 938.729 -1.72714 3.97935 0
M  V30 9657 H 939.4 -3.29869 4.42595 0
M  V30 9658 H 941.876 -3.32679 2.49928 0
M  V30 9659 H 940.752 -4.64092 2.93104 0
M  V30 9660 H 941.013 -4.24352 1.24006 0
M  V30 9661 N 940.072 -1.23292 -0.981677 0
M  V30 9662 C 941.318 -1.06582 -1.72535 0
M  V30 9663 C 941.651 0.396538 -1.90108 0
M  V30 9664 O 940.926 1.29363 -1.45243 0
M  V30 9665 C 941.209 -1.7904 -3.12437 0
M  V30 9666 C 941.062 -3.32941 -3.02441 0
M  V30 9667 C 942.381 -1.55185 -4.11832 0
M  V30 9668 H 939.5 -0.388585 -0.626236 0
M  V30 9669 H 942.142 -1.51779 -1.14293 0
M  V30 9670 H 940.292 -1.40619 -3.62158 0
M  V30 9671 H 941.964 -3.80875 -2.60254 0
M  V30 9672 H 940.207 -3.62039 -2.38977 0
M  V30 9673 H 940.878 -3.78827 -4.0149 0
M  V30 9674 H 943.354 -1.88581 -3.70913 0
M  V30 9675 H 942.23 -2.08362 -5.07815 0
M  V30 9676 H 942.491 -0.486925 -4.3941 0
M  V30 9677 N 941.55 1.18024 -1.04442 0
M  V30 9678 C 942.46 2.25436 -0.649276 0
M  V30 9679 C 943.476 1.70915 0.326189 0
M  V30 9680 O 944.652 2.00592 0.180174 0
M  V30 9681 C 941.717 3.46693 -0.0222558 0
M  V30 9682 C 940.778 4.16332 -1.0472 0
M  V30 9683 C 940.011 5.31799 -0.450011 0
M  V30 9684 O 940.234 5.65544 0.742717 0
M  V30 9685 O 939.168 5.90209 -1.18056 0
M  V30 9686 H 942.994 2.61508 -1.54426 0
M  V30 9687 H 940.579 1.25178 -0.81552 0
M  V30 9688 H 942.461 4.20132 0.326597 0
M  V30 9689 H 941.136 3.12436 0.84649 0
M  V30 9690 H 940.043 3.44944 -1.44792 0
M  V30 9691 H 941.376 4.54598 -1.88684 0
M  V30 9692 N 943.028 0.824394 1.34319 0
M  V30 9693 C 944.256 0.426194 2.02463 0
M  V30 9694 C 944.671 -0.968298 1.62078 0
M  V30 9695 O 944.028 -1.62689 0.82696 0
M  V30 9696 C 944.079 0.520465 3.57734 0
M  V30 9697 O 943.8 1.86 3.96656 0
M  V30 9698 C 945.301 0.117353 4.43145 0
M  V30 9699 H 942.521 0.170864 0.648881 0
M  V30 9700 H 945.065 1.11296 1.71562 0
M  V30 9701 H 943.22 -0.118233 3.8722 0
M  V30 9702 H 943.634 1.83528 4.91343 0
M  V30 9703 H 945.108 0.234395 5.51502 0
M  V30 9704 H 945.585 -0.939271 4.29039 0
M  V30 9705 H 946.191 0.729908 4.1899 0
M  V30 9706 N 944.506 -1.46559 0.579492 0
M  V30 9707 C 945.922 -1.57771 0.240921 0
M  V30 9708 C 946.122 -1.57505 -1.25676 0
M  V30 9709 O 945.178 -1.4903 -2.03829 0
M  V30 9710 C 946.491 -2.87311 0.887285 0
M  V30 9711 C 948.039 -3.00937 0.860576 0
M  V30 9712 C 948.514 -4.33208 1.48642 0
M  V30 9713 N 950.005 -4.39899 1.45062 0
M  V30 9714 C 950.74 -5.40856 1.90428 0
M  V30 9715 N 950.236 -6.48503 2.43752 0
M  V30 9716 N 952.029 -5.32037 1.81364 0
M  V30 9717 H 944.18 -1.44976 1.55228 0
M  V30 9718 H 946.443 -0.691354 0.648639 0
M  V30 9719 H 946.149 -2.93307 1.94071 0
M  V30 9720 H 946.023 -3.75141 0.393577 0
M  V30 9721 H 948.41 -2.94524 -0.184223 0
M  V30 9722 H 948.491 -2.14591 1.39227 0
M  V30 9723 H 948.135 -4.40378 2.5304 0
M  V30 9724 H 948.065 -5.18323 0.92998 0
M  V30 9725 H 950.556 -3.62706 1.0608 0
M  V30 9726 H 950.869 -7.21744 2.76234 0
M  V30 9727 H 949.214 -6.49332 2.47776 0
M  V30 9728 H 952.405 -4.46841 1.39465 0
M  V30 9729 H 952.578 -6.10573 2.17035 0
M  V30 9730 N 945.984 -0.3171 -1.54377 0
M  V30 9731 C 946.934 0.567199 -2.20832 0
M  V30 9732 C 947.918 1.08661 -1.18666 0
M  V30 9733 O 949.11 1.0247 -1.44322 0
M  V30 9734 C 946.239 1.73079 -2.96477 0
M  V30 9735 C 945.325 1.22658 -4.05975 0
M  V30 9736 N 945.716 0.441565 -5.03869 0
M  V30 9737 C 944.014 1.50589 -4.19808 0
M  V30 9738 C 944.715 0.171063 -5.81448 0
M  V30 9739 N 943.691 0.755389 -5.38326 0
M  V30 9740 H 947.493 -0.0399349 -2.93873 0
M  V30 9741 H 945.007 -0.122639 -1.61936 0
M  V30 9742 H 947.004 2.37601 -3.42566 0
M  V30 9743 H 945.664 2.34146 -2.24957 0
M  V30 9744 H 946.675 0.0849921 -5.1783 0
M  V30 9745 H 943.352 2.12288 -3.595 0
M  V30 9746 H 944.742 -0.460484 -6.7032 0
M  V30 9747 N 947.462 1.57535 -0.0451378 0
M  V30 9748 C 948.708 1.92736 0.630921 0
M  V30 9749 C 949.041 0.923265 1.70849 0
M  V30 9750 O 948.316 -0.0516512 1.94431 0
M  V30 9751 C 948.599 3.38348 1.23259 0
M  V30 9752 C 948.452 4.49503 0.16349 0
M  V30 9753 C 949.771 3.84233 2.14599 0
M  V30 9754 H 946.89 0.700884 0.227883 0
M  V30 9755 H 949.532 1.89706 -0.10567 0
M  V30 9756 H 947.682 3.41061 1.86037 0
M  V30 9757 H 949.354 4.58919 -0.46808 0
M  V30 9758 H 947.597 4.30802 -0.509166 0
M  V30 9759 H 948.268 5.48457 0.624382 0
M  V30 9760 H 950.744 3.83358 1.6179 0
M  V30 9761 H 949.62 4.86781 2.53644 0
M  V30 9762 H 949.881 3.20646 3.04366 0
M  V30 9763 N 948.94 -0.228186 1.55939 0
M  V30 9764 C 950.189 -0.951563 1.77843 0
M  V30 9765 C 950.502 -1.85763 0.612501 0
M  V30 9766 O 951.708 -2.61916 0.715006 0
M  V30 9767 C 950.164 -1.74216 3.14923 0
M  V30 9768 C 949.772 -0.882569 4.39221 0
M  V30 9769 C 951.516 -2.45715 3.46156 0
M  V30 9770 C 949.423 -1.67014 5.67327 0
M  V30 9771 H 948.353 -0.359035 0.663031 0
M  V30 9772 H 951.004 -0.205636 1.82344 0
M  V30 9773 H 949.386 -2.53075 3.0458 0
M  V30 9774 H 950.56 -0.13499 4.60602 0
M  V30 9775 H 948.875 -0.280022 4.15457 0
M  V30 9776 H 951.472 -3.05127 4.39092 0
M  V30 9777 H 951.815 -3.1827 2.68346 0
M  V30 9778 H 952.348 -1.73852 3.57799 0
M  V30 9779 H 949.087 -0.987985 6.48012 0
M  V30 9780 H 948.607 -2.3925 5.50018 0
M  V30 9781 H 950.286 -2.23252 6.07262 0
M  V30 9782 N 950.418 -1.49637 -0.494624 0
M  V30 9783 C 951.366 -1.6727 -1.61627 0
M  V30 9784 C 952.36 -0.538587 -1.6061 0
M  V30 9785 O 953.566 -0.718411 -1.65042 0
M  V30 9786 H 949.941 -0.527557 -0.535899 0
M  V30 9787 H 951.912 -2.61405 -1.43909 0
M  V30 9788 C 950.661 -1.7624 -2.99725 0
M  V30 9789 H 949.984 -2.62886 -3.01216 0
M  V30 9790 H 951.424 -1.92611 -3.77726 0
M  V30 9791 C 949.883 -0.508632 -3.33038 0
M  V30 9792 O 950.413 0.362828 -4.00058 0
M  V30 9793 N 948.619 -0.369667 -2.88239 0
M  V30 9794 H 948.166 -1.07984 -2.33875 0
M  V30 9795 H 948.124 0.468112 -3.10896 0
M  V30 9796 N 951.896 0.746133 -1.38819 0
M  V30 9797 C 953.126 1.53316 -1.38484 0
M  V30 9798 C 953.534 1.89183 0.0253332 0
M  V30 9799 O 952.877 1.5382 1.00424 0
M  V30 9800 C 952.939 2.85623 -2.18311 0
M  V30 9801 C 952.603 2.72253 -3.67052 0
M  V30 9802 C 953.6 2.41547 -4.60381 0
M  V30 9803 C 951.285 2.89472 -4.10501 0
M  V30 9804 C 953.279 2.28226 -5.9514 0
M  V30 9805 C 950.966 2.7577 -5.45338 0
M  V30 9806 C 951.964 2.45191 -6.37472 0
M  V30 9807 O 951.652 2.31561 -7.69828 0
M  V30 9808 H 951.384 0.480763 -0.475229 0
M  V30 9809 H 953.938 0.93057 -1.83111 0
M  V30 9810 H 952.168 3.481 -1.68414 0
M  V30 9811 H 953.857 3.47178 -2.10291 0
M  V30 9812 H 954.623 2.27905 -4.28117 0
M  V30 9813 H 950.502 3.12269 -3.3913 0
M  V30 9814 H 954.046 2.04279 -6.6702 0
M  V30 9815 H 949.943 2.88987 -5.77197 0
M  V30 9816 H 950.711 2.46716 -7.80432 0
M  V30 9817 N 953.375 1.23811 0.975125 0
M  V30 9818 C 954.322 1.02394 2.06843 0
M  V30 9819 C 955.292 -0.060337 1.6599 0
M  V30 9820 O 956.477 0.0928187 1.90574 0
M  V30 9821 C 953.617 0.626882 3.39359 0
M  V30 9822 C 952.73 1.78385 3.9345 0
M  V30 9823 C 951.865 1.33307 5.14201 0
M  V30 9824 C 950.904 2.46045 5.60471 0
M  V30 9825 N 950.041 2.01888 6.72448 0
M  V30 9826 H 954.881 1.95973 2.24496 0
M  V30 9827 H 952.418 0.976206 1.10039 0
M  V30 9828 H 954.376 0.377742 4.15486 0
M  V30 9829 H 953.006 -0.271907 3.21653 0
M  V30 9830 H 952.058 2.14685 3.14029 0
M  V30 9831 H 953.37 2.63122 4.23755 0
M  V30 9832 H 952.524 1.04237 5.97678 0
M  V30 9833 H 951.263 0.456143 4.85562 0
M  V30 9834 H 950.268 2.75884 4.75571 0
M  V30 9835 H 951.493 3.34283 5.91127 0
M  V30 9836 H 949.439 1.16583 6.45558 0
M  V30 9837 H 949.356 2.80182 7.02164 0
M  V30 9838 H 950.624 1.75937 7.59386 0
M  V30 9839 N 954.853 -1.17469 1.05066 0
M  V30 9840 C 956.081 -1.9162 0.780334 0
M  V30 9841 C 956.496 -1.76745 -0.663817 0
M  V30 9842 O 955.853 -1.10377 -1.45338 0
M  V30 9843 C 955.904 -3.42723 1.14992 0
M  V30 9844 O 955.625 -3.57139 2.53739 0
M  V30 9845 C 957.126 -4.33952 0.905549 0
M  V30 9846 H 954.346 -0.608022 0.283814 0
M  V30 9847 H 956.89 -1.4897 1.401 0
M  V30 9848 H 955.045 -3.83124 0.57403 0
M  V30 9849 H 955.459 -4.5075 2.68189 0
M  V30 9850 H 956.933 -5.38487 1.21391 0
M  V30 9851 H 957.41 -4.38911 -0.159295 0
M  V30 9852 H 958.016 -3.99263 1.46522 0
M  V30 9853 N 956.331 -0.831506 -1.3388 0
M  V30 9854 C 957.747 -0.518349 -1.50948 0
M  V30 9855 C 957.947 0.955807 -1.77388 0
M  V30 9856 O 957.003 1.73993 -1.82983 0
M  V30 9857 C 958.316 -1.38531 -2.66889 0
M  V30 9858 C 959.864 -1.38332 -2.80772 0
M  V30 9859 C 960.339 -2.23497 -3.99766 0
M  V30 9860 N 961.83 -2.21167 -4.06988 0
M  V30 9861 C 962.565 -2.83805 -4.98239 0
M  V30 9862 N 962.061 -3.55468 -5.94655 0
M  V30 9863 N 963.854 -2.73314 -4.91178 0
M  V30 9864 H 956.005 -1.78588 -1.14978 0
M  V30 9865 H 958.268 -0.761508 -0.564633 0
M  V30 9866 H 957.974 -2.43255 -2.54007 0
M  V30 9867 H 957.848 -1.05611 -3.62114 0
M  V30 9868 H 960.235 -0.343832 -2.9309 0
M  V30 9869 H 960.316 -1.75256 -1.86331 0
M  V30 9870 H 959.96 -3.27501 -3.88208 0
M  V30 9871 H 959.89 -1.83919 -4.93438 0
M  V30 9872 H 962.381 -1.69046 -3.37982 0
M  V30 9873 H 962.694 -4.00487 -6.60931 0
M  V30 9874 H 961.039 -3.59575 -5.94753 0
M  V30 9875 H 964.23 -2.16897 -4.14817 0
M  V30 9876 H 964.403 -3.22416 -5.62096 0
M  V30 9877 N 957.809 1.4625 -0.587256 0
M  V30 9878 C 959.034 2.07252 -0.0784517 0
M  V30 9879 C 959.459 1.43239 1.21919 0
M  V30 9880 O 958.817 0.517791 1.73749 0
M  V30 9881 C 958.865 3.60534 0.0691037 0
M  V30 9882 O 957.969 3.96773 1.12448 0
M  V30 9883 H 957.31 0.660825 -0.064859 0
M  V30 9884 H 959.84 1.87819 -0.811491 0
M  V30 9885 H 959.85 4.0708 0.273826 0
M  V30 9886 H 958.525 4.06516 -0.878514 0
M  V30 9887 H 957.102 3.6193 0.897852 0
M  V30 9888 N 959.287 0.325282 1.54207 0
M  V30 9889 C 960.197 -0.548778 2.28091 0
M  V30 9890 C 961.213 -1.12772 1.32508 0
M  V30 9891 O 962.389 -1.14732 1.65525 0
M  V30 9892 C 959.454 -1.69284 3.02562 0
M  V30 9893 C 958.515 -1.14553 4.13734 0
M  V30 9894 C 957.748 -2.23506 4.84645 0
M  V30 9895 O 957.971 -3.43884 4.55082 0
M  V30 9896 O 956.905 -1.88828 5.71513 0
M  V30 9897 H 960.731 0.0512974 3.03657 0
M  V30 9898 H 958.316 0.0909159 1.49123 0
M  V30 9899 H 960.198 -2.35887 3.49192 0
M  V30 9900 H 958.873 -2.27906 2.2987 0
M  V30 9901 H 957.78 -0.444532 3.71449 0
M  V30 9902 H 959.113 -0.60441 4.88475 0
M  V30 9903 N 960.765 -1.57509 0.0534917 0
M  V30 9904 C 961.99 -1.97511 -0.632794 0
M  V30 9905 C 962.415 -0.930947 -1.63447 0
M  V30 9906 O 961.773 0.105558 -1.80992 0
M  V30 9907 C 961.821 -3.3658 -1.29407 0
M  V30 9908 O 960.925 -3.3467 -2.40977 0
M  V30 9909 H 960.266 -0.643349 -0.16431 0
M  V30 9910 H 962.796 -2.04232 0.12258 0
M  V30 9911 H 962.806 -3.73359 -1.64521 0
M  V30 9912 H 961.481 -4.12113 -0.559976 0
M  V30 9913 H 960.058 -3.09639 -2.07793 0
M  V30 9914 N 962.243 0.219913 -1.56058 0
M  V30 9915 C 963.483 0.951113 -1.80923 0
M  V30 9916 C 963.847 1.81465 -0.627247 0
M  V30 9917 O 965.048 2.57972 -0.755237 0
M  V30 9918 C 963.319 1.76652 -3.10691 0
M  V30 9919 S 964.878 2.55314 -3.56876 0
M  V30 9920 H 961.696 0.319461 -0.635189 0
M  V30 9921 H 964.298 0.216551 -1.94297 0
M  V30 9922 H 963.002 1.12231 -3.94756 0
M  V30 9923 H 962.533 2.54335 -3.00128 0
M  V30 9924 H 964.548 3.78938 -3.20344 0
M  V30 9925 N 963.721 1.49897 0.486681 0
M  V30 9926 C 964.651 1.7054 1.59494 0
M  V30 9927 C 965.632 0.554184 1.60819 0
M  V30 9928 O 966.817 0.791617 1.77333 0
M  V30 9929 C 963.947 1.78517 2.97908 0
M  V30 9930 C 962.901 2.93571 3.11449 0
M  V30 9931 C 962.227 2.86674 4.51356 0
M  V30 9932 C 963.527 4.34308 2.90127 0
M  V30 9933 H 965.221 2.63329 1.42472 0
M  V30 9934 H 962.767 1.2672 0.683969 0
M  V30 9935 H 964.72 1.91544 3.75352 0
M  V30 9936 H 963.444 0.823381 3.16051 0
M  V30 9937 H 962.103 2.80169 2.36433 0
M  V30 9938 H 961.751 1.88373 4.66395 0
M  V30 9939 H 961.451 3.63903 4.61355 0
M  V30 9940 H 962.975 3.01728 5.30841 0
M  V30 9941 H 964.389 4.48317 3.57331 0
M  V30 9942 H 962.786 5.12869 3.11585 0
M  V30 9943 H 963.856 4.47759 1.86119 0
M  V30 9944 N 965.199 -0.738761 1.39212 0
M  V30 9945 C 966.109 -1.88324 1.39897 0
M  V30 9946 C 967.125 -1.71494 0.294229 0
M  V30 9947 O 968.301 -1.94162 0.535087 0
M  V30 9948 C 965.366 -3.23871 1.23726 0
M  V30 9949 C 964.427 -3.53121 2.44139 0
M  V30 9950 C 963.66 -4.82202 2.2873 0
M  V30 9951 O 963.883 -5.55649 1.28879 0
M  V30 9952 O 962.817 -5.11265 3.17634 0
M  V30 9953 H 966.643 -1.90701 2.36362 0
M  V30 9954 H 964.228 -0.886067 1.20288 0
M  V30 9955 H 966.11 -4.04882 1.16826 0
M  V30 9956 H 964.785 -3.22274 0.303551 0
M  V30 9957 H 963.692 -2.72212 2.56615 0
M  V30 9958 H 965.025 -3.59495 3.36191 0
M  V30 9959 N 966.677 -1.24326 -0.968545 0
M  V30 9960 C 967.902 -1.1104 -1.75171 0
M  V30 9961 C 968.327 0.333109 -1.85127 0
M  V30 9962 O 967.685 1.24115 -1.32156 0
M  V30 9963 C 967.733 -1.75397 -3.15068 0
M  V30 9964 O 966.837 -1.02417 -3.9948 0
M  V30 9965 H 966.178 -0.388488 -0.538491 0
M  V30 9966 H 968.708 -1.64617 -1.215 0
M  V30 9967 H 968.718 -1.8112 -3.65595 0
M  V30 9968 H 967.393 -2.80427 -3.07138 0
M  V30 9969 H 965.97 -1.04475 -3.57966 0
M  V30 9970 N 968.156 1.1691 -1.05688 0
M  V30 9971 C 969.403 1.87292 -0.76993 0
M  V30 9972 C 969.731 1.81339 0.703295 0
M  V30 9973 O 968.986 1.21959 1.5305 0
M  V30 9974 C 969.285 3.36578 -1.20207 0
M  V30 9975 C 968.951 3.62732 -2.67836 0
M  V30 9976 C 967.613 3.69579 -3.08163 0
M  V30 9977 C 969.965 3.73803 -3.63209 0
M  V30 9978 C 967.293 3.84992 -4.42717 0
M  V30 9979 C 969.645 3.90735 -4.97503 0
M  V30 9980 C 968.309 3.95823 -5.37476 0
M  V30 9981 H 967.579 0.68535 -0.281737 0
M  V30 9982 H 970.226 1.38274 -1.32486 0
M  V30 9983 H 968.531 3.87687 -0.566222 0
M  V30 9984 H 970.228 3.89409 -0.957183 0
M  V30 9985 H 966.818 3.58031 -2.35609 0
M  V30 9986 H 971.002 3.67829 -3.3319 0
M  V30 9987 H 966.258 3.87181 -4.73182 0
M  V30 9988 H 970.432 3.98243 -5.71293 0
M  V30 9989 H 968.059 4.07518 -6.41742 0
M  V30 9990 N 969.634 0.838594 1.33437 0
M  V30 9991 C 970.881 0.434169 1.97791 0
M  V30 9992 C 971.209 -1.00652 1.66431 0
M  V30 9993 O 970.464 -1.71848 0.936309 0
M  V30 9994 C 970.763 0.601425 3.52303 0
M  V30 9995 C 970.429 2.01017 4.03612 0
M  V30 9996 C 969.091 2.39551 4.17336 0
M  V30 9997 C 971.443 2.93035 4.31022 0
M  V30 9998 C 968.771 3.69406 4.55802 0
M  V30 9999 C 971.123 4.22372 4.7094 0
M  V30 10000 C 969.787 4.60862 4.82869 0
M  V30 10001 H 969.057 0.158874 0.723768 0
M  V30 10002 H 971.704 1.06556 1.59116 0
M  V30 10003 H 970.009 -0.113284 3.91636 0
M  V30 10004 H 971.706 0.268798 4.00098 0
M  V30 10005 H 968.296 1.7009 3.93405 0
M  V30 10006 H 972.48 2.64503 4.19943 0
M  V30 10007 H 967.736 3.99033 4.63231 0
M  V30 10008 H 971.91 4.93749 4.91106 0
M  V30 10009 H 969.537 5.6153 5.12433 0
M  V30 10010 N 971.112 -1.45937 0.595003 0
M  V30 10011 C 972.36 -2.01921 0.0851368 0
M  V30 10012 C 972.681 -1.46748 -1.28413 0
M  V30 10013 O 971.951 -0.656873 -1.84559 0
M  V30 10014 H 970.531 -0.746457 0.0284826 0
M  V30 10015 H 973.193 -1.78891 0.773561 0
M  V30 10016 H 972.289 -3.1209 0.0254002 0
M  V30 10017 N 972.59 -0.333456 -1.54032 0
M  V30 10018 C 974.006 0.0188405 -1.59589 0
M  V30 10019 C 974.206 1.49615 -1.34972 0
M  V30 10020 O 973.262 2.2535 -1.13901 0
M  V30 10021 C 974.575 -0.408273 -2.97915 0
M  V30 10022 C 976.123 -0.359763 -3.10926 0
M  V30 10023 C 976.598 -0.76219 -4.51613 0
M  V30 10024 N 978.089 -0.715981 -4.57633 0
M  V30 10025 C 978.824 -0.999436 -5.64623 0
M  V30 10026 N 978.32 -1.35053 -6.79509 0
M  V30 10027 N 980.113 -0.924343 -5.54448 0
M  V30 10028 H 972.264 -1.29587 -1.68289 0
M  V30 10029 H 974.527 -0.527584 -0.787629 0
M  V30 10030 H 974.233 -1.43793 -3.20962 0
M  V30 10031 H 974.107 0.221685 -3.76548 0
M  V30 10032 H 976.494 0.660703 -2.87609 0
M  V30 10033 H 976.575 -1.02479 -2.34375 0
M  V30 10034 H 976.219 -1.78062 -4.75664 0
M  V30 10035 H 976.149 -0.0747478 -5.26547 0
M  V30 10036 H 978.64 -0.456875 -3.75128 0
M  V30 10037 H 978.953 -1.55194 -7.57057 0
M  V30 10038 H 977.298 -1.38889 -6.80981 0
M  V30 10039 H 980.489 -0.649469 -4.63573 0
M  V30 10040 H 980.662 -1.1486 -6.37739 0
M  V30 10041 N 974.068 1.57479 -0.061844 0
M  V30 10042 C 975.031 2.1104 0.894127 0
M  V30 10043 C 976.031 1.03227 1.23292 0
M  V30 10044 O 977.221 1.29256 1.16784 0
M  V30 10045 C 974.353 2.6035 2.20069 0
M  V30 10046 H 975.546 2.96807 0.429619 0
M  V30 10047 H 973.099 1.55181 0.18672 0
M  V30 10048 H 973.834 1.78008 2.71079 0
M  V30 10049 H 973.619 3.39146 1.9678 0
M  V30 10050 H 975.109 3.019 2.88525 0
M  V30 10051 N 975.546 -0.211634 1.56173 0
M  V30 10052 C 976.509 -1.24588 1.92381 0
M  V30 10053 C 977.509 -1.39297 0.803311 0
M  V30 10054 O 978.699 -1.37392 1.07094 0
M  V30 10055 C 975.831 -2.61807 2.18335 0
M  V30 10056 H 977.024 -0.936814 2.84893 0
M  V30 10057 H 974.577 -0.452471 1.49607 0
M  V30 10058 H 975.312 -2.97795 1.28407 0
M  V30 10059 H 975.097 -2.52506 2.99972 0
M  V30 10060 H 976.587 -3.3642 2.4741 0
M  V30 10061 N 977.024 -1.50153 -0.478725 0
M  V30 10062 C 978.264 -1.62393 -1.24129 0
M  V30 10063 C 978.628 -0.313774 -1.89419 0
M  V30 10064 O 979.829 -0.311537 -2.66989 0
M  V30 10065 C 978.1 -2.76633 -2.26293 0
M  V30 10066 S 979.659 -3.08961 -3.11591 0
M  V30 10067 H 976.477 -0.572559 -0.421541 0
M  V30 10068 H 979.079 -1.87906 -0.539592 0
M  V30 10069 H 977.783 -3.70319 -1.76896 0
M  V30 10070 H 977.314 -2.53182 -3.01102 0
M  V30 10071 H 979.329 -2.52197 -4.2733 0
M  V30 10072 N 978.502 0.731368 -1.39602 0
M  V30 10073 C 979.748 1.49321 -1.37227 0
M  V30 10074 C 980.081 1.94176 0.0306502 0
M  V30 10075 O 979.356 1.67046 0.996294 0
M  V30 10076 C 979.639 2.73035 -2.34784 0
M  V30 10077 C 979.492 2.34176 -3.84033 0
M  V30 10078 C 980.811 3.75146 -2.30116 0
M  V30 10079 H 977.93 0.541652 -0.499783 0
M  V30 10080 H 980.572 0.835968 -1.70621 0
M  V30 10081 H 978.722 3.29114 -2.06437 0
M  V30 10082 H 980.394 1.83701 -4.23145 0
M  V30 10083 H 978.637 1.66361 -4.00633 0
M  V30 10084 H 979.308 3.22786 -4.47787 0
M  V30 10085 H 981.784 3.28661 -2.55189 0
M  V30 10086 H 980.66 4.5937 -3.00451 0
M  V30 10087 H 980.921 4.22326 -1.30741 0
M  V30 10088 N 979.98 1.24838 0.961938 0
M  V30 10089 C 981.208 1.11871 1.74047 0
M  V30 10090 C 981.623 -0.328209 1.85925 0
M  V30 10091 O 980.98 -1.22616 1.35173 0
M  V30 10092 C 981.031 1.75931 3.15801 0
M  V30 10093 O 980.752 3.14967 3.04512 0
M  V30 10094 C 982.253 1.68649 4.09966 0
M  V30 10095 H 979.473 0.390569 0.545616 0
M  V30 10096 H 982.017 1.65058 1.20732 0
M  V30 10097 H 980.172 1.26733 3.66084 0
M  V30 10098 H 980.586 3.46349 3.93882 0
M  V30 10099 H 982.06 2.18144 5.07067 0
M  V30 10100 H 982.537 0.648831 4.34381 0
M  V30 10101 H 983.143 2.17301 3.65596 0
M  V30 10102 N 981.458 -1.16348 1.06306 0
M  V30 10103 C 982.707 -1.8622 0.774909 0
M  V30 10104 C 983.02 -1.82598 -0.701245 0
M  V30 10105 O 984.226 -2.48051 -1.10377 0
M  V30 10106 C 982.682 -3.34182 1.33604 0
M  V30 10107 C 982.29 -3.46279 2.84245 0
M  V30 10108 C 984.034 -4.09309 1.12544 0
M  V30 10109 C 981.941 -4.88327 3.33602 0
M  V30 10110 H 980.871 -0.697574 0.286194 0
M  V30 10111 H 983.522 -1.31311 1.28179 0
M  V30 10112 H 981.904 -3.88698 0.756937 0
M  V30 10113 H 983.078 -3.01923 3.48108 0
M  V30 10114 H 981.393 -2.84585 3.03974 0
M  V30 10115 H 983.99 -5.14123 1.46909 0
M  V30 10116 H 984.333 -4.16251 0.0638129 0
M  V30 10117 H 984.866 -3.61032 1.67034 0
M  V30 10118 H 981.605 -4.86565 4.39244 0
M  V30 10119 H 981.125 -5.33307 2.74487 0
M  V30 10120 H 982.804 -5.57144 3.28937 0
M  V30 10121 N 982.937 -0.845659 -1.3299 0
M  V30 10122 C 983.867 -0.298957 -2.31578 0
M  V30 10123 C 984.848 0.597012 -1.59279 0
M  V30 10124 O 986.033 0.519142 -1.87132 0
M  V30 10125 C 983.163 0.521109 -3.43368 0
M  V30 10126 C 982.117 -0.279651 -4.27085 0
M  V30 10127 C 981.443 0.664591 -5.30554 0
M  V30 10128 C 982.743 -1.50046 -5.00283 0
M  V30 10129 H 984.437 -1.12272 -2.77552 0
M  V30 10130 H 981.983 -0.54132 -1.33438 0
M  V30 10131 H 983.936 0.913921 -4.1137 0
M  V30 10132 H 982.66 1.37815 -2.96099 0
M  V30 10133 H 981.319 -0.654106 -3.60717 0
M  V30 10134 H 980.967 1.51822 -4.79541 0
M  V30 10135 H 980.667 0.132871 -5.8745 0
M  V30 10136 H 982.191 1.05477 -6.01421 0
M  V30 10137 H 983.605 -1.18044 -5.61016 0
M  V30 10138 H 982.002 -1.96946 -5.66862 0
M  V30 10139 H 983.072 -2.26659 -4.28665 0
M  V30 10140 N 984.415 1.45619 -0.602734 0
M  V30 10141 C 985.64 2.07157 -0.100429 0
M  V30 10142 C 986.065 1.44524 1.20393 0
M  V30 10143 O 985.423 0.536191 1.7319 0
M  V30 10144 C 985.471 3.60587 0.0308604 0
M  V30 10145 O 984.575 3.97944 1.08234 0
M  V30 10146 H 983.916 0.6601 -0.0718643 0
M  V30 10147 H 986.446 1.86948 -0.831366 0
M  V30 10148 H 986.456 4.07348 0.230634 0
M  V30 10149 H 985.131 4.05561 -0.921581 0
M  V30 10150 H 983.708 3.62862 0.859414 0
M  V30 10151 N 985.893 0.34162 1.53853 0
M  V30 10152 C 986.823 -0.508431 2.27897 0
M  V30 10153 C 987.804 -1.10425 1.29384 0
M  V30 10154 O 988.989 -1.126 1.58224 0
M  V30 10155 C 986.119 -1.66048 3.05034 0
M  V30 10156 C 985.073 -1.19309 4.11035 0
M  V30 10157 C 984.399 -2.4335 4.76114 0
M  V30 10158 C 985.699 -0.294952 5.21467 0
M  V30 10159 H 987.393 0.109251 2.99201 0
M  V30 10160 H 984.939 0.0539847 1.43899 0
M  V30 10161 H 986.892 -2.26158 3.5557 0
M  V30 10162 H 985.616 -2.30503 2.31379 0
M  V30 10163 H 984.275 -0.614809 3.61408 0
M  V30 10164 H 983.923 -3.06208 3.99056 0
M  V30 10165 H 983.623 -2.1276 5.47729 0
M  V30 10166 H 985.147 -3.0419 5.29434 0
M  V30 10167 H 986.561 -0.80285 5.67651 0
M  V30 10168 H 984.958 -0.0810221 6.00045 0
M  V30 10169 H 986.028 0.669433 4.80257 0
M  V30 10170 N 987.371 -1.57444 0.0701946 0
M  V30 10171 C 988.599 -1.97754 -0.608358 0
M  V30 10172 C 989.014 -0.948496 -1.63245 0
M  V30 10173 O 988.371 0.065046 -1.82384 0
M  V30 10174 C 988.422 -3.38142 -1.27836 0
M  V30 10175 O 988.143 -4.37104 -0.295255 0
M  V30 10176 C 989.644 -3.93318 -2.04489 0
M  V30 10177 H 986.864 -0.650398 -0.164997 0
M  V30 10178 H 989.408 -2.04006 0.142124 0
M  V30 10179 H 987.563 -3.32982 -1.97994 0
M  V30 10180 H 987.977 -5.18732 -0.77574 0
M  V30 10181 H 989.451 -4.93774 -2.46762 0
M  V30 10182 H 989.928 -3.29774 -2.90079 0
M  V30 10183 H 990.534 -4.01875 -1.39201 0
M  V30 10184 N 988.849 0.203349 -1.56283 0
M  V30 10185 C 989.797 1.27157 -1.94766 0
M  V30 10186 C 990.791 1.4756 -0.832005 0
M  V30 10187 O 991.997 1.48519 -1.01696 0
M  V30 10188 H 988.372 0.426712 -0.61921 0
M  V30 10189 H 990.343 0.919921 -2.83866 0
M  V30 10190 C 989.092 2.6108 -2.29636 0
M  V30 10191 H 988.415 2.46193 -3.15006 0
M  V30 10192 H 989.855 3.34591 -2.60433 0
M  V30 10193 C 988.314 3.17456 -1.12799 0
M  V30 10194 O 988.844 3.99717 -0.398661 0
M  V30 10195 N 987.05 2.76084 -0.906975 0
M  V30 10196 H 986.597 2.09294 -1.50179 0
M  V30 10197 H 986.555 3.14143 -0.127005 0
M  V30 10198 N 990.327 1.50405 0.470755 0
M  V30 10199 C 991.552 1.65442 1.25075 0
M  V30 10200 C 991.977 0.337612 1.85045 0
M  V30 10201 O 991.335 -0.698555 1.67302 0
M  V30 10202 C 991.383 2.74793 2.33498 0
M  V30 10203 O 990.487 2.36069 3.3815 0
M  V30 10204 H 989.828 0.552728 0.367951 0
M  V30 10205 H 992.358 1.96782 0.560177 0
M  V30 10206 H 992.368 2.97879 2.78804 0
M  V30 10207 H 991.043 3.70363 1.8922 0
M  V30 10208 H 989.62 2.2343 2.98552 0
M  V30 10209 N 991.805 -0.723954 1.39988 0
M  V30 10210 C 993.03 -1.5182 1.41299 0
M  V30 10211 C 993.455 -1.88096 0.0122636 0
M  V30 10212 O 992.813 -1.52687 -0.977559 0
M  V30 10213 C 992.861 -2.77532 2.30235 0
M  V30 10214 O 991.965 -3.73903 1.73984 0
M  V30 10215 H 991.306 -0.458058 0.480707 0
M  V30 10216 H 993.836 -0.892291 1.84118 0
M  V30 10217 H 993.846 -3.2615 2.45132 0
M  V30 10218 H 992.521 -2.50462 3.32026 0
M  V30 10219 H 991.098 -3.32715 1.68389 0
M  V30 10220 N 993.283 -1.25346 -0.955304 0
M  V30 10221 C 994.23 -1.05672 -2.05188 0
M  V30 10222 C 995.2 0.0339217 -1.66065 0
M  V30 10223 O 996.385 -0.123126 -1.90402 0
M  V30 10224 C 993.525 -0.680791 -3.38318 0
M  V30 10225 C 992.638 -1.84622 -3.90562 0
M  V30 10226 C 991.773 -1.41471 -5.12015 0
M  V30 10227 C 990.812 -2.54931 -5.56486 0
M  V30 10228 N 989.949 -2.1256 -6.69151 0
M  V30 10229 H 994.789 -1.9952 -2.2135 0
M  V30 10230 H 992.326 -0.993588 -1.08472 0
M  V30 10231 H 994.284 -0.443794 -4.14833 0
M  V30 10232 H 992.914 0.2207 -3.22045 0
M  V30 10233 H 991.966 -2.19654 -3.10574 0
M  V30 10234 H 993.278 -2.6983 -4.19515 0
M  V30 10235 H 992.432 -1.13732 -5.95945 0
M  V30 10236 H 991.171 -0.533334 -4.84775 0
M  V30 10237 H 990.176 -2.83415 -4.71122 0
M  V30 10238 H 991.401 -3.43645 -5.85734 0
M  V30 10239 H 989.347 -1.26838 -6.43621 0
M  V30 10240 H 989.264 -2.91317 -6.97618 0
M  V30 10241 H 990.532 -1.87996 -7.5649 0
M  V30 10242 N 994.761 1.15782 -1.06922 0
M  V30 10243 C 995.986 1.90896 -0.810771 0
M  V30 10244 C 996.411 1.77246 0.629714 0
M  V30 10245 O 995.769 1.10215 1.43953 0
M  V30 10246 C 995.817 3.39397 -1.21829 0
M  V30 10247 O 994.921 4.10818 -0.360934 0
M  V30 10248 H 994.262 0.594497 -0.295752 0
M  V30 10249 H 996.792 1.46652 -1.42669 0
M  V30 10250 H 996.802 3.90181 -1.19259 0
M  V30 10251 H 995.477 3.4865 -2.2675 0
M  V30 10252 H 994.054 3.7019 -0.448748 0
M  V30 10253 N 996.239 0.8527 1.3254 0
M  V30 10254 C 997.487 0.454224 1.96929 0
M  V30 10255 C 997.808 -0.993034 1.67821 0
M  V30 10256 O 997.078 -1.69371 0.984393 0
M  V30 10257 H 995.658 0.164977 0.728554 0
M  V30 10258 H 998.32 1.0887 1.61658 0
M  V30 10259 H 997.416 0.597667 3.06324 0
M  V30 10260 N 997.718 -1.45297 0.610449 0
M  V30 10261 C 998.628 -2.34349 -0.108475 0
M  V30 10262 C 999.644 -1.51409 -0.857397 0
M  V30 10263 O 1000.82 -1.84202 -0.814337 0
M  V30 10264 C 997.885 -3.29072 -1.09144 0
M  V30 10265 C 996.946 -4.27918 -0.344165 0
M  V30 10266 C 996.179 -5.18116 -1.28031 0
M  V30 10267 O 996.402 -5.11802 -2.51824 0
M  V30 10268 O 995.336 -5.96879 -0.775821 0
M  V30 10269 H 999.162 -2.97232 0.623421 0
M  V30 10270 H 996.747 -1.44728 0.3707 0
M  V30 10271 H 998.629 -3.87433 -1.65751 0
M  V30 10272 H 997.304 -2.68749 -1.80431 0
M  V30 10273 H 996.211 -3.73164 0.264437 0
M  V30 10274 H 997.544 -4.91104 0.328275 0
M  V30 10275 N 999.196 -0.349774 -1.5367 0
M  V30 10276 C 1000.11 0.512421 -2.28935 0
M  V30 10277 C 1001.12 1.1065 -1.34286 0
M  V30 10278 O 1002.3 1.12084 -1.67329 0
M  V30 10279 C 999.363 1.64449 -3.05217 0
M  V30 10280 C 998.424 1.07956 -4.15505 0
M  V30 10281 C 997.657 2.15768 -4.88139 0
M  V30 10282 O 997.88 3.366 -4.60496 0
M  V30 10283 O 996.814 1.79712 -5.74445 0
M  V30 10284 H 1000.64 -0.0996001 -3.03537 0
M  V30 10285 H 998.225 -0.114629 -1.4896 0
M  V30 10286 H 1000.11 2.30302 -3.52901 0
M  V30 10287 H 998.782 2.24221 -2.33467 0
M  V30 10288 H 997.689 0.385381 -3.7211 0
M  V30 10289 H 999.022 0.526621 -4.89375 0
M  V30 10290 N 1000.67 1.57404 -0.0785433 0
M  V30 10291 C 1001.62 2.13104 0.88631 0
M  V30 10292 C 1002.59 1.04527 1.29086 0
M  V30 10293 O 1003.78 1.32226 1.37553 0
M  V30 10294 C 1000.92 2.70252 2.14611 0
M  V30 10295 C 1000.03 3.93007 1.79358 0
M  V30 10296 C 999.164 4.38376 3 0
M  V30 10297 C 998.203 5.53761 2.60796 0
M  V30 10298 N 997.34 5.94058 3.74219 0
M  V30 10299 H 1002.18 2.95243 0.404452 0
M  V30 10300 H 999.717 1.45894 0.187982 0
M  V30 10301 H 1001.67 3.01497 2.88367 0
M  V30 10302 H 1000.3 1.90868 2.60326 0
M  V30 10303 H 999.357 3.68181 0.956384 0
M  V30 10304 H 1000.67 4.76795 1.4652 0
M  V30 10305 H 999.823 4.71317 3.82027 0
M  V30 10306 H 998.562 3.53455 3.36037 0
M  V30 10307 H 997.567 5.20464 1.77192 0
M  V30 10308 H 998.792 6.40419 2.25922 0
M  V30 10309 H 996.738 5.12085 4.10005 0
M  V30 10310 H 996.655 6.72602 3.45171 0
M  V30 10311 H 997.923 6.31624 4.56805 0
M  V30 10312 N 1002.15 -0.195058 1.56388 0
M  V30 10313 C 1003.1 -1.24175 1.94549 0
M  V30 10314 C 1004.07 -1.45229 0.806089 0
M  V30 10315 O 1005.25 -1.58362 1.06425 0
M  V30 10316 C 1002.39 -2.58145 2.29031 0
M  V30 10317 C 1001.51 -2.44669 3.56035 0
M  V30 10318 C 1000.64 -3.71342 3.7984 0
M  V30 10319 C 999.681 -3.52699 5.0027 0
M  V30 10320 N 998.818 -4.71385 5.20328 0
M  V30 10321 H 1003.66 -0.909319 2.83788 0
M  V30 10322 H 1001.19 -0.437641 1.40439 0
M  V30 10323 H 1003.15 -3.36195 2.4704 0
M  V30 10324 H 1001.78 -2.8943 1.42933 0
M  V30 10325 H 1000.83 -1.57916 3.46073 0
M  V30 10326 H 1002.15 -2.26827 4.44242 0
M  V30 10327 H 1001.3 -4.57832 3.98088 0
M  V30 10328 H 1000.04 -3.92138 2.89964 0
M  V30 10329 H 999.045 -2.64594 4.81944 0
M  V30 10330 H 1000.27 -3.33349 5.91655 0
M  V30 10331 H 998.216 -4.92444 4.33399 0
M  V30 10332 H 998.133 -4.56368 6.02714 0
M  V30 10333 H 999.401 -5.59226 5.43035 0
M  V30 10334 N 1003.63 -1.50653 -0.462772 0
M  V30 10335 C 1004.58 -1.66509 -1.55752 0
M  V30 10336 C 1005.56 -0.519508 -1.52282 0
M  V30 10337 O 1006.76 -0.774296 -1.59166 0
M  V30 10338 C 1003.88 -1.77023 -2.94139 0
M  V30 10339 C 1002.97 -2.97284 -3.02461 0
M  V30 10340 N 1003.36 -4.20843 -2.80579 0
M  V30 10341 C 1001.66 -2.96014 -3.33604 0
M  V30 10342 C 1002.36 -5.01886 -2.94084 0
M  V30 10343 N 1001.34 -4.3601 -3.24648 0
M  V30 10344 H 1005.14 -2.59727 -1.37546 0
M  V30 10345 H 1002.65 -1.47951 -0.669653 0
M  V30 10346 H 1004.65 -1.86488 -3.72864 0
M  V30 10347 H 1003.31 -0.849688 -3.13385 0
M  V30 10348 H 1004.32 -4.50206 -2.55998 0
M  V30 10349 H 1001 -2.13493 -3.58786 0
M  V30 10350 H 1002.39 -6.10164 -2.81334 0
M  V30 10351 N 1005.11 0.71652 -1.4037 0
M  V30 10352 C 1006.36 1.47638 -1.38597 0
M  V30 10353 C 1006.68 1.94496 0.0120141 0
M  V30 10354 O 1005.94 1.68437 0.996373 0
M  V30 10355 C 1006.24 2.71777 -2.32103 0
M  V30 10356 C 1005.9 2.43689 -3.79376 0
M  V30 10357 C 1004.57 2.35739 -4.195 0
M  V30 10358 C 1006.92 2.20099 -4.72447 0
M  V30 10359 C 1004.25 2.02265 -5.50732 0
M  V30 10360 C 1006.6 1.88138 -6.03976 0
M  V30 10361 C 1005.26 1.78669 -6.43143 0
M  V30 10362 H 1004.53 0.540246 -0.507163 0
M  V30 10363 H 1007.18 0.820822 -1.73017 0
M  V30 10364 H 1005.48 3.42166 -1.90865 0
M  V30 10365 H 1007.18 3.29864 -2.28015 0
M  V30 10366 H 1003.77 2.50763 -3.47585 0
M  V30 10367 H 1007.95 2.25198 -4.42266 0
M  V30 10368 H 1003.21 1.93471 -5.79982 0
M  V30 10369 H 1007.38 1.68898 -6.75608 0
M  V30 10370 H 1005.01 1.52498 -7.44747 0
M  V30 10371 N 1006.59 1.25851 0.948643 0
M  V30 10372 C 1007.53 1.06559 2.06756 0
M  V30 10373 C 1008.53 -0.00528632 1.69399 0
M  V30 10374 O 1009.73 0.150806 1.79367 0
M  V30 10375 H 1006.11 0.327689 0.676848 0
M  V30 10376 H 1008.08 2.01401 2.20182 0
M  V30 10377 C 1006.83 0.707392 3.40428 0
M  V30 10378 H 1006.15 1.52324 3.69645 0
M  V30 10379 H 1007.59 0.612142 4.19558 0
M  V30 10380 C 1006.05 -0.58697 3.31747 0
M  V30 10381 O 1006.58 -1.62741 3.67258 0
M  V30 10382 N 1004.79 -0.574828 2.84858 0
M  V30 10383 H 1004.33 0.272236 2.56157 0
M  V30 10384 H 1004.29 -1.441 2.79432 0
M  V30 10385 N 1008.06 -1.15214 1.07534 0
M  V30 10386 C 1009.31 -1.85388 0.794617 0
M  V30 10387 C 1009.63 -1.83331 -0.681838 0
M  V30 10388 O 1010.83 -2.49207 -1.0774 0
M  V30 10389 C 1009.29 -3.32747 1.37141 0
M  V30 10390 C 1008.9 -3.43244 2.87902 0
M  V30 10391 C 1010.64 -4.08093 1.16879 0
M  V30 10392 C 1008.55 -4.84762 3.38763 0
M  V30 10393 H 1007.48 -0.694499 0.293577 0
M  V30 10394 H 1010.13 -1.29944 1.29564 0
M  V30 10395 H 1008.51 -3.87874 0.798121 0
M  V30 10396 H 1009.68 -2.98214 3.51291 0
M  V30 10397 H 1008 -2.81345 3.06975 0
M  V30 10398 H 1010.6 -5.12535 1.52353 0
M  V30 10399 H 1010.94 -4.1616 0.107958 0
M  V30 10400 H 1011.47 -3.59241 1.70854 0
M  V30 10401 H 1008.21 -4.81879 4.4438 0
M  V30 10402 H 1007.73 -5.30366 2.80128 0
M  V30 10403 H 1009.41 -5.53624 3.34827 0
M  V30 10404 N 1009.54 -0.859717 -1.32086 0
M  V30 10405 C 1010.79 -0.475565 -1.97762 0
M  V30 10406 C 1011.14 0.959348 -1.66776 0
M  V30 10407 O 1010.44 1.66484 -0.948343 0
M  V30 10408 C 1010.63 -0.657397 -3.51302 0
M  V30 10409 C 1010.46 -2.10843 -3.97209 0
M  V30 10410 C 1009.23 -2.74796 -4.24046 0
M  V30 10411 C 1011.43 -3.07959 -4.11905 0
M  V30 10412 N 1009.41 -4.10758 -4.56236 0
M  V30 10413 C 1010.78 -4.28922 -4.4769 0
M  V30 10414 C 1012.84 -3.04086 -3.94254 0
M  V30 10415 C 1011.54 -5.46518 -4.67665 0
M  V30 10416 C 1013.56 -4.20931 -4.15416 0
M  V30 10417 C 1012.93 -5.40654 -4.51522 0
M  V30 10418 H 1009.03 -0.222859 -0.749572 0
M  V30 10419 H 1011.61 -1.11217 -1.59809 0
M  V30 10420 H 1009.78 -0.0504597 -3.88367 0
M  V30 10421 H 1011.51 -0.242642 -4.03972 0
M  V30 10422 H 1008.27 -2.25805 -4.16304 0
M  V30 10423 H 1008.69 -4.80905 -4.76507 0
M  V30 10424 H 1013.33 -2.12641 -3.65436 0
M  V30 10425 H 1011.05 -6.3849 -4.95335 0
M  V30 10426 H 1014.64 -4.19376 -4.03255 0
M  V30 10427 H 1013.52 -6.29563 -4.67568 0
M  V30 10428 N 1011.02 1.44971 -0.618145 0
M  V30 10429 C 1011.97 2.32354 0.106846 0
M  V30 10430 C 1012.96 1.4659 0.848984 0
M  V30 10431 O 1014.17 1.63012 0.763354 0
M  V30 10432 H 1010.54 0.750108 0.0533109 0
M  V30 10433 H 1012.51 2.9127 -0.648426 0
M  V30 10434 C 1011.26 3.30381 1.08368 0
M  V30 10435 H 1010.59 3.96377 0.52205 0
M  V30 10436 H 1012.03 3.94231 1.56069 0
M  V30 10437 C 1010.49 2.58336 2.1625 0
M  V30 10438 O 1011.02 2.37258 3.24148 0
M  V30 10439 N 1009.22 2.18292 1.91825 0
M  V30 10440 H 1008.77 2.35635 1.04086 0
M  V30 10441 H 1008.73 1.70413 2.6421 0
M  V30 10442 N 1012.5 0.357919 1.53482 0
M  V30 10443 C 1013.75 -0.235241 2.00324 0
M  V30 10444 C 1014.06 -1.50494 1.24944 0
M  V30 10445 O 1015.27 -2.17623 1.62335 0
M  V30 10446 C 1013.72 -0.469748 3.56821 0
M  V30 10447 C 1013.33 0.784877 4.41071 0
M  V30 10448 C 1015.07 -1.02098 4.12039 0
M  V30 10449 C 1012.98 0.520377 5.89106 0
M  V30 10450 H 1011.91 -0.0916816 0.748405 0
M  V30 10451 H 1014.56 0.475474 1.77233 0
M  V30 10452 H 1012.94 -1.24153 3.76035 0
M  V30 10453 H 1014.12 1.55886 4.33631 0
M  V30 10454 H 1012.43 1.25878 3.96918 0
M  V30 10455 H 1015.03 -1.23406 5.20264 0
M  V30 10456 H 1015.37 -1.98084 3.66154 0
M  V30 10457 H 1015.91 -0.309554 3.96594 0
M  V30 10458 H 1012.65 1.45035 6.39254 0
M  V30 10459 H 1012.17 -0.215254 5.99414 0
M  V30 10460 H 1013.84 0.143006 6.46842 0
M  V30 10461 N 1013.98 -1.5736 0.0868897 0
M  V30 10462 C 1015.2 -1.98388 -0.587349 0
M  V30 10463 C 1015.62 -0.965757 -1.6223 0
M  V30 10464 O 1014.98 0.0456981 -1.82443 0
M  V30 10465 C 1015.03 -3.39479 -1.24242 0
M  V30 10466 O 1014.75 -4.37393 -0.248878 0
M  V30 10467 C 1016.25 -3.95465 -2.00305 0
M  V30 10468 H 1013.47 -0.652111 -0.15809 0
M  V30 10469 H 1016.01 -2.03843 0.163754 0
M  V30 10470 H 1014.17 -3.35063 -1.94451 0
M  V30 10471 H 1014.58 -5.19525 -0.720678 0
M  V30 10472 H 1016.06 -4.96363 -2.41511 0
M  V30 10473 H 1016.53 -3.32832 -2.86565 0
M  V30 10474 H 1017.14 -4.03328 -1.34931 0
M  V30 10475 N 1015.45 0.186762 -1.56489 0
M  V30 10476 C 1016.68 0.920495 -1.84961 0
M  V30 10477 C 1017.09 1.77004 -0.668297 0
M  V30 10478 O 1016.44 1.79891 0.37213 0
M  V30 10479 C 1016.5 1.85997 -3.07645 0
M  V30 10480 C 1016.16 1.19156 -4.41193 0
M  V30 10481 C 1017.16 0.564446 -5.16827 0
M  V30 10482 C 1014.84 1.19292 -4.87929 0
M  V30 10483 C 1016.84 -0.0523768 -6.37378 0
M  V30 10484 C 1014.52 0.572266 -6.08415 0
M  V30 10485 C 1015.52 -0.049294 -6.82982 0
M  V30 10486 O 1015.21 -0.660201 -8.01184 0
M  V30 10487 H 1014.94 0.273659 -0.618132 0
M  V30 10488 H 1017.5 0.196437 -2.04459 0
M  V30 10489 H 1015.73 2.62394 -2.84053 0
M  V30 10490 H 1017.42 2.46221 -3.22692 0
M  V30 10491 H 1018.18 0.555474 -4.81809 0
M  V30 10492 H 1014.06 1.66611 -4.29839 0
M  V30 10493 H 1017.6 -0.538133 -6.95521 0
M  V30 10494 H 1013.5 0.578769 -6.429 0
M  V30 10495 H 1014.27 -0.557926 -8.16596 0
M  V30 10496 N 1016.93 1.50896 0.454776 0
M  V30 10497 C 1018.16 1.6648 1.22849 0
M  V30 10498 C 1018.58 0.354841 1.85435 0
M  V30 10499 O 1017.93 -0.664931 1.69956 0
M  V30 10500 C 1017.98 2.76787 2.32532 0
M  V30 10501 O 1017.7 4.02706 1.72509 0
M  V30 10502 C 1019.21 3.03488 3.23125 0
M  V30 10503 H 1016.43 0.559152 0.370932 0
M  V30 10504 H 1018.97 1.97215 0.540983 0
M  V30 10505 H 1017.12 2.48701 2.9703 0
M  V30 10506 H 1017.54 4.63834 2.44863 0
M  V30 10507 H 1019.01 3.84294 3.9626 0
M  V30 10508 H 1019.49 2.152 3.82865 0
M  V30 10509 H 1020.1 3.33167 2.64347 0
M  V30 10510 N 1018.41 -0.709066 1.40748 0
M  V30 10511 C 1019.69 -1.4626 1.29874 0
M  V30 10512 C 1020.07 -2.10949 -0.0799322 0
M  V30 10513 O 1019.42 -2.00651 -1.09323 0
M  V30 10514 C 1019.63 -2.49302 2.44232 0
M  V30 10515 C 1020.97 -3.14945 2.84771 0
M  V30 10516 O 1022 -2.59623 2.43873 0
M  V30 10517 O 1020.86 -4.15111 3.5545 0
M  V30 10518 H 1017.95 -0.650716 0.51039 0
M  V30 10519 H 1020.5 -0.740687 1.52682 0
M  V30 10520 H 1019.27 -2.00063 3.36289 0
M  V30 10521 H 1018.89 -3.29021 2.23229 0
M  V30 10522 N 1019.89 -1.26353 -0.941956 0
M  V30 10523 C 1021.12 -1.14626 -1.72245 0
M  V30 10524 C 1021.53 0.298588 -1.86424 0
M  V30 10525 O 1020.89 1.2045 -1.37106 0
M  V30 10526 C 1020.94 -1.80933 -3.12963 0
M  V30 10527 O 1020.66 -3.19771 -2.99463 0
M  V30 10528 C 1022.16 -1.7515 -4.07231 0
M  V30 10529 H 1019.38 -0.3992 -0.539333 0
M  V30 10530 H 1021.93 -1.66958 -1.1809 0
M  V30 10531 H 1020.08 -1.32541 -3.64021 0
M  V30 10532 H 1020.5 -3.52571 -3.88322 0
M  V30 10533 H 1021.97 -2.26183 -5.03533 0
M  V30 10534 H 1022.45 -0.717855 -4.33294 0
M  V30 10535 H 1023.05 -2.2309 -3.62093 0
M  V30 10536 N 1021.37 1.14642 -1.08144 0
M  V30 10537 C 1022.61 1.85892 -0.810683 0
M  V30 10538 C 1022.95 1.82575 0.661821 0
M  V30 10539 O 1022.22 1.25454 1.48632 0
M  V30 10540 C 1022.5 3.34647 -1.32979 0
M  V30 10541 C 1022.36 3.46551 -2.86744 0
M  V30 10542 C 1023.68 4.29661 -0.952864 0
M  V30 10543 H 1020.8 0.674963 -0.295963 0
M  V30 10544 H 1023.44 1.3464 -1.3406 0
M  V30 10545 H 1021.59 3.78425 -0.87903 0
M  V30 10546 H 1023.26 3.11579 -3.40171 0
M  V30 10547 H 1021.5 2.87849 -3.24539 0
M  V30 10548 H 1022.17 4.51101 -3.18138 0
M  V30 10549 H 1024.65 3.93885 -1.34141 0
M  V30 10550 H 1023.53 5.32209 -1.34331 0
M  V30 10551 H 1023.79 4.41877 0.140392 0
M  V30 10552 N 1022.85 0.866709 1.31628 0
M  V30 10553 C 1023.78 0.277328 2.27516 0
M  V30 10554 C 1024.79 -0.557786 1.52946 0
M  V30 10555 O 1025.98 -0.38031 1.74402 0
M  V30 10556 C 1023.08 -0.625742 3.33073 0
M  V30 10557 C 1022.25 0.176204 4.37045 0
M  V30 10558 C 1021.31 -0.654497 5.22114 0
M  V30 10559 O 1020.34 -0.0836961 5.69138 0
M  V30 10560 N 1021.54 -1.96708 5.46156 0
M  V30 10561 H 1024.3 1.10133 2.78731 0
M  V30 10562 H 1021.87 0.72787 1.44616 0
M  V30 10563 H 1023.86 -1.18709 3.86898 0
M  V30 10564 H 1022.43 -1.35042 2.81926 0
M  V30 10565 H 1021.65 0.918999 3.83338 0
M  V30 10566 H 1022.94 0.726594 5.03585 0
M  V30 10567 H 1022.33 -2.454 5.09701 0
M  V30 10568 H 1020.89 -2.47629 6.02929 0
M  V30 10569 N 1024.32 -1.44642 0.625825 0
M  V30 10570 C 1025.25 -2.33397 -0.0692188 0
M  V30 10571 C 1026.23 -1.47898 -0.840241 0
M  V30 10572 O 1027.42 -1.7663 -0.807176 0
M  V30 10573 C 1024.55 -3.30888 -1.055 0
M  V30 10574 C 1023.5 -4.26164 -0.395968 0
M  V30 10575 C 1022.83 -5.13483 -1.49128 0
M  V30 10576 C 1024.13 -5.17663 0.694433 0
M  V30 10577 H 1025.82 -2.91763 0.671925 0
M  V30 10578 H 1023.37 -1.40294 0.324573 0
M  V30 10579 H 1025.32 -3.91861 -1.54993 0
M  V30 10580 H 1024.05 -2.7072 -1.82696 0
M  V30 10581 H 1022.71 -3.66516 0.0782691 0
M  V30 10582 H 1022.35 -4.49672 -2.25399 0
M  V30 10583 H 1022.05 -5.78038 -1.05573 0
M  V30 10584 H 1023.58 -5.77327 -1.98813 0
M  V30 10585 H 1024.99 -5.72602 0.282818 0
M  V30 10586 H 1023.39 -5.90793 1.05281 0
M  V30 10587 H 1024.46 -4.58994 1.56372 0
M  V30 10588 N 1025.8 -0.366053 -1.5329 0
M  V30 10589 C 1027.22 -0.0150149 -1.59593 0
M  V30 10590 C 1027.42 1.46719 -1.38116 0
M  V30 10591 O 1026.47 2.22884 -1.18656 0
M  V30 10592 C 1027.79 -0.471374 -2.96982 0
M  V30 10593 C 1029.33 -0.425634 -3.10092 0
M  V30 10594 C 1029.81 -0.857812 -4.49895 0
M  V30 10595 N 1031.3 -0.81289 -4.56011 0
M  V30 10596 C 1032.04 -1.11898 -5.62376 0
M  V30 10597 N 1031.53 -1.49436 -6.76491 0
M  V30 10598 N 1033.32 -1.04174 -5.52362 0
M  V30 10599 H 1025.48 -1.33127 -1.65502 0
M  V30 10600 H 1027.74 -0.544172 -0.776261 0
M  V30 10601 H 1027.44 -1.50569 -3.1784 0
M  V30 10602 H 1027.32 0.141764 -3.76934 0
M  V30 10603 H 1029.71 0.599548 -2.88945 0
M  V30 10604 H 1029.79 -1.07427 -2.32149 0
M  V30 10605 H 1029.43 -1.88111 -4.7178 0
M  V30 10606 H 1029.36 -0.186419 -5.2627 0
M  V30 10607 H 1031.85 -0.536343 -3.74075 0
M  V30 10608 H 1032.16 -1.71217 -7.53594 0
M  V30 10609 H 1030.51 -1.53302 -6.77882 0
M  V30 10610 H 1033.7 -0.747654 -4.62091 0
M  V30 10611 H 1033.87 -1.28362 -6.35159 0
M  V30 10612 N 1027.28 1.57312 -0.0952337 0
M  V30 10613 C 1028.7 1.57445 0.261416 0
M  V30 10614 C 1028.9 1.10639 1.68408 0
M  V30 10615 O 1027.95 0.782912 2.40056 0
M  V30 10616 C 1029.26 3.00659 0.0497206 0
M  V30 10617 C 1030.81 3.1278 0.117459 0
M  V30 10618 C 1031.29 4.57952 -0.0662441 0
M  V30 10619 N 1032.78 4.63199 -0.0114146 0
M  V30 10620 C 1033.51 5.73255 -0.128799 0
M  V30 10621 N 1033.01 6.92146 -0.301026 0
M  V30 10622 N 1034.8 5.62056 -0.0700599 0
M  V30 10623 H 1026.95 1.86045 -1.02475 0
M  V30 10624 H 1029.22 0.858726 -0.401614 0
M  V30 10625 H 1028.92 3.39102 -0.932888 0
M  V30 10626 H 1028.8 3.68792 0.791975 0
M  V30 10627 H 1031.18 2.74209 1.09057 0
M  V30 10628 H 1031.26 2.47238 -0.656288 0
M  V30 10629 H 1030.91 4.97217 -1.03623 0
M  V30 10630 H 1030.84 5.21555 0.727198 0
M  V30 10631 H 1033.33 3.77712 0.119154 0
M  V30 10632 H 1033.64 7.71855 -0.382104 0
M  V30 10633 H 1031.99 6.94184 -0.336695 0
M  V30 10634 H 1035.18 4.68057 0.0633587 0
M  V30 10635 H 1035.35 6.4779 -0.164991 0
M  V30 10636 N 1028.76 -0.17846 1.56586 0
M  V30 10637 C 1029.7 -1.22104 1.95855 0
M  V30 10638 C 1030.67 -1.44366 0.821447 0
M  V30 10639 O 1031.86 -1.57224 1.08098 0
M  V30 10640 C 1029 -2.55701 2.31757 0
M  V30 10641 C 1028.11 -2.40879 3.5861 0
M  V30 10642 C 1027.25 -3.67293 3.83757 0
M  V30 10643 C 1026.29 -3.47373 5.03982 0
M  V30 10644 N 1025.42 -4.65839 5.25298 0
M  V30 10645 H 1030.26 -0.879168 2.84736 0
M  V30 10646 H 1027.8 -0.422721 1.40895 0
M  V30 10647 H 1029.76 -3.33556 2.50592 0
M  V30 10648 H 1028.39 -2.87898 1.45995 0
M  V30 10649 H 1027.44 -1.54236 3.47729 0
M  V30 10650 H 1028.75 -2.22102 4.46623 0
M  V30 10651 H 1027.91 -4.53584 4.02922 0
M  V30 10652 H 1026.65 -3.89041 2.94107 0
M  V30 10653 H 1025.65 -2.59467 4.84723 0
M  V30 10654 H 1026.88 -3.27055 5.95157 0
M  V30 10655 H 1024.82 -4.8782 4.38598 0
M  V30 10656 H 1024.74 -4.4995 6.0752 0
M  V30 10657 H 1026.01 -5.53435 5.48936 0
M  V30 10658 N 1030.24 -1.51135 -0.446768 0
M  V30 10659 C 1031.17 -1.74709 -1.54916 0
M  V30 10660 C 1032.15 -0.596628 -1.59293 0
M  V30 10661 O 1033.33 -0.838356 -1.75172 0
M  V30 10662 C 1030.46 -1.86353 -2.9307 0
M  V30 10663 C 1029.42 -3.01725 -3.03556 0
M  V30 10664 C 1028.74 -2.9854 -4.43597 0
M  V30 10665 C 1030.04 -4.41848 -2.7851 0
M  V30 10666 H 1031.74 -2.67014 -1.3544 0
M  V30 10667 H 1029.28 -1.28489 -0.650131 0
M  V30 10668 H 1031.23 -2.01428 -3.70141 0
M  V30 10669 H 1029.96 -0.906887 -3.13756 0
M  V30 10670 H 1028.62 -2.86339 -2.28922 0
M  V30 10671 H 1028.27 -2.00673 -4.61237 0
M  V30 10672 H 1027.97 -3.76008 -4.51544 0
M  V30 10673 H 1029.49 -3.15696 -5.22655 0
M  V30 10674 H 1030.9 -4.57633 -3.45319 0
M  V30 10675 H 1029.3 -5.2095 -2.97877 0
M  V30 10676 H 1030.37 -4.52536 -1.74182 0
M  V30 10677 N 1031.71 0.701592 -1.41122 0
M  V30 10678 C 1032.62 1.84548 -1.44841 0
M  V30 10679 C 1033.64 1.70654 -0.339594 0
M  V30 10680 O 1034.82 1.92675 -0.586378 0
M  V30 10681 C 1031.88 3.20477 -1.3227 0
M  V30 10682 C 1030.94 3.46524 -2.53415 0
M  V30 10683 C 1030.17 4.75968 -2.41434 0
M  V30 10684 O 1030.4 5.52037 -1.43566 0
M  V30 10685 O 1029.33 5.02664 -3.31078 0
M  V30 10686 H 1033.16 1.84367 -2.41335 0
M  V30 10687 H 1030.74 0.853863 -1.22595 0
M  V30 10688 H 1032.62 4.01642 -1.2752 0
M  V30 10689 H 1031.3 3.21355 -0.388889 0
M  V30 10690 H 1030.21 2.65313 -2.63742 0
M  V30 10691 H 1031.54 3.50455 -3.45604 0
M  V30 10692 N 1033.19 1.2685 0.935242 0
M  V30 10693 C 1034.44 1.12745 1.68211 0
M  V30 10694 C 1034.77 -0.328128 1.91712 0
M  V30 10695 O 1034.02 -1.25701 1.49993 0
M  V30 10696 C 1034.32 1.8482 3.05903 0
M  V30 10697 C 1033.99 3.347 3.02137 0
M  V30 10698 C 1032.65 3.75583 3.00817 0
M  V30 10699 C 1035 4.30368 2.93995 0
M  V30 10700 C 1032.33 5.10511 2.89129 0
M  V30 10701 C 1034.68 5.65343 2.83848 0
M  V30 10702 C 1033.34 6.0553 2.80874 0
M  V30 10703 H 1032.61 0.412563 0.615527 0
M  V30 10704 H 1035.26 1.57366 1.09124 0
M  V30 10705 H 1033.57 1.32685 3.68649 0
M  V30 10706 H 1035.26 1.71341 3.62551 0
M  V30 10707 H 1031.85 3.02182 3.03947 0
M  V30 10708 H 1036.04 3.9976 2.94118 0
M  V30 10709 H 1031.29 5.40802 2.85208 0
M  V30 10710 H 1035.47 6.39151 2.76512 0
M  V30 10711 H 1033.09 7.10037 2.71573 0
M  V30 10712 N 1034.67 -1.14067 1.0875 0
M  V30 10713 C 1035.92 -1.85185 0.819317 0
M  V30 10714 C 1036.25 -1.8314 -0.654969 0
M  V30 10715 O 1035.5 -1.25974 -1.49763 0
M  V30 10716 C 1035.8 -3.33273 1.29089 0
M  V30 10717 C 1035.47 -3.55504 2.77359 0
M  V30 10718 C 1034.13 -3.61279 3.17853 0
M  V30 10719 C 1036.48 -3.64041 3.72992 0
M  V30 10720 C 1033.81 -3.73119 4.52768 0
M  V30 10721 C 1036.16 -3.77407 5.07687 0
M  V30 10722 C 1034.82 -3.81433 5.47782 0
M  V30 10723 H 1034.09 -0.67764 0.299809 0
M  V30 10724 H 1036.74 -1.34713 1.36106 0
M  V30 10725 H 1035.05 -3.86049 0.668811 0
M  V30 10726 H 1036.74 -3.86734 1.06009 0
M  V30 10727 H 1033.33 -3.51659 2.45019 0
M  V30 10728 H 1037.52 -3.58866 3.42825 0
M  V30 10729 H 1032.77 -3.74499 4.83281 0
M  V30 10730 H 1036.95 -3.82956 5.81651 0
M  V30 10731 H 1034.57 -3.9036 6.52321 0
M  V30 10732 N 1036.15 -0.873678 -1.31166 0
M  V30 10733 C 1037.38 -0.501043 -2.00742 0
M  V30 10734 C 1037.79 0.907477 -1.65561 0
M  V30 10735 O 1037.15 1.59507 -0.886771 0
M  V30 10736 C 1037.2 -0.652877 -3.55556 0
M  V30 10737 O 1036.92 -2.00593 -3.89479 0
M  V30 10738 C 1038.42 -0.281742 -4.42404 0
M  V30 10739 H 1035.64 -0.194829 -0.642092 0
M  V30 10740 H 1038.19 -1.17587 -1.67313 0
M  V30 10741 H 1036.34 -0.0255627 -3.87392 0
M  V30 10742 H 1036.75 -2.01638 -4.84193 0
M  V30 10743 H 1038.23 -0.43892 -5.50252 0
M  V30 10744 H 1038.71 0.779389 -4.32229 0
M  V30 10745 H 1039.31 -0.88491 -4.15992 0
M  V30 10746 N 1037.63 1.44308 -0.633487 0
M  V30 10747 C 1038.86 2.06085 -0.145852 0
M  V30 10748 C 1039.26 1.47432 1.18577 0
M  V30 10749 O 1038.61 0.592575 1.7388 0
M  V30 10750 C 1038.67 3.59477 0.0407848 0
M  V30 10751 C 1038.33 4.40607 -1.21304 0
M  V30 10752 C 1039.33 4.73937 -2.13728 0
M  V30 10753 C 1037.02 4.80943 -1.44911 0
M  V30 10754 C 1039.01 5.46489 -3.28068 0
M  V30 10755 C 1036.7 5.53243 -2.59548 0
M  V30 10756 C 1037.69 5.85936 -3.50953 0
M  V30 10757 O 1037.38 6.56764 -4.6359 0
M  V30 10758 H 1037.11 0.671484 -0.0780085 0
M  V30 10759 H 1039.67 1.86128 -0.868658 0
M  V30 10760 H 1037.9 3.77933 0.818761 0
M  V30 10761 H 1039.59 4.03013 0.483273 0
M  V30 10762 H 1040.35 4.43311 -1.96725 0
M  V30 10763 H 1036.23 4.54915 -0.746537 0
M  V30 10764 H 1039.78 5.71924 -3.99435 0
M  V30 10765 H 1035.67 5.83285 -2.76493 0
M  V30 10766 H 1036.44 6.75234 -4.62602 0
M  V30 10767 N 1039.1 0.374177 1.53094 0
M  V30 10768 C 1040.33 -0.215903 2.06273 0
M  V30 10769 C 1040.75 -1.40979 1.24526 0
M  V30 10770 O 1040.11 -1.79331 0.266462 0
M  V30 10771 C 1040.16 -0.579089 3.5592 0
M  V30 10772 O 1039.26 -1.67516 3.76845 0
M  V30 10773 H 1038.61 -0.0293981 0.663349 0
M  V30 10774 H 1041.14 0.537271 1.9742 0
M  V30 10775 H 1041.15 -0.847678 3.99097 0
M  V30 10776 H 1039.82 0.293843 4.14861 0
M  V30 10777 H 1038.4 -1.40146 3.45563 0
M  V30 10778 N 1040.58 -1.57259 0.103575 0
M  V30 10779 C 1042 -1.57581 -0.253062 0
M  V30 10780 C 1042.2 -1.11531 -1.67819 0
M  V30 10781 O 1041.25 -0.795632 -2.39637 0
M  V30 10782 C 1042.57 -3.00681 -0.0337753 0
M  V30 10783 C 1044.12 -3.12837 -0.10087 0
M  V30 10784 C 1044.59 -4.57911 0.0905295 0
M  V30 10785 N 1046.08 -4.63186 0.0359789 0
M  V30 10786 C 1046.82 -5.73179 0.159199 0
M  V30 10787 N 1046.31 -6.91976 0.337728 0
M  V30 10788 N 1048.11 -5.62011 0.0998662 0
M  V30 10789 H 1040.26 -1.85499 1.0346 0
M  V30 10790 H 1042.52 -0.856584 0.406163 0
M  V30 10791 H 1042.23 -3.38602 0.950858 0
M  V30 10792 H 1042.1 -3.69207 -0.772406 0
M  V30 10793 H 1044.49 -2.74783 -1.07601 0
M  V30 10794 H 1044.57 -2.46886 0.66939 0
M  V30 10795 H 1044.21 -4.9666 1.06258 0
M  V30 10796 H 1044.14 -5.21933 -0.699528 0
M  V30 10797 H 1046.63 -3.7777 -0.099121 0
M  V30 10798 H 1046.95 -7.71641 0.423032 0
M  V30 10799 H 1045.29 -6.93996 0.373504 0
M  V30 10800 H 1048.48 -4.68084 -0.0385356 0
M  V30 10801 H 1048.65 -6.47693 0.199342 0
M  V30 10802 N 1042.06 0.170153 -1.56679 0
M  V30 10803 C 1043.31 0.886592 -1.8206 0
M  V30 10804 C 1043.64 1.82194 -0.680839 0
M  V30 10805 O 1042.89 1.92866 0.331822 0
M  V30 10806 C 1043.19 1.71402 -3.13618 0
M  V30 10807 C 1042.86 0.927489 -4.41258 0
M  V30 10808 C 1041.52 0.710417 -4.75927 0
M  V30 10809 C 1043.87 0.375855 -5.19843 0
M  V30 10810 C 1041.2 -0.0693691 -5.86659 0
M  V30 10811 C 1043.55 -0.390849 -6.31391 0
M  V30 10812 C 1042.21 -0.61871 -6.64626 0
M  V30 10813 H 1041.48 0.324427 -0.666204 0
M  V30 10814 H 1044.13 0.151464 -1.909 0
M  V30 10815 H 1042.44 2.51858 -3.00125 0
M  V30 10816 H 1044.13 2.27141 -3.30466 0
M  V30 10817 H 1040.72 1.10672 -4.14065 0
M  V30 10818 H 1044.91 0.530897 -4.93452 0
M  V30 10819 H 1040.16 -0.255637 -6.10865 0
M  V30 10820 H 1044.34 -0.825544 -6.9149 0
M  V30 10821 H 1041.96 -1.22482 -7.50268 0
M  V30 10822 N 1043.54 1.5137 0.438746 0
M  V30 10823 C 1044.82 1.54508 1.19944 0
M  V30 10824 C 1045.2 0.308525 2.08833 0
M  V30 10825 O 1044.54 -0.706461 2.17305 0
M  V30 10826 C 1044.75 2.85833 2.00251 0
M  V30 10827 C 1046.1 3.37729 2.5734 0
M  V30 10828 O 1047.13 2.87374 2.10463 0
M  V30 10829 O 1045.98 4.25589 3.42836 0
M  V30 10830 H 1043.08 0.621132 0.546007 0
M  V30 10831 H 1045.62 1.63682 0.447931 0
M  V30 10832 H 1044.4 3.67291 1.34955 0
M  V30 10833 H 1044.02 2.79815 2.8247 0
M  V30 10834 N 1045.02 -0.694098 1.41492 0
M  V30 10835 C 1045.95 -1.82042 1.46229 0
M  V30 10836 C 1046.93 -1.67047 0.320803 0
M  V30 10837 O 1048.11 -1.86758 0.53245 0
M  V30 10838 C 1045.24 -3.2019 1.34519 0
M  V30 10839 C 1044.2 -3.49892 2.46495 0
M  V30 10840 C 1043.52 -4.87411 2.1985 0
M  V30 10841 C 1044.82 -3.4872 3.88834 0
M  V30 10842 H 1046.52 -1.78335 2.40493 0
M  V30 10843 H 1044.06 -0.856566 1.15754 0
M  V30 10844 H 1046.02 -3.98699 1.36445 0
M  V30 10845 H 1044.74 -3.24527 0.367406 0
M  V30 10846 H 1043.4 -2.73734 2.43854 0
M  V30 10847 H 1043.05 -4.88375 1.20411 0
M  V30 10848 H 1042.75 -5.08248 2.94885 0
M  V30 10849 H 1044.27 -5.68228 2.23494 0
M  V30 10850 H 1045.68 -4.1723 3.93182 0
M  V30 10851 H 1044.08 -3.81089 4.63564 0
M  V30 10852 H 1045.15 -2.47665 4.16881 0
M  V30 10853 N 1046.49 -1.27344 -0.928501 0
M  V30 10854 C 1047.4 -1.11812 -2.06241 0
M  V30 10855 C 1048.42 -0.048347 -1.73933 0
M  V30 10856 O 1049.6 -0.25467 -1.99783 0
M  V30 10857 C 1046.66 -0.766036 -3.38131 0
M  V30 10858 C 1045.72 -1.91659 -3.84142 0
M  V30 10859 C 1044.96 -1.58121 -5.09738 0
M  V30 10860 O 1045.18 -0.488742 -5.68302 0
M  V30 10861 O 1044.11 -2.42013 -5.51102 0
M  V30 10862 H 1047.94 -2.06967 -2.22258 0
M  V30 10863 H 1045.52 -1.06524 -1.04752 0
M  V30 10864 H 1047.41 -0.582982 -4.17348 0
M  V30 10865 H 1046.08 0.155998 -3.23324 0
M  V30 10866 H 1044.99 -2.1547 -3.05816 0
M  V30 10867 H 1046.32 -2.8188 -4.0349 0
M  V30 10868 N 1047.97 1.13488 -1.09353 0
M  V30 10869 C 1048.91 2.17951 -0.67622 0
M  V30 10870 C 1049.88 1.59482 0.316906 0
M  V30 10871 O 1051.07 1.8723 0.218459 0
M  V30 10872 C 1048.19 3.387 0.00391024 0
M  V30 10873 C 1047.24 4.15764 -0.950906 0
M  V30 10874 S 1048.07 4.75517 -2.46259 0
M  V30 10875 C 1049.23 5.99613 -1.79485 0
M  V30 10876 H 1049.46 2.53012 -1.56115 0
M  V30 10877 H 1047 1.24773 -0.909447 0
M  V30 10878 H 1048.95 4.08643 0.39002 0
M  V30 10879 H 1047.61 3.01941 0.86548 0
M  V30 10880 H 1046.81 5.02229 -0.422086 0
M  V30 10881 H 1046.41 3.51473 -1.27838 0
M  V30 10882 H 1048.7 6.68204 -1.11846 0
M  V30 10883 H 1049.64 6.57102 -2.63862 0
M  V30 10884 H 1050.05 5.50165 -1.26409 0
M  V30 10885 N 1049.45 0.880621 1.30701 0
M  V30 10886 C 1050.68 0.511682 2.00473 0
M  V30 10887 C 1051.09 -0.898684 1.6604 0
M  V30 10888 O 1050.45 -1.59035 0.895218 0
M  V30 10889 C 1050.5 0.671723 3.55204 0
M  V30 10890 O 1050.22 2.02656 3.8841 0
M  V30 10891 C 1051.72 0.3052 4.42248 0
M  V30 10892 H 1048.94 0.198231 0.64105 0
M  V30 10893 H 1051.49 1.18472 1.66687 0
M  V30 10894 H 1049.64 0.0461066 3.87373 0
M  V30 10895 H 1050.06 2.04202 4.83117 0
M  V30 10896 H 1051.53 0.468095 5.50012 0
M  V30 10897 H 1052.01 -0.756456 4.32637 0
M  V30 10898 H 1052.61 0.906959 4.15517 0
M  V30 10899 N 1050.93 -1.4397 0.641131 0
M  V30 10900 C 1052.18 -2.01946 0.149629 0
M  V30 10901 C 1052.5 -1.50496 -1.23212 0
M  V30 10902 O 1051.76 -0.683453 -1.83378 0
M  V30 10903 C 1052.06 -3.5727 0.0963368 0
M  V30 10904 C 1051.72 -4.28016 1.4182 0
M  V30 10905 C 1050.39 -4.47059 1.78021 0
M  V30 10906 C 1052.74 -4.68183 2.29028 0
M  V30 10907 C 1050.07 -5.03532 3.01119 0
M  V30 10908 C 1052.42 -5.26019 3.51406 0
M  V30 10909 C 1051.08 -5.4328 3.87818 0
M  V30 10910 H 1050.35 -0.738974 0.0547531 0
M  V30 10911 H 1053 -1.72605 0.829436 0
M  V30 10912 H 1051.3 -3.86083 -0.666879 0
M  V30 10913 H 1053 -3.99871 -0.300635 0
M  V30 10914 H 1049.59 -4.13531 1.12651 0
M  V30 10915 H 1053.78 -4.53175 2.02353 0
M  V30 10916 H 1049.03 -5.15082 3.29395 0
M  V30 10917 H 1053.21 -5.56092 4.19208 0
M  V30 10918 H 1050.83 -5.86805 4.83284 0
M  V30 10919 N 1052.41 -0.382291 -1.52893 0
M  V30 10920 C 1053.65 0.202433 -2.01787 0
M  V30 10921 C 1053.99 1.47044 -1.26853 0
M  V30 10922 O 1053.26 1.91007 -0.366969 0
M  V30 10923 C 1053.54 0.477471 -3.5692 0
M  V30 10924 C 1053.4 -0.805339 -4.42532 0
M  V30 10925 C 1054.72 1.27106 -4.21346 0
M  V30 10926 H 1051.84 0.0720998 -0.733465 0
M  V30 10927 H 1054.48 -0.510478 -1.83014 0
M  V30 10928 H 1052.63 1.08478 -3.73048 0
M  V30 10929 H 1054.3 -1.4424 -4.3817 0
M  V30 10930 H 1052.54 -1.42216 -4.09826 0
M  V30 10931 H 1053.21 -0.567635 -5.49074 0
M  V30 10932 H 1055.69 0.757161 -4.09153 0
M  V30 10933 H 1054.57 1.43225 -5.29885 0
M  V30 10934 H 1054.83 2.28431 -3.78513 0
M  V30 10935 N 1053.89 1.57202 -0.111913 0
M  V30 10936 C 1055.13 1.9495 0.547795 0
M  V30 10937 C 1055.46 0.994763 1.67137 0
M  V30 10938 O 1054.72 0.0173528 1.95692 0
M  V30 10939 C 1055.01 3.39152 1.12741 0
M  V30 10940 C 1054.68 4.50724 0.125916 0
M  V30 10941 C 1053.34 4.80968 -0.149489 0
M  V30 10942 C 1055.69 5.18215 -0.556987 0
M  V30 10943 C 1053.02 5.76023 -1.1142 0
M  V30 10944 C 1055.37 6.14307 -1.51029 0
M  V30 10945 C 1054.04 6.42947 -1.79375 0
M  V30 10946 H 1053.31 0.713372 0.200453 0
M  V30 10947 H 1055.96 1.90542 -0.191316 0
M  V30 10948 H 1054.26 3.4022 1.94313 0
M  V30 10949 H 1055.96 3.65668 1.64584 0
M  V30 10950 H 1052.55 4.27162 0.350756 0
M  V30 10951 H 1056.73 4.95012 -0.357378 0
M  V30 10952 H 1051.99 5.9652 -1.34064 0
M  V30 10953 H 1056.16 6.65692 -2.04516 0
M  V30 10954 H 1053.79 7.1641 -2.54284 0
M  V30 10955 N 1055.36 -0.161842 1.56767 0
M  V30 10956 C 1056.59 -0.892247 1.86672 0
M  V30 10957 C 1057.01 -1.75407 0.69841 0
M  V30 10958 O 1056.36 -1.7945 -0.332251 0
M  V30 10959 C 1056.41 -1.7612 3.15696 0
M  V30 10960 O 1056.14 -0.934131 4.28025 0
M  V30 10961 C 1057.64 -2.60046 3.59014 0
M  V30 10962 H 1054.86 -0.258747 0.619105 0
M  V30 10963 H 1057.4 -0.159089 2.0388 0
M  V30 10964 H 1055.56 -2.44759 3.00286 0
M  V30 10965 H 1055.97 -1.52931 5.01709 0
M  V30 10966 H 1057.44 -3.16618 4.5217 0
M  V30 10967 H 1057.92 -3.35374 2.83586 0
M  V30 10968 H 1058.53 -1.96724 3.77067 0
M  V30 10969 N 1056.84 -1.516 -0.430713 0
M  V30 10970 C 1057.75 -1.76247 -1.54836 0
M  V30 10971 C 1058.77 -0.646985 -1.61524 0
M  V30 10972 O 1059.94 -0.929987 -1.78643 0
M  V30 10973 C 1057.01 -1.88833 -2.90763 0
M  V30 10974 C 1056.07 -3.12701 -2.94137 0
M  V30 10975 C 1055.3 -3.24676 -4.23581 0
M  V30 10976 O 1055.53 -2.42429 -5.16318 0
M  V30 10977 O 1054.46 -4.17697 -4.33374 0
M  V30 10978 H 1058.29 -2.71069 -1.3695 0
M  V30 10979 H 1055.87 -1.36182 -0.614396 0
M  V30 10980 H 1057.75 -1.99057 -3.71422 0
M  V30 10981 H 1056.43 -0.971987 -3.08762 0
M  V30 10982 H 1055.33 -3.0795 -2.1241 0
M  V30 10983 H 1056.67 -4.04045 -2.81084 0
M  V30 10984 N 1058.32 0.686584 -1.41858 0
M  V30 10985 C 1059.27 1.82167 -1.4463 0
M  V30 10986 C 1060.26 1.66286 -0.323313 0
M  V30 10987 O 1061.47 1.73038 -0.495773 0
M  V30 10988 H 1057.84 0.600454 -0.452724 0
M  V30 10989 H 1059.81 1.76947 -2.40276 0
M  V30 10990 C 1058.56 3.20248 -1.35412 0
M  V30 10991 H 1057.89 3.33089 -2.21115 0
M  V30 10992 H 1059.33 3.99723 -1.41413 0
M  V30 10993 C 1057.78 3.36832 -0.0674972 0
M  V30 10994 O 1058.31 3.91845 0.884325 0
M  V30 10995 N 1056.52 2.90598 0.011519 0
M  V30 10996 H 1056.07 2.46016 -0.76381 0
M  V30 10997 H 1056.03 3.02072 0.871774 0
M  V30 10998 N 1059.8 1.27835 0.921735 0
M  V30 10999 C 1061.03 1.17182 1.70153 0
M  V30 11000 C 1061.44 -0.273207 1.87217 0
M  V30 11001 O 1060.78 -1.19729 1.39322 0
M  V30 11002 C 1060.84 1.78969 3.11786 0
M  V30 11003 C 1060.5 3.28179 3.18037 0
M  V30 11004 C 1061.5 4.24729 2.99835 0
M  V30 11005 C 1059.19 3.68995 3.40805 0
M  V30 11006 C 1061.18 5.60071 3.04301 0
M  V30 11007 C 1058.87 5.04465 3.44904 0
M  V30 11008 C 1059.87 5.99813 3.2667 0
M  V30 11009 O 1059.55 7.32813 3.30515 0
M  V30 11010 H 1059.29 0.408079 0.538932 0
M  V30 11011 H 1061.84 1.69326 1.16266 0
M  V30 11012 H 1060.07 1.2131 3.6718 0
M  V30 11013 H 1061.76 1.62946 3.71757 0
M  V30 11014 H 1062.52 3.94533 2.8208 0
M  V30 11015 H 1058.4 2.9525 3.54045 0
M  V30 11016 H 1061.95 6.34471 2.89987 0
M  V30 11017 H 1057.84 5.34315 3.62185 0
M  V30 11018 H 1058.61 7.41338 3.4693 0
M  V30 11019 N 1061.28 -1.12907 1.09954 0
M  V30 11020 C 1062.69 -1.65847 0.857417 0
M  V30 11021 C 1063.04 -1.86372 -0.613176 0
M  V30 11022 O 1062.16 -1.58654 -1.47166 0
M  V30 11023 C 1062.76 -3.01269 1.54991 0
M  V30 11024 C 1061.32 -3.51179 1.35462 0
M  V30 11025 C 1060.46 -2.26307 1.60251 0
M  V30 11026 H 1063.41 -0.96755 1.25794 0
M  V30 11027 H 1063.44 -3.675 0.986091 0
M  V30 11028 H 1062.95 -2.86299 2.6202 0
M  V30 11029 H 1061.05 -3.71343 0.305742 0
M  V30 11030 H 1061.16 -4.30955 2.09318 0
M  V30 11031 H 1059.53 -2.33167 1.02494 0
M  V30 11032 H 1060.31 -2.13896 2.68521 0
M  V30 11033 N 1062.75 -0.88754 -1.30232 0
M  V30 11034 C 1063.98 -0.521562 -2.00735 0
M  V30 11035 C 1064.4 0.883247 -1.66073 0
M  V30 11036 O 1063.76 1.58581 -0.878731 0
M  V30 11037 C 1063.81 -0.706521 -3.53611 0
M  V30 11038 O 1062.91 0.246447 -4.11663 0
M  V30 11039 H 1062.25 -0.205216 -0.631492 0
M  V30 11040 H 1064.78 -1.19579 -1.66018 0
M  V30 11041 H 1064.79 -0.606501 -4.03467 0
M  V30 11042 H 1063.47 -1.73076 -3.78177 0
M  V30 11043 H 1062.05 0.0999062 -3.72766 0
M  V30 11044 N 1064.23 1.43628 -0.648757 0
M  V30 11045 C 1065.46 2.06217 -0.167945 0
M  V30 11046 C 1065.88 1.486 1.16462 0
M  V30 11047 O 1065.23 0.61559 1.71804 0
M  V30 11048 C 1065.28 3.6144 -0.0660114 0
M  V30 11049 O 1065 4.16914 -1.34589 0
M  V30 11050 C 1066.51 4.41097 0.441408 0
M  V30 11051 H 1063.73 0.665228 -0.0878237 0
M  V30 11052 H 1066.27 1.84207 -0.888144 0
M  V30 11053 H 1064.42 3.82651 0.604722 0
M  V30 11054 H 1064.84 5.10537 -1.20218 0
M  V30 11055 H 1066.31 5.50066 0.461697 0
M  V30 11056 H 1066.79 4.13803 1.47187 0
M  V30 11057 H 1067.4 4.24845 -0.19668 0
M  V30 11058 N 1065.71 0.390394 1.52688 0
M  V30 11059 C 1066.67 -0.432149 2.25089 0
M  V30 11060 C 1067.67 -0.989296 1.26766 0
M  V30 11061 O 1068.86 -0.871126 1.50854 0
M  V30 11062 C 1066 -1.60642 3.00678 0
M  V30 11063 H 1067.19 0.201734 2.99221 0
M  V30 11064 H 1064.74 0.142531 1.55649 0
M  V30 11065 H 1065.48 -2.2777 2.3085 0
M  V30 11066 H 1065.26 -1.21361 3.72846 0
M  V30 11067 H 1066.75 -2.18873 3.55647 0
M  V30 11068 N 1067.19 -1.57141 0.120249 0
M  V30 11069 C 1068.41 -2.00017 -0.548454 0
M  V30 11070 C 1068.84 -0.999433 -1.59352 0
M  V30 11071 O 1068.2 0.0286978 -1.81277 0
M  V30 11072 C 1068.24 -3.41766 -1.15015 0
M  V30 11073 O 1067.35 -3.44589 -2.26566 0
M  V30 11074 H 1066.69 -0.649739 -0.136875 0
M  V30 11075 H 1069.22 -2.03529 0.209092 0
M  V30 11076 H 1069.23 -3.80001 -1.48537 0
M  V30 11077 H 1067.9 -4.14117 -0.384681 0
M  V30 11078 H 1066.48 -3.18174 -1.94473 0
M  V30 11079 N 1068.67 0.153526 -1.5685 0
M  V30 11080 C 1069.91 0.865519 -1.82629 0
M  V30 11081 C 1070.24 1.81999 -0.700105 0
M  V30 11082 O 1069.51 1.93907 0.278744 0
M  V30 11083 H 1068.09 0.32261 -0.673745 0
M  V30 11084 H 1070.75 0.149088 -1.94329 0
M  V30 11085 H 1069.84 1.43171 -2.77324 0
M  V30 11086 N 1070.14 1.51827 0.422667 0
M  V30 11087 C 1071.05 1.77066 1.53899 0
M  V30 11088 C 1072.07 0.655541 1.61179 0
M  V30 11089 O 1073.25 0.939448 1.78147 0
M  V30 11090 C 1070.31 1.90372 2.89758 0
M  V30 11091 C 1069.37 3.14256 2.92475 0
M  V30 11092 C 1068.61 3.26918 4.21853 0
M  V30 11093 O 1068.83 2.45164 5.15025 0
M  V30 11094 O 1067.76 4.19989 4.31153 0
M  V30 11095 H 1071.59 2.71791 1.35511 0
M  V30 11096 H 1069.17 1.36506 0.607165 0
M  V30 11097 H 1071.06 2.01024 3.70361 0
M  V30 11098 H 1069.73 0.988347 3.08242 0
M  V30 11099 H 1068.64 3.09072 2.10773 0
M  V30 11100 H 1069.97 4.0553 2.78937 0
M  V30 11101 N 1071.62 -0.679052 1.4222 0
M  V30 11102 C 1072.87 -1.44125 1.42674 0
M  V30 11103 C 1073.2 -1.94156 0.041438 0
M  V30 11104 O 1072.48 -1.70628 -0.93361 0
M  V30 11105 C 1072.76 -2.64133 2.44756 0
M  V30 11106 C 1072.61 -2.19761 3.9246 0
M  V30 11107 C 1073.93 -3.66347 2.43881 0
M  V30 11108 H 1071.05 -0.522729 0.519541 0
M  V30 11109 H 1073.69 -0.772067 1.73606 0
M  V30 11110 H 1071.84 -3.21225 2.1851 0
M  V30 11111 H 1073.51 -1.67869 4.29671 0
M  V30 11112 H 1071.76 -1.51377 4.06531 0
M  V30 11113 H 1072.43 -3.05944 4.59459 0
M  V30 11114 H 1074.9 -3.18963 2.67211 0
M  V30 11115 H 1073.78 -4.47902 3.17293 0
M  V30 11116 H 1074.04 -4.17183 1.46325 0
M  V30 11117 N 1073.1 -1.28322 -0.914942 0
M  V30 11118 C 1074.52 -1.06003 -1.19313 0
M  V30 11119 C 1074.72 0.198366 -2.00521 0
M  V30 11120 O 1073.77 0.900364 -2.35902 0
M  V30 11121 C 1075.09 -2.30684 -1.92887 0
M  V30 11122 C 1076.63 -2.35851 -2.05775 0
M  V30 11123 C 1077.11 -3.60295 -2.82757 0
M  V30 11124 N 1078.6 -3.60928 -2.9032 0
M  V30 11125 C 1079.33 -4.53894 -3.50383 0
M  V30 11126 N 1078.83 -5.57178 -4.11734 0
M  V30 11127 N 1080.62 -4.41492 -3.4791 0
M  V30 11128 H 1072.77 -2.09104 -0.372735 0
M  V30 11129 H 1075.04 -0.920285 -0.227552 0
M  V30 11130 H 1074.74 -3.22355 -1.40643 0
M  V30 11131 H 1074.62 -2.37003 -2.93444 0
M  V30 11132 H 1077 -1.44678 -2.57201 0
M  V30 11133 H 1077.09 -2.33526 -1.04399 0
M  V30 11134 H 1076.73 -4.51811 -2.32011 0
M  V30 11135 H 1076.66 -3.59873 -3.84446 0
M  V30 11136 H 1079.15 -2.8624 -2.46729 0
M  V30 11137 H 1079.46 -6.24261 -4.55541 0
M  V30 11138 H 1077.81 -5.61005 -4.10242 0
M  V30 11139 H 1081 -3.60005 -2.99189 0
M  V30 11140 H 1081.17 -5.14132 -3.94427 0
M  V30 11141 N 1074.58 1.12322 -1.10551 0
M  V30 11142 C 1075.53 2.20166 -0.750317 0
M  V30 11143 C 1076.52 1.67484 0.254066 0
M  V30 11144 O 1077.73 1.79637 0.114309 0
M  V30 11145 H 1074.1 0.717642 -0.22471 0
M  V30 11146 H 1076.07 2.47378 -1.66873 0
M  V30 11147 C 1074.82 3.47126 -0.199651 0
M  V30 11148 H 1074.14 3.88011 -0.963735 0
M  V30 11149 H 1075.58 4.23999 0.0108033 0
M  V30 11150 C 1074.04 3.19526 1.06792 0
M  V30 11151 O 1074.57 3.39368 2.14923 0
M  V30 11152 N 1072.78 2.73324 0.987032 0
M  V30 11153 H 1072.33 2.57378 0.106997 0
M  V30 11154 H 1072.28 2.55234 1.83584 0
M  V30 11155 N 1076.06 0.894434 1.2976 0
M  V30 11156 C 1076.99 0.325525 2.26877 0
M  V30 11157 C 1078 -0.525218 1.54095 0
M  V30 11158 O 1079.19 -0.343231 1.75169 0
M  V30 11159 C 1076.29 -0.554952 3.34325 0
M  V30 11160 C 1075.46 0.268868 4.36573 0
M  V30 11161 C 1074.52 -0.543601 5.23385 0
M  V30 11162 O 1073.55 0.0370454 5.69188 0
M  V30 11163 N 1074.75 -1.85079 5.50205 0
M  V30 11164 H 1077.52 1.16021 2.76332 0
M  V30 11165 H 1075.08 0.758382 1.43039 0
M  V30 11166 H 1077.07 -1.10476 3.89329 0
M  V30 11167 H 1075.64 -1.29031 2.84727 0
M  V30 11168 H 1074.86 1.0001 3.81302 0
M  V30 11169 H 1076.15 0.833248 5.01931 0
M  V30 11170 H 1075.54 -2.34533 5.14792 0
M  V30 11171 H 1074.1 -2.34784 6.08046 0
M  V30 11172 N 1077.53 -1.43282 0.656365 0
M  V30 11173 C 1078.77 -2.03652 0.174681 0
M  V30 11174 C 1079.14 -1.5068 -1.18994 0
M  V30 11175 O 1080.34 -2.02716 -1.76521 0
M  V30 11176 C 1078.61 -3.56906 0.18778 0
M  V30 11177 S 1080.17 -4.3822 -0.225599 0
M  V30 11178 H 1076.99 -0.70719 0.0735029 0
M  V30 11179 H 1079.59 -1.75303 0.865403 0
M  V30 11180 H 1078.29 -3.92961 1.18363 0
M  V30 11181 H 1077.82 -3.89903 -0.523378 0
M  V30 11182 H 1079.84 -4.74121 -1.46369 0
M  V30 11183 N 1079.01 -0.398486 -1.52479 0
M  V30 11184 C 1080.29 0.238776 -1.94137 0
M  V30 11185 C 1080.67 1.63558 -1.33462 0
M  V30 11186 O 1080.02 2.22821 -0.506272 0
M  V30 11187 C 1080.23 0.255863 -3.48061 0
M  V30 11188 C 1081.58 0.480376 -4.21874 0
M  V30 11189 O 1082.6 0.335679 -3.54615 0
M  V30 11190 O 1081.46 0.764654 -5.41124 0
M  V30 11191 H 1078.55 0.150806 -0.813134 0
M  V30 11192 H 1081.1 -0.453659 -1.63524 0
M  V30 11193 H 1079.87 -0.722171 -3.84578 0
M  V30 11194 H 1079.49 0.99284 -3.85004 0
M  V30 11195 N 1080.49 1.57075 -0.12858 0
M  V30 11196 C 1081.42 2.12907 0.848708 0
M  V30 11197 C 1082.44 1.07406 1.22343 0
M  V30 11198 O 1083.63 1.34746 1.17071 0
M  V30 11199 C 1080.73 2.62167 2.1476 0
M  V30 11200 C 1079.9 3.91871 1.94309 0
M  V30 11201 C 1078.96 4.26629 3.08016 0
M  V30 11202 O 1077.98 4.9528 2.80511 0
M  V30 11203 N 1079.19 3.84721 4.34706 0
M  V30 11204 H 1081.95 2.97387 0.371636 0
M  V30 11205 H 1079.51 1.61805 0.0555574 0
M  V30 11206 H 1081.5 2.82444 2.89841 0
M  V30 11207 H 1080.07 1.82514 2.53786 0
M  V30 11208 H 1079.29 3.80406 1.03367 0
M  V30 11209 H 1080.58 4.76662 1.77962 0
M  V30 11210 H 1079.98 3.2937 4.59926 0
M  V30 11211 H 1078.54 4.10087 5.06628 0
M  V30 11212 N 1081.97 -0.145205 1.5693 0
M  V30 11213 C 1083.22 -0.855955 1.82637 0
M  V30 11214 C 1083.53 -1.82255 0.710109 0
M  V30 11215 O 1084.74 -2.57758 0.852837 0
M  V30 11216 C 1083.19 -1.57278 3.23715 0
M  V30 11217 C 1082.8 -0.648507 4.43281 0
M  V30 11218 C 1084.55 -2.27021 3.58695 0
M  V30 11219 C 1082.45 -1.36706 5.75383 0
M  V30 11220 H 1081.38 -0.323385 0.68113 0
M  V30 11221 H 1084.03 -0.10869 1.83178 0
M  V30 11222 H 1082.42 -2.36574 3.17567 0
M  V30 11223 H 1083.59 0.109355 4.6067 0
M  V30 11224 H 1081.9 -0.0594029 4.16358 0
M  V30 11225 H 1084.5 -2.81423 4.54648 0
M  V30 11226 H 1084.84 -3.03598 2.8484 0
M  V30 11227 H 1085.38 -1.54642 3.66512 0
M  V30 11228 H 1082.12 -0.6431 6.52338 0
M  V30 11229 H 1081.64 -2.09759 5.61926 0
M  V30 11230 H 1083.32 -1.90748 6.18243 0
M  V30 11231 N 1083.45 -1.52049 -0.414609 0
M  V30 11232 C 1084.38 -1.69712 -1.52555 0
M  V30 11233 C 1085.36 -0.544681 -1.53206 0
M  V30 11234 O 1086.54 -0.771358 -1.71995 0
M  V30 11235 C 1083.67 -1.73145 -2.91099 0
M  V30 11236 C 1082.72 -2.94624 -3.08382 0
M  V30 11237 S 1083.55 -4.55062 -2.82274 0
M  V30 11238 C 1084.7 -4.61274 -4.23057 0
M  V30 11239 H 1084.94 -2.63675 -1.37342 0
M  V30 11240 H 1082.47 -1.42018 -0.605824 0
M  V30 11241 H 1084.43 -1.75808 -3.70947 0
M  V30 11242 H 1083.09 -0.803198 -3.03657 0
M  V30 11243 H 1082.28 -2.93492 -4.0973 0
M  V30 11244 H 1081.88 -2.8982 -2.36391 0
M  V30 11245 H 1084.18 -4.38313 -5.16612 0
M  V30 11246 H 1085.12 -5.63188 -4.29214 0
M  V30 11247 H 1085.53 -3.90361 -4.07773 0
M  V30 11248 N 1084.93 0.6715 -1.42579 0
M  V30 11249 C 1086.16 1.4576 -1.46416 0
M  V30 11250 C 1086.56 1.89051 -0.0749843 0
M  V30 11251 O 1085.91 1.58927 0.921296 0
M  V30 11252 C 1085.97 2.7365 -2.33144 0
M  V30 11253 C 1085.63 2.52414 -3.80968 0
M  V30 11254 C 1086.63 2.16804 -4.72538 0
M  V30 11255 C 1084.31 2.67306 -4.25268 0
M  V30 11256 C 1086.31 1.96358 -6.06401 0
M  V30 11257 C 1084 2.46475 -5.5919 0
M  V30 11258 C 1084.99 2.11055 -6.49573 0
M  V30 11259 O 1084.68 1.90428 -7.8102 0
M  V30 11260 H 1084.41 0.454896 -0.500045 0
M  V30 11261 H 1086.97 0.832198 -1.87786 0
M  V30 11262 H 1085.2 3.38684 -1.86629 0
M  V30 11263 H 1086.89 3.35543 -2.28398 0
M  V30 11264 H 1087.65 2.04891 -4.39596 0
M  V30 11265 H 1083.53 2.93854 -3.55206 0
M  V30 11266 H 1087.08 1.68634 -6.76911 0
M  V30 11267 H 1082.97 2.57985 -5.91704 0
M  V30 11268 H 1083.74 2.05 -7.92412 0
M  V30 11269 N 1086.4 1.28806 0.908124 0
M  V30 11270 C 1087.65 1.15663 1.65242 0
M  V30 11271 C 1087.97 -0.292883 1.93395 0
M  V30 11272 O 1089.17 -0.545509 2.65963 0
M  V30 11273 C 1087.63 2.02233 2.97707 0
M  V30 11274 C 1087.24 3.51958 2.77181 0
M  V30 11275 C 1088.98 1.97792 3.75604 0
M  V30 11276 C 1086.89 4.3066 4.05322 0
M  V30 11277 H 1085.82 0.42928 0.619867 0
M  V30 11278 H 1088.47 1.5338 1.00731 0
M  V30 11279 H 1086.85 1.57377 3.63385 0
M  V30 11280 H 1088.02 4.0481 2.20149 0
M  V30 11281 H 1086.34 3.57983 2.12691 0
M  V30 11282 H 1088.94 2.53858 4.70596 0
M  V30 11283 H 1089.28 0.955956 4.05175 0
M  V30 11284 H 1089.81 2.40648 3.16755 0
M  V30 11285 H 1086.55 5.3346 3.8092 0
M  V30 11286 H 1086.07 3.8258 4.61944 0
M  V30 11287 H 1087.75 4.40878 4.73535 0
M  V30 11288 N 1087.88 -1.11734 1.11145 0
M  V30 11289 C 1089.29 -1.64928 0.874959 0
M  V30 11290 C 1089.64 -1.87012 -0.593375 0
M  V30 11291 O 1088.77 -1.60206 -1.45475 0
M  V30 11292 C 1089.36 -2.99608 1.58178 0
M  V30 11293 C 1087.92 -3.49723 1.39179 0
M  V30 11294 C 1087.07 -2.24595 1.62642 0
M  V30 11295 H 1090.02 -0.954154 1.26813 0
M  V30 11296 H 1090.04 -3.66434 1.02501 0
M  V30 11297 H 1089.55 -2.83504 2.65042 0
M  V30 11298 H 1087.65 -3.70998 0.345111 0
M  V30 11299 H 1087.77 -4.28711 2.13878 0
M  V30 11300 H 1086.13 -2.32067 1.04961 0
M  V30 11301 H 1086.91 -2.11036 2.70774 0
M  V30 11302 N 1089.36 -0.901303 -1.29284 0
M  V30 11303 C 1090.77 -0.576317 -1.77582 0
M  V30 11304 C 1091.12 0.908078 -1.73921 0
M  V30 11305 O 1090.25 1.71006 -1.32611 0
M  V30 11306 C 1090.84 -1.03938 -3.22463 0
M  V30 11307 C 1089.4 -0.765533 -3.68533 0
M  V30 11308 C 1088.55 -1.21318 -2.49354 0
M  V30 11309 H 1091.5 -1.08386 -1.15923 0
M  V30 11310 H 1091.52 -0.375367 -3.78644 0
M  V30 11311 H 1091.03 -2.11977 -3.25096 0
M  V30 11312 H 1089.13 0.302176 -3.71373 0
M  V30 11313 H 1089.25 -1.36454 -4.59257 0
M  V30 11314 H 1087.61 -0.632141 -2.46731 0
M  V30 11315 H 1088.39 -2.30165 -2.54714 0
M  V30 11316 N 1090.84 1.42931 -0.663954 0
M  V30 11317 C 1092.09 2.01284 -0.181379 0
M  V30 11318 C 1092.41 1.52708 1.21265 0
M  V30 11319 O 1091.68 0.744181 1.81215 0
M  V30 11320 H 1090.26 0.744248 -0.0640646 0
M  V30 11321 H 1092.92 1.74997 -0.858031 0
M  V30 11322 H 1092.01 3.11613 -0.174273 0
M  V30 11323 N 1092.32 0.406567 1.52266 0
M  V30 11324 C 1093.28 -0.408251 2.25535 0
M  V30 11325 C 1094.28 -0.975795 1.27808 0
M  V30 11326 O 1095.47 -0.855077 1.5177 0
M  V30 11327 C 1092.6 -1.57443 3.02365 0
M  V30 11328 H 1093.79 0.233459 2.9899 0
M  V30 11329 H 1091.35 0.159032 1.55489 0
M  V30 11330 H 1092.08 -2.25308 2.33252 0
M  V30 11331 H 1091.87 -1.17399 3.74112 0
M  V30 11332 H 1093.36 -2.15088 3.57948 0
M  V30 11333 N 1093.79 -1.57004 0.136909 0
M  V30 11334 C 1095.21 -1.82675 -0.385577 0
M  V30 11335 C 1095.56 -1.05508 -1.65416 0
M  V30 11336 O 1094.68 -0.297207 -2.14349 0
M  V30 11337 C 1095.28 -3.31356 -0.706326 0
M  V30 11338 C 1093.84 -3.57644 -1.17337 0
M  V30 11339 C 1092.98 -2.7664 -0.191239 0
M  V30 11340 H 1095.93 -1.54522 0.36177 0
M  V30 11341 H 1095.95 -3.4696 -1.56201 0
M  V30 11342 H 1095.47 -3.87492 0.217147 0
M  V30 11343 H 1093.57 -3.06883 -2.11313 0
M  V30 11344 H 1093.68 -4.66152 -1.10632 0
M  V30 11345 H 1092.04 -2.45403 -0.681867 0
M  V30 11346 H 1092.83 -3.35543 0.725647 0
M  V30 11347 N 1095.27 0.136881 -1.57004 0
M  V30 11348 C 1096.69 0.489856 -1.51897 0
M  V30 11349 C 1096.89 1.82833 -0.847009 0
M  V30 11350 O 1095.94 2.48952 -0.421792 0
M  V30 11351 C 1097.26 0.490831 -2.96667 0
M  V30 11352 C 1098.81 0.575639 -3.07661 0
M  V30 11353 C 1099.28 0.607178 -4.53957 0
M  V30 11354 N 1100.77 0.66912 -4.58342 0
M  V30 11355 C 1101.51 0.714675 -5.68929 0
M  V30 11356 N 1101 0.718959 -6.89059 0
M  V30 11357 N 1102.8 0.756326 -5.56988 0
M  V30 11358 H 1094.95 -0.740347 -1.99079 0
M  V30 11359 H 1097.21 -0.271116 -0.908405 0
M  V30 11360 H 1096.92 -0.424648 -3.49127 0
M  V30 11361 H 1096.79 1.32512 -3.53158 0
M  V30 11362 H 1099.18 1.48154 -2.55215 0
M  V30 11363 H 1099.26 -0.285991 -2.54196 0
M  V30 11364 H 1098.9 -0.294604 -5.07045 0
M  V30 11365 H 1098.83 1.48544 -5.05215 0
M  V30 11366 H 1101.32 0.672697 -3.71864 0
M  V30 11367 H 1101.64 0.755848 -7.69095 0
M  V30 11368 H 1099.98 0.686671 -6.91599 0
M  V30 11369 H 1103.17 0.750219 -4.62049 0
M  V30 11370 H 1103.34 0.788363 -6.43186 0
M  V30 11371 N 1096.75 1.52266 0.40654 0
M  V30 11372 C 1098.16 1.58587 0.985241 0
M  V30 11373 C 1098.51 0.427955 1.91476 0
M  V30 11374 O 1097.64 -0.451341 2.11641 0
M  V30 11375 C 1098.23 2.87426 1.79365 0
M  V30 11376 C 1096.79 2.96217 2.32233 0
M  V30 11377 C 1095.94 2.53548 1.12288 0
M  V30 11378 H 1098.89 1.57598 0.186685 0
M  V30 11379 H 1098.91 2.72925 2.65127 0
M  V30 11380 H 1098.42 3.71682 1.11687 0
M  V30 11381 H 1096.52 2.1646 3.03275 0
M  V30 11382 H 1096.64 4.00511 2.62922 0
M  V30 11383 H 1095 2.07457 1.47763 0
M  V30 11384 H 1095.78 3.40181 0.461731 0
M  V30 11385 N 1098.23 -0.663929 1.42933 0
M  V30 11386 C 1099.45 -1.45691 1.47611 0
M  V30 11387 C 1099.88 -1.87875 0.0920305 0
M  V30 11388 O 1099.24 -1.56696 -0.91192 0
M  V30 11389 C 1099.28 -2.67517 2.41799 0
M  V30 11390 O 1098.39 -3.66187 1.89686 0
M  V30 11391 H 1097.73 -0.437257 0.499702 0
M  V30 11392 H 1100.26 -0.813397 1.87737 0
M  V30 11393 H 1100.27 -3.1546 2.58745 0
M  V30 11394 H 1098.94 -2.36155 3.4235 0
M  V30 11395 H 1097.52 -3.25274 1.82349 0
M  V30 11396 N 1099.71 -1.29285 -0.901281 0
M  V30 11397 C 1100.93 -1.20169 -1.69039 0
M  V30 11398 C 1101.36 0.234509 -1.86632 0
M  V30 11399 O 1100.71 1.16935 -1.38549 0
M  V30 11400 C 1100.76 -1.91852 -3.05328 0
M  V30 11401 O 1099.87 -1.23448 -3.9349 0
M  V30 11402 H 1099.21 -0.416486 -0.517141 0
M  V30 11403 H 1101.74 -1.70826 -1.12603 0
M  V30 11404 H 1101.75 -2.00244 -3.5548 0
M  V30 11405 H 1100.42 -2.96313 -2.91841 0
M  V30 11406 H 1099 -1.23303 -3.51924 0
M  V30 11407 N 1101.18 1.11143 -1.11736 0
M  V30 11408 C 1102.43 1.8341 -0.879329 0
M  V30 11409 C 1102.79 1.83174 0.588657 0
M  V30 11410 O 1102.08 1.27609 1.42922 0
M  V30 11411 C 1102.27 3.29733 -1.3788 0
M  V30 11412 C 1102.1 3.44222 -2.89381 0
M  V30 11413 C 1100.87 3.57065 -3.57537 0
M  V30 11414 C 1103.07 3.38246 -3.8742 0
M  V30 11415 N 1101.05 3.60056 -4.97225 0
M  V30 11416 C 1102.42 3.47894 -5.13196 0
M  V30 11417 C 1104.48 3.21797 -3.79935 0
M  V30 11418 C 1103.18 3.4279 -6.32367 0
M  V30 11419 C 1105.21 3.18011 -4.98621 0
M  V30 11420 C 1104.57 3.28234 -6.23251 0
M  V30 11421 H 1100.67 0.686248 -0.374951 0
M  V30 11422 H 1103.25 1.32962 -1.42229 0
M  V30 11423 H 1101.42 3.78691 -0.86298 0
M  V30 11424 H 1103.15 3.89924 -1.08359 0
M  V30 11425 H 1099.91 3.59759 -3.08011 0
M  V30 11426 H 1100.33 3.65181 -5.70063 0
M  V30 11427 H 1104.98 3.12777 -2.84482 0
M  V30 11428 H 1102.69 3.50577 -7.28094 0
M  V30 11429 H 1106.28 3.06446 -4.94552 0
M  V30 11430 H 1105.16 3.25297 -7.13549 0
M  V30 11431 N 1102.66 0.908147 1.28804 0
M  V30 11432 C 1103.94 0.457561 1.90173 0
M  V30 11433 C 1104.32 -1.06333 1.82364 0
M  V30 11434 O 1103.67 -1.90892 1.25589 0
M  V30 11435 C 1103.88 0.981624 3.34911 0
M  V30 11436 C 1105.23 1.03037 4.11908 0
M  V30 11437 O 1106.25 0.929878 3.43848 0
M  V30 11438 O 1105.11 1.18257 5.33552 0
M  V30 11439 H 1102.2 0.144081 0.814352 0
M  V30 11440 H 1104.75 0.998565 1.37211 0
M  V30 11441 H 1103.52 2.02561 3.34791 0
M  V30 11442 H 1103.14 0.421122 3.95364 0
M  V30 11443 N 1104.14 -1.42577 0.671525 0
M  V30 11444 C 1105.42 -1.95222 0.121529 0
M  V30 11445 C 1105.8 -1.61209 -1.36289 0
M  V30 11446 O 1105.15 -0.906561 -2.09747 0
M  V30 11447 C 1105.36 -3.46846 0.387189 0
M  V30 11448 C 1106.7 -4.23525 0.301938 0
M  V30 11449 O 1107.73 -3.54753 0.320755 0
M  V30 11450 O 1106.59 -5.45967 0.241317 0
M  V30 11451 H 1103.68 -0.826999 0.000968615 0
M  V30 11452 H 1106.23 -1.52422 0.746029 0
M  V30 11453 H 1105 -3.64795 1.41563 0
M  V30 11454 H 1104.62 -3.96686 -0.26948 0
M  V30 11455 N 1105.62 -0.414636 -1.52048 0
M  V30 11456 C 1106.85 0.158456 -2.05991 0
M  V30 11457 C 1107.26 1.38947 -1.28415 0
M  V30 11458 O 1106.6 1.80698 -0.330728 0
M  V30 11459 C 1106.66 0.568392 -3.54978 0
M  V30 11460 C 1106.33 -0.552654 -4.53646 0
M  V30 11461 C 1107.32 -1.41791 -5.00191 0
M  V30 11462 C 1105.01 -0.726917 -4.97012 0
M  V30 11463 C 1107 -2.44234 -5.88752 0
M  V30 11464 C 1104.69 -1.75464 -5.85368 0
M  V30 11465 C 1105.69 -2.61075 -6.31133 0
M  V30 11466 O 1105.37 -3.62087 -7.17738 0
M  V30 11467 H 1105.11 0.0214746 -0.675659 0
M  V30 11468 H 1107.66 -0.585825 -1.96869 0
M  V30 11469 H 1105.89 1.36504 -3.61806 0
M  V30 11470 H 1107.58 1.07003 -3.91542 0
M  V30 11471 H 1108.35 -1.29471 -4.67399 0
M  V30 11472 H 1104.22 -0.0701964 -4.60947 0
M  V30 11473 H 1107.77 -3.1109 -6.24395 0
M  V30 11474 H 1103.67 -1.87813 -6.17573 0
M  V30 11475 H 1104.43 -3.58396 -7.35863 0
M  V30 11476 N 1107.1 1.56929 -0.145233 0
M  V30 11477 C 1108.32 2.00431 0.513314 0
M  V30 11478 C 1108.74 1.0253 1.58534 0
M  V30 11479 O 1108.1 0.0220459 1.82487 0
M  V30 11480 C 1108.15 3.43856 1.11557 0
M  V30 11481 O 1107.87 4.38015 0.0863707 0
M  V30 11482 C 1109.37 4.02627 1.8549 0
M  V30 11483 H 1106.59 0.657529 0.133778 0
M  V30 11484 H 1109.13 2.03095 -0.239296 0
M  V30 11485 H 1107.29 3.4205 1.81881 0
M  V30 11486 H 1107.7 5.21842 0.527363 0
M  V30 11487 H 1109.18 5.04985 2.22923 0
M  V30 11488 H 1109.65 3.43239 2.74014 0
M  V30 11489 H 1110.26 4.08058 1.19869 0
M  V30 11490 N 1108.58 -0.128553 1.57075 0
M  V30 11491 C 1109.82 -0.834322 1.85501 0
M  V30 11492 C 1110.18 -1.77943 0.731725 0
M  V30 11493 O 1109.47 -1.89702 -0.269003 0
M  V30 11494 C 1109.66 -1.63027 3.18052 0
M  V30 11495 C 1109.49 -0.763737 4.43167 0
M  V30 11496 C 1108.26 -0.42224 5.03533 0
M  V30 11497 C 1110.46 -0.0856773 5.14229 0
M  V30 11498 N 1108.44 0.455954 6.12204 0
M  V30 11499 C 1109.81 0.651902 6.16563 0
M  V30 11500 C 1111.87 -0.00826404 4.97899 0
M  V30 11501 C 1110.57 1.45961 7.04335 0
M  V30 11502 C 1112.6 0.786239 5.8615 0
M  V30 11503 C 1111.96 1.51204 6.8798 0
M  V30 11504 H 1108.06 -0.282535 0.729176 0
M  V30 11505 H 1110.64 -0.0985924 1.9445 0
M  V30 11506 H 1108.81 -2.3371 3.10216 0
M  V30 11507 H 1110.55 -2.28063 3.34319 0
M  V30 11508 H 1107.3 -0.76229 4.67425 0
M  V30 11509 H 1107.72 0.886619 6.71169 0
M  V30 11510 H 1112.37 -0.555051 4.19141 0
M  V30 11511 H 1110.08 2.01759 7.82508 0
M  V30 11512 H 1113.67 0.848372 5.75581 0
M  V30 11513 H 1112.55 2.11694 7.55086 0
M  V30 11514 N 1110.05 -1.5248 -0.398459 0
M  V30 11515 C 1110.99 -1.72826 -1.50545 0
M  V30 11516 C 1112 -0.608683 -1.50993 0
M  V30 11517 O 1113.19 -0.88413 -1.55066 0
M  V30 11518 C 1110.29 -1.76327 -2.89417 0
M  V30 11519 C 1109.46 -3.05491 -3.1304 0
M  V30 11520 C 1108.52 -3.00663 -4.31843 0
M  V30 11521 O 1107.55 -3.74548 -4.28605 0
M  V30 11522 N 1108.75 -2.19191 -5.37527 0
M  V30 11523 H 1111.51 -2.68333 -1.33482 0
M  V30 11524 H 1109.07 -1.5085 -0.587875 0
M  V30 11525 H 1111.07 -1.70616 -3.66977 0
M  V30 11526 H 1109.64 -0.882476 -2.99885 0
M  V30 11527 H 1108.86 -3.24767 -2.23428 0
M  V30 11528 H 1110.14 -3.90915 -3.25673 0
M  V30 11529 H 1109.54 -1.58613 -5.43009 0
M  V30 11530 H 1108.1 -2.19328 -6.1379 0
M  V30 11531 N 1111.53 0.65634 -1.43283 0
M  V30 11532 C 1112.76 1.44906 -1.48382 0
M  V30 11533 C 1113.18 1.87823 -0.101993 0
M  V30 11534 O 1112.54 1.57178 0.903597 0
M  V30 11535 C 1112.59 2.66231 -2.43215 0
M  V30 11536 O 1111.69 3.65176 -1.91625 0
M  V30 11537 H 1111.03 0.434601 -0.502014 0
M  V30 11538 H 1113.56 0.803429 -1.88165 0
M  V30 11539 H 1113.57 3.14083 -2.60414 0
M  V30 11540 H 1112.25 2.34336 -3.43598 0
M  V30 11541 H 1110.82 3.24302 -1.84072 0
M  V30 11542 N 1113.01 1.29761 0.894412 0
M  V30 11543 C 1114.23 1.21064 1.68399 0
M  V30 11544 C 1114.66 -0.224608 1.86754 0
M  V30 11545 O 1114.02 -1.16199 1.39167 0
M  V30 11546 C 1114.07 1.93468 3.04306 0
M  V30 11547 O 1113.17 1.25533 3.9283 0
M  V30 11548 H 1112.51 0.419223 0.514925 0
M  V30 11549 H 1115.04 1.71421 1.11696 0
M  V30 11550 H 1115.05 2.02127 3.54413 0
M  V30 11551 H 1113.73 2.97857 2.90265 0
M  V30 11552 H 1112.3 1.25168 3.51266 0
M  V30 11553 N 1114.49 -1.10549 1.12324 0
M  V30 11554 C 1115.71 -1.8681 0.900927 0
M  V30 11555 C 1116.14 -1.80049 -0.54443 0
M  V30 11556 O 1115.5 -1.16957 -1.38531 0
M  V30 11557 C 1115.54 -3.33197 1.37883 0
M  V30 11558 O 1114.65 -4.08628 0.556529 0
M  V30 11559 H 1113.99 -0.579709 0.32378 0
M  V30 11560 H 1116.52 -1.39678 1.49503 0
M  V30 11561 H 1116.53 -3.84047 1.37739 0
M  V30 11562 H 1115.2 -3.37435 2.43127 0
M  V30 11563 H 1113.78 -3.67627 0.62486 0
M  V30 11564 N 1115.97 -0.914965 -1.28321 0
M  V30 11565 C 1116.91 -0.394477 -2.29231 0
M  V30 11566 C 1117.91 0.514481 -1.61398 0
M  V30 11567 O 1119.11 0.395591 -1.75599 0
M  V30 11568 H 1115.49 -0.108969 -0.744063 0
M  V30 11569 H 1117.46 -1.25862 -2.70557 0
M  V30 11570 C 1116.21 0.349134 -3.45943 0
M  V30 11571 H 1115.53 -0.341087 -3.98342 0
M  V30 11572 H 1116.97 0.677944 -4.18545 0
M  V30 11573 C 1115.43 1.55747 -2.98738 0
M  V30 11574 O 1115.96 2.65654 -3.01315 0
M  V30 11575 N 1114.17 1.40488 -2.54384 0
M  V30 11576 H 1113.71 0.510716 -2.52487 0
M  V30 11577 H 1113.67 2.21464 -2.23161 0
M  V30 11578 N 1117.44 1.42219 -0.679077 0
M  V30 11579 C 1118.85 1.8459 -0.279877 0
M  V30 11580 C 1119.21 1.56839 1.17881 0
M  V30 11581 O 1118.33 1.03039 1.90294 0
M  V30 11582 C 1118.93 3.35072 -0.501185 0
M  V30 11583 C 1117.48 3.76076 -0.156065 0
M  V30 11584 C 1116.63 2.65763 -0.791549 0
M  V30 11585 H 1119.58 1.32005 -0.880932 0
M  V30 11586 H 1119.6 3.79708 0.245349 0
M  V30 11587 H 1119.12 3.55239 -1.56291 0
M  V30 11588 H 1117.22 3.61516 0.90205 0
M  V30 11589 H 1117.33 4.75334 -0.599572 0
M  V30 11590 H 1115.69 2.53726 -0.222514 0
M  V30 11591 H 1116.48 2.88751 -1.85682 0
M  V30 11592 N 1118.92 0.422693 1.51826 0
M  V30 11593 C 1120.15 -0.15017 2.06856 0
M  V30 11594 C 1120.57 -1.36946 1.28948 0
M  V30 11595 O 1119.93 -1.78393 0.32338 0
M  V30 11596 C 1119.98 -0.465563 3.57582 0
M  V30 11597 O 1119.08 -1.55442 3.81984 0
M  V30 11598 H 1118.42 -0.00827931 0.663948 0
M  V30 11599 H 1120.95 0.599806 1.95611 0
M  V30 11600 H 1120.96 -0.720279 4.01592 0
M  V30 11601 H 1119.64 0.425679 4.13716 0
M  V30 11602 H 1118.21 -1.29081 3.49846 0
M  V30 11603 N 1120.4 -1.5685 0.153553 0
M  V30 11604 C 1121.65 -1.95509 -0.495911 0
M  V30 11605 C 1121.96 -1.04129 -1.65579 0
M  V30 11606 O 1123.17 -1.32394 -2.37032 0
M  V30 11607 C 1121.62 -3.47579 -0.933622 0
M  V30 11608 C 1121.23 -4.47555 0.199684 0
M  V30 11609 C 1122.98 -3.95092 -1.55251 0
M  V30 11610 C 1120.88 -5.90843 -0.256663 0
M  V30 11611 H 1119.81 -0.729919 -0.189035 0
M  V30 11612 H 1122.46 -1.81938 0.238947 0
M  V30 11613 H 1120.85 -3.56506 -1.72394 0
M  V30 11614 H 1122.02 -4.50329 0.976744 0
M  V30 11615 H 1120.33 -4.09997 0.727394 0
M  V30 11616 H 1122.93 -4.99588 -1.90567 0
M  V30 11617 H 1123.27 -3.37015 -2.4439 0
M  V30 11618 H 1123.81 -3.89109 -0.826969 0
M  V30 11619 H 1120.55 -6.52753 0.599515 0
M  V30 11620 H 1120.07 -5.91414 -0.999458 0
M  V30 11621 H 1121.75 -6.43131 -0.70649 0
M  V30 11622 N 1121.88 0.120221 -1.57141 0
M  V30 11623 C 1123.12 0.828222 -1.84788 0
M  V30 11624 C 1123.45 1.79936 -0.738459 0
M  V30 11625 O 1122.71 1.93824 0.270295 0
M  V30 11626 C 1123.01 1.61338 -3.18912 0
M  V30 11627 C 1122.67 0.786637 -4.43985 0
M  V30 11628 C 1121.33 0.558645 -4.77946 0
M  V30 11629 C 1123.69 0.210281 -5.20776 0
M  V30 11630 C 1121.01 -0.255975 -5.86141 0
M  V30 11631 C 1123.37 -0.591523 -6.29828 0
M  V30 11632 C 1122.03 -0.829843 -6.62322 0
M  V30 11633 H 1121.3 0.303068 -0.676188 0
M  V30 11634 H 1123.95 0.0906538 -1.91285 0
M  V30 11635 H 1122.25 2.42182 -3.07986 0
M  V30 11636 H 1123.95 2.16513 -3.37525 0
M  V30 11637 H 1120.54 0.974426 -4.17376 0
M  V30 11638 H 1124.72 0.373641 -4.94892 0
M  V30 11639 H 1119.98 -0.449849 -6.09743 0
M  V30 11640 H 1124.15 -1.04512 -6.88513 0
M  V30 11641 H 1121.78 -1.4629 -7.45992 0
M  V30 11642 N 1123.36 1.52689 0.390367 0
M  V30 11643 C 1124.59 1.71292 1.1551 0
M  V30 11644 C 1124.99 0.430405 1.84239 0
M  V30 11645 O 1124.34 -0.604823 1.73458 0
M  V30 11646 C 1124.4 2.80597 2.24735 0
M  V30 11647 C 1124.06 4.21757 1.75984 0
M  V30 11648 C 1125.06 5.04961 1.23733 0
M  V30 11649 C 1122.75 4.68071 1.82248 0
M  V30 11650 C 1124.74 6.32561 0.783926 0
M  V30 11651 C 1122.43 5.95656 1.36519 0
M  V30 11652 C 1123.42 6.7773 0.846786 0
M  V30 11653 O 1123.11 8.02923 0.396164 0
M  V30 11654 H 1122.84 0.576906 0.352356 0
M  V30 11655 H 1125.4 2.00117 0.462865 0
M  V30 11656 H 1123.63 2.4719 2.97378 0
M  V30 11657 H 1125.32 2.87616 2.86412 0
M  V30 11658 H 1126.08 4.70363 1.18251 0
M  V30 11659 H 1121.96 4.04278 2.21541 0
M  V30 11660 H 1125.51 6.96572 0.378612 0
M  V30 11661 H 1121.4 6.29758 1.41686 0
M  V30 11662 H 1122.17 8.16861 0.517766 0
M  V30 11663 N 1124.83 -0.648732 1.43629 0
M  V30 11664 C 1125.77 -1.77363 1.43589 0
M  V30 11665 C 1126.75 -1.59869 0.296783 0
M  V30 11666 O 1127.93 -1.81991 0.491065 0
M  V30 11667 C 1125.06 -3.1472 1.25175 0
M  V30 11668 C 1124.1 -3.50906 2.4242 0
M  V30 11669 S 1124.94 -3.50372 4.04968 0
M  V30 11670 C 1126.09 -4.90379 3.88946 0
M  V30 11671 H 1126.32 -1.77127 2.38774 0
M  V30 11672 H 1123.86 -0.821778 1.30714 0
M  V30 11673 H 1125.82 -3.93993 1.15239 0
M  V30 11674 H 1124.48 -3.12513 0.315303 0
M  V30 11675 H 1123.67 -4.50813 2.25353 0
M  V30 11676 H 1123.27 -2.79056 2.49006 0
M  V30 11677 H 1125.56 -5.79155 3.51548 0
M  V30 11678 H 1126.51 -5.12498 4.88622 0
M  V30 11679 H 1126.91 -4.64125 3.21323 0
M  V30 11680 N 1126.31 -1.30234 -0.887518 0
M  V30 11681 C 1127.54 -1.21652 -1.66986 0
M  V30 11682 C 1127.95 0.223473 -1.87876 0
M  V30 11683 O 1127.29 1.15993 -1.42448 0
M  V30 11684 C 1127.36 -1.87173 -3.06931 0
M  V30 11685 C 1127.02 -3.36496 -3.09224 0
M  V30 11686 C 1128.02 -4.3253 -2.88469 0
M  V30 11687 C 1125.7 -3.77901 -3.30902 0
M  V30 11688 C 1127.7 -5.67942 -2.89344 0
M  V30 11689 C 1125.38 -5.13432 -3.31407 0
M  V30 11690 C 1126.38 -6.08263 -3.10653 0
M  V30 11691 O 1126.07 -7.41318 -3.1097 0
M  V30 11692 H 1125.8 -0.422224 -0.527923 0
M  V30 11693 H 1128.35 -1.72349 -1.11736 0
M  V30 11694 H 1126.58 -1.31002 -3.63834 0
M  V30 11695 H 1128.27 -1.72745 -3.67306 0
M  V30 11696 H 1129.04 -4.01873 -2.7152 0
M  V30 11697 H 1124.92 -3.04534 -3.46093 0
M  V30 11698 H 1128.46 -6.41936 -2.73063 0
M  V30 11699 H 1124.36 -5.4373 -3.47891 0
M  V30 11700 H 1125.13 -7.50275 -3.27153 0
M  V30 11701 N 1127.79 1.09952 -1.12909 0
M  V30 11702 C 1129.04 1.81657 -0.885729 0
M  V30 11703 C 1129.36 1.85863 0.589913 0
M  V30 11704 O 1128.63 1.34028 1.42875 0
M  V30 11705 H 1127.21 0.672743 -0.324694 0
M  V30 11706 H 1129.87 1.33013 -1.42456 0
M  V30 11707 H 1128.97 2.85018 -1.27167 0
M  V30 11708 N 1129.27 0.921757 1.27833 0
M  V30 11709 C 1130.22 0.406628 2.29018 0
M  V30 11710 C 1131.21 -0.505914 1.61669 0
M  V30 11711 O 1132.42 -0.386273 1.75807 0
M  V30 11712 H 1128.79 0.112914 0.743475 0
M  V30 11713 H 1130.76 1.27295 2.69886 0
M  V30 11714 C 1129.51 -0.330783 3.46123 0
M  V30 11715 H 1128.83 0.362207 3.98156 0
M  V30 11716 H 1130.27 -0.655738 4.18899 0
M  V30 11717 C 1128.73 -1.54161 2.9956 0
M  V30 11718 O 1129.26 -2.64052 3.0272 0
M  V30 11719 N 1127.47 -1.39137 2.55126 0
M  V30 11720 H 1127.02 -0.497319 2.52754 0
M  V30 11721 H 1126.97 -2.20278 2.24333 0
M  V30 11722 N 1130.75 -1.41857 0.686609 0
M  V30 11723 C 1131.71 -2.29187 0.0247022 0
M  V30 11724 C 1132.71 -1.43926 -0.717069 0
M  V30 11725 O 1133.9 -1.65179 -0.5533 0
M  V30 11726 C 1131.03 -3.26644 -0.975537 0
M  V30 11727 H 1132.22 -2.89212 0.793503 0
M  V30 11728 H 1129.78 -1.49694 0.449605 0
M  V30 11729 H 1130.51 -2.7158 -1.77242 0
M  V30 11730 H 1130.3 -3.89545 -0.446892 0
M  V30 11731 H 1131.79 -3.92107 -1.43673 0
M  V30 11732 N 1132.22 -0.430739 -1.51599 0
M  V30 11733 C 1133.64 0.0339139 -1.86669 0
M  V30 11734 C 1133.99 1.42533 -1.34829 0
M  V30 11735 O 1133.11 2.04889 -0.696376 0
M  V30 11736 C 1133.71 0.0683174 -3.38731 0
M  V30 11737 C 1132.27 0.477363 -3.73361 0
M  V30 11738 C 1131.41 -0.334258 -2.75278 0
M  V30 11739 H 1134.36 -0.646875 -1.44918 0
M  V30 11740 H 1134.38 0.879179 -3.70204 0
M  V30 11741 H 1133.9 -0.944501 -3.76432 0
M  V30 11742 H 1132 1.49603 -3.41247 0
M  V30 11743 H 1132.11 0.206744 -4.78654 0
M  V30 11744 H 1130.47 0.206503 -2.53861 0
M  V30 11745 H 1131.26 -1.34583 -3.1582 0
M  V30 11746 N 1133.7 1.56767 -0.161869 0
M  V30 11747 C 1135.11 1.83265 0.356466 0
M  V30 11748 C 1135.46 1.08127 1.63716 0
M  V30 11749 O 1134.59 0.33127 2.13849 0
M  V30 11750 C 1135.18 3.32437 0.653521 0
M  V30 11751 C 1133.74 3.59465 1.11633 0
M  V30 11752 C 1132.89 2.76909 0.147204 0
M  V30 11753 H 1135.84 1.53926 -0.386308 0
M  V30 11754 H 1135.86 3.49401 1.50662 0
M  V30 11755 H 1135.37 3.87098 -0.278766 0
M  V30 11756 H 1133.48 3.10206 2.06404 0
M  V30 11757 H 1133.59 4.67853 1.03202 0
M  V30 11758 H 1131.95 2.46457 0.642739 0
M  V30 11759 H 1132.74 3.34346 -0.778938 0
M  V30 11760 N 1135.18 -0.111886 1.57202 0
M  V30 11761 C 1136.6 -0.465629 1.52657 0
M  V30 11762 C 1136.8 -1.81463 0.875989 0
M  V30 11763 O 1135.85 -2.4825 0.461345 0
M  V30 11764 C 1137.17 -0.443571 2.9741 0
M  V30 11765 C 1138.71 -0.52662 3.08538 0
M  V30 11766 C 1139.19 -0.53488 4.54866 0
M  V30 11767 N 1140.68 -0.596117 4.59348 0
M  V30 11768 C 1141.41 -0.624073 5.69994 0
M  V30 11769 N 1140.91 -0.609245 6.90116 0
M  V30 11770 N 1142.7 -0.667619 5.58121 0
M  V30 11771 H 1134.85 0.771925 1.97876 0
M  V30 11772 H 1137.12 0.285534 0.903977 0
M  V30 11773 H 1136.82 0.480138 3.48407 0
M  V30 11774 H 1136.7 -1.26876 3.55221 0
M  V30 11775 H 1139.08 -1.44075 2.57539 0
M  V30 11776 H 1139.17 0.326396 2.53709 0
M  V30 11777 H 1138.81 0.375233 5.06512 0
M  V30 11778 H 1138.74 -1.40488 5.07514 0
M  V30 11779 H 1141.23 -0.613452 3.72888 0
M  V30 11780 H 1141.54 -0.633396 7.702 0
M  V30 11781 H 1139.89 -0.576557 6.92604 0
M  V30 11782 H 1143.08 -0.676616 4.63184 0
M  V30 11783 H 1143.25 -0.685938 6.44359 0
M  V30 11784 N 1136.66 -1.52894 -0.382264 0
M  V30 11785 C 1137.59 -1.7291 -1.48921 0
M  V30 11786 C 1138.57 -0.577056 -1.52016 0
M  V30 11787 O 1139.75 -0.807667 -1.7032 0
M  V30 11788 C 1136.88 -1.79281 -2.87361 0
M  V30 11789 C 1135.93 -3.01099 -3.02063 0
M  V30 11790 S 1136.76 -4.60947 -2.72558 0
M  V30 11791 C 1137.92 -4.70144 -4.13178 0
M  V30 11792 H 1138.15 -2.66529 -1.31718 0
M  V30 11793 H 1135.68 -1.43271 -0.575563 0
M  V30 11794 H 1137.64 -1.83637 -3.67134 0
M  V30 11795 H 1136.3 -0.867428 -3.01885 0
M  V30 11796 H 1135.49 -3.02117 -4.03412 0
M  V30 11797 H 1135.1 -2.94769 -2.3019 0
M  V30 11798 H 1137.39 -4.49173 -5.07198 0
M  V30 11799 H 1138.33 -5.72166 -4.17172 0
M  V30 11800 H 1138.74 -3.98923 -3.99401 0
M  V30 11801 N 1138.14 0.641106 -1.43971 0
M  V30 11802 C 1139.36 1.43324 -1.4991 0
M  V30 11803 C 1139.79 1.87705 -0.121908 0
M  V30 11804 O 1139.15 1.58127 0.886875 0
M  V30 11805 C 1139.19 2.63637 -2.46025 0
M  V30 11806 O 1138.3 3.63123 -1.95488 0
M  V30 11807 H 1137.64 0.429252 -0.506595 0
M  V30 11808 H 1140.17 0.783427 -1.89007 0
M  V30 11809 H 1140.18 3.11304 -2.63731 0
M  V30 11810 H 1138.85 2.30678 -3.46064 0
M  V30 11811 H 1137.43 3.22332 -1.87501 0
M  V30 11812 N 1139.62 1.30703 0.880598 0
M  V30 11813 C 1140.86 1.19142 1.62752 0
M  V30 11814 C 1141.18 -0.251795 1.93973 0
M  V30 11815 O 1142.38 -0.488971 2.67061 0
M  V30 11816 C 1140.84 2.08503 2.93351 0
M  V30 11817 C 1140.45 3.57758 2.69653 0
M  V30 11818 C 1142.19 2.05715 3.71324 0
M  V30 11819 C 1140.1 4.39161 3.96096 0
M  V30 11820 H 1139.03 0.442332 0.610622 0
M  V30 11821 H 1141.68 1.55483 0.974547 0
M  V30 11822 H 1140.06 1.65049 3.59965 0
M  V30 11823 H 1141.24 4.09388 2.11513 0
M  V30 11824 H 1139.55 3.62414 2.0505 0
M  V30 11825 H 1142.15 2.63783 4.65105 0
M  V30 11826 H 1142.49 1.04168 4.03057 0
M  V30 11827 H 1143.02 2.47313 3.11579 0
M  V30 11828 H 1139.76 5.4142 3.69519 0
M  V30 11829 H 1139.28 3.92293 4.53725 0
M  V30 11830 H 1140.96 4.50823 4.64077 0
M  V30 11831 N 1141.09 -1.09351 1.1349 0
M  V30 11832 C 1142.5 -1.63035 0.909746 0
M  V30 11833 C 1142.86 -1.88229 -0.553573 0
M  V30 11834 O 1141.98 -1.63256 -1.42044 0
M  V30 11835 C 1142.58 -2.96186 1.64497 0
M  V30 11836 C 1141.13 -3.46692 1.46566 0
M  V30 11837 C 1140.28 -2.21095 1.67369 0
M  V30 11838 H 1143.23 -0.92704 1.28809 0
M  V30 11839 H 1143.25 -3.64177 1.10251 0
M  V30 11840 H 1142.77 -2.77818 2.70996 0
M  V30 11841 H 1140.87 -3.70183 0.423728 0
M  V30 11842 H 1140.98 -4.24078 2.22923 0
M  V30 11843 H 1139.34 -2.29789 1.0986 0
M  V30 11844 H 1140.13 -2.05245 2.7519 0
M  V30 11845 N 1142.57 -0.928524 -1.27343 0
M  V30 11846 C 1143.8 -0.584884 -1.98148 0
M  V30 11847 C 1144.21 0.841603 -1.69451 0
M  V30 11848 O 1143.55 1.57104 -0.952053 0
M  V30 11849 C 1143.61 -0.731911 -3.51971 0
M  V30 11850 C 1143.28 -2.13067 -4.04291 0
M  V30 11851 C 1144.28 -3.10492 -4.17002 0
M  V30 11852 C 1141.96 -2.44784 -4.38619 0
M  V30 11853 C 1143.95 -4.37742 -4.63315 0
M  V30 11854 C 1141.64 -3.72269 -4.84622 0
M  V30 11855 C 1142.64 -4.68562 -4.9693 0
M  V30 11856 O 1142.33 -5.93779 -5.41924 0
M  V30 11857 H 1142.06 -0.220347 -0.63908 0
M  V30 11858 H 1144.61 -1.24799 -1.63139 0
M  V30 11859 H 1142.84 -0.0116966 -3.86698 0
M  V30 11860 H 1144.53 -0.393206 -4.03991 0
M  V30 11861 H 1145.3 -2.8731 -3.9074 0
M  V30 11862 H 1141.18 -1.70577 -4.28281 0
M  V30 11863 H 1144.72 -5.12905 -4.72836 0
M  V30 11864 H 1140.62 -3.95269 -5.10326 0
M  V30 11865 H 1141.39 -5.96779 -5.60176 0
M  V30 11866 N 1144.05 1.41491 -0.694123 0
M  V30 11867 C 1145.3 2.0155 -0.224809 0
M  V30 11868 C 1145.63 1.54844 1.17205 0
M  V30 11869 O 1144.9 0.75899 1.7908 0
M  V30 11870 C 1145.19 3.59003 -0.280884 0
M  V30 11871 C 1145.04 4.15839 -1.71458 0
M  V30 11872 C 1146.36 4.38624 0.360122 0
M  V30 11873 H 1143.48 0.732293 -0.0831632 0
M  V30 11874 H 1146.12 1.68258 -0.882569 0
M  V30 11875 H 1144.27 3.87496 0.279164 0
M  V30 11876 H 1145.94 3.98227 -2.32837 0
M  V30 11877 H 1144.18 3.70936 -2.2492 0
M  V30 11878 H 1144.86 5.24997 -1.70536 0
M  V30 11879 H 1147.33 4.15936 -0.11683 0
M  V30 11880 H 1146.21 5.48132 0.290337 0
M  V30 11881 H 1146.47 4.1797 1.44062 0
M  V30 11882 N 1145.53 0.438773 1.51369 0
M  V30 11883 C 1146.78 -0.126962 2.01701 0
M  V30 11884 C 1147.1 -1.43086 1.32481 0
M  V30 11885 O 1146.37 -1.90427 0.459823 0
M  V30 11886 H 1144.95 -0.0499092 0.745331 0
M  V30 11887 H 1147.61 0.581808 1.86013 0
M  V30 11888 H 1146.7 -0.301836 3.10637 0
M  V30 11889 N 1147.01 -1.56678 0.170181 0
M  V30 11890 C 1148.25 -1.96024 -0.475147 0
M  V30 11891 C 1148.57 -1.0588 -1.64465 0
M  V30 11892 O 1149.77 -1.34901 -2.35614 0
M  V30 11893 C 1148.23 -3.4855 -0.896704 0
M  V30 11894 C 1147.84 -4.47318 0.247142 0
M  V30 11895 C 1149.58 -3.96716 -1.51052 0
M  V30 11896 C 1147.49 -5.91082 -0.193982 0
M  V30 11897 H 1146.42 -0.731883 -0.181282 0
M  V30 11898 H 1149.07 -1.81674 0.25823 0
M  V30 11899 H 1147.45 -3.58314 -1.68603 0
M  V30 11900 H 1148.63 -4.49268 1.02445 0
M  V30 11901 H 1146.94 -4.09203 0.770839 0
M  V30 11902 H 1149.54 -5.01581 -1.85258 0
M  V30 11903 H 1149.88 -3.39588 -2.40802 0
M  V30 11904 H 1150.41 -3.89965 -0.785652 0
M  V30 11905 H 1147.15 -6.5208 0.668714 0
M  V30 11906 H 1146.67 -5.92441 -0.936675 0
M  V30 11907 H 1148.35 -6.43844 -0.638237 0
M  V30 11908 N 1148.48 0.103547 -1.57259 0
M  V30 11909 C 1149.45 1.11039 -2.00507 0
M  V30 11910 C 1150.45 1.33432 -0.897361 0
M  V30 11911 O 1151.64 1.29688 -1.16304 0
M  V30 11912 C 1148.77 2.46144 -2.35851 0
M  V30 11913 H 1149.96 0.738332 -2.90669 0
M  V30 11914 H 1147.51 0.348334 -1.52369 0
M  V30 11915 H 1148.25 2.88242 -1.48617 0
M  V30 11916 H 1148.03 2.31241 -3.16654 0
M  V30 11917 H 1149.52 3.18577 -2.69997 0
M  V30 11918 N 1149.96 1.53094 0.37415 0
M  V30 11919 C 1150.91 1.79585 1.47824 0
M  V30 11920 C 1151.9 0.664513 1.55822 0
M  V30 11921 O 1153.11 0.84729 1.58811 0
M  V30 11922 H 1149.48 0.568474 0.492282 0
M  V30 11923 H 1151.46 2.72014 1.22681 0
M  V30 11924 C 1150.2 1.995 2.84772 0
M  V30 11925 H 1149.53 2.85991 2.79373 0
M  V30 11926 H 1150.97 2.22018 3.61226 0
M  V30 11927 C 1149.43 0.771673 3.27943 0
M  V30 11928 O 1149.96 -0.0437737 4.01676 0
M  V30 11929 N 1148.16 0.597547 2.8439 0
M  V30 11930 H 1147.71 1.26227 2.24554 0
M  V30 11931 H 1147.67 -0.219578 3.13632 0
M  V30 11932 N 1151.44 -0.633461 1.44309 0
M  V30 11933 C 1152.4 -1.72743 1.50641 0
M  V30 11934 C 1153.4 -1.56031 0.388718 0
M  V30 11935 O 1154.59 -1.61568 0.651251 0
M  V30 11936 C 1151.72 -3.11804 1.37809 0
M  V30 11937 H 1152.92 -1.68503 2.48086 0
M  V30 11938 H 1150.47 -0.846912 1.31366 0
M  V30 11939 H 1151.21 -3.2164 0.414483 0
M  V30 11940 H 1150.99 -3.2534 2.18852 0
M  V30 11941 H 1152.48 -3.91538 1.45216 0
M  V30 11942 N 1152.92 -1.31168 -0.873655 0
M  V30 11943 C 1154.15 -1.23416 -1.65686 0
M  V30 11944 C 1154.56 0.203534 -1.88102 0
M  V30 11945 O 1153.9 1.14476 -1.4367 0
M  V30 11946 C 1153.96 -1.90418 -3.04929 0
M  V30 11947 C 1153.63 -3.39757 -3.05637 0
M  V30 11948 C 1154.62 -4.35565 -2.83865 0
M  V30 11949 C 1152.31 -3.81389 -3.26875 0
M  V30 11950 C 1154.3 -5.70979 -2.83304 0
M  V30 11951 C 1151.99 -5.16918 -3.25943 0
M  V30 11952 C 1152.99 -6.11524 -3.04184 0
M  V30 11953 O 1152.67 -7.44575 -3.0309 0
M  V30 11954 H 1152.41 -0.4278 -0.523415 0
M  V30 11955 H 1154.96 -1.73525 -1.09902 0
M  V30 11956 H 1153.19 -1.34854 -3.62424 0
M  V30 11957 H 1154.88 -1.76631 -3.65453 0
M  V30 11958 H 1155.65 -4.0473 -2.67243 0
M  V30 11959 H 1151.52 -3.08187 -3.42844 0
M  V30 11960 H 1155.07 -6.44796 -2.66239 0
M  V30 11961 H 1150.97 -5.47389 -3.42104 0
M  V30 11962 H 1151.73 -7.53703 -3.19177 0
M  V30 11963 N 1154.4 1.08748 -1.14068 0
M  V30 11964 C 1155.62 1.85353 -0.930532 0
M  V30 11965 C 1156.05 1.80892 0.515717 0
M  V30 11966 O 1155.4 1.19146 1.36652 0
M  V30 11967 C 1155.45 3.30962 -1.43167 0
M  V30 11968 O 1154.56 4.0769 -0.621468 0
M  V30 11969 H 1153.9 0.574485 -0.332962 0
M  V30 11970 H 1156.43 1.37282 -1.51707 0
M  V30 11971 H 1156.44 3.81807 -1.43832 0
M  V30 11972 H 1155.11 3.33524 -2.48464 0
M  V30 11973 H 1153.69 3.66587 -0.683267 0
M  V30 11974 N 1155.87 0.935264 1.26849 0
M  V30 11975 C 1156.82 0.411166 2.24262 0
M  V30 11976 C 1157.81 -0.488804 1.53296 0
M  V30 11977 O 1159 -0.325015 1.7399 0
M  V30 11978 C 1156.13 -0.327941 3.4173 0
M  V30 11979 C 1155.22 0.58898 4.1999 0
M  V30 11980 N 1155.61 1.71216 4.7594 0
M  V30 11981 C 1153.9 0.393431 4.44261 0
M  V30 11982 C 1154.61 2.28306 5.35024 0
M  V30 11983 N 1153.58 1.57176 5.20381 0
M  V30 11984 H 1157.38 1.26864 2.65109 0
M  V30 11985 H 1154.9 0.790429 1.41866 0
M  V30 11986 H 1156.89 -0.720404 4.10629 0
M  V30 11987 H 1155.55 -1.18225 3.02412 0
M  V30 11988 H 1156.57 2.09441 4.73661 0
M  V30 11989 H 1153.24 -0.419596 4.15386 0
M  V30 11990 H 1154.63 3.22909 5.89219 0
M  V30 11991 N 1157.35 -1.41121 0.701616 0
M  V30 11992 C 1158.6 -2.0113 0.235147 0
M  V30 11993 C 1158.93 -1.55587 -1.16718 0
M  V30 11994 O 1158.18 -0.760615 -1.80314 0
M  V30 11995 C 1158.48 -3.5654 0.247781 0
M  V30 11996 C 1158.15 -4.21616 1.59846 0
M  V30 11997 C 1156.81 -4.39106 1.96822 0
M  V30 11998 C 1159.16 -4.58048 2.48679 0
M  V30 11999 C 1156.49 -4.90307 3.22205 0
M  V30 12000 C 1158.84 -5.10642 3.734 0
M  V30 12001 C 1157.51 -5.26343 4.10512 0
M  V30 12002 H 1156.78 -0.735987 0.0860462 0
M  V30 12003 H 1159.42 -1.68932 0.901898 0
M  V30 12004 H 1157.73 -3.88564 -0.502528 0
M  V30 12005 H 1159.42 -4.00787 -0.130766 0
M  V30 12006 H 1156.01 -4.08381 1.30088 0
M  V30 12007 H 1160.2 -4.44184 2.21391 0
M  V30 12008 H 1155.45 -5.00647 3.50945 0
M  V30 12009 H 1159.63 -5.37811 4.42416 0
M  V30 12010 H 1157.26 -5.65779 5.07738 0
M  V30 12011 N 1158.83 -0.446794 -1.51134 0
M  V30 12012 C 1160.06 0.114727 -2.06281 0
M  V30 12013 C 1160.47 1.36192 -1.31333 0
M  V30 12014 O 1159.81 1.79956 -0.368982 0
M  V30 12015 C 1159.87 0.492968 -3.56104 0
M  V30 12016 C 1159.54 -0.648755 -4.52372 0
M  V30 12017 C 1160.53 -1.52369 -4.97071 0
M  V30 12018 C 1158.22 -0.832177 -4.95359 0
M  V30 12019 C 1160.21 -2.56667 -5.83439 0
M  V30 12020 C 1157.9 -1.87841 -5.81514 0
M  V30 12021 C 1158.9 -2.74404 -6.25453 0
M  V30 12022 O 1158.59 -3.7723 -7.09896 0
M  V30 12023 H 1158.32 0.007138 -0.675962 0
M  V30 12024 H 1160.87 -0.627452 -1.95582 0
M  V30 12025 H 1159.1 1.28799 -3.6462 0
M  V30 12026 H 1160.79 0.986739 -3.93724 0
M  V30 12027 H 1161.56 -1.39356 -4.64548 0
M  V30 12028 H 1157.44 -0.167954 -4.60694 0
M  V30 12029 H 1160.98 -3.24264 -6.17656 0
M  V30 12030 H 1156.88 -2.00871 -6.1345 0
M  V30 12031 H 1157.65 -3.73924 -7.28095 0
M  V30 12032 N 1160.31 1.56586 -0.178487 0
M  V30 12033 C 1161.59 1.88798 0.511356 0
M  V30 12034 C 1161.97 1.08949 1.80813 0
M  V30 12035 O 1161.31 0.185551 2.27745 0
M  V30 12036 C 1161.52 3.40927 0.746298 0
M  V30 12037 C 1162.87 4.10816 1.0731 0
M  V30 12038 O 1163.9 3.46285 0.834592 0
M  V30 12039 O 1162.75 5.24837 1.52343 0
M  V30 12040 H 1159.85 0.783574 0.264463 0
M  V30 12041 H 1162.39 1.68301 -0.21746 0
M  V30 12042 H 1161.17 3.9093 -0.17015 0
M  V30 12043 H 1160.79 3.67059 1.52817 0
M  V30 12044 N 1161.79 -0.095206 1.57312 0
M  V30 12045 C 1163.03 -0.797142 1.85715 0
M  V30 12046 C 1163.36 -1.79275 0.767171 0
M  V30 12047 O 1162.63 -1.94808 -0.206584 0
M  V30 12048 H 1161.21 -0.297382 0.685254 0
M  V30 12049 H 1163.87 -0.0768617 1.94748 0
M  V30 12050 H 1162.96 -1.32779 2.82447 0
M  V30 12051 N 1163.26 -1.53291 -0.366026 0
M  V30 12052 C 1164.51 -1.69451 -1.10872 0
M  V30 12053 C 1164.84 -0.446078 -1.89316 0
M  V30 12054 O 1164.09 0.571962 -1.87155 0
M  V30 12055 C 1164.39 -2.89547 -2.09517 0
M  V30 12056 C 1164.06 -4.26073 -1.47556 0
M  V30 12057 C 1162.72 -4.63199 -1.30386 0
M  V30 12058 C 1165.07 -5.10977 -1.02724 0
M  V30 12059 C 1162.4 -5.82866 -0.669666 0
M  V30 12060 C 1164.75 -6.31289 -0.407052 0
M  V30 12061 C 1163.42 -6.67128 -0.222839 0
M  V30 12062 H 1162.69 -0.620066 -0.405708 0
M  V30 12063 H 1165.33 -1.87475 -0.390563 0
M  V30 12064 H 1163.64 -2.66034 -2.87634 0
M  V30 12065 H 1165.34 -2.99245 -2.66933 0
M  V30 12066 H 1161.93 -3.9684 -1.61914 0
M  V30 12067 H 1166.11 -4.82844 -1.14783 0
M  V30 12068 H 1161.37 -6.09224 -0.515351 0
M  V30 12069 H 1165.54 -6.96381 -0.0514661 0
M  V30 12070 H 1163.17 -7.59718 0.270647 0
M  V30 12071 N 1164.74 0.6258 -1.44643 0
M  V30 12072 C 1165.71 1.71941 -1.51555 0
M  V30 12073 C 1166.71 1.55822 -0.396988 0
M  V30 12074 O 1167.9 1.61221 -0.65981 0
M  V30 12075 C 1165.03 3.11068 -1.39461 0
M  V30 12076 H 1166.22 1.67185 -2.48976 0
M  V30 12077 H 1163.77 0.839934 -1.31814 0
M  V30 12078 H 1164.51 3.21416 -0.431534 0
M  V30 12079 H 1164.29 3.24175 -2.20574 0
M  V30 12080 H 1165.78 3.90762 -1.4729 0
M  V30 12081 N 1166.22 1.31629 0.866686 0
M  V30 12082 C 1167.64 1.10358 1.15296 0
M  V30 12083 C 1167.84 -0.123807 2.01119 0
M  V30 12084 O 1166.89 -0.81219 2.39081 0
M  V30 12085 C 1168.21 2.37684 1.84193 0
M  V30 12086 C 1169.75 2.43326 1.9688 0
M  V30 12087 C 1170.23 3.70541 2.69191 0
M  V30 12088 N 1171.72 3.71454 2.76724 0
M  V30 12089 C 1172.45 4.66585 3.33295 0
M  V30 12090 N 1171.95 5.72075 3.90771 0
M  V30 12091 N 1173.74 4.541 3.31284 0
M  V30 12092 H 1165.89 2.10343 0.29487 0
M  V30 12093 H 1168.16 0.928096 0.193239 0
M  V30 12094 H 1167.86 3.27352 1.28582 0
M  V30 12095 H 1167.74 2.47731 2.84445 0
M  V30 12096 H 1170.12 1.54124 2.51654 0
M  V30 12097 H 1170.21 2.3724 0.956596 0
M  V30 12098 H 1169.85 4.60111 2.15083 0
M  V30 12099 H 1169.78 3.73894 3.70825 0
M  V30 12100 H 1172.27 2.952 2.35936 0
M  V30 12101 H 1172.58 6.40738 4.32058 0
M  V30 12102 H 1170.93 5.75844 3.89138 0
M  V30 12103 H 1174.12 3.70861 2.85622 0
M  V30 12104 H 1174.29 5.28416 3.75074 0
M  V30 12105 N 1167.7 -1.08142 1.14644 0
M  V30 12106 C 1168.95 -1.80849 0.917685 0
M  V30 12107 C 1169.28 -1.86123 -0.554249 0
M  V30 12108 O 1168.55 -1.33907 -1.41065 0
M  V30 12109 C 1168.84 -3.26325 1.52264 0
M  V30 12110 C 1168.69 -3.29244 3.06461 0
M  V30 12111 C 1170.01 -4.23375 1.20175 0
M  V30 12112 H 1167.13 -0.656559 0.334812 0
M  V30 12113 H 1169.77 -1.26595 1.41682 0
M  V30 12114 H 1167.92 -3.72656 1.09817 0
M  V30 12115 H 1169.59 -2.91216 3.57758 0
M  V30 12116 H 1167.83 -2.68438 3.40769 0
M  V30 12117 H 1168.51 -4.31785 3.43897 0
M  V30 12118 H 1170.98 -3.85394 1.56877 0
M  V30 12119 H 1169.86 -5.23472 1.65132 0
M  V30 12120 H 1170.12 -4.41944 0.117474 0
M  V30 12121 N 1169.18 -0.941978 -1.26351 0
M  V30 12122 C 1170.59 -0.632522 -1.75659 0
M  V30 12123 C 1170.94 0.852287 -1.76722 0
M  V30 12124 O 1170.06 1.66701 -1.37985 0
M  V30 12125 C 1170.66 -1.14145 -3.18993 0
M  V30 12126 C 1169.22 -0.882391 -3.65911 0
M  V30 12127 C 1168.37 -1.29189 -2.45368 0
M  V30 12128 H 1171.32 -1.12019 -1.12416 0
M  V30 12129 H 1171.34 -0.495639 -3.77258 0
M  V30 12130 H 1170.85 -2.22213 -3.18187 0
M  V30 12131 H 1168.95 0.183873 -3.72146 0
M  V30 12132 H 1169.06 -1.50996 -4.54683 0
M  V30 12133 H 1167.43 -0.710316 -2.44595 0
M  V30 12134 H 1168.21 -2.38152 -2.47262 0
M  V30 12135 N 1170.66 1.40747 -0.709091 0
M  V30 12136 C 1171.59 2.33404 -0.0669763 0
M  V30 12137 C 1172.57 1.52546 0.752582 0
M  V30 12138 O 1173.75 1.81036 0.702823 0
M  V30 12139 C 1170.88 3.36476 0.860285 0
M  V30 12140 C 1169.84 4.27748 0.146828 0
M  V30 12141 C 1169.16 5.21304 1.18937 0
M  V30 12142 C 1170.46 5.12734 -0.995064 0
M  V30 12143 H 1172.16 2.87349 -0.840888 0
M  V30 12144 H 1169.7 1.38163 -0.405817 0
M  V30 12145 H 1171.65 4.00231 1.31883 0
M  V30 12146 H 1170.38 2.80912 1.66602 0
M  V30 12147 H 1169.04 3.65437 -0.291826 0
M  V30 12148 H 1168.69 4.62048 1.98798 0
M  V30 12149 H 1168.39 5.8321 0.716917 0
M  V30 12150 H 1169.91 5.87936 1.64815 0
M  V30 12151 H 1171.32 5.69979 -0.61618 0
M  V30 12152 H 1169.72 5.83649 -1.39547 0
M  V30 12153 H 1170.79 4.49097 -1.82867 0
M  V30 12154 N 1172.13 0.454803 1.50895 0
M  V30 12155 C 1173.04 -0.353495 2.31921 0
M  V30 12156 C 1174.06 -1.01136 1.41589 0
M  V30 12157 O 1175.24 -1.00291 1.74653 0
M  V30 12158 C 1172.3 -1.43032 3.15821 0
M  V30 12159 C 1171.36 -0.790763 4.21954 0
M  V30 12160 C 1170.59 -1.81628 5.01843 0
M  V30 12161 O 1170.82 -3.04078 4.8259 0
M  V30 12162 O 1169.75 -1.39713 5.8546 0
M  V30 12163 H 1173.58 0.308463 3.02129 0
M  V30 12164 H 1171.16 0.216971 1.47816 0
M  V30 12165 H 1173.04 -2.05444 3.67927 0
M  V30 12166 H 1171.72 -2.07605 2.48358 0
M  V30 12167 H 1170.63 -0.128127 3.73881 0
M  V30 12168 H 1171.96 -0.188251 4.9184 0
M  V30 12169 N 1173.61 -1.56489 0.186789 0
M  V30 12170 C 1174.86 -1.96952 -0.453261 0
M  V30 12171 C 1175.18 -1.07451 -1.62725 0
M  V30 12172 O 1174.45 -0.144046 -1.9537 0
M  V30 12173 H 1173.03 -0.727295 -0.170445 0
M  V30 12174 H 1175.69 -1.92999 0.271584 0
M  V30 12175 H 1174.79 -3.01594 -0.802951 0
M  V30 12176 N 1175.09 0.086862 -1.5736 0
M  V30 12177 C 1176 1.12297 -2.05977 0
M  V30 12178 C 1177.02 1.43347 -0.986284 0
M  V30 12179 O 1178.19 1.53825 -1.3 0
M  V30 12180 C 1175.26 2.42131 -2.4814 0
M  V30 12181 C 1174.32 2.18189 -3.69719 0
M  V30 12182 C 1173.55 3.41833 -4.09861 0
M  V30 12183 O 1173.77 4.50383 -3.50016 0
M  V30 12184 O 1172.71 3.30934 -5.02759 0
M  V30 12185 H 1176.53 0.740012 -2.94546 0
M  V30 12186 H 1174.12 0.29995 -1.46358 0
M  V30 12187 H 1176 3.18568 -2.75848 0
M  V30 12188 H 1174.68 2.79837 -1.62705 0
M  V30 12189 H 1173.58 1.39506 -3.47115 0
M  V30 12190 H 1174.92 1.85372 -4.55959 0
M  V30 12191 N 1176.57 1.53483 0.357892 0
M  V30 12192 C 1177.52 1.81143 1.45911 0
M  V30 12193 C 1178.51 0.681002 1.55109 0
M  V30 12194 O 1179.72 0.864086 1.57904 0
M  V30 12195 H 1176.09 0.573663 0.486225 0
M  V30 12196 H 1178.06 2.733 1.19789 0
M  V30 12197 C 1176.81 2.02509 2.8264 0
M  V30 12198 H 1176.13 2.88938 2.76324 0
M  V30 12199 H 1177.57 2.25837 3.58851 0
M  V30 12200 C 1176.03 0.806412 3.27106 0
M  V30 12201 O 1176.56 -0.00116809 4.017 0
M  V30 12202 N 1174.77 0.627677 2.8374 0
M  V30 12203 H 1174.32 1.28601 2.23203 0
M  V30 12204 H 1174.27 -0.186301 3.13848 0
M  V30 12205 N 1178.05 -0.61812 1.44973 0
M  V30 12206 C 1179.27 -1.40429 1.51945 0
M  V30 12207 C 1179.69 -1.88215 0.148556 0
M  V30 12208 O 1179.05 -1.61603 -0.847978 0
M  V30 12209 C 1179.1 -2.61588 2.49507 0
M  V30 12210 O 1178.82 -2.15791 3.81269 0
M  V30 12211 C 1180.32 -3.5457 2.66074 0
M  V30 12212 H 1177.54 -0.43023 0.514921 0
M  V30 12213 H 1180.08 -0.754791 1.90061 0
M  V30 12214 H 1178.24 -3.22602 2.14492 0
M  V30 12215 H 1178.65 -2.94434 4.34061 0
M  V30 12216 H 1180.13 -4.36155 3.38338 0
M  V30 12217 H 1180.6 -4.04227 1.71746 0
M  V30 12218 H 1181.21 -2.99416 3.02043 0
M  V30 12219 N 1179.52 -1.32087 -0.859693 0
M  V30 12220 C 1180.8 -1.12984 -1.59668 0
M  V30 12221 C 1181.18 0.311661 -2.08787 0
M  V30 12222 O 1180.53 1.30746 -1.87397 0
M  V30 12223 C 1180.74 -2.15305 -2.74672 0
M  V30 12224 C 1182.09 -2.48371 -3.44379 0
M  V30 12225 O 1183.11 -2.13811 -2.84891 0
M  V30 12226 O 1181.97 -3.07594 -4.51717 0
M  V30 12227 H 1179.06 -0.435657 -0.702945 0
M  V30 12228 H 1181.61 -1.43601 -0.90426 0
M  V30 12229 H 1180.38 -3.12223 -2.35866 0
M  V30 12230 H 1180 -1.85653 -3.51594 0
M  V30 12231 N 1181 1.07532 -1.15215 0
M  V30 12232 C 1181.96 2.1286 -0.84989 0
M  V30 12233 C 1182.96 1.60103 0.149524 0
M  V30 12234 O 1184.15 1.74017 -0.0798918 0
M  V30 12235 C 1181.29 3.3984 -0.268617 0
M  V30 12236 H 1182.48 2.41106 -1.78347 0
M  V30 12237 H 1180.03 1.23392 -0.959386 0
M  V30 12238 H 1180.77 3.17235 0.67325 0
M  V30 12239 H 1180.55 3.79433 -0.988592 0
M  V30 12240 H 1182.04 4.17533 -0.0746554 0
M  V30 12241 N 1182.48 0.948665 1.2585 0
M  V30 12242 C 1183.73 0.59905 1.93018 0
M  V30 12243 C 1184.05 -0.865813 1.74725 0
M  V30 12244 O 1183.32 -1.61602 1.10732 0
M  V30 12245 H 1181.9 0.218565 0.71431 0
M  V30 12246 H 1184.56 1.20561 1.53137 0
M  V30 12247 H 1183.66 0.823244 3.01047 0
M  V30 12248 N 1183.96 -1.40369 0.716545 0
M  V30 12249 C 1185.24 -1.94737 0.183576 0
M  V30 12250 C 1185.62 -1.65464 -1.31092 0
M  V30 12251 O 1184.96 -0.972832 -2.06756 0
M  V30 12252 C 1185.17 -3.45438 0.497339 0
M  V30 12253 C 1186.52 -4.2235 0.436526 0
M  V30 12254 O 1187.55 -3.53553 0.433454 0
M  V30 12255 O 1186.4 -5.44923 0.41489 0
M  V30 12256 H 1183.5 -0.82655 0.0272785 0
M  V30 12257 H 1186.04 -1.49972 0.794143 0
M  V30 12258 H 1184.82 -3.60107 1.53097 0
M  V30 12259 H 1184.44 -3.97342 -0.143141 0
M  V30 12260 N 1185.44 -0.462799 -1.50652 0
M  V30 12261 C 1186.66 0.0929761 -2.06691 0
M  V30 12262 C 1187.08 1.34241 -1.32758 0
M  V30 12263 O 1186.44 1.78187 -0.394427 0
M  V30 12264 C 1186.49 0.389492 -3.59396 0
M  V30 12265 O 1186.21 -0.810379 -4.3054 0
M  V30 12266 C 1187.71 0.993147 -4.32032 0
M  V30 12267 H 1184.93 -0.00338664 -0.670991 0
M  V30 12268 H 1187.47 -0.649201 -1.93922 0
M  V30 12269 H 1185.63 1.08159 -3.71995 0
M  V30 12270 H 1186.04 -0.54996 -5.21609 0
M  V30 12271 H 1187.52 1.15044 -5.39878 0
M  V30 12272 H 1187.99 1.98106 -3.91983 0
M  V30 12273 H 1188.6 0.339677 -4.23941 0
M  V30 12274 N 1186.91 1.56388 -0.195085 0
M  V30 12275 C 1188.16 1.9758 0.443686 0
M  V30 12276 C 1188.49 1.08196 1.61629 0
M  V30 12277 O 1187.74 0.121061 1.95325 0
M  V30 12278 C 1188.04 3.44651 0.946051 0
M  V30 12279 C 1187.71 4.50758 -0.11318 0
M  V30 12280 C 1186.37 4.79499 -0.404229 0
M  V30 12281 C 1188.72 5.14534 -0.830899 0
M  V30 12282 C 1186.05 5.69307 -1.41797 0
M  V30 12283 C 1188.4 6.05438 -1.83379 0
M  V30 12284 C 1187.07 6.32535 -2.13204 0
M  V30 12285 H 1186.34 0.722995 0.162356 0
M  V30 12286 H 1188.98 1.8926 -0.292049 0
M  V30 12287 H 1187.29 3.50042 1.76006 0
M  V30 12288 H 1188.99 3.73878 1.44969 0
M  V30 12289 H 1185.58 4.28421 0.123833 0
M  V30 12290 H 1189.76 4.92421 -0.61927 0
M  V30 12291 H 1185.02 5.88575 -1.65496 0
M  V30 12292 H 1189.19 6.53915 -2.39516 0
M  V30 12293 H 1186.82 7.01924 -2.91902 0
M  V30 12294 N 1188.39 -0.0785156 1.57404 0
M  V30 12295 C 1189.62 -0.790893 1.90862 0
M  V30 12296 C 1190.03 -1.7198 0.788644 0
M  V30 12297 O 1189.37 -1.82027 -0.247322 0
M  V30 12298 C 1189.44 -1.64362 3.19727 0
M  V30 12299 C 1189.1 -0.884796 4.48353 0
M  V30 12300 C 1190.1 -0.207074 5.19487 0
M  V30 12301 C 1187.78 -0.853962 4.94988 0
M  V30 12302 C 1189.78 0.491329 6.35504 0
M  V30 12303 C 1187.46 -0.151783 6.10911 0
M  V30 12304 C 1188.46 0.519669 6.8102 0
M  V30 12305 O 1188.15 1.21055 7.94733 0
M  V30 12306 H 1187.88 -0.230427 0.635515 0
M  V30 12307 H 1190.43 -0.0551231 2.05326 0
M  V30 12308 H 1188.66 -2.42203 3.01454 0
M  V30 12309 H 1190.35 -2.23406 3.38887 0
M  V30 12310 H 1191.12 -0.222247 4.84491 0
M  V30 12311 H 1187 -1.36605 4.40296 0
M  V30 12312 H 1190.54 1.01598 6.90162 0
M  V30 12313 H 1186.44 -0.134514 6.4536 0
M  V30 12314 H 1187.21 1.11914 8.10813 0
M  V30 12315 N 1189.87 -1.5367 -0.349747 0
M  V30 12316 C 1191.12 -1.70281 -1.08853 0
M  V30 12317 C 1191.44 -0.465438 -1.89364 0
M  V30 12318 O 1190.71 0.520615 -1.88856 0
M  V30 12319 H 1189.29 -0.627775 -0.404854 0
M  V30 12320 H 1191.95 -1.90906 -0.392523 0
M  V30 12321 H 1191.05 -2.57096 -1.76941 0
M  V30 12322 N 1191.35 0.610423 -1.45298 0
M  V30 12323 C 1192.28 1.73207 -1.56594 0
M  V30 12324 C 1193.26 1.64893 -0.417651 0
M  V30 12325 O 1194.44 1.83336 -0.64043 0
M  V30 12326 C 1191.57 3.11803 -1.52959 0
M  V30 12327 C 1190.53 3.34925 -2.66475 0
M  V30 12328 C 1189.85 4.73764 -2.47894 0
M  V30 12329 C 1191.15 3.25456 -4.08504 0
M  V30 12330 H 1192.85 1.6401 -2.50482 0
M  V30 12331 H 1190.39 0.787621 -1.20551 0
M  V30 12332 H 1192.35 3.90065 -1.59458 0
M  V30 12333 H 1191.07 3.21833 -0.55599 0
M  V30 12334 H 1189.73 2.59051 -2.59399 0
M  V30 12335 H 1189.38 4.80524 -1.4868 0
M  V30 12336 H 1189.08 4.90191 -3.24016 0
M  V30 12337 H 1190.6 5.54231 -2.56243 0
M  V30 12338 H 1192.02 3.93597 -4.16839 0
M  V30 12339 H 1190.41 3.53414 -4.84994 0
M  V30 12340 H 1191.48 2.22939 -4.30612 0
M  V30 12341 N 1192.83 1.32541 0.852676 0
M  V30 12342 C 1194.07 1.23397 1.60938 0
M  V30 12343 C 1194.41 -0.203294 1.93133 0
M  V30 12344 O 1193.68 -1.14097 1.57519 0
M  V30 12345 C 1193.96 2.0956 2.92842 0
M  V30 12346 C 1193.82 3.61675 2.67416 0
M  V30 12347 C 1195.14 1.95825 3.94133 0
M  V30 12348 H 1192.25 0.449608 0.583971 0
M  V30 12349 H 1194.9 1.62507 0.98446 0
M  V30 12350 H 1193.05 1.76336 3.46176 0
M  V30 12351 H 1194.72 4.05122 2.20621 0
M  V30 12352 H 1192.96 3.84242 2.01347 0
M  V30 12353 H 1193.63 4.17292 3.61347 0
M  V30 12354 H 1196.11 2.24935 3.50062 0
M  V30 12355 H 1194.98 2.58387 4.8428 0
M  V30 12356 H 1195.25 0.926466 4.32284 0
M  V30 12357 N 1194.3 -1.0692 1.15784 0
M  V30 12358 C 1195.53 -1.83849 0.959903 0
M  V30 12359 C 1195.95 -1.8169 -0.486873 0
M  V30 12360 O 1195.31 -1.21305 -1.34739 0
M  V30 12361 C 1195.36 -3.28642 1.48414 0
M  V30 12362 O 1194.46 -4.0665 0.686249 0
M  V30 12363 H 1193.81 -0.569115 0.342059 0
M  V30 12364 H 1196.34 -1.34851 1.53871 0
M  V30 12365 H 1196.35 -3.7947 1.49888 0
M  V30 12366 H 1195.02 -3.29529 2.53739 0
M  V30 12367 H 1193.6 -3.65453 0.741501 0
M  V30 12368 N 1195.78 -0.955326 -1.25345 0
M  V30 12369 C 1197.03 -0.606149 -1.92377 0
M  V30 12370 C 1197.34 0.860927 -1.75634 0
M  V30 12371 O 1198.55 1.3201 -2.37246 0
M  V30 12372 C 1197.01 -1.03341 -3.44744 0
M  V30 12373 C 1196.61 -2.52308 -3.70196 0
M  V30 12374 C 1198.36 -0.756797 -4.17699 0
M  V30 12375 C 1196.27 -2.88831 -5.16072 0
M  V30 12376 H 1195.2 -0.222994 -0.720271 0
M  V30 12377 H 1197.85 -1.15987 -1.42194 0
M  V30 12378 H 1196.23 -0.408096 -3.93892 0
M  V30 12379 H 1197.4 -3.19864 -3.31698 0
M  V30 12380 H 1195.72 -2.77448 -3.10502 0
M  V30 12381 H 1198.31 -1.00583 -5.25154 0
M  V30 12382 H 1198.66 0.306794 -4.15168 0
M  V30 12383 H 1199.19 -1.34249 -3.74462 0
M  V30 12384 H 1195.93 -3.9421 -5.23716 0
M  V30 12385 H 1195.45 -2.25948 -5.55614 0
M  V30 12386 H 1197.13 -2.78061 -5.84201 0
M  V30 12387 N 1197.26 1.39987 -0.723979 0
M  V30 12388 C 1198.21 2.32507 -0.0658033 0
M  V30 12389 C 1199.2 1.52484 0.737908 0
M  V30 12390 O 1200.41 1.68225 0.640332 0
M  V30 12391 H 1196.78 0.751996 -0.00247717 0
M  V30 12392 H 1198.76 2.85657 -0.862696 0
M  V30 12393 C 1197.5 3.37509 0.835628 0
M  V30 12394 H 1196.83 3.99157 0.226589 0
M  V30 12395 H 1198.27 4.04722 1.26396 0
M  V30 12396 C 1196.73 2.73665 1.96492 0
M  V30 12397 O 1197.26 2.60649 3.05655 0
M  V30 12398 N 1195.46 2.3192 1.75104 0
M  V30 12399 H 1195.01 2.42707 0.863204 0
M  V30 12400 H 1194.97 1.89542 2.50841 0
M  V30 12401 N 1198.74 0.470782 1.50404 0
M  V30 12402 C 1200.02 -0.145879 1.95055 0
M  V30 12403 C 1200.4 -1.57004 1.41114 0
M  V30 12404 O 1199.74 -2.20152 0.612006 0
M  V30 12405 C 1199.95 -0.0895071 3.48885 0
M  V30 12406 C 1201.3 -0.278548 4.23685 0
M  V30 12407 O 1202.33 -0.166105 3.55812 0
M  V30 12408 O 1201.19 -0.505606 5.44156 0
M  V30 12409 H 1198.28 -0.111838 0.819403 0
M  V30 12410 H 1200.83 0.531162 1.61173 0
M  V30 12411 H 1199.6 0.904836 3.80695 0
M  V30 12412 H 1199.22 -0.808019 3.89303 0
M  V30 12413 N 1200.22 -1.56282 0.203376 0
M  V30 12414 C 1201.46 -1.97812 -0.433202 0
M  V30 12415 C 1201.79 -1.09052 -1.61053 0
M  V30 12416 O 1201.05 -0.131417 -1.95258 0
M  V30 12417 C 1201.35 -3.45148 -0.927759 0
M  V30 12418 C 1201.01 -4.50692 0.137083 0
M  V30 12419 C 1199.67 -4.79278 0.429652 0
M  V30 12420 C 1202.03 -5.14086 0.858174 0
M  V30 12421 C 1199.35 -5.68547 1.44815 0
M  V30 12422 C 1201.71 -6.04457 1.86588 0
M  V30 12423 C 1200.37 -6.31395 2.16556 0
M  V30 12424 H 1199.64 -0.723846 -0.15852 0
M  V30 12425 H 1202.29 -1.89102 0.302082 0
M  V30 12426 H 1200.59 -3.5097 -1.74147 0
M  V30 12427 H 1202.29 -3.74642 -1.42984 0
M  V30 12428 H 1198.88 -4.28481 -0.101111 0
M  V30 12429 H 1203.06 -4.92086 0.645376 0
M  V30 12430 H 1198.32 -5.87689 1.68615 0
M  V30 12431 H 1202.49 -6.52636 2.4298 0
M  V30 12432 H 1200.12 -7.00366 2.9562 0
M  V30 12433 N 1201.7 0.070167 -1.57444 0
M  V30 12434 C 1202.94 0.767495 -1.8696 0
M  V30 12435 C 1203.26 1.78032 -0.795595 0
M  V30 12436 O 1202.53 1.95112 0.175566 0
M  V30 12437 H 1201.11 0.286443 -0.689898 0
M  V30 12438 H 1203.78 0.0458692 -1.94846 0
M  V30 12439 H 1202.87 1.28269 -2.84523 0
M  V30 12440 N 1203.17 1.53854 0.341593 0
M  V30 12441 C 1204.42 1.71447 1.08322 0
M  V30 12442 C 1204.75 0.477289 1.88243 0
M  V30 12443 O 1204.03 -0.525695 1.87261 0
M  V30 12444 C 1204.31 2.97917 2.02281 0
M  V30 12445 C 1204.16 4.31847 1.25809 0
M  V30 12446 C 1205.48 3.20065 3.0207 0
M  V30 12447 H 1202.6 0.623847 0.392408 0
M  V30 12448 H 1205.24 1.86527 0.361594 0
M  V30 12449 H 1203.39 2.85191 2.63815 0
M  V30 12450 H 1205.07 4.56427 0.668737 0
M  V30 12451 H 1203.31 4.30169 0.560119 0
M  V30 12452 H 1203.98 5.16522 1.94704 0
M  V30 12453 H 1206.46 3.32135 2.50651 0
M  V30 12454 H 1205.33 4.09947 3.65013 0
M  V30 12455 H 1205.59 2.36452 3.73554 0
M  V30 12456 N 1204.65 -0.602709 1.4562 0
M  V30 12457 C 1205.58 -1.72374 1.5751 0
M  V30 12458 C 1206.56 -1.64669 0.426389 0
M  V30 12459 O 1207.75 -1.82994 0.650143 0
M  V30 12460 C 1204.88 -3.10987 1.5461 0
M  V30 12461 C 1203.83 -3.33507 2.68248 0
M  V30 12462 C 1203.16 -4.72443 2.50403 0
M  V30 12463 C 1204.46 -3.23285 4.10224 0
M  V30 12464 H 1206.15 -1.62679 2.51348 0
M  V30 12465 H 1203.7 -0.781217 1.20967 0
M  V30 12466 H 1205.65 -3.89214 1.61525 0
M  V30 12467 H 1204.37 -3.21533 0.573049 0
M  V30 12468 H 1203.03 -2.57672 2.60769 0
M  V30 12469 H 1202.68 -4.79729 1.51226 0
M  V30 12470 H 1202.38 -4.88466 3.26611 0
M  V30 12471 H 1203.91 -5.52864 2.59179 0
M  V30 12472 H 1205.32 -3.91381 4.1892 0
M  V30 12473 H 1203.72 -3.50837 4.86861 0
M  V30 12474 H 1204.79 -2.20652 4.31788 0
M  V30 12475 N 1206.13 -1.32992 -0.845635 0
M  V30 12476 C 1207.09 -1.22607 -1.9365 0
M  V30 12477 C 1208.09 -0.146812 -1.60128 0
M  V30 12478 O 1209.28 -0.397863 -1.69596 0
M  V30 12479 C 1206.41 -0.887677 -3.2914 0
M  V30 12480 H 1207.61 -2.19563 -2.04285 0
M  V30 12481 H 1205.16 -1.16952 -1.03691 0
M  V30 12482 H 1205.9 0.0796777 -3.24202 0
M  V30 12483 H 1205.68 -1.66808 -3.54849 0
M  V30 12484 H 1207.17 -0.83958 -4.09073 0
M  V30 12485 N 1207.61 1.06304 -1.1635 0
M  V30 12486 C 1208.85 1.79366 -0.94634 0
M  V30 12487 C 1209.19 1.86981 0.524569 0
M  V30 12488 O 1208.46 1.36134 1.38917 0
M  V30 12489 C 1208.74 3.23861 -1.57436 0
M  V30 12490 C 1208.6 3.24327 -3.1166 0
M  V30 12491 C 1209.92 4.21409 -1.26895 0
M  V30 12492 H 1207.04 0.65115 -0.345215 0
M  V30 12493 H 1209.68 1.24325 -1.43678 0
M  V30 12494 H 1207.83 3.70862 -1.15731 0
M  V30 12495 H 1209.5 2.85488 -3.62346 0
M  V30 12496 H 1207.74 2.62983 -3.44997 0
M  V30 12497 H 1208.41 4.2626 -3.50723 0
M  V30 12498 H 1210.89 3.8285 -1.62989 0
M  V30 12499 H 1209.77 5.20778 -1.73439 0
M  V30 12500 H 1210.03 4.41701 -0.187768 0
M  V30 12501 N 1209.09 0.96196 1.24836 0
M  V30 12502 C 1210.5 0.667561 1.44968 0
M  V30 12503 C 1210.7 -0.772521 1.86103 0
M  V30 12504 O 1209.76 -1.54704 1.99557 0
M  V30 12505 C 1211.07 1.64675 2.516 0
M  V30 12506 C 1212.62 1.65874 2.65433 0
M  V30 12507 C 1213.09 2.62576 3.75257 0
M  V30 12508 N 1214.58 2.60984 3.82677 0
M  V30 12509 C 1215.32 3.32484 4.67163 0
M  V30 12510 N 1214.82 4.13482 5.55882 0
M  V30 12511 N 1216.61 3.21336 4.61193 0
M  V30 12512 H 1208.76 1.89248 0.964307 0
M  V30 12513 H 1211.02 0.814443 0.485167 0
M  V30 12514 H 1210.73 2.67572 2.2825 0
M  V30 12515 H 1210.6 1.415 3.49653 0
M  V30 12516 H 1212.99 0.636912 2.88145 0
M  V30 12517 H 1213.07 1.9311 1.67756 0
M  V30 12518 H 1212.71 3.6489 3.53295 0
M  V30 12519 H 1212.64 2.32622 4.72435 0
M  V30 12520 H 1215.14 2.02187 3.19263 0
M  V30 12521 H 1215.45 4.6494 6.17293 0
M  V30 12522 H 1213.79 4.17578 5.55566 0
M  V30 12523 H 1216.98 2.57524 3.90895 0
M  V30 12524 H 1217.16 3.77323 5.26812 0
M  V30 12525 N 1210.56 -1.39601 0.731392 0
M  V30 12526 C 1211.53 -2.28992 0.0976037 0
M  V30 12527 C 1212.53 -1.46135 -0.670917 0
M  V30 12528 O 1213.72 -1.66856 -0.50047 0
M  V30 12529 C 1210.85 -3.29582 -0.871124 0
M  V30 12530 H 1212.04 -2.86541 0.885112 0
M  V30 12531 H 1209.59 -1.48188 0.497002 0
M  V30 12532 H 1210.33 -2.77082 -1.68512 0
M  V30 12533 H 1210.11 -3.9077 -0.322735 0
M  V30 12534 H 1211.6 -3.96479 -1.31126 0
M  V30 12535 N 1212.04 -0.478751 -1.50152 0
M  V30 12536 C 1213.29 0.073694 -2.02666 0
M  V30 12537 C 1213.62 1.38679 -1.35947 0
M  V30 12538 O 1212.9 1.88286 -0.4877 0
M  V30 12539 C 1213.18 0.249516 -3.59235 0
M  V30 12540 C 1213.03 -1.08514 -4.36514 0
M  V30 12541 C 1214.35 1.00053 -4.28576 0
M  V30 12542 H 1211.47 0.0253082 -0.736565 0
M  V30 12543 H 1214.11 -0.625834 -1.79397 0
M  V30 12544 H 1212.26 0.845343 -3.79192 0
M  V30 12545 H 1213.93 -1.71814 -4.28109 0
M  V30 12546 H 1212.18 -1.67992 -3.99952 0
M  V30 12547 H 1212.85 -0.915676 -5.44352 0
M  V30 12548 H 1215.32 0.495422 -4.1314 0
M  V30 12549 H 1214.2 1.09236 -5.37921 0
M  V30 12550 H 1214.46 2.03896 -3.92274 0
M  V30 12551 N 1213.52 1.56172 -0.211661 0
M  V30 12552 C 1214.47 2.21206 0.719063 0
M  V30 12553 C 1215.46 1.18835 1.20725 0
M  V30 12554 O 1216.67 1.36939 1.16823 0
M  V30 12555 H 1213.04 0.709129 0.250279 0
M  V30 12556 H 1215.01 2.98038 0.147022 0
M  V30 12557 C 1213.76 2.89826 1.92084 0
M  V30 12558 H 1213.09 3.68351 1.55428 0
M  V30 12559 H 1214.53 3.38744 2.55006 0
M  V30 12560 C 1212.99 1.91756 2.77004 0
M  V30 12561 O 1213.52 1.42826 3.75451 0
M  V30 12562 N 1211.72 1.59622 2.42836 0
M  V30 12563 H 1211.27 1.99606 1.62835 0
M  V30 12564 H 1211.23 0.942641 2.99936 0
M  V30 12565 N 1215 -0.0618163 1.57479 0
M  V30 12566 C 1216.41 -0.416827 1.54061 0
M  V30 12567 C 1216.61 -1.78584 0.933277 0
M  V30 12568 O 1215.67 -2.46656 0.54009 0
M  V30 12569 C 1216.98 -0.348728 2.98671 0
M  V30 12570 C 1218.53 -0.428194 3.10057 0
M  V30 12571 C 1219.01 -0.389898 4.56337 0
M  V30 12572 N 1220.5 -0.449677 4.61012 0
M  V30 12573 C 1221.23 -0.442418 5.71691 0
M  V30 12574 N 1220.73 -0.389381 6.91705 0
M  V30 12575 N 1222.52 -0.489719 5.59963 0
M  V30 12576 H 1214.67 0.834487 1.9532 0
M  V30 12577 H 1216.94 0.314149 0.894435 0
M  V30 12578 H 1216.64 0.590738 3.46703 0
M  V30 12579 H 1216.52 -1.15511 3.59078 0
M  V30 12580 H 1218.9 -1.35808 2.61992 0
M  V30 12581 H 1218.98 0.406946 2.52542 0
M  V30 12582 H 1218.63 0.536186 5.05062 0
M  V30 12583 H 1218.56 -1.24271 5.11727 0
M  V30 12584 H 1221.05 -0.49451 3.74651 0
M  V30 12585 H 1221.36 -0.388042 7.71825 0
M  V30 12586 H 1219.71 -0.355918 6.94088 0
M  V30 12587 H 1222.9 -0.528915 4.65102 0
M  V30 12588 H 1223.07 -0.480592 6.46215 0
M  V30 12589 N 1216.48 -1.54033 -0.333429 0
M  V30 12590 C 1217.7 -1.76031 -1.09672 0
M  V30 12591 C 1218.13 -0.502844 -1.81254 0
M  V30 12592 O 1217.48 0.54509 -1.72912 0
M  V30 12593 C 1217.53 -2.947 -2.07809 0
M  V30 12594 O 1216.64 -2.65555 -3.15522 0
M  V30 12595 H 1215.98 -0.583611 -0.316692 0
M  V30 12596 H 1218.51 -2.01026 -0.380732 0
M  V30 12597 H 1218.52 -3.21771 -2.50853 0
M  V30 12598 H 1217.19 -3.85895 -1.55106 0
M  V30 12599 H 1215.77 -2.49403 -2.77223 0
M  V30 12600 N 1217.95 0.594978 -1.45938 0
M  V30 12601 C 1218.9 1.726 -1.55923 0
M  V30 12602 C 1219.9 1.63893 -0.428411 0
M  V30 12603 O 1221.1 1.69535 -0.604815 0
M  V30 12604 H 1217.48 0.570447 -0.489994 0
M  V30 12605 H 1219.45 1.61308 -2.51043 0
M  V30 12606 C 1218.2 3.10988 -1.55505 0
M  V30 12607 H 1217.52 3.18353 -2.4185 0
M  V30 12608 H 1218.96 3.8992 -1.66548 0
M  V30 12609 C 1217.42 3.35721 -0.281573 0
M  V30 12610 O 1217.95 3.96676 0.633336 0
M  V30 12611 N 1216.16 2.90083 -0.173314 0
M  V30 12612 H 1215.7 2.4066 -0.91872 0
M  V30 12613 H 1215.66 3.07005 0.677903 0
M  V30 12614 N 1219.43 1.33438 0.838571 0
M  V30 12615 C 1220.84 1.22366 1.41009 0
M  V30 12616 C 1221.19 -0.157317 1.95568 0
M  V30 12617 O 1220.32 -1.05692 1.88834 0
M  V30 12618 C 1220.91 2.21542 2.56329 0
M  V30 12619 C 1219.47 2.14309 3.09433 0
M  V30 12620 C 1218.62 2.09012 1.82235 0
M  V30 12621 H 1221.57 1.45032 0.64431 0
M  V30 12622 H 1221.59 1.82332 3.33969 0
M  V30 12623 H 1221.1 3.22042 2.16589 0
M  V30 12624 H 1219.21 1.17113 3.53717 0
M  V30 12625 H 1219.32 3.04866 3.69586 0
M  V30 12626 H 1217.68 1.54492 2.02495 0
M  V30 12627 H 1218.47 3.11319 1.4469 0
M  V30 12628 N 1220.91 -1.05686 1.16912 0
M  V30 12629 C 1221.86 -2.11584 0.849483 0
M  V30 12630 C 1222.84 -1.59959 -0.173774 0
M  V30 12631 O 1224.04 -1.76978 0.0279436 0
M  V30 12632 C 1221.17 -3.41417 0.359079 0
M  V30 12633 C 1220.25 -3.99852 1.41347 0
M  V30 12634 N 1220.64 -4.32317 2.62557 0
M  V30 12635 C 1218.94 -4.27531 1.27017 0
M  V30 12636 C 1219.64 -4.7885 3.30269 0
M  V30 12637 N 1218.62 -4.78664 2.57647 0
M  V30 12638 H 1222.42 -2.34539 1.77112 0
M  V30 12639 H 1219.93 -1.23286 1.05708 0
M  V30 12640 H 1221.93 -4.1675 0.111666 0
M  V30 12641 H 1220.59 -3.19897 -0.556413 0
M  V30 12642 H 1221.6 -4.22472 2.99563 0
M  V30 12643 H 1218.28 -4.15423 0.415924 0
M  V30 12644 H 1219.67 -5.13123 4.33768 0
M  V30 12645 N 1222.39 -0.968567 -1.24324 0
M  V30 12646 C 1223.62 -0.648568 -1.96472 0
M  V30 12647 C 1224.03 0.782168 -1.71836 0
M  V30 12648 O 1223.39 1.5249 -1.00265 0
M  V30 12649 C 1223.44 -0.91482 -3.49733 0
M  V30 12650 O 1223.16 -2.28931 -3.73527 0
M  V30 12651 C 1224.66 -0.609131 -4.39095 0
M  V30 12652 H 1221.88 -0.241921 -0.625872 0
M  V30 12653 H 1224.43 -1.29673 -1.5813 0
M  V30 12654 H 1222.58 -0.31285 -3.86135 0
M  V30 12655 H 1222.99 -2.36998 -4.67902 0
M  V30 12656 H 1224.47 -0.845875 -5.4548 0
M  V30 12657 H 1224.95 0.456625 -4.3682 0
M  V30 12658 H 1225.55 -1.19105 -4.08282 0
M  V30 12659 N 1223.87 1.39211 -0.738786 0
M  V30 12660 C 1225.12 1.99673 -0.285254 0
M  V30 12661 C 1225.43 1.59297 1.13507 0
M  V30 12662 O 1226.63 2.12622 1.68832 0
M  V30 12663 C 1225.09 3.5696 -0.45906 0
M  V30 12664 C 1224.7 4.06297 -1.88751 0
M  V30 12665 C 1226.44 4.24446 -0.0674954 0
M  V30 12666 C 1224.35 5.56171 -2.01067 0
M  V30 12667 H 1223.28 0.746945 -0.102901 0
M  V30 12668 H 1225.93 1.59163 -0.913209 0
M  V30 12669 H 1224.31 3.95285 0.23785 0
M  V30 12670 H 1225.49 3.79297 -2.61669 0
M  V30 12671 H 1223.8 3.51486 -2.23264 0
M  V30 12672 H 1226.4 5.34521 -0.138475 0
M  V30 12673 H 1226.74 4.04653 0.977823 0
M  V30 12674 H 1227.27 3.91309 -0.715704 0
M  V30 12675 H 1224.01 5.80849 -3.03801 0
M  V30 12676 H 1223.53 5.84961 -1.32591 0
M  V30 12677 H 1225.21 6.21642 -1.79362 0
M  V30 12678 N 1225.34 0.486708 1.49896 0
M  V30 12679 C 1226.29 -0.318255 2.25768 0
M  V30 12680 C 1227.28 -0.94799 1.30008 0
M  V30 12681 O 1228.47 -0.857954 1.54816 0
M  V30 12682 C 1225.6 -1.39057 3.13876 0
M  V30 12683 C 1224.69 -0.767787 4.17092 0
M  V30 12684 N 1225.08 0.121163 5.05655 0
M  V30 12685 C 1223.37 -1.02999 4.33944 0
M  V30 12686 C 1224.08 0.47621 5.79747 0
M  V30 12687 N 1223.05 -0.152422 5.43386 0
M  V30 12688 H 1226.85 0.366294 2.91608 0
M  V30 12689 H 1224.37 0.301852 1.5957 0
M  V30 12690 H 1226.36 -1.98056 3.6685 0
M  V30 12691 H 1225.02 -2.07694 2.49586 0
M  V30 12692 H 1226.04 0.491043 5.15567 0
M  V30 12693 H 1222.71 -1.71018 3.80866 0
M  V30 12694 H 1224.1 1.20262 6.6105 0
M  V30 12695 N 1226.82 -1.56058 0.219941 0
M  V30 12696 C 1228.05 -2.02652 -0.417101 0
M  V30 12697 C 1228.47 -1.09977 -1.53461 0
M  V30 12698 O 1227.82 -0.109088 -1.82174 0
M  V30 12699 C 1227.87 -3.48787 -0.950244 0
M  V30 12700 O 1227.6 -4.37928 0.12271 0
M  V30 12701 C 1229.1 -4.11018 -1.66069 0
M  V30 12702 H 1226.32 -0.663163 -0.102254 0
M  V30 12703 H 1228.86 -2.01722 0.335923 0
M  V30 12704 H 1227.02 -3.50338 -1.65355 0
M  V30 12705 H 1227.43 -5.23764 -0.277785 0
M  V30 12706 H 1228.9 -5.15046 -1.98575 0
M  V30 12707 H 1229.38 -3.55921 -2.57326 0
M  V30 12708 H 1229.99 -4.13313 -1.00263 0
M  V30 12709 N 1228.3 0.053464 -1.57509 0
M  V30 12710 C 1229.53 0.765301 -1.92764 0
M  V30 12711 C 1229.95 1.69385 -0.817943 0
M  V30 12712 O 1229.31 1.7986 0.228075 0
M  V30 12713 C 1229.36 1.51938 -3.27028 0
M  V30 12714 O 1228.46 2.63121 -3.17555 0
M  V30 12715 H 1227.8 0.207567 -0.630723 0
M  V30 12716 H 1230.33 0.0162254 -2.04594 0
M  V30 12717 H 1230.34 1.89466 -3.6134 0
M  V30 12718 H 1229.02 0.838207 -4.07366 0
M  V30 12719 H 1227.59 2.28316 -2.94832 0
M  V30 12720 N 1229.78 1.54207 0.325255 0
M  V30 12721 C 1231.03 1.72587 1.06497 0
M  V30 12722 C 1231.36 0.497228 1.87727 0
M  V30 12723 O 1230.63 -0.505804 1.87808 0
M  V30 12724 C 1230.92 3.00046 1.99109 0
M  V30 12725 C 1230.77 4.33158 1.21221 0
M  V30 12726 C 1232.09 3.23251 2.98658 0
M  V30 12727 H 1229.21 0.627974 0.38577 0
M  V30 12728 H 1231.85 1.869 0.34179 0
M  V30 12729 H 1230 2.87973 2.60775 0
M  V30 12730 H 1231.67 4.57111 0.620289 0
M  V30 12731 H 1229.91 4.30739 0.514462 0
M  V30 12732 H 1230.59 5.18558 1.89214 0
M  V30 12733 H 1233.06 3.34774 2.47114 0
M  V30 12734 H 1231.94 4.13796 3.60645 0
M  V30 12735 H 1232.2 2.40401 3.71026 0
M  V30 12736 N 1231.26 -0.58723 1.46251 0
M  V30 12737 C 1232.67 -0.910129 1.31106 0
M  V30 12738 C 1232.87 -1.99557 0.279141 0
M  V30 12739 O 1231.93 -2.50466 -0.319867 0
M  V30 12740 C 1233.24 -1.33177 2.69601 0
M  V30 12741 C 1234.79 -1.44486 2.77656 0
M  V30 12742 C 1235.27 -1.90018 4.16722 0
M  V30 12743 N 1236.76 -1.97219 4.19117 0
M  V30 12744 C 1237.49 -2.33714 5.23608 0
M  V30 12745 N 1236.99 -2.69034 6.3843 0
M  V30 12746 N 1238.78 -2.3423 5.10972 0
M  V30 12747 H 1230.93 0.12987 2.12003 0
M  V30 12748 H 1233.19 -0.00456718 0.947989 0
M  V30 12749 H 1232.9 -0.608243 3.464 0
M  V30 12750 H 1232.77 -2.29421 2.99409 0
M  V30 12751 H 1235.16 -2.15926 2.01147 0
M  V30 12752 H 1235.24 -0.465047 2.51537 0
M  V30 12753 H 1234.89 -1.19159 4.93724 0
M  V30 12754 H 1234.82 -2.88949 4.40245 0
M  V30 12755 H 1237.31 -1.72431 3.36268 0
M  V30 12756 H 1237.62 -2.95822 7.13939 0
M  V30 12757 H 1235.97 -2.66683 6.41798 0
M  V30 12758 H 1239.16 -2.06056 4.20308 0
M  V30 12759 H 1239.33 -2.62345 5.92519 0
M  V30 12760 N 1232.74 -1.33881 -0.831482 0
M  V30 12761 C 1233.98 -1.25942 -1.58955 0
M  V30 12762 C 1234.31 0.172542 -1.93432 0
M  V30 12763 O 1233.59 1.11577 -1.59314 0
M  V30 12764 C 1233.87 -2.14193 -2.89471 0
M  V30 12765 C 1233.73 -3.65883 -2.61628 0
M  V30 12766 C 1235.04 -2.02071 -3.90967 0
M  V30 12767 H 1232.16 -0.458841 -0.576744 0
M  V30 12768 H 1234.81 -1.64052 -0.958482 0
M  V30 12769 H 1232.96 -1.81821 -3.43327 0
M  V30 12770 H 1234.63 -4.08581 -2.14148 0
M  V30 12771 H 1232.87 -3.87397 -1.95208 0
M  V30 12772 H 1233.54 -4.22988 -3.54662 0
M  V30 12773 H 1236.02 -2.30476 -3.46439 0
M  V30 12774 H 1234.89 -2.66059 -4.80108 0
M  V30 12775 H 1235.15 -0.995121 -4.30755 0
M  V30 12776 N 1234.21 1.05064 -1.1747 0
M  V30 12777 C 1235.44 1.81497 -0.987031 0
M  V30 12778 C 1235.85 1.83323 0.467921 0
M  V30 12779 O 1235.19 1.26006 1.33672 0
M  V30 12780 C 1235.26 3.28826 -1.45306 0
M  V30 12781 C 1234.92 3.50681 -2.93039 0
M  V30 12782 C 1235.92 3.42699 -3.90965 0
M  V30 12783 C 1233.6 3.77602 -3.31243 0
M  V30 12784 C 1235.6 3.61325 -5.25093 0
M  V30 12785 C 1233.28 3.95876 -4.65538 0
M  V30 12786 C 1234.28 3.87737 -5.62271 0
M  V30 12787 O 1233.97 4.055 -6.94136 0
M  V30 12788 H 1233.7 0.578734 -0.349347 0
M  V30 12789 H 1236.26 1.33373 -1.56208 0
M  V30 12790 H 1234.49 3.77872 -0.821581 0
M  V30 12791 H 1236.17 3.86788 -1.23085 0
M  V30 12792 H 1236.94 3.21877 -3.62795 0
M  V30 12793 H 1232.82 3.8304 -2.56517 0
M  V30 12794 H 1236.36 3.54888 -6.00583 0
M  V30 12795 H 1232.26 4.16191 -4.93412 0
M  V30 12796 H 1233.03 4.22718 -7.00894 0
M  V30 12797 N 1235.69 0.975146 1.23809 0
M  V30 12798 C 1236.62 0.45593 2.23599 0
M  V30 12799 C 1237.6 -0.474069 1.55536 0
M  V30 12800 O 1238.79 -0.40373 1.84126 0
M  V30 12801 C 1235.91 -0.341008 3.36979 0
M  V30 12802 C 1234.96 0.532362 4.23164 0
M  V30 12803 S 1235.79 1.97706 4.97667 0
M  V30 12804 C 1236.95 1.18912 6.145 0
M  V30 12805 H 1237.18 1.30157 2.67295 0
M  V30 12806 H 1234.71 0.78074 1.33206 0
M  V30 12807 H 1236.67 -0.794817 4.02732 0
M  V30 12808 H 1235.33 -1.16171 2.91827 0
M  V30 12809 H 1234.53 -0.0798928 5.03937 0
M  V30 12810 H 1234.13 0.922202 3.62452 0
M  V30 12811 H 1236.42 0.447823 6.76018 0
M  V30 12812 H 1237.36 1.97148 6.80102 0
M  V30 12813 H 1237.77 0.710216 5.60014 0
M  V30 12814 N 1237.17 -1.38817 0.746158 0
M  V30 12815 C 1238.12 -2.30521 0.113517 0
M  V30 12816 C 1239.09 -1.49795 -0.717682 0
M  V30 12817 O 1240.27 -1.78448 -0.675345 0
M  V30 12818 C 1237.41 -3.36185 -0.779343 0
M  V30 12819 C 1236.52 -4.3195 0.0656784 0
M  V30 12820 C 1235.66 -5.24684 -0.829492 0
M  V30 12821 C 1234.7 -6.12097 0.0196112 0
M  V30 12822 N 1233.84 -6.97152 -0.832107 0
M  V30 12823 H 1238.68 -2.84048 0.901136 0
M  V30 12824 H 1236.21 -1.39853 0.456025 0
M  V30 12825 H 1238.17 -3.96048 -1.31156 0
M  V30 12826 H 1236.8 -2.84085 -1.53282 0
M  V30 12827 H 1235.85 -3.73611 0.715445 0
M  V30 12828 H 1237.16 -4.93551 0.721735 0
M  V30 12829 H 1236.32 -5.89627 -1.42915 0
M  V30 12830 H 1235.06 -4.63431 -1.5193 0
M  V30 12831 H 1234.06 -5.46156 0.631991 0
M  V30 12832 H 1235.29 -6.75416 0.706369 0
M  V30 12833 H 1233.23 -6.38456 -1.507 0
M  V30 12834 H 1233.15 -7.55642 -0.232782 0
M  V30 12835 H 1234.42 -7.66513 -1.41697 0
M  V30 12836 N 1238.65 -0.49465 -1.49636 0
M  V30 12837 C 1240.06 -0.0452894 -1.86645 0
M  V30 12838 C 1240.41 1.36686 -1.40753 0
M  V30 12839 O 1239.53 2.01751 -0.78265 0
M  V30 12840 C 1240.13 -0.0754115 -3.38716 0
M  V30 12841 C 1238.69 0.318579 -3.75049 0
M  V30 12842 C 1237.84 -0.450712 -2.73613 0
M  V30 12843 H 1240.79 -0.707758 -1.42044 0
M  V30 12844 H 1240.81 0.721372 -3.73599 0
M  V30 12845 H 1240.32 -1.10331 -3.72087 0
M  V30 12846 H 1238.42 1.34995 -3.47285 0
M  V30 12847 H 1238.53 0.00354416 -4.791 0
M  V30 12848 H 1236.9 0.0986455 -2.54509 0
M  V30 12849 H 1237.68 -1.47857 -3.09828 0
M  V30 12850 N 1240.13 1.55939 -0.228214 0
M  V30 12851 C 1241.07 2.20581 0.679157 0
M  V30 12852 C 1242.04 1.16355 1.18536 0
M  V30 12853 O 1243.23 1.44735 1.24324 0
M  V30 12854 C 1240.37 2.89477 1.87875 0
M  V30 12855 C 1239.48 4.08313 1.41083 0
M  V30 12856 C 1238.62 4.64974 2.56851 0
M  V30 12857 C 1237.65 5.76098 2.06828 0
M  V30 12858 N 1236.79 6.27021 3.15894 0
M  V30 12859 H 1241.63 2.97753 0.121203 0
M  V30 12860 H 1239.17 1.47021 0.0480688 0
M  V30 12861 H 1241.13 3.2761 2.58317 0
M  V30 12862 H 1239.76 2.14811 2.40948 0
M  V30 12863 H 1238.81 3.75621 0.601102 0
M  V30 12864 H 1240.12 4.8859 1.00408 0
M  V30 12865 H 1239.27 5.05584 3.35365 0
M  V30 12866 H 1238.01 3.83875 3.00818 0
M  V30 12867 H 1237.02 5.34984 1.26778 0
M  V30 12868 H 1238.24 6.59037 1.63852 0
M  V30 12869 H 1236.19 5.48833 3.5933 0
M  V30 12870 H 1236.11 7.02439 2.79491 0
M  V30 12871 H 1237.37 6.72289 3.94523 0
M  V30 12872 N 1241.6 -0.0451101 1.57535 0
M  V30 12873 C 1242.55 -1.05817 2.01958 0
M  V30 12874 C 1243.54 -1.32963 0.906077 0
M  V30 12875 O 1244.73 -1.32816 1.16999 0
M  V30 12876 C 1241.86 -2.36414 2.48924 0
M  V30 12877 C 1240.95 -2.12428 3.67063 0
M  V30 12878 N 1241.34 -1.58448 4.80341 0
M  V30 12879 C 1239.63 -2.42785 3.74128 0
M  V30 12880 C 1240.34 -1.49896 5.62055 0
M  V30 12881 N 1239.31 -1.96892 5.0669 0
M  V30 12882 H 1243.11 -0.634569 2.86968 0
M  V30 12883 H 1240.63 -0.251719 1.60437 0
M  V30 12884 H 1242.62 -3.09781 2.79001 0
M  V30 12885 H 1241.28 -2.79467 1.65313 0
M  V30 12886 H 1242.3 -1.26939 5.02102 0
M  V30 12887 H 1238.97 -2.89022 3.01285 0
M  V30 12888 H 1240.36 -1.08788 6.63035 0
M  V30 12889 N 1243.08 -1.54377 -0.317073 0
M  V30 12890 C 1244.33 -1.72105 -1.0518 0
M  V30 12891 C 1244.64 -0.505166 -1.88964 0
M  V30 12892 O 1245.85 -0.563912 -2.65579 0
M  V30 12893 C 1244.31 -3.04435 -1.91957 0
M  V30 12894 C 1243.91 -4.33449 -1.13253 0
M  V30 12895 C 1245.66 -3.31524 -2.65127 0
M  V30 12896 C 1243.57 -5.56837 -1.99214 0
M  V30 12897 H 1242.5 -0.641392 -0.396399 0
M  V30 12898 H 1245.15 -1.80868 -0.309673 0
M  V30 12899 H 1243.53 -2.89595 -2.70094 0
M  V30 12900 H 1244.7 -4.59074 -0.39842 0
M  V30 12901 H 1243.02 -4.13173 -0.517372 0
M  V30 12902 H 1245.61 -4.20906 -3.29761 0
M  V30 12903 H 1245.96 -2.49688 -3.33109 0
M  V30 12904 H 1246.49 -3.47261 -1.94048 0
M  V30 12905 H 1243.23 -6.41294 -1.35729 0
M  V30 12906 H 1242.75 -5.35421 -2.70341 0
M  V30 12907 H 1244.43 -5.93488 -2.57646 0
M  V30 12908 N 1244.56 0.579466 -1.4656 0
M  V30 12909 C 1245.98 0.903163 -1.31587 0
M  V30 12910 C 1246.18 1.99406 -0.28972 0
M  V30 12911 O 1245.23 2.50632 0.30658 0
M  V30 12912 C 1246.55 1.31745 -2.70303 0
M  V30 12913 C 1248.09 1.43012 -2.78418 0
M  V30 12914 C 1248.57 1.87805 -4.17724 0
M  V30 12915 N 1250.06 1.94993 -4.20157 0
M  V30 12916 C 1250.79 2.30934 -5.2484 0
M  V30 12917 N 1250.29 2.65645 -6.39847 0
M  V30 12918 N 1252.08 2.31517 -5.12207 0
M  V30 12919 H 1244.23 -0.141111 -2.11931 0
M  V30 12920 H 1246.5 -0.000460304 -0.948 0
M  V30 12921 H 1246.2 0.589864 -3.46718 0
M  V30 12922 H 1246.08 2.2783 -3.00622 0
M  V30 12923 H 1248.46 2.14856 -2.02289 0
M  V30 12924 H 1248.55 0.451701 -2.5178 0
M  V30 12925 H 1248.19 1.16539 -4.94349 0
M  V30 12926 H 1248.12 2.86611 -4.41771 0
M  V30 12927 H 1250.61 1.70645 -3.37178 0
M  V30 12928 H 1250.92 2.92032 -7.15498 0
M  V30 12929 H 1249.27 2.63276 -6.43204 0
M  V30 12930 H 1252.46 2.03824 -4.21394 0
M  V30 12931 H 1252.63 2.59199 -5.93902 0
M  V30 12932 N 1246.04 1.3432 0.824371 0
M  V30 12933 C 1247.28 1.27942 1.59405 0
M  V30 12934 C 1247.64 -0.148961 1.91421 0
M  V30 12935 O 1248.84 -0.336891 2.6668 0
M  V30 12936 C 1247.11 2.14393 2.85955 0
M  V30 12937 S 1248.67 2.25354 3.76512 0
M  V30 12938 H 1245.49 0.454953 0.546387 0
M  V30 12939 H 1248.09 1.69517 0.973873 0
M  V30 12940 H 1246.8 3.17182 2.60429 0
M  V30 12941 H 1246.33 1.7371 3.52971 0
M  V30 12942 H 1248.34 1.42526 4.7529 0
M  V30 12943 N 1247.52 -1.0444 1.18026 0
M  V30 12944 C 1248.76 -1.77972 0.984767 0
M  V30 12945 C 1249.12 -1.86294 -0.480861 0
M  V30 12946 O 1248.41 -1.35724 -1.35239 0
M  V30 12947 C 1248.6 -3.21134 1.56869 0
M  V30 12948 C 1248.43 -3.26765 3.08958 0
M  V30 12949 C 1247.2 -3.35612 3.77747 0
M  V30 12950 C 1249.4 -3.15083 4.06482 0
M  V30 12951 N 1247.38 -3.30454 5.17372 0
M  V30 12952 C 1248.75 -3.17382 5.32606 0
M  V30 12953 C 1250.81 -2.99099 3.98051 0
M  V30 12954 C 1249.51 -3.05338 6.51277 0
M  V30 12955 C 1251.54 -2.88399 5.16314 0
M  V30 12956 C 1250.9 -2.91338 6.41328 0
M  V30 12957 H 1247 -0.66322 0.414323 0
M  V30 12958 H 1249.58 -1.24444 1.49739 0
M  V30 12959 H 1247.75 -3.73016 1.0823 0
M  V30 12960 H 1249.49 -3.82943 1.30908 0
M  V30 12961 H 1246.24 -3.41189 3.28462 0
M  V30 12962 H 1246.67 -3.31324 5.90384 0
M  V30 12963 H 1251.31 -2.95659 3.02234 0
M  V30 12964 H 1249.03 -3.07531 7.47296 0
M  V30 12965 H 1252.61 -2.77091 5.11578 0
M  V30 12966 H 1251.49 -2.83141 7.31301 0
M  V30 12967 N 1248.99 -0.981699 -1.2329 0
M  V30 12968 C 1250.23 -0.659348 -1.93473 0
M  V30 12969 C 1250.6 0.792616 -1.74876 0
M  V30 12970 O 1251.8 1.22586 -2.3922 0
M  V30 12971 C 1250.07 -1.04065 -3.41914 0
M  V30 12972 S 1251.63 -0.834964 -4.30783 0
M  V30 12973 H 1248.45 -0.241428 -0.668755 0
M  V30 12974 H 1251.05 -1.26161 -1.49344 0
M  V30 12975 H 1249.75 -2.09398 -3.5296 0
M  V30 12976 H 1249.28 -0.429721 -3.91046 0
M  V30 12977 H 1251.3 0.280447 -4.95407 0
M  V30 12978 N 1250.47 1.3842 -0.753509 0
M  V30 12979 C 1251.88 1.82847 -0.377331 0
M  V30 12980 C 1252.23 1.62867 1.09401 0
M  V30 12981 O 1251.36 1.12981 1.84565 0
M  V30 12982 C 1251.95 3.31945 -0.678095 0
M  V30 12983 C 1250.51 3.7472 -0.355196 0
M  V30 12984 C 1249.66 2.61193 -0.931311 0
M  V30 12985 H 1252.61 1.2715 -0.949667 0
M  V30 12986 H 1252.63 3.80475 0.0437292 0
M  V30 12987 H 1252.14 3.46455 -1.74902 0
M  V30 12988 H 1250.25 3.65789 0.70915 0
M  V30 12989 H 1250.36 4.71487 -0.850693 0
M  V30 12990 H 1248.72 2.5219 -0.356695 0
M  V30 12991 H 1249.51 2.78503 -2.00727 0
M  V30 12992 N 1251.95 0.502579 1.49372 0
M  V30 12993 C 1253.37 0.158641 1.5881 0
M  V30 12994 C 1253.57 -1.33688 1.50764 0
M  V30 12995 O 1252.62 -2.11295 1.38241 0
M  V30 12996 C 1253.94 0.736843 2.91532 0
M  V30 12997 C 1255.48 0.703093 3.05001 0
M  V30 12998 C 1255.96 1.25938 4.40345 0
M  V30 12999 N 1257.45 1.22015 4.46841 0
M  V30 13000 C 1258.18 1.62076 5.50017 0
M  V30 13001 N 1257.68 2.09736 6.6029 0
M  V30 13002 N 1259.47 1.53482 5.4074 0
M  V30 13003 H 1251.62 1.47487 1.52844 0
M  V30 13004 H 1253.89 0.611851 0.724115 0
M  V30 13005 H 1253.59 1.78573 3.02992 0
M  V30 13006 H 1253.47 0.198178 3.76679 0
M  V30 13007 H 1255.85 -0.336965 2.9317 0
M  V30 13008 H 1255.94 1.27892 2.21534 0
M  V30 13009 H 1255.58 2.29823 4.52928 0
M  V30 13010 H 1255.51 0.659481 5.22454 0
M  V30 13011 H 1258 0.870957 3.67726 0
M  V30 13012 H 1258.31 2.3837 7.35119 0
M  V30 13013 H 1256.66 2.13712 6.61326 0
M  V30 13014 H 1259.85 1.16065 4.53483 0
M  V30 13015 H 1260.02 1.85026 6.21023 0
M  V30 13016 N 1253.43 -1.55816 0.23648 0
M  V30 13017 C 1254.84 -1.84757 -0.268622 0
M  V30 13018 C 1255.19 -1.15815 -1.58371 0
M  V30 13019 O 1254.32 -0.432923 -2.12025 0
M  V30 13020 C 1254.91 -3.35177 -0.494167 0
M  V30 13021 C 1253.47 -3.64382 -0.943551 0
M  V30 13022 C 1252.62 -2.77296 -0.0149191 0
M  V30 13023 H 1255.57 -1.51908 0.459308 0
M  V30 13024 H 1255.59 -3.56192 -1.3382 0
M  V30 13025 H 1255.1 -3.85327 0.463138 0
M  V30 13026 H 1253.2 -3.19701 -1.91369 0
M  V30 13027 H 1253.31 -4.72244 -0.807626 0
M  V30 13028 H 1251.68 -2.49243 -0.524419 0
M  V30 13029 H 1252.46 -3.30249 0.937571 0
M  V30 13030 N 1254.91 0.036755 -1.57557 0
M  V30 13031 C 1256.32 0.584324 -1.7732 0
M  V30 13032 C 1256.67 1.76025 -0.86658 0
M  V30 13033 O 1255.79 2.16318 -0.059443 0
M  V30 13034 C 1256.39 1.06679 -3.21566 0
M  V30 13035 C 1254.95 1.55994 -3.42553 0
M  V30 13036 C 1254.09 0.494604 -2.72853 0
M  V30 13037 H 1257.05 -0.189473 -1.57565 0
M  V30 13038 H 1257.07 1.93446 -3.27657 0
M  V30 13039 H 1256.58 0.210727 -3.87527 0
M  V30 13040 H 1254.68 2.43811 -2.81757 0
M  V30 13041 H 1254.79 1.61274 -4.5114 0
M  V30 13042 H 1253.16 0.947865 -2.36406 0
M  V30 13043 H 1253.94 -0.351868 -3.41492 0
M  V30 13044 N 1256.39 1.54543 0.308881 0
M  V30 13045 C 1257.8 1.45581 0.654088 0
M  V30 13046 C 1258 0.640597 1.91046 0
M  V30 13047 O 1257.06 0.14518 2.52082 0
M  V30 13048 C 1258.37 2.89461 0.814422 0
M  V30 13049 C 1259.92 2.99455 0.910817 0
M  V30 13050 C 1260.39 4.44515 1.10321 0
M  V30 13051 N 1261.88 4.4819 1.1696 0
M  V30 13052 C 1262.62 5.57604 1.33661 0
M  V30 13053 N 1262.12 6.76957 1.47311 0
M  V30 13054 N 1263.91 5.45278 1.36487 0
M  V30 13055 H 1256.06 2.06019 -0.516699 0
M  V30 13056 H 1258.32 0.932729 -0.169471 0
M  V30 13057 H 1258.03 3.5168 -0.0377455 0
M  V30 13058 H 1257.9 3.36425 1.70582 0
M  V30 13059 H 1260.29 2.37355 1.75348 0
M  V30 13060 H 1260.37 2.558 -0.00443172 0
M  V30 13061 H 1260.01 5.07206 0.265346 0
M  V30 13062 H 1259.94 4.85793 2.03256 0
M  V30 13063 H 1262.44 3.62199 1.07796 0
M  V30 13064 H 1262.75 7.561 1.59788 0
M  V30 13065 H 1261.09 6.79837 1.44382 0
M  V30 13066 H 1264.28 4.50983 1.25429 0
M  V30 13067 H 1264.46 6.30599 1.4916 0
M  V30 13068 N 1257.86 -0.571685 1.46866 0
M  V30 13069 C 1258.83 -1.66198 1.57832 0
M  V30 13070 C 1259.83 -1.54242 0.454547 0
M  V30 13071 O 1261.02 -1.58661 0.719191 0
M  V30 13072 C 1258.15 -3.05678 1.5091 0
M  V30 13073 H 1259.34 -1.57829 2.5501 0
M  V30 13074 H 1256.89 -0.790433 1.3484 0
M  V30 13075 H 1257.63 -3.19593 0.550529 0
M  V30 13076 H 1257.41 -3.15765 2.32454 0
M  V30 13077 H 1258.9 -3.85027 1.61692 0
M  V30 13078 N 1259.34 -1.34755 -0.817236 0
M  V30 13079 C 1260.59 -1.2762 -1.5761 0
M  V30 13080 C 1260.92 0.152017 -1.93604 0
M  V30 13081 O 1260.2 1.09881 -1.60488 0
M  V30 13082 C 1260.48 -2.17251 -2.87183 0
M  V30 13083 C 1260.33 -3.68638 -2.57733 0
M  V30 13084 C 1261.65 -2.06206 -3.88802 0
M  V30 13085 H 1258.77 -0.464933 -0.571845 0
M  V30 13086 H 1261.41 -1.6506 -0.941028 0
M  V30 13087 H 1259.56 -1.85452 -3.41379 0
M  V30 13088 H 1261.23 -4.10829 -2.09802 0
M  V30 13089 H 1259.48 -3.89445 -1.91089 0
M  V30 13090 H 1260.15 -4.26726 -3.50156 0
M  V30 13091 H 1262.62 -2.34137 -3.43975 0
M  V30 13092 H 1261.5 -2.71136 -4.77259 0
M  V30 13093 H 1261.76 -1.04075 -4.29675 0
M  V30 13094 N 1260.82 1.03812 -1.18578 0
M  V30 13095 C 1261.75 2.13802 -0.938665 0
M  V30 13096 C 1262.73 1.69643 0.124575 0
M  V30 13097 O 1263.92 1.94179 -0.0285421 0
M  V30 13098 C 1261.05 3.44154 -0.466392 0
M  V30 13099 C 1260 4.01949 -1.47041 0
M  V30 13100 C 1259.33 5.27811 -0.855558 0
M  V30 13101 C 1260.63 4.37827 -2.84789 0
M  V30 13102 H 1262.32 2.34732 -1.85852 0
M  V30 13103 H 1259.87 1.12808 -0.895007 0
M  V30 13104 H 1261.82 4.20463 -0.280856 0
M  V30 13105 H 1260.54 3.22918 0.489041 0
M  V30 13106 H 1259.2 3.27725 -1.64293 0
M  V30 13107 H 1258.85 5.02886 0.107142 0
M  V30 13108 H 1258.55 5.67441 -1.52592 0
M  V30 13109 H 1260.07 6.06795 -0.680609 0
M  V30 13110 H 1261.49 5.05112 -2.71173 0
M  V30 13111 H 1259.88 4.88514 -3.48532 0
M  V30 13112 H 1260.95 3.47541 -3.38147 0
M  V30 13113 N 1262.3 0.988223 1.22768 0
M  V30 13114 C 1263.53 0.678757 1.95132 0
M  V30 13115 C 1263.94 -0.759797 1.73274 0
M  V30 13116 O 1263.28 -1.52383 1.02592 0
M  V30 13117 C 1263.34 0.899007 3.48078 0
M  V30 13118 C 1263 2.32114 3.93665 0
M  V30 13119 C 1264 3.30034 4.01713 0
M  V30 13120 C 1261.69 2.65432 4.2644 0
M  V30 13121 C 1263.68 4.59349 4.41902 0
M  V30 13122 C 1261.37 3.94967 4.66309 0
M  V30 13123 C 1262.37 4.91737 4.74008 0
M  V30 13124 O 1262.05 6.18958 5.12977 0
M  V30 13125 H 1261.79 0.250588 0.627839 0
M  V30 13126 H 1264.34 1.32441 1.56999 0
M  V30 13127 H 1262.57 0.196182 3.86202 0
M  V30 13128 H 1264.26 0.585507 4.01655 0
M  V30 13129 H 1265.02 3.05626 3.76587 0
M  V30 13130 H 1260.9 1.90816 4.19655 0
M  V30 13131 H 1264.45 5.34881 4.47826 0
M  V30 13132 H 1260.34 4.19168 4.90886 0
M  V30 13133 H 1261.11 6.22826 5.31065 0
M  V30 13134 N 1263.78 -1.38018 0.760839 0
M  V30 13135 C 1265.19 -1.53437 0.439239 0
M  V30 13136 C 1265.39 -1.72184 -1.04666 0
M  V30 13137 O 1264.45 -1.73698 -1.83263 0
M  V30 13138 C 1265.76 -2.73724 1.24481 0
M  V30 13139 C 1267.31 -2.87579 1.23561 0
M  V30 13140 C 1267.78 -4.10836 2.02429 0
M  V30 13141 N 1269.27 -4.17928 1.99727 0
M  V30 13142 C 1270.01 -5.12309 2.57541 0
M  V30 13143 N 1269.51 -6.12317 3.24098 0
M  V30 13144 N 1271.3 -5.04712 2.47431 0
M  V30 13145 H 1263.45 -1.241 1.72375 0
M  V30 13146 H 1265.71 -0.603427 0.73115 0
M  V30 13147 H 1265.42 -2.663 2.29732 0
M  V30 13148 H 1265.29 -3.67111 0.866579 0
M  V30 13149 H 1267.68 -2.9448 0.191122 0
M  V30 13150 H 1267.76 -1.95183 1.6534 0
M  V30 13151 H 1267.4 -4.04696 3.06893 0
M  V30 13152 H 1267.33 -5.02326 1.58039 0
M  V30 13153 H 1269.83 -3.46307 1.51262 0
M  V30 13154 H 1270.14 -6.80842 3.65615 0
M  V30 13155 H 1268.48 -6.12628 3.28195 0
M  V30 13156 H 1271.67 -4.25524 1.95057 0
M  V30 13157 H 1271.85 -5.78085 2.92783 0
M  V30 13158 N 1265.25 -0.510493 -1.49103 0
M  V30 13159 C 1266.5 0.0305831 -2.02077 0
M  V30 13160 C 1266.82 1.36602 -1.39157 0
M  V30 13161 O 1266.09 1.88016 -0.550154 0
M  V30 13162 H 1264.67 0.0142916 -0.746863 0
M  V30 13163 H 1267.33 -0.669895 -1.83026 0
M  V30 13164 H 1266.43 0.153283 -3.11723 0
M  V30 13165 N 1266.73 1.55688 -0.24474 0
M  V30 13166 C 1267.64 2.24933 0.666519 0
M  V30 13167 C 1268.66 1.26471 1.19503 0
M  V30 13168 O 1269.83 1.59342 1.23176 0
M  V30 13169 C 1266.9 2.9336 1.84772 0
M  V30 13170 C 1265.96 4.07225 1.35889 0
M  V30 13171 C 1265.19 4.72381 2.48379 0
M  V30 13172 O 1265.42 4.36605 3.67059 0
M  V30 13173 O 1264.35 5.60933 2.18261 0
M  V30 13174 H 1268.18 3.03513 0.106507 0
M  V30 13175 H 1265.76 1.49394 -0.0133309 0
M  V30 13176 H 1267.64 3.36468 2.53708 0
M  V30 13177 H 1266.32 2.17721 2.39539 0
M  V30 13178 H 1265.22 3.68639 0.636881 0
M  V30 13179 H 1266.56 4.84676 0.857333 0
M  V30 13180 N 1268.21 -0.0283989 1.57574 0
M  V30 13181 C 1269.46 -0.717656 1.88929 0
M  V30 13182 C 1269.78 -1.7586 0.842517 0
M  V30 13183 O 1269.05 -1.95509 -0.123774 0
M  V30 13184 H 1267.63 -0.268051 0.69725 0
M  V30 13185 H 1270.29 0.00580691 1.94899 0
M  V30 13186 H 1269.39 -1.2068 2.87824 0
M  V30 13187 N 1269.69 -1.54705 -0.300681 0
M  V30 13188 C 1270.93 -1.74259 -1.03738 0
M  V30 13189 C 1271.27 -0.52703 -1.86912 0
M  V30 13190 O 1270.54 0.475862 -1.88589 0
M  V30 13191 C 1270.82 -3.03175 -1.94311 0
M  V30 13192 C 1270.68 -4.35031 -1.14315 0
M  V30 13193 C 1272 -3.27962 -2.93478 0
M  V30 13194 H 1269.12 -0.634031 -0.37573 0
M  V30 13195 H 1271.76 -1.87421 -0.312012 0
M  V30 13196 H 1269.91 -2.92086 -2.5616 0
M  V30 13197 H 1271.58 -4.5804 -0.547489 0
M  V30 13198 H 1269.82 -4.31503 -0.44587 0
M  V30 13199 H 1270.49 -5.21502 -1.80941 0
M  V30 13200 H 1272.97 -3.38663 -2.41757 0
M  V30 13201 H 1271.85 -4.19481 -3.54016 0
M  V30 13202 H 1272.11 -2.46273 -3.67154 0
M  V30 13203 N 1271.17 0.563888 -1.47167 0
M  V30 13204 C 1272.44 1.32454 -1.43928 0
M  V30 13205 C 1272.82 2.10683 -0.13267 0
M  V30 13206 O 1272.17 2.1063 0.885845 0
M  V30 13207 C 1272.38 2.2347 -2.68071 0
M  V30 13208 C 1273.73 2.84702 -3.15008 0
M  V30 13209 O 1274.75 2.33775 -2.68752 0
M  V30 13210 O 1273.61 3.77251 -3.95404 0
M  V30 13211 H 1270.71 0.596074 -0.573258 0
M  V30 13212 H 1273.25 0.583345 -1.59359 0
M  V30 13213 H 1272.02 1.6522 -3.54708 0
M  V30 13214 H 1271.65 3.04897 -2.55193 0
M  V30 13215 N 1272.64 1.35187 0.810078 0
M  V30 13216 C 1273.58 1.22171 1.92742 0
M  V30 13217 C 1274.56 0.110393 1.62225 0
M  V30 13218 O 1275.74 0.27786 1.86441 0
M  V30 13219 C 1272.87 0.880367 3.27058 0
M  V30 13220 C 1271.91 2.00325 3.76527 0
M  V30 13221 S 1272.75 3.6185 3.94747 0
M  V30 13222 C 1273.9 3.29784 5.31971 0
M  V30 13223 H 1274.13 2.16749 2.03488 0
M  V30 13224 H 1271.67 1.20362 0.967072 0
M  V30 13225 H 1273.63 0.690224 4.04656 0
M  V30 13226 H 1272.29 -0.0472868 3.14064 0
M  V30 13227 H 1271.48 1.71847 4.73798 0
M  V30 13228 H 1271.08 2.15154 3.05916 0
M  V30 13229 H 1273.37 2.82396 6.1584 0
M  V30 13230 H 1274.32 4.26243 5.6544 0
M  V30 13231 H 1274.72 2.65641 4.98092 0
M  V30 13232 N 1274.12 -1.03182 1.19127 0
M  V30 13233 C 1275.37 -1.75934 0.986415 0
M  V30 13234 C 1275.68 -1.89519 -0.48392 0
M  V30 13235 O 1276.89 -2.59213 -0.80752 0
M  V30 13236 C 1275.35 -3.16358 1.71597 0
M  V30 13237 C 1274.95 -3.10836 3.22622 0
M  V30 13238 C 1276.7 -3.93426 1.59425 0
M  V30 13239 C 1274.61 -4.46174 3.88179 0
M  V30 13240 H 1273.54 -0.659516 0.365451 0
M  V30 13241 H 1276.19 -1.15497 1.42593 0
M  V30 13242 H 1274.57 -3.77245 1.20426 0
M  V30 13243 H 1275.74 -2.59348 3.80887 0
M  V30 13244 H 1274.06 -2.47266 3.35035 0
M  V30 13245 H 1276.65 -4.93526 2.05757 0
M  V30 13246 H 1277 -4.12678 0.547926 0
M  V30 13247 H 1277.53 -3.39134 2.07925 0
M  V30 13248 H 1274.27 -4.32126 4.92897 0
M  V30 13249 H 1273.79 -4.97729 3.34702 0
M  V30 13250 H 1275.47 -5.15066 3.91556 0
M  V30 13251 N 1275.6 -0.99472 -1.22242 0
M  V30 13252 C 1276.83 -0.689809 -1.95592 0
M  V30 13253 C 1277.25 0.739321 -1.72961 0
M  V30 13254 O 1276.61 1.50563 -1.00997 0
M  V30 13255 C 1276.66 -1.00367 -3.46351 0
M  V30 13256 O 1275.76 -0.103326 -4.12271 0
M  V30 13257 H 1275.1 -0.257997 -0.611828 0
M  V30 13258 H 1277.63 -1.33219 -1.55286 0
M  V30 13259 H 1277.64 -0.946259 -3.96875 0
M  V30 13260 H 1276.32 -2.04504 -3.62148 0
M  V30 13261 H 1274.89 -0.216374 -3.72272 0
M  V30 13262 N 1277.08 1.37613 -0.768148 0
M  V30 13263 C 1278.3 2.04579 -0.340892 0
M  V30 13264 C 1278.73 1.57556 1.02751 0
M  V30 13265 O 1278.09 0.734151 1.65771 0
M  V30 13266 C 1278.13 3.58495 -0.389099 0
M  V30 13267 O 1277.24 4.07838 0.611741 0
M  V30 13268 H 1276.58 0.647246 -0.148216 0
M  V30 13269 H 1279.11 1.75999 -1.04333 0
M  V30 13270 H 1279.12 4.07263 -0.245116 0
M  V30 13271 H 1277.79 3.92076 -1.38742 0
M  V30 13272 H 1276.37 3.70399 0.431173 0
M  V30 13273 N 1278.56 0.518393 1.4883 0
M  V30 13274 C 1279.52 -0.23983 2.27942 0
M  V30 13275 C 1280.52 -0.878302 1.34694 0
M  V30 13276 O 1281.71 -0.740142 1.57694 0
M  V30 13277 C 1278.84 -1.34581 3.1321 0
M  V30 13278 H 1280.03 0.454599 2.96434 0
M  V30 13279 H 1277.59 0.273932 1.53881 0
M  V30 13280 H 1278.32 -2.07385 2.49323 0
M  V30 13281 H 1278.11 -0.893251 3.8179 0
M  V30 13282 H 1279.6 -1.87944 3.72917 0
M  V30 13283 N 1280.03 -1.55556 0.252993 0
M  V30 13284 C 1281.28 -1.98267 -0.370571 0
M  V30 13285 C 1281.6 -1.14449 -1.58622 0
M  V30 13286 O 1282.8 -1.472 -2.28132 0
M  V30 13287 C 1281.26 -3.52813 -0.710685 0
M  V30 13288 C 1280.87 -4.45379 0.483908 0
M  V30 13289 C 1282.61 -4.04165 -1.2981 0
M  V30 13290 C 1280.52 -5.91279 0.119611 0
M  V30 13291 H 1279.45 -0.740463 -0.142232 0
M  V30 13292 H 1282.1 -1.8005 0.354169 0
M  V30 13293 H 1280.48 -3.66748 -1.49372 0
M  V30 13294 H 1281.65 -4.43206 1.26116 0
M  V30 13295 H 1279.97 -4.04542 0.986664 0
M  V30 13296 H 1282.57 -5.10696 -1.5841 0
M  V30 13297 H 1282.91 -3.51875 -2.22462 0
M  V30 13298 H 1283.44 -3.93581 -0.577836 0
M  V30 13299 H 1280.18 -6.47619 1.01343 0
M  V30 13300 H 1279.7 -5.96573 -0.621318 0
M  V30 13301 H 1281.38 -6.46322 -0.296052 0
M  V30 13302 N 1281.51 0.0200419 -1.57587 0
M  V30 13303 C 1282.44 1.0456 -2.0396 0
M  V30 13304 C 1283.46 1.31922 -0.953962 0
M  V30 13305 O 1284.65 1.2925 -1.23112 0
M  V30 13306 C 1281.75 2.38514 -2.40758 0
M  V30 13307 C 1280.92 2.3038 -3.71812 0
M  V30 13308 C 1279.98 3.46856 -3.95698 0
M  V30 13309 O 1279 3.25944 -4.66636 0
M  V30 13310 N 1280.21 4.69033 -3.42036 0
M  V30 13311 H 1282.97 0.650282 -2.9256 0
M  V30 13312 H 1280.53 0.207818 -1.60561 0
M  V30 13313 H 1282.52 3.15172 -2.53868 0
M  V30 13314 H 1281.09 2.69859 -1.57781 0
M  V30 13315 H 1280.31 1.38762 -3.6897 0
M  V30 13316 H 1281.6 2.22097 -4.57767 0
M  V30 13317 H 1281 4.88923 -2.84553 0
M  V30 13318 H 1279.56 5.43025 -3.6051 0
M  V30 13319 N 1282.99 1.54862 0.292472 0
M  V30 13320 C 1284.4 1.65459 0.864891 0
M  V30 13321 C 1284.75 0.568808 1.87774 0
M  V30 13322 O 1283.88 -0.293107 2.14406 0
M  V30 13323 C 1284.47 2.99939 1.5755 0
M  V30 13324 C 1283.03 3.12628 2.09621 0
M  V30 13325 C 1282.18 2.61179 0.931713 0
M  V30 13326 H 1285.13 1.58549 0.0692679 0
M  V30 13327 H 1285.15 2.91839 2.44152 0
M  V30 13328 H 1284.66 3.78943 0.838088 0
M  V30 13329 H 1282.76 2.3836 2.86383 0
M  V30 13330 H 1282.88 4.18911 2.32488 0
M  V30 13331 H 1281.24 2.17846 1.31967 0
M  V30 13332 H 1282.02 3.42669 0.208121 0
M  V30 13333 N 1284.47 -0.556076 1.47464 0
M  V30 13334 C 1285.4 -1.67275 1.62915 0
M  V30 13335 C 1286.38 -1.63229 0.478562 0
M  V30 13336 O 1287.56 -1.80833 0.708032 0
M  V30 13337 C 1284.69 -3.05911 1.64426 0
M  V30 13338 C 1283.65 -3.24804 2.78722 0
M  V30 13339 C 1282.97 -4.64238 2.65307 0
M  V30 13340 C 1284.27 -3.10071 4.20302 0
M  V30 13341 H 1285.97 -1.54601 2.56396 0
M  V30 13342 H 1283.51 -0.742337 1.23391 0
M  V30 13343 H 1285.47 -3.83878 1.73826 0
M  V30 13344 H 1284.19 -3.19547 0.675053 0
M  V30 13345 H 1282.85 -2.49246 2.68835 0
M  V30 13346 H 1282.5 -4.74675 1.66412 0
M  V30 13347 H 1282.2 -4.77828 3.41986 0
M  V30 13348 H 1283.72 -5.44339 2.76637 0
M  V30 13349 H 1285.14 -3.77855 4.3116 0
M  V30 13350 H 1283.53 -3.3517 4.97776 0
M  V30 13351 H 1284.6 -2.06803 4.38589 0
M  V30 13352 N 1285.95 -1.35615 -0.802897 0
M  V30 13353 C 1287.18 -1.32217 -1.59142 0
M  V30 13354 C 1287.59 0.0995496 -1.88537 0
M  V30 13355 O 1286.95 1.05258 -1.49087 0
M  V30 13356 C 1287 -2.13048 -2.92049 0
M  V30 13357 O 1286.72 -3.49677 -2.63927 0
M  V30 13358 C 1288.22 -2.17278 -3.864 0
M  V30 13359 H 1285.44 -0.454054 -0.49404 0
M  V30 13360 H 1287.98 -1.78521 -0.997516 0
M  V30 13361 H 1286.14 -1.70334 -3.47944 0
M  V30 13362 H 1286.55 -3.917 -3.48814 0
M  V30 13363 H 1288.03 -2.7822 -4.76758 0
M  V30 13364 H 1288.5 -1.17253 -4.23259 0
M  V30 13365 H 1289.11 -2.6017 -3.3644 0
M  V30 13366 N 1287.43 1.02549 -1.19673 0
M  V30 13367 C 1288.37 2.109 -0.937536 0
M  V30 13368 C 1289.34 1.65599 0.128923 0
M  V30 13369 O 1290.53 1.90795 -0.0139366 0
M  V30 13370 C 1287.67 3.4166 -0.48602 0
M  V30 13371 C 1286.78 4.0049 -1.61963 0
M  V30 13372 C 1285.92 5.19273 -1.11931 0
M  V30 13373 C 1284.95 5.70166 -2.22659 0
M  V30 13374 N 1284.09 6.80221 -1.73909 0
M  V30 13375 H 1288.93 2.32408 -1.86523 0
M  V30 13376 H 1286.47 1.13982 -0.929869 0
M  V30 13377 H 1288.43 4.16693 -0.205614 0
M  V30 13378 H 1287.06 3.20253 0.404678 0
M  V30 13379 H 1286.11 3.22638 -2.01516 0
M  V30 13380 H 1287.42 4.34273 -2.45374 0
M  V30 13381 H 1286.57 6.01478 -0.794336 0
M  V30 13382 H 1285.31 4.87033 -0.254972 0
M  V30 13383 H 1284.32 4.86572 -2.55983 0
M  V30 13384 H 1285.54 6.04444 -3.09554 0
M  V30 13385 H 1283.49 6.49826 -0.897889 0
M  V30 13386 H 1283.41 7.13149 -2.50907 0
M  V30 13387 H 1284.67 7.66011 -1.44386 0
M  V30 13388 N 1288.9 1.00119 1.21713 0
M  V30 13389 C 1290.15 0.682733 1.90962 0
M  V30 13390 C 1290.48 -0.784131 1.77665 0
M  V30 13391 O 1289.76 -1.56799 1.15084 0
M  V30 13392 C 1290.04 1.09975 3.42896 0
M  V30 13393 C 1289.89 2.62578 3.65202 0
M  V30 13394 C 1291.21 0.659247 4.35134 0
M  V30 13395 H 1288.33 0.249501 0.693483 0
M  V30 13396 H 1290.97 1.24619 1.43423 0
M  V30 13397 H 1289.12 0.620334 3.83515 0
M  V30 13398 H 1290.8 3.18254 3.33934 0
M  V30 13399 H 1289.04 3.04268 3.09198 0
M  V30 13400 H 1289.71 2.86809 4.7164 0
M  V30 13401 H 1292.19 1.07116 4.02076 0
M  V30 13402 H 1291.06 0.979241 5.40095 0
M  V30 13403 H 1291.32 -0.439777 4.39907 0
M  V30 13404 N 1290.38 -1.37203 0.775435 0
M  V30 13405 C 1291.66 -1.93783 0.266005 0
M  V30 13406 C 1292.04 -1.70875 -1.23956 0
M  V30 13407 O 1291.39 -1.05965 -2.02444 0
M  V30 13408 C 1291.6 -3.43018 0.643404 0
M  V30 13409 C 1292.94 -4.20119 0.615267 0
M  V30 13410 O 1293.97 -3.51396 0.583018 0
M  V30 13411 O 1292.83 -5.42673 0.645637 0
M  V30 13412 H 1289.92 -0.824649 0.0623107 0
M  V30 13413 H 1292.47 -1.46468 0.857036 0
M  V30 13414 H 1291.24 -3.5329 1.68232 0
M  V30 13415 H 1290.86 -3.97592 0.0255138 0
M  V30 13416 N 1291.86 -0.526279 -1.48553 0
M  V30 13417 C 1293.08 0.00731432 -2.07399 0
M  V30 13418 C 1293.51 1.27737 -1.38075 0
M  V30 13419 O 1292.87 1.75741 -0.445503 0
M  V30 13420 C 1292.92 0.218126 -3.5994 0
M  V30 13421 O 1292.02 1.28759 -3.91784 0
M  V30 13422 H 1291.36 -0.0374784 -0.662941 0
M  V30 13423 H 1293.89 -0.733133 -1.91014 0
M  V30 13424 H 1293.9 0.44192 -4.056 0
M  V30 13425 H 1292.58 -0.709668 -4.09801 0
M  V30 13426 H 1291.15 1.04674 -3.57907 0
M  V30 13427 N 1293.34 1.5542 -0.261239 0
M  V30 13428 C 1294.59 1.9846 0.360052 0
M  V30 13429 C 1294.9 1.15288 1.58013 0
M  V30 13430 O 1296.11 1.48408 2.27348 0
M  V30 13431 C 1294.56 3.53185 0.691964 0
M  V30 13432 C 1294.17 4.45116 -0.507521 0
M  V30 13433 C 1295.91 4.04848 1.27665 0
M  V30 13434 C 1293.82 5.91207 -0.150966 0
M  V30 13435 H 1292.75 0.741207 0.138303 0
M  V30 13436 H 1295.4 1.79859 -0.363712 0
M  V30 13437 H 1293.78 3.67535 1.47425 0
M  V30 13438 H 1294.96 4.42531 -1.28465 0
M  V30 13439 H 1293.27 4.04013 -1.0081 0
M  V30 13440 H 1295.87 5.11529 1.55699 0
M  V30 13441 H 1296.21 3.5305 2.20593 0
M  V30 13442 H 1296.75 3.93882 0.556955 0
M  V30 13443 H 1293.48 6.47072 -1.04776 0
M  V30 13444 H 1293 5.96894 0.589671 0
M  V30 13445 H 1294.68 6.4647 0.261772 0
M  V30 13446 N 1294.82 -0.0116844 1.57596 0
M  V30 13447 C 1296.04 -0.71026 1.94327 0
M  V30 13448 C 1296.46 -1.67952 0.862418 0
M  V30 13449 O 1295.82 -1.818 -0.159698 0
M  V30 13450 C 1295.87 -1.45228 3.31045 0
M  V30 13451 O 1295.59 -0.52191 4.3498 0
M  V30 13452 C 1297.09 -2.24644 3.82165 0
M  V30 13453 H 1294.31 -0.198559 0.640949 0
M  V30 13454 H 1296.85 0.0359615 2.04468 0
M  V30 13455 H 1295.01 -2.15023 3.22248 0
M  V30 13456 H 1295.42 -1.04415 5.14002 0
M  V30 13457 H 1296.9 -2.72078 4.80289 0
M  V30 13458 H 1297.37 -3.06817 3.14261 0
M  V30 13459 H 1297.98 -1.59888 3.94101 0
M  V30 13460 N 1296.29 -1.55015 -0.284256 0
M  V30 13461 C 1297.52 -1.79102 -1.03586 0
M  V30 13462 C 1297.94 -0.558733 -1.80343 0
M  V30 13463 O 1297.29 0.471925 -1.76293 0
M  V30 13464 C 1297.34 -3.00915 -2.0033 0
M  V30 13465 O 1297.07 -4.19384 -1.26685 0
M  V30 13466 C 1298.57 -3.3752 -2.87394 0
M  V30 13467 H 1295.79 -0.596912 -0.306491 0
M  V30 13468 H 1298.33 -2.02005 -0.31845 0
M  V30 13469 H 1296.49 -2.80171 -2.67549 0
M  V30 13470 H 1296.9 -4.88175 -1.91796 0
M  V30 13471 H 1298.37 -4.25953 -3.51095 0
M  V30 13472 H 1298.85 -2.56418 -3.56576 0
M  V30 13473 H 1299.46 -3.60483 -2.25682 0
M  V30 13474 N 1297.77 0.548248 -1.47757 0
M  V30 13475 C 1299.02 1.30501 -1.54841 0
M  V30 13476 C 1299.35 1.93314 -0.214476 0
M  V30 13477 O 1298.6 1.7889 0.793526 0
M  V30 13478 C 1298.9 2.42911 -2.62162 0
M  V30 13479 C 1298.57 1.97871 -4.05164 0
M  V30 13480 C 1297.23 1.85304 -4.4409 0
M  V30 13481 C 1299.58 1.63606 -4.94856 0
M  V30 13482 C 1296.91 1.36781 -5.70533 0
M  V30 13483 C 1299.26 1.16552 -6.2177 0
M  V30 13484 C 1297.92 1.02588 -6.5957 0
M  V30 13485 H 1297.19 0.477536 -0.566604 0
M  V30 13486 H 1299.84 0.613837 -1.81395 0
M  V30 13487 H 1298.15 3.17622 -2.29398 0
M  V30 13488 H 1299.84 3.01078 -2.64864 0
M  V30 13489 H 1296.43 2.08597 -3.74413 0
M  V30 13490 H 1300.62 1.72184 -4.65474 0
M  V30 13491 H 1295.87 1.24641 -5.9856 0
M  V30 13492 H 1300.05 0.891041 -6.90676 0
M  V30 13493 H 1297.67 0.647675 -7.57436 0
M  V30 13494 N 1299.25 1.36039 0.795694 0
M  V30 13495 C 1300.5 1.29663 1.55023 0
M  V30 13496 C 1300.82 -0.125588 1.94595 0
M  V30 13497 O 1300.09 -1.06447 1.64456 0
M  V30 13498 H 1298.67 0.476962 0.574906 0
M  V30 13499 H 1301.33 1.70265 0.948471 0
M  V30 13500 H 1300.43 1.91982 2.46068 0
M  V30 13501 N 1300.73 -1.01913 1.20215 0
M  V30 13502 C 1301.98 -1.7547 1.01076 0
M  V30 13503 C 1302.3 -1.89045 -0.457404 0
M  V30 13504 O 1301.56 -1.41121 -1.35585 0
M  V30 13505 C 1301.86 -3.17734 1.63646 0
M  V30 13506 C 1301.52 -3.24143 3.13436 0
M  V30 13507 C 1300.19 -3.25599 3.54315 0
M  V30 13508 C 1302.54 -3.22508 4.09436 0
M  V30 13509 C 1299.87 -3.23089 4.89725 0
M  V30 13510 C 1302.22 -3.21539 5.44789 0
M  V30 13511 C 1300.88 -3.21298 5.85085 0
M  V30 13512 H 1300.15 -0.642092 0.369864 0
M  V30 13513 H 1302.8 -1.19547 1.49602 0
M  V30 13514 H 1301.1 -3.76799 1.07375 0
M  V30 13515 H 1302.8 -3.73338 1.46356 0
M  V30 13516 H 1299.39 -3.23743 2.80871 0
M  V30 13517 H 1303.57 -3.20555 3.7889 0
M  V30 13518 H 1298.83 -3.21231 5.20212 0
M  V30 13519 H 1303 -3.19226 6.18924 0
M  V30 13520 H 1300.63 -3.19107 6.89982 0
M  V30 13521 N 1302.21 -1.00763 -1.2118 0
M  V30 13522 C 1303.45 -0.690459 -1.8994 0
M  V30 13523 C 1303.78 0.781464 -1.78656 0
M  V30 13524 O 1303.05 1.56135 -1.18316 0
M  V30 13525 H 1301.63 -0.252397 -0.703068 0
M  V30 13526 H 1304.29 -1.2773 -1.47211 0
M  V30 13527 H 1303.38 -0.96594 -2.96776 0
M  V30 13528 N 1303.68 1.3679 -0.7827 0
M  V30 13529 C 1304.63 2.27508 -0.149734 0
M  V30 13530 C 1305.62 1.46634 0.662368 0
M  V30 13531 O 1306.81 1.6908 0.523544 0
M  V30 13532 C 1303.94 3.35666 0.719939 0
M  V30 13533 C 1303.03 4.23981 -0.100588 0
M  V30 13534 N 1303.42 4.92513 -1.15173 0
M  V30 13535 C 1301.71 4.45834 0.121653 0
M  V30 13536 C 1302.42 5.57788 -1.65067 0
M  V30 13537 N 1301.39 5.35038 -0.96101 0
M  V30 13538 H 1305.19 2.77973 -0.954365 0
M  V30 13539 H 1302.71 1.50037 -0.62151 0
M  V30 13540 H 1304.7 3.99578 1.18926 0
M  V30 13541 H 1303.36 2.86756 1.52319 0
M  V30 13542 H 1304.38 4.94658 -1.53406 0
M  V30 13543 H 1301.05 4.07773 0.895945 0
M  V30 13544 H 1302.44 6.22534 -2.52787 0
M  V30 13545 N 1305.16 0.53415 1.48272 0
M  V30 13546 C 1306.09 -0.263508 2.2768 0
M  V30 13547 C 1307.11 -0.90064 1.35618 0
M  V30 13548 O 1308.3 -0.778379 1.60635 0
M  V30 13549 C 1305.4 -1.38878 3.09138 0
M  V30 13550 C 1304.57 -0.852784 4.29006 0
M  V30 13551 C 1303.63 -1.85969 4.92242 0
M  V30 13552 O 1302.65 -1.41497 5.51332 0
M  V30 13553 N 1303.86 -3.19207 4.84858 0
M  V30 13554 H 1306.62 0.417548 2.96777 0
M  V30 13555 H 1304.18 0.368743 1.57645 0
M  V30 13556 H 1306.17 -2.06062 3.48311 0
M  V30 13557 H 1304.74 -1.97343 2.42434 0
M  V30 13558 H 1303.96 -0.0048227 3.942 0
M  V30 13559 H 1305.25 -0.473634 5.06591 0
M  V30 13560 H 1304.65 -3.58001 4.38009 0
M  V30 13561 H 1303.21 -3.82013 5.28119 0
M  V30 13562 N 1306.64 -1.55279 0.269478 0
M  V30 13563 C 1307.59 -2.23723 -0.636468 0
M  V30 13564 C 1308.58 -1.23234 -1.16232 0
M  V30 13565 O 1309.79 -1.41181 -1.1166 0
M  V30 13566 H 1306.16 -0.71793 -0.223788 0
M  V30 13567 H 1308.13 -2.98378 -0.0363057 0
M  V30 13568 C 1306.88 -2.96755 -1.81195 0
M  V30 13569 H 1306.21 -3.73865 -1.4165 0
M  V30 13570 H 1307.65 -3.47975 -2.42258 0
M  V30 13571 C 1306.11 -2.01905 -2.69696 0
M  V30 13572 O 1306.64 -1.56662 -3.69892 0
M  V30 13573 N 1304.84 -1.68524 -2.36744 0
M  V30 13574 H 1304.39 -2.05512 -1.55314 0
M  V30 13575 H 1304.35 -1.05331 -2.96231 0
M  V30 13576 N 1308.12 0.00332656 -1.576 0
M  V30 13577 C 1309.07 0.99581 -2.08212 0
M  V30 13578 C 1310.04 1.34342 -0.976804 0
M  V30 13579 O 1311.22 1.44236 -1.24902 0
M  V30 13580 C 1308.36 2.2836 -2.58739 0
M  V30 13581 C 1307.47 1.99531 -3.8316 0
M  V30 13582 C 1306.61 3.22367 -4.222 0
M  V30 13583 C 1305.65 2.89209 -5.39467 0
M  V30 13584 N 1304.78 4.04572 -5.73817 0
M  V30 13585 H 1309.62 0.55727 -2.92743 0
M  V30 13586 H 1307.16 0.263513 -1.4472 0
M  V30 13587 H 1309.12 3.03639 -2.86111 0
M  V30 13588 H 1307.75 2.69889 -1.77087 0
M  V30 13589 H 1306.8 1.14634 -3.62716 0
M  V30 13590 H 1308.11 1.71089 -4.6854 0
M  V30 13591 H 1307.27 4.05994 -4.50837 0
M  V30 13592 H 1306.01 3.53944 -3.35522 0
M  V30 13593 H 1305.01 2.03989 -5.10557 0
M  V30 13594 H 1306.24 2.58883 -6.27819 0
M  V30 13595 H 1304.18 4.36052 -4.90096 0
M  V30 13596 H 1304.1 3.79643 -6.53764 0
M  V30 13597 H 1305.37 4.88998 -6.07043 0
M  V30 13598 N 1309.6 1.55164 0.276031 0
M  V30 13599 C 1310.56 1.87065 1.32436 0
M  V30 13600 C 1311.56 0.745024 1.42499 0
M  V30 13601 O 1312.75 1.01321 1.41702 0
M  V30 13602 C 1309.88 2.07322 2.70611 0
M  V30 13603 H 1311.07 2.80775 1.05382 0
M  V30 13604 H 1308.63 1.47609 0.513947 0
M  V30 13605 H 1309.36 1.15983 3.0285 0
M  V30 13606 H 1309.15 2.89275 2.64693 0
M  V30 13607 H 1310.64 2.33287 3.46362 0
M  V30 13608 N 1311.07 -0.540404 1.48045 0
M  V30 13609 C 1312.32 -1.2987 1.55762 0
M  V30 13610 C 1312.65 -1.92877 0.226307 0
M  V30 13611 O 1311.93 -1.7875 -0.766727 0
M  V30 13612 C 1312.21 -2.39602 2.68817 0
M  V30 13613 C 1312.06 -1.81354 4.1162 0
M  V30 13614 C 1313.38 -3.41434 2.77688 0
M  V30 13615 H 1310.5 -0.47083 0.566999 0
M  V30 13616 H 1313.14 -0.603081 1.80175 0
M  V30 13617 H 1311.29 -2.98936 2.48132 0
M  V30 13618 H 1312.97 -1.26151 4.43716 0
M  V30 13619 H 1311.21 -1.1194 4.19108 0
M  V30 13620 H 1311.88 -2.60758 4.86528 0
M  V30 13621 H 1314.36 -2.92042 2.96396 0
M  V30 13622 H 1313.23 -4.15621 3.5854 0
M  V30 13623 H 1313.49 -4.01336 1.85422 0
M  V30 13624 N 1312.55 -1.36459 -0.788468 0
M  V30 13625 C 1313.78 -1.33703 -1.57502 0
M  V30 13626 C 1314.19 0.0834961 -1.89016 0
M  V30 13627 O 1313.53 1.05107 -1.50659 0
M  V30 13628 C 1313.6 -2.09424 -2.92201 0
M  V30 13629 C 1313.26 -3.58507 -2.83411 0
M  V30 13630 C 1314.26 -4.52736 -2.5559 0
M  V30 13631 C 1311.94 -4.01405 -3.01959 0
M  V30 13632 C 1313.94 -5.87841 -2.46419 0
M  V30 13633 C 1311.62 -5.366 -2.92409 0
M  V30 13634 C 1312.62 -6.29631 -2.64677 0
M  V30 13635 O 1312.31 -7.62343 -2.55124 0
M  V30 13636 H 1312.04 -0.460221 -0.495149 0
M  V30 13637 H 1314.59 -1.80163 -0.986437 0
M  V30 13638 H 1312.82 -1.5763 -3.53114 0
M  V30 13639 H 1314.51 -1.99515 -3.53481 0
M  V30 13640 H 1315.28 -4.20906 -2.40962 0
M  V30 13641 H 1311.16 -3.29367 -3.2255 0
M  V30 13642 H 1314.7 -6.60423 -2.24694 0
M  V30 13643 H 1310.6 -5.68038 -3.066 0
M  V30 13644 H 1311.37 -7.72476 -2.70598 0
M  V30 13645 N 1314.03 1.01274 -1.20754 0
M  V30 13646 C 1315.28 1.75191 -1.02156 0
M  V30 13647 C 1315.61 1.89038 0.444791 0
M  V30 13648 O 1314.88 1.41903 1.33018 0
M  V30 13649 C 1315.17 3.16892 -1.71031 0
M  V30 13650 C 1315.02 3.10816 -3.25136 0
M  V30 13651 C 1316.34 4.15648 -1.44654 0
M  V30 13652 H 1313.46 0.635922 -0.372521 0
M  V30 13653 H 1316.1 1.18119 -1.48822 0
M  V30 13654 H 1314.25 3.6562 -1.31357 0
M  V30 13655 H 1315.92 2.69863 -3.74128 0
M  V30 13656 H 1314.17 2.48113 -3.5584 0
M  V30 13657 H 1314.84 4.11001 -3.68487 0
M  V30 13658 H 1317.31 3.75592 -1.7908 0
M  V30 13659 H 1316.19 5.12954 -1.95371 0
M  V30 13660 H 1316.45 4.40507 -0.37494 0
M  V30 13661 N 1315.51 1.01404 1.20644 0
M  V30 13662 C 1316.47 0.586941 2.21557 0
M  V30 13663 C 1317.47 -0.341543 1.57131 0
M  V30 13664 O 1318.66 -0.130585 1.7371 0
M  V30 13665 C 1315.79 -0.143248 3.40599 0
M  V30 13666 H 1316.99 1.47964 2.60858 0
M  V30 13667 H 1314.54 0.803551 1.34063 0
M  V30 13668 H 1315.28 -1.05097 3.06798 0
M  V30 13669 H 1315.06 0.523716 3.88587 0
M  V30 13670 H 1316.55 -0.429504 4.15385 0
M  V30 13671 N 1316.99 -1.36373 0.789944 0
M  V30 13672 C 1318.24 -1.98834 0.361866 0
M  V30 13673 C 1318.56 -1.63006 -1.07024 0
M  V30 13674 O 1317.83 -0.904312 -1.73779 0
M  V30 13675 H 1316.41 -0.735457 0.130812 0
M  V30 13676 H 1319.07 -1.66561 1.0121 0
M  V30 13677 H 1318.16 -3.08778 0.454122 0
M  V30 13678 N 1318.47 -0.542005 -1.47987 0
M  V30 13679 C 1319.7 -0.0166928 -2.06593 0
M  V30 13680 C 1320.1 1.27564 -1.39728 0
M  V30 13681 O 1319.45 1.77245 -0.48268 0
M  V30 13682 C 1319.51 0.265501 -3.58518 0
M  V30 13683 C 1319.17 -0.935133 -4.4733 0
M  V30 13684 C 1320.17 -1.83673 -4.86375 0
M  V30 13685 C 1317.85 -1.14552 -4.89063 0
M  V30 13686 C 1319.85 -2.93252 -5.65935 0
M  V30 13687 C 1317.54 -2.24443 -5.68391 0
M  V30 13688 C 1318.53 -3.13625 -6.06736 0
M  V30 13689 O 1318.22 -4.21613 -6.84469 0
M  V30 13690 H 1317.95 -0.0358651 -0.675048 0
M  V30 13691 H 1320.51 -0.750565 -1.91195 0
M  V30 13692 H 1318.74 1.0535 -3.72073 0
M  V30 13693 H 1320.43 0.734348 -3.99202 0
M  V30 13694 H 1321.19 -1.68618 -4.54745 0
M  V30 13695 H 1317.07 -0.460598 -4.58693 0
M  V30 13696 H 1320.62 -3.62888 -5.95783 0
M  V30 13697 H 1316.51 -2.39477 -5.99434 0
M  V30 13698 H 1317.28 -4.19472 -7.02841 0
M  V30 13699 N 1319.94 1.55134 -0.277709 0
M  V30 13700 C 1320.89 2.2263 0.608637 0
M  V30 13701 C 1321.86 1.20067 1.14774 0
M  V30 13702 O 1323.05 1.48617 1.19657 0
M  V30 13703 C 1320.19 2.95308 1.78571 0
M  V30 13704 C 1319.3 4.12595 1.28021 0
M  V30 13705 C 1318.43 4.7291 2.41929 0
M  V30 13706 C 1317.47 5.82386 1.88395 0
M  V30 13707 N 1316.61 6.36754 2.95786 0
M  V30 13708 H 1321.45 2.97988 0.0264138 0
M  V30 13709 H 1318.99 1.471 0.00127068 0
M  V30 13710 H 1320.94 3.35662 2.47764 0
M  V30 13711 H 1319.57 2.22368 2.33992 0
M  V30 13712 H 1318.63 3.77343 0.481297 0
M  V30 13713 H 1319.94 4.91537 0.848128 0
M  V30 13714 H 1319.09 5.15997 3.1911 0
M  V30 13715 H 1317.83 3.93251 2.88453 0
M  V30 13716 H 1316.84 5.38746 1.09694 0
M  V30 13717 H 1318.06 6.63916 1.42803 0
M  V30 13718 H 1316.01 5.59987 3.41687 0
M  V30 13719 H 1315.92 7.10975 2.57002 0
M  V30 13720 H 1317.19 6.845 3.72935 0
M  V30 13721 N 1321.42 0.00503138 1.57599 0
M  V30 13722 C 1322.67 -0.677979 1.89964 0
M  V30 13723 C 1322.98 -1.74657 0.88059 0
M  V30 13724 O 1324.19 -2.48455 1.09463 0
M  V30 13725 C 1322.65 -1.25708 3.37232 0
M  V30 13726 C 1322.25 -0.223045 4.47444 0
M  V30 13727 C 1324 -1.91799 3.787 0
M  V30 13728 C 1321.9 -0.812416 5.85793 0
M  V30 13729 H 1320.83 -0.256991 0.708852 0
M  V30 13730 H 1323.49 0.0663988 1.8338 0
M  V30 13731 H 1321.87 -2.05228 3.3867 0
M  V30 13732 H 1323.04 0.54794 4.57531 0
M  V30 13733 H 1321.36 0.337714 4.15028 0
M  V30 13734 H 1323.95 -2.36808 4.79402 0
M  V30 13735 H 1324.3 -2.75067 3.1248 0
M  V30 13736 H 1324.83 -1.19004 3.79583 0
M  V30 13737 H 1321.57 -0.0184031 6.55497 0
M  V30 13738 H 1321.09 -1.55244 5.79361 0
M  V30 13739 H 1322.77 -1.30952 6.33609 0
M  V30 13740 N 1322.9 -1.55308 -0.267798 0
M  V30 13741 C 1324.14 -1.77913 -1.0063 0
M  V30 13742 C 1324.5 -0.571149 -1.83308 0
M  V30 13743 O 1325.7 -0.675552 -2.60173 0
M  V30 13744 C 1323.98 -3.05112 -1.86123 0
M  V30 13745 S 1325.53 -3.48856 -2.66167 0
M  V30 13746 H 1322.35 -0.625065 -0.338843 0
M  V30 13747 H 1324.95 -1.93539 -0.276196 0
M  V30 13748 H 1323.66 -3.91118 -1.24317 0
M  V30 13749 H 1323.19 -2.92165 -2.63444 0
M  V30 13750 H 1325.2 -3.0854 -3.8861 0
M  V30 13751 N 1324.38 0.532545 -1.4833 0
M  V30 13752 C 1325.33 1.65832 -1.63103 0
M  V30 13753 C 1326.32 1.61929 -0.497538 0
M  V30 13754 O 1327.53 1.66817 -0.676176 0
M  V30 13755 H 1323.9 0.549152 -0.513748 0
M  V30 13756 H 1325.87 1.50515 -2.57658 0
M  V30 13757 C 1324.62 3.04113 -1.68555 0
M  V30 13758 H 1323.94 3.07809 -2.55135 0
M  V30 13759 H 1325.38 3.82506 -1.82936 0
M  V30 13760 C 1323.84 3.34225 -0.423711 0
M  V30 13761 O 1324.37 3.99005 0.464523 0
M  V30 13762 N 1322.58 2.89087 -0.296192 0
M  V30 13763 H 1322.13 2.36547 -1.01997 0
M  V30 13764 H 1322.08 3.09604 0.547082 0
M  V30 13765 N 1325.86 1.36875 0.78122 0
M  V30 13766 C 1327.09 1.34537 1.56791 0
M  V30 13767 C 1327.49 -0.0734709 1.89057 0
M  V30 13768 O 1326.84 -1.04307 1.51215 0
M  V30 13769 C 1326.9 2.10971 2.91087 0
M  V30 13770 C 1326.56 3.60005 2.81506 0
M  V30 13771 C 1327.56 4.54085 2.53185 0
M  V30 13772 C 1325.24 4.03001 2.99826 0
M  V30 13773 C 1327.24 5.89139 2.43298 0
M  V30 13774 C 1324.93 5.38144 2.89559 0
M  V30 13775 C 1325.92 6.31026 2.61335 0
M  V30 13776 O 1325.61 7.63685 2.51077 0
M  V30 13777 H 1325.34 0.46284 0.492702 0
M  V30 13778 H 1327.9 1.80683 0.976869 0
M  V30 13779 H 1326.13 1.595 3.52274 0
M  V30 13780 H 1327.82 2.01387 3.52418 0
M  V30 13781 H 1328.58 4.22178 2.38727 0
M  V30 13782 H 1324.46 3.31073 3.20799 0
M  V30 13783 H 1328.01 6.61605 2.21188 0
M  V30 13784 H 1323.9 5.69656 3.03583 0
M  V30 13785 H 1324.67 7.739 2.66498 0
M  V30 13786 N 1327.33 -1.00632 1.21289 0
M  V30 13787 C 1328.28 -2.07791 0.938459 0
M  V30 13788 C 1329.27 -1.60552 -0.105773 0
M  V30 13789 O 1330.46 -1.767 0.102981 0
M  V30 13790 C 1327.59 -3.39587 0.503563 0
M  V30 13791 C 1326.67 -3.93497 1.58179 0
M  V30 13792 N 1327.07 -4.20792 2.80656 0
M  V30 13793 C 1325.36 -4.21759 1.45035 0
M  V30 13794 C 1326.06 -4.64411 3.50281 0
M  V30 13795 N 1325.04 -4.67305 2.77717 0
M  V30 13796 H 1328.84 -2.26816 1.869 0
M  V30 13797 H 1326.36 -1.18692 1.10842 0
M  V30 13798 H 1328.35 -4.15902 0.288323 0
M  V30 13799 H 1327.01 -3.21969 -0.420233 0
M  V30 13800 H 1328.02 -4.09386 3.17212 0
M  V30 13801 H 1324.7 -4.13285 0.591745 0
M  V30 13802 H 1326.09 -4.94263 4.55141 0
M  V30 13803 N 1328.81 -1.02043 -1.20104 0
M  V30 13804 C 1329.74 -0.614421 -2.25271 0
M  V30 13805 C 1330.72 0.37242 -1.65973 0
M  V30 13806 O 1331.91 0.257005 -1.92492 0
M  V30 13807 C 1329.04 0.0442085 -3.47272 0
M  V30 13808 C 1327.99 -0.864019 -4.19188 0
M  V30 13809 C 1327.32 -0.0709551 -5.34653 0
M  V30 13810 C 1328.62 -2.17385 -4.74912 0
M  V30 13811 H 1330.31 -1.49355 -2.59487 0
M  V30 13812 H 1327.86 -0.719591 -1.24731 0
M  V30 13813 H 1329.81 0.339825 -4.20028 0
M  V30 13814 H 1328.53 0.958082 -3.12231 0
M  V30 13815 H 1327.19 -1.1437 -3.48303 0
M  V30 13816 H 1326.84 0.844688 -4.95857 0
M  V30 13817 H 1326.54 -0.67583 -5.83701 0
M  V30 13818 H 1328.07 0.218118 -6.1021 0
M  V30 13819 H 1329.48 -1.94034 -5.39466 0
M  V30 13820 H 1327.88 -2.72991 -5.34412 0
M  V30 13821 H 1328.95 -2.83427 -3.93443 0
M  V30 13822 N 1330.29 1.35952 -0.797165 0
M  V30 13823 C 1331.25 2.28266 -0.206748 0
M  V30 13824 C 1332.25 1.49169 0.60043 0
M  V30 13825 O 1333.44 1.69054 0.42029 0
M  V30 13826 C 1330.58 3.33363 0.712884 0
M  V30 13827 H 1331.77 2.81992 -1.02082 0
M  V30 13828 H 1329.32 1.45648 -0.567138 0
M  V30 13829 H 1330.06 2.84806 1.551 0
M  V30 13830 H 1329.84 3.91864 0.135926 0
M  V30 13831 H 1331.33 4.02284 1.1206 0
M  V30 13832 N 1331.77 0.549846 1.47697 0
M  V30 13833 C 1333 0.0276889 2.06881 0
M  V30 13834 C 1333.41 -1.26273 1.40359 0
M  V30 13835 O 1332.77 -1.75584 0.497644 0
M  V30 13836 C 1332.82 -0.179291 3.61055 0
M  V30 13837 O 1332.54 1.06002 4.25083 0
M  V30 13838 C 1334.04 -0.739571 4.37087 0
M  V30 13839 H 1331.26 0.0425016 0.669653 0
M  V30 13840 H 1333.81 0.761158 1.89807 0
M  V30 13841 H 1331.96 -0.862867 3.77668 0
M  V30 13842 H 1332.37 0.853137 5.17515 0
M  V30 13843 H 1333.85 -0.833722 5.45668 0
M  V30 13844 H 1334.33 -1.74915 4.02867 0
M  V30 13845 H 1334.93 -0.0919294 4.25201 0
M  V30 13846 N 1333.25 -1.54984 0.285932 0
M  V30 13847 C 1334.66 -1.85519 -0.209707 0
M  V30 13848 C 1335.01 -1.20794 -1.54606 0
M  V30 13849 O 1334.13 -0.500159 -2.10541 0
M  V30 13850 C 1334.73 -3.36579 -0.387283 0
M  V30 13851 C 1333.29 -3.67199 -0.827148 0
M  V30 13852 C 1332.43 -2.77203 0.073308 0
M  V30 13853 H 1335.39 -1.5037 0.507404 0
M  V30 13854 H 1335.41 -3.60269 -1.2242 0
M  V30 13855 H 1334.92 -3.83658 0.585493 0
M  V30 13856 H 1333.02 -3.25627 -1.81101 0
M  V30 13857 H 1333.13 -4.74574 -0.656976 0
M  V30 13858 H 1331.5 -2.50785 -0.444859 0
M  V30 13859 H 1332.28 -3.27099 1.04216 0
M  V30 13860 N 1334.72 -0.0133892 -1.57594 0
M  V30 13861 C 1335.95 0.682855 -1.95836 0
M  V30 13862 C 1336.37 1.65763 -0.889049 0
M  V30 13863 O 1335.73 1.80665 0.151585 0
M  V30 13864 C 1335.78 1.37931 -3.33178 0
M  V30 13865 O 1334.88 2.49416 -3.28429 0
M  V30 13866 H 1334.23 0.180629 -0.638959 0
M  V30 13867 H 1336.76 -0.0705644 -2.04478 0
M  V30 13868 H 1336.77 1.73969 -3.69051 0
M  V30 13869 H 1335.44 0.664675 -4.10554 0
M  V30 13870 H 1334.02 2.15606 -3.04251 0
M  V30 13871 N 1336.2 1.55448 0.259558 0
M  V30 13872 C 1337.48 1.6742 1.01143 0
M  V30 13873 C 1337.86 0.549525 2.03822 0
M  V30 13874 O 1337.21 -0.448699 2.24051 0
M  V30 13875 C 1337.42 3.07201 1.65616 0
M  V30 13876 C 1338.77 3.6539 2.16277 0
M  V30 13877 O 1339.79 3.0992 1.7558 0
M  V30 13878 O 1338.65 4.62604 2.90963 0
M  V30 13879 H 1335.74 0.680469 0.469991 0
M  V30 13880 H 1338.29 1.67783 0.254348 0
M  V30 13881 H 1337.06 3.80504 0.912819 0
M  V30 13882 H 1336.68 3.10794 2.47977 0
M  V30 13883 N 1337.68 -0.524672 1.4861 0
M  V30 13884 C 1338.63 -1.62504 1.59927 0
M  V30 13885 C 1339.61 -1.543 0.456094 0
M  V30 13886 O 1340.81 -1.62231 0.707818 0
M  V30 13887 C 1337.94 -3.01207 1.64709 0
M  V30 13888 C 1337.02 -3.14495 2.84523 0
M  V30 13889 N 1337.41 -2.97741 4.08882 0
M  V30 13890 C 1335.71 -3.45559 2.81967 0
M  V30 13891 C 1336.41 -3.14585 4.89297 0
M  V30 13892 N 1335.39 -3.424 4.22212 0
M  V30 13893 H 1339.19 -1.48168 2.53818 0
M  V30 13894 H 1336.7 -0.730258 1.45055 0
M  V30 13895 H 1338.7 -3.80257 1.7091 0
M  V30 13896 H 1337.36 -3.16631 0.719376 0
M  V30 13897 H 1338.37 -2.74395 4.39235 0
M  V30 13898 H 1335.05 -3.67307 1.98474 0
M  V30 13899 H 1336.44 -3.06324 5.98009 0
M  V30 13900 N 1339.16 -1.37287 -0.77395 0
M  V30 13901 C 1340.09 -1.35569 -1.90114 0
M  V30 13902 C 1341.07 -0.224658 -1.6861 0
M  V30 13903 O 1342.25 -0.424676 -1.895 0
M  V30 13904 C 1339.38 -1.15971 -3.27365 0
M  V30 13905 C 1338.34 -2.26063 -3.63427 0
M  V30 13906 C 1337.66 -1.9159 -4.99197 0
M  V30 13907 C 1338.96 -3.68236 -3.70405 0
M  V30 13908 H 1340.66 -2.29891 -1.91808 0
M  V30 13909 H 1338.2 -1.10661 -0.92142 0
M  V30 13910 H 1340.16 -1.134 -4.05855 0
M  V30 13911 H 1338.88 -0.181043 -3.26098 0
M  V30 13912 H 1337.54 -2.27786 -2.87244 0
M  V30 13913 H 1337.19 -0.922586 -4.94467 0
M  V30 13914 H 1336.89 -2.65309 -5.24294 0
M  V30 13915 H 1338.41 -1.90602 -5.80089 0
M  V30 13916 H 1339.83 -3.68655 -4.39052 0
M  V30 13917 H 1338.22 -4.4099 -4.06999 0
M  V30 13918 H 1339.29 -4.02021 -2.71122 0
M  V30 13919 N 1340.64 0.999871 -1.21821 0
M  V30 13920 C 1341.58 2.10985 -0.979183 0
M  V30 13921 C 1342.58 1.69232 0.0753287 0
M  V30 13922 O 1343.78 1.79837 -0.0765083 0
M  V30 13923 H 1340.16 0.689819 -0.299421 0
M  V30 13924 H 1342.13 2.28322 -1.92124 0
M  V30 13925 C 1340.88 3.43062 -0.56602 0
M  V30 13926 H 1340.2 3.75627 -1.36909 0
M  V30 13927 H 1341.64 4.2173 -0.43813 0
M  V30 13928 C 1340.1 3.29036 0.723647 0
M  V30 13929 O 1340.63 3.60214 1.77788 0
M  V30 13930 N 1338.84 2.82237 0.692126 0
M  V30 13931 H 1338.38 2.57064 -0.166082 0
M  V30 13932 H 1338.34 2.73235 1.55532 0
M  V30 13933 N 1342.11 1.02678 1.19562 0
M  V30 13934 C 1343.08 0.610407 2.20922 0
M  V30 13935 C 1344.08 -0.324858 1.57484 0
M  V30 13936 O 1345.27 -0.112153 1.73839 0
M  V30 13937 C 1342.4 -0.107115 3.40732 0
M  V30 13938 H 1343.59 1.50722 2.59274 0
M  V30 13939 H 1341.15 0.817725 1.33203 0
M  V30 13940 H 1341.88 -1.01837 3.07896 0
M  V30 13941 H 1341.67 0.564901 3.88009 0
M  V30 13942 H 1343.16 -0.385423 4.15818 0
M  V30 13943 N 1343.59 -1.35528 0.804364 0
M  V30 13944 C 1344.84 -1.98084 0.380196 0
M  V30 13945 C 1345.15 -1.64531 -1.05778 0
M  V30 13946 O 1346.36 -2.20435 -1.58495 0
M  V30 13947 C 1344.82 -3.54364 0.628848 0
M  V30 13948 C 1344.42 -3.96828 2.07921 0
M  V30 13949 C 1346.17 -4.23641 0.269927 0
M  V30 13950 C 1344.08 -5.45944 2.27374 0
M  V30 13951 H 1343.01 -0.741185 0.138422 0
M  V30 13952 H 1345.66 -1.54624 0.988107 0
M  V30 13953 H 1344.04 -3.9597 -0.0489837 0
M  V30 13954 H 1345.21 -3.6638 2.79467 0
M  V30 13955 H 1343.53 -3.40433 2.39779 0
M  V30 13956 H 1346.12 -5.33251 0.393344 0
M  V30 13957 H 1346.47 -4.08858 -0.783644 0
M  V30 13958 H 1347 -3.87448 0.901588 0
M  V30 13959 H 1343.74 -5.65693 3.31168 0
M  V30 13960 H 1343.26 -5.77969 1.6035 0
M  V30 13961 H 1344.94 -6.12376 2.08817 0
M  V30 13962 N 1345.07 -0.557671 -1.47404 0
M  V30 13963 C 1346.3 -0.0366797 -2.07368 0
M  V30 13964 C 1346.72 1.2478 -1.40754 0
M  V30 13965 O 1346.08 1.74757 -0.48268 0
M  V30 13966 C 1346.13 0.141728 -3.60321 0
M  V30 13967 O 1345.23 1.20419 -3.94427 0
M  V30 13968 H 1344.57 -0.0515319 -0.661997 0
M  V30 13969 H 1347.1 -0.773485 -1.89416 0
M  V30 13970 H 1347.11 0.355787 -4.06446 0
M  V30 13971 H 1345.79 -0.796433 -4.08203 0
M  V30 13972 H 1344.36 0.970589 -3.60047 0
M  V30 13973 N 1346.55 1.54831 -0.294147 0
M  V30 13974 C 1347.8 2.00298 0.317605 0
M  V30 13975 C 1348.13 1.18228 1.54064 0
M  V30 13976 O 1347.4 0.257034 1.92794 0
M  V30 13977 C 1347.69 3.53602 0.680991 0
M  V30 13978 C 1347.54 4.46416 -0.550711 0
M  V30 13979 C 1348.86 4.13379 1.51016 0
M  V30 13980 H 1345.98 0.728135 0.113965 0
M  V30 13981 H 1348.62 1.85636 -0.404883 0
M  V30 13982 H 1346.77 3.66227 1.29654 0
M  V30 13983 H 1348.44 4.45707 -1.18922 0
M  V30 13984 H 1346.68 4.17294 -1.18524 0
M  V30 13985 H 1347.36 5.51423 -0.252412 0
M  V30 13986 H 1349.83 4.04148 0.99012 0
M  V30 13987 H 1348.71 5.20818 1.73321 0
M  V30 13988 H 1348.97 3.64817 2.49722 0
M  V30 13989 N 1348.03 0.0217466 1.57585 0
M  V30 13990 C 1348.96 -0.961069 2.12804 0
M  V30 13991 C 1349.94 -1.3442 1.04237 0
M  V30 13992 O 1351.12 -1.42412 1.32032 0
M  V30 13993 C 1348.25 -2.24586 2.64912 0
M  V30 13994 C 1347.21 -2.0037 3.78201 0
M  V30 13995 C 1346.53 -3.35051 4.16708 0
M  V30 13996 C 1347.83 -1.34879 5.04584 0
M  V30 13997 H 1349.53 -0.501222 2.95175 0
M  V30 13998 H 1347.07 -0.239649 1.41992 0
M  V30 13999 H 1349.03 -2.93715 3.02175 0
M  V30 14000 H 1347.75 -2.72723 1.79693 0
M  V30 14001 H 1346.41 -1.33662 3.41365 0
M  V30 14002 H 1346.06 -3.80932 3.28481 0
M  V30 14003 H 1345.76 -3.19656 4.93045 0
M  V30 14004 H 1347.28 -4.05459 4.56547 0
M  V30 14005 H 1348.7 -1.93997 5.3948 0
M  V30 14006 H 1347.09 -1.29906 5.85871 0
M  V30 14007 H 1348.16 -0.320774 4.83838 0
M  V30 14008 N 1349.51 -1.55583 -0.251311 0
M  V30 14009 C 1350.75 -1.78389 -0.977194 0
M  V30 14010 C 1351.11 -0.589958 -1.83132 0
M  V30 14011 O 1350.4 0.416909 -1.87009 0
M  V30 14012 C 1350.59 -3.04291 -1.87461 0
M  V30 14013 C 1350.42 -4.35815 -1.10885 0
M  V30 14014 C 1349.19 -4.98672 -0.815731 0
M  V30 14015 C 1351.39 -5.11974 -0.488591 0
M  V30 14016 N 1349.37 -6.13895 -0.0254438 0
M  V30 14017 C 1350.74 -6.19776 0.166483 0
M  V30 14018 C 1352.8 -4.96302 -0.398613 0
M  V30 14019 C 1351.5 -7.13611 0.90289 0
M  V30 14020 C 1353.53 -5.9051 0.324252 0
M  V30 14021 C 1352.89 -6.97717 0.96798 0
M  V30 14022 H 1348.99 -0.70478 -0.338836 0
M  V30 14023 H 1351.57 -1.93079 -0.250746 0
M  V30 14024 H 1349.74 -2.90937 -2.57313 0
M  V30 14025 H 1351.48 -3.15409 -2.53573 0
M  V30 14026 H 1348.23 -4.60009 -1.12642 0
M  V30 14027 H 1348.65 -6.76055 0.357664 0
M  V30 14028 H 1353.3 -4.13499 -0.881967 0
M  V30 14029 H 1351.01 -7.95918 1.39786 0
M  V30 14030 H 1354.6 -5.80461 0.39448 0
M  V30 14031 H 1353.48 -7.6936 1.5184 0
M  V30 14032 N 1350.98 0.516783 -1.48886 0
M  V30 14033 C 1352.26 1.27808 -1.48069 0
M  V30 14034 C 1352.64 2.10154 -0.19963 0
M  V30 14035 O 1351.99 2.13342 0.818386 0
M  V30 14036 C 1352.2 2.14828 -2.75045 0
M  V30 14037 C 1353.55 2.74536 -3.23906 0
M  V30 14038 O 1354.57 2.25107 -2.76053 0
M  V30 14039 O 1353.43 3.6448 -4.07206 0
M  V30 14040 H 1350.52 0.577535 -0.591931 0
M  V30 14041 H 1353.07 0.532351 -1.61134 0
M  V30 14042 H 1351.84 1.53852 -3.59785 0
M  V30 14043 H 1351.46 2.96624 -2.64764 0
M  V30 14044 N 1352.46 1.37696 0.766659 0
M  V30 14045 C 1353.88 1.18607 1.06792 0
M  V30 14046 C 1354.08 0.0257195 2.01484 0
M  V30 14047 O 1353.13 -0.632608 2.44447 0
M  V30 14048 C 1354.45 2.50692 1.66054 0
M  V30 14049 C 1355.99 2.57259 1.78288 0
M  V30 14050 C 1356.47 3.89488 2.40963 0
M  V30 14051 N 1357.96 3.90957 2.48408 0
M  V30 14052 C 1358.7 4.90023 2.97767 0
M  V30 14053 N 1358.19 5.99485 3.4726 0
M  V30 14054 N 1359.98 4.77423 2.96688 0
M  V30 14055 H 1352.14 2.11951 0.138031 0
M  V30 14056 H 1354.4 0.939873 0.123863 0
M  V30 14057 H 1354.1 3.35989 1.03945 0
M  V30 14058 H 1353.98 2.68148 2.65286 0
M  V30 14059 H 1356.37 1.72366 2.39528 0
M  V30 14060 H 1356.45 2.43682 0.777981 0
M  V30 14061 H 1356.09 4.74797 1.8036 0
M  V30 14062 H 1356.02 4.0037 3.42069 0
M  V30 14063 H 1358.51 3.11888 2.13388 0
M  V30 14064 H 1358.82 6.71022 3.8334 0
M  V30 14065 H 1357.17 6.03123 3.45351 0
M  V30 14066 H 1360.36 3.91026 2.57325 0
M  V30 14067 H 1360.53 5.54783 3.34844 0
M  V30 14068 N 1353.94 -0.993397 1.22349 0
M  V30 14069 C 1355.22 -1.7063 0.956275 0
M  V30 14070 C 1355.6 -2.0437 -0.52877 0
M  V30 14071 O 1354.94 -1.72662 -1.49667 0
M  V30 14072 C 1355.15 -2.95725 1.85331 0
M  V30 14073 C 1356.5 -3.68514 2.10909 0
M  V30 14074 O 1357.53 -3.05732 1.82775 0
M  V30 14075 O 1356.39 -4.81468 2.58556 0
M  V30 14076 H 1353.48 -0.744734 0.359583 0
M  V30 14077 H 1356.03 -1.04979 1.33333 0
M  V30 14078 H 1354.8 -2.6729 2.85782 0
M  V30 14079 H 1354.42 -3.69116 1.47781 0
M  V30 14080 N 1355.42 -1.03311 -1.19015 0
M  V30 14081 C 1356.35 -0.638279 -2.24607 0
M  V30 14082 C 1357.33 0.354795 -1.66359 0
M  V30 14083 O 1358.51 0.236574 -1.92754 0
M  V30 14084 C 1355.64 0.00737316 -3.47299 0
M  V30 14085 C 1354.6 -0.908431 -4.18248 0
M  V30 14086 C 1353.92 -0.127658 -5.34548 0
M  V30 14087 C 1355.22 -2.2241 -4.72579 0
M  V30 14088 H 1356.92 -1.52099 -2.57888 0
M  V30 14089 H 1354.46 -0.732779 -1.23961 0
M  V30 14090 H 1356.42 0.295256 -4.20364 0
M  V30 14091 H 1355.14 0.924912 -3.1323 0
M  V30 14092 H 1353.8 -1.18058 -3.47071 0
M  V30 14093 H 1353.45 0.792048 -4.96725 0
M  V30 14094 H 1353.15 -0.737702 -5.82951 0
M  V30 14095 H 1354.67 0.153385 -6.10407 0
M  V30 14096 H 1356.09 -1.99745 -5.37378 0
M  V30 14097 H 1354.48 -2.78644 -5.31486 0
M  V30 14098 H 1355.55 -2.87584 -3.90415 0
M  V30 14099 N 1356.9 1.35099 -0.81154 0
M  V30 14100 C 1357.83 2.2756 -0.170838 0
M  V30 14101 C 1358.81 1.48331 0.666085 0
M  V30 14102 O 1359.99 1.77579 0.632294 0
M  V30 14103 C 1357.12 3.30006 0.762483 0
M  V30 14104 C 1356.16 4.265 0.00454934 0
M  V30 14105 S 1357 5.18595 -1.33488 0
M  V30 14106 C 1358.15 6.24581 -0.406132 0
M  V30 14107 H 1358.39 2.81553 -0.95475 0
M  V30 14108 H 1355.92 1.41974 -0.606851 0
M  V30 14109 H 1357.88 3.89523 1.29545 0
M  V30 14110 H 1356.54 2.74882 1.51982 0
M  V30 14111 H 1355.73 4.98922 0.71361 0
M  V30 14112 H 1355.33 3.71178 -0.458613 0
M  V30 14113 H 1357.62 6.76278 0.406707 0
M  V30 14114 H 1358.57 6.99509 -1.09969 0
M  V30 14115 H 1358.98 5.645 0.000376348 0
M  V30 14116 N 1358.37 0.56548 1.47106 0
M  V30 14117 C 1359.62 0.0445914 2.02751 0
M  V30 14118 C 1359.95 -1.30517 1.43801 0
M  V30 14119 O 1359.23 -1.85123 0.596646 0
M  V30 14120 C 1359.51 -0.0396474 3.60078 0
M  V30 14121 C 1359.36 1.3378 4.29445 0
M  V30 14122 C 1360.68 -0.748954 4.3368 0
M  V30 14123 H 1357.8 0.0176787 0.736788 0
M  V30 14124 H 1360.44 0.729363 1.75443 0
M  V30 14125 H 1358.59 -0.622826 3.83475 0
M  V30 14126 H 1360.27 1.96482 4.17364 0
M  V30 14127 H 1358.51 1.91024 3.89477 0
M  V30 14128 H 1359.18 1.23149 5.38088 0
M  V30 14129 H 1361.66 -0.253707 4.15326 0
M  V30 14130 H 1360.53 -0.776877 5.43374 0
M  V30 14131 H 1360.79 -1.80679 4.03494 0
M  V30 14132 N 1359.85 -1.54672 0.302354 0
M  V30 14133 C 1361.1 -2.00463 -0.306978 0
M  V30 14134 C 1361.43 -1.19043 -1.53435 0
M  V30 14135 O 1360.71 -0.267255 -1.92655 0
M  V30 14136 C 1360.99 -3.53958 -0.662229 0
M  V30 14137 C 1360.84 -4.46118 0.574378 0
M  V30 14138 C 1362.16 -4.14174 -1.48821 0
M  V30 14139 H 1359.28 -0.728729 -0.110102 0
M  V30 14140 H 1361.92 -1.85419 0.414722 0
M  V30 14141 H 1360.07 -3.66909 -1.2771 0
M  V30 14142 H 1361.74 -4.45071 1.21284 0
M  V30 14143 H 1359.99 -4.1666 1.20736 0
M  V30 14144 H 1360.66 -5.51281 0.281651 0
M  V30 14145 H 1363.13 -4.04668 -0.968674 0
M  V30 14146 H 1362.01 -5.2173 -1.70556 0
M  V30 14147 H 1362.27 -3.66136 -2.47784 0
M  V30 14148 N 1361.33 -0.0301034 -1.57571 0
M  V30 14149 C 1362.24 0.967086 -2.1374 0
M  V30 14150 C 1363.26 1.35636 -1.0899 0
M  V30 14151 O 1364.43 1.43758 -1.41052 0
M  V30 14152 C 1361.5 2.23058 -2.65417 0
M  V30 14153 C 1360.56 1.90163 -3.84885 0
M  V30 14154 C 1359.79 3.10488 -4.34088 0
M  V30 14155 O 1360.01 4.23179 -3.8246 0
M  V30 14156 O 1358.95 2.92729 -5.25921 0
M  V30 14157 H 1362.77 0.519486 -2.99224 0
M  V30 14158 H 1360.36 0.190559 -1.4818 0
M  V30 14159 H 1362.24 2.97229 -2.98719 0
M  V30 14160 H 1360.92 2.66997 -1.83015 0
M  V30 14161 H 1359.82 1.13373 -3.56507 0
M  V30 14162 H 1361.16 1.51039 -4.68453 0
M  V30 14163 N 1362.81 1.55714 0.243056 0
M  V30 14164 C 1364.03 1.82126 0.992219 0
M  V30 14165 C 1364.46 0.607665 1.78014 0
M  V30 14166 O 1363.82 -0.443351 1.75796 0
M  V30 14167 C 1363.86 3.06314 1.90274 0
M  V30 14168 O 1362.97 2.83499 2.99503 0
M  V30 14169 H 1362.31 0.601082 0.282128 0
M  V30 14170 H 1364.84 2.02904 0.262881 0
M  V30 14171 H 1364.85 3.35849 2.31666 0
M  V30 14172 H 1363.52 3.94282 1.32344 0
M  V30 14173 H 1362.1 2.65141 2.62211 0
M  V30 14174 N 1364.29 -0.50888 1.49158 0
M  V30 14175 C 1365.7 -0.839353 1.35746 0
M  V30 14176 C 1365.9 -1.97797 0.38453 0
M  V30 14177 O 1364.96 -2.51809 -0.186651 0
M  V30 14178 C 1366.27 -1.18698 2.76281 0
M  V30 14179 C 1367.82 -1.29565 2.84924 0
M  V30 14180 C 1368.29 -1.67661 4.26209 0
M  V30 14181 N 1369.79 -1.74725 4.28982 0
M  V30 14182 C 1370.52 -2.05631 5.3526 0
M  V30 14183 N 1370.02 -2.34814 6.51793 0
M  V30 14184 N 1371.81 -2.06815 5.2267 0
M  V30 14185 H 1363.96 0.242065 2.11016 0
M  V30 14186 H 1366.22 0.0456901 0.946898 0
M  V30 14187 H 1365.93 -0.423769 3.49138 0
M  V30 14188 H 1365.8 -2.13227 3.11149 0
M  V30 14189 H 1368.19 -2.0496 2.1231 0
M  V30 14190 H 1368.27 -0.331059 2.53649 0
M  V30 14191 H 1367.92 -0.928198 4.99346 0
M  V30 14192 H 1367.85 -2.65207 4.54943 0
M  V30 14193 H 1370.34 -1.54364 3.44935 0
M  V30 14194 H 1370.65 -2.57562 7.28616 0
M  V30 14195 H 1368.99 -2.32288 6.55032 0
M  V30 14196 H 1372.19 -1.83487 4.30639 0
M  V30 14197 H 1372.36 -2.30568 6.05593 0
M  V30 14198 N 1365.76 -1.381 -0.759346 0
M  V30 14199 C 1366.73 -1.34674 -1.8546 0
M  V30 14200 C 1367.73 -0.248351 -1.58871 0
M  V30 14201 O 1368.92 -0.504915 -1.66722 0
M  V30 14202 C 1366.05 -1.0952 -3.22828 0
M  V30 14203 H 1367.24 -2.3211 -1.89908 0
M  V30 14204 H 1364.8 -1.2331 -0.960435 0
M  V30 14205 H 1365.53 -0.126664 -3.24053 0
M  V30 14206 H 1365.32 -1.89037 -3.43522 0
M  V30 14207 H 1366.81 -1.09804 -4.02906 0
M  V30 14208 N 1367.24 0.986894 -1.22875 0
M  V30 14209 C 1368.17 2.08035 -0.961971 0
M  V30 14210 C 1369.19 1.62683 0.0616475 0
M  V30 14211 O 1370.38 1.77659 -0.173094 0
M  V30 14212 C 1367.48 3.36208 -0.426302 0
M  V30 14213 C 1366.65 4.10562 -1.50856 0
M  V30 14214 C 1365.71 5.17014 -0.97891 0
M  V30 14215 O 1364.73 5.44259 -1.66645 0
M  V30 14216 N 1365.94 5.80167 0.196613 0
M  V30 14217 H 1368.7 2.315 -1.90336 0
M  V30 14218 H 1366.26 1.1531 -1.13645 0
M  V30 14219 H 1368.25 4.0466 -0.0571577 0
M  V30 14220 H 1366.82 3.09761 0.420345 0
M  V30 14221 H 1366.04 3.36656 -2.05076 0
M  V30 14222 H 1367.33 4.57007 -2.23655 0
M  V30 14223 H 1366.73 5.60409 0.771892 0
M  V30 14224 H 1365.29 6.49825 0.507083 0
M  V30 14225 N 1368.72 1.0394 1.18466 0
M  V30 14226 C 1369.97 0.740576 1.88042 0
M  V30 14227 C 1370.29 -0.733822 1.80666 0
M  V30 14228 O 1369.56 -1.52943 1.22414 0
M  V30 14229 H 1368.14 0.270949 0.696129 0
M  V30 14230 H 1370.8 1.31588 1.43772 0
M  V30 14231 H 1369.9 1.04429 2.94111 0
M  V30 14232 N 1370.2 -1.34667 0.818693 0
M  V30 14233 C 1371.43 -2.02642 0.417608 0
M  V30 14234 C 1371.84 -1.61667 -0.97516 0
M  V30 14235 O 1371.2 -0.820056 -1.63038 0
M  V30 14236 C 1371.25 -3.57951 0.505295 0
M  V30 14237 O 1370.97 -3.97441 1.84317 0
M  V30 14238 C 1372.47 -4.4319 0.0985667 0
M  V30 14239 H 1369.69 -0.6496 0.168111 0
M  V30 14240 H 1372.24 -1.72032 1.10568 0
M  V30 14241 H 1370.39 -3.87166 -0.134646 0
M  V30 14242 H 1370.8 -4.92116 1.81444 0
M  V30 14243 H 1372.28 -5.51597 0.211015 0
M  V30 14244 H 1372.76 -4.28637 -0.95745 0
M  V30 14245 H 1373.36 -4.19295 0.71214 0
M  V30 14246 N 1371.68 -0.573274 -1.46804 0
M  V30 14247 C 1372.95 0.011163 -1.95597 0
M  V30 14248 C 1373.33 1.4691 -1.51594 0
M  V30 14249 O 1372.68 2.15413 -0.76221 0
M  V30 14250 C 1372.89 -0.151045 -3.48673 0
M  V30 14251 C 1374.24 -0.0139817 -4.24598 0
M  V30 14252 O 1375.26 -0.0794008 -3.56111 0
M  V30 14253 O 1374.12 0.129547 -5.46346 0
M  V30 14254 H 1371.22 0.0551258 -0.825161 0
M  V30 14255 H 1373.76 -0.640928 -1.57131 0
M  V30 14256 H 1372.53 -1.16494 -3.73557 0
M  V30 14257 H 1372.16 0.537917 -3.93944 0
M  V30 14258 N 1373.15 1.5451 -0.310553 0
M  V30 14259 C 1374.38 2.04739 0.29824 0
M  V30 14260 C 1374.8 1.18737 1.46788 0
M  V30 14261 O 1374.15 0.215114 1.81228 0
M  V30 14262 C 1374.21 3.53734 0.745274 0
M  V30 14263 O 1373.93 4.36468 -0.377826 0
M  V30 14264 C 1375.43 4.20001 1.41823 0
M  V30 14265 H 1372.65 0.667997 0.0634159 0
M  V30 14266 H 1375.19 1.9942 -0.452961 0
M  V30 14267 H 1373.35 3.59383 1.44648 0
M  V30 14268 H 1373.76 5.24492 -0.0280567 0
M  V30 14269 H 1375.23 5.25747 1.68209 0
M  V30 14270 H 1375.71 3.70319 2.36137 0
M  V30 14271 H 1376.32 4.18455 0.759951 0
M  V30 14272 N 1374.63 0.0384594 1.57553 0
M  V30 14273 C 1375.88 -0.637533 1.91359 0
M  V30 14274 C 1376.2 -1.7275 0.91744 0
M  V30 14275 O 1377.4 -2.46078 1.14709 0
M  V30 14276 C 1375.86 -1.18526 3.39823 0
M  V30 14277 C 1375.47 -0.128086 4.47817 0
M  V30 14278 C 1377.21 -1.83723 3.82683 0
M  V30 14279 C 1375.12 -0.687978 5.87385 0
M  V30 14280 H 1374.05 -0.241898 0.714144 0
M  V30 14281 H 1376.7 0.105281 1.83198 0
M  V30 14282 H 1375.08 -1.97999 3.42947 0
M  V30 14283 H 1376.25 0.644865 4.56265 0
M  V30 14284 H 1374.57 0.425672 4.14219 0
M  V30 14285 H 1377.17 -2.26585 4.84317 0
M  V30 14286 H 1377.51 -2.68377 3.18244 0
M  V30 14287 H 1378.04 -1.10926 3.82021 0
M  V30 14288 H 1374.78 0.120642 6.55389 0
M  V30 14289 H 1374.3 -1.4292 5.82524 0
M  V30 14290 H 1375.98 -1.17483 6.36244 0
M  V30 14291 N 1376.11 -1.55841 -0.234795 0
M  V30 14292 C 1377.07 -1.9051 -1.2743 0
M  V30 14293 C 1378.07 -0.782543 -1.40474 0
M  V30 14294 O 1379.26 -1.05043 -1.38966 0
M  V30 14295 C 1376.4 -2.14424 -2.65019 0
M  V30 14296 H 1377.59 -2.83471 -0.979003 0
M  V30 14297 H 1375.14 -1.48919 -0.47463 0
M  V30 14298 H 1375.88 -1.23972 -2.99669 0
M  V30 14299 H 1375.66 -2.96191 -2.56931 0
M  V30 14300 H 1377.15 -2.42388 -3.40056 0
M  V30 14301 N 1377.59 0.500963 -1.49426 0
M  V30 14302 C 1379.01 0.832142 -1.36189 0
M  V30 14303 C 1379.21 1.9759 -0.395014 0
M  V30 14304 O 1378.26 2.51905 0.173294 0
M  V30 14305 C 1379.57 1.17232 -2.76907 0
M  V30 14306 C 1381.12 1.28052 -2.85607 0
M  V30 14307 C 1381.6 1.65399 -4.27092 0
M  V30 14308 N 1383.09 1.72448 -4.29902 0
M  V30 14309 C 1383.82 2.02789 -5.36343 0
M  V30 14310 N 1383.32 2.31354 -6.53029 0
M  V30 14311 N 1385.11 2.0404 -5.23759 0
M  V30 14312 H 1377.26 -0.253253 -2.10885 0
M  V30 14313 H 1379.53 -0.0507111 -0.946643 0
M  V30 14314 H 1379.23 0.405247 -3.49357 0
M  V30 14315 H 1379.11 2.11574 -3.12276 0
M  V30 14316 H 1381.49 2.03831 -2.13394 0
M  V30 14317 H 1381.57 0.317603 -2.53821 0
M  V30 14318 H 1381.22 0.901704 -4.99832 0
M  V30 14319 H 1381.15 2.6279 -4.56343 0
M  V30 14320 H 1383.64 1.52532 -3.45749 0
M  V30 14321 H 1383.95 2.53695 -7.29972 0
M  V30 14322 H 1382.3 2.28811 -6.56255 0
M  V30 14323 H 1385.49 1.812 -4.31606 0
M  V30 14324 H 1385.66 2.27353 -6.06807 0
M  V30 14325 N 1379.07 1.38501 0.752011 0
M  V30 14326 C 1380.31 1.36212 1.52399 0
M  V30 14327 C 1380.67 -0.0472831 1.91942 0
M  V30 14328 O 1381.87 -0.195055 2.68091 0
M  V30 14329 C 1380.14 2.2925 2.74188 0
M  V30 14330 S 1381.7 2.44995 3.64037 0
M  V30 14331 H 1378.52 0.483276 0.521503 0
M  V30 14332 H 1381.12 1.74441 0.882647 0
M  V30 14333 H 1379.83 3.30541 2.4325 0
M  V30 14334 H 1379.36 1.92176 3.43266 0
M  V30 14335 H 1381.37 1.67519 4.67067 0
M  V30 14336 N 1380.55 -0.980364 1.23396 0
M  V30 14337 C 1381.77 -1.76223 1.09363 0
M  V30 14338 C 1382.2 -1.84801 -0.350759 0
M  V30 14339 O 1381.55 -1.30966 -1.2537 0
M  V30 14340 C 1381.6 -3.16728 1.72383 0
M  V30 14341 O 1380.71 -4.00439 0.986002 0
M  V30 14342 H 1380.05 -0.542174 0.383332 0
M  V30 14343 H 1382.58 -1.23066 1.6345 0
M  V30 14344 H 1382.59 -3.67307 1.77623 0
M  V30 14345 H 1381.26 -3.098 2.77483 0
M  V30 14346 H 1379.84 -3.58946 1.01054 0
M  V30 14347 N 1382.02 -1.04567 -1.17913 0
M  V30 14348 C 1383.26 -0.760977 -1.89706 0
M  V30 14349 C 1383.63 0.698804 -1.78832 0
M  V30 14350 O 1384.83 1.09733 -2.45382 0
M  V30 14351 C 1383.1 -1.22042 -3.35917 0
M  V30 14352 S 1384.66 -1.06214 -4.25751 0
M  V30 14353 H 1381.48 -0.276538 -0.655017 0
M  V30 14354 H 1384.08 -1.339 -1.42446 0
M  V30 14355 H 1382.78 -2.27813 -3.41364 0
M  V30 14356 H 1382.31 -0.636401 -3.88218 0
M  V30 14357 H 1384.33 0.0174486 -4.96197 0
M  V30 14358 N 1383.5 1.34231 -0.825823 0
M  V30 14359 C 1384.92 1.51166 -0.511945 0
M  V30 14360 C 1385.12 1.76981 0.963318 0
M  V30 14361 O 1384.17 1.82243 1.74767 0
M  V30 14362 C 1385.49 2.67474 -1.37399 0
M  V30 14363 C 1387.03 2.81356 -1.37141 0
M  V30 14364 C 1387.51 4.0071 -2.218 0
M  V30 14365 N 1389 4.07922 -2.19439 0
M  V30 14366 C 1389.74 4.99438 -2.81691 0
M  V30 14367 N 1389.23 5.96157 -3.52944 0
M  V30 14368 N 1391.02 4.92332 -2.7123 0
M  V30 14369 H 1383.18 1.15734 -1.78099 0
M  V30 14370 H 1385.44 0.567856 -0.759107 0
M  V30 14371 H 1385.14 2.55036 -2.42176 0
M  V30 14372 H 1385.02 3.62558 -1.04075 0
M  V30 14373 H 1387.41 2.93233 -0.331405 0
M  V30 14374 H 1387.49 1.87072 -1.74464 0
M  V30 14375 H 1387.13 3.89593 -3.25852 0
M  V30 14376 H 1387.06 4.94213 -1.81826 0
M  V30 14377 H 1389.55 3.38695 -1.67612 0
M  V30 14378 H 1389.86 6.62623 -3.97682 0
M  V30 14379 H 1388.21 5.96272 -3.5705 0
M  V30 14380 H 1391.4 4.15733 -2.15137 0
M  V30 14381 H 1391.57 5.63458 -3.20031 0
M  V30 14382 N 1384.98 0.581051 1.46498 0
M  V30 14383 C 1386.22 0.0686577 2.04285 0
M  V30 14384 C 1386.58 -1.2666 1.44296 0
M  V30 14385 O 1387.78 -1.86813 1.93273 0
M  V30 14386 C 1386.06 0.0021308 3.574 0
M  V30 14387 S 1387.61 -0.452928 4.36456 0
M  V30 14388 H 1384.43 0.0366686 0.710054 0
M  V30 14389 H 1387.03 0.773174 1.79561 0
M  V30 14390 H 1385.74 0.977908 3.98579 0
M  V30 14391 H 1385.27 -0.725207 3.86658 0
M  V30 14392 H 1387.28 -1.708 4.65877 0
M  V30 14393 N 1386.46 -1.54343 0.318742 0
M  V30 14394 C 1387.71 -2.00084 -0.284713 0
M  V30 14395 C 1388.03 -1.20855 -1.53033 0
M  V30 14396 O 1387.3 -0.309104 -1.93446 0
M  V30 14397 H 1385.88 -0.739123 -0.108193 0
M  V30 14398 H 1388.54 -1.90002 0.434174 0
M  V30 14399 H 1387.63 -3.07314 -0.544459 0
M  V30 14400 N 1387.94 -0.0468143 -1.5753 0
M  V30 14401 C 1389.18 0.628869 -1.92803 0
M  V30 14402 C 1389.51 1.70751 -0.925083 0
M  V30 14403 O 1388.79 1.94437 0.0495821 0
M  V30 14404 C 1389.07 1.22899 -3.38479 0
M  V30 14405 C 1388.93 0.158707 -4.4952 0
M  V30 14406 C 1390.24 2.1419 -3.84461 0
M  V30 14407 H 1387.36 0.227137 -0.701126 0
M  V30 14408 H 1390.01 -0.107689 -1.89695 0
M  V30 14409 H 1388.16 1.85674 -3.41259 0
M  V30 14410 H 1389.83 -0.472963 -4.58869 0
M  V30 14411 H 1388.07 -0.51375 -4.30747 0
M  V30 14412 H 1388.74 0.618545 -5.48523 0
M  V30 14413 H 1391.22 1.61382 -3.8353 0
M  V30 14414 H 1390.09 2.53125 -4.87051 0
M  V30 14415 H 1390.35 3.04024 -3.2097 0
M  V30 14416 N 1389.41 1.55964 0.226527 0
M  V30 14417 C 1390.64 1.82558 0.967269 0
M  V30 14418 C 1391.05 0.623034 1.78647 0
M  V30 14419 O 1390.4 -0.41779 1.78886 0
M  V30 14420 C 1390.46 3.02812 1.93766 0
M  V30 14421 C 1390.12 4.38017 1.30345 0
M  V30 14422 C 1391.12 5.15223 0.695793 0
M  V30 14423 C 1388.8 4.84735 1.31671 0
M  V30 14424 C 1390.8 6.37305 0.109849 0
M  V30 14425 C 1388.48 6.06761 0.726919 0
M  V30 14426 C 1389.48 6.82886 0.124537 0
M  V30 14427 O 1389.17 8.02605 -0.45609 0
M  V30 14428 H 1388.9 0.610967 0.289301 0
M  V30 14429 H 1391.46 2.03892 0.248407 0
M  V30 14430 H 1389.69 2.77283 2.69538 0
M  V30 14431 H 1391.38 3.16321 2.54353 0
M  V30 14432 H 1392.14 4.80239 0.677912 0
M  V30 14433 H 1388.02 4.2546 1.77496 0
M  V30 14434 H 1391.56 6.96666 -0.360953 0
M  V30 14435 H 1387.46 6.41219 0.742196 0
M  V30 14436 H 1388.23 8.17752 -0.349926 0
M  V30 14437 N 1390.89 -0.493031 1.4969 0
M  V30 14438 C 1392.12 -1.26862 1.63063 0
M  V30 14439 C 1392.53 -1.86734 0.304451 0
M  V30 14440 O 1391.87 -1.68956 -0.72108 0
M  V30 14441 C 1391.94 -2.43249 2.64708 0
M  V30 14442 C 1391.6 -2.04185 4.08849 0
M  V30 14443 C 1392.6 -1.57698 4.95406 0
M  V30 14444 C 1390.28 -2.13576 4.54632 0
M  V30 14445 C 1392.28 -1.21116 6.25787 0
M  V30 14446 C 1389.96 -1.76606 5.85024 0
M  V30 14447 C 1390.96 -1.30451 6.70426 0
M  V30 14448 O 1390.65 -0.939844 7.98387 0
M  V30 14449 H 1390.38 -0.390674 0.551679 0
M  V30 14450 H 1392.93 -0.59753 1.96516 0
M  V30 14451 H 1391.16 -3.1346 2.26451 0
M  V30 14452 H 1392.85 -3.0526 2.67528 0
M  V30 14453 H 1393.62 -1.49882 4.6126 0
M  V30 14454 H 1389.5 -2.48451 3.88321 0
M  V30 14455 H 1393.04 -0.850198 6.924 0
M  V30 14456 H 1388.94 -1.84074 6.18698 0
M  V30 14457 H 1389.71 -1.07062 8.11468 0
M  V30 14458 N 1392.37 -1.38898 -0.744656 0
M  V30 14459 C 1393.61 -1.37019 -1.51675 0
M  V30 14460 C 1393.97 0.0371033 -1.91964 0
M  V30 14461 O 1395.18 0.180835 -2.68191 0
M  V30 14462 C 1393.45 -2.30701 -2.72969 0
M  V30 14463 S 1395.01 -2.46922 -3.62733 0
M  V30 14464 H 1391.82 -0.486035 -0.518933 0
M  V30 14465 H 1394.43 -1.74906 -0.873384 0
M  V30 14466 H 1393.13 -3.31827 -2.41494 0
M  V30 14467 H 1392.66 -1.93994 -3.42242 0
M  V30 14468 H 1394.68 -1.69994 -4.66172 0
M  V30 14469 N 1393.85 0.973806 -1.23914 0
M  V30 14470 C 1394.76 2.10138 -1.04304 0
M  V30 14471 C 1395.77 1.73994 0.0143888 0
M  V30 14472 O 1396.95 2.00572 -0.182481 0
M  V30 14473 C 1394.02 3.40673 -0.643639 0
M  V30 14474 C 1393.08 3.90802 -1.77686 0
M  V30 14475 C 1392.31 5.15108 -1.39642 0
M  V30 14476 O 1392.53 5.69695 -0.283546 0
M  V30 14477 O 1391.47 5.59468 -2.21988 0
M  V30 14478 H 1395.29 2.29574 -1.9882 0
M  V30 14479 H 1392.88 1.08524 -1.02679 0
M  V30 14480 H 1394.76 4.19178 -0.432145 0
M  V30 14481 H 1393.43 3.22551 0.272458 0
M  V30 14482 H 1392.34 3.13385 -2.04305 0
M  V30 14483 H 1393.67 4.1339 -2.67151 0
M  V30 14484 N 1395.33 1.05191 1.17357 0
M  V30 14485 C 1396.55 0.782343 1.92079 0
M  V30 14486 C 1396.98 -0.655957 1.76292 0
M  V30 14487 O 1396.33 -1.45573 1.08065 0
M  V30 14488 C 1396.38 1.16777 3.41168 0
M  V30 14489 O 1395.49 0.299908 4.11308 0
M  V30 14490 H 1394.83 0.286894 0.598822 0
M  V30 14491 H 1397.36 1.40476 1.48754 0
M  V30 14492 H 1397.37 1.13454 3.91909 0
M  V30 14493 H 1396.04 2.2155 3.51978 0
M  V30 14494 H 1394.62 0.393744 3.70815 0
M  V30 14495 N 1396.8 -1.33791 0.83293 0
M  V30 14496 C 1398.22 -1.50893 0.519955 0
M  V30 14497 C 1398.42 -1.7749 -0.953919 0
M  V30 14498 O 1397.48 -1.83168 -1.73798 0
M  V30 14499 C 1398.79 -2.66741 1.38815 0
M  V30 14500 C 1400.34 -2.80625 1.38631 0
M  V30 14501 C 1400.81 -3.99528 2.23922 0
M  V30 14502 N 1402.3 -4.06753 2.21599 0
M  V30 14503 C 1403.04 -4.97937 2.84335 0
M  V30 14504 N 1402.53 -5.94276 3.561 0
M  V30 14505 N 1404.33 -4.90887 2.73837 0
M  V30 14506 H 1396.48 -1.14788 1.7871 0
M  V30 14507 H 1398.74 -0.563822 0.762108 0
M  V30 14508 H 1398.45 -2.53748 2.43525 0
M  V30 14509 H 1398.32 -3.62001 1.05996 0
M  V30 14510 H 1400.71 -2.93053 0.346951 0
M  V30 14511 H 1400.79 -1.86144 1.75454 0
M  V30 14512 H 1400.43 -3.8786 3.27914 0
M  V30 14513 H 1400.36 -4.93242 1.84444 0
M  V30 14514 H 1402.85 -3.37802 1.69406 0
M  V30 14515 H 1403.17 -6.60504 4.01191 0
M  V30 14516 H 1401.51 -5.9437 3.60207 0
M  V30 14517 H 1404.7 -4.14586 2.17338 0
M  V30 14518 H 1404.88 -5.61752 3.23014 0
M  V30 14519 N 1398.28 -0.588812 -1.46187 0
M  V30 14520 C 1399.7 -0.250962 -1.57615 0
M  V30 14521 C 1399.9 1.2467 -1.58302 0
M  V30 14522 O 1398.95 2.02876 -1.50325 0
M  V30 14523 C 1400.27 -0.905561 -2.8674 0
M  V30 14524 C 1401.82 -0.879721 -3.00383 0
M  V30 14525 C 1402.29 -1.51398 -4.32253 0
M  V30 14526 N 1403.78 -1.4786 -4.38967 0
M  V30 14527 C 1404.52 -1.93868 -5.39632 0
M  V30 14528 N 1404.01 -2.47876 -6.46938 0
M  V30 14529 N 1405.81 -1.84748 -5.30872 0
M  V30 14530 H 1397.96 -1.56148 -1.43985 0
M  V30 14531 H 1400.22 -0.653028 -0.68721 0
M  V30 14532 H 1399.93 -1.95935 -2.92066 0
M  V30 14533 H 1399.8 -0.417456 -3.74883 0
M  V30 14534 H 1402.19 0.165466 -2.94636 0
M  V30 14535 H 1402.27 -1.40591 -2.137 0
M  V30 14536 H 1401.91 -2.55839 -4.38758 0
M  V30 14537 H 1401.84 -0.962965 -5.17721 0
M  V30 14538 H 1404.33 -1.08387 -3.62023 0
M  V30 14539 H 1404.65 -2.80824 -7.1997 0
M  V30 14540 H 1402.99 -2.51905 -6.47741 0
M  V30 14541 H 1406.18 -1.42307 -4.45944 0
M  V30 14542 H 1406.35 -2.20919 -6.09179 0
M  V30 14543 N 1399.76 1.54172 -0.326923 0
M  V30 14544 C 1400.71 2.24454 0.537501 0
M  V30 14545 C 1401.68 1.23658 1.10896 0
M  V30 14546 O 1402.86 1.52348 1.14868 0
M  V30 14547 C 1400 3.00839 1.69085 0
M  V30 14548 C 1399.12 4.16459 1.1483 0
M  V30 14549 C 1398.25 4.80368 2.26761 0
M  V30 14550 C 1397.29 5.88085 1.69771 0
M  V30 14551 N 1396.43 6.45842 2.75378 0
M  V30 14552 H 1401.27 2.97921 -0.0684022 0
M  V30 14553 H 1398.8 1.4703 -0.0455287 0
M  V30 14554 H 1400.76 3.43375 2.36959 0
M  V30 14555 H 1399.39 2.297 2.26799 0
M  V30 14556 H 1398.44 3.78683 0.361004 0
M  V30 14557 H 1399.76 4.93986 0.69132 0
M  V30 14558 H 1398.91 5.25889 3.02533 0
M  V30 14559 H 1397.65 4.02228 2.75796 0
M  V30 14560 H 1396.65 5.41963 0.924985 0
M  V30 14561 H 1397.88 6.68123 1.21609 0
M  V30 14562 H 1395.82 5.70574 3.23699 0
M  V30 14563 H 1395.74 7.18792 2.34253 0
M  V30 14564 H 1397.01 6.96018 3.50969 0
M  V30 14565 N 1401.24 0.0551678 1.57503 0
M  V30 14566 C 1402.47 -0.626291 1.96879 0
M  V30 14567 C 1402.88 -1.64677 0.93156 0
M  V30 14568 O 1402.22 -1.83469 -0.0921632 0
M  V30 14569 C 1402.28 -1.36674 3.32506 0
M  V30 14570 C 1401.95 -0.501632 4.54239 0
M  V30 14571 C 1402.94 0.233939 5.19373 0
M  V30 14572 C 1400.63 -0.431385 5.00444 0
M  V30 14573 C 1402.62 1.02815 6.29053 0
M  V30 14574 C 1400.31 0.366514 6.1 0
M  V30 14575 C 1401.31 1.09497 6.74166 0
M  V30 14576 O 1400.99 1.87974 7.81614 0
M  V30 14577 H 1400.73 -0.175738 0.652757 0
M  V30 14578 H 1403.28 0.11909 2.05054 0
M  V30 14579 H 1401.51 -2.15783 3.20896 0
M  V30 14580 H 1403.2 -1.93882 3.56602 0
M  V30 14581 H 1403.97 0.189161 4.84631 0
M  V30 14582 H 1399.84 -0.98798 4.50289 0
M  V30 14583 H 1403.39 1.59724 6.79068 0
M  V30 14584 H 1399.29 0.412916 6.44178 0
M  V30 14585 H 1400.05 1.80228 7.98411 0
M  V30 14586 N 1402.72 -1.56081 -0.218252 0
M  V30 14587 C 1403.95 -1.83069 -0.957574 0
M  V30 14588 C 1404.35 -0.6325 -1.78315 0
M  V30 14589 O 1403.7 0.408298 -1.79105 0
M  V30 14590 C 1403.76 -3.03835 -1.92157 0
M  V30 14591 C 1403.42 -4.38702 -1.2802 0
M  V30 14592 C 1404.42 -5.15585 -0.66846 0
M  V30 14593 C 1402.11 -4.85427 -1.29098 0
M  V30 14594 C 1404.1 -6.37355 -0.0760499 0
M  V30 14595 C 1401.79 -6.07138 -0.69473 0
M  V30 14596 C 1402.78 -6.82943 -0.0883201 0
M  V30 14597 O 1402.47 -8.02352 0.498648 0
M  V30 14598 H 1402.2 -0.612493 -0.286057 0
M  V30 14599 H 1404.76 -2.04021 -0.23759 0
M  V30 14600 H 1402.99 -2.78709 -2.68064 0
M  V30 14601 H 1404.68 -3.17666 -2.52672 0
M  V30 14602 H 1405.44 -4.80592 -0.652434 0
M  V30 14603 H 1401.32 -4.26395 -1.75238 0
M  V30 14604 H 1404.87 -6.96464 0.397893 0
M  V30 14605 H 1400.76 -6.41604 -0.70818 0
M  V30 14606 H 1401.53 -8.17555 0.393289 0
M  V30 14607 N 1404.2 0.485086 -1.49949 0
M  V30 14608 C 1405.13 1.59312 -1.7071 0
M  V30 14609 C 1406.11 1.6076 -0.555896 0
M  V30 14610 O 1407.29 1.77249 -0.793504 0
M  V30 14611 C 1404.42 2.97718 -1.78834 0
M  V30 14612 C 1403.38 3.11136 -2.93902 0
M  V30 14613 C 1402.7 4.51051 -2.87154 0
M  V30 14614 C 1404 2.89665 -4.34617 0
M  V30 14615 H 1405.7 1.42192 -2.6348 0
M  V30 14616 H 1403.24 0.68262 -1.26792 0
M  V30 14617 H 1405.19 3.75148 -1.91943 0
M  V30 14618 H 1403.92 3.15963 -0.826744 0
M  V30 14619 H 1402.58 2.36135 -2.80421 0
M  V30 14620 H 1402.23 4.66195 -1.88869 0
M  V30 14621 H 1401.93 4.60967 -3.64394 0
M  V30 14622 H 1403.45 5.3052 -3.02293 0
M  V30 14623 H 1404.86 3.56853 -4.48697 0
M  V30 14624 H 1403.26 3.11039 -5.13201 0
M  V30 14625 H 1404.33 1.85642 -4.47956 0
M  V30 14626 N 1405.67 1.39291 0.737279 0
M  V30 14627 C 1406.92 1.36592 1.49901 0
M  V30 14628 C 1407.25 -0.0388812 1.94161 0
M  V30 14629 O 1406.53 -1.00337 1.66622 0
M  V30 14630 C 1406.81 2.33625 2.74028 0
M  V30 14631 C 1406.66 3.83037 2.35802 0
M  V30 14632 C 1407.98 2.28524 3.76118 0
M  V30 14633 H 1405.1 0.497482 0.543765 0
M  V30 14634 H 1407.74 1.70265 0.843193 0
M  V30 14635 H 1405.89 2.0504 3.29986 0
M  V30 14636 H 1407.57 4.22363 1.85493 0
M  V30 14637 H 1405.81 3.99924 1.68058 0
M  V30 14638 H 1406.48 4.46415 3.24681 0
M  V30 14639 H 1408.96 2.53794 3.29739 0
M  V30 14640 H 1407.83 2.98501 4.60639 0
M  V30 14641 H 1408.09 1.28949 4.22876 0
M  V30 14642 N 1407.15 -0.967221 1.24429 0
M  V30 14643 C 1408.38 -1.7452 1.11133 0
M  V30 14644 C 1408.79 -1.85785 -0.336087 0
M  V30 14645 O 1408.15 -1.34652 -1.23188 0
M  V30 14646 C 1408.2 -3.16544 1.74591 0
M  V30 14647 O 1407.92 -3.05845 3.13673 0
M  V30 14648 C 1409.42 -4.10677 1.6691 0
M  V30 14649 H 1406.64 -0.547267 0.388253 0
M  V30 14650 H 1409.19 -1.2143 1.64545 0
M  V30 14651 H 1407.34 -3.66618 1.2518 0
M  V30 14652 H 1407.76 -3.95346 3.44676 0
M  V30 14653 H 1409.23 -5.07987 2.15992 0
M  V30 14654 H 1409.71 -4.34652 0.630411 0
M  V30 14655 H 1410.31 -3.66514 2.15749 0
M  V30 14656 N 1408.63 -1.05812 -1.16797 0
M  V30 14657 C 1409.88 -0.771923 -1.8721 0
M  V30 14658 C 1410.2 0.701365 -1.81414 0
M  V30 14659 O 1409.46 1.5292 -1.22122 0
M  V30 14660 C 1409.76 -1.20565 -3.3645 0
M  V30 14661 C 1409.42 -2.68222 -3.62447 0
M  V30 14662 C 1408.09 -3.08556 -3.69251 0
M  V30 14663 C 1410.44 -3.63607 -3.73416 0
M  V30 14664 C 1407.77 -4.43126 -3.84521 0
M  V30 14665 C 1410.12 -4.97918 -3.90205 0
M  V30 14666 C 1408.78 -5.37897 -3.9525 0
M  V30 14667 H 1408.05 -0.282467 -0.68505 0
M  V30 14668 H 1410.7 -1.32633 -1.38133 0
M  V30 14669 H 1409 -0.570347 -3.87626 0
M  V30 14670 H 1410.7 -0.961326 -3.89306 0
M  V30 14671 H 1407.29 -2.3599 -3.5778 0
M  V30 14672 H 1411.48 -3.33581 -3.67474 0
M  V30 14673 H 1406.73 -4.73593 -3.86677 0
M  V30 14674 H 1410.91 -5.71716 -3.97635 0
M  V30 14675 H 1408.53 -6.42176 -4.06834 0
M  V30 14676 N 1410.11 1.33347 -0.840014 0
M  V30 14677 C 1411.34 2.01952 -0.449793 0
M  V30 14678 C 1411.75 1.63197 0.949317 0
M  V30 14679 O 1411.11 0.84589 1.61713 0
M  V30 14680 C 1411.16 3.57102 -0.562178 0
M  V30 14681 O 1410.88 3.94458 -1.90616 0
M  V30 14682 C 1412.38 4.42978 -0.169062 0
M  V30 14683 H 1409.6 0.646843 -0.178425 0
M  V30 14684 H 1412.14 1.70251 -1.1329 0
M  V30 14685 H 1410.3 3.87331 0.0730345 0
M  V30 14686 H 1410.71 4.89167 -1.8925 0
M  V30 14687 H 1412.19 5.51191 -0.298742 0
M  V30 14688 H 1412.66 4.30106 0.889137 0
M  V30 14689 H 1413.27 4.18109 -0.778756 0
M  V30 14690 N 1411.59 0.596556 1.45873 0
M  V30 14691 C 1412.83 0.0872856 2.01911 0
M  V30 14692 C 1413.15 -1.28257 1.46885 0
M  V30 14693 O 1412.42 -1.84489 0.658837 0
M  V30 14694 H 1411 0.0292769 0.746426 0
M  V30 14695 H 1413.67 0.775464 1.78809 0
M  V30 14696 H 1412.76 0.0287213 3.12087 0
M  V30 14697 N 1413.06 -1.53996 0.335095 0
M  V30 14698 C 1414.47 -1.86092 -0.15058 0
M  V30 14699 C 1414.83 -1.25652 -1.50685 0
M  V30 14700 O 1413.95 -0.566887 -2.08843 0
M  V30 14701 C 1414.55 -3.37641 -0.280007 0
M  V30 14702 C 1413.1 -3.69645 -0.709907 0
M  V30 14703 C 1412.25 -2.7683 0.161461 0
M  V30 14704 H 1415.2 -1.4868 0.554986 0
M  V30 14705 H 1415.22 -3.63981 -1.10896 0
M  V30 14706 H 1414.74 -3.81601 0.707254 0
M  V30 14707 H 1412.84 -3.31224 -1.7065 0
M  V30 14708 H 1412.95 -4.76424 -0.505661 0
M  V30 14709 H 1411.31 -2.52073 -0.364849 0
M  V30 14710 H 1412.1 -3.23618 1.1457 0
M  V30 14711 N 1414.54 -0.0635198 -1.57472 0
M  V30 14712 C 1415.77 0.616735 -1.97494 0
M  V30 14713 C 1416.18 1.63646 -0.941568 0
M  V30 14714 O 1415.54 1.82355 0.0727768 0
M  V30 14715 C 1415.59 1.29268 -3.37597 0
M  V30 14716 O 1415.31 0.313781 -4.36975 0
M  V30 14717 C 1416.81 2.06154 -3.92448 0
M  V30 14718 H 1414.03 0.167753 -0.649692 0
M  V30 14719 H 1416.58 -0.133475 -2.04064 0
M  V30 14720 H 1414.73 1.99404 -3.3214 0
M  V30 14721 H 1415.15 0.797723 -5.18398 0
M  V30 14722 H 1416.62 2.48853 -4.92723 0
M  V30 14723 H 1417.1 2.91474 -3.28541 0
M  V30 14724 H 1417.7 1.40903 -4.01281 0
M  V30 14725 N 1416.02 1.56195 0.209972 0
M  V30 14726 C 1417.27 1.79745 0.932638 0
M  V30 14727 C 1417.59 0.634252 1.83868 0
M  V30 14728 O 1416.85 -0.380798 1.91959 0
M  V30 14729 C 1417.15 3.09154 1.79328 0
M  V30 14730 C 1416.81 4.38754 1.03949 0
M  V30 14731 C 1415.48 4.73965 0.831308 0
M  V30 14732 C 1417.83 5.18718 0.508031 0
M  V30 14733 C 1415.16 5.86646 0.0799547 0
M  V30 14734 C 1417.51 6.32182 -0.230037 0
M  V30 14735 C 1416.17 6.65986 -0.449366 0
M  V30 14736 H 1415.44 0.657732 0.341276 0
M  V30 14737 H 1418.09 1.90453 0.199998 0
M  V30 14738 H 1416.39 2.93618 2.59414 0
M  V30 14739 H 1418.09 3.24578 2.35478 0
M  V30 14740 H 1414.68 4.11114 1.21174 0
M  V30 14741 H 1418.87 4.91941 0.656306 0
M  V30 14742 H 1414.12 6.11318 -0.100092 0
M  V30 14743 H 1418.3 6.93367 -0.649296 0
M  V30 14744 H 1415.92 7.53142 -1.03349 0
M  V30 14745 N 1417.5 -0.477127 1.50204 0
M  V30 14746 C 1418.91 -0.81037 1.37496 0
M  V30 14747 C 1419.11 -1.96937 0.426399 0
M  V30 14748 O 1418.17 -2.52148 -0.133197 0
M  V30 14749 C 1419.48 -1.12811 2.78737 0
M  V30 14750 C 1421.03 -1.23492 2.87608 0
M  V30 14751 C 1421.51 -1.58583 4.29669 0
M  V30 14752 N 1423 -1.65586 4.32591 0
M  V30 14753 C 1423.73 -1.94231 5.39502 0
M  V30 14754 N 1423.23 -2.20936 6.56627 0
M  V30 14755 N 1425.02 -1.95682 5.26939 0
M  V30 14756 H 1417.17 0.286771 2.10455 0
M  V30 14757 H 1419.43 0.0657649 0.945716 0
M  V30 14758 H 1419.14 -0.349616 3.49958 0
M  V30 14759 H 1419.01 -2.0658 3.15602 0
M  V30 14760 H 1421.4 -2.0041 2.1661 0
M  V30 14761 H 1421.48 -0.277182 2.54294 0
M  V30 14762 H 1421.13 -0.822071 5.01203 0
M  V30 14763 H 1421.06 -2.55497 4.60466 0
M  V30 14764 H 1423.55 -1.47012 3.48132 0
M  V30 14765 H 1423.86 -2.42049 7.33916 0
M  V30 14766 H 1422.21 -2.18341 6.59812 0
M  V30 14767 H 1425.4 -1.74311 4.34434 0
M  V30 14768 H 1425.57 -2.1767 6.10347 0
M  V30 14769 N 1418.98 -1.3968 -0.729882 0
M  V30 14770 C 1420.22 -1.37182 -1.48954 0
M  V30 14771 C 1420.55 0.0305728 -1.94476 0
M  V30 14772 O 1419.81 1.0124 -1.67478 0
M  V30 14773 C 1420.11 -2.29499 -2.7398 0
M  V30 14774 C 1419.77 -3.77034 -2.47298 0
M  V30 14775 C 1418.43 -4.17232 -2.39731 0
M  V30 14776 C 1420.79 -4.70325 -2.24597 0
M  V30 14777 C 1418.11 -5.48777 -2.07511 0
M  V30 14778 C 1420.47 -6.02153 -1.93893 0
M  V30 14779 C 1419.13 -6.41409 -1.84798 0
M  V30 14780 H 1418.4 -0.501985 -0.545061 0
M  V30 14781 H 1421.05 -1.72226 -0.837294 0
M  V30 14782 H 1419.35 -1.87592 -3.43972 0
M  V30 14783 H 1421.05 -2.24857 -3.32024 0
M  V30 14784 H 1417.64 -3.45177 -2.54069 0
M  V30 14785 H 1421.82 -4.40097 -2.29408 0
M  V30 14786 H 1417.08 -5.78109 -1.98996 0
M  V30 14787 H 1421.25 -6.73966 -1.75337 0
M  V30 14788 H 1418.88 -7.43258 -1.59598 0
M  V30 14789 N 1420.45 0.960609 -1.2494 0
M  V30 14790 C 1421.39 2.05548 -0.991229 0
M  V30 14791 C 1422.37 1.62415 0.0774707 0
M  V30 14792 O 1423.55 1.88401 -0.0609447 0
M  V30 14793 C 1420.68 3.3503 -0.497227 0
M  V30 14794 C 1419.72 3.97121 -1.55555 0
M  V30 14795 S 1420.56 4.33851 -3.139 0
M  V30 14796 C 1421.71 5.66461 -2.6622 0
M  V30 14797 H 1421.94 2.27131 -1.9183 0
M  V30 14798 H 1419.48 1.09945 -1.08404 0
M  V30 14799 H 1421.44 4.09916 -0.218845 0
M  V30 14800 H 1420.1 3.11423 0.409246 0
M  V30 14801 H 1419.29 4.90458 -1.16047 0
M  V30 14802 H 1418.89 3.28692 -1.7843 0
M  V30 14803 H 1421.18 6.44304 -2.09474 0
M  V30 14804 H 1422.13 6.10833 -3.58174 0
M  V30 14805 H 1422.53 5.25409 -2.06413 0
M  V30 14806 N 1421.93 1.0643 1.16234 0
M  V30 14807 C 1422.84 0.687446 2.24302 0
M  V30 14808 C 1423.86 -0.297132 1.71444 0
M  V30 14809 O 1425.03 -0.146101 2.00869 0
M  V30 14810 C 1422.1 0.0810973 3.46605 0
M  V30 14811 C 1421.16 1.11772 4.14494 0
M  V30 14812 C 1420.39 0.54021 5.30959 0
M  V30 14813 O 1420.62 -0.646619 5.66723 0
M  V30 14814 O 1419.55 1.28057 5.8812 0
M  V30 14815 H 1423.38 1.58842 2.58849 0
M  V30 14816 H 1420.96 0.836649 1.23776 0
M  V30 14817 H 1422.84 -0.25524 4.20626 0
M  V30 14818 H 1421.52 -0.793338 3.13828 0
M  V30 14819 H 1420.43 1.50626 3.42436 0
M  V30 14820 H 1421.76 1.96373 4.5133 0
M  V30 14821 N 1423.41 -1.329 0.847073 0
M  V30 14822 C 1424.37 -2.27341 0.291324 0
M  V30 14823 C 1425.37 -1.51295 -0.544653 0
M  V30 14824 O 1426.56 -1.70497 -0.357258 0
M  V30 14825 C 1423.7 -3.35779 -0.588668 0
M  V30 14826 H 1424.89 -2.78009 1.12477 0
M  V30 14827 H 1422.44 -1.43442 0.620803 0
M  V30 14828 H 1423.18 -2.90366 -1.44423 0
M  V30 14829 H 1422.96 -3.92099 0.00960515 0
M  V30 14830 H 1424.45 -4.06166 -0.970526 0
M  V30 14831 N 1424.89 -0.604284 -1.45555 0
M  V30 14832 C 1425.84 0.129013 -2.32242 0
M  V30 14833 C 1426.83 0.862933 -1.45773 0
M  V30 14834 O 1428.04 0.778874 -1.62276 0
M  V30 14835 H 1424.41 0.0604661 -0.749565 0
M  V30 14836 H 1426.38 -0.620603 -2.91875 0
M  V30 14837 C 1425.13 1.11516 -3.29332 0
M  V30 14838 H 1424.45 0.559849 -3.95861 0
M  V30 14839 H 1425.89 1.59824 -3.92724 0
M  V30 14840 C 1424.35 2.18706 -2.5626 0
M  V30 14841 O 1424.88 3.26397 -2.34154 0
M  V30 14842 N 1423.09 1.93899 -2.16452 0
M  V30 14843 H 1422.64 1.0633 -2.34631 0
M  V30 14844 H 1422.59 2.65824 -1.67884 0
M  V30 14845 N 1426.37 1.53816 -0.343257 0
M  V30 14846 C 1427.64 1.9315 0.308609 0
M  V30 14847 C 1428.02 1.27479 1.68263 0
M  V30 14848 O 1427.37 0.425614 2.24501 0
M  V30 14849 C 1427.58 3.46912 0.381176 0
M  V30 14850 C 1428.93 4.19868 0.632153 0
M  V30 14851 O 1429.95 3.53174 0.463303 0
M  V30 14852 O 1428.81 5.38016 0.959237 0
M  V30 14853 H 1425.91 0.807169 0.180022 0
M  V30 14854 H 1428.45 1.65053 -0.394412 0
M  V30 14855 H 1427.22 3.86932 -0.583058 0
M  V30 14856 H 1426.85 3.81175 1.13099 0
M  V30 14857 N 1427.84 0.0718701 1.57436 0
M  V30 14858 C 1429.07 -0.605374 1.97532 0
M  V30 14859 C 1429.48 -1.6368 0.948974 0
M  V30 14860 O 1428.83 -1.83556 -0.0726987 0
M  V30 14861 C 1428.89 -1.33139 3.33937 0
M  V30 14862 C 1428.55 -0.453426 4.54745 0
M  V30 14863 C 1429.55 0.289012 5.19096 0
M  V30 14864 C 1427.23 -0.378282 5.00874 0
M  V30 14865 C 1429.23 1.09482 6.27927 0
M  V30 14866 C 1426.91 0.431192 6.09577 0
M  V30 14867 C 1427.91 1.16641 6.72966 0
M  V30 14868 O 1427.6 1.96253 7.79577 0
M  V30 14869 H 1427.33 -0.168804 0.654585 0
M  V30 14870 H 1429.89 0.140832 2.04917 0
M  V30 14871 H 1428.12 -2.12367 3.23167 0
M  V30 14872 H 1429.81 -1.90089 3.58638 0
M  V30 14873 H 1430.57 0.240552 4.84403 0
M  V30 14874 H 1426.45 -0.940166 4.51311 0
M  V30 14875 H 1429.99 1.66918 6.77336 0
M  V30 14876 H 1425.89 0.481217 6.43704 0
M  V30 14877 H 1426.66 1.88686 7.96455 0
M  V30 14878 N 1429.32 -1.56304 -0.201686 0
M  V30 14879 C 1430.55 -1.84074 -0.938103 0
M  V30 14880 C 1430.96 -0.651377 -1.77634 0
M  V30 14881 O 1430.3 0.389278 -1.79528 0
M  V30 14882 C 1430.37 -3.05856 -1.88924 0
M  V30 14883 C 1430.03 -4.40036 -1.2336 0
M  V30 14884 C 1431.03 -5.16265 -0.613737 0
M  V30 14885 C 1428.71 -4.86768 -1.23942 0
M  V30 14886 C 1430.71 -6.37399 -0.00844569 0
M  V30 14887 C 1428.39 -6.07841 -0.630296 0
M  V30 14888 C 1429.39 -6.82998 -0.0158799 0
M  V30 14889 O 1429.08 -8.01778 0.58372 0
M  V30 14890 H 1428.81 -0.615492 -0.279545 0
M  V30 14891 H 1431.36 -2.04262 -0.215938 0
M  V30 14892 H 1429.59 -2.81536 -2.65093 0
M  V30 14893 H 1431.28 -3.20328 -2.49289 0
M  V30 14894 H 1432.05 -4.81257 -0.601424 0
M  V30 14895 H 1427.93 -4.2823 -1.70705 0
M  V30 14896 H 1431.47 -6.96003 0.47174 0
M  V30 14897 H 1427.37 -6.42319 -0.640089 0
M  V30 14898 H 1428.14 -8.17091 0.479979 0
M  V30 14899 N 1430.8 0.469154 -1.50455 0
M  V30 14900 C 1432.21 1.04997 -1.54378 0
M  V30 14901 C 1432.56 1.93082 -0.348414 0
M  V30 14902 O 1431.69 2.09594 0.538469 0
M  V30 14903 C 1432.28 1.91096 -2.79764 0
M  V30 14904 C 1430.84 2.44283 -2.86361 0
M  V30 14905 C 1429.99 1.22676 -2.48688 0
M  V30 14906 H 1432.94 0.251692 -1.56691 0
M  V30 14907 H 1432.96 2.76186 -2.61728 0
M  V30 14908 H 1432.47 1.26961 -3.66746 0
M  V30 14909 H 1430.57 3.11966 -2.03735 0
M  V30 14910 H 1430.69 2.79258 -3.89297 0
M  V30 14911 H 1429.05 1.56215 -2.01169 0
M  V30 14912 H 1429.83 0.602002 -3.37981 0
M  V30 14913 N 1432.28 1.40065 0.722464 0
M  V30 14914 C 1433.24 1.39544 1.81825 0
M  V30 14915 C 1434.24 0.290385 1.58156 0
M  V30 14916 O 1435.43 0.54894 1.65325 0
M  V30 14917 C 1432.56 1.18041 3.19811 0
M  V30 14918 H 1433.76 2.37063 1.83687 0
M  V30 14919 H 1431.31 1.25813 0.927404 0
M  V30 14920 H 1432.04 0.212536 3.23603 0
M  V30 14921 H 1431.83 1.98079 3.38389 0
M  V30 14922 H 1433.32 1.20447 3.99853 0
M  V30 14923 N 1433.76 -0.95397 1.25448 0
M  V30 14924 C 1435.17 -1.22516 1.02284 0
M  V30 14925 C 1435.37 -1.99816 -0.259933 0
M  V30 14926 O 1434.43 -2.33022 -0.972479 0
M  V30 14927 C 1435.74 -1.9989 2.24643 0
M  V30 14928 C 1437.29 -2.1293 2.29412 0
M  V30 14929 C 1437.77 -2.93703 3.51429 0
M  V30 14930 N 1439.26 -3.01281 3.51829 0
M  V30 14931 C 1439.99 -3.64174 4.42905 0
M  V30 14932 N 1439.49 -4.28673 5.44253 0
M  V30 14933 N 1441.28 -3.61321 4.30585 0
M  V30 14934 H 1433.43 -0.436859 2.07859 0
M  V30 14935 H 1435.69 -0.255744 0.912852 0
M  V30 14936 H 1435.4 -1.50489 3.17877 0
M  V30 14937 H 1435.27 -3.00593 2.27868 0
M  V30 14938 H 1437.66 -2.61528 1.367 0
M  V30 14939 H 1437.74 -1.1153 2.30206 0
M  V30 14940 H 1437.39 -2.45795 4.44463 0
M  V30 14941 H 1437.32 -3.95331 3.47881 0
M  V30 14942 H 1439.81 -2.55414 2.78517 0
M  V30 14943 H 1440.12 -4.74522 6.09958 0
M  V30 14944 H 1438.47 -4.27299 5.48125 0
M  V30 14945 H 1441.66 -3.10118 3.50634 0
M  V30 14946 H 1441.83 -4.1005 5.0176 0
M  V30 14947 N 1435.24 -1.07045 -1.15668 0
M  V30 14948 C 1436.47 -0.811567 -1.89992 0
M  V30 14949 C 1436.87 0.638628 -1.78096 0
M  V30 14950 O 1436.22 1.44953 -1.12846 0
M  V30 14951 C 1436.28 -1.13665 -3.41058 0
M  V30 14952 C 1435.94 -2.58681 -3.7674 0
M  V30 14953 C 1436.94 -3.56923 -3.78023 0
M  V30 14954 C 1434.62 -2.94178 -4.07142 0
M  V30 14955 C 1436.62 -4.88699 -4.09209 0
M  V30 14956 C 1434.31 -4.26152 -4.37993 0
M  V30 14957 C 1435.3 -5.23222 -4.39007 0
M  V30 14958 O 1434.99 -6.52826 -4.6912 0
M  V30 14959 H 1434.72 -0.293243 -0.609085 0
M  V30 14960 H 1437.28 -1.42941 -1.47502 0
M  V30 14961 H 1435.51 -0.461762 -3.83933 0
M  V30 14962 H 1437.2 -0.860808 -3.96667 0
M  V30 14963 H 1437.96 -3.30842 -3.54639 0
M  V30 14964 H 1433.84 -2.19272 -4.05513 0
M  V30 14965 H 1437.39 -5.6446 -4.09915 0
M  V30 14966 H 1433.28 -4.51988 -4.60844 0
M  V30 14967 H 1434.05 -6.5793 -4.86898 0
M  V30 14968 N 1436.71 1.32449 -0.85411 0
M  V30 14969 C 1437.65 2.2777 -0.255605 0
M  V30 14970 C 1438.66 1.52407 0.572355 0
M  V30 14971 O 1439.85 1.74031 0.396935 0
M  V30 14972 C 1436.95 3.32461 0.657496 0
M  V30 14973 C 1436.12 4.37193 -0.134492 0
M  V30 14974 C 1435.18 5.21465 0.704288 0
M  V30 14975 O 1434.21 5.69033 0.138001 0
M  V30 14976 N 1435.41 5.44254 2.01911 0
M  V30 14977 H 1438.17 2.79769 -1.07468 0
M  V30 14978 H 1435.73 1.45304 -0.714038 0
M  V30 14979 H 1437.73 3.85748 1.22396 0
M  V30 14980 H 1436.3 2.80625 1.37726 0
M  V30 14981 H 1435.52 3.84198 -0.882378 0
M  V30 14982 H 1436.8 5.04256 -0.678508 0
M  V30 14983 H 1436.2 5.07336 2.50252 0
M  V30 14984 H 1434.76 6.00538 2.53371 0
M  V30 14985 N 1438.19 0.611994 1.45232 0
M  V30 14986 C 1439.42 0.113618 2.07089 0
M  V30 14987 C 1439.84 -1.1947 1.45288 0
M  V30 14988 O 1439.2 -1.72845 0.547207 0
M  V30 14989 C 1439.25 -0.00789978 3.60599 0
M  V30 14990 O 1438.35 -1.05697 3.98625 0
M  V30 14991 H 1437.69 0.076066 0.659629 0
M  V30 14992 H 1440.22 0.843253 1.86415 0
M  V30 14993 H 1440.23 -0.204692 4.07486 0
M  V30 14994 H 1438.91 0.947386 4.04966 0
M  V30 14995 H 1437.48 -0.836291 3.63401 0
M  V30 14996 N 1439.67 -1.53632 0.351409 0
M  V30 14997 C 1440.62 -2.22041 -0.517867 0
M  V30 14998 C 1441.6 -1.21057 -1.0599 0
M  V30 14999 O 1442.8 -1.46569 -0.992298 0
M  V30 15000 C 1439.92 -3.00259 -1.66432 0
M  V30 15001 C 1439.01 -4.08607 -1.13584 0
M  V30 15002 N 1439.4 -5.04727 -0.329217 0
M  V30 15003 C 1437.7 -4.23059 -1.412 0
M  V30 15004 C 1438.4 -5.81685 -0.0415005 0
M  V30 15005 N 1437.38 -5.39875 -0.635288 0
M  V30 15006 H 1441.18 -2.93711 0.105386 0
M  V30 15007 H 1438.69 -1.61623 0.15868 0
M  V30 15008 H 1440.69 -3.47774 -2.29911 0
M  V30 15009 H 1439.35 -2.30117 -2.29077 0
M  V30 15010 H 1440.36 -5.17891 0.0303777 0
M  V30 15011 H 1437.04 -3.64139 -2.04227 0
M  V30 15012 H 1438.43 -6.69128 0.609686 0
M  V30 15013 N 1441.15 -0.0802183 -1.57396 0
M  V30 15014 C 1442.08 0.920242 -2.08822 0
M  V30 15015 C 1443.06 1.2858 -0.995281 0
M  V30 15016 O 1444.24 1.39364 -1.26925 0
M  V30 15017 C 1441.37 2.22589 -2.55288 0
M  V30 15018 C 1440.42 2.01128 -3.76098 0
M  V30 15019 S 1441.25 1.2629 -5.20395 0
M  V30 15020 C 1442.4 2.58116 -5.70199 0
M  V30 15021 H 1442.64 0.482685 -2.93355 0
M  V30 15022 H 1440.17 0.13274 -1.53828 0
M  V30 15023 H 1442.13 2.97625 -2.82718 0
M  V30 15024 H 1440.79 2.63468 -1.71008 0
M  V30 15025 H 1439.98 2.97775 -4.06628 0
M  V30 15026 H 1439.58 1.34225 -3.49084 0
M  V30 15027 H 1441.88 3.54166 -5.77558 0
M  V30 15028 H 1442.82 2.32185 -6.68951 0
M  V30 15029 H 1443.23 2.65707 -4.98056 0
M  V30 15030 N 1442.63 1.56409 0.193394 0
M  V30 15031 C 1443.56 1.97707 1.24234 0
M  V30 15032 C 1444.54 0.849286 1.47381 0
M  V30 15033 O 1445.72 1.11374 1.59089 0
M  V30 15034 C 1442.85 2.31804 2.5862 0
M  V30 15035 C 1441.81 3.47337 2.50082 0
M  V30 15036 C 1441.13 3.67114 3.88756 0
M  V30 15037 C 1442.43 4.81472 2.02441 0
M  V30 15038 H 1444.13 2.8558 0.89914 0
M  V30 15039 H 1441.67 1.37396 0.431078 0
M  V30 15040 H 1443.62 2.5929 3.32185 0
M  V30 15041 H 1442.35 1.40816 2.94684 0
M  V30 15042 H 1441.01 3.19944 1.78973 0
M  V30 15043 H 1440.66 2.73454 4.22175 0
M  V30 15044 H 1440.36 4.44838 3.83918 0
M  V30 15045 H 1441.88 3.96978 4.6394 0
M  V30 15046 H 1443.29 5.07978 2.65766 0
M  V30 15047 H 1441.69 5.62677 2.08601 0
M  V30 15048 H 1442.76 4.74941 0.977704 0
M  V30 15049 N 1444.1 -0.461169 1.50702 0
M  V30 15050 C 1445.35 -1.20934 1.61425 0
M  V30 15051 C 1445.67 -1.92884 0.32481 0
M  V30 15052 O 1446.87 -2.69712 0.311081 0
M  V30 15053 C 1445.33 -2.19797 2.84987 0
M  V30 15054 C 1444.94 -1.53604 4.20844 0
M  V30 15055 C 1446.68 -2.95194 3.05059 0
M  V30 15056 C 1444.59 -2.50811 5.35582 0
M  V30 15057 H 1443.52 -0.455088 0.601174 0
M  V30 15058 H 1446.17 -0.478771 1.77144 0
M  V30 15059 H 1444.55 -2.96187 2.62848 0
M  V30 15060 H 1445.72 -0.829345 4.53275 0
M  V30 15061 H 1444.04 -0.904504 4.06457 0
M  V30 15062 H 1446.64 -3.67965 3.87951 0
M  V30 15063 H 1446.98 -3.5516 2.1718 0
M  V30 15064 H 1447.51 -2.25915 3.27425 0
M  V30 15065 H 1444.25 -1.9557 6.25646 0
M  V30 15066 H 1443.77 -3.19604 5.07556 0
M  V30 15067 H 1445.45 -3.12437 5.66561 0
M  V30 15068 N 1445.58 -1.40446 -0.715026 0
M  V30 15069 C 1446.83 -1.3848 -1.47199 0
M  V30 15070 C 1447.15 0.0119198 -1.94996 0
M  V30 15071 O 1446.42 0.966772 -1.70383 0
M  V30 15072 H 1445 -0.509669 -0.54612 0
M  V30 15073 H 1447.66 -1.75505 -0.847588 0
M  V30 15074 H 1446.76 -2.06002 -2.34456 0
M  V30 15075 N 1447.06 0.947303 -1.25952 0
M  V30 15076 C 1448.3 1.70755 -1.12348 0
M  V30 15077 C 1448.66 1.89165 0.328721 0
M  V30 15078 O 1449.86 2.62318 0.586749 0
M  V30 15079 C 1448.14 3.04889 -1.86486 0
M  V30 15080 S 1449.69 3.96076 -1.88863 0
M  V30 15081 H 1446.51 0.586836 -0.401428 0
M  V30 15082 H 1449.11 1.12932 -1.59583 0
M  V30 15083 H 1447.82 2.89166 -2.91224 0
M  V30 15084 H 1447.35 3.67772 -1.39668 0
M  V30 15085 H 1449.36 4.86608 -0.970929 0
M  V30 15086 N 1448.54 1.07657 1.15099 0
M  V30 15087 C 1449.79 0.800025 1.85591 0
M  V30 15088 C 1450.11 -0.675973 1.82909 0
M  V30 15089 O 1449.38 -1.48971 1.27218 0
M  V30 15090 H 1447.96 0.292958 0.687157 0
M  V30 15091 H 1450.62 1.36096 1.39513 0
M  V30 15092 H 1449.72 1.13733 2.90639 0
M  V30 15093 N 1450.02 -1.31994 0.861122 0
M  V30 15094 C 1451.26 -1.97025 0.467678 0
M  V30 15095 C 1451.59 -1.68116 -0.978129 0
M  V30 15096 O 1450.85 -0.965342 -1.70234 0
M  V30 15097 C 1451.15 -3.51232 0.661135 0
M  V30 15098 C 1450.81 -4.00142 2.07839 0
M  V30 15099 C 1449.47 -4.1321 2.466 0
M  V30 15100 C 1451.83 -4.25986 3.00309 0
M  V30 15101 C 1449.15 -4.49467 3.7709 0
M  V30 15102 C 1451.51 -4.63704 4.30304 0
M  V30 15103 C 1450.17 -4.74978 4.68991 0
M  V30 15104 H 1449.44 -0.720967 0.171136 0
M  V30 15105 H 1452.09 -1.57285 1.09242 0
M  V30 15106 H 1450.39 -3.91772 -0.0467947 0
M  V30 15107 H 1452.09 -3.99584 0.336669 0
M  V30 15108 H 1448.68 -3.90461 1.76743 0
M  V30 15109 H 1452.86 -4.15393 2.71592 0
M  V30 15110 H 1448.12 -4.56391 4.06838 0
M  V30 15111 H 1452.29 -4.82654 5.02014 0
M  V30 15112 H 1449.92 -5.02828 5.70147 0
M  V30 15113 N 1451.49 -0.619688 -1.44906 0
M  V30 15114 C 1452.46 0.0822364 -2.29052 0
M  V30 15115 C 1453.46 0.783427 -1.40425 0
M  V30 15116 O 1454.65 0.629751 -1.62419 0
M  V30 15117 C 1451.78 1.12685 -3.21737 0
M  V30 15118 H 1452.97 -0.657726 -2.92599 0
M  V30 15119 H 1450.53 -0.379286 -1.51628 0
M  V30 15120 H 1451.26 1.89717 -2.63017 0
M  V30 15121 H 1451.05 0.628122 -3.87036 0
M  V30 15122 H 1452.54 1.61808 -3.84978 0
M  V30 15123 N 1452.97 1.53444 -0.359552 0
M  V30 15124 C 1453.88 2.29257 0.497834 0
M  V30 15125 C 1454.9 1.34987 1.09793 0
M  V30 15126 O 1456.07 1.68039 1.11017 0
M  V30 15127 C 1453.14 3.06258 1.62502 0
M  V30 15128 C 1452.2 4.16183 1.05308 0
M  V30 15129 C 1451.43 4.89503 2.12655 0
M  V30 15130 O 1451.66 4.6263 3.33661 0
M  V30 15131 O 1450.59 5.75578 1.76051 0
M  V30 15132 H 1454.42 3.03467 -0.118925 0
M  V30 15133 H 1452 1.48884 -0.124111 0
M  V30 15134 H 1453.88 3.5436 2.2805 0
M  V30 15135 H 1452.56 2.3489 2.22729 0
M  V30 15136 H 1451.47 3.72348 0.361679 0
M  V30 15137 H 1452.8 4.897 0.49545 0
M  V30 15138 N 1454.45 0.0885642 1.57351 0
M  V30 15139 C 1455.86 -0.441569 1.81403 0
M  V30 15140 C 1456.21 -1.68582 1.00372 0
M  V30 15141 O 1455.34 -2.15162 0.231153 0
M  V30 15142 C 1455.93 -0.807886 3.29027 0
M  V30 15143 C 1454.49 -1.2828 3.53866 0
M  V30 15144 C 1453.64 -0.276217 2.75921 0
M  V30 15145 H 1456.59 0.314083 1.55561 0
M  V30 15146 H 1456.61 -1.66797 3.41993 0
M  V30 15147 H 1456.12 0.0978886 3.87977 0
M  V30 15148 H 1454.22 -2.2065 3.0024 0
M  V30 15149 H 1454.34 -1.24914 4.62529 0
M  V30 15150 H 1452.7 -0.757007 2.4319 0
M  V30 15151 H 1453.48 0.622123 3.37616 0
M  V30 15152 N 1455.93 -1.56509 -0.185096 0
M  V30 15153 C 1457.18 -1.80848 -0.902139 0
M  V30 15154 C 1457.5 -0.663295 -1.83372 0
M  V30 15155 O 1456.77 0.317754 -1.93306 0
M  V30 15156 H 1455.35 -0.667108 -0.336119 0
M  V30 15157 H 1458.01 -1.93989 -0.188211 0
M  V30 15158 H 1457.11 -2.74383 -1.48729 0
M  V30 15159 N 1457.41 0.45317 -1.50944 0
M  V30 15160 C 1458.68 1.21413 -1.53357 0
M  V30 15161 C 1459.06 2.09118 -0.288584 0
M  V30 15162 O 1458.41 2.16621 0.727164 0
M  V30 15163 C 1458.62 2.02969 -2.83909 0
M  V30 15164 C 1459.97 2.60551 -3.35258 0
M  V30 15165 O 1460.99 2.13196 -2.85353 0
M  V30 15166 O 1459.85 3.46881 -4.22298 0
M  V30 15167 H 1456.95 0.551909 -0.615894 0
M  V30 15168 H 1459.49 0.463529 -1.63247 0
M  V30 15169 H 1458.26 1.38453 -3.65987 0
M  V30 15170 H 1457.89 2.85127 -2.77107 0
M  V30 15171 N 1458.88 1.40823 0.707568 0
M  V30 15172 C 1460.12 1.40992 1.47989 0
M  V30 15173 C 1460.49 0.0138056 1.91995 0
M  V30 15174 O 1461.69 -0.109666 2.68576 0
M  V30 15175 C 1459.96 2.37857 2.66756 0
M  V30 15176 S 1461.52 2.56453 3.56058 0
M  V30 15177 H 1458.34 0.499622 0.505864 0
M  V30 15178 H 1460.94 1.77161 0.826703 0
M  V30 15179 H 1459.64 3.38113 2.32611 0
M  V30 15180 H 1459.17 2.03 3.36979 0
M  V30 15181 H 1461.19 1.82294 4.61501 0
M  V30 15182 N 1460.36 -0.94061 1.26453 0
M  V30 15183 C 1461.61 -1.68354 1.11809 0
M  V30 15184 C 1461.93 -1.9203 -0.339037 0
M  V30 15185 O 1461.2 -1.51739 -1.23903 0
M  V30 15186 H 1459.78 -0.623916 0.410777 0
M  V30 15187 H 1462.44 -1.13014 1.58789 0
M  V30 15188 H 1461.54 -2.65706 1.63728 0
M  V30 15189 N 1461.84 -1.08266 -1.14527 0
M  V30 15190 C 1463.09 -0.809856 -1.85164 0
M  V30 15191 C 1463.41 0.666263 -1.83265 0
M  V30 15192 O 1462.68 1.48295 -1.28006 0
M  V30 15193 H 1461.26 -0.296598 -0.685594 0
M  V30 15194 H 1463.92 -1.36834 -1.38789 0
M  V30 15195 H 1463.02 -1.15272 -2.90032 0
M  V30 15196 N 1463.32 1.31536 -0.86811 0
M  V30 15197 C 1464.57 1.96045 -0.474271 0
M  V30 15198 C 1464.88 1.6939 0.978071 0
M  V30 15199 O 1466.09 2.27746 1.47797 0
M  V30 15200 C 1464.54 3.5096 -0.797203 0
M  V30 15201 C 1464.15 3.86456 -2.26618 0
M  V30 15202 C 1465.9 4.21871 -0.471745 0
M  V30 15203 C 1463.8 5.34474 -2.53162 0
M  V30 15204 H 1462.73 0.733737 -0.173627 0
M  V30 15205 H 1465.38 1.49734 -1.06076 0
M  V30 15206 H 1463.77 3.95752 -0.139994 0
M  V30 15207 H 1464.94 3.52629 -2.9663 0
M  V30 15208 H 1463.25 3.28605 -2.55749 0
M  V30 15209 H 1465.85 5.30767 -0.647317 0
M  V30 15210 H 1466.19 4.12131 0.58768 0
M  V30 15211 H 1466.73 3.82706 -1.08542 0
M  V30 15212 H 1463.47 5.49248 -3.57781 0
M  V30 15213 H 1462.99 5.6966 -1.87743 0
M  V30 15214 H 1464.67 6.01716 -2.37797 0
M  V30 15215 N 1464.8 0.627364 1.44575 0
M  V30 15216 C 1465.73 -0.066735 2.33405 0
M  V30 15217 C 1466.71 -0.838666 1.47988 0
M  V30 15218 O 1467.89 -0.805296 1.76716 0
M  V30 15219 C 1465.02 -1.05148 3.31 0
M  V30 15220 C 1463.98 -0.391433 4.26206 0
M  V30 15221 C 1463.3 -1.48581 5.13642 0
M  V30 15222 C 1464.6 0.699942 5.17589 0
M  V30 15223 H 1466.3 0.675029 2.91691 0
M  V30 15224 H 1463.84 0.326066 1.4026 0
M  V30 15225 H 1465.8 -1.54576 3.92026 0
M  V30 15226 H 1464.52 -1.82408 2.70915 0
M  V30 15227 H 1463.18 0.0821694 3.66508 0
M  V30 15228 H 1462.83 -2.2492 4.49911 0
M  V30 15229 H 1462.53 -1.04957 5.7815 0
M  V30 15230 H 1464.05 -1.98198 5.77538 0
M  V30 15231 H 1465.47 0.288911 5.72572 0
M  V30 15232 H 1463.86 1.0591 5.9068 0
M  V30 15233 H 1464.93 1.5686 4.58828 0
M  V30 15234 N 1466.28 -1.53251 0.367684 0
M  V30 15235 C 1467.69 -1.59591 0.0167132 0
M  V30 15236 C 1467.89 -1.38272 -1.46571 0
M  V30 15237 O 1466.95 -1.18893 -2.22757 0
M  V30 15238 C 1468.26 -2.96932 0.474534 0
M  V30 15239 C 1469.81 -3.10047 0.428934 0
M  V30 15240 C 1470.28 -4.49804 0.862599 0
M  V30 15241 N 1471.77 -4.55925 0.817742 0
M  V30 15242 C 1472.51 -5.62256 1.12496 0
M  V30 15243 N 1472.01 -6.76332 1.50156 0
M  V30 15244 N 1473.8 -5.52251 1.04762 0
M  V30 15245 H 1465.95 -1.6536 1.33303 0
M  V30 15246 H 1468.21 -0.775681 0.544998 0
M  V30 15247 H 1467.92 -3.17679 1.50907 0
M  V30 15248 H 1467.79 -3.76948 -0.137752 0
M  V30 15249 H 1470.18 -2.89009 -0.596473 0
M  V30 15250 H 1470.26 -2.32034 1.07674 0
M  V30 15251 H 1469.9 -4.7158 1.88613 0
M  V30 15252 H 1469.83 -5.2625 0.19202 0
M  V30 15253 H 1472.33 -3.74017 0.540323 0
M  V30 15254 H 1472.64 -7.53412 1.72019 0
M  V30 15255 H 1470.98 -6.77718 1.54024 0
M  V30 15256 H 1474.17 -4.62011 0.752571 0
M  V30 15257 H 1474.35 -6.35022 1.29038 0
M  V30 15258 N 1467.75 -0.0969077 -1.57302 0
M  V30 15259 C 1468.99 0.569724 -1.963 0
M  V30 15260 C 1469.36 1.65238 -0.977779 0
M  V30 15261 O 1470.56 2.37634 -1.25632 0
M  V30 15262 C 1468.83 1.10889 -3.39762 0
M  V30 15263 S 1470.39 1.78714 -4.00758 0
M  V30 15264 H 1467.21 0.185855 -0.686279 0
M  V30 15265 H 1469.81 -0.176741 -1.94699 0
M  V30 15266 H 1468.51 0.309441 -4.09232 0
M  V30 15267 H 1468.04 1.89114 -3.44963 0
M  V30 15268 H 1470.06 3.07149 -3.8971 0
M  V30 15269 N 1469.23 1.56605 0.176793 0
M  V30 15270 C 1470.46 1.85812 0.910019 0
M  V30 15271 C 1470.87 0.68164 1.76066 0
M  V30 15272 O 1470.23 -0.34936 1.79125 0
M  V30 15273 C 1470.28 3.14001 1.79125 0
M  V30 15274 O 1470 4.27114 0.974931 0
M  V30 15275 C 1471.5 3.56516 2.6346 0
M  V30 15276 H 1468.72 0.616608 0.264643 0
M  V30 15277 H 1471.27 2.03719 0.178537 0
M  V30 15278 H 1469.42 2.97937 2.47613 0
M  V30 15279 H 1469.84 5.00227 1.57711 0
M  V30 15280 H 1471.31 4.49128 3.20918 0
M  V30 15281 H 1471.79 2.80373 3.38065 0
M  V30 15282 H 1472.39 3.75173 2.00313 0
M  V30 15283 N 1470.71 -0.445159 1.51182 0
M  V30 15284 C 1471.66 -1.53798 1.68316 0
M  V30 15285 C 1472.64 -1.51666 0.537244 0
M  V30 15286 O 1473.84 -1.58251 0.792818 0
M  V30 15287 C 1470.96 -2.92053 1.80444 0
M  V30 15288 C 1470.05 -2.98971 3.00794 0
M  V30 15289 N 1470.44 -2.75648 4.24089 0
M  V30 15290 C 1468.74 -3.30127 2.99887 0
M  V30 15291 C 1469.44 -2.88206 5.05284 0
M  V30 15292 N 1468.42 -3.19538 4.39769 0
M  V30 15293 H 1472.22 -1.34506 2.61315 0
M  V30 15294 H 1469.73 -0.652341 1.48722 0
M  V30 15295 H 1471.73 -3.70663 1.90827 0
M  V30 15296 H 1470.39 -3.12372 0.886204 0
M  V30 15297 H 1471.4 -2.50727 4.53163 0
M  V30 15298 H 1468.08 -3.5627 2.17665 0
M  V30 15299 H 1469.47 -2.74194 6.13406 0
M  V30 15300 N 1472.19 -1.41197 -0.700089 0
M  V30 15301 C 1473.44 -1.40034 -1.45722 0
M  V30 15302 C 1473.76 -0.00876281 -1.94998 0
M  V30 15303 O 1473.03 0.948647 -1.71399 0
M  V30 15304 H 1471.61 -0.515433 -0.540683 0
M  V30 15305 H 1474.27 -1.76394 -0.828926 0
M  V30 15306 H 1473.36 -2.08477 -2.32258 0
M  V30 15307 N 1473.67 0.933891 -1.2695 0
M  V30 15308 C 1474.91 1.6834 -1.13091 0
M  V30 15309 C 1475.24 1.91484 0.32367 0
M  V30 15310 O 1474.52 1.50075 1.23724 0
M  V30 15311 C 1474.8 3.05374 -1.90838 0
M  V30 15312 C 1474.66 2.8951 -3.44244 0
M  V30 15313 C 1475.97 4.05607 -1.70795 0
M  V30 15314 H 1473.09 0.610944 -0.41221 0
M  V30 15315 H 1475.74 1.08416 -1.56032 0
M  V30 15316 H 1473.89 3.56526 -1.54343 0
M  V30 15317 H 1475.56 2.45523 -3.90533 0
M  V30 15318 H 1473.8 2.24981 -3.70899 0
M  V30 15319 H 1474.47 3.86734 -3.93879 0
M  V30 15320 H 1476.95 3.63443 -2.02604 0
M  V30 15321 H 1475.82 4.9949 -2.27597 0
M  V30 15322 H 1476.08 4.37231 -0.654327 0
M  V30 15323 N 1475.14 1.08871 1.13951 0
M  V30 15324 C 1476.39 0.816198 1.84448 0
M  V30 15325 C 1476.71 -0.660396 1.84114 0
M  V30 15326 O 1477.91 -1.04825 2.50448 0
M  V30 15327 C 1476.37 1.41015 3.31123 0
M  V30 15328 C 1475.98 2.91888 3.39861 0
M  V30 15329 C 1477.72 1.21633 4.06701 0
M  V30 15330 C 1475.63 3.44397 4.80775 0
M  V30 15331 H 1474.56 0.301662 0.691025 0
M  V30 15332 H 1477.21 1.31072 1.28423 0
M  V30 15333 H 1475.59 0.843333 3.86916 0
M  V30 15334 H 1476.76 3.54747 2.94094 0
M  V30 15335 H 1475.08 3.10238 2.77743 0
M  V30 15336 H 1477.68 1.58324 5.10723 0
M  V30 15337 H 1478.02 0.156519 4.16006 0
M  V30 15338 H 1478.55 1.75035 3.57222 0
M  V30 15339 H 1475.29 4.49973 4.7666 0
M  V30 15340 H 1474.81 2.86299 5.27061 0
M  V30 15341 H 1476.49 3.41266 5.49679 0
M  V30 15342 N 1476.62 -1.31073 0.875073 0
M  V30 15343 C 1477.87 -1.9613 0.487584 0
M  V30 15344 C 1478.19 -1.69482 -0.964407 0
M  V30 15345 O 1477.46 -1.013 -1.67676 0
M  V30 15346 H 1476.04 -0.725649 0.177319 0
M  V30 15347 H 1478.7 -1.59787 1.11598 0
M  V30 15348 H 1477.8 -3.05265 0.649574 0
M  V30 15349 N 1478.1 -0.635022 -1.4424 0
M  V30 15350 C 1479.35 -0.138497 -2.01224 0
M  V30 15351 C 1479.66 1.2485 -1.50571 0
M  V30 15352 O 1480.87 1.83926 -1.99709 0
M  V30 15353 C 1479.32 -0.196836 -3.59361 0
M  V30 15354 C 1478.93 -1.58539 -4.1901 0
M  V30 15355 C 1480.68 0.243025 -4.23804 0
M  V30 15356 C 1478.58 -1.59864 -5.69384 0
M  V30 15357 H 1477.51 -0.0480117 -0.75247 0
M  V30 15358 H 1480.16 -0.794391 -1.65414 0
M  V30 15359 H 1478.55 0.526231 -3.92488 0
M  V30 15360 H 1479.72 -2.33236 -3.97414 0
M  V30 15361 H 1478.04 -1.96967 -3.66869 0
M  V30 15362 H 1480.63 0.252717 -5.34102 0
M  V30 15363 H 1480.98 1.27107 -3.96421 0
M  V30 15364 H 1481.51 -0.427678 -3.95494 0
M  V30 15365 H 1478.25 -2.60518 -6.01507 0
M  V30 15366 H 1477.77 -0.894664 -5.9309 0
M  V30 15367 H 1479.45 -1.3343 -6.33092 0
M  V30 15368 N 1479.58 1.53054 -0.375806 0
M  V30 15369 C 1480.83 2.00584 0.211847 0
M  V30 15370 C 1481.14 1.26692 1.49025 0
M  V30 15371 O 1482.35 1.64863 2.15713 0
M  V30 15372 C 1480.8 3.57345 0.428074 0
M  V30 15373 C 1480.41 4.40125 -0.836299 0
M  V30 15374 C 1482.15 4.13203 0.972825 0
M  V30 15375 C 1480.06 5.88459 -0.589093 0
M  V30 15376 H 1478.99 0.749424 0.0829412 0
M  V30 15377 H 1481.64 1.76666 -0.496126 0
M  V30 15378 H 1480.02 3.77458 1.19756 0
M  V30 15379 H 1481.2 4.31782 -1.60936 0
M  V30 15380 H 1479.51 3.95422 -1.30501 0
M  V30 15381 H 1482.11 5.21669 1.17326 0
M  V30 15382 H 1482.45 3.68441 1.93797 0
M  V30 15383 H 1482.99 3.96928 0.263249 0
M  V30 15384 H 1479.73 6.37517 -1.52485 0
M  V30 15385 H 1479.25 5.99624 0.145285 0
M  V30 15386 H 1480.92 6.46631 -0.218485 0
M  V30 15387 N 1481.06 0.105248 1.57248 0
M  V30 15388 C 1482.28 -0.564157 1.9906 0
M  V30 15389 C 1482.7 -1.61092 0.984624 0
M  V30 15390 O 1482.06 -1.82484 -0.0244031 0
M  V30 15391 C 1482.11 -1.20272 3.40906 0
M  V30 15392 O 1481.83 -0.197815 4.37653 0
M  V30 15393 C 1483.33 -1.95677 3.97776 0
M  V30 15394 H 1480.55 -0.150468 0.653912 0
M  V30 15395 H 1483.09 0.187532 2.03638 0
M  V30 15396 H 1481.25 -1.90528 3.3731 0
M  V30 15397 H 1481.66 -0.659998 5.20331 0
M  V30 15398 H 1483.14 -2.35702 4.99148 0
M  V30 15399 H 1483.61 -2.82661 3.36154 0
M  V30 15400 H 1484.22 -1.30215 4.04876 0
M  V30 15401 N 1482.53 -1.56697 -0.168486 0
M  V30 15402 C 1483.5 -1.95744 -1.19235 0
M  V30 15403 C 1484.5 -0.841419 -1.37028 0
M  V30 15404 O 1485.69 -1.10842 -1.34386 0
M  V30 15405 C 1482.82 -2.25471 -2.55686 0
M  V30 15406 H 1484.01 -2.87368 -0.857892 0
M  V30 15407 H 1481.57 -1.50798 -0.411041 0
M  V30 15408 H 1482.3 -1.36571 -2.94141 0
M  V30 15409 H 1482.09 -3.06822 -2.44137 0
M  V30 15410 H 1483.58 -2.56593 -3.29469 0
M  V30 15411 N 1484.01 0.437135 -1.51416 0
M  V30 15412 C 1485.26 1.18421 -1.63771 0
M  V30 15413 C 1485.58 1.91718 -0.356282 0
M  V30 15414 O 1484.85 1.85566 0.627863 0
M  V30 15415 H 1483.43 0.440125 -0.603572 0
M  V30 15416 H 1486.09 0.501155 -1.88347 0
M  V30 15417 H 1485.19 1.91367 -2.46546 0
M  V30 15418 N 1485.49 1.41566 0.692592 0
M  V30 15419 C 1486.74 1.40805 1.44978 0
M  V30 15420 C 1487.06 0.0191039 1.94991 0
M  V30 15421 O 1486.33 -0.939544 1.71899 0
M  V30 15422 H 1484.91 0.518293 0.537942 0
M  V30 15423 H 1487.57 1.76831 0.81956 0
M  V30 15424 H 1486.67 2.09706 2.31149 0
M  V30 15425 N 1486.97 -0.927146 1.27443 0
M  V30 15426 C 1487.88 -2.06122 1.12031 0
M  V30 15427 C 1488.89 -1.73928 0.0501979 0
M  V30 15428 O 1490.07 -1.99756 0.256796 0
M  V30 15429 C 1487.14 -3.3805 0.769634 0
M  V30 15430 C 1486.2 -3.83938 1.92068 0
M  V30 15431 C 1485.43 -5.0957 1.58664 0
M  V30 15432 O 1485.65 -5.6825 0.494789 0
M  V30 15433 O 1484.59 -5.50844 2.42599 0
M  V30 15434 H 1488.41 -2.22037 2.07203 0
M  V30 15435 H 1486 -1.04638 1.06636 0
M  V30 15436 H 1487.88 -4.17286 0.587423 0
M  V30 15437 H 1486.55 -3.2334 -0.152557 0
M  V30 15438 H 1485.46 -3.05587 2.15795 0
M  V30 15439 H 1486.79 -4.0319 2.8231 0
M  V30 15440 N 1488.45 -1.09474 -1.13372 0
M  V30 15441 C 1489.69 -0.82945 -1.84295 0
M  V30 15442 C 1490.02 0.646788 -1.83961 0
M  V30 15443 O 1489.29 1.46929 -1.29572 0
M  V30 15444 H 1487.87 -0.303853 -0.682409 0
M  V30 15445 H 1490.53 -1.38298 -1.3733 0
M  V30 15446 H 1489.62 -1.18342 -2.88793 0
M  V30 15447 N 1489.92 1.30607 -0.882012 0
M  V30 15448 C 1491.17 1.95531 -0.495038 0
M  V30 15449 C 1491.49 1.70418 0.96005 0
M  V30 15450 O 1492.69 2.29301 1.45373 0
M  V30 15451 C 1491.15 3.50094 -0.834382 0
M  V30 15452 C 1490.76 3.84031 -2.30704 0
M  V30 15453 C 1492.5 4.21347 -0.516463 0
M  V30 15454 C 1490.41 5.31759 -2.58817 0
M  V30 15455 H 1489.34 0.731854 -0.181399 0
M  V30 15456 H 1491.99 1.486 -1.07658 0
M  V30 15457 H 1490.37 3.95582 -0.181961 0
M  V30 15458 H 1491.54 3.49463 -3.00353 0
M  V30 15459 H 1489.86 3.25874 -2.5922 0
M  V30 15460 H 1492.46 5.30051 -0.703576 0
M  V30 15461 H 1492.8 4.12731 0.543935 0
M  V30 15462 H 1493.33 3.81533 -1.12595 0
M  V30 15463 H 1490.07 5.45422 -3.63586 0
M  V30 15464 H 1489.59 5.67637 -1.93774 0
M  V30 15465 H 1491.27 5.9916 -2.44165 0
M  V30 15466 N 1491.4 0.642663 1.43901 0
M  V30 15467 C 1492.65 0.152003 2.0223 0
M  V30 15468 C 1492.98 -1.22711 1.50518 0
M  V30 15469 O 1492.26 -1.817 0.693937 0
M  V30 15470 C 1492.54 0.151278 3.59782 0
M  V30 15471 C 1492.39 1.56356 4.2175 0
M  V30 15472 C 1493.71 -0.518016 4.37041 0
M  V30 15473 H 1490.83 0.0567094 0.734815 0
M  V30 15474 H 1493.47 0.821337 1.7133 0
M  V30 15475 H 1491.62 -0.418679 3.86237 0
M  V30 15476 H 1493.29 2.18329 4.06362 0
M  V30 15477 H 1491.54 2.11401 3.78803 0
M  V30 15478 H 1492.21 1.51499 5.30803 0
M  V30 15479 H 1494.68 -0.0331947 4.16087 0
M  V30 15480 H 1493.56 -0.487754 5.46729 0
M  V30 15481 H 1493.82 -1.59036 4.12504 0
M  V30 15482 N 1492.88 -1.52852 0.383918 0
M  V30 15483 C 1493.84 -2.24904 -0.441687 0
M  V30 15484 C 1494.84 -1.26345 -0.99466 0
M  V30 15485 O 1496.03 -1.50484 -0.877513 0
M  V30 15486 C 1493.17 -2.99994 -1.61915 0
M  V30 15487 H 1494.36 -2.99304 0.189047 0
M  V30 15488 H 1491.91 -1.55708 0.135932 0
M  V30 15489 H 1492.65 -2.29882 -2.28746 0
M  V30 15490 H 1492.43 -3.72328 -1.2294 0
M  V30 15491 H 1493.92 -3.54716 -2.20378 0
M  V30 15492 N 1494.36 -0.113586 -1.5719 0
M  V30 15493 C 1495.61 0.54572 -1.95008 0
M  V30 15494 C 1495.93 1.67031 -0.996541 0
M  V30 15495 O 1495.19 1.9569 -0.0194353 0
M  V30 15496 C 1495.49 1.1238 -3.39272 0
M  V30 15497 C 1495.15 0.12112 -4.50737 0
M  V30 15498 C 1493.82 -0.154607 -4.80952 0
M  V30 15499 C 1496.17 -0.562502 -5.18156 0
M  V30 15500 C 1493.5 -1.12033 -5.75904 0
M  V30 15501 C 1495.85 -1.51682 -6.14146 0
M  V30 15502 C 1494.51 -1.80059 -6.42756 0
M  V30 15503 H 1493.78 0.199693 -0.713585 0
M  V30 15504 H 1496.43 -0.193344 -1.90521 0
M  V30 15505 H 1494.73 1.93951 -3.40426 0
M  V30 15506 H 1496.43 1.64195 -3.65843 0
M  V30 15507 H 1493.02 0.34621 -4.27199 0
M  V30 15508 H 1497.21 -0.362645 -4.94973 0
M  V30 15509 H 1492.46 -1.34699 -5.96377 0
M  V30 15510 H 1496.64 -2.05225 -6.65474 0
M  V30 15511 H 1494.26 -2.55046 -7.16139 0
M  V30 15512 N 1495.84 1.56784 0.160173 0
M  V30 15513 C 1496.8 1.96373 1.18195 0
M  V30 15514 C 1497.8 0.848674 1.3658 0
M  V30 15515 O 1498.99 1.11553 1.33796 0
M  V30 15516 C 1496.12 2.26824 2.54487 0
M  V30 15517 H 1497.32 2.87819 0.842641 0
M  V30 15518 H 1494.87 1.51014 0.403038 0
M  V30 15519 H 1495.6 1.38129 2.93413 0
M  V30 15520 H 1495.39 3.08112 2.42507 0
M  V30 15521 H 1496.88 2.58337 3.28104 0
M  V30 15522 N 1497.32 -0.429099 1.51646 0
M  V30 15523 C 1498.59 -1.18958 1.55269 0
M  V30 15524 C 1498.97 -2.08633 0.321816 0
M  V30 15525 O 1498.32 -2.1775 -0.69261 0
M  V30 15526 C 1498.53 -1.98427 2.87102 0
M  V30 15527 C 1499.88 -2.55185 3.39361 0
M  V30 15528 O 1500.9 -2.08629 2.88708 0
M  V30 15529 O 1499.76 -3.40119 4.27763 0
M  V30 15530 H 1496.86 -0.542041 0.624596 0
M  V30 15531 H 1499.4 -0.437499 1.63964 0
M  V30 15532 H 1498.17 -1.32613 3.68143 0
M  V30 15533 H 1497.8 -2.80683 2.81608 0
M  V30 15534 N 1498.79 -1.41931 -0.685074 0
M  V30 15535 C 1500.04 -1.41147 -1.44085 0
M  V30 15536 C 1500.36 -0.0275793 -1.95581 0
M  V30 15537 O 1501.56 0.102873 -2.71305 0
M  V30 15538 C 1500.02 -2.4823 -2.60596 0
M  V30 15539 C 1499.63 -3.92576 -2.15842 0
M  V30 15540 C 1501.37 -2.56597 -3.38169 0
M  V30 15541 C 1499.28 -4.91189 -3.29374 0
M  V30 15542 H 1498.21 -0.52494 -0.541252 0
M  V30 15543 H 1500.86 -1.67798 -0.7427 0
M  V30 15544 H 1499.24 -2.14727 -3.32729 0
M  V30 15545 H 1500.41 -4.35381 -1.50929 0
M  V30 15546 H 1498.73 -3.87965 -1.51235 0
M  V30 15547 H 1501.33 -3.27453 -4.22704 0
M  V30 15548 H 1501.67 -1.60618 -3.84067 0
M  V30 15549 H 1502.2 -2.89244 -2.73099 0
M  V30 15550 H 1498.94 -5.88609 -2.88477 0
M  V30 15551 H 1498.46 -4.53024 -3.93102 0
M  V30 15552 H 1500.14 -5.12433 -3.94996 0
M  V30 15553 N 1500.27 0.920374 -1.27933 0
M  V30 15554 C 1501.69 1.19761 -1.05496 0
M  V30 15555 C 1501.89 2.00435 0.206864 0
M  V30 15556 O 1500.94 2.35518 0.910356 0
M  V30 15557 C 1502.26 1.93863 -2.29864 0
M  V30 15558 C 1503.8 2.06773 -2.34976 0
M  V30 15559 C 1504.28 2.84282 -3.59093 0
M  V30 15560 N 1505.77 2.91847 -3.59694 0
M  V30 15561 C 1506.51 3.52303 -4.52404 0
M  V30 15562 N 1506 4.14092 -5.55427 0
M  V30 15563 N 1507.79 3.49778 -4.40013 0
M  V30 15564 H 1499.95 0.381596 -2.08944 0
M  V30 15565 H 1502.21 0.231451 -0.919312 0
M  V30 15566 H 1501.91 1.42008 -3.21756 0
M  V30 15567 H 1501.79 2.94446 -2.35757 0
M  V30 15568 H 1504.18 2.57812 -1.43586 0
M  V30 15569 H 1504.26 1.05388 -2.33082 0
M  V30 15570 H 1503.9 2.33925 -4.50823 0
M  V30 15571 H 1503.83 3.85968 -3.5824 0
M  V30 15572 H 1506.32 2.4794 -2.85191 0
M  V30 15573 H 1506.63 4.58183 -6.22325 0
M  V30 15574 H 1504.98 4.12616 -5.59261 0
M  V30 15575 H 1508.17 3.00712 -3.58733 0
M  V30 15576 H 1508.34 3.96603 -5.12455 0
M  V30 15577 N 1501.75 1.10074 1.1279 0
M  V30 15578 C 1503.03 0.753069 1.80522 0
M  V30 15579 C 1503.41 -0.760982 1.96907 0
M  V30 15580 O 1502.75 -1.68584 1.54245 0
M  V30 15581 C 1502.96 1.49982 3.15129 0
M  V30 15582 C 1504.31 1.66993 3.90382 0
M  V30 15583 O 1505.34 1.46289 3.24774 0
M  V30 15584 O 1504.2 2.01293 5.08078 0
M  V30 15585 H 1501.29 0.271277 0.781241 0
M  V30 15586 H 1503.84 1.20333 1.19658 0
M  V30 15587 H 1502.61 2.53043 2.98471 0
M  V30 15588 H 1502.23 1.04217 3.83699 0
M  V30 15589 N 1503.23 -1.30138 0.888926 0
M  V30 15590 C 1504.16 -2.3047 0.374934 0
M  V30 15591 C 1505.14 -1.61156 -0.544322 0
M  V30 15592 O 1506.32 -1.88738 -0.457337 0
M  V30 15593 C 1503.45 -3.44896 -0.407935 0
M  V30 15594 C 1502.41 -4.25935 0.419916 0
M  V30 15595 C 1501.73 -5.32452 -0.489797 0
M  V30 15596 C 1503.03 -4.9508 1.66413 0
M  V30 15597 H 1504.73 -2.73711 1.21337 0
M  V30 15598 H 1502.27 -1.31586 0.584899 0
M  V30 15599 H 1504.23 -4.14153 -0.778177 0
M  V30 15600 H 1502.95 -3.0047 -1.28005 0
M  V30 15601 H 1501.61 -3.58372 0.772348 0
M  V30 15602 H 1501.26 -4.84273 -1.35974 0
M  V30 15603 H 1500.96 -5.87569 0.0603412 0
M  V30 15604 H 1502.48 -6.04563 -0.856468 0
M  V30 15605 H 1503.9 -5.56831 1.36425 0
M  V30 15606 H 1502.29 -5.6008 2.15477 0
M  V30 15607 H 1503.36 -4.20981 2.4063 0
M  V30 15608 N 1504.71 -0.650285 -1.43559 0
M  V30 15609 C 1505.95 -0.171315 -2.02677 0
M  V30 15610 C 1506.31 1.20031 -1.50367 0
M  V30 15611 O 1505.6 1.78901 -0.685922 0
M  V30 15612 C 1505.79 -0.119084 -3.57202 0
M  V30 15613 C 1505.62 -1.4841 -4.24505 0
M  V30 15614 C 1504.39 -2.07575 -4.60696 0
M  V30 15615 C 1506.59 -2.42191 -4.53705 0
M  V30 15616 N 1504.57 -3.37112 -5.13058 0
M  V30 15617 C 1505.94 -3.56359 -5.07354 0
M  V30 15618 C 1508 -2.4103 -4.35671 0
M  V30 15619 C 1506.7 -4.69587 -5.44868 0
M  V30 15620 C 1508.73 -3.53336 -4.74244 0
M  V30 15621 C 1508.09 -4.66229 -5.28024 0
M  V30 15622 H 1504.19 -0.107051 -0.774638 0
M  V30 15623 H 1506.77 -0.857951 -1.74778 0
M  V30 15624 H 1504.94 0.536887 -3.84671 0
M  V30 15625 H 1506.68 0.370487 -4.03001 0
M  V30 15626 H 1503.43 -1.60315 -4.45641 0
M  V30 15627 H 1503.85 -4.03392 -5.43695 0
M  V30 15628 H 1508.5 -1.54988 -3.93368 0
M  V30 15629 H 1506.21 -5.56322 -5.86115 0
M  V30 15630 H 1509.8 -3.53636 -4.61988 0
M  V30 15631 H 1508.68 -5.51693 -5.57319 0
M  V30 15632 N 1506.18 1.52647 -0.392018 0
M  V30 15633 C 1507.43 2.01912 0.18958 0
M  V30 15634 C 1507.76 1.27786 1.46234 0
M  V30 15635 O 1507.04 0.379124 1.90769 0
M  V30 15636 C 1507.32 3.57217 0.454734 0
M  V30 15637 C 1507.17 4.4201 -0.833501 0
M  V30 15638 C 1508.49 4.22146 1.24421 0
M  V30 15639 H 1505.61 0.733909 0.0674281 0
M  V30 15640 H 1508.25 1.82685 -0.52212 0
M  V30 15641 H 1506.4 3.73731 1.06101 0
M  V30 15642 H 1508.08 4.37242 -1.47027 0
M  V30 15643 H 1506.32 4.08912 -1.44823 0
M  V30 15644 H 1506.99 5.48701 -0.602585 0
M  V30 15645 H 1509.47 4.09627 0.731093 0
M  V30 15646 H 1508.34 5.30786 1.39848 0
M  V30 15647 H 1508.6 3.7996 2.26016 0
M  V30 15648 N 1507.66 0.121921 1.57128 0
M  V30 15649 C 1508.89 -0.542225 1.99358 0
M  V30 15650 C 1509.3 -1.60578 1.00057 0
M  V30 15651 O 1508.64 -1.83694 -0.0142649 0
M  V30 15652 C 1508.71 -1.22448 3.38004 0
M  V30 15653 C 1508.37 -0.308522 4.55957 0
M  V30 15654 C 1509.37 0.454012 5.17914 0
M  V30 15655 C 1507.05 -0.218741 5.01823 0
M  V30 15656 C 1509.05 1.29403 6.24126 0
M  V30 15657 C 1506.73 0.624906 6.07896 0
M  V30 15658 C 1507.73 1.37992 6.68915 0
M  V30 15659 O 1507.42 2.20955 7.72938 0
M  V30 15660 H 1507.15 -0.147894 0.659624 0
M  V30 15661 H 1509.7 0.205954 2.04365 0
M  V30 15662 H 1507.93 -2.01979 3.2976 0
M  V30 15663 H 1509.62 -1.78583 3.64504 0
M  V30 15664 H 1510.39 0.394539 4.83393 0
M  V30 15665 H 1506.27 -0.796109 4.54074 0
M  V30 15666 H 1509.81 1.88382 6.71683 0
M  V30 15667 H 1505.71 0.685762 6.41847 0
M  V30 15668 H 1506.48 2.13929 7.90049 0
M  V30 15669 N 1509.14 -1.56867 -0.151857 0
M  V30 15670 C 1510.05 -2.01157 -1.20718 0
M  V30 15671 C 1511.07 -0.926166 -1.47303 0
M  V30 15672 O 1512.24 -1.23528 -1.59069 0
M  V30 15673 C 1509.31 -2.37915 -2.52185 0
M  V30 15674 C 1508.37 -3.60381 -2.3329 0
M  V30 15675 C 1507.6 -3.95376 -3.58488 0
M  V30 15676 O 1507.82 -3.31093 -4.64471 0
M  V30 15677 O 1506.76 -4.88645 -3.5144 0
M  V30 15678 H 1510.58 -2.91234 -0.861175 0
M  V30 15679 H 1508.17 -1.44993 -0.360213 0
M  V30 15680 H 1510.05 -2.6244 -3.29702 0
M  V30 15681 H 1508.73 -1.50995 -2.86325 0
M  V30 15682 H 1507.63 -3.4105 -1.5374 0
M  V30 15683 H 1508.97 -4.47903 -2.04067 0
M  V30 15684 N 1510.62 0.421051 -1.51871 0
M  V30 15685 C 1511.53 1.5371 -1.7723 0
M  V30 15686 C 1512.54 1.61109 -0.657256 0
M  V30 15687 O 1513.72 1.78047 -0.941343 0
M  V30 15688 C 1510.79 2.89555 -1.9068 0
M  V30 15689 C 1509.85 2.9214 -3.14567 0
M  V30 15690 C 1509.08 4.21505 -3.27367 0
M  V30 15691 O 1509.3 5.14764 -2.45712 0
M  V30 15692 O 1508.24 4.30706 -4.20448 0
M  V30 15693 H 1512.06 1.35221 -2.71935 0
M  V30 15694 H 1509.65 0.605712 -1.3657 0
M  V30 15695 H 1511.53 3.70147 -2.01418 0
M  V30 15696 H 1510.2 3.08137 -0.991627 0
M  V30 15697 H 1509.11 2.10444 -3.09296 0
M  V30 15698 H 1510.44 2.78505 -4.05827 0
M  V30 15699 N 1512.1 1.42293 0.677538 0
M  V30 15700 C 1513.01 1.47953 1.82063 0
M  V30 15701 C 1514.02 0.36851 1.70053 0
M  V30 15702 O 1515.2 0.618996 1.91652 0
M  V30 15703 C 1512.26 1.3769 3.18186 0
M  V30 15704 C 1511.32 2.59261 3.42173 0
M  V30 15705 C 1510.56 2.49478 4.71801 0
M  V30 15706 O 1510.78 1.52915 5.49521 0
M  V30 15707 O 1509.71 3.39562 4.96972 0
M  V30 15708 H 1513.54 2.4443 1.80244 0
M  V30 15709 H 1511.13 1.24027 0.832932 0
M  V30 15710 H 1513.01 1.34319 3.9942 0
M  V30 15711 H 1511.68 0.443377 3.20649 0
M  V30 15712 H 1510.59 2.68207 2.60798 0
M  V30 15713 H 1511.92 3.51503 3.44538 0
M  V30 15714 N 1513.57 -0.913576 1.28419 0
M  V30 15715 C 1514.54 -1.99757 1.12382 0
M  V30 15716 C 1515.54 -1.60675 0.063435 0
M  V30 15717 O 1516.73 -1.71433 0.30923 0
M  V30 15718 C 1513.86 -3.33307 0.715506 0
M  V30 15719 H 1515.05 -2.15414 2.08655 0
M  V30 15720 H 1512.61 -1.09626 1.11408 0
M  V30 15721 H 1513.34 -3.23351 -0.247977 0
M  V30 15722 H 1513.13 -3.63034 1.4815 0
M  V30 15723 H 1514.62 -4.12882 0.625953 0
M  V30 15724 N 1515.05 -1.1067 -1.12204 0
M  V30 15725 C 1515.99 -0.70161 -2.17147 0
M  V30 15726 C 1516.96 0.298272 -1.59841 0
M  V30 15727 O 1518.15 0.196594 -1.87472 0
M  V30 15728 C 1515.27 -0.0356178 -3.38681 0
M  V30 15729 C 1514.32 -0.999363 -4.14626 0
M  V30 15730 S 1515.15 -2.51792 -4.72611 0
M  V30 15731 C 1516.31 -1.8647 -5.97478 0
M  V30 15732 H 1516.54 -1.59058 -2.51173 0
M  V30 15733 H 1514.08 -0.923946 -1.23704 0
M  V30 15734 H 1516.03 0.342303 -4.0907 0
M  V30 15735 H 1514.69 0.830184 -3.0293 0
M  V30 15736 H 1513.89 -0.48067 -5.01703 0
M  V30 15737 H 1513.49 -1.31931 -3.49957 0
M  V30 15738 H 1515.78 -1.19637 -6.66853 0
M  V30 15739 H 1516.72 -2.71513 -6.53977 0
M  V30 15740 H 1517.13 -1.32821 -5.48652 0
M  V30 15741 N 1516.53 1.29665 -0.895815 0
M  V30 15742 C 1517.44 2.31582 -0.375086 0
M  V30 15743 C 1518.46 1.65789 0.528196 0
M  V30 15744 O 1519.63 1.96999 0.41871 0
M  V30 15745 C 1516.7 3.44472 0.39241 0
M  V30 15746 C 1515.76 4.25866 -0.541926 0
M  V30 15747 C 1514.99 5.33365 0.189037 0
M  V30 15748 O 1515.21 5.52607 1.41355 0
M  V30 15749 O 1514.15 6.0009 -0.466441 0
M  V30 15750 H 1517.97 2.78095 -1.22052 0
M  V30 15751 H 1515.56 1.34031 -0.660007 0
M  V30 15752 H 1517.44 4.13214 0.826565 0
M  V30 15753 H 1516.12 3.00074 1.21397 0
M  V30 15754 H 1515.02 3.59781 -1.02512 0
M  V30 15755 H 1516.36 4.73896 -1.32979 0
M  V30 15756 N 1518.01 0.657889 1.43212 0
M  V30 15757 C 1518.94 -0.0695999 2.29094 0
M  V30 15758 C 1519.95 -0.782463 1.42763 0
M  V30 15759 O 1521.14 -0.63944 1.66654 0
M  V30 15760 C 1518.24 -1.12178 3.19796 0
M  V30 15761 C 1517.42 -0.486131 4.3469 0
M  V30 15762 C 1516.47 -1.43582 5.06232 0
M  V30 15763 O 1515.5 -0.942622 5.61341 0
M  V30 15764 N 1516.7 -2.76966 5.10167 0
M  V30 15765 H 1519.47 0.667565 2.92171 0
M  V30 15766 H 1517.03 0.501022 1.53953 0
M  V30 15767 H 1519.02 -1.75801 3.64522 0
M  V30 15768 H 1517.59 -1.76087 2.58287 0
M  V30 15769 H 1516.81 0.329281 3.92822 0
M  V30 15770 H 1518.1 -0.0425918 5.08782 0
M  V30 15771 H 1517.5 -3.19592 4.66774 0
M  V30 15772 H 1516.05 -3.3588 5.58595 0
M  V30 15773 N 1519.49 -1.52437 0.400108 0
M  V30 15774 C 1520.73 -2.01312 -0.178252 0
M  V30 15775 C 1521.06 -1.28797 -1.46411 0
M  V30 15776 O 1520.33 -0.411211 -1.91536 0
M  V30 15777 H 1518.91 -0.743819 -0.0688613 0
M  V30 15778 H 1521.57 -1.87434 0.53428 0
M  V30 15779 H 1520.66 -3.09768 -0.380793 0
M  V30 15780 N 1520.96 -0.130252 -1.57061 0
M  V30 15781 C 1522.21 0.52488 -1.94751 0
M  V30 15782 C 1522.53 1.67107 -1.0166 0
M  V30 15783 O 1523.73 2.38971 -1.28861 0
M  V30 15784 C 1522.19 0.985118 -3.46155 0
M  V30 15785 C 1521.8 -0.133222 -4.47802 0
M  V30 15786 C 1523.54 1.61099 -3.92743 0
M  V30 15787 C 1521.45 0.344346 -5.90397 0
M  V30 15788 H 1520.38 0.19985 -0.727032 0
M  V30 15789 H 1523.03 -0.211912 -1.82272 0
M  V30 15790 H 1521.41 1.77667 -3.53907 0
M  V30 15791 H 1522.58 -0.909784 -4.5173 0
M  V30 15792 H 1520.9 -0.666449 -4.11032 0
M  V30 15793 H 1523.5 1.97963 -4.96704 0
M  V30 15794 H 1523.84 2.49366 -3.3335 0
M  V30 15795 H 1524.37 0.884641 -3.87839 0
M  V30 15796 H 1521.11 -0.502547 -6.53571 0
M  V30 15797 H 1520.63 1.08714 -5.89865 0
M  V30 15798 H 1522.31 0.801885 -6.42012 0
M  V30 15799 N 1522.44 1.56945 0.143535 0
M  V30 15800 C 1523.67 1.87701 0.870401 0
M  V30 15801 C 1524.09 0.718833 1.7458 0
M  V30 15802 O 1523.44 -0.311286 1.79826 0
M  V30 15803 C 1523.49 3.1773 1.72424 0
M  V30 15804 O 1523.22 4.29086 0.884115 0
M  V30 15805 C 1524.72 3.62024 2.55839 0
M  V30 15806 H 1521.94 0.622083 0.251504 0
M  V30 15807 H 1524.48 2.04052 0.135285 0
M  V30 15808 H 1522.64 3.03122 2.41238 0
M  V30 15809 H 1523.05 5.0346 1.47065 0
M  V30 15810 H 1524.52 4.55834 3.11319 0
M  V30 15811 H 1525 2.87481 3.32041 0
M  V30 15812 H 1525.61 3.79338 1.9231 0
M  V30 15813 N 1523.92 -0.412991 1.52093 0
M  V30 15814 C 1525.15 -1.18667 1.70096 0
M  V30 15815 C 1525.57 -1.83622 0.408012 0
M  V30 15816 O 1524.93 -1.69847 -0.634174 0
M  V30 15817 C 1524.98 -2.22837 2.83507 0
M  V30 15818 O 1524.08 -3.2889 2.48807 0
M  V30 15819 H 1523.42 -0.346581 0.566373 0
M  V30 15820 H 1525.95 -0.484642 1.98777 0
M  V30 15821 H 1525.96 -2.67229 3.08306 0
M  V30 15822 H 1524.64 -1.74942 3.77317 0
M  V30 15823 H 1523.21 -2.89804 2.34665 0
M  V30 15824 N 1525.4 -1.4265 -0.669982 0
M  V30 15825 C 1526.63 -1.46571 -1.45604 0
M  V30 15826 C 1527.04 -0.0769961 -1.89043 0
M  V30 15827 O 1526.38 0.919604 -1.59025 0
M  V30 15828 C 1526.44 -2.33435 -2.73401 0
M  V30 15829 C 1526.11 -3.81236 -2.52008 0
M  V30 15830 C 1527.1 -4.72768 -2.16301 0
M  V30 15831 C 1524.79 -4.25552 -2.66853 0
M  V30 15832 C 1526.78 -6.0661 -1.95712 0
M  V30 15833 C 1524.47 -5.59452 -2.4588 0
M  V30 15834 C 1525.47 -6.49797 -2.10364 0
M  V30 15835 O 1525.16 -7.81222 -1.89597 0
M  V30 15836 H 1524.89 -0.500529 -0.454364 0
M  V30 15837 H 1527.44 -1.87875 -0.830199 0
M  V30 15838 H 1525.67 -1.86989 -3.38485 0
M  V30 15839 H 1527.36 -2.28755 -3.353 0
M  V30 15840 H 1528.13 -4.39814 -2.04423 0
M  V30 15841 H 1524.01 -3.55518 -2.93475 0
M  V30 15842 H 1527.55 -6.7709 -1.67914 0
M  V30 15843 H 1523.45 -5.91978 -2.57355 0
M  V30 15844 H 1524.21 -7.9263 -2.04157 0
M  V30 15845 N 1526.88 0.906753 -1.28902 0
M  V30 15846 C 1528.13 1.65119 -1.15839 0
M  V30 15847 C 1528.44 1.93426 0.290825 0
M  V30 15848 O 1529.65 2.66021 0.542678 0
M  V30 15849 C 1528.1 2.97492 -2.0255 0
M  V30 15850 C 1527.71 2.76807 -3.52253 0
M  V30 15851 C 1529.45 3.75393 -1.98192 0
M  V30 15852 C 1527.36 4.04863 -4.31091 0
M  V30 15853 H 1526.29 0.619409 -0.429939 0
M  V30 15854 H 1528.94 1.00567 -1.53488 0
M  V30 15855 H 1527.32 3.63217 -1.57763 0
M  V30 15856 H 1528.5 2.19719 -4.05044 0
M  V30 15857 H 1526.81 2.1231 -3.58209 0
M  V30 15858 H 1529.41 4.70325 -2.54358 0
M  V30 15859 H 1529.75 4.05074 -0.960267 0
M  V30 15860 H 1530.29 3.16498 -2.40985 0
M  V30 15861 H 1527.02 3.80353 -5.33865 0
M  V30 15862 H 1526.54 4.61537 -3.83072 0
M  V30 15863 H 1528.22 4.73066 -4.41381 0
M  V30 15864 N 1528.36 1.11264 1.11616 0
M  V30 15865 C 1529.27 0.781961 2.21184 0
M  V30 15866 C 1530.28 -0.224149 1.7255 0
M  V30 15867 O 1531.46 -0.0607743 2.01308 0
M  V30 15868 C 1528.52 0.228031 3.45949 0
M  V30 15869 C 1527.58 1.29251 4.09381 0
M  V30 15870 C 1526.82 0.764921 5.2819 0
M  V30 15871 O 1527.04 -0.405671 5.68956 0
M  V30 15872 O 1525.97 1.52886 5.82159 0
M  V30 15873 H 1529.8 1.69678 2.51879 0
M  V30 15874 H 1527.38 0.888394 1.20116 0
M  V30 15875 H 1529.27 -0.0766085 4.2133 0
M  V30 15876 H 1527.94 -0.659519 3.1691 0
M  V30 15877 H 1526.85 1.65014 3.3574 0
M  V30 15878 H 1528.18 2.15339 4.42595 0
M  V30 15879 N 1529.83 -1.29188 0.902679 0
M  V30 15880 C 1531.06 -2.00113 0.544953 0
M  V30 15881 C 1531.48 -1.67093 -0.863805 0
M  V30 15882 O 1530.84 -0.897179 -1.57545 0
M  V30 15883 C 1530.89 -3.52762 0.747741 0
M  V30 15884 O 1529.99 -4.11923 -0.198388 0
M  V30 15885 H 1529.33 -0.629054 0.212572 0
M  V30 15886 H 1531.86 -1.64611 1.21508 0
M  V30 15887 H 1531.87 -4.02732 0.653546 0
M  V30 15888 H 1530.55 -3.76131 1.77478 0
M  V30 15889 H 1529.13 -3.72857 -0.0563959 0
M  V30 15890 N 1531.31 -0.665475 -1.42861 0
M  V30 15891 C 1532.24 0.00482845 -2.335 0
M  V30 15892 C 1533.22 0.799135 -1.50159 0
M  V30 15893 O 1534.41 0.75816 -1.78789 0
M  V30 15894 C 1531.54 0.963347 -3.33672 0
M  V30 15895 C 1530.49 0.278294 -4.27094 0
M  V30 15896 C 1529.82 1.34911 -5.174 0
M  V30 15897 C 1531.12 -0.836925 -5.15551 0
M  V30 15898 H 1532.81 -0.752129 -2.89799 0
M  V30 15899 H 1530.36 -0.363139 -1.39346 0
M  V30 15900 H 1532.31 1.44128 -3.95986 0
M  V30 15901 H 1531.03 1.75161 -2.75656 0
M  V30 15902 H 1529.69 -0.179314 -3.66161 0
M  V30 15903 H 1529.34 2.12912 -4.55716 0
M  V30 15904 H 1529.04 0.895919 -5.8073 0
M  V30 15905 H 1530.57 1.82816 -5.8259 0
M  V30 15906 H 1531.98 -0.440617 -5.71604 0
M  V30 15907 H 1530.38 -1.21533 -5.87665 0
M  V30 15908 H 1531.45 -1.6897 -4.54507 0
M  V30 15909 N 1532.79 1.52222 -0.408187 0
M  V30 15910 C 1534.04 2.01404 0.167574 0
M  V30 15911 C 1534.36 1.29572 1.45726 0
M  V30 15912 O 1533.63 0.421363 1.91315 0
M  V30 15913 H 1532.21 0.744174 0.0649156 0
M  V30 15914 H 1534.87 1.87148 -0.544212 0
M  V30 15915 H 1533.97 3.09966 0.36436 0
M  V30 15916 N 1534.27 0.138579 1.5699 0
M  V30 15917 C 1535.5 -0.521806 2.00212 0
M  V30 15918 C 1535.91 -1.58967 1.01857 0
M  V30 15919 O 1535.27 -1.82494 0.0143099 0
M  V30 15920 C 1535.32 -1.13014 3.4338 0
M  V30 15921 O 1535.04 -0.104938 4.37974 0
M  V30 15922 C 1536.54 -1.87195 4.01837 0
M  V30 15923 H 1533.76 -0.136564 0.656956 0
M  V30 15924 H 1536.3 0.230685 2.03195 0
M  V30 15925 H 1534.46 -1.8333 3.41275 0
M  V30 15926 H 1534.87 -0.54948 5.21614 0
M  V30 15927 H 1536.35 -2.25061 5.04035 0
M  V30 15928 H 1536.82 -2.75467 3.42074 0
M  V30 15929 H 1537.43 -1.21597 4.07547 0
M  V30 15930 N 1535.75 -1.57019 -0.13521 0
M  V30 15931 C 1536.71 -1.98229 -1.15056 0
M  V30 15932 C 1537.71 -0.870295 -1.35213 0
M  V30 15933 O 1538.9 -1.13668 -1.32005 0
M  V30 15934 C 1536.03 -2.30844 -2.50846 0
M  V30 15935 H 1537.22 -2.89123 -0.796744 0
M  V30 15936 H 1534.78 -1.51636 -0.378962 0
M  V30 15937 H 1535.51 -1.42779 -2.91178 0
M  V30 15938 H 1535.3 -3.11931 -2.37574 0
M  V30 15939 H 1536.79 -2.63524 -3.23952 0
M  V30 15940 N 1537.22 0.404919 -1.52309 0
M  V30 15941 C 1538.47 1.15148 -1.66575 0
M  V30 15942 C 1538.8 1.9039 -0.397754 0
M  V30 15943 O 1538.05 1.85639 0.619407 0
M  V30 15944 C 1538.35 2.16817 -2.84121 0
M  V30 15945 C 1538.02 1.58352 -4.22179 0
M  V30 15946 C 1536.68 1.42132 -4.5973 0
M  V30 15947 C 1539.03 1.15695 -5.08197 0
M  V30 15948 C 1536.36 0.817785 -5.80973 0
M  V30 15949 C 1538.71 0.56758 -6.30049 0
M  V30 15950 C 1537.38 0.392547 -6.66345 0
M  V30 15951 H 1536.65 0.421357 -0.60954 0
M  V30 15952 H 1539.29 0.438148 -1.8642 0
M  V30 15953 H 1537.6 2.94311 -2.58628 0
M  V30 15954 H 1539.3 2.74463 -2.92355 0
M  V30 15955 H 1535.89 1.71961 -3.92591 0
M  V30 15956 H 1540.07 1.27034 -4.79767 0
M  V30 15957 H 1535.33 0.670228 -6.07715 0
M  V30 15958 H 1539.5 0.228674 -6.96024 0
M  V30 15959 H 1537.13 -0.0772156 -7.60161 0
M  V30 15960 N 1538.7 1.43003 0.662408 0
M  V30 15961 C 1539.95 1.43848 1.41958 0
M  V30 15962 C 1540.27 0.06046 1.94906 0
M  V30 15963 O 1539.54 -0.90287 1.73854 0
M  V30 15964 H 1538.12 0.529587 0.526827 0
M  V30 15965 H 1540.78 1.7853 0.781867 0
M  V30 15966 H 1539.88 2.14562 2.26649 0
M  V30 15967 N 1540.18 -0.899904 1.29381 0
M  V30 15968 C 1541.14 -1.98554 1.14494 0
M  V30 15969 C 1542.14 -1.60599 0.0804732 0
M  V30 15970 O 1543.33 -1.71096 0.327395 0
M  V30 15971 C 1540.47 -3.32529 0.750818 0
M  V30 15972 H 1541.66 -2.13189 2.10928 0
M  V30 15973 H 1539.21 -1.08438 1.12565 0
M  V30 15974 H 1539.95 -3.23595 -0.213668 0
M  V30 15975 H 1539.73 -3.61443 1.51992 0
M  V30 15976 H 1541.22 -4.12195 0.669709 0
M  V30 15977 N 1541.66 -1.11854 -1.11024 0
M  V30 15978 C 1542.91 -0.868355 -1.82494 0
M  V30 15979 C 1543.23 0.607622 -1.85292 0
M  V30 15980 O 1542.5 1.44147 -1.32659 0
M  V30 15981 H 1541.08 -0.31826 -0.67581 0
M  V30 15982 H 1543.74 -1.4118 -1.34366 0
M  V30 15983 H 1542.84 -1.24441 -2.86218 0
M  V30 15984 N 1543.14 1.28707 -0.909517 0
M  V30 15985 C 1544.38 1.95154 -0.540481 0
M  V30 15986 C 1544.71 1.7163 0.91506 0
M  V30 15987 O 1543.97 1.02786 1.66534 0
M  V30 15988 C 1544.27 3.48536 -0.791037 0
M  V30 15989 C 1543.93 3.92153 -2.22546 0
M  V30 15990 C 1542.59 4.03772 -2.61766 0
M  V30 15991 C 1544.95 4.14547 -3.15912 0
M  V30 15992 C 1542.27 4.35162 -3.93511 0
M  V30 15993 C 1544.63 4.47414 -4.47218 0
M  V30 15994 C 1543.29 4.57244 -4.86296 0
M  V30 15995 H 1542.56 0.714119 -0.197776 0
M  V30 15996 H 1545.21 1.53122 -1.15004 0
M  V30 15997 H 1543.51 3.91676 -0.0986412 0
M  V30 15998 H 1545.21 3.98059 -0.48474 0
M  V30 15999 H 1541.8 3.83633 -1.91113 0
M  V30 16000 H 1545.98 4.05027 -2.86822 0
M  V30 16001 H 1541.24 4.40977 -4.23496 0
M  V30 16002 H 1545.41 4.6369 -5.19581 0
M  V30 16003 H 1543.04 4.81321 -5.88416 0
M  V30 16004 N 1544.61 0.673042 1.42506 0
M  V30 16005 C 1545.84 0.202922 2.05902 0
M  V30 16006 C 1546.26 -1.13923 1.50556 0
M  V30 16007 O 1545.61 -1.70735 0.644662 0
M  V30 16008 C 1545.67 0.12735 3.61276 0
M  V30 16009 O 1545.39 1.41646 4.1457 0
M  V30 16010 C 1546.89 -0.366477 4.41783 0
M  V30 16011 H 1544.11 0.0991021 0.663641 0
M  V30 16012 H 1546.65 0.919282 1.82673 0
M  V30 16013 H 1544.81 -0.539687 3.83622 0
M  V30 16014 H 1545.22 1.28866 5.08423 0
M  V30 16015 H 1546.69 -0.368267 5.5077 0
M  V30 16016 H 1547.17 -1.40142 4.16241 0
M  V30 16017 H 1547.78 0.268761 4.2445 0
M  V30 16018 N 1546.09 -1.52004 0.416254 0
M  V30 16019 C 1547.04 -2.24037 -0.423226 0
M  V30 16020 C 1548.03 -1.25444 -1.0076 0
M  V30 16021 O 1549.22 -1.50646 -0.92924 0
M  V30 16022 C 1546.35 -3.07048 -1.53547 0
M  V30 16023 C 1545.43 -4.13056 -0.961518 0
M  V30 16024 N 1545.82 -5.0567 -0.114849 0
M  V30 16025 C 1544.12 -4.28667 -1.2313 0
M  V30 16026 C 1544.82 -5.81338 0.205249 0
M  V30 16027 N 1543.8 -5.42084 -0.405736 0
M  V30 16028 H 1547.6 -2.93 0.229864 0
M  V30 16029 H 1545.12 -1.60804 0.227087 0
M  V30 16030 H 1547.11 -3.57212 -2.14954 0
M  V30 16031 H 1545.77 -2.39626 -2.19111 0
M  V30 16032 H 1546.78 -5.17296 0.250006 0
M  V30 16033 H 1543.46 -3.72474 -1.88599 0
M  V30 16034 H 1544.85 -6.6594 0.892938 0
M  V30 16035 N 1547.57 -0.146903 -1.56914 0
M  V30 16036 C 1548.8 0.511181 -2.00486 0
M  V30 16037 C 1549.21 1.58425 -1.02699 0
M  V30 16038 O 1548.57 1.82484 -0.0239878 0
M  V30 16039 C 1548.62 1.11191 -3.43975 0
M  V30 16040 O 1548.34 0.0817094 -4.38024 0
M  V30 16041 C 1549.84 1.85061 -4.02824 0
M  V30 16042 H 1547.06 0.133078 -0.657671 0
M  V30 16043 H 1549.61 -0.241457 -2.0307 0
M  V30 16044 H 1547.76 1.81517 -3.42243 0
M  V30 16045 H 1548.18 0.52181 -5.21898 0
M  V30 16046 H 1549.65 2.22385 -5.05222 0
M  V30 16047 H 1550.13 2.73649 -3.4353 0
M  V30 16048 H 1550.73 1.19434 -4.08186 0
M  V30 16049 N 1549.05 1.57088 0.126881 0
M  V30 16050 C 1550.3 1.83624 0.834582 0
M  V30 16051 C 1550.61 0.731331 1.81414 0
M  V30 16052 O 1551.82 0.88286 2.56745 0
M  V30 16053 C 1550.27 3.25529 1.5349 0
M  V30 16054 C 1549.88 4.44008 0.59673 0
M  V30 16055 C 1551.62 3.6132 2.22819 0
M  V30 16056 C 1549.53 5.76939 1.29982 0
M  V30 16057 H 1548.46 0.684858 0.315414 0
M  V30 16058 H 1551.11 1.83292 0.087305 0
M  V30 16059 H 1549.49 3.20306 2.32852 0
M  V30 16060 H 1550.67 4.60511 -0.163109 0
M  V30 16061 H 1548.98 4.16399 0.0108081 0
M  V30 16062 H 1551.58 4.57902 2.76098 0
M  V30 16063 H 1551.92 2.88363 3.00254 0
M  V30 16064 H 1552.46 3.68291 1.50354 0
M  V30 16065 H 1549.2 6.53044 0.566925 0
M  V30 16066 H 1548.72 5.64336 2.03187 0
M  V30 16067 H 1550.39 6.20427 1.8352 0
M  V30 16068 N 1550.53 -0.396836 1.52522 0
M  V30 16069 C 1551.75 -1.16857 1.71345 0
M  V30 16070 C 1552.18 -1.83178 0.427465 0
M  V30 16071 O 1551.53 -1.7051 -0.616123 0
M  V30 16072 C 1551.58 -2.19817 2.85855 0
M  V30 16073 O 1550.69 -3.26233 2.52281 0
M  V30 16074 H 1550.03 -0.340554 0.570017 0
M  V30 16075 H 1552.56 -0.463532 1.9928 0
M  V30 16076 H 1552.57 -2.63944 3.11123 0
M  V30 16077 H 1551.24 -1.70931 3.79151 0
M  V30 16078 H 1549.82 -2.87299 2.37726 0
M  V30 16079 N 1552.01 -1.43353 -0.654814 0
M  V30 16080 C 1552.92 -1.50831 -1.79687 0
M  V30 16081 C 1553.93 -0.395518 -1.69445 0
M  V30 16082 O 1555.11 -0.649408 -1.90643 0
M  V30 16083 C 1552.17 -1.42735 -3.15955 0
M  V30 16084 C 1551.23 -2.64671 -3.38005 0
M  V30 16085 C 1550.47 -2.56952 -4.67773 0
M  V30 16086 O 1550.69 -1.61638 -5.47019 0
M  V30 16087 O 1549.62 -3.47425 -4.91507 0
M  V30 16088 H 1553.45 -2.47266 -1.76333 0
M  V30 16089 H 1551.03 -1.25336 -0.813095 0
M  V30 16090 H 1552.92 -1.40656 -3.97233 0
M  V30 16091 H 1551.59 -0.494334 -3.19903 0
M  V30 16092 H 1550.5 -2.72323 -2.56498 0
M  V30 16093 H 1551.83 -3.5694 -3.38903 0
M  V30 16094 N 1553.48 0.89303 -1.29857 0
M  V30 16095 C 1554.43 1.9979 -1.15554 0
M  V30 16096 C 1555.4 1.66033 -0.0471157 0
M  V30 16097 O 1556.59 1.89575 -0.215846 0
M  V30 16098 C 1553.73 3.34595 -0.844993 0
M  V30 16099 C 1552.84 3.81093 -2.03451 0
M  V30 16100 C 1551.97 5.04506 -1.66275 0
M  V30 16101 C 1551.01 5.4339 -2.8177 0
M  V30 16102 N 1550.15 6.57987 -2.44945 0
M  V30 16103 H 1554.99 2.11355 -2.10079 0
M  V30 16104 H 1552.53 1.03497 -1.04531 0
M  V30 16105 H 1554.48 4.12175 -0.645598 0
M  V30 16106 H 1553.11 3.22738 0.0633626 0
M  V30 16107 H 1552.17 2.99491 -2.34541 0
M  V30 16108 H 1553.48 4.05855 -2.8997 0
M  V30 16109 H 1552.63 5.89688 -1.42664 0
M  V30 16110 H 1551.37 4.81597 -0.769144 0
M  V30 16111 H 1550.38 4.56738 -3.06056 0
M  V30 16112 H 1551.6 5.68276 -3.71805 0
M  V30 16113 H 1549.55 6.36669 -1.58079 0
M  V30 16114 H 1549.46 6.82579 -3.24996 0
M  V30 16115 H 1550.73 7.46421 -2.24669 0
M  V30 16116 N 1554.96 1.12442 1.10429 0
M  V30 16117 C 1556.21 0.881062 1.82661 0
M  V30 16118 C 1556.54 -0.591636 1.84968 0
M  V30 16119 O 1555.82 -1.43734 1.31037 0
M  V30 16120 C 1556.1 1.45658 3.29326 0
M  V30 16121 C 1555.95 2.99766 3.35352 0
M  V30 16122 C 1557.27 1.1162 4.2571 0
M  V30 16123 H 1554.39 0.321516 0.663172 0
M  V30 16124 H 1557.03 1.39102 1.29424 0
M  V30 16125 H 1555.18 1.02286 3.74793 0
M  V30 16126 H 1556.85 3.51818 2.98365 0
M  V30 16127 H 1555.1 3.35292 2.75249 0
M  V30 16128 H 1555.77 3.35128 4.38627 0
M  V30 16129 H 1558.24 1.49081 3.88477 0
M  V30 16130 H 1557.12 1.54552 5.26692 0
M  V30 16131 H 1557.38 0.0284093 4.42091 0
M  V30 16132 N 1556.44 -1.28223 0.91633 0
M  V30 16133 C 1557.67 -1.98986 0.566772 0
M  V30 16134 C 1558.08 -1.68455 -0.852553 0
M  V30 16135 O 1557.44 -0.938734 -1.56506 0
M  V30 16136 C 1557.49 -3.53217 0.769423 0
M  V30 16137 O 1557.21 -3.82674 2.1329 0
M  V30 16138 C 1558.71 -4.41238 0.427043 0
M  V30 16139 H 1555.93 -0.63534 0.215834 0
M  V30 16140 H 1558.48 -1.63357 1.23024 0
M  V30 16141 H 1556.63 -3.87098 0.152915 0
M  V30 16142 H 1557.05 -4.77302 2.17448 0
M  V30 16143 H 1558.52 -5.48512 0.619594 0
M  V30 16144 H 1559 -4.34558 -0.63686 0
M  V30 16145 H 1559.6 -4.12858 1.0212 0
M  V30 16146 N 1557.92 -0.68059 -1.42147 0
M  V30 16147 C 1558.83 -0.00595573 -2.34599 0
M  V30 16148 C 1559.84 0.782528 -1.55411 0
M  V30 16149 O 1561.02 0.723524 -1.87955 0
M  V30 16150 C 1558.08 0.92964 -3.34004 0
M  V30 16151 C 1557.15 0.135041 -4.29088 0
M  V30 16152 C 1556.38 1.02607 -5.23744 0
M  V30 16153 O 1556.6 2.26562 -5.23475 0
M  V30 16154 O 1555.54 0.483774 -5.99953 0
M  V30 16155 H 1559.36 -0.767652 -2.93838 0
M  V30 16156 H 1556.95 -0.440849 -1.42748 0
M  V30 16157 H 1558.83 1.46657 -3.95057 0
M  V30 16158 H 1557.5 1.67109 -2.7723 0
M  V30 16159 H 1556.41 -0.44613 -3.7143 0
M  V30 16160 H 1557.74 -0.567417 -4.88918 0
M  V30 16161 N 1559.4 1.51781 -0.424309 0
M  V30 16162 C 1560.33 2.30313 0.384462 0
M  V30 16163 C 1561.31 1.35166 1.03268 0
M  V30 16164 O 1562.49 1.64081 1.0388 0
M  V30 16165 C 1559.62 3.13566 1.49311 0
M  V30 16166 C 1558.58 4.16884 0.969096 0
M  V30 16167 C 1557.9 4.88576 2.17251 0
M  V30 16168 C 1559.2 5.22298 0.0125613 0
M  V30 16169 H 1560.9 2.98172 -0.270871 0
M  V30 16170 H 1558.44 1.43396 -0.131712 0
M  V30 16171 H 1560.39 3.67279 2.06602 0
M  V30 16172 H 1559.12 2.43504 2.17655 0
M  V30 16173 H 1557.78 3.64203 0.418494 0
M  V30 16174 H 1557.43 4.15029 2.84183 0
M  V30 16175 H 1557.13 5.58432 1.82833 0
M  V30 16176 H 1558.65 5.45107 2.75119 0
M  V30 16177 H 1560.06 5.71161 0.494744 0
M  V30 16178 H 1558.46 5.99606 -0.243544 0
M  V30 16179 H 1559.53 4.75935 -0.92813 0
M  V30 16180 N 1560.87 0.155222 1.56834 0
M  V30 16181 C 1562.1 -0.500542 2.00754 0
M  V30 16182 C 1562.52 -1.57878 1.03538 0
M  V30 16183 O 1561.87 -1.82469 0.0336651 0
M  V30 16184 C 1561.92 -1.09366 3.4456 0
M  V30 16185 O 1561.65 -0.0584788 4.38061 0
M  V30 16186 C 1563.15 -1.82923 4.038 0
M  V30 16187 H 1560.37 -0.129589 0.658368 0
M  V30 16188 H 1562.91 0.252223 2.02939 0
M  V30 16189 H 1561.07 -1.797 3.43201 0
M  V30 16190 H 1561.48 -0.494125 5.22167 0
M  V30 16191 H 1562.95 -2.19703 5.06394 0
M  V30 16192 H 1563.43 -2.71823 3.44976 0
M  V30 16193 H 1564.04 -1.17268 4.08813 0
M  V30 16194 N 1562.35 -1.57153 -0.118549 0
M  V30 16195 C 1563.58 -1.89062 -0.840429 0
M  V30 16196 C 1563.99 -0.746516 -1.73414 0
M  V30 16197 O 1563.35 0.282638 -1.80298 0
M  V30 16198 C 1563.4 -3.20433 -1.67347 0
M  V30 16199 O 1563.12 -4.30439 -0.815739 0
M  V30 16200 C 1564.62 -3.66048 -2.50047 0
M  V30 16201 H 1561.84 -0.626005 -0.241575 0
M  V30 16202 H 1564.39 -2.04241 -0.102804 0
M  V30 16203 H 1562.54 -3.06922 -2.36385 0
M  V30 16204 H 1562.96 -5.05736 -1.39037 0
M  V30 16205 H 1564.43 -4.60729 -3.04028 0
M  V30 16206 H 1564.91 -2.92727 -3.27426 0
M  V30 16207 H 1565.51 -3.82349 -1.86251 0
M  V30 16208 N 1563.83 0.388742 -1.5273 0
M  V30 16209 C 1564.76 1.49653 -1.72277 0
M  V30 16210 C 1565.74 1.52259 -0.570606 0
M  V30 16211 O 1566.92 1.70661 -0.80044 0
M  V30 16212 C 1564.05 2.88118 -1.78061 0
M  V30 16213 C 1563.1 3.03336 -2.99815 0
M  V30 16214 S 1563.93 2.74509 -4.59788 0
M  V30 16215 C 1565.09 4.15167 -4.68388 0
M  V30 16216 H 1565.32 1.32847 -2.65968 0
M  V30 16217 H 1562.85 0.581632 -1.43026 0
M  V30 16218 H 1564.81 3.6791 -1.82079 0
M  V30 16219 H 1563.47 3.0225 -0.854623 0
M  V30 16220 H 1562.66 4.04689 -3.00404 0
M  V30 16221 H 1562.27 2.31438 -2.9379 0
M  V30 16222 H 1564.56 5.09098 -4.47018 0
M  V30 16223 H 1565.5 4.19593 -5.70392 0
M  V30 16224 H 1565.91 4.01088 -3.97226 0
M  V30 16225 N 1565.31 1.43698 0.647203 0
M  V30 16226 C 1566.55 1.45849 1.40911 0
M  V30 16227 C 1566.89 0.0846767 1.94015 0
M  V30 16228 O 1566.16 -0.89537 1.72665 0
M  V30 16229 C 1566.44 2.50579 2.58616 0
M  V30 16230 C 1566.3 3.97258 2.10965 0
M  V30 16231 C 1567.62 2.51981 3.60824 0
M  V30 16232 H 1564.74 0.531056 0.511027 0
M  V30 16233 H 1567.38 1.75283 0.733204 0
M  V30 16234 H 1565.53 2.25611 3.16278 0
M  V30 16235 H 1567.2 4.33304 1.58257 0
M  V30 16236 H 1565.44 4.09802 1.42284 0
M  V30 16237 H 1566.11 4.6616 2.95633 0
M  V30 16238 H 1568.59 2.7425 3.12932 0
M  V30 16239 H 1567.47 3.27191 4.40723 0
M  V30 16240 H 1567.73 1.55582 4.1382 0
M  V30 16241 N 1566.79 -0.886131 1.30328 0
M  V30 16242 C 1568.01 -1.67099 1.22007 0
M  V30 16243 C 1568.43 -1.87546 -0.217255 0
M  V30 16244 O 1567.79 -1.42213 -1.14375 0
M  V30 16245 C 1567.84 -3.048 1.94368 0
M  V30 16246 O 1567.56 -2.85277 3.32489 0
M  V30 16247 C 1569.06 -3.99231 1.9269 0
M  V30 16248 H 1566.28 -0.521467 0.422271 0
M  V30 16249 H 1568.82 -1.1072 1.71934 0
M  V30 16250 H 1566.98 -3.57915 1.48242 0
M  V30 16251 H 1567.39 -3.72626 3.69121 0
M  V30 16252 H 1568.87 -4.93223 2.47861 0
M  V30 16253 H 1569.34 -4.29763 0.905558 0
M  V30 16254 H 1569.95 -3.52051 2.38621 0
M  V30 16255 N 1568.26 -1.13026 -1.09832 0
M  V30 16256 C 1569.49 -0.912803 -1.86233 0
M  V30 16257 C 1569.91 0.532955 -1.80392 0
M  V30 16258 O 1569.27 1.37783 -1.17837 0
M  V30 16259 C 1569.32 -1.40002 -3.32313 0
M  V30 16260 O 1568.42 -0.582537 -4.08265 0
M  V30 16261 H 1567.77 -0.327464 -0.577636 0
M  V30 16262 H 1570.3 -1.5039 -1.38723 0
M  V30 16263 H 1570.31 -1.40182 -3.83162 0
M  V30 16264 H 1568.98 -2.4527 -3.3588 0
M  V30 16265 H 1567.56 -0.648255 -3.67222 0
M  V30 16266 N 1569.74 1.27735 -0.923117 0
M  V30 16267 C 1570.97 1.98682 -0.577317 0
M  V30 16268 C 1571.39 1.68904 0.843608 0
M  V30 16269 O 1570.74 0.947021 1.56006 0
M  V30 16270 C 1570.79 3.52804 -0.788144 0
M  V30 16271 O 1570.51 3.81537 -2.15316 0
M  V30 16272 C 1572.02 4.41006 -0.450437 0
M  V30 16273 H 1569.24 0.634186 -0.2192 0
M  V30 16274 H 1571.78 1.62702 -1.23888 0
M  V30 16275 H 1569.93 3.87012 -0.173441 0
M  V30 16276 H 1570.35 4.76142 -2.19976 0
M  V30 16277 H 1571.82 5.48175 -0.648674 0
M  V30 16278 H 1572.3 4.3489 0.613806 0
M  V30 16279 H 1572.91 4.1231 -1.04308 0
M  V30 16280 N 1571.22 0.688118 1.41784 0
M  V30 16281 C 1572.47 0.213085 2.00571 0
M  V30 16282 C 1572.78 -1.19176 1.55101 0
M  V30 16283 O 1573.99 -1.76387 2.06397 0
M  V30 16284 C 1572.44 0.330075 3.58383 0
M  V30 16285 C 1572.05 1.73981 4.12837 0
M  V30 16286 C 1573.8 -0.0855651 4.24414 0
M  V30 16287 C 1571.7 1.80886 5.63058 0
M  V30 16288 H 1570.63 0.075906 0.750169 0
M  V30 16289 H 1573.28 0.855236 1.62351 0
M  V30 16290 H 1571.67 -0.380199 3.94171 0
M  V30 16291 H 1572.84 2.47825 3.88484 0
M  V30 16292 H 1571.16 2.10447 3.59306 0
M  V30 16293 H 1573.75 -0.0543142 5.34672 0
M  V30 16294 H 1574.1 -1.12307 4.00865 0
M  V30 16295 H 1574.63 0.574169 3.93635 0
M  V30 16296 H 1571.37 2.82663 5.91424 0
M  V30 16297 H 1570.89 1.11417 5.89361 0
M  V30 16298 H 1572.57 1.56835 6.27704 0
M  V30 16299 N 1572.7 -1.51554 0.432352 0
M  V30 16300 C 1573.93 -2.06462 -0.1346 0
M  V30 16301 C 1574.34 -1.30027 -1.36889 0
M  V30 16302 O 1573.7 -0.358447 -1.78945 0
M  V30 16303 C 1573.75 -3.58538 -0.461822 0
M  V30 16304 O 1573.47 -4.32085 0.723471 0
M  V30 16305 C 1574.97 -4.29943 -1.07999 0
M  V30 16306 H 1572.19 -0.670923 -0.0101329 0
M  V30 16307 H 1574.74 -1.9519 0.609999 0
M  V30 16308 H 1572.89 -3.6974 -1.15632 0
M  V30 16309 H 1573.3 -5.22611 0.444757 0
M  V30 16310 H 1574.78 -5.37451 -1.25898 0
M  V30 16311 H 1575.26 -3.87912 -2.05963 0
M  V30 16312 H 1575.86 -4.23171 -0.425022 0
M  V30 16313 N 1574.18 -0.163538 -1.56749 0
M  V30 16314 C 1575.09 0.782461 -2.21167 0
M  V30 16315 C 1576.1 1.25911 -1.20093 0
M  V30 16316 O 1577.28 1.31286 -1.52728 0
M  V30 16317 C 1574.34 1.99761 -2.83366 0
M  V30 16318 C 1573.4 1.56859 -3.99617 0
M  V30 16319 C 1572.64 2.72582 -4.58841 0
M  V30 16320 O 1572.86 3.89243 -4.16949 0
M  V30 16321 O 1571.79 2.47104 -5.48838 0
M  V30 16322 H 1575.62 0.264023 -3.0255 0
M  V30 16323 H 1573.21 0.06429 -1.49262 0
M  V30 16324 H 1575.09 2.70843 -3.22835 0
M  V30 16325 H 1573.76 2.50526 -2.04984 0
M  V30 16326 H 1572.67 0.827511 -3.64833 0
M  V30 16327 H 1574 1.10794 -4.79568 0
M  V30 16328 N 1575.65 1.57214 0.110213 0
M  V30 16329 C 1576.6 2.00978 1.13474 0
M  V30 16330 C 1577.57 0.883436 1.40658 0
M  V30 16331 O 1578.76 1.14832 1.52376 0
M  V30 16332 C 1575.9 2.42654 2.45383 0
M  V30 16333 C 1575.01 3.68744 2.2506 0
M  V30 16334 C 1574.14 3.99363 3.50261 0
M  V30 16335 C 1573.18 5.18608 3.25133 0
M  V30 16336 N 1572.32 5.45055 4.42561 0
M  V30 16337 H 1577.16 2.88289 0.754543 0
M  V30 16338 H 1574.7 1.426 0.361064 0
M  V30 16339 H 1576.66 2.64857 3.22345 0
M  V30 16340 H 1575.29 1.58374 2.81278 0
M  V30 16341 H 1574.34 3.54106 1.38972 0
M  V30 16342 H 1575.65 4.55857 2.02475 0
M  V30 16343 H 1574.8 4.22261 4.35638 0
M  V30 16344 H 1573.54 3.10743 3.75886 0
M  V30 16345 H 1572.55 4.95546 2.38148 0
M  V30 16346 H 1573.77 6.08814 3.0087 0
M  V30 16347 H 1571.72 4.59392 4.6829 0
M  V30 16348 H 1571.64 6.26508 4.23111 0
M  V30 16349 H 1572.9 5.72478 5.29046 0
M  V30 16350 N 1577.13 -0.380637 1.52934 0
M  V30 16351 C 1578.06 -1.47174 1.81279 0
M  V30 16352 C 1579.04 -1.56549 0.665319 0
M  V30 16353 O 1580.23 -1.71362 0.913722 0
M  V30 16354 C 1577.36 -2.84691 1.98918 0
M  V30 16355 C 1576.31 -2.90151 3.14637 0
M  V30 16356 C 1575.64 -4.30198 3.17544 0
M  V30 16357 C 1576.94 -2.59037 4.53539 0
M  V30 16358 H 1578.63 -1.23703 2.7265 0
M  V30 16359 H 1576.18 -0.593654 1.31194 0
M  V30 16360 H 1578.13 -3.61034 2.1733 0
M  V30 16361 H 1576.86 -3.09517 1.04244 0
M  V30 16362 H 1575.51 -2.16257 2.96021 0
M  V30 16363 H 1575.16 -4.52076 2.20536 0
M  V30 16364 H 1574.86 -4.3477 3.95284 0
M  V30 16365 H 1576.39 -5.08435 3.38121 0
M  V30 16366 H 1577.8 -3.25096 4.72214 0
M  V30 16367 H 1576.2 -2.74946 5.33408 0
M  V30 16368 H 1577.27 -1.54342 4.59681 0
M  V30 16369 N 1578.61 -1.44039 -0.639573 0
M  V30 16370 C 1579.54 -1.53073 -1.76327 0
M  V30 16371 C 1580.52 -0.384344 -1.65701 0
M  V30 16372 O 1581.71 -0.603362 -1.84589 0
M  V30 16373 C 1578.84 -1.46646 -3.14821 0
M  V30 16374 C 1577.79 -2.59673 -3.40226 0
M  V30 16375 C 1577.12 -2.38298 -4.78663 0
M  V30 16376 C 1578.42 -4.01864 -3.33621 0
M  V30 16377 H 1580.11 -2.47126 -1.69023 0
M  V30 16378 H 1577.66 -1.1894 -0.811749 0
M  V30 16379 H 1579.61 -1.51567 -3.93199 0
M  V30 16380 H 1578.33 -0.491035 -3.22888 0
M  V30 16381 H 1576.99 -2.54127 -2.64225 0
M  V30 16382 H 1576.64 -1.38968 -4.83422 0
M  V30 16383 H 1576.34 -3.14074 -4.9662 0
M  V30 16384 H 1577.86 -2.45025 -5.59281 0
M  V30 16385 H 1579.28 -4.08824 -4.01915 0
M  V30 16386 H 1577.68 -4.77775 -3.63113 0
M  V30 16387 H 1578.75 -4.26033 -2.31569 0
M  V30 16388 N 1580.09 0.879207 -1.30796 0
M  V30 16389 C 1581.04 1.98553 -1.17667 0
M  V30 16390 C 1582.01 1.65974 -0.0647231 0
M  V30 16391 O 1583.19 1.89336 -0.235941 0
M  V30 16392 C 1580.33 3.3368 -0.880434 0
M  V30 16393 C 1579.44 3.78913 -2.07482 0
M  V30 16394 C 1578.58 5.02714 -1.71617 0
M  V30 16395 C 1577.62 5.40371 -2.87517 0
M  V30 16396 N 1576.75 6.55352 -2.5191 0
M  V30 16397 H 1581.59 2.09115 -2.12309 0
M  V30 16398 H 1579.13 1.02382 -1.05623 0
M  V30 16399 H 1581.09 4.11467 -0.689278 0
M  V30 16400 H 1579.72 3.22787 0.0291283 0
M  V30 16401 H 1578.77 2.96987 -2.37704 0
M  V30 16402 H 1580.08 4.02757 -2.94259 0
M  V30 16403 H 1579.24 5.88142 -1.4891 0
M  V30 16404 H 1577.98 4.80754 -0.820181 0
M  V30 16405 H 1576.98 4.53466 -3.10883 0
M  V30 16406 H 1578.21 5.64301 -3.77811 0
M  V30 16407 H 1576.15 6.34956 -1.64823 0
M  V30 16408 H 1576.07 6.79093 -3.32217 0
M  V30 16409 H 1577.34 7.43996 -2.32573 0
M  V30 16410 N 1581.57 1.13606 1.09231 0
M  V30 16411 C 1582.52 0.810747 2.18013 0
M  V30 16412 C 1583.51 -0.207782 1.68121 0
M  V30 16413 O 1584.72 -0.0647274 1.79884 0
M  V30 16414 H 1581.09 0.244415 0.711172 0
M  V30 16415 H 1583.06 1.73632 2.42682 0
M  V30 16416 C 1581.81 0.295302 3.46444 0
M  V30 16417 H 1581.13 1.07037 3.85205 0
M  V30 16418 H 1582.57 0.106127 4.23867 0
M  V30 16419 C 1581.03 -0.979398 3.2235 0
M  V30 16420 O 1581.56 -2.05483 3.45166 0
M  V30 16421 N 1579.77 -0.911282 2.75942 0
M  V30 16422 H 1579.32 -0.035979 2.57575 0
M  V30 16423 H 1579.27 -1.76476 2.60199 0
M  V30 16424 N 1583.05 -1.27244 0.929878 0
M  V30 16425 C 1583.98 -2.29161 0.448066 0
M  V30 16426 C 1584.96 -1.62806 -0.492776 0
M  V30 16427 O 1586.14 -1.90098 -0.39706 0
M  V30 16428 C 1583.27 -3.46019 -0.298002 0
M  V30 16429 C 1582.23 -4.24384 0.555211 0
M  V30 16430 C 1581.55 -5.33741 -0.320153 0
M  V30 16431 C 1582.85 -4.89535 1.8208 0
M  V30 16432 H 1584.55 -2.69712 1.29983 0
M  V30 16433 H 1582.09 -1.29659 0.626466 0
M  V30 16434 H 1584.04 -4.16419 -0.646024 0
M  V30 16435 H 1582.77 -3.0439 -1.18381 0
M  V30 16436 H 1581.43 -3.55733 0.885971 0
M  V30 16437 H 1581.08 -4.88354 -1.20498 0
M  V30 16438 H 1580.78 -5.8708 0.247241 0
M  V30 16439 H 1582.3 -6.06982 -0.663697 0
M  V30 16440 H 1583.71 -5.52209 1.54071 0
M  V30 16441 H 1582.11 -5.52941 2.33186 0
M  V30 16442 H 1583.18 -4.13113 2.53901 0
M  V30 16443 N 1584.52 -0.695628 -1.41417 0
M  V30 16444 C 1585.77 -0.226954 -2.01526 0
M  V30 16445 C 1586.1 1.1704 -1.54968 0
M  V30 16446 O 1585.38 1.78999 -0.760895 0
M  V30 16447 C 1585.66 -0.284704 -3.58973 0
M  V30 16448 C 1585.51 -1.71901 -4.15656 0
M  V30 16449 C 1586.83 0.355454 -4.38662 0
M  V30 16450 H 1583.95 -0.0839425 -0.732204 0
M  V30 16451 H 1586.59 -0.884359 -1.68164 0
M  V30 16452 H 1584.74 0.275041 -3.87525 0
M  V30 16453 H 1586.42 -2.3326 -3.97979 0
M  V30 16454 H 1584.66 -2.25314 -3.70696 0
M  V30 16455 H 1585.33 -1.71095 -5.24815 0
M  V30 16456 H 1587.81 -0.121256 -4.15923 0
M  V30 16457 H 1586.68 0.284503 -5.48162 0
M  V30 16458 H 1586.94 1.43617 -4.18123 0
M  V30 16459 N 1586 1.51322 -0.440383 0
M  V30 16460 C 1586.95 2.27823 0.369526 0
M  V30 16461 C 1587.92 1.31543 1.01418 0
M  V30 16462 O 1589.1 1.60449 1.03251 0
M  V30 16463 C 1586.24 3.12553 1.46304 0
M  V30 16464 C 1585.36 4.23829 0.836217 0
M  V30 16465 C 1584.49 4.95865 1.90504 0
M  V30 16466 C 1583.53 5.99058 1.25681 0
M  V30 16467 N 1582.67 6.64489 2.26712 0
M  V30 16468 H 1587.51 2.96593 -0.289205 0
M  V30 16469 H 1585.04 1.46287 -0.154466 0
M  V30 16470 H 1587 3.60006 2.10836 0
M  V30 16471 H 1585.63 2.4589 2.09136 0
M  V30 16472 H 1584.68 3.80318 0.0791116 0
M  V30 16473 H 1586 4.97753 0.322989 0
M  V30 16474 H 1585.15 5.46881 2.6269 0
M  V30 16475 H 1583.89 4.21578 2.452 0
M  V30 16476 H 1582.89 5.47331 0.520422 0
M  V30 16477 H 1584.12 6.75303 0.717138 0
M  V30 16478 H 1582.07 5.93014 2.80483 0
M  V30 16479 H 1581.98 7.34188 1.80289 0
M  V30 16480 H 1583.25 7.20134 2.98373 0
M  V30 16481 N 1587.48 0.171848 1.5666 0
M  V30 16482 C 1588.73 -0.473061 1.96074 0
M  V30 16483 C 1589.04 -1.64353 1.06054 0
M  V30 16484 O 1590.25 -2.35471 1.35151 0
M  V30 16485 C 1588.7 -0.892995 3.48645 0
M  V30 16486 C 1588.31 0.251902 4.47291 0
M  V30 16487 C 1590.06 -1.50629 3.96877 0
M  V30 16488 C 1587.96 -0.187691 5.91102 0
M  V30 16489 H 1586.89 -0.180503 0.732075 0
M  V30 16490 H 1589.54 0.260164 1.81646 0
M  V30 16491 H 1587.93 -1.68221 3.58494 0
M  V30 16492 H 1589.1 1.02923 4.49159 0
M  V30 16493 H 1587.41 0.775193 4.09121 0
M  V30 16494 H 1590.01 -1.84724 5.01778 0
M  V30 16495 H 1590.35 -2.4044 3.39844 0
M  V30 16496 H 1590.89 -0.781502 3.90048 0
M  V30 16497 H 1587.63 0.675653 6.52009 0
M  V30 16498 H 1587.15 -0.93037 5.9254 0
M  V30 16499 H 1588.83 -0.631385 6.43912 0
M  V30 16500 N 1588.96 -1.5727 -0.101874 0
M  V30 16501 C 1590.2 -1.86017 -0.807795 0
M  V30 16502 C 1590.54 -0.760024 -1.7871 0
M  V30 16503 O 1589.81 0.232627 -1.93104 0
M  V30 16504 C 1590.09 -3.25388 -1.54255 0
M  V30 16505 C 1589.95 -4.46023 -0.581693 0
M  V30 16506 C 1591.27 -3.62561 -2.49474 0
M  V30 16507 H 1588.39 -0.676596 -0.29221 0
M  V30 16508 H 1591.03 -1.89865 -0.0715861 0
M  V30 16509 H 1589.18 -3.22239 -2.17013 0
M  V30 16510 H 1590.85 -4.61284 0.0383529 0
M  V30 16511 H 1589.09 -4.33672 0.105465 0
M  V30 16512 H 1589.76 -5.40251 -1.1328 0
M  V30 16513 H 1592.24 -3.66611 -1.96813 0
M  V30 16514 H 1591.12 -4.61025 -2.97905 0
M  V30 16515 H 1591.38 -2.90885 -3.32924 0
M  V30 16516 N 1590.44 0.372521 -1.53134 0
M  V30 16517 C 1591.66 1.14116 -1.73183 0
M  V30 16518 C 1592.09 1.82475 -0.456553 0
M  V30 16519 O 1591.44 1.71468 0.588919 0
M  V30 16520 C 1591.49 2.15241 -2.89316 0
M  V30 16521 O 1590.6 3.22178 -2.57439 0
M  V30 16522 H 1589.94 0.331442 -0.575362 0
M  V30 16523 H 1592.47 0.431769 -1.99992 0
M  V30 16524 H 1592.48 2.58961 -3.15283 0
M  V30 16525 H 1591.15 1.64877 -3.81822 0
M  V30 16526 H 1589.73 2.83481 -2.42267 0
M  V30 16527 N 1591.91 1.44376 0.631925 0
M  V30 16528 C 1592.88 1.50825 1.72582 0
M  V30 16529 C 1593.88 0.390379 1.55989 0
M  V30 16530 O 1595.07 0.65297 1.61499 0
M  V30 16531 C 1592.2 1.38141 3.11657 0
M  V30 16532 H 1593.39 2.48265 1.68239 0
M  V30 16533 H 1590.94 1.31456 0.845514 0
M  V30 16534 H 1591.68 0.417905 3.21596 0
M  V30 16535 H 1591.46 2.19198 3.25107 0
M  V30 16536 H 1592.95 1.45633 3.91383 0
M  V30 16537 N 1593.39 -0.872258 1.31261 0
M  V30 16538 C 1594.32 -1.99517 1.21306 0
M  V30 16539 C 1595.3 -1.69801 0.100775 0
M  V30 16540 O 1596.49 -1.92098 0.284984 0
M  V30 16541 C 1593.62 -3.34968 0.917249 0
M  V30 16542 C 1592.57 -3.78984 1.98885 0
M  V30 16543 C 1591.9 -5.11869 1.54578 0
M  V30 16544 C 1593.2 -3.96338 3.40167 0
M  V30 16545 H 1594.89 -2.08104 2.15251 0
M  V30 16546 H 1592.44 -0.999865 1.03628 0
M  V30 16547 H 1594.39 -4.1306 0.834217 0
M  V30 16548 H 1593.11 -3.26549 -0.0578721 0
M  V30 16549 H 1591.77 -3.0313 2.06174 0
M  V30 16550 H 1591.42 -4.99889 0.558581 0
M  V30 16551 H 1591.12 -5.4229 2.26265 0
M  V30 16552 H 1592.65 -5.92472 1.47678 0
M  V30 16553 H 1594.06 -4.64831 3.35566 0
M  V30 16554 H 1592.46 -4.38153 4.10051 0
M  V30 16555 H 1593.53 -2.9979 3.81122 0
M  V30 16556 N 1594.87 -1.14184 -1.08627 0
M  V30 16557 C 1596.12 -0.91001 -1.81236 0
M  V30 16558 C 1596.45 0.562134 -1.85886 0
M  V30 16559 O 1595.72 1.41631 -1.33307 0
M  V30 16560 C 1596.01 -1.50879 -3.26967 0
M  V30 16561 C 1595.86 -3.05063 -3.3054 0
M  V30 16562 C 1597.18 -1.18379 -4.2388 0
M  V30 16563 H 1594.3 -0.332025 -0.657973 0
M  V30 16564 H 1596.94 -1.41144 -1.27194 0
M  V30 16565 H 1595.09 -1.08236 -3.73118 0
M  V30 16566 H 1596.76 -3.5652 -2.9273 0
M  V30 16567 H 1595 -3.39628 -2.6988 0
M  V30 16568 H 1595.68 -3.42064 -4.33239 0
M  V30 16569 H 1598.15 -1.55242 -3.86056 0
M  V30 16570 H 1597.03 -1.62911 -5.24167 0
M  V30 16571 H 1597.29 -0.0987385 -4.4199 0
M  V30 16572 N 1596.35 1.26749 -0.936613 0
M  V30 16573 C 1597.6 1.93255 -0.577524 0
M  V30 16574 C 1597.91 1.74337 0.886905 0
M  V30 16575 O 1599.12 2.3526 1.35517 0
M  V30 16576 C 1597.57 3.4624 -0.982119 0
M  V30 16577 C 1597.18 3.739 -2.46784 0
M  V30 16578 C 1598.92 4.18777 -0.694706 0
M  V30 16579 C 1596.83 5.20303 -2.81138 0
M  V30 16580 H 1595.76 0.723502 -0.212276 0
M  V30 16581 H 1598.41 1.43901 -1.13863 0
M  V30 16582 H 1596.79 3.94454 -0.349577 0
M  V30 16583 H 1597.97 3.3641 -3.14905 0
M  V30 16584 H 1596.28 3.14587 -2.72808 0
M  V30 16585 H 1598.88 5.2659 -0.927756 0
M  V30 16586 H 1599.22 4.14667 0.368392 0
M  V30 16587 H 1599.76 3.76414 -1.28676 0
M  V30 16588 H 1596.5 5.29511 -3.86392 0
M  V30 16589 H 1596.02 5.58907 -2.17675 0
M  V30 16590 H 1597.69 5.88265 -2.69358 0
M  V30 16591 N 1597.83 0.703118 1.41046 0
M  V30 16592 C 1599.07 0.237638 2.01403 0
M  V30 16593 C 1599.41 -1.16217 1.55587 0
M  V30 16594 O 1598.68 -1.78593 0.770377 0
M  V30 16595 C 1598.96 0.303738 3.58817 0
M  V30 16596 C 1598.82 1.74103 4.14739 0
M  V30 16597 C 1600.14 -0.332186 4.38845 0
M  V30 16598 H 1597.25 0.0878243 0.731749 0
M  V30 16599 H 1599.9 0.893264 1.67693 0
M  V30 16600 H 1598.05 -0.254485 3.87666 0
M  V30 16601 H 1599.72 2.35368 3.96736 0
M  V30 16602 H 1597.96 2.27277 3.69496 0
M  V30 16603 H 1598.63 1.73876 5.239 0
M  V30 16604 H 1601.11 0.143312 4.15853 0
M  V30 16605 H 1599.98 -0.255429 5.48305 0
M  V30 16606 H 1600.25 -1.41397 4.18878 0
M  V30 16607 N 1599.3 -1.51086 0.448402 0
M  V30 16608 C 1600.55 -2.02476 -0.114511 0
M  V30 16609 C 1600.88 -1.33126 -1.4139 0
M  V30 16610 O 1600.16 -0.449665 -1.89231 0
M  V30 16611 C 1600.44 -3.58659 -0.321842 0
M  V30 16612 C 1600.29 -4.38612 0.996975 0
M  V30 16613 C 1601.61 -4.26473 -1.08667 0
M  V30 16614 H 1598.73 -0.735906 -0.0401431 0
M  V30 16615 H 1601.37 -1.80622 0.589563 0
M  V30 16616 H 1599.52 -3.77411 -0.92157 0
M  V30 16617 H 1601.2 -4.31484 1.63154 0
M  V30 16618 H 1599.44 -4.03255 1.599 0
M  V30 16619 H 1600.11 -5.46087 0.805817 0
M  V30 16620 H 1602.59 -4.12058 -0.578559 0
M  V30 16621 H 1601.46 -5.35611 -1.20051 0
M  V30 16622 H 1601.72 -3.88086 -2.11758 0
M  V30 16623 N 1600.78 -0.180154 -1.56567 0
M  V30 16624 C 1602.2 0.175902 -1.58628 0
M  V30 16625 C 1602.4 1.62179 -1.19583 0
M  V30 16626 O 1601.45 2.35471 -0.911566 0
M  V30 16627 C 1602.77 -0.11292 -3.00488 0
M  V30 16628 C 1604.32 -0.051834 -3.12957 0
M  V30 16629 C 1604.79 -0.313764 -4.56924 0
M  V30 16630 N 1606.28 -0.261852 -4.62459 0
M  V30 16631 C 1607.02 -0.438573 -5.7172 0
M  V30 16632 N 1606.51 -0.674832 -6.89506 0
M  V30 16633 N 1608.31 -0.373864 -5.60855 0
M  V30 16634 H 1600.46 -1.12385 -1.80232 0
M  V30 16635 H 1602.72 -0.447459 -0.835754 0
M  V30 16636 H 1602.43 -1.11488 -3.33562 0
M  V30 16637 H 1602.3 0.591409 -3.72535 0
M  V30 16638 H 1604.69 0.940711 -2.79705 0
M  V30 16639 H 1604.77 -0.78901 -2.43327 0
M  V30 16640 H 1604.41 -1.30356 -4.90887 0
M  V30 16641 H 1604.34 0.444127 -5.24724 0
M  V30 16642 H 1606.83 -0.0852513 -3.77804 0
M  V30 16643 H 1607.15 -0.798891 -7.6866 0
M  V30 16644 H 1605.49 -0.711551 -6.91348 0
M  V30 16645 H 1608.68 -0.189815 -4.67715 0
M  V30 16646 H 1608.85 -0.515012 -6.4595 0
M  V30 16647 N 1602.26 1.57322 0.0935319 0
M  V30 16648 C 1603.21 2.03184 1.13222 0
M  V30 16649 C 1604.2 0.933184 1.41379 0
M  V30 16650 O 1605.41 1.11836 1.41042 0
M  V30 16651 H 1601.78 0.647541 0.382354 0
M  V30 16652 H 1603.75 2.89606 0.719105 0
M  V30 16653 C 1602.5 2.47336 2.44378 0
M  V30 16654 H 1601.83 3.31456 2.23556 0
M  V30 16655 H 1603.27 2.83199 3.15554 0
M  V30 16656 C 1601.73 1.34728 3.08788 0
M  V30 16657 O 1602.26 0.677285 3.95949 0
M  V30 16658 N 1600.46 1.09787 2.69063 0
M  V30 16659 H 1600.01 1.64451 1.98277 0
M  V30 16660 H 1599.97 0.346436 3.12485 0
M  V30 16661 N 1603.74 -0.364395 1.53329 0
M  V30 16662 C 1604.97 -1.12586 1.73228 0
M  V30 16663 C 1605.38 -1.83482 0.461614 0
M  V30 16664 O 1604.72 -1.74459 -0.575295 0
M  V30 16665 C 1604.78 -2.1994 2.84371 0
M  V30 16666 C 1604.45 -1.688 4.24683 0
M  V30 16667 C 1605.44 -1.15145 5.06989 0
M  V30 16668 C 1603.13 -1.74277 4.71097 0
M  V30 16669 C 1605.12 -0.676447 6.338 0
M  V30 16670 C 1602.81 -1.26389 5.97887 0
M  V30 16671 C 1603.81 -0.731632 6.7907 0
M  V30 16672 O 1603.49 -0.259825 8.0348 0
M  V30 16673 H 1603.23 -0.342514 0.582804 0
M  V30 16674 H 1605.78 -0.428832 2.00874 0
M  V30 16675 H 1604.01 -2.9314 2.52202 0
M  V30 16676 H 1605.7 -2.81489 2.92436 0
M  V30 16677 H 1606.47 -1.10251 4.72303 0
M  V30 16678 H 1602.34 -2.14647 4.0798 0
M  V30 16679 H 1605.89 -0.260327 6.97114 0
M  V30 16680 H 1601.79 -1.30977 6.32072 0
M  V30 16681 H 1602.55 -0.379044 8.17622 0
M  V30 16682 N 1605.22 -1.44709 -0.62426 0
M  V30 16683 C 1606.13 -1.54608 -1.76447 0
M  V30 16684 C 1607.14 -0.43137 -1.68568 0
M  V30 16685 O 1608.32 -0.6897 -1.89222 0
M  V30 16686 C 1605.38 -1.49404 -3.12857 0
M  V30 16687 C 1604.44 -2.71782 -3.32315 0
M  V30 16688 C 1603.68 -2.66817 -4.62217 0
M  V30 16689 O 1603.9 -1.73205 -5.43467 0
M  V30 16690 O 1602.83 -3.57773 -4.84027 0
M  V30 16691 H 1606.66 -2.50951 -1.71048 0
M  V30 16692 H 1604.25 -1.27033 -0.786326 0
M  V30 16693 H 1606.13 -1.4905 -3.9416 0
M  V30 16694 H 1604.8 -0.562078 -3.18783 0
M  V30 16695 H 1603.71 -2.77702 -2.50664 0
M  V30 16696 H 1605.04 -3.64048 -3.31255 0
M  V30 16697 N 1606.69 0.865285 -1.31722 0
M  V30 16698 C 1607.97 1.60146 -1.12306 0
M  V30 16699 C 1608.35 2.08653 0.320508 0
M  V30 16700 O 1607.7 1.86841 1.31539 0
M  V30 16701 C 1607.91 2.75583 -2.14138 0
M  V30 16702 C 1609.26 3.45429 -2.46909 0
M  V30 16703 O 1610.28 2.85795 -2.12602 0
M  V30 16704 O 1609.14 4.53017 -3.05676 0
M  V30 16705 H 1606.23 0.704786 -0.432673 0
M  V30 16706 H 1608.78 0.910339 -1.43216 0
M  V30 16707 H 1607.55 2.37187 -3.1122 0
M  V30 16708 H 1607.18 3.52378 -1.84161 0
M  V30 16709 N 1608.17 1.14759 1.0802 0
M  V30 16710 C 1609.4 0.941887 1.84218 0
M  V30 16711 C 1609.82 -0.509702 1.8179 0
M  V30 16712 O 1609.17 -1.35331 1.22441 0
M  V30 16713 C 1609.22 1.43978 3.31591 0
M  V30 16714 O 1608.94 2.83449 3.34048 0
M  V30 16715 C 1610.45 1.27459 4.24581 0
M  V30 16716 H 1607.67 0.334942 0.581425 0
M  V30 16717 H 1610.21 1.52367 1.36399 0
M  V30 16718 H 1608.36 0.900674 3.76785 0
M  V30 16719 H 1608.78 3.05878 4.26073 0
M  V30 16720 H 1610.25 1.67151 5.26084 0
M  V30 16721 H 1610.73 0.217925 4.38659 0
M  V30 16722 H 1611.34 1.80243 3.85217 0
M  V30 16723 N 1609.65 -1.26251 0.943322 0
M  V30 16724 C 1610.88 -1.97739 0.608852 0
M  V30 16725 C 1611.29 -1.70225 -0.81663 0
M  V30 16726 O 1610.65 -0.97172 -1.54479 0
M  V30 16727 C 1610.7 -3.51505 0.844172 0
M  V30 16728 O 1610.42 -3.78063 2.21359 0
M  V30 16729 C 1611.92 -4.40233 0.52054 0
M  V30 16730 H 1609.14 -0.630619 0.229262 0
M  V30 16731 H 1611.69 -1.6071 1.26461 0
M  V30 16732 H 1609.84 -3.86687 0.23499 0
M  V30 16733 H 1610.26 -4.72582 2.27523 0
M  V30 16734 H 1611.73 -5.47074 0.735802 0
M  V30 16735 H 1612.21 -4.35811 -0.544541 0
M  V30 16736 H 1612.81 -4.10599 1.10854 0
M  V30 16737 N 1611.13 -0.710588 -1.40671 0
M  V30 16738 C 1612.36 -0.257442 -2.05292 0
M  V30 16739 C 1612.77 1.09891 -1.53523 0
M  V30 16740 O 1612.13 1.68966 -0.689703 0
M  V30 16741 C 1612.18 -0.223091 -3.60811 0
M  V30 16742 O 1611.9 -1.52588 -4.10668 0
M  V30 16743 C 1613.4 0.249217 -4.42599 0
M  V30 16744 H 1610.62 -0.116663 -0.66078 0
M  V30 16745 H 1613.17 -0.967391 -1.80172 0
M  V30 16746 H 1611.32 0.437787 -3.84918 0
M  V30 16747 H 1611.74 -1.42301 -5.04827 0
M  V30 16748 H 1613.21 0.22211 -5.51553 0
M  V30 16749 H 1613.69 1.29057 -4.19811 0
M  V30 16750 H 1614.29 -0.381202 -4.23588 0
M  V30 16751 N 1612.61 1.50847 -0.456408 0
M  V30 16752 C 1613.86 2.01425 0.105223 0
M  V30 16753 C 1614.17 1.34413 1.421 0
M  V30 16754 O 1615.38 1.76066 2.06671 0
M  V30 16755 C 1613.83 3.59112 0.238051 0
M  V30 16756 C 1613.44 4.35073 -1.06842 0
M  V30 16757 C 1615.18 4.17778 0.752428 0
M  V30 16758 C 1613.09 5.84509 -0.900194 0
M  V30 16759 H 1612.02 0.752767 0.0430992 0
M  V30 16760 H 1614.67 1.73788 -0.589075 0
M  V30 16761 H 1613.05 3.83275 0.995795 0
M  V30 16762 H 1614.23 4.22645 -1.83598 0
M  V30 16763 H 1612.54 3.87948 -1.51278 0
M  V30 16764 H 1615.14 5.27155 0.895088 0
M  V30 16765 H 1615.48 3.78195 1.73994 0
M  V30 16766 H 1616.02 3.97765 0.052476 0
M  V30 16767 H 1612.75 6.28538 -1.86064 0
M  V30 16768 H 1612.27 5.99551 -0.172767 0
M  V30 16769 H 1613.95 6.44564 -0.560943 0
M  V30 16770 N 1614.09 0.188454 1.56469 0
M  V30 16771 C 1615.02 -0.730379 2.21783 0
M  V30 16772 C 1616 -1.22629 1.17882 0
M  V30 16773 O 1617.18 -1.27634 1.46367 0
M  V30 16774 C 1614.31 -1.95278 2.872 0
M  V30 16775 C 1613.27 -1.59205 3.97288 0
M  V30 16776 C 1612.59 -2.89052 4.49836 0
M  V30 16777 C 1613.89 -0.807027 5.16027 0
M  V30 16778 H 1615.59 -0.185914 2.98822 0
M  V30 16779 H 1613.13 -0.0879804 1.43731 0
M  V30 16780 H 1615.08 -2.60074 3.31571 0
M  V30 16781 H 1613.81 -2.52167 2.07556 0
M  V30 16782 H 1612.47 -0.967713 3.53597 0
M  V30 16783 H 1612.12 -3.44017 3.66963 0
M  V30 16784 H 1611.82 -2.65663 5.24115 0
M  V30 16785 H 1613.34 -3.54847 4.96906 0
M  V30 16786 H 1614.75 -1.35794 5.56986 0
M  V30 16787 H 1613.15 -0.671516 5.96331 0
M  V30 16788 H 1614.22 0.193251 4.84515 0
M  V30 16789 N 1615.56 -1.5737 -0.0851874 0
M  V30 16790 C 1616.53 -2.01789 -1.08692 0
M  V30 16791 C 1617.53 -0.912872 -1.32376 0
M  V30 16792 O 1618.72 -1.1781 -1.28322 0
M  V30 16793 C 1615.85 -2.38708 -2.43375 0
M  V30 16794 H 1617.04 -2.91511 -0.704359 0
M  V30 16795 H 1614.59 -1.52765 -0.330528 0
M  V30 16796 H 1615.33 -1.5197 -2.86488 0
M  V30 16797 H 1615.11 -3.19331 -2.2753 0
M  V30 16798 H 1616.6 -2.73697 -3.15404 0
M  V30 16799 N 1617.04 0.356258 -1.53521 0
M  V30 16800 C 1618.27 1.11828 -1.74075 0
M  V30 16801 C 1618.68 1.82753 -0.473998 0
M  V30 16802 O 1618.04 1.73899 0.553649 0
M  V30 16803 C 1618.09 2.14149 -2.91243 0
M  V30 16804 O 1617.81 1.4611 -4.13017 0
M  V30 16805 C 1619.31 3.02826 -3.23746 0
M  V30 16806 H 1616.53 0.334002 -0.581965 0
M  V30 16807 H 1619.08 0.412336 -2.003 0
M  V30 16808 H 1617.23 2.80328 -2.67386 0
M  V30 16809 H 1617.65 2.1436 -4.78696 0
M  V30 16810 H 1619.12 3.70583 -4.09112 0
M  V30 16811 H 1619.6 3.68149 -2.39505 0
M  V30 16812 H 1620.2 2.42252 -3.49563 0
M  V30 16813 N 1618.52 1.45038 0.616577 0
M  V30 16814 C 1619.45 1.55858 1.73869 0
M  V30 16815 C 1620.43 0.410657 1.65069 0
M  V30 16816 O 1621.62 0.632652 1.83606 0
M  V30 16817 C 1618.75 1.51635 3.12448 0
M  V30 16818 C 1617.7 2.65053 3.36052 0
M  V30 16819 C 1617.03 2.45883 4.74811 0
M  V30 16820 C 1618.33 4.07121 3.27185 0
M  V30 16821 H 1620.02 2.49784 1.6507 0
M  V30 16822 H 1617.57 1.20216 0.792724 0
M  V30 16823 H 1619.52 1.57803 3.90738 0
M  V30 16824 H 1618.24 0.542342 3.22066 0
M  V30 16825 H 1616.9 2.58299 2.60149 0
M  V30 16826 H 1616.55 1.46641 4.8115 0
M  V30 16827 H 1616.25 3.21935 4.9156 0
M  V30 16828 H 1617.77 2.53892 5.55312 0
M  V30 16829 H 1619.19 4.15167 3.9536 0
M  V30 16830 H 1617.58 4.83491 3.55466 0
M  V30 16831 H 1618.65 4.29663 2.24762 0
M  V30 16832 N 1620 -0.858287 1.32179 0
M  V30 16833 C 1620.96 -1.94811 1.20753 0
M  V30 16834 C 1621.96 -1.60261 0.131526 0
M  V30 16835 O 1623.15 -1.69968 0.381662 0
M  V30 16836 C 1620.28 -3.29972 0.856229 0
M  V30 16837 H 1621.48 -2.06371 2.17603 0
M  V30 16838 H 1619.03 -1.04802 1.15958 0
M  V30 16839 H 1619.76 -3.24111 -0.11061 0
M  V30 16840 H 1619.55 -3.56424 1.63414 0
M  V30 16841 H 1621.04 -4.09856 0.800507 0
M  V30 16842 N 1621.48 -1.1533 -1.07409 0
M  V30 16843 C 1622.41 -0.872476 -2.16587 0
M  V30 16844 C 1623.39 0.176683 -1.6918 0
M  V30 16845 O 1624.57 0.0311826 -1.94175 0
M  V30 16846 C 1621.7 -0.360342 -3.45426 0
M  V30 16847 C 1620.66 -1.34611 -4.06281 0
M  V30 16848 C 1619.98 -0.692848 -5.30192 0
M  V30 16849 C 1621.28 -2.71191 -4.46378 0
M  V30 16850 H 1622.98 -1.78546 -2.40336 0
M  V30 16851 H 1620.52 -0.859895 -1.15507 0
M  V30 16852 H 1622.47 -0.151429 -4.21128 0
M  V30 16853 H 1621.2 0.588109 -3.21261 0
M  V30 16854 H 1619.86 -1.54137 -3.32622 0
M  V30 16855 H 1619.51 0.261732 -5.02319 0
M  V30 16856 H 1619.21 -1.35071 -5.71865 0
M  V30 16857 H 1620.73 -0.493695 -6.08601 0
M  V30 16858 H 1622.14 -2.55513 -5.13212 0
M  V30 16859 H 1620.54 -3.33345 -4.99 0
M  V30 16860 H 1621.61 -3.273 -3.57775 0
M  V30 16861 N 1622.95 1.25748 -0.950004 0
M  V30 16862 C 1623.88 2.28419 -0.484467 0
M  V30 16863 C 1624.86 1.63569 0.466813 0
M  V30 16864 O 1626.05 1.90705 0.366766 0
M  V30 16865 C 1623.18 3.46449 0.242916 0
M  V30 16866 C 1622.13 4.23447 -0.622657 0
M  V30 16867 C 1621.46 5.34182 0.235199 0
M  V30 16868 C 1622.76 4.86576 -1.89845 0
M  V30 16869 H 1624.45 2.6761 -1.34257 0
M  V30 16870 H 1622 1.28646 -0.647014 0
M  V30 16871 H 1623.95 4.17394 0.579693 0
M  V30 16872 H 1622.68 3.06235 1.13523 0
M  V30 16873 H 1621.34 3.54279 -0.942453 0
M  V30 16874 H 1620.98 4.90209 1.12713 0
M  V30 16875 H 1620.68 5.86612 -0.340609 0
M  V30 16876 H 1622.21 6.07961 0.567048 0
M  V30 16877 H 1623.62 5.49688 -1.62837 0
M  V30 16878 H 1622.02 5.49162 -2.41954 0
M  V30 16879 H 1623.09 4.09021 -2.60441 0
M  V30 16880 N 1624.43 0.718038 1.40292 0
M  V30 16881 C 1625.68 0.258092 2.00445 0
M  V30 16882 C 1626 -1.15347 1.57226 0
M  V30 16883 O 1625.27 -1.78241 0.812822 0
M  V30 16884 H 1623.85 0.0924316 0.741259 0
M  V30 16885 H 1626.51 0.924216 1.71593 0
M  V30 16886 H 1625.61 0.293113 3.10721 0
M  V30 16887 N 1625.91 -1.50602 0.464402 0
M  V30 16888 C 1627.15 -2.04194 -0.0917216 0
M  V30 16889 C 1627.51 -1.33921 -1.37584 0
M  V30 16890 O 1628.72 -1.78031 -2.01391 0
M  V30 16891 C 1626.99 -3.56316 -0.278093 0
M  V30 16892 S 1628.55 -4.31561 -0.793734 0
M  V30 16893 H 1625.36 -0.710743 -0.0191155 0
M  V30 16894 H 1627.97 -1.85071 0.63001 0
M  V30 16895 H 1626.67 -4.05019 0.662395 0
M  V30 16896 H 1626.2 -3.79782 -1.02613 0
M  V30 16897 H 1628.22 -4.51052 -2.06801 0
M  V30 16898 N 1627.39 -0.19675 -1.56367 0
M  V30 16899 C 1628.67 0.489288 -1.89381 0
M  V30 16900 C 1629.05 1.79529 -1.11052 0
M  V30 16901 O 1628.39 2.27513 -0.212117 0
M  V30 16902 C 1628.6 0.706459 -3.41775 0
M  V30 16903 C 1629.95 1.02508 -4.1204 0
M  V30 16904 O 1630.98 0.794123 -3.47235 0
M  V30 16905 O 1629.83 1.46207 -5.26579 0
M  V30 16906 H 1626.93 0.2553 -0.786607 0
M  V30 16907 H 1629.47 -0.237086 -1.68036 0
M  V30 16908 H 1628.25 -0.215762 -3.90705 0
M  V30 16909 H 1627.87 1.48523 -3.68818 0
M  V30 16910 N 1628.87 1.57413 0.0768405 0
M  V30 16911 C 1630.12 1.86186 0.775741 0
M  V30 16912 C 1630.43 0.788676 1.78995 0
M  V30 16913 O 1631.63 0.964095 2.53806 0
M  V30 16914 C 1630.09 3.30247 1.43055 0
M  V30 16915 C 1629.7 4.45682 0.45517 0
M  V30 16916 C 1631.44 3.68225 2.11211 0
M  V30 16917 C 1629.35 5.80782 1.11561 0
M  V30 16918 H 1628.28 0.694546 0.293466 0
M  V30 16919 H 1630.93 1.83477 0.0289478 0
M  V30 16920 H 1629.31 3.27552 2.22544 0
M  V30 16921 H 1630.49 4.59759 -0.309535 0
M  V30 16922 H 1628.8 4.16222 -0.121671 0
M  V30 16923 H 1631.4 4.66454 2.6139 0
M  V30 16924 H 1631.74 2.9777 2.90928 0
M  V30 16925 H 1632.27 3.72888 1.38561 0
M  V30 16926 H 1629.01 6.54517 0.358877 0
M  V30 16927 H 1628.53 5.70515 1.8513 0
M  V30 16928 H 1630.21 6.25951 1.63689 0
M  V30 16929 N 1630.34 -0.348112 1.53707 0
M  V30 16930 C 1631.57 -1.11346 1.74976 0
M  V30 16931 C 1631.99 -1.81726 0.485525 0
M  V30 16932 O 1631.35 -1.72384 -0.561565 0
M  V30 16933 C 1631.4 -2.10611 2.92703 0
M  V30 16934 O 1630.5 -3.18042 2.62532 0
M  V30 16935 H 1629.85 -0.322247 0.580563 0
M  V30 16936 H 1632.38 -0.399898 2.00654 0
M  V30 16937 H 1632.39 -2.53912 3.19363 0
M  V30 16938 H 1631.06 -1.58782 3.84397 0
M  V30 16939 H 1629.64 -2.79591 2.46746 0
M  V30 16940 N 1631.82 -1.45363 -0.608876 0
M  V30 16941 C 1633.23 -1.43794 -1.19081 0
M  V30 16942 C 1633.58 -0.164874 -1.95506 0
M  V30 16943 O 1632.71 0.733623 -2.03585 0
M  V30 16944 C 1633.3 -2.60506 -2.16615 0
M  V30 16945 C 1631.86 -2.62061 -2.70187 0
M  V30 16946 C 1631.01 -2.36018 -1.4557 0
M  V30 16947 H 1633.96 -1.53622 -0.39826 0
M  V30 16948 H 1633.98 -2.34531 -2.99625 0
M  V30 16949 H 1633.49 -3.53147 -1.60963 0
M  V30 16950 H 1631.6 -1.73423 -3.2978 0
M  V30 16951 H 1631.71 -3.61242 -3.14708 0
M  V30 16952 H 1630.07 -1.8555 -1.74481 0
M  V30 16953 H 1630.86 -3.30802 -0.917884 0
M  V30 16954 N 1633.3 0.851265 -1.32632 0
M  V30 16955 C 1634.55 1.60785 -1.24578 0
M  V30 16956 C 1634.9 1.91462 0.189803 0
M  V30 16957 O 1634.19 1.54839 1.12851 0
M  V30 16958 C 1634.39 2.93312 -2.04212 0
M  V30 16959 C 1634.22 2.75579 -3.55368 0
M  V30 16960 C 1632.99 2.73784 -4.247 0
M  V30 16961 C 1635.19 2.49095 -4.49951 0
M  V30 16962 N 1633.17 2.47298 -5.61887 0
M  V30 16963 C 1634.54 2.32046 -5.74939 0
M  V30 16964 C 1636.59 2.34591 -4.39171 0
M  V30 16965 C 1635.3 2.01965 -6.90364 0
M  V30 16966 C 1637.32 2.05902 -5.54399 0
M  V30 16967 C 1636.68 1.89655 -6.78388 0
M  V30 16968 H 1632.78 0.591922 -0.511031 0
M  V30 16969 H 1635.37 1.00037 -1.67035 0
M  V30 16970 H 1633.54 3.52033 -1.64095 0
M  V30 16971 H 1635.27 3.58369 -1.88026 0
M  V30 16972 H 1632.03 2.86845 -3.76851 0
M  V30 16973 H 1632.45 2.36973 -6.34171 0
M  V30 16974 H 1637.09 2.45871 -3.43959 0
M  V30 16975 H 1634.81 1.89423 -7.85585 0
M  V30 16976 H 1638.4 1.95452 -5.47987 0
M  V30 16977 H 1637.28 1.67772 -7.66043 0
M  V30 16978 N 1634.78 1.15898 1.06796 0
M  V30 16979 C 1635.71 0.818654 2.14081 0
M  V30 16980 C 1636.72 -0.171847 1.6189 0
M  V30 16981 O 1637.91 0.052196 1.78424 0
M  V30 16982 C 1635.01 0.197283 3.38325 0
M  V30 16983 C 1634.19 1.22662 4.19849 0
M  V30 16984 C 1633.24 0.625985 5.22463 0
M  V30 16985 O 1632.27 1.29347 5.54309 0
M  V30 16986 N 1633.47 -0.589665 5.77497 0
M  V30 16987 H 1636.24 1.74196 2.43877 0
M  V30 16988 H 1633.8 1.05562 1.22753 0
M  V30 16989 H 1635.79 -0.217439 4.04115 0
M  V30 16990 H 1634.36 -0.629476 3.06197 0
M  V30 16991 H 1633.58 1.8177 3.49791 0
M  V30 16992 H 1634.87 1.92143 4.71125 0
M  V30 16993 H 1634.27 -1.15022 5.53883 0
M  V30 16994 H 1632.82 -0.946667 6.44889 0
M  V30 16995 N 1636.26 -1.25243 0.956659 0
M  V30 16996 C 1637.5 -1.93624 0.623011 0
M  V30 16997 C 1637.86 -1.73521 -0.831149 0
M  V30 16998 O 1637.15 -1.07092 -1.58877 0
M  V30 16999 C 1637.34 -3.4536 0.919849 0
M  V30 17000 C 1637.17 -3.8022 2.40131 0
M  V30 17001 C 1635.94 -4.02169 3.05922 0
M  V30 17002 C 1638.14 -3.87567 3.38077 0
M  V30 17003 N 1636.12 -4.24037 4.43921 0
M  V30 17004 C 1637.49 -4.14149 4.6139 0
M  V30 17005 C 1639.55 -3.70257 3.32888 0
M  V30 17006 C 1638.25 -4.2522 5.80155 0
M  V30 17007 C 1640.28 -3.82569 4.50994 0
M  V30 17008 C 1639.64 -4.09565 5.73094 0
M  V30 17009 H 1635.74 -0.730679 0.278624 0
M  V30 17010 H 1638.32 -1.50988 1.22925 0
M  V30 17011 H 1636.49 -3.86887 0.342519 0
M  V30 17012 H 1638.23 -4.01001 0.545898 0
M  V30 17013 H 1634.98 -3.98135 2.56487 0
M  V30 17014 H 1635.41 -4.38974 5.15394 0
M  V30 17015 H 1640.05 -3.48401 2.39533 0
M  V30 17016 H 1637.77 -4.45892 6.73948 0
M  V30 17017 H 1641.35 -3.70559 4.48528 0
M  V30 17018 H 1640.23 -4.18875 6.62958 0
M  V30 17019 N 1637.73 -0.725468 -1.3991 0
M  V30 17020 C 1638.66 -0.094211 -2.3331 0
M  V30 17021 C 1639.65 0.734728 -1.53414 0
M  V30 17022 O 1640.83 0.681647 -1.81844 0
M  V30 17023 C 1637.96 0.820958 -3.37457 0
M  V30 17024 C 1636.91 0.0968983 -4.2789 0
M  V30 17025 C 1636.24 1.12845 -5.22657 0
M  V30 17026 C 1637.54 -1.05483 -5.11537 0
M  V30 17027 H 1639.23 -0.874365 -2.86348 0
M  V30 17028 H 1636.78 -0.421913 -1.3768 0
M  V30 17029 H 1638.73 1.27203 -4.01743 0
M  V30 17030 H 1637.46 1.63312 -2.82837 0
M  V30 17031 H 1636.12 -0.334454 -3.65071 0
M  V30 17032 H 1635.76 1.93392 -4.64337 0
M  V30 17033 H 1635.46 0.648805 -5.84007 0
M  V30 17034 H 1636.99 1.57942 -5.89819 0
M  V30 17035 H 1638.4 -0.682657 -5.69221 0
M  V30 17036 H 1636.8 -1.46349 -5.81981 0
M  V30 17037 H 1637.87 -1.88095 -4.46932 0
M  V30 17038 N 1639.21 1.50354 -0.472382 0
M  V30 17039 C 1640.16 2.28555 0.321118 0
M  V30 17040 C 1641.13 1.33665 0.98605 0
M  V30 17041 O 1642.31 1.62603 0.998239 0
M  V30 17042 C 1639.45 3.15586 1.39641 0
M  V30 17043 C 1638.57 4.25508 0.746129 0
M  V30 17044 C 1637.7 4.99794 1.79943 0
M  V30 17045 C 1636.74 6.01589 1.12946 0
M  V30 17046 N 1635.88 6.69149 2.12567 0
M  V30 17047 H 1640.72 2.95913 -0.352051 0
M  V30 17048 H 1638.26 1.45926 -0.185461 0
M  V30 17049 H 1640.21 3.64397 2.03152 0
M  V30 17050 H 1638.84 2.50271 2.03873 0
M  V30 17051 H 1637.9 3.804 -0.00157718 0
M  V30 17052 H 1639.21 4.98326 0.217335 0
M  V30 17053 H 1638.36 5.5233 2.51031 0
M  V30 17054 H 1637.1 4.26684 2.36203 0
M  V30 17055 H 1636.11 5.48312 0.404207 0
M  V30 17056 H 1637.33 6.76672 0.573735 0
M  V30 17057 H 1635.28 5.9883 2.67841 0
M  V30 17058 H 1635.19 7.37847 1.64676 0
M  V30 17059 H 1636.46 7.26301 2.83031 0
M  V30 17060 N 1640.69 0.205039 1.56261 0
M  V30 17061 C 1641.64 -0.711828 2.19549 0
M  V30 17062 C 1642.61 -1.2025 1.14582 0
M  V30 17063 O 1643.79 -1.26459 1.42873 0
M  V30 17064 C 1640.93 -1.92152 2.86656 0
M  V30 17065 C 1640.05 -1.47129 4.06174 0
M  V30 17066 C 1639.18 -2.63726 4.6111 0
M  V30 17067 C 1638.22 -2.15357 5.72964 0
M  V30 17068 N 1637.36 -3.25167 6.22263 0
M  V30 17069 H 1642.2 -0.165392 2.97541 0
M  V30 17070 H 1639.73 -0.0698889 1.46934 0
M  V30 17071 H 1641.69 -2.63152 3.23739 0
M  V30 17072 H 1640.32 -2.4411 2.11211 0
M  V30 17073 H 1639.37 -0.656797 3.74687 0
M  V30 17074 H 1640.69 -1.0765 4.87045 0
M  V30 17075 H 1639.84 -3.42833 5.0055 0
M  V30 17076 H 1638.58 -3.06484 3.79367 0
M  V30 17077 H 1637.58 -1.34706 5.33043 0
M  V30 17078 H 1638.81 -1.73618 6.56532 0
M  V30 17079 H 1636.76 -3.67438 5.43439 0
M  V30 17080 H 1636.67 -2.89888 6.98213 0
M  V30 17081 H 1637.94 -4.0446 6.66358 0
M  V30 17082 N 1642.17 -1.57451 -0.0684915 0
M  V30 17083 C 1643.12 -2.03916 -1.08105 0
M  V30 17084 C 1644.09 -0.920418 -1.38266 0
M  V30 17085 O 1645.27 -1.18831 -1.49277 0
M  V30 17086 C 1642.41 -2.49075 -2.38863 0
M  V30 17087 C 1641.52 -3.74581 -2.15204 0
M  V30 17088 C 1640.66 -4.08509 -3.39549 0
M  V30 17089 C 1639.7 -5.27046 -3.11269 0
M  V30 17090 N 1638.84 -5.56597 -4.27954 0
M  V30 17091 H 1643.68 -2.90188 -0.677843 0
M  V30 17092 H 1641.21 -1.43507 -0.32313 0
M  V30 17093 H 1643.17 -2.7331 -3.1521 0
M  V30 17094 H 1641.8 -1.65776 -2.76981 0
M  V30 17095 H 1640.85 -3.57666 -1.29535 0
M  V30 17096 H 1642.16 -4.61065 -1.90317 0
M  V30 17097 H 1641.32 -4.33663 -4.24289 0
M  V30 17098 H 1640.06 -3.20599 -3.67515 0
M  V30 17099 H 1639.06 -5.01686 -2.24926 0
M  V30 17100 H 1640.29 -6.16577 -2.84622 0
M  V30 17101 H 1638.23 -4.71646 -4.55945 0
M  V30 17102 H 1638.15 -6.37506 -4.06352 0
M  V30 17103 H 1639.42 -5.86303 -5.13681 0
M  V30 17104 N 1643.65 0.339955 -1.5389 0
M  V30 17105 C 1644.61 1.40058 -1.81429 0
M  V30 17106 C 1645.61 1.45458 -0.685463 0
M  V30 17107 O 1646.8 1.45771 -0.953754 0
M  V30 17108 C 1643.93 2.78952 -1.95955 0
M  V30 17109 H 1645.13 1.16902 -2.76178 0
M  V30 17110 H 1642.68 0.574543 -1.45357 0
M  V30 17111 H 1643.41 3.07387 -1.03361 0
M  V30 17112 H 1643.2 2.76429 -2.78082 0
M  V30 17113 H 1644.69 3.55713 -2.18765 0
M  V30 17114 N 1645.13 1.45684 0.601159 0
M  V30 17115 C 1646.37 1.51581 1.37123 0
M  V30 17116 C 1646.73 0.156185 1.91364 0
M  V30 17117 O 1647.93 0.0898599 2.6865 0
M  V30 17118 C 1646.2 2.56989 2.48378 0
M  V30 17119 S 1647.76 2.82158 3.36054 0
M  V30 17120 H 1644.58 0.53577 0.46741 0
M  V30 17121 H 1647.18 1.82805 0.693012 0
M  V30 17122 H 1645.88 3.54436 2.0689 0
M  V30 17123 H 1645.42 2.27437 3.20992 0
M  V30 17124 H 1647.43 2.16025 4.46708 0
M  V30 17125 N 1646.6 -0.84422 1.33082 0
M  V30 17126 C 1647.88 -1.58339 1.1484 0
M  V30 17127 C 1648.26 -2.09136 -0.287273 0
M  V30 17128 O 1647.61 -1.8891 -1.2855 0
M  V30 17129 C 1647.82 -2.72141 2.18496 0
M  V30 17130 C 1649.17 -3.41457 2.52373 0
M  V30 17131 O 1650.19 -2.82377 2.17122 0
M  V30 17132 O 1649.05 -4.48096 3.12845 0
M  V30 17133 H 1646.14 -0.697813 0.443831 0
M  V30 17134 H 1648.69 -0.88744 1.44646 0
M  V30 17135 H 1647.46 -2.32206 3.14954 0
M  V30 17136 H 1647.08 -3.49404 1.89744 0
M  V30 17137 N 1648.08 -1.16463 -1.0618 0
M  V30 17138 C 1649.01 -0.895399 -2.1565 0
M  V30 17139 C 1649.99 0.158729 -1.69358 0
M  V30 17140 O 1651.18 0.010586 -1.94197 0
M  V30 17141 C 1648.31 -0.396959 -3.45024 0
M  V30 17142 C 1647.26 -1.38913 -4.0483 0
M  V30 17143 C 1646.59 -0.749043 -5.29427 0
M  V30 17144 C 1647.89 -2.7591 -4.43476 0
M  V30 17145 H 1649.58 -1.81085 -2.38429 0
M  V30 17146 H 1647.13 -0.872098 -1.14588 0
M  V30 17147 H 1649.08 -0.196086 -4.20944 0
M  V30 17148 H 1647.8 0.554002 -3.21867 0
M  V30 17149 H 1646.46 -1.57657 -3.30968 0
M  V30 17150 H 1646.11 0.208439 -5.02568 0
M  V30 17151 H 1645.81 -1.41128 -5.704 0
M  V30 17152 H 1647.34 -0.558217 -6.08043 0
M  V30 17153 H 1648.75 -2.60942 -5.10473 0
M  V30 17154 H 1647.15 -3.38618 -4.95437 0
M  V30 17155 H 1648.22 -3.31076 -3.54284 0
M  V30 17156 N 1649.56 1.24734 -0.963288 0
M  V30 17157 C 1650.49 2.27892 -0.508667 0
M  V30 17158 C 1651.47 1.64055 0.449438 0
M  V30 17159 O 1652.66 1.91083 0.346519 0
M  V30 17160 C 1649.79 3.46688 0.206157 0
M  V30 17161 C 1648.74 4.22762 -0.667534 0
M  V30 17162 C 1648.07 5.34402 0.178529 0
M  V30 17163 C 1649.37 4.84535 -1.94995 0
M  V30 17164 H 1651.06 2.66171 -1.37088 0
M  V30 17165 H 1648.61 1.27952 -0.660622 0
M  V30 17166 H 1650.56 4.17985 0.535391 0
M  V30 17167 H 1649.28 3.07422 1.10269 0
M  V30 17168 H 1647.94 3.53259 -0.979976 0
M  V30 17169 H 1647.59 4.91377 1.07508 0
M  V30 17170 H 1647.29 5.86218 -0.402808 0
M  V30 17171 H 1648.81 6.08529 0.502533 0
M  V30 17172 H 1650.23 5.4793 -1.68658 0
M  V30 17173 H 1648.62 5.46564 -2.47765 0
M  V30 17174 H 1649.69 4.06236 -2.64765 0
M  V30 17175 N 1651.04 0.732878 1.39523 0
M  V30 17176 C 1651.95 0.0930216 2.34416 0
M  V30 17177 C 1652.96 -0.724309 1.58208 0
M  V30 17178 O 1654.14 -0.653267 1.90511 0
M  V30 17179 C 1651.2 -0.805036 3.37224 0
M  V30 17180 C 1650.27 0.0243049 4.29293 0
M  V30 17181 C 1649.5 -0.830984 5.27191 0
M  V30 17182 O 1649.72 -2.06977 5.31523 0
M  V30 17183 O 1648.66 -0.260772 6.01335 0
M  V30 17184 H 1652.48 0.876179 2.90786 0
M  V30 17185 H 1650.07 0.493525 1.41013 0
M  V30 17186 H 1651.95 -1.31894 4.00228 0
M  V30 17187 H 1650.62 -1.56704 2.83241 0
M  V30 17188 H 1649.53 0.583677 3.69519 0
M  V30 17189 H 1650.86 0.748485 4.86476 0
M  V30 17190 N 1652.52 -1.50101 0.480349 0
M  V30 17191 C 1653.76 -2.01567 -0.073165 0
M  V30 17192 C 1654.08 -1.36657 -1.39944 0
M  V30 17193 O 1655.28 -1.79332 -2.03844 0
M  V30 17194 C 1653.74 -3.59445 -0.180889 0
M  V30 17195 C 1653.35 -4.33318 1.1375 0
M  V30 17196 C 1655.09 -4.18923 -0.685868 0
M  V30 17197 C 1653 -5.83003 0.99307 0
M  V30 17198 H 1651.93 -0.753358 -0.0311179 0
M  V30 17199 H 1654.58 -1.72829 0.616648 0
M  V30 17200 H 1652.96 -3.84811 -0.934693 0
M  V30 17201 H 1654.14 -4.1967 1.90299 0
M  V30 17202 H 1652.45 -3.85492 1.57431 0
M  V30 17203 H 1655.05 -5.28512 -0.811109 0
M  V30 17204 H 1655.39 -3.80916 -1.67955 0
M  V30 17205 H 1655.92 -3.97799 0.0108117 0
M  V30 17206 H 1652.66 -6.25499 1.9604 0
M  V30 17207 H 1652.18 -5.992 0.268128 0
M  V30 17208 H 1653.86 -6.4359 0.663417 0
M  V30 17209 N 1653.99 -0.213323 -1.5615 0
M  V30 17210 C 1655.4 0.29602 -1.84338 0
M  V30 17211 C 1655.76 1.60073 -1.13451 0
M  V30 17212 O 1654.88 2.12645 -0.4014 0
M  V30 17213 C 1655.48 0.54387 -3.34406 0
M  V30 17214 C 1654.03 0.997539 -3.62941 0
M  V30 17215 C 1653.18 0.0560823 -2.77243 0
M  V30 17216 H 1656.13 -0.436707 -1.52573 0
M  V30 17217 H 1656.15 1.39093 -3.54166 0
M  V30 17218 H 1655.67 -0.405885 -3.85972 0
M  V30 17219 H 1653.77 1.96094 -3.16825 0
M  V30 17220 H 1653.88 0.877642 -4.70993 0
M  V30 17221 H 1652.24 0.561362 -2.48437 0
M  V30 17222 H 1653.03 -0.888442 -3.31605 0
M  V30 17223 N 1655.47 1.57485 0.0601405 0
M  V30 17224 C 1656.42 2.00939 1.07739 0
M  V30 17225 C 1657.41 0.893348 1.33821 0
M  V30 17226 O 1658.6 1.15727 1.33927 0
M  V30 17227 C 1655.73 2.46657 2.38778 0
M  V30 17228 C 1654.81 3.65019 2.1592 0
M  V30 17229 N 1655.2 4.78807 1.63025 0
M  V30 17230 C 1653.5 3.71794 2.46344 0
M  V30 17231 C 1654.2 5.60599 1.55253 0
M  V30 17232 N 1653.18 5.04788 2.01718 0
M  V30 17233 H 1656.98 2.86349 0.661923 0
M  V30 17234 H 1654.5 1.6019 0.267017 0
M  V30 17235 H 1656.49 2.76032 3.12429 0
M  V30 17236 H 1655.15 1.62639 2.81031 0
M  V30 17237 H 1656.16 5.00868 1.31725 0
M  V30 17238 H 1652.84 2.98513 2.91884 0
M  V30 17239 H 1654.23 6.61966 1.1511 0
M  V30 17240 N 1656.95 -0.331789 1.54068 0
M  V30 17241 C 1658.2 -1.07228 1.72134 0
M  V30 17242 C 1658.53 -1.87936 0.489265 0
M  V30 17243 O 1657.8 -1.87592 -0.513761 0
M  V30 17244 C 1658.09 -2.00379 2.99199 0
M  V30 17245 C 1657.94 -1.23056 4.3264 0
M  V30 17246 C 1659.26 -3.00026 3.21982 0
M  V30 17247 H 1656.38 -0.388428 0.626333 0
M  V30 17248 H 1659.02 -0.34971 1.86754 0
M  V30 17249 H 1657.17 -2.61993 2.86865 0
M  V30 17250 H 1658.84 -0.639661 4.56844 0
M  V30 17251 H 1657.09 -0.532717 4.30517 0
M  V30 17252 H 1657.76 -1.91411 5.17751 0
M  V30 17253 H 1660.23 -2.48531 3.33724 0
M  V30 17254 H 1659.11 -3.62395 4.12263 0
M  V30 17255 H 1659.37 -3.72041 2.38826 0
M  V30 17256 N 1658.43 -1.46001 -0.593424 0
M  V30 17257 C 1659.36 -1.50255 -1.71752 0
M  V30 17258 C 1660.34 -0.357601 -1.58619 0
M  V30 17259 O 1661.52 -0.560187 -1.79984 0
M  V30 17260 C 1658.65 -1.37099 -3.09712 0
M  V30 17261 C 1657.7 -2.5564 -3.41395 0
M  V30 17262 S 1658.53 -4.1805 -3.34656 0
M  V30 17263 C 1659.69 -4.07384 -4.75173 0
M  V30 17264 H 1659.92 -2.45363 -1.67882 0
M  V30 17265 H 1657.45 -1.33756 -0.771275 0
M  V30 17266 H 1659.41 -1.30197 -3.89306 0
M  V30 17267 H 1658.07 -0.434384 -3.11082 0
M  V30 17268 H 1657.26 -2.42399 -4.41881 0
M  V30 17269 H 1656.87 -2.59478 -2.69346 0
M  V30 17270 H 1659.16 -3.73403 -5.65311 0
M  V30 17271 H 1660.1 -5.07831 -4.9347 0
M  V30 17272 H 1660.51 -3.38808 -4.51519 0
M  V30 17273 N 1659.91 0.83715 -1.33527 0
M  V30 17274 C 1661.32 1.12809 -1.12899 0
M  V30 17275 C 1661.52 2.01345 0.0789761 0
M  V30 17276 O 1660.58 2.40831 0.758732 0
M  V30 17277 C 1661.89 1.78852 -2.41728 0
M  V30 17278 C 1663.44 1.91411 -2.47651 0
M  V30 17279 C 1663.91 2.6087 -3.76445 0
M  V30 17280 N 1665.41 2.68381 -3.77526 0
M  V30 17281 C 1666.14 3.22819 -4.73894 0
M  V30 17282 N 1665.64 3.77931 -5.80638 0
M  V30 17283 N 1667.43 3.21087 -4.61367 0
M  V30 17284 H 1659.58 0.247942 -2.10948 0
M  V30 17285 H 1661.84 0.172518 -0.93217 0
M  V30 17286 H 1661.55 1.21258 -3.30135 0
M  V30 17287 H 1661.42 2.78856 -2.54006 0
M  V30 17288 H 1663.81 2.48159 -1.59691 0
M  V30 17289 H 1663.89 0.903512 -2.39312 0
M  V30 17290 H 1663.54 2.0478 -4.64787 0
M  V30 17291 H 1663.47 3.62404 -3.82061 0
M  V30 17292 H 1665.96 2.29301 -3.00382 0
M  V30 17293 H 1666.27 4.17678 -6.50204 0
M  V30 17294 H 1664.61 3.76214 -5.8437 0
M  V30 17295 H 1667.81 2.7729 -3.77131 0
M  V30 17296 H 1667.98 3.6321 -5.3664 0
M  V30 17297 N 1661.38 1.17024 1.05561 0
M  V30 17298 C 1662.32 0.841314 2.13201 0
M  V30 17299 C 1663.33 -0.154667 1.62064 0
M  V30 17300 O 1664.52 0.0711173 1.78358 0
M  V30 17301 C 1661.62 0.233156 3.38097 0
M  V30 17302 C 1660.79 1.27108 4.18524 0
M  V30 17303 C 1659.85 0.681364 5.2177 0
M  V30 17304 O 1658.88 1.35219 5.52906 0
M  V30 17305 N 1660.08 -0.528381 5.7809 0
M  V30 17306 H 1662.84 1.76773 2.42015 0
M  V30 17307 H 1660.4 1.06858 1.21626 0
M  V30 17308 H 1662.4 -0.174565 4.04323 0
M  V30 17309 H 1660.97 -0.596965 3.06847 0
M  V30 17310 H 1660.19 1.85469 3.47843 0
M  V30 17311 H 1661.47 1.97129 4.6906 0
M  V30 17312 H 1660.87 -1.09141 5.55072 0
M  V30 17313 H 1659.43 -0.878214 6.45857 0
M  V30 17314 N 1662.86 -1.24221 0.969889 0
M  V30 17315 C 1664.11 -1.91973 0.631725 0
M  V30 17316 C 1664.43 -1.76169 -0.836032 0
M  V30 17317 O 1663.7 -1.13459 -1.597 0
M  V30 17318 H 1662.28 -0.710497 0.230658 0
M  V30 17319 H 1664.94 -1.51069 1.23143 0
M  V30 17320 H 1664.04 -2.99606 0.874223 0
M  V30 17321 N 1664.34 -0.740267 -1.39132 0
M  V30 17322 C 1665.62 -0.216602 -1.94397 0
M  V30 17323 C 1666 1.28264 -1.67665 0
M  V30 17324 O 1665.35 2.05075 -1.00778 0
M  V30 17325 C 1665.56 -0.555899 -3.44544 0
M  V30 17326 C 1666.9 -0.50815 -4.21548 0
M  V30 17327 O 1667.93 -0.493401 -3.52766 0
M  V30 17328 O 1666.79 -0.507321 -5.4414 0
M  V30 17329 H 1663.88 -0.0413037 -0.825968 0
M  V30 17330 H 1666.43 -0.819483 -1.48602 0
M  V30 17331 H 1665.2 -1.59187 -3.57457 0
M  V30 17332 H 1664.82 0.0756793 -3.97528 0
M  V30 17333 N 1665.82 1.49844 -0.488302 0
M  V30 17334 C 1667.07 2.02009 0.0605782 0
M  V30 17335 C 1667.39 1.37114 1.38653 0
M  V30 17336 O 1666.66 0.522182 1.88812 0
M  V30 17337 H 1665.24 0.746569 0.0253773 0
M  V30 17338 H 1667.9 1.84 -0.64265 0
M  V30 17339 H 1667 3.11461 0.199542 0
M  V30 17340 N 1667.3 0.221601 1.56034 0
M  V30 17341 C 1668.54 -0.403939 1.99349 0
M  V30 17342 C 1668.9 -1.57383 1.10672 0
M  V30 17343 O 1668.19 -1.90958 0.156695 0
M  V30 17344 C 1668.38 -0.887416 3.46208 0
M  V30 17345 C 1668.21 0.234087 4.4909 0
M  V30 17346 C 1666.98 0.700495 5.00421 0
M  V30 17347 C 1669.18 1.05237 5.03418 0
M  V30 17348 N 1667.16 1.79705 5.87009 0
M  V30 17349 C 1668.53 1.99779 5.86931 0
M  V30 17350 C 1670.59 1.0918 4.85782 0
M  V30 17351 C 1669.29 2.97943 6.54693 0
M  V30 17352 C 1671.32 2.06162 5.54302 0
M  V30 17353 C 1670.68 2.99444 6.37584 0
M  V30 17354 H 1666.78 -0.114481 0.773575 0
M  V30 17355 H 1669.36 0.333384 1.91825 0
M  V30 17356 H 1667.53 -1.5941 3.54179 0
M  V30 17357 H 1669.27 -1.48578 3.7644 0
M  V30 17358 H 1666.02 0.289083 4.72717 0
M  V30 17359 H 1666.45 2.34733 6.35003 0
M  V30 17360 H 1671.09 0.384543 4.21048 0
M  V30 17361 H 1668.81 3.69631 7.18609 0
M  V30 17362 H 1672.39 2.09887 5.42622 0
M  V30 17363 H 1671.27 3.73263 6.8967 0
M  V30 17364 N 1668.77 -1.57515 -0.0517878 0
M  V30 17365 C 1669.71 -2.00388 -1.09178 0
M  V30 17366 C 1670.69 -0.88418 -1.36459 0
M  V30 17367 O 1671.87 -1.14816 -1.49498 0
M  V30 17368 C 1669 -2.35764 -2.43173 0
M  V30 17369 C 1668.04 -3.57947 -2.31898 0
M  V30 17370 S 1668.88 -5.08 -1.69399 0
M  V30 17371 C 1670.03 -5.46597 -3.04931 0
M  V30 17372 H 1670.26 -2.88287 -0.726501 0
M  V30 17373 H 1667.8 -1.52178 -0.261014 0
M  V30 17374 H 1669.76 -2.56818 -3.20241 0
M  V30 17375 H 1668.42 -1.48358 -2.76855 0
M  V30 17376 H 1667.61 -3.80281 -3.30761 0
M  V30 17377 H 1667.21 -3.36626 -1.62969 0
M  V30 17378 H 1669.5 -5.45891 -4.01259 0
M  V30 17379 H 1670.45 -6.47173 -2.87355 0
M  V30 17380 H 1670.85 -4.74072 -3.06457 0
M  V30 17381 N 1670.25 0.323614 -1.54242 0
M  V30 17382 C 1671.2 1.39826 -1.83623 0
M  V30 17383 C 1672.17 1.51393 -0.683331 0
M  V30 17384 O 1673.36 1.66614 -0.929754 0
M  V30 17385 C 1670.5 2.76187 -2.06918 0
M  V30 17386 C 1669.61 2.73251 -3.34601 0
M  V30 17387 C 1668.74 4.01458 -3.47857 0
M  V30 17388 C 1667.78 3.9283 -4.69415 0
M  V30 17389 N 1666.92 5.12767 -4.79598 0
M  V30 17390 H 1671.76 1.1407 -2.75303 0
M  V30 17391 H 1669.3 0.552188 -1.36343 0
M  V30 17392 H 1671.25 3.55458 -2.18416 0
M  V30 17393 H 1669.88 3.00251 -1.18529 0
M  V30 17394 H 1668.94 1.85971 -3.31842 0
M  V30 17395 H 1670.25 2.62759 -4.2398 0
M  V30 17396 H 1669.4 4.89161 -3.58897 0
M  V30 17397 H 1668.14 4.14757 -2.5657 0
M  V30 17398 H 1667.15 3.03512 -4.58433 0
M  V30 17399 H 1668.37 3.81097 -5.62087 0
M  V30 17400 H 1666.32 5.26572 -3.91227 0
M  V30 17401 H 1666.23 5.0461 -5.62943 0
M  V30 17402 H 1667.5 6.02184 -4.94969 0
M  V30 17403 N 1671.73 1.46313 0.585673 0
M  V30 17404 C 1672.68 1.56653 1.69495 0
M  V30 17405 C 1673.65 0.411007 1.60935 0
M  V30 17406 O 1674.83 0.627369 1.80191 0
M  V30 17407 C 1671.97 1.55996 3.0783 0
M  V30 17408 C 1671.09 2.82261 3.27036 0
M  V30 17409 C 1670.22 2.73129 4.55603 0
M  V30 17410 C 1669.26 3.94346 4.68143 0
M  V30 17411 N 1668.4 3.83617 5.88032 0
M  V30 17412 H 1673.24 2.51407 1.59995 0
M  V30 17413 H 1670.77 1.24729 0.779821 0
M  V30 17414 H 1672.73 1.53602 3.87895 0
M  V30 17415 H 1671.36 0.647766 3.16234 0
M  V30 17416 H 1670.41 2.94648 2.40596 0
M  V30 17417 H 1671.73 3.72107 3.32171 0
M  V30 17418 H 1670.88 2.68823 5.43893 0
M  V30 17419 H 1669.62 1.80917 4.52902 0
M  V30 17420 H 1668.62 3.98987 3.78272 0
M  V30 17421 H 1669.85 4.8765 4.72625 0
M  V30 17422 H 1667.8 2.9419 5.86334 0
M  V30 17423 H 1667.71 4.67117 5.94422 0
M  V30 17424 H 1668.98 3.83281 6.7876 0
M  V30 17425 N 1673.21 -0.830057 1.33969 0
M  V30 17426 C 1674.46 -1.58586 1.25924 0
M  V30 17427 C 1674.78 -1.93732 -0.172685 0
M  V30 17428 O 1674.04 -1.59628 -1.13214 0
M  V30 17429 C 1674.34 -2.90026 2.08853 0
M  V30 17430 C 1674 -2.74204 3.57943 0
M  V30 17431 C 1672.67 -2.69596 3.98587 0
M  V30 17432 C 1675.02 -2.58384 4.52644 0
M  V30 17433 C 1672.35 -2.4708 5.32135 0
M  V30 17434 C 1674.7 -2.37401 5.86365 0
M  V30 17435 C 1673.36 -2.31201 6.26181 0
M  V30 17436 H 1672.63 -0.580306 0.460789 0
M  V30 17437 H 1675.28 -0.960978 1.65643 0
M  V30 17438 H 1673.58 -3.56767 1.6194 0
M  V30 17439 H 1675.28 -3.47576 1.99979 0
M  V30 17440 H 1671.87 -2.78627 3.25676 0
M  V30 17441 H 1676.06 -2.60972 4.22146 0
M  V30 17442 H 1671.31 -2.40733 5.62012 0
M  V30 17443 H 1675.49 -2.24146 6.59342 0
M  V30 17444 H 1673.11 -2.13515 7.29599 0
M  V30 17445 N 1674.69 -1.17582 -1.04939 0
M  V30 17446 C 1675.92 -0.990398 -1.81656 0
M  V30 17447 C 1676.33 0.461324 -1.83077 0
M  V30 17448 O 1675.69 1.32037 -1.25986 0
M  V30 17449 C 1675.74 -1.52719 -3.27657 0
M  V30 17450 O 1675.46 -2.92206 -3.26415 0
M  V30 17451 C 1676.96 -1.38671 -4.21053 0
M  V30 17452 H 1674.18 -0.35024 -0.57234 0
M  V30 17453 H 1676.72 -1.5593 -1.32311 0
M  V30 17454 H 1674.88 -1.00026 -3.74264 0
M  V30 17455 H 1675.29 -3.17068 -4.17814 0
M  V30 17456 H 1676.77 -1.8104 -5.21468 0
M  V30 17457 H 1677.24 -0.334151 -4.37927 0
M  V30 17458 H 1677.85 -1.90393 -3.80303 0
M  V30 17459 N 1676.17 1.23705 -0.976463 0
M  V30 17460 C 1677.08 2.28728 -0.521605 0
M  V30 17461 C 1678.09 1.68813 0.421691 0
M  V30 17462 O 1679.27 1.99263 0.292579 0
M  V30 17463 C 1676.33 3.4627 0.172545 0
M  V30 17464 C 1675.39 4.21557 -0.811664 0
M  V30 17465 C 1674.63 5.33488 -0.150546 0
M  V30 17466 O 1674.85 5.60478 1.05926 0
M  V30 17467 O 1673.78 5.95909 -0.847132 0
M  V30 17468 H 1677.61 2.6977 -1.39491 0
M  V30 17469 H 1675.19 1.29562 -0.743909 0
M  V30 17470 H 1677.08 4.17634 0.562103 0
M  V30 17471 H 1675.75 3.07187 1.02067 0
M  V30 17472 H 1674.66 3.52533 -1.25185 0
M  V30 17473 H 1675.99 4.6448 -1.62848 0
M  V30 17474 N 1677.64 0.747635 1.38738 0
M  V30 17475 C 1678.61 0.124321 2.28863 0
M  V30 17476 C 1679.61 -0.653816 1.46908 0
M  V30 17477 O 1680.8 -0.480963 1.67429 0
M  V30 17478 C 1677.93 -0.832601 3.30576 0
M  V30 17479 H 1679.12 0.918492 2.85489 0
M  V30 17480 H 1676.67 0.514262 1.47598 0
M  V30 17481 H 1677.41 -1.65267 2.79029 0
M  V30 17482 H 1677.19 -0.277109 3.9112 0
M  V30 17483 H 1678.68 -1.2649 3.97982 0
M  V30 17484 N 1679.12 -1.49583 0.496242 0
M  V30 17485 C 1680.36 -2.04343 -0.0483884 0
M  V30 17486 C 1680.73 -1.36809 -1.34712 0
M  V30 17487 O 1681.93 -1.82263 -1.9757 0
M  V30 17488 C 1680.2 -3.56826 -0.20245 0
M  V30 17489 S 1681.76 -4.33148 -0.702015 0
M  V30 17490 H 1678.57 -0.710989 -0.00403532 0
M  V30 17491 H 1681.18 -1.83693 0.669124 0
M  V30 17492 H 1679.88 -4.03523 0.748156 0
M  V30 17493 H 1679.41 -3.81873 -0.945343 0
M  V30 17494 H 1681.43 -4.55337 -1.97187 0
M  V30 17495 N 1680.6 -0.229873 -1.55915 0
M  V30 17496 C 1681.55 0.693198 -2.2203 0
M  V30 17497 C 1682.54 1.1933 -1.20236 0
M  V30 17498 O 1683.75 1.15217 -1.38294 0
M  V30 17499 H 1680.12 0.241986 -0.712002 0
M  V30 17500 H 1682.09 0.112229 -2.98189 0
M  V30 17501 C 1680.84 1.88688 -2.92048 0
M  V30 17502 H 1680.17 1.51119 -3.70139 0
M  V30 17503 H 1681.61 2.51036 -3.41697 0
M  V30 17504 C 1680.06 2.74747 -1.94976 0
M  V30 17505 O 1680.59 3.73759 -1.47198 0
M  V30 17506 N 1678.8 2.40956 -1.62445 0
M  V30 17507 H 1678.35 1.60494 -2.01493 0
M  V30 17508 H 1678.31 2.98816 -0.977581 0
M  V30 17509 N 1682.08 1.5754 0.0434337 0
M  V30 17510 C 1683.04 2.046 1.03303 0
M  V30 17511 C 1684.04 0.947648 1.29909 0
M  V30 17512 O 1685.23 1.21171 1.25153 0
M  V30 17513 C 1682.36 2.45077 2.36961 0
M  V30 17514 H 1683.56 2.93276 0.626822 0
M  V30 17515 H 1681.11 1.53588 0.289909 0
M  V30 17516 H 1681.84 1.59513 2.82358 0
M  V30 17517 H 1681.63 3.25252 2.18983 0
M  V30 17518 H 1683.12 2.81963 3.08037 0
M  V30 17519 N 1683.56 -0.31543 1.54411 0
M  V30 17520 C 1684.52 -1.37154 1.83634 0
M  V30 17521 C 1685.52 -1.44349 0.708518 0
M  V30 17522 O 1686.71 -1.44235 0.976824 0
M  V30 17523 C 1683.84 -2.758 2.00368 0
M  V30 17524 H 1685.03 -1.12493 2.78002 0
M  V30 17525 H 1682.59 -0.551346 1.46253 0
M  V30 17526 H 1683.32 -3.05704 1.08238 0
M  V30 17527 H 1683.11 -2.7197 2.82445 0
M  V30 17528 H 1684.6 -3.52187 2.24397 0
M  V30 17529 N 1685.03 -1.46622 -0.577906 0
M  V30 17530 C 1685.98 -1.57549 -1.68662 0
M  V30 17531 C 1686.95 -0.419536 -1.60714 0
M  V30 17532 O 1688.14 -0.636916 -1.79856 0
M  V30 17533 C 1685.28 -1.57627 -3.06998 0
M  V30 17534 C 1684.39 -2.83991 -3.25535 0
M  V30 17535 C 1683.52 -2.75541 -4.54148 0
M  V30 17536 C 1682.56 -3.96823 -4.66045 0
M  V30 17537 N 1681.7 -3.86731 -5.8599 0
M  V30 17538 H 1686.54 -2.52252 -1.58659 0
M  V30 17539 H 1684.08 -1.2514 -0.773195 0
M  V30 17540 H 1686.04 -1.55657 -3.87075 0
M  V30 17541 H 1684.67 -0.664527 -3.15886 0
M  V30 17542 H 1683.72 -2.9592 -2.3903 0
M  V30 17543 H 1685.03 -3.73864 -3.30193 0
M  V30 17544 H 1684.18 -2.71703 -5.42459 0
M  V30 17545 H 1682.92 -1.83317 -4.51936 0
M  V30 17546 H 1681.93 -4.00987 -3.76151 0
M  V30 17547 H 1683.15 -4.90149 -4.70033 0
M  V30 17548 H 1681.1 -2.97296 -5.84766 0
M  V30 17549 H 1681.02 -4.70263 -5.91937 0
M  V30 17550 H 1682.28 -3.86876 -6.76718 0
M  V30 17551 N 1686.51 0.822941 -1.34408 0
M  V30 17552 C 1687.76 1.57604 -1.26513 0
M  V30 17553 C 1688.08 1.94303 0.164769 0
M  V30 17554 O 1687.35 1.62278 1.09738 0
M  V30 17555 H 1685.93 0.584399 -0.465282 0
M  V30 17556 H 1688.59 0.982582 -1.68319 0
M  V30 17557 H 1687.69 2.49886 -1.86986 0
M  V30 17558 N 1687.99 1.18137 1.04314 0
M  V30 17559 C 1688.92 0.929593 2.14198 0
M  V30 17560 C 1689.9 -0.131766 1.69589 0
M  V30 17561 O 1691.09 0.0203104 1.94189 0
M  V30 17562 C 1688.22 0.451799 3.44349 0
M  V30 17563 C 1687.17 1.45336 4.02569 0
M  V30 17564 C 1686.5 0.833176 5.28169 0
M  V30 17565 C 1687.8 2.8293 4.39031 0
M  V30 17566 H 1689.49 1.84856 2.35518 0
M  V30 17567 H 1687.04 0.890217 1.13186 0
M  V30 17568 H 1688.99 0.26303 4.20578 0
M  V30 17569 H 1687.71 -0.502725 3.22708 0
M  V30 17570 H 1686.37 1.62902 3.28418 0
M  V30 17571 H 1686.02 -0.128459 5.02836 0
M  V30 17572 H 1685.72 1.50185 5.68083 0
M  V30 17573 H 1687.24 0.654881 6.07078 0
M  V30 17574 H 1688.66 2.6903 5.06257 0
M  V30 17575 H 1687.06 3.46458 4.89987 0
M  V30 17576 H 1688.13 3.3667 3.48972 0
M  V30 17577 N 1689.47 -1.23186 0.98301 0
M  V30 17578 C 1690.88 -1.43814 0.69207 0
M  V30 17579 C 1691.08 -1.87387 -0.740823 0
M  V30 17580 O 1690.14 -2.02154 -1.51295 0
M  V30 17581 C 1691.45 -2.48769 1.68922 0
M  V30 17582 C 1693 -2.62579 1.70356 0
M  V30 17583 C 1693.48 -3.70746 2.68908 0
M  V30 17584 N 1694.97 -3.78192 2.67442 0
M  V30 17585 C 1695.7 -4.61453 3.40366 0
M  V30 17586 N 1695.2 -5.48784 4.22857 0
M  V30 17587 N 1696.99 -4.55673 3.29118 0
M  V30 17588 H 1689.14 -0.932046 1.90858 0
M  V30 17589 H 1691.41 -0.471274 0.82256 0
M  V30 17590 H 1691.11 -2.23675 2.71408 0
M  V30 17591 H 1690.99 -3.47201 1.47415 0
M  V30 17592 H 1693.37 -2.87022 0.685728 0
M  V30 17593 H 1693.45 -1.64454 1.9593 0
M  V30 17594 H 1693.1 -3.47051 3.70834 0
M  V30 17595 H 1693.03 -4.68418 2.40607 0
M  V30 17596 H 1695.52 -3.15785 2.07577 0
M  V30 17597 H 1695.83 -6.09312 4.75351 0
M  V30 17598 H 1694.18 -5.48398 4.26948 0
M  V30 17599 H 1697.37 -3.86468 2.64122 0
M  V30 17600 H 1697.54 -5.20332 3.8621 0
M  V30 17601 N 1690.95 -0.754982 -1.38339 0
M  V30 17602 C 1692.19 -0.321184 -2.00848 0
M  V30 17603 C 1692.55 1.08546 -1.58857 0
M  V30 17604 O 1691.84 1.7332 -0.816737 0
M  V30 17605 C 1692.03 -0.383719 -3.55334 0
M  V30 17606 C 1691.86 -1.7949 -4.12327 0
M  V30 17607 C 1690.63 -2.41176 -4.4403 0
M  V30 17608 C 1692.83 -2.75178 -4.3449 0
M  V30 17609 N 1690.81 -3.74241 -4.86638 0
M  V30 17610 C 1692.18 -3.93011 -4.79523 0
M  V30 17611 C 1694.24 -2.72683 -4.16592 0
M  V30 17612 C 1692.94 -5.0871 -5.08534 0
M  V30 17613 C 1694.97 -3.87541 -4.46728 0
M  V30 17614 C 1694.33 -5.04112 -4.91986 0
M  V30 17615 H 1690.43 -0.164217 -0.764563 0
M  V30 17616 H 1693.01 -0.985233 -1.67932 0
M  V30 17617 H 1691.18 0.250068 -3.87594 0
M  V30 17618 H 1692.92 0.0705302 -4.04639 0
M  V30 17619 H 1689.67 -1.9293 -4.32522 0
M  V30 17620 H 1690.1 -4.4261 -5.12275 0
M  V30 17621 H 1694.74 -1.8374 -3.80788 0
M  V30 17622 H 1692.46 -5.98266 -5.43234 0
M  V30 17623 H 1696.04 -3.86931 -4.34483 0
M  V30 17624 H 1694.92 -5.91514 -5.1486 0
M  V30 17625 N 1692.42 1.49318 -0.504168 0
M  V30 17626 C 1693.67 2.02762 0.0392846 0
M  V30 17627 C 1694 1.38282 1.36352 0
M  V30 17628 O 1693.28 0.519587 1.87431 0
M  V30 17629 C 1693.56 3.59606 0.188507 0
M  V30 17630 C 1693.41 4.3461 -1.15908 0
M  V30 17631 C 1694.73 4.30213 0.927641 0
M  V30 17632 H 1691.85 0.736889 0.0128028 0
M  V30 17633 H 1694.49 1.78309 -0.656193 0
M  V30 17634 H 1692.64 3.80572 0.780861 0
M  V30 17635 H 1694.32 4.25132 -1.79055 0
M  V30 17636 H 1692.56 3.97043 -1.74756 0
M  V30 17637 H 1693.23 5.4272 -1.00794 0
M  V30 17638 H 1695.71 4.13922 0.425228 0
M  V30 17639 H 1694.58 5.39697 1.0009 0
M  V30 17640 H 1694.84 3.95678 1.97209 0
M  V30 17641 N 1693.9 0.238138 1.5579 0
M  V30 17642 C 1695.13 -0.396409 2.03576 0
M  V30 17643 C 1695.55 -1.5138 1.11649 0
M  V30 17644 O 1694.91 -1.80979 0.107774 0
M  V30 17645 C 1694.96 -0.889749 3.49451 0
M  V30 17646 O 1694.06 -1.99997 3.60659 0
M  V30 17647 H 1693.4 -0.0876017 0.658196 0
M  V30 17648 H 1695.93 0.361632 2.01379 0
M  V30 17649 H 1695.94 -1.19526 3.901 0
M  V30 17650 H 1694.62 -0.0720136 4.15838 0
M  V30 17651 H 1693.2 -1.69983 3.31904 0
M  V30 17652 N 1695.38 -1.57561 -0.0350783 0
M  V30 17653 C 1696.33 -2.07246 -1.05602 0
M  V30 17654 C 1697.32 -0.985013 -1.37818 0
M  V30 17655 O 1698.53 -1.16993 -1.36794 0
M  V30 17656 H 1694.9 -0.661286 -0.358057 0
M  V30 17657 H 1696.87 -2.92075 -0.611124 0
M  V30 17658 C 1695.62 -2.56235 -2.3503 0
M  V30 17659 H 1694.95 -3.39525 -2.111 0
M  V30 17660 H 1696.39 -2.94716 -3.04826 0
M  V30 17661 C 1694.85 -1.46096 -3.03575 0
M  V30 17662 O 1695.38 -0.823772 -3.93163 0
M  V30 17663 N 1693.58 -1.19698 -2.64803 0
M  V30 17664 H 1693.13 -1.71697 -1.92036 0
M  V30 17665 H 1693.09 -0.462174 -3.10984 0
M  V30 17666 N 1696.86 0.307236 -1.54576 0
M  V30 17667 C 1697.81 1.3787 -1.85096 0
M  V30 17668 C 1698.78 1.5066 -0.69935 0
M  V30 17669 O 1699.96 1.65618 -0.947373 0
M  V30 17670 C 1697.1 2.73976 -2.09836 0
M  V30 17671 C 1696.21 2.69687 -3.3748 0
M  V30 17672 C 1695.35 3.97746 -3.52096 0
M  V30 17673 C 1694.39 3.87829 -4.73556 0
M  V30 17674 N 1693.52 5.07651 -4.8501 0
M  V30 17675 H 1698.36 1.11144 -2.76498 0
M  V30 17676 H 1695.9 0.537696 -1.36921 0
M  V30 17677 H 1697.86 3.53121 -2.22174 0
M  V30 17678 H 1696.49 2.98977 -1.21707 0
M  V30 17679 H 1695.54 1.82441 -3.33795 0
M  V30 17680 H 1696.85 2.58247 -4.26743 0
M  V30 17681 H 1696.01 4.85327 -3.64065 0
M  V30 17682 H 1694.75 4.12012 -2.60955 0
M  V30 17683 H 1693.75 2.98633 -4.61626 0
M  V30 17684 H 1694.98 3.75114 -5.66098 0
M  V30 17685 H 1692.92 5.22393 -3.9679 0
M  V30 17686 H 1692.84 4.9861 -5.68264 0
M  V30 17687 H 1694.11 5.969 -5.01328 0
M  V30 17688 N 1698.34 1.46926 0.570122 0
M  V30 17689 C 1699.59 1.52151 1.32413 0
M  V30 17690 C 1699.9 0.18291 1.94743 0
M  V30 17691 O 1701.1 0.113045 2.71265 0
M  V30 17692 C 1699.56 2.68153 2.40046 0
M  V30 17693 C 1699.17 4.08487 1.83963 0
M  V30 17694 C 1700.91 2.82659 3.16709 0
M  V30 17695 C 1698.82 5.1581 2.893 0
M  V30 17696 H 1697.75 0.566291 0.497826 0
M  V30 17697 H 1700.4 1.73169 0.607011 0
M  V30 17698 H 1698.78 2.40488 3.14613 0
M  V30 17699 H 1699.96 4.45998 1.15854 0
M  V30 17700 H 1698.27 3.98756 1.19927 0
M  V30 17701 H 1700.87 3.60008 3.95346 0
M  V30 17702 H 1701.21 1.9063 3.70089 0
M  V30 17703 H 1701.74 3.10031 2.4925 0
M  V30 17704 H 1698.48 6.09672 2.40791 0
M  V30 17705 H 1698 4.8283 3.55859 0
M  V30 17706 H 1699.68 5.42201 3.53026 0
M  V30 17707 N 1699.82 -0.815801 1.34842 0
M  V30 17708 C 1701.04 -1.60915 1.30848 0
M  V30 17709 C 1701.47 -1.87758 -0.113345 0
M  V30 17710 O 1700.82 -1.4582 -1.07732 0
M  V30 17711 C 1700.87 -2.92284 2.11192 0
M  V30 17712 O 1699.98 -3.84685 1.48632 0
M  V30 17713 H 1699.32 -0.48913 0.449052 0
M  V30 17714 H 1701.85 -1.01322 1.7775 0
M  V30 17715 H 1701.86 -3.41789 2.2281 0
M  V30 17716 H 1700.53 -2.72071 3.14563 0
M  V30 17717 H 1699.11 -3.43215 1.458 0
M  V30 17718 N 1701.29 -1.18689 -1.03686 0
M  V30 17719 C 1702.24 -0.917369 -2.11785 0
M  V30 17720 C 1703.21 0.144719 -1.65468 0
M  V30 17721 O 1704.4 0.00427016 -1.908 0
M  V30 17722 C 1701.54 -0.453396 -3.42109 0
M  V30 17723 C 1700.65 -1.58134 -4.02017 0
M  V30 17724 C 1699.78 -1.06971 -5.20318 0
M  V30 17725 C 1698.82 -2.17208 -5.72265 0
M  V30 17726 N 1697.96 -1.67411 -6.81849 0
M  V30 17727 H 1702.8 -1.84297 -2.34177 0
M  V30 17728 H 1700.34 -0.918951 -1.14864 0
M  V30 17729 H 1702.29 -0.165843 -4.1687 0
M  V30 17730 H 1700.92 0.435219 -3.19853 0
M  V30 17731 H 1699.98 -1.98429 -3.24546 0
M  V30 17732 H 1701.29 -2.41219 -4.36594 0
M  V30 17733 H 1700.44 -0.736906 -6.02208 0
M  V30 17734 H 1699.18 -0.208487 -4.87254 0
M  V30 17735 H 1698.19 -2.51328 -4.88993 0
M  V30 17736 H 1699.41 -3.03772 -6.07371 0
M  V30 17737 H 1697.36 -0.83584 -6.50653 0
M  V30 17738 H 1697.27 -2.44091 -7.15511 0
M  V30 17739 H 1698.54 -1.3707 -7.67354 0
M  V30 17740 N 1702.77 1.22662 -0.989529 0
M  V30 17741 C 1704.02 1.91322 -0.663497 0
M  V30 17742 C 1704.35 1.77102 0.804057 0
M  V30 17743 O 1703.6 1.13169 1.5966 0
M  V30 17744 C 1703.9 3.428 -1.01109 0
M  V30 17745 C 1703.57 3.77206 -2.47035 0
M  V30 17746 C 1702.23 3.86308 -2.86914 0
M  V30 17747 C 1704.58 3.93617 -3.41636 0
M  V30 17748 C 1701.91 4.09255 -4.20389 0
M  V30 17749 C 1704.26 4.18067 -4.74766 0
M  V30 17750 C 1702.92 4.25392 -5.14391 0
M  V30 17751 H 1702.19 0.700095 -0.242791 0
M  V30 17752 H 1704.84 1.45498 -1.24509 0
M  V30 17753 H 1703.15 3.90256 -0.347533 0
M  V30 17754 H 1704.84 3.94171 -0.736909 0
M  V30 17755 H 1701.43 3.70702 -2.15123 0
M  V30 17756 H 1705.62 3.85966 -3.12 0
M  V30 17757 H 1700.87 4.13152 -4.50683 0
M  V30 17758 H 1705.05 4.29708 -5.48018 0
M  V30 17759 H 1702.67 4.42926 -6.17835 0
M  V30 17760 N 1704.25 0.762308 1.37937 0
M  V30 17761 C 1705.5 0.322846 2.00214 0
M  V30 17762 C 1705.83 -1.09513 1.60376 0
M  V30 17763 O 1705.1 -1.75165 0.845432 0
M  V30 17764 C 1705.39 0.455651 3.57206 0
M  V30 17765 C 1705.24 1.91537 4.06981 0
M  V30 17766 C 1706.56 -0.145758 4.39859 0
M  V30 17767 H 1703.68 0.118781 0.727365 0
M  V30 17768 H 1706.32 0.963585 1.63753 0
M  V30 17769 H 1704.47 -0.0898341 3.88396 0
M  V30 17770 H 1706.14 2.51983 3.86397 0
M  V30 17771 H 1704.38 2.42744 3.59524 0
M  V30 17772 H 1705.06 1.9594 5.16054 0
M  V30 17773 H 1707.53 0.31956 4.14871 0
M  V30 17774 H 1706.41 -0.0226441 5.48895 0
M  V30 17775 H 1706.67 -1.23504 4.24499 0
M  V30 17776 N 1705.73 -1.49049 0.51208 0
M  V30 17777 C 1707 -1.95383 -0.0920331 0
M  V30 17778 C 1707.38 -1.4539 -1.53053 0
M  V30 17779 O 1706.73 -0.672485 -2.1838 0
M  V30 17780 C 1706.94 -3.48999 0.00673901 0
M  V30 17781 C 1708.29 -4.24292 -0.161602 0
M  V30 17782 O 1709.31 -3.56135 -0.0679198 0
M  V30 17783 O 1708.17 -5.45343 -0.355351 0
M  V30 17784 H 1705.27 -0.822175 -0.0891992 0
M  V30 17785 H 1707.81 -1.59647 0.575406 0
M  V30 17786 H 1706.59 -3.78055 1.00948 0
M  V30 17787 H 1706.21 -3.91383 -0.700353 0
M  V30 17788 N 1707.21 -0.246397 -1.55662 0
M  V30 17789 C 1708.45 0.372173 -1.99966 0
M  V30 17790 C 1708.81 1.55602 -1.13162 0
M  V30 17791 O 1708.1 1.90685 -0.187055 0
M  V30 17792 C 1708.29 0.832225 -3.47576 0
M  V30 17793 C 1708.12 -0.305503 -4.48661 0
M  V30 17794 C 1706.89 -0.780019 -4.99243 0
M  V30 17795 C 1709.09 -1.13233 -5.0168 0
M  V30 17796 N 1707.07 -1.89021 -5.84076 0
M  V30 17797 C 1708.44 -2.09091 -5.83679 0
M  V30 17798 C 1710.5 -1.16895 -4.83984 0
M  V30 17799 C 1709.2 -3.08321 -6.4987 0
M  V30 17800 C 1711.23 -2.14955 -5.50952 0
M  V30 17801 C 1710.59 -3.09549 -6.32739 0
M  V30 17802 H 1706.69 0.102159 -0.775298 0
M  V30 17803 H 1709.27 -0.363859 -1.9127 0
M  V30 17804 H 1707.44 1.53755 -3.56671 0
M  V30 17805 H 1709.18 1.4257 -3.78756 0
M  V30 17806 H 1705.93 -0.364252 -4.72197 0
M  V30 17807 H 1706.35 -2.44806 -6.31189 0
M  V30 17808 H 1711 -0.45148 -4.20383 0
M  V30 17809 H 1708.71 -3.81017 -7.12637 0
M  V30 17810 H 1712.3 -2.18493 -5.39214 0
M  V30 17811 H 1711.18 -3.84188 -6.83644 0
M  V30 17812 N 1708.68 1.57577 0.026722 0
M  V30 17813 C 1709.61 2.09748 1.02605 0
M  V30 17814 C 1710.59 1.00054 1.37562 0
M  V30 17815 O 1711.78 1.2759 1.46405 0
M  V30 17816 C 1708.91 2.57881 2.32626 0
M  V30 17817 C 1707.86 3.7186 2.11905 0
M  V30 17818 C 1707.19 4.06208 3.47706 0
M  V30 17819 C 1708.49 5.00198 1.50332 0
M  V30 17820 H 1710.18 2.93494 0.591753 0
M  V30 17821 H 1707.73 1.41188 0.283199 0
M  V30 17822 H 1709.68 2.93 3.02868 0
M  V30 17823 H 1708.41 1.71222 2.7812 0
M  V30 17824 H 1707.07 3.37094 1.44096 0
M  V30 17825 H 1706.71 3.16611 3.90853 0
M  V30 17826 H 1706.41 4.82982 3.34667 0
M  V30 17827 H 1707.94 4.43863 4.19306 0
M  V30 17828 H 1709.35 5.33259 2.10494 0
M  V30 17829 H 1707.75 5.81599 1.4786 0
M  V30 17830 H 1708.82 4.82623 0.469405 0
M  V30 17831 N 1710.16 -0.299034 1.54737 0
M  V30 17832 C 1711.11 -1.36887 1.85824 0
M  V30 17833 C 1712.08 -1.50287 0.70733 0
M  V30 17834 O 1713.26 -1.65114 0.956143 0
M  V30 17835 C 1710.4 -2.7286 2.11286 0
M  V30 17836 C 1709.52 -2.67893 3.38906 0
M  V30 17837 C 1708.65 -3.95873 3.542 0
M  V30 17838 C 1707.69 -3.85312 4.75606 0
M  V30 17839 N 1706.83 -5.05072 4.87695 0
M  V30 17840 H 1711.67 -1.09676 2.77083 0
M  V30 17841 H 1709.2 -0.530427 1.37204 0
M  V30 17842 H 1711.16 -3.51938 2.24043 0
M  V30 17843 H 1709.79 -2.98327 1.23291 0
M  V30 17844 H 1708.84 -1.80669 3.34758 0
M  V30 17845 H 1710.16 -2.5598 4.28107 0
M  V30 17846 H 1709.31 -4.83389 3.66633 0
M  V30 17847 H 1708.05 -4.10622 2.63136 0
M  V30 17848 H 1707.05 -2.9618 4.63203 0
M  V30 17849 H 1708.28 -3.72106 5.68079 0
M  V30 17850 H 1706.23 -5.20281 3.99554 0
M  V30 17851 H 1706.14 -4.9559 5.709 0
M  V30 17852 H 1707.41 -5.94233 5.04487 0
M  V30 17853 N 1711.64 -1.47227 -0.562322 0
M  V30 17854 C 1712.88 -1.55163 -1.33056 0
M  V30 17855 C 1713.24 -0.206867 -1.90882 0
M  V30 17856 O 1714.44 -0.161056 -2.68317 0
M  V30 17857 C 1712.72 -2.63484 -2.41477 0
M  V30 17858 S 1714.27 -2.90968 -3.28455 0
M  V30 17859 H 1711.09 -0.547974 -0.45304 0
M  V30 17860 H 1713.69 -1.84578 -0.644301 0
M  V30 17861 H 1712.4 -3.59797 -1.9742 0
M  V30 17862 H 1711.93 -2.35867 -3.14849 0
M  V30 17863 H 1713.94 -2.27793 -4.40823 0
M  V30 17864 N 1713.12 0.808639 -1.35273 0
M  V30 17865 C 1714.06 1.92036 -1.28026 0
M  V30 17866 C 1715.03 1.65397 -0.152611 0
M  V30 17867 O 1716.22 1.87819 -0.335972 0
M  V30 17868 C 1713.36 3.28544 -1.05607 0
M  V30 17869 C 1712.47 3.67382 -2.27276 0
M  V30 17870 C 1711.61 4.9291 -1.98024 0
M  V30 17871 C 1710.65 5.2437 -3.15757 0
M  V30 17872 N 1709.78 6.41077 -2.86294 0
M  V30 17873 H 1714.62 1.97567 -2.23095 0
M  V30 17874 H 1712.16 0.966397 -1.10902 0
M  V30 17875 H 1714.12 4.07234 -0.906418 0
M  V30 17876 H 1712.75 3.22487 -0.142015 0
M  V30 17877 H 1711.8 2.83969 -2.53112 0
M  V30 17878 H 1713.11 3.86593 -3.15194 0
M  V30 17879 H 1712.27 5.79421 -1.79877 0
M  V30 17880 H 1711.01 4.7573 -1.07387 0
M  V30 17881 H 1710.01 4.36349 -3.34483 0
M  V30 17882 H 1711.24 5.4348 -4.07193 0
M  V30 17883 H 1709.18 6.25327 -1.98249 0
M  V30 17884 H 1709.1 6.60528 -3.67748 0
M  V30 17885 H 1710.37 7.30622 -2.71684 0
M  V30 17886 N 1714.6 1.19237 1.03055 0
M  V30 17887 C 1715.85 0.988287 1.75829 0
M  V30 17888 C 1716.16 -0.481903 1.89571 0
M  V30 17889 O 1717.36 -0.804762 2.59299 0
M  V30 17890 C 1715.82 1.71934 3.16175 0
M  V30 17891 C 1715.43 3.22952 3.10493 0
M  V30 17892 C 1717.17 1.59844 3.93256 0
M  V30 17893 C 1715.08 3.88654 4.4576 0
M  V30 17894 H 1714.01 0.366153 0.659127 0
M  V30 17895 H 1716.66 1.42716 1.15345 0
M  V30 17896 H 1715.04 1.20828 3.77116 0
M  V30 17897 H 1716.22 3.81163 2.58943 0
M  V30 17898 H 1714.53 3.35298 2.46909 0
M  V30 17899 H 1717.13 2.06283 4.93307 0
M  V30 17900 H 1717.47 0.552317 4.1262 0
M  V30 17901 H 1718 2.08286 3.38913 0
M  V30 17902 H 1714.74 4.93357 4.31601 0
M  V30 17903 H 1714.26 3.35231 4.97373 0
M  V30 17904 H 1715.94 3.92104 5.14649 0
M  V30 17905 N 1716.07 -1.22136 0.99602 0
M  V30 17906 C 1717.32 -1.9028 0.66907 0
M  V30 17907 C 1717.64 -1.7837 -0.802717 0
M  V30 17908 O 1718.84 -2.41458 -1.24138 0
M  V30 17909 C 1717.3 -3.4116 1.1462 0
M  V30 17910 C 1716.91 -3.617 2.64343 0
M  V30 17911 C 1718.65 -4.14985 0.893718 0
M  V30 17912 C 1716.56 -5.06297 3.05642 0
M  V30 17913 H 1715.49 -0.71255 0.246554 0
M  V30 17914 H 1718.14 -1.38304 1.20599 0
M  V30 17915 H 1716.52 -3.92337 0.537378 0
M  V30 17916 H 1717.69 -3.21002 3.30597 0
M  V30 17917 H 1716.01 -3.01212 2.87507 0
M  V30 17918 H 1718.61 -5.21564 1.17794 0
M  V30 17919 H 1718.95 -4.15952 -0.17013 0
M  V30 17920 H 1719.48 -3.69846 1.46488 0
M  V30 17921 H 1716.22 -5.10472 4.11216 0
M  V30 17922 H 1715.74 -5.47885 2.44094 0
M  V30 17923 H 1717.42 -5.74743 2.97118 0
M  V30 17924 N 1717.55 -0.769612 -1.37531 0
M  V30 17925 C 1718.96 -0.398644 -1.82394 0
M  V30 17926 C 1719.31 1.07493 -1.64133 0
M  V30 17927 O 1718.44 1.83234 -1.15127 0
M  V30 17928 C 1719.03 -0.716789 -3.31131 0
M  V30 17929 C 1717.59 -0.398903 -3.7428 0
M  V30 17930 C 1716.74 -0.96173 -2.60089 0
M  V30 17931 H 1719.69 -0.964441 -1.26033 0
M  V30 17932 H 1719.71 -0.00067688 -3.805 0
M  V30 17933 H 1719.22 -1.78933 -3.4439 0
M  V30 17934 H 1717.33 0.666412 -3.66592 0
M  V30 17935 H 1717.44 -0.90566 -4.70462 0
M  V30 17936 H 1715.8 -0.386103 -2.51757 0
M  V30 17937 H 1716.59 -2.03963 -2.76141 0
M  V30 17938 N 1719.03 1.48775 -0.519977 0
M  V30 17939 C 1719.94 2.33239 0.252329 0
M  V30 17940 C 1720.96 1.45852 0.948849 0
M  V30 17941 O 1722.13 1.78848 0.92603 0
M  V30 17942 C 1719.2 3.2174 1.29166 0
M  V30 17943 C 1718.26 4.24993 0.606564 0
M  V30 17944 C 1717.49 5.09266 1.59638 0
M  V30 17945 O 1717.71 4.95353 2.82809 0
M  V30 17946 O 1716.65 5.90981 1.14127 0
M  V30 17947 H 1720.47 3.00503 -0.439527 0
M  V30 17948 H 1718.06 1.46733 -0.281032 0
M  V30 17949 H 1719.94 3.76512 1.89254 0
M  V30 17950 H 1718.62 2.5715 1.96611 0
M  V30 17951 H 1717.52 3.74084 -0.0345447 0
M  V30 17952 H 1718.86 4.92193 -0.0257627 0
M  V30 17953 N 1720.51 0.254649 1.55529 0
M  V30 17954 C 1721.47 -0.62836 2.20418 0
M  V30 17955 C 1722.47 -1.09691 1.17578 0
M  V30 17956 O 1723.66 -1.00037 1.42612 0
M  V30 17957 C 1720.79 -1.86453 2.85391 0
M  V30 17958 H 1721.99 -0.0621032 2.99836 0
M  V30 17959 H 1719.54 0.00514311 1.56299 0
M  V30 17960 H 1720.27 -2.47182 2.09932 0
M  V30 17961 H 1720.06 -1.53669 3.60733 0
M  V30 17962 H 1721.55 -2.49291 3.35028 0
M  V30 17963 N 1721.99 -1.57589 -0.0183649 0
M  V30 17964 C 1722.93 -2.07252 -1.01563 0
M  V30 17965 C 1723.9 -0.963941 -1.35268 0
M  V30 17966 O 1725.09 -1.2352 -1.45421 0
M  V30 17967 C 1722.23 -2.56548 -2.30818 0
M  V30 17968 C 1721.34 -3.81238 -2.03178 0
M  V30 17969 C 1720.48 -4.19105 -3.26381 0
M  V30 17970 C 1719.52 -5.36682 -2.94344 0
M  V30 17971 N 1718.65 -5.6993 -4.1003 0
M  V30 17972 H 1723.49 -2.92198 -0.585179 0
M  V30 17973 H 1721.03 -1.44462 -0.27731 0
M  V30 17974 H 1722.99 -2.832 -3.06355 0
M  V30 17975 H 1721.62 -1.74504 -2.71566 0
M  V30 17976 H 1720.67 -3.61606 -1.1809 0
M  V30 17977 H 1721.98 -4.66886 -1.75552 0
M  V30 17978 H 1721.14 -4.46942 -4.10278 0
M  V30 17979 H 1719.87 -3.32129 -3.57129 0
M  V30 17980 H 1718.88 -5.08587 -2.08851 0
M  V30 17981 H 1720.1 -6.2532 -2.64862 0
M  V30 17982 H 1718.05 -4.85913 -4.40709 0
M  V30 17983 H 1717.97 -6.50111 -3.85865 0
M  V30 17984 H 1719.24 -6.02349 -4.94768 0
M  V30 17985 N 1723.46 0.290824 -1.54893 0
M  V30 17986 C 1724.74 1.04495 -1.65348 0
M  V30 17987 C 1725.12 2.04888 -0.508348 0
M  V30 17988 O 1724.47 2.23102 0.493749 0
M  V30 17989 C 1724.68 1.71772 -3.03801 0
M  V30 17990 C 1726.03 2.23595 -3.60958 0
M  V30 17991 O 1727.05 1.81788 -3.06319 0
M  V30 17992 O 1725.91 3.00225 -4.56648 0
M  V30 17993 H 1723 0.483605 -0.670862 0
M  V30 17994 H 1725.55 0.288101 -1.67237 0
M  V30 17995 H 1724.32 0.989296 -3.78588 0
M  V30 17996 H 1723.95 2.54188 -3.05735 0
M  V30 17997 N 1724.94 1.47523 0.554506 0
M  V30 17998 C 1725.89 1.60213 1.66134 0
M  V30 17999 C 1726.86 0.445051 1.60027 0
M  V30 18000 O 1728.04 0.665449 1.7882 0
M  V30 18001 C 1725.18 1.62491 3.04452 0
M  V30 18002 C 1724.3 2.89134 3.20976 0
M  V30 18003 C 1723.43 2.82731 4.49707 0
M  V30 18004 C 1722.47 4.04187 4.59673 0
M  V30 18005 N 1721.61 3.96004 5.79763 0
M  V30 18006 H 1726.45 2.54744 1.54626 0
M  V30 18007 H 1723.99 1.26355 0.753189 0
M  V30 18008 H 1725.94 1.61795 3.84549 0
M  V30 18009 H 1724.57 0.714698 3.14789 0
M  V30 18010 H 1723.63 2.99685 2.34292 0
M  V30 18011 H 1724.94 3.79069 3.24203 0
M  V30 18012 H 1724.09 2.80299 5.38068 0
M  V30 18013 H 1722.83 1.90483 4.48963 0
M  V30 18014 H 1721.84 4.06921 3.69724 0
M  V30 18015 H 1723.06 4.97565 4.62175 0
M  V30 18016 H 1721.01 3.06561 5.79962 0
M  V30 18017 H 1720.92 4.7962 5.8438 0
M  V30 18018 H 1722.19 3.97593 6.70478 0
M  V30 18019 N 1726.42 -0.801453 1.357 0
M  V30 18020 C 1727.67 -1.5611 1.29451 0
M  V30 18021 C 1728 -1.93768 -0.129412 0
M  V30 18022 O 1727.27 -1.6176 -1.08 0
M  V30 18023 C 1727.56 -2.84628 2.20588 0
M  V30 18024 C 1727.41 -2.53413 3.71621 0
M  V30 18025 C 1728.73 -3.86369 2.10729 0
M  V30 18026 H 1725.85 -0.56638 0.471575 0
M  V30 18027 H 1728.49 -0.921701 1.66147 0
M  V30 18028 H 1726.64 -3.39192 1.89424 0
M  V30 18029 H 1728.31 -2.04993 4.1325 0
M  V30 18030 H 1726.56 -1.86531 3.91649 0
M  V30 18031 H 1727.23 -3.45152 4.30783 0
M  V30 18032 H 1729.7 -3.41219 2.38136 0
M  V30 18033 H 1728.58 -4.74062 2.76688 0
M  V30 18034 H 1728.84 -4.28431 1.09083 0
M  V30 18035 N 1727.9 -1.19782 -1.02421 0
M  V30 18036 C 1728.81 -0.955253 -2.14271 0
M  V30 18037 C 1729.82 0.0863233 -1.73786 0
M  V30 18038 O 1731 -0.0993878 -2.01155 0
M  V30 18039 C 1728.07 -0.502219 -3.43043 0
M  V30 18040 C 1727.13 -1.61374 -3.97815 0
M  V30 18041 C 1726.36 -1.18223 -5.20441 0
M  V30 18042 O 1726.58 -0.0477334 -5.7038 0
M  V30 18043 O 1725.52 -1.98664 -5.68169 0
M  V30 18044 H 1729.34 -1.89157 -2.37599 0
M  V30 18045 H 1726.93 -0.981035 -1.12677 0
M  V30 18046 H 1728.81 -0.258445 -4.20607 0
M  V30 18047 H 1727.48 0.4056 -3.21149 0
M  V30 18048 H 1726.39 -1.91172 -3.21565 0
M  V30 18049 H 1727.72 -2.49829 -4.24083 0
M  V30 18050 N 1729.38 1.21606 -1.00248 0
M  V30 18051 C 1730.62 1.90607 -0.683752 0
M  V30 18052 C 1730.95 1.77945 0.785228 0
M  V30 18053 O 1730.21 1.14856 1.58451 0
M  V30 18054 C 1730.51 3.41708 -1.04739 0
M  V30 18055 C 1730.17 3.74565 -2.51022 0
M  V30 18056 C 1728.83 3.83243 -2.90995 0
M  V30 18057 C 1731.19 3.89971 -3.45792 0
M  V30 18058 C 1728.51 4.04773 -4.24707 0
M  V30 18059 C 1730.87 4.13008 -4.79174 0
M  V30 18060 C 1729.53 4.19912 -5.18874 0
M  V30 18061 H 1728.8 0.697481 -0.250203 0
M  V30 18062 H 1731.45 1.4417 -1.26045 0
M  V30 18063 H 1729.75 3.89865 -0.388905 0
M  V30 18064 H 1731.45 3.93367 -0.778675 0
M  V30 18065 H 1728.04 3.68399 -2.19043 0
M  V30 18066 H 1732.22 3.82635 -3.16076 0
M  V30 18067 H 1727.48 4.08349 -4.5504 0
M  V30 18068 H 1731.65 4.23871 -5.52545 0
M  V30 18069 H 1729.28 4.36348 -6.22499 0
M  V30 18070 N 1730.86 0.776895 1.37121 0
M  V30 18071 C 1731.79 0.180738 2.32799 0
M  V30 18072 C 1732.77 -0.677284 1.56035 0
M  V30 18073 O 1733.95 -0.613687 1.84249 0
M  V30 18074 C 1731.08 -0.695148 3.40272 0
M  V30 18075 C 1730.04 0.0619772 4.27955 0
M  V30 18076 C 1729.36 -0.933688 5.26485 0
M  V30 18077 C 1730.66 1.24396 5.0727 0
M  V30 18078 H 1732.36 0.980039 2.82906 0
M  V30 18079 H 1729.9 0.472722 1.3602 0
M  V30 18080 H 1731.85 -1.12205 4.06187 0
M  V30 18081 H 1730.58 -1.52702 2.88703 0
M  V30 18082 H 1729.24 0.469717 3.63578 0
M  V30 18083 H 1728.89 -1.76025 4.71194 0
M  V30 18084 H 1728.59 -0.431608 5.86013 0
M  V30 18085 H 1730.11 -1.35942 5.95275 0
M  V30 18086 H 1731.52 0.89345 5.66295 0
M  V30 18087 H 1729.92 1.67848 5.76149 0
M  V30 18088 H 1730.99 2.04553 4.39643 0
M  V30 18089 N 1732.33 -1.48497 0.527859 0
M  V30 18090 C 1733.56 -2.069 -0.00302594 0
M  V30 18091 C 1733.98 -1.38469 -1.28342 0
M  V30 18092 O 1733.33 -0.471524 -1.76303 0
M  V30 18093 C 1733.38 -3.60749 -0.232871 0
M  V30 18094 O 1733.11 -4.26609 0.996797 0
M  V30 18095 C 1734.61 -4.35941 -0.804376 0
M  V30 18096 H 1731.83 -0.67021 0.0325559 0
M  V30 18097 H 1734.37 -1.90916 0.732897 0
M  V30 18098 H 1732.53 -3.76346 -0.918837 0
M  V30 18099 H 1732.94 -5.18725 0.776217 0
M  V30 18100 H 1734.41 -5.4437 -0.914635 0
M  V30 18101 H 1734.89 -4.00225 -1.80876 0
M  V30 18102 H 1735.5 -4.25017 -0.155041 0
M  V30 18103 N 1733.81 -0.262893 -1.55392 0
M  V30 18104 C 1734.76 0.629853 -2.22039 0
M  V30 18105 C 1735.73 1.15915 -1.18966 0
M  V30 18106 O 1736.91 1.21069 -1.47468 0
M  V30 18107 C 1734.05 1.8138 -2.9359 0
M  V30 18108 C 1733.17 1.31952 -4.11355 0
M  V30 18109 C 1732.3 2.4643 -4.7058 0
M  V30 18110 C 1731.34 1.93944 -5.80562 0
M  V30 18111 N 1730.48 3.01848 -6.33902 0
M  V30 18112 H 1735.32 0.0548473 -2.9795 0
M  V30 18113 H 1732.85 0.0153072 -1.47092 0
M  V30 18114 H 1734.81 2.50955 -3.33283 0
M  V30 18115 H 1733.44 2.36103 -2.20125 0
M  V30 18116 H 1732.49 0.517281 -3.76866 0
M  V30 18117 H 1733.81 0.894993 -4.90705 0
M  V30 18118 H 1732.96 3.2402 -5.12929 0
M  V30 18119 H 1731.7 2.92193 -3.9048 0
M  V30 18120 H 1730.7 1.1483 -5.37675 0
M  V30 18121 H 1731.93 1.49132 -6.62523 0
M  V30 18122 H 1729.88 3.47015 -5.56701 0
M  V30 18123 H 1729.79 2.63775 -7.08491 0
M  V30 18124 H 1731.06 3.79449 -6.8091 0
M  V30 18125 N 1735.29 1.57597 0.0100073 0
M  V30 18126 C 1736.22 2.10825 1.00375 0
M  V30 18127 C 1737.2 1.01507 1.36493 0
M  V30 18128 O 1738.39 1.29136 1.45043 0
M  V30 18129 C 1735.52 2.60334 2.29878 0
M  V30 18130 C 1734.47 3.74087 2.07949 0
M  V30 18131 C 1733.8 4.09873 3.43378 0
M  V30 18132 C 1735.1 5.01764 1.45018 0
M  V30 18133 H 1736.79 2.94105 0.560591 0
M  V30 18134 H 1734.34 1.4148 0.268208 0
M  V30 18135 H 1736.29 2.96196 2.99743 0
M  V30 18136 H 1735.01 1.74162 2.76288 0
M  V30 18137 H 1733.67 3.38603 1.40512 0
M  V30 18138 H 1733.32 3.20739 3.87473 0
M  V30 18139 H 1733.02 4.86505 3.29525 0
M  V30 18140 H 1734.54 4.48285 4.14575 0
M  V30 18141 H 1735.96 5.35462 2.04826 0
M  V30 18142 H 1734.35 5.83135 1.41683 0
M  V30 18143 H 1735.42 4.83093 0.41819 0
M  V30 18144 N 1736.77 -0.282606 1.55045 0
M  V30 18145 C 1737.71 -1.34908 1.87266 0
M  V30 18146 C 1738.68 -1.49528 0.72323 0
M  V30 18147 O 1739.87 -1.6409 0.973602 0
M  V30 18148 C 1737.01 -2.70603 2.14168 0
M  V30 18149 C 1736.12 -2.64284 3.41728 0
M  V30 18150 C 1735.26 -3.92094 3.58379 0
M  V30 18151 C 1734.3 -3.80246 4.79666 0
M  V30 18152 N 1733.43 -4.99871 4.93025 0
M  V30 18153 H 1738.27 -1.06731 2.78231 0
M  V30 18154 H 1735.81 -0.515845 1.37759 0
M  V30 18155 H 1737.77 -3.49542 2.27763 0
M  V30 18156 H 1736.4 -2.97003 1.26448 0
M  V30 18157 H 1735.45 -1.77108 3.36656 0
M  V30 18158 H 1736.76 -2.51425 4.30798 0
M  V30 18159 H 1735.92 -4.79473 3.7174 0
M  V30 18160 H 1734.66 -4.07808 2.67476 0
M  V30 18161 H 1733.66 -2.91251 4.66319 0
M  V30 18162 H 1734.89 -3.6606 5.71994 0
M  V30 18163 H 1732.83 -5.16014 4.0505 0
M  V30 18164 H 1732.75 -4.89507 5.76124 0
M  V30 18165 H 1734.02 -5.88849 5.10761 0
M  V30 18166 N 1738.25 -1.47815 -0.546675 0
M  V30 18167 C 1739.18 -1.57161 -1.66832 0
M  V30 18168 C 1740.19 -0.457035 -1.56253 0
M  V30 18169 O 1741.38 -0.727134 -1.63018 0
M  V30 18170 C 1738.48 -1.4697 -3.05374 0
M  V30 18171 C 1737.65 -2.7318 -3.41602 0
M  V30 18172 C 1736.71 -2.56676 -4.59351 0
M  V30 18173 O 1735.74 -3.30521 -4.63405 0
M  V30 18174 N 1736.94 -1.65194 -5.56499 0
M  V30 18175 H 1739.7 -2.53885 -1.59257 0
M  V30 18176 H 1737.27 -1.44328 -0.733565 0
M  V30 18177 H 1739.26 -1.33649 -3.81995 0
M  V30 18178 H 1737.83 -0.582878 -3.07118 0
M  V30 18179 H 1737.05 -3.01186 -2.54323 0
M  V30 18180 H 1738.34 -3.56945 -3.62585 0
M  V30 18181 H 1737.73 -1.04369 -5.55989 0
M  V30 18182 H 1736.29 -1.57819 -6.32405 0
M  V30 18183 N 1739.72 0.794246 -1.36123 0
M  V30 18184 C 1740.65 1.92105 -1.32732 0
M  V30 18185 C 1741.63 1.68925 -0.199603 0
M  V30 18186 O 1742.82 1.90109 -0.396498 0
M  V30 18187 C 1739.95 3.29051 -1.11098 0
M  V30 18188 C 1738.9 3.66743 -2.20643 0
M  V30 18189 C 1738.23 5.01986 -1.84159 0
M  V30 18190 C 1739.53 3.75831 -3.62696 0
M  V30 18191 H 1741.22 1.952 -2.27018 0
M  V30 18192 H 1738.77 0.937746 -1.09281 0
M  V30 18193 H 1740.72 4.07494 -1.07362 0
M  V30 18194 H 1739.45 3.26331 -0.132614 0
M  V30 18195 H 1738.11 2.90594 -2.23497 0
M  V30 18196 H 1737.75 4.95782 -0.849081 0
M  V30 18197 H 1737.45 5.28175 -2.57497 0
M  V30 18198 H 1738.98 5.82855 -1.8197 0
M  V30 18199 H 1740.39 4.44476 -3.62096 0
M  V30 18200 H 1738.79 4.135 -4.34899 0
M  V30 18201 H 1739.86 2.7706 -3.97952 0
M  V30 18202 N 1741.2 1.20323 1.01785 0
M  V30 18203 C 1742.48 0.921703 1.72522 0
M  V30 18204 C 1742.86 -0.569838 2.03264 0
M  V30 18205 O 1742.21 -1.53115 1.69611 0
M  V30 18206 C 1742.42 1.79335 2.99399 0
M  V30 18207 C 1743.76 2.03442 3.72688 0
M  V30 18208 O 1744.79 1.76578 3.09352 0
M  V30 18209 O 1743.65 2.48803 4.86579 0
M  V30 18210 H 1740.74 0.344505 0.751828 0
M  V30 18211 H 1743.29 1.31191 1.07644 0
M  V30 18212 H 1742.06 2.80339 2.72994 0
M  V30 18213 H 1741.68 1.40314 3.72018 0
M  V30 18214 N 1742.68 -1.21073 1.00892 0
M  V30 18215 C 1743.61 -2.22257 0.517418 0
M  V30 18216 C 1744.59 -1.56784 -0.430997 0
M  V30 18217 O 1745.77 -1.85169 -0.3528 0
M  V30 18218 C 1742.9 -3.37791 -0.24795 0
M  V30 18219 C 1741.95 -4.21535 0.648856 0
M  V30 18220 S 1742.78 -4.92026 2.11355 0
M  V30 18221 C 1743.94 -6.10987 1.35813 0
M  V30 18222 H 1744.17 -2.63604 1.37479 0
M  V30 18223 H 1741.7 -1.31002 0.817177 0
M  V30 18224 H 1743.66 -4.04771 -0.683454 0
M  V30 18225 H 1742.32 -2.9492 -1.08079 0
M  V30 18226 H 1741.51 -5.03965 0.0591083 0
M  V30 18227 H 1741.12 -3.59771 1.0218 0
M  V30 18228 H 1743.41 -6.74526 0.634079 0
M  V30 18229 H 1744.35 -6.74406 2.15829 0
M  V30 18230 H 1744.76 -5.57843 0.864381 0
M  V30 18231 N 1744.16 -0.784156 -1.36707 0
M  V30 18232 C 1745.09 -0.193081 -2.327 0
M  V30 18233 C 1746.07 0.668999 -1.56392 0
M  V30 18234 O 1747.25 0.603908 -1.84571 0
M  V30 18235 C 1744.38 0.677092 -3.40636 0
M  V30 18236 C 1743.34 -0.0846718 -4.27916 0
M  V30 18237 C 1742.66 0.905754 -5.26973 0
M  V30 18238 C 1743.96 -1.27085 -5.06603 0
M  V30 18239 H 1745.66 -0.995029 -2.82382 0
M  V30 18240 H 1743.2 -0.479929 -1.35767 0
M  V30 18241 H 1745.16 1.1005 -4.06776 0
M  V30 18242 H 1743.88 1.51169 -2.89509 0
M  V30 18243 H 1742.54 -0.488992 -3.63324 0
M  V30 18244 H 1742.19 1.73524 -4.72121 0
M  V30 18245 H 1741.89 0.400524 -5.86233 0
M  V30 18246 H 1743.41 1.32784 -5.95987 0
M  V30 18247 H 1744.83 -0.923469 -5.65814 0
M  V30 18248 H 1743.22 -1.70901 -5.7525 0
M  V30 18249 H 1744.29 -2.06882 -4.38552 0
M  V30 18250 N 1745.64 1.48215 -0.535727 0
M  V30 18251 C 1746.55 2.33494 0.227577 0
M  V30 18252 C 1747.56 1.4685 0.933327 0
M  V30 18253 O 1748.74 1.7982 0.907008 0
M  V30 18254 C 1745.8 3.23092 1.25747 0
M  V30 18255 C 1744.86 4.25613 0.561454 0
M  V30 18256 C 1744.1 5.1093 1.54228 0
M  V30 18257 O 1744.32 4.98325 2.77539 0
M  V30 18258 O 1743.25 5.92158 1.07852 0
M  V30 18259 H 1747.08 3.0002 -0.471375 0
M  V30 18260 H 1744.67 1.46427 -0.296579 0
M  V30 18261 H 1746.55 3.78498 1.8525 0
M  V30 18262 H 1745.22 2.5922 1.93872 0
M  V30 18263 H 1744.13 3.74026 -0.0742194 0
M  V30 18264 H 1745.46 4.92138 -0.0779649 0
M  V30 18265 N 1747.11 0.27113 1.5525 0
M  V30 18266 C 1748.06 -0.634087 2.2379 0
M  V30 18267 C 1749.06 -1.16101 1.23357 0
M  V30 18268 O 1750.26 -1.1151 1.413 0
M  V30 18269 H 1746.64 -0.223023 0.718168 0
M  V30 18270 H 1748.61 -0.0331304 2.98382 0
M  V30 18271 C 1747.36 -1.80879 2.96948 0
M  V30 18272 H 1746.68 -1.41252 3.74016 0
M  V30 18273 H 1748.12 -2.41888 3.48233 0
M  V30 18274 C 1746.58 -2.69481 2.02192 0
M  V30 18275 O 1747.11 -3.69725 1.57056 0
M  V30 18276 N 1745.32 -2.36565 1.68776 0
M  V30 18277 H 1744.86 -1.55096 2.05677 0
M  V30 18278 H 1744.82 -2.96119 1.05646 0
M  V30 18279 N 1748.59 -1.576 -0.00164943 0
M  V30 18280 C 1749.52 -2.05167 -1.02173 0
M  V30 18281 C 1750.54 -0.969293 -1.308 0
M  V30 18282 O 1751.73 -1.24612 -1.27805 0
M  V30 18283 C 1748.83 -2.43525 -2.35688 0
M  V30 18284 C 1748 -3.74475 -2.26025 0
M  V30 18285 C 1747.06 -3.99719 -3.42215 0
M  V30 18286 O 1746.08 -4.70408 -3.20476 0
M  V30 18287 N 1747.29 -3.47486 -4.65009 0
M  V30 18288 H 1750.05 -2.93299 -0.616095 0
M  V30 18289 H 1747.61 -1.60792 -0.189066 0
M  V30 18290 H 1749.6 -2.57528 -3.12188 0
M  V30 18291 H 1748.17 -1.6092 -2.67999 0
M  V30 18292 H 1747.39 -3.70564 -1.34447 0
M  V30 18293 H 1748.68 -4.60328 -2.16739 0
M  V30 18294 H 1748.08 -2.9024 -4.85569 0
M  V30 18295 H 1746.64 -3.66822 -5.38781 0
M  V30 18296 N 1750.07 0.274379 -1.55193 0
M  V30 18297 C 1751.32 1.00394 -1.7494 0
M  V30 18298 C 1751.63 1.87499 -0.557084 0
M  V30 18299 O 1752.84 2.63923 -0.636936 0
M  V30 18300 C 1751.29 1.83489 -3.09612 0
M  V30 18301 C 1750.9 1.01257 -4.36407 0
M  V30 18302 C 1752.65 2.55883 -3.38709 0
M  V30 18303 C 1750.55 1.83782 -5.62119 0
M  V30 18304 H 1749.48 0.378561 -0.65208 0
M  V30 18305 H 1752.13 0.259678 -1.81653 0
M  V30 18306 H 1750.52 2.62005 -2.96933 0
M  V30 18307 H 1751.69 0.27167 -4.59998 0
M  V30 18308 H 1750.01 0.403235 -4.14443 0
M  V30 18309 H 1752.6 3.18028 -4.2984 0
M  V30 18310 H 1752.95 3.26096 -2.58779 0
M  V30 18311 H 1753.48 1.84398 -3.5248 0
M  V30 18312 H 1750.22 1.17992 -6.44793 0
M  V30 18313 H 1749.74 2.55473 -5.42673 0
M  V30 18314 H 1751.42 2.41181 -6.00367 0
M  V30 18315 N 1751.55 1.48103 0.538828 0
M  V30 18316 C 1752.51 1.61495 1.62641 0
M  V30 18317 C 1753.51 0.488792 1.53191 0
M  V30 18318 O 1754.7 0.754355 1.57019 0
M  V30 18319 C 1751.83 1.57681 3.02241 0
M  V30 18320 H 1753.03 2.58462 1.5211 0
M  V30 18321 H 1750.58 1.36567 0.760201 0
M  V30 18322 H 1751.31 0.621583 3.18287 0
M  V30 18323 H 1751.1 2.3943 3.10509 0
M  V30 18324 H 1752.59 1.70228 3.81329 0
M  V30 18325 N 1753.03 -0.787016 1.36542 0
M  V30 18326 C 1754.25 -1.57588 1.34065 0
M  V30 18327 C 1754.67 -1.88641 -0.0775397 0
M  V30 18328 O 1754.03 -1.50306 -1.03511 0
M  V30 18329 C 1754.08 -2.89543 2.16442 0
M  V30 18330 O 1753.8 -2.59828 3.52734 0
M  V30 18331 C 1755.3 -3.83838 2.21773 0
M  V30 18332 H 1752.52 -0.488708 0.459789 0
M  V30 18333 H 1755.06 -0.976614 1.79673 0
M  V30 18334 H 1753.22 -3.45933 1.74383 0
M  V30 18335 H 1753.63 -3.44219 3.95744 0
M  V30 18336 H 1755.11 -4.73478 2.83765 0
M  V30 18337 H 1755.58 -4.21862 1.22185 0
M  V30 18338 H 1756.19 -3.33381 2.64078 0
M  V30 18339 N 1754.5 -1.20861 -1.01145 0
M  V30 18340 C 1755.75 -1.01613 -1.74234 0
M  V30 18341 C 1756.07 0.451683 -1.90313 0
M  V30 18342 O 1757.27 0.763408 -2.60546 0
M  V30 18343 C 1755.73 -1.76942 -3.134 0
M  V30 18344 C 1755.34 -3.27851 -3.05316 0
M  V30 18345 C 1757.08 -1.6608 -3.90663 0
M  V30 18346 C 1754.99 -3.95696 -4.39521 0
M  V30 18347 H 1753.92 -0.376593 -0.653218 0
M  V30 18348 H 1756.57 -1.44533 -1.1306 0
M  V30 18349 H 1754.95 -1.26812 -3.75146 0
M  V30 18350 H 1756.12 -3.85234 -2.52846 0
M  V30 18351 H 1754.44 -3.39184 -2.41543 0
M  V30 18352 H 1757.04 -2.14105 -4.89963 0
M  V30 18353 H 1757.38 -0.617892 -4.11689 0
M  V30 18354 H 1757.91 -2.13652 -3.35556 0
M  V30 18355 H 1754.65 -5.00161 -4.23697 0
M  V30 18356 H 1754.17 -3.43102 -4.91977 0
M  V30 18357 H 1755.85 -4.00242 -5.08346 0
M  V30 18358 N 1755.98 1.20536 -1.01532 0
M  V30 18359 C 1756.93 2.21134 -0.555309 0
M  V30 18360 C 1757.92 1.56135 0.388663 0
M  V30 18361 O 1759.11 1.75728 0.211835 0
M  V30 18362 C 1756.24 3.43135 0.106298 0
M  V30 18363 C 1755.32 4.15303 -0.859306 0
M  V30 18364 N 1755.71 4.63873 -2.01631 0
M  V30 18365 C 1754.01 4.40788 -0.679859 0
M  V30 18366 C 1754.71 5.19143 -2.62422 0
M  V30 18367 N 1753.69 5.0913 -1.90494 0
M  V30 18368 H 1757.49 2.56351 -1.4374 0
M  V30 18369 H 1755.01 1.36458 -0.880503 0
M  V30 18370 H 1757 4.14427 0.453392 0
M  V30 18371 H 1755.66 3.09423 0.984242 0
M  V30 18372 H 1756.67 4.59128 -2.39629 0
M  V30 18373 H 1753.35 4.1723 0.150137 0
M  V30 18374 H 1754.74 5.67108 -3.60331 0
M  V30 18375 N 1757.46 0.791395 1.36289 0
M  V30 18376 C 1758.39 0.149076 2.28715 0
M  V30 18377 C 1759.41 -0.642827 1.49571 0
M  V30 18378 O 1760.59 -0.477685 1.7199 0
M  V30 18379 C 1757.69 -0.811868 3.29032 0
M  V30 18380 C 1756.87 -0.0695975 4.37345 0
M  V30 18381 C 1755.93 -0.946776 5.17612 0
M  V30 18382 O 1754.95 -0.403295 5.67769 0
M  V30 18383 N 1756.15 -2.27079 5.34243 0
M  V30 18384 H 1758.92 0.943005 2.84478 0
M  V30 18385 H 1756.48 0.645479 1.48476 0
M  V30 18386 H 1758.47 -1.40257 3.79618 0
M  V30 18387 H 1757.04 -1.50667 2.73895 0
M  V30 18388 H 1756.26 0.702196 3.87895 0
M  V30 18389 H 1757.55 0.442542 5.06872 0
M  V30 18390 H 1756.95 -2.73646 4.9511 0
M  V30 18391 H 1755.51 -2.81109 5.88065 0
M  V30 18392 N 1758.94 -1.47929 0.54358 0
M  V30 18393 C 1760.16 -2.07393 0.0168905 0
M  V30 18394 C 1760.59 -1.39557 -1.26117 0
M  V30 18395 O 1759.95 -0.465983 -1.75209 0
M  V30 18396 C 1760 -3.6017 -0.176105 0
M  V30 18397 O 1759.1 -3.9326 -1.24178 0
M  V30 18398 H 1758.44 -0.662459 0.0452126 0
M  V30 18399 H 1760.97 -1.90145 0.755376 0
M  V30 18400 H 1760.98 -4.06088 -0.394555 0
M  V30 18401 H 1759.66 -4.08944 0.757445 0
M  V30 18402 H 1758.23 -3.59105 -1.0049 0
M  V30 18403 N 1760.42 -0.27936 -1.55104 0
M  V30 18404 C 1761.66 0.337344 -2.01597 0
M  V30 18405 C 1762.02 1.52732 -1.16348 0
M  V30 18406 O 1763.22 2.21394 -1.5244 0
M  V30 18407 C 1761.49 0.705839 -3.50361 0
M  V30 18408 S 1763.05 1.30847 -4.18837 0
M  V30 18409 H 1759.87 0.104703 -0.703248 0
M  V30 18410 H 1762.47 -0.402184 -1.91318 0
M  V30 18411 H 1761.18 -0.169038 -4.10052 0
M  V30 18412 H 1760.71 1.47672 -3.64632 0
M  V30 18413 H 1762.72 2.59696 -4.22815 0
M  V30 18414 N 1761.9 1.57599 -0.0067085 0
M  V30 18415 C 1763.31 1.78864 0.535202 0
M  V30 18416 C 1763.66 0.914793 1.73568 0
M  V30 18417 O 1762.78 0.119075 2.16072 0
M  V30 18418 C 1763.38 3.24386 0.977709 0
M  V30 18419 C 1761.94 3.46725 1.46488 0
M  V30 18420 C 1761.08 2.74114 0.419171 0
M  V30 18421 H 1764.03 1.56982 -0.232853 0
M  V30 18422 H 1764.06 3.32867 1.84336 0
M  V30 18423 H 1763.57 3.87961 0.103778 0
M  V30 18424 H 1761.67 2.88373 2.35948 0
M  V30 18425 H 1761.78 4.55416 1.48772 0
M  V30 18426 H 1760.15 2.3893 0.882311 0
M  V30 18427 H 1760.93 3.40392 -0.445908 0
M  V30 18428 N 1763.37 -0.266145 1.55336 0
M  V30 18429 C 1764.6 -1.01915 1.80633 0
M  V30 18430 C 1765.02 -1.78897 0.581172 0
M  V30 18431 O 1764.38 -1.75118 -0.469399 0
M  V30 18432 C 1764.43 -1.948 3.03456 0
M  V30 18433 O 1763.53 -3.03678 2.79022 0
M  V30 18434 H 1762.87 -0.29102 0.596828 0
M  V30 18435 H 1765.4 -0.292973 2.02492 0
M  V30 18436 H 1765.41 -2.36626 3.32373 0
M  V30 18437 H 1764.09 -1.38182 3.92273 0
M  V30 18438 H 1762.67 -2.66118 2.61219 0
M  V30 18439 N 1764.85 -1.48386 -0.530967 0
M  V30 18440 C 1765.78 -1.58922 -1.65156 0
M  V30 18441 C 1766.8 -0.473583 -1.5576 0
M  V30 18442 O 1767.99 -0.744383 -1.62238 0
M  V30 18443 C 1765.09 -1.50201 -3.03798 0
M  V30 18444 C 1764.26 -2.76787 -3.38685 0
M  V30 18445 C 1763.32 -2.61534 -4.56603 0
M  V30 18446 O 1762.34 -3.35417 -4.59874 0
M  V30 18447 N 1763.55 -1.71087 -5.54716 0
M  V30 18448 H 1766.31 -2.55559 -1.56555 0
M  V30 18449 H 1763.87 -1.45097 -0.718216 0
M  V30 18450 H 1765.86 -1.37693 -3.80556 0
M  V30 18451 H 1764.43 -0.615419 -3.06482 0
M  V30 18452 H 1763.65 -3.03867 -2.51115 0
M  V30 18453 H 1764.94 -3.6077 -3.58779 0
M  V30 18454 H 1764.34 -1.10261 -5.54851 0
M  V30 18455 H 1762.9 -1.64518 -6.30696 0
M  V30 18456 N 1766.33 0.779763 -1.36958 0
M  V30 18457 C 1767.24 1.92394 -1.34245 0
M  V30 18458 C 1768.26 1.72292 -0.243187 0
M  V30 18459 O 1769.43 1.95665 -0.477211 0
M  V30 18460 C 1766.5 3.27402 -1.14057 0
M  V30 18461 C 1765.56 3.60213 -2.33548 0
M  V30 18462 C 1764.79 4.88779 -2.14314 0
M  V30 18463 O 1765.01 5.59231 -1.12327 0
M  V30 18464 O 1763.95 5.20469 -3.02316 0
M  V30 18465 H 1767.77 1.97633 -2.30596 0
M  V30 18466 H 1765.36 0.921386 -1.17605 0
M  V30 18467 H 1767.24 4.08172 -1.04755 0
M  V30 18468 H 1765.92 3.23033 -0.207744 0
M  V30 18469 H 1764.82 2.7971 -2.48421 0
M  V30 18470 H 1766.16 3.69317 -3.25371 0
M  V30 18471 N 1767.81 1.21396 1.00503 0
M  V30 18472 C 1768.74 0.930982 2.09441 0
M  V30 18473 C 1769.75 -0.0857912 1.62574 0
M  V30 18474 O 1770.94 0.146701 1.77896 0
M  V30 18475 C 1768.04 0.376344 3.36804 0
M  V30 18476 C 1767.21 1.44744 4.12756 0
M  V30 18477 C 1766.27 0.902051 5.18411 0
M  V30 18478 O 1765.3 1.58548 5.46673 0
M  V30 18479 N 1766.5 -0.282718 5.79811 0
M  V30 18480 H 1769.27 1.86879 2.343 0
M  V30 18481 H 1766.83 1.1192 1.16985 0
M  V30 18482 H 1768.82 -0.00292068 4.047 0
M  V30 18483 H 1767.39 -0.466283 3.09103 0
M  V30 18484 H 1766.61 2.00056 3.39664 0
M  V30 18485 H 1767.9 2.16846 4.60277 0
M  V30 18486 H 1767.3 -0.855 5.59201 0
M  V30 18487 H 1765.85 -0.603494 6.49 0
M  V30 18488 N 1769.29 -1.19996 1.0217 0
M  V30 18489 C 1770.22 -2.22392 0.55446 0
M  V30 18490 C 1771.23 -1.58636 -0.36586 0
M  V30 18491 O 1772.42 -1.77751 -0.163394 0
M  V30 18492 C 1769.52 -3.38235 -0.212234 0
M  V30 18493 C 1768.69 -4.31578 0.711253 0
M  V30 18494 C 1767.75 -5.26199 -0.00876314 0
M  V30 18495 O 1766.78 -5.65863 0.615435 0
M  V30 18496 N 1767.98 -5.66169 -1.28192 0
M  V30 18497 H 1770.74 -2.63107 1.43509 0
M  V30 18498 H 1768.31 -1.34589 0.899853 0
M  V30 18499 H 1770.3 -3.98542 -0.703282 0
M  V30 18500 H 1768.87 -2.96369 -0.994205 0
M  V30 18501 H 1768.09 -3.69161 1.38252 0
M  V30 18502 H 1769.38 -4.90861 1.33915 0
M  V30 18503 H 1768.77 -5.35966 -1.8099 0
M  V30 18504 H 1767.33 -6.28762 -1.7176 0
M  V30 18505 N 1770.76 -0.798611 -1.35867 0
M  V30 18506 C 1771.67 -0.204758 -2.33705 0
M  V30 18507 C 1772.69 0.648001 -1.61484 0
M  V30 18508 O 1773.87 0.561628 -1.93411 0
M  V30 18509 C 1770.93 0.643225 -3.40681 0
M  V30 18510 C 1769.99 -0.229099 -4.28688 0
M  V30 18511 C 1769.22 0.578508 -5.30555 0
M  V30 18512 O 1769.45 1.81382 -5.40793 0
M  V30 18513 O 1768.38 -0.0264291 -6.01894 0
M  V30 18514 H 1772.21 -1.01392 -2.86275 0
M  V30 18515 H 1769.79 -0.560242 -1.38498 0
M  V30 18516 H 1771.67 1.12648 -4.06065 0
M  V30 18517 H 1770.35 1.43012 -2.90395 0
M  V30 18518 H 1769.26 -0.759314 -3.66313 0
M  V30 18519 H 1770.59 -0.979736 -4.82351 0
M  V30 18520 N 1772.24 1.47639 -0.551417 0
M  V30 18521 C 1773.49 2.01687 -0.0230887 0
M  V30 18522 C 1773.8 1.43178 1.33265 0
M  V30 18523 O 1775.01 1.88853 1.95056 0
M  V30 18524 C 1773.47 3.59899 0.00918719 0
M  V30 18525 C 1773.07 4.27398 -1.34295 0
M  V30 18526 C 1774.82 4.21718 0.485213 0
M  V30 18527 C 1772.72 5.77601 -1.2701 0
M  V30 18528 H 1771.65 0.753984 -0.00486122 0
M  V30 18529 H 1774.31 1.6969 -0.698405 0
M  V30 18530 H 1772.69 3.88832 0.75003 0
M  V30 18531 H 1773.86 4.10113 -2.10105 0
M  V30 18532 H 1772.18 3.77542 -1.75644 0
M  V30 18533 H 1774.77 5.3178 0.558025 0
M  V30 18534 H 1775.12 3.88495 1.4959 0
M  V30 18535 H 1775.65 3.97294 -0.200594 0
M  V30 18536 H 1772.39 6.15433 -2.2566 0
M  V30 18537 H 1771.91 5.97239 -0.553709 0
M  V30 18538 H 1773.59 6.39692 -0.969726 0
M  V30 18539 N 1773.72 0.287581 1.54954 0
M  V30 18540 C 1774.65 -0.587855 2.25979 0
M  V30 18541 C 1775.63 -1.14884 1.25442 0
M  V30 18542 O 1776.82 -1.18067 1.54188 0
M  V30 18543 C 1773.95 -1.76618 2.99037 0
M  V30 18544 C 1772.9 -1.33617 4.06609 0
M  V30 18545 C 1772.23 -2.59859 4.67309 0
M  V30 18546 C 1773.53 -0.477219 5.20115 0
M  V30 18547 H 1775.22 0.00450183 2.994 0
M  V30 18548 H 1772.77 0.00360521 1.44 0
M  V30 18549 H 1774.72 -2.38461 3.4744 0
M  V30 18550 H 1773.44 -2.38457 2.23172 0
M  V30 18551 H 1772.1 -0.74088 3.59036 0
M  V30 18552 H 1771.75 -3.19983 3.88098 0
M  V30 18553 H 1771.45 -2.31793 5.3995 0
M  V30 18554 H 1772.97 -3.22528 5.18467 0
M  V30 18555 H 1774.39 -1.00096 5.64494 0
M  V30 18556 H 1772.79 -0.290913 5.99394 0
M  V30 18557 H 1773.86 0.500993 4.82305 0
M  V30 18558 N 1775.2 -1.57593 0.0150662 0
M  V30 18559 C 1776.45 -1.91214 -0.666599 0
M  V30 18560 C 1776.77 -0.890139 -1.72936 0
M  V30 18561 O 1776.03 0.102976 -1.95429 0
M  V30 18562 C 1776.33 -3.3158 -1.33376 0
M  V30 18563 C 1775.99 -4.49098 -0.402748 0
M  V30 18564 C 1774.66 -4.80977 -0.146455 0
M  V30 18565 C 1777.01 -5.20659 0.237376 0
M  V30 18566 C 1774.34 -5.81783 0.758003 0
M  V30 18567 C 1776.69 -6.22429 1.1298 0
M  V30 18568 C 1775.35 -6.52758 1.39513 0
M  V30 18569 H 1774.62 -0.699701 -0.243926 0
M  V30 18570 H 1777.27 -1.91358 0.073824 0
M  V30 18571 H 1775.57 -3.27632 -2.1486 0
M  V30 18572 H 1777.27 -3.54859 -1.86751 0
M  V30 18573 H 1773.86 -4.24198 -0.612678 0
M  V30 18574 H 1778.04 -4.96272 0.052408 0
M  V30 18575 H 1773.3 -6.03634 0.971415 0
M  V30 18576 H 1777.47 -6.77005 1.63208 0
M  V30 18577 H 1775.1 -7.30687 2.09764 0
M  V30 18578 N 1776.68 0.257904 -1.55475 0
M  V30 18579 C 1777.62 1.33893 -1.90198 0
M  V30 18580 C 1778.62 1.50381 -0.779868 0
M  V30 18581 O 1779.82 1.51986 -0.964376 0
M  V30 18582 H 1776.2 0.448115 -0.603901 0
M  V30 18583 H 1778.17 1.01868 -2.80474 0
M  V30 18584 C 1776.92 2.68954 -2.20361 0
M  V30 18585 H 1776.24 2.57064 -3.062 0
M  V30 18586 H 1777.68 3.43498 -2.48567 0
M  V30 18587 C 1776.14 3.21208 -1.01623 0
M  V30 18588 O 1776.67 4.00867 -0.258567 0
M  V30 18589 N 1774.88 2.79088 -0.809825 0
M  V30 18590 H 1774.42 2.1442 -1.42764 0
M  V30 18591 H 1774.38 3.14395 -0.0170171 0
M  V30 18592 N 1778.15 1.48666 0.52309 0
M  V30 18593 C 1779.1 1.64155 1.6479 0
M  V30 18594 C 1780.1 0.507838 1.61609 0
M  V30 18595 O 1781.3 0.686784 1.66383 0
M  V30 18596 H 1777.68 0.517234 0.545869 0
M  V30 18597 H 1779.65 2.58611 1.48871 0
M  V30 18598 C 1778.4 1.70488 3.03033 0
M  V30 18599 H 1777.72 2.5709 3.06178 0
M  V30 18600 H 1779.16 1.85367 3.81333 0
M  V30 18601 C 1777.62 0.444984 3.33948 0
M  V30 18602 O 1778.15 -0.439107 3.99293 0
M  V30 18603 N 1776.36 0.314593 2.88892 0
M  V30 18604 H 1775.9 1.03501 2.35893 0
M  V30 18605 H 1775.86 -0.527357 3.09946 0
M  V30 18606 N 1779.63 -0.772489 1.37369 0
M  V30 18607 C 1780.88 -1.53329 1.32733 0
M  V30 18608 C 1781.21 -1.93999 -0.0882815 0
M  V30 18609 O 1780.49 -1.64014 -1.04545 0
M  V30 18610 C 1780.77 -2.79885 2.26575 0
M  V30 18611 C 1780.62 -2.45474 3.76912 0
M  V30 18612 C 1781.94 -3.81812 2.18878 0
M  V30 18613 H 1779.06 -0.55625 0.483482 0
M  V30 18614 H 1781.7 -0.886251 1.68064 0
M  V30 18615 H 1779.85 -3.35097 1.96576 0
M  V30 18616 H 1781.52 -1.96182 4.17505 0
M  V30 18617 H 1779.77 -1.78181 3.95517 0
M  V30 18618 H 1780.44 -3.35937 4.38007 0
M  V30 18619 H 1782.91 -3.36091 2.4532 0
M  V30 18620 H 1781.79 -4.68087 2.86681 0
M  V30 18621 H 1782.05 -4.26021 1.18146 0
M  V30 18622 N 1781.11 -1.21927 -0.998575 0
M  V30 18623 C 1782.53 -0.978007 -1.26124 0
M  V30 18624 C 1782.73 0.3318 -1.98749 0
M  V30 18625 O 1781.78 1.05585 -2.29364 0
M  V30 18626 C 1783.1 -2.17291 -2.07858 0
M  V30 18627 C 1784.64 -2.21586 -2.21062 0
M  V30 18628 C 1785.12 -3.40613 -3.06181 0
M  V30 18629 N 1786.61 -3.40739 -3.13769 0
M  V30 18630 C 1787.34 -4.29488 -3.79905 0
M  V30 18631 N 1786.84 -5.28445 -4.48015 0
M  V30 18632 N 1788.63 -4.17279 -3.76609 0
M  V30 18633 H 1780.78 -2.06149 -0.51151 0
M  V30 18634 H 1783.05 -0.903039 -0.288487 0
M  V30 18635 H 1782.75 -3.12246 -1.61851 0
M  V30 18636 H 1782.63 -2.16883 -3.08612 0
M  V30 18637 H 1785.01 -1.27183 -2.66286 0
M  V30 18638 H 1785.1 -2.26035 -1.19757 0
M  V30 18639 H 1784.74 -4.35313 -2.61659 0
M  V30 18640 H 1784.67 -3.33403 -4.07615 0
M  V30 18641 H 1787.16 -2.69128 -2.65289 0
M  V30 18642 H 1787.47 -5.92454 -4.96203 0
M  V30 18643 H 1785.82 -5.32364 -4.46782 0
M  V30 18644 H 1789.01 -3.39226 -3.22557 0
M  V30 18645 H 1789.18 -4.86651 -4.27873 0
M  V30 18646 N 1782.59 1.19452 -1.02805 0
M  V30 18647 C 1783.83 1.89662 -0.734839 0
M  V30 18648 C 1784.19 1.78072 0.728567 0
M  V30 18649 O 1783.48 1.16172 1.52363 0
M  V30 18650 C 1783.68 3.3941 -1.11964 0
M  V30 18651 C 1783.51 3.65573 -2.61891 0
M  V30 18652 C 1782.28 3.83649 -3.28849 0
M  V30 18653 C 1784.47 3.67197 -3.60098 0
M  V30 18654 N 1782.46 3.97434 -4.67888 0
M  V30 18655 C 1783.83 3.86544 -4.84751 0
M  V30 18656 C 1785.88 3.50219 -3.53908 0
M  V30 18657 C 1784.58 3.90672 -6.0396 0
M  V30 18658 C 1786.61 3.55624 -4.72531 0
M  V30 18659 C 1785.97 3.75455 -5.95997 0
M  V30 18660 H 1782.07 0.713192 -0.320751 0
M  V30 18661 H 1784.66 1.43565 -1.31519 0
M  V30 18662 H 1782.83 3.84232 -0.567503 0
M  V30 18663 H 1784.56 3.97136 -0.778765 0
M  V30 18664 H 1781.31 3.82504 -2.79263 0
M  V30 18665 H 1781.74 4.08178 -5.40111 0
M  V30 18666 H 1786.38 3.33843 -2.59439 0
M  V30 18667 H 1784.1 4.0584 -6.98799 0
M  V30 18668 H 1787.68 3.43778 -4.69369 0
M  V30 18669 H 1786.56 3.79511 -6.86252 0
M  V30 18670 N 1784.07 0.805805 1.35442 0
M  V30 18671 C 1785 0.230077 2.32364 0
M  V30 18672 C 1785.98 -0.644034 1.57436 0
M  V30 18673 O 1787.16 -0.574467 1.85509 0
M  V30 18674 C 1784.29 -0.622814 3.4167 0
M  V30 18675 C 1783.25 0.152739 4.27727 0
M  V30 18676 C 1782.57 -0.821803 5.28347 0
M  V30 18677 C 1783.87 1.35128 5.04517 0
M  V30 18678 H 1785.57 1.03983 2.80763 0
M  V30 18679 H 1783.11 0.501467 1.34986 0
M  V30 18680 H 1785.07 -1.03564 4.08476 0
M  V30 18681 H 1783.79 -1.46544 2.91877 0
M  V30 18682 H 1782.45 0.546732 3.625 0
M  V30 18683 H 1782.1 -1.65991 4.74822 0
M  V30 18684 H 1781.8 -0.307209 5.86796 0
M  V30 18685 H 1783.32 -1.23285 5.98024 0
M  V30 18686 H 1784.73 1.01337 5.64273 0
M  V30 18687 H 1783.13 1.80031 5.72459 0
M  V30 18688 H 1784.2 2.13833 4.35205 0
M  V30 18689 N 1785.54 -1.47344 0.559239 0
M  V30 18690 C 1786.51 -2.28516 -0.17688 0
M  V30 18691 C 1787.51 -1.37065 -0.840823 0
M  V30 18692 O 1788.7 -1.59676 -0.696373 0
M  V30 18693 C 1785.83 -3.16803 -1.25892 0
M  V30 18694 H 1787.02 -2.95068 0.536174 0
M  V30 18695 H 1784.58 -1.53067 0.316263 0
M  V30 18696 H 1785.31 -2.54947 -2.00431 0
M  V30 18697 H 1785.1 -3.84108 -0.787625 0
M  V30 18698 H 1786.59 -3.77958 -1.77589 0
M  V30 18699 N 1787.02 -0.295795 -1.54799 0
M  V30 18700 C 1788.27 0.315473 -2.00331 0
M  V30 18701 C 1788.6 1.53939 -1.18392 0
M  V30 18702 O 1787.88 1.92767 -0.259086 0
M  V30 18703 C 1788.16 0.677227 -3.53674 0
M  V30 18704 C 1788.01 -0.555462 -4.46357 0
M  V30 18705 C 1789.33 1.50576 -4.1354 0
M  V30 18706 H 1786.45 0.113191 -0.728256 0
M  V30 18707 H 1789.09 -0.406858 -1.85593 0
M  V30 18708 H 1787.24 1.29264 -3.66365 0
M  V30 18709 H 1788.91 -1.19397 -4.45581 0
M  V30 18710 H 1787.16 -1.18968 -4.17168 0
M  V30 18711 H 1787.83 -0.25828 -5.51395 0
M  V30 18712 H 1790.3 0.985819 -4.04253 0
M  V30 18713 H 1789.18 1.72766 -5.21002 0
M  V30 18714 H 1789.44 2.49334 -3.65082 0
M  V30 18715 N 1788.5 1.57583 -0.0234236 0
M  V30 18716 C 1789.43 2.06766 0.988961 0
M  V30 18717 C 1790.45 0.98998 1.29241 0
M  V30 18718 O 1791.64 1.2663 1.25806 0
M  V30 18719 C 1788.74 2.47244 2.31784 0
M  V30 18720 C 1787.91 3.78023 2.20039 0
M  V30 18721 C 1786.97 4.05113 3.35812 0
M  V30 18722 O 1785.99 4.75447 3.12952 0
M  V30 18723 N 1787.2 3.5484 4.59422 0
M  V30 18724 H 1789.96 2.94242 0.569355 0
M  V30 18725 H 1787.52 1.61073 0.163461 0
M  V30 18726 H 1789.51 2.62463 3.08051 0
M  V30 18727 H 1788.08 1.65163 2.65405 0
M  V30 18728 H 1787.3 3.72656 1.28534 0
M  V30 18729 H 1788.59 4.63717 2.09389 0
M  V30 18730 H 1787.99 2.97928 4.8089 0
M  V30 18731 H 1786.55 3.75348 5.32877 0
M  V30 18732 N 1789.98 -0.249655 1.5561 0
M  V30 18733 C 1791.2 -0.999931 1.81703 0
M  V30 18734 C 1791.63 -1.7827 0.600113 0
M  V30 18735 O 1790.99 -1.75606 -0.450799 0
M  V30 18736 C 1791.04 -1.9157 3.05505 0
M  V30 18737 O 1790.14 -3.00702 2.82227 0
M  V30 18738 H 1789.48 -0.284673 0.599881 0
M  V30 18739 H 1792.01 -0.27148 2.02791 0
M  V30 18740 H 1792.02 -2.33088 3.34864 0
M  V30 18741 H 1790.7 -1.34014 3.93717 0
M  V30 18742 H 1789.27 -2.63332 2.64027 0
M  V30 18743 N 1791.46 -1.48941 -0.515198 0
M  V30 18744 C 1792.87 -1.35389 -0.8451 0
M  V30 18745 C 1793.07 -0.376141 -1.97958 0
M  V30 18746 O 1792.13 0.197324 -2.51728 0
M  V30 18747 C 1793.44 -2.75775 -1.19868 0
M  V30 18748 C 1794.99 -2.84373 -1.30772 0
M  V30 18749 C 1795.47 -4.25494 -1.69466 0
M  V30 18750 N 1796.96 -4.28237 -1.76542 0
M  V30 18751 C 1797.69 -5.34384 -2.07898 0
M  V30 18752 N 1797.19 -6.50792 -2.37575 0
M  V30 18753 N 1798.98 -5.21789 -2.09029 0
M  V30 18754 H 1791.13 -2.11117 0.233118 0
M  V30 18755 H 1793.39 -0.947083 0.0416757 0
M  V30 18756 H 1793.1 -3.48955 -0.438565 0
M  V30 18757 H 1792.97 -3.10243 -2.14545 0
M  V30 18758 H 1795.36 -2.11439 -2.05858 0
M  V30 18759 H 1795.44 -2.53506 -0.341808 0
M  V30 18760 H 1795.09 -4.98949 -0.949358 0
M  V30 18761 H 1795.02 -4.53814 -2.67133 0
M  V30 18762 H 1797.51 -3.44278 -1.55824 0
M  V30 18763 H 1797.82 -7.27518 -2.60649 0
M  V30 18764 H 1796.17 -6.54042 -2.35062 0
M  V30 18765 H 1799.36 -4.29858 -1.85311 0
M  V30 18766 H 1799.53 -6.0461 -2.33133 0
M  V30 18767 N 1792.94 0.765193 -1.37777 0
M  V30 18768 C 1794.35 1.06666 -1.1872 0
M  V30 18769 C 1794.55 2.01481 -0.0278636 0
M  V30 18770 O 1793.61 2.44514 0.630006 0
M  V30 18771 C 1794.92 1.65787 -2.50868 0
M  V30 18772 C 1796.47 1.78014 -2.57449 0
M  V30 18773 C 1796.94 2.40548 -3.89744 0
M  V30 18774 N 1798.43 2.47992 -3.91221 0
M  V30 18775 C 1799.17 2.97245 -4.9034 0
M  V30 18776 N 1798.67 3.46621 -5.99855 0
M  V30 18777 N 1800.46 2.96179 -4.77739 0
M  V30 18778 H 1792.61 0.135775 -2.11966 0
M  V30 18779 H 1794.87 0.122863 -0.940005 0
M  V30 18780 H 1794.58 1.03588 -3.36099 0
M  V30 18781 H 1794.45 2.65 -2.6843 0
M  V30 18782 H 1796.84 2.39345 -1.72621 0
M  V30 18783 H 1796.92 0.775388 -2.43765 0
M  V30 18784 H 1796.56 1.79855 -4.74989 0
M  V30 18785 H 1796.49 3.41643 -4.00734 0
M  V30 18786 H 1798.99 2.13056 -3.12114 0
M  V30 18787 H 1799.3 3.82625 -6.7143 0
M  V30 18788 H 1797.64 3.44709 -6.0349 0
M  V30 18789 H 1800.83 2.56909 -3.913 0
M  V30 18790 H 1801.01 3.34253 -5.55139 0
M  V30 18791 N 1794.41 1.22455 0.992094 0
M  V30 18792 C 1795.66 1.0496 1.73175 0
M  V30 18793 C 1795.99 -0.41518 1.90017 0
M  V30 18794 O 1795.24 -1.32408 1.44107 0
M  V30 18795 C 1795.54 1.70683 3.1401 0
M  V30 18796 C 1795.21 3.20579 3.1708 0
M  V30 18797 C 1793.87 3.6148 3.17626 0
M  V30 18798 C 1796.22 4.16519 3.13308 0
M  V30 18799 C 1793.55 4.968 3.121 0
M  V30 18800 C 1795.9 5.51816 3.09324 0
M  V30 18801 C 1794.57 5.92096 3.08185 0
M  V30 18802 H 1793.84 0.384075 0.633694 0
M  V30 18803 H 1796.48 1.52228 1.16184 0
M  V30 18804 H 1794.79 1.15742 3.74314 0
M  V30 18805 H 1796.49 1.54636 3.69985 0
M  V30 18806 H 1793.08 2.88012 3.17406 0
M  V30 18807 H 1797.26 3.85937 3.12036 0
M  V30 18808 H 1792.52 5.27238 3.09564 0
M  V30 18809 H 1796.69 6.25882 3.0536 0
M  V30 18810 H 1794.32 6.96919 3.03658 0
M  V30 18811 N 1795.89 -1.18905 1.03437 0
M  V30 18812 C 1796.85 -2.20529 0.624461 0
M  V30 18813 C 1797.85 -1.57688 -0.314824 0
M  V30 18814 O 1799.04 -1.73906 -0.101082 0
M  V30 18815 C 1796.18 -3.40793 -0.0854166 0
M  V30 18816 H 1797.37 -2.58309 1.5237 0
M  V30 18817 H 1794.92 -1.32679 0.826189 0
M  V30 18818 H 1795.66 -3.08538 -0.998747 0
M  V30 18819 H 1795.44 -3.87642 0.589596 0
M  V30 18820 H 1796.93 -4.16055 -0.358938 0
M  V30 18821 N 1797.37 -0.812977 -1.35013 0
M  V30 18822 C 1798.78 -0.45647 -1.81034 0
M  V30 18823 C 1799.13 1.02217 -1.6747 0
M  V30 18824 O 1798.26 1.79478 -1.20898 0
M  V30 18825 C 1798.85 -0.821773 -3.28683 0
M  V30 18826 C 1797.41 -0.517776 -3.72822 0
M  V30 18827 C 1796.56 -1.04399 -2.56897 0
M  V30 18828 H 1799.51 -1.00405 -1.22901 0
M  V30 18829 H 1799.53 -0.12173 -3.80305 0
M  V30 18830 H 1799.04 -1.89799 -3.38523 0
M  V30 18831 H 1797.14 0.549446 -3.68527 0
M  V30 18832 H 1797.26 -1.05488 -4.67343 0
M  V30 18833 H 1795.62 -0.466002 -2.50401 0
M  V30 18834 H 1796.4 -2.12645 -2.69512 0
M  V30 18835 N 1798.85 1.47045 -0.567045 0
M  V30 18836 C 1799.78 2.32929 0.163191 0
M  V30 18837 C 1800.76 1.44393 0.899142 0
M  V30 18838 O 1801.94 1.73235 0.87768 0
M  V30 18839 C 1799.07 3.26369 1.18745 0
M  V30 18840 C 1798.03 4.24223 0.567335 0
M  V30 18841 C 1797.35 5.07058 1.69693 0
M  V30 18842 C 1798.65 5.2004 -0.485319 0
M  V30 18843 H 1800.35 2.94233 -0.553837 0
M  V30 18844 H 1797.89 1.41488 -0.267789 0
M  V30 18845 H 1799.85 3.85299 1.70654 0
M  V30 18846 H 1798.57 2.6314 1.93455 0
M  V30 18847 H 1797.23 3.66534 0.0694525 0
M  V30 18848 H 1796.88 4.40226 2.43331 0
M  V30 18849 H 1796.58 5.73316 1.28774 0
M  V30 18850 H 1798.1 5.68848 2.2191 0
M  V30 18851 H 1799.52 5.73277 -0.0519049 0
M  V30 18852 H 1797.91 5.94554 -0.813942 0
M  V30 18853 H 1798.98 4.64921 -1.37754 0
M  V30 18854 N 1800.33 0.304 1.5464 0
M  V30 18855 C 1801.56 -0.306471 2.04314 0
M  V30 18856 C 1801.96 -1.47839 1.18069 0
M  V30 18857 O 1801.31 -1.82612 0.199666 0
M  V30 18858 C 1801.37 -0.822694 3.4996 0
M  V30 18859 C 1801.03 0.224343 4.56449 0
M  V30 18860 C 1802.03 1.05382 5.09108 0
M  V30 18861 C 1799.71 0.366905 5.00958 0
M  V30 18862 C 1801.71 2.01176 6.0482 0
M  V30 18863 C 1799.4 1.32829 5.96489 0
M  V30 18864 C 1800.39 2.1492 6.48304 0
M  V30 18865 O 1800.08 3.09429 7.41963 0
M  V30 18866 H 1799.81 -0.0701033 0.672355 0
M  V30 18867 H 1802.37 0.442449 2.00578 0
M  V30 18868 H 1800.6 -1.62219 3.5103 0
M  V30 18869 H 1802.29 -1.34938 3.82814 0
M  V30 18870 H 1803.05 0.954561 4.75514 0
M  V30 18871 H 1798.93 -0.262121 4.60254 0
M  V30 18872 H 1802.48 2.65291 6.45187 0
M  V30 18873 H 1798.37 1.42826 6.29501 0
M  V30 18874 H 1799.14 3.04442 7.59774 0
M  V30 18875 N 1801.8 -1.57568 0.0317802 0
M  V30 18876 C 1802.77 -2.09296 -0.934239 0
M  V30 18877 C 1803.77 -1.00855 -1.25239 0
M  V30 18878 O 1804.96 -1.27004 -1.19229 0
M  V30 18879 C 1802.09 -2.56103 -2.24998 0
M  V30 18880 H 1803.28 -2.95933 -0.486183 0
M  V30 18881 H 1800.83 -1.54796 -0.2163 0
M  V30 18882 H 1801.57 -1.72803 -2.74426 0
M  V30 18883 H 1801.35 -3.35329 -2.03216 0
M  V30 18884 H 1802.84 -2.96339 -2.94233 0
M  V30 18885 N 1803.28 0.241399 -1.5574 0
M  V30 18886 C 1804.53 0.970098 -1.78093 0
M  V30 18887 C 1804.86 1.84763 -0.598005 0
M  V30 18888 O 1804.14 1.90268 0.403516 0
M  V30 18889 C 1804.42 1.82594 -3.10373 0
M  V30 18890 C 1804.27 0.976228 -4.39078 0
M  V30 18891 C 1805.59 2.80743 -3.38927 0
M  V30 18892 H 1802.71 0.35125 -0.647914 0
M  V30 18893 H 1805.35 0.240232 -1.88475 0
M  V30 18894 H 1803.5 2.44823 -3.01652 0
M  V30 18895 H 1805.17 0.37222 -4.59796 0
M  V30 18896 H 1803.42 0.280807 -4.3289 0
M  V30 18897 H 1804.09 1.60899 -5.2803 0
M  V30 18898 H 1806.56 2.28651 -3.47646 0
M  V30 18899 H 1805.44 3.37743 -4.3269 0
M  V30 18900 H 1805.7 3.57484 -2.6011 0
M  V30 18901 N 1804.76 1.49212 0.507292 0
M  V30 18902 C 1805.67 1.68141 1.63603 0
M  V30 18903 C 1806.69 0.563959 1.64607 0
M  V30 18904 O 1807.86 0.837885 1.83143 0
M  V30 18905 C 1804.93 1.73793 2.99995 0
M  V30 18906 C 1803.99 2.9733 3.09667 0
M  V30 18907 C 1803.22 3.02703 4.39553 0
M  V30 18908 O 1803.44 2.15844 5.27985 0
M  V30 18909 O 1802.38 3.95105 4.54066 0
M  V30 18910 H 1806.2 2.63749 1.50565 0
M  V30 18911 H 1803.79 1.32879 0.682893 0
M  V30 18912 H 1805.67 1.79901 3.81069 0
M  V30 18913 H 1804.35 0.813622 3.13308 0
M  V30 18914 H 1803.25 2.96743 2.27804 0
M  V30 18915 H 1804.59 3.8922 3.01278 0
M  V30 18916 N 1806.24 -0.757876 1.38181 0
M  V30 18917 C 1807.2 -1.85317 1.34871 0
M  V30 18918 C 1808.2 -1.58844 0.250041 0
M  V30 18919 O 1809.39 -1.66668 0.506688 0
M  V30 18920 C 1806.52 -3.22712 1.09864 0
M  V30 18921 H 1807.72 -1.89661 2.32312 0
M  V30 18922 H 1805.27 -0.959122 1.23412 0
M  V30 18923 H 1806 -3.24039 0.130112 0
M  V30 18924 H 1805.79 -3.4332 1.89403 0
M  V30 18925 H 1807.28 -4.02789 1.10232 0
M  V30 18926 N 1807.72 -1.22979 -0.985586 0
M  V30 18927 C 1809.13 -0.991329 -1.25079 0
M  V30 18928 C 1809.33 0.310701 -1.9909 0
M  V30 18929 O 1808.39 1.03147 -2.30471 0
M  V30 18930 C 1809.7 -2.19483 -2.05542 0
M  V30 18931 C 1811.25 -2.23918 -2.187 0
M  V30 18932 C 1811.72 -3.43841 -3.02552 0
M  V30 18933 N 1813.22 -3.44048 -3.10137 0
M  V30 18934 C 1813.95 -4.33493 -3.75328 0
M  V30 18935 N 1813.45 -5.33167 -4.42385 0
M  V30 18936 N 1815.24 -4.2125 -3.72163 0
M  V30 18937 H 1807.39 -2.0668 -0.489617 0
M  V30 18938 H 1809.65 -0.906048 -0.278892 0
M  V30 18939 H 1809.36 -3.13945 -1.5853 0
M  V30 18940 H 1809.23 -2.20144 -3.06295 0
M  V30 18941 H 1811.62 -1.3 -2.64923 0
M  V30 18942 H 1811.7 -2.27293 -1.17353 0
M  V30 18943 H 1811.35 -4.38063 -2.57027 0
M  V30 18944 H 1811.28 -3.37707 -4.04056 0
M  V30 18945 H 1813.77 -2.71927 -2.6242 0
M  V30 18946 H 1814.08 -5.97684 -4.89892 0
M  V30 18947 H 1812.42 -5.37073 -4.4111 0
M  V30 18948 H 1815.62 -3.42629 -3.18941 0
M  V30 18949 H 1815.79 -4.91162 -4.22687 0
M  V30 18950 N 1809.19 1.18355 -1.04066 0
M  V30 18951 C 1810.61 1.40349 -0.759898 0
M  V30 18952 C 1810.81 1.90709 0.650574 0
M  V30 18953 O 1809.87 2.09142 1.41477 0
M  V30 18954 C 1811.18 2.40426 -1.80599 0
M  V30 18955 C 1812.73 2.54153 -1.8269 0
M  V30 18956 C 1813.2 3.57494 -2.8629 0
M  V30 18957 N 1814.69 3.65001 -2.85181 0
M  V30 18958 C 1815.43 4.44688 -3.61995 0
M  V30 18959 N 1814.92 5.27984 -4.48559 0
M  V30 18960 N 1816.72 4.39451 -3.50484 0
M  V30 18961 H 1808.87 0.839924 -1.95087 0
M  V30 18962 H 1811.13 0.431492 -0.844108 0
M  V30 18963 H 1810.84 2.10471 -2.81771 0
M  V30 18964 H 1810.71 3.39773 -1.63812 0
M  V30 18965 H 1813.1 2.83424 -0.821889 0
M  V30 18966 H 1813.18 1.54919 -2.03553 0
M  V30 18967 H 1812.82 3.28963 -3.8697 0
M  V30 18968 H 1812.75 4.56405 -2.62682 0
M  V30 18969 H 1815.24 3.05522 -2.22407 0
M  V30 18970 H 1815.56 5.85939 -5.0388 0
M  V30 18971 H 1813.9 5.27404 -4.52626 0
M  V30 18972 H 1817.09 3.73426 -2.8226 0
M  V30 18973 H 1817.27 5.01313 -4.10596 0
M  V30 18974 N 1810.67 0.820125 1.3458 0
M  V30 18975 C 1811.92 0.403287 1.97627 0
M  V30 18976 C 1812.23 -1.0385 1.65754 0
M  V30 18977 O 1813.44 -1.55911 2.2227 0
M  V30 18978 C 1811.9 0.670161 3.53606 0
M  V30 18979 C 1811.5 2.12538 3.94375 0
M  V30 18980 C 1813.25 0.31935 4.23297 0
M  V30 18981 C 1811.16 2.3373 5.43254 0
M  V30 18982 H 1810.09 0.147062 0.739519 0
M  V30 18983 H 1812.74 1.00609 1.53461 0
M  V30 18984 H 1811.12 -0.00276896 3.96 0
M  V30 18985 H 1812.29 2.83724 3.63094 0
M  V30 18986 H 1810.61 2.43736 3.37612 0
M  V30 18987 H 1813.2 0.45555 5.32756 0
M  V30 18988 H 1813.55 -0.735875 4.09745 0
M  V30 18989 H 1814.08 0.946743 3.8637 0
M  V30 18990 H 1810.82 3.37747 5.61789 0
M  V30 18991 H 1810.34 1.67084 5.76058 0
M  V30 18992 H 1812.02 2.1595 6.09897 0
M  V30 18993 N 1812.15 -1.46743 0.574835 0
M  V30 18994 C 1813.38 -2.07311 0.0608779 0
M  V30 18995 C 1813.8 -1.422 -1.23129 0
M  V30 18996 O 1813.16 -0.503042 -1.74181 0
M  V30 18997 C 1813.21 -3.60462 -0.0996676 0
M  V30 18998 O 1812.31 -3.95806 -1.15808 0
M  V30 18999 H 1811.65 -0.661351 0.0592542 0
M  V30 19000 H 1814.18 -1.885 0.795538 0
M  V30 19001 H 1814.19 -4.06833 -0.308329 0
M  V30 19002 H 1812.87 -4.07246 0.844018 0
M  V30 19003 H 1811.44 -3.61155 -0.928504 0
M  V30 19004 N 1813.63 -0.312197 -1.54477 0
M  V30 19005 C 1814.58 0.558894 -2.23931 0
M  V30 19006 C 1815.55 1.12071 -1.22594 0
M  V30 19007 O 1816.73 1.16316 -1.51245 0
M  V30 19008 C 1813.87 1.71948 -2.99212 0
M  V30 19009 C 1812.98 1.18799 -4.15344 0
M  V30 19010 C 1812.12 2.31334 -4.78182 0
M  V30 19011 C 1811.16 1.75375 -5.86438 0
M  V30 19012 N 1810.29 2.81528 -6.43184 0
M  V30 19013 H 1815.13 -0.0399708 -2.97973 0
M  V30 19014 H 1812.67 -0.0314967 -1.47066 0
M  V30 19015 H 1814.63 2.40225 -3.41098 0
M  V30 19016 H 1813.26 2.28981 -2.27525 0
M  V30 19017 H 1812.31 0.397122 -3.78321 0
M  V30 19018 H 1813.62 0.738426 -4.93304 0
M  V30 19019 H 1812.78 3.07537 -5.22978 0
M  V30 19020 H 1811.52 2.79622 -3.99578 0
M  V30 19021 H 1810.52 0.976658 -5.41056 0
M  V30 19022 H 1811.75 1.27978 -6.66932 0
M  V30 19023 H 1809.69 3.29129 -5.6746 0
M  V30 19024 H 1809.61 2.41101 -7.16524 0
M  V30 19025 H 1810.88 3.57595 -6.92637 0
M  V30 19026 N 1815.11 1.57549 -0.040136 0
M  V30 19027 C 1816.04 2.06413 0.973089 0
M  V30 19028 C 1817.02 0.962235 1.31072 0
M  V30 19029 O 1818.2 1.23337 1.42549 0
M  V30 19030 C 1815.33 2.49541 2.29013 0
M  V30 19031 C 1814.37 3.70858 2.10634 0
M  V30 19032 S 1815.21 5.17013 1.39493 0
M  V30 19033 C 1816.36 5.63445 2.72544 0
M  V30 19034 H 1816.6 2.92032 0.557186 0
M  V30 19035 H 1814.13 1.53441 0.171846 0
M  V30 19036 H 1816.09 2.75052 3.04723 0
M  V30 19037 H 1814.75 1.64247 2.67734 0
M  V30 19038 H 1813.94 3.98918 3.08027 0
M  V30 19039 H 1813.54 3.45555 1.43065 0
M  V30 19040 H 1815.84 5.68357 3.68749 0
M  V30 19041 H 1816.78 6.62826 2.49134 0
M  V30 19042 H 1817.19 4.91133 2.78296 0
M  V30 19043 N 1816.58 -0.233136 1.55866 0
M  V30 19044 C 1817.49 -1.31004 1.94615 0
M  V30 19045 C 1818.51 -1.51915 0.848399 0
M  V30 19046 O 1819.69 -1.6527 1.15098 0
M  V30 19047 C 1816.75 -2.64203 2.24494 0
M  V30 19048 C 1815.81 -2.51695 3.47776 0
M  V30 19049 C 1815.05 -3.78542 3.7622 0
M  V30 19050 O 1815.27 -4.81043 3.06519 0
M  V30 19051 O 1814.2 -3.76348 4.69729 0
M  V30 19052 H 1818.03 -1.01129 2.86368 0
M  V30 19053 H 1815.61 -0.435043 1.42926 0
M  V30 19054 H 1817.5 -3.42889 2.44959 0
M  V30 19055 H 1816.17 -2.93782 1.35918 0
M  V30 19056 H 1815.08 -1.71248 3.32603 0
M  V30 19057 H 1816.41 -2.27058 4.36698 0
M  V30 19058 N 1818.06 -1.49479 -0.499372 0
M  V30 19059 C 1819.29 -1.63025 -1.28209 0
M  V30 19060 C 1819.71 -0.302238 -1.85656 0
M  V30 19061 O 1819.07 0.730355 -1.65938 0
M  V30 19062 C 1819.12 -2.70287 -2.38699 0
M  V30 19063 O 1818.22 -2.29573 -3.42593 0
M  V30 19064 H 1817.56 -0.545605 -0.378432 0
M  V30 19065 H 1820.09 -1.95677 -0.597628 0
M  V30 19066 H 1820.1 -2.92505 -2.84438 0
M  V30 19067 H 1818.78 -3.66684 -1.96253 0
M  V30 19068 H 1817.36 -2.17692 -3.02761 0
M  V30 19069 N 1819.54 0.750537 -1.38581 0
M  V30 19070 C 1820.77 1.53978 -1.38196 0
M  V30 19071 C 1821.18 1.8878 0.0274976 0
M  V30 19072 O 1820.54 1.52997 0.994894 0
M  V30 19073 C 1820.59 2.83702 -2.24043 0
M  V30 19074 O 1820.31 2.50384 -3.59499 0
M  V30 19075 C 1821.81 3.77823 -2.31872 0
M  V30 19076 H 1819.03 0.476345 -0.472585 0
M  V30 19077 H 1821.58 0.928634 -1.82199 0
M  V30 19078 H 1819.73 3.41187 -1.83494 0
M  V30 19079 H 1820.15 3.33605 -4.04732 0
M  V30 19080 H 1821.62 4.65788 -2.96218 0
M  V30 19081 H 1822.1 4.18474 -1.33327 0
M  V30 19082 H 1822.7 3.26262 -2.72824 0
M  V30 19083 N 1821.02 1.235 0.979051 0
M  V30 19084 C 1822.27 1.06197 1.71479 0
M  V30 19085 C 1822.58 -0.401066 1.91444 0
M  V30 19086 O 1823.79 -0.69406 2.62479 0
M  V30 19087 C 1822.24 1.85189 3.08598 0
M  V30 19088 C 1821.85 3.35831 2.96516 0
M  V30 19089 C 1823.6 1.76379 3.86122 0
M  V30 19090 C 1821.5 4.0721 4.28875 0
M  V30 19091 H 1820.43 0.393779 0.643004 0
M  V30 19092 H 1823.08 1.47479 1.09188 0
M  V30 19093 H 1821.47 1.36714 3.71652 0
M  V30 19094 H 1822.64 3.91803 2.42543 0
M  V30 19095 H 1820.95 3.45469 2.32466 0
M  V30 19096 H 1823.55 2.2702 4.84114 0
M  V30 19097 H 1823.89 0.726826 4.09906 0
M  V30 19098 H 1824.43 2.22473 3.29773 0
M  V30 19099 H 1821.17 5.11218 4.10288 0
M  V30 19100 H 1820.69 3.56025 4.82707 0
M  V30 19101 H 1822.37 4.13579 4.97555 0
M  V30 19102 N 1822.5 -1.17802 1.04693 0
M  V30 19103 C 1823.45 -2.23698 0.637319 0
M  V30 19104 C 1824.44 -1.65974 -0.338957 0
M  V30 19105 O 1825.65 -1.78822 -0.205565 0
M  V30 19106 H 1822.02 -0.728146 0.187903 0
M  V30 19107 H 1823.99 -2.55549 1.5407 0
M  V30 19108 C 1822.74 -3.47693 0.0227662 0
M  V30 19109 H 1822.06 -3.92412 0.765058 0
M  V30 19110 H 1823.5 -4.23394 -0.22653 0
M  V30 19111 C 1821.96 -3.13679 -1.22912 0
M  V30 19112 O 1822.49 -3.27993 -2.31913 0
M  V30 19113 N 1820.7 -2.67948 -1.12483 0
M  V30 19114 H 1820.25 -2.565 -0.237818 0
M  V30 19115 H 1820.2 -2.45562 -1.96333 0
M  V30 19116 N 1823.98 -0.827251 -1.34143 0
M  V30 19117 C 1824.92 -0.240552 -2.31353 0
M  V30 19118 C 1825.92 0.62109 -1.57603 0
M  V30 19119 O 1827.12 0.511947 -1.72566 0
M  V30 19120 H 1823.5 -0.0590494 -0.749678 0
M  V30 19121 H 1825.47 -1.07518 -2.78357 0
M  V30 19122 C 1824.22 0.579321 -3.4284 0
M  V30 19123 H 1823.54 -0.0743746 -3.99731 0
M  V30 19124 H 1824.98 0.955871 -4.13085 0
M  V30 19125 C 1823.44 1.75345 -2.87673 0
M  V30 19126 O 1823.97 2.85178 -2.82907 0
M  V30 19127 N 1822.18 1.57158 -2.44437 0
M  V30 19128 H 1821.72 0.678148 -2.48513 0
M  V30 19129 H 1821.68 2.35869 -2.07877 0
M  V30 19130 N 1825.45 1.46436 -0.582609 0
M  V30 19131 C 1826.68 2.06469 -0.0736587 0
M  V30 19132 C 1827.09 1.43193 1.23662 0
M  V30 19133 O 1826.43 0.531376 1.75847 0
M  V30 19134 C 1826.5 3.59114 0.166531 0
M  V30 19135 C 1826.16 4.44581 -1.05814 0
M  V30 19136 C 1827.16 4.81125 -1.97016 0
M  V30 19137 C 1824.84 4.85718 -1.27996 0
M  V30 19138 C 1826.84 5.57632 -3.08747 0
M  V30 19139 C 1824.52 5.61986 -2.40032 0
M  V30 19140 C 1825.52 5.97856 -3.30237 0
M  V30 19141 O 1825.21 6.72582 -4.40328 0
M  V30 19142 H 1824.94 0.673802 -0.0544673 0
M  V30 19143 H 1827.5 1.89053 -0.803005 0
M  V30 19144 H 1825.73 3.74837 0.950489 0
M  V30 19145 H 1827.41 4.01075 0.62398 0
M  V30 19146 H 1828.18 4.49922 -1.81094 0
M  V30 19147 H 1824.06 4.57249 -0.586917 0
M  V30 19148 H 1827.6 5.85549 -3.7918 0
M  V30 19149 H 1823.5 5.92602 -2.55917 0
M  V30 19150 H 1824.27 6.91006 -4.38694 0
M  V30 19151 N 1826.93 0.320385 1.54309 0
M  V30 19152 C 1828.18 -0.284021 1.9969 0
M  V30 19153 C 1828.49 -1.53496 1.21237 0
M  V30 19154 O 1829.7 -2.21517 1.5698 0
M  V30 19155 C 1828.16 -0.556621 3.5557 0
M  V30 19156 C 1827.76 0.677086 4.42854 0
M  V30 19157 C 1829.51 -1.12116 4.09427 0
M  V30 19158 C 1827.41 0.376566 5.902 0
M  V30 19159 H 1826.34 -0.109905 0.745947 0
M  V30 19160 H 1829 0.432113 1.7834 0
M  V30 19161 H 1827.38 -1.33286 3.72895 0
M  V30 19162 H 1828.55 1.45266 4.37304 0
M  V30 19163 H 1826.87 1.16161 3.99869 0
M  V30 19164 H 1829.46 -1.36057 5.171 0
M  V30 19165 H 1829.81 -2.06954 3.61215 0
M  V30 19166 H 1830.34 -0.406174 3.95721 0
M  V30 19167 H 1827.08 1.29403 6.426 0
M  V30 19168 H 1826.6 -0.36136 5.9871 0
M  V30 19169 H 1828.28 -0.014773 6.46998 0
M  V30 19170 N 1828.41 -1.57525 0.0484906 0
M  V30 19171 C 1829.34 -2.08313 -0.955941 0
M  V30 19172 C 1830.35 -1.01042 -1.2765 0
M  V30 19173 O 1831.54 -1.28615 -1.23776 0
M  V30 19174 C 1828.64 -2.509 -2.27821 0
M  V30 19175 C 1827.82 -3.81476 -2.13997 0
M  V30 19176 C 1826.88 -4.10404 -3.29325 0
M  V30 19177 O 1825.9 -4.80366 -3.05348 0
M  V30 19178 N 1827.1 -3.62104 -4.53719 0
M  V30 19179 H 1829.87 -2.95111 -0.522472 0
M  V30 19180 H 1827.43 -1.61312 -0.137816 0
M  V30 19181 H 1829.42 -2.6733 -3.03837 0
M  V30 19182 H 1827.99 -1.69365 -2.62744 0
M  V30 19183 H 1827.21 -3.74654 -1.22589 0
M  V30 19184 H 1828.5 -4.6699 -2.01985 0
M  V30 19185 H 1827.9 -3.05541 -4.7609 0
M  V30 19186 H 1826.45 -3.83778 -5.26838 0
M  V30 19187 N 1829.89 0.224867 -1.55988 0
M  V30 19188 C 1831.13 0.949747 -1.78846 0
M  V30 19189 C 1831.46 1.84465 -0.616678 0
M  V30 19190 O 1830.72 1.91587 0.399098 0
M  V30 19191 C 1831.02 1.8227 -3.07429 0
M  V30 19192 C 1830.68 1.08131 -4.37743 0
M  V30 19193 C 1829.34 0.876497 -4.7315 0
M  V30 19194 C 1831.7 0.557505 -5.1821 0
M  V30 19195 C 1829.02 0.13593 -5.86543 0
M  V30 19196 C 1831.38 -0.169702 -6.32372 0
M  V30 19197 C 1830.04 -0.385796 -6.66384 0
M  V30 19198 H 1829.31 0.347537 -0.654446 0
M  V30 19199 H 1831.96 0.218162 -1.90253 0
M  V30 19200 H 1830.26 2.62204 -2.91129 0
M  V30 19201 H 1831.96 2.38564 -3.22317 0
M  V30 19202 H 1828.55 1.25091 -4.09939 0
M  V30 19203 H 1832.73 0.703218 -4.91293 0
M  V30 19204 H 1827.99 -0.0417543 -6.11386 0
M  V30 19205 H 1832.16 -0.583104 -6.93955 0
M  V30 19206 H 1829.79 -0.961574 -7.54094 0
M  V30 19207 N 1831.37 1.49742 0.491438 0
M  V30 19208 C 1832.31 1.67115 1.59189 0
M  V30 19209 C 1833.28 0.512523 1.57995 0
M  V30 19210 O 1834.47 0.740693 1.75836 0
M  V30 19211 C 1831.61 1.75258 2.97286 0
M  V30 19212 C 1830.72 3.02488 3.08424 0
M  V30 19213 C 1829.86 3.0155 4.37311 0
M  V30 19214 C 1828.89 4.2332 4.42116 0
M  V30 19215 N 1828.03 4.20238 5.62445 0
M  V30 19216 H 1832.87 2.61073 1.43683 0
M  V30 19217 H 1830.41 1.29435 0.69892 0
M  V30 19218 H 1832.37 1.77959 3.77341 0
M  V30 19219 H 1831 0.847568 3.11474 0
M  V30 19220 H 1830.05 3.09353 2.21371 0
M  V30 19221 H 1831.36 3.92479 3.07834 0
M  V30 19222 H 1830.51 3.02868 5.25695 0
M  V30 19223 H 1829.25 2.09354 4.4048 0
M  V30 19224 H 1828.26 4.22236 3.52132 0
M  V30 19225 H 1829.48 5.1672 4.40656 0
M  V30 19226 H 1827.43 3.30884 5.66438 0
M  V30 19227 H 1827.35 5.03974 5.63512 0
M  V30 19228 H 1828.61 4.25672 6.53011 0
M  V30 19229 N 1832.84 -0.743177 1.38977 0
M  V30 19230 C 1834.07 -1.53753 1.39193 0
M  V30 19231 C 1834.49 -1.88095 -0.0136591 0
M  V30 19232 O 1833.85 -1.51326 -0.998508 0
M  V30 19233 C 1833.9 -2.80679 2.26389 0
M  V30 19234 O 1833 -3.76265 1.68815 0
M  V30 19235 H 1832.35 -0.464639 0.474349 0
M  V30 19236 H 1834.88 -0.917579 1.82871 0
M  V30 19237 H 1834.89 -3.29498 2.40614 0
M  V30 19238 H 1833.56 -2.55014 3.28543 0
M  V30 19239 H 1832.14 -3.35004 1.63788 0
M  V30 19240 N 1834.32 -1.24018 -0.972487 0
M  V30 19241 C 1835.27 -1.02834 -2.06625 0
M  V30 19242 C 1836.24 0.056804 -1.66003 0
M  V30 19243 O 1837.42 -0.0968745 -1.90554 0
M  V30 19244 C 1834.56 -0.634103 -3.39224 0
M  V30 19245 C 1833.68 -1.79222 -3.93069 0
M  V30 19246 C 1832.81 -1.34401 -5.13916 0
M  V30 19247 C 1831.85 -2.47238 -5.59946 0
M  V30 19248 N 1830.99 -2.03319 -6.72016 0
M  V30 19249 H 1835.83 -1.96451 -2.24078 0
M  V30 19250 H 1833.37 -0.978545 -1.09831 0
M  V30 19251 H 1835.32 -0.386584 -4.15405 0
M  V30 19252 H 1833.95 0.26506 -3.2171 0
M  V30 19253 H 1833.01 -2.15353 -3.13572 0
M  V30 19254 H 1834.32 -2.64023 -4.23194 0
M  V30 19255 H 1833.47 -1.05509 -5.97455 0
M  V30 19256 H 1832.21 -0.466476 -4.85464 0
M  V30 19257 H 1831.22 -2.76895 -4.74983 0
M  V30 19258 H 1832.44 -3.35541 -5.90415 0
M  V30 19259 H 1830.39 -1.17956 -6.45308 0
M  V30 19260 H 1830.3 -2.81675 -7.01566 0
M  V30 19261 H 1831.57 -1.77553 -7.59009 0
M  V30 19262 N 1835.8 1.17245 -1.05316 0
M  V30 19263 C 1836.75 2.19256 -0.62538 0
M  V30 19264 C 1837.73 1.57293 0.338793 0
M  V30 19265 O 1838.93 1.76313 0.155822 0
M  V30 19266 C 1836.06 3.433 -0.0029214 0
M  V30 19267 C 1835.14 4.12359 -0.990997 0
M  V30 19268 N 1835.53 4.57224 -2.16287 0
M  V30 19269 C 1833.83 4.38402 -0.819748 0
M  V30 19270 C 1834.53 5.10531 -2.78806 0
M  V30 19271 N 1833.51 5.02811 -2.06595 0
M  V30 19272 H 1837.31 2.51649 -1.51823 0
M  V30 19273 H 1834.82 1.33588 -0.923471 0
M  V30 19274 H 1836.82 4.1566 0.321315 0
M  V30 19275 H 1835.48 3.12398 0.885303 0
M  V30 19276 H 1836.49 4.51272 -2.54115 0
M  V30 19277 H 1833.17 4.17496 0.0173221 0
M  V30 19278 H 1834.56 5.55357 -3.78191 0
M  V30 19279 N 1837.28 0.834353 1.33702 0
M  V30 19280 C 1838.69 0.52156 1.50837 0
M  V30 19281 C 1838.89 -0.95203 1.77591 0
M  V30 19282 O 1837.95 -1.73603 1.83353 0
M  V30 19283 C 1839.26 1.39099 2.66593 0
M  V30 19284 C 1840.81 1.3893 2.80477 0
M  V30 19285 C 1841.29 2.24347 3.9929 0
M  V30 19286 N 1842.78 2.22032 4.06517 0
M  V30 19287 C 1843.51 2.84865 4.97634 0
M  V30 19288 N 1843.01 3.56732 5.93897 0
M  V30 19289 N 1844.8 2.74359 4.90595 0
M  V30 19290 H 1836.95 1.78832 1.14598 0
M  V30 19291 H 1839.22 0.762708 0.563011 0
M  V30 19292 H 1838.92 2.43795 2.53489 0
M  V30 19293 H 1838.8 1.06381 3.61888 0
M  V30 19294 H 1841.18 0.350069 2.93016 0
M  V30 19295 H 1841.26 1.75652 1.85957 0
M  V30 19296 H 1840.91 3.28326 3.8751 0
M  V30 19297 H 1840.84 1.84969 4.93046 0
M  V30 19298 H 1843.33 1.69765 3.37621 0
M  V30 19299 H 1843.64 4.01893 6.60077 0
M  V30 19300 H 1841.99 3.6084 5.93986 0
M  V30 19301 H 1845.18 2.17779 4.14355 0
M  V30 19302 H 1845.35 3.23612 5.61408 0
M  V30 19303 N 1838.76 -1.46125 0.590367 0
M  V30 19304 C 1840.01 -2.01555 0.0765543 0
M  V30 19305 C 1840.32 -1.46661 -1.29422 0
M  V30 19306 O 1841.52 -1.93958 -1.8998 0
M  V30 19307 C 1839.98 -3.59797 0.0862369 0
M  V30 19308 C 1839.59 -4.23687 1.4558 0
M  V30 19309 C 1841.33 -4.22856 -0.373232 0
M  V30 19310 C 1839.24 -5.7403 1.42279 0
M  V30 19311 H 1838.17 -0.75359 0.0248501 0
M  V30 19312 H 1840.82 -1.67778 0.743149 0
M  V30 19313 H 1839.2 -3.90684 -0.646675 0
M  V30 19314 H 1840.38 -4.04398 2.20905 0
M  V30 19315 H 1838.69 -3.72753 1.85592 0
M  V30 19316 H 1841.29 -5.33073 -0.416837 0
M  V30 19317 H 1841.63 -3.92325 -1.39237 0
M  V30 19318 H 1842.16 -3.96622 0.305859 0
M  V30 19319 H 1838.9 -6.09234 2.41898 0
M  V30 19320 H 1838.42 -5.95561 0.711862 0
M  V30 19321 H 1840.1 -6.36896 1.13899 0
M  V30 19322 N 1840.23 -0.328564 -1.54137 0
M  V30 19323 C 1841.14 0.543922 -2.28207 0
M  V30 19324 C 1842.16 1.1249 -1.32748 0
M  V30 19325 O 1843.34 1.1438 -1.65769 0
M  V30 19326 C 1840.4 1.6864 -3.02922 0
M  V30 19327 C 1839.46 1.13672 -4.13977 0
M  V30 19328 C 1838.7 2.22474 -4.85119 0
M  V30 19329 O 1838.92 3.42914 -4.55813 0
M  V30 19330 O 1837.85 1.87611 -5.71914 0
M  V30 19331 H 1841.68 -0.0577601 -3.03645 0
M  V30 19332 H 1839.26 -0.0940895 -1.49103 0
M  V30 19333 H 1841.15 2.35143 -3.49693 0
M  V30 19334 H 1839.82 2.27417 -2.30355 0
M  V30 19335 H 1838.73 0.436625 -3.71543 0
M  V30 19336 H 1840.06 0.594012 -4.88602 0
M  V30 19337 N 1841.71 1.57497 -0.0568439 0
M  V30 19338 C 1843.12 1.80477 0.478027 0
M  V30 19339 C 1843.47 0.969549 1.7057 0
M  V30 19340 O 1842.6 0.187756 2.15584 0
M  V30 19341 C 1843.19 3.27332 0.874013 0
M  V30 19342 C 1841.75 3.5121 1.35383 0
M  V30 19343 C 1840.9 2.75308 0.331752 0
M  V30 19344 H 1843.85 1.56162 -0.282678 0
M  V30 19345 H 1843.87 3.38563 1.73653 0
M  V30 19346 H 1843.38 3.88095 -0.019701 0
M  V30 19347 H 1841.49 2.95734 2.26655 0
M  V30 19348 H 1841.6 4.59919 1.34208 0
M  V30 19349 H 1839.96 2.41616 0.805851 0
M  V30 19350 H 1840.75 3.38801 -0.553975 0
M  V30 19351 N 1843.19 -0.216591 1.56105 0
M  V30 19352 C 1844.44 -0.941642 1.79613 0
M  V30 19353 C 1844.77 -1.83789 0.627323 0
M  V30 19354 O 1844.04 -1.90886 -0.373195 0
M  V30 19355 C 1844.33 -1.77634 3.13238 0
M  V30 19356 C 1844.18 -0.906251 4.40576 0
M  V30 19357 C 1845.5 -2.75315 3.4335 0
M  V30 19358 H 1842.62 -0.340898 0.65342 0
M  V30 19359 H 1845.26 -0.210217 1.88833 0
M  V30 19360 H 1843.41 -2.39993 3.05509 0
M  V30 19361 H 1845.08 -0.299023 4.6033 0
M  V30 19362 H 1843.33 -0.211902 4.33282 0
M  V30 19363 H 1844 -1.52478 5.30523 0
M  V30 19364 H 1846.47 -2.23091 3.5124 0
M  V30 19365 H 1845.35 -3.30816 4.38009 0
M  V30 19366 H 1845.61 -3.53301 2.65765 0
M  V30 19367 N 1844.67 -1.5 -0.48349 0
M  V30 19368 C 1845.91 -1.61998 -1.24644 0
M  V30 19369 C 1846.27 -0.307758 -1.89517 0
M  V30 19370 O 1847.47 -0.303059 -2.67086 0
M  V30 19371 C 1845.74 -2.75914 -2.27171 0
M  V30 19372 S 1847.3 -3.0797 -3.1257 0
M  V30 19373 H 1844.12 -0.571218 -0.423357 0
M  V30 19374 H 1846.72 -1.87734 -0.545555 0
M  V30 19375 H 1845.43 -3.69755 -1.7807 0
M  V30 19376 H 1844.96 -2.52225 -3.01904 0
M  V30 19377 H 1846.97 -2.50839 -4.28129 0
M  V30 19378 N 1846.15 0.735796 -1.39369 0
M  V30 19379 C 1847.08 1.85854 -1.32414 0
M  V30 19380 C 1848.06 1.61391 -0.197947 0
M  V30 19381 O 1849.24 1.84666 -0.378263 0
M  V30 19382 C 1846.37 3.2182 -1.05592 0
M  V30 19383 C 1845.41 3.65144 -2.20391 0
M  V30 19384 S 1846.25 3.74604 -3.82664 0
M  V30 19385 C 1847.4 5.13361 -3.58066 0
M  V30 19386 H 1847.64 1.9147 -2.27435 0
M  V30 19387 H 1845.17 0.900577 -1.25415 0
M  V30 19388 H 1847.13 4.00332 -0.908013 0
M  V30 19389 H 1845.79 3.13861 -0.122598 0
M  V30 19390 H 1844.98 4.63813 -1.97214 0
M  V30 19391 H 1844.58 2.93835 -2.3138 0
M  V30 19392 H 1846.88 5.9967 -3.15282 0
M  V30 19393 H 1847.82 5.41566 -4.56193 0
M  V30 19394 H 1848.23 4.83 -2.92184 0
M  V30 19395 N 1847.63 1.24532 0.965897 0
M  V30 19396 C 1848.56 1.06393 2.07853 0
M  V30 19397 C 1849.54 -0.0236467 1.70084 0
M  V30 19398 O 1850.72 0.143767 1.93667 0
M  V30 19399 C 1847.85 0.669877 3.40778 0
M  V30 19400 C 1846.81 1.70643 3.92511 0
M  V30 19401 C 1846.13 1.16738 5.21801 0
M  V30 19402 C 1847.43 3.10278 4.20149 0
M  V30 19403 H 1849.13 1.99459 2.23285 0
M  V30 19404 H 1846.67 0.960397 1.07296 0
M  V30 19405 H 1848.62 0.52997 4.18054 0
M  V30 19406 H 1847.35 -0.296477 3.25252 0
M  V30 19407 H 1846.01 1.83458 3.17393 0
M  V30 19408 H 1845.66 0.191586 5.02635 0
M  V30 19409 H 1845.36 1.86009 5.57382 0
M  V30 19410 H 1846.88 1.03963 6.01684 0
M  V30 19411 H 1848.29 3.00681 4.88123 0
M  V30 19412 H 1846.69 3.76918 4.66962 0
M  V30 19413 H 1847.76 3.58182 3.26854 0
M  V30 19414 N 1849.1 -1.16685 1.05936 0
M  V30 19415 C 1850.35 -1.87405 0.775061 0
M  V30 19416 C 1850.68 -1.81279 -0.696543 0
M  V30 19417 O 1849.96 -1.22595 -1.50999 0
M  V30 19418 C 1850.24 -3.37124 1.26569 0
M  V30 19419 C 1850.09 -3.5196 2.80078 0
M  V30 19420 C 1851.41 -4.31401 0.870695 0
M  V30 19421 H 1848.53 -0.680488 0.283028 0
M  V30 19422 H 1851.17 -1.37174 1.31466 0
M  V30 19423 H 1849.32 -3.80033 0.806653 0
M  V30 19424 H 1851 -3.18014 3.34163 0
M  V30 19425 H 1849.24 -2.9399 3.18986 0
M  V30 19426 H 1849.91 -4.5709 3.09471 0
M  V30 19427 H 1852.39 -3.96373 1.266 0
M  V30 19428 H 1851.26 -5.34676 1.2415 0
M  V30 19429 H 1851.52 -4.41529 -0.224692 0
M  V30 19430 N 1850.58 -0.841432 -1.33258 0
M  V30 19431 C 1851.53 -0.248505 -2.26642 0
M  V30 19432 C 1852.52 0.59799 -1.49375 0
M  V30 19433 O 1853.71 0.449539 -1.71196 0
M  V30 19434 C 1850.84 0.573322 -3.38479 0
M  V30 19435 C 1849.92 -0.284825 -4.23142 0
M  V30 19436 N 1850.31 -1.36477 -4.8704 0
M  V30 19437 C 1848.61 -0.072296 -4.45941 0
M  V30 19438 C 1849.31 -1.89162 -5.50084 0
M  V30 19439 N 1848.29 -1.19272 -5.30354 0
M  V30 19440 H 1852.09 -1.07432 -2.73561 0
M  V30 19441 H 1849.6 -0.686153 -1.47193 0
M  V30 19442 H 1851.6 1.01441 -4.0437 0
M  V30 19443 H 1850.26 1.39708 -2.93107 0
M  V30 19444 H 1851.27 -1.74767 -4.87521 0
M  V30 19445 H 1847.95 0.717812 -4.11283 0
M  V30 19446 H 1849.34 -2.79613 -6.10955 0
M  V30 19447 N 1852.06 1.4581 -0.598108 0
M  V30 19448 C 1853.31 2.01902 -0.0894342 0
M  V30 19449 C 1853.63 1.47021 1.281 0
M  V30 19450 O 1852.9 0.6608 1.84419 0
M  V30 19451 H 1851.48 0.746394 -0.0300712 0
M  V30 19452 H 1854.14 1.78726 -0.777367 0
M  V30 19453 H 1853.24 3.12084 -0.0320424 0
M  V30 19454 N 1853.54 0.336733 1.53961 0
M  V30 19455 C 1854.76 -0.26614 2.05685 0
M  V30 19456 C 1855.19 -1.43973 1.21051 0
M  V30 19457 O 1854.55 -1.79928 0.222652 0
M  V30 19458 C 1854.59 -0.66571 3.54402 0
M  V30 19459 O 1853.7 -1.76656 3.72648 0
M  V30 19460 H 1853.04 -0.0455655 0.662435 0
M  V30 19461 H 1855.57 0.488969 1.98671 0
M  V30 19462 H 1855.58 -0.944748 3.96911 0
M  V30 19463 H 1854.25 0.192589 4.15454 0
M  V30 19464 H 1852.83 -1.48531 3.42042 0
M  V30 19465 N 1855.02 -1.57465 0.0651956 0
M  V30 19466 C 1856.43 -1.80728 -0.468449 0
M  V30 19467 C 1856.78 -0.978581 -1.70054 0
M  V30 19468 O 1855.9 -0.199186 -2.15481 0
M  V30 19469 C 1856.5 -3.27791 -0.856641 0
M  V30 19470 C 1855.06 -3.51923 -1.33519 0
M  V30 19471 C 1854.2 -2.7548 -0.317147 0
M  V30 19472 H 1857.15 -1.5601 0.290955 0
M  V30 19473 H 1857.18 -3.39479 -1.71855 0
M  V30 19474 H 1856.69 -3.88079 0.0402823 0
M  V30 19475 H 1854.79 -2.96932 -2.25083 0
M  V30 19476 H 1854.9 -4.60624 -1.31767 0
M  V30 19477 H 1853.27 -2.4204 -0.793026 0
M  V30 19478 H 1854.05 -3.38502 0.571935 0
M  V30 19479 N 1856.49 0.20831 -1.56217 0
M  V30 19480 C 1857.74 0.928886 -1.79488 0
M  V30 19481 C 1858.06 1.84337 -0.636 0
M  V30 19482 O 1857.33 1.92813 0.346416 0
M  V30 19483 H 1855.91 0.345985 -0.662045 0
M  V30 19484 H 1858.57 0.216988 -1.93688 0
M  V30 19485 H 1857.67 1.52786 -2.72145 0
M  V30 19486 N 1857.97 1.50255 0.475528 0
M  V30 19487 C 1859.2 1.64771 1.25132 0
M  V30 19488 C 1859.61 0.329253 1.85907 0
M  V30 19489 O 1858.97 -0.688289 1.69023 0
M  V30 19490 C 1859.02 2.73556 2.36325 0
M  V30 19491 O 1858.74 4.0029 1.78043 0
M  V30 19492 C 1860.24 2.99006 3.27277 0
M  V30 19493 H 1857.46 0.553987 0.378602 0
M  V30 19494 H 1860.01 1.9645 0.56811 0
M  V30 19495 H 1858.16 2.44584 3.00429 0
M  V30 19496 H 1858.58 4.60416 2.51232 0
M  V30 19497 H 1860.05 3.78797 4.01518 0
M  V30 19498 H 1860.53 2.09904 3.85794 0
M  V30 19499 H 1861.13 3.29493 2.68914 0
M  V30 19500 N 1859.45 -0.728395 1.39758 0
M  V30 19501 C 1860.7 -1.48514 1.37069 0
M  V30 19502 C 1861.02 -1.94976 -0.0305263 0
M  V30 19503 O 1860.29 -1.69453 -0.982987 0
M  V30 19504 H 1858.87 -0.550958 0.504434 0
M  V30 19505 H 1861.53 -0.864297 1.74688 0
M  V30 19506 H 1860.63 -2.36411 2.03755 0
M  V30 19507 N 1860.93 -1.25042 -0.959279 0
M  V30 19508 C 1861.87 -1.0502 -2.05522 0
M  V30 19509 C 1862.84 0.039194 -1.66054 0
M  V30 19510 O 1864.03 -0.11708 -1.9044 0
M  V30 19511 C 1861.17 -0.670047 -3.38533 0
M  V30 19512 C 1860.28 -1.83381 -3.91146 0
M  V30 19513 C 1859.42 -1.39844 -5.12462 0
M  V30 19514 C 1858.46 -2.53163 -5.57293 0
M  V30 19515 N 1857.59 -2.10435 -6.69822 0
M  V30 19516 H 1862.43 -1.98816 -2.21982 0
M  V30 19517 H 1859.97 -0.990139 -1.08787 0
M  V30 19518 H 1861.93 -0.430621 -4.14972 0
M  V30 19519 H 1860.56 0.230924 -3.21973 0
M  V30 19520 H 1859.61 -2.18667 -3.1127 0
M  V30 19521 H 1860.92 -2.68497 -4.2037 0
M  V30 19522 H 1860.08 -1.1184 -5.96303 0
M  V30 19523 H 1858.82 -0.51794 -4.84942 0
M  V30 19524 H 1857.82 -2.81918 -4.7202 0
M  V30 19525 H 1859.05 -3.41784 -5.86822 0
M  V30 19526 H 1856.99 -1.24794 -6.44021 0
M  V30 19527 H 1856.91 -2.89101 -6.98539 0
M  V30 19528 H 1858.18 -1.85593 -7.57084 0
M  V30 19529 N 1862.41 1.16121 -1.06553 0
M  V30 19530 C 1863.65 1.86346 -0.782279 0
M  V30 19531 C 1863.98 1.82255 0.693395 0
M  V30 19532 O 1863.25 1.2579 1.50179 0
M  V30 19533 H 1861.83 0.689921 -0.286388 0
M  V30 19534 H 1864.49 1.40805 -1.34758 0
M  V30 19535 H 1863.58 2.91712 -1.10954 0
M  V30 19536 N 1863.88 0.848487 1.3281 0
M  V30 19537 C 1865.13 0.445116 1.96727 0
M  V30 19538 C 1865.45 -1.00311 1.6792 0
M  V30 19539 O 1866.65 -1.51162 2.25527 0
M  V30 19540 C 1865.11 0.745015 3.52104 0
M  V30 19541 C 1864.72 2.20856 3.89778 0
M  V30 19542 C 1866.46 0.409065 4.22524 0
M  V30 19543 C 1864.37 2.452 5.38174 0
M  V30 19544 H 1863.3 0.162715 0.736233 0
M  V30 19545 H 1865.95 1.03841 1.51292 0
M  V30 19546 H 1864.33 0.0812291 3.95917 0
M  V30 19547 H 1865.5 2.91362 3.56994 0
M  V30 19548 H 1863.82 2.50842 3.32366 0
M  V30 19549 H 1866.42 0.568453 5.3167 0
M  V30 19550 H 1866.76 -0.648796 4.11213 0
M  V30 19551 H 1867.29 1.02848 3.84275 0
M  V30 19552 H 1864.03 3.49588 5.54499 0
M  V30 19553 H 1863.55 1.79265 5.72384 0
M  V30 19554 H 1865.23 2.28838 6.0518 0
M  V30 19555 N 1865.36 -1.4549 0.605832 0
M  V30 19556 C 1866.33 -2.28964 -0.104089 0
M  V30 19557 C 1867.33 -1.39671 -0.796791 0
M  V30 19558 O 1868.52 -1.6181 -0.645221 0
M  V30 19559 C 1865.65 -3.20647 -1.1575 0
M  V30 19560 H 1866.84 -2.93213 0.629776 0
M  V30 19561 H 1864.39 -1.51983 0.3648 0
M  V30 19562 H 1865.13 -2.61194 -1.92219 0
M  V30 19563 H 1864.91 -3.86419 -0.665025 0
M  V30 19564 H 1866.4 -3.83416 -1.65474 0
M  V30 19565 N 1866.84 -0.344893 -1.5378 0
M  V30 19566 C 1868.07 0.255228 -2.05824 0
M  V30 19567 C 1868.49 1.43329 -1.21812 0
M  V30 19568 O 1867.85 1.79807 -0.232191 0
M  V30 19569 C 1867.9 0.646906 -3.5475 0
M  V30 19570 O 1867 1.74677 -3.7358 0
M  V30 19571 H 1866.34 0.0420518 -0.662667 0
M  V30 19572 H 1868.87 -0.499498 -1.98409 0
M  V30 19573 H 1868.88 0.923686 -3.97407 0
M  V30 19574 H 1867.56 -0.214619 -4.15346 0
M  V30 19575 H 1866.13 1.46715 -3.42825 0
M  V30 19576 N 1868.32 1.57428 -0.0735454 0
M  V30 19577 C 1869.54 1.98301 0.607591 0
M  V30 19578 C 1869.97 0.951686 1.62248 0
M  V30 19579 O 1869.33 -0.0825008 1.81112 0
M  V30 19580 C 1869.37 3.38201 1.2511 0
M  V30 19581 O 1868.48 3.37711 2.36696 0
M  V30 19582 H 1867.82 0.64539 0.156104 0
M  V30 19583 H 1870.35 2.0406 -0.148578 0
M  V30 19584 H 1870.36 3.75424 1.59753 0
M  V30 19585 H 1869.03 4.12793 0.50745 0
M  V30 19586 H 1867.61 3.1226 2.03833 0
M  V30 19587 N 1869.8 -0.200022 1.56326 0
M  V30 19588 C 1870.73 -1.25071 1.97179 0
M  V30 19589 C 1871.71 -1.4774 0.84303 0
M  V30 19590 O 1872.89 -1.5956 1.10699 0
M  V30 19591 C 1870.02 -2.596 2.30706 0
M  V30 19592 C 1868.98 -2.51552 3.46274 0
M  V30 19593 C 1868.3 -3.90309 3.65463 0
M  V30 19594 C 1869.6 -2.0448 4.80609 0
M  V30 19595 H 1871.3 -0.911238 2.85196 0
M  V30 19596 H 1868.84 -0.436899 1.37212 0
M  V30 19597 H 1870.8 -3.33281 2.5788 0
M  V30 19598 H 1869.52 -2.95278 1.39565 0
M  V30 19599 H 1868.18 -1.80327 3.19183 0
M  V30 19600 H 1867.83 -4.23331 2.71662 0
M  V30 19601 H 1867.53 -3.858 4.43207 0
M  V30 19602 H 1869.05 -4.65619 3.95008 0
M  V30 19603 H 1870.46 -2.67917 5.06847 0
M  V30 19604 H 1868.86 -2.10985 5.61788 0
M  V30 19605 H 1869.93 -0.997828 4.74522 0
M  V30 19606 N 1871.27 -1.50505 -0.467553 0
M  V30 19607 C 1872.52 -1.60911 -1.21617 0
M  V30 19608 C 1872.84 -0.31663 -1.9302 0
M  V30 19609 O 1874.04 -0.299645 -2.69841 0
M  V30 19610 C 1872.5 -2.84052 -2.21003 0
M  V30 19611 C 1872.11 -4.20189 -1.55386 0
M  V30 19612 C 1873.85 -3.03805 -2.96484 0
M  V30 19613 C 1871.76 -5.34514 -2.5308 0
M  V30 19614 H 1870.69 -0.59924 -0.457633 0
M  V30 19615 H 1873.34 -1.7694 -0.486276 0
M  V30 19616 H 1871.72 -2.6159 -2.97299 0
M  V30 19617 H 1872.89 -4.5292 -0.848552 0
M  V30 19618 H 1871.21 -4.0607 -0.921725 0
M  V30 19619 H 1873.81 -3.86387 -3.69606 0
M  V30 19620 H 1874.15 -2.15672 -3.56078 0
M  V30 19621 H 1874.68 -3.26465 -2.27301 0
M  V30 19622 H 1871.42 -6.24811 -1.9822 0
M  V30 19623 H 1870.94 -5.06197 -3.21752 0
M  V30 19624 H 1872.62 -5.65232 -3.14836 0
M  V30 19625 N 1872.75 0.720973 -1.40142 0
M  V30 19626 C 1874 1.47785 -1.37855 0
M  V30 19627 C 1874.32 1.9499 0.0201858 0
M  V30 19628 O 1873.59 1.69972 0.973986 0
M  V30 19629 H 1872.17 0.548275 -0.507349 0
M  V30 19630 H 1874.83 0.85502 -1.75144 0
M  V30 19631 H 1873.93 2.35327 -2.05006 0
M  V30 19632 N 1874.23 1.25549 0.952634 0
M  V30 19633 C 1875.65 1.02414 1.22407 0
M  V30 19634 C 1875.85 -0.257807 1.99844 0
M  V30 19635 O 1874.9 -0.969999 2.33125 0
M  V30 19636 C 1876.22 2.24856 1.9965 0
M  V30 19637 C 1877.76 2.29638 2.12686 0
M  V30 19638 C 1878.24 3.51742 2.93329 0
M  V30 19639 N 1879.73 3.5215 3.00907 0
M  V30 19640 C 1880.46 4.43292 3.63703 0
M  V30 19641 N 1879.96 5.44709 4.28094 0
M  V30 19642 N 1881.75 4.30969 3.60863 0
M  V30 19643 H 1873.9 2.07905 0.434647 0
M  V30 19644 H 1876.17 0.913124 0.254772 0
M  V30 19645 H 1875.87 3.18037 1.5015 0
M  V30 19646 H 1875.75 2.28188 3.0035 0
M  V30 19647 H 1878.13 1.36978 2.61383 0
M  V30 19648 H 1878.22 2.30324 1.11285 0
M  V30 19649 H 1877.86 4.44724 2.45322 0
M  V30 19650 H 1877.79 3.48301 3.9496 0
M  V30 19651 H 1880.28 2.78789 2.55118 0
M  V30 19652 H 1880.59 6.10462 4.73873 0
M  V30 19653 H 1878.94 5.48579 4.26715 0
M  V30 19654 H 1882.13 3.50964 3.09745 0
M  V30 19655 H 1882.3 5.02196 4.09516 0
M  V30 19656 N 1875.71 -1.15554 1.07168 0
M  V30 19657 C 1876.67 -2.18431 0.694305 0
M  V30 19658 C 1877.67 -1.5861 -0.264497 0
M  V30 19659 O 1878.86 -1.7414 -0.0457035 0
M  V30 19660 C 1875.99 -3.40892 0.0230473 0
M  V30 19661 H 1877.19 -2.53331 1.60511 0
M  V30 19662 H 1874.74 -1.29984 0.867982 0
M  V30 19663 H 1875.47 -3.11559 -0.900083 0
M  V30 19664 H 1875.26 -3.8557 0.712622 0
M  V30 19665 H 1876.75 -4.16986 -0.226392 0
M  V30 19666 N 1877.19 -0.855519 -1.32358 0
M  V30 19667 C 1878.44 -0.455543 -1.96488 0
M  V30 19668 C 1878.75 0.99419 -1.68449 0
M  V30 19669 O 1879.96 1.49964 -2.26325 0
M  V30 19670 C 1878.41 -0.763678 -3.51704 0
M  V30 19671 C 1878.02 -2.2292 -3.88601 0
M  V30 19672 C 1879.76 -0.431467 -4.22302 0
M  V30 19673 C 1877.67 -2.48051 -5.36866 0
M  V30 19674 H 1876.6 -0.166617 -0.73536 0
M  V30 19675 H 1879.25 -1.04642 -1.50739 0
M  V30 19676 H 1877.63 -0.102224 -3.95868 0
M  V30 19677 H 1878.81 -2.93251 -3.55444 0
M  V30 19678 H 1877.12 -2.52602 -3.31031 0
M  V30 19679 H 1879.72 -0.596641 -5.31361 0
M  V30 19680 H 1880.06 0.62698 -4.11552 0
M  V30 19681 H 1880.6 -1.04885 -3.83724 0
M  V30 19682 H 1877.33 -3.52523 -5.52637 0
M  V30 19683 H 1876.85 -1.82298 -5.71426 0
M  V30 19684 H 1878.53 -2.32044 -6.03957 0
M  V30 19685 N 1878.67 1.45167 -0.61354 0
M  V30 19686 C 1879.63 2.29016 0.0919454 0
M  V30 19687 C 1880.63 1.40091 0.789373 0
M  V30 19688 O 1881.82 1.6215 0.636631 0
M  V30 19689 C 1878.95 3.21257 1.14048 0
M  V30 19690 H 1880.14 2.92875 -0.645317 0
M  V30 19691 H 1877.7 1.51788 -0.372855 0
M  V30 19692 H 1878.43 2.6221 1.90831 0
M  V30 19693 H 1878.22 3.86766 0.644523 0
M  V30 19694 H 1879.71 3.84288 1.63439 0
M  V30 19695 N 1880.14 0.353044 1.53595 0
M  V30 19696 C 1881.05 -0.507548 2.29044 0
M  V30 19697 C 1882.07 -1.10364 1.34521 0
M  V30 19698 O 1883.25 -1.11728 1.67567 0
M  V30 19699 C 1880.31 -1.63799 3.05566 0
M  V30 19700 C 1879.37 -1.07071 4.15733 0
M  V30 19701 C 1878.6 -2.14728 4.88597 0
M  V30 19702 O 1878.83 -3.35619 4.61211 0
M  V30 19703 O 1877.76 -1.78489 5.74826 0
M  V30 19704 H 1881.59 0.10606 3.03515 0
M  V30 19705 H 1879.17 0.117799 1.48935 0
M  V30 19706 H 1881.05 -2.2955 3.5339 0
M  V30 19707 H 1879.73 -2.23723 2.33944 0
M  V30 19708 H 1878.64 -0.37746 3.72191 0
M  V30 19709 H 1879.97 -0.516205 4.89486 0
M  V30 19710 N 1881.62 -1.57387 0.0818932 0
M  V30 19711 C 1883.04 -1.57217 -0.274755 0
M  V30 19712 C 1883.24 -1.09207 -1.6934 0
M  V30 19713 O 1882.29 -0.762532 -2.40711 0
M  V30 19714 C 1883.61 -3.00606 -0.075209 0
M  V30 19715 C 1885.15 -3.12669 -0.143973 0
M  V30 19716 C 1885.63 -4.57992 0.0274161 0
M  V30 19717 N 1887.12 -4.63192 -0.0278563 0
M  V30 19718 C 1887.86 -5.73344 0.0801936 0
M  V30 19719 N 1887.35 -6.92376 0.242334 0
M  V30 19720 N 1889.14 -5.62096 0.0224057 0
M  V30 19721 H 1881.3 -1.86907 1.00894 0
M  V30 19722 H 1883.56 -0.8621 0.39432 0
M  V30 19723 H 1883.26 -3.39881 0.904105 0
M  V30 19724 H 1883.14 -3.68107 -0.823213 0
M  V30 19725 H 1885.53 -2.73274 -1.11378 0
M  V30 19726 H 1885.61 -2.47785 0.635303 0
M  V30 19727 H 1885.25 -4.98078 0.994034 0
M  V30 19728 H 1885.18 -5.2092 -0.77139 0
M  V30 19729 H 1887.67 -3.77598 -0.151172 0
M  V30 19730 H 1887.98 -7.72151 0.316652 0
M  V30 19731 H 1886.33 -6.94444 0.277829 0
M  V30 19732 H 1889.52 -4.67987 -0.103039 0
M  V30 19733 H 1889.69 -6.47907 0.110065 0
M  V30 19734 N 1883.1 0.191729 -1.56429 0
M  V30 19735 C 1884.01 1.25798 -1.9802 0
M  V30 19736 C 1885.03 1.49612 -0.888379 0
M  V30 19737 O 1886.2 1.62161 -1.1944 0
M  V30 19738 C 1883.27 2.58158 -2.3142 0
M  V30 19739 C 1882.33 2.42386 -3.54327 0
M  V30 19740 C 1881.56 3.68434 -3.86124 0
M  V30 19741 O 1881.78 4.72747 -3.19165 0
M  V30 19742 O 1880.72 3.63762 -4.79542 0
M  V30 19743 H 1884.54 0.935013 -2.88948 0
M  V30 19744 H 1882.13 0.396996 -1.44029 0
M  V30 19745 H 1884.01 3.36274 -2.53964 0
M  V30 19746 H 1882.69 2.90075 -1.43659 0
M  V30 19747 H 1881.59 1.62369 -3.37027 0
M  V30 19748 H 1882.93 2.154 -4.42565 0
M  V30 19749 N 1884.58 1.50751 0.459565 0
M  V30 19750 C 1885.81 1.66089 1.23377 0
M  V30 19751 C 1886.22 0.348952 1.85547 0
M  V30 19752 O 1885.58 -0.670323 1.69744 0
M  V30 19753 C 1885.63 2.76047 2.3341 0
M  V30 19754 O 1885.35 4.02156 1.73787 0
M  V30 19755 C 1886.85 3.02461 3.24087 0
M  V30 19756 H 1884.07 0.557971 0.372705 0
M  V30 19757 H 1886.61 1.97042 0.547242 0
M  V30 19758 H 1884.77 2.47756 2.97818 0
M  V30 19759 H 1885.18 4.63055 2.46335 0
M  V30 19760 H 1886.66 3.83034 3.97478 0
M  V30 19761 H 1887.13 2.13984 3.83546 0
M  V30 19762 H 1887.74 3.32326 2.65404 0
M  V30 19763 N 1886.06 -0.713531 1.40522 0
M  V30 19764 C 1887.28 -1.5026 1.4223 0
M  V30 19765 C 1887.7 -1.88787 0.0225637 0
M  V30 19766 O 1887.06 -1.55581 -0.95398 0
M  V30 19767 C 1887.11 -2.77663 2.31486 0
M  V30 19768 O 1886.83 -2.40765 3.66011 0
M  V30 19769 C 1888.33 -3.71543 2.41807 0
M  V30 19770 H 1885.55 -0.463648 0.485048 0
M  V30 19771 H 1888.09 -0.88 1.84598 0
M  V30 19772 H 1886.25 -3.36203 1.92475 0
M  V30 19773 H 1886.66 -3.22757 4.13434 0
M  V30 19774 H 1888.14 -4.57771 3.08464 0
M  V30 19775 H 1888.61 -4.14792 1.44375 0
M  V30 19776 H 1889.22 -3.18914 2.81379 0
M  V30 19777 N 1887.53 -1.26053 -0.945962 0
M  V30 19778 C 1888.76 -1.14181 -1.7314 0
M  V30 19779 C 1889.18 0.299663 -1.85698 0
M  V30 19780 O 1888.54 1.21711 -1.34373 0
M  V30 19781 C 1888.59 -1.81052 -3.11854 0
M  V30 19782 O 1887.69 -1.09606 -3.97568 0
M  V30 19783 H 1887.03 -0.398138 -0.531397 0
M  V30 19784 H 1889.56 -1.66782 -1.18511 0
M  V30 19785 H 1889.57 -1.87685 -3.62269 0
M  V30 19786 H 1888.25 -2.85921 -3.0203 0
M  V30 19787 H 1886.83 -1.10915 -3.56023 0
M  V30 19788 N 1889.01 1.14984 -1.07779 0
M  V30 19789 C 1890.26 1.86148 -0.804777 0
M  V30 19790 C 1890.59 1.82364 0.667615 0
M  V30 19791 O 1889.87 1.24982 1.4903 0
M  V30 19792 C 1890.15 3.35067 -1.31916 0
M  V30 19793 C 1890 3.4746 -2.85642 0
M  V30 19794 C 1891.32 4.29961 -0.939217 0
M  V30 19795 H 1888.44 0.675899 -0.293818 0
M  V30 19796 H 1891.08 1.35065 -1.33632 0
M  V30 19797 H 1889.23 3.78702 -0.867011 0
M  V30 19798 H 1890.9 3.12658 -3.3918 0
M  V30 19799 H 1889.15 2.88878 -3.23623 0
M  V30 19800 H 1889.82 4.52109 -3.16704 0
M  V30 19801 H 1892.29 3.94309 -1.3289 0
M  V30 19802 H 1891.17 5.32633 -1.32641 0
M  V30 19803 H 1891.43 4.4183 0.15442 0
M  V30 19804 N 1890.49 0.862526 1.31902 0
M  V30 19805 C 1891.72 0.483304 2.00867 0
M  V30 19806 C 1892.13 -0.926733 1.64949 0
M  V30 19807 O 1891.47 -1.61745 0.870881 0
M  V30 19808 C 1891.53 0.551872 3.55239 0
M  V30 19809 C 1891.2 1.9222 4.14609 0
M  V30 19810 C 1892.19 2.88872 4.3226 0
M  V30 19811 C 1889.88 2.22149 4.50506 0
M  V30 19812 C 1891.87 4.136 4.84988 0
M  V30 19813 C 1889.56 3.47128 5.02937 0
M  V30 19814 C 1890.56 4.4267 5.20127 0
M  V30 19815 O 1890.25 5.65435 5.71435 0
M  V30 19816 H 1889.98 0.187544 0.649464 0
M  V30 19817 H 1892.53 1.16337 1.69278 0
M  V30 19818 H 1890.76 -0.18508 3.86257 0
M  V30 19819 H 1892.45 0.187136 4.05468 0
M  V30 19820 H 1893.22 2.67056 4.04853 0
M  V30 19821 H 1889.1 1.48564 4.36406 0
M  V30 19822 H 1892.64 4.88182 4.98321 0
M  V30 19823 H 1888.54 3.68791 5.29777 0
M  V30 19824 H 1889.3 5.67503 5.89816 0
M  V30 19825 N 1891.97 -1.4484 0.62123 0
M  V30 19826 C 1893.19 -2.07012 0.126801 0
M  V30 19827 C 1893.62 -1.46046 -1.18542 0
M  V30 19828 O 1892.98 -0.558202 -1.72493 0
M  V30 19829 C 1893.02 -3.60597 0.0150611 0
M  V30 19830 O 1892.13 -3.9929 -1.03157 0
M  V30 19831 H 1891.47 -0.659131 0.0802646 0
M  V30 19832 H 1894 -1.85874 0.855105 0
M  V30 19833 H 1894.01 -4.07608 -0.178742 0
M  V30 19834 H 1892.68 -4.04354 0.973153 0
M  V30 19835 H 1891.26 -3.63927 -0.813135 0
M  V30 19836 N 1893.45 -0.361184 -1.53405 0
M  V30 19837 C 1894.69 0.230222 -2.01489 0
M  V30 19838 C 1895.03 1.48779 -1.24814 0
M  V30 19839 O 1894.3 1.91494 -0.340612 0
M  V30 19840 C 1894.58 0.526613 -3.56229 0
M  V30 19841 C 1894.44 -0.744277 -4.436 0
M  V30 19842 C 1895.76 1.32901 -4.19554 0
M  V30 19843 H 1892.87 0.0822009 -0.732402 0
M  V30 19844 H 1895.52 -0.485208 -1.837 0
M  V30 19845 H 1893.67 1.13609 -3.71517 0
M  V30 19846 H 1895.34 -1.38188 -4.40116 0
M  V30 19847 H 1893.58 -1.36555 -4.11747 0
M  V30 19848 H 1894.25 -0.491913 -5.49804 0
M  V30 19849 H 1896.73 0.813474 -4.08071 0
M  V30 19850 H 1895.6 1.50513 -5.27861 0
M  V30 19851 H 1895.87 2.33625 -3.75329 0
M  V30 19852 N 1894.92 1.57341 -0.0902386 0
M  V30 19853 C 1896.34 1.8145 0.439638 0
M  V30 19854 C 1896.69 1.00551 1.68475 0
M  V30 19855 O 1895.81 0.233442 2.15137 0
M  V30 19856 C 1896.41 3.29113 0.804384 0
M  V30 19857 C 1894.97 3.54003 1.27903 0
M  V30 19858 C 1894.11 2.7595 0.27328 0
M  V30 19859 H 1897.06 1.55527 -0.315738 0
M  V30 19860 H 1897.08 3.4217 1.66432 0
M  V30 19861 H 1896.6 3.87966 -0.102017 0
M  V30 19862 H 1894.7 3.00475 2.20331 0
M  V30 19863 H 1894.81 4.62662 1.24422 0
M  V30 19864 H 1893.17 2.43271 0.754419 0
M  V30 19865 H 1893.96 3.3755 -0.625715 0
M  V30 19866 N 1896.4 -0.183431 1.56529 0
M  V30 19867 C 1897.33 -1.22973 1.98494 0
M  V30 19868 C 1898.31 -1.46837 0.858653 0
M  V30 19869 O 1899.5 -1.58377 1.12385 0
M  V30 19870 C 1896.63 -2.57138 2.33446 0
M  V30 19871 C 1895.58 -2.47865 3.48922 0
M  V30 19872 C 1894.91 -3.8641 3.69582 0
M  V30 19873 C 1896.21 -1.99371 4.82751 0
M  V30 19874 H 1897.9 -0.880938 2.86147 0
M  V30 19875 H 1895.45 -0.422321 1.37668 0
M  V30 19876 H 1897.4 -3.30527 2.614 0
M  V30 19877 H 1896.13 -2.93781 1.42689 0
M  V30 19878 H 1894.78 -1.76932 3.21077 0
M  V30 19879 H 1894.43 -4.20426 2.76136 0
M  V30 19880 H 1894.13 -3.81077 4.47274 0
M  V30 19881 H 1895.66 -4.61403 3.99924 0
M  V30 19882 H 1897.07 -2.62526 5.0966 0
M  V30 19883 H 1895.47 -2.05014 5.63994 0
M  V30 19884 H 1896.54 -0.947442 4.75554 0
M  V30 19885 N 1897.88 -1.50992 -0.451564 0
M  V30 19886 C 1898.84 -1.70703 -1.52949 0
M  V30 19887 C 1899.84 -0.577275 -1.50081 0
M  V30 19888 O 1901.03 -0.844619 -1.52354 0
M  V30 19889 C 1898.17 -1.75035 -2.92533 0
M  V30 19890 H 1899.36 -2.66891 -1.36782 0
M  V30 19891 H 1896.91 -1.40767 -0.679285 0
M  V30 19892 H 1897.65 -0.806096 -3.14122 0
M  V30 19893 H 1897.43 -2.57126 -2.96021 0
M  V30 19894 H 1898.92 -1.92171 -3.70756 0
M  V30 19895 N 1899.36 0.706069 -1.40899 0
M  V30 19896 C 1900.77 1.2856 -1.35386 0
M  V30 19897 C 1901.12 1.96174 -0.0318902 0
M  V30 19898 O 1900.25 1.9814 0.870018 0
M  V30 19899 C 1900.84 2.33785 -2.45214 0
M  V30 19900 C 1899.4 2.87339 -2.43132 0
M  V30 19901 C 1898.55 1.61243 -2.25601 0
M  V30 19902 H 1901.5 0.501539 -1.50567 0
M  V30 19903 H 1901.52 3.14843 -2.13669 0
M  V30 19904 H 1901.03 1.84545 -3.41416 0
M  V30 19905 H 1899.13 3.40784 -1.50656 0
M  V30 19906 H 1899.24 3.38485 -3.39065 0
M  V30 19907 H 1897.61 1.86664 -1.73288 0
M  V30 19908 H 1898.39 1.14014 -3.23814 0
M  V30 19909 N 1900.84 1.26553 0.939264 0
M  V30 19910 C 1902.06 1.15098 1.72532 0
M  V30 19911 C 1902.49 -0.289811 1.85854 0
M  V30 19912 O 1901.84 -1.20997 1.35017 0
M  V30 19913 C 1901.89 1.82703 3.10889 0
M  V30 19914 O 1901 1.11712 3.96981 0
M  V30 19915 H 1900.34 0.40095 0.529278 0
M  V30 19916 H 1902.87 1.67408 1.17625 0
M  V30 19917 H 1902.88 1.89603 3.61268 0
M  V30 19918 H 1901.55 2.87519 3.00509 0
M  V30 19919 H 1900.13 1.12801 3.5543 0
M  V30 19920 N 1902.31 -1.14411 1.08387 0
M  V30 19921 C 1903.26 -2.1752 0.683292 0
M  V30 19922 C 1904.25 -1.58136 -0.296971 0
M  V30 19923 O 1905.44 -1.76664 -0.109021 0
M  V30 19924 C 1902.57 -3.43171 0.0939403 0
M  V30 19925 C 1901.66 -4.09587 1.09998 0
M  V30 19926 N 1902.05 -4.51329 2.28333 0
M  V30 19927 C 1900.34 -4.36074 0.935695 0
M  V30 19928 C 1901.05 -5.0296 2.92244 0
M  V30 19929 N 1900.02 -4.97157 2.19854 0
M  V30 19930 H 1903.82 -2.47535 1.58441 0
M  V30 19931 H 1901.34 -1.31093 0.958564 0
M  V30 19932 H 1903.33 -4.16366 -0.210997 0
M  V30 19933 H 1901.99 -3.14635 -0.802165 0
M  V30 19934 H 1903.01 -4.44376 2.6599 0
M  V30 19935 H 1899.68 -4.17396 0.0933758 0
M  V30 19936 H 1901.07 -5.45135 3.92782 0
M  V30 19937 N 1903.79 -0.869509 -1.31443 0
M  V30 19938 C 1905.04 -0.480214 -1.96724 0
M  V30 19939 C 1905.37 0.967405 -1.68735 0
M  V30 19940 O 1904.62 1.69616 -0.976162 0
M  V30 19941 C 1904.92 -0.683486 -3.50804 0
M  V30 19942 C 1904.59 -2.10382 -3.98811 0
M  V30 19943 C 1903.25 -2.49226 -4.11631 0
M  V30 19944 C 1905.6 -3.03015 -4.24065 0
M  V30 19945 C 1902.93 -3.79944 -4.47057 0
M  V30 19946 C 1905.28 -4.33248 -4.60954 0
M  V30 19947 C 1903.95 -4.72006 -4.71982 0
M  V30 19948 H 1903.22 -0.175723 -0.719863 0
M  V30 19949 H 1905.86 -1.10241 -1.56586 0
M  V30 19950 H 1904.17 0.0218481 -3.91794 0
M  V30 19951 H 1905.86 -0.362105 -3.99362 0
M  V30 19952 H 1902.45 -1.79225 -3.89328 0
M  V30 19953 H 1906.64 -2.74232 -4.13655 0
M  V30 19954 H 1901.89 -4.09736 -4.53792 0
M  V30 19955 H 1906.07 -5.05077 -4.79448 0
M  V30 19956 H 1903.7 -5.73337 -4.99188 0
M  V30 19957 N 1905.27 1.44508 -0.628902 0
M  V30 19958 C 1906.55 1.95497 -0.0635197 0
M  V30 19959 C 1906.93 1.57092 1.41015 0
M  V30 19960 O 1906.28 0.843894 2.12346 0
M  V30 19961 C 1906.49 3.47842 -0.284051 0
M  V30 19962 C 1907.83 4.24235 -0.176073 0
M  V30 19963 O 1908.86 3.55549 -0.215298 0
M  V30 19964 O 1907.72 5.46443 -0.0791303 0
M  V30 19965 H 1904.81 0.826664 0.0235829 0
M  V30 19966 H 1907.36 1.5457 -0.70045 0
M  V30 19967 H 1906.13 3.68837 -1.30671 0
M  V30 19968 H 1905.75 3.95711 0.387125 0
M  V30 19969 N 1906.75 0.369315 1.53212 0
M  V30 19970 C 1908 -0.218776 2.00912 0
M  V30 19971 C 1908.32 -1.48977 1.25821 0
M  V30 19972 O 1907.59 -1.92325 0.372538 0
M  V30 19973 H 1906.17 -0.0838334 0.742281 0
M  V30 19974 H 1908.83 0.496408 1.88472 0
M  V30 19975 H 1907.93 -0.443127 3.08938 0
M  V30 19976 N 1908.23 -1.57291 0.0985816 0
M  V30 19977 C 1909.46 -1.98531 -0.57176 0
M  V30 19978 C 1909.87 -0.976619 -1.62046 0
M  V30 19979 O 1909.21 0.041533 -1.83653 0
M  V30 19980 C 1909.27 -3.36149 -1.27452 0
M  V30 19981 C 1908.93 -4.55449 -0.376176 0
M  V30 19982 C 1909.93 -5.18531 0.377078 0
M  V30 19983 C 1907.62 -5.01443 -0.293213 0
M  V30 19984 C 1909.61 -6.25978 1.20124 0
M  V30 19985 C 1907.3 -6.08757 0.534594 0
M  V30 19986 C 1908.3 -6.7089 1.28047 0
M  V30 19987 O 1907.98 -7.76133 2.09457 0
M  V30 19988 H 1907.72 -0.657356 -0.15767 0
M  V30 19989 H 1910.27 -2.04648 0.175593 0
M  V30 19990 H 1908.5 -3.26725 -2.06852 0
M  V30 19991 H 1910.19 -3.61813 -1.83974 0
M  V30 19992 H 1910.95 -4.83925 0.322736 0
M  V30 19993 H 1906.83 -4.52842 -0.863429 0
M  V30 19994 H 1910.38 -6.74405 1.7839 0
M  V30 19995 H 1906.27 -6.42794 0.590404 0
M  V30 19996 H 1907.04 -7.93137 2.02177 0
M  V30 19997 N 1909.71 0.175127 -1.56624 0
M  V30 19998 C 1910.65 1.21687 -1.96114 0
M  V30 19999 C 1911.62 1.44191 -0.824518 0
M  V30 20000 O 1912.81 1.56994 -1.08433 0
M  V30 20001 C 1909.95 2.55207 -2.323 0
M  V30 20002 C 1909.06 2.40115 -3.59122 0
M  V30 20003 C 1908.2 3.66475 -3.84538 0
M  V30 20004 C 1907.23 3.463 -5.04721 0
M  V30 20005 N 1906.37 4.6472 -5.26288 0
M  V30 20006 H 1911.21 0.873106 -2.84923 0
M  V30 20007 H 1908.75 0.419721 -1.40985 0
M  V30 20008 H 1910.71 3.33022 -2.51302 0
M  V30 20009 H 1909.34 2.87587 -1.46607 0
M  V30 20010 H 1908.39 1.53496 -3.48056 0
M  V30 20011 H 1909.7 2.21151 -4.47095 0
M  V30 20012 H 1908.85 4.52726 -4.03886 0
M  V30 20013 H 1907.59 3.88414 -2.94934 0
M  V30 20014 H 1906.6 2.58435 -4.85274 0
M  V30 20015 H 1907.82 3.25787 -5.95852 0
M  V30 20016 H 1905.77 4.86885 -4.39635 0
M  V30 20017 H 1905.69 4.48656 -6.08477 0
M  V30 20018 H 1906.95 5.52265 -5.50112 0
M  V30 20019 N 1911.18 1.5123 0.44355 0
M  V30 20020 C 1912.12 1.68281 1.55609 0
M  V30 20021 C 1913.13 0.563589 1.52733 0
M  V30 20022 O 1914.32 0.837706 1.57622 0
M  V30 20023 C 1911.42 1.67657 2.94524 0
M  V30 20024 C 1910.59 2.96063 3.21971 0
M  V30 20025 C 1909.65 2.8771 4.40578 0
M  V30 20026 O 1908.68 3.61659 4.39536 0
M  V30 20027 N 1909.88 2.03137 5.43797 0
M  V30 20028 H 1912.64 2.64252 1.41389 0
M  V30 20029 H 1910.2 1.49038 0.632398 0
M  V30 20030 H 1912.2 1.59646 3.71881 0
M  V30 20031 H 1910.77 0.79306 3.02373 0
M  V30 20032 H 1909.99 3.17991 2.32971 0
M  V30 20033 H 1911.27 3.81074 3.37135 0
M  V30 20034 H 1910.67 1.42422 5.47478 0
M  V30 20035 H 1909.23 2.0101 6.20031 0
M  V30 20036 N 1912.66 -0.698586 1.41271 0
M  V30 20037 C 1913.59 -1.82385 1.38811 0
M  V30 20038 C 1914.61 -1.60183 0.290752 0
M  V30 20039 O 1915.8 -1.69742 0.552272 0
M  V30 20040 C 1912.9 -3.19095 1.14155 0
M  V30 20041 C 1912.07 -3.68352 2.35872 0
M  V30 20042 C 1911.13 -4.83723 2.07119 0
M  V30 20043 O 1910.15 -4.95495 2.80132 0
M  V30 20044 N 1911.36 -5.70748 1.05958 0
M  V30 20045 H 1914.12 -1.84989 2.35795 0
M  V30 20046 H 1911.68 -0.880792 1.35844 0
M  V30 20047 H 1913.67 -3.93899 0.928763 0
M  V30 20048 H 1912.24 -3.11535 0.257783 0
M  V30 20049 H 1911.46 -2.8449 2.72872 0
M  V30 20050 H 1912.75 -3.97999 3.16977 0
M  V30 20051 H 1912.15 -5.63865 0.455223 0
M  V30 20052 H 1910.71 -6.45463 0.906689 0
M  V30 20053 N 1914.14 -1.27049 -0.93254 0
M  V30 20054 C 1915.39 -1.12879 -1.67639 0
M  V30 20055 C 1915.71 0.326803 -1.92242 0
M  V30 20056 O 1914.98 1.22934 -1.52525 0
M  V30 20057 H 1913.56 -0.414741 -0.621288 0
M  V30 20058 H 1916.22 -1.59505 -1.12 0
M  V30 20059 H 1915.32 -1.65417 -2.64658 0
M  V30 20060 N 1915.62 1.13835 -1.08993 0
M  V30 20061 C 1916.85 1.88588 -0.843698 0
M  V30 20062 C 1917.26 1.79154 0.608307 0
M  V30 20063 O 1916.6 1.1529 1.43017 0
M  V30 20064 C 1916.66 3.39079 -1.19438 0
M  V30 20065 C 1916.32 3.72295 -2.65038 0
M  V30 20066 C 1917.32 3.71911 -3.63288 0
M  V30 20067 C 1915.01 4.0209 -3.01046 0
M  V30 20068 C 1917 4.00855 -4.95574 0
M  V30 20069 C 1914.69 4.30697 -4.33525 0
M  V30 20070 C 1915.69 4.30063 -5.30598 0
M  V30 20071 O 1915.37 4.57972 -6.60694 0
M  V30 20072 H 1915.11 0.60402 -0.303539 0
M  V30 20073 H 1917.66 1.45055 -1.45424 0
M  V30 20074 H 1915.89 3.83094 -0.526861 0
M  V30 20075 H 1917.58 3.95149 -0.928011 0
M  V30 20076 H 1918.34 3.48972 -3.36814 0
M  V30 20077 H 1914.22 4.01733 -2.26123 0
M  V30 20078 H 1917.77 4.00276 -5.71336 0
M  V30 20079 H 1913.66 4.53106 -4.59745 0
M  V30 20080 H 1914.43 4.75661 -6.661 0
M  V30 20081 N 1917.1 0.876467 1.3098 0
M  V30 20082 C 1918.37 0.411051 1.91232 0
M  V30 20083 C 1918.75 -1.10748 1.79717 0
M  V30 20084 O 1918.1 -1.93898 1.20896 0
M  V30 20085 C 1918.31 0.899663 3.37205 0
M  V30 20086 C 1919.66 0.929615 4.14299 0
M  V30 20087 O 1920.68 0.845752 3.46014 0
M  V30 20088 O 1919.54 1.05211 5.36277 0
M  V30 20089 H 1916.64 0.12418 0.817624 0
M  V30 20090 H 1919.18 0.964808 1.39605 0
M  V30 20091 H 1917.95 1.94336 3.39631 0
M  V30 20092 H 1917.58 0.324585 3.96273 0
M  V30 20093 N 1918.57 -1.44173 0.636557 0
M  V30 20094 C 1919.51 -2.27912 -0.114546 0
M  V30 20095 C 1920.48 -1.38856 -0.846028 0
M  V30 20096 O 1921.67 -1.68298 -0.84901 0
M  V30 20097 C 1918.8 -3.17907 -1.16844 0
M  V30 20098 C 1917.84 -4.23107 -0.536886 0
M  V30 20099 S 1918.67 -5.31202 0.677107 0
M  V30 20100 C 1919.83 -6.24766 -0.376669 0
M  V30 20101 H 1920.06 -2.91268 0.595839 0
M  V30 20102 H 1917.6 -1.48439 0.424887 0
M  V30 20103 H 1919.55 -3.70306 -1.77154 0
M  V30 20104 H 1918.22 -2.53761 -1.85105 0
M  V30 20105 H 1917.41 -4.86113 -1.3308 0
M  V30 20106 H 1917.01 -3.73999 -0.00829068 0
M  V30 20107 H 1919.3 -6.65912 -1.24768 0
M  V30 20108 H 1920.25 -7.07765 0.217942 0
M  V30 20109 H 1920.65 -5.6008 -0.705003 0
M  V30 20110 N 1920.05 -0.377435 -1.53014 0
M  V30 20111 C 1921.33 0.265508 -1.9379 0
M  V30 20112 C 1921.71 1.65381 -1.31195 0
M  V30 20113 O 1921.06 2.23497 -0.475517 0
M  V30 20114 C 1921.27 0.303805 -3.47675 0
M  V30 20115 C 1922.61 0.538469 -4.21172 0
M  V30 20116 O 1923.64 0.384517 -3.54118 0
M  V30 20117 O 1922.5 0.839154 -5.40019 0
M  V30 20118 H 1919.59 0.161997 -0.810978 0
M  V30 20119 H 1922.14 -0.431081 -1.64133 0
M  V30 20120 H 1920.91 -0.669104 -3.85537 0
M  V30 20121 H 1920.53 1.0458 -3.836 0
M  V30 20122 N 1921.53 1.57237 -0.106922 0
M  V30 20123 C 1922.81 1.8627 0.596889 0
M  V30 20124 C 1923.19 1.00593 1.85591 0
M  V30 20125 O 1922.54 0.0815394 2.28354 0
M  V30 20126 C 1922.75 3.37171 0.900934 0
M  V30 20127 C 1924.09 4.05497 1.25926 0
M  V30 20128 O 1925.12 3.4212 0.99158 0
M  V30 20129 O 1923.98 5.17347 1.76109 0
M  V30 20130 H 1921.07 0.770704 0.299907 0
M  V30 20131 H 1923.62 1.69117 -0.140513 0
M  V30 20132 H 1922.39 3.91299 0.00823337 0
M  V30 20133 H 1922.01 3.59712 1.69391 0
M  V30 20134 N 1923.01 -0.166818 1.56715 0
M  V30 20135 C 1923.94 -1.2086 1.99787 0
M  V30 20136 C 1924.92 -1.45918 0.874178 0
M  V30 20137 O 1926.1 -1.57176 1.14058 0
M  V30 20138 C 1923.23 -2.54648 2.3616 0
M  V30 20139 C 1922.19 -2.44151 3.51532 0
M  V30 20140 C 1921.51 -3.82469 3.7366 0
M  V30 20141 C 1922.81 -1.9424 4.84838 0
M  V30 20142 H 1924.51 -0.850538 2.87065 0
M  V30 20143 H 1922.05 -0.407696 1.38108 0
M  V30 20144 H 1924.01 -3.27736 2.64891 0
M  V30 20145 H 1922.73 -2.92251 1.45797 0
M  V30 20146 H 1921.39 -1.73516 3.22936 0
M  V30 20147 H 1921.04 -4.17473 2.8058 0
M  V30 20148 H 1920.74 -3.76312 4.5129 0
M  V30 20149 H 1922.26 -4.57136 4.04796 0
M  V30 20150 H 1923.68 -2.57105 5.12416 0
M  V30 20151 H 1922.07 -1.99021 5.66137 0
M  V30 20152 H 1923.14 -0.89695 4.76532 0
M  V30 20153 N 1924.49 -1.51463 -0.435524 0
M  V30 20154 C 1925.43 -1.73484 -1.54939 0
M  V30 20155 C 1926.43 -0.601197 -1.58373 0
M  V30 20156 O 1927.63 -0.782622 -1.62096 0
M  V30 20157 H 1924.01 -0.54818 -0.514784 0
M  V30 20158 H 1925.98 -2.66851 -1.3354 0
M  V30 20159 C 1924.73 -1.87866 -2.92578 0
M  V30 20160 H 1924.05 -2.74503 -2.90668 0
M  V30 20161 H 1925.49 -2.07285 -3.69877 0
M  V30 20162 C 1923.95 -0.638928 -3.30786 0
M  V30 20163 O 1924.48 0.205561 -4.01174 0
M  V30 20164 N 1922.69 -0.48249 -2.86567 0
M  V30 20165 H 1922.23 -1.17078 -2.29457 0
M  V30 20166 H 1922.19 0.345753 -3.12493 0
M  V30 20167 N 1925.96 0.691085 -1.4164 0
M  V30 20168 C 1926.9 1.81646 -1.39776 0
M  V30 20169 C 1927.91 1.60026 -0.299243 0
M  V30 20170 O 1929.1 1.69446 -0.561266 0
M  V30 20171 C 1926.2 3.18486 -1.15845 0
M  V30 20172 C 1925.37 3.67096 -2.37822 0
M  V30 20173 C 1924.43 4.82618 -2.09681 0
M  V30 20174 O 1923.46 4.94002 -2.82756 0
M  V30 20175 N 1924.66 5.70178 -1.08983 0
M  V30 20176 H 1927.42 1.83736 -2.36773 0
M  V30 20177 H 1924.98 0.873576 -1.36309 0
M  V30 20178 H 1926.98 3.934 -0.949639 0
M  V30 20179 H 1925.55 3.11394 -0.274301 0
M  V30 20180 H 1924.77 2.83038 -2.74377 0
M  V30 20181 H 1926.05 3.96312 -3.19083 0
M  V30 20182 H 1925.45 5.63616 -0.48512 0
M  V30 20183 H 1924.01 6.44973 -0.940906 0
M  V30 20184 N 1927.44 1.27542 0.925789 0
M  V30 20185 C 1928.39 1.10271 2.048 0
M  V30 20186 C 1929.38 0.0252694 1.69381 0
M  V30 20187 O 1930.59 0.183134 1.79066 0
M  V30 20188 H 1926.97 0.339845 0.670828 0
M  V30 20189 H 1928.94 2.0534 2.16513 0
M  V30 20190 C 1927.69 0.768681 3.39097 0
M  V30 20191 H 1927.01 1.58967 3.66837 0
M  V30 20192 H 1928.45 0.687719 4.18386 0
M  V30 20193 C 1926.91 -0.527037 3.32752 0
M  V30 20194 O 1927.44 -1.5609 3.70134 0
M  V30 20195 N 1925.64 -0.523354 2.85848 0
M  V30 20196 H 1925.19 0.318395 2.55625 0
M  V30 20197 H 1925.15 -1.39037 2.81986 0
M  V30 20198 N 1928.92 -1.13255 1.09595 0
M  V30 20199 C 1930.33 -1.66118 0.852147 0
M  V30 20200 C 1930.68 -1.86177 -0.61909 0
M  V30 20201 O 1929.81 -1.58186 -1.47669 0
M  V30 20202 C 1930.4 -3.0176 1.54034 0
M  V30 20203 C 1928.96 -3.51608 1.34347 0
M  V30 20204 C 1928.11 -2.26815 1.59531 0
M  V30 20205 H 1931.06 -0.971539 1.25486 0
M  V30 20206 H 1931.08 -3.67812 0.974418 0
M  V30 20207 H 1930.59 -2.87129 2.6111 0
M  V30 20208 H 1928.69 -3.71439 0.293951 0
M  V30 20209 H 1928.81 -4.31618 2.07949 0
M  V30 20210 H 1927.17 -2.33492 1.01753 0
M  V30 20211 H 1927.95 -2.14748 2.6784 0
M  V30 20212 N 1930.4 -0.883401 -1.30514 0
M  V30 20213 C 1931.68 -0.421186 -1.91011 0
M  V30 20214 C 1932.06 1.09793 -1.80301 0
M  V30 20215 O 1931.4 1.93254 -1.21923 0
M  V30 20216 C 1931.61 -0.917533 -3.36723 0
M  V30 20217 C 1932.96 -0.951573 -4.138 0
M  V30 20218 O 1933.99 -0.86409 -3.4556 0
M  V30 20219 O 1932.84 -1.08053 -5.35711 0
M  V30 20220 H 1929.94 -0.128514 -0.816954 0
M  V30 20221 H 1932.48 -0.972198 -1.39091 0
M  V30 20222 H 1931.26 -1.96135 -3.38595 0
M  V30 20223 H 1930.88 -0.345595 -3.96095 0
M  V30 20224 N 1931.88 1.43833 -0.644194 0
M  V30 20225 C 1933.12 2.01515 -0.153623 0
M  V30 20226 C 1933.45 1.51022 1.23358 0
M  V30 20227 O 1932.72 0.719137 1.82223 0
M  V30 20228 H 1931.3 0.74506 -0.053802 0
M  V30 20229 H 1933.96 1.76163 -0.833833 0
M  V30 20230 H 1933.05 3.11824 -0.131313 0
M  V30 20231 N 1933.35 0.385544 1.52811 0
M  V30 20232 C 1934.29 -0.495455 2.22757 0
M  V30 20233 C 1935.27 -1.06709 1.22687 0
M  V30 20234 O 1936.45 -1.11944 1.5166 0
M  V30 20235 C 1933.58 -1.68545 2.93786 0
M  V30 20236 C 1932.62 -1.23942 4.08094 0
M  V30 20237 S 1933.46 -0.22408 5.35031 0
M  V30 20238 C 1934.61 -1.41995 6.0958 0
M  V30 20239 H 1934.84 0.0985156 2.97137 0
M  V30 20240 H 1932.38 0.169717 1.53464 0
M  V30 20241 H 1934.34 -2.36794 3.35319 0
M  V30 20242 H 1933 -2.25071 2.19093 0
M  V30 20243 H 1932.19 -2.12783 4.5688 0
M  V30 20244 H 1931.79 -0.635901 3.68554 0
M  V30 20245 H 1934.08 -2.34766 6.35524 0
M  V30 20246 H 1935.03 -0.973078 7.01382 0
M  V30 20247 H 1935.43 -1.63505 5.40302 0
M  V30 20248 N 1934.83 -1.57178 0.115259 0
M  V30 20249 C 1936.11 -1.86584 -0.587002 0
M  V30 20250 C 1936.49 -1.01576 -1.85055 0
M  V30 20251 O 1935.84 -0.0936485 -2.28308 0
M  V30 20252 C 1936.05 -3.37644 -0.883041 0
M  V30 20253 C 1937.4 -4.06159 -1.23773 0
M  V30 20254 O 1938.42 -3.42641 -0.973422 0
M  V30 20255 O 1937.28 -5.18274 -1.73363 0
M  V30 20256 H 1934.37 -0.772284 -0.295816 0
M  V30 20257 H 1936.92 -1.6904 0.14948 0
M  V30 20258 H 1935.69 -3.91298 0.0125183 0
M  V30 20259 H 1935.31 -3.60605 -1.67481 0
M  V30 20260 N 1936.31 0.158505 -1.56801 0
M  V30 20261 C 1937.24 1.22518 -1.92522 0
M  V30 20262 C 1938.22 1.42142 -0.789589 0
M  V30 20263 O 1939.41 1.56941 -1.04412 0
M  V30 20264 C 1936.53 2.58604 -2.18728 0
M  V30 20265 C 1935.58 2.55642 -3.41394 0
M  V30 20266 S 1936.41 2.03464 -4.95341 0
M  V30 20267 C 1937.57 3.41302 -5.24656 0
M  V30 20268 H 1937.8 0.920362 -2.82695 0
M  V30 20269 H 1935.33 0.363629 -1.50057 0
M  V30 20270 H 1937.29 3.36923 -2.34506 0
M  V30 20271 H 1935.95 2.8628 -1.29239 0
M  V30 20272 H 1935.15 3.55792 -3.56971 0
M  V30 20273 H 1934.75 1.85426 -3.24797 0
M  V30 20274 H 1937.04 4.37361 -5.17418 0
M  V30 20275 H 1937.98 3.30588 -6.26192 0
M  V30 20276 H 1938.39 3.37906 -4.52194 0
M  V30 20277 N 1937.79 1.51692 0.427485 0
M  V30 20278 C 1938.74 1.73716 1.51958 0
M  V30 20279 C 1939.71 0.579073 1.55679 0
M  V30 20280 O 1940.89 0.814605 1.72536 0
M  V30 20281 C 1938.03 1.87709 2.89585 0
M  V30 20282 C 1937.14 3.15297 2.95317 0
M  V30 20283 C 1936.28 3.19827 4.24128 0
M  V30 20284 C 1935.32 4.4169 4.23764 0
M  V30 20285 N 1934.46 4.43715 5.44116 0
M  V30 20286 H 1939.3 2.66933 1.3248 0
M  V30 20287 H 1936.83 1.32283 0.643393 0
M  V30 20288 H 1938.79 1.93804 3.69454 0
M  V30 20289 H 1937.42 0.978912 3.07599 0
M  V30 20290 H 1936.47 3.18464 2.08051 0
M  V30 20291 H 1937.78 4.05182 2.90911 0
M  V30 20292 H 1936.94 3.24892 5.12377 0
M  V30 20293 H 1935.68 2.27848 4.31204 0
M  V30 20294 H 1934.68 4.36791 3.33907 0
M  V30 20295 H 1935.91 5.34944 4.18343 0
M  V30 20296 H 1933.85 3.5461 5.51894 0
M  V30 20297 H 1933.77 5.27421 5.4163 0
M  V30 20298 H 1935.04 4.52986 6.34369 0
M  V30 20299 N 1939.27 -0.683564 1.42004 0
M  V30 20300 C 1940.2 -1.8095 1.47578 0
M  V30 20301 C 1941.18 -1.66804 0.333208 0
M  V30 20302 O 1942.36 -1.86357 0.546314 0
M  V30 20303 C 1939.49 -3.19182 1.36895 0
M  V30 20304 C 1938.45 -3.4805 2.49089 0
M  V30 20305 C 1937.77 -4.85764 2.23467 0
M  V30 20306 C 1939.07 -3.4582 3.91415 0
M  V30 20307 H 1940.77 -1.76543 2.41812 0
M  V30 20308 H 1938.31 -0.84794 1.16387 0
M  V30 20309 H 1940.27 -3.97674 1.39404 0
M  V30 20310 H 1938.99 -3.24245 0.391513 0
M  V30 20311 H 1937.65 -2.71915 2.45882 0
M  V30 20312 H 1937.3 -4.87467 1.24037 0
M  V30 20313 H 1937 -5.06043 2.98654 0
M  V30 20314 H 1938.52 -5.66551 2.27711 0
M  V30 20315 H 1939.94 -4.14297 3.96272 0
M  V30 20316 H 1938.33 -3.77633 4.66383 0
M  V30 20317 H 1939.4 -2.4456 4.1871 0
M  V30 20318 N 1940.75 -1.28031 -0.919012 0
M  V30 20319 C 1941.99 -1.14878 -1.66761 0
M  V30 20320 C 1942.32 0.303688 -1.92115 0
M  V30 20321 O 1941.58 1.23781 -1.51581 0
M  V30 20322 C 1941.87 -1.887 -3.03524 0
M  V30 20323 C 1941.54 -3.3852 -2.9785 0
M  V30 20324 C 1940.2 -3.79383 -2.9601 0
M  V30 20325 C 1942.55 -4.34077 -2.88491 0
M  V30 20326 C 1939.88 -5.14152 -2.82604 0
M  V30 20327 C 1942.23 -5.68912 -2.76625 0
M  V30 20328 C 1940.9 -6.09057 -2.7314 0
M  V30 20329 H 1940.17 -0.420368 -0.610223 0
M  V30 20330 H 1942.82 -1.58743 -1.07111 0
M  V30 20331 H 1941.12 -1.37368 -3.66929 0
M  V30 20332 H 1942.82 -1.75944 -3.6034 0
M  V30 20333 H 1939.41 -3.06028 -3.00074 0
M  V30 20334 H 1943.59 -4.03473 -2.89004 0
M  V30 20335 H 1938.85 -5.4439 -2.78298 0
M  V30 20336 H 1943.02 -6.4262 -2.6835 0
M  V30 20337 H 1940.65 -7.13437 -2.62509 0
M  V30 20338 N 1942.22 1.12672 -1.10194 0
M  V30 20339 C 1943.46 1.85769 -0.852599 0
M  V30 20340 C 1943.83 1.82027 0.610749 0
M  V30 20341 O 1945.03 2.50442 0.976339 0
M  V30 20342 C 1943.3 3.29565 -1.38281 0
M  V30 20343 S 1944.86 4.20064 -1.26853 0
M  V30 20344 H 1941.68 0.64075 -0.308157 0
M  V30 20345 H 1944.28 1.35746 -1.40689 0
M  V30 20346 H 1942.98 3.29846 -2.44192 0
M  V30 20347 H 1942.51 3.84652 -0.824994 0
M  V30 20348 H 1944.53 4.95691 -0.224588 0
M  V30 20349 N 1943.7 0.89031 1.30043 0
M  V30 20350 C 1944.63 0.31832 2.26979 0
M  V30 20351 C 1945.65 -0.530108 1.53928 0
M  V30 20352 O 1946.84 -0.348791 1.75059 0
M  V30 20353 C 1943.94 -0.565563 3.34148 0
M  V30 20354 C 1943.11 0.255006 4.36656 0
M  V30 20355 C 1942.17 -0.560216 5.23209 0
M  V30 20356 O 1941.19 0.0189739 5.69197 0
M  V30 20357 N 1942.4 -1.86825 5.49615 0
M  V30 20358 H 1945.16 1.15143 2.76699 0
M  V30 20359 H 1942.72 0.753836 1.43279 0
M  V30 20360 H 1944.71 -1.11711 3.88976 0
M  V30 20361 H 1943.28 -1.29935 2.84316 0
M  V30 20362 H 1942.5 0.987993 3.81618 0
M  V30 20363 H 1943.79 0.817308 5.02193 0
M  V30 20364 H 1943.19 -2.36167 5.14045 0
M  V30 20365 H 1941.75 -2.36713 6.07297 0
M  V30 20366 N 1945.18 -1.43489 0.651812 0
M  V30 20367 C 1946.11 -2.28021 -0.0903669 0
M  V30 20368 C 1947.09 -1.39746 -0.831253 0
M  V30 20369 O 1948.27 -1.69189 -0.831112 0
M  V30 20370 C 1945.4 -3.19129 -1.13466 0
M  V30 20371 C 1944.45 -4.23653 -0.49198 0
M  V30 20372 S 1945.28 -5.30454 0.73341 0
M  V30 20373 C 1946.44 -6.2513 -0.310383 0
M  V30 20374 H 1946.67 -2.9062 0.626698 0
M  V30 20375 H 1944.2 -1.4798 0.440607 0
M  V30 20376 H 1946.16 -3.72165 -1.73216 0
M  V30 20377 H 1944.82 -2.5571 -1.82403 0
M  V30 20378 H 1944.01 -4.87497 -1.27917 0
M  V30 20379 H 1943.62 -3.73987 0.0313774 0
M  V30 20380 H 1945.91 -6.67198 -1.17698 0
M  V30 20381 H 1946.85 -7.07494 0.292997 0
M  V30 20382 H 1947.26 -5.60797 -0.645559 0
M  V30 20383 N 1946.66 -0.393643 -1.52605 0
M  V30 20384 C 1947.9 0.187431 -2.01932 0
M  V30 20385 C 1948.24 1.46098 -1.27942 0
M  V30 20386 O 1947.51 1.90729 -0.381154 0
M  V30 20387 C 1947.79 0.450933 -3.57265 0
M  V30 20388 C 1947.65 -0.838204 -4.41921 0
M  V30 20389 C 1948.97 1.23971 -4.22278 0
M  V30 20390 H 1946.09 0.0666471 -0.73398 0
M  V30 20391 H 1948.73 -0.524064 -1.8263 0
M  V30 20392 H 1946.88 1.05703 -3.73844 0
M  V30 20393 H 1948.55 -1.47492 -4.37086 0
M  V30 20394 H 1946.79 -1.45258 -4.08757 0
M  V30 20395 H 1947.46 -0.608424 -5.48637 0
M  V30 20396 H 1949.94 0.726733 -4.09705 0
M  V30 20397 H 1948.82 1.39283 -5.30935 0
M  V30 20398 H 1949.08 2.25611 -3.802 0
M  V30 20399 N 1948.14 1.57115 -0.123593 0
M  V30 20400 C 1949.36 2.00133 0.544196 0
M  V30 20401 C 1949.79 1.00282 1.59139 0
M  V30 20402 O 1949.14 -0.0248396 1.81283 0
M  V30 20403 C 1949.19 3.4201 1.14287 0
M  V30 20404 O 1948.3 3.45071 2.25832 0
M  V30 20405 H 1947.64 0.650029 0.135492 0
M  V30 20406 H 1950.17 2.03484 -0.213423 0
M  V30 20407 H 1950.18 3.80316 1.47728 0
M  V30 20408 H 1948.85 4.14198 0.375866 0
M  V30 20409 H 1947.43 3.18587 1.93795 0
M  V30 20410 N 1949.61 -0.150187 1.56883 0
M  V30 20411 C 1950.84 -0.87835 1.8733 0
M  V30 20412 C 1951.26 -1.74883 0.711426 0
M  V30 20413 O 1950.61 -1.79692 -0.318906 0
M  V30 20414 C 1950.66 -1.73769 3.16996 0
M  V30 20415 O 1950.39 -0.902296 4.28708 0
M  V30 20416 C 1951.89 -2.57371 3.60936 0
M  V30 20417 H 1949.11 -0.254139 0.621011 0
M  V30 20418 H 1951.65 -0.143933 2.03993 0
M  V30 20419 H 1949.81 -2.42521 3.02097 0
M  V30 20420 H 1950.22 -1.49198 5.02832 0
M  V30 20421 H 1951.69 -3.13249 4.5451 0
M  V30 20422 H 1952.17 -3.33257 2.86071 0
M  V30 20423 H 1952.78 -1.93916 3.78519 0
M  V30 20424 N 1951.09 -1.51916 -0.419434 0
M  V30 20425 C 1952.34 -1.65714 -1.16905 0
M  V30 20426 C 1952.67 -0.380888 -1.90428 0
M  V30 20427 O 1951.95 0.620297 -1.84344 0
M  V30 20428 C 1952.23 -2.87239 -2.17177 0
M  V30 20429 C 1952.08 -4.24887 -1.47619 0
M  V30 20430 C 1953.4 -3.04281 -3.17964 0
M  V30 20431 H 1950.52 -0.603072 -0.423643 0
M  V30 20432 H 1953.16 -1.84446 -0.456035 0
M  V30 20433 H 1951.31 -2.71398 -2.77984 0
M  V30 20434 H 1952.98 -4.52433 -0.900112 0
M  V30 20435 H 1951.23 -4.26761 -0.778273 0
M  V30 20436 H 1951.9 -5.05945 -2.20733 0
M  V30 20437 H 1954.37 -3.18951 -2.67226 0
M  V30 20438 H 1953.25 -3.90843 -3.85399 0
M  V30 20439 H 1953.51 -2.17138 -3.85102 0
M  V30 20440 N 1952.57 0.676023 -1.42365 0
M  V30 20441 C 1953.48 1.81906 -1.48147 0
M  V30 20442 C 1954.5 1.70014 -0.37032 0
M  V30 20443 O 1955.67 1.91586 -0.621036 0
M  V30 20444 C 1952.74 3.18039 -1.38029 0
M  V30 20445 C 1951.8 3.41897 -2.59625 0
M  V30 20446 C 1951.03 4.71536 -2.4998 0
M  V30 20447 O 1951.25 5.49358 -1.535 0
M  V30 20448 O 1950.19 4.9661 -3.40091 0
M  V30 20449 H 1954.01 1.79984 -2.44621 0
M  V30 20450 H 1951.6 0.831611 -1.24115 0
M  V30 20451 H 1953.48 3.99277 -1.34743 0
M  V30 20452 H 1952.16 3.20602 -0.446789 0
M  V30 20453 H 1951.06 2.60512 -2.68485 0
M  V30 20454 H 1952.4 3.44164 -3.51869 0
M  V30 20455 N 1954.05 1.28517 0.912209 0
M  V30 20456 C 1955.3 1.15761 1.6615 0
M  V30 20457 C 1955.62 -0.293495 1.92273 0
M  V30 20458 O 1954.88 -1.22975 1.52235 0
M  V30 20459 C 1955.18 1.90307 3.02519 0
M  V30 20460 C 1954.84 3.40095 2.96051 0
M  V30 20461 C 1953.51 3.80948 2.93994 0
M  V30 20462 C 1955.86 4.35601 2.86185 0
M  V30 20463 C 1953.19 5.15643 2.79873 0
M  V30 20464 C 1955.54 5.70371 2.73604 0
M  V30 20465 C 1954.2 6.10497 2.69906 0
M  V30 20466 H 1953.47 0.423598 0.607985 0
M  V30 20467 H 1956.12 1.59309 1.06268 0
M  V30 20468 H 1954.42 1.39312 3.66196 0
M  V30 20469 H 1956.12 1.77852 3.59402 0
M  V30 20470 H 1952.71 3.07615 2.98447 0
M  V30 20471 H 1956.89 4.05 2.8686 0
M  V30 20472 H 1952.15 5.45858 2.75407 0
M  V30 20473 H 1956.32 6.44035 2.64939 0
M  V30 20474 H 1953.95 7.1482 2.58722 0
M  V30 20475 N 1955.53 -1.12086 1.1079 0
M  V30 20476 C 1956.78 -1.83036 0.847387 0
M  V30 20477 C 1957.09 -1.85209 -0.629051 0
M  V30 20478 O 1958.29 -2.52191 -1.00559 0
M  V30 20479 C 1956.75 -3.28682 1.46615 0
M  V30 20480 C 1956.36 -3.34858 2.97614 0
M  V30 20481 C 1958.1 -4.04578 1.28519 0
M  V30 20482 C 1956.01 -4.7486 3.52508 0
M  V30 20483 H 1954.94 -0.685806 0.313347 0
M  V30 20484 H 1957.59 -1.2618 1.33233 0
M  V30 20485 H 1955.97 -3.85429 0.908883 0
M  V30 20486 H 1957.15 -2.8803 3.59688 0
M  V30 20487 H 1955.46 -2.72438 3.14907 0
M  V30 20488 H 1958.06 -5.07962 1.6697 0
M  V30 20489 H 1958.4 -4.1568 0.227105 0
M  V30 20490 H 1958.93 -3.542 1.81073 0
M  V30 20491 H 1955.67 -4.68954 4.57999 0
M  V30 20492 H 1955.19 -5.22125 2.95203 0
M  V30 20493 H 1956.87 -5.43807 3.50546 0
M  V30 20494 N 1957 -0.897194 -1.29569 0
M  V30 20495 C 1958.42 -0.570676 -1.77764 0
M  V30 20496 C 1958.77 0.913595 -1.73631 0
M  V30 20497 O 1957.89 1.71426 -1.32068 0
M  V30 20498 C 1958.49 -1.02914 -3.22791 0
M  V30 20499 C 1957.05 -0.753828 -3.68774 0
M  V30 20500 C 1956.19 -1.20525 -2.49738 0
M  V30 20501 H 1959.14 -1.08018 -1.16266 0
M  V30 20502 H 1959.16 -0.363343 -3.78761 0
M  V30 20503 H 1958.68 -2.10944 -3.25767 0
M  V30 20504 H 1956.78 0.313965 -3.71275 0
M  V30 20505 H 1956.89 -1.34995 -4.59688 0
M  V30 20506 H 1955.25 -0.624304 -2.4693 0
M  V30 20507 H 1956.04 -2.29355 -2.55443 0
M  V30 20508 N 1958.48 1.43142 -0.659413 0
M  V30 20509 C 1959.89 1.84958 -0.254412 0
M  V30 20510 C 1960.24 1.552 1.20031 0
M  V30 20511 O 1959.37 1.00407 1.91696 0
M  V30 20512 C 1959.96 3.35731 -0.454961 0
M  V30 20513 C 1958.52 3.76256 -0.104223 0
M  V30 20514 C 1957.67 2.66828 -0.754849 0
M  V30 20515 H 1960.62 1.33206 -0.862657 0
M  V30 20516 H 1960.64 3.79334 0.297654 0
M  V30 20517 H 1960.15 3.57359 -1.51381 0
M  V30 20518 H 1958.26 3.60239 0.951785 0
M  V30 20519 H 1958.37 4.76115 -0.534009 0
M  V30 20520 H 1956.73 2.54009 -0.187526 0
M  V30 20521 H 1957.52 2.91283 -1.81685 0
M  V30 20522 N 1959.96 0.40173 1.52394 0
M  V30 20523 C 1960.89 -0.4718 2.2327 0
M  V30 20524 C 1961.87 -1.05401 1.23812 0
M  V30 20525 O 1963.06 -1.10329 1.52839 0
M  V30 20526 C 1960.18 -1.6542 2.95557 0
M  V30 20527 C 1959.23 -1.19607 4.09385 0
M  V30 20528 S 1960.06 -0.16732 5.35239 0
M  V30 20529 C 1961.22 -1.35521 6.11052 0
M  V30 20530 H 1961.45 0.130025 2.97016 0
M  V30 20531 H 1958.98 0.185984 1.53276 0
M  V30 20532 H 1960.94 -2.33224 3.37812 0
M  V30 20533 H 1959.6 -2.22735 2.21468 0
M  V30 20534 H 1958.8 -2.07925 4.59111 0
M  V30 20535 H 1958.4 -0.596775 3.69208 0
M  V30 20536 H 1960.69 -2.28013 6.37978 0
M  V30 20537 H 1961.63 -0.898632 7.02375 0
M  V30 20538 H 1962.04 -1.57765 5.42006 0
M  V30 20539 N 1961.44 -1.57047 0.131923 0
M  V30 20540 C 1962.4 -2.14813 -0.799243 0
M  V30 20541 C 1963.4 -1.08616 -1.18572 0
M  V30 20542 O 1964.59 -1.3433 -1.10911 0
M  V30 20543 C 1961.72 -2.69894 -2.08255 0
M  V30 20544 H 1962.92 -2.98426 -0.296996 0
M  V30 20545 H 1960.47 -1.55858 -0.117418 0
M  V30 20546 H 1961.2 -1.89905 -2.62881 0
M  V30 20547 H 1960.99 -3.47574 -1.81479 0
M  V30 20548 H 1962.48 -3.14451 -2.74792 0
M  V30 20549 N 1962.92 0.141865 -1.5696 0
M  V30 20550 C 1964.14 0.872384 -1.8816 0
M  V30 20551 C 1964.57 1.73713 -0.721494 0
M  V30 20552 O 1963.92 1.78294 0.328757 0
M  V30 20553 C 1963.97 1.7007 -3.17976 0
M  V30 20554 O 1963.08 2.80545 -3.02271 0
M  V30 20555 H 1962.42 0.242672 -0.618066 0
M  V30 20556 H 1964.95 0.131136 -2.04179 0
M  V30 20557 H 1964.96 2.09466 -3.50126 0
M  V30 20558 H 1963.63 1.06573 -4.02014 0
M  V30 20559 H 1962.21 2.44519 -2.81541 0
M  V30 20560 N 1964.39 1.52136 0.411372 0
M  V30 20561 C 1965.32 1.78277 1.50796 0
M  V30 20562 C 1966.31 0.633643 1.57857 0
M  V30 20563 O 1967.49 0.879011 1.73168 0
M  V30 20564 C 1964.62 1.93142 2.88641 0
M  V30 20565 C 1963.57 3.08727 2.96431 0
M  V30 20566 C 1962.9 3.08812 4.36508 0
M  V30 20567 C 1964.2 4.48228 2.68122 0
M  V30 20568 H 1965.89 2.70102 1.29171 0
M  V30 20569 H 1963.44 1.29971 0.619965 0
M  V30 20570 H 1965.39 2.10012 3.65339 0
M  V30 20571 H 1964.12 0.979869 3.11554 0
M  V30 20572 H 1962.78 2.91604 2.22177 0
M  V30 20573 H 1962.42 2.11383 4.56428 0
M  V30 20574 H 1962.12 3.86444 4.42645 0
M  V30 20575 H 1963.65 3.27809 5.15144 0
M  V30 20576 H 1965.06 4.65568 3.34544 0
M  V30 20577 H 1963.46 5.27761 2.85638 0
M  V30 20578 H 1964.53 4.56478 1.63572 0
M  V30 20579 N 1965.87 -0.668464 1.42721 0
M  V30 20580 C 1966.78 -1.81118 1.49109 0
M  V30 20581 C 1967.8 -1.69815 0.379331 0
M  V30 20582 O 1968.98 -1.91254 0.631187 0
M  V30 20583 C 1966.04 -3.17303 1.39713 0
M  V30 20584 C 1965.1 -3.40515 2.61434 0
M  V30 20585 C 1964.33 -4.70203 2.52477 0
M  V30 20586 O 1964.56 -5.48536 1.56411 0
M  V30 20587 O 1963.49 -4.948 3.42719 0
M  V30 20588 H 1967.32 -1.78684 2.45572 0
M  V30 20589 H 1964.9 -0.825017 1.24554 0
M  V30 20590 H 1966.78 -3.98557 1.36859 0
M  V30 20591 H 1965.46 -3.2036 0.463785 0
M  V30 20592 H 1964.37 -2.59085 2.69863 0
M  V30 20593 H 1965.7 -3.42293 3.53689 0
M  V30 20594 N 1967.35 -1.28999 -0.905381 0
M  V30 20595 C 1968.26 -1.15513 -2.04191 0
M  V30 20596 C 1969.28 -0.0797116 -1.73817 0
M  V30 20597 O 1970.45 -0.290664 -1.99292 0
M  V30 20598 C 1967.52 -0.826901 -3.36695 0
M  V30 20599 C 1966.58 -1.98557 -3.80623 0
M  V30 20600 C 1965.81 -1.6729 -5.06803 0
M  V30 20601 O 1966.04 -0.591168 -5.67328 0
M  V30 20602 O 1964.97 -2.51914 -5.46647 0
M  V30 20603 H 1968.8 -2.10942 -2.18488 0
M  V30 20604 H 1966.38 -1.08397 -1.02813 0
M  V30 20605 H 1968.26 -0.658165 -4.16228 0
M  V30 20606 H 1966.94 0.0976541 -3.23553 0
M  V30 20607 H 1965.84 -2.20951 -3.0188 0
M  V30 20608 H 1967.18 -2.89112 -3.9834 0
M  V30 20609 N 1968.83 1.11497 -1.11383 0
M  V30 20610 C 1969.78 2.1752 -0.771611 0
M  V30 20611 C 1970.75 1.64106 0.256616 0
M  V30 20612 O 1971.93 1.90331 0.133672 0
M  V30 20613 C 1969.07 3.44396 -0.220313 0
M  V30 20614 C 1968.18 4.11817 -1.30503 0
M  V30 20615 C 1967.32 5.26375 -0.714331 0
M  V30 20616 C 1966.36 5.85679 -1.77894 0
M  V30 20617 N 1965.5 6.91634 -1.20778 0
M  V30 20618 H 1970.34 2.46138 -1.67989 0
M  V30 20619 H 1967.87 1.20832 -0.838927 0
M  V30 20620 H 1969.83 4.17035 0.117286 0
M  V30 20621 H 1968.46 3.16164 0.651161 0
M  V30 20622 H 1967.51 3.37258 -1.75959 0
M  V30 20623 H 1968.82 4.5195 -2.11051 0
M  V30 20624 H 1967.98 6.05819 -0.326754 0
M  V30 20625 H 1966.72 4.87546 0.12248 0
M  V30 20626 H 1965.72 5.04914 -2.17583 0
M  V30 20627 H 1966.95 6.26576 -2.61877 0
M  V30 20628 H 1964.89 6.54824 -0.392602 0
M  V30 20629 H 1964.81 7.30419 -1.94998 0
M  V30 20630 H 1966.08 7.74884 -0.847072 0
M  V30 20631 N 1970.31 0.904053 1.29092 0
M  V30 20632 C 1971.56 0.531152 1.94995 0
M  V30 20633 C 1971.88 -0.926415 1.71588 0
M  V30 20634 O 1971.15 -1.65378 1.0501 0
M  V30 20635 H 1969.73 0.193439 0.721519 0
M  V30 20636 H 1972.39 1.1513 1.57262 0
M  V30 20637 H 1971.48 0.717412 3.03743 0
M  V30 20638 N 1971.79 -1.4279 0.666995 0
M  V30 20639 C 1973.03 -2.00866 0.183286 0
M  V30 20640 C 1973.35 -1.53315 -1.21465 0
M  V30 20641 O 1974.55 -2.03756 -1.79432 0
M  V30 20642 C 1973.01 -3.58834 0.276836 0
M  V30 20643 C 1972.62 -4.15374 1.67834 0
M  V30 20644 C 1974.36 -4.2424 -0.14856 0
M  V30 20645 C 1972.27 -5.65681 1.72507 0
M  V30 20646 H 1971.2 -0.751214 0.0647613 0
M  V30 20647 H 1973.85 -1.63603 0.83104 0
M  V30 20648 H 1972.23 -3.93563 -0.438672 0
M  V30 20649 H 1973.41 -3.9212 2.4203 0
M  V30 20650 H 1971.72 -3.62391 2.0509 0
M  V30 20651 H 1974.32 -5.34533 -0.133681 0
M  V30 20652 H 1974.66 -3.99154 -1.18245 0
M  V30 20653 H 1975.19 -3.94444 0.51567 0
M  V30 20654 H 1971.93 -5.95555 2.73852 0
M  V30 20655 H 1971.45 -5.9095 1.02655 0
M  V30 20656 H 1973.13 -6.29963 1.47499 0
M  V30 20657 N 1973.26 -0.409806 -1.52179 0
M  V30 20658 C 1974.19 0.406421 -2.29936 0
M  V30 20659 C 1975.17 1.04553 -1.34174 0
M  V30 20660 O 1976.36 1.05441 -1.63082 0
M  V30 20661 C 1973.49 1.52297 -3.12127 0
M  V30 20662 C 1972.44 1.00883 -4.15941 0
M  V30 20663 C 1971.77 2.21903 -4.8648 0
M  V30 20664 C 1973.07 0.0623996 -5.22263 0
M  V30 20665 H 1974.76 -0.242406 -2.98417 0
M  V30 20666 H 1972.31 -0.118023 -1.43516 0
M  V30 20667 H 1974.26 2.10097 -3.65291 0
M  V30 20668 H 1972.99 2.19968 -2.41416 0
M  V30 20669 H 1971.65 0.453228 -3.63788 0
M  V30 20670 H 1971.29 2.88131 -4.12298 0
M  V30 20671 H 1970.99 1.88153 -5.56662 0
M  V30 20672 H 1972.52 2.80308 -5.42457 0
M  V30 20673 H 1973.93 0.549223 -5.70663 0
M  V30 20674 H 1972.33 -0.186317 -5.99811 0
M  V30 20675 H 1973.4 -0.882673 -4.76799 0
M  V30 20676 N 1974.74 1.56975 -0.14025 0
M  V30 20677 C 1975.99 1.95906 0.512543 0
M  V30 20678 C 1976.32 1.02475 1.65315 0
M  V30 20679 O 1975.57 0.0526473 1.95629 0
M  V30 20680 C 1975.87 3.4113 1.06606 0
M  V30 20681 C 1975.54 4.50878 0.044598 0
M  V30 20682 C 1974.2 4.8062 -0.236217 0
M  V30 20683 C 1976.55 5.17126 -0.650368 0
M  V30 20684 C 1973.88 5.73919 -1.21792 0
M  V30 20685 C 1976.23 6.11483 -1.62084 0
M  V30 20686 C 1974.89 6.39607 -1.90943 0
M  V30 20687 H 1974.16 0.716872 0.187553 0
M  V30 20688 H 1976.81 1.90166 -0.225653 0
M  V30 20689 H 1975.12 3.43669 1.88145 0
M  V30 20690 H 1976.81 3.68577 1.57961 0
M  V30 20691 H 1973.4 4.27726 0.273651 0
M  V30 20692 H 1977.59 4.94286 -0.446606 0
M  V30 20693 H 1972.84 5.94005 -1.44802 0
M  V30 20694 H 1977.02 6.61895 -2.1649 0
M  V30 20695 H 1974.64 7.11707 -2.67165 0
M  V30 20696 N 1976.22 -0.133539 1.57033 0
M  V30 20697 C 1977.45 -0.858432 1.88251 0
M  V30 20698 C 1977.86 -1.74119 0.729935 0
M  V30 20699 O 1977.22 -1.8002 -0.29983 0
M  V30 20700 C 1977.27 -1.70397 3.18821 0
M  V30 20701 O 1976.99 -0.856775 4.29641 0
M  V30 20702 C 1978.49 -2.53529 3.63646 0
M  V30 20703 H 1975.71 -0.247538 0.623671 0
M  V30 20704 H 1978.26 -0.122289 2.04134 0
M  V30 20705 H 1976.41 -2.39303 3.04652 0
M  V30 20706 H 1976.83 -1.43857 5.04386 0
M  V30 20707 H 1978.3 -3.0841 4.57807 0
M  V30 20708 H 1978.78 -3.30204 2.89589 0
M  V30 20709 H 1979.38 -1.89891 3.80554 0
M  V30 20710 N 1977.7 -1.52352 -0.403298 0
M  V30 20711 C 1978.92 -1.70849 -1.17582 0
M  V30 20712 C 1979.35 -0.419696 -1.83358 0
M  V30 20713 O 1978.71 0.623346 -1.70247 0
M  V30 20714 C 1978.75 -2.8492 -2.21027 0
M  V30 20715 O 1977.86 -2.50896 -3.273 0
M  V30 20716 H 1977.2 -0.568568 -0.342967 0
M  V30 20717 H 1979.73 -1.99082 -0.471975 0
M  V30 20718 H 1979.74 -3.10002 -2.6526 0
M  V30 20719 H 1978.41 -3.78423 -1.72536 0
M  V30 20720 H 1976.99 -2.36506 -2.88304 0
M  V30 20721 N 1979.18 0.660885 -1.43074 0
M  V30 20722 C 1980.45 1.41768 -1.34764 0
M  V30 20723 C 1980.83 2.11098 0.00828719 0
M  V30 20724 O 1980.18 2.04246 1.02449 0
M  V30 20725 C 1980.39 2.40869 -2.52553 0
M  V30 20726 C 1981.74 3.05098 -2.95297 0
M  V30 20727 O 1982.76 2.51196 -2.52545 0
M  V30 20728 O 1981.62 4.02808 -3.69335 0
M  V30 20729 H 1978.72 0.633017 -0.532182 0
M  V30 20730 H 1981.26 0.688438 -1.55108 0
M  V30 20731 H 1980.03 1.88533 -3.42886 0
M  V30 20732 H 1979.66 3.21254 -2.34268 0
M  V30 20733 N 1980.65 1.29477 0.898527 0
M  V30 20734 C 1981.88 1.20232 1.68011 0
M  V30 20735 C 1982.29 -0.239393 1.87679 0
M  V30 20736 O 1981.64 -1.17197 1.41459 0
M  V30 20737 C 1981.7 1.84564 3.08507 0
M  V30 20738 C 1981.36 3.33862 3.12065 0
M  V30 20739 C 1982.36 4.30068 2.92125 0
M  V30 20740 C 1980.04 3.75082 3.34094 0
M  V30 20741 C 1982.04 5.65469 2.94149 0
M  V30 20742 C 1979.72 5.10604 3.35748 0
M  V30 20743 C 1980.72 6.05607 3.15798 0
M  V30 20744 O 1980.41 7.38655 3.17243 0
M  V30 20745 H 1980.14 0.417733 0.531484 0
M  V30 20746 H 1982.7 1.71396 1.13193 0
M  V30 20747 H 1980.93 1.27913 3.64932 0
M  V30 20748 H 1982.62 1.69625 3.68758 0
M  V30 20749 H 1983.38 3.99556 2.74918 0
M  V30 20750 H 1979.26 3.01588 3.48662 0
M  V30 20751 H 1982.8 6.39598 2.78496 0
M  V30 20752 H 1978.7 5.40761 3.52488 0
M  V30 20753 H 1979.47 7.47475 3.33502 0
M  V30 20754 N 1982.13 -1.10905 1.11972 0
M  V30 20755 C 1983.38 -1.83033 0.873311 0
M  V30 20756 C 1983.71 -1.84716 -0.599472 0
M  V30 20757 O 1982.99 -1.30427 -1.44288 0
M  V30 20758 C 1983.27 -3.29941 1.44261 0
M  V30 20759 C 1983.12 -3.36619 2.98341 0
M  V30 20760 C 1984.44 -4.26179 1.09815 0
M  V30 20761 H 1981.56 -0.664529 0.318701 0
M  V30 20762 H 1984.2 -1.30012 1.38553 0
M  V30 20763 H 1982.35 -3.75223 1.00697 0
M  V30 20764 H 1984.02 -2.99854 3.5055 0
M  V30 20765 H 1982.27 -2.76668 3.34122 0
M  V30 20766 H 1982.94 -4.40043 3.33266 0
M  V30 20767 H 1985.41 -3.89105 1.47433 0
M  V30 20768 H 1984.29 -5.27343 1.52318 0
M  V30 20769 H 1984.55 -4.42099 0.00966838 0
M  V30 20770 N 1983.61 -0.910886 -1.2861 0
M  V30 20771 C 1984.54 -0.413998 -2.29801 0
M  V30 20772 C 1985.52 0.51689 -1.62056 0
M  V30 20773 O 1986.71 0.425236 -1.89487 0
M  V30 20774 C 1983.84 0.349336 -3.45539 0
M  V30 20775 C 1982.79 -0.49215 -4.25161 0
M  V30 20776 C 1982.12 0.399352 -5.33207 0
M  V30 20777 C 1983.42 -1.74792 -4.92184 0
M  V30 20778 H 1985.11 -1.25965 -2.71612 0
M  V30 20779 H 1982.66 -0.607149 -1.30575 0
M  V30 20780 H 1984.61 0.70777 -4.15414 0
M  V30 20781 H 1983.33 1.22887 -3.02599 0
M  V30 20782 H 1981.99 -0.833064 -3.57009 0
M  V30 20783 H 1981.64 1.27734 -4.86511 0
M  V30 20784 H 1981.34 -0.160062 -5.87382 0
M  V30 20785 H 1982.86 0.753731 -6.0593 0
M  V30 20786 H 1984.28 -1.45856 -5.54436 0
M  V30 20787 H 1982.68 -2.24952 -5.56342 0
M  V30 20788 H 1983.75 -2.4774 -4.16837 0
M  V30 20789 N 1985.09 1.42434 -0.674558 0
M  V30 20790 C 1986.05 2.29199 -0.00527063 0
M  V30 20791 C 1987.05 1.43313 0.729245 0
M  V30 20792 O 1988.24 1.64704 0.567284 0
M  V30 20793 C 1985.37 3.25805 1.0032 0
M  V30 20794 H 1986.57 2.89874 -0.768954 0
M  V30 20795 H 1984.12 1.5007 -0.436898 0
M  V30 20796 H 1984.85 2.70068 1.79538 0
M  V30 20797 H 1984.64 3.89152 0.479902 0
M  V30 20798 H 1986.13 3.90875 1.46993 0
M  V30 20799 N 1986.57 0.417871 1.51959 0
M  V30 20800 C 1987.79 -0.156736 2.06807 0
M  V30 20801 C 1988.22 -1.37354 1.28512 0
M  V30 20802 O 1987.57 -1.78494 0.317715 0
M  V30 20803 C 1987.62 -0.476913 3.57432 0
M  V30 20804 O 1986.73 -1.56654 3.81488 0
M  V30 20805 H 1986.07 -0.0103873 0.663919 0
M  V30 20806 H 1988.6 0.593593 1.958 0
M  V30 20807 H 1988.61 -0.733026 4.01361 0
M  V30 20808 H 1987.28 0.412542 4.13849 0
M  V30 20809 H 1985.86 -1.30191 3.49435 0
M  V30 20810 N 1988.04 -1.56898 0.148573 0
M  V30 20811 C 1989.27 -2.0054 -0.509047 0
M  V30 20812 C 1989.69 -1.02867 -1.58315 0
M  V30 20813 O 1989.04 -0.0259297 -1.82482 0
M  V30 20814 C 1989.1 -3.44093 -1.10825 0
M  V30 20815 O 1988.82 -4.38032 -0.077048 0
M  V30 20816 C 1990.32 -4.03021 -1.84633 0
M  V30 20817 H 1987.54 -0.657812 -0.132378 0
M  V30 20818 H 1990.08 -2.03044 0.243618 0
M  V30 20819 H 1988.24 -3.42436 -1.81153 0
M  V30 20820 H 1988.65 -5.21953 -0.516256 0
M  V30 20821 H 1990.12 -5.05458 -2.21847 0
M  V30 20822 H 1990.6 -3.43821 -2.73283 0
M  V30 20823 H 1991.21 -4.08313 -1.19 0
M  V30 20824 N 1989.52 0.125209 -1.57102 0
M  V30 20825 C 1990.47 1.17292 -2.00861 0
M  V30 20826 C 1991.46 1.4323 -0.904511 0
M  V30 20827 O 1992.67 1.43266 -1.08972 0
M  V30 20828 H 1989.05 0.395322 -0.639706 0
M  V30 20829 H 1991.02 0.777307 -2.88098 0
M  V30 20830 C 1989.77 2.49311 -2.42362 0
M  V30 20831 H 1989.09 2.30188 -3.26884 0
M  V30 20832 H 1990.53 3.21196 -2.76784 0
M  V30 20833 C 1988.99 3.1144 -1.2848 0
M  V30 20834 O 1989.52 3.97233 -0.597373 0
M  V30 20835 N 1987.72 2.71221 -1.04344 0
M  V30 20836 H 1987.27 2.0155 -1.60423 0
M  V30 20837 H 1987.23 3.1312 -0.283408 0
M  V30 20838 N 1991 1.52564 0.395213 0
M  V30 20839 C 1992.23 1.7147 1.16674 0
M  V30 20840 C 1992.65 0.429414 1.83133 0
M  V30 20841 O 1992.01 -0.614309 1.70575 0
M  V30 20842 C 1992.06 2.86088 2.19513 0
M  V30 20843 O 1991.16 2.52628 3.25964 0
M  V30 20844 H 1990.5 0.570379 0.339947 0
M  V30 20845 H 1993.03 1.99329 0.461411 0
M  V30 20846 H 1993.04 3.11404 2.63612 0
M  V30 20847 H 1991.72 3.79333 1.70527 0
M  V30 20848 H 1990.29 2.38032 2.87046 0
M  V30 20849 N 1992.48 -0.653289 1.43422 0
M  V30 20850 C 1993.43 -1.75934 1.45021 0
M  V30 20851 C 1994.41 -1.57713 0.318677 0
M  V30 20852 O 1995.6 -1.67826 0.562454 0
M  V30 20853 C 1992.73 -3.14521 1.37591 0
M  V30 20854 C 1991.82 -3.38291 2.55773 0
M  V30 20855 N 1992.21 -3.32534 3.81123 0
M  V30 20856 C 1990.51 -3.6901 2.50495 0
M  V30 20857 C 1991.21 -3.56383 4.59746 0
M  V30 20858 N 1990.19 -3.78192 3.90476 0
M  V30 20859 H 1993.99 -1.69909 2.39809 0
M  V30 20860 H 1991.5 -0.854954 1.38074 0
M  V30 20861 H 1993.5 -3.9381 1.36819 0
M  V30 20862 H 1992.16 -3.21729 0.438229 0
M  V30 20863 H 1993.17 -3.11948 4.13412 0
M  V30 20864 H 1989.85 -3.83333 1.65415 0
M  V30 20865 H 1991.24 -3.57711 5.68764 0
M  V30 20866 N 1993.96 -1.29952 -0.891648 0
M  V30 20867 C 1995.18 -1.21422 -1.68141 0
M  V30 20868 C 1995.61 0.220633 -1.86802 0
M  V30 20869 O 1994.96 1.15902 -1.39414 0
M  V30 20870 C 1995.01 -1.94116 -3.03894 0
M  V30 20871 O 1994.12 -1.26369 -3.92562 0
M  V30 20872 H 1993.46 -0.420318 -0.514032 0
M  V30 20873 H 1995.99 -1.71658 -1.11331 0
M  V30 20874 H 1996 -2.02881 -3.53982 0
M  V30 20875 H 1994.67 -2.98474 -2.89631 0
M  V30 20876 H 1993.25 -1.25915 -3.50998 0
M  V30 20877 N 1995.44 1.1031 -1.12559 0
M  V30 20878 C 1996.68 1.81665 -0.876399 0
M  V30 20879 C 1997 1.86186 0.599506 0
M  V30 20880 O 1998.2 2.53759 0.965337 0
M  V30 20881 C 1996.66 3.26308 -1.51826 0
M  V30 20882 C 1996.27 3.30081 -3.02904 0
M  V30 20883 C 1998.01 4.02482 -1.34939 0
M  V30 20884 C 1995.92 4.69192 -3.60018 0
M  V30 20885 H 1994.85 0.680734 -0.324218 0
M  V30 20886 H 1997.5 1.24044 -1.35223 0
M  V30 20887 H 1995.88 3.83934 -0.970087 0
M  V30 20888 H 1997.06 2.82272 -3.64224 0
M  V30 20889 H 1995.37 2.67393 -3.19202 0
M  V30 20890 H 1997.97 5.05241 -1.7503 0
M  V30 20891 H 1998.31 4.15266 -0.293208 0
M  V30 20892 H 1998.84 3.51274 -1.86685 0
M  V30 20893 H 1995.58 4.61608 -4.65401 0
M  V30 20894 H 1995.1 5.17363 -3.03473 0
M  V30 20895 H 1996.78 5.38161 -3.59153 0
M  V30 20896 N 1996.91 0.917694 1.28125 0
M  V30 20897 C 1997.88 0.413823 2.25433 0
M  V30 20898 C 1998.88 -0.46205 1.54019 0
M  V30 20899 O 2000.07 -0.264546 1.7218 0
M  V30 20900 C 1997.2 -0.406249 3.38471 0
M  V30 20901 H 1998.39 1.27345 2.7152 0
M  V30 20902 H 1995.94 0.697455 1.39876 0
M  V30 20903 H 1996.68 -1.28511 2.97751 0
M  V30 20904 H 1996.46 0.221601 3.91473 0
M  V30 20905 H 1997.95 -0.749491 4.10819 0
M  V30 20906 N 1998.39 -1.42074 0.682102 0
M  V30 20907 C 1999.8 -1.8453 0.283805 0
M  V30 20908 C 2000.15 -1.5709 -1.17547 0
M  V30 20909 O 1999.28 -1.03444 -1.90075 0
M  V30 20910 C 1999.87 -3.34965 0.508316 0
M  V30 20911 C 1998.43 -3.76042 0.164069 0
M  V30 20912 C 1997.58 -2.65594 0.797204 0
M  V30 20913 H 2000.53 -1.31817 0.88374 0
M  V30 20914 H 2000.55 -3.7976 -0.237267 0
M  V30 20915 H 2000.06 -3.54905 1.57047 0
M  V30 20916 H 1998.16 -3.61707 -0.894353 0
M  V30 20917 H 1998.28 -4.75205 0.609688 0
M  V30 20918 H 1996.64 -2.53678 0.227913 0
M  V30 20919 H 1997.42 -2.88355 1.86296 0
M  V30 20920 N 1999.87 -0.425924 -1.51735 0
M  V30 20921 C 2001.28 0.0398403 -1.86657 0
M  V30 20922 C 2001.63 1.4296 -1.34376 0
M  V30 20923 O 2000.76 2.05109 -0.689867 0
M  V30 20924 C 2001.35 0.0790715 -3.38708 0
M  V30 20925 C 1999.91 0.489215 -3.73207 0
M  V30 20926 C 1999.06 -0.325517 -2.75383 0
M  V30 20927 H 2002.01 -0.642271 -1.45123 0
M  V30 20928 H 2002.03 0.890928 -3.69923 0
M  V30 20929 H 2001.54 -0.932545 -3.7673 0
M  V30 20930 H 1999.64 1.50686 -3.40771 0
M  V30 20931 H 1999.76 0.221939 -4.78586 0
M  V30 20932 H 1998.12 0.214561 -2.53795 0
M  V30 20933 H 1998.9 -1.3358 -3.16246 0
M  V30 20934 N 2001.35 1.56817 -0.156891 0
M  V30 20935 C 2002.58 2.00807 0.498405 0
M  V30 20936 C 2002.99 1.03706 1.57768 0
M  V30 20937 O 2002.35 0.0356068 1.82465 0
M  V30 20938 C 2002.4 3.44676 1.08999 0
M  V30 20939 O 2002.12 4.38067 0.053817 0
M  V30 20940 C 2003.62 4.03994 1.82493 0
M  V30 20941 H 2000.84 0.658505 0.128888 0
M  V30 20942 H 2003.38 2.02912 -0.254383 0
M  V30 20943 H 2001.54 3.43392 1.79334 0
M  V30 20944 H 2001.95 5.2222 0.488568 0
M  V30 20945 H 2003.43 5.06627 2.19164 0
M  V30 20946 H 2003.9 3.45265 2.71456 0
M  V30 20947 H 2004.51 4.08938 1.16833 0
M  V30 20948 N 2002.83 -0.116876 1.57166 0
M  V30 20949 C 2004.07 -0.825509 1.85238 0
M  V30 20950 C 2004.4 -1.79427 0.742936 0
M  V30 20951 O 2003.68 -1.92873 -0.251043 0
M  V30 20952 C 2003.96 -1.57353 3.23901 0
M  V30 20953 C 2003.82 -0.624227 4.45447 0
M  V30 20954 C 2005.13 -2.52922 3.60164 0
M  V30 20955 H 2002.25 -0.298653 0.673777 0
M  V30 20956 H 2004.9 -0.0897002 1.89788 0
M  V30 20957 H 2003.05 -2.20078 3.20153 0
M  V30 20958 H 2004.72 -0.00566556 4.613 0
M  V30 20959 H 2002.96 0.0640779 4.33753 0
M  V30 20960 H 2003.63 -1.1843 5.39146 0
M  V30 20961 H 2006.11 -2.00302 3.64717 0
M  V30 20962 H 2004.98 -3.02291 4.58161 0
M  V30 20963 H 2005.24 -3.35684 2.87695 0
M  V30 20964 N 2004.3 -1.52772 -0.387116 0
M  V30 20965 C 2005.27 -1.77036 -1.45571 0
M  V30 20966 C 2006.27 -0.64041 -1.47497 0
M  V30 20967 O 2007.46 -0.908478 -1.48635 0
M  V30 20968 C 2004.59 -1.87284 -2.84846 0
M  V30 20969 H 2005.78 -2.72452 -1.25339 0
M  V30 20970 H 2003.33 -1.43522 -0.61897 0
M  V30 20971 H 2004.07 -0.9386 -3.1042 0
M  V30 20972 H 2003.85 -2.6945 -2.84849 0
M  V30 20973 H 2005.34 -2.07723 -3.62272 0
M  V30 20974 N 2005.78 0.645673 -1.43767 0
M  V30 20975 C 2006.73 1.75163 -1.45952 0
M  V30 20976 C 2007.72 1.57541 -0.327037 0
M  V30 20977 O 2008.91 1.67525 -0.571347 0
M  V30 20978 C 2006.04 3.13787 -1.39257 0
M  V30 20979 C 2005.12 3.3693 -2.57564 0
M  V30 20980 N 2005.51 3.30508 -3.82881 0
M  V30 20981 C 2003.81 3.67676 -2.52449 0
M  V30 20982 C 2004.51 3.5394 -4.61629 0
M  V30 20983 N 2003.49 3.76116 -3.92476 0
M  V30 20984 H 2007.29 1.68634 -2.40707 0
M  V30 20985 H 2004.8 0.847619 -1.38525 0
M  V30 20986 H 2006.8 3.93079 -1.38905 0
M  V30 20987 H 2005.46 3.21492 -0.455285 0
M  V30 20988 H 2006.47 3.09751 -4.1506 0
M  V30 20989 H 2003.15 3.8245 -1.67445 0
M  V30 20990 H 2004.54 3.5469 -5.70653 0
M  V30 20991 N 2007.26 1.30423 0.884744 0
M  V30 20992 C 2008.48 1.22312 1.67495 0
M  V30 20993 C 2008.91 -0.210723 1.86916 0
M  V30 20994 O 2008.27 -1.15161 1.40027 0
M  V30 20995 C 2008.32 1.95725 3.0286 0
M  V30 20996 O 2007.42 1.28449 3.91886 0
M  V30 20997 H 2006.76 0.423038 0.511796 0
M  V30 20998 H 2009.29 1.72246 1.10419 0
M  V30 20999 H 2009.3 2.04755 3.52901 0
M  V30 21000 H 2007.98 3.00006 2.88044 0
M  V30 21001 H 2006.55 1.27775 3.50326 0
M  V30 21002 N 2008.74 -1.09711 1.13142 0
M  V30 21003 C 2010.01 -1.78377 0.802565 0
M  V30 21004 C 2010.39 -1.9893 -0.706392 0
M  V30 21005 O 2009.74 -1.58835 -1.64267 0
M  V30 21006 C 2009.95 -3.10873 1.58615 0
M  V30 21007 C 2011.3 -3.85629 1.77695 0
M  V30 21008 O 2012.32 -3.20616 1.55189 0
M  V30 21009 O 2011.18 -5.02334 2.15228 0
M  V30 21010 H 2008.28 -0.773463 0.292718 0
M  V30 21011 H 2010.82 -1.16294 1.23587 0
M  V30 21012 H 2009.6 -2.9138 2.61177 0
M  V30 21013 H 2009.22 -3.80679 1.14758 0
M  V30 21014 N 2010.22 -0.924476 -1.27637 0
M  V30 21015 C 2011.18 -0.425772 -2.25211 0
M  V30 21016 C 2012.18 0.453876 -1.54261 0
M  V30 21017 O 2013.37 0.255412 -1.72317 0
M  V30 21018 C 2010.5 0.388294 -3.38681 0
M  V30 21019 H 2011.69 -1.28783 -2.70841 0
M  V30 21020 H 2009.25 -0.704863 -1.39504 0
M  V30 21021 H 2009.98 1.2693 -2.98428 0
M  V30 21022 H 2009.77 -0.242358 -3.9135 0
M  V30 21023 H 2011.26 0.727693 -4.11211 0
M  V30 21024 N 2011.69 1.41711 -0.689627 0
M  V30 21025 C 2012.62 2.33474 -0.0348045 0
M  V30 21026 C 2013.61 1.51494 0.773533 0
M  V30 21027 O 2014.79 1.8005 0.727705 0
M  V30 21028 C 2011.92 3.35259 0.906573 0
M  V30 21029 C 2010.87 4.27505 0.205762 0
M  V30 21030 C 2010.2 5.19616 1.26109 0
M  V30 21031 C 2011.5 5.14056 -0.92431 0
M  V30 21032 H 2013.19 2.88481 -0.801208 0
M  V30 21033 H 2010.74 1.3871 -0.386738 0
M  V30 21034 H 2012.69 3.98375 1.37386 0
M  V30 21035 H 2011.42 2.78589 1.70457 0
M  V30 21036 H 2010.08 3.65804 -0.241437 0
M  V30 21037 H 2009.72 4.59264 2.05147 0
M  V30 21038 H 2009.42 5.82167 0.797221 0
M  V30 21039 H 2010.95 5.85609 1.72901 0
M  V30 21040 H 2012.36 5.70774 -0.537573 0
M  V30 21041 H 2010.76 5.85517 -1.3149 0
M  V30 21042 H 2011.83 4.51574 -1.7666 0
M  V30 21043 N 2013.17 0.433965 1.51507 0
M  V30 21044 C 2014.4 -0.132403 2.06476 0
M  V30 21045 C 2014.82 -1.3675 1.30172 0
M  V30 21046 O 2014.17 -1.78907 0.360351 0
M  V30 21047 C 2014.22 -0.458007 3.58587 0
M  V30 21048 O 2013.94 0.728069 4.32008 0
M  V30 21049 C 2015.45 -1.07541 4.30058 0
M  V30 21050 H 2012.67 -0.00941889 0.670934 0
M  V30 21051 H 2015.21 0.612075 1.95125 0
M  V30 21052 H 2013.36 -1.15238 3.69863 0
M  V30 21053 H 2013.78 0.450318 5.22563 0
M  V30 21054 H 2015.25 -1.25326 5.37585 0
M  V30 21055 H 2015.73 -2.0555 3.88131 0
M  V30 21056 H 2016.34 -0.420519 4.23216 0
M  V30 21057 N 2014.65 -1.56732 0.165206 0
M  V30 21058 C 2016.07 -1.58453 -0.191031 0
M  V30 21059 C 2016.27 -1.1803 -1.63313 0
M  V30 21060 O 2015.32 -0.889055 -2.3633 0
M  V30 21061 C 2016.64 -3.00582 0.0842414 0
M  V30 21062 C 2018.18 -3.12992 0.0219686 0
M  V30 21063 C 2018.66 -4.57203 0.270149 0
M  V30 21064 N 2020.15 -4.62688 0.217711 0
M  V30 21065 C 2020.88 -5.72113 0.383998 0
M  V30 21066 N 2020.38 -6.90118 0.609007 0
M  V30 21067 N 2022.17 -5.61187 0.320329 0
M  V30 21068 H 2014.32 -1.81296 1.1066 0
M  V30 21069 H 2016.59 -0.839986 0.439463 0
M  V30 21070 H 2016.29 -3.3461 1.083 0
M  V30 21071 H 2016.17 -3.71954 -0.62693 0
M  V30 21072 H 2018.55 -2.78794 -0.967358 0
M  V30 21073 H 2018.64 -2.44069 0.765755 0
M  V30 21074 H 2018.28 -4.92108 1.25666 0
M  V30 21075 H 2018.21 -5.24276 -0.494177 0
M  V30 21076 H 2020.7 -3.77868 0.0491965 0
M  V30 21077 H 2021.01 -7.69387 0.725507 0
M  V30 21078 H 2019.36 -6.91995 0.645549 0
M  V30 21079 H 2022.55 -4.67875 0.145176 0
M  V30 21080 H 2022.72 -6.46412 0.453351 0
M  V30 21081 N 2016.13 0.10854 -1.57226 0
M  V30 21082 C 2017.54 0.462379 -1.52755 0
M  V30 21083 C 2017.74 1.81276 -0.87985 0
M  V30 21084 O 2016.8 2.48151 -0.466628 0
M  V30 21085 C 2018.11 0.437241 -2.97504 0
M  V30 21086 C 2019.66 0.520052 -3.08649 0
M  V30 21087 C 2020.14 0.525198 -4.54979 0
M  V30 21088 N 2021.63 0.586339 -4.59474 0
M  V30 21089 C 2022.36 0.61194 -5.70125 0
M  V30 21090 N 2021.86 0.594556 -6.90244 0
M  V30 21091 N 2023.65 0.655738 -5.58262 0
M  V30 21092 H 2015.8 -0.776135 -1.97712 0
M  V30 21093 H 2018.07 -0.287457 -0.903367 0
M  V30 21094 H 2017.77 -0.487552 -3.48304 0
M  V30 21095 H 2017.65 1.2612 -3.55491 0
M  V30 21096 H 2020.03 1.43526 -2.57845 0
M  V30 21097 H 2020.11 -0.331795 -2.53639 0
M  V30 21098 H 2019.76 -0.386013 -5.06431 0
M  V30 21099 H 2019.69 1.39407 -5.07812 0
M  V30 21100 H 2022.18 0.605514 -3.73017 0
M  V30 21101 H 2022.49 0.617002 -7.70333 0
M  V30 21102 H 2020.84 0.561814 -6.92726 0
M  V30 21103 H 2024.03 0.666756 -4.63327 0
M  V30 21104 H 2024.2 0.672222 -6.44504 0
M  V30 21105 N 2017.61 1.52975 0.379009 0
M  V30 21106 C 2018.85 1.68505 1.12304 0
M  V30 21107 C 2019.18 0.430012 1.89687 0
M  V30 21108 O 2018.44 -0.587809 1.86664 0
M  V30 21109 C 2018.74 2.8776 2.11964 0
M  V30 21110 C 2018.4 4.24806 1.51163 0
M  V30 21111 C 2017.06 4.62077 1.34308 0
M  V30 21112 C 2019.42 5.10087 1.07053 0
M  V30 21113 C 2016.74 5.82277 0.719058 0
M  V30 21114 C 2019.1 6.30921 0.460559 0
M  V30 21115 C 2017.76 6.66915 0.279391 0
M  V30 21116 H 2017.03 0.616604 0.41095 0
M  V30 21117 H 2019.68 1.87137 0.406443 0
M  V30 21118 H 2017.98 2.63586 2.89879 0
M  V30 21119 H 2019.68 2.96971 2.69461 0
M  V30 21120 H 2016.27 3.95453 1.65272 0
M  V30 21121 H 2020.45 4.81854 1.18872 0
M  V30 21122 H 2015.71 6.08765 0.566983 0
M  V30 21123 H 2019.88 6.96312 0.110504 0
M  V30 21124 H 2017.51 7.5992 -0.206228 0
M  V30 21125 N 2019.08 -0.63804 1.44107 0
M  V30 21126 C 2020.05 -1.7322 1.50092 0
M  V30 21127 C 2021.05 -1.56153 0.383763 0
M  V30 21128 O 2022.24 -1.61774 0.646118 0
M  V30 21129 C 2019.37 -3.1224 1.36818 0
M  V30 21130 H 2020.56 -1.6929 2.4755 0
M  V30 21131 H 2018.12 -0.851079 1.31097 0
M  V30 21132 H 2018.85 -3.2177 0.404269 0
M  V30 21133 H 2018.64 -3.26033 2.17818 0
M  V30 21134 H 2020.13 -3.91997 1.43972 0
M  V30 21135 N 2020.56 -1.3089 -0.877815 0
M  V30 21136 C 2021.81 -1.20125 -1.63022 0
M  V30 21137 C 2022.14 0.242414 -1.92983 0
M  V30 21138 O 2021.39 1.18896 -1.55442 0
M  V30 21139 C 2021.69 -1.98261 -2.97367 0
M  V30 21140 C 2021.36 -3.47825 -2.8693 0
M  V30 21141 C 2020.02 -3.88608 -2.8379 0
M  V30 21142 C 2022.37 -4.43035 -2.74535 0
M  V30 21143 C 2019.7 -5.22882 -2.66104 0
M  V30 21144 C 2022.05 -5.77425 -2.58386 0
M  V30 21145 C 2020.72 -6.17439 -2.53625 0
M  V30 21146 H 2019.99 -0.439569 -0.59654 0
M  V30 21147 H 2022.63 -1.6207 -1.02007 0
M  V30 21148 H 2020.94 -1.48972 -3.62373 0
M  V30 21149 H 2022.63 -1.87319 -3.5456 0
M  V30 21150 H 2019.22 -3.1542 -2.90187 0
M  V30 21151 H 2023.41 -4.12463 -2.76021 0
M  V30 21152 H 2018.66 -5.52968 -2.60837 0
M  V30 21153 H 2022.84 -6.50833 -2.4777 0
M  V30 21154 H 2020.47 -7.21428 -2.39679 0
M  V30 21155 N 2022.04 1.0911 -1.13723 0
M  V30 21156 C 2023.32 1.77949 -0.812014 0
M  V30 21157 C 2023.7 1.99302 0.695832 0
M  V30 21158 O 2023.05 1.59704 1.63422 0
M  V30 21159 C 2023.26 3.10028 -1.60262 0
M  V30 21160 C 2024.6 3.84681 -1.79738 0
M  V30 21161 O 2025.63 3.19789 -1.56887 0
M  V30 21162 O 2024.49 5.01185 -2.17888 0
M  V30 21163 H 2021.58 0.7719 -0.296816 0
M  V30 21164 H 2024.13 1.15637 -1.24202 0
M  V30 21165 H 2022.9 2.8999 -2.62719 0
M  V30 21166 H 2022.52 3.80065 -1.16776 0
M  V30 21167 N 2023.52 0.931232 1.27145 0
M  V30 21168 C 2024.76 0.574376 1.94496 0
M  V30 21169 C 2025.1 -0.882702 1.7298 0
M  V30 21170 O 2024.37 -1.63016 1.06094 0
M  V30 21171 C 2024.66 0.905384 3.48532 0
M  V30 21172 C 2024.51 2.41647 3.79377 0
M  V30 21173 C 2025.83 0.413756 4.38151 0
M  V30 21174 H 2022.95 0.210149 0.706404 0
M  V30 21175 H 2025.59 1.16365 1.50197 0
M  V30 21176 H 2023.74 0.403903 3.86395 0
M  V30 21177 H 2025.41 2.98992 3.51286 0
M  V30 21178 H 2023.65 2.86417 3.25803 0
M  V30 21179 H 2024.32 2.5986 4.87008 0
M  V30 21180 H 2026.8 0.843592 4.07459 0
M  V30 21181 H 2025.68 0.67428 5.44743 0
M  V30 21182 H 2025.94 -0.686214 4.36742 0
M  V30 21183 N 2025 -1.41343 0.697132 0
M  V30 21184 C 2025.91 -2.34576 0.0333341 0
M  V30 21185 C 2026.92 -1.56313 -0.764337 0
M  V30 21186 O 2028.1 -1.88787 -0.70154 0
M  V30 21187 C 2025.16 -3.35066 -0.890597 0
M  V30 21188 C 2024.23 -4.29216 -0.0849556 0
M  V30 21189 C 2023.46 -5.24905 -0.964881 0
M  V30 21190 O 2023.68 -5.26083 -2.20437 0
M  V30 21191 O 2022.62 -6.00476 -0.413724 0
M  V30 21192 H 2026.44 -2.92922 0.801892 0
M  V30 21193 H 2024.03 -1.42223 0.457478 0
M  V30 21194 H 2025.91 -3.96741 -1.42036 0
M  V30 21195 H 2024.58 -2.79161 -1.63862 0
M  V30 21196 H 2023.49 -3.70884 0.489447 0
M  V30 21197 H 2024.82 -4.88223 0.624437 0
M  V30 21198 N 2026.48 -0.441993 -1.51275 0
M  V30 21199 C 2027.72 0.123093 -2.02426 0
M  V30 21200 C 2028.05 1.41953 -1.32525 0
M  V30 21201 O 2027.33 1.8942 -0.44164 0
M  V30 21202 C 2027.61 0.337043 -3.58519 0
M  V30 21203 C 2027.47 -0.978373 -4.39031 0
M  V30 21204 C 2028.78 1.10474 -4.26009 0
M  V30 21205 H 2025.9 0.0432623 -0.735729 0
M  V30 21206 H 2028.55 -0.581901 -1.8087 0
M  V30 21207 H 2026.7 0.93756 -3.77017 0
M  V30 21208 H 2028.37 -1.61323 -4.32172 0
M  V30 21209 H 2026.61 -1.58189 -4.03929 0
M  V30 21210 H 2027.28 -0.78266 -5.46423 0
M  V30 21211 H 2029.76 0.596021 -4.11809 0
M  V30 21212 H 2028.63 1.22321 -5.35097 0
M  V30 21213 H 2028.89 2.13401 -3.87185 0
M  V30 21214 N 2027.95 1.56642 -0.173515 0
M  V30 21215 C 2029.18 2.01033 0.476387 0
M  V30 21216 C 2029.59 1.05282 1.57202 0
M  V30 21217 O 2028.93 0.0461376 1.83642 0
M  V30 21218 C 2029 3.41847 1.11269 0
M  V30 21219 C 2028.66 4.56725 0.158447 0
M  V30 21220 C 2029.66 5.16141 -0.624046 0
M  V30 21221 C 2027.34 5.02271 0.0536344 0
M  V30 21222 C 2029.34 6.19534 -1.49853 0
M  V30 21223 C 2027.02 6.05513 -0.824431 0
M  V30 21224 C 2028.02 6.64016 -1.5991 0
M  V30 21225 O 2027.71 7.65256 -2.46249 0
M  V30 21226 H 2027.44 0.66413 0.126127 0
M  V30 21227 H 2030 2.03577 -0.273033 0
M  V30 21228 H 2028.23 3.36222 1.91028 0
M  V30 21229 H 2029.91 3.70178 1.66502 0
M  V30 21230 H 2030.68 4.81834 -0.553255 0
M  V30 21231 H 2026.56 4.56446 0.646388 0
M  V30 21232 H 2030.1 6.65126 -2.10364 0
M  V30 21233 H 2026 6.39245 -0.896417 0
M  V30 21234 H 2026.77 7.82588 -2.39788 0
M  V30 21235 N 2029.43 -0.1002 1.57281 0
M  V30 21236 C 2030.66 -0.818307 1.9003 0
M  V30 21237 C 2031.07 -1.72531 0.766704 0
M  V30 21238 O 2030.43 -1.80616 -0.261577 0
M  V30 21239 C 2030.48 -1.63596 3.22364 0
M  V30 21240 O 2030.2 -0.765449 4.31361 0
M  V30 21241 C 2031.7 -2.45758 3.68942 0
M  V30 21242 H 2028.92 -0.234253 0.628782 0
M  V30 21243 H 2031.47 -0.0789616 2.04347 0
M  V30 21244 H 2029.62 -2.32787 3.09659 0
M  V30 21245 H 2030.04 -1.33126 5.07324 0
M  V30 21246 H 2031.51 -2.9863 4.64246 0
M  V30 21247 H 2031.99 -3.23987 2.96528 0
M  V30 21248 H 2032.59 -1.81776 3.84497 0
M  V30 21249 N 2030.91 -1.53174 -0.370891 0
M  V30 21250 C 2031.84 -1.74012 -1.47632 0
M  V30 21251 C 2032.82 -0.588337 -1.51583 0
M  V30 21252 O 2034 -0.820302 -1.69715 0
M  V30 21253 C 2031.13 -1.81411 -2.8602 0
M  V30 21254 C 2030.18 -3.03335 -2.99817 0
M  V30 21255 S 2031.01 -4.6296 -2.69125 0
M  V30 21256 C 2032.17 -4.73201 -4.09672 0
M  V30 21257 H 2032.4 -2.675 -1.29734 0
M  V30 21258 H 2029.93 -1.43695 -0.5649 0
M  V30 21259 H 2031.89 -1.8636 -3.6576 0
M  V30 21260 H 2030.55 -0.889838 -3.01232 0
M  V30 21261 H 2029.74 -3.05107 -4.01156 0
M  V30 21262 H 2029.35 -2.96471 -2.27993 0
M  V30 21263 H 2031.64 -4.52929 -5.03846 0
M  V30 21264 H 2032.58 -5.7525 -4.12908 0
M  V30 21265 H 2032.99 -4.0188 -3.96425 0
M  V30 21266 N 2032.39 0.630389 -1.44443 0
M  V30 21267 C 2033.61 1.42206 -1.50971 0
M  V30 21268 C 2034.04 1.87609 -0.135854 0
M  V30 21269 O 2033.4 1.58782 0.8751 0
M  V30 21270 C 2033.44 2.61801 -2.47977 0
M  V30 21271 O 2032.55 3.6166 -1.98181 0
M  V30 21272 H 2031.89 0.425475 -0.509771 0
M  V30 21273 H 2034.42 0.769359 -1.89584 0
M  V30 21274 H 2034.43 3.09335 -2.66037 0
M  V30 21275 H 2033.1 2.281 -3.47769 0
M  V30 21276 H 2031.68 3.2093 -1.89891 0
M  V30 21277 N 2033.87 1.31354 0.870861 0
M  V30 21278 C 2034.78 1.20887 2.01056 0
M  V30 21279 C 2035.79 0.125768 1.73545 0
M  V30 21280 O 2036.97 0.3434 1.98451 0
M  V30 21281 C 2034.03 0.915879 3.34384 0
M  V30 21282 C 2033.09 2.08579 3.75225 0
M  V30 21283 C 2032.33 1.80668 5.0219 0
M  V30 21284 O 2032.55 0.741377 5.65561 0
M  V30 21285 O 2031.48 2.66319 5.39776 0
M  V30 21286 H 2035.31 2.16661 2.12819 0
M  V30 21287 H 2032.89 1.11084 0.999031 0
M  V30 21288 H 2034.78 0.768289 4.14337 0
M  V30 21289 H 2033.45 -0.0118355 3.23698 0
M  V30 21290 H 2032.36 2.28877 2.95916 0
M  V30 21291 H 2033.69 2.99572 3.90535 0
M  V30 21292 N 2035.34 -1.08505 1.143 0
M  V30 21293 C 2036.29 -2.13593 0.797635 0
M  V30 21294 C 2037.28 -1.59488 -0.212729 0
M  V30 21295 O 2038.47 -1.76993 -0.0152218 0
M  V30 21296 C 2035.6 -3.42191 0.275716 0
M  V30 21297 C 2034.68 -4.0318 1.31554 0
M  V30 21298 N 2035.08 -4.38591 2.51936 0
M  V30 21299 C 2033.37 -4.30501 1.16553 0
M  V30 21300 C 2034.07 -4.86762 3.18494 0
M  V30 21301 N 2033.05 -4.84804 2.45898 0
M  V30 21302 H 2036.85 -2.38788 1.7134 0
M  V30 21303 H 2034.37 -1.25827 1.02671 0
M  V30 21304 H 2036.36 -4.16899 0.0100056 0
M  V30 21305 H 2035.02 -3.18445 -0.634256 0
M  V30 21306 H 2036.03 -4.29651 2.89171 0
M  V30 21307 H 2032.71 -4.16314 0.314497 0
M  V30 21308 H 2034.1 -5.23548 4.21126 0
M  V30 21309 N 2036.82 -0.937962 -1.26649 0
M  V30 21310 C 2038.05 -0.59993 -1.98534 0
M  V30 21311 C 2038.47 0.817397 -1.69411 0
M  V30 21312 O 2037.83 1.55011 -0.940284 0
M  V30 21313 C 2037.88 -0.844738 -3.50566 0
M  V30 21314 O 2036.98 0.0847162 -4.12313 0
M  V30 21315 H 2036.32 -0.229839 -0.622953 0
M  V30 21316 H 2038.85 -1.26002 -1.61198 0
M  V30 21317 H 2038.86 -0.764359 -4.00776 0
M  V30 21318 H 2037.54 -1.87783 -3.71094 0
M  V30 21319 H 2036.11 -0.0464484 -3.72871 0
M  V30 21320 N 2038.3 1.40971 -0.704618 0
M  V30 21321 C 2039.55 2.01377 -0.239781 0
M  V30 21322 C 2039.88 1.5571 1.16051 0
M  V30 21323 O 2039.15 0.772278 1.78511 0
M  V30 21324 C 2039.44 3.58784 -0.307556 0
M  V30 21325 C 2039.29 4.14553 -1.74544 0
M  V30 21326 C 2040.61 4.3888 0.327516 0
M  V30 21327 H 2037.73 0.731655 -0.088603 0
M  V30 21328 H 2040.37 1.67597 -0.895048 0
M  V30 21329 H 2038.52 3.87692 0.25036 0
M  V30 21330 H 2040.19 3.96486 -2.3579 0
M  V30 21331 H 2038.43 3.69254 -2.2767 0
M  V30 21332 H 2039.11 5.23715 -1.74433 0
M  V30 21333 H 2041.58 4.15838 -0.147737 0
M  V30 21334 H 2040.46 5.48332 0.249594 0
M  V30 21335 H 2040.72 4.19029 1.40952 0
M  V30 21336 N 2039.78 0.45001 1.51039 0
M  V30 21337 C 2040.73 -0.355012 2.28053 0
M  V30 21338 C 2041.7 -1.00578 1.32186 0
M  V30 21339 O 2042.88 -1.02227 1.61103 0
M  V30 21340 C 2040.02 -1.44311 3.13478 0
M  V30 21341 C 2039.13 -0.809213 4.24353 0
M  V30 21342 C 2038.27 -1.87342 4.97068 0
M  V30 21343 C 2037.31 -1.21864 5.99846 0
M  V30 21344 N 2036.44 -2.22477 6.65919 0
M  V30 21345 H 2041.28 0.308084 2.96403 0
M  V30 21346 H 2038.82 0.163778 1.46185 0
M  V30 21347 H 2040.78 -2.08539 3.61341 0
M  V30 21348 H 2039.41 -2.07566 2.47217 0
M  V30 21349 H 2038.46 -0.0548937 3.8036 0
M  V30 21350 H 2039.77 -0.291288 4.97949 0
M  V30 21351 H 2038.93 -2.59203 5.48542 0
M  V30 21352 H 2037.67 -2.42511 4.23131 0
M  V30 21353 H 2036.67 -0.48556 5.47652 0
M  V30 21354 H 2037.9 -0.674124 6.75746 0
M  V30 21355 H 2035.84 -2.76702 5.94788 0
M  V30 21356 H 2035.76 -1.75611 7.35321 0
M  V30 21357 H 2037.03 -2.93782 7.2202 0
M  V30 21358 N 2041.26 -1.56548 0.18182 0
M  V30 21359 C 2042.5 -1.96807 -0.459512 0
M  V30 21360 C 2042.83 -1.06933 -1.63065 0
M  V30 21361 O 2042.1 -0.137842 -1.95414 0
M  V30 21362 H 2040.68 -0.72675 -0.172753 0
M  V30 21363 H 2043.34 -1.93084 0.265455 0
M  V30 21364 H 2042.43 -3.01338 -0.812522 0
M  V30 21365 N 2042.73 0.0918577 -1.57332 0
M  V30 21366 C 2043.68 1.11121 -2.02289 0
M  V30 21367 C 2044.65 1.39617 -0.899791 0
M  V30 21368 O 2045.84 1.51025 -1.16602 0
M  V30 21369 C 2042.98 2.42534 -2.45502 0
M  V30 21370 C 2042.09 2.20741 -3.71345 0
M  V30 21371 C 2041.22 3.45576 -4.03424 0
M  V30 21372 C 2040.26 3.19059 -5.22368 0
M  V30 21373 N 2039.4 4.36169 -5.50182 0
M  V30 21374 H 2044.24 0.720847 -2.8915 0
M  V30 21375 H 2041.78 0.344398 -1.43012 0
M  V30 21376 H 2043.74 3.19232 -2.68601 0
M  V30 21377 H 2042.37 2.79411 -1.61646 0
M  V30 21378 H 2041.42 1.3483 -3.55704 0
M  V30 21379 H 2042.73 1.97141 -4.58189 0
M  V30 21380 H 2041.88 4.3068 -4.27317 0
M  V30 21381 H 2040.62 3.72234 -3.15108 0
M  V30 21382 H 2039.63 2.32349 -4.98291 0
M  V30 21383 H 2040.85 2.93744 -6.12284 0
M  V30 21384 H 2038.8 4.62896 -4.64826 0
M  V30 21385 H 2038.72 4.15771 -6.31404 0
M  V30 21386 H 2039.98 5.22328 -5.78613 0
M  V30 21387 N 2044.21 1.53368 0.362763 0
M  V30 21388 C 2045.14 1.82984 1.45048 0
M  V30 21389 C 2046.12 0.683544 1.55762 0
M  V30 21390 O 2047.31 0.933658 1.70283 0
M  V30 21391 C 2044.44 2.02227 2.8235 0
M  V30 21392 C 2043.39 3.18002 2.86459 0
M  V30 21393 C 2042.72 3.22543 4.26463 0
M  V30 21394 C 2044.02 4.56531 2.53726 0
M  V30 21395 H 2045.71 2.74075 1.20513 0
M  V30 21396 H 2043.26 1.31877 0.578302 0
M  V30 21397 H 2045.21 2.21529 3.58473 0
M  V30 21398 H 2043.94 1.07849 3.08279 0
M  V30 21399 H 2042.59 2.98525 2.12787 0
M  V30 21400 H 2042.24 2.25797 4.49472 0
M  V30 21401 H 2041.94 4.00331 4.30127 0
M  V30 21402 H 2043.47 3.44032 5.04455 0
M  V30 21403 H 2044.88 4.75975 3.19563 0
M  V30 21404 H 2043.28 5.36581 2.68703 0
M  V30 21405 H 2044.35 4.61451 1.48967 0
M  V30 21406 N 2045.69 -0.62272 1.44776 0
M  V30 21407 C 2046.64 -1.75545 1.526 0
M  V30 21408 C 2047.63 -1.64681 0.397056 0
M  V30 21409 O 2048.84 -1.70658 0.572351 0
M  V30 21410 H 2045.21 -0.579694 0.479018 0
M  V30 21411 H 2047.18 -1.66069 2.47919 0
M  V30 21412 C 2045.93 -3.13899 1.49542 0
M  V30 21413 H 2045.26 -3.2291 2.35731 0
M  V30 21414 H 2046.7 -3.93028 1.59076 0
M  V30 21415 C 2045.16 -3.36197 0.217454 0
M  V30 21416 O 2045.69 -3.95395 -0.708921 0
M  V30 21417 N 2043.89 -2.90361 0.117924 0
M  V30 21418 H 2043.44 -2.4237 0.872626 0
M  V30 21419 H 2043.4 -3.05655 -0.736367 0
M  V30 21420 N 2047.17 -1.31814 -0.863883 0
M  V30 21421 C 2048.1 -1.14307 -1.97507 0
M  V30 21422 C 2049.08 -0.0449482 -1.62538 0
M  V30 21423 O 2050.26 -0.202523 -1.87409 0
M  V30 21424 C 2047.39 -0.74789 -3.3034 0
M  V30 21425 C 2046.44 -1.84993 -3.84291 0
M  V30 21426 S 2047.27 -3.45653 -4.09004 0
M  V30 21427 C 2048.43 -3.08085 -5.44825 0
M  V30 21428 H 2048.66 -2.08375 -2.12054 0
M  V30 21429 H 2046.19 -1.16369 -1.01478 0
M  V30 21430 H 2048.15 -0.52664 -4.07108 0
M  V30 21431 H 2046.81 0.173775 -3.13619 0
M  V30 21432 H 2046 -1.5262 -4.80337 0
M  V30 21433 H 2045.61 -2.02655 -3.14336 0
M  V30 21434 H 2047.9 -2.57356 -6.26717 0
M  V30 21435 H 2048.84 -4.03117 -5.82153 0
M  V30 21436 H 2049.25 -2.45359 -5.08389 0
M  V30 21437 N 2048.65 1.07897 -1.14873 0
M  V30 21438 C 2049.61 2.13129 -0.843128 0
M  V30 21439 C 2050.61 1.60055 0.154606 0
M  V30 21440 O 2051.8 1.74041 -0.0743665 0
M  V30 21441 C 2048.93 3.39924 -0.257826 0
M  V30 21442 H 2050.12 2.41671 -1.77581 0
M  V30 21443 H 2047.68 1.23696 -0.955463 0
M  V30 21444 H 2048.41 3.17019 0.683318 0
M  V30 21445 H 2048.2 3.79745 -0.97654 0
M  V30 21446 H 2049.69 4.17555 -0.0613986 0
M  V30 21447 N 2050.12 0.944665 1.2615 0
M  V30 21448 C 2051.35 0.610956 1.97674 0
M  V30 21449 C 2051.77 -0.814818 1.70312 0
M  V30 21450 O 2051.12 -1.54376 0.973364 0
M  V30 21451 C 2051.18 0.847912 3.51415 0
M  V30 21452 O 2050.9 2.21761 3.77827 0
M  V30 21453 C 2052.4 0.525225 4.40178 0
M  V30 21454 H 2049.62 0.229933 0.630374 0
M  V30 21455 H 2052.16 1.26632 1.60576 0
M  V30 21456 H 2050.32 0.239105 3.86661 0
M  V30 21457 H 2050.73 2.28026 4.72339 0
M  V30 21458 H 2052.2 0.741624 5.46995 0
M  V30 21459 H 2052.68 -0.539903 4.35869 0
M  V30 21460 H 2053.29 1.11291 4.10481 0
M  V30 21461 N 2051.6 -1.40596 0.712085 0
M  V30 21462 C 2052.57 -2.29105 0.0660369 0
M  V30 21463 C 2053.57 -1.45196 -0.690992 0
M  V30 21464 O 2054.76 -1.66151 -0.523417 0
M  V30 21465 C 2051.89 -3.2835 -0.916461 0
M  V30 21466 H 2053.08 -2.87734 0.845539 0
M  V30 21467 H 2050.63 -1.48859 0.476533 0
M  V30 21468 H 2051.37 -2.74733 -1.72314 0
M  V30 21469 H 2051.15 -3.90288 -0.376557 0
M  V30 21470 H 2052.64 -3.94634 -1.36578 0
M  V30 21471 N 2053.08 -0.458013 -1.50798 0
M  V30 21472 C 2054.31 0.0995379 -2.0666 0
M  V30 21473 C 2054.72 1.34662 -1.32331 0
M  V30 21474 O 2054.08 1.78311 -0.388768 0
M  V30 21475 C 2054.13 0.400901 -3.5927 0
M  V30 21476 O 2053.85 -0.796705 -4.30795 0
M  V30 21477 C 2055.35 1.00686 -4.31714 0
M  V30 21478 H 2052.57 -0.00125628 -0.670999 0
M  V30 21479 H 2055.12 -0.643041 -1.94127 0
M  V30 21480 H 2053.27 1.0934 -3.7165 0
M  V30 21481 H 2053.69 -0.533396 -5.21781 0
M  V30 21482 H 2055.16 1.16758 -5.39511 0
M  V30 21483 H 2055.64 1.99349 -3.91352 0
M  V30 21484 H 2056.24 0.353135 -4.23831 0
M  V30 21485 N 2054.56 1.56449 -0.190119 0
M  V30 21486 C 2055.49 2.16074 0.764507 0
M  V30 21487 C 2056.5 1.12124 1.18034 0
M  V30 21488 O 2057.69 1.39237 1.11693 0
M  V30 21489 C 2054.79 2.70392 2.04307 0
M  V30 21490 C 2053.97 3.99194 1.78782 0
M  V30 21491 C 2053.03 4.38388 2.91037 0
M  V30 21492 O 2052.05 5.05906 2.60859 0
M  V30 21493 N 2053.25 4.01483 4.19275 0
M  V30 21494 H 2056.02 2.98616 0.254652 0
M  V30 21495 H 2053.58 1.61898 -0.00797932 0
M  V30 21496 H 2055.57 2.936 2.78534 0
M  V30 21497 H 2054.14 1.92333 2.46428 0
M  V30 21498 H 2053.36 3.84169 0.883602 0
M  V30 21499 H 2054.65 4.83279 1.5912 0
M  V30 21500 H 2054.05 3.47164 4.46647 0
M  V30 21501 H 2052.6 4.29652 4.90145 0
M  V30 21502 N 2056.04 -0.0835127 1.57379 0
M  V30 21503 C 2056.97 -1.101 2.05913 0
M  V30 21504 C 2057.95 -1.41079 0.950298 0
M  V30 21505 O 2059.13 -1.50909 1.2223 0
M  V30 21506 C 2056.26 -2.41772 2.49327 0
M  V30 21507 C 2055.22 -2.25173 3.63979 0
M  V30 21508 C 2054.54 -3.62124 3.93408 0
M  V30 21509 C 2055.84 -1.68267 4.94453 0
M  V30 21510 H 2057.54 -0.697176 2.9117 0
M  V30 21511 H 2055.08 -0.333914 1.40075 0
M  V30 21512 H 2057.04 -3.13234 2.81891 0
M  V30 21513 H 2055.76 -2.84112 1.61084 0
M  V30 21514 H 2054.42 -1.56154 3.3168 0
M  V30 21515 H 2054.07 -4.02013 3.02315 0
M  V30 21516 H 2053.77 -3.51861 4.70603 0
M  V30 21517 H 2055.29 -4.35036 4.28458 0
M  V30 21518 H 2056.71 -2.29582 5.25324 0
M  V30 21519 H 2055.1 -1.68731 5.7589 0
M  V30 21520 H 2056.17 -0.64309 4.80617 0
M  V30 21521 N 2057.52 -1.53558 -0.354624 0
M  V30 21522 C 2058.76 -1.71979 -1.10466 0
M  V30 21523 C 2059.12 -0.467268 -1.86227 0
M  V30 21524 O 2060.32 -0.528325 -2.63557 0
M  V30 21525 C 2058.59 -2.94174 -2.02969 0
M  V30 21526 S 2060.15 -3.33352 -2.85345 0
M  V30 21527 H 2056.97 -0.605043 -0.373422 0
M  V30 21528 H 2059.57 -1.91682 -0.384487 0
M  V30 21529 H 2058.27 -3.83517 -1.46093 0
M  V30 21530 H 2057.81 -2.76904 -2.79442 0
M  V30 21531 H 2059.82 -2.86221 -4.05329 0
M  V30 21532 N 2058.99 0.615033 -1.45104 0
M  V30 21533 C 2059.94 1.72617 -1.53206 0
M  V30 21534 C 2060.91 1.6173 -0.378499 0
M  V30 21535 O 2062.1 1.81418 -0.590937 0
M  V30 21536 C 2059.24 3.1091 -1.49763 0
M  V30 21537 C 2058.35 3.32657 -2.75615 0
M  V30 21538 C 2057.48 4.61014 -2.63894 0
M  V30 21539 C 2056.52 4.75993 -3.84834 0
M  V30 21540 N 2055.66 5.95642 -3.71692 0
M  V30 21541 H 2060.5 1.65028 -2.48133 0
M  V30 21542 H 2058.04 0.804792 -1.23132 0
M  V30 21543 H 2059.99 3.90911 -1.45755 0
M  V30 21544 H 2058.62 3.17475 -0.583921 0
M  V30 21545 H 2057.68 2.46484 -2.89741 0
M  V30 21546 H 2058.99 3.39601 -3.65339 0
M  V30 21547 H 2058.14 5.49198 -2.5781 0
M  V30 21548 H 2056.88 4.56455 -1.71756 0
M  V30 21549 H 2055.89 3.86234 -3.91284 0
M  V30 21550 H 2057.11 4.82354 -4.78028 0
M  V30 21551 H 2055.06 5.92143 -2.82318 0
M  V30 21552 H 2054.97 6.03713 -4.55046 0
M  V30 21553 H 2056.24 6.86345 -3.69528 0
M  V30 21554 N 2060.47 1.3227 0.85688 0
M  V30 21555 C 2061.75 1.13324 1.59427 0
M  V30 21556 C 2062.13 -0.307216 2.08853 0
M  V30 21557 O 2061.48 -1.30347 1.87675 0
M  V30 21558 C 2061.69 2.15889 2.74213 0
M  V30 21559 C 2063.03 2.49103 3.4385 0
M  V30 21560 O 2064.06 2.14417 2.84436 0
M  V30 21561 O 2062.92 3.08555 4.51061 0
M  V30 21562 H 2060.01 0.437152 0.702016 0
M  V30 21563 H 2062.56 1.43793 0.901202 0
M  V30 21564 H 2061.33 3.12724 2.35201 0
M  V30 21565 H 2060.95 1.86401 3.51198 0
M  V30 21566 N 2061.95 -1.07287 1.15444 0
M  V30 21567 C 2063.19 -1.8149 0.940261 0
M  V30 21568 C 2063.55 -1.84734 -0.523206 0
M  V30 21569 O 2064.75 -2.54815 -0.855738 0
M  V30 21570 C 2063.03 -3.22592 1.53848 0
M  V30 21571 S 2064.58 -4.13533 1.4675 0
M  V30 21572 H 2061.4 -0.625317 0.338377 0
M  V30 21573 H 2064 -1.28879 1.47005 0
M  V30 21574 H 2062.71 -3.1782 2.59651 0
M  V30 21575 H 2062.24 -3.80278 1.00758 0
M  V30 21576 H 2064.25 -4.94055 0.460833 0
M  V30 21577 N 2063.43 -0.951342 -1.25647 0
M  V30 21578 C 2064.84 -0.645559 -1.75184 0
M  V30 21579 C 2065.19 0.83913 -1.7735 0
M  V30 21580 O 2064.31 1.65671 -1.3922 0
M  V30 21581 C 2064.91 -1.16512 -3.18136 0
M  V30 21582 C 2063.47 -0.90956 -3.65245 0
M  V30 21583 C 2062.62 -1.31009 -2.44401 0
M  V30 21584 H 2065.57 -1.12852 -1.1158 0
M  V30 21585 H 2065.59 -0.523662 -3.76879 0
M  V30 21586 H 2065.1 -2.24571 -3.16527 0
M  V30 21587 H 2063.2 0.156212 -3.72272 0
M  V30 21588 H 2063.31 -1.54371 -4.53549 0
M  V30 21589 H 2061.68 -0.728474 -2.4406 0
M  V30 21590 H 2062.46 -2.39983 -2.45486 0
M  V30 21591 N 2064.91 1.40216 -0.719531 0
M  V30 21592 C 2066.13 2.05124 -0.270509 0
M  V30 21593 C 2066.55 1.5422 1.08911 0
M  V30 21594 O 2065.91 0.700448 1.68523 0
M  V30 21595 C 2065.96 3.60662 -0.24606 0
M  V30 21596 O 2065.68 4.09688 -1.552 0
M  V30 21597 C 2067.18 4.42749 0.22103 0
M  V30 21598 H 2064.4 0.660024 -0.120868 0
M  V30 21599 H 2066.94 1.79552 -0.978844 0
M  V30 21600 H 2065.1 3.85189 0.413268 0
M  V30 21601 H 2065.51 5.03911 -1.45513 0
M  V30 21602 H 2066.99 5.51683 0.186986 0
M  V30 21603 H 2067.46 4.20624 1.26382 0
M  V30 21604 H 2068.07 4.23337 -0.408166 0
M  V30 21605 N 2066.38 0.466004 1.50553 0
M  V30 21606 C 2067.79 0.00966264 1.86697 0
M  V30 21607 C 2068.15 -1.39347 1.38119 0
M  V30 21608 O 2067.27 -2.03208 0.744006 0
M  V30 21609 C 2067.87 0.0107586 3.38798 0
M  V30 21610 C 2066.42 -0.390094 3.74373 0
M  V30 21611 C 2065.57 0.398415 2.74423 0
M  V30 21612 H 2068.52 0.680522 1.43369 0
M  V30 21613 H 2068.54 -0.792537 3.72155 0
M  V30 21614 H 2068.06 1.0321 3.74125 0
M  V30 21615 H 2066.16 -1.41598 3.44646 0
M  V30 21616 H 2066.27 -0.0949729 4.79006 0
M  V30 21617 H 2064.63 -0.147197 2.54274 0
M  V30 21618 H 2065.42 1.41917 3.12593 0
M  V30 21619 N 2067.86 -1.56346 0.198413 0
M  V30 21620 C 2068.82 -2.1801 -0.707414 0
M  V30 21621 C 2069.82 -1.13547 -1.13858 0
M  V30 21622 O 2071.01 -1.38913 -1.05114 0
M  V30 21623 C 2068.15 -2.78484 -1.96621 0
M  V30 21624 H 2069.34 -2.99417 -0.170156 0
M  V30 21625 H 2066.89 -1.56216 -0.0512075 0
M  V30 21626 H 2067.63 -2.00884 -2.5459 0
M  V30 21627 H 2067.41 -3.54959 -1.66574 0
M  V30 21628 H 2068.9 -3.25823 -2.61207 0
M  V30 21629 N 2069.34 0.0751653 -1.57421 0
M  V30 21630 C 2070.29 1.10843 -2.04491 0
M  V30 21631 C 2071.28 1.4028 -0.94962 0
M  V30 21632 O 2072.49 1.39727 -1.13474 0
M  V30 21633 H 2068.86 0.37477 -0.651959 0
M  V30 21634 H 2070.83 0.685258 -2.90425 0
M  V30 21635 C 2069.58 2.41474 -2.50171 0
M  V30 21636 H 2068.91 2.19672 -3.34042 0
M  V30 21637 H 2070.35 3.12227 -2.86863 0
M  V30 21638 C 2068.81 3.07194 -1.38323 0
M  V30 21639 O 2069.34 3.95132 -0.723447 0
M  V30 21640 N 2067.54 2.67764 -1.1292 0
M  V30 21641 H 2067.09 1.96344 -1.66754 0
M  V30 21642 H 2067.05 3.1206 -0.382881 0
M  V30 21643 N 2070.82 1.53744 0.346476 0
M  V30 21644 C 2072.07 1.70849 1.08705 0
M  V30 21645 C 2072.39 0.470151 1.88732 0
M  V30 21646 O 2071.65 -0.548082 1.87868 0
M  V30 21647 C 2071.95 2.92192 2.05812 0
M  V30 21648 C 2071.61 4.27917 1.42119 0
M  V30 21649 C 2070.28 4.64821 1.24477 0
M  V30 21650 C 2072.63 5.12243 0.962087 0
M  V30 21651 C 2069.96 5.83671 0.595386 0
M  V30 21652 C 2072.31 6.31756 0.326627 0
M  V30 21653 C 2070.97 6.67358 0.137866 0
M  V30 21654 H 2070.24 0.625182 0.397779 0
M  V30 21655 H 2072.89 1.87957 0.366657 0
M  V30 21656 H 2071.19 2.69675 2.84223 0
M  V30 21657 H 2072.89 3.0262 2.63101 0
M  V30 21658 H 2069.48 3.9887 1.56847 0
M  V30 21659 H 2073.66 4.84267 1.08625 0
M  V30 21660 H 2068.92 6.09831 0.437727 0
M  V30 21661 H 2073.09 6.9639 -0.0372189 0
M  V30 21662 H 2070.72 7.59312 -0.367372 0
M  V30 21663 N 2072.3 -0.607329 1.45428 0
M  V30 21664 C 2073.24 -1.71802 1.54119 0
M  V30 21665 C 2074.21 -1.61527 0.387071 0
M  V30 21666 O 2075.4 -1.81102 0.60055 0
M  V30 21667 C 2072.54 -3.10112 1.5141 0
M  V30 21668 C 2071.65 -3.31191 2.77375 0
M  V30 21669 C 2070.79 -4.59608 2.66335 0
M  V30 21670 C 2069.83 -4.73946 3.87353 0
M  V30 21671 N 2068.96 -5.93662 3.74846 0
M  V30 21672 H 2073.8 -1.6371 2.49004 0
M  V30 21673 H 2071.34 -0.798251 1.23557 0
M  V30 21674 H 2073.3 -3.90132 1.47826 0
M  V30 21675 H 2071.93 -3.17161 0.600749 0
M  V30 21676 H 2070.98 -2.44944 2.91044 0
M  V30 21677 H 2072.29 -3.37658 3.67135 0
M  V30 21678 H 2071.45 -5.47823 2.60719 0
M  V30 21679 H 2070.18 -4.55538 1.74174 0
M  V30 21680 H 2069.19 -3.84153 3.93327 0
M  V30 21681 H 2070.41 -4.79812 4.8058 0
M  V30 21682 H 2068.36 -5.90637 2.85454 0
M  V30 21683 H 2068.28 -6.01291 4.58241 0
M  V30 21684 H 2069.55 -6.84375 3.73163 0
M  V30 21685 N 2073.77 -1.32722 -0.849853 0
M  V30 21686 C 2074.72 -1.2206 -1.95882 0
M  V30 21687 C 2075.69 -0.101678 -1.65788 0
M  V30 21688 O 2076.88 -0.278058 -1.88763 0
M  V30 21689 C 2074.02 -0.954544 -3.31636 0
M  V30 21690 C 2073.13 -2.15871 -3.74198 0
M  V30 21691 C 2072.26 -1.82773 -4.98766 0
M  V30 21692 C 2071.3 -2.99483 -5.33832 0
M  V30 21693 N 2070.44 -2.66445 -6.49578 0
M  V30 21694 H 2075.28 -2.16914 -2.04334 0
M  V30 21695 H 2072.82 -1.07877 -1.00004 0
M  V30 21696 H 2074.78 -0.780763 -4.09829 0
M  V30 21697 H 2073.41 -0.042781 -3.22772 0
M  V30 21698 H 2072.46 -2.4426 -2.91618 0
M  V30 21699 H 2073.77 -3.03157 -3.96102 0
M  V30 21700 H 2072.92 -1.61974 -5.84679 0
M  V30 21701 H 2071.66 -0.927067 -4.78808 0
M  V30 21702 H 2070.67 -3.20907 -4.46429 0
M  V30 21703 H 2071.89 -3.90288 -5.55745 0
M  V30 21704 H 2069.84 -1.78926 -6.31127 0
M  V30 21705 H 2069.76 -3.47262 -6.71524 0
M  V30 21706 H 2071.02 -2.49088 -7.38631 0
M  V30 21707 N 2075.25 1.06673 -1.16011 0
M  V30 21708 C 2076.49 1.80988 -0.949872 0
M  V30 21709 C 2076.86 1.85009 0.513401 0
M  V30 21710 O 2078.06 2.55265 0.842212 0
M  V30 21711 C 2076.33 3.21772 -1.55556 0
M  V30 21712 S 2077.89 4.12749 -1.48941 0
M  V30 21713 H 2074.71 0.623514 -0.341689 0
M  V30 21714 H 2077.31 1.28097 -1.47687 0
M  V30 21715 H 2076.01 3.16438 -2.61333 0
M  V30 21716 H 2075.54 3.79738 -1.02773 0
M  V30 21717 H 2077.56 4.93804 -0.487028 0
M  V30 21718 N 2076.73 0.957992 1.25141 0
M  V30 21719 C 2077.97 0.622306 1.94696 0
M  V30 21720 C 2078.33 -0.825845 1.73331 0
M  V30 21721 O 2079.54 -1.27128 2.36837 0
M  V30 21722 C 2077.81 0.975207 3.43838 0
M  V30 21723 S 2079.37 0.752603 4.32298 0
M  V30 21724 H 2076.18 0.228622 0.673241 0
M  V30 21725 H 2078.79 1.23288 1.51724 0
M  V30 21726 H 2077.49 2.02624 3.56892 0
M  V30 21727 H 2077.02 0.355017 3.91795 0
M  V30 21728 H 2079.04 -0.374938 4.94781 0
M  V30 21729 N 2078.21 -1.39832 0.726957 0
M  V30 21730 C 2079.62 -1.83534 0.342368 0
M  V30 21731 C 2079.97 -1.6075 -1.12489 0
M  V30 21732 O 2079.1 -1.09438 -1.86688 0
M  V30 21733 C 2079.69 -3.33178 0.614625 0
M  V30 21734 C 2078.25 -3.7533 0.283621 0
M  V30 21735 C 2077.4 -2.62923 0.881297 0
M  V30 21736 H 2080.35 -1.28939 0.925229 0
M  V30 21737 H 2080.37 -3.80322 -0.116329 0
M  V30 21738 H 2079.88 -3.49729 1.68259 0
M  V30 21739 H 2077.98 -3.64369 -0.778826 0
M  V30 21740 H 2078.09 -4.73025 0.760562 0
M  V30 21741 H 2076.46 -2.52825 0.308504 0
M  V30 21742 H 2077.24 -2.82282 1.95375 0
M  V30 21743 N 2079.69 -0.473982 -1.50304 0
M  V30 21744 C 2080.62 0.308532 -2.31453 0
M  V30 21745 C 2081.6 0.987678 -1.38488 0
M  V30 21746 O 2082.78 0.984294 -1.67408 0
M  V30 21747 C 2079.91 1.38921 -3.18305 0
M  V30 21748 C 2078.87 0.831509 -4.19845 0
M  V30 21749 C 2078.19 2.0107 -4.95454 0
M  V30 21750 C 2079.49 -0.159166 -5.22057 0
M  V30 21751 H 2081.19 -0.368757 -2.9712 0
M  V30 21752 H 2078.73 -0.178787 -1.42886 0
M  V30 21753 H 2080.69 1.94415 -3.73873 0
M  V30 21754 H 2079.41 2.09531 -2.50528 0
M  V30 21755 H 2078.07 0.298526 -3.65383 0
M  V30 21756 H 2077.72 2.70384 -4.24148 0
M  V30 21757 H 2077.42 1.64374 -5.64141 0
M  V30 21758 H 2078.94 2.57048 -5.53858 0
M  V30 21759 H 2080.35 0.306691 -5.72479 0
M  V30 21760 H 2078.75 -0.440549 -5.98481 0
M  V30 21761 H 2079.82 -1.08411 -4.72626 0
M  V30 21762 N 2081.16 1.56239 -0.206702 0
M  V30 21763 C 2082.41 1.98197 0.429627 0
M  V30 21764 C 2082.74 1.09386 1.60463 0
M  V30 21765 O 2082.02 0.148321 1.93934 0
M  V30 21766 C 2082.3 3.49218 0.878562 0
M  V30 21767 C 2082.15 4.48805 -0.299054 0
M  V30 21768 C 2083.47 4.04243 1.74 0
M  V30 21769 H 2080.59 0.720583 0.154691 0
M  V30 21770 H 2083.23 1.87617 -0.299957 0
M  V30 21771 H 2081.38 3.58365 1.50023 0
M  V30 21772 H 2083.06 4.51684 -0.936956 0
M  V30 21773 H 2081.3 4.23294 -0.948945 0
M  V30 21774 H 2081.97 5.5197 0.0577652 0
M  V30 21775 H 2084.45 3.97948 1.2156 0
M  V30 21776 H 2083.32 5.10259 2.02305 0
M  V30 21777 H 2083.58 3.50212 2.69823 0
M  V30 21778 N 2082.64 -0.0668159 1.57458 0
M  V30 21779 C 2083.88 -0.77031 1.89329 0
M  V30 21780 C 2084.25 -1.7449 0.801069 0
M  V30 21781 O 2085.45 -2.49386 1.00299 0
M  V30 21782 C 2083.72 -1.45541 3.26424 0
M  V30 21783 S 2085.28 -2.19328 3.80054 0
M  V30 21784 H 2082.1 -0.256053 0.663293 0
M  V30 21785 H 2084.7 -0.026213 1.95482 0
M  V30 21786 H 2083.4 -0.732349 4.03813 0
M  V30 21787 H 2082.93 -2.23883 3.23481 0
M  V30 21788 H 2084.95 -3.45924 3.5574 0
M  V30 21789 N 2084.12 -1.53926 -0.338317 0
M  V30 21790 C 2085.37 -1.71085 -1.07584 0
M  V30 21791 C 2085.69 -0.479497 -1.89013 0
M  V30 21792 O 2084.96 0.506566 -1.89237 0
M  V30 21793 H 2083.54 -0.630767 -0.400178 0
M  V30 21794 H 2086.2 -1.91193 -0.378324 0
M  V30 21795 H 2085.3 -2.58404 -1.75026 0
M  V30 21796 N 2085.6 0.599608 -1.45748 0
M  V30 21797 C 2086.55 1.70982 -1.55028 0
M  V30 21798 C 2087.52 1.61319 -0.395631 0
M  V30 21799 O 2088.7 1.80781 -0.610146 0
M  V30 21800 C 2085.84 3.09304 -1.53052 0
M  V30 21801 C 2084.95 3.29715 -2.79127 0
M  V30 21802 C 2084.09 4.58189 -2.68769 0
M  V30 21803 C 2083.13 4.71885 -3.89861 0
M  V30 21804 N 2082.27 5.91666 -3.77989 0
M  V30 21805 H 2087.11 1.62387 -2.49869 0
M  V30 21806 H 2084.64 0.791687 -1.23979 0
M  V30 21807 H 2086.6 3.89343 -1.49893 0
M  V30 21808 H 2085.23 3.16838 -0.617561 0
M  V30 21809 H 2084.28 2.43397 -2.92339 0
M  V30 21810 H 2085.59 3.35707 -3.68921 0
M  V30 21811 H 2084.75 5.46433 -2.63621 0
M  V30 21812 H 2083.49 4.54608 -1.76587 0
M  V30 21813 H 2082.49 3.82062 -3.95359 0
M  V30 21814 H 2083.72 4.77257 -4.83118 0
M  V30 21815 H 2081.66 5.89115 -2.88582 0
M  V30 21816 H 2081.58 5.98853 -4.61423 0
M  V30 21817 H 2082.85 6.82387 -3.76787 0
M  V30 21818 N 2087.08 1.33171 0.842803 0
M  V30 21819 C 2088.04 1.23019 1.93388 0
M  V30 21820 C 2089.04 0.15022 1.60097 0
M  V30 21821 O 2090.23 0.401472 1.69511 0
M  V30 21822 C 2087.36 0.89468 3.2895 0
M  V30 21823 H 2088.56 2.19997 2.03817 0
M  V30 21824 H 2086.11 1.17173 1.03442 0
M  V30 21825 H 2086.84 -0.0727774 3.24218 0
M  V30 21826 H 2086.63 1.67563 3.54493 0
M  V30 21827 H 2088.12 0.848284 4.08894 0
M  V30 21828 N 2088.56 -1.06056 1.16576 0
M  V30 21829 C 2089.49 -2.15554 0.897693 0
M  V30 21830 C 2090.47 -1.69375 -0.156927 0
M  V30 21831 O 2091.65 -1.94198 -0.00851939 0
M  V30 21832 C 2088.78 -3.44982 0.40063 0
M  V30 21833 C 2087.74 -4.04682 1.39343 0
M  V30 21834 C 2087.06 -5.29347 0.754677 0
M  V30 21835 C 2088.36 -4.43182 2.76381 0
M  V30 21836 H 2090.06 -2.38236 1.81339 0
M  V30 21837 H 2087.6 -1.14495 0.873316 0
M  V30 21838 H 2089.55 -4.20922 0.200566 0
M  V30 21839 H 2088.28 -3.21926 -0.550576 0
M  V30 21840 H 2086.94 -3.308 1.58009 0
M  V30 21841 H 2086.59 -5.0259 -0.203091 0
M  V30 21842 H 2086.29 -5.7025 1.41735 0
M  V30 21843 H 2087.81 -6.07983 0.564687 0
M  V30 21844 H 2089.22 -5.10195 2.61485 0
M  V30 21845 H 2087.62 -4.95076 3.39146 0
M  V30 21846 H 2088.69 -3.53931 3.31453 0
M  V30 21847 N 2090.03 -0.964615 -1.24631 0
M  V30 21848 C 2090.97 -0.450114 -2.24737 0
M  V30 21849 C 2091.98 0.439462 -1.56756 0
M  V30 21850 O 2093.17 0.246133 -1.76795 0
M  V30 21851 C 2090.27 0.369784 -3.36877 0
M  V30 21852 C 2089.44 -0.509155 -4.34426 0
M  V30 21853 C 2088.5 0.254217 -5.25586 0
M  V30 21854 O 2087.53 -0.3508 -5.68118 0
M  V30 21855 N 2088.73 1.54463 -5.59573 0
M  V30 21856 H 2091.49 -1.31079 -2.69515 0
M  V30 21857 H 2089.05 -0.83609 -1.3864 0
M  V30 21858 H 2091.05 0.88843 -3.94828 0
M  V30 21859 H 2089.62 1.13137 -2.91408 0
M  V30 21860 H 2088.84 -1.20881 -3.75209 0
M  V30 21861 H 2090.12 -1.10871 -4.96573 0
M  V30 21862 H 2089.52 2.05794 -5.26939 0
M  V30 21863 H 2088.08 2.00904 -6.20065 0
M  V30 21864 N 2091.51 1.39445 -0.734362 0
M  V30 21865 C 2092.44 2.33245 -0.109065 0
M  V30 21866 C 2093.42 1.53878 0.724945 0
M  V30 21867 O 2094.61 1.82274 0.670055 0
M  V30 21868 C 2091.74 3.37973 0.799454 0
M  V30 21869 C 2090.69 4.27943 0.0696508 0
M  V30 21870 C 2090.02 5.23365 1.09514 0
M  V30 21871 C 2091.32 5.10855 -1.08738 0
M  V30 21872 H 2093.01 2.85786 -0.892581 0
M  V30 21873 H 2090.56 1.37409 -0.430672 0
M  V30 21874 H 2092.51 4.02545 1.24643 0
M  V30 21875 H 2091.23 2.83871 1.61508 0
M  V30 21876 H 2089.89 3.64851 -0.357693 0
M  V30 21877 H 2089.54 4.65559 1.90432 0
M  V30 21878 H 2089.24 5.84408 0.611606 0
M  V30 21879 H 2090.77 5.90813 1.54183 0
M  V30 21880 H 2092.18 5.68775 -0.718888 0
M  V30 21881 H 2090.58 5.81038 -1.50051 0
M  V30 21882 H 2091.65 4.45725 -1.90937 0
M  V30 21883 N 2092.99 0.481946 1.5005 0
M  V30 21884 C 2093.92 -0.352787 2.25457 0
M  V30 21885 C 2094.9 -0.986902 1.29225 0
M  V30 21886 O 2096.08 -1.02072 1.58472 0
M  V30 21887 C 2093.21 -1.4952 3.0391 0
M  V30 21888 C 2092.26 -0.977381 4.1515 0
M  V30 21889 S 2093.09 0.116634 5.35373 0
M  V30 21890 C 2094.25 -1.0294 6.17377 0
M  V30 21891 H 2094.48 0.287284 2.95909 0
M  V30 21892 H 2092.01 0.266971 1.52074 0
M  V30 21893 H 2093.97 -2.14989 3.497 0
M  V30 21894 H 2092.63 -2.10682 2.32963 0
M  V30 21895 H 2091.82 -1.83296 4.69488 0
M  V30 21896 H 2091.43 -0.400227 3.71852 0
M  V30 21897 H 2093.72 -1.93874 6.49168 0
M  V30 21898 H 2094.66 -0.525055 7.06151 0
M  V30 21899 H 2095.07 -1.28813 5.49607 0
M  V30 21900 N 2094.47 -1.56127 0.214985 0
M  V30 21901 C 2095.74 -1.8994 -0.467153 0
M  V30 21902 C 2096.12 -1.13139 -1.78221 0
M  V30 21903 O 2095.47 -0.238654 -2.2725 0
M  V30 21904 C 2095.68 -3.42576 -0.666524 0
M  V30 21905 C 2097.03 -4.13209 -0.976927 0
M  V30 21906 O 2098.05 -3.48138 -0.753545 0
M  V30 21907 O 2096.91 -5.2825 -1.40052 0
M  V30 21908 H 2094.01 -0.789533 -0.246102 0
M  V30 21909 H 2096.55 -1.67748 0.256681 0
M  V30 21910 H 2095.33 -3.90426 0.261344 0
M  V30 21911 H 2094.95 -3.70526 -1.44209 0
M  V30 21912 N 2095.95 0.0584645 -1.57492 0
M  V30 21913 C 2097.36 0.413547 -1.54149 0
M  V30 21914 C 2097.56 1.78385 -0.937076 0
M  V30 21915 O 2096.62 2.46541 -0.545339 0
M  V30 21916 C 2097.93 0.342371 -2.98745 0
M  V30 21917 C 2099.48 0.421594 -3.10148 0
M  V30 21918 C 2099.95 0.380184 -4.56419 0
M  V30 21919 N 2101.44 0.439864 -4.61107 0
M  V30 21920 C 2102.18 0.430249 -5.71784 0
M  V30 21921 N 2101.68 0.374659 -6.91786 0
M  V30 21922 N 2103.47 0.4778 -5.60066 0
M  V30 21923 H 2095.62 -0.838642 -1.95142 0
M  V30 21924 H 2097.88 -0.316052 -0.893765 0
M  V30 21925 H 2097.59 -0.598115 -3.46577 0
M  V30 21926 H 2097.46 1.14747 -3.59323 0
M  V30 21927 H 2099.85 1.35251 -2.62281 0
M  V30 21928 H 2099.93 -0.41232 -2.52455 0
M  V30 21929 H 2099.57 -0.546935 -5.04947 0
M  V30 21930 H 2099.5 1.23181 -5.1199 0
M  V30 21931 H 2102 0.486535 -3.74755 0
M  V30 21932 H 2102.31 0.371614 -7.71906 0
M  V30 21933 H 2100.65 0.341145 -6.94162 0
M  V30 21934 H 2103.84 0.519015 -4.65214 0
M  V30 21935 H 2104.02 0.466838 -6.46316 0
M  V30 21936 N 2097.42 1.54103 0.330149 0
M  V30 21937 C 2098.65 1.75693 1.08699 0
M  V30 21938 C 2099.06 0.502371 1.82409 0
M  V30 21939 O 2098.4 -0.53629 1.75698 0
M  V30 21940 C 2098.47 2.89199 2.13551 0
M  V30 21941 C 2098.13 4.28338 1.59298 0
M  V30 21942 C 2099.13 5.09428 1.03823 0
M  V30 21943 C 2096.81 4.74863 1.6374 0
M  V30 21944 C 2098.81 6.3515 0.535098 0
M  V30 21945 C 2096.49 6.00554 1.1304 0
M  V30 21946 C 2097.49 6.80531 0.580184 0
M  V30 21947 O 2097.18 8.03859 0.0807823 0
M  V30 21948 H 2096.91 0.590289 0.329447 0
M  V30 21949 H 2099.47 2.01779 0.38398 0
M  V30 21950 H 2097.7 2.58669 2.87449 0
M  V30 21951 H 2099.38 2.98634 2.74905 0
M  V30 21952 H 2100.15 4.74641 0.997028 0
M  V30 21953 H 2096.03 4.1266 2.05506 0
M  V30 21954 H 2099.57 6.97521 0.104978 0
M  V30 21955 H 2095.47 6.34833 1.16865 0
M  V30 21956 H 2096.24 8.18263 0.196822 0
M  V30 21957 N 2098.9 -0.59187 1.46064 0
M  V30 21958 C 2100.13 -1.37666 1.54453 0
M  V30 21959 C 2100.55 -1.87916 0.18248 0
M  V30 21960 O 2099.9 -1.63106 -0.818692 0
M  V30 21961 C 2099.95 -2.57045 2.54185 0
M  V30 21962 O 2099.67 -2.08879 3.85099 0
M  V30 21963 C 2101.18 -3.49713 2.72426 0
M  V30 21964 H 2098.4 -0.420872 0.522597 0
M  V30 21965 H 2100.94 -0.720387 1.91391 0
M  V30 21966 H 2099.09 -3.18681 2.20276 0
M  V30 21967 H 2099.51 -2.86557 4.39301 0
M  V30 21968 H 2100.98 -4.29981 3.4615 0
M  V30 21969 H 2101.46 -4.01064 1.7901 0
M  V30 21970 H 2102.07 -2.9392 3.07395 0
M  V30 21971 N 2100.38 -1.33616 -0.835729 0
M  V30 21972 C 2101.8 -1.13019 -1.12689 0
M  V30 21973 C 2102 0.0768335 -2.01353 0
M  V30 21974 O 2101.05 0.756169 -2.40911 0
M  V30 21975 C 2102.37 -2.41918 -1.78595 0
M  V30 21976 C 2103.91 -2.47854 -1.91147 0
M  V30 21977 C 2104.39 -3.76723 -2.60469 0
M  V30 21978 N 2105.88 -3.77811 -2.67979 0
M  V30 21979 C 2106.61 -4.74237 -3.22315 0
M  V30 21980 N 2106.11 -5.81039 -3.77313 0
M  V30 21981 N 2107.9 -4.61709 -3.20596 0
M  V30 21982 H 2100.05 -2.10974 -0.245697 0
M  V30 21983 H 2102.32 -0.932353 -0.171526 0
M  V30 21984 H 2102.02 -3.30264 -1.20906 0
M  V30 21985 H 2101.9 -2.54302 -2.78586 0
M  V30 21986 H 2104.28 -1.59955 -2.47989 0
M  V30 21987 H 2104.37 -2.39408 -0.900965 0
M  V30 21988 H 2104.01 -4.65005 -2.04286 0
M  V30 21989 H 2103.94 -3.82447 -3.61998 0
M  V30 21990 H 2106.43 -3.00626 -2.28982 0
M  V30 21991 H 2106.74 -6.50648 -4.16986 0
M  V30 21992 H 2105.09 -5.8477 -3.75592 0
M  V30 21993 H 2108.28 -3.77426 -2.76888 0
M  V30 21994 H 2108.45 -5.37026 -3.62639 0
M  V30 21995 N 2101.86 1.05436 -1.17136 0
M  V30 21996 C 2102.79 2.13111 -0.843582 0
M  V30 21997 C 2103.8 1.6208 0.152942 0
M  V30 21998 O 2104.99 1.78351 -0.0730153 0
M  V30 21999 C 2102.09 3.38072 -0.236753 0
M  V30 22000 C 2101.27 4.18389 -1.27553 0
M  V30 22001 C 2100.32 5.21697 -0.686916 0
M  V30 22002 O 2099.35 5.52761 -1.35807 0
M  V30 22003 N 2100.55 5.78146 0.522229 0
M  V30 22004 H 2103.32 2.41827 -1.7703 0
M  V30 22005 H 2100.88 1.21513 -1.06987 0
M  V30 22006 H 2102.87 4.04342 0.170262 0
M  V30 22007 H 2101.44 3.0691 0.593699 0
M  V30 22008 H 2100.66 3.47645 -1.85839 0
M  V30 22009 H 2101.95 4.6885 -1.97628 0
M  V30 22010 H 2101.35 5.55188 1.0855 0
M  V30 22011 H 2099.9 6.4595 0.871341 0
M  V30 22012 N 2103.34 0.971211 1.24118 0
M  V30 22013 C 2104.75 0.678316 1.44468 0
M  V30 22014 C 2104.95 -0.75867 1.86672 0
M  V30 22015 O 2104.01 -1.53217 2.00701 0
M  V30 22016 C 2105.32 1.66541 2.50369 0
M  V30 22017 C 2106.87 1.67842 2.64193 0
M  V30 22018 C 2107.34 2.65358 3.73295 0
M  V30 22019 N 2108.84 2.63821 3.80727 0
M  V30 22020 C 2109.57 3.35947 4.6468 0
M  V30 22021 N 2109.07 4.17602 5.52794 0
M  V30 22022 N 2110.86 3.24755 4.58793 0
M  V30 22023 H 2103.01 1.8996 0.950216 0
M  V30 22024 H 2105.27 0.818026 0.479101 0
M  V30 22025 H 2104.98 2.69261 2.26255 0
M  V30 22026 H 2104.85 1.44095 3.48592 0
M  V30 22027 H 2107.24 0.658308 2.87664 0
M  V30 22028 H 2107.32 1.94351 1.66316 0
M  V30 22029 H 2106.97 3.67505 3.50574 0
M  V30 22030 H 2106.9 2.36127 4.70693 0
M  V30 22031 H 2109.39 2.04554 3.17751 0
M  V30 22032 H 2109.7 4.69515 6.13821 0
M  V30 22033 H 2108.04 4.21695 5.52447 0
M  V30 22034 H 2111.24 2.60422 3.8897 0
M  V30 22035 H 2111.41 3.81228 5.23994 0
M  V30 22036 N 2104.81 -1.39054 0.741747 0
M  V30 22037 C 2106.06 -2.00374 0.292655 0
M  V30 22038 C 2106.39 -1.58866 -1.12214 0
M  V30 22039 O 2105.64 -0.811946 -1.78062 0
M  V30 22040 C 2105.94 -3.55684 0.349795 0
M  V30 22041 C 2105.61 -4.16865 1.71856 0
M  V30 22042 C 2104.27 -4.33289 2.09318 0
M  V30 22043 C 2106.62 -4.50738 2.61696 0
M  V30 22044 C 2103.95 -4.80878 3.36115 0
M  V30 22045 C 2106.3 -4.99738 3.87872 0
M  V30 22046 C 2104.97 -5.14369 4.25418 0
M  V30 22047 H 2104.24 -0.733221 0.10709 0
M  V30 22048 H 2106.88 -1.6628 0.949911 0
M  V30 22049 H 2105.19 -3.89844 -0.391034 0
M  V30 22050 H 2106.89 -4.00997 -0.0159237 0
M  V30 22051 H 2103.48 -4.04488 1.41731 0
M  V30 22052 H 2107.66 -4.37661 2.34022 0
M  V30 22053 H 2102.92 -4.90391 3.6514 0
M  V30 22054 H 2107.09 -5.24919 4.57638 0
M  V30 22055 H 2104.72 -5.51005 5.23734 0
M  V30 22056 N 2106.29 -0.489897 -1.49792 0
M  V30 22057 C 2107.52 0.0556798 -2.06825 0
M  V30 22058 C 2107.94 1.31825 -1.35158 0
M  V30 22059 O 2107.29 1.77446 -0.426503 0
M  V30 22060 C 2107.34 0.324604 -3.6004 0
M  V30 22061 O 2107.06 -0.887904 -4.29008 0
M  V30 22062 C 2108.57 0.91506 -4.33753 0
M  V30 22063 H 2105.79 -0.0154889 -0.670821 0
M  V30 22064 H 2108.33 -0.684073 -1.92719 0
M  V30 22065 H 2106.48 1.01432 -3.73885 0
M  V30 22066 H 2106.9 -0.643954 -5.20532 0
M  V30 22067 H 2108.37 1.05288 -5.41866 0
M  V30 22068 H 2108.85 1.91003 -3.95493 0
M  V30 22069 H 2109.46 0.263155 -4.24485 0
M  V30 22070 N 2107.77 1.56011 -0.223262 0
M  V30 22071 C 2109.02 1.98642 0.408581 0
M  V30 22072 C 2109.35 1.11082 1.59294 0
M  V30 22073 O 2108.62 0.168881 1.93765 0
M  V30 22074 C 2108.91 3.5013 0.841473 0
M  V30 22075 C 2108.76 4.48462 -0.346639 0
M  V30 22076 C 2110.08 4.06065 1.69703 0
M  V30 22077 H 2107.2 0.722183 0.147039 0
M  V30 22078 H 2109.84 1.87289 -0.319839 0
M  V30 22079 H 2107.99 3.59936 1.46214 0
M  V30 22080 H 2109.66 4.50665 -0.98481 0
M  V30 22081 H 2107.91 4.22263 -0.993788 0
M  V30 22082 H 2108.58 5.52 -0.00078187 0
M  V30 22083 H 2111.05 3.99215 1.17332 0
M  V30 22084 H 2109.93 5.12376 1.96882 0
M  V30 22085 H 2110.19 3.53054 2.66093 0
M  V30 22086 N 2109.25 -0.0501116 1.5752 0
M  V30 22087 C 2110.53 -0.779325 1.79404 0
M  V30 22088 C 2110.91 -1.94682 0.816214 0
M  V30 22089 O 2110.25 -2.28032 -0.146153 0
M  V30 22090 C 2110.46 -1.23206 3.26529 0
M  V30 22091 C 2111.81 -1.65661 3.9095 0
M  V30 22092 O 2112.84 -1.32718 3.30552 0
M  V30 22093 O 2111.69 -2.26728 4.97249 0
M  V30 22094 H 2108.79 -0.375128 0.737026 0
M  V30 22095 H 2111.33 -0.0285117 1.69676 0
M  V30 22096 H 2110.11 -0.397664 3.89274 0
M  V30 22097 H 2109.73 -2.04353 3.41065 0
M  V30 22098 N 2110.73 -1.54276 -0.321972 0
M  V30 22099 C 2111.64 -1.86797 -1.41929 0
M  V30 22100 C 2112.65 -0.760051 -1.56522 0
M  V30 22101 O 2113.83 -1.0545 -1.71588 0
M  V30 22102 C 2110.89 -2.09003 -2.7662 0
M  V30 22103 C 2109.95 -3.32799 -2.71189 0
M  V30 22104 C 2109.19 -3.53936 -3.99456 0
M  V30 22105 O 2109.41 -2.78482 -4.97799 0
M  V30 22106 O 2108.34 -4.47417 -4.02619 0
M  V30 22107 H 2112.17 -2.8011 -1.17355 0
M  V30 22108 H 2109.76 -1.40201 -0.516141 0
M  V30 22109 H 2111.64 -2.2493 -3.56349 0
M  V30 22110 H 2110.31 -1.18879 -3.01081 0
M  V30 22111 H 2109.22 -3.22256 -1.90006 0
M  V30 22112 H 2110.55 -4.22986 -2.51683 0
M  V30 22113 N 2112.2 0.584116 -1.46376 0
M  V30 22114 C 2113.45 1.33858 -1.5088 0
M  V30 22115 C 2113.77 1.94909 -0.164319 0
M  V30 22116 O 2114.97 2.7136 -0.0871554 0
M  V30 22117 C 2113.43 2.42594 -2.6585 0
M  V30 22118 C 2113.04 1.87853 -4.06713 0
M  V30 22119 C 2114.78 3.19391 -2.79624 0
M  V30 22120 C 2112.69 2.94209 -5.13026 0
M  V30 22121 H 2111.62 0.503207 -0.561515 0
M  V30 22122 H 2114.27 0.623507 -1.72582 0
M  V30 22123 H 2112.65 3.16894 -2.37475 0
M  V30 22124 H 2113.82 1.20105 -4.44872 0
M  V30 22125 H 2112.14 1.23726 -3.97594 0
M  V30 22126 H 2114.74 3.98763 -3.56219 0
M  V30 22127 H 2115.08 3.71891 -1.8709 0
M  V30 22128 H 2115.61 2.52197 -3.07638 0
M  V30 22129 H 2112.35 2.46598 -6.07347 0
M  V30 22130 H 2111.87 3.6045 -4.79412 0
M  V30 22131 H 2113.55 3.58184 -5.38807 0
M  V30 22132 N 2113.68 1.34058 0.828631 0
M  V30 22133 C 2114.91 1.29156 1.61636 0
M  V30 22134 C 2115.33 -0.135511 1.88313 0
M  V30 22135 O 2114.68 -1.08084 1.47051 0
M  V30 22136 C 2114.73 2.07436 2.96062 0
M  V30 22137 O 2114.46 3.44577 2.70552 0
M  V30 22138 C 2115.96 2.09865 3.90476 0
M  V30 22139 H 2113.18 0.444543 0.502615 0
M  V30 22140 H 2115.72 1.76585 1.0314 0
M  V30 22141 H 2113.88 1.63663 3.51131 0
M  V30 22142 H 2114.29 3.84972 3.56225 0
M  V30 22143 H 2115.76 2.69071 4.8198 0
M  V30 22144 H 2116.24 1.09155 4.2542 0
M  V30 22145 H 2116.85 2.53702 3.41344 0
M  V30 22146 N 2115.16 -1.04814 1.17694 0
M  V30 22147 C 2116.39 -1.8155 0.99233 0
M  V30 22148 C 2116.8 -1.83126 -0.459376 0
M  V30 22149 O 2116.16 -1.26127 -1.31903 0
M  V30 22150 C 2116.21 -3.27495 1.53067 0
M  V30 22151 O 2115.93 -3.26104 2.92554 0
M  V30 22152 C 2117.43 -4.20905 1.39119 0
M  V30 22153 H 2114.65 -0.571967 0.350849 0
M  V30 22154 H 2117.2 -1.32145 1.5607 0
M  V30 22155 H 2115.35 -3.74157 1.00424 0
M  V30 22156 H 2115.77 -4.17476 3.17512 0
M  V30 22157 H 2117.24 -5.21275 1.81595 0
M  V30 22158 H 2117.72 -4.37891 0.338812 0
M  V30 22159 H 2118.32 -3.801 1.90798 0
M  V30 22160 N 2116.64 -0.977779 -1.23601 0
M  V30 22161 C 2117.57 -0.535228 -2.27283 0
M  V30 22162 C 2118.55 0.430261 -1.64568 0
M  V30 22163 O 2119.74 0.324195 -1.91475 0
M  V30 22164 C 2116.87 0.165683 -3.46905 0
M  V30 22165 C 2115.82 -0.716827 -4.21954 0
M  V30 22166 C 2115.15 0.116149 -5.34574 0
M  V30 22167 C 2116.45 -2.00636 -4.82227 0
M  V30 22168 H 2118.14 -1.40185 -2.64553 0
M  V30 22169 H 2115.69 -0.67551 -1.27173 0
M  V30 22170 H 2117.64 0.486573 -4.18581 0
M  V30 22171 H 2116.36 1.06674 -3.08688 0
M  V30 22172 H 2115.02 -1.02114 -3.52091 0
M  V30 22173 H 2114.67 1.01766 -4.92598 0
M  V30 22174 H 2114.37 -0.471195 -5.85708 0
M  V30 22175 H 2115.89 0.431481 -6.09074 0
M  V30 22176 H 2117.31 -1.75041 -5.45925 0
M  V30 22177 H 2115.7 -2.54126 -5.43636 0
M  V30 22178 H 2116.77 -2.69488 -4.03118 0
M  V30 22179 N 2118.12 1.38658 -0.749111 0
M  V30 22180 C 2119.37 1.99455 -0.300085 0
M  V30 22181 C 2119.68 1.60136 1.1232 0
M  V30 22182 O 2120.89 2.13871 1.67247 0
M  V30 22183 C 2119.34 3.56609 -0.485575 0
M  V30 22184 C 2118.95 4.04883 -1.91766 0
M  V30 22185 C 2120.69 4.24384 -0.0990364 0
M  V30 22186 C 2118.6 5.54661 -2.05195 0
M  V30 22187 H 2117.53 0.74616 -0.108449 0
M  V30 22188 H 2120.18 1.5848 -0.925012 0
M  V30 22189 H 2118.56 3.95451 0.208468 0
M  V30 22190 H 2119.74 3.77342 -2.6448 0
M  V30 22191 H 2118.05 3.49817 -2.2587 0
M  V30 22192 H 2120.65 5.34403 -0.178195 0
M  V30 22193 H 2120.99 4.05369 0.947724 0
M  V30 22194 H 2121.53 3.90766 -0.744765 0
M  V30 22195 H 2118.26 5.78575 -3.08109 0
M  V30 22196 H 2117.78 5.8396 -1.36935 0
M  V30 22197 H 2119.46 6.20291 -1.83977 0
M  V30 22198 N 2119.6 0.497834 1.49531 0
M  V30 22199 C 2120.53 -0.328854 2.25818 0
M  V30 22200 C 2121.51 -0.97314 1.30264 0
M  V30 22201 O 2122.69 -1.00386 1.59546 0
M  V30 22202 C 2119.82 -1.46289 3.05479 0
M  V30 22203 C 2118.86 -0.933294 4.16163 0
M  V30 22204 S 2119.7 0.173411 5.35219 0
M  V30 22205 C 2120.85 -0.963862 6.18434 0
M  V30 22206 H 2121.09 0.318653 2.95587 0
M  V30 22207 H 2118.62 0.283085 1.51783 0
M  V30 22208 H 2120.58 -2.11268 3.5196 0
M  V30 22209 H 2119.24 -2.08199 2.35185 0
M  V30 22210 H 2118.43 -1.78306 4.71405 0
M  V30 22211 H 2118.03 -0.360765 3.72256 0
M  V30 22212 H 2120.32 -1.86978 6.51188 0
M  V30 22213 H 2121.27 -0.450129 7.06668 0
M  V30 22214 H 2121.68 -1.22977 5.50942 0
M  V30 22215 N 2121.07 -1.5589 0.231532 0
M  V30 22216 C 2122.02 -2.22104 -0.690835 0
M  V30 22217 C 2123.02 -1.20363 -1.19202 0
M  V30 22218 O 2124.22 -1.38416 -1.1507 0
M  V30 22219 H 2120.6 -0.712259 -0.241228 0
M  V30 22220 H 2122.57 -2.98201 -0.109056 0
M  V30 22221 C 2121.32 -2.92249 -1.88377 0
M  V30 22222 H 2120.64 -3.703 -1.50725 0
M  V30 22223 H 2122.08 -3.41964 -2.50672 0
M  V30 22224 C 2120.54 -1.95268 -2.7454 0
M  V30 22225 O 2121.07 -1.47596 -3.73602 0
M  V30 22226 N 2119.27 -1.62701 -2.40783 0
M  V30 22227 H 2118.82 -2.01663 -1.6028 0
M  V30 22228 H 2118.78 -0.98076 -2.98711 0
M  V30 22229 N 2122.55 0.0417572 -1.57545 0
M  V30 22230 C 2123.46 1.06351 -2.09109 0
M  V30 22231 C 2124.48 1.40464 -1.02694 0
M  V30 22232 O 2125.65 1.50038 -1.34352 0
M  V30 22233 C 2122.72 2.34925 -2.54973 0
M  V30 22234 C 2121.78 2.0751 -3.75816 0
M  V30 22235 C 2121.01 3.29954 -4.19483 0
M  V30 22236 O 2121.24 4.40174 -3.62772 0
M  V30 22237 O 2120.17 3.16399 -5.12031 0
M  V30 22238 H 2124 0.655348 -2.96545 0
M  V30 22239 H 2121.58 0.257909 -1.47157 0
M  V30 22240 H 2123.46 3.10537 -2.84859 0
M  V30 22241 H 2122.14 2.75062 -1.70653 0
M  V30 22242 H 2121.04 1.29507 -3.50968 0
M  V30 22243 H 2122.38 1.72237 -4.61081 0
M  V30 22244 N 2124.03 1.54445 0.313786 0
M  V30 22245 C 2124.98 1.8451 1.38654 0
M  V30 22246 C 2125.95 0.692957 1.50955 0
M  V30 22247 O 2127.13 0.940344 1.66019 0
M  V30 22248 C 2124.27 2.08672 2.74863 0
M  V30 22249 C 2123.38 3.36334 2.71115 0
M  V30 22250 C 2122.52 3.50406 3.99235 0
M  V30 22251 C 2121.56 4.71907 3.89833 0
M  V30 22252 N 2120.7 4.82853 5.09703 0
M  V30 22253 H 2125.54 2.76024 1.12315 0
M  V30 22254 H 2123.07 1.36691 0.543496 0
M  V30 22255 H 2125.03 2.20675 3.5406 0
M  V30 22256 H 2123.66 1.20438 2.9949 0
M  V30 22257 H 2122.71 3.33019 1.83855 0
M  V30 22258 H 2124.02 4.25645 2.60054 0
M  V30 22259 H 2123.18 3.62004 4.86865 0
M  V30 22260 H 2121.92 2.59206 4.13115 0
M  V30 22261 H 2120.92 4.60356 3.00587 0
M  V30 22262 H 2122.15 5.64502 3.7751 0
M  V30 22263 H 2120.09 3.94572 5.2407 0
M  V30 22264 H 2120.01 5.66145 5.01015 0
M  V30 22265 H 2121.28 4.98794 5.9902 0
M  V30 22266 N 2125.51 -0.576345 1.46683 0
M  V30 22267 C 2126.46 -1.70601 1.58108 0
M  V30 22268 C 2127.45 -1.63334 0.449247 0
M  V30 22269 O 2128.66 -1.68751 0.626355 0
M  V30 22270 H 2125.03 -0.564161 0.497218 0
M  V30 22271 H 2127 -1.58098 2.53076 0
M  V30 22272 C 2125.75 -3.08983 1.59452 0
M  V30 22273 H 2125.07 -3.15247 2.45885 0
M  V30 22274 H 2126.51 -3.87768 1.715 0
M  V30 22275 C 2124.97 -3.35335 0.324303 0
M  V30 22276 O 2125.5 -3.9745 -0.58277 0
M  V30 22277 N 2123.71 -2.89838 0.21024 0
M  V30 22278 H 2123.26 -2.39471 0.949293 0
M  V30 22279 H 2123.21 -3.07843 -0.638752 0
M  V30 22280 N 2126.99 -1.34495 -0.82151 0
M  V30 22281 C 2128.4 -1.14208 -1.11484 0
M  V30 22282 C 2128.6 0.0554729 -2.01424 0
M  V30 22283 O 2127.66 0.730574 -2.417 0
M  V30 22284 C 2128.97 -2.43799 -1.76019 0
M  V30 22285 C 2130.52 -2.49868 -1.88508 0
M  V30 22286 C 2130.99 -3.79464 -2.56459 0
M  V30 22287 N 2132.48 -3.80632 -2.63957 0
M  V30 22288 C 2133.22 -4.77629 -3.17267 0
M  V30 22289 N 2132.72 -5.85009 -3.71129 0
M  V30 22290 N 2134.51 -4.65083 -3.15681 0
M  V30 22291 H 2126.66 -2.11223 -0.223307 0
M  V30 22292 H 2128.92 -0.93412 -0.161627 0
M  V30 22293 H 2128.63 -3.31528 -1.17397 0
M  V30 22294 H 2128.5 -2.57243 -2.75873 0
M  V30 22295 H 2130.89 -1.62577 -2.46278 0
M  V30 22296 H 2130.97 -2.4035 -0.875522 0
M  V30 22297 H 2130.61 -4.67146 -1.99342 0
M  V30 22298 H 2130.54 -3.86264 -3.57921 0
M  V30 22299 H 2133.04 -3.03038 -2.2578 0
M  V30 22300 H 2133.35 -6.55034 -4.10062 0
M  V30 22301 H 2131.69 -5.88721 -3.69369 0
M  V30 22302 H 2134.88 -3.80342 -2.72869 0
M  V30 22303 H 2135.06 -5.40842 -3.56922 0
M  V30 22304 N 2128.46 1.04188 -1.18248 0
M  V30 22305 C 2129.88 1.29568 -0.931902 0
M  V30 22306 C 2130.08 1.97424 0.403235 0
M  V30 22307 O 2129.14 2.25409 1.13785 0
M  V30 22308 C 2130.45 2.15557 -2.09656 0
M  V30 22309 C 2132 2.28907 -2.13473 0
M  V30 22310 C 2132.47 3.18262 -3.29353 0
M  V30 22311 N 2133.96 3.25849 -3.29206 0
M  V30 22312 C 2134.7 3.95141 -4.15513 0
M  V30 22313 N 2134.19 4.66775 -5.1195 0
M  V30 22314 N 2135.99 3.91408 -4.03431 0
M  V30 22315 H 2128.14 0.585496 -2.04171 0
M  V30 22316 H 2130.4 0.320854 -0.892052 0
M  V30 22317 H 2130.11 1.73002 -3.06208 0
M  V30 22318 H 2129.98 3.16231 -2.05616 0
M  V30 22319 H 2132.37 2.70698 -1.175 0
M  V30 22320 H 2132.45 1.27828 -2.21571 0
M  V30 22321 H 2132.09 2.77182 -4.25597 0
M  V30 22322 H 2132.02 4.1937 -3.18491 0
M  V30 22323 H 2134.51 2.74819 -2.59389 0
M  V30 22324 H 2134.83 5.17239 -5.74181 0
M  V30 22325 H 2133.17 4.65683 -5.15911 0
M  V30 22326 H 2136.36 3.34577 -3.27377 0
M  V30 22327 H 2136.54 4.45139 -4.70909 0
M  V30 22328 N 2129.94 0.98432 1.23081 0
M  V30 22329 C 2130.91 0.532738 2.22923 0
M  V30 22330 C 2131.91 -0.379759 1.56251 0
M  V30 22331 O 2133.1 -0.172906 1.7334 0
M  V30 22332 C 2130.23 -0.226262 3.40148 0
M  V30 22333 H 2131.42 1.41558 2.64388 0
M  V30 22334 H 2128.97 0.77062 1.35982 0
M  V30 22335 H 2129.71 -1.12547 3.04144 0
M  V30 22336 H 2129.49 0.428801 3.89748 0
M  V30 22337 H 2130.98 -0.530671 4.14214 0
M  V30 22338 N 2131.42 -1.38259 0.756453 0
M  V30 22339 C 2132.37 -2.3229 0.120051 0
M  V30 22340 C 2133.36 -1.54164 -0.702119 0
M  V30 22341 O 2134.57 -1.69674 -0.600895 0
M  V30 22342 H 2130.94 -0.751733 0.0200275 0
M  V30 22343 H 2132.91 -2.83566 0.929131 0
M  V30 22344 C 2131.66 -3.39368 -0.756628 0
M  V30 22345 H 2130.99 -3.99577 -0.133366 0
M  V30 22346 H 2132.43 -4.07562 -1.16916 0
M  V30 22347 C 2130.89 -2.78176 -1.90051 0
M  V30 22348 O 2131.42 -2.67711 -2.99489 0
M  V30 22349 N 2129.62 -2.35944 -1.69644 0
M  V30 22350 H 2129.17 -2.44655 -0.806323 0
M  V30 22351 H 2129.13 -1.95344 -2.46349 0
M  V30 22352 N 2132.9 -0.505757 -1.49264 0
M  V30 22353 C 2134.15 0.0389421 -2.01662 0
M  V30 22354 C 2134.46 1.37604 -1.39012 0
M  V30 22355 O 2135.67 2.00771 -1.82766 0
M  V30 22356 C 2134.12 0.119854 -3.597 0
M  V30 22357 C 2133.73 -1.21089 -4.31325 0
M  V30 22358 C 2135.47 0.614665 -4.20026 0
M  V30 22359 C 2133.38 -1.09188 -5.81233 0
M  V30 22360 H 2132.31 0.0183265 -0.753777 0
M  V30 22361 H 2134.96 -0.645894 -1.71757 0
M  V30 22362 H 2133.34 0.869244 -3.86342 0
M  V30 22363 H 2134.52 -1.97394 -4.1638 0
M  V30 22364 H 2132.83 -1.63951 -3.82765 0
M  V30 22365 H 2135.43 0.721287 -5.29813 0
M  V30 22366 H 2135.77 1.61466 -3.83711 0
M  V30 22367 H 2136.31 -0.0783291 -3.97723 0
M  V30 22368 H 2133.05 -2.06629 -6.22081 0
M  V30 22369 H 2132.57 -0.369793 -5.98659 0
M  V30 22370 H 2134.24 -0.772559 -6.42371 0
M  V30 22371 N 2134.38 1.55765 -0.239796 0
M  V30 22372 C 2135.62 1.98377 0.386152 0
M  V30 22373 C 2135.95 1.12912 1.58984 0
M  V30 22374 O 2135.22 0.210274 1.94768 0
M  V30 22375 H 2133.8 0.732661 0.145661 0
M  V30 22376 H 2136.46 1.91966 -0.336934 0
M  V30 22377 H 2135.55 3.04146 0.700123 0
M  V30 22378 N 2135.85 -0.0334016 1.57565 0
M  V30 22379 C 2136.8 -1.05382 2.07358 0
M  V30 22380 C 2137.8 -1.37713 0.986479 0
M  V30 22381 O 2139 -1.36669 1.17139 0
M  V30 22382 H 2135.38 -0.357353 0.661667 0
M  V30 22383 H 2137.35 -0.608016 2.9214 0
M  V30 22384 C 2136.1 -2.34757 2.56485 0
M  V30 22385 H 2135.42 -2.10738 3.39749 0
M  V30 22386 H 2136.86 -3.04512 2.9504 0
M  V30 22387 C 2135.32 -3.03419 1.46419 0
M  V30 22388 O 2135.85 -3.93075 0.827955 0
M  V30 22389 N 2134.06 -2.64676 1.19979 0
M  V30 22390 H 2133.6 -1.91854 1.71901 0
M  V30 22391 H 2133.56 -3.10935 0.465483 0
M  V30 22392 N 2137.33 -1.54609 -0.305591 0
M  V30 22393 C 2138.57 -1.75406 -1.04938 0
M  V30 22394 C 2138.94 -0.526278 -1.84646 0
M  V30 22395 O 2140.14 -0.611906 -2.61743 0
M  V30 22396 C 2138.41 -3.00482 -1.93508 0
M  V30 22397 S 2139.97 -3.42262 -2.74595 0
M  V30 22398 H 2136.79 -0.616617 -0.353984 0
M  V30 22399 H 2139.39 -1.92808 -0.32331 0
M  V30 22400 H 2138.09 -3.8797 -1.33817 0
M  V30 22401 H 2137.62 -2.85654 -2.70491 0
M  V30 22402 H 2139.64 -2.98971 -3.96018 0
M  V30 22403 N 2138.81 0.568558 -1.46987 0
M  V30 22404 C 2139.74 1.69177 -1.53149 0
M  V30 22405 C 2140.72 1.57989 -0.384472 0
M  V30 22406 O 2141.91 1.79007 -0.590656 0
M  V30 22407 C 2139.03 3.0734 -1.42336 0
M  V30 22408 C 2138.08 3.37007 -2.61398 0
M  V30 22409 S 2138.91 3.27512 -4.2367 0
M  V30 22410 C 2140.07 4.6819 -4.15391 0
M  V30 22411 H 2140.3 1.63693 -2.48177 0
M  V30 22412 H 2137.83 0.748461 -1.35046 0
M  V30 22413 H 2139.79 3.8704 -1.36786 0
M  V30 22414 H 2138.45 3.103 -0.487122 0
M  V30 22415 H 2137.65 4.37703 -2.49865 0
M  V30 22416 H 2137.25 2.64903 -2.64012 0
M  V30 22417 H 2139.54 5.58892 -3.82944 0
M  V30 22418 H 2140.48 4.8478 -5.16134 0
M  V30 22419 H 2140.89 4.45704 -3.46423 0
M  V30 22420 N 2140.29 1.34929 0.814366 0
M  V30 22421 C 2141.2 1.29305 1.95748 0
M  V30 22422 C 2142.21 0.199261 1.72855 0
M  V30 22423 O 2143.39 0.427261 1.96816 0
M  V30 22424 C 2140.46 1.05688 3.30198 0
M  V30 22425 C 2139.52 2.24305 3.6604 0
M  V30 22426 C 2138.75 2.01805 4.94075 0
M  V30 22427 O 2138.97 0.980584 5.61908 0
M  V30 22428 O 2137.91 2.88973 5.27995 0
M  V30 22429 H 2141.73 2.25492 2.03438 0
M  V30 22430 H 2139.32 1.15222 0.951017 0
M  V30 22431 H 2141.2 0.943332 4.10706 0
M  V30 22432 H 2139.87 0.125466 3.23457 0
M  V30 22433 H 2138.78 2.41222 2.85942 0
M  V30 22434 H 2140.11 3.15866 3.77478 0
M  V30 22435 N 2141.77 -1.0356 1.18799 0
M  V30 22436 C 2142.73 -2.09853 0.921649 0
M  V30 22437 C 2143.73 -1.60519 -0.095096 0
M  V30 22438 O 2144.92 -1.73645 0.138909 0
M  V30 22439 C 2142.05 -3.38733 0.383809 0
M  V30 22440 H 2143.24 -2.34914 1.86428 0
M  V30 22441 H 2140.8 -1.20064 1.00071 0
M  V30 22442 H 2141.53 -3.19337 -0.565188 0
M  V30 22443 H 2141.32 -3.75859 1.11681 0
M  V30 22444 H 2142.81 -4.17039 0.216329 0
M  V30 22445 N 2143.25 -0.990834 -1.22557 0
M  V30 22446 C 2144.18 -0.559304 -2.26703 0
M  V30 22447 C 2145.16 0.412782 -1.65016 0
M  V30 22448 O 2146.34 0.303868 -1.91808 0
M  V30 22449 C 2143.47 0.12888 -3.47061 0
M  V30 22450 C 2142.43 -0.76154 -4.2117 0
M  V30 22451 C 2141.75 0.0594442 -5.34667 0
M  V30 22452 C 2143.05 -2.0574 -4.80071 0
M  V30 22453 H 2144.75 -1.42983 -2.63052 0
M  V30 22454 H 2142.29 -0.68896 -1.26449 0
M  V30 22455 H 2144.24 0.44215 -4.19074 0
M  V30 22456 H 2142.97 1.03394 -3.09802 0
M  V30 22457 H 2141.63 -1.05842 -3.50989 0
M  V30 22458 H 2141.28 0.965355 -4.9365 0
M  V30 22459 H 2140.98 -0.533291 -5.85175 0
M  V30 22460 H 2142.5 0.366857 -6.09497 0
M  V30 22461 H 2143.91 -1.80821 -5.44037 0
M  V30 22462 H 2142.31 -2.59878 -5.4091 0
M  V30 22463 H 2143.38 -2.73748 -4.00237 0
M  V30 22464 N 2144.72 1.37856 -0.763775 0
M  V30 22465 C 2145.97 1.99883 -0.324496 0
M  V30 22466 C 2146.3 1.60631 1.09672 0
M  V30 22467 O 2145.55 0.840171 1.76747 0
M  V30 22468 C 2145.85 3.55083 -0.406337 0
M  V30 22469 C 2145.52 4.14078 -1.78466 0
M  V30 22470 C 2144.18 4.29904 -2.16185 0
M  V30 22471 C 2146.53 4.46517 -2.68834 0
M  V30 22472 C 2143.86 4.7547 -3.43723 0
M  V30 22473 C 2146.21 4.93504 -3.95774 0
M  V30 22474 C 2144.88 5.07536 -4.33547 0
M  V30 22475 H 2144.15 0.731424 -0.118741 0
M  V30 22476 H 2146.79 1.64747 -0.976245 0
M  V30 22477 H 2145.1 3.90417 0.328964 0
M  V30 22478 H 2146.8 4.00971 -0.0478734 0
M  V30 22479 H 2143.39 4.02182 -1.48149 0
M  V30 22480 H 2147.57 4.33883 -2.40955 0
M  V30 22481 H 2142.83 4.8452 -3.72895 0
M  V30 22482 H 2147 5.17572 -4.65931 0
M  V30 22483 H 2144.63 5.42603 -5.32434 0
M  V30 22484 N 2146.2 0.513665 1.48994 0
M  V30 22485 C 2147.13 -0.29486 2.27295 0
M  V30 22486 C 2148.15 -0.919245 1.34364 0
M  V30 22487 O 2149.34 -0.800442 1.59547 0
M  V30 22488 C 2146.44 -1.43125 3.07195 0
M  V30 22489 C 2145.61 -0.911824 4.2779 0
M  V30 22490 C 2144.67 -1.92735 4.89632 0
M  V30 22491 O 2143.69 -1.49081 5.4933 0
M  V30 22492 N 2144.9 -3.25858 4.80413 0
M  V30 22493 H 2147.66 0.376609 2.97324 0
M  V30 22494 H 2145.22 0.346983 1.58138 0
M  V30 22495 H 2147.21 -2.10843 3.45438 0
M  V30 22496 H 2145.78 -2.00665 2.39692 0
M  V30 22497 H 2145 -0.059147 3.94156 0
M  V30 22498 H 2146.29 -0.543402 5.0589 0
M  V30 22499 H 2145.69 -3.64003 4.33034 0
M  V30 22500 H 2144.25 -3.89255 5.22804 0
M  V30 22501 N 2147.68 -1.55636 0.248053 0
M  V30 22502 C 2148.93 -1.98579 -0.375626 0
M  V30 22503 C 2149.25 -1.13753 -1.58383 0
M  V30 22504 O 2148.52 -0.2206 -1.94654 0
M  V30 22505 H 2147.1 -0.733423 -0.141773 0
M  V30 22506 H 2149.76 -1.91784 0.34711 0
M  V30 22507 H 2148.86 -3.04513 -0.683983 0
M  V30 22508 N 2149.16 0.0250451 -1.5758 0
M  V30 22509 C 2150.57 0.571131 -1.7775 0
M  V30 22510 C 2150.92 1.75376 -0.879637 0
M  V30 22511 O 2150.04 2.16268 -0.0755171 0
M  V30 22512 C 2150.64 1.04287 -3.2235 0
M  V30 22513 C 2149.2 1.53444 -3.43703 0
M  V30 22514 C 2148.35 0.474313 -2.73213 0
M  V30 22515 H 2151.3 -0.201177 -1.5742 0
M  V30 22516 H 2151.32 1.91005 -3.29085 0
M  V30 22517 H 2150.83 0.181922 -3.87673 0
M  V30 22518 H 2148.93 2.41711 -2.83561 0
M  V30 22519 H 2149.04 1.57917 -4.52326 0
M  V30 22520 H 2147.41 0.93027 -2.37103 0
M  V30 22521 H 2148.19 -0.377237 -3.41221 0
M  V30 22522 N 2150.64 1.54769 0.297388 0
M  V30 22523 C 2151.57 1.88972 1.37157 0
M  V30 22524 C 2152.55 0.748993 1.52722 0
M  V30 22525 O 2153.73 1.00504 1.6617 0
M  V30 22526 C 2150.86 2.1402 2.73519 0
M  V30 22527 C 2149.82 3.29865 2.72714 0
M  V30 22528 C 2149.14 3.4034 4.12399 0
M  V30 22529 C 2150.44 4.66881 2.34135 0
M  V30 22530 H 2152.14 2.7894 1.0878 0
M  V30 22531 H 2149.68 1.34212 0.521848 0
M  V30 22532 H 2151.63 2.36533 3.48755 0
M  V30 22533 H 2150.36 1.20827 3.03428 0
M  V30 22534 H 2149.02 3.07281 1.99934 0
M  V30 22535 H 2148.67 2.44657 4.3949 0
M  V30 22536 H 2148.37 4.18214 4.1276 0
M  V30 22537 H 2149.89 3.65118 4.89409 0
M  V30 22538 H 2151.3 4.89101 2.99087 0
M  V30 22539 H 2149.7 5.47495 2.45703 0
M  V30 22540 H 2150.77 4.67354 1.29261 0
M  V30 22541 N 2152.11 -0.560755 1.47286 0
M  V30 22542 C 2153.53 -0.886333 1.32726 0
M  V30 22543 C 2153.73 -1.99021 0.31509 0
M  V30 22544 O 2152.79 -2.51002 -0.274638 0
M  V30 22545 C 2154.1 -1.28292 2.71959 0
M  V30 22546 C 2155.65 -1.39455 2.80217 0
M  V30 22547 C 2156.12 -1.8247 4.20082 0
M  V30 22548 N 2157.61 -1.89627 4.22606 0
M  V30 22549 C 2158.35 -2.24232 5.27738 0
M  V30 22550 N 2157.84 -2.57475 6.43178 0
M  V30 22551 N 2159.64 -2.24975 5.15114 0
M  V30 22552 H 2151.79 0.168088 2.11734 0
M  V30 22553 H 2154.05 0.0125326 0.947917 0
M  V30 22554 H 2153.76 -0.545664 3.47441 0
M  V30 22555 H 2153.63 -2.23983 3.03499 0
M  V30 22556 H 2156.02 -2.12262 2.05009 0
M  V30 22557 H 2156.1 -0.419601 2.52335 0
M  V30 22558 H 2155.74 -1.10234 4.95793 0
M  V30 22559 H 2155.67 -2.80962 4.45385 0
M  V30 22560 H 2158.16 -1.66337 3.39323 0
M  V30 22561 H 2158.48 -2.82897 7.19159 0
M  V30 22562 H 2156.82 -2.55063 6.46504 0
M  V30 22563 H 2160.01 -1.98441 4.23956 0
M  V30 22564 H 2160.19 -2.51614 5.97155 0
M  V30 22565 N 2153.59 -1.35359 -0.807199 0
M  V30 22566 C 2154.82 -1.3152 -1.5933 0
M  V30 22567 C 2155.23 0.109536 -1.88883 0
M  V30 22568 O 2154.57 1.07173 -1.49196 0
M  V30 22569 C 2154.63 -2.05378 -2.9506 0
M  V30 22570 C 2154.3 -3.54567 -2.88325 0
M  V30 22571 C 2155.3 -4.49171 -2.61805 0
M  V30 22572 C 2152.98 -3.97206 -3.07462 0
M  V30 22573 C 2154.97 -5.84389 -2.54496 0
M  V30 22574 C 2152.66 -5.3252 -2.99776 0
M  V30 22575 C 2153.66 -6.25923 -2.73329 0
M  V30 22576 O 2153.35 -7.58755 -2.65605 0
M  V30 22577 H 2153.08 -0.453354 -0.501444 0
M  V30 22578 H 2155.63 -1.78786 -1.01117 0
M  V30 22579 H 2153.86 -1.52748 -3.55253 0
M  V30 22580 H 2155.55 -1.94625 -3.56197 0
M  V30 22581 H 2156.32 -4.17546 -2.4674 0
M  V30 22582 H 2152.2 -3.24891 -3.27058 0
M  V30 22583 H 2155.74 -6.57264 -2.33774 0
M  V30 22584 H 2151.64 -5.63758 -3.14399 0
M  V30 22585 H 2152.41 -7.68673 -2.81218 0
M  V30 22586 N 2155.07 1.02928 -1.19346 0
M  V30 22587 C 2156.02 2.11197 -0.930836 0
M  V30 22588 C 2156.99 1.65557 0.13418 0
M  V30 22589 O 2158.17 1.90798 -0.00787889 0
M  V30 22590 C 2155.31 3.41813 -0.47517 0
M  V30 22591 C 2154.42 4.01002 -1.60691 0
M  V30 22592 C 2153.56 5.19626 -1.10282 0
M  V30 22593 C 2152.6 5.7087 -2.20848 0
M  V30 22594 N 2151.74 6.80769 -1.71749 0
M  V30 22595 H 2156.58 2.32999 -1.85784 0
M  V30 22596 H 2154.11 1.14276 -0.926246 0
M  V30 22597 H 2156.07 4.16756 -0.192384 0
M  V30 22598 H 2154.7 3.20123 0.414844 0
M  V30 22599 H 2153.75 3.23276 -2.00491 0
M  V30 22600 H 2155.06 4.3505 -2.43994 0
M  V30 22601 H 2154.22 6.01727 -0.775236 0
M  V30 22602 H 2152.96 4.87112 -0.239508 0
M  V30 22603 H 2151.96 4.87383 -2.54437 0
M  V30 22604 H 2153.19 6.05424 -3.07633 0
M  V30 22605 H 2151.13 6.50108 -0.877253 0
M  V30 22606 H 2151.05 7.13942 -2.48642 0
M  V30 22607 H 2152.32 7.66466 -1.41953 0
M  V30 22608 N 2156.55 0.997319 1.2203 0
M  V30 22609 C 2157.82 0.59145 1.86444 0
M  V30 22610 C 2158.2 -0.931144 1.89454 0
M  V30 22611 O 2157.55 -1.81492 1.38827 0
M  V30 22612 C 2157.76 1.21697 3.27095 0
M  V30 22613 C 2159.11 1.32027 4.03552 0
M  V30 22614 O 2160.13 1.1717 3.36377 0
M  V30 22615 O 2158.99 1.55846 5.23807 0
M  V30 22616 H 2156.09 0.201545 0.802065 0
M  V30 22617 H 2158.63 1.09348 1.29773 0
M  V30 22618 H 2157.41 2.25823 3.19562 0
M  V30 22619 H 2157.03 0.70081 3.91375 0
M  V30 22620 N 2158.03 -1.37449 0.771075 0
M  V30 22621 C 2158.96 -2.32874 0.170867 0
M  V30 22622 C 2159.94 -1.55746 -0.683892 0
M  V30 22623 O 2161.12 -1.83987 -0.621492 0
M  V30 22624 C 2158.25 -3.39974 -0.709566 0
M  V30 22625 C 2157.21 -4.27978 0.0438353 0
M  V30 22626 C 2156.53 -5.26084 -0.955998 0
M  V30 22627 C 2157.83 -5.07793 1.22245 0
M  V30 22628 H 2159.53 -2.83319 0.968038 0
M  V30 22629 H 2157.07 -1.36219 0.466952 0
M  V30 22630 H 2159.03 -4.05708 -1.13926 0
M  V30 22631 H 2157.75 -2.88053 -1.53925 0
M  V30 22632 H 2156.41 -3.63774 0.454301 0
M  V30 22633 H 2156.06 -4.70444 -1.78021 0
M  V30 22634 H 2155.76 -5.85824 -0.456445 0
M  V30 22635 H 2157.28 -5.94693 -1.38465 0
M  V30 22636 H 2158.69 -5.66669 0.869436 0
M  V30 22637 H 2157.09 -5.76855 1.65404 0
M  V30 22638 H 2158.16 -4.40506 2.02688 0
M  V30 22639 N 2159.5 -0.52156 -1.4872 0
M  V30 22640 C 2160.45 0.2458 -2.29487 0
M  V30 22641 C 2161.42 0.941571 -1.36834 0
M  V30 22642 O 2162.61 0.944239 -1.65797 0
M  V30 22643 C 2159.75 1.2919 -3.20006 0
M  V30 22644 C 2158.86 0.605827 -4.27731 0
M  V30 22645 C 2157.99 1.63413 -5.0544 0
M  V30 22646 C 2157.03 0.931058 -6.04977 0
M  V30 22647 N 2156.17 1.90451 -6.75776 0
M  V30 22648 H 2161.01 -0.449151 -2.94596 0
M  V30 22649 H 2158.55 -0.233338 -1.45238 0
M  V30 22650 H 2160.51 1.91062 -3.70879 0
M  V30 22651 H 2159.14 1.95534 -2.56839 0
M  V30 22652 H 2158.19 -0.126644 -3.80189 0
M  V30 22653 H 2159.5 0.0533786 -4.98771 0
M  V30 22654 H 2158.65 2.32736 -5.60285 0
M  V30 22655 H 2157.39 2.22047 -4.3422 0
M  V30 22656 H 2156.4 0.223716 -5.49345 0
M  V30 22657 H 2157.62 0.350949 -6.78193 0
M  V30 22658 H 2155.57 2.48008 -6.07312 0
M  V30 22659 H 2155.49 1.40328 -7.42862 0
M  V30 22660 H 2156.75 2.58999 -7.35214 0
M  V30 22661 N 2160.98 1.55502 -0.256304 0
M  V30 22662 C 2162.23 1.98345 0.366351 0
M  V30 22663 C 2162.54 1.14786 1.58378 0
M  V30 22664 O 2163.75 1.47686 2.27818 0
M  V30 22665 C 2162.21 3.52964 0.703174 0
M  V30 22666 C 2161.81 4.45275 -0.493386 0
M  V30 22667 C 2163.56 4.04441 1.2895 0
M  V30 22668 C 2161.47 5.91252 -0.132195 0
M  V30 22669 H 2160.4 0.740764 0.140656 0
M  V30 22670 H 2163.05 1.79974 -0.358 0
M  V30 22671 H 2161.43 3.67065 1.48591 0
M  V30 22672 H 2162.6 4.42936 -1.27059 0
M  V30 22673 H 2160.92 4.04331 -0.995272 0
M  V30 22674 H 2163.51 5.11032 1.57322 0
M  V30 22675 H 2163.86 3.52348 2.21713 0
M  V30 22676 H 2164.39 3.93703 0.569458 0
M  V30 22677 H 2161.13 6.47401 -1.02721 0
M  V30 22678 H 2160.65 5.96704 0.608619 0
M  V30 22679 H 2162.33 6.46384 0.282295 0
M  V30 22680 N 2162.46 -0.0166879 1.57591 0
M  V30 22681 C 2163.74 -0.741095 1.81017 0
M  V30 22682 C 2164.12 -1.92907 0.857326 0
M  V30 22683 O 2163.47 -2.28291 -0.0977513 0
M  V30 22684 C 2163.68 -1.16252 3.29069 0
M  V30 22685 C 2165.02 -1.57331 3.94376 0
M  V30 22686 O 2166.05 -1.25676 3.33292 0
M  V30 22687 O 2164.91 -2.16129 5.01947 0
M  V30 22688 H 2162 -0.35941 0.744818 0
M  V30 22689 H 2164.55 0.00748551 1.69698 0
M  V30 22690 H 2163.32 -0.315003 3.9003 0
M  V30 22691 H 2162.94 -1.97072 3.45323 0
M  V30 22692 N 2163.94 -1.54924 -0.289176 0
M  V30 22693 C 2165.18 -1.75025 -1.0244 0
M  V30 22694 C 2165.52 -0.540906 -1.86515 0
M  V30 22695 O 2164.79 0.461833 -1.88937 0
M  V30 22696 C 2165.08 -3.04611 -1.92052 0
M  V30 22697 C 2164.93 -4.35869 -1.11079 0
M  V30 22698 C 2166.25 -3.30134 -2.91032 0
M  V30 22699 H 2163.37 -0.636806 -0.371008 0
M  V30 22700 H 2166.01 -1.87647 -0.298076 0
M  V30 22701 H 2164.16 -2.93981 -2.53983 0
M  V30 22702 H 2165.83 -4.58434 -0.513434 0
M  V30 22703 H 2164.07 -4.31822 -0.41379 0
M  V30 22704 H 2164.74 -5.22832 -1.7706 0
M  V30 22705 H 2167.22 -3.40451 -2.39233 0
M  V30 22706 H 2166.1 -4.221 -3.50889 0
M  V30 22707 H 2166.36 -2.48995 -3.65314 0
M  V30 22708 N 2165.42 0.552936 -1.47582 0
M  V30 22709 C 2166.36 1.65963 -1.60389 0
M  V30 22710 C 2167.33 1.59979 -0.446754 0
M  V30 22711 O 2168.52 1.78749 -0.667351 0
M  V30 22712 C 2165.66 3.04278 -1.62815 0
M  V30 22713 C 2164.77 3.20668 -2.89476 0
M  V30 22714 C 2163.91 4.49406 -2.8321 0
M  V30 22715 C 2162.95 4.59243 -4.04676 0
M  V30 22716 N 2162.08 5.79341 -3.96621 0
M  V30 22717 H 2166.92 1.54355 -2.54909 0
M  V30 22718 H 2164.46 0.751844 -1.26435 0
M  V30 22719 H 2166.42 3.84377 -1.62204 0
M  V30 22720 H 2165.05 3.14712 -0.718048 0
M  V30 22721 H 2164.1 2.33973 -2.99935 0
M  V30 22722 H 2165.41 3.238 -3.79414 0
M  V30 22723 H 2164.57 5.3777 -2.80872 0
M  V30 22724 H 2163.3 4.4876 -1.90961 0
M  V30 22725 H 2162.31 3.69291 -4.07314 0
M  V30 22726 H 2163.53 4.61645 -4.98057 0
M  V30 22727 H 2161.48 5.79636 -3.07178 0
M  V30 22728 H 2161.4 5.8387 -4.80242 0
M  V30 22729 H 2162.67 6.70054 -3.98306 0
M  V30 22730 N 2166.89 1.35785 0.800009 0
M  V30 22731 C 2168.12 1.32556 1.5886 0
M  V30 22732 C 2168.54 -0.0955366 1.88558 0
M  V30 22733 O 2167.89 -1.0494 1.49311 0
M  V30 22734 C 2167.95 2.13669 2.91595 0
M  V30 22735 O 2167.67 3.50238 2.63182 0
M  V30 22736 C 2169.17 2.181 3.85937 0
M  V30 22737 H 2166.39 0.455105 0.493073 0
M  V30 22738 H 2168.93 1.78733 0.993714 0
M  V30 22739 H 2167.09 1.71074 3.47581 0
M  V30 22740 H 2167.5 3.92442 3.47979 0
M  V30 22741 H 2168.97 2.79234 4.76164 0
M  V30 22742 H 2169.45 1.18154 4.23009 0
M  V30 22743 H 2170.06 2.60885 3.35886 0
M  V30 22744 N 2168.37 -1.02294 1.19891 0
M  V30 22745 C 2169.62 -1.76051 1.00667 0
M  V30 22746 C 2169.95 -1.88654 -0.460802 0
M  V30 22747 O 2169.23 -1.4077 -1.34216 0
M  V30 22748 C 2169.51 -3.18331 1.68338 0
M  V30 22749 C 2169.36 -3.13562 3.22489 0
M  V30 22750 C 2170.68 -4.16859 1.41125 0
M  V30 22751 H 2167.8 -0.639057 0.367117 0
M  V30 22752 H 2170.44 -1.19377 1.47815 0
M  V30 22753 H 2168.59 -3.6672 1.28252 0
M  V30 22754 H 2170.26 -2.73025 3.71827 0
M  V30 22755 H 2168.51 -2.51121 3.53724 0
M  V30 22756 H 2169.18 -4.1411 3.64989 0
M  V30 22757 H 2171.65 -3.77097 1.75889 0
M  V30 22758 H 2170.53 -5.14592 1.91015 0
M  V30 22759 H 2170.79 -4.40809 0.33758 0
M  V30 22760 N 2169.85 -1.00378 -1.21499 0
M  V30 22761 C 2171.26 -0.719279 -1.72288 0
M  V30 22762 C 2171.61 0.763155 -1.8075 0
M  V30 22763 O 2170.74 1.59617 -1.46121 0
M  V30 22764 C 2171.33 -1.299 -3.12908 0
M  V30 22765 C 2169.89 -1.06365 -3.61059 0
M  V30 22766 C 2169.04 -1.41257 -2.38625 0
M  V30 22767 H 2171.99 -1.17483 -1.06694 0
M  V30 22768 H 2172.01 -0.683038 -3.74319 0
M  V30 22769 H 2171.52 -2.37794 -3.06718 0
M  V30 22770 H 2169.62 -0.00182202 -3.726 0
M  V30 22771 H 2169.74 -1.73468 -4.46593 0
M  V30 22772 H 2168.1 -0.831332 -2.40751 0
M  V30 22773 H 2168.88 -2.50179 -2.35086 0
M  V30 22774 N 2171.33 1.37038 -0.778354 0
M  V30 22775 C 2172.74 1.82137 -0.41025 0
M  V30 22776 C 2173.09 1.64814 1.06446 0
M  V30 22777 O 2172.22 1.16292 1.82497 0
M  V30 22778 C 2172.81 3.30668 -0.737859 0
M  V30 22779 C 2171.37 3.74019 -0.422727 0
M  V30 22780 C 2170.52 2.59471 -0.978272 0
M  V30 22781 H 2173.47 1.25416 -0.972446 0
M  V30 22782 H 2173.49 3.80492 -0.0249048 0
M  V30 22783 H 2173 3.43244 -1.81123 0
M  V30 22784 H 2171.1 3.67009 0.643056 0
M  V30 22785 H 2171.21 4.69876 -0.935598 0
M  V30 22786 H 2169.58 2.51506 -0.402125 0
M  V30 22787 H 2170.36 2.74837 -2.05717 0
M  V30 22788 N 2172.81 0.529439 1.48441 0
M  V30 22789 C 2174.22 0.0888387 1.86489 0
M  V30 22790 C 2174.57 -1.33364 1.43905 0
M  V30 22791 O 2173.69 -1.9987 0.829524 0
M  V30 22792 C 2174.29 0.154445 3.38448 0
M  V30 22793 C 2172.85 -0.230958 3.75691 0
M  V30 22794 C 2172 0.514449 2.72486 0
M  V30 22795 H 2174.95 0.740717 1.40353 0
M  V30 22796 H 2174.97 -0.63398 3.75181 0
M  V30 22797 H 2174.48 1.18985 3.69411 0
M  V30 22798 H 2172.58 -1.26853 3.50341 0
M  V30 22799 H 2172.69 0.108275 4.78978 0
M  V30 22800 H 2171.06 -0.039218 2.5467 0
M  V30 22801 H 2171.84 1.55048 3.06293 0
M  V30 22802 N 2174.29 -1.55364 0.264547 0
M  V30 22803 C 2175.2 -2.25763 -0.637821 0
M  V30 22804 C 2176.21 -1.27983 -1.17883 0
M  V30 22805 O 2177.39 -1.60897 -1.21136 0
M  V30 22806 C 2174.45 -2.95689 -1.81021 0
M  V30 22807 C 2173.51 -4.08923 -1.30693 0
M  V30 22808 C 2172.75 -4.75505 -2.42344 0
M  V30 22809 O 2172.97 -4.41244 -3.61469 0
M  V30 22810 O 2171.9 -5.63667 -2.111 0
M  V30 22811 H 2175.73 -3.03624 -0.0678471 0
M  V30 22812 H 2173.31 -1.49365 0.0323545 0
M  V30 22813 H 2175.2 -3.39671 -2.49402 0
M  V30 22814 H 2173.87 -2.20754 -2.36747 0
M  V30 22815 H 2172.78 -3.6942 -0.589885 0
M  V30 22816 H 2174.11 -4.85728 -0.795542 0
M  V30 22817 N 2175.76 0.00833021 -1.57598 0
M  V30 22818 C 2177 0.699511 -1.92058 0
M  V30 22819 C 2177.37 1.71397 -0.865278 0
M  V30 22820 O 2178.57 2.45492 -1.09486 0
M  V30 22821 C 2176.84 1.33325 -3.31601 0
M  V30 22822 S 2178.4 2.05071 -3.87932 0
M  V30 22823 H 2175.22 0.231259 -0.672339 0
M  V30 22824 H 2177.82 -0.0463571 -1.95445 0
M  V30 22825 H 2176.52 0.581972 -4.06253 0
M  V30 22826 H 2176.05 2.11723 -3.31567 0
M  V30 22827 H 2178.07 3.32482 -3.68334 0
M  V30 22828 N 2177.24 1.55075 0.280956 0
M  V30 22829 C 2178.49 1.74513 1.01135 0
M  V30 22830 C 2178.8 0.549131 1.87734 0
M  V30 22831 O 2180.01 0.625743 2.64191 0
M  V30 22832 C 2178.47 3.08832 1.848 0
M  V30 22833 C 2178.07 4.35974 1.03106 0
M  V30 22834 C 2179.82 3.37621 2.57317 0
M  V30 22835 C 2177.72 5.61335 1.86163 0
M  V30 22836 H 2176.65 0.650469 0.381321 0
M  V30 22837 H 2179.31 1.81542 0.267376 0
M  V30 22838 H 2177.69 2.9582 2.63262 0
M  V30 22839 H 2178.86 4.59879 0.291167 0
M  V30 22840 H 2177.18 4.14268 0.4208 0
M  V30 22841 H 2179.77 4.28488 3.19847 0
M  V30 22842 H 2180.12 2.57395 3.27191 0
M  V30 22843 H 2180.65 3.51695 1.8589 0
M  V30 22844 H 2177.39 6.44287 1.20725 0
M  V30 22845 H 2176.91 5.41585 2.57771 0
M  V30 22846 H 2178.59 5.99339 2.43724 0
M  V30 22847 N 2178.72 -0.545102 1.47873 0
M  V30 22848 C 2179.94 -1.33162 1.59005 0
M  V30 22849 C 2180.37 -1.86498 0.245004 0
M  V30 22850 O 2179.73 -1.63614 -0.781037 0
M  V30 22851 C 2179.78 -2.46898 2.62819 0
M  V30 22852 O 2178.88 -3.49491 2.1893 0
M  V30 22853 H 2178.22 -0.395031 0.53371 0
M  V30 22854 H 2180.75 -0.657518 1.93747 0
M  V30 22855 H 2180.76 -2.93298 2.8362 0
M  V30 22856 H 2179.44 -2.07436 3.60476 0
M  V30 22857 H 2178.01 -3.09312 2.08279 0
M  V30 22858 N 2180.2 -1.36208 -0.792797 0
M  V30 22859 C 2181.47 -1.20801 -1.53839 0
M  V30 22860 C 2181.85 0.20722 -2.1008 0
M  V30 22861 O 2181.2 1.21244 -1.9368 0
M  V30 22862 C 2181.41 -2.28726 -2.63601 0
M  V30 22863 C 2182.76 -2.65225 -3.31573 0
M  V30 22864 O 2183.78 -2.27744 -2.73882 0
M  V30 22865 O 2182.64 -3.29724 -4.35826 0
M  V30 22866 H 2179.74 -0.470148 -0.68036 0
M  V30 22867 H 2182.28 -1.47929 -0.83157 0
M  V30 22868 H 2181.06 -3.2359 -2.20013 0
M  V30 22869 H 2180.68 -2.02945 -3.41905 0
M  V30 22870 N 2181.68 1.01656 -1.20431 0
M  V30 22871 C 2182.61 2.12074 -0.977076 0
M  V30 22872 C 2183.59 1.6984 0.0939563 0
M  V30 22873 O 2184.77 1.94096 -0.0635618 0
M  V30 22874 C 2181.9 3.43257 -0.528392 0
M  V30 22875 C 2180.86 3.99231 -1.54267 0
M  V30 22876 C 2180.18 5.26182 -0.950621 0
M  V30 22877 C 2181.48 4.32619 -2.92639 0
M  V30 22878 H 2183.18 2.31342 -1.90056 0
M  V30 22879 H 2180.72 1.11175 -0.915209 0
M  V30 22880 H 2182.67 4.19888 -0.35665 0
M  V30 22881 H 2181.4 3.23747 0.430716 0
M  V30 22882 H 2180.06 3.24708 -1.70177 0
M  V30 22883 H 2179.71 5.02997 0.0164182 0
M  V30 22884 H 2179.41 5.64597 -1.62802 0
M  V30 22885 H 2180.93 6.05469 -0.789947 0
M  V30 22886 H 2182.34 5.00138 -2.8024 0
M  V30 22887 H 2180.74 4.82148 -3.57286 0
M  V30 22888 H 2181.81 3.41386 -3.4436 0
M  V30 22889 N 2183.15 1.01021 1.20965 0
M  V30 22890 C 2184.08 0.5953 2.25784 0
M  V30 22891 C 2185.06 -0.386477 1.65651 0
M  V30 22892 O 2186.25 -0.273315 1.92267 0
M  V30 22893 C 2183.38 -0.0736489 3.47222 0
M  V30 22894 C 2182.33 0.828449 4.19906 0
M  V30 22895 C 2181.66 0.0256242 5.34694 0
M  V30 22896 C 2182.96 2.13351 4.76737 0
M  V30 22897 H 2184.65 1.4715 2.60744 0
M  V30 22898 H 2182.2 0.70899 1.25337 0
M  V30 22899 H 2184.15 -0.375423 4.19724 0
M  V30 22900 H 2182.88 -0.984519 3.11408 0
M  V30 22901 H 2181.54 1.11413 3.4926 0
M  V30 22902 H 2181.18 -0.886697 4.95123 0
M  V30 22903 H 2180.88 0.626319 5.84253 0
M  V30 22904 H 2182.41 -0.269844 6.10003 0
M  V30 22905 H 2183.82 1.89453 5.41092 0
M  V30 22906 H 2182.22 2.68451 5.36707 0
M  V30 22907 H 2183.29 2.80081 3.95832 0
M  V30 22908 N 2184.63 -1.36623 0.78561 0
M  V30 22909 C 2185.56 -2.28776 0.139379 0
M  V30 22910 C 2186.58 -1.49297 -0.649162 0
M  V30 22911 O 2187.77 -1.71786 -0.484971 0
M  V30 22912 C 2184.87 -3.28685 -0.825808 0
M  V30 22913 C 2184.04 -4.37311 -0.0881363 0
M  V30 22914 C 2183.1 -5.17206 -0.96871 0
M  V30 22915 O 2182.12 -5.67593 -0.427359 0
M  V30 22916 N 2183.33 -5.33275 -2.29342 0
M  V30 22917 H 2186.09 -2.84875 0.930938 0
M  V30 22918 H 2183.65 -1.48748 0.639179 0
M  V30 22919 H 2185.64 -3.7902 -1.41865 0
M  V30 22920 H 2184.21 -2.73254 -1.51826 0
M  V30 22921 H 2183.43 -3.8819 0.685747 0
M  V30 22922 H 2184.72 -5.07055 0.421052 0
M  V30 22923 H 2184.12 -4.93946 -2.75743 0
M  V30 22924 H 2182.68 -5.86868 -2.83599 0
M  V30 22925 N 2186.11 -0.537304 -1.48158 0
M  V30 22926 C 2187.07 0.210784 -2.28229 0
M  V30 22927 C 2188.07 0.861078 -1.35802 0
M  V30 22928 O 2189.26 0.72 -1.58624 0
M  V30 22929 C 2186.39 1.30581 -3.14899 0
M  V30 22930 H 2187.59 -0.492311 -2.95832 0
M  V30 22931 H 2185.14 -0.293505 -1.53519 0
M  V30 22932 H 2185.88 2.04194 -2.51943 0
M  V30 22933 H 2185.66 0.844559 -3.82896 0
M  V30 22934 H 2187.15 1.8318 -3.7528 0
M  V30 22935 N 2187.59 1.55221 -0.272782 0
M  V30 22936 C 2188.83 1.99841 0.345178 0
M  V30 22937 C 2189.17 1.16093 1.55679 0
M  V30 22938 O 2188.44 0.230441 1.9313 0
M  V30 22939 C 2188.73 3.5263 0.729656 0
M  V30 22940 C 2188.58 4.47133 -0.489138 0
M  V30 22941 C 2189.9 4.11259 1.56698 0
M  V30 22942 H 2187.02 0.726495 0.123989 0
M  V30 22943 H 2189.66 1.86176 -0.379262 0
M  V30 22944 H 2187.81 3.64405 1.34689 0
M  V30 22945 H 2189.48 4.47304 -1.12769 0
M  V30 22946 H 2187.72 4.18888 -1.12762 0
M  V30 22947 H 2188.39 5.51718 -0.176396 0
M  V30 22948 H 2190.87 4.02745 1.04572 0
M  V30 22949 H 2189.75 5.1838 1.80481 0
M  V30 22950 H 2190.01 3.61341 2.54726 0
M  V30 22951 N 2189.07 2.77022e-05 1.576 0
M  V30 22952 C 2190.34 -0.721854 1.81793 0
M  V30 22953 C 2190.72 -1.91987 0.877738 0
M  V30 22954 O 2190.07 -2.28382 -0.0735325 0
M  V30 22955 C 2190.28 -1.12755 3.30284 0
M  V30 22956 C 2191.63 -1.53139 3.96022 0
M  V30 22957 O 2192.65 -1.22134 3.34607 0
M  V30 22958 O 2191.51 -2.10793 5.04211 0
M  V30 22959 H 2188.61 -0.35149 0.748588 0
M  V30 22960 H 2191.15 0.0254839 1.69681 0
M  V30 22961 H 2189.92 -0.273618 3.90342 0
M  V30 22962 H 2189.55 -1.93399 3.47394 0
M  V30 22963 N 2190.54 -1.55222 -0.272728 0
M  V30 22964 C 2191.77 -1.80199 -1.02679 0
M  V30 22965 C 2192.19 -0.573583 -1.79141 0
M  V30 22966 O 2191.55 0.476818 -1.74918 0
M  V30 22967 C 2191.6 -3.02627 -1.96084 0
M  V30 22968 O 2190.7 -2.77732 -3.04858 0
M  V30 22969 H 2190.05 -0.595589 -0.293547 0
M  V30 22970 H 2192.58 -2.02366 -0.301554 0
M  V30 22971 H 2192.59 -3.31367 -2.38033 0
M  V30 22972 H 2191.26 -3.91684 -1.39844 0
M  V30 22973 H 2189.84 -2.60089 -2.67223 0
M  V30 22974 N 2192.02 0.537252 -1.4816 0
M  V30 22975 C 2192.95 1.65828 -1.58221 0
M  V30 22976 C 2193.97 1.55959 -0.466975 0
M  V30 22977 O 2195.16 1.62552 -0.737499 0
M  V30 22978 C 2192.26 3.04432 -1.48911 0
M  V30 22979 C 2191.43 3.39855 -2.75349 0
M  V30 22980 C 2190.49 4.57708 -2.59596 0
M  V30 22981 O 2189.51 4.61291 -3.33465 0
M  V30 22982 N 2190.72 5.55436 -1.68734 0
M  V30 22983 H 2193.48 1.57637 -2.54893 0
M  V30 22984 H 2191.04 0.72436 -1.44792 0
M  V30 22985 H 2193.03 3.81136 -1.36078 0
M  V30 22986 H 2191.6 3.0674 -0.602422 0
M  V30 22987 H 2190.82 2.52401 -3.028 0
M  V30 22988 H 2192.11 3.60305 -3.59246 0
M  V30 22989 H 2191.51 5.55313 -1.07908 0
M  V30 22990 H 2190.07 6.31387 -1.61843 0
M  V30 22991 N 2193.5 1.36626 0.785562 0
M  V30 22992 C 2194.41 1.33428 1.92961 0
M  V30 22993 C 2195.43 0.235882 1.72394 0
M  V30 22994 O 2196.6 0.468912 1.95865 0
M  V30 22995 C 2193.67 1.12668 3.27882 0
M  V30 22996 C 2192.73 2.32019 3.612 0
M  V30 22997 C 2191.96 2.1224 4.89684 0
M  V30 22998 O 2192.18 1.09955 5.59702 0
M  V30 22999 O 2191.12 3.00107 5.21746 0
M  V30 23000 H 2194.94 2.29757 1.98609 0
M  V30 23001 H 2192.53 1.17213 0.926363 0
M  V30 23002 H 2194.41 1.03024 4.08612 0
M  V30 23003 H 2193.09 0.194048 3.23118 0
M  V30 23004 H 2191.99 2.47233 2.80761 0
M  V30 23005 H 2193.33 3.23802 3.70693 0
M  V30 23006 N 2194.98 -1.01016 1.20969 0
M  V30 23007 C 2196.22 -1.74973 1.02529 0
M  V30 23008 C 2196.56 -1.89132 -0.440767 0
M  V30 23009 O 2195.83 -1.42186 -1.32715 0
M  V30 23010 C 2196.12 -3.16527 1.71705 0
M  V30 23011 C 2195.97 -3.10124 3.25797 0
M  V30 23012 C 2197.29 -4.15339 1.45539 0
M  V30 23013 H 2194.41 -0.635128 0.373874 0
M  V30 23014 H 2197.05 -1.17802 1.49073 0
M  V30 23015 H 2195.2 -3.65339 1.32135 0
M  V30 23016 H 2196.87 -2.69066 3.74702 0
M  V30 23017 H 2195.11 -2.47356 3.56367 0
M  V30 23018 H 2195.78 -4.10216 3.6936 0
M  V30 23019 H 2198.26 -3.7521 1.79879 0
M  V30 23020 H 2197.14 -5.12537 1.96462 0
M  V30 23021 H 2197.4 -4.40426 0.384315 0
M  V30 23022 N 2196.46 -1.01661 -1.20428 0
M  V30 23023 C 2197.87 -0.731467 -1.41851 0
M  V30 23024 C 2198.07 0.688865 -1.89359 0
M  V30 23025 O 2197.13 1.45662 -2.06249 0
M  V30 23026 C 2198.44 -1.75718 -2.44016 0
M  V30 23027 C 2199.99 -1.77532 -2.57782 0
M  V30 23028 C 2200.46 -2.7903 -3.63189 0
M  V30 23029 N 2201.96 -2.7777 -3.70673 0
M  V30 23030 C 2202.69 -3.52962 -4.51891 0
M  V30 23031 N 2202.19 -4.3783 -5.36914 0
M  V30 23032 N 2203.98 -3.41559 -4.46424 0
M  V30 23033 H 2196.13 -1.93355 -0.879059 0
M  V30 23034 H 2198.39 -0.835244 -0.448411 0
M  V30 23035 H 2198.1 -2.77473 -2.16105 0
M  V30 23036 H 2197.97 -1.56933 -3.43004 0
M  V30 23037 H 2200.36 -0.764619 -2.85022 0
M  V30 23038 H 2200.44 -2.0039 -1.58989 0
M  V30 23039 H 2200.09 -3.80264 -3.36693 0
M  V30 23040 H 2200.02 -2.53433 -4.61605 0
M  V30 23041 H 2202.51 -2.16206 -3.09941 0
M  V30 23042 H 2202.82 -4.91973 -5.95972 0
M  V30 23043 H 2201.16 -4.41908 -5.36416 0
M  V30 23044 H 2204.36 -2.74679 -3.79037 0
M  V30 23045 H 2204.53 -4.00413 -5.09484 0
M  V30 23046 N 2197.93 1.36205 -0.792844 0
M  V30 23047 C 2199.21 1.93428 -0.290661 0
M  V30 23048 C 2199.59 1.72439 1.2177 0
M  V30 23049 O 2198.94 1.08534 2.01078 0
M  V30 23050 C 2199.15 3.42171 -0.687033 0
M  V30 23051 C 2200.5 4.19301 -0.668717 0
M  V30 23052 O 2201.52 3.50625 -0.62772 0
M  V30 23053 O 2200.38 5.41807 -0.714692 0
M  V30 23054 H 2197.47 0.823789 -0.0728072 0
M  V30 23055 H 2200.02 1.45365 -0.875619 0
M  V30 23056 H 2198.79 3.51119 -1.72718 0
M  V30 23057 H 2198.42 3.97527 -0.0761432 0
M  V30 23058 N 2199.41 0.545154 1.47871 0
M  V30 23059 C 2200.64 0.0210898 2.06589 0
M  V30 23060 C 2201.05 -1.27266 1.4 0
M  V30 23061 O 2200.39 -1.77142 0.486452 0
M  V30 23062 C 2200.46 -0.25787 3.58574 0
M  V30 23063 C 2200.12 0.944652 4.4713 0
M  V30 23064 C 2201.12 1.84707 4.85983 0
M  V30 23065 C 2198.8 1.15593 4.88819 0
M  V30 23066 C 2200.8 2.94456 5.65309 0
M  V30 23067 C 2198.48 2.25652 5.67912 0
M  V30 23068 C 2199.48 3.14915 6.06067 0
M  V30 23069 O 2199.17 4.23069 6.8357 0
M  V30 23070 H 2198.9 0.0373018 0.67497 0
M  V30 23071 H 2201.45 0.754632 1.91035 0
M  V30 23072 H 2199.68 -1.04557 3.72296 0
M  V30 23073 H 2201.37 -0.72585 3.99357 0
M  V30 23074 H 2202.14 1.69585 4.54385 0
M  V30 23075 H 2198.02 0.47036 4.58594 0
M  V30 23076 H 2201.56 3.64156 5.9501 0
M  V30 23077 H 2197.46 2.40752 5.98923 0
M  V30 23078 H 2198.23 4.20966 7.01947 0
M  V30 23079 N 2200.89 -1.55074 0.28101 0
M  V30 23080 C 2202.13 -2.01633 -0.335198 0
M  V30 23081 C 2202.49 -1.16511 -1.52608 0
M  V30 23082 O 2203.7 -1.52676 -2.21232 0
M  V30 23083 C 2201.97 -3.50436 -0.70211 0
M  V30 23084 S 2203.53 -4.18976 -1.30402 0
M  V30 23085 H 2200.34 -0.703359 -0.103955 0
M  V30 23086 H 2202.95 -1.91275 0.40422 0
M  V30 23087 H 2201.65 -4.10034 0.173402 0
M  V30 23088 H 2201.18 -3.64789 -1.47284 0
M  V30 23089 H 2203.2 -4.23091 -2.59245 0
M  V30 23090 N 2202.37 -0.00838561 -1.57598 0
M  V30 23091 C 2203.28 0.99645 -2.12387 0
M  V30 23092 C 2204.3 1.37125 -1.0711 0
M  V30 23093 O 2205.47 1.45688 -1.39058 0
M  V30 23094 C 2202.54 2.26694 -2.62318 0
M  V30 23095 C 2201.6 1.95449 -3.82228 0
M  V30 23096 C 2200.83 3.16441 -4.29768 0
M  V30 23097 O 2201.05 4.2841 -3.76592 0
M  V30 23098 O 2199.99 2.99949 -5.21837 0
M  V30 23099 H 2203.81 0.560673 -2.9848 0
M  V30 23100 H 2201.4 0.210961 -1.47903 0
M  V30 23101 H 2203.28 3.01317 -2.94594 0
M  V30 23102 H 2201.96 2.69494 -1.79318 0
M  V30 23103 H 2200.86 1.18275 -3.54911 0
M  V30 23104 H 2202.2 1.57481 -4.66327 0
M  V30 23105 N 2203.85 1.55365 0.264492 0
M  V30 23106 C 2204.79 1.88827 1.32714 0
M  V30 23107 C 2205.76 0.740631 1.48674 0
M  V30 23108 O 2206.95 0.992686 1.62943 0
M  V30 23109 C 2204.09 2.17311 2.68086 0
M  V30 23110 C 2203.2 3.44789 2.60278 0
M  V30 23111 C 2202.34 3.6293 3.87885 0
M  V30 23112 C 2201.38 4.84071 3.74623 0
M  V30 23113 N 2200.51 4.98825 4.94083 0
M  V30 23114 H 2205.35 2.79458 1.03477 0
M  V30 23115 H 2202.89 1.38351 0.499733 0
M  V30 23116 H 2204.85 2.31827 3.4686 0
M  V30 23117 H 2203.48 1.29906 2.95507 0
M  V30 23118 H 2202.53 3.387 1.73167 0
M  V30 23119 H 2203.84 4.33703 2.46381 0
M  V30 23120 H 2203 3.7731 4.75102 0
M  V30 23121 H 2201.74 2.72217 4.04659 0
M  V30 23122 H 2200.74 4.69686 2.85789 0
M  V30 23123 H 2201.97 5.76227 3.5936 0
M  V30 23124 H 2199.91 4.11045 5.11252 0
M  V30 23125 H 2199.83 5.81798 4.8275 0
M  V30 23126 H 2201.1 5.17598 5.82848 0
M  V30 23127 N 2205.33 -0.529387 1.48443 0
M  V30 23128 C 2206.27 -1.63391 1.63009 0
M  V30 23129 C 2207.24 -1.59248 0.472148 0
M  V30 23130 O 2208.43 -1.77664 0.695704 0
M  V30 23131 C 2205.57 -3.0165 1.67635 0
M  V30 23132 C 2204.68 -3.16022 2.94541 0
M  V30 23133 C 2203.82 -4.44844 2.90323 0
M  V30 23134 C 2202.85 -4.52747 4.11931 0
M  V30 23135 N 2201.99 -5.72958 4.05788 0
M  V30 23136 H 2206.83 -1.5028 2.57332 0
M  V30 23137 H 2204.37 -0.731634 1.27615 0
M  V30 23138 H 2206.33 -3.81748 1.68299 0
M  V30 23139 H 2204.96 -3.1353 0.768025 0
M  V30 23140 H 2204.01 -2.29172 3.03619 0
M  V30 23141 H 2205.32 -3.17723 3.84518 0
M  V30 23142 H 2204.47 -5.33233 2.89391 0
M  V30 23143 H 2203.21 -4.45665 1.98076 0
M  V30 23144 H 2202.22 -3.62764 4.13137 0
M  V30 23145 H 2203.44 -4.53663 5.05338 0
M  V30 23146 H 2201.39 -5.74675 3.16361 0
M  V30 23147 H 2201.31 -5.76155 4.8947 0
M  V30 23148 H 2202.57 -6.63633 4.08915 0
M  V30 23149 N 2206.8 -1.37041 -0.778305 0
M  V30 23150 C 2208.05 -1.31626 -1.53359 0
M  V30 23151 C 2208.37 0.100797 -1.94739 0
M  V30 23152 O 2207.64 1.04344 -1.65799 0
M  V30 23153 H 2206.22 -0.484244 -0.568785 0
M  V30 23154 H 2208.88 -1.71459 -0.926712 0
M  V30 23155 H 2207.98 -1.951 -2.43603 0
M  V30 23156 N 2208.28 1.00373 -1.21503 0
M  V30 23157 C 2209.53 1.74527 -1.04461 0
M  V30 23158 C 2209.88 1.87819 0.417353 0
M  V30 23159 O 2209.18 1.40236 1.30554 0
M  V30 23160 C 2209.37 3.15624 -1.67679 0
M  V30 23161 C 2209.2 3.1609 -3.1987 0
M  V30 23162 C 2207.97 3.22598 -3.8892 0
M  V30 23163 C 2210.17 3.01105 -4.16942 0
M  V30 23164 N 2208.15 3.12703 -5.2829 0
M  V30 23165 C 2209.52 2.99121 -5.43071 0
M  V30 23166 C 2211.57 2.85416 -4.07973 0
M  V30 23167 C 2210.28 2.83057 -6.61265 0
M  V30 23168 C 2212.3 2.70709 -5.25805 0
M  V30 23169 C 2211.67 2.69403 -6.50847 0
M  V30 23170 H 2207.76 0.648775 -0.436595 0
M  V30 23171 H 2210.35 1.1929 -1.53877 0
M  V30 23172 H 2208.52 3.69127 -1.20828 0
M  V30 23173 H 2210.25 3.78279 -1.43831 0
M  V30 23174 H 2207.01 3.29844 -3.39853 0
M  V30 23175 H 2207.43 3.11095 -6.0129 0
M  V30 23176 H 2212.07 2.85231 -3.12095 0
M  V30 23177 H 2209.79 2.81989 -7.57303 0
M  V30 23178 H 2213.38 2.59567 -5.20688 0
M  V30 23179 H 2212.26 2.58157 -7.40489 0
M  V30 23180 N 2209.76 1.02298 1.19887 0
M  V30 23181 C 2211.01 0.71129 1.88742 0
M  V30 23182 C 2211.32 -0.762785 1.80114 0
M  V30 23183 O 2212.53 -1.18729 2.44163 0
M  V30 23184 C 2210.98 1.22191 3.38522 0
M  V30 23185 C 2210.59 2.72334 3.55722 0
M  V30 23186 C 2212.34 0.985936 4.12892 0
M  V30 23187 C 2210.24 3.16844 4.99363 0
M  V30 23188 H 2209.17 0.262365 0.706881 0
M  V30 23189 H 2211.82 1.2365 1.35583 0
M  V30 23190 H 2210.21 0.62464 3.91043 0
M  V30 23191 H 2211.38 3.37665 3.13558 0
M  V30 23192 H 2209.69 2.94145 2.94733 0
M  V30 23193 H 2212.29 1.29383 5.1881 0
M  V30 23194 H 2212.63 -0.0774323 4.16228 0
M  V30 23195 H 2213.17 1.5469 3.66491 0
M  V30 23196 H 2209.91 4.22485 5.01186 0
M  V30 23197 H 2209.43 2.56237 5.42312 0
M  V30 23198 H 2211.11 3.09847 5.67982 0
M  V30 23199 N 2211.24 -1.35782 0.800057 0
M  V30 23200 C 2212.48 -1.99247 0.377936 0
M  V30 23201 C 2212.82 -1.63335 -1.05049 0
M  V30 23202 O 2212.09 -0.893415 -1.72767 0
M  V30 23203 C 2212.37 -3.55813 0.553984 0
M  V30 23204 C 2212.23 -4.01545 2.02687 0
M  V30 23205 C 2213.55 -4.40093 -0.0244028 0
M  V30 23206 H 2210.67 -0.723813 0.138795 0
M  V30 23207 H 2213.31 -1.61033 1.00838 0
M  V30 23208 H 2211.46 -3.88496 0.0173081 0
M  V30 23209 H 2213.13 -3.79301 2.62543 0
M  V30 23210 H 2211.37 -3.52693 2.52567 0
M  V30 23211 H 2212.04 -5.10454 2.10096 0
M  V30 23212 H 2214.52 -4.13832 0.433848 0
M  V30 23213 H 2213.4 -5.48749 0.128733 0
M  V30 23214 H 2213.66 -4.27743 -1.11751 0
M  V30 23215 N 2212.72 -0.552988 -1.4758 0
M  V30 23216 C 2213.66 0.210189 -2.31648 0
M  V30 23217 C 2214.66 0.913407 -1.42665 0
M  V30 23218 O 2215.86 0.835173 -1.59452 0
M  V30 23219 H 2212.24 0.0866545 -0.746991 0
M  V30 23220 H 2214.21 -0.518103 -2.93868 0
M  V30 23221 C 2212.96 1.2297 -3.25229 0
M  V30 23222 H 2212.28 0.698008 -3.9366 0
M  V30 23223 H 2213.72 1.73467 -3.86892 0
M  V30 23224 C 2212.18 2.27538 -2.48452 0
M  V30 23225 O 2212.71 3.34389 -2.22591 0
M  V30 23226 N 2210.92 2.01354 -2.09535 0
M  V30 23227 H 2210.46 1.14474 -2.30767 0
M  V30 23228 H 2210.42 2.71535 -1.5848 0
M  V30 23229 N 2214.19 1.54923 -0.28923 0
M  V30 23230 C 2215.44 2.00196 0.323963 0
M  V30 23231 C 2215.77 1.17738 1.54439 0
M  V30 23232 O 2215.05 0.250912 1.92875 0
M  V30 23233 C 2215.33 3.53384 0.692214 0
M  V30 23234 C 2215.18 4.46589 -0.536535 0
M  V30 23235 C 2216.5 4.12898 1.52327 0
M  V30 23236 H 2213.62 0.72777 0.116277 0
M  V30 23237 H 2216.26 1.85764 -0.398987 0
M  V30 23238 H 2214.41 3.65813 1.30816 0
M  V30 23239 H 2216.09 4.46083 -1.17507 0
M  V30 23240 H 2214.33 4.17668 -1.17199 0
M  V30 23241 H 2215 5.515 -0.234903 0
M  V30 23242 H 2217.48 4.03832 1.00295 0
M  V30 23243 H 2216.35 5.20265 1.74973 0
M  V30 23244 H 2216.61 3.64022 2.50879 0
M  V30 23245 N 2215.67 0.0167433 1.57591 0
M  V30 23246 C 2216.9 -0.675094 1.95576 0
M  V30 23247 C 2217.31 -1.66369 0.892571 0
M  V30 23248 O 2216.67 -1.82058 -0.12688 0
M  V30 23249 C 2216.72 -1.39234 3.33611 0
M  V30 23250 O 2216.44 -0.443367 4.35851 0
M  V30 23251 C 2217.94 -2.17714 3.86155 0
M  V30 23252 H 2215.16 -0.186966 0.644426 0
M  V30 23253 H 2217.71 0.0728359 2.0437 0
M  V30 23254 H 2215.86 -2.09176 3.26074 0
M  V30 23255 H 2216.28 -0.951268 5.15801 0
M  V30 23256 H 2217.75 -2.63371 4.85118 0
M  V30 23257 H 2218.23 -3.01099 3.19744 0
M  V30 23258 H 2218.83 -1.52754 3.96921 0
M  V30 23259 N 2217.15 -1.55503 -0.256249 0
M  V30 23260 C 2218.38 -1.81278 -1.00762 0
M  V30 23261 C 2218.8 -0.592551 -1.78523 0
M  V30 23262 O 2218.16 0.458239 -1.75413 0
M  V30 23263 C 2218.21 -3.0469 -1.92864 0
M  V30 23264 O 2217.31 -2.8095 -3.01896 0
M  V30 23265 H 2216.65 -0.598669 -0.287213 0
M  V30 23266 H 2219.18 -2.02674 -0.280074 0
M  V30 23267 H 2219.19 -3.33873 -2.34505 0
M  V30 23268 H 2217.87 -3.93145 -1.35682 0
M  V30 23269 H 2216.44 -2.62909 -2.64449 0
M  V30 23270 N 2218.63 0.521507 -1.48721 0
M  V30 23271 C 2219.56 1.6414 -1.5997 0
M  V30 23272 C 2220.57 1.55455 -0.483491 0
M  V30 23273 O 2221.76 1.61761 -0.754698 0
M  V30 23274 C 2218.86 3.02835 -1.52132 0
M  V30 23275 C 2218.04 3.36916 -2.78938 0
M  V30 23276 C 2217.09 4.54929 -2.64436 0
M  V30 23277 O 2216.12 4.57729 -3.38339 0
M  V30 23278 N 2217.32 5.53615 -1.74615 0
M  V30 23279 H 2220.09 1.54925 -2.56551 0
M  V30 23280 H 2217.65 0.708963 -1.45552 0
M  V30 23281 H 2219.64 3.79671 -1.40113 0
M  V30 23282 H 2218.21 3.06084 -0.634922 0
M  V30 23283 H 2217.43 2.49175 -3.0546 0
M  V30 23284 H 2218.72 3.56474 -3.63047 0
M  V30 23285 H 2218.12 5.54137 -1.13791 0
M  V30 23286 H 2216.67 6.29635 -1.68531 0
M  V30 23287 N 2220.11 1.37452 0.771027 0
M  V30 23288 C 2221.36 1.32023 1.52489 0
M  V30 23289 C 2221.67 -0.0927004 1.9538 0
M  V30 23290 O 2222.87 -0.269455 2.7016 0
M  V30 23291 C 2221.33 2.31741 2.75362 0
M  V30 23292 C 2220.94 3.78566 2.39566 0
M  V30 23293 C 2222.68 2.35324 3.53303 0
M  V30 23294 C 2220.59 4.70013 3.58945 0
M  V30 23295 H 2219.52 0.490676 0.572498 0
M  V30 23296 H 2222.17 1.62915 0.844445 0
M  V30 23297 H 2220.55 1.93867 3.45299 0
M  V30 23298 H 2221.73 4.2528 1.77408 0
M  V30 23299 H 2220.04 3.77935 1.74798 0
M  V30 23300 H 2222.64 3.0085 4.42033 0
M  V30 23301 H 2222.98 1.36705 3.93214 0
M  V30 23302 H 2223.51 2.71909 2.90363 0
M  V30 23303 H 2220.25 5.69763 3.24115 0
M  V30 23304 H 2219.77 4.28003 4.20207 0
M  V30 23305 H 2221.45 4.87182 4.25749 0
M  V30 23306 N 2221.58 -0.997276 1.22033 0
M  V30 23307 C 2222.52 -2.08844 0.944299 0
M  V30 23308 C 2223.53 -1.62625 -0.0754377 0
M  V30 23309 O 2224.72 -1.77799 0.158026 0
M  V30 23310 C 2221.82 -3.36557 0.397782 0
M  V30 23311 C 2220.99 -4.11826 1.4737 0
M  V30 23312 C 2220.05 -5.17826 0.935042 0
M  V30 23313 O 2219.08 -5.45652 1.62025 0
M  V30 23314 N 2220.28 -5.79979 -0.245793 0
M  V30 23315 H 2223.04 -2.33105 1.88367 0
M  V30 23316 H 2220.6 -1.1627 1.12663 0
M  V30 23317 H 2222.6 -4.04694 0.0228482 0
M  V30 23318 H 2221.17 -3.09393 -0.446592 0
M  V30 23319 H 2220.39 -3.38383 2.02214 0
M  V30 23320 H 2221.67 -4.58887 2.19772 0
M  V30 23321 H 2221.07 -5.59734 -0.819377 0
M  V30 23322 H 2219.63 -6.49371 -0.562158 0
M  V30 23323 N 2223.06 -1.02932 -1.19343 0
M  V30 23324 C 2223.99 -0.631145 -2.24808 0
M  V30 23325 C 2224.97 0.360075 -1.66245 0
M  V30 23326 O 2226.16 0.242692 -1.92678 0
M  V30 23327 C 2223.29 0.0183996 -3.47295 0
M  V30 23328 C 2222.24 -0.895147 -4.18534 0
M  V30 23329 C 2221.57 -0.110686 -5.34585 0
M  V30 23330 C 2222.87 -2.20909 -4.73283 0
M  V30 23331 H 2224.56 -1.5128 -2.5837 0
M  V30 23332 H 2222.11 -0.72884 -1.24193 0
M  V30 23333 H 2224.06 0.308601 -4.20269 0
M  V30 23334 H 2222.79 0.934852 -3.12935 0
M  V30 23335 H 2221.44 -1.16955 -3.47444 0
M  V30 23336 H 2221.09 0.807815 -4.96471 0
M  V30 23337 H 2220.79 -0.71919 -5.83182 0
M  V30 23338 H 2222.32 0.172764 -6.10356 0
M  V30 23339 H 2223.73 -1.98038 -5.38009 0
M  V30 23340 H 2222.13 -2.76955 -5.32368 0
M  V30 23341 H 2223.2 -2.86343 -3.91326 0
M  V30 23342 N 2224.54 1.35356 -0.807246 0
M  V30 23343 C 2225.45 2.3357 -0.219635 0
M  V30 23344 C 2226.47 1.61893 0.637705 0
M  V30 23345 O 2227.64 1.93764 0.549302 0
M  V30 23346 C 2224.71 3.41084 0.62152 0
M  V30 23347 C 2223.77 4.28534 -0.25639 0
M  V30 23348 C 2223 5.30913 0.544713 0
M  V30 23349 O 2223.22 5.41937 1.77935 0
M  V30 23350 O 2222.16 6.01865 -0.0647536 0
M  V30 23351 H 2225.98 2.85624 -1.03213 0
M  V30 23352 H 2223.57 1.38138 -0.569049 0
M  V30 23353 H 2225.45 4.06774 1.1006 0
M  V30 23354 H 2224.13 2.913 1.4116 0
M  V30 23355 H 2223.03 3.65822 -0.782623 0
M  V30 23356 H 2224.37 4.81717 -1.01043 0
M  V30 23357 N 2226.02 0.560807 1.47284 0
M  V30 23358 C 2227.43 0.220837 1.58065 0
M  V30 23359 C 2227.63 -1.27668 1.55894 0
M  V30 23360 O 2226.69 -2.05708 1.46426 0
M  V30 23361 C 2228 0.850676 2.88416 0
M  V30 23362 C 2229.55 0.822237 3.02007 0
M  V30 23363 C 2230.03 1.43121 4.35064 0
M  V30 23364 N 2231.52 1.39456 4.41708 0
M  V30 23365 C 2232.25 1.83534 5.43234 0
M  V30 23366 N 2231.75 2.35485 6.51551 0
M  V30 23367 N 2233.54 1.74583 5.34301 0
M  V30 23368 H 2225.69 1.53371 1.46939 0
M  V30 23369 H 2227.96 0.639795 0.699547 0
M  V30 23370 H 2227.66 1.90326 2.95752 0
M  V30 23371 H 2227.54 0.345839 3.75611 0
M  V30 23372 H 2229.92 -0.221663 2.94266 0
M  V30 23373 H 2230 1.36487 2.16345 0
M  V30 23374 H 2229.65 2.4742 4.43561 0
M  V30 23375 H 2229.58 0.86399 5.19464 0
M  V30 23376 H 2232.07 1.01459 3.64026 0
M  V30 23377 H 2232.38 2.67034 7.25198 0
M  V30 23378 H 2230.73 2.39498 6.5243 0
M  V30 23379 H 2233.92 1.33771 4.48579 0
M  V30 23380 H 2234.09 2.09253 6.13284 0
M  V30 23381 N 2227.5 -1.54768 0.297442 0
M  V30 23382 C 2228.44 -2.24834 -0.596011 0
M  V30 23383 C 2229.44 -1.2531 -1.1399 0
M  V30 23384 O 2230.64 -1.43172 -1.09095 0
M  V30 23385 H 2227.02 -0.721849 -0.210802 0
M  V30 23386 H 2228.99 -2.98395 0.0175191 0
M  V30 23387 C 2227.74 -2.99975 -1.75813 0
M  V30 23388 H 2227.06 -3.7636 -1.34883 0
M  V30 23389 H 2228.5 -3.52288 -2.35943 0
M  V30 23390 C 2226.96 -2.06737 -2.6601 0
M  V30 23391 O 2227.49 -1.63308 -3.67006 0
M  V30 23392 N 2225.7 -1.72767 -2.33666 0
M  V30 23393 H 2225.24 -2.0828 -1.51582 0
M  V30 23394 H 2225.2 -1.10657 -2.94283 0
M  V30 23395 N 2228.97 -0.0251005 -1.5758 0
M  V30 23396 C 2230.22 0.653733 -1.90812 0
M  V30 23397 C 2230.54 1.73521 -0.902761 0
M  V30 23398 O 2231.74 2.47041 -1.12618 0
M  V30 23399 C 2230.2 1.21403 -3.38806 0
M  V30 23400 C 2229.81 0.166047 -4.47692 0
M  V30 23401 C 2231.55 1.86961 -3.81111 0
M  V30 23402 C 2229.46 0.737752 -5.8678 0
M  V30 23403 H 2228.39 0.247944 -0.712067 0
M  V30 23404 H 2231.04 -0.0897459 -1.8328 0
M  V30 23405 H 2229.42 2.00899 -3.41256 0
M  V30 23406 H 2230.59 -0.606159 -4.56796 0
M  V30 23407 H 2228.91 -0.390539 -4.14565 0
M  V30 23408 H 2231.51 2.30683 -4.82379 0
M  V30 23409 H 2231.85 2.71066 -3.15958 0
M  V30 23410 H 2232.38 1.14161 -3.81067 0
M  V30 23411 H 2229.12 -0.0650729 -6.55468 0
M  V30 23412 H 2228.64 1.47854 -5.81291 0
M  V30 23413 H 2230.32 1.22873 -6.35225 0
M  V30 23414 N 2230.45 1.55637 0.247999 0
M  V30 23415 C 2231.4 1.91047 1.3268 0
M  V30 23416 C 2232.39 0.789427 1.49881 0
M  V30 23417 O 2233.6 0.974034 1.51369 0
M  V30 23418 H 2229.98 0.606742 0.444261 0
M  V30 23419 H 2231.95 2.81117 1.0008 0
M  V30 23420 C 2230.7 2.22069 2.67546 0
M  V30 23421 H 2230.02 3.0783 2.55109 0
M  V30 23422 H 2231.46 2.50749 3.41908 0
M  V30 23423 C 2229.92 1.03666 3.20554 0
M  V30 23424 O 2230.45 0.284086 4.00694 0
M  V30 23425 N 2228.65 0.827579 2.78567 0
M  V30 23426 H 2228.2 1.44127 2.13507 0
M  V30 23427 H 2228.16 0.0370356 3.14378 0
M  V30 23428 N 2231.93 -0.513613 1.48996 0
M  V30 23429 C 2233.35 -0.843658 1.35479 0
M  V30 23430 C 2233.55 -1.97918 0.378248 0
M  V30 23431 O 2232.6 -2.51749 -0.194645 0
M  V30 23432 C 2233.92 -1.19575 2.75903 0
M  V30 23433 C 2235.46 -1.30469 2.84512 0
M  V30 23434 C 2235.94 -1.69014 4.25674 0
M  V30 23435 N 2237.43 -1.76086 4.28425 0
M  V30 23436 C 2238.17 -2.07329 5.34605 0
M  V30 23437 N 2237.66 -2.36883 6.51044 0
M  V30 23438 N 2239.45 -2.08473 5.22011 0
M  V30 23439 H 2231.61 0.235365 2.11092 0
M  V30 23440 H 2233.87 0.0426835 0.947039 0
M  V30 23441 H 2233.57 -0.434852 3.49001 0
M  V30 23442 H 2233.45 -2.14214 3.10471 0
M  V30 23443 H 2235.84 -2.05633 2.11658 0
M  V30 23444 H 2235.92 -0.33911 2.53542 0
M  V30 23445 H 2235.56 -0.944047 4.99049 0
M  V30 23446 H 2235.49 -2.6665 4.54098 0
M  V30 23447 H 2237.98 -1.55458 3.44443 0
M  V30 23448 H 2238.29 -2.59874 7.27795 0
M  V30 23449 H 2236.64 -2.34366 6.54292 0
M  V30 23450 H 2239.83 -1.84853 4.30055 0
M  V30 23451 H 2240 -2.32489 6.04858 0
M  V30 23452 N 2233.41 -1.37859 -0.763727 0
M  V30 23453 C 2234.37 -1.34084 -1.85887 0
M  V30 23454 C 2235.37 -0.243305 -1.58949 0
M  V30 23455 O 2236.56 -0.499619 -1.66882 0
M  V30 23456 C 2233.69 -1.08495 -3.23174 0
M  V30 23457 H 2234.89 -2.31506 -1.90644 0
M  V30 23458 H 2232.44 -1.23004 -0.964345 0
M  V30 23459 H 2233.18 -0.116375 -3.24091 0
M  V30 23460 H 2232.96 -1.87946 -3.4412 0
M  V30 23461 H 2234.45 -1.08524 -4.03252 0
M  V30 23462 N 2234.89 0.990791 -1.22561 0
M  V30 23463 C 2235.82 2.07904 -0.94081 0
M  V30 23464 C 2236.8 1.62178 0.117054 0
M  V30 23465 O 2237.98 1.88494 -0.0149837 0
M  V30 23466 C 2235.11 3.36143 -0.41538 0
M  V30 23467 C 2234.16 4.00796 -1.45825 0
M  V30 23468 S 2234.99 4.41377 -3.03227 0
M  V30 23469 C 2236.14 5.72784 -2.52327 0
M  V30 23470 H 2236.38 2.31742 -1.86234 0
M  V30 23471 H 2233.91 1.12556 -1.0569 0
M  V30 23472 H 2235.87 4.10328 -0.118819 0
M  V30 23473 H 2234.53 3.10332 0.485066 0
M  V30 23474 H 2233.72 4.93142 -1.04053 0
M  V30 23475 H 2233.32 3.32946 -1.70362 0
M  V30 23476 H 2235.62 6.4922 -1.937 0
M  V30 23477 H 2236.56 6.19386 -3.43172 0
M  V30 23478 H 2236.97 5.30286 -1.93539 0
M  V30 23479 N 2236.37 1.03564 1.18795 0
M  V30 23480 C 2237.59 0.755903 1.92597 0
M  V30 23481 C 2238.01 -0.68624 1.75887 0
M  V30 23482 O 2237.37 -1.4673 1.08519 0
M  V30 23483 C 2237.42 1.10625 3.44158 0
M  V30 23484 O 2237.14 2.49177 3.60337 0
M  V30 23485 C 2238.64 0.850291 4.35069 0
M  V30 23486 H 2235.86 0.276059 0.611582 0
M  V30 23487 H 2238.4 1.38194 1.5074 0
M  V30 23488 H 2236.56 0.525262 3.83823 0
M  V30 23489 H 2236.97 2.62435 4.54124 0
M  V30 23490 H 2238.45 1.14533 5.39987 0
M  V30 23491 H 2238.92 -0.215098 4.38673 0
M  V30 23492 H 2239.53 1.41433 4.01094 0
M  V30 23493 N 2237.84 -1.34926 0.814413 0
M  V30 23494 C 2239.09 -1.97796 0.394906 0
M  V30 23495 C 2239.41 -1.65313 -1.04552 0
M  V30 23496 O 2240.61 -2.21607 -1.56852 0
M  V30 23497 C 2239.07 -3.53886 0.655165 0
M  V30 23498 C 2238.68 -3.95272 2.10865 0
M  V30 23499 C 2240.42 -4.23429 0.301403 0
M  V30 23500 C 2238.33 -5.4424 2.31425 0
M  V30 23501 H 2237.26 -0.740136 0.143926 0
M  V30 23502 H 2239.91 -1.53886 0.999571 0
M  V30 23503 H 2238.29 -3.95995 -0.0195557 0
M  V30 23504 H 2239.46 -3.64293 2.82183 0
M  V30 23505 H 2237.78 -3.38642 2.42303 0
M  V30 23506 H 2240.38 -5.32944 0.432962 0
M  V30 23507 H 2240.72 -4.09429 -0.753238 0
M  V30 23508 H 2241.25 -3.86768 0.930356 0
M  V30 23509 H 2237.99 -5.63216 3.35363 0
M  V30 23510 H 2237.51 -5.76761 1.6464 0
M  V30 23511 H 2239.19 -6.10807 2.13362 0
M  V30 23512 N 2239.32 -0.56861 -1.46985 0
M  V30 23513 C 2240.25 0.160712 -2.32946 0
M  V30 23514 C 2241.23 0.897605 -1.44489 0
M  V30 23515 O 2242.42 0.875836 -1.73328 0
M  V30 23516 C 2239.55 1.18397 -3.26496 0
M  V30 23517 C 2238.5 0.56282 -4.24283 0
M  V30 23518 C 2237.83 1.69154 -5.07239 0
M  V30 23519 C 2239.13 -0.490853 -5.19988 0
M  V30 23520 H 2240.82 -0.556968 -2.94174 0
M  V30 23521 H 2238.37 -0.269295 -1.4146 0
M  V30 23522 H 2240.32 1.70244 -3.8548 0
M  V30 23523 H 2239.04 1.93174 -2.63346 0
M  V30 23524 H 2237.7 0.0655519 -3.66541 0
M  V30 23525 H 2237.35 2.42863 -4.40485 0
M  V30 23526 H 2237.05 1.28164 -5.73452 0
M  V30 23527 H 2238.58 2.21304 -5.69084 0
M  V30 23528 H 2239.99 -0.0580055 -5.73271 0
M  V30 23529 H 2238.39 -0.820269 -5.94467 0
M  V30 23530 H 2239.46 -1.38248 -4.64775 0
M  V30 23531 N 2240.8 1.54608 -0.305646 0
M  V30 23532 C 2241.73 2.2115 0.602122 0
M  V30 23533 C 2242.74 1.20571 1.09392 0
M  V30 23534 O 2243.93 1.47138 1.01057 0
M  V30 23535 C 2241.03 2.84802 1.83687 0
M  V30 23536 C 2240.21 4.11356 1.48678 0
M  V30 23537 C 2239.27 4.58768 2.57717 0
M  V30 23538 O 2238.29 5.23862 2.22614 0
M  V30 23539 N 2239.49 4.31478 3.88339 0
M  V30 23540 H 2242.26 2.99682 0.0324439 0
M  V30 23541 H 2239.82 1.61393 -0.128049 0
M  V30 23542 H 2241.81 3.13452 2.55988 0
M  V30 23543 H 2240.38 2.10082 2.31483 0
M  V30 23544 H 2239.6 3.89665 0.5962 0
M  V30 23545 H 2240.89 4.9375 1.22833 0
M  V30 23546 H 2240.29 3.79339 4.19665 0
M  V30 23547 H 2238.84 4.64826 4.56924 0
M  V30 23548 N 2242.28 0.033457 1.57564 0
M  V30 23549 C 2243.24 -0.932011 2.09395 0
M  V30 23550 C 2244.24 -1.25132 1.00988 0
M  V30 23551 O 2245.43 -1.19094 1.27131 0
M  V30 23552 C 2242.56 -2.24725 2.56342 0
M  V30 23553 H 2243.76 -0.483033 2.95984 0
M  V30 23554 H 2241.31 -0.214653 1.54819 0
M  V30 23555 H 2242.04 -2.74242 1.73095 0
M  V30 23556 H 2241.83 -2.02859 3.35545 0
M  V30 23557 H 2243.32 -2.93918 2.96651 0
M  V30 23558 N 2243.76 -1.55766 -0.239741 0
M  V30 23559 C 2245 -1.78196 -0.968202 0
M  V30 23560 C 2245.33 -0.599971 -1.847 0
M  V30 23561 O 2244.61 0.401491 -1.90311 0
M  V30 23562 C 2244.89 -3.10567 -1.82264 0
M  V30 23563 C 2244.75 -4.39182 -0.971555 0
M  V30 23564 C 2246.06 -3.39226 -2.80382 0
M  V30 23565 H 2243.18 -0.648287 -0.350561 0
M  V30 23566 H 2245.83 -1.88501 -0.238226 0
M  V30 23567 H 2243.98 -3.01913 -2.44501 0
M  V30 23568 H 2245.65 -4.59835 -0.367327 0
M  V30 23569 H 2243.89 -4.3292 -0.2762 0
M  V30 23570 H 2244.56 -5.28201 -1.60337 0
M  V30 23571 H 2247.04 -3.47889 -2.28281 0
M  V30 23572 H 2245.91 -4.3305 -3.37282 0
M  V30 23573 H 2246.17 -2.60491 -3.57207 0
M  V30 23574 N 2245.23 0.505704 -1.49266 0
M  V30 23575 C 2246.46 1.28426 -1.62217 0
M  V30 23576 C 2246.88 1.86533 -0.29173 0
M  V30 23577 O 2246.23 1.67602 0.722204 0
M  V30 23578 C 2246.28 2.41788 -2.68739 0
M  V30 23579 O 2246.01 1.86071 -3.96622 0
M  V30 23580 C 2247.51 3.33235 -2.92352 0
M  V30 23581 H 2244.73 0.389687 -0.546246 0
M  V30 23582 H 2247.27 0.607575 -1.95266 0
M  V30 23583 H 2245.43 3.05296 -2.38481 0
M  V30 23584 H 2245.84 2.60457 -4.55261 0
M  V30 23585 H 2247.31 4.09068 -3.70631 0
M  V30 23586 H 2247.79 3.89945 -2.02088 0
M  V30 23587 H 2248.4 2.75498 -3.24008 0
M  V30 23588 N 2246.71 1.38262 0.756405 0
M  V30 23589 C 2247.94 1.37542 1.54563 0
M  V30 23590 C 2248.36 -0.0354999 1.88767 0
M  V30 23591 O 2247.71 -1.00137 1.52574 0
M  V30 23592 C 2247.76 2.22838 2.8465 0
M  V30 23593 O 2247.48 3.58434 2.51906 0
M  V30 23594 C 2248.99 2.30268 3.78803 0
M  V30 23595 H 2246.21 0.470561 0.478344 0
M  V30 23596 H 2248.75 1.81804 0.936349 0
M  V30 23597 H 2246.9 1.82046 3.41962 0
M  V30 23598 H 2247.32 4.03314 3.35318 0
M  V30 23599 H 2248.79 2.94241 4.6704 0
M  V30 23600 H 2249.27 1.31552 4.19035 0
M  V30 23601 H 2249.88 2.71439 3.27416 0
M  V30 23602 N 2248.19 -0.984277 1.23084 0
M  V30 23603 C 2249.44 -1.72504 1.0606 0
M  V30 23604 C 2249.77 -1.90278 -0.403072 0
M  V30 23605 O 2249.02 -1.44947 -1.31487 0
M  V30 23606 C 2249.32 -3.12917 1.72679 0
M  V30 23607 C 2248.99 -3.15033 3.22591 0
M  V30 23608 C 2247.65 -3.15317 3.63495 0
M  V30 23609 C 2250 -3.10649 4.18505 0
M  V30 23610 C 2247.33 -3.0893 4.98777 0
M  V30 23611 C 2249.68 -3.05804 5.53775 0
M  V30 23612 C 2248.34 -3.04409 5.94047 0
M  V30 23613 H 2247.61 -0.631235 0.388102 0
M  V30 23614 H 2250.26 -1.15213 1.52965 0
M  V30 23615 H 2248.57 -3.7357 1.18123 0
M  V30 23616 H 2250.26 -3.68993 1.56988 0
M  V30 23617 H 2246.85 -3.15566 2.90028 0
M  V30 23618 H 2251.04 -3.09572 3.87916 0
M  V30 23619 H 2246.29 -3.062 5.29199 0
M  V30 23620 H 2250.47 -3.01369 6.27813 0
M  V30 23621 H 2248.09 -2.99214 6.98838 0
M  V30 23622 N 2249.67 -1.04192 -1.18244 0
M  V30 23623 C 2250.63 -0.638491 -2.20127 0
M  V30 23624 C 2251.63 0.304777 -1.57885 0
M  V30 23625 O 2252.82 0.0900063 -1.73967 0
M  V30 23626 C 2249.95 0.0637152 -3.4084 0
M  V30 23627 H 2251.15 -1.54012 -2.57333 0
M  V30 23628 H 2248.7 -0.834621 -1.32151 0
M  V30 23629 H 2249.43 0.979081 -3.09167 0
M  V30 23630 H 2249.22 -0.614266 -3.87259 0
M  V30 23631 H 2250.71 0.332439 -4.16275 0
M  V30 23632 N 2251.15 1.34492 -0.821557 0
M  V30 23633 C 2252.11 2.27856 -0.247887 0
M  V30 23634 C 2253.11 1.50228 0.573426 0
M  V30 23635 O 2254.3 1.69784 0.38973 0
M  V30 23636 C 2251.43 3.34594 0.652639 0
M  V30 23637 H 2252.62 2.80105 -1.07151 0
M  V30 23638 H 2250.18 1.44601 -0.593316 0
M  V30 23639 H 2250.91 2.87557 1.49938 0
M  V30 23640 H 2250.7 3.92046 0.0652231 0
M  V30 23641 H 2252.19 4.0424 1.04786 0
M  V30 23642 N 2252.62 0.576397 1.46681 0
M  V30 23643 C 2253.87 0.0596577 2.02712 0
M  V30 23644 C 2254.2 -1.29445 1.44767 0
M  V30 23645 O 2253.48 -1.84674 0.610387 0
M  V30 23646 C 2253.76 -0.012887 3.60098 0
M  V30 23647 C 2253.61 1.36967 4.28439 0
M  V30 23648 C 2254.93 -0.716704 4.34225 0
M  V30 23649 H 2252.05 0.0231537 0.736636 0
M  V30 23650 H 2254.69 0.742381 1.74896 0
M  V30 23651 H 2252.84 -0.594311 3.83927 0
M  V30 23652 H 2254.52 1.99578 4.15892 0
M  V30 23653 H 2252.76 1.93913 3.88046 0
M  V30 23654 H 2253.43 1.27145 5.37158 0
M  V30 23655 H 2255.91 -0.222834 4.15503 0
M  V30 23656 H 2254.78 -0.736475 5.43937 0
M  V30 23657 H 2255.04 -1.77675 4.04826 0
M  V30 23658 N 2254.1 -1.54444 0.313841 0
M  V30 23659 C 2255.07 -2.22657 -0.543751 0
M  V30 23660 C 2256.07 -1.2168 -1.05122 0
M  V30 23661 O 2257.26 -1.46327 -0.945199 0
M  V30 23662 C 2254.39 -2.92301 -1.75422 0
M  V30 23663 H 2255.58 -2.99854 0.0524126 0
M  V30 23664 H 2253.13 -1.56166 0.0648109 0
M  V30 23665 H 2253.87 -2.19216 -2.38987 0
M  V30 23666 H 2253.65 -3.66337 -1.39785 0
M  V30 23667 H 2255.14 -3.44301 -2.36319 0
M  V30 23668 N 2255.58 -0.0418125 -1.57545 0
M  V30 23669 C 2256.83 0.632796 -1.91938 0
M  V30 23670 C 2257.15 1.71933 -0.920008 0
M  V30 23671 O 2256.42 1.95866 0.0365719 0
M  V30 23672 H 2255 0.236729 -0.708497 0
M  V30 23673 H 2257.66 -0.0926087 -1.9468 0
M  V30 23674 H 2256.76 1.07741 -2.92913 0
M  V30 23675 N 2257.06 1.55891 0.231477 0
M  V30 23676 C 2258.3 1.78707 0.958738 0
M  V30 23677 C 2258.64 0.609757 1.84379 0
M  V30 23678 O 2257.91 -0.391392 1.90521 0
M  V30 23679 C 2258.2 3.11529 1.80614 0
M  V30 23680 C 2258.05 4.39691 0.948251 0
M  V30 23681 C 2259.37 3.40708 2.78579 0
M  V30 23682 H 2256.49 0.650137 0.347118 0
M  V30 23683 H 2259.13 1.88624 0.228226 0
M  V30 23684 H 2257.28 3.03205 2.42897 0
M  V30 23685 H 2258.95 4.60024 0.342936 0
M  V30 23686 H 2257.19 4.3306 0.253237 0
M  V30 23687 H 2257.86 5.29044 1.57533 0
M  V30 23688 H 2260.34 3.49095 2.26433 0
M  V30 23689 H 2259.22 4.34832 3.34981 0
M  V30 23690 H 2259.48 2.62381 3.55821 0
M  V30 23691 N 2258.54 -0.497781 1.49532 0
M  V30 23692 C 2259.78 -1.25355 1.59417 0
M  V30 23693 C 2260.12 -1.9215 0.281455 0
M  V30 23694 O 2259.39 -1.80873 -0.715217 0
M  V30 23695 C 2259.67 -2.31805 2.7557 0
M  V30 23696 C 2259.53 -1.69491 4.16645 0
M  V30 23697 C 2260.85 -3.33341 2.87353 0
M  V30 23698 H 2257.96 -0.454398 0.580252 0
M  V30 23699 H 2260.61 -0.55123 1.81828 0
M  V30 23700 H 2258.76 -2.91707 2.56592 0
M  V30 23701 H 2260.43 -1.13391 4.47147 0
M  V30 23702 H 2258.67 -0.998904 4.22143 0
M  V30 23703 H 2259.34 -2.46717 4.93796 0
M  V30 23704 H 2261.82 -2.83433 3.04639 0
M  V30 23705 H 2260.69 -4.05181 3.70296 0
M  V30 23706 H 2260.96 -3.95861 1.96841 0
M  V30 23707 N 2260.01 -1.38661 -0.749062 0
M  V30 23708 C 2261.24 -1.3816 -1.53608 0
M  V30 23709 C 2261.65 0.0293263 -1.89177 0
M  V30 23710 O 2261 1.00749 -1.53608 0
M  V30 23711 C 2261.06 -2.17707 -2.86083 0
M  V30 23712 C 2260.72 -3.66477 -2.73027 0
M  V30 23713 C 2261.72 -4.5987 -2.42518 0
M  V30 23714 C 2259.4 -4.09889 -2.90338 0
M  V30 23715 C 2261.4 -5.94657 -2.29481 0
M  V30 23716 C 2259.08 -5.44755 -2.76921 0
M  V30 23717 C 2260.08 -6.36953 -2.46536 0
M  V30 23718 O 2259.77 -7.69337 -2.33185 0
M  V30 23719 H 2259.5 -0.474214 -0.481765 0
M  V30 23720 H 2262.06 -1.82914 -0.934433 0
M  V30 23721 H 2260.29 -1.67678 -3.48455 0
M  V30 23722 H 2261.98 -2.09557 -3.47621 0
M  V30 23723 H 2262.74 -4.27635 -2.28808 0
M  V30 23724 H 2258.62 -3.3847 -3.12984 0
M  V30 23725 H 2262.16 -6.66587 -2.05686 0
M  V30 23726 H 2258.06 -5.76586 -2.90205 0
M  V30 23727 H 2258.83 -7.79909 -2.48363 0
M  V30 23728 N 2261.49 0.977736 -1.23605 0
M  V30 23729 C 2262.74 1.72193 -1.07132 0
M  V30 23730 C 2263.07 1.90234 0.390467 0
M  V30 23731 O 2262.35 1.45655 1.28899 0
M  V30 23732 C 2262.63 3.11864 -1.80037 0
M  V30 23733 C 2262.48 3.01377 -3.33904 0
M  V30 23734 C 2263.8 4.11334 -1.56499 0
M  V30 23735 H 2260.92 0.624992 -0.390582 0
M  V30 23736 H 2263.56 1.13808 -1.52144 0
M  V30 23737 H 2261.71 3.61707 -1.41775 0
M  V30 23738 H 2263.39 2.59036 -3.81704 0
M  V30 23739 H 2261.63 2.3782 -3.628 0
M  V30 23740 H 2262.3 4.00278 -3.80107 0
M  V30 23741 H 2264.78 3.70309 -1.89764 0
M  V30 23742 H 2263.65 5.07148 -2.09982 0
M  V30 23743 H 2263.91 4.39253 -0.500951 0
M  V30 23744 N 2262.97 1.04818 1.1769 0
M  V30 23745 C 2263.9 0.590212 2.20435 0
M  V30 23746 C 2264.88 -0.379216 1.58116 0
M  V30 23747 O 2266.07 -0.291729 1.86229 0
M  V30 23748 C 2263.19 -0.136757 3.38424 0
M  V30 23749 C 2262.24 0.787097 4.19174 0
M  V30 23750 S 2263.07 2.27418 4.84811 0
M  V30 23751 C 2264.23 1.55827 6.06192 0
M  V30 23752 H 2264.46 1.46071 2.58941 0
M  V30 23753 H 2261.99 0.859806 1.28245 0
M  V30 23754 H 2263.95 -0.550004 4.06799 0
M  V30 23755 H 2262.61 -0.983246 2.98314 0
M  V30 23756 H 2261.81 0.224769 5.03499 0
M  V30 23757 H 2261.41 1.13954 3.56217 0
M  V30 23758 H 2263.7 0.855505 6.72077 0
M  V30 23759 H 2264.64 2.37885 6.66946 0
M  V30 23760 H 2265.05 1.04732 5.54699 0
M  V30 23761 N 2264.45 -1.34055 0.828678 0
M  V30 23762 C 2265.68 -2.02032 0.432028 0
M  V30 23763 C 2266.09 -1.62537 -0.968412 0
M  V30 23764 O 2265.43 -0.829436 -1.63909 0
M  V30 23765 C 2265.49 -3.56528 0.461287 0
M  V30 23766 C 2265.16 -4.19366 1.81606 0
M  V30 23767 C 2266.15 -4.39472 2.77778 0
M  V30 23768 C 2263.84 -4.56013 2.10612 0
M  V30 23769 C 2265.83 -4.95357 4.01124 0
M  V30 23770 C 2263.52 -5.11608 3.34216 0
M  V30 23771 C 2264.52 -5.31225 4.29289 0
M  V30 23772 O 2264.21 -5.8564 5.50709 0
M  V30 23773 H 2263.94 -0.654026 0.170955 0
M  V30 23774 H 2266.49 -1.72184 1.11991 0
M  V30 23775 H 2264.72 -3.85661 -0.28332 0
M  V30 23776 H 2266.41 -4.05813 0.0838863 0
M  V30 23777 H 2267.18 -4.11518 2.56666 0
M  V30 23778 H 2263.06 -4.40045 1.37409 0
M  V30 23779 H 2266.6 -5.10584 4.75342 0
M  V30 23780 H 2262.5 -5.38991 3.55189 0
M  V30 23781 H 2263.26 -6.04068 5.52308 0
M  V30 23782 N 2265.93 -0.584167 -1.46374 0
M  V30 23783 C 2266.87 0.148246 -2.30323 0
M  V30 23784 C 2267.84 0.882688 -1.40705 0
M  V30 23785 O 2269.03 0.873069 -1.69653 0
M  V30 23786 C 2266.17 1.15501 -3.25198 0
M  V30 23787 C 2265.28 0.423867 -4.29916 0
M  V30 23788 C 2264.42 1.41829 -5.11916 0
M  V30 23789 C 2263.46 0.673629 -6.08382 0
M  V30 23790 N 2262.59 1.61618 -6.83245 0
M  V30 23791 H 2267.43 -0.573695 -2.92426 0
M  V30 23792 H 2264.97 -0.294728 -1.44117 0
M  V30 23793 H 2266.93 1.7516 -3.78649 0
M  V30 23794 H 2265.56 1.84465 -2.64901 0
M  V30 23795 H 2264.61 -0.287781 -3.7931 0
M  V30 23796 H 2265.92 -0.158215 -4.98549 0
M  V30 23797 H 2265.08 2.08763 -5.69652 0
M  V30 23798 H 2263.82 2.0343 -4.43247 0
M  V30 23799 H 2262.82 -0.00948147 -5.49799 0
M  V30 23800 H 2264.05 0.0629888 -6.79071 0
M  V30 23801 H 2261.99 2.22027 -6.17284 0
M  V30 23802 H 2261.91 1.08694 -7.48145 0
M  V30 23803 H 2263.18 2.27583 -7.45538 0
M  V30 23804 N 2267.41 1.54275 -0.322027 0
M  V30 23805 C 2268.34 2.27232 0.537371 0
M  V30 23806 C 2269.32 1.2797 1.12061 0
M  V30 23807 O 2270.5 1.56779 1.14603 0
M  V30 23808 C 2267.63 3.02897 1.69913 0
M  V30 23809 C 2266.59 4.09484 1.24526 0
M  V30 23810 C 2265.91 4.72981 2.49385 0
M  V30 23811 C 2267.21 5.21049 0.361243 0
M  V30 23812 H 2268.91 2.99315 -0.0711932 0
M  V30 23813 H 2266.45 1.43956 -0.0356808 0
M  V30 23814 H 2268.4 3.52666 2.30662 0
M  V30 23815 H 2267.13 2.28429 2.33427 0
M  V30 23816 H 2265.79 3.60597 0.660719 0
M  V30 23817 H 2265.44 3.95129 3.11258 0
M  V30 23818 H 2265.14 5.44979 2.19708 0
M  V30 23819 H 2266.66 5.25523 3.10899 0
M  V30 23820 H 2268.07 5.66584 0.874972 0
M  V30 23821 H 2266.47 5.99894 0.157323 0
M  V30 23822 H 2267.54 4.81069 -0.608304 0
M  V30 23823 N 2268.88 0.0501669 1.5752 0
M  V30 23824 C 2270.13 -0.62384 1.92651 0
M  V30 23825 C 2270.46 -1.7091 0.928441 0
M  V30 23826 O 2269.71 -1.9561 -0.0594181 0
M  V30 23827 C 2270.01 -1.25957 3.34469 0
M  V30 23828 C 2269.68 -0.30261 4.49883 0
M  V30 23829 C 2268.34 -0.039279 4.81184 0
M  V30 23830 C 2270.69 0.353296 5.20001 0
M  V30 23831 C 2268.02 0.88741 5.7995 0
M  V30 23832 C 2270.37 1.26817 6.19758 0
M  V30 23833 C 2269.04 1.54018 6.49488 0
M  V30 23834 H 2268.31 -0.228279 0.704961 0
M  V30 23835 H 2270.95 0.116431 1.91146 0
M  V30 23836 H 2269.26 -2.07509 3.32336 0
M  V30 23837 H 2270.96 -1.788 3.58931 0
M  V30 23838 H 2267.55 -0.518034 4.25458 0
M  V30 23839 H 2271.73 0.162942 4.96032 0
M  V30 23840 H 2266.99 1.10564 6.0132 0
M  V30 23841 H 2271.16 1.78248 6.73202 0
M  V30 23842 H 2268.79 2.25988 7.25833 0
M  V30 23843 N 2270.36 -1.56011 -0.223207 0
M  V30 23844 C 2271.32 -1.91452 -1.26011 0
M  V30 23845 C 2272.32 -0.792961 -1.39888 0
M  V30 23846 O 2273.51 -1.06073 -1.38182 0
M  V30 23847 C 2270.65 -2.16388 -2.63418 0
M  V30 23848 H 2271.84 -2.8419 -0.95791 0
M  V30 23849 H 2269.39 -1.49268 -0.46355 0
M  V30 23850 H 2270.13 -1.26196 -2.98739 0
M  V30 23851 H 2269.91 -2.98092 -2.54723 0
M  V30 23852 H 2271.4 -2.44909 -3.38245 0
M  V30 23853 N 2271.84 0.489844 -1.49794 0
M  V30 23854 C 2273.09 1.24079 -1.59527 0
M  V30 23855 C 2273.41 1.92847 -0.288987 0
M  V30 23856 O 2272.68 1.83256 0.692403 0
M  V30 23857 H 2271.26 0.460973 -0.587804 0
M  V30 23858 H 2273.92 0.566746 -1.86478 0
M  V30 23859 H 2273.02 1.99876 -2.397 0
M  V30 23860 N 2273.32 1.39056 0.741698 0
M  V30 23861 C 2274.25 1.33136 1.86567 0
M  V30 23862 C 2275.26 0.241357 1.61001 0
M  V30 23863 O 2276.45 0.499814 1.7136 0
M  V30 23864 C 2273.55 1.04288 3.22455 0
M  V30 23865 C 2272.72 2.24434 3.75431 0
M  V30 23866 C 2271.78 1.92146 4.89864 0
M  V30 23867 O 2270.81 2.64763 5.03874 0
M  V30 23868 N 2272.01 0.883571 5.73736 0
M  V30 23869 H 2274.78 2.29995 1.92152 0
M  V30 23870 H 2272.34 1.33072 0.922149 0
M  V30 23871 H 2274.33 0.807197 3.96568 0
M  V30 23872 H 2272.9 0.161862 3.12181 0
M  V30 23873 H 2272.12 2.63995 2.92746 0
M  V30 23874 H 2273.41 3.04588 4.07558 0
M  V30 23875 H 2272.81 0.281616 5.64999 0
M  V30 23876 H 2271.36 0.707776 6.47946 0
M  V30 23877 N 2274.8 -0.971167 1.24121 0
M  V30 23878 C 2275.73 -2.06794 0.988386 0
M  V30 23879 C 2276.74 -1.62749 -0.0409255 0
M  V30 23880 O 2277.93 -1.77424 0.195704 0
M  V30 23881 C 2275.03 -3.35638 0.469082 0
M  V30 23882 C 2274.2 -4.08608 1.56072 0
M  V30 23883 C 2273.26 -5.15726 1.04467 0
M  V30 23884 O 2272.29 -5.42093 1.73563 0
M  V30 23885 N 2273.49 -5.8037 -0.122715 0
M  V30 23886 H 2276.25 -2.29057 1.93269 0
M  V30 23887 H 2273.82 -1.13854 1.15104 0
M  V30 23888 H 2275.81 -4.04554 0.108685 0
M  V30 23889 H 2274.38 -3.10271 -0.380865 0
M  V30 23890 H 2273.6 -3.34018 2.09346 0
M  V30 23891 H 2274.89 -4.54122 2.29457 0
M  V30 23892 H 2274.28 -5.61347 -0.700464 0
M  V30 23893 H 2272.84 -6.50418 -0.42429 0
M  V30 23894 N 2276.27 -1.05441 -1.17133 0
M  V30 23895 C 2277.52 -0.764462 -1.87084 0
M  V30 23896 C 2277.84 0.710755 -1.81585 0
M  V30 23897 O 2277.11 1.51372 -1.24352 0
M  V30 23898 H 2275.69 -0.279791 -0.692622 0
M  V30 23899 H 2278.36 -1.33409 -1.42085 0
M  V30 23900 H 2277.45 -1.08165 -2.92757 0
M  V30 23901 N 2277.75 1.33613 -0.835776 0
M  V30 23902 C 2278.72 2.2758 -0.27204 0
M  V30 23903 C 2279.72 1.50828 0.55746 0
M  V30 23904 O 2280.91 1.70188 0.3717 0
M  V30 23905 C 2278.04 3.35268 0.617114 0
M  V30 23906 H 2279.23 2.78952 -1.10116 0
M  V30 23907 H 2276.78 1.43964 -0.60862 0
M  V30 23908 H 2277.52 2.89131 1.46879 0
M  V30 23909 H 2277.3 3.92093 0.0236377 0
M  V30 23910 H 2278.79 4.05328 1.00493 0
M  V30 23911 N 2279.23 0.591922 1.46062 0
M  V30 23912 C 2280.46 0.0868039 2.06418 0
M  V30 23913 C 2280.87 -1.22748 1.43978 0
M  V30 23914 O 2280.21 -1.75505 0.542562 0
M  V30 23915 C 2280.27 -0.143662 3.59213 0
M  V30 23916 C 2279.94 1.08642 4.43898 0
M  V30 23917 C 2280.93 2.00075 4.7986 0
M  V30 23918 C 2278.62 1.31086 4.84894 0
M  V30 23919 C 2280.61 3.12292 5.55655 0
M  V30 23920 C 2278.3 2.43606 5.60446 0
M  V30 23921 C 2279.3 3.34038 5.95741 0
M  V30 23922 O 2278.99 4.44602 6.69765 0
M  V30 23923 H 2278.72 0.0587566 0.673442 0
M  V30 23924 H 2281.27 0.815027 1.88538 0
M  V30 23925 H 2279.5 -0.926602 3.75434 0
M  V30 23926 H 2281.19 -0.59843 4.01464 0
M  V30 23927 H 2281.96 1.83955 4.4876 0
M  V30 23928 H 2277.84 0.61602 4.56866 0
M  V30 23929 H 2281.38 3.82901 5.83123 0
M  V30 23930 H 2277.28 2.59685 5.9096 0
M  V30 23931 H 2278.05 4.43085 6.88199 0
M  V30 23932 N 2280.71 -1.54102 0.330204 0
M  V30 23933 C 2281.94 -2.05102 -0.272143 0
M  V30 23934 C 2282.35 -1.20597 -1.45264 0
M  V30 23935 O 2281.71 -0.238175 -1.80939 0
M  V30 23936 C 2281.76 -3.54655 -0.700168 0
M  V30 23937 O 2281.48 -4.35951 0.433378 0
M  V30 23938 C 2282.98 -4.21773 -1.36463 0
M  V30 23939 H 2280.2 -0.66875 -0.0549041 0
M  V30 23940 H 2282.75 -1.98827 0.47832 0
M  V30 23941 H 2280.9 -3.61195 -1.40059 0
M  V30 23942 H 2281.31 -5.24414 0.0948461 0
M  V30 23943 H 2282.79 -5.27846 -1.615 0
M  V30 23944 H 2283.27 -3.73296 -2.31402 0
M  V30 23945 H 2283.87 -4.19389 -0.706601 0
M  V30 23946 N 2282.19 -0.0585199 -1.57491 0
M  V30 23947 C 2283.43 0.612402 -1.92598 0
M  V30 23948 C 2283.76 1.70947 -0.938192 0
M  V30 23949 O 2283.03 1.95894 0.0157957 0
M  V30 23950 H 2281.61 0.229201 -0.710968 0
M  V30 23951 H 2284.27 -0.113252 -1.94571 0
M  V30 23952 H 2283.36 1.04628 -2.9404 0
M  V30 23953 N 2283.66 1.56128 0.21493 0
M  V30 23954 C 2284.59 1.95976 1.26947 0
M  V30 23955 C 2285.58 0.828894 1.48537 0
M  V30 23956 O 2286.76 1.09171 1.60609 0
M  V30 23957 C 2283.89 2.28218 2.6179 0
M  V30 23958 C 2282.84 3.43858 2.54845 0
M  V30 23959 C 2282.17 3.61722 3.93778 0
M  V30 23960 C 2283.47 4.78636 2.09057 0
M  V30 23961 H 2285.16 2.84314 0.93841 0
M  V30 23962 H 2282.71 1.36789 0.449972 0
M  V30 23963 H 2284.66 2.54688 3.35726 0
M  V30 23964 H 2283.39 1.36741 2.96596 0
M  V30 23965 H 2282.05 3.17447 1.83365 0
M  V30 23966 H 2281.69 2.6761 4.25904 0
M  V30 23967 H 2281.39 4.39505 3.90012 0
M  V30 23968 H 2282.92 3.90547 4.69367 0
M  V30 23969 H 2284.33 5.04267 2.72741 0
M  V30 23970 H 2282.73 5.59749 2.16336 0
M  V30 23971 H 2283.8 4.73549 1.04306 0
M  V30 23972 N 2285.14 -0.481893 1.50052 0
M  V30 23973 C 2286.55 -1.06303 1.53482 0
M  V30 23974 C 2286.9 -1.9337 0.332031 0
M  V30 23975 O 2286.03 -2.0913 -0.556219 0
M  V30 23976 C 2286.62 -1.93461 2.78133 0
M  V30 23977 C 2285.18 -2.46702 2.8428 0
M  V30 23978 C 2284.33 -1.2478 2.47639 0
M  V30 23979 H 2287.28 -0.264968 1.56472 0
M  V30 23980 H 2287.3 -2.78395 2.59377 0
M  V30 23981 H 2286.81 -1.30065 3.65656 0
M  V30 23982 H 2284.92 -3.13682 2.01082 0
M  V30 23983 H 2285.03 -2.82548 3.86915 0
M  V30 23984 H 2283.39 -1.57915 1.99837 0
M  V30 23985 H 2284.18 -0.630634 3.37458 0
M  V30 23986 N 2286.62 -1.39448 -0.734313 0
M  V30 23987 C 2287.57 -1.38367 -1.86969 0
M  V30 23988 C 2288.56 -0.266717 -1.67287 0
M  V30 23989 O 2289.77 -0.436786 -1.7462 0
M  V30 23990 H 2286.14 -0.432093 -0.615467 0
M  V30 23991 H 2288.11 -2.34135 -1.84996 0
M  V30 23992 C 2286.86 -1.2447 -3.24657 0
M  V30 23993 H 2286.19 -2.09688 -3.40399 0
M  V30 23994 H 2287.63 -1.27771 -4.0429 0
M  V30 23995 C 2286.09 0.0468082 -3.36867 0
M  V30 23996 O 2286.62 1.01675 -3.8862 0
M  V30 23997 N 2284.82 0.110094 -2.90391 0
M  V30 23998 H 2284.37 -0.679912 -2.48465 0
M  V30 23999 H 2284.33 0.973747 -2.98941 0
M  V30 24000 N 2288.1 0.964571 -1.24635 0
M  V30 24001 C 2289.05 2.05966 -1.04148 0
M  V30 24002 C 2290.02 1.66036 0.0462328 0
M  V30 24003 O 2291.2 1.90488 -0.109006 0
M  V30 24004 C 2288.34 3.38814 -0.65569 0
M  V30 24005 C 2287.45 3.9192 -1.81721 0
M  V30 24006 C 2286.59 5.1305 -1.37671 0
M  V30 24007 C 2285.63 5.58361 -2.50798 0
M  V30 24008 N 2284.76 6.70708 -2.07593 0
M  V30 24009 H 2289.6 2.22823 -1.97873 0
M  V30 24010 H 2287.14 1.09206 -0.985519 0
M  V30 24011 H 2289.1 4.1515 -0.413027 0
M  V30 24012 H 2287.73 3.21872 0.24457 0
M  V30 24013 H 2286.78 3.12194 -2.17345 0
M  V30 24014 H 2288.09 4.21504 -2.66712 0
M  V30 24015 H 2287.25 5.96771 -1.09311 0
M  V30 24016 H 2285.99 4.85157 -0.497378 0
M  V30 24017 H 2284.99 4.7321 -2.79914 0
M  V30 24018 H 2286.22 5.88266 -3.39293 0
M  V30 24019 H 2284.16 6.44544 -1.22063 0
M  V30 24020 H 2284.08 6.99758 -2.86137 0
M  V30 24021 H 2285.35 7.57863 -1.82382 0
M  V30 24022 N 2289.58 1.0606 1.16572 0
M  V30 24023 C 2290.52 0.669301 2.20882 0
M  V30 24024 C 2291.49 -0.332889 1.6273 0
M  V30 24025 O 2292.68 -0.222313 1.895 0
M  V30 24026 C 2289.82 0.0594178 3.45049 0
M  V30 24027 C 2288.93 1.1115 4.17456 0
M  V30 24028 C 2288.07 0.468009 5.29134 0
M  V30 24029 C 2287.11 1.50379 5.9334 0
M  V30 24030 N 2286.24 0.883828 6.96515 0
M  V30 24031 H 2291.08 1.56324 2.53706 0
M  V30 24032 H 2288.62 0.781647 1.24614 0
M  V30 24033 H 2290.58 -0.311698 4.16034 0
M  V30 24034 H 2289.21 -0.797937 3.12782 0
M  V30 24035 H 2288.26 1.60035 3.45099 0
M  V30 24036 H 2289.57 1.89739 4.61303 0
M  V30 24037 H 2288.73 0.0437937 6.06684 0
M  V30 24038 H 2287.46 -0.349778 4.86444 0
M  V30 24039 H 2286.47 1.93793 5.14514 0
M  V30 24040 H 2287.69 2.32363 6.3811 0
M  V30 24041 H 2285.64 0.0867103 6.55943 0
M  V30 24042 H 2285.56 1.60713 7.3872 0
M  V30 24043 H 2286.83 0.48468 7.77992 0
M  V30 24044 N 2291.06 -1.33168 0.84285 0
M  V30 24045 C 2292.47 -1.79972 0.496682 0
M  V30 24046 C 2292.82 -1.69705 -0.984611 0
M  V30 24047 O 2291.94 -1.24866 -1.76741 0
M  V30 24048 C 2292.54 -3.26771 0.894784 0
M  V30 24049 C 2291.1 -3.71576 0.600695 0
M  V30 24050 C 2290.24 -2.54508 1.10095 0
M  V30 24051 H 2293.19 -1.20633 1.03118 0
M  V30 24052 H 2293.22 -3.7994 0.206414 0
M  V30 24053 H 2292.73 -3.34211 1.97293 0
M  V30 24054 H 2290.83 -3.69659 -0.467219 0
M  V30 24055 H 2290.94 -4.64877 1.15872 0
M  V30 24056 H 2289.31 -2.49301 0.521664 0
M  V30 24057 H 2290.09 -2.64709 2.18596 0
M  V30 24058 N 2292.53 -0.599659 -1.45746 0
M  V30 24059 C 2293.48 0.136386 -2.322 0
M  V30 24060 C 2294.48 0.867557 -1.45498 0
M  V30 24061 O 2295.68 0.784022 -1.62028 0
M  V30 24062 H 2292.06 0.0628457 -0.749369 0
M  V30 24063 H 2294.03 -0.611333 -2.92071 0
M  V30 24064 C 2292.78 1.12561 -3.28976 0
M  V30 24065 H 2292.1 0.572414 -3.95681 0
M  V30 24066 H 2293.54 1.6107 -3.92215 0
M  V30 24067 C 2292 2.19518 -2.55565 0
M  V30 24068 O 2292.53 3.27139 -2.33116 0
M  V30 24069 N 2290.73 1.94586 -2.15835 0
M  V30 24070 H 2290.28 1.07074 -2.34292 0
M  V30 24071 H 2290.24 2.66356 -1.67039 0
M  V30 24072 N 2294.01 1.53925 -0.338371 0
M  V30 24073 C 2295.26 2.01125 0.260108 0
M  V30 24074 C 2295.59 1.22592 1.50615 0
M  V30 24075 O 2294.87 0.312147 1.91979 0
M  V30 24076 C 2295.15 3.55408 0.579437 0
M  V30 24077 C 2295 4.44656 -0.678342 0
M  V30 24078 C 2296.32 4.17535 1.39114 0
M  V30 24079 H 2293.44 0.731101 0.0930644 0
M  V30 24080 H 2296.08 1.844 -0.457884 0
M  V30 24081 H 2294.23 3.6979 1.19112 0
M  V30 24082 H 2295.9 4.42119 -1.31639 0
M  V30 24083 H 2294.15 4.13728 -1.30427 0
M  V30 24084 H 2294.82 5.50473 -0.41024 0
M  V30 24085 H 2297.29 4.06818 0.873963 0
M  V30 24086 H 2296.17 5.25568 1.58333 0
M  V30 24087 H 2296.43 3.71819 2.39171 0
M  V30 24088 N 2295.49 0.0668712 1.57458 0
M  V30 24089 C 2296.9 -0.466526 1.80777 0
M  V30 24090 C 2297.25 -1.69949 0.98039 0
M  V30 24091 O 2296.38 -2.1546 0.201479 0
M  V30 24092 C 2296.97 -0.853153 3.27882 0
M  V30 24093 C 2295.53 -1.33144 3.52065 0
M  V30 24094 C 2294.68 -0.314215 2.75514 0
M  V30 24095 H 2297.63 0.292615 1.55979 0
M  V30 24096 H 2297.65 -1.71494 3.39662 0
M  V30 24097 H 2297.16 0.0444121 3.88075 0
M  V30 24098 H 2295.26 -2.24767 2.97171 0
M  V30 24099 H 2295.38 -1.31276 4.60764 0
M  V30 24100 H 2293.74 -0.79045 2.42124 0
M  V30 24101 H 2294.52 0.575537 3.38441 0
M  V30 24102 N 2296.97 -1.56239 -0.206647 0
M  V30 24103 C 2298.2 -1.84042 -0.945313 0
M  V30 24104 C 2298.61 -0.647917 -1.77334 0
M  V30 24105 O 2297.97 0.38348 -1.78426 0
M  V30 24106 C 2298.02 -3.10525 -1.85084 0
M  V30 24107 O 2297.74 -4.25176 -1.05626 0
M  V30 24108 C 2299.24 -3.51423 -2.70216 0
M  V30 24109 H 2296.46 -0.611445 -0.276362 0
M  V30 24110 H 2299 -2.03341 -0.217381 0
M  V30 24111 H 2297.16 -2.93157 -2.53254 0
M  V30 24112 H 2297.57 -4.97126 -1.67229 0
M  V30 24113 H 2299.05 -4.42922 -3.2943 0
M  V30 24114 H 2299.52 -2.7387 -3.43354 0
M  V30 24115 H 2300.13 -3.71282 -2.07436 0
M  V30 24116 N 2298.45 0.473929 -1.50305 0
M  V30 24117 C 2299.69 1.22298 -1.60394 0
M  V30 24118 C 2300.01 1.93153 -0.308445 0
M  V30 24119 O 2301.21 2.69966 -0.288204 0
M  V30 24120 C 2299.67 2.22205 -2.83113 0
M  V30 24121 C 2299.28 1.57166 -4.19527 0
M  V30 24122 C 2301.02 2.9777 -3.02545 0
M  V30 24123 C 2298.93 2.55343 -5.33436 0
M  V30 24124 H 2297.86 0.460169 -0.597294 0
M  V30 24125 H 2300.51 0.493772 -1.76732 0
M  V30 24126 H 2298.89 2.98405 -2.60327 0
M  V30 24127 H 2300.07 0.867744 -4.52556 0
M  V30 24128 H 2298.38 0.938931 -4.05676 0
M  V30 24129 H 2300.98 3.71241 -3.84817 0
M  V30 24130 H 2301.32 3.56989 -2.14161 0
M  V30 24131 H 2301.85 2.28683 -3.25498 0
M  V30 24132 H 2298.59 2.00867 -6.23965 0
M  V30 24133 H 2298.11 3.23895 -5.04829 0
M  V30 24134 H 2299.79 3.1723 -5.63892 0
M  V30 24135 N 2299.92 1.39835 0.726907 0
M  V30 24136 C 2301.34 1.21617 1.03352 0
M  V30 24137 C 2301.54 0.0834153 2.01327 0
M  V30 24138 O 2300.6 -0.562337 2.46159 0
M  V30 24139 C 2301.91 2.55345 1.58806 0
M  V30 24140 C 2303.46 2.6226 1.70847 0
M  V30 24141 C 2303.93 3.96229 2.29709 0
M  V30 24142 N 2305.42 3.97912 2.37109 0
M  V30 24143 C 2306.16 4.9835 2.8361 0
M  V30 24144 N 2305.65 6.09185 3.29947 0
M  V30 24145 N 2307.45 4.85725 2.82892 0
M  V30 24146 H 2299.6 2.12259 0.0772696 0
M  V30 24147 H 2301.86 0.943035 0.0968937 0
M  V30 24148 H 2301.57 3.38828 0.942796 0
M  V30 24149 H 2301.44 2.75636 2.57497 0
M  V30 24150 H 2303.83 1.79156 2.34493 0
M  V30 24151 H 2303.91 2.45811 0.70787 0
M  V30 24152 H 2303.55 4.79768 1.66688 0
M  V30 24153 H 2303.48 4.10003 3.30462 0
M  V30 24154 H 2305.97 3.17871 2.04368 0
M  V30 24155 H 2306.29 6.81726 3.63964 0
M  V30 24156 H 2304.63 6.12767 3.27935 0
M  V30 24157 H 2307.82 3.98236 2.4602 0
M  V30 24158 H 2308 5.64145 3.18817 0
M  V30 24159 N 2301.4 -0.957948 1.25144 0
M  V30 24160 C 2302.65 -1.69652 1.09093 0
M  V30 24161 C 2302.96 -1.92097 -0.368514 0
M  V30 24162 O 2304.17 -2.63619 -0.649409 0
M  V30 24163 C 2302.63 -3.05411 1.904 0
M  V30 24164 C 2302.23 -2.90773 3.40815 0
M  V30 24165 C 2303.98 -3.83073 1.82908 0
M  V30 24166 C 2301.88 -4.21902 4.14431 0
M  V30 24167 H 2300.81 -0.636228 0.404636 0
M  V30 24168 H 2303.47 -1.06669 1.49311 0
M  V30 24169 H 2301.85 -3.69278 1.43002 0
M  V30 24170 H 2303.02 -2.35858 3.95863 0
M  V30 24171 H 2301.34 -2.26568 3.49365 0
M  V30 24172 H 2303.93 -4.80191 2.35204 0
M  V30 24173 H 2304.28 -4.08613 0.796296 0
M  V30 24174 H 2304.81 -3.2595 2.28038 0
M  V30 24175 H 2301.55 -4.01552 5.18109 0
M  V30 24176 H 2301.07 -4.76595 3.64167 0
M  V30 24177 H 2302.75 -4.90464 4.21965 0
M  V30 24178 N 2302.88 -1.06677 -1.16008 0
M  V30 24179 C 2303.84 -0.685039 -2.18723 0
M  V30 24180 C 2304.84 0.271218 -1.58496 0
M  V30 24181 O 2306.03 0.053085 -1.74119 0
M  V30 24182 C 2303.16 -0.0085964 -3.40899 0
M  V30 24183 H 2304.36 -1.59435 -2.54009 0
M  V30 24184 H 2301.91 -0.862464 -1.3035 0
M  V30 24185 H 2302.65 0.913282 -3.11175 0
M  V30 24186 H 2302.43 -0.696271 -3.85868 0
M  V30 24187 H 2303.92 0.244066 -4.16886 0
M  V30 24188 N 2304.36 1.32719 -0.8499 0
M  V30 24189 C 2305.3 2.28983 -0.289073 0
M  V30 24190 C 2306.27 1.54834 0.601297 0
M  V30 24191 O 2307.46 1.83081 0.537221 0
M  V30 24192 C 2304.6 3.41151 0.520563 0
M  V30 24193 C 2303.71 4.3019 -0.395064 0
M  V30 24194 C 2302.85 5.29483 0.426741 0
M  V30 24195 C 2301.89 6.10163 -0.486583 0
M  V30 24196 N 2301.02 7.01468 0.297755 0
M  V30 24197 H 2305.86 2.76345 -1.11524 0
M  V30 24198 H 2303.4 1.35966 -0.561403 0
M  V30 24199 H 2305.36 4.049 1.00556 0
M  V30 24200 H 2303.99 2.94952 1.3116 0
M  V30 24201 H 2303.04 3.67064 -0.998425 0
M  V30 24202 H 2304.35 4.86605 -1.09621 0
M  V30 24203 H 2303.51 5.98813 0.9751 0
M  V30 24204 H 2302.25 4.73673 1.16127 0
M  V30 24205 H 2301.25 5.39741 -1.04686 0
M  V30 24206 H 2302.48 6.68058 -1.21965 0
M  V30 24207 H 2300.42 6.48093 1.01547 0
M  V30 24208 H 2300.34 7.55215 -0.34445 0
M  V30 24209 H 2301.61 7.7509 0.827994 0
M  V30 24210 N 2305.84 0.60738 1.45426 0
M  V30 24211 C 2307.08 0.102643 2.0254 0
M  V30 24212 C 2307.42 -1.26345 1.47481 0
M  V30 24213 O 2306.69 -1.83338 0.649422 0
M  V30 24214 C 2306.97 0.063498 3.60044 0
M  V30 24215 C 2306.83 1.46024 4.25437 0
M  V30 24216 C 2308.15 -0.624437 4.35648 0
M  V30 24217 H 2305.26 0.0387736 0.735979 0
M  V30 24218 H 2307.91 0.779312 1.73282 0
M  V30 24219 H 2306.06 -0.51274 3.85102 0
M  V30 24220 H 2307.73 2.08355 4.11565 0
M  V30 24221 H 2305.97 2.02101 3.83846 0
M  V30 24222 H 2306.64 1.3851 5.3434 0
M  V30 24223 H 2309.12 -0.13465 4.15882 0
M  V30 24224 H 2307.99 -0.620932 5.45377 0
M  V30 24225 H 2308.26 -1.69048 4.08504 0
M  V30 24226 N 2307.31 -1.53743 0.34653 0
M  V30 24227 C 2308.25 -2.22668 -0.543277 0
M  V30 24228 C 2309.26 -1.23428 -1.06157 0
M  V30 24229 O 2310.45 -1.49766 -0.971208 0
M  V30 24230 C 2307.55 -2.89572 -1.76071 0
M  V30 24231 C 2306.72 -4.15153 -1.3772 0
M  V30 24232 C 2305.78 -4.6544 -2.45463 0
M  V30 24233 O 2304.81 -5.2958 -2.08646 0
M  V30 24234 N 2306.01 -4.41623 -3.76762 0
M  V30 24235 H 2308.77 -2.99663 0.047023 0
M  V30 24236 H 2306.33 -1.60997 0.170795 0
M  V30 24237 H 2308.33 -3.20129 -2.47588 0
M  V30 24238 H 2306.9 -2.16146 -2.25831 0
M  V30 24239 H 2306.12 -3.91109 -0.492678 0
M  V30 24240 H 2307.4 -4.96834 -1.09699 0
M  V30 24241 H 2306.8 -3.90332 -4.0946 0
M  V30 24242 H 2305.36 -4.76777 -4.4444 0
M  V30 24243 N 2308.79 -0.0752207 -1.5742 0
M  V30 24244 C 2310.04 0.59194 -1.93237 0
M  V30 24245 C 2310.36 1.69943 -0.956271 0
M  V30 24246 O 2309.63 1.95899 -0.00498235 0
M  V30 24247 H 2308.21 0.221648 -0.713359 0
M  V30 24248 H 2310.87 -0.133882 -1.9444 0
M  V30 24249 H 2309.97 1.01504 -2.95133 0
M  V30 24250 N 2310.27 1.56347 0.198358 0
M  V30 24251 C 2311.68 1.70382 0.763328 0
M  V30 24252 C 2312.03 0.681236 1.83994 0
M  V30 24253 O 2311.16 -0.163012 2.15785 0
M  V30 24254 C 2311.75 3.08911 1.39137 0
M  V30 24255 C 2310.31 3.24723 1.90347 0
M  V30 24256 C 2309.46 2.66332 0.772187 0
M  V30 24257 H 2312.41 1.58678 -0.0266656 0
M  V30 24258 H 2312.43 3.06059 2.2607 0
M  V30 24259 H 2311.94 3.83315 0.607571 0
M  V30 24260 H 2310.04 2.5523 2.71456 0
M  V30 24261 H 2310.16 4.32194 2.0675 0
M  V30 24262 H 2308.52 2.25422 1.18562 0
M  V30 24263 H 2309.3 3.433 0.000675217 0
M  V30 24264 N 2311.75 -0.465951 1.50554 0
M  V30 24265 C 2313 -1.21525 1.61481 0
M  V30 24266 C 2313.32 -1.92363 0.31963 0
M  V30 24267 O 2312.59 -1.84334 -0.663161 0
M  V30 24268 H 2311.17 -0.451563 0.595063 0
M  V30 24269 H 2313.83 -0.537007 1.87356 0
M  V30 24270 H 2312.93 -1.96038 2.42849 0
M  V30 24271 N 2313.23 -1.40218 -0.719481 0
M  V30 24272 C 2314.47 -1.38285 -1.4793 0
M  V30 24273 C 2314.8 0.0161194 -1.94493 0
M  V30 24274 O 2314.06 0.999926 -1.68226 0
M  V30 24275 C 2314.36 -2.31529 -2.72267 0
M  V30 24276 C 2314.02 -3.78861 -2.4449 0
M  V30 24277 C 2312.68 -4.19002 -2.36624 0
M  V30 24278 C 2315.04 -4.71981 -2.21096 0
M  V30 24279 C 2312.36 -5.50304 -2.03427 0
M  V30 24280 C 2314.72 -6.03577 -1.89413 0
M  V30 24281 C 2313.38 -6.42765 -1.80026 0
M  V30 24282 H 2312.65 -0.506022 -0.541316 0
M  V30 24283 H 2315.3 -1.72843 -0.824472 0
M  V30 24284 H 2313.6 -1.90143 -3.42568 0
M  V30 24285 H 2315.3 -2.27318 -3.30344 0
M  V30 24286 H 2311.89 -3.47055 -2.51497 0
M  V30 24287 H 2316.07 -4.4179 -2.26131 0
M  V30 24288 H 2311.33 -5.79572 -1.94695 0
M  V30 24289 H 2315.5 -6.7525 -1.70324 0
M  V30 24290 H 2313.13 -7.44424 -1.5407 0
M  V30 24291 N 2314.7 0.951297 -1.25651 0
M  V30 24292 C 2315.98 1.67286 -1.01364 0
M  V30 24293 C 2316.36 2.06047 0.459099 0
M  V30 24294 O 2315.71 1.77642 1.4372 0
M  V30 24295 C 2315.92 2.89264 -1.95262 0
M  V30 24296 C 2317.27 3.61143 -2.23296 0
M  V30 24297 O 2318.29 2.99352 -1.93046 0
M  V30 24298 O 2317.15 4.72414 -2.74749 0
M  V30 24299 H 2314.24 0.7321 -0.384653 0
M  V30 24300 H 2316.79 1.00393 -1.36819 0
M  V30 24301 H 2315.56 2.57437 -2.9469 0
M  V30 24302 H 2315.19 3.63887 -1.60224 0
M  V30 24303 N 2316.18 1.07291 1.1544 0
M  V30 24304 C 2317.41 0.815609 1.89819 0
M  V30 24305 C 2317.82 -0.634836 1.78232 0
M  V30 24306 O 2317.16 -1.44713 1.13154 0
M  V30 24307 C 2317.23 1.14391 3.40815 0
M  V30 24308 C 2316.89 2.59482 3.76189 0
M  V30 24309 C 2317.89 3.57727 3.77263 0
M  V30 24310 C 2315.57 2.95044 4.06515 0
M  V30 24311 C 2317.57 4.89569 4.08168 0
M  V30 24312 C 2315.25 4.27083 4.37085 0
M  V30 24313 C 2316.25 5.24156 4.37893 0
M  V30 24314 O 2315.94 6.53823 4.67729 0
M  V30 24315 H 2315.67 0.294539 0.608459 0
M  V30 24316 H 2318.22 1.43255 1.47198 0
M  V30 24317 H 2316.45 0.469933 3.83834 0
M  V30 24318 H 2318.14 0.869248 3.96483 0
M  V30 24319 H 2318.91 3.31596 3.53934 0
M  V30 24320 H 2314.79 2.20135 4.05045 0
M  V30 24321 H 2318.33 5.65331 4.08713 0
M  V30 24322 H 2314.23 4.52968 4.59881 0
M  V30 24323 H 2315 6.58965 4.85497 0
M  V30 24324 N 2317.66 -1.32267 0.856927 0
M  V30 24325 C 2318.62 -2.27118 0.308211 0
M  V30 24326 C 2319.62 -1.51696 -0.533394 0
M  V30 24327 O 2320.81 -1.70758 -0.344577 0
M  V30 24328 C 2317.95 -3.36207 -0.563698 0
M  V30 24329 H 2319.14 -2.77165 1.1454 0
M  V30 24330 H 2316.69 -1.42977 0.631446 0
M  V30 24331 H 2317.43 -2.91432 -1.42261 0
M  V30 24332 H 2317.21 -3.92081 0.0387439 0
M  V30 24333 H 2318.7 -4.06876 -0.940315 0
M  V30 24334 N 2319.14 -0.615084 -1.45102 0
M  V30 24335 C 2320.38 -0.113382 -2.02483 0
M  V30 24336 C 2320.72 1.25561 -1.48149 0
M  V30 24337 O 2319.99 1.82991 -0.659136 0
M  V30 24338 C 2320.28 -0.0825911 -3.60005 0
M  V30 24339 C 2320.13 -1.48279 -4.24657 0
M  V30 24340 C 2321.45 0.601325 -4.35973 0
M  V30 24341 H 2318.57 -0.0426761 -0.735763 0
M  V30 24342 H 2321.21 -0.788491 -1.72866 0
M  V30 24343 H 2319.36 0.49231 -3.85368 0
M  V30 24344 H 2321.03 -2.10534 -4.10455 0
M  V30 24345 H 2319.27 -2.04134 -3.82769 0
M  V30 24346 H 2319.94 -1.41342 -5.33598 0
M  V30 24347 H 2322.42 0.112593 -4.15948 0
M  V30 24348 H 2321.3 0.592001 -5.45698 0
M  V30 24349 H 2321.56 1.66879 -4.09394 0
M  V30 24350 N 2320.62 1.53557 -0.354678 0
M  V30 24351 C 2321.58 2.2402 0.484526 0
M  V30 24352 C 2322.58 1.24424 1.01859 0
M  V30 24353 O 2323.77 1.48782 0.906071 0
M  V30 24354 C 2320.9 2.9685 1.6761 0
M  V30 24355 H 2322.1 2.9961 -0.131895 0
M  V30 24356 H 2319.65 1.55939 -0.106193 0
M  V30 24357 H 2320.38 2.25475 2.33091 0
M  V30 24358 H 2320.17 3.69914 1.30023 0
M  V30 24359 H 2321.66 3.50445 2.27108 0
M  V30 24360 N 2322.1 0.083568 1.57378 0
M  V30 24361 C 2323.03 -0.915796 2.09018 0
M  V30 24362 C 2324.01 -1.28368 0.998015 0
M  V30 24363 O 2325.19 -1.39094 1.27221 0
M  V30 24364 C 2322.32 -2.22045 2.55761 0
M  V30 24365 C 2321.36 -2.00327 3.76526 0
M  V30 24366 S 2322.2 -1.25182 5.20663 0
M  V30 24367 C 2323.35 -2.56902 5.70747 0
M  V30 24368 H 2323.59 -0.47644 2.93458 0
M  V30 24369 H 2321.12 -0.129466 1.53856 0
M  V30 24370 H 2323.08 -2.97022 2.83351 0
M  V30 24371 H 2321.74 -2.63103 1.71568 0
M  V30 24372 H 2320.93 -2.96908 4.07261 0
M  V30 24373 H 2320.53 -1.33481 3.49369 0
M  V30 24374 H 2322.82 -3.52936 5.7831 0
M  V30 24375 H 2323.77 -2.30761 6.69444 0
M  V30 24376 H 2324.18 -2.64647 4.98621 0
M  V30 24377 N 2323.57 -1.5645 -0.190064 0
M  V30 24378 C 2324.54 -1.94082 -1.21921 0
M  V30 24379 C 2325.54 -0.822455 -1.38175 0
M  V30 24380 O 2326.73 -1.0898 -1.35901 0
M  V30 24381 C 2323.86 -2.21926 -2.58769 0
M  V30 24382 H 2325.05 -2.86158 -0.897413 0
M  V30 24383 H 2322.6 -1.50218 -0.431784 0
M  V30 24384 H 2323.34 -1.32504 -2.95995 0
M  V30 24385 H 2323.12 -3.03428 -2.48342 0
M  V30 24386 H 2324.61 -2.52028 -3.32974 0
M  V30 24387 N 2325.05 0.45796 -1.50799 0
M  V30 24388 C 2326 1.55427 -1.70619 0
M  V30 24389 C 2326.97 1.56814 -0.54759 0
M  V30 24390 O 2328.15 1.74143 -0.779678 0
M  V30 24391 C 2325.29 2.93308 -1.81836 0
M  V30 24392 C 2324.41 3.01609 -3.09283 0
M  V30 24393 C 2323.54 4.30485 -3.11217 0
M  V30 24394 C 2322.58 4.32577 -4.33063 0
M  V30 24395 N 2321.72 5.52945 -4.32662 0
M  V30 24396 H 2326.56 1.37831 -2.64209 0
M  V30 24397 H 2324.09 0.669914 -1.3096 0
M  V30 24398 H 2326.05 3.73283 -1.86321 0
M  V30 24399 H 2324.68 3.09509 -0.916739 0
M  V30 24400 H 2323.73 2.14425 -3.14207 0
M  V30 24401 H 2325.05 2.99015 -3.99239 0
M  V30 24402 H 2324.2 5.18819 -3.14503 0
M  V30 24403 H 2322.94 4.35707 -2.19114 0
M  V30 24404 H 2321.94 3.42639 -4.29975 0
M  V30 24405 H 2323.17 4.29036 -5.26407 0
M  V30 24406 H 2321.12 5.58927 -3.43419 0
M  V30 24407 H 2321.03 5.52146 -5.16402 0
M  V30 24408 H 2322.3 6.43367 -4.40113 0
M  V30 24409 N 2326.53 1.40598 0.712035 0
M  V30 24410 C 2327.95 1.22706 1.02056 0
M  V30 24411 C 2328.15 0.104764 2.01227 0
M  V30 24412 O 2327.2 -0.536197 2.46741 0
M  V30 24413 C 2328.51 2.57015 1.56089 0
M  V30 24414 C 2330.06 2.64057 1.68056 0
M  V30 24415 C 2330.54 3.98644 2.25494 0
M  V30 24416 N 2332.03 4.00404 2.32875 0
M  V30 24417 C 2332.76 5.0133 2.78308 0
M  V30 24418 N 2332.26 6.1265 3.23468 0
M  V30 24419 N 2334.05 4.88698 2.77725 0
M  V30 24420 H 2326.2 2.12329 0.0547523 0
M  V30 24421 H 2328.47 0.94401 0.0868861 0
M  V30 24422 H 2328.17 3.39809 0.906806 0
M  V30 24423 H 2328.05 2.78352 2.54559 0
M  V30 24424 H 2330.43 1.81633 2.3258 0
M  V30 24425 H 2330.51 2.46548 0.681759 0
M  V30 24426 H 2330.16 4.81509 1.6159 0
M  V30 24427 H 2330.09 4.13485 3.26094 0
M  V30 24428 H 2332.58 3.20021 2.00985 0
M  V30 24429 H 2332.89 6.85548 3.56713 0
M  V30 24430 H 2331.24 6.16211 3.21418 0
M  V30 24431 H 2334.43 4.00823 2.41783 0
M  V30 24432 H 2334.6 5.67495 3.12816 0
M  V30 24433 N 2328.01 -0.94462 1.26153 0
M  V30 24434 C 2328.96 -2.06415 1.07218 0
M  V30 24435 C 2329.95 -1.694 0.000121783 0
M  V30 24436 O 2331.16 -1.79318 0.156531 0
M  V30 24437 H 2327.53 -0.675799 0.329849 0
M  V30 24438 H 2329.5 -2.19538 2.02103 0
M  V30 24439 C 2328.25 -3.402 0.718257 0
M  V30 24440 H 2327.57 -3.69157 1.53504 0
M  V30 24441 H 2329.01 -4.1936 0.625533 0
M  V30 24442 C 2327.47 -3.31933 -0.576376 0
M  V30 24443 O 2328 -3.67776 -1.61567 0
M  V30 24444 N 2326.21 -2.8504 -0.565731 0
M  V30 24445 H 2325.76 -2.56069 0.280412 0
M  V30 24446 H 2325.71 -2.79891 -1.43208 0
M  V30 24447 N 2329.49 -1.07901 -1.1487 0
M  V30 24448 C 2330.73 -0.800531 -1.85133 0
M  V30 24449 C 2331.05 0.675982 -1.83548 0
M  V30 24450 O 2332.25 1.06944 -2.4955 0
M  V30 24451 C 2330.71 -1.38203 -3.32307 0
M  V30 24452 C 2330.32 -2.88996 -3.42323 0
M  V30 24453 C 2332.06 -1.18181 -4.07717 0
M  V30 24454 C 2329.97 -3.40309 -4.83678 0
M  V30 24455 H 2328.9 -0.295792 -0.693558 0
M  V30 24456 H 2331.55 -1.29978 -1.29529 0
M  V30 24457 H 2329.93 -0.8105 -3.87617 0
M  V30 24458 H 2331.11 -3.52241 -2.97091 0
M  V30 24459 H 2329.42 -3.07872 -2.80364 0
M  V30 24460 H 2332.02 -1.53989 -5.12046 0
M  V30 24461 H 2332.36 -0.121244 -4.16123 0
M  V30 24462 H 2332.89 -1.72 -3.58693 0
M  V30 24463 H 2329.63 -4.45916 -4.80458 0
M  V30 24464 H 2329.15 -2.8182 -5.29469 0
M  V30 24465 H 2330.83 -3.36593 -5.52552 0
M  V30 24466 N 2330.96 1.31811 -0.863929 0
M  V30 24467 C 2332.21 1.97217 -0.47257 0
M  V30 24468 C 2332.54 1.68161 0.971364 0
M  V30 24469 O 2331.82 0.974827 1.68307 0
M  V30 24470 C 2332.1 3.52765 -0.723116 0
M  V30 24471 C 2331.95 3.91417 -2.21614 0
M  V30 24472 C 2333.27 4.39708 -0.185599 0
M  V30 24473 H 2330.39 0.716366 -0.173171 0
M  V30 24474 H 2333.03 1.56039 -1.08406 0
M  V30 24475 H 2331.18 3.87971 -0.202645 0
M  V30 24476 H 2332.86 3.66343 -2.80341 0
M  V30 24477 H 2331.1 3.40241 -2.69106 0
M  V30 24478 H 2331.77 4.99849 -2.34212 0
M  V30 24479 H 2334.25 4.11291 -0.630798 0
M  V30 24480 H 2333.12 5.4751 -0.390402 0
M  V30 24481 H 2333.38 4.32588 0.912153 0
M  V30 24482 N 2332.44 0.62277 1.44773 0
M  V30 24483 C 2333.67 0.130758 2.06486 0
M  V30 24484 C 2334.08 -1.19121 1.46478 0
M  V30 24485 O 2333.44 -1.72886 0.584532 0
M  V30 24486 C 2333.49 0.00087075 3.615 0
M  V30 24487 O 2333.21 1.27055 4.19272 0
M  V30 24488 C 2334.71 -0.520821 4.4023 0
M  V30 24489 H 2331.93 0.0758223 0.666702 0
M  V30 24490 H 2334.48 0.854807 1.85778 0
M  V30 24491 H 2332.63 -0.673576 3.81499 0
M  V30 24492 H 2333.05 1.10999 5.1262 0
M  V30 24493 H 2334.52 -0.560741 5.49145 0
M  V30 24494 H 2335 -1.5462 4.11083 0
M  V30 24495 H 2335.6 0.120092 4.2513 0
M  V30 24496 N 2333.92 -1.53367 0.362817 0
M  V30 24497 C 2334.88 -2.24274 -0.472639 0
M  V30 24498 C 2335.88 -1.24963 -1.01198 0
M  V30 24499 O 2337.07 -1.4926 -0.898168 0
M  V30 24500 C 2334.2 -2.97734 -1.66034 0
M  V30 24501 H 2335.4 -2.99536 0.147782 0
M  V30 24502 H 2332.95 -1.5588 0.114461 0
M  V30 24503 H 2333.69 -2.26708 -2.31892 0
M  V30 24504 H 2333.47 -3.70598 -1.28059 0
M  V30 24505 H 2334.96 -3.51645 -2.25246 0
M  V30 24506 N 2335.4 -0.091913 -1.57332 0
M  V30 24507 C 2336.63 0.581013 -1.98575 0
M  V30 24508 C 2337.04 1.61921 -0.970931 0
M  V30 24509 O 2336.4 1.82456 0.0398733 0
M  V30 24510 C 2336.45 1.23158 -3.39874 0
M  V30 24511 O 2336.17 0.234912 -4.3747 0
M  V30 24512 C 2337.67 1.99042 -3.96103 0
M  V30 24513 H 2334.89 0.156007 -0.652612 0
M  V30 24514 H 2337.44 -0.170261 -2.0379 0
M  V30 24515 H 2335.59 1.9338 -3.35683 0
M  V30 24516 H 2336 0.704089 -5.19753 0
M  V30 24517 H 2337.48 2.39925 -4.97132 0
M  V30 24518 H 2337.96 2.85501 -3.33745 0
M  V30 24519 H 2338.56 1.33642 -4.03757 0
M  V30 24520 N 2336.88 1.56548 0.181765 0
M  V30 24521 C 2338.1 1.85523 0.915914 0
M  V30 24522 C 2338.52 0.676047 1.76281 0
M  V30 24523 O 2337.88 -0.355045 1.79013 0
M  V30 24524 C 2337.93 3.13431 1.80121 0
M  V30 24525 O 2337.65 4.26803 0.988487 0
M  V30 24526 C 2339.15 3.55678 2.64591 0
M  V30 24527 H 2336.37 0.615765 0.266599 0
M  V30 24528 H 2338.91 2.03661 0.185004 0
M  V30 24529 H 2337.07 2.97149 2.48558 0
M  V30 24530 H 2337.48 4.99724 1.59299 0
M  V30 24531 H 2338.96 4.48107 3.22342 0
M  V30 24532 H 2339.43 2.79298 3.38953 0
M  V30 24533 H 2340.04 3.74535 2.01503 0
M  V30 24534 N 2338.35 -0.449957 1.5104 0
M  V30 24535 C 2339.58 -1.22317 1.66871 0
M  V30 24536 C 2340 -1.85321 0.360759 0
M  V30 24537 O 2339.35 -1.70167 -0.659501 0
M  V30 24538 C 2339.41 -2.31648 2.77528 0
M  V30 24539 O 2339.13 -1.71223 4.03255 0
M  V30 24540 C 2340.63 -3.22155 3.04518 0
M  V30 24541 H 2337.85 -0.369145 0.560333 0
M  V30 24542 H 2340.39 -0.534684 1.97386 0
M  V30 24543 H 2338.55 -2.96234 2.49648 0
M  V30 24544 H 2338.96 -2.43381 4.64614 0
M  V30 24545 H 2340.43 -3.95031 3.85557 0
M  V30 24546 H 2340.91 -3.82176 2.16422 0
M  V30 24547 H 2341.52 -2.63282 3.3401 0
M  V30 24548 N 2339.83 -1.40974 -0.704569 0
M  V30 24549 C 2340.78 -1.42112 -1.8186 0
M  V30 24550 C 2341.75 -0.276622 -1.6378 0
M  V30 24551 O 2342.93 -0.476332 -1.84759 0
M  V30 24552 C 2340.07 -1.30027 -3.19667 0
M  V30 24553 C 2339.19 -2.54273 -3.49241 0
M  V30 24554 C 2338.32 -2.34548 -4.76614 0
M  V30 24555 C 2337.36 -3.54315 -4.99127 0
M  V30 24556 N 2336.5 -3.33717 -6.1772 0
M  V30 24557 H 2341.34 -2.37327 -1.80222 0
M  V30 24558 H 2338.88 -1.17858 -0.880217 0
M  V30 24559 H 2340.83 -1.21025 -3.9926 0
M  V30 24560 H 2339.46 -0.384248 -3.20505 0
M  V30 24561 H 2338.52 -2.7376 -2.6412 0
M  V30 24562 H 2339.83 -3.43388 -3.61782 0
M  V30 24563 H 2338.98 -2.22962 -5.64245 0
M  V30 24564 H 2337.72 -1.42875 -4.66302 0
M  V30 24565 H 2336.73 -3.66366 -4.09947 0
M  V30 24566 H 2337.95 -4.46929 -5.11303 0
M  V30 24567 H 2335.9 -2.44736 -6.08638 0
M  V30 24568 H 2335.81 -4.16403 -6.30987 0
M  V30 24569 H 2337.08 -3.25885 -7.0811 0
M  V30 24570 N 2341.31 0.937917 -1.26653 0
M  V30 24571 C 2342.56 1.68116 -1.12168 0
M  V30 24572 C 2342.88 1.92102 0.334949 0
M  V30 24573 O 2342.15 1.52003 1.2358 0
M  V30 24574 H 2340.73 0.623041 -0.412104 0
M  V30 24575 H 2343.39 1.12675 -1.59029 0
M  V30 24576 H 2342.49 2.65357 -1.64293 0
M  V30 24577 N 2342.79 1.08509 1.14296 0
M  V30 24578 C 2343.7 0.727792 2.23025 0
M  V30 24579 C 2344.71 -0.26616 1.71952 0
M  V30 24580 O 2345.89 -0.109846 2.011 0
M  V30 24581 C 2342.96 0.143602 3.46402 0
M  V30 24582 C 2342.02 1.1923 4.12411 0
M  V30 24583 C 2341.25 0.635892 5.29898 0
M  V30 24584 O 2341.47 -0.544293 5.67797 0
M  V30 24585 O 2340.41 1.38644 5.85714 0
M  V30 24586 H 2344.23 1.63485 2.55942 0
M  V30 24587 H 2341.82 0.858839 1.22247 0
M  V30 24588 H 2343.7 -0.17933 4.21018 0
M  V30 24589 H 2342.37 -0.736603 3.15208 0
M  V30 24590 H 2341.28 1.56778 3.39664 0
M  V30 24591 H 2342.61 2.04482 4.47714 0
M  V30 24592 N 2344.27 -1.31351 0.870907 0
M  V30 24593 C 2345.51 -1.96672 0.482307 0
M  V30 24594 C 2345.84 -1.68838 -0.965608 0
M  V30 24595 O 2345.1 -0.977967 -1.69512 0
M  V30 24596 C 2345.4 -3.50731 0.687219 0
M  V30 24597 C 2345.06 -3.98587 2.10807 0
M  V30 24598 C 2343.72 -4.11366 2.49663 0
M  V30 24599 C 2346.08 -4.23742 3.03466 0
M  V30 24600 C 2343.4 -4.46652 3.80419 0
M  V30 24601 C 2345.76 -4.60493 4.33738 0
M  V30 24602 C 2344.42 -4.71479 4.72508 0
M  V30 24603 H 2343.69 -0.719675 0.176489 0
M  V30 24604 H 2346.34 -1.56469 1.10407 0
M  V30 24605 H 2344.64 -3.91796 -0.0176787 0
M  V30 24606 H 2346.34 -3.99323 0.366355 0
M  V30 24607 H 2342.93 -3.89137 1.79639 0
M  V30 24608 H 2347.11 -4.13363 2.74672 0
M  V30 24609 H 2342.37 -4.53355 4.10218 0
M  V30 24610 H 2346.54 -4.7891 5.05587 0
M  V30 24611 H 2344.17 -4.98577 5.73868 0
M  V30 24612 N 2345.74 -0.630439 -1.44441 0
M  V30 24613 C 2346.97 -0.141707 -2.06414 0
M  V30 24614 C 2347.39 1.18342 -1.47107 0
M  V30 24615 O 2346.74 1.72573 -0.593692 0
M  V30 24616 C 2346.8 -0.020042 -3.61494 0
M  V30 24617 O 2346.52 -1.29277 -4.18592 0
M  V30 24618 C 2348.02 0.497467 -4.405 0
M  V30 24619 H 2345.24 -0.0793569 -0.666291 0
M  V30 24620 H 2347.78 -0.864647 -1.85322 0
M  V30 24621 H 2345.94 0.653335 -3.81851 0
M  V30 24622 H 2346.35 -1.13716 -5.12024 0
M  V30 24623 H 2347.82 0.531611 -5.49434 0
M  V30 24624 H 2348.3 1.52438 -4.11897 0
M  V30 24625 H 2348.91 -0.142636 -4.25061 0
M  V30 24626 N 2347.22 1.53172 -0.370945 0
M  V30 24627 C 2348.16 2.22274 0.516688 0
M  V30 24628 C 2349.13 1.21663 1.07874 0
M  V30 24629 O 2350.32 1.50585 1.13386 0
M  V30 24630 C 2347.44 2.92164 1.71341 0
M  V30 24631 C 2346.49 4.06893 1.27831 0
M  V30 24632 S 2347.32 5.34793 0.275123 0
M  V30 24633 C 2348.48 6.08198 1.47805 0
M  V30 24634 H 2348.71 2.97217 -0.0701577 0
M  V30 24635 H 2346.25 1.53619 -0.155065 0
M  V30 24636 H 2348.2 3.33045 2.39982 0
M  V30 24637 H 2346.86 2.16935 2.27152 0
M  V30 24638 H 2346.06 4.54829 2.17133 0
M  V30 24639 H 2345.66 3.67931 0.671041 0
M  V30 24640 H 2347.95 6.33255 2.4082 0
M  V30 24641 H 2348.89 7.00422 1.03996 0
M  V30 24642 H 2349.3 5.38717 1.68654 0
M  V30 24643 N 2348.7 0.100255 1.57281 0
M  V30 24644 C 2349.63 -0.853819 2.1733 0
M  V30 24645 C 2350.61 -1.29058 1.10806 0
M  V30 24646 O 2351.8 -1.35655 1.38966 0
M  V30 24647 C 2348.93 -2.11104 2.75776 0
M  V30 24648 C 2347.88 -1.81273 3.87717 0
M  V30 24649 C 2347.21 -3.13867 4.32888 0
M  V30 24650 C 2348.51 -1.09565 5.10679 0
M  V30 24651 H 2350.2 -0.353493 2.97306 0
M  V30 24652 H 2347.75 -0.168587 1.4301 0
M  V30 24653 H 2349.7 -2.7829 3.16437 0
M  V30 24654 H 2348.42 -2.63429 1.93061 0
M  V30 24655 H 2347.08 -1.16483 3.47602 0
M  V30 24656 H 2346.73 -3.64089 3.47057 0
M  V30 24657 H 2346.43 -2.94687 5.08363 0
M  V30 24658 H 2347.95 -3.82202 4.76187 0
M  V30 24659 H 2349.37 -1.66869 5.48477 0
M  V30 24660 H 2347.77 -1.00546 5.91617 0
M  V30 24661 H 2348.84 -0.0792447 4.84835 0
M  V30 24662 N 2350.18 -1.56643 -0.17346 0
M  V30 24663 C 2351.43 -1.81513 -0.888674 0
M  V30 24664 C 2351.75 -0.676904 -1.82874 0
M  V30 24665 O 2351.02 0.30338 -1.93537 0
M  V30 24666 H 2349.6 -0.669588 -0.331152 0
M  V30 24667 H 2352.26 -1.94124 -0.173789 0
M  V30 24668 H 2351.36 -2.75481 -1.46686 0
M  V30 24669 N 2351.66 0.44194 -1.51277 0
M  V30 24670 C 2352.9 1.19352 -1.6396 0
M  V30 24671 C 2353.24 1.90973 -0.352577 0
M  V30 24672 O 2352.51 1.83402 0.647595 0
M  V30 24673 C 2352.79 2.21417 -2.83983 0
M  V30 24674 C 2352.65 1.5391 -4.22648 0
M  V30 24675 C 2353.97 3.22446 -2.99527 0
M  V30 24676 H 2351.09 0.432549 -0.596716 0
M  V30 24677 H 2353.73 0.483366 -1.83749 0
M  V30 24678 H 2351.88 2.81982 -2.67242 0
M  V30 24679 H 2353.55 0.967177 -4.51047 0
M  V30 24680 H 2351.79 0.84154 -4.25559 0
M  V30 24681 H 2352.46 2.2822 -5.02613 0
M  V30 24682 H 2354.94 2.71931 -3.14949 0
M  V30 24683 H 2353.82 3.91159 -3.85079 0
M  V30 24684 H 2354.08 3.88283 -2.11397 0
M  V30 24685 N 2353.14 1.41345 0.697083 0
M  V30 24686 C 2354.09 1.39542 1.80311 0
M  V30 24687 C 2355.07 0.270029 1.58618 0
M  V30 24688 O 2356.26 0.510581 1.69476 0
M  V30 24689 C 2353.39 1.27854 3.18604 0
M  V30 24690 C 2352.48 2.4525 3.45996 0
M  V30 24691 N 2352.87 3.70717 3.44097 0
M  V30 24692 C 2351.17 2.3903 3.76538 0
M  V30 24693 C 2351.87 4.48569 3.70352 0
M  V30 24694 N 2350.84 3.78662 3.90021 0
M  V30 24695 H 2354.64 2.34471 1.77202 0
M  V30 24696 H 2352.16 1.35379 0.897008 0
M  V30 24697 H 2354.16 1.24644 3.97831 0
M  V30 24698 H 2352.82 0.339089 3.22925 0
M  V30 24699 H 2353.83 4.03624 3.24513 0
M  V30 24700 H 2350.5 1.53549 3.88238 0
M  V30 24701 H 2351.89 5.57495 3.75032 0
M  V30 24702 N 2354.61 -0.931187 1.27148 0
M  V30 24703 C 2355.89 -1.65653 1.04012 0
M  V30 24704 C 2356.27 -2.06752 -0.426261 0
M  V30 24705 O 2355.62 -1.79906 -1.40876 0
M  V30 24706 C 2355.83 -2.86121 1.99839 0
M  V30 24707 C 2357.18 -3.57545 2.29013 0
M  V30 24708 O 2358.2 -2.96243 1.97784 0
M  V30 24709 O 2357.06 -4.67984 2.8223 0
M  V30 24710 H 2354.15 -0.725888 0.396252 0
M  V30 24711 H 2356.7 -0.982032 1.38399 0
M  V30 24712 H 2355.47 -2.52716 2.98748 0
M  V30 24713 H 2355.09 -3.61292 1.65993 0
M  V30 24714 N 2356.09 -1.09114 -1.13719 0
M  V30 24715 C 2357.04 -0.722258 -2.21102 0
M  V30 24716 C 2358.03 0.275344 -1.67147 0
M  V30 24717 O 2359.24 0.137144 -1.79477 0
M  V30 24718 H 2355.61 -0.215565 -0.720441 0
M  V30 24719 H 2357.59 -1.63714 -2.4948 0
M  V30 24720 C 2356.33 -0.155491 -3.47352 0
M  V30 24721 H 2355.66 -0.914314 -3.89205 0
M  V30 24722 H 2357.1 0.0647221 -4.23951 0
M  V30 24723 C 2355.56 1.10847 -3.18142 0
M  V30 24724 O 2356.09 2.19221 -3.36608 0
M  V30 24725 N 2354.29 1.02171 -2.72047 0
M  V30 24726 H 2353.84 0.139719 -2.57221 0
M  V30 24727 H 2353.8 1.86815 -2.52878 0
M  V30 24728 N 2357.57 1.30887 -0.877861 0
M  V30 24729 C 2358.82 1.96705 -0.49346 0
M  V30 24730 C 2359.15 1.69182 0.953474 0
M  V30 24731 O 2358.42 0.992624 1.67264 0
M  V30 24732 C 2358.71 3.51978 -0.760491 0
M  V30 24733 C 2358.56 3.89044 -2.25753 0
M  V30 24734 C 2359.88 4.39487 -0.232226 0
M  V30 24735 H 2357 0.714489 -0.180759 0
M  V30 24736 H 2359.64 1.5488 -1.10055 0
M  V30 24737 H 2357.79 3.87734 -0.243783 0
M  V30 24738 H 2359.46 3.63349 -2.8421 0
M  V30 24739 H 2357.7 3.37368 -2.727 0
M  V30 24740 H 2358.38 4.97337 -2.395 0
M  V30 24741 H 2360.85 4.10599 -0.674386 0
M  V30 24742 H 2359.73 5.47065 -0.448451 0
M  V30 24743 H 2359.99 4.33531 0.86622 0
M  V30 24744 N 2359.05 0.638091 1.44105 0
M  V30 24745 C 2360.01 -0.053061 2.29139 0
M  V30 24746 C 2361.01 -0.765481 1.41411 0
M  V30 24747 O 2362.2 -0.609017 1.63207 0
M  V30 24748 C 2359.33 -1.08579 3.23146 0
M  V30 24749 H 2360.53 0.694934 2.91737 0
M  V30 24750 H 2358.08 0.398565 1.51133 0
M  V30 24751 H 2358.81 -1.86353 2.65411 0
M  V30 24752 H 2358.6 -0.578784 3.87805 0
M  V30 24753 H 2360.09 -1.56893 3.87007 0
M  V30 24754 N 2360.53 -1.52973 0.379063 0
M  V30 24755 C 2361.77 -2.00629 -0.207577 0
M  V30 24756 C 2362.09 -1.27008 -1.48756 0
M  V30 24757 O 2363.29 -1.65322 -2.15362 0
M  V30 24758 C 2361.75 -3.57435 -0.420467 0
M  V30 24759 C 2361.36 -4.39946 0.845664 0
M  V30 24760 C 2363.1 -4.13409 -0.964029 0
M  V30 24761 C 2361.01 -5.88332 0.601616 0
M  V30 24762 H 2359.94 -0.749599 -0.0813459 0
M  V30 24763 H 2362.59 -1.7656 0.499884 0
M  V30 24764 H 2360.97 -3.77712 -1.18952 0
M  V30 24765 H 2362.15 -4.31439 1.61855 0
M  V30 24766 H 2360.46 -3.95143 1.31343 0
M  V30 24767 H 2363.06 -5.21918 -1.16216 0
M  V30 24768 H 2363.4 -3.68852 -1.93012 0
M  V30 24769 H 2363.93 -3.96983 -0.2548 0
M  V30 24770 H 2360.67 -6.37191 1.53842 0
M  V30 24771 H 2360.19 -5.99654 -0.132523 0
M  V30 24772 H 2361.87 -6.46583 0.232247 0
M  V30 24773 N 2362 -0.108595 -1.57225 0
M  V30 24774 C 2362.93 0.842282 -2.17779 0
M  V30 24775 C 2363.91 1.28469 -1.11489 0
M  V30 24776 O 2365.1 1.34916 -1.39683 0
M  V30 24777 C 2362.23 2.09639 -2.76891 0
M  V30 24778 C 2361.18 1.79214 -3.88673 0
M  V30 24779 C 2360.51 3.11567 -4.34546 0
M  V30 24780 C 2361.81 1.06855 -5.11253 0
M  V30 24781 H 2363.5 0.337721 -2.97489 0
M  V30 24782 H 2361.05 0.161 -1.43097 0
M  V30 24783 H 2363 2.76608 -3.17909 0
M  V30 24784 H 2361.73 2.62401 -1.94456 0
M  V30 24785 H 2360.39 1.14638 -3.48215 0
M  V30 24786 H 2360.03 3.62243 -3.48983 0
M  V30 24787 H 2359.73 2.91987 -5.09919 0
M  V30 24788 H 2361.26 3.79672 -4.78207 0
M  V30 24789 H 2362.67 1.63958 -5.49355 0
M  V30 24790 H 2361.07 0.974074 -5.92142 0
M  V30 24791 H 2362.14 0.0535316 -4.8487 0
M  V30 24792 N 2363.48 1.56732 0.16515 0
M  V30 24793 C 2364.89 1.71963 0.727016 0
M  V30 24794 C 2365.24 0.72011 1.82507 0
M  V30 24795 O 2364.37 -0.117204 2.16082 0
M  V30 24796 C 2364.96 3.11793 1.32554 0
M  V30 24797 C 2363.52 3.28688 1.83416 0
M  V30 24798 C 2362.67 2.6791 0.71552 0
M  V30 24799 H 2365.62 1.58585 -0.0603175 0
M  V30 24800 H 2365.64 3.10786 2.19528 0
M  V30 24801 H 2365.15 3.84517 0.526127 0
M  V30 24802 H 2363.25 2.6093 2.65981 0
M  V30 24803 H 2363.37 4.36482 1.97536 0
M  V30 24804 H 2361.73 2.27886 1.13754 0
M  V30 24805 H 2362.51 3.43224 -0.0721439 0
M  V30 24806 N 2364.96 -0.433911 1.51509 0
M  V30 24807 C 2366.19 -1.2054 1.68159 0
M  V30 24808 C 2366.6 -1.84928 0.380395 0
M  V30 24809 O 2365.96 -1.70857 -0.641416 0
M  V30 24810 C 2366.01 -2.28691 2.79969 0
M  V30 24811 O 2365.73 -1.66936 4.05048 0
M  V30 24812 C 2367.23 -3.18907 3.07918 0
M  V30 24813 H 2364.45 -0.363181 0.564217 0
M  V30 24814 H 2367 -0.513719 1.97942 0
M  V30 24815 H 2365.15 -2.9357 2.52776 0
M  V30 24816 H 2365.57 -2.3844 4.67169 0
M  V30 24817 H 2367.04 -3.90919 3.89726 0
M  V30 24818 H 2367.52 -3.79859 2.20463 0
M  V30 24819 H 2368.12 -2.59725 3.36783 0
M  V30 24820 N 2366.44 -1.41713 -0.689577 0
M  V30 24821 C 2367.39 -1.40497 -1.79568 0
M  V30 24822 C 2368.37 -0.278437 -1.58473 0
M  V30 24823 O 2369.56 -0.519562 -1.69203 0
M  V30 24824 C 2366.69 -1.29542 -3.17921 0
M  V30 24825 C 2365.78 -2.47081 -3.44691 0
M  V30 24826 N 2366.17 -3.72537 -3.42126 0
M  V30 24827 C 2364.47 -2.41023 -3.75265 0
M  V30 24828 C 2365.17 -4.50527 -3.67968 0
M  V30 24829 N 2364.15 -3.80725 -3.88007 0
M  V30 24830 H 2367.95 -2.35407 -1.75956 0
M  V30 24831 H 2365.46 -1.35853 -0.889816 0
M  V30 24832 H 2367.46 -1.26752 -3.97164 0
M  V30 24833 H 2366.12 -0.356209 -3.2274 0
M  V30 24834 H 2367.13 -4.05339 -3.22368 0
M  V30 24835 H 2363.81 -1.55606 -3.87419 0
M  V30 24836 H 2365.2 -5.59476 -3.7207 0
M  V30 24837 N 2367.92 0.924431 -1.2764 0
M  V30 24838 C 2368.88 2.00703 -1.10684 0
M  V30 24839 C 2369.88 1.60723 -0.0498106 0
M  V30 24840 O 2371.07 1.71689 -0.294684 0
M  V30 24841 C 2368.2 3.33901 -0.687223 0
M  V30 24842 H 2369.39 2.17175 -2.06821 0
M  V30 24843 H 2366.95 1.10567 -1.10475 0
M  V30 24844 H 2367.68 3.23129 0.275382 0
M  V30 24845 H 2367.47 3.64277 -1.45067 0
M  V30 24846 H 2368.96 4.13398 -0.590925 0
M  V30 24847 N 2369.39 1.09715 1.13139 0
M  V30 24848 C 2370.36 0.742789 2.1683 0
M  V30 24849 C 2371.36 -0.229101 1.5916 0
M  V30 24850 O 2372.55 -0.00690175 1.74199 0
M  V30 24851 C 2369.68 0.0989767 3.40756 0
M  V30 24852 H 2370.87 1.66114 2.49692 0
M  V30 24853 H 2368.43 0.896721 1.28018 0
M  V30 24854 H 2369.16 -0.830459 3.13487 0
M  V30 24855 H 2368.95 0.798333 3.83887 0
M  V30 24856 H 2370.44 -0.13345 4.17387 0
M  V30 24857 N 2370.87 -1.30419 0.88479 0
M  V30 24858 C 2372.28 -1.78301 0.553688 0
M  V30 24859 C 2372.63 -1.72752 -0.930122 0
M  V30 24860 O 2371.76 -1.30426 -1.72679 0
M  V30 24861 C 2372.35 -3.23759 0.998291 0
M  V30 24862 C 2370.91 -3.69477 0.718605 0
M  V30 24863 C 2370.06 -2.50876 1.18137 0
M  V30 24864 H 2373.01 -1.17292 1.06903 0
M  V30 24865 H 2373.03 -3.79091 0.327184 0
M  V30 24866 H 2372.54 -3.27765 2.07826 0
M  V30 24867 H 2370.65 -3.70958 -0.349378 0
M  V30 24868 H 2370.76 -4.60955 1.30603 0
M  V30 24869 H 2369.12 -2.47515 0.600713 0
M  V30 24870 H 2369.91 -2.5762 2.26907 0
M  V30 24871 N 2372.35 -0.645724 -1.43764 0
M  V30 24872 C 2373.6 -0.155767 -2.01499 0
M  V30 24873 C 2373.92 1.23197 -1.51154 0
M  V30 24874 O 2373.19 1.82146 -0.721076 0
M  V30 24875 H 2371.77 -0.0545948 -0.745002 0
M  V30 24876 H 2374.43 -0.835708 -1.76074 0
M  V30 24877 H 2373.53 -0.134631 -3.11809 0
M  V30 24878 N 2373.83 1.5277 -0.38717 0
M  V30 24879 C 2374.74 2.30118 0.456401 0
M  V30 24880 C 2375.75 1.36946 1.0734 0
M  V30 24881 O 2376.93 1.70015 1.07968 0
M  V30 24882 C 2374 3.09139 1.56952 0
M  V30 24883 C 2373.06 4.18015 0.977842 0
M  V30 24884 C 2372.29 4.93259 2.03791 0
M  V30 24885 O 2372.51 4.68573 3.25263 0
M  V30 24886 O 2371.45 5.7866 1.6564 0
M  V30 24887 H 2375.27 3.03203 -0.173643 0
M  V30 24888 H 2372.86 1.48636 -0.150945 0
M  V30 24889 H 2374.74 3.58416 2.21621 0
M  V30 24890 H 2373.41 2.38869 2.18456 0
M  V30 24891 H 2372.32 3.72939 0.29446 0
M  V30 24892 H 2373.65 4.90514 0.407042 0
M  V30 24893 N 2375.31 0.116931 1.57166 0
M  V30 24894 C 2376.53 -0.549348 1.99474 0
M  V30 24895 C 2376.95 -1.60356 0.996569 0
M  V30 24896 O 2376.31 -1.82497 -0.0108411 0
M  V30 24897 C 2376.36 -1.17735 3.4179 0
M  V30 24898 O 2376.08 -0.165285 4.37788 0
M  V30 24899 C 2377.58 -1.92715 3.99219 0
M  V30 24900 H 2374.8 -0.145605 0.655012 0
M  V30 24901 H 2377.34 0.20266 2.03493 0
M  V30 24902 H 2375.5 -1.88016 3.38717 0
M  V30 24903 H 2375.91 -0.621312 5.20807 0
M  V30 24904 H 2377.39 -2.31986 5.00886 0
M  V30 24905 H 2377.86 -2.80155 3.38245 0
M  V30 24906 H 2378.47 -1.27202 4.05832 0
M  V30 24907 N 2376.78 -1.56818 -0.156836 0
M  V30 24908 C 2378.03 -1.81997 -0.869472 0
M  V30 24909 C 2378.35 -0.696577 -1.82776 0
M  V30 24910 O 2379.55 -0.833703 -2.58383 0
M  V30 24911 C 2378.01 -3.2254 -1.59674 0
M  V30 24912 C 2377.62 -4.42788 -0.681354 0
M  V30 24913 C 2379.36 -3.57002 -2.29674 0
M  V30 24914 C 2377.27 -5.74354 -1.40968 0
M  V30 24915 H 2376.2 -0.678714 -0.328426 0
M  V30 24916 H 2378.85 -1.83092 -0.122268 0
M  V30 24917 H 2377.23 -3.15804 -2.38922 0
M  V30 24918 H 2378.4 -4.60739 0.0751976 0
M  V30 24919 H 2376.72 -4.16302 -0.0902699 0
M  V30 24920 H 2379.32 -4.52549 -2.84786 0
M  V30 24921 H 2379.66 -2.82581 -3.05702 0
M  V30 24922 H 2380.19 -3.65355 -1.57355 0
M  V30 24923 H 2376.93 -6.51843 -0.691446 0
M  V30 24924 H 2376.45 -5.60356 -2.13919 0
M  V30 24925 H 2378.13 -6.16812 -1.95326 0
M  V30 24926 N 2378.26 0.425871 -1.51737 0
M  V30 24927 C 2379.51 1.17133 -1.64203 0
M  V30 24928 C 2379.82 1.92074 -0.369739 0
M  V30 24929 O 2381.03 2.68912 -0.373945 0
M  V30 24930 C 2379.49 2.13086 -2.90039 0
M  V30 24931 C 2379.09 1.4374 -4.24315 0
M  V30 24932 C 2380.84 2.87994 -3.11865 0
M  V30 24933 C 2378.75 2.38243 -5.41289 0
M  V30 24934 H 2377.68 0.440933 -0.611632 0
M  V30 24935 H 2380.33 0.437296 -1.78213 0
M  V30 24936 H 2378.71 2.89972 -2.69689 0
M  V30 24937 H 2379.88 0.723328 -4.55087 0
M  V30 24938 H 2378.2 0.809393 -4.08458 0
M  V30 24939 H 2380.79 3.5881 -3.96433 0
M  V30 24940 H 2381.14 3.49995 -2.2541 0
M  V30 24941 H 2381.67 2.18212 -3.32609 0
M  V30 24942 H 2378.41 1.80914 -6.3004 0
M  V30 24943 H 2377.93 3.07671 -5.14878 0
M  V30 24944 H 2379.61 2.99129 -5.73699 0
M  V30 24945 N 2379.74 1.42077 0.682052 0
M  V30 24946 C 2380.99 1.42369 1.44426 0
M  V30 24947 C 2381.32 0.0373397 1.94164 0
M  V30 24948 O 2380.59 -0.93721 1.70431 0
M  V30 24949 C 2380.88 2.44198 2.64649 0
M  V30 24950 C 2380.73 3.91995 2.20589 0
M  V30 24951 C 2382.05 2.43107 3.66861 0
M  V30 24952 H 2379.17 0.518437 0.523825 0
M  V30 24953 H 2381.81 1.73443 0.77573 0
M  V30 24954 H 2379.96 2.17831 3.21686 0
M  V30 24955 H 2381.63 4.29316 1.68776 0
M  V30 24956 H 2379.88 4.06211 1.52235 0
M  V30 24957 H 2380.55 4.58812 3.06913 0
M  V30 24958 H 2383.02 2.66537 3.19526 0
M  V30 24959 H 2381.9 3.16347 4.48571 0
M  V30 24960 H 2382.16 1.45444 4.17491 0
M  V30 24961 N 2381.22 -0.917649 1.28129 0
M  V30 24962 C 2382.5 -1.6454 1.05764 0
M  V30 24963 C 2382.88 -2.07192 -0.404308 0
M  V30 24964 O 2382.22 -1.8139 -1.3896 0
M  V30 24965 C 2382.43 -2.83986 2.02862 0
M  V30 24966 C 2383.78 -3.55096 2.32792 0
M  V30 24967 O 2384.81 -2.94128 2.00915 0
M  V30 24968 O 2383.67 -4.64964 2.87178 0
M  V30 24969 H 2380.76 -0.721645 0.403928 0
M  V30 24970 H 2383.31 -0.967298 1.39433 0
M  V30 24971 H 2382.08 -2.49533 3.01412 0
M  V30 24972 H 2381.7 -3.59511 1.69816 0
M  V30 24973 N 2382.7 -1.10314 -1.12555 0
M  V30 24974 C 2383.95 -0.843123 -1.83673 0
M  V30 24975 C 2384.27 0.633099 -1.84437 0
M  V30 24976 O 2383.54 1.45962 -1.3066 0
M  V30 24977 H 2382.12 -0.308916 -0.680132 0
M  V30 24978 H 2384.78 -1.39315 -1.36299 0
M  V30 24979 H 2383.87 -1.20485 -2.87906 0
M  V30 24980 N 2384.18 1.29948 -0.891694 0
M  V30 24981 C 2385.12 2.27947 -0.361776 0
M  V30 24982 C 2386.09 1.56669 0.551733 0
M  V30 24983 O 2387.28 1.84697 0.478703 0
M  V30 24984 C 2384.42 3.42635 0.411764 0
M  V30 24985 C 2383.53 4.28715 -0.531726 0
M  V30 24986 C 2382.67 5.30573 0.258074 0
M  V30 24987 C 2381.7 6.08306 -0.680455 0
M  V30 24988 N 2380.84 7.02061 0.0744379 0
M  V30 24989 H 2385.68 2.72657 -1.20259 0
M  V30 24990 H 2383.22 1.34111 -0.604376 0
M  V30 24991 H 2385.18 4.07895 0.876232 0
M  V30 24992 H 2383.81 2.98976 1.2171 0
M  V30 24993 H 2382.86 3.63701 -1.1147 0
M  V30 24994 H 2384.17 4.82871 -1.25046 0
M  V30 24995 H 2383.32 6.01612 0.784098 0
M  V30 24996 H 2382.06 4.77127 1.00999 0
M  V30 24997 H 2381.07 5.36138 -1.21805 0
M  V30 24998 H 2382.29 6.63839 -1.43157 0
M  V30 24999 H 2380.24 6.50995 0.808769 0
M  V30 25000 H 2380.16 7.53737 -0.584542 0
M  V30 25001 H 2381.42 7.77332 0.580986 0
M  V30 25002 N 2385.65 0.653339 1.4342 0
M  V30 25003 C 2386.56 -0.0388153 2.34568 0
M  V30 25004 C 2387.58 -0.812043 1.53889 0
M  V30 25005 O 2388.76 -0.759261 1.8654 0
M  V30 25006 C 2385.82 -0.99321 3.32169 0
M  V30 25007 C 2384.88 -0.216902 4.28752 0
M  V30 25008 C 2384.11 -1.12584 5.2169 0
M  V30 25009 O 2384.34 -2.3651 5.19056 0
M  V30 25010 O 2383.27 -0.598179 5.9892 0
M  V30 25011 H 2387.1 0.711438 2.95249 0
M  V30 25012 H 2384.68 0.413527 1.43563 0
M  V30 25013 H 2386.56 -1.54169 3.92186 0
M  V30 25014 H 2385.24 -1.72369 2.7399 0
M  V30 25015 H 2384.15 0.375166 3.72214 0
M  V30 25016 H 2385.48 0.474011 4.89912 0
M  V30 25017 N 2387.13 -1.52563 0.395266 0
M  V30 25018 C 2388.38 -2.01952 -0.185282 0
M  V30 25019 C 2388.71 -1.28097 -1.45961 0
M  V30 25020 O 2387.99 -0.383183 -1.90688 0
M  V30 25021 C 2388.27 -3.57313 -0.447131 0
M  V30 25022 C 2388.12 -4.41832 0.842906 0
M  V30 25023 C 2389.44 -4.2241 -1.23522 0
M  V30 25024 H 2386.56 -0.734051 -0.0658659 0
M  V30 25025 H 2389.2 -1.82574 0.526007 0
M  V30 25026 H 2387.35 -3.73956 -1.05305 0
M  V30 25027 H 2389.02 -4.36928 1.47957 0
M  V30 25028 H 2387.27 -4.08603 1.45693 0
M  V30 25029 H 2387.94 -5.48572 0.614262 0
M  V30 25030 H 2390.41 -4.09782 -0.722373 0
M  V30 25031 H 2389.29 -5.31083 -1.38718 0
M  V30 25032 H 2389.55 -3.8044 -2.25207 0
M  V30 25033 N 2388.61 -0.125265 -1.57101 0
M  V30 25034 C 2389.52 0.836161 -2.19193 0
M  V30 25035 C 2390.54 1.28802 -1.16987 0
M  V30 25036 O 2391.71 1.34972 -1.49481 0
M  V30 25037 C 2388.78 2.06612 -2.78411 0
M  V30 25038 C 2387.84 1.66558 -3.95673 0
M  V30 25039 C 2387.07 2.8369 -4.52057 0
M  V30 25040 O 2387.29 3.99295 -4.07333 0
M  V30 25041 O 2386.23 2.60414 -5.42649 0
M  V30 25042 H 2390.05 0.337723 -3.01816 0
M  V30 25043 H 2387.64 0.100669 -1.4906 0
M  V30 25044 H 2389.52 2.78635 -3.16134 0
M  V30 25045 H 2388.2 2.5545 -1.98814 0
M  V30 25046 H 2387.1 0.916232 -3.62706 0
M  V30 25047 H 2388.44 1.22456 -4.76724 0
M  V30 25048 N 2390.09 1.56899 0.148518 0
M  V30 25049 C 2391.34 1.82456 0.859808 0
M  V30 25050 C 2391.65 0.706261 1.82404 0
M  V30 25051 O 2392.86 0.847394 2.57937 0
M  V30 25052 C 2391.31 3.23383 1.57961 0
M  V30 25053 C 2390.92 4.43144 0.657862 0
M  V30 25054 C 2392.66 3.58215 2.27778 0
M  V30 25055 C 2390.57 5.75093 1.3792 0
M  V30 25056 H 2389.5 0.680446 0.324822 0
M  V30 25057 H 2392.15 1.83154 0.112556 0
M  V30 25058 H 2390.53 3.17067 2.37244 0
M  V30 25059 H 2391.71 4.60692 -0.0996307 0
M  V30 25060 H 2390.02 4.16344 0.0681911 0
M  V30 25061 H 2392.62 4.54053 2.82382 0
M  V30 25062 H 2392.96 2.84198 3.04199 0
M  V30 25063 H 2393.5 3.66184 1.55415 0
M  V30 25064 H 2390.23 6.52201 0.656867 0
M  V30 25065 H 2389.75 5.61482 2.10944 0
M  V30 25066 H 2391.43 6.17839 1.92053 0
M  V30 25067 N 2391.57 -0.417818 1.51961 0
M  V30 25068 C 2392.5 -1.51551 1.77636 0
M  V30 25069 C 2393.48 -1.58125 0.626946 0
M  V30 25070 O 2394.66 -1.73539 0.871662 0
M  V30 25071 C 2391.79 -2.89457 1.91917 0
M  V30 25072 C 2390.75 -2.97737 3.07468 0
M  V30 25073 C 2390.07 -4.37813 3.06959 0
M  V30 25074 C 2391.37 -2.70019 4.47087 0
M  V30 25075 H 2393.07 -1.30315 2.69552 0
M  V30 25076 H 2390.61 -0.625469 1.29707 0
M  V30 25077 H 2392.56 -3.66226 2.08461 0
M  V30 25078 H 2391.29 -3.11967 0.966653 0
M  V30 25079 H 2389.95 -2.23411 2.9066 0
M  V30 25080 H 2389.6 -4.5732 2.09446 0
M  V30 25081 H 2389.3 -4.4428 3.84564 0
M  V30 25082 H 2390.82 -5.16529 3.25622 0
M  V30 25083 H 2392.23 -3.36514 4.64145 0
M  V30 25084 H 2390.63 -2.87872 5.26545 0
M  V30 25085 H 2391.7 -1.65506 4.5578 0
M  V30 25086 N 2393.04 -1.42436 -0.674508 0
M  V30 25087 C 2394.32 -1.33405 -1.43047 0
M  V30 25088 C 2394.7 0.0284303 -2.11081 0
M  V30 25089 O 2394.05 1.04394 -2.03259 0
M  V30 25090 C 2394.26 -2.50243 -2.43268 0
M  V30 25091 C 2395.61 -2.92372 -3.07902 0
M  V30 25092 O 2396.63 -2.50136 -2.53595 0
M  V30 25093 O 2395.49 -3.65474 -4.06314 0
M  V30 25094 H 2392.58 -0.526118 -0.638067 0
M  V30 25095 H 2395.13 -1.54444 -0.703207 0
M  V30 25096 H 2393.9 -3.41071 -1.91797 0
M  V30 25097 H 2393.52 -2.31192 -3.23475 0
M  V30 25098 N 2394.52 0.910841 -1.28614 0
M  V30 25099 C 2395.48 1.99518 -1.12807 0
M  V30 25100 C 2396.48 1.60661 -0.0668546 0
M  V30 25101 O 2397.67 1.71367 -0.312878 0
M  V30 25102 C 2394.81 3.33154 -0.722599 0
M  V30 25103 H 2396 2.1497 -2.09113 0
M  V30 25104 H 2393.55 1.09389 -1.11641 0
M  V30 25105 H 2394.29 3.23403 0.241095 0
M  V30 25106 H 2394.07 3.62718 -1.48923 0
M  V30 25107 H 2395.56 4.12748 -0.634739 0
M  V30 25108 N 2396 1.10909 1.11969 0
M  V30 25109 C 2397.42 0.841876 1.3559 0
M  V30 25110 C 2397.62 -0.536212 1.94234 0
M  V30 25111 O 2396.67 -1.28812 2.17172 0
M  V30 25112 C 2397.99 1.94553 2.29281 0
M  V30 25113 C 2399.53 1.97455 2.42859 0
M  V30 25114 C 2400.01 3.07008 3.39868 0
M  V30 25115 N 2401.5 3.06347 3.47427 0
M  V30 25116 C 2402.23 3.87755 4.22414 0
M  V30 25117 N 2401.73 4.79112 5.00424 0
M  V30 25118 N 2403.52 3.75954 4.1787 0
M  V30 25119 H 2395.67 1.99729 0.722629 0
M  V30 25120 H 2397.94 0.868235 0.38062 0
M  V30 25121 H 2397.64 2.93769 1.93373 0
M  V30 25122 H 2397.52 1.83694 3.29449 0
M  V30 25123 H 2399.9 0.988694 2.78045 0
M  V30 25124 H 2399.99 2.12391 1.42562 0
M  V30 25125 H 2399.63 4.05816 3.0541 0
M  V30 25126 H 2399.56 2.89313 4.40006 0
M  V30 25127 H 2402.05 2.40152 2.9178 0
M  V30 25128 H 2402.36 5.37776 5.54993 0
M  V30 25129 H 2400.71 4.83137 4.99603 0
M  V30 25130 H 2403.9 3.03931 3.56011 0
M  V30 25131 H 2404.07 4.39633 4.76054 0
M  V30 25132 N 2397.48 -1.29474 0.898573 0
M  V30 25133 C 2398.44 -2.26023 0.380311 0
M  V30 25134 C 2399.44 -1.53316 -0.484864 0
M  V30 25135 O 2400.63 -1.71768 -0.290077 0
M  V30 25136 C 2397.76 -3.3783 -0.456451 0
M  V30 25137 H 2398.96 -2.73381 1.233 0
M  V30 25138 H 2396.51 -1.40896 0.676614 0
M  V30 25139 H 2397.24 -2.9581 -1.32917 0
M  V30 25140 H 2397.03 -3.91759 0.163462 0
M  V30 25141 H 2398.52 -4.09661 -0.810394 0
M  V30 25142 N 2398.96 -0.660936 -1.43071 0
M  V30 25143 C 2399.89 0.0122419 -2.33497 0
M  V30 25144 C 2400.87 0.803899 -1.49905 0
M  V30 25145 O 2402.05 0.763833 -1.78548 0
M  V30 25146 C 2399.18 0.973936 -3.33364 0
M  V30 25147 C 2398.14 0.291852 -4.27004 0
M  V30 25148 C 2397.46 1.36553 -5.16969 0
M  V30 25149 C 2398.76 -0.820552 -5.15814 0
M  V30 25150 H 2400.46 -0.742924 -2.90036 0
M  V30 25151 H 2398 -0.358713 -1.39461 0
M  V30 25152 H 2399.96 1.45385 -3.95527 0
M  V30 25153 H 2398.68 1.76036 -2.75098 0
M  V30 25154 H 2397.34 -0.167687 -3.66216 0
M  V30 25155 H 2396.99 2.14358 -4.55038 0
M  V30 25156 H 2396.69 0.914352 -5.80442 0
M  V30 25157 H 2398.21 1.84665 -5.82006 0
M  V30 25158 H 2399.62 -0.422467 -5.71741 0
M  V30 25159 H 2398.02 -1.19667 -5.88048 0
M  V30 25160 H 2399.09 -1.67526 -4.55042 0
M  V30 25161 N 2400.43 1.52351 -0.403352 0
M  V30 25162 C 2401.34 2.30589 0.431969 0
M  V30 25163 C 2402.36 1.38077 1.05881 0
M  V30 25164 O 2403.54 1.7115 1.06158 0
M  V30 25165 C 2400.6 3.10787 1.53664 0
M  V30 25166 C 2399.66 4.19029 0.933451 0
M  V30 25167 C 2398.9 4.95393 1.98548 0
M  V30 25168 O 2399.12 4.71996 3.20274 0
M  V30 25169 O 2398.05 5.80384 1.59493 0
M  V30 25170 H 2401.88 3.03002 -0.205792 0
M  V30 25171 H 2399.46 1.48467 -0.166702 0
M  V30 25172 H 2401.35 3.60746 2.17808 0
M  V30 25173 H 2400.02 2.41173 2.15911 0
M  V30 25174 H 2398.93 3.73231 0.254888 0
M  V30 25175 H 2400.26 4.90918 0.354993 0
M  V30 25176 N 2401.91 0.133594 1.57033 0
M  V30 25177 C 2403.19 -0.565187 1.87257 0
M  V30 25178 C 2403.57 -1.83857 1.03729 0
M  V30 25179 O 2402.92 -2.28183 0.120287 0
M  V30 25180 C 2403.13 -0.843576 3.38651 0
M  V30 25181 C 2404.48 -1.19025 4.07576 0
M  V30 25182 O 2405.5 -0.933368 3.43754 0
M  V30 25183 O 2404.36 -1.67303 5.20262 0
M  V30 25184 H 2401.45 -0.286783 0.775683 0
M  V30 25185 H 2404 0.169198 1.68854 0
M  V30 25186 H 2402.77 0.0581836 3.91257 0
M  V30 25187 H 2402.39 -1.63261 3.62535 0
M  V30 25188 N 2403.39 -1.56975 -0.140195 0
M  V30 25189 C 2404.32 -1.9539 -1.19814 0
M  V30 25190 C 2405.34 -0.85055 -1.38815 0
M  V30 25191 O 2406.52 -1.12894 -1.38265 0
M  V30 25192 C 2403.62 -2.21862 -2.56185 0
M  V30 25193 C 2402.8 -3.53154 -2.58071 0
M  V30 25194 C 2401.86 -3.68086 -3.7603 0
M  V30 25195 O 2400.88 -4.40412 -3.60591 0
M  V30 25196 N 2402.08 -3.0526 -4.93758 0
M  V30 25197 H 2404.85 -2.86747 -0.871559 0
M  V30 25198 H 2402.41 -1.58508 -0.329692 0
M  V30 25199 H 2404.4 -2.29086 -3.33619 0
M  V30 25200 H 2402.97 -1.36736 -2.81109 0
M  V30 25201 H 2402.19 -3.5731 -1.66504 0
M  V30 25202 H 2403.48 -4.39491 -2.56369 0
M  V30 25203 H 2402.88 -2.46428 -5.09205 0
M  V30 25204 H 2401.44 -3.18036 -5.68943 0
M  V30 25205 N 2404.87 0.409753 -1.5218 0
M  V30 25206 C 2405.83 1.48183 -1.74855 0
M  V30 25207 C 2406.83 1.48432 -0.618443 0
M  V30 25208 O 2408.02 1.49967 -0.886312 0
M  V30 25209 C 2405.15 2.87595 -1.83035 0
M  V30 25210 H 2406.35 1.2937 -2.70561 0
M  V30 25211 H 2403.9 0.640208 -1.42587 0
M  V30 25212 H 2404.63 3.11779 -0.892415 0
M  V30 25213 H 2404.42 2.88818 -2.65192 0
M  V30 25214 H 2405.91 3.65315 -2.02323 0
M  V30 25215 N 2406.35 1.42792 0.666944 0
M  V30 25216 C 2407.59 1.43397 1.42414 0
M  V30 25217 C 2407.92 0.0542716 1.94924 0
M  V30 25218 O 2407.19 -0.908385 1.73566 0
M  V30 25219 H 2405.77 0.527911 0.528506 0
M  V30 25220 H 2408.43 1.78281 0.787531 0
M  V30 25221 H 2407.52 2.13841 2.27329 0
M  V30 25222 N 2407.82 -0.904008 1.29095 0
M  V30 25223 C 2409.05 -1.68764 1.19692 0
M  V30 25224 C 2409.47 -1.87229 -0.24308 0
M  V30 25225 O 2408.82 -1.40624 -1.16324 0
M  V30 25226 C 2408.88 -3.0745 1.90149 0
M  V30 25227 O 2408.6 -2.89832 3.28526 0
M  V30 25228 C 2410.1 -4.01849 1.8717 0
M  V30 25229 H 2407.32 -0.527237 0.415045 0
M  V30 25230 H 2409.86 -1.13079 1.70392 0
M  V30 25231 H 2408.02 -3.59924 1.43296 0
M  V30 25232 H 2408.43 -3.77677 3.63951 0
M  V30 25233 H 2409.9 -4.96592 2.41041 0
M  V30 25234 H 2410.38 -4.3097 0.846246 0
M  V30 25235 H 2410.99 -3.55306 2.33747 0
M  V30 25236 N 2409.3 -1.11501 -1.11379 0
M  V30 25237 C 2410.25 -0.768994 -2.1952 0
M  V30 25238 C 2411.24 0.239828 -1.67694 0
M  V30 25239 O 2412.45 0.0990439 -1.79727 0
M  V30 25240 H 2408.83 -0.230799 -0.715707 0
M  V30 25241 H 2410.8 -1.68969 -2.45951 0
M  V30 25242 C 2409.55 -0.229134 -3.46944 0
M  V30 25243 H 2408.87 -0.996664 -3.87178 0
M  V30 25244 H 2410.31 -0.0252186 -4.23993 0
M  V30 25245 C 2408.77 1.04074 -3.20422 0
M  V30 25246 O 2409.3 2.12032 -3.41182 0
M  V30 25247 N 2407.5 0.963775 -2.74153 0
M  V30 25248 H 2407.05 0.0851269 -2.57459 0
M  V30 25249 H 2407.01 1.81409 -2.56784 0
M  V30 25250 N 2410.78 1.28995 -0.905426 0
M  V30 25251 C 2411.71 2.29974 -0.404253 0
M  V30 25252 C 2412.69 1.61836 0.523755 0
M  V30 25253 O 2413.88 1.89305 0.433265 0
M  V30 25254 C 2411.01 3.45387 0.363981 0
M  V30 25255 C 2409.96 4.25366 -0.474123 0
M  V30 25256 C 2409.29 5.33033 0.421952 0
M  V30 25257 C 2410.59 4.9292 -1.72704 0
M  V30 25258 H 2412.28 2.72144 -1.24812 0
M  V30 25259 H 2409.83 1.30831 -0.601608 0
M  V30 25260 H 2411.78 4.1511 0.725374 0
M  V30 25261 H 2410.5 3.02076 1.24168 0
M  V30 25262 H 2409.16 3.57359 -0.817923 0
M  V30 25263 H 2408.81 4.85965 1.29796 0
M  V30 25264 H 2408.51 5.87445 -0.13516 0
M  V30 25265 H 2410.04 6.05605 0.77941 0
M  V30 25266 H 2411.45 5.55049 -1.43505 0
M  V30 25267 H 2409.85 5.57291 -2.22592 0
M  V30 25268 H 2410.92 4.17883 -2.45971 0
M  V30 25269 N 2412.26 0.668514 1.42719 0
M  V30 25270 C 2413.17 -0.013934 2.34596 0
M  V30 25271 C 2414.19 -0.795675 1.54742 0
M  V30 25272 O 2415.36 -0.739433 1.87335 0
M  V30 25273 C 2412.43 -0.957924 3.33204 0
M  V30 25274 C 2411.49 -0.171415 4.28958 0
M  V30 25275 C 2410.72 -1.07044 5.22855 0
M  V30 25276 O 2410.94 -2.30991 5.21535 0
M  V30 25277 O 2409.88 -0.534621 5.99521 0
M  V30 25278 H 2413.7 0.742713 2.94478 0
M  V30 25279 H 2411.29 0.428731 1.43116 0
M  V30 25280 H 2413.17 -1.50001 3.93799 0
M  V30 25281 H 2411.85 -1.69453 2.75803 0
M  V30 25282 H 2410.75 0.414624 3.71795 0
M  V30 25283 H 2412.09 0.525946 4.89382 0
M  V30 25284 N 2413.74 -1.52135 0.411426 0
M  V30 25285 C 2414.99 -2.01024 -0.164974 0
M  V30 25286 C 2415.3 -1.30135 -1.46028 0
M  V30 25287 O 2416.51 -1.69853 -2.11807 0
M  V30 25288 C 2414.96 -3.58247 -0.344555 0
M  V30 25289 C 2414.57 -4.38053 0.938793 0
M  V30 25290 C 2416.31 -4.15361 -0.876122 0
M  V30 25291 C 2414.22 -5.86924 0.726275 0
M  V30 25292 H 2413.15 -0.751156 -0.0654275 0
M  V30 25293 H 2415.8 -1.7546 0.537223 0
M  V30 25294 H 2414.18 -3.8015 -1.10914 0
M  V30 25295 H 2415.36 -4.27909 1.7097 0
M  V30 25296 H 2413.67 -3.92268 1.39695 0
M  V30 25297 H 2416.27 -5.24265 -1.05119 0
M  V30 25298 H 2416.61 -3.72863 -1.85145 0
M  V30 25299 H 2417.15 -3.97434 -0.170537 0
M  V30 25300 H 2413.88 -6.33785 1.67323 0
M  V30 25301 H 2413.4 -5.998 -0.0052974 0
M  V30 25302 H 2415.08 -6.45945 0.369345 0
M  V30 25303 N 2415.22 -0.14192 -1.5696 0
M  V30 25304 C 2416.44 0.517544 -2.00322 0
M  V30 25305 C 2416.86 1.5875 -1.02195 0
M  V30 25306 O 2416.22 1.82491 -0.018194 0
M  V30 25307 C 2416.27 1.12283 -3.4362 0
M  V30 25308 O 2415.99 0.0956159 -4.37996 0
M  V30 25309 C 2417.49 1.86339 -4.02234 0
M  V30 25310 H 2414.71 0.135166 -0.657245 0
M  V30 25311 H 2417.25 -0.235009 -2.03145 0
M  V30 25312 H 2415.41 1.82603 -3.41665 0
M  V30 25313 H 2415.82 0.538377 -5.2173 0
M  V30 25314 H 2417.3 2.23988 -5.04513 0
M  V30 25315 H 2417.77 2.74738 -3.42659 0
M  V30 25316 H 2418.38 1.2073 -4.07804 0
M  V30 25317 N 2416.69 1.57047 0.131868 0
M  V30 25318 C 2417.94 1.83358 0.840408 0
M  V30 25319 C 2418.26 0.725567 1.81645 0
M  V30 25320 O 2419.46 0.874704 2.57024 0
M  V30 25321 C 2417.92 3.2504 1.54522 0
M  V30 25322 C 2417.53 4.43816 0.610823 0
M  V30 25323 C 2419.27 3.6061 2.23965 0
M  V30 25324 C 2417.18 5.76523 1.31813 0
M  V30 25325 H 2416.11 0.683853 0.317587 0
M  V30 25326 H 2418.76 1.83264 0.0931239 0
M  V30 25327 H 2417.14 3.19565 2.33867 0
M  V30 25328 H 2418.31 4.60561 -0.148488 0
M  V30 25329 H 2416.63 4.16393 0.0240284 0
M  V30 25330 H 2419.23 4.57023 2.7755 0
M  V30 25331 H 2419.57 2.87409 3.01168 0
M  V30 25332 H 2420.1 3.67812 1.51522 0
M  V30 25333 H 2416.84 6.52861 0.587656 0
M  V30 25334 H 2416.36 5.63688 2.04977 0
M  V30 25335 H 2418.04 6.19841 1.85489 0
M  V30 25336 N 2418.17 -0.401677 1.52395 0
M  V30 25337 C 2419.42 -1.14506 1.66046 0
M  V30 25338 C 2419.73 -1.91461 0.400249 0
M  V30 25339 O 2420.94 -2.68283 0.41668 0
M  V30 25340 C 2419.4 -2.08444 2.93392 0
M  V30 25341 C 2419 -1.36971 4.26548 0
M  V30 25342 C 2420.75 -2.82996 3.16407 0
M  V30 25343 C 2418.65 -2.29601 5.45011 0
M  V30 25344 H 2417.58 -0.431147 0.618569 0
M  V30 25345 H 2420.24 -0.408889 1.78886 0
M  V30 25346 H 2418.62 -2.85645 2.74268 0
M  V30 25347 H 2419.79 -0.650836 4.56181 0
M  V30 25348 H 2418.11 -0.744308 4.09694 0
M  V30 25349 H 2420.7 -3.52458 4.02091 0
M  V30 25350 H 2421.05 -3.46364 2.30949 0
M  V30 25351 H 2421.58 -2.12892 3.36038 0
M  V30 25352 H 2418.32 -1.70868 6.32838 0
M  V30 25353 H 2417.84 -2.9944 5.19707 0
M  V30 25354 H 2419.52 -2.89964 5.78385 0
M  V30 25355 N 2419.65 -1.43144 -0.659362 0
M  V30 25356 C 2420.88 -1.47863 -1.44721 0
M  V30 25357 C 2421.29 -0.0946217 -1.88563 0
M  V30 25358 O 2420.65 0.893887 -1.5911 0
M  V30 25359 C 2420.7 -2.41918 -2.68623 0
M  V30 25360 O 2420.42 -3.74936 -2.26616 0
M  V30 25361 C 2421.92 -2.55816 -3.6204 0
M  V30 25362 H 2419.14 -0.502395 -0.444792 0
M  V30 25363 H 2421.69 -1.87823 -0.808883 0
M  V30 25364 H 2419.84 -2.0517 -3.28609 0
M  V30 25365 H 2420.26 -4.25455 -3.06738 0
M  V30 25366 H 2421.73 -3.25715 -4.45661 0
M  V30 25367 H 2422.21 -1.60106 -4.08978 0
M  V30 25368 H 2422.81 -2.93349 -3.07939 0
M  V30 25369 N 2421.13 0.897149 -1.29572 0
M  V30 25370 C 2422.06 2.01796 -1.17476 0
M  V30 25371 C 2423.04 1.69963 -0.0683529 0
M  V30 25372 O 2424.22 1.92606 -0.248273 0
M  V30 25373 C 2421.35 3.36658 -0.853158 0
M  V30 25374 C 2420.31 3.8271 -1.91617 0
M  V30 25375 C 2419.63 5.14726 -1.44782 0
M  V30 25376 C 2420.93 4.02757 -3.32542 0
M  V30 25377 H 2422.63 2.12174 -2.11241 0
M  V30 25378 H 2420.17 1.01946 -1.01701 0
M  V30 25379 H 2422.13 4.14577 -0.755238 0
M  V30 25380 H 2420.85 3.26379 0.120179 0
M  V30 25381 H 2419.51 3.07009 -2.00352 0
M  V30 25382 H 2419.16 5.00864 -0.463083 0
M  V30 25383 H 2418.86 5.46509 -2.15875 0
M  V30 25384 H 2420.38 5.95183 -1.36345 0
M  V30 25385 H 2421.8 4.71151 -3.26634 0
M  V30 25386 H 2420.19 4.45898 -4.01615 0
M  V30 25387 H 2421.26 3.07009 -3.75331 0
M  V30 25388 N 2422.61 1.1209 1.10786 0
M  V30 25389 C 2423.55 0.785445 2.17024 0
M  V30 25390 C 2424.52 -0.246162 1.64266 0
M  V30 25391 O 2425.71 -0.121551 1.90412 0
M  V30 25392 C 2422.85 0.242237 3.44249 0
M  V30 25393 C 2421.96 1.33122 4.10977 0
M  V30 25394 C 2421.1 0.747833 5.2591 0
M  V30 25395 C 2420.13 1.81619 5.84535 0
M  V30 25396 N 2419.27 1.25179 6.90851 0
M  V30 25397 H 2424.11 1.69553 2.45063 0
M  V30 25398 H 2421.65 0.846603 1.20296 0
M  V30 25399 H 2423.61 -0.0907293 4.17101 0
M  V30 25400 H 2422.24 -0.631016 3.16572 0
M  V30 25401 H 2421.29 1.78103 3.3613 0
M  V30 25402 H 2422.6 2.13925 4.50597 0
M  V30 25403 H 2421.75 0.365322 6.05599 0
M  V30 25404 H 2420.49 -0.0914331 4.87614 0
M  V30 25405 H 2419.5 2.20794 5.03518 0
M  V30 25406 H 2420.72 2.65861 6.24896 0
M  V30 25407 H 2418.67 0.434289 6.54561 0
M  V30 25408 H 2418.59 1.99645 7.29162 0
M  V30 25409 H 2419.85 0.896395 7.74329 0
M  V30 25410 N 2424.08 -1.28513 0.912254 0
M  V30 25411 C 2425.5 -1.47475 0.610185 0
M  V30 25412 C 2425.7 -1.8293 -0.844923 0
M  V30 25413 O 2424.76 -1.93335 -1.62412 0
M  V30 25414 C 2426.07 -2.57865 1.5468 0
M  V30 25415 C 2427.62 -2.71735 1.55335 0
M  V30 25416 C 2428.09 -3.85267 2.47655 0
M  V30 25417 N 2429.58 -3.92619 2.45774 0
M  V30 25418 C 2430.32 -4.79845 3.13905 0
M  V30 25419 N 2429.81 -5.71672 3.9136 0
M  V30 25420 N 2431.61 -4.73443 3.02999 0
M  V30 25421 H 2423.76 -1.03779 1.8532 0
M  V30 25422 H 2426.02 -0.516739 0.794786 0
M  V30 25423 H 2425.73 -2.38569 2.58414 0
M  V30 25424 H 2425.6 -3.54934 1.27677 0
M  V30 25425 H 2427.99 -2.90421 0.523401 0
M  V30 25426 H 2428.07 -1.75202 1.86381 0
M  V30 25427 H 2427.71 -3.67336 3.50752 0
M  V30 25428 H 2427.64 -4.81195 2.13912 0
M  V30 25429 H 2430.13 -3.26948 1.89509 0
M  V30 25430 H 2430.45 -6.35054 4.4037 0
M  V30 25431 H 2428.79 -5.71517 3.95465 0
M  V30 25432 H 2431.98 -4.00695 2.41994 0
M  V30 25433 H 2432.16 -5.41207 3.56369 0
M  V30 25434 N 2425.56 -0.676073 -1.42362 0
M  V30 25435 C 2426.51 0.0131099 -2.32596 0
M  V30 25436 C 2427.5 0.789212 -1.49893 0
M  V30 25437 O 2428.71 0.697032 -1.65956 0
M  V30 25438 H 2425.09 0.0230349 -0.751647 0
M  V30 25439 H 2427.06 -0.765293 -2.8842 0
M  V30 25440 C 2425.81 0.949643 -3.3448 0
M  V30 25441 H 2425.13 0.361868 -3.98159 0
M  V30 25442 H 2426.57 1.40053 -4.00201 0
M  V30 25443 C 2425.03 2.05663 -2.66842 0
M  V30 25444 O 2425.56 3.14322 -2.5013 0
M  V30 25445 N 2423.76 1.82871 -2.25846 0
M  V30 25446 H 2423.31 0.945043 -2.39639 0
M  V30 25447 H 2423.27 2.57127 -1.80923 0
M  V30 25448 N 2427.04 1.51915 -0.419488 0
M  V30 25449 C 2427.95 2.31034 0.407487 0
M  V30 25450 C 2428.97 1.39192 1.04411 0
M  V30 25451 O 2430.14 1.72266 1.04337 0
M  V30 25452 C 2427.21 3.12399 1.50359 0
M  V30 25453 C 2426.27 4.19995 0.888955 0
M  V30 25454 C 2425.5 4.97471 1.93283 0
M  V30 25455 O 2425.72 4.75367 3.1525 0
M  V30 25456 O 2424.66 5.82043 1.53329 0
M  V30 25457 H 2428.48 3.02767 -0.237918 0
M  V30 25458 H 2426.07 1.48282 -0.182439 0
M  V30 25459 H 2427.95 3.63036 2.13969 0
M  V30 25460 H 2426.63 2.43449 2.13341 0
M  V30 25461 H 2425.53 3.7348 0.215287 0
M  V30 25462 H 2426.87 4.91267 0.302905 0
M  V30 25463 N 2428.52 0.150242 1.56882 0
M  V30 25464 C 2429.47 -0.788206 2.16924 0
M  V30 25465 C 2430.44 -1.24185 1.10305 0
M  V30 25466 O 2431.62 -1.3138 1.38361 0
M  V30 25467 C 2428.76 -2.02064 2.79758 0
M  V30 25468 C 2427.87 -1.6125 4.00777 0
M  V30 25469 C 2427.01 -2.79697 4.516 0
M  V30 25470 C 2426.05 -2.35272 5.65078 0
M  V30 25471 N 2425.18 -3.46739 6.10505 0
M  V30 25472 H 2430.02 -0.269392 2.9678 0
M  V30 25473 H 2427.56 -0.121254 1.46599 0
M  V30 25474 H 2429.52 -2.74318 3.14334 0
M  V30 25475 H 2428.15 -2.51351 2.02541 0
M  V30 25476 H 2427.2 -0.787488 3.7216 0
M  V30 25477 H 2428.51 -1.24624 4.82981 0
M  V30 25478 H 2427.67 -3.60136 4.88248 0
M  V30 25479 H 2426.41 -3.19569 3.68411 0
M  V30 25480 H 2425.41 -1.53273 5.28003 0
M  V30 25481 H 2426.64 -1.96482 6.50055 0
M  V30 25482 H 2424.58 -3.86226 5.3025 0
M  V30 25483 H 2424.5 -3.14139 6.87643 0
M  V30 25484 H 2425.77 -4.27526 6.51799 0
M  V30 25485 N 2430 -1.57115 -0.123538 0
M  V30 25486 C 2431.24 -1.84613 -0.832121 0
M  V30 25487 C 2431.57 -0.734659 -1.80092 0
M  V30 25488 O 2430.83 0.274386 -1.93767 0
M  V30 25489 C 2431.13 -3.18571 -1.6201 0
M  V30 25490 C 2430.79 -4.43818 -0.796006 0
M  V30 25491 C 2429.45 -4.77827 -0.568732 0
M  V30 25492 C 2431.81 -5.2073 -0.221273 0
M  V30 25493 C 2429.13 -5.86194 0.243602 0
M  V30 25494 C 2431.49 -6.29952 0.578228 0
M  V30 25495 C 2430.15 -6.62495 0.815861 0
M  V30 25496 H 2429.42 -0.675547 -0.304495 0
M  V30 25497 H 2432.07 -1.91266 -0.0946912 0
M  V30 25498 H 2430.37 -3.07474 -2.42831 0
M  V30 25499 H 2432.07 -3.37067 -2.17225 0
M  V30 25500 H 2428.66 -4.1717 -0.983234 0
M  V30 25501 H 2432.84 -4.94812 -0.384086 0
M  V30 25502 H 2428.1 -6.09836 0.436978 0
M  V30 25503 H 2432.27 -6.88732 1.03058 0
M  V30 25504 H 2429.9 -7.46299 1.44715 0
M  V30 25505 N 2431.47 0.393589 -1.52606 0
M  V30 25506 C 2432.89 0.733332 -1.41755 0
M  V30 25507 C 2433.09 1.94286 -0.534328 0
M  V30 25508 O 2432.15 2.52499 -0.00602308 0
M  V30 25509 C 2433.46 0.972722 -2.84532 0
M  V30 25510 C 2435.01 1.07448 -2.9398 0
M  V30 25511 C 2435.48 1.34653 -4.37759 0
M  V30 25512 N 2436.97 1.41484 -4.41063 0
M  V30 25513 C 2437.71 1.64191 -5.4939 0
M  V30 25514 N 2437.2 1.84398 -6.67809 0
M  V30 25515 N 2439 1.66333 -5.36926 0
M  V30 25516 H 2431.15 -0.402365 -2.08554 0
M  V30 25517 H 2433.41 -0.117805 -0.940652 0
M  V30 25518 H 2433.12 0.156142 -3.51353 0
M  V30 25519 H 2432.99 1.88865 -3.26511 0
M  V30 25520 H 2435.38 1.88163 -2.27329 0
M  V30 25521 H 2435.46 0.13656 -2.55435 0
M  V30 25522 H 2435.1 0.544492 -5.04973 0
M  V30 25523 H 2435.03 2.29722 -4.73852 0
M  V30 25524 H 2437.52 1.27595 -3.55708 0
M  V30 25525 H 2437.84 2.01218 -7.46144 0
M  V30 25526 H 2436.18 1.81632 -6.70846 0
M  V30 25527 H 2439.37 1.50094 -4.43384 0
M  V30 25528 H 2439.55 1.83689 -6.2142 0
M  V30 25529 N 2432.95 1.43492 0.651762 0
M  V30 25530 C 2434.23 1.35664 1.40907 0
M  V30 25531 C 2434.61 0.00515444 2.11099 0
M  V30 25532 O 2433.96 -1.01147 2.04894 0
M  V30 25533 C 2434.17 2.54082 2.39256 0
M  V30 25534 C 2435.52 2.97233 3.03212 0
M  V30 25535 O 2436.54 2.54139 2.49583 0
M  V30 25536 O 2435.4 3.71892 4.00448 0
M  V30 25537 H 2432.49 0.536202 0.629616 0
M  V30 25538 H 2435.04 1.55544 0.678548 0
M  V30 25539 H 2433.81 3.4408 1.86346 0
M  V30 25540 H 2433.43 2.36309 3.19756 0
M  V30 25541 N 2434.43 -0.890264 1.30046 0
M  V30 25542 C 2435.68 -1.6363 1.17932 0
M  V30 25543 C 2435.99 -1.93781 -0.266169 0
M  V30 25544 O 2437.2 -2.66691 -0.508757 0
M  V30 25545 C 2435.65 -2.94889 2.06322 0
M  V30 25546 C 2435.26 -2.72298 3.55749 0
M  V30 25547 C 2437.01 -3.72839 2.02956 0
M  V30 25548 C 2434.91 -3.99341 4.36212 0
M  V30 25549 H 2433.84 -0.613884 0.437792 0
M  V30 25550 H 2436.49 -0.986047 1.54756 0
M  V30 25551 H 2434.88 -3.61179 1.62376 0
M  V30 25552 H 2436.05 -2.14543 4.07809 0
M  V30 25553 H 2434.37 -2.07731 3.60883 0
M  V30 25554 H 2436.96 -4.67048 2.60327 0
M  V30 25555 H 2437.31 -4.03818 1.01177 0
M  V30 25556 H 2437.84 -3.13404 2.44996 0
M  V30 25557 H 2434.58 -3.73523 5.38666 0
M  V30 25558 H 2434.1 -4.56621 3.88918 0
M  V30 25559 H 2435.78 -4.67407 4.4737 0
M  V30 25560 N 2435.91 -1.12676 -1.1019 0
M  V30 25561 C 2437.32 -0.86334 -1.34233 0
M  V30 25562 C 2437.52 0.505243 -1.95063 0
M  V30 25563 O 2436.58 1.25341 -2.19194 0
M  V30 25564 C 2437.89 -1.98176 -2.26156 0
M  V30 25565 C 2439.44 -2.01294 -2.39687 0
M  V30 25566 C 2439.92 -3.12376 -3.3494 0
M  V30 25567 N 2441.41 -3.11835 -3.4251 0
M  V30 25568 C 2442.14 -3.94426 -4.16192 0
M  V30 25569 N 2441.64 -4.87012 -4.92738 0
M  V30 25570 N 2443.43 -3.82554 -4.11836 0
M  V30 25571 H 2435.58 -2.00854 -0.690762 0
M  V30 25572 H 2437.85 -0.874181 -0.366759 0
M  V30 25573 H 2437.55 -2.96808 -1.88675 0
M  V30 25574 H 2437.43 -1.88912 -3.26484 0
M  V30 25575 H 2439.81 -1.0328 -2.76437 0
M  V30 25576 H 2439.89 -2.14632 -1.39165 0
M  V30 25577 H 2439.54 -4.10624 -2.98915 0
M  V30 25578 H 2439.47 -2.96277 -4.35348 0
M  V30 25579 H 2441.96 -2.44764 -2.87922 0
M  V30 25580 H 2442.27 -5.46537 -5.46367 0
M  V30 25581 H 2440.62 -4.91024 -4.91854 0
M  V30 25582 H 2443.81 -3.09556 -3.51131 0
M  V30 25583 H 2443.98 -4.47151 -4.68999 0
M  V30 25584 N 2437.39 1.28028 -0.919057 0
M  V30 25585 C 2438.8 1.7677 -0.600766 0
M  V30 25586 C 2439.15 1.75157 0.883993 0
M  V30 25587 O 2438.27 1.34958 1.6916 0
M  V30 25588 C 2438.87 3.20998 -1.08378 0
M  V30 25589 C 2437.43 3.67442 -0.816312 0
M  V30 25590 C 2436.57 2.47656 -1.24747 0
M  V30 25591 H 2439.53 1.14416 -1.09976 0
M  V30 25592 H 2439.55 3.7809 -0.427579 0
M  V30 25593 H 2439.06 3.2214 -2.16443 0
M  V30 25594 H 2437.16 3.71754 0.250903 0
M  V30 25595 H 2437.27 4.57331 -1.42778 0
M  V30 25596 H 2435.64 2.45835 -0.666126 0
M  V30 25597 H 2436.42 2.51514 -2.33657 0
M  V30 25598 N 2438.86 0.683613 1.42002 0
M  V30 25599 C 2439.81 -0.0121591 2.27997 0
M  V30 25600 C 2440.8 -0.764797 1.41562 0
M  V30 25601 O 2441.99 -0.642258 1.64936 0
M  V30 25602 C 2439.12 -0.956424 3.29708 0
M  V30 25603 C 2438.21 -0.200664 4.23625 0
M  V30 25604 N 2438.6 0.799175 4.99447 0
M  V30 25605 C 2436.89 -0.437859 4.43845 0
M  V30 25606 C 2437.6 1.25051 5.68099 0
M  V30 25607 N 2436.57 0.578743 5.4051 0
M  V30 25608 H 2440.37 0.754614 2.84047 0
M  V30 25609 H 2437.89 0.513425 1.5407 0
M  V30 25610 H 2439.88 -1.46993 3.90126 0
M  V30 25611 H 2438.54 -1.72293 2.75219 0
M  V30 25612 H 2439.56 1.17902 5.04301 0
M  V30 25613 H 2436.23 -1.18318 4.00384 0
M  V30 25614 H 2437.62 2.07953 6.38909 0
M  V30 25615 N 2440.34 -1.5169 0.427538 0
M  V30 25616 C 2441.59 -2.01188 -0.143643 0
M  V30 25617 C 2441.91 -1.31677 -1.4464 0
M  V30 25618 O 2443.11 -1.7209 -2.09993 0
M  V30 25619 C 2441.57 -3.58592 -0.306539 0
M  V30 25620 C 2441.18 -4.37033 0.985202 0
M  V30 25621 C 2442.92 -4.16266 -0.832018 0
M  V30 25622 C 2440.83 -5.8612 0.788485 0
M  V30 25623 H 2439.76 -0.751808 -0.0574568 0
M  V30 25624 H 2442.41 -1.7488 0.555803 0
M  V30 25625 H 2440.79 -3.81305 -1.06876 0
M  V30 25626 H 2441.96 -4.26071 1.75499 0
M  V30 25627 H 2440.28 -3.90765 1.43847 0
M  V30 25628 H 2442.88 -5.25351 -0.995525 0
M  V30 25629 H 2443.22 -3.74806 -1.8118 0
M  V30 25630 H 2443.75 -3.97593 -0.128374 0
M  V30 25631 H 2440.49 -6.31975 1.74036 0
M  V30 25632 H 2440.01 -5.99772 0.0583197 0
M  V30 25633 H 2441.69 -6.45517 0.437835 0
M  V30 25634 N 2441.82 -0.15856 -1.568 0
M  V30 25635 C 2443.23 0.360334 -1.8319 0
M  V30 25636 C 2443.58 1.63944 -1.07781 0
M  V30 25637 O 2442.71 2.13919 -0.326756 0
M  V30 25638 C 2443.3 0.660537 -3.32299 0
M  V30 25639 C 2441.86 1.12391 -3.59229 0
M  V30 25640 C 2441.01 0.153048 -2.76877 0
M  V30 25641 H 2443.96 -0.383058 -1.54008 0
M  V30 25642 H 2443.98 1.51399 -3.49083 0
M  V30 25643 H 2443.49 -0.270595 -3.87156 0
M  V30 25644 H 2441.59 2.07059 -3.0977 0
M  V30 25645 H 2441.71 1.04189 -4.67634 0
M  V30 25646 H 2440.07 0.64794 -2.46321 0
M  V30 25647 H 2440.85 -0.771879 -3.3451 0
M  V30 25648 N 2443.3 1.57178 0.115204 0
M  V30 25649 C 2444.53 1.8924 0.836403 0
M  V30 25650 C 2444.94 0.750206 1.73255 0
M  V30 25651 O 2444.3 -0.2788 1.80358 0
M  V30 25652 C 2444.35 3.20788 1.66665 0
M  V30 25653 O 2444.07 4.30611 0.806576 0
M  V30 25654 C 2445.57 3.6658 2.49267 0
M  V30 25655 H 2442.79 0.626518 0.240242 0
M  V30 25656 H 2445.34 2.04263 0.0984573 0
M  V30 25657 H 2443.49 3.07424 2.35731 0
M  V30 25658 H 2443.91 5.06031 1.37961 0
M  V30 25659 H 2445.38 4.61375 3.03046 0
M  V30 25660 H 2445.86 2.93423 3.26802 0
M  V30 25661 H 2446.46 3.82745 1.85436 0
M  V30 25662 N 2444.78 -0.38549 1.52813 0
M  V30 25663 C 2445.71 -1.49071 1.74099 0
M  V30 25664 C 2446.72 -1.5047 0.621489 0
M  V30 25665 O 2447.91 -1.54309 0.897272 0
M  V30 25666 C 2445.01 -2.87908 1.78779 0
M  V30 25667 C 2444.18 -3.10434 3.08139 0
M  V30 25668 C 2443.24 -4.29273 3.04321 0
M  V30 25669 O 2442.27 -4.25408 3.78176 0
M  V30 25670 N 2443.47 -5.35646 2.2375 0
M  V30 25671 H 2446.24 -1.31197 2.69458 0
M  V30 25672 H 2443.8 -0.575038 1.51344 0
M  V30 25673 H 2445.79 -3.65515 1.73727 0
M  V30 25674 H 2444.36 -2.99125 0.907921 0
M  V30 25675 H 2443.58 -2.20661 3.26653 0
M  V30 25676 H 2444.87 -3.2234 3.93668 0
M  V30 25677 H 2444.27 -5.41642 1.6322 0
M  V30 25678 H 2442.82 -6.11905 2.24534 0
M  V30 25679 N 2446.26 -1.43835 -0.644143 0
M  V30 25680 C 2447.5 -1.45216 -1.39983 0
M  V30 25681 C 2447.82 -0.0835837 -1.95421 0
M  V30 25682 O 2449.02 0.025127 -2.71488 0
M  V30 25683 C 2447.48 -2.55592 -2.53379 0
M  V30 25684 C 2447.09 -3.98597 -2.0451 0
M  V30 25685 C 2448.83 -2.66178 -3.30681 0
M  V30 25686 C 2446.74 -5.00421 -3.15171 0
M  V30 25687 H 2445.67 -0.540227 -0.525995 0
M  V30 25688 H 2448.32 -1.69856 -0.694337 0
M  V30 25689 H 2446.7 -2.24168 -3.26442 0
M  V30 25690 H 2447.88 -4.39526 -1.38398 0
M  V30 25691 H 2446.19 -3.92137 -1.40061 0
M  V30 25692 H 2448.79 -3.39426 -4.13152 0
M  V30 25693 H 2449.13 -1.71552 -3.79309 0
M  V30 25694 H 2449.66 -2.96947 -2.64703 0
M  V30 25695 H 2446.4 -5.9663 -2.71501 0
M  V30 25696 H 2445.92 -4.64097 -3.79965 0
M  V30 25697 H 2447.6 -5.23536 -3.80157 0
M  V30 25698 N 2447.73 0.883355 -1.30517 0
M  V30 25699 C 2448.96 1.66839 -1.22362 0
M  V30 25700 C 2449.38 1.87592 0.213263 0
M  V30 25701 O 2448.73 1.42456 1.14072 0
M  V30 25702 C 2448.78 3.04386 -1.95017 0
M  V30 25703 O 2448.51 2.84569 -3.33095 0
M  V30 25704 C 2450.01 3.9882 -1.93539 0
M  V30 25705 H 2447.23 0.520567 -0.42338 0
M  V30 25706 H 2449.77 1.10354 -1.72169 0
M  V30 25707 H 2447.93 3.57598 -1.49004 0
M  V30 25708 H 2448.34 3.71839 -3.69913 0
M  V30 25709 H 2449.81 4.92694 -2.48911 0
M  V30 25710 H 2450.29 4.29569 -0.914702 0
M  V30 25711 H 2450.9 3.51542 -2.3937 0
M  V30 25712 N 2449.21 1.13259 1.09591 0
M  V30 25713 C 2450.12 0.82173 2.19738 0
M  V30 25714 C 2451.14 -0.19299 1.72926 0
M  V30 25715 O 2452.31 -0.0244541 2.01385 0
M  V30 25716 C 2449.38 0.290394 3.45482 0
M  V30 25717 C 2448.44 1.36614 4.06983 0
M  V30 25718 C 2447.67 0.860067 5.26724 0
M  V30 25719 O 2447.9 -0.302981 5.69595 0
M  V30 25720 O 2446.83 1.63362 5.79307 0
M  V30 25721 H 2450.66 1.74193 2.48778 0
M  V30 25722 H 2448.24 0.909915 1.18494 0
M  V30 25723 H 2450.12 -0.00059995 4.214 0
M  V30 25724 H 2448.8 -0.60225 3.18048 0
M  V30 25725 H 2447.7 1.71043 3.32709 0
M  V30 25726 H 2449.04 2.23287 4.38639 0
M  V30 25727 N 2450.69 -1.27539 0.925834 0
M  V30 25728 C 2451.92 -1.98559 0.581544 0
M  V30 25729 C 2452.33 -1.69084 -0.840011 0
M  V30 25730 O 2451.69 -0.950339 -1.55804 0
M  V30 25731 C 2451.74 -3.52635 0.795651 0
M  V30 25732 O 2451.46 -3.81078 2.16128 0
M  V30 25733 C 2452.96 -4.40909 0.459822 0
M  V30 25734 H 2450.18 -0.633718 0.22055 0
M  V30 25735 H 2452.73 -1.62438 1.24234 0
M  V30 25736 H 2450.88 -3.86974 0.181678 0
M  V30 25737 H 2451.3 -4.75672 2.20989 0
M  V30 25738 H 2452.77 -5.48036 0.66034 0
M  V30 25739 H 2453.25 -4.35019 -0.604548 0
M  V30 25740 H 2453.85 -4.12088 1.05185 0
M  V30 25741 N 2452.17 -0.691135 -1.41637 0
M  V30 25742 C 2453.12 -0.0115608 -2.32597 0
M  V30 25743 C 2454.11 0.773269 -1.50721 0
M  V30 25744 O 2455.32 0.679391 -1.66686 0
M  V30 25745 H 2451.69 0.0150613 -0.751849 0
M  V30 25746 H 2453.66 -0.795841 -2.87592 0
M  V30 25747 C 2452.41 0.914113 -3.35469 0
M  V30 25748 H 2451.73 0.319617 -3.9852 0
M  V30 25749 H 2453.17 1.35801 -4.01664 0
M  V30 25750 C 2451.63 2.02821 -2.69008 0
M  V30 25751 O 2452.16 3.11651 -2.53449 0
M  V30 25752 N 2450.37 1.80465 -2.27773 0
M  V30 25753 H 2449.92 0.919573 -2.40628 0
M  V30 25754 H 2449.87 2.55193 -1.8364 0
M  V30 25755 N 2453.65 1.51461 -0.435577 0
M  V30 25756 C 2454.92 1.94662 0.19133 0
M  V30 25757 C 2455.3 1.37414 1.60252 0
M  V30 25758 O 2454.65 0.560497 2.21519 0
M  V30 25759 C 2454.86 3.48582 0.170849 0
M  V30 25760 C 2456.21 4.2292 0.377283 0
M  V30 25761 O 2457.23 3.55328 0.249042 0
M  V30 25762 O 2456.09 5.42829 0.632375 0
M  V30 25763 H 2453.19 0.816572 0.130918 0
M  V30 25764 H 2455.73 1.62368 -0.493429 0
M  V30 25765 H 2454.5 3.82701 -0.815805 0
M  V30 25766 H 2454.13 3.87313 0.898591 0
M  V30 25767 N 2455.12 0.166873 1.56714 0
M  V30 25768 C 2456.37 -0.478271 1.96359 0
M  V30 25769 C 2456.69 -1.64078 1.05373 0
M  V30 25770 O 2455.96 -1.95537 0.119189 0
M  V30 25771 H 2454.54 -0.17968 0.725068 0
M  V30 25772 H 2457.21 0.247018 1.93328 0
M  V30 25773 H 2456.3 -0.84124 3.00549 0
M  V30 25774 N 2456.6 -1.57237 -0.106866 0
M  V30 25775 C 2457.85 -1.8576 -0.813697 0
M  V30 25776 C 2458.18 -0.754346 -1.7895 0
M  V30 25777 O 2457.46 0.238757 -1.93029 0
M  V30 25778 C 2457.74 -3.24897 -1.55288 0
M  V30 25779 C 2457.59 -4.45836 -0.595851 0
M  V30 25780 C 2458.91 -3.61768 -2.50624 0
M  V30 25781 H 2456.03 -0.675665 -0.294357 0
M  V30 25782 H 2458.67 -1.89841 -0.0776138 0
M  V30 25783 H 2456.82 -3.21548 -2.18035 0
M  V30 25784 H 2458.49 -4.61294 0.0237073 0
M  V30 25785 H 2456.74 -4.33703 0.0916953 0
M  V30 25786 H 2457.41 -5.39889 -1.14995 0
M  V30 25787 H 2459.88 -3.65985 -1.97976 0
M  V30 25788 H 2458.76 -4.60076 -2.99368 0
M  V30 25789 H 2459.02 -2.89827 -3.33845 0
M  V30 25790 N 2458.08 0.377381 -1.53015 0
M  V30 25791 C 2459.01 1.46788 -1.81592 0
M  V30 25792 C 2459.99 1.56407 -0.66865 0
M  V30 25793 O 2461.18 1.71167 -0.917367 0
M  V30 25794 C 2458.31 2.84267 -1.99524 0
M  V30 25795 C 2457.26 2.8948 -3.15254 0
M  V30 25796 C 2456.59 4.29521 -3.18459 0
M  V30 25797 C 2457.89 2.58071 -4.54089 0
M  V30 25798 H 2459.58 1.23123 -2.72912 0
M  V30 25799 H 2457.13 0.59086 -1.3132 0
M  V30 25800 H 2459.08 3.60571 -2.18098 0
M  V30 25801 H 2457.8 3.09294 -1.04903 0
M  V30 25802 H 2456.46 2.15626 -2.96481 0
M  V30 25803 H 2456.11 4.51606 -2.21498 0
M  V30 25804 H 2455.81 4.33927 -3.96208 0
M  V30 25805 H 2457.33 5.07715 -3.39202 0
M  V30 25806 H 2458.75 3.2409 -4.72904 0
M  V30 25807 H 2457.15 2.73811 -5.33992 0
M  V30 25808 H 2458.22 1.53364 -4.60008 0
M  V30 25809 N 2459.56 1.44175 0.636506 0
M  V30 25810 C 2460.81 1.45956 1.39211 0
M  V30 25811 C 2461.12 0.0939462 1.95374 0
M  V30 25812 O 2462.33 -0.010729 2.71498 0
M  V30 25813 C 2460.78 2.56932 2.5202 0
M  V30 25814 C 2460.39 3.99676 2.02393 0
M  V30 25815 C 2462.13 2.67928 3.29264 0
M  V30 25816 C 2460.04 5.02086 3.12512 0
M  V30 25817 H 2458.97 0.543009 0.523123 0
M  V30 25818 H 2461.62 1.70222 0.685319 0
M  V30 25819 H 2460 2.25896 3.25249 0
M  V30 25820 H 2461.18 4.40253 1.36065 0
M  V30 25821 H 2459.49 3.92875 1.3798 0
M  V30 25822 H 2462.09 3.41612 4.11346 0
M  V30 25823 H 2462.43 1.73562 3.78394 0
M  V30 25824 H 2462.97 2.98346 2.63124 0
M  V30 25825 H 2459.71 5.98062 2.68333 0
M  V30 25826 H 2459.23 4.66106 3.77499 0
M  V30 25827 H 2460.9 5.25544 3.77375 0
M  V30 25828 N 2461.04 -0.876421 1.30983 0
M  V30 25829 C 2462.28 -1.63136 1.20477 0
M  V30 25830 C 2462.62 -1.92735 -0.238063 0
M  V30 25831 O 2461.89 -1.55437 -1.16917 0
M  V30 25832 C 2462.17 -2.96571 2.04249 0
M  V30 25833 C 2462.03 -2.7389 3.56797 0
M  V30 25834 C 2463.35 -3.97597 1.88691 0
M  V30 25835 H 2460.46 -0.591978 0.439012 0
M  V30 25836 H 2463.11 -1.01358 1.60706 0
M  V30 25837 H 2461.26 -3.49297 1.70069 0
M  V30 25838 H 2462.93 -2.27885 4.01081 0
M  V30 25839 H 2461.17 -2.08238 3.80551 0
M  V30 25840 H 2461.84 -3.68807 4.10713 0
M  V30 25841 H 2464.32 -3.54059 2.1859 0
M  V30 25842 H 2463.19 -4.88858 2.49619 0
M  V30 25843 H 2463.46 -4.33883 0.848419 0
M  V30 25844 N 2462.51 -1.13839 -1.08989 0
M  V30 25845 C 2463.46 -0.815385 -2.1784 0
M  V30 25846 C 2464.46 0.204204 -1.68165 0
M  V30 25847 O 2465.66 0.0608988 -1.79897 0
M  V30 25848 H 2462.04 -0.245928 -0.71065 0
M  V30 25849 H 2464.01 -1.74148 -2.42312 0
M  V30 25850 C 2462.76 -0.302675 -3.4638 0
M  V30 25851 H 2462.08 -1.07857 -3.84977 0
M  V30 25852 H 2463.52 -0.115148 -4.23844 0
M  V30 25853 C 2461.98 0.972535 -3.22558 0
M  V30 25854 O 2462.51 2.04748 -3.45603 0
M  V30 25855 N 2460.72 0.905407 -2.76135 0
M  V30 25856 H 2460.26 0.0304968 -2.57582 0
M  V30 25857 H 2460.22 1.75922 -2.60574 0
M  V30 25858 N 2463.99 1.27046 -0.932584 0
M  V30 25859 C 2465.22 1.98248 -0.592066 0
M  V30 25860 C 2465.64 1.69527 0.831032 0
M  V30 25861 O 2464.99 0.958589 1.55298 0
M  V30 25862 C 2465.04 3.52208 -0.814341 0
M  V30 25863 O 2464.76 3.79926 -2.18146 0
M  V30 25864 C 2466.27 4.40659 -0.483198 0
M  V30 25865 H 2463.49 0.63254 -0.223907 0
M  V30 25866 H 2466.03 1.61777 -1.25094 0
M  V30 25867 H 2464.18 3.86872 -0.202198 0
M  V30 25868 H 2464.6 4.74494 -2.23508 0
M  V30 25869 H 2466.07 5.47678 -0.689394 0
M  V30 25870 H 2466.55 4.35334 0.58147 0
M  V30 25871 H 2467.16 4.11524 -1.07369 0
M  V30 25872 N 2465.47 0.698636 1.41269 0
M  V30 25873 C 2466.7 0.238548 2.06024 0
M  V30 25874 C 2467.12 -1.10472 1.52242 0
M  V30 25875 O 2466.48 -1.69222 0.650653 0
M  V30 25876 C 2466.53 0.210016 3.59988 0
M  V30 25877 O 2465.63 -0.814164 4.04283 0
M  V30 25878 H 2464.97 0.115787 0.653827 0
M  V30 25879 H 2467.5 0.954357 1.80978 0
M  V30 25880 H 2467.51 0.0419154 4.07978 0
M  V30 25881 H 2466.19 1.19037 3.98501 0
M  V30 25882 H 2464.76 -0.615169 3.67791 0
M  V30 25883 N 2466.95 -1.51228 0.443603 0
M  V30 25884 C 2467.9 -2.27901 -0.364676 0
M  V30 25885 C 2468.87 -1.31759 -1.01138 0
M  V30 25886 O 2470.05 -1.60669 -1.02909 0
M  V30 25887 C 2467.19 -3.12863 -1.45638 0
M  V30 25888 C 2466.3 -4.24006 -0.827195 0
M  V30 25889 C 2465.44 -4.96269 -1.89448 0
M  V30 25890 C 2464.48 -5.99324 -1.24406 0
M  V30 25891 N 2463.61 -6.6497 -2.25298 0
M  V30 25892 H 2468.45 -2.96531 0.295517 0
M  V30 25893 H 2465.99 -1.46254 0.157579 0
M  V30 25894 H 2467.95 -3.60454 -2.10069 0
M  V30 25895 H 2466.58 -2.46335 -2.08612 0
M  V30 25896 H 2465.63 -3.80334 -0.071017 0
M  V30 25897 H 2466.94 -4.97821 -0.312394 0
M  V30 25898 H 2466.1 -5.47439 -2.61526 0
M  V30 25899 H 2464.84 -4.22099 -2.44302 0
M  V30 25900 H 2463.84 -5.47441 -0.508771 0
M  V30 25901 H 2465.07 -6.75454 -0.702763 0
M  V30 25902 H 2463.01 -5.93609 -2.7922 0
M  V30 25903 H 2462.93 -7.3457 -1.78726 0
M  V30 25904 H 2464.2 -7.20768 -2.9684 0
M  V30 25905 N 2468.43 -0.175182 -1.56623 0
M  V30 25906 C 2469.66 0.474247 -2.01083 0
M  V30 25907 C 2470.06 1.57089 -1.05449 0
M  V30 25908 O 2469.41 1.83637 -0.0480918 0
M  V30 25909 C 2469.47 1.10905 -3.41965 0
M  V30 25910 C 2469.13 0.153586 -4.56742 0
M  V30 25911 C 2470.13 -0.629538 -5.16074 0
M  V30 25912 C 2467.82 0.0482894 -5.02277 0
M  V30 25913 C 2469.81 -1.50512 -6.19375 0
M  V30 25914 C 2467.5 -0.830875 -6.05425 0
M  V30 25915 C 2468.49 -1.60616 -6.63846 0
M  V30 25916 O 2468.18 -2.47063 -7.64994 0
M  V30 25917 H 2467.91 0.12542 -0.664263 0
M  V30 25918 H 2470.47 -0.275199 -2.03548 0
M  V30 25919 H 2468.7 1.9067 -3.36425 0
M  V30 25920 H 2470.39 1.66108 -3.70355 0
M  V30 25921 H 2471.15 -0.558382 -4.81775 0
M  V30 25922 H 2467.03 0.641531 -4.56514 0
M  V30 25923 H 2470.58 -2.11072 -6.64902 0
M  V30 25924 H 2466.47 -0.903219 -6.3915 0
M  V30 25925 H 2467.24 -2.40621 -7.82332 0
M  V30 25926 N 2469.91 1.57292 0.0985263 0
M  V30 25927 C 2471.32 1.74892 0.653426 0
M  V30 25928 C 2471.67 0.79687 1.79289 0
M  V30 25929 O 2470.79 -0.0254505 2.16385 0
M  V30 25930 C 2471.39 3.17135 1.1921 0
M  V30 25931 C 2469.95 3.36171 1.6931 0
M  V30 25932 C 2469.09 2.70703 0.601246 0
M  V30 25933 H 2472.04 1.58187 -0.127525 0
M  V30 25934 H 2472.07 3.19817 2.06149 0
M  V30 25935 H 2471.58 3.86403 0.362567 0
M  V30 25936 H 2469.68 2.71977 2.54675 0
M  V30 25937 H 2469.79 4.44467 1.78845 0
M  V30 25938 H 2468.16 2.32506 1.03986 0
M  V30 25939 H 2468.94 3.42609 -0.217652 0
M  V30 25940 N 2471.38 -0.369261 1.53213 0
M  V30 25941 C 2472.33 -1.4725 1.80056 0
M  V30 25942 C 2473.33 -1.55609 0.669484 0
M  V30 25943 O 2474.53 -1.5854 0.852355 0
M  V30 25944 H 2470.91 -0.490465 0.570042 0
M  V30 25945 H 2472.88 -1.21812 2.72405 0
M  V30 25946 C 2471.63 -2.84133 2.00408 0
M  V30 25947 H 2470.95 -2.78459 2.86881 0
M  V30 25948 H 2472.39 -3.60515 2.2317 0
M  V30 25949 C 2470.85 -3.27695 0.782139 0
M  V30 25950 O 2471.38 -4.01688 -0.0309499 0
M  V30 25951 N 2469.58 -2.84198 0.606623 0
M  V30 25952 H 2469.13 -2.2415 1.26943 0
M  V30 25953 H 2469.09 -3.13701 -0.209564 0
M  V30 25954 N 2472.86 -1.4451 -0.628851 0
M  V30 25955 C 2473.79 -1.46022 -1.75365 0
M  V30 25956 C 2474.77 -0.318815 -1.59444 0
M  V30 25957 O 2475.96 -0.516131 -1.81296 0
M  V30 25958 C 2473.08 -1.29506 -3.12963 0
M  V30 25959 C 2472.13 -2.47239 -3.47527 0
M  V30 25960 S 2472.96 -4.09764 -3.44751 0
M  V30 25961 C 2474.12 -3.95676 -4.84966 0
M  V30 25962 H 2474.35 -2.41196 -1.73816 0
M  V30 25963 H 2471.88 -1.31836 -0.803663 0
M  V30 25964 H 2473.84 -1.20664 -3.92365 0
M  V30 25965 H 2472.5 -0.358396 -3.12049 0
M  V30 25966 H 2471.7 -2.31552 -4.4766 0
M  V30 25967 H 2471.3 -2.52832 -2.75593 0
M  V30 25968 H 2473.59 -3.59506 -5.74249 0
M  V30 25969 H 2474.53 -4.95647 -5.05707 0
M  V30 25970 H 2474.94 -3.27696 -4.59647 0
M  V30 25971 N 2474.34 0.869463 -1.31446 0
M  V30 25972 C 2475.57 1.65292 -1.23945 0
M  V30 25973 C 2475.98 1.88166 0.197528 0
M  V30 25974 O 2475.32 1.44035 1.14016 0
M  V30 25975 C 2475.38 3.04319 -1.9139 0
M  V30 25976 C 2475.05 3.04551 -3.40731 0
M  V30 25977 C 2476.04 2.82473 -4.36469 0
M  V30 25978 C 2473.73 3.25656 -3.82431 0
M  V30 25979 C 2475.72 2.8148 -5.71881 0
M  V30 25980 C 2473.41 3.24291 -5.17956 0
M  V30 25981 C 2474.41 3.0223 -6.12492 0
M  V30 25982 O 2474.1 3.00711 -7.45539 0
M  V30 25983 H 2473.83 0.522047 -0.429468 0
M  V30 25984 H 2476.38 1.09347 -1.73875 0
M  V30 25985 H 2474.61 3.61992 -1.3601 0
M  V30 25986 H 2476.3 3.64888 -1.77797 0
M  V30 25987 H 2477.07 2.65949 -4.05581 0
M  V30 25988 H 2472.95 3.41858 -3.0928 0
M  V30 25989 H 2476.49 2.64179 -6.45643 0
M  V30 25990 H 2472.39 3.40355 -5.48479 0
M  V30 25991 H 2473.15 3.16769 -7.54718 0
M  V30 25992 N 2475.82 1.14415 1.08383 0
M  V30 25993 C 2477.06 0.913865 1.81042 0
M  V30 25994 C 2477.4 -0.558177 1.86005 0
M  V30 25995 O 2476.67 -1.41347 1.33609 0
M  V30 25996 C 2476.95 1.51575 3.26645 0
M  V30 25997 C 2476.81 3.05766 3.2989 0
M  V30 25998 C 2478.13 1.19281 4.23627 0
M  V30 25999 H 2475.25 0.333425 0.657265 0
M  V30 26000 H 2477.89 1.41414 1.26894 0
M  V30 26001 H 2476.04 1.0903 3.72887 0
M  V30 26002 H 2477.71 3.57143 2.91971 0
M  V30 26003 H 2475.95 3.40202 2.69157 0
M  V30 26004 H 2476.62 3.42985 4.3251 0
M  V30 26005 H 2479.1 1.56063 3.85725 0
M  V30 26006 H 2477.98 1.64027 5.23819 0
M  V30 26007 H 2478.24 0.108145 4.41968 0
M  V30 26008 N 2477.3 -1.26549 0.939309 0
M  V30 26009 C 2478.71 -1.75792 0.628813 0
M  V30 26010 C 2479.06 -1.76541 -0.856015 0
M  V30 26011 O 2478.18 -1.37633 -1.66992 0
M  V30 26012 C 2478.78 -3.19233 1.13471 0
M  V30 26013 C 2477.34 -3.66096 0.874666 0
M  V30 26014 C 2476.48 -2.4564 1.28671 0
M  V30 26015 H 2479.43 -1.12652 1.11782 0
M  V30 26016 H 2479.46 -3.77362 0.487675 0
M  V30 26017 H 2478.97 -3.18656 2.2154 0
M  V30 26018 H 2477.07 -3.72106 -0.191728 0
M  V30 26019 H 2477.18 -4.55001 1.50036 0
M  V30 26020 H 2475.55 -2.44744 0.705152 0
M  V30 26021 H 2476.33 -2.47765 2.37629 0
M  V30 26022 N 2478.77 -0.706118 -1.40896 0
M  V30 26023 C 2480.02 -0.241924 -2.01352 0
M  V30 26024 C 2480.35 1.15885 -1.55834 0
M  V30 26025 O 2479.63 1.78429 -0.774177 0
M  V30 26026 C 2479.91 -0.311374 -3.58751 0
M  V30 26027 C 2479.76 -1.74985 -4.14367 0
M  V30 26028 C 2481.08 0.322845 -4.38914 0
M  V30 26029 H 2478.2 -0.0893815 -0.73156 0
M  V30 26030 H 2480.84 -0.896832 -1.67502 0
M  V30 26031 H 2478.99 0.246234 -3.87719 0
M  V30 26032 H 2480.67 -2.36211 -3.96235 0
M  V30 26033 H 2478.91 -2.28063 -3.69012 0
M  V30 26034 H 2479.58 -1.7499 -5.23529 0
M  V30 26035 H 2482.06 -0.152162 -4.15822 0
M  V30 26036 H 2480.93 0.243759 -5.48358 0
M  V30 26037 H 2481.19 1.40506 -4.19178 0
M  V30 26038 N 2480.25 1.50991 -0.451617 0
M  V30 26039 C 2481.5 2.01801 0.109821 0
M  V30 26040 C 2481.82 1.33692 1.41956 0
M  V30 26041 O 2481.09 0.475984 1.90029 0
M  V30 26042 H 2479.67 0.745728 0.0435753 0
M  V30 26043 H 2482.33 1.85512 -0.59759 0
M  V30 26044 H 2481.43 3.10882 0.275434 0
M  V30 26045 N 2481.73 0.183486 1.56528 0
M  V30 26046 C 2482.69 -0.728185 2.17325 0
M  V30 26047 C 2483.69 -1.14937 1.12455 0
M  V30 26048 O 2484.88 -1.06434 1.37903 0
M  V30 26049 C 2482.01 -1.99269 2.76595 0
M  V30 26050 H 2483.21 -0.19872 2.99241 0
M  V30 26051 H 2480.76 -0.0661116 1.5616 0
M  V30 26052 H 2481.5 -2.56495 1.98446 0
M  V30 26053 H 2481.28 -1.69953 3.53353 0
M  V30 26054 H 2482.77 -2.64305 3.23315 0
M  V30 26055 N 2483.21 -1.57342 -0.0901833 0
M  V30 26056 C 2484.45 -1.86613 -0.793949 0
M  V30 26057 C 2484.79 -0.773284 -1.7814 0
M  V30 26058 O 2484.06 0.21827 -1.93271 0
M  V30 26059 C 2484.34 -3.26525 -1.51833 0
M  V30 26060 C 2484.2 -4.46443 -0.548531 0
M  V30 26061 C 2485.52 -3.64405 -2.46773 0
M  V30 26062 H 2482.64 -0.678749 -0.287174 0
M  V30 26063 H 2485.28 -1.89913 -0.0574742 0
M  V30 26064 H 2483.43 -3.23843 -2.14612 0
M  V30 26065 H 2485.1 -4.61243 0.0726324 0
M  V30 26066 H 2483.34 -4.33581 0.13769 0
M  V30 26067 H 2484.01 -5.41078 -1.09262 0
M  V30 26068 H 2486.49 -3.68064 -1.94083 0
M  V30 26069 H 2485.37 -4.63226 -2.94471 0
M  V30 26070 H 2485.63 -2.93352 -3.30753 0
M  V30 26071 N 2484.69 0.36113 -1.53407 0
M  V30 26072 C 2485.91 1.1238 -1.73719 0
M  V30 26073 C 2486.33 1.82903 -0.468193 0
M  V30 26074 O 2485.69 1.73723 0.559167 0
M  V30 26075 C 2485.74 2.15073 -2.90561 0
M  V30 26076 O 2485.46 1.47421 -4.12551 0
M  V30 26077 C 2486.96 3.03852 -3.22783 0
M  V30 26078 H 2484.18 0.335848 -0.580902 0
M  V30 26079 H 2486.72 0.418693 -2.00168 0
M  V30 26080 H 2484.88 2.81175 -2.66494 0
M  V30 26081 H 2485.29 2.15879 -4.78013 0
M  V30 26082 H 2486.77 3.7188 -4.07933 0
M  V30 26083 H 2487.24 3.68908 -2.38335 0
M  V30 26084 H 2487.85 2.43361 -3.48792 0
M  V30 26085 N 2486.16 1.44842 0.621179 0
M  V30 26086 C 2487.07 1.54983 1.76117 0
M  V30 26087 C 2488.09 0.434957 1.68476 0
M  V30 26088 O 2489.27 0.693726 1.89075 0
M  V30 26089 C 2486.33 1.5007 3.12538 0
M  V30 26090 C 2485.39 2.72488 3.31736 0
M  V30 26091 C 2484.63 2.678 4.61648 0
M  V30 26092 O 2484.85 1.74361 5.43097 0
M  V30 26093 O 2483.78 3.58802 4.83265 0
M  V30 26094 H 2487.61 2.51314 1.70514 0
M  V30 26095 H 2485.19 1.272 0.783621 0
M  V30 26096 H 2487.08 1.49889 3.93842 0
M  V30 26097 H 2485.75 0.568862 3.18662 0
M  V30 26098 H 2484.66 2.78235 2.50072 0
M  V30 26099 H 2485.99 3.64752 3.3048 0
M  V30 26100 N 2487.64 -0.862479 1.31905 0
M  V30 26101 C 2488.57 -1.97673 1.16009 0
M  V30 26102 C 2489.59 -1.6251 0.0971519 0
M  V30 26103 O 2490.78 -1.75127 0.345367 0
M  V30 26104 C 2487.88 -3.30455 0.751849 0
M  V30 26105 C 2487.05 -3.93911 1.9014 0
M  V30 26106 C 2486.11 -5.05017 1.47799 0
M  V30 26107 O 2485.13 -5.25433 2.18881 0
M  V30 26108 N 2486.34 -5.79322 0.369593 0
M  V30 26109 H 2489.1 -2.11854 2.11986 0
M  V30 26110 H 2486.66 -1.03689 1.24339 0
M  V30 26111 H 2488.65 -4.02177 0.451155 0
M  V30 26112 H 2487.22 -3.12383 -0.116538 0
M  V30 26113 H 2486.44 -3.15074 2.36901 0
M  V30 26114 H 2487.73 -4.33042 2.67118 0
M  V30 26115 H 2487.13 -5.65263 -0.2222 0
M  V30 26116 H 2485.69 -6.51673 0.128469 0
M  V30 26117 N 2489.12 -1.14988 -1.07775 0
M  V30 26118 C 2490.37 -0.920266 -1.79932 0
M  V30 26119 C 2490.69 0.554303 -1.86956 0
M  V30 26120 O 2489.96 1.40289 -1.36733 0
M  V30 26121 H 2488.54 -0.337485 -0.666418 0
M  V30 26122 H 2491.2 -1.4497 -1.30267 0
M  V30 26123 H 2490.3 -1.32588 -2.82537 0
M  V30 26124 N 2490.6 1.26049 -0.946007 0
M  V30 26125 C 2491.83 1.97322 -0.61217 0
M  V30 26126 C 2492.24 1.70596 0.818141 0
M  V30 26127 O 2491.58 0.97364 1.55775 0
M  V30 26128 C 2491.64 3.50927 -0.780408 0
M  V30 26129 C 2491.31 4.01313 -2.18626 0
M  V30 26130 C 2492.3 4.12678 -3.16217 0
M  V30 26131 C 2489.99 4.35199 -2.50813 0
M  V30 26132 C 2491.98 4.57231 -4.44093 0
M  V30 26133 C 2489.67 4.79439 -3.78921 0
M  V30 26134 C 2490.67 4.90417 -4.75374 0
M  V30 26135 O 2490.35 5.3368 -6.012 0
M  V30 26136 H 2490.09 0.635978 -0.229145 0
M  V30 26137 H 2492.64 1.61401 -1.27039 0
M  V30 26138 H 2490.87 3.86645 -0.0650544 0
M  V30 26139 H 2492.56 4.0341 -0.448913 0
M  V30 26140 H 2493.33 3.86738 -2.92674 0
M  V30 26141 H 2489.2 4.25886 -1.7647 0
M  V30 26142 H 2492.75 4.65714 -5.19381 0
M  V30 26143 H 2488.65 5.04823 -4.02274 0
M  V30 26144 H 2489.41 5.51888 -6.04452 0
M  V30 26145 N 2492.08 0.71358 1.4052 0
M  V30 26146 C 2493.01 0.0744274 2.33381 0
M  V30 26147 C 2493.99 -0.747709 1.52785 0
M  V30 26148 O 2495.17 -0.69704 1.81259 0
M  V30 26149 C 2492.3 -0.849539 3.36749 0
M  V30 26150 C 2491.26 -0.133172 4.27793 0
M  V30 26151 C 2490.58 -1.17272 5.21681 0
M  V30 26152 C 2491.88 1.01143 5.12413 0
M  V30 26153 H 2493.58 0.850057 2.87079 0
M  V30 26154 H 2491.12 0.410226 1.38033 0
M  V30 26155 H 2493.08 -1.30605 4.0065 0
M  V30 26156 H 2491.8 -1.65704 2.81442 0
M  V30 26157 H 2490.46 0.303491 3.65342 0
M  V30 26158 H 2490.11 -1.97322 4.6268 0
M  V30 26159 H 2489.81 -0.698294 5.83436 0
M  V30 26160 H 2491.33 -1.62937 5.88459 0
M  V30 26161 H 2492.74 0.634374 5.69779 0
M  V30 26162 H 2491.14 1.41409 5.83201 0
M  V30 26163 H 2492.21 1.843 4.48511 0
M  V30 26164 N 2493.55 -1.50749 0.459618 0
M  V30 26165 C 2494.5 -2.29881 -0.354637 0
M  V30 26166 C 2495.5 -1.36674 -1.00083 0
M  V30 26167 O 2496.7 -1.53917 -0.93325 0
M  V30 26168 H 2493.08 -0.74011 -0.133197 0
M  V30 26169 H 2495.05 -2.96533 0.333321 0
M  V30 26170 C 2493.8 -3.16902 -1.43067 0
M  V30 26171 H 2493.12 -3.88524 -0.942813 0
M  V30 26172 H 2494.56 -3.75287 -1.97321 0
M  V30 26173 C 2493.02 -2.33736 -2.42629 0
M  V30 26174 O 2493.55 -2.01244 -3.47654 0
M  V30 26175 N 2491.76 -1.96534 -2.14063 0
M  V30 26176 H 2491.3 -2.23157 -1.28681 0
M  V30 26177 H 2491.26 -1.4119 -2.80914 0
M  V30 26178 N 2495.03 -0.191784 -1.56429 0
M  V30 26179 C 2495.96 0.725657 -2.21938 0
M  V30 26180 C 2496.94 1.22378 -1.18142 0
M  V30 26181 O 2498.13 1.27322 -1.46638 0
M  V30 26182 C 2495.26 1.94667 -2.87615 0
M  V30 26183 C 2494.21 1.58359 -3.97626 0
M  V30 26184 C 2493.54 2.88094 -4.50451 0
M  V30 26185 C 2494.84 0.796042 -5.16198 0
M  V30 26186 H 2496.53 0.179554 -2.98861 0
M  V30 26187 H 2494.08 0.0849212 -1.43749 0
M  V30 26188 H 2496.03 2.59367 -3.32124 0
M  V30 26189 H 2494.76 2.51725 -2.08092 0
M  V30 26190 H 2493.41 0.960185 -3.53802 0
M  V30 26191 H 2493.06 3.43235 -3.67694 0
M  V30 26192 H 2492.76 2.64547 -5.2468 0
M  V30 26193 H 2494.29 3.53789 -4.9766 0
M  V30 26194 H 2495.7 1.34608 -5.57273 0
M  V30 26195 H 2494.1 0.658823 -5.96473 0
M  V30 26196 H 2495.17 -0.203563 -4.84473 0
M  V30 26197 N 2496.51 1.57387 0.0818378 0
M  V30 26198 C 2497.74 1.91354 0.799912 0
M  V30 26199 C 2498.16 0.787288 1.70831 0
M  V30 26200 O 2497.52 -0.260448 1.7942 0
M  V30 26201 C 2497.57 3.24237 1.57806 0
M  V30 26202 O 2496.67 3.12762 2.68801 0
M  V30 26203 H 2496.01 0.626881 0.218899 0
M  V30 26204 H 2498.54 2.04531 0.0530896 0
M  V30 26205 H 2498.55 3.57868 1.95946 0
M  V30 26206 H 2497.23 4.05789 0.911476 0
M  V30 26207 H 2495.8 2.9067 2.33592 0
M  V30 26208 N 2497.99 -0.35299 1.53596 0
M  V30 26209 C 2499.24 -1.09212 1.70051 0
M  V30 26210 C 2499.56 -1.89462 0.46144 0
M  V30 26211 O 2498.83 -1.88745 -0.5246 0
M  V30 26212 H 2497.41 -0.406179 0.626919 0
M  V30 26213 H 2500.07 -0.396551 1.90823 0
M  V30 26214 H 2499.17 -1.77484 2.56722 0
M  V30 26215 N 2499.47 -1.45169 -0.613489 0
M  V30 26216 C 2500.88 -1.29445 -0.933606 0
M  V30 26217 C 2501.08 -0.243137 -2.00028 0
M  V30 26218 O 2500.14 0.364948 -2.49849 0
M  V30 26219 C 2501.45 -2.67157 -1.38013 0
M  V30 26220 C 2503 -2.75007 -1.49466 0
M  V30 26221 C 2503.48 -4.1323 -1.97496 0
M  V30 26222 N 2504.97 -4.15495 -2.04739 0
M  V30 26223 C 2505.7 -5.19311 -2.43112 0
M  V30 26224 N 2505.2 -6.33478 -2.80495 0
M  V30 26225 N 2506.99 -5.06669 -2.43399 0
M  V30 26226 H 2499.14 -2.12202 0.091647 0
M  V30 26227 H 2501.4 -0.947753 -0.0216488 0
M  V30 26228 H 2501.11 -3.45248 -0.670564 0
M  V30 26229 H 2500.98 -2.95226 -2.34779 0
M  V30 26230 H 2503.37 -1.97223 -2.19515 0
M  V30 26231 H 2503.45 -2.50658 -0.510298 0
M  V30 26232 H 2503.1 -4.91497 -1.28036 0
M  V30 26233 H 2503.03 -4.34967 -2.96836 0
M  V30 26234 H 2505.52 -3.33106 -1.78462 0
M  V30 26235 H 2505.83 -7.08492 -3.08639 0
M  V30 26236 H 2504.18 -6.36889 -2.78205 0
M  V30 26237 H 2507.37 -4.16526 -2.13596 0
M  V30 26238 H 2507.54 -5.87696 -2.72979 0
M  V30 26239 N 2500.95 0.855472 -1.32361 0
M  V30 26240 C 2501.88 1.97055 -1.17056 0
M  V30 26241 C 2502.89 1.62456 -0.105769 0
M  V30 26242 O 2504.08 1.74941 -0.35465 0
M  V30 26243 C 2501.18 3.30052 -0.769363 0
M  V30 26244 C 2500.35 3.92897 -1.92226 0
M  V30 26245 C 2499.41 5.04226 -1.50475 0
M  V30 26246 O 2498.44 5.24265 -2.21664 0
M  V30 26247 N 2499.64 5.79118 -0.40031 0
M  V30 26248 H 2502.4 2.10726 -2.13107 0
M  V30 26249 H 2499.97 1.03028 -1.24887 0
M  V30 26250 H 2501.96 4.01933 -0.472477 0
M  V30 26251 H 2500.53 3.1244 0.09997 0
M  V30 26252 H 2499.75 3.13813 -2.38569 0
M  V30 26253 H 2501.04 4.31619 -2.69411 0
M  V30 26254 H 2500.43 5.65373 0.19222 0
M  V30 26255 H 2498.99 6.51596 -0.163027 0
M  V30 26256 N 2502.42 1.15558 1.07164 0
M  V30 26257 C 2503.65 0.955551 1.83512 0
M  V30 26258 C 2504.07 -0.496178 1.82163 0
M  V30 26259 O 2503.42 -1.34417 1.23443 0
M  V30 26260 C 2503.47 1.46438 3.30512 0
M  V30 26261 O 2503.2 2.85924 3.31932 0
M  V30 26262 C 2504.7 1.3061 4.23622 0
M  V30 26263 H 2501.92 0.339254 0.57892 0
M  V30 26264 H 2504.46 1.53376 1.35263 0
M  V30 26265 H 2502.62 0.92865 3.76105 0
M  V30 26266 H 2503.03 3.09036 4.23789 0
M  V30 26267 H 2504.5 1.71056 5.24828 0
M  V30 26268 H 2504.98 0.250518 4.38485 0
M  V30 26269 H 2505.59 1.83101 3.83867 0
M  V30 26270 N 2503.9 -1.25546 0.952678 0
M  V30 26271 C 2504.86 -2.24206 0.475833 0
M  V30 26272 C 2505.86 -1.55234 -0.419401 0
M  V30 26273 O 2507.05 -1.72844 -0.216964 0
M  V30 26274 C 2504.19 -3.39462 -0.312755 0
M  V30 26275 H 2505.38 -2.67905 1.34784 0
M  V30 26276 H 2502.93 -1.37899 0.735763 0
M  V30 26277 H 2503.67 -3.01181 -1.20251 0
M  V30 26278 H 2503.45 -3.90713 0.329473 0
M  V30 26279 H 2504.94 -4.1273 -0.635914 0
M  V30 26280 N 2505.38 -0.721022 -1.40139 0
M  V30 26281 C 2506.8 -0.39514 -1.54631 0
M  V30 26282 C 2507 1.09552 -1.69117 0
M  V30 26283 O 2506.05 1.8816 -1.68381 0
M  V30 26284 C 2507.36 -1.16595 -2.77175 0
M  V30 26285 C 2508.91 -1.15279 -2.90998 0
M  V30 26286 C 2509.39 -1.90587 -4.16462 0
M  V30 26287 N 2510.88 -1.87683 -4.23473 0
M  V30 26288 C 2511.61 -2.42771 -5.1947 0
M  V30 26289 N 2511.11 -3.06439 -6.21343 0
M  V30 26290 N 2512.9 -2.32883 -5.11588 0
M  V30 26291 H 2505.05 -1.68752 -1.28983 0
M  V30 26292 H 2507.32 -0.713578 -0.624108 0
M  V30 26293 H 2507.02 -2.22016 -2.72767 0
M  V30 26294 H 2506.9 -0.761145 -3.69441 0
M  V30 26295 H 2509.28 -0.106754 -2.94907 0
M  V30 26296 H 2509.36 -1.59686 -1.99835 0
M  V30 26297 H 2509.01 -2.95184 -4.13315 0
M  V30 26298 H 2508.94 -1.43596 -5.06644 0
M  V30 26299 H 2511.43 -1.41287 -3.50494 0
M  V30 26300 H 2511.74 -3.45977 -6.91028 0
M  V30 26301 H 2510.09 -3.10525 -6.21771 0
M  V30 26302 H 2513.28 -1.82797 -4.30933 0
M  V30 26303 H 2513.45 -2.76116 -5.86228 0
M  V30 26304 N 2506.86 1.50503 -0.467606 0
M  V30 26305 C 2508.09 2.0672 0.086377 0
M  V30 26306 C 2508.5 1.33186 1.33817 0
M  V30 26307 O 2507.86 0.400114 1.7806 0
M  V30 26308 C 2507.91 3.59518 0.378016 0
M  V30 26309 O 2507.63 4.30279 -0.82412 0
M  V30 26310 C 2509.13 4.32347 0.97935 0
M  V30 26311 H 2506.35 0.670977 -0.00552876 0
M  V30 26312 H 2508.89 1.93713 -0.655388 0
M  V30 26313 H 2507.05 3.72339 1.06971 0
M  V30 26314 H 2507.46 5.21431 -0.566609 0
M  V30 26315 H 2508.94 5.40243 1.1332 0
M  V30 26316 H 2509.41 3.92614 1.96853 0
M  V30 26317 H 2510.02 4.24048 0.326141 0
M  V30 26318 N 2508.34 0.200077 1.56325 0
M  V30 26319 C 2509.27 -0.713877 2.2232 0
M  V30 26320 C 2510.25 -1.2175 1.1879 0
M  V30 26321 O 2511.43 -1.26543 1.47311 0
M  V30 26322 C 2508.56 -1.93139 2.88643 0
M  V30 26323 C 2507.52 -1.56248 3.9846 0
M  V30 26324 C 2506.84 -2.85701 4.51972 0
M  V30 26325 C 2508.14 -0.768656 5.16613 0
M  V30 26326 H 2509.84 -0.163702 2.98952 0
M  V30 26327 H 2507.38 -0.0772966 1.43792 0
M  V30 26328 H 2509.33 -2.57602 3.33495 0
M  V30 26329 H 2508.06 -2.50618 2.09424 0
M  V30 26330 H 2506.72 -0.941409 3.54306 0
M  V30 26331 H 2506.37 -3.4128 3.69509 0
M  V30 26332 H 2506.07 -2.61761 5.26075 0
M  V30 26333 H 2507.59 -3.51145 4.99529 0
M  V30 26334 H 2509 -1.3165 5.57979 0
M  V30 26335 H 2507.4 -0.627181 5.96814 0
M  V30 26336 H 2508.47 0.229253 4.84358 0
M  V30 26337 N 2509.81 -1.57429 -0.0734901 0
M  V30 26338 C 2510.75 -1.98865 -1.11929 0
M  V30 26339 C 2511.72 -0.865291 -1.37664 0
M  V30 26340 O 2512.91 -1.12745 -1.51066 0
M  V30 26341 C 2510.04 -2.3239 -2.46399 0
M  V30 26342 C 2509.08 -3.54717 -2.36808 0
M  V30 26343 S 2509.91 -5.05618 -1.76383 0
M  V30 26344 C 2511.07 -5.42343 -3.12434 0
M  V30 26345 H 2511.3 -2.87258 -0.766161 0
M  V30 26346 H 2508.84 -1.51804 -0.281961 0
M  V30 26347 H 2510.79 -2.52381 -3.2375 0
M  V30 26348 H 2509.46 -1.44529 -2.78873 0
M  V30 26349 H 2508.65 -3.75686 -3.3597 0
M  V30 26350 H 2508.25 -3.34348 -1.67592 0
M  V30 26351 H 2510.54 -5.4031 -4.08744 0
M  V30 26352 H 2511.49 -6.43151 -2.96246 0
M  V30 26353 H 2511.89 -4.69804 -3.12962 0
M  V30 26354 N 2511.29 0.344839 -1.53781 0
M  V30 26355 C 2512.52 1.10371 -1.74648 0
M  V30 26356 C 2512.93 1.8288 -0.484943 0
M  V30 26357 O 2512.27 1.75178 0.553031 0
M  V30 26358 C 2512.33 2.16301 -2.87149 0
M  V30 26359 C 2512 1.63378 -4.26798 0
M  V30 26360 C 2513 1.08679 -5.08414 0
M  V30 26361 C 2510.68 1.68264 -4.73279 0
M  V30 26362 C 2512.67 0.595681 -6.3461 0
M  V30 26363 C 2510.36 1.18765 -5.99448 0
M  V30 26364 C 2511.36 0.645096 -6.79947 0
M  V30 26365 O 2511.05 0.157485 -8.03746 0
M  V30 26366 H 2510.78 0.335064 -0.587118 0
M  V30 26367 H 2513.33 0.403217 -2.01403 0
M  V30 26368 H 2511.56 2.89905 -2.55915 0
M  V30 26369 H 2513.25 2.77742 -2.95997 0
M  V30 26370 H 2514.02 1.04227 -4.73668 0
M  V30 26371 H 2509.9 2.09434 -4.1068 0
M  V30 26372 H 2513.44 0.171532 -6.97389 0
M  V30 26373 H 2509.34 1.22917 -6.33689 0
M  V30 26374 H 2510.11 0.274893 -8.18038 0
M  V30 26375 N 2512.77 1.45492 0.605781 0
M  V30 26376 C 2513.72 1.54639 1.73752 0
M  V30 26377 C 2514.71 0.416248 1.64206 0
M  V30 26378 O 2515.92 0.592229 1.69978 0
M  V30 26379 H 2512.29 0.485751 0.574064 0
M  V30 26380 H 2514.26 2.4984 1.63165 0
M  V30 26381 C 2513.01 1.53195 3.12132 0
M  V30 26382 H 2512.34 2.39483 3.20137 0
M  V30 26383 H 2513.78 1.63652 3.91144 0
M  V30 26384 C 2512.23 0.256675 3.35921 0
M  V30 26385 O 2512.76 -0.662728 3.96195 0
M  V30 26386 N 2510.97 0.151802 2.90203 0
M  V30 26387 H 2510.52 0.900852 2.41335 0
M  V30 26388 H 2510.48 -0.700646 3.06494 0
M  V30 26389 N 2514.25 -0.848441 1.32813 0
M  V30 26390 C 2515.5 -1.60306 1.23727 0
M  V30 26391 C 2515.82 -1.93476 -0.199366 0
M  V30 26392 O 2515.08 -1.58052 -1.15404 0
M  V30 26393 C 2515.38 -2.92877 2.04836 0
M  V30 26394 C 2515.04 -2.79111 3.5413 0
M  V30 26395 C 2513.71 -2.75063 3.94834 0
M  V30 26396 C 2516.06 -2.64598 4.49041 0
M  V30 26397 C 2513.39 -2.5439 5.2868 0
M  V30 26398 C 2515.74 -2.45459 5.83037 0
M  V30 26399 C 2514.4 -2.39808 6.22935 0
M  V30 26400 H 2513.67 -0.586601 0.452748 0
M  V30 26401 H 2516.32 -0.983714 1.64303 0
M  V30 26402 H 2514.62 -3.58965 1.57008 0
M  V30 26403 H 2516.32 -3.50299 1.9517 0
M  V30 26404 H 2512.91 -2.83088 3.21806 0
M  V30 26405 H 2517.09 -2.66765 4.18509 0
M  V30 26406 H 2512.35 -2.48455 5.58641 0
M  V30 26407 H 2516.52 -2.33211 6.5619 0
M  V30 26408 H 2514.15 -2.23549 7.26588 0
M  V30 26409 N 2515.73 -1.16125 -1.06549 0
M  V30 26410 C 2517.14 -0.94926 -1.60767 0
M  V30 26411 C 2517.49 0.507474 -1.89523 0
M  V30 26412 O 2516.61 1.38018 -1.66673 0
M  V30 26413 C 2517.21 -1.71676 -2.92083 0
M  V30 26414 C 2515.77 -1.54983 -3.43012 0
M  V30 26415 C 2514.91 -1.72715 -2.16944 0
M  V30 26416 H 2517.87 -1.31033 -0.895331 0
M  V30 26417 H 2517.89 -1.19105 -3.61378 0
M  V30 26418 H 2517.4 -2.77695 -2.71122 0
M  V30 26419 H 2515.5 -0.513938 -3.69039 0
M  V30 26420 H 2515.61 -2.33206 -4.18512 0
M  V30 26421 H 2513.98 -1.15435 -2.27039 0
M  V30 26422 H 2514.76 -2.80116 -1.98468 0
M  V30 26423 N 2517.2 1.25039 -0.959323 0
M  V30 26424 C 2518.43 1.96947 -0.633984 0
M  V30 26425 C 2518.85 1.71251 0.794886 0
M  V30 26426 O 2518.2 0.991314 1.53229 0
M  V30 26427 C 2518.26 3.50402 -0.888866 0
M  V30 26428 O 2517.98 3.75214 -2.26156 0
M  V30 26429 C 2519.48 4.39535 -0.57656 0
M  V30 26430 H 2516.7 0.627648 -0.237274 0
M  V30 26431 H 2519.24 1.59087 -1.28498 0
M  V30 26432 H 2517.4 3.86356 -0.284213 0
M  V30 26433 H 2517.81 4.69646 -2.33523 0
M  V30 26434 H 2519.28 5.46093 -0.80541 0
M  V30 26435 H 2519.76 4.36469 0.488998 0
M  V30 26436 H 2520.37 4.09154 -1.16074 0
M  V30 26437 N 2518.68 0.728444 1.39755 0
M  V30 26438 C 2520.1 0.403335 1.54419 0
M  V30 26439 C 2520.3 -1.08653 1.69696 0
M  V30 26440 O 2519.35 -1.87264 1.69376 0
M  V30 26441 C 2520.67 1.18063 2.76553 0
M  V30 26442 C 2522.22 1.16821 2.90382 0
M  V30 26443 C 2522.69 1.92793 4.15446 0
M  V30 26444 N 2524.18 1.89926 4.22472 0
M  V30 26445 C 2524.92 2.45523 5.18176 0
M  V30 26446 N 2524.41 3.0973 6.19709 0
M  V30 26447 N 2526.21 2.35593 5.10345 0
M  V30 26448 H 2518.36 1.69433 1.28086 0
M  V30 26449 H 2520.62 0.716878 0.620314 0
M  V30 26450 H 2520.33 2.23459 2.71586 0
M  V30 26451 H 2520.2 0.780727 3.69032 0
M  V30 26452 H 2522.59 0.122392 2.94846 0
M  V30 26453 H 2522.67 1.60743 1.98986 0
M  V30 26454 H 2522.31 2.97371 4.11744 0
M  V30 26455 H 2522.24 1.46281 5.05875 0
M  V30 26456 H 2524.73 1.43144 3.4974 0
M  V30 26457 H 2525.05 3.49637 6.89184 0
M  V30 26458 H 2523.39 3.13818 6.20116 0
M  V30 26459 H 2526.58 1.8508 4.29957 0
M  V30 26460 H 2526.75 2.79221 5.84756 0
M  V30 26461 N 2520.16 -1.50253 0.475581 0
M  V30 26462 C 2521.12 -2.27162 -0.304976 0
M  V30 26463 C 2522.12 -1.32125 -0.916496 0
M  V30 26464 O 2523.31 -1.55511 -0.784976 0
M  V30 26465 C 2520.45 -3.0923 -1.43491 0
M  V30 26466 H 2521.64 -2.97614 0.369564 0
M  V30 26467 H 2519.19 -1.54602 0.229774 0
M  V30 26468 H 2519.93 -2.43284 -2.14437 0
M  V30 26469 H 2519.71 -3.79077 -1.00217 0
M  V30 26470 H 2521.2 -3.67384 -1.98541 0
M  V30 26471 N 2521.64 -0.208365 -1.56217 0
M  V30 26472 C 2522.89 0.426042 -1.97558 0
M  V30 26473 C 2523.21 1.61227 -1.09686 0
M  V30 26474 O 2522.48 1.95152 -0.17099 0
M  V30 26475 H 2521.06 0.160393 -0.729577 0
M  V30 26476 H 2523.72 -0.298189 -1.92605 0
M  V30 26477 H 2522.82 0.761259 -3.02674 0
M  V30 26478 N 2523.12 1.57465 0.0651402 0
M  V30 26479 C 2524.05 2.00884 1.10356 0
M  V30 26480 C 2525.06 0.915811 1.34598 0
M  V30 26481 O 2526.25 1.19362 1.32721 0
M  V30 26482 C 2523.35 2.33832 2.45308 0
M  V30 26483 C 2522.52 3.65065 2.40928 0
M  V30 26484 C 2521.58 3.85608 3.5804 0
M  V30 26485 O 2520.61 4.57115 3.39167 0
M  V30 26486 N 2521.81 3.2847 4.78631 0
M  V30 26487 H 2524.58 2.90579 0.733756 0
M  V30 26488 H 2522.14 1.599 0.253691 0
M  V30 26489 H 2524.13 2.44742 3.22309 0
M  V30 26490 H 2522.7 1.49992 2.74265 0
M  V30 26491 H 2521.92 3.64847 1.49266 0
M  V30 26492 H 2523.21 4.51222 2.35109 0
M  V30 26493 H 2522.6 2.70442 4.96868 0
M  V30 26494 H 2521.16 3.44819 5.53121 0
M  V30 26495 N 2524.59 -0.336679 1.53962 0
M  V30 26496 C 2525.83 -1.08451 1.73256 0
M  V30 26497 C 2526.2 -1.85669 0.48897 0
M  V30 26498 O 2527.4 -2.62922 0.559047 0
M  V30 26499 C 2525.67 -1.99522 2.96522 0
M  V30 26500 S 2527.23 -2.81435 3.3666 0
M  V30 26501 H 2524.05 -0.366336 0.60936 0
M  V30 26502 H 2526.65 -0.36209 1.92118 0
M  V30 26503 H 2525.35 -1.41607 3.85196 0
M  V30 26504 H 2524.88 -2.76191 2.80147 0
M  V30 26505 H 2526.9 -4.01962 2.90932 0
M  V30 26506 N 2526.07 -1.45812 -0.598057 0
M  V30 26507 C 2527.32 -1.50028 -1.3541 0
M  V30 26508 C 2527.64 -0.147211 -1.94444 0
M  V30 26509 O 2526.91 0.82454 -1.77702 0
M  V30 26510 H 2525.49 -0.552526 -0.502717 0
M  V30 26511 H 2528.15 -1.81835 -0.701574 0
M  V30 26512 H 2527.25 -2.24444 -2.16867 0
M  V30 26513 N 2527.55 0.841385 -1.33261 0
M  V30 26514 C 2528.8 1.59332 -1.24329 0
M  V30 26515 C 2529.12 1.94057 0.19153 0
M  V30 26516 O 2528.39 1.60751 1.11964 0
M  V30 26517 H 2526.97 0.590755 -0.457184 0
M  V30 26518 H 2529.63 1.00569 -1.66949 0
M  V30 26519 H 2528.73 2.52439 -1.83524 0
M  V30 26520 N 2529.03 1.16688 1.05932 0
M  V30 26521 C 2530.28 0.945116 1.78187 0
M  V30 26522 C 2530.59 -0.527988 1.88339 0
M  V30 26523 O 2531.8 -0.867754 2.57259 0
M  V30 26524 C 2530.25 1.64173 3.20274 0
M  V30 26525 C 2529.86 3.15285 3.18276 0
M  V30 26526 C 2531.61 1.50207 3.97037 0
M  V30 26527 C 2529.51 3.77668 4.55105 0
M  V30 26528 H 2528.44 0.349971 0.66786 0
M  V30 26529 H 2531.09 1.3986 1.18791 0
M  V30 26530 H 2529.48 1.11596 3.79951 0
M  V30 26531 H 2530.65 3.74735 2.68161 0
M  V30 26532 H 2528.96 3.29178 2.55012 0
M  V30 26533 H 2531.56 1.94192 4.9819 0
M  V30 26534 H 2531.9 0.451533 4.13844 0
M  V30 26535 H 2532.44 1.9996 3.43891 0
M  V30 26536 H 2529.18 4.82685 4.43503 0
M  V30 26537 H 2528.7 3.23003 5.054 0
M  V30 26538 H 2530.38 3.79437 5.24057 0
M  V30 26539 N 2530.51 -1.24529 0.96594 0
M  V30 26540 C 2531.76 -1.91855 0.622471 0
M  V30 26541 C 2532.07 -1.76359 -0.845975 0
M  V30 26542 O 2533.28 -2.38359 -1.29989 0
M  V30 26543 C 2531.73 -3.43854 1.06266 0
M  V30 26544 C 2531.34 -3.68039 2.55444 0
M  V30 26545 C 2533.08 -4.17041 0.792256 0
M  V30 26546 C 2530.99 -5.136 2.93205 0
M  V30 26547 H 2529.92 -0.71835 0.229105 0
M  V30 26548 H 2532.57 -1.41204 1.17191 0
M  V30 26549 H 2530.95 -3.93531 0.441545 0
M  V30 26550 H 2532.13 -3.28969 3.22671 0
M  V30 26551 H 2530.44 -3.08134 2.80076 0
M  V30 26552 H 2533.04 -5.24281 1.05041 0
M  V30 26553 H 2533.38 -4.15414 -0.271511 0
M  V30 26554 H 2533.92 -3.73308 1.37426 0
M  V30 26555 H 2530.65 -5.20348 3.98645 0
M  V30 26556 H 2530.17 -5.53675 2.3066 0
M  V30 26557 H 2531.85 -5.81818 2.83014 0
M  V30 26558 N 2531.99 -0.735845 -1.39367 0
M  V30 26559 C 2533.21 -0.294429 -2.04794 0
M  V30 26560 C 2533.63 1.07104 -1.5548 0
M  V30 26561 O 2532.99 1.67694 -0.720067 0
M  V30 26562 C 2533.04 -0.288134 -3.6035 0
M  V30 26563 O 2532.76 -1.59971 -4.07849 0
M  V30 26564 C 2534.26 0.169344 -4.42976 0
M  V30 26565 H 2531.48 -0.128562 -0.658569 0
M  V30 26566 H 2534.02 -0.999732 -1.78397 0
M  V30 26567 H 2532.18 0.368287 -3.85645 0
M  V30 26568 H 2532.59 -1.51384 -5.02179 0
M  V30 26569 H 2534.07 0.12259 -5.51864 0
M  V30 26570 H 2534.54 1.21464 -4.2207 0
M  V30 26571 H 2535.15 -0.457543 -4.22832 0
M  V30 26572 N 2533.46 1.49999 -0.483543 0
M  V30 26573 C 2534.7 2.04294 0.065711 0
M  V30 26574 C 2535.07 1.35662 1.35867 0
M  V30 26575 O 2536.27 1.80581 1.99108 0
M  V30 26576 C 2534.54 3.56642 0.232695 0
M  V30 26577 S 2536.1 4.32537 0.738712 0
M  V30 26578 H 2532.92 0.710929 0.010063 0
M  V30 26579 H 2535.52 1.84253 -0.653527 0
M  V30 26580 H 2534.22 4.04143 -0.713918 0
M  V30 26581 H 2533.75 3.81058 0.977684 0
M  V30 26582 H 2535.77 4.53649 2.0104 0
M  V30 26583 N 2534.94 0.216646 1.56104 0
M  V30 26584 C 2536.17 -0.421378 2.02564 0
M  V30 26585 C 2536.58 -1.53693 1.09653 0
M  V30 26586 O 2535.94 -1.82196 0.105242 0
M  V30 26587 C 2535.99 -0.957604 3.48586 0
M  V30 26588 O 2535.71 0.113466 4.37953 0
M  V30 26589 C 2537.21 -1.66936 4.10667 0
M  V30 26590 H 2534.43 -0.103654 0.662946 0
M  V30 26591 H 2536.98 0.331664 2.01793 0
M  V30 26592 H 2535.13 -1.66094 3.49988 0
M  V30 26593 H 2535.55 -0.28884 5.23704 0
M  V30 26594 H 2537.02 -1.99662 5.14625 0
M  V30 26595 H 2537.5 -2.58077 3.55377 0
M  V30 26596 H 2538.1 -1.01135 4.131 0
M  V30 26597 N 2536.42 -1.57498 -0.0567885 0
M  V30 26598 C 2537.67 -1.87605 -0.751584 0
M  V30 26599 C 2537.99 -0.810691 -1.77349 0
M  V30 26600 O 2537.26 0.158984 -1.95254 0
M  V30 26601 H 2535.84 -0.692307 -0.280571 0
M  V30 26602 H 2538.5 -1.94878 -0.0293141 0
M  V30 26603 H 2537.6 -2.85603 -1.25847 0
M  V30 26604 N 2537.9 0.328509 -1.54138 0
M  V30 26605 C 2538.84 1.40408 -1.83178 0
M  V30 26606 C 2539.81 1.51609 -0.678521 0
M  V30 26607 O 2541 1.66908 -0.924459 0
M  V30 26608 C 2538.14 2.76842 -2.0604 0
M  V30 26609 C 2537.25 2.74312 -3.33732 0
M  V30 26610 C 2536.39 4.02561 -3.46581 0
M  V30 26611 C 2535.43 3.94319 -4.68166 0
M  V30 26612 N 2534.56 5.14287 -4.77968 0
M  V30 26613 H 2539.4 1.14944 -2.7494 0
M  V30 26614 H 2536.94 0.556514 -1.36167 0
M  V30 26615 H 2538.9 3.5615 -2.17286 0
M  V30 26616 H 2537.53 3.00626 -1.17575 0
M  V30 26617 H 2536.58 1.87024 -3.31249 0
M  V30 26618 H 2537.89 2.64103 -4.23144 0
M  V30 26619 H 2537.05 4.90298 -3.57342 0
M  V30 26620 H 2535.79 4.15569 -2.55252 0
M  V30 26621 H 2534.79 3.04966 -4.57467 0
M  V30 26622 H 2536.02 3.8288 -5.60874 0
M  V30 26623 H 2533.96 5.27811 -3.89553 0
M  V30 26624 H 2533.88 5.06394 -5.61338 0
M  V30 26625 H 2535.15 6.03753 -4.93055 0
M  V30 26626 N 2539.38 1.46127 0.590316 0
M  V30 26627 C 2540.62 1.51266 1.35079 0
M  V30 26628 C 2540.95 0.160745 1.93534 0
M  V30 26629 O 2540.23 -0.826925 1.76046 0
M  V30 26630 C 2540.51 2.60535 2.48584 0
M  V30 26631 C 2540.37 4.05231 1.95213 0
M  V30 26632 C 2541.68 2.65946 3.50658 0
M  V30 26633 H 2538.8 0.550701 0.489794 0
M  V30 26634 H 2541.45 1.78025 0.663856 0
M  V30 26635 H 2539.6 2.37848 3.07181 0
M  V30 26636 H 2541.27 4.39181 1.41131 0
M  V30 26637 H 2539.51 4.1507 1.26093 0
M  V30 26638 H 2540.18 4.77402 2.77113 0
M  V30 26639 H 2542.66 2.86319 3.01929 0
M  V30 26640 H 2541.53 3.44234 4.27545 0
M  V30 26641 H 2541.79 1.71701 4.07396 0
M  V30 26642 N 2540.85 -0.834306 1.33705 0
M  V30 26643 C 2542.1 -1.58481 1.24766 0
M  V30 26644 C 2542.42 -1.94735 -0.183741 0
M  V30 26645 O 2543.62 -2.68608 -0.395187 0
M  V30 26646 C 2542.08 -2.85872 2.18643 0
M  V30 26647 C 2541.69 -2.56965 3.66978 0
M  V30 26648 C 2543.43 -3.63895 2.18587 0
M  V30 26649 C 2541.34 -3.8048 4.52757 0
M  V30 26650 H 2540.27 -0.594764 0.463435 0
M  V30 26651 H 2542.92 -0.919523 1.58799 0
M  V30 26652 H 2541.3 -3.53967 1.77549 0
M  V30 26653 H 2542.47 -1.97053 4.16541 0
M  V30 26654 H 2540.79 -1.92238 3.69369 0
M  V30 26655 H 2543.39 -4.55586 2.79902 0
M  V30 26656 H 2543.73 -3.99163 1.18214 0
M  V30 26657 H 2544.26 -3.02731 2.58068 0
M  V30 26658 H 2541 -3.5034 5.54023 0
M  V30 26659 H 2540.52 -4.39715 4.07935 0
M  V30 26660 H 2542.2 -4.48012 4.66792 0
M  V30 26661 N 2542.33 -1.17248 -1.05312 0
M  V30 26662 C 2543.58 -0.958225 -1.77939 0
M  V30 26663 C 2543.9 0.514523 -1.8809 0
M  V30 26664 O 2543.17 1.37357 -1.39678 0
M  V30 26665 H 2541.75 -0.351545 -0.659109 0
M  V30 26666 H 2544.41 -1.47701 -1.27163 0
M  V30 26667 H 2543.51 -1.38551 -2.79661 0
M  V30 26668 N 2543.81 1.24015 -0.972531 0
M  V30 26669 C 2544.74 2.23695 -0.451209 0
M  V30 26670 C 2545.72 1.55435 0.477351 0
M  V30 26671 O 2546.91 1.8404 0.407615 0
M  V30 26672 C 2544.03 3.36906 0.34812 0
M  V30 26673 C 2543.08 4.23276 -0.523429 0
M  V30 26674 S 2543.91 4.98083 -1.96655 0
M  V30 26675 C 2545.07 6.1475 -1.17615 0
M  V30 26676 H 2545.3 2.67569 -1.29593 0
M  V30 26677 H 2542.83 1.3337 -0.777927 0
M  V30 26678 H 2544.79 4.02563 0.803316 0
M  V30 26679 H 2543.45 2.91581 1.16787 0
M  V30 26680 H 2542.65 5.03919 0.0905295 0
M  V30 26681 H 2542.25 3.62646 -0.914549 0
M  V30 26682 H 2544.54 6.76111 -0.433553 0
M  V30 26683 H 2545.48 6.80516 -1.95712 0
M  V30 26684 H 2545.89 5.60163 -0.698394 0
M  V30 26685 N 2545.29 0.743226 1.38974 0
M  V30 26686 C 2546.24 0.084553 2.27843 0
M  V30 26687 C 2547.22 -0.704068 1.44678 0
M  V30 26688 O 2548.41 -0.571725 1.67512 0
M  V30 26689 C 2545.54 -0.815722 3.33468 0
M  V30 26690 C 2544.63 -0.0208098 4.24095 0
M  V30 26691 N 2545.02 1.01029 4.95608 0
M  V30 26692 C 2543.32 -0.249215 4.45303 0
M  V30 26693 C 2544.02 1.49034 5.62284 0
M  V30 26694 N 2543 0.807471 5.37569 0
M  V30 26695 H 2546.8 0.874409 2.80591 0
M  V30 26696 H 2544.31 0.57831 1.51754 0
M  V30 26697 H 2546.31 -1.30314 3.9601 0
M  V30 26698 H 2544.97 -1.60465 2.82279 0
M  V30 26699 H 2545.98 1.39185 4.98847 0
M  V30 26700 H 2542.66 -1.0123 4.05042 0
M  V30 26701 H 2544.05 2.34864 6.29514 0
M  V30 26702 N 2546.77 -1.4974 0.491491 0
M  V30 26703 C 2548.01 -2.02721 -0.0564735 0
M  V30 26704 C 2548.35 -1.37121 -1.37519 0
M  V30 26705 O 2547.62 -0.503678 -1.87865 0
M  V30 26706 C 2547.9 -3.59434 -0.218988 0
M  V30 26707 C 2547.76 -4.35577 1.12219 0
M  V30 26708 C 2549.08 -4.29411 -0.964081 0
M  V30 26709 H 2546.19 -0.736754 -0.0190497 0
M  V30 26710 H 2548.84 -1.78859 0.641053 0
M  V30 26711 H 2546.99 -3.79896 -0.813098 0
M  V30 26712 H 2548.66 -4.26634 1.75445 0
M  V30 26713 H 2546.9 -3.9851 1.71384 0
M  V30 26714 H 2547.57 -5.43555 0.961889 0
M  V30 26715 H 2550.05 -4.13546 -0.460305 0
M  V30 26716 H 2548.92 -5.38829 -1.04662 0
M  V30 26717 H 2549.19 -3.93992 -2.00556 0
M  V30 26718 N 2548.24 -0.224922 -1.55987 0
M  V30 26719 C 2549.49 0.405064 -1.97999 0
M  V30 26720 C 2549.81 1.60054 -1.1139 0
M  V30 26721 O 2549.08 1.9496 -0.191679 0
M  V30 26722 H 2547.66 0.152645 -0.731238 0
M  V30 26723 H 2550.33 -0.318601 -1.92278 0
M  V30 26724 H 2549.42 0.729113 -3.03464 0
M  V30 26725 N 2549.72 1.57526 0.0484352 0
M  V30 26726 C 2550.97 1.88001 0.741624 0
M  V30 26727 C 2551.29 0.820085 1.76917 0
M  V30 26728 O 2550.56 -0.148627 1.95335 0
M  V30 26729 H 2549.14 0.693785 0.276896 0
M  V30 26730 H 2551.8 1.94891 0.0189788 0
M  V30 26731 H 2550.9 2.86266 1.24331 0
M  V30 26732 N 2551.2 -0.32033 1.5431 0
M  V30 26733 C 2552.15 -1.41447 1.8465 0
M  V30 26734 C 2553.14 -1.53401 0.718651 0
M  V30 26735 O 2554.35 -1.55748 0.902362 0
M  V30 26736 H 2550.72 -0.472081 0.585358 0
M  V30 26737 H 2552.69 -1.13084 2.76142 0
M  V30 26738 C 2551.44 -2.77614 2.09346 0
M  V30 26739 H 2550.77 -2.69191 2.95595 0
M  V30 26740 H 2552.21 -3.53233 2.34526 0
M  V30 26741 C 2550.67 -3.25041 0.885996 0
M  V30 26742 O 2551.2 -4.01583 0.0968597 0
M  V30 26743 N 2549.4 -2.82124 0.696732 0
M  V30 26744 H 2548.95 -2.19998 1.3401 0
M  V30 26745 H 2548.91 -3.14209 -0.109657 0
M  V30 26746 N 2552.68 -1.46438 -0.582558 0
M  V30 26747 C 2553.93 -1.51456 -1.33812 0
M  V30 26748 C 2554.25 -0.167826 -1.94276 0
M  V30 26749 O 2553.52 0.805646 -1.78567 0
M  V30 26750 H 2552.1 -0.557827 -0.496828 0
M  V30 26751 H 2554.76 -1.82569 -0.682249 0
M  V30 26752 H 2553.86 -2.26731 -2.14475 0
M  V30 26753 N 2554.16 0.827204 -1.34146 0
M  V30 26754 C 2555.38 1.62019 -1.29479 0
M  V30 26755 C 2555.81 1.87655 0.129259 0
M  V30 26756 O 2555.16 1.44902 1.08964 0
M  V30 26757 C 2555.21 2.94064 -2.08707 0
M  V30 26758 O 2554.32 3.85931 -1.45366 0
M  V30 26759 H 2553.66 0.492919 -0.444889 0
M  V30 26760 H 2556.19 1.02826 -1.76884 0
M  V30 26761 H 2556.2 3.43666 -2.19904 0
M  V30 26762 H 2554.87 2.74728 -3.12245 0
M  V30 26763 H 2553.45 3.44439 -1.42885 0
M  V30 26764 N 2555.63 1.17805 1.04688 0
M  V30 26765 C 2556.58 0.867428 2.10855 0
M  V30 26766 C 2557.57 -0.160178 1.60101 0
M  V30 26767 O 2558.76 0.0429781 1.76948 0
M  V30 26768 C 2555.89 0.388072 3.411 0
M  V30 26769 C 2554.98 1.44739 3.98637 0
M  V30 26770 N 2555.37 2.6622 4.3007 0
M  V30 26771 C 2553.66 1.30644 4.26437 0
M  V30 26772 C 2554.37 3.34325 4.76027 0
M  V30 26773 N 2553.34 2.61705 4.76457 0
M  V30 26774 H 2557.14 1.79098 2.33026 0
M  V30 26775 H 2554.66 1.06752 1.22384 0
M  V30 26776 H 2556.65 0.147068 4.16641 0
M  V30 26777 H 2555.31 -0.529215 3.20358 0
M  V30 26778 H 2556.33 3.03141 4.19912 0
M  V30 26779 H 2553 0.451202 4.15055 0
M  V30 26780 H 2554.39 4.38112 5.09419 0
M  V30 26781 N 2557.11 -1.23497 0.979094 0
M  V30 26782 C 2558.36 -1.91498 0.645974 0
M  V30 26783 C 2558.68 -1.76785 -0.822917 0
M  V30 26784 O 2557.95 -1.14642 -1.58852 0
M  V30 26785 H 2556.53 -0.708763 0.235931 0
M  V30 26786 H 2559.19 -1.50149 1.24262 0
M  V30 26787 H 2558.29 -2.98948 0.896464 0
M  V30 26788 N 2558.59 -0.750586 -1.38578 0
M  V30 26789 C 2559.84 -0.305408 -2.00184 0
M  V30 26790 C 2560.17 1.112 -1.59577 0
M  V30 26791 O 2559.42 1.77541 -0.823267 0
M  V30 26792 C 2559.72 -0.372435 -3.55454 0
M  V30 26793 C 2559.39 -1.74507 -4.15762 0
M  V30 26794 C 2558.05 -2.12073 -4.31947 0
M  V30 26795 C 2560.4 -2.64561 -4.49062 0
M  V30 26796 C 2557.73 -3.3917 -4.78728 0
M  V30 26797 C 2560.08 -3.91046 -4.97258 0
M  V30 26798 C 2558.74 -4.28685 -5.1165 0
M  V30 26799 H 2558.01 -0.111757 -0.732524 0
M  V30 26800 H 2560.66 -0.96048 -1.65671 0
M  V30 26801 H 2558.97 0.366203 -3.90085 0
M  V30 26802 H 2560.66 -0.00960966 -4.00999 0
M  V30 26803 H 2557.25 -1.44304 -4.03577 0
M  V30 26804 H 2561.44 -2.36804 -4.36162 0
M  V30 26805 H 2556.69 -3.68255 -4.88056 0
M  V30 26806 H 2560.87 -4.60971 -5.21995 0
M  V30 26807 H 2558.49 -5.27232 -5.47659 0
M  V30 26808 N 2560.07 1.49477 -0.499425 0
M  V30 26809 C 2561.03 2.27618 0.268798 0
M  V30 26810 C 2562.03 1.33566 0.89536 0
M  V30 26811 O 2563.22 1.5674 0.760136 0
M  V30 26812 C 2560.35 3.11474 1.38553 0
M  V30 26813 H 2561.55 2.96989 -0.416865 0
M  V30 26814 H 2559.1 1.54217 -0.254341 0
M  V30 26815 H 2559.84 2.46665 2.10539 0
M  V30 26816 H 2559.62 3.80623 0.94173 0
M  V30 26817 H 2561.11 3.70496 1.92671 0
M  V30 26818 N 2561.55 0.233191 1.55865 0
M  V30 26819 C 2562.51 -0.658676 2.19532 0
M  V30 26820 C 2563.51 -1.11301 1.16055 0
M  V30 26821 O 2564.7 -1.01993 1.4122 0
M  V30 26822 C 2561.83 -1.90368 2.82794 0
M  V30 26823 H 2563.03 -0.103418 2.99722 0
M  V30 26824 H 2560.58 -0.016397 1.56291 0
M  V30 26825 H 2561.31 -2.50052 2.06505 0
M  V30 26826 H 2561.1 -1.58626 3.58581 0
M  V30 26827 H 2562.59 -2.53885 3.3156 0
M  V30 26828 N 2563.03 -1.57549 -0.0400806 0
M  V30 26829 C 2563.99 -2.04819 -1.02868 0
M  V30 26830 C 2564.99 -0.950411 -1.29707 0
M  V30 26831 O 2566.18 -1.21437 -1.24895 0
M  V30 26832 C 2563.31 -2.4558 -2.36438 0
M  V30 26833 H 2564.5 -2.93409 -0.620579 0
M  V30 26834 H 2562.06 -1.53649 -0.28664 0
M  V30 26835 H 2562.79 -1.60113 -2.82018 0
M  V30 26836 H 2562.58 -3.25717 -2.18291 0
M  V30 26837 H 2564.07 -2.82618 -3.07436 0
M  V30 26838 N 2564.5 0.312142 -1.54478 0
M  V30 26839 C 2565.43 1.38954 -1.87654 0
M  V30 26840 C 2566.41 1.5343 -0.734385 0
M  V30 26841 O 2567.6 1.67122 -0.989139 0
M  V30 26842 C 2564.73 2.75549 -2.11401 0
M  V30 26843 C 2563.68 2.75849 -3.27248 0
M  V30 26844 C 2563.01 4.15628 -3.36389 0
M  V30 26845 C 2564.31 2.38579 -4.64626 0
M  V30 26846 H 2566 1.11437 -2.77889 0
M  V30 26847 H 2563.55 0.534631 -1.33707 0
M  V30 26848 H 2565.5 3.50996 -2.33195 0
M  V30 26849 H 2564.23 3.04567 -1.17926 0
M  V30 26850 H 2562.89 2.02857 -3.0536 0
M  V30 26851 H 2562.53 4.41805 -2.40452 0
M  V30 26852 H 2562.23 4.16732 -4.14256 0
M  V30 26853 H 2563.76 4.92871 -3.60431 0
M  V30 26854 H 2565.17 3.03741 -4.86225 0
M  V30 26855 H 2563.57 2.50916 -5.45125 0
M  V30 26856 H 2564.64 1.33715 -4.66099 0
M  V30 26857 N 2565.98 1.46745 0.574784 0
M  V30 26858 C 2566.93 1.57908 1.68326 0
M  V30 26859 C 2567.9 0.422955 1.60625 0
M  V30 26860 O 2569.08 0.640742 1.7972 0
M  V30 26861 C 2566.22 1.5828 3.06662 0
M  V30 26862 C 2565.34 2.84683 3.2493 0
M  V30 26863 C 2564.47 2.76507 4.53561 0
M  V30 26864 C 2563.51 3.97814 4.652 0
M  V30 26865 N 2562.65 3.87977 5.85165 0
M  V30 26866 H 2567.49 2.52589 1.58122 0
M  V30 26867 H 2565.02 1.25305 0.77053 0
M  V30 26868 H 2566.98 1.5648 3.86743 0
M  V30 26869 H 2565.61 0.671249 3.15744 0
M  V30 26870 H 2564.66 2.96428 2.384 0
M  V30 26871 H 2565.98 3.74566 3.29397 0
M  V30 26872 H 2565.13 2.72857 5.4188 0
M  V30 26873 H 2563.87 1.84278 4.51545 0
M  V30 26874 H 2562.87 4.01787 3.75296 0
M  V30 26875 H 2564.1 4.91148 4.68988 0
M  V30 26876 H 2562.05 2.9854 5.84132 0
M  V30 26877 H 2561.96 4.71521 5.90935 0
M  V30 26878 H 2563.23 3.88315 6.75893 0
M  V30 26879 N 2567.46 -0.820078 1.34583 0
M  V30 26880 C 2568.88 -1.11362 1.14327 0
M  V30 26881 C 2569.08 -2.01429 -0.0533294 0
M  V30 26882 O 2568.13 -2.41778 -0.728002 0
M  V30 26883 C 2569.44 -1.7576 2.43986 0
M  V30 26884 C 2570.99 -1.88242 2.50068 0
M  V30 26885 C 2571.47 -2.56055 3.79737 0
M  V30 26886 N 2572.96 -2.63552 3.80913 0
M  V30 26887 C 2573.69 -3.16758 4.77966 0
M  V30 26888 N 2573.19 -3.70506 5.85403 0
M  V30 26889 N 2574.98 -3.15186 4.65419 0
M  V30 26890 H 2567.13 -0.221059 2.11247 0
M  V30 26891 H 2569.4 -0.160633 0.934292 0
M  V30 26892 H 2569.1 -1.17044 3.31653 0
M  V30 26893 H 2568.98 -2.75599 2.57536 0
M  V30 26894 H 2571.36 -2.46105 1.62839 0
M  V30 26895 H 2571.44 -0.872964 2.40443 0
M  V30 26896 H 2571.09 -1.98845 4.67358 0
M  V30 26897 H 2571.02 -3.5751 3.86645 0
M  V30 26898 H 2573.51 -2.25457 3.03278 0
M  V30 26899 H 2573.82 -4.09364 6.5547 0
M  V30 26900 H 2572.17 -3.68742 5.89113 0
M  V30 26901 H 2575.36 -2.72465 3.80632 0
M  V30 26902 H 2575.53 -3.56347 5.41222 0
M  V30 26903 N 2568.94 -1.18359 -1.04062 0
M  V30 26904 C 2570.16 -1.00448 -1.81452 0
M  V30 26905 C 2570.59 0.44239 -1.82824 0
M  V30 26906 O 2569.95 1.31739 -1.24557 0
M  V30 26907 C 2569.99 -1.5639 -3.24923 0
M  V30 26908 O 2569.1 -0.78528 -4.04854 0
M  V30 26909 H 2568.44 -0.355845 -0.560598 0
M  V30 26910 H 2570.97 -1.57116 -1.31056 0
M  V30 26911 H 2570.98 -1.59103 -3.757 0
M  V30 26912 H 2569.65 -2.61705 -3.23239 0
M  V30 26913 H 2568.23 -0.830462 -3.63535 0
M  V30 26914 N 2570.42 1.22976 -0.98563 0
M  V30 26915 C 2571.65 1.95275 -0.674637 0
M  V30 26916 C 2572.05 1.73113 0.763453 0
M  V30 26917 O 2571.4 1.02271 1.52599 0
M  V30 26918 C 2571.46 3.48267 -0.891658 0
M  V30 26919 C 2571.12 3.94154 -2.31282 0
M  V30 26920 C 2572.12 4.02409 -3.29186 0
M  V30 26921 C 2569.8 4.26999 -2.64531 0
M  V30 26922 C 2571.8 4.42871 -4.58415 0
M  V30 26923 C 2569.49 4.67142 -3.93982 0
M  V30 26924 C 2570.48 4.75045 -4.90736 0
M  V30 26925 O 2570.17 5.14283 -6.17874 0
M  V30 26926 H 2569.9 0.628366 -0.249262 0
M  V30 26927 H 2572.46 1.57278 -1.32109 0
M  V30 26928 H 2570.69 3.86243 -0.18803 0
M  V30 26929 H 2572.38 4.01778 -0.577028 0
M  V30 26930 H 2573.14 3.77232 -3.0483 0
M  V30 26931 H 2569.02 4.20057 -1.8993 0
M  V30 26932 H 2572.57 4.48954 -5.33934 0
M  V30 26933 H 2568.46 4.91769 -4.1813 0
M  V30 26934 H 2569.23 5.32379 -6.21704 0
M  V30 26935 N 2571.89 0.757924 1.38178 0
M  V30 26936 C 2573.14 0.31602 2.00019 0
M  V30 26937 C 2573.47 -1.10352 1.60164 0
M  V30 26938 O 2572.72 -1.77102 0.832671 0
M  V30 26939 C 2573.02 0.391281 3.55252 0
M  V30 26940 C 2572.69 1.76709 4.14831 0
M  V30 26941 C 2571.35 2.1436 4.30817 0
M  V30 26942 C 2573.7 2.66939 4.47653 0
M  V30 26943 C 2571.03 3.41704 4.76922 0
M  V30 26944 C 2573.38 3.93678 4.95177 0
M  V30 26945 C 2572.05 4.31392 5.09369 0
M  V30 26946 H 2571.32 0.11564 0.731921 0
M  V30 26947 H 2573.96 0.969252 1.6516 0
M  V30 26948 H 2572.27 -0.345511 3.90274 0
M  V30 26949 H 2573.97 0.0308755 4.00988 0
M  V30 26950 H 2570.56 1.46442 4.02806 0
M  V30 26951 H 2574.74 2.39114 4.349 0
M  V30 26952 H 2570 3.70838 4.86096 0
M  V30 26953 H 2574.17 4.63733 5.19543 0
M  V30 26954 H 2571.8 5.30129 5.44855 0
M  V30 26955 N 2573.37 -1.4921 0.507345 0
M  V30 26956 C 2574.6 -2.06876 -0.0315386 0
M  V30 26957 C 2575.02 -1.36687 -1.30239 0
M  V30 26958 O 2574.37 -0.447183 -1.76937 0
M  V30 26959 C 2574.42 -3.60394 -0.282563 0
M  V30 26960 O 2574.14 -4.27943 0.937911 0
M  V30 26961 C 2575.65 -4.34791 -0.864376 0
M  V30 26962 H 2572.87 -0.670595 0.0233166 0
M  V30 26963 H 2575.41 -1.91908 0.706518 0
M  V30 26964 H 2573.56 -3.75044 -0.970614 0
M  V30 26965 H 2573.98 -5.19745 0.704658 0
M  V30 26966 H 2575.45 -5.43058 -0.989568 0
M  V30 26967 H 2575.93 -3.97695 -1.86375 0
M  V30 26968 H 2576.54 -4.24763 -0.213598 0
M  V30 26969 N 2574.85 -0.241454 -1.55739 0
M  V30 26970 C 2575.78 0.693053 -2.18471 0
M  V30 26971 C 2576.8 1.14284 -1.15944 0
M  V30 26972 O 2577.98 1.07055 -1.42834 0
M  V30 26973 C 2575.08 1.95306 -2.76963 0
M  V30 26974 C 2574.26 1.65561 -4.04856 0
M  V30 26975 C 2573.32 2.76467 -4.47719 0
M  V30 26976 O 2572.34 2.44085 -5.14209 0
M  V30 26977 N 2573.54 4.05848 -4.15051 0
M  V30 26978 H 2576.31 0.156335 -2.99292 0
M  V30 26979 H 2573.87 -0.0612036 -1.61784 0
M  V30 26980 H 2575.86 2.6873 -3.02599 0
M  V30 26981 H 2574.43 2.39972 -2.00331 0
M  V30 26982 H 2573.65 0.756818 -3.86867 0
M  V30 26983 H 2574.94 1.43145 -4.88249 0
M  V30 26984 H 2574.34 4.34992 -3.61661 0
M  V30 26985 H 2572.9 4.75754 -4.45535 0
M  V30 26986 N 2576.33 1.57568 0.0317248 0
M  V30 26987 C 2577.28 2.0747 1.05161 0
M  V30 26988 C 2578.27 0.987944 1.37608 0
M  V30 26989 O 2579.48 1.17284 1.36544 0
M  V30 26990 H 2575.85 0.662047 0.356649 0
M  V30 26991 H 2577.82 2.92204 0.604906 0
M  V30 26992 C 2576.57 2.56735 2.34484 0
M  V30 26993 H 2575.89 3.39973 2.10377 0
M  V30 26994 H 2577.33 2.95364 3.04198 0
M  V30 26995 C 2575.79 1.46742 3.03263 0
M  V30 26996 O 2576.32 0.832138 3.92986 0
M  V30 26997 N 2574.53 1.20261 2.64548 0
M  V30 26998 H 2574.08 1.72105 1.91671 0
M  V30 26999 H 2574.03 0.468792 3.10885 0
M  V30 27000 N 2577.81 -0.303946 1.54641 0
M  V30 27001 C 2578.74 -1.39633 1.81756 0
M  V30 27002 C 2579.75 -1.46965 0.700376 0
M  V30 27003 O 2580.94 -1.49336 0.977807 0
M  V30 27004 C 2578.04 -2.78027 1.93789 0
M  V30 27005 C 2577.21 -2.93663 3.24161 0
M  V30 27006 C 2576.27 -4.12538 3.26648 0
M  V30 27007 O 2575.3 -4.04764 4.00194 0
M  V30 27008 N 2576.5 -5.23032 2.51829 0
M  V30 27009 H 2579.27 -1.16729 2.76033 0
M  V30 27010 H 2576.83 -0.494006 1.54179 0
M  V30 27011 H 2578.82 -3.55792 1.92858 0
M  V30 27012 H 2577.39 -2.93891 1.0652 0
M  V30 27013 H 2576.61 -2.03036 3.37891 0
M  V30 27014 H 2577.9 -3.0102 4.10201 0
M  V30 27015 H 2577.29 -5.32228 1.91702 0
M  V30 27016 H 2575.85 -5.99142 2.56654 0
M  V30 27017 N 2579.28 -1.47047 -0.566994 0
M  V30 27018 C 2580.53 -1.52867 -1.32198 0
M  V30 27019 C 2580.85 -0.188422 -1.94088 0
M  V30 27020 O 2580.12 0.786661 -1.79411 0
M  V30 27021 H 2578.7 -0.563065 -0.490884 0
M  V30 27022 H 2581.37 -1.83282 -0.662847 0
M  V30 27023 H 2580.46 -2.28993 -2.12058 0
M  V30 27024 N 2580.76 0.812929 -1.35016 0
M  V30 27025 C 2581.67 1.9561 -1.29514 0
M  V30 27026 C 2582.69 1.72834 -0.201101 0
M  V30 27027 O 2583.86 1.9677 -0.429355 0
M  V30 27028 C 2580.93 3.30086 -1.06039 0
M  V30 27029 C 2579.99 3.65802 -2.24695 0
M  V30 27030 C 2579.22 4.9386 -2.02331 0
M  V30 27031 O 2579.45 5.61803 -0.986563 0
M  V30 27032 O 2578.38 5.27687 -2.89534 0
M  V30 27033 H 2582.21 2.03198 -2.25709 0
M  V30 27034 H 2579.79 0.94979 -1.15323 0
M  V30 27035 H 2581.67 4.10605 -0.947702 0
M  V30 27036 H 2580.35 3.23443 -0.128909 0
M  V30 27037 H 2579.26 2.85685 -2.41526 0
M  V30 27038 H 2580.59 3.77141 -3.16268 0
M  V30 27039 N 2582.24 1.18909 1.03433 0
M  V30 27040 C 2583.49 0.982699 1.76142 0
M  V30 27041 C 2583.8 -0.487919 1.89417 0
M  V30 27042 O 2585.01 -0.81299 2.59042 0
M  V30 27043 C 2583.46 1.70929 3.16719 0
M  V30 27044 C 2583.07 3.21965 3.11517 0
M  V30 27045 C 2584.82 1.58594 3.93761 0
M  V30 27046 C 2582.72 3.87236 4.46992 0
M  V30 27047 H 2581.65 0.364058 0.660286 0
M  V30 27048 H 2584.3 1.42349 1.15798 0
M  V30 27049 H 2582.69 1.1963 3.77498 0
M  V30 27050 H 2583.86 3.80339 2.60152 0
M  V30 27051 H 2582.18 3.34513 2.47972 0
M  V30 27052 H 2584.77 2.04715 4.93959 0
M  V30 27053 H 2585.12 0.539214 4.12793 0
M  V30 27054 H 2585.65 2.07209 3.39572 0
M  V30 27055 H 2582.39 4.91984 4.33165 0
M  V30 27056 H 2581.91 3.33651 4.98435 0
M  V30 27057 H 2583.59 3.90468 5.15891 0
M  V30 27058 N 2583.72 -1.22452 0.992137 0
M  V30 27059 C 2584.65 -2.23678 0.500063 0
M  V30 27060 C 2585.66 -1.57696 -0.404435 0
M  V30 27061 O 2586.85 -1.77299 -0.206691 0
M  V30 27062 C 2583.95 -3.37617 -0.294651 0
M  V30 27063 C 2583.13 -4.33185 0.605799 0
M  V30 27064 C 2582.18 -5.26021 -0.137077 0
M  V30 27065 O 2581.21 -5.67196 0.477263 0
M  V30 27066 N 2582.41 -5.62874 -1.4196 0
M  V30 27067 H 2585.18 -2.66528 1.3705 0
M  V30 27068 H 2582.74 -1.36744 0.866765 0
M  V30 27069 H 2584.73 -3.96709 -0.80026 0
M  V30 27070 H 2583.3 -2.93856 -1.06618 0
M  V30 27071 H 2582.52 -3.72423 1.29209 0
M  V30 27072 H 2583.81 -4.9398 1.21905 0
M  V30 27073 H 2583.21 -5.31393 -1.94006 0
M  V30 27074 H 2581.76 -6.24387 -1.87041 0
M  V30 27075 N 2585.2 -0.765242 -1.37774 0
M  V30 27076 C 2586.44 -0.336101 -2.00604 0
M  V30 27077 C 2586.8 1.07363 -1.59659 0
M  V30 27078 O 2586.09 1.72709 -0.829595 0
M  V30 27079 C 2586.28 -0.410115 -3.55039 0
M  V30 27080 C 2586.11 -1.82549 -4.10981 0
M  V30 27081 C 2584.88 -2.44469 -4.42225 0
M  V30 27082 C 2587.08 -2.78399 -4.32433 0
M  V30 27083 N 2585.06 -3.77847 -4.83844 0
M  V30 27084 C 2586.43 -3.96564 -4.76589 0
M  V30 27085 C 2588.49 -2.75771 -4.14554 0
M  V30 27086 C 2587.19 -5.12475 -5.04739 0
M  V30 27087 C 2589.22 -3.9085 -4.43836 0
M  V30 27088 C 2588.58 -5.07755 -4.88226 0
M  V30 27089 H 2584.68 -0.169895 -0.763322 0
M  V30 27090 H 2587.26 -0.997686 -1.67195 0
M  V30 27091 H 2585.43 0.221257 -3.87769 0
M  V30 27092 H 2587.17 0.0404573 -4.0468 0
M  V30 27093 H 2583.92 -1.96139 -4.31076 0
M  V30 27094 H 2584.35 -4.46405 -5.08971 0
M  V30 27095 H 2588.99 -1.86565 -3.79412 0
M  V30 27096 H 2586.71 -6.02287 -5.38773 0
M  V30 27097 H 2590.29 -3.90149 -4.31596 0
M  V30 27098 H 2589.17 -5.95324 -5.1045 0
M  V30 27099 N 2586.67 1.48939 -0.515251 0
M  V30 27100 C 2587.61 2.26186 0.302478 0
M  V30 27101 C 2588.59 1.31391 0.957871 0
M  V30 27102 O 2589.77 1.60707 0.98517 0
M  V30 27103 C 2586.9 3.07165 1.42713 0
M  V30 27104 C 2585.94 4.17224 0.884662 0
M  V30 27105 S 2586.78 5.3498 -0.235861 0
M  V30 27106 C 2587.93 6.19517 0.891622 0
M  V30 27107 H 2588.16 2.95195 -0.353128 0
M  V30 27108 H 2585.7 1.51442 -0.30078 0
M  V30 27109 H 2587.66 3.54402 2.07146 0
M  V30 27110 H 2586.32 2.37598 2.05441 0
M  V30 27111 H 2585.51 4.73454 1.72792 0
M  V30 27112 H 2585.11 3.72652 0.317296 0
M  V30 27113 H 2587.4 6.53326 1.79366 0
M  V30 27114 H 2588.35 7.07145 0.367627 0
M  V30 27115 H 2588.75 5.5234 1.16538 0
M  V30 27116 N 2588.15 0.249709 1.55609 0
M  V30 27117 C 2589.57 -0.105075 1.59254 0
M  V30 27118 C 2589.77 -1.56692 1.26688 0
M  V30 27119 O 2588.83 -2.31178 1.01554 0
M  V30 27120 C 2590.14 0.246644 2.99687 0
M  V30 27121 C 2591.69 0.191173 3.12416 0
M  V30 27122 C 2592.16 0.516965 4.55073 0
M  V30 27123 N 2593.65 0.46757 4.60834 0
M  V30 27124 C 2594.39 0.69278 5.692 0
M  V30 27125 N 2593.88 0.981266 6.85816 0
M  V30 27126 N 2595.68 0.623296 5.58634 0
M  V30 27127 H 2587.83 1.20301 1.75047 0
M  V30 27128 H 2590.09 0.484239 0.814995 0
M  V30 27129 H 2589.8 1.26234 3.28265 0
M  V30 27130 H 2589.67 -0.424896 3.74799 0
M  V30 27131 H 2592.06 -0.815198 2.83617 0
M  V30 27132 H 2592.14 0.896605 2.39572 0
M  V30 27133 H 2591.78 1.5209 4.84594 0
M  V30 27134 H 2591.71 -0.209975 5.26181 0
M  V30 27135 H 2594.2 0.25344 3.77049 0
M  V30 27136 H 2594.52 1.14046 7.64339 0
M  V30 27137 H 2592.86 1.01877 6.87493 0
M  V30 27138 H 2596.05 0.397945 4.66405 0
M  V30 27139 H 2596.23 0.802206 6.43015 0
M  V30 27140 N 2589.63 -1.57583 -0.0233682 0
M  V30 27141 C 2590.86 -1.9419 -0.728341 0
M  V30 27142 C 2591.28 -0.850148 -1.67792 0
M  V30 27143 O 2590.64 0.193678 -1.80263 0
M  V30 27144 C 2590.69 -3.2987 -1.45663 0
M  V30 27145 O 2589.79 -3.22523 -2.57008 0
M  V30 27146 H 2589.13 -0.634573 -0.195482 0
M  V30 27147 H 2591.66 -2.04587 0.0228573 0
M  V30 27148 H 2591.67 -3.64893 -1.82529 0
M  V30 27149 H 2590.35 -4.08893 -0.760242 0
M  V30 27150 H 2588.92 -2.9914 -2.22643 0
M  V30 27151 N 2591.11 0.29574 -1.548 0
M  V30 27152 C 2592.33 1.05343 -1.78655 0
M  V30 27153 C 2592.76 1.79973 -0.546926 0
M  V30 27154 O 2592.12 1.7419 0.502732 0
M  V30 27155 C 2592.17 2.00555 -2.99683 0
M  V30 27156 O 2591.27 3.08948 -2.73176 0
M  V30 27157 H 2590.61 0.302356 -0.591166 0
M  V30 27158 H 2593.14 0.331562 -2.01896 0
M  V30 27159 H 2593.15 2.42926 -3.27797 0
M  V30 27160 H 2591.83 1.45643 -3.89565 0
M  V30 27161 H 2590.4 2.71055 -2.56093 0
M  V30 27162 N 2592.59 1.47346 0.559187 0
M  V30 27163 C 2593.53 1.59684 1.66642 0
M  V30 27164 C 2594.5 0.439968 1.60167 0
M  V30 27165 O 2595.69 0.659768 1.7903 0
M  V30 27166 C 2592.83 1.61523 3.04966 0
M  V30 27167 C 2591.94 2.88114 3.21892 0
M  V30 27168 C 2591.08 2.81302 4.50603 0
M  V30 27169 C 2590.12 4.02725 4.60954 0
M  V30 27170 N 2589.25 3.94161 5.81017 0
M  V30 27171 H 2594.09 2.54252 1.55434 0
M  V30 27172 H 2591.63 1.26115 0.757196 0
M  V30 27173 H 2593.59 1.60573 3.85061 0
M  V30 27174 H 2592.22 0.7047 3.15014 0
M  V30 27175 H 2591.27 2.9894 2.35242 0
M  V30 27176 H 2592.58 3.78038 3.25405 0
M  V30 27177 H 2591.74 2.78589 5.38955 0
M  V30 27178 H 2590.48 1.89057 4.49565 0
M  V30 27179 H 2589.48 4.05745 3.71014 0
M  V30 27180 H 2590.71 4.96095 4.63753 0
M  V30 27181 H 2588.65 3.04718 5.80933 0
M  V30 27182 H 2588.57 4.77763 5.859 0
M  V30 27183 H 2589.84 3.95462 6.71737 0
M  V30 27184 N 2594.07 -0.805758 1.35445 0
M  V30 27185 C 2594.98 -1.94921 1.30549 0
M  V30 27186 C 2595.99 -1.72725 0.210264 0
M  V30 27187 O 2597.17 -1.9654 0.439784 0
M  V30 27188 C 2594.23 -3.29519 1.07788 0
M  V30 27189 C 2593.29 -3.64605 2.26632 0
M  V30 27190 C 2592.53 -4.9278 2.04947 0
M  V30 27191 O 2592.75 -5.61272 1.01634 0
M  V30 27192 O 2591.68 -5.26144 2.92329 0
M  V30 27193 H 2595.51 -2.01998 2.26783 0
M  V30 27194 H 2593.09 -0.943661 1.15825 0
M  V30 27195 H 2594.98 -4.10097 0.969464 0
M  V30 27196 H 2593.65 -3.2337 0.14606 0
M  V30 27197 H 2592.56 -2.844 2.43038 0
M  V30 27198 H 2593.89 -3.75459 3.18263 0
M  V30 27199 N 2595.54 -1.19456 -1.02801 0
M  V30 27200 C 2596.79 -0.999202 -1.76476 0
M  V30 27201 C 2597.12 0.468795 -1.88457 0
M  V30 27202 O 2596.4 1.34812 -1.402 0
M  V30 27203 C 2596.68 -1.66987 -3.19041 0
M  V30 27204 C 2596.53 -3.21157 -3.14926 0
M  V30 27205 C 2597.85 -1.39357 -4.17454 0
M  V30 27206 H 2594.97 -0.364404 -0.640608 0
M  V30 27207 H 2597.61 -1.47307 -1.20002 0
M  V30 27208 H 2595.76 -1.26697 -3.6726 0
M  V30 27209 H 2597.44 -3.70666 -2.74598 0
M  V30 27210 H 2595.68 -3.52656 -2.52619 0
M  V30 27211 H 2596.35 -3.6323 -4.15654 0
M  V30 27212 H 2598.83 -1.74289 -3.77839 0
M  V30 27213 H 2597.7 -1.88832 -5.15397 0
M  V30 27214 H 2597.96 -0.318891 -4.40948 0
M  V30 27215 N 2597.02 1.21924 -0.998617 0
M  V30 27216 C 2598.27 1.90446 -0.676358 0
M  V30 27217 C 2598.59 1.78072 0.794688 0
M  V30 27218 O 2597.86 1.17155 1.57008 0
M  V30 27219 H 2596.44 0.70492 -0.247177 0
M  V30 27220 H 2599.1 1.48154 -1.26635 0
M  V30 27221 H 2598.2 2.97484 -0.94391 0
M  V30 27222 N 2598.5 0.772537 1.37367 0
M  V30 27223 C 2599.73 0.348118 2.03646 0
M  V30 27224 C 2600.14 -1.03479 1.58394 0
M  V30 27225 O 2599.48 -1.67198 0.76095 0
M  V30 27226 C 2599.54 0.313467 3.58131 0
M  V30 27227 C 2599.21 1.6411 4.26517 0
M  V30 27228 C 2600.2 2.59368 4.50582 0
M  V30 27229 C 2597.89 1.91575 4.64332 0
M  V30 27230 C 2599.88 3.80298 5.1152 0
M  V30 27231 C 2597.57 3.12775 5.2499 0
M  V30 27232 C 2598.57 4.06956 5.48521 0
M  V30 27233 O 2598.26 5.26022 6.07911 0
M  V30 27234 H 2597.99 0.143765 0.660536 0
M  V30 27235 H 2600.54 1.04775 1.76667 0
M  V30 27236 H 2598.77 -0.442549 3.84159 0
M  V30 27237 H 2600.46 -0.08399 4.05813 0
M  V30 27238 H 2601.23 2.39431 4.2178 0
M  V30 27239 H 2597.11 1.19096 4.45351 0
M  V30 27240 H 2600.65 4.53823 5.29803 0
M  V30 27241 H 2596.55 3.32598 5.53217 0
M  V30 27242 H 2597.31 5.26858 6.26389 0
M  V30 27243 N 2599.98 -1.48664 0.523142 0
M  V30 27244 C 2601.39 -1.86525 0.0809325 0
M  V30 27245 C 2601.74 -1.43338 -1.33972 0
M  V30 27246 O 2600.86 -0.821044 -2.00219 0
M  V30 27247 C 2601.46 -3.3851 0.140096 0
M  V30 27248 C 2600.02 -3.75589 -0.246882 0
M  V30 27249 C 2599.17 -2.72702 0.502893 0
M  V30 27250 H 2602.12 -1.40666 0.734761 0
M  V30 27251 H 2602.14 -3.74909 -0.649879 0
M  V30 27252 H 2601.65 -3.69912 1.17418 0
M  V30 27253 H 2599.75 -3.49801 -1.28337 0
M  V30 27254 H 2599.86 -4.79019 0.0879701 0
M  V30 27255 H 2598.23 -2.54651 -0.0500134 0
M  V30 27256 H 2599.01 -3.06947 1.53748 0
M  V30 27257 N 2601.46 -0.257958 -1.55475 0
M  V30 27258 C 2602.7 0.36424 -1.98384 0
M  V30 27259 C 2603.02 1.58256 -1.14954 0
M  V30 27260 O 2604.22 2.27661 -1.47928 0
M  V30 27261 C 2602.68 0.699417 -3.53038 0
M  V30 27262 C 2602.29 -0.498124 -4.45222 0
M  V30 27263 C 2604.03 1.28519 -4.04578 0
M  V30 27264 C 2601.94 -0.138487 -5.91238 0
M  V30 27265 H 2600.87 0.139867 -0.740914 0
M  V30 27266 H 2603.52 -0.359915 -1.79936 0
M  V30 27267 H 2601.9 1.48201 -3.67223 0
M  V30 27268 H 2603.08 -1.2753 -4.42801 0
M  V30 27269 H 2601.39 -0.999574 -4.04225 0
M  V30 27270 H 2603.99 1.56779 -5.11199 0
M  V30 27271 H 2604.33 2.21338 -3.52584 0
M  V30 27272 H 2604.86 0.565268 -3.93763 0
M  V30 27273 H 2601.6 -1.0341 -6.47292 0
M  V30 27274 H 2601.12 0.602269 -5.96769 0
M  V30 27275 H 2602.8 0.275417 -6.46414 0
M  V30 27276 N 2602.93 1.57593 0.0150108 0
M  V30 27277 C 2604.18 1.89086 0.702082 0
M  V30 27278 C 2604.5 0.858308 1.75762 0
M  V30 27279 O 2605.7 1.06295 2.49827 0
M  V30 27280 C 2604.16 3.35606 1.29986 0
M  V30 27281 C 2603.77 4.47125 0.279929 0
M  V30 27282 C 2605.51 3.7623 1.96599 0
M  V30 27283 C 2603.42 5.84713 0.886846 0
M  V30 27284 H 2602.35 0.705527 0.265985 0
M  V30 27285 H 2605 1.83449 -0.0430731 0
M  V30 27286 H 2603.38 3.36033 2.09519 0
M  V30 27287 H 2604.55 4.5819 -0.489711 0
M  V30 27288 H 2602.87 4.15424 -0.284908 0
M  V30 27289 H 2605.47 4.76352 2.42885 0
M  V30 27290 H 2605.81 3.08957 2.79019 0
M  V30 27291 H 2606.34 3.78038 1.23822 0
M  V30 27292 H 2603.08 6.55421 0.101761 0
M  V30 27293 H 2602.6 5.7734 1.626 0
M  V30 27294 H 2604.28 6.31893 1.38999 0
M  V30 27295 N 2604.41 -0.287527 1.54955 0
M  V30 27296 C 2605.36 -1.37499 1.87608 0
M  V30 27297 C 2606.35 -1.51842 0.751028 0
M  V30 27298 O 2607.56 -1.53799 0.935196 0
M  V30 27299 H 2603.94 -0.459558 0.595239 0
M  V30 27300 H 2605.91 -1.07201 2.78479 0
M  V30 27301 C 2604.66 -2.73111 2.15188 0
M  V30 27302 H 2603.98 -2.6286 3.01238 0
M  V30 27303 H 2605.42 -3.48179 2.41966 0
M  V30 27304 C 2603.88 -3.23089 0.954743 0
M  V30 27305 O 2604.41 -4.01287 0.18202 0
M  V30 27306 N 2602.61 -2.80583 0.756418 0
M  V30 27307 H 2602.16 -2.17106 1.38646 0
M  V30 27308 H 2602.12 -3.14371 -0.0429839 0
M  V30 27309 N 2605.89 -1.47641 -0.551365 0
M  V30 27310 C 2606.85 -1.6011 -1.64004 0
M  V30 27311 C 2607.85 -0.475787 -1.536 0
M  V30 27312 O 2609.04 -0.741016 -1.57653 0
M  V30 27313 C 2606.18 -1.55113 -3.03567 0
M  V30 27314 H 2607.37 -2.57163 -1.54295 0
M  V30 27315 H 2604.92 -1.35918 -0.771752 0
M  V30 27316 H 2605.66 -0.594576 -3.18803 0
M  V30 27317 H 2605.44 -2.36789 -3.12527 0
M  V30 27318 H 2606.93 -1.66989 -3.82759 0
M  V30 27319 N 2607.37 0.798563 -1.3587 0
M  V30 27320 C 2608.78 1.37312 -1.26501 0
M  V30 27321 C 2609.13 1.95949 0.0991554 0
M  V30 27322 O 2608.26 1.9189 1.00036 0
M  V30 27323 C 2608.85 2.49635 -2.29059 0
M  V30 27324 C 2607.41 3.02931 -2.23405 0
M  V30 27325 C 2606.56 1.75946 -2.14333 0
M  V30 27326 H 2609.51 0.600945 -1.46882 0
M  V30 27327 H 2609.53 3.28406 -1.92172 0
M  V30 27328 H 2609.04 2.06927 -3.28333 0
M  V30 27329 H 2607.14 3.50082 -1.27568 0
M  V30 27330 H 2607.25 3.60367 -3.1571 0
M  V30 27331 H 2605.62 1.97817 -1.60439 0
M  V30 27332 H 2606.4 1.35379 -3.1548 0
M  V30 27333 N 2608.85 1.19999 1.02166 0
M  V30 27334 C 2610.07 1.03322 1.79831 0
M  V30 27335 C 2610.5 -0.413249 1.83504 0
M  V30 27336 O 2609.85 -1.29741 1.26637 0
M  V30 27337 C 2609.9 1.61539 3.22393 0
M  V30 27338 O 2609.01 0.84959 4.03554 0
M  V30 27339 H 2608.35 0.364719 0.554866 0
M  V30 27340 H 2610.88 1.59181 1.2854 0
M  V30 27341 H 2610.89 1.6506 3.73121 0
M  V30 27342 H 2609.56 2.66814 3.19035 0
M  V30 27343 H 2608.14 0.888193 3.62168 0
M  V30 27344 N 2610.32 -1.21392 1.00507 0
M  V30 27345 C 2611.27 -2.23764 0.565535 0
M  V30 27346 C 2612.24 -1.61 -0.408438 0
M  V30 27347 O 2613.43 -1.88257 -0.31047 0
M  V30 27348 C 2610.57 -3.4495 -0.101606 0
M  V30 27349 C 2609.68 -4.22187 0.915554 0
M  V30 27350 C 2608.81 -5.30741 0.220667 0
M  V30 27351 C 2607.85 -5.99709 1.22537 0
M  V30 27352 N 2606.99 -6.99879 0.557954 0
M  V30 27353 H 2611.83 -2.60722 1.44319 0
M  V30 27354 H 2609.37 -1.28125 0.722666 0
M  V30 27355 H 2611.33 -4.14127 -0.505432 0
M  V30 27356 H 2609.96 -3.0872 -0.942976 0
M  V30 27357 H 2609.01 -3.52188 1.43762 0
M  V30 27358 H 2610.32 -4.69652 1.68013 0
M  V30 27359 H 2609.47 -6.06228 -0.239262 0
M  V30 27360 H 2608.21 -4.84283 -0.576315 0
M  V30 27361 H 2607.22 -5.22994 1.69581 0
M  V30 27362 H 2608.44 -6.48255 2.02344 0
M  V30 27363 H 2606.39 -6.55633 -0.21937 0
M  V30 27364 H 2606.31 -7.45413 1.26078 0
M  V30 27365 H 2607.57 -7.79406 0.121232 0
M  V30 27366 N 2611.8 -0.779811 -1.36955 0
M  V30 27367 C 2613.03 -0.359434 -2.03754 0
M  V30 27368 C 2613.45 1.02103 -1.58809 0
M  V30 27369 O 2612.8 1.65318 -0.773053 0
M  V30 27370 C 2612.85 -0.402631 -3.59251 0
M  V30 27371 O 2612.57 -1.72865 -4.02553 0
M  V30 27372 C 2614.08 0.0283289 -4.43291 0
M  V30 27373 H 2611.3 -0.149449 -0.654145 0
M  V30 27374 H 2613.84 -1.05598 -1.75126 0
M  V30 27375 H 2611.99 0.24541 -3.86622 0
M  V30 27376 H 2612.41 -1.67283 -4.97108 0
M  V30 27377 H 2613.88 -0.0530436 -5.51975 0
M  V30 27378 H 2614.36 1.07975 -4.25721 0
M  V30 27379 H 2614.97 -0.591832 -4.21162 0
M  V30 27380 N 2613.28 1.48384 -0.531019 0
M  V30 27381 C 2614.23 2.29639 0.231183 0
M  V30 27382 C 2615.2 1.37431 0.932839 0
M  V30 27383 O 2616.38 1.66395 0.933663 0
M  V30 27384 C 2613.52 3.20822 1.2715 0
M  V30 27385 C 2612.64 4.28108 0.57858 0
M  V30 27386 C 2611.77 5.0647 1.60192 0
M  V30 27387 C 2610.81 6.05558 0.892518 0
M  V30 27388 N 2609.95 6.76975 1.86145 0
M  V30 27389 H 2614.79 2.94304 -0.4679 0
M  V30 27390 H 2612.32 1.45086 -0.242581 0
M  V30 27391 H 2614.28 3.72088 1.88696 0
M  V30 27392 H 2612.91 2.58079 1.93895 0
M  V30 27393 H 2611.96 3.80101 -0.150849 0
M  V30 27394 H 2613.28 4.98795 0.0216188 0
M  V30 27395 H 2612.43 5.61755 2.29164 0
M  V30 27396 H 2611.17 4.35625 2.19277 0
M  V30 27397 H 2610.17 5.49476 0.188732 0
M  V30 27398 H 2611.4 6.78402 0.307759 0
M  V30 27399 H 2609.34 6.08879 2.44136 0
M  V30 27400 H 2609.26 7.43741 1.35595 0
M  V30 27401 H 2610.53 7.36848 2.54312 0
M  V30 27402 N 2614.76 0.2662 1.55336 0
M  V30 27403 C 2615.69 -0.618941 2.25147 0
M  V30 27404 C 2616.67 -1.16602 1.23847 0
M  V30 27405 O 2617.85 -1.20181 1.52546 0
M  V30 27406 C 2614.98 -1.80723 2.96575 0
M  V30 27407 C 2613.94 -1.39208 4.04729 0
M  V30 27408 C 2613.26 -2.66275 4.63683 0
M  V30 27409 C 2614.56 -0.548851 5.19408 0
M  V30 27410 H 2616.26 -0.036759 2.99377 0
M  V30 27411 H 2613.8 -0.0162398 1.43991 0
M  V30 27412 H 2615.76 -2.43226 3.44121 0
M  V30 27413 H 2614.48 -2.4151 2.19865 0
M  V30 27414 H 2613.14 -0.790288 3.5798 0
M  V30 27415 H 2612.79 -3.25301 3.83651 0
M  V30 27416 H 2612.49 -2.39213 5.36704 0
M  V30 27417 H 2614.01 -3.29642 5.13973 0
M  V30 27418 H 2615.43 -1.07866 5.63061 0
M  V30 27419 H 2613.82 -0.373488 5.98937 0
M  V30 27420 H 2614.89 0.434479 4.8295 0
M  V30 27421 N 2616.24 -1.57599 -0.0066531 0
M  V30 27422 C 2617.15 -2.11426 -1.01667 0
M  V30 27423 C 2618.16 -1.05797 -1.38141 0
M  V30 27424 O 2619.34 -1.37661 -1.47008 0
M  V30 27425 C 2616.4 -2.60143 -2.29187 0
M  V30 27426 C 2615.46 -3.80346 -1.99087 0
M  V30 27427 C 2614.7 -4.26729 -3.20528 0
M  V30 27428 O 2614.92 -3.72487 -4.31984 0
M  V30 27429 O 2613.85 -5.18952 -3.04915 0
M  V30 27430 H 2617.68 -2.97931 -0.589129 0
M  V30 27431 H 2615.27 -1.47695 -0.225065 0
M  V30 27432 H 2617.15 -2.91706 -3.04115 0
M  V30 27433 H 2615.82 -1.76738 -2.71192 0
M  V30 27434 H 2614.73 -3.53766 -1.21657 0
M  V30 27435 H 2616.06 -4.64803 -1.61923 0
M  V30 27436 N 2617.72 0.279305 -1.55105 0
M  V30 27437 C 2619.13 0.850803 -1.66187 0
M  V30 27438 C 2619.48 1.87284 -0.58474 0
M  V30 27439 O 2618.6 2.14647 0.274882 0
M  V30 27440 C 2619.2 1.54996 -3.01267 0
M  V30 27441 C 2617.76 2.06957 -3.14397 0
M  V30 27442 C 2616.9 0.90949 -2.61961 0
M  V30 27443 H 2619.85 0.0557957 -1.58602 0
M  V30 27444 H 2619.88 2.41664 -2.93903 0
M  V30 27445 H 2619.39 0.805864 -3.79641 0
M  V30 27446 H 2617.49 2.84348 -2.40784 0
M  V30 27447 H 2617.6 2.28921 -4.20871 0
M  V30 27448 H 2615.97 1.30112 -2.18959 0
M  V30 27449 H 2616.75 0.179002 -3.42833 0
M  V30 27450 N 2619.19 1.47931 0.543528 0
M  V30 27451 C 2620.42 1.59147 1.32992 0
M  V30 27452 C 2620.84 0.246989 1.86471 0
M  V30 27453 O 2620.2 -0.779295 1.63697 0
M  V30 27454 C 2620.25 2.63082 2.46618 0
M  V30 27455 O 2619.35 2.19301 3.49257 0
M  V30 27456 H 2618.69 0.534131 0.394462 0
M  V30 27457 H 2621.22 1.93817 0.655455 0
M  V30 27458 H 2621.23 2.83932 2.92996 0
M  V30 27459 H 2619.91 3.60697 2.07053 0
M  V30 27460 H 2618.49 2.08608 3.09091 0
M  V30 27461 N 2620.67 -0.791347 1.36292 0
M  V30 27462 C 2621.63 -1.88551 1.30312 0
M  V30 27463 C 2622.63 -1.59407 0.211232 0
M  V30 27464 O 2623.82 -1.67854 0.465895 0
M  V30 27465 C 2620.96 -3.25295 1.01961 0
M  V30 27466 H 2622.15 -1.95269 2.27618 0
M  V30 27467 H 2619.7 -0.988932 1.21037 0
M  V30 27468 H 2620.44 -3.2426 0.051055 0
M  V30 27469 H 2620.22 -3.47837 1.80974 0
M  V30 27470 H 2621.71 -4.05357 1.00377 0
M  V30 27471 N 2622.15 -1.2054 -1.01528 0
M  V30 27472 C 2623.4 -1.01636 -1.75147 0
M  V30 27473 C 2623.72 0.451366 -1.8919 0
M  V30 27474 O 2622.98 1.35134 -1.41553 0
M  V30 27475 C 2623.28 -1.64659 -3.1721 0
M  V30 27476 C 2622.94 -3.1447 -3.2314 0
M  V30 27477 C 2621.61 -3.55352 -3.24466 0
M  V30 27478 C 2623.96 -4.10464 -3.21199 0
M  V30 27479 C 2621.29 -4.90754 -3.21524 0
M  V30 27480 C 2623.64 -5.45813 -3.19798 0
M  V30 27481 C 2622.3 -5.86107 -3.19428 0
M  V30 27482 H 2621.57 -0.371912 -0.640908 0
M  V30 27483 H 2624.22 -1.49983 -1.19068 0
M  V30 27484 H 2622.52 -1.08577 -3.76455 0
M  V30 27485 H 2624.22 -1.47547 -3.72869 0
M  V30 27486 H 2620.81 -2.81903 -3.22845 0
M  V30 27487 H 2625 -3.79912 -3.19344 0
M  V30 27488 H 2620.25 -5.21235 -3.19569 0
M  V30 27489 H 2624.43 -6.1994 -3.17249 0
M  V30 27490 H 2622.05 -6.90997 -3.16903 0
M  V30 27491 N 2623.63 1.20858 -1.01149 0
M  V30 27492 C 2624.58 2.21309 -0.548286 0
M  V30 27493 C 2625.56 1.56011 0.393618 0
M  V30 27494 O 2626.75 1.7566 0.217414 0
M  V30 27495 C 2623.88 3.431 0.117192 0
M  V30 27496 C 2622.97 4.15574 -0.846116 0
M  V30 27497 N 2623.36 4.64511 -2.00157 0
M  V30 27498 C 2621.66 4.41001 -0.665861 0
M  V30 27499 C 2622.36 5.19973 -2.60773 0
M  V30 27500 N 2621.33 5.09732 -1.88877 0
M  V30 27501 H 2625.14 2.56807 -1.42925 0
M  V30 27502 H 2622.65 1.36737 -0.876166 0
M  V30 27503 H 2624.65 4.14281 0.466547 0
M  V30 27504 H 2623.31 3.09109 0.994061 0
M  V30 27505 H 2624.32 4.59886 -2.3817 0
M  V30 27506 H 2621 4.1718 0.163383 0
M  V30 27507 H 2622.39 5.68249 -3.58529 0
M  V30 27508 N 2625.11 0.787064 1.3654 0
M  V30 27509 C 2626.34 0.369698 2.03265 0
M  V30 27510 C 2626.74 -1.01794 1.59483 0
M  V30 27511 O 2626.09 -1.66382 0.778641 0
M  V30 27512 C 2626.15 0.351434 3.57778 0
M  V30 27513 C 2625.81 1.68624 4.24753 0
M  V30 27514 C 2626.81 2.64132 4.47806 0
M  V30 27515 C 2624.49 1.96489 4.62274 0
M  V30 27516 C 2626.49 3.85702 5.07457 0
M  V30 27517 C 2624.18 3.18326 5.21643 0
M  V30 27518 C 2625.17 4.12751 5.44174 0
M  V30 27519 O 2624.86 5.3244 6.02298 0
M  V30 27520 H 2624.59 0.150762 0.658974 0
M  V30 27521 H 2627.15 1.06643 1.75546 0
M  V30 27522 H 2625.38 -0.401779 3.84607 0
M  V30 27523 H 2627.07 -0.0409434 4.05879 0
M  V30 27524 H 2627.83 2.43891 4.19216 0
M  V30 27525 H 2623.71 1.23813 4.44062 0
M  V30 27526 H 2627.26 4.59416 5.24959 0
M  V30 27527 H 2623.15 3.38447 5.49658 0
M  V30 27528 H 2623.92 5.33472 6.20766 0
M  V30 27529 N 2626.58 -1.48101 0.53888 0
M  V30 27530 C 2627.83 -2.02798 0.0080493 0
M  V30 27531 C 2628.16 -1.41426 -1.33087 0
M  V30 27532 O 2627.44 -0.563191 -1.86168 0
M  V30 27533 C 2627.72 -3.59948 -0.104526 0
M  V30 27534 C 2627.57 -4.31786 1.2602 0
M  V30 27535 C 2628.89 -4.3226 -0.826979 0
M  V30 27536 H 2626.01 -0.736987 0.0043992 0
M  V30 27537 H 2628.65 -1.76729 0.697631 0
M  V30 27538 H 2626.8 -3.8229 -0.691825 0
M  V30 27539 H 2628.48 -4.20837 1.88929 0
M  V30 27540 H 2626.72 -3.92856 1.83975 0
M  V30 27541 H 2627.39 -5.40219 1.13433 0
M  V30 27542 H 2629.87 -4.14801 -0.328505 0
M  V30 27543 H 2628.74 -5.41886 -0.874665 0
M  V30 27544 H 2629 -4.00173 -1.8792 0
M  V30 27545 N 2628.06 -0.274434 -1.55192 0
M  V30 27546 C 2629.31 0.342544 -1.99582 0
M  V30 27547 C 2629.64 1.55912 -1.16283 0
M  V30 27548 O 2628.89 1.94456 -0.220324 0
M  V30 27549 C 2629.19 0.769397 -3.4902 0
M  V30 27550 C 2628.86 -0.342468 -4.49598 0
M  V30 27551 C 2627.52 -0.64777 -4.7682 0
M  V30 27552 C 2629.87 -1.09172 -5.09638 0
M  V30 27553 C 2627.2 -1.70591 -5.61351 0
M  V30 27554 C 2629.55 -2.13958 -5.95319 0
M  V30 27555 C 2628.21 -2.45124 -6.20863 0
M  V30 27556 H 2627.48 0.125346 -0.730321 0
M  V30 27557 H 2630.13 -0.388004 -1.87528 0
M  V30 27558 H 2628.44 1.57961 -3.58547 0
M  V30 27559 H 2630.13 1.25751 -3.80773 0
M  V30 27560 H 2626.72 -0.0943933 -4.28496 0
M  V30 27561 H 2630.91 -0.86911 -4.88631 0
M  V30 27562 H 2626.16 -1.9524 -5.79389 0
M  V30 27563 H 2630.34 -2.7249 -6.40876 0
M  V30 27564 H 2627.96 -3.27252 -6.86156 0
M  V30 27565 N 2629.54 1.576 -0.00170483 0
M  V30 27566 C 2630.45 2.11962 1.00544 0
M  V30 27567 C 2631.47 1.06528 1.37578 0
M  V30 27568 O 2632.64 1.38439 1.46276 0
M  V30 27569 C 2629.71 2.61354 2.27804 0
M  V30 27570 C 2628.77 3.81396 1.97067 0
M  V30 27571 C 2628 4.28423 3.1826 0
M  V30 27572 O 2628.22 3.74772 4.30002 0
M  V30 27573 O 2627.16 5.20561 3.02158 0
M  V30 27574 H 2630.98 2.98239 0.573321 0
M  V30 27575 H 2628.57 1.47812 0.217229 0
M  V30 27576 H 2630.45 2.93315 3.02563 0
M  V30 27577 H 2629.13 1.78174 2.70251 0
M  V30 27578 H 2628.03 3.54406 1.19779 0
M  V30 27579 H 2629.37 4.65655 1.59456 0
M  V30 27580 N 2631.02 -0.271076 1.55251 0
M  V30 27581 C 2632.27 -1.00044 1.75601 0
M  V30 27582 C 2632.59 -1.86749 0.56122 0
M  V30 27583 O 2631.86 -1.91261 -0.423813 0
M  V30 27584 H 2630.44 -0.372376 0.647569 0
M  V30 27585 H 2633.1 -0.294843 1.92657 0
M  V30 27586 H 2632.19 -1.63626 2.65769 0
M  V30 27587 N 2632.5 -1.48217 -0.535675 0
M  V30 27588 C 2633.74 -1.56175 -1.29372 0
M  V30 27589 C 2634.08 -0.232463 -1.92804 0
M  V30 27590 O 2633.35 0.761017 -1.78994 0
M  V30 27591 C 2633.63 -2.69581 -2.38743 0
M  V30 27592 C 2633.49 -4.12197 -1.80039 0
M  V30 27593 C 2634.81 -2.78777 -3.40546 0
M  V30 27594 H 2631.92 -0.5685 -0.469017 0
M  V30 27595 H 2634.57 -1.80366 -0.597326 0
M  V30 27596 H 2632.72 -2.49085 -2.98142 0
M  V30 27597 H 2634.39 -4.44116 -1.24734 0
M  V30 27598 H 2632.63 -4.19464 -1.10601 0
M  V30 27599 H 2633.3 -4.87358 -2.59204 0
M  V30 27600 H 2635.78 -2.97327 -2.91094 0
M  V30 27601 H 2634.65 -3.59865 -4.14474 0
M  V30 27602 H 2634.92 -1.86703 -4.00742 0
M  V30 27603 N 2633.97 0.784108 -1.3671 0
M  V30 27604 C 2634.92 1.89696 -1.31469 0
M  V30 27605 C 2635.89 1.65095 -0.182419 0
M  V30 27606 O 2637.08 1.87182 -0.369795 0
M  V30 27607 C 2634.22 3.26586 -1.11516 0
M  V30 27608 C 2633.33 3.63223 -2.33865 0
M  V30 27609 C 2632.46 4.89258 -2.06882 0
M  V30 27610 C 2631.5 5.1859 -3.25163 0
M  V30 27611 N 2630.64 6.35809 -2.97811 0
M  V30 27612 H 2635.48 1.93511 -2.26622 0
M  V30 27613 H 2633.02 0.946236 -1.12627 0
M  V30 27614 H 2634.98 4.05533 -0.979724 0
M  V30 27615 H 2633.61 3.22179 -0.200159 0
M  V30 27616 H 2632.66 2.79357 -2.58193 0
M  V30 27617 H 2633.97 3.80845 -3.22116 0
M  V30 27618 H 2633.12 5.76083 -1.90299 0
M  V30 27619 H 2631.86 4.73716 -1.1595 0
M  V30 27620 H 2630.87 4.30245 -3.423 0
M  V30 27621 H 2632.09 5.36047 -4.16929 0
M  V30 27622 H 2630.04 6.21649 -2.09496 0
M  V30 27623 H 2629.96 6.53788 -3.79602 0
M  V30 27624 H 2631.22 7.25602 -2.84818 0
M  V30 27625 N 2635.45 1.21076 1.00888 0
M  V30 27626 C 2636.36 0.982462 2.13037 0
M  V30 27627 C 2637.38 -0.0641856 1.73882 0
M  V30 27628 O 2638.55 0.124996 2.01012 0
M  V30 27629 C 2635.62 0.545864 3.42376 0
M  V30 27630 C 2634.68 1.66427 3.95728 0
M  V30 27631 C 2633.91 1.24841 5.18893 0
M  V30 27632 O 2634.14 0.120365 5.70273 0
M  V30 27633 O 2633.07 2.05883 5.65593 0
M  V30 27634 H 2636.9 1.92167 2.35171 0
M  V30 27635 H 2634.48 0.995305 1.11418 0
M  V30 27636 H 2636.36 0.311986 4.20244 0
M  V30 27637 H 2635.04 -0.364671 3.21639 0
M  V30 27638 H 2633.95 1.95251 3.19105 0
M  V30 27639 H 2635.28 2.55209 4.20867 0
M  V30 27640 N 2636.93 -1.2032 1.01789 0
M  V30 27641 C 2638.34 -1.71437 0.739337 0
M  V30 27642 C 2638.69 -1.81628 -0.742009 0
M  V30 27643 O 2637.82 -1.47974 -1.57901 0
M  V30 27644 C 2638.41 -3.11371 1.33543 0
M  V30 27645 C 2636.97 -3.59793 1.10572 0
M  V30 27646 C 2636.12 -2.3696 1.44032 0
M  V30 27647 H 2639.07 -1.05315 1.1872 0
M  V30 27648 H 2639.09 -3.73497 0.726676 0
M  V30 27649 H 2638.6 -3.03921 2.41357 0
M  V30 27650 H 2636.7 -3.72572 0.045306 0
M  V30 27651 H 2636.82 -4.44538 1.78668 0
M  V30 27652 H 2635.18 -2.39764 0.859373 0
M  V30 27653 H 2635.96 -2.32151 2.52905 0
M  V30 27654 N 2638.41 -0.794293 -1.3612 0
M  V30 27655 C 2639.37 -0.201929 -2.28309 0
M  V30 27656 C 2640.37 0.603577 -1.49042 0
M  V30 27657 O 2641.56 0.423858 -1.68965 0
M  V30 27658 C 2638.69 0.719919 -3.33212 0
M  V30 27659 H 2639.89 -1.01486 -2.82207 0
M  V30 27660 H 2637.44 -0.564062 -1.45767 0
M  V30 27661 H 2638.17 1.55701 -2.84478 0
M  V30 27662 H 2637.96 0.144197 -3.91835 0
M  V30 27663 H 2639.45 1.12909 -4.02046 0
M  V30 27664 N 2639.89 1.47813 -0.546727 0
M  V30 27665 C 2641.13 2.02791 -0.0188041 0
M  V30 27666 C 2641.47 1.4213 1.32336 0
M  V30 27667 O 2640.74 0.573056 1.85866 0
M  V30 27668 C 2641.02 3.59999 0.0854352 0
M  V30 27669 C 2640.88 4.31112 -1.28308 0
M  V30 27670 C 2642.2 4.32693 0.804044 0
M  V30 27671 H 2639.31 0.736953 -0.00830755 0
M  V30 27672 H 2641.96 1.76356 -0.706993 0
M  V30 27673 H 2640.11 3.82652 0.671542 0
M  V30 27674 H 2641.78 4.19829 -1.91158 0
M  V30 27675 H 2640.02 3.91875 -1.86056 0
M  V30 27676 H 2640.69 5.3961 -1.16296 0
M  V30 27677 H 2643.17 4.1497 0.306503 0
M  V30 27678 H 2642.04 5.42343 0.845915 0
M  V30 27679 H 2642.31 4.01164 1.85795 0
M  V30 27680 N 2641.36 0.28266 1.55044 0
M  V30 27681 C 2642.29 -0.595027 2.25791 0
M  V30 27682 C 2643.28 -1.15282 1.25076 0
M  V30 27683 O 2644.46 -1.18556 1.53812 0
M  V30 27684 C 2641.59 -1.77567 2.98475 0
M  V30 27685 C 2640.54 -1.34907 4.06182 0
M  V30 27686 C 2639.87 -2.61342 4.66481 0
M  V30 27687 C 2641.17 -0.49373 5.19961 0
M  V30 27688 H 2642.86 -0.00500391 2.994 0
M  V30 27689 H 2640.41 -0.00096669 1.44 0
M  V30 27690 H 2642.36 -2.39562 3.46681 0
M  V30 27691 H 2641.09 -2.39164 2.22414 0
M  V30 27692 H 2639.75 -0.752275 3.58799 0
M  V30 27693 H 2639.39 -3.21213 3.8708 0
M  V30 27694 H 2639.09 -2.33507 5.39211 0
M  V30 27695 H 2640.62 -3.24172 5.17441 0
M  V30 27696 H 2642.03 -1.01888 5.64173 0
M  V30 27697 H 2640.43 -0.309942 5.99299 0
M  V30 27698 H 2641.5 0.485678 4.82462 0
M  V30 27699 N 2642.84 -1.57597 0.0100627 0
M  V30 27700 C 2644.07 -1.95288 -0.683378 0
M  V30 27701 C 2644.49 -0.885511 -1.66746 0
M  V30 27702 O 2643.84 0.134597 -1.82003 0
M  V30 27703 C 2643.89 -3.33018 -1.40647 0
M  V30 27704 O 2643.61 -4.35659 -0.46184 0
M  V30 27705 C 2645.12 -3.85228 -2.19349 0
M  V30 27706 H 2642.34 -0.643627 -0.189696 0
M  V30 27707 H 2644.88 -2.04399 0.0641718 0
M  V30 27708 H 2643.03 -3.25184 -2.10556 0
M  V30 27709 H 2643.45 -5.15394 -0.973124 0
M  V30 27710 H 2644.92 -4.83998 -2.65425 0
M  V30 27711 H 2645.4 -3.18464 -3.02452 0
M  V30 27712 H 2646.01 -3.9627 -1.54435 0
M  V30 27713 N 2644.32 0.262839 -1.55393 0
M  V30 27714 C 2645.27 1.32513 -1.88968 0
M  V30 27715 C 2646.24 1.48595 -0.742213 0
M  V30 27716 O 2647.42 1.62837 -0.994419 0
M  V30 27717 C 2644.56 2.67854 -2.17596 0
M  V30 27718 C 2643.68 2.59911 -3.45066 0
M  V30 27719 C 2642.81 3.87499 -3.63343 0
M  V30 27720 C 2641.85 3.74107 -4.84469 0
M  V30 27721 N 2640.99 4.93552 -4.9935 0
M  V30 27722 H 2645.83 1.03179 -2.79568 0
M  V30 27723 H 2643.36 0.498261 -1.38404 0
M  V30 27724 H 2645.32 3.46613 -2.32196 0
M  V30 27725 H 2643.95 2.95369 -1.3022 0
M  V30 27726 H 2643 1.72806 -3.38884 0
M  V30 27727 H 2644.32 2.45919 -4.33965 0
M  V30 27728 H 2643.47 4.747 -3.77815 0
M  V30 27729 H 2642.21 4.04369 -2.72648 0
M  V30 27730 H 2641.21 2.85289 -4.6999 0
M  V30 27731 H 2642.44 3.58746 -5.76609 0
M  V30 27732 H 2640.38 5.10814 -4.11589 0
M  V30 27733 H 2640.3 4.8213 -5.82311 0
M  V30 27734 H 2641.57 5.82297 -5.18218 0
M  V30 27735 N 2645.8 1.48499 0.527807 0
M  V30 27736 C 2646.75 1.63631 1.6531 0
M  V30 27737 C 2647.74 0.502705 1.61769 0
M  V30 27738 O 2648.95 0.681498 1.666 0
M  V30 27739 H 2645.32 0.515498 0.547509 0
M  V30 27740 H 2647.29 2.58138 1.49692 0
M  V30 27741 C 2646.04 1.69525 3.03573 0
M  V30 27742 H 2645.36 2.56116 3.06993 0
M  V30 27743 H 2646.8 1.84156 3.8192 0
M  V30 27744 C 2645.26 0.434379 3.34088 0
M  V30 27745 O 2645.79 -0.451782 3.99151 0
M  V30 27746 N 2644 0.305419 2.88991 0
M  V30 27747 H 2643.55 1.02751 2.3622 0
M  V30 27748 H 2643.5 -0.537195 3.09777 0
M  V30 27749 N 2647.28 -0.776847 1.37123 0
M  V30 27750 C 2648.55 -1.52419 1.22588 0
M  V30 27751 C 2648.93 -2.10308 -0.182689 0
M  V30 27752 O 2648.28 -1.95082 -1.18976 0
M  V30 27753 C 2648.49 -2.60914 2.31787 0
M  V30 27754 C 2649.84 -3.28455 2.69077 0
M  V30 27755 O 2650.86 -2.71205 2.30925 0
M  V30 27756 O 2649.72 -4.31948 3.34788 0
M  V30 27757 H 2646.82 -0.674827 0.478056 0
M  V30 27758 H 2649.36 -0.814249 1.48889 0
M  V30 27759 H 2648.14 -2.16221 3.26135 0
M  V30 27760 H 2647.76 -3.39513 2.06922 0
M  V30 27761 N 2648.76 -1.2161 -1.00244 0
M  V30 27762 C 2650.17 -1.03314 -1.55509 0
M  V30 27763 C 2650.52 0.406299 -1.91947 0
M  V30 27764 O 2649.64 1.28989 -1.73755 0
M  V30 27765 C 2650.24 -1.86918 -2.82573 0
M  V30 27766 C 2648.8 -1.72947 -3.34315 0
M  V30 27767 C 2647.94 -1.83972 -2.07484 0
M  V30 27768 H 2650.89 -1.35594 -0.824615 0
M  V30 27769 H 2650.92 -1.38094 -3.54557 0
M  V30 27770 H 2650.43 -2.91676 -2.56021 0
M  V30 27771 H 2648.53 -0.708834 -3.65795 0
M  V30 27772 H 2648.64 -2.55062 -4.05562 0
M  V30 27773 H 2647.01 -1.27308 -2.20601 0
M  V30 27774 H 2647.79 -2.90243 -1.83341 0
M  V30 27775 N 2650.23 1.19778 -1.02425 0
M  V30 27776 C 2651.65 1.41382 -0.740484 0
M  V30 27777 C 2651.85 1.89794 0.676794 0
M  V30 27778 O 2650.91 2.07173 1.44346 0
M  V30 27779 C 2652.22 2.42892 -1.77268 0
M  V30 27780 C 2653.77 2.56646 -1.7917 0
M  V30 27781 C 2654.24 3.61405 -2.81337 0
M  V30 27782 N 2655.73 3.68897 -2.80124 0
M  V30 27783 C 2656.47 4.49634 -3.55832 0
M  V30 27784 N 2655.96 5.34115 -4.4124 0
M  V30 27785 N 2657.76 4.4424 -3.44394 0
M  V30 27786 H 2649.91 0.86673 -1.93911 0
M  V30 27787 H 2652.17 0.443083 -0.838082 0
M  V30 27788 H 2651.88 2.14334 -2.78844 0
M  V30 27789 H 2651.75 3.41998 -1.59114 0
M  V30 27790 H 2654.14 2.84529 -0.782752 0
M  V30 27791 H 2654.22 1.57709 -2.01398 0
M  V30 27792 H 2653.86 3.34265 -3.824 0
M  V30 27793 H 2653.79 4.59982 -2.56367 0
M  V30 27794 H 2656.28 3.08558 -2.18176 0
M  V30 27795 H 2656.6 5.92827 -4.95758 0
M  V30 27796 H 2654.94 5.33591 -4.45315 0
M  V30 27797 H 2658.13 3.7728 -2.77087 0
M  V30 27798 H 2658.31 5.06924 -4.03649 0
M  V30 27799 N 2651.71 0.801501 1.35697 0
M  V30 27800 C 2652.64 0.222699 2.32436 0
M  V30 27801 C 2653.62 -0.649029 1.57231 0
M  V30 27802 O 2654.81 -0.580354 1.85325 0
M  V30 27803 C 2651.94 -0.633659 3.4147 0
M  V30 27804 C 2650.89 0.139158 4.27774 0
M  V30 27805 C 2650.22 -0.838573 5.28083 0
M  V30 27806 C 2651.52 1.33526 5.04944 0
M  V30 27807 H 2653.21 1.03091 2.81092 0
M  V30 27808 H 2650.76 0.497179 1.35145 0
M  V30 27809 H 2652.71 -1.0486 4.08145 0
M  V30 27810 H 2651.43 -1.4747 2.91411 0
M  V30 27811 H 2650.09 0.53522 3.62672 0
M  V30 27812 H 2649.74 -1.67498 4.74293 0
M  V30 27813 H 2649.44 -0.325837 5.86696 0
M  V30 27814 H 2650.97 -1.25183 5.9763 0
M  V30 27815 H 2652.38 0.995448 5.64592 0
M  V30 27816 H 2650.78 1.78212 5.73027 0
M  V30 27817 H 2651.85 2.1245 4.35882 0
M  V30 27818 N 2653.19 -1.47521 0.554558 0
M  V30 27819 C 2654.14 -2.29978 -0.19462 0
M  V30 27820 C 2655.11 -1.38898 -0.910857 0
M  V30 27821 O 2656.29 -1.6786 -0.907073 0
M  V30 27822 C 2653.43 -3.22805 -1.2203 0
M  V30 27823 C 2652.54 -4.28974 -0.510398 0
M  V30 27824 C 2651.68 -5.08955 -1.52114 0
M  V30 27825 C 2650.72 -6.06901 -0.796066 0
M  V30 27826 N 2649.86 -6.7985 -1.75351 0
M  V30 27827 H 2654.7 -2.93522 0.514662 0
M  V30 27828 H 2652.23 -1.44682 0.265632 0
M  V30 27829 H 2654.19 -3.75043 -1.82753 0
M  V30 27830 H 2652.82 -2.61131 -1.89765 0
M  V30 27831 H 2651.87 -3.79813 0.211301 0
M  V30 27832 H 2653.18 -4.98767 0.0577379 0
M  V30 27833 H 2652.34 -5.6533 -2.20198 0
M  V30 27834 H 2651.08 -4.39058 -2.12319 0
M  V30 27835 H 2650.08 -5.49707 -0.101291 0
M  V30 27836 H 2651.31 -6.78806 -0.199792 0
M  V30 27837 H 2649.25 -6.12686 -2.34419 0
M  V30 27838 H 2649.17 -7.45804 -1.23745 0
M  V30 27839 H 2650.44 -7.40801 -2.42557 0
M  V30 27840 N 2654.67 -0.290879 -1.54892 0
M  V30 27841 C 2655.9 0.324252 -2.04343 0
M  V30 27842 C 2656.31 1.48287 -1.16861 0
M  V30 27843 O 2655.67 1.81487 -0.19205 0
M  V30 27844 C 2655.72 0.790198 -3.52758 0
M  V30 27845 O 2655.44 -0.32229 -4.36913 0
M  V30 27846 C 2656.94 1.47153 -4.18164 0
M  V30 27847 H 2654.16 0.0719056 -0.667136 0
M  V30 27848 H 2656.7 -0.427564 -1.9998 0
M  V30 27849 H 2654.86 1.49206 -3.57514 0
M  V30 27850 H 2655.27 0.038645 -5.24486 0
M  V30 27851 H 2656.75 1.74881 -5.23565 0
M  V30 27852 H 2657.22 2.40827 -3.67286 0
M  V30 27853 H 2657.83 0.813105 -4.17455 0
M  V30 27854 N 2656.15 1.57589 -0.0184203 0
M  V30 27855 C 2657.42 1.82623 0.700589 0
M  V30 27856 C 2657.8 0.900084 1.90949 0
M  V30 27857 O 2657.15 -0.0468744 2.28452 0
M  V30 27858 C 2657.36 3.31577 1.08893 0
M  V30 27859 C 2658.71 3.97782 1.48507 0
M  V30 27860 O 2659.73 3.36009 1.18221 0
M  V30 27861 O 2658.59 5.06636 2.04894 0
M  V30 27862 H 2655.69 0.752639 0.34273 0
M  V30 27863 H 2658.23 1.6964 -0.0452846 0
M  V30 27864 H 2657 3.90635 0.228044 0
M  V30 27865 H 2656.63 3.49628 1.89331 0
M  V30 27866 N 2657.62 -0.254594 1.5553 0
M  V30 27867 C 2658.87 -0.983705 1.77001 0
M  V30 27868 C 2659.2 -1.85608 0.581363 0
M  V30 27869 O 2658.45 -1.90791 -0.435587 0
M  V30 27870 C 2658.75 -1.88103 3.03895 0
M  V30 27871 C 2658.42 -1.16465 4.35599 0
M  V30 27872 C 2657.08 -0.966631 4.71391 0
M  V30 27873 C 2659.43 -0.656296 5.17051 0
M  V30 27874 C 2656.76 -0.247839 5.86176 0
M  V30 27875 C 2659.11 0.0489919 6.32581 0
M  V30 27876 C 2657.78 0.258556 6.66999 0
M  V30 27877 H 2657.05 -0.359963 0.647694 0
M  V30 27878 H 2659.69 -0.25443 1.89802 0
M  V30 27879 H 2658 -2.67712 2.86073 0
M  V30 27880 H 2659.7 -2.44672 3.17705 0
M  V30 27881 H 2656.29 -1.32891 4.07477 0
M  V30 27882 H 2660.47 -0.796847 4.89861 0
M  V30 27883 H 2655.73 -0.0749276 6.11354 0
M  V30 27884 H 2659.9 0.450567 6.94941 0
M  V30 27885 H 2657.53 0.817491 7.55792 0
M  V30 27886 N 2659.1 -1.48777 -0.519925 0
M  V30 27887 C 2660.01 -1.66747 -1.65023 0
M  V30 27888 C 2661.03 -0.549983 -1.65079 0
M  V30 27889 O 2662.2 -0.822328 -1.83847 0
M  V30 27890 C 2659.27 -1.71244 -3.01457 0
M  V30 27891 C 2658.33 -2.94693 -3.12177 0
M  V30 27892 C 2657.56 -2.98965 -4.42103 0
M  V30 27893 O 2657.79 -2.1136 -5.29795 0
M  V30 27894 O 2656.72 -3.91241 -4.57399 0
M  V30 27895 H 2660.55 -2.62464 -1.52796 0
M  V30 27896 H 2658.13 -1.32296 -0.694134 0
M  V30 27897 H 2660.01 -1.76664 -3.82581 0
M  V30 27898 H 2658.69 -0.78703 -3.13987 0
M  V30 27899 H 2657.59 -2.94801 -2.30311 0
M  V30 27900 H 2658.93 -3.86652 -3.04568 0
M  V30 27901 N 2660.58 0.769564 -1.37534 0
M  V30 27902 C 2661.49 1.91391 -1.35671 0
M  V30 27903 C 2662.51 1.72107 -0.255985 0
M  V30 27904 O 2663.68 1.95305 -0.491739 0
M  V30 27905 C 2660.75 3.26545 -1.16487 0
M  V30 27906 C 2659.81 3.58468 -2.36219 0
M  V30 27907 C 2659.04 4.87173 -2.1794 0
M  V30 27908 O 2659.26 5.5838 -1.1648 0
M  V30 27909 O 2658.2 5.18208 -3.06176 0
M  V30 27910 H 2662.02 1.95914 -2.32059 0
M  V30 27911 H 2659.61 0.912621 -1.18286 0
M  V30 27912 H 2661.49 4.07382 -1.07785 0
M  V30 27913 H 2660.17 3.22869 -0.231744 0
M  V30 27914 H 2659.07 2.77856 -2.50493 0
M  V30 27915 H 2660.41 3.66889 -3.28106 0
M  V30 27916 N 2662.06 1.22139 0.995977 0
M  V30 27917 C 2663.02 0.990145 2.06709 0
M  V30 27918 C 2664.02 -0.0422696 1.60744 0
M  V30 27919 O 2665.21 0.195925 1.73095 0
M  V30 27920 C 2662.34 0.494969 3.37288 0
M  V30 27921 H 2663.54 1.94051 2.28658 0
M  V30 27922 H 2661.09 1.03965 1.16709 0
M  V30 27923 H 2661.82 -0.459891 3.21023 0
M  V30 27924 H 2661.61 1.23978 3.71984 0
M  V30 27925 H 2663.1 0.353326 4.16103 0
M  V30 27926 N 2663.54 -1.19233 1.03059 0
M  V30 27927 C 2664.79 -1.88285 0.723293 0
M  V30 27928 C 2665.1 -1.80596 -0.751301 0
M  V30 27929 O 2666.3 -2.44914 -1.17172 0
M  V30 27930 C 2664.76 -3.37738 1.24344 0
M  V30 27931 C 2664.37 -3.53981 2.74594 0
M  V30 27932 C 2666.11 -4.12256 1.01221 0
M  V30 27933 C 2664.02 -4.97336 3.20017 0
M  V30 27934 H 2662.95 -0.705196 0.266861 0
M  V30 27935 H 2665.6 -1.34793 1.24511 0
M  V30 27936 H 2663.98 -3.90637 0.649526 0
M  V30 27937 H 2665.16 -3.11402 3.39655 0
M  V30 27938 H 2663.47 -2.92854 2.96016 0
M  V30 27939 H 2666.07 -5.17976 1.32684 0
M  V30 27940 H 2666.41 -4.16269 -0.0509279 0
M  V30 27941 H 2666.94 -3.65499 1.57021 0
M  V30 27942 H 2663.68 -4.98485 4.25667 0
M  V30 27943 H 2663.2 -5.4067 2.59685 0
M  V30 27944 H 2664.88 -5.65998 3.13457 0
M  V30 27945 N 2665.01 -0.808686 -1.3527 0
M  V30 27946 C 2666.26 -0.390038 -1.98708 0
M  V30 27947 C 2666.59 1.04332 -1.6415 0
M  V30 27948 O 2665.84 1.73889 -0.897828 0
M  V30 27949 C 2666.14 -0.522861 -3.53555 0
M  V30 27950 C 2665.81 -1.91984 -4.07987 0
M  V30 27951 C 2664.47 -2.30202 -4.22564 0
M  V30 27952 C 2666.82 -2.83369 -4.37437 0
M  V30 27953 C 2664.15 -3.5917 -4.63912 0
M  V30 27954 C 2666.5 -4.11785 -4.80225 0
M  V30 27955 C 2665.17 -4.5 -4.93008 0
M  V30 27956 H 2664.44 -0.142725 -0.727125 0
M  V30 27957 H 2667.08 -1.02988 -1.61449 0
M  V30 27958 H 2665.39 0.200426 -3.91287 0
M  V30 27959 H 2667.09 -0.179678 -4.00597 0
M  V30 27960 H 2663.68 -1.61291 -3.97093 0
M  V30 27961 H 2667.86 -2.5509 -4.25726 0
M  V30 27962 H 2663.12 -3.88623 -4.71998 0
M  V30 27963 H 2667.29 -4.82696 -5.01974 0
M  V30 27964 H 2664.92 -5.49986 -5.24805 0
M  V30 27965 N 2666.49 1.47225 -0.562374 0
M  V30 27966 C 2667.72 2.07355 -0.0432997 0
M  V30 27967 C 2668.14 1.41151 1.2433 0
M  V30 27968 O 2667.5 0.488257 1.74602 0
M  V30 27969 C 2667.55 3.60365 0.130224 0
M  V30 27970 O 2666.65 3.9481 1.1916 0
M  V30 27971 H 2665.99 0.661829 -0.0536451 0
M  V30 27972 H 2668.52 1.89168 -0.779528 0
M  V30 27973 H 2668.53 4.06557 0.342809 0
M  V30 27974 H 2667.21 4.07947 -0.809461 0
M  V30 27975 H 2665.79 3.60355 0.95909 0
M  V30 27976 N 2667.97 0.299089 1.54736 0
M  V30 27977 C 2668.92 -0.577859 2.23449 0
M  V30 27978 C 2669.89 -1.13106 1.21639 0
M  V30 27979 O 2671.07 -1.17594 1.50254 0
M  V30 27980 C 2668.21 -1.74479 2.97743 0
M  V30 27981 C 2667.33 -1.22316 4.14322 0
M  V30 27982 C 2666.46 -2.3538 4.76203 0
M  V30 27983 C 2665.5 -1.80341 5.8493 0
M  V30 27984 N 2664.64 -2.86971 6.40775 0
M  V30 27985 H 2669.48 0.0147069 2.97996 0
M  V30 27986 H 2667.01 0.0190272 1.47088 0
M  V30 27987 H 2668.97 -2.43108 3.39049 0
M  V30 27988 H 2667.6 -2.30901 2.25576 0
M  V30 27989 H 2666.65 -0.429183 3.77971 0
M  V30 27990 H 2667.97 -0.780222 4.9266 0
M  V30 27991 H 2667.12 -3.1196 5.20352 0
M  V30 27992 H 2665.86 -2.83 3.97193 0
M  V30 27993 H 2664.86 -1.02249 5.40208 0
M  V30 27994 H 2666.09 -1.33628 6.65823 0
M  V30 27995 H 2664.03 -3.33928 5.64649 0
M  V30 27996 H 2663.95 -2.47167 7.14454 0
M  V30 27997 H 2665.22 -3.63454 6.89581 0
M  V30 27998 N 2669.45 -1.57577 0.0267774 0
M  V30 27999 C 2670.68 -1.95718 -0.661666 0
M  V30 28000 C 2671.09 -0.901735 -1.66329 0
M  V30 28001 O 2670.43 0.125209 -1.83273 0
M  V30 28002 C 2670.49 -3.2999 -1.42643 0
M  V30 28003 C 2670.16 -4.53261 -0.583402 0
M  V30 28004 C 2671.15 -5.19711 0.140312 0
M  V30 28005 C 2668.84 -4.99586 -0.521493 0
M  V30 28006 C 2670.83 -6.30804 0.914634 0
M  V30 28007 C 2668.52 -6.10561 0.256535 0
M  V30 28008 C 2669.52 -6.76029 0.973308 0
M  V30 28009 O 2669.2 -7.84875 1.73859 0
M  V30 28010 H 2668.94 -0.649485 -0.187471 0
M  V30 28011 H 2671.49 -2.05236 0.0821208 0
M  V30 28012 H 2669.72 -3.16956 -2.21531 0
M  V30 28013 H 2671.41 -3.5305 -2.00276 0
M  V30 28014 H 2672.18 -4.84893 0.101802 0
M  V30 28015 H 2668.05 -4.48435 -1.06896 0
M  V30 28016 H 2671.6 -6.81836 1.47462 0
M  V30 28017 H 2667.5 -6.44817 0.296771 0
M  V30 28018 H 2668.26 -8.01529 1.65812 0
M  V30 28019 N 2670.93 0.246342 -1.55663 0
M  V30 28020 C 2672.17 0.975747 -1.77784 0
M  V30 28021 C 2672.51 1.84952 -0.592136 0
M  V30 28022 O 2671.78 1.90139 0.409554 0
M  V30 28023 C 2672.06 1.83579 -3.09792 0
M  V30 28024 C 2671.92 0.990164 -4.38766 0
M  V30 28025 C 2673.24 2.81817 -3.38034 0
M  V30 28026 H 2670.35 0.353306 -0.646795 0
M  V30 28027 H 2673 0.246215 -1.88398 0
M  V30 28028 H 2671.15 2.45779 -3.00874 0
M  V30 28029 H 2672.82 0.386816 -4.59675 0
M  V30 28030 H 2671.06 0.29455 -4.32799 0
M  V30 28031 H 2671.73 1.62574 -5.27516 0
M  V30 28032 H 2674.21 2.29754 -3.46919 0
M  V30 28033 H 2673.08 3.39115 -4.31616 0
M  V30 28034 H 2673.35 3.58308 -2.58974 0
M  V30 28035 N 2672.4 1.4905 0.512027 0
M  V30 28036 C 2673.65 1.57668 1.26433 0
M  V30 28037 C 2673.97 0.260326 1.93254 0
M  V30 28038 O 2673.24 -0.719532 1.82207 0
M  V30 28039 H 2671.82 0.580896 0.469648 0
M  V30 28040 H 2674.49 1.85616 0.594366 0
M  V30 28041 H 2673.58 2.36706 2.03413 0
M  V30 28042 N 2673.88 -0.762259 1.3794 0
M  V30 28043 C 2674.83 -1.89719 1.34572 0
M  V30 28044 C 2675.82 -1.67791 0.232958 0
M  V30 28045 O 2677.03 -1.75465 0.401516 0
M  V30 28046 H 2673.41 -0.624047 0.419605 0
M  V30 28047 H 2675.38 -1.89675 2.3036 0
M  V30 28048 C 2674.13 -3.27099 1.17904 0
M  V30 28049 H 2673.45 -3.44554 2.02787 0
M  V30 28050 H 2674.89 -4.06782 1.196 0
M  V30 28051 C 2673.35 -3.36705 -0.114669 0
M  V30 28052 O 2673.88 -3.86492 -1.09484 0
M  V30 28053 N 2672.08 -2.90111 -0.168579 0
M  V30 28054 H 2671.63 -2.49785 0.629714 0
M  V30 28055 H 2671.59 -2.96918 -1.03378 0
M  V30 28056 N 2675.36 -1.22666 -0.989486 0
M  V30 28057 C 2676.31 -0.999769 -2.08022 0
M  V30 28058 C 2677.28 0.0796755 -1.65909 0
M  V30 28059 O 2678.46 -0.070605 -1.90669 0
M  V30 28060 C 2675.6 -0.587294 -3.40066 0
M  V30 28061 C 2674.72 -1.73788 -3.95502 0
M  V30 28062 C 2673.85 -1.27306 -5.15719 0
M  V30 28063 C 2672.89 -2.39497 -5.633 0
M  V30 28064 N 2672.03 -1.94038 -6.74754 0
M  V30 28065 H 2676.87 -1.93344 -2.26764 0
M  V30 28066 H 2674.4 -0.963317 -1.11169 0
M  V30 28067 H 2676.36 -0.3293 -4.15898 0
M  V30 28068 H 2674.99 0.30937 -3.21314 0
M  V30 28069 H 2674.04 -2.11011 -3.1651 0
M  V30 28070 H 2675.36 -2.58166 -4.26792 0
M  V30 28071 H 2674.51 -0.972652 -5.98853 0
M  V30 28072 H 2673.25 -0.39953 -4.86061 0
M  V30 28073 H 2672.25 -2.70323 -4.78754 0
M  V30 28074 H 2673.48 -3.27372 -5.94983 0
M  V30 28075 H 2671.42 -1.09052 -6.46872 0
M  V30 28076 H 2671.34 -2.7198 -7.05381 0
M  V30 28077 H 2672.61 -1.67076 -7.61384 0
M  V30 28078 N 2676.84 1.18685 -1.0369 0
M  V30 28079 C 2678.09 1.87899 -0.733268 0
M  V30 28080 C 2678.4 1.80992 0.741713 0
M  V30 28081 O 2679.61 2.45532 1.15871 0
M  V30 28082 C 2678.06 3.37073 -1.26133 0
M  V30 28083 C 2677.67 3.5252 -2.76467 0
M  V30 28084 C 2679.42 4.11713 -1.03406 0
M  V30 28085 C 2677.32 4.95632 -3.2265 0
M  V30 28086 H 2676.25 0.703771 -0.270597 0
M  V30 28087 H 2678.9 1.34131 -1.25224 0
M  V30 28088 H 2677.29 3.90287 -0.670233 0
M  V30 28089 H 2678.46 3.09596 -3.41302 0
M  V30 28090 H 2676.77 2.9128 -2.97565 0
M  V30 28091 H 2679.37 5.17265 -1.35429 0
M  V30 28092 H 2679.71 4.1629 0.0288514 0
M  V30 28093 H 2680.25 3.64661 -1.58957 0
M  V30 28094 H 2676.99 4.96221 -4.28305 0
M  V30 28095 H 2676.51 5.39285 -2.62549 0
M  V30 28096 H 2678.19 5.64328 -3.16454 0
M  V30 28097 N 2678.32 0.815849 1.34839 0
M  V30 28098 C 2679.55 0.41333 2.02729 0
M  V30 28099 C 2679.96 -0.97857 1.6146 0
M  V30 28100 O 2679.32 -1.63211 0.816613 0
M  V30 28101 C 2679.37 0.497739 3.58057 0
M  V30 28102 O 2679.09 1.83477 3.97829 0
M  V30 28103 C 2680.59 0.0892118 4.4321 0
M  V30 28104 H 2677.81 0.16674 0.649953 0
M  V30 28105 H 2680.35 1.10204 1.72265 0
M  V30 28106 H 2678.51 -0.142818 3.87137 0
M  V30 28107 H 2678.92 1.80404 4.92498 0
M  V30 28108 H 2680.4 0.199371 5.5164 0
M  V30 28109 H 2680.87 -0.966496 4.28434 0
M  V30 28110 H 2681.48 0.703288 4.19445 0
M  V30 28111 N 2679.8 -1.46924 0.570174 0
M  V30 28112 C 2680.71 -2.33961 -0.173019 0
M  V30 28113 C 2681.72 -1.48989 -0.898798 0
M  V30 28114 O 2682.9 -1.81888 -0.864793 0
M  V30 28115 C 2679.96 -3.25939 -1.18172 0
M  V30 28116 C 2679.02 -4.26807 -0.461966 0
M  V30 28117 C 2678.26 -5.1439 -1.42261 0
M  V30 28118 O 2678.48 -5.04667 -2.65833 0
M  V30 28119 O 2677.41 -5.94514 -0.940023 0
M  V30 28120 H 2681.24 -2.98838 0.541269 0
M  V30 28121 H 2678.82 -1.45695 0.330673 0
M  V30 28122 H 2680.71 -3.82718 -1.76365 0
M  V30 28123 H 2679.38 -2.63675 -1.8777 0
M  V30 28124 H 2678.29 -3.73751 0.161494 0
M  V30 28125 H 2679.62 -4.91822 0.192805 0
M  V30 28126 N 2681.27 -0.307291 -1.54575 0
M  V30 28127 C 2682.52 0.300577 -2.0056 0
M  V30 28128 C 2682.85 1.53054 -1.19532 0
M  V30 28129 O 2682.13 1.92569 -0.273404 0
M  V30 28130 C 2682.41 0.650925 -3.54168 0
M  V30 28131 C 2682.26 -0.588618 -4.45932 0
M  V30 28132 C 2683.58 1.47498 -4.14647 0
M  V30 28133 H 2680.7 0.107775 -0.729077 0
M  V30 28134 H 2683.34 -0.420639 -1.85285 0
M  V30 28135 H 2681.49 1.26538 -3.67315 0
M  V30 28136 H 2683.17 -1.22705 -4.44681 0
M  V30 28137 H 2681.41 -1.22065 -4.16272 0
M  V30 28138 H 2682.08 -0.29925 -5.51188 0
M  V30 28139 H 2684.56 0.95575 -4.04975 0
M  V30 28140 H 2683.43 1.6889 -5.22271 0
M  V30 28141 H 2683.69 2.46614 -3.66925 0
M  V30 28142 N 2682.75 1.57561 -0.0351337 0
M  V30 28143 C 2684.03 1.83356 0.68118 0
M  V30 28144 C 2684.41 0.920286 1.89984 0
M  V30 28145 O 2683.76 -0.0226414 2.28489 0
M  V30 28146 C 2683.97 3.32713 1.0537 0
M  V30 28147 C 2685.31 3.99335 1.44279 0
M  V30 28148 O 2686.34 3.37244 1.14651 0
M  V30 28149 O 2685.2 5.08781 1.99509 0
M  V30 28150 H 2682.29 0.756232 0.334728 0
M  V30 28151 H 2684.84 1.69582 -0.0632746 0
M  V30 28152 H 2683.61 3.90855 0.1866 0
M  V30 28153 H 2683.23 3.51616 1.85612 0
M  V30 28154 N 2684.23 -0.238084 1.55791 0
M  V30 28155 C 2685.14 -1.31621 1.94198 0
M  V30 28156 C 2686.16 -1.52184 0.843572 0
M  V30 28157 O 2687.33 -1.65635 1.14573 0
M  V30 28158 C 2684.4 -2.64914 2.23654 0
M  V30 28159 C 2683.46 -2.52798 3.46975 0
M  V30 28160 C 2682.69 -3.79734 3.75017 0
M  V30 28161 O 2682.91 -4.82014 3.0499 0
M  V30 28162 O 2681.85 -3.77838 4.68532 0
M  V30 28163 H 2685.67 -1.02038 2.86045 0
M  V30 28164 H 2683.26 -0.439578 1.42787 0
M  V30 28165 H 2685.14 -3.43665 2.43869 0
M  V30 28166 H 2683.82 -2.94212 1.34984 0
M  V30 28167 H 2682.72 -1.72303 3.32058 0
M  V30 28168 H 2684.06 -2.28443 4.35975 0
M  V30 28169 N 2685.71 -1.4932 -0.504115 0
M  V30 28170 C 2686.94 -1.62118 -1.28068 0
M  V30 28171 C 2687.35 -0.290599 -1.86955 0
M  V30 28172 O 2686.69 0.733587 -1.68417 0
M  V30 28173 C 2686.75 -2.62897 -2.45205 0
M  V30 28174 C 2686.41 -4.07324 -2.0721 0
M  V30 28175 C 2687.41 -4.94224 -1.61366 0
M  V30 28176 C 2685.1 -4.53036 -2.16941 0
M  V30 28177 C 2687.09 -6.24872 -1.25752 0
M  V30 28178 C 2684.78 -5.83699 -1.80938 0
M  V30 28179 C 2685.78 -6.69441 -1.35418 0
M  V30 28180 O 2685.46 -7.97668 -0.99901 0
M  V30 28181 H 2685.2 -0.548767 -0.394754 0
M  V30 28182 H 2687.75 -1.96068 -0.612084 0
M  V30 28183 H 2685.98 -2.24121 -3.1513 0
M  V30 28184 H 2687.67 -2.65257 -3.07235 0
M  V30 28185 H 2688.43 -4.60136 -1.53298 0
M  V30 28186 H 2684.31 -3.86468 -2.51324 0
M  V30 28187 H 2687.86 -6.9175 -0.901509 0
M  V30 28188 H 2683.75 -6.17316 -1.88656 0
M  V30 28189 H 2684.52 -8.10652 -1.13075 0
M  V30 28190 N 2687.19 0.754933 -1.38342 0
M  V30 28191 C 2688.12 1.87661 -1.2984 0
M  V30 28192 C 2689.1 1.61648 -0.175687 0
M  V30 28193 O 2690.28 1.85169 -0.352778 0
M  V30 28194 C 2687.41 3.23244 -1.01147 0
M  V30 28195 C 2686.45 3.68147 -2.15338 0
M  V30 28196 S 2687.29 3.79842 -3.77466 0
M  V30 28197 C 2688.44 5.18247 -3.50957 0
M  V30 28198 H 2688.68 1.94586 -2.24774 0
M  V30 28199 H 2686.21 0.917775 -1.24162 0
M  V30 28200 H 2688.17 4.01545 -0.852757 0
M  V30 28201 H 2686.83 3.14 -0.0793336 0
M  V30 28202 H 2686.02 4.66487 -1.90804 0
M  V30 28203 H 2685.62 2.96996 -2.27309 0
M  V30 28204 H 2687.91 6.03958 -3.06988 0
M  V30 28205 H 2688.86 5.47801 -4.48686 0
M  V30 28206 H 2689.27 4.8698 -2.855 0
M  V30 28207 N 2688.66 1.23189 0.982967 0
M  V30 28208 C 2689.61 1.01079 2.07489 0
M  V30 28209 C 2690.58 -0.0708758 1.65949 0
M  V30 28210 O 2691.77 0.0807157 1.90629 0
M  V30 28211 C 2688.91 0.60532 3.3975 0
M  V30 28212 C 2688.02 1.75883 3.94575 0
M  V30 28213 C 2687.15 1.30039 5.15037 0
M  V30 28214 C 2686.19 2.42481 5.62022 0
M  V30 28215 N 2685.33 1.97614 6.73716 0
M  V30 28216 H 2690.17 1.94544 2.25736 0
M  V30 28217 H 2687.71 0.969199 1.10657 0
M  V30 28218 H 2689.66 0.351352 4.15718 0
M  V30 28219 H 2688.29 -0.292325 3.21474 0
M  V30 28220 H 2687.35 2.12687 3.15386 0
M  V30 28221 H 2688.66 2.60426 4.25417 0
M  V30 28222 H 2687.81 1.0044 5.98328 0
M  V30 28223 H 2686.55 0.425301 4.85842 0
M  V30 28224 H 2685.56 2.72858 4.77314 0
M  V30 28225 H 2686.78 3.30523 5.93238 0
M  V30 28226 H 2684.73 1.12481 6.46285 0
M  V30 28227 H 2684.64 2.75717 7.03929 0
M  V30 28228 H 2685.91 1.71111 7.60487 0
M  V30 28229 N 2690.14 -1.18133 1.04318 0
M  V30 28230 C 2691.05 -2.25504 0.646916 0
M  V30 28231 C 2692.07 -1.70881 -0.327977 0
M  V30 28232 O 2693.24 -2.00573 -0.182273 0
M  V30 28233 C 2690.31 -3.46695 0.0186273 0
M  V30 28234 C 2689.37 -4.16441 1.04285 0
M  V30 28235 C 2688.6 -5.31846 0.444445 0
M  V30 28236 O 2688.83 -5.65466 -0.748636 0
M  V30 28237 O 2687.76 -5.90332 1.17439 0
M  V30 28238 H 2691.59 -2.61669 1.54152 0
M  V30 28239 H 2689.17 -1.25264 0.81421 0
M  V30 28240 H 2691.05 -4.20098 -0.330994 0
M  V30 28241 H 2689.73 -3.12347 -0.84976 0
M  V30 28242 H 2688.63 -3.45095 1.44431 0
M  V30 28243 H 2689.97 -4.54795 1.88208 0
M  V30 28244 N 2691.62 -0.822988 -1.34405 0
M  V30 28245 C 2692.58 -0.250311 -2.27829 0
M  V30 28246 C 2693.58 0.571827 -1.50289 0
M  V30 28247 O 2694.77 0.387923 -1.69826 0
M  V30 28248 C 2691.91 0.649078 -3.34664 0
M  V30 28249 H 2693.1 -1.07449 -2.7999 0
M  V30 28250 H 2690.65 -0.594855 -1.44538 0
M  V30 28251 H 2691.39 1.49632 -2.87717 0
M  V30 28252 H 2691.17 0.061051 -3.92052 0
M  V30 28253 H 2692.66 1.04356 -4.04351 0
M  V30 28254 N 2693.1 1.4662 -0.577957 0
M  V30 28255 C 2694.34 2.02706 -0.0618149 0
M  V30 28256 C 2694.68 1.44905 1.29291 0
M  V30 28257 O 2693.95 0.612352 1.84609 0
M  V30 28258 C 2694.24 3.60099 0.00905495 0
M  V30 28259 C 2694.09 4.28293 -1.37423 0
M  V30 28260 C 2695.41 4.34301 0.712082 0
M  V30 28261 H 2692.53 0.736611 -0.0239376 0
M  V30 28262 H 2695.17 1.74817 -0.744242 0
M  V30 28263 H 2693.32 3.8399 0.590225 0
M  V30 28264 H 2694.99 4.1568 -2.0002 0
M  V30 28265 H 2693.23 3.8784 -1.94326 0
M  V30 28266 H 2693.9 5.37022 -1.27716 0
M  V30 28267 H 2696.38 4.15526 0.218413 0
M  V30 28268 H 2695.26 5.44015 0.730686 0
M  V30 28269 H 2695.52 4.05015 1.77244 0
M  V30 28270 N 2694.58 0.315484 1.5441 0
M  V30 28271 C 2695.85 -0.343364 1.92563 0
M  V30 28272 C 2696.23 -1.70533 1.24426 0
M  V30 28273 O 2695.58 -2.25232 0.385091 0
M  V30 28274 C 2695.79 -0.443626 3.46169 0
M  V30 28275 C 2697.14 -0.707709 4.18661 0
M  V30 28276 O 2698.16 -0.526868 3.52282 0
M  V30 28277 O 2697.02 -1.05603 5.362 0
M  V30 28278 H 2694.12 -0.194538 0.803794 0
M  V30 28279 H 2696.66 0.364606 1.65737 0
M  V30 28280 H 2695.43 0.51324 3.8792 0
M  V30 28281 H 2695.06 -1.19949 3.79075 0
M  V30 28282 N 2696.05 -1.5754 0.0434891 0
M  V30 28283 C 2697 -2.07585 -0.943002 0
M  V30 28284 C 2697.99 -0.979364 -1.27661 0
M  V30 28285 O 2699.18 -1.24278 -1.26031 0
M  V30 28286 C 2696.31 -2.61816 -2.22052 0
M  V30 28287 C 2695.4 -3.78421 -1.91465 0
M  V30 28288 N 2695.79 -4.88486 -1.31205 0
M  V30 28289 C 2694.08 -3.8718 -2.21377 0
M  V30 28290 C 2694.79 -5.6959 -1.18074 0
M  V30 28291 N 2693.76 -5.16954 -1.68107 0
M  V30 28292 H 2697.56 -2.9008 -0.472303 0
M  V30 28293 H 2695.08 -1.61598 -0.161163 0
M  V30 28294 H 2697.07 -2.95969 -2.93612 0
M  V30 28295 H 2695.73 -1.80757 -2.69735 0
M  V30 28296 H 2696.75 -5.08442 -0.985229 0
M  V30 28297 H 2693.42 -3.17051 -2.71634 0
M  V30 28298 H 2694.81 -6.681 -0.713566 0
M  V30 28299 N 2697.53 0.229818 -1.55915 0
M  V30 28300 C 2698.76 0.97112 -1.82354 0
M  V30 28301 C 2699.17 1.78779 -0.619262 0
M  V30 28302 O 2698.51 1.78797 0.421565 0
M  V30 28303 C 2698.58 1.94405 -3.02402 0
M  V30 28304 C 2698.24 1.31269 -4.37741 0
M  V30 28305 C 2699.24 0.706666 -5.15075 0
M  V30 28306 C 2696.92 1.32694 -4.84456 0
M  V30 28307 C 2698.92 0.123301 -6.37281 0
M  V30 28308 C 2696.6 0.739724 -6.06606 0
M  V30 28309 C 2697.6 0.138951 -6.82859 0
M  V30 28310 O 2697.29 -0.439148 -8.027 0
M  V30 28311 H 2697.02 0.29059 -0.610355 0
M  V30 28312 H 2699.57 0.25271 -2.03839 0
M  V30 28313 H 2697.8 2.70123 -2.76714 0
M  V30 28314 H 2699.49 2.5502 -3.15784 0
M  V30 28315 H 2700.26 0.688047 -4.80095 0
M  V30 28316 H 2696.14 1.78394 -4.25084 0
M  V30 28317 H 2699.68 -0.346247 -6.9674 0
M  V30 28318 H 2695.58 0.755729 -6.41061 0
M  V30 28319 H 2696.35 -0.332665 -8.17824 0
M  V30 28320 N 2699.01 1.49585 0.49619 0
M  V30 28321 C 2699.97 1.66087 1.57949 0
M  V30 28322 C 2700.97 0.532466 1.51728 0
M  V30 28323 O 2702.16 0.799017 1.54795 0
M  V30 28324 C 2699.3 1.66273 2.97601 0
M  V30 28325 H 2700.49 2.62713 1.44645 0
M  V30 28326 H 2698.04 1.38689 0.720775 0
M  V30 28327 H 2698.78 0.712487 3.16377 0
M  V30 28328 H 2698.56 2.48225 3.03524 0
M  V30 28329 H 2700.05 1.8108 3.76297 0
M  V30 28330 N 2700.49 -0.747586 1.3874 0
M  V30 28331 C 2701.74 -1.50389 1.3501 0
M  V30 28332 C 2702.06 -1.94916 -0.0573931 0
M  V30 28333 O 2701.33 -1.68082 -1.00625 0
M  V30 28334 H 2699.91 -0.557857 0.496794 0
M  V30 28335 H 2702.57 -0.888289 1.7348 0
M  V30 28336 H 2701.67 -2.39196 2.00478 0
M  V30 28337 N 2701.97 -1.23709 -0.97642 0
M  V30 28338 C 2702.9 -0.979611 -2.07211 0
M  V30 28339 C 2703.91 0.0478242 -1.6273 0
M  V30 28340 O 2705.1 -0.188181 -1.77505 0
M  V30 28341 C 2702.2 -0.454849 -3.35834 0
M  V30 28342 C 2701.37 -1.54338 -4.09266 0
M  V30 28343 C 2700.43 -1.0228 -5.16164 0
M  V30 28344 O 2699.46 -1.71263 -5.42824 0
M  V30 28345 N 2700.66 0.147317 -5.80313 0
M  V30 28346 H 2703.43 -1.92296 -2.29875 0
M  V30 28347 H 2700.99 -1.1462 -1.14341 0
M  V30 28348 H 2702.98 -0.0915342 -4.04596 0
M  V30 28349 H 2701.55 0.394014 -3.10107 0
M  V30 28350 H 2700.77 -2.07929 -3.34902 0
M  V30 28351 H 2702.06 -2.2753 -4.55091 0
M  V30 28352 H 2701.45 0.724254 -5.61045 0
M  V30 28353 H 2700.01 0.451858 -6.50232 0
M  V30 28354 N 2703.44 1.17579 -1.04943 0
M  V30 28355 C 2704.37 2.23705 -0.669211 0
M  V30 28356 C 2705.36 1.66832 0.331806 0
M  V30 28357 O 2706.54 1.93062 0.209954 0
M  V30 28358 C 2703.67 3.47276 -0.04055 0
M  V30 28359 C 2702.62 4.16955 -0.966057 0
M  V30 28360 C 2701.95 5.34321 -0.201406 0
M  V30 28361 C 2703.25 4.69465 -2.2891 0
M  V30 28362 H 2704.94 2.55765 -1.55643 0
M  V30 28363 H 2702.49 1.22938 -0.749815 0
M  V30 28364 H 2704.44 4.20732 0.237224 0
M  V30 28365 H 2703.17 3.14476 0.881603 0
M  V30 28366 H 2701.83 3.45408 -1.22835 0
M  V30 28367 H 2701.47 4.9777 0.723432 0
M  V30 28368 H 2701.17 5.81877 -0.81807 0
M  V30 28369 H 2702.7 6.10561 0.0691426 0
M  V30 28370 H 2704.11 5.3457 -2.07141 0
M  V30 28371 H 2702.51 5.27591 -2.85951 0
M  V30 28372 H 2703.58 3.86409 -2.92944 0
M  V30 28373 N 2704.92 0.830104 1.33967 0
M  V30 28374 C 2705.86 0.202222 2.27302 0
M  V30 28375 C 2706.83 -0.645554 1.49236 0
M  V30 28376 O 2708.02 -0.607731 1.78435 0
M  V30 28377 C 2705.14 -0.716874 3.31027 0
M  V30 28378 C 2704.19 0.0543021 4.26465 0
M  V30 28379 S 2705.02 1.40631 5.16704 0
M  V30 28380 C 2706.18 0.492277 6.23961 0
M  V30 28381 H 2706.41 0.99351 2.80208 0
M  V30 28382 H 2703.95 0.626384 1.41123 0
M  V30 28383 H 2705.9 -1.24158 3.91274 0
M  V30 28384 H 2704.56 -1.48175 2.76953 0
M  V30 28385 H 2703.76 -0.644698 4.9986 0
M  V30 28386 H 2703.36 0.509787 3.70509 0
M  V30 28387 H 2705.65 -0.313351 6.76775 0
M  V30 28388 H 2706.59 1.19611 6.97925 0
M  V30 28389 H 2707 0.0775168 5.64447 0
M  V30 28390 N 2706.4 -1.46311 0.585725 0
M  V30 28391 C 2707.63 -2.0726 0.0762826 0
M  V30 28392 C 2708.05 -1.43111 -1.22069 0
M  V30 28393 O 2707.41 -0.515973 -1.73803 0
M  V30 28394 C 2707.46 -3.60526 -0.072877 0
M  V30 28395 O 2706.56 -3.96656 -1.12863 0
M  V30 28396 H 2705.9 -0.660892 0.0641674 0
M  V30 28397 H 2708.43 -1.87904 0.809525 0
M  V30 28398 H 2708.44 -4.07051 -0.278086 0
M  V30 28399 H 2707.12 -4.06607 0.874259 0
M  V30 28400 H 2705.69 -3.61835 -0.901639 0
M  V30 28401 N 2707.88 -0.323668 -1.54241 0
M  V30 28402 C 2708.81 0.534953 -2.27289 0
M  V30 28403 C 2709.79 1.11925 -1.28089 0
M  V30 28404 O 2710.98 1.14436 -1.56901 0
M  V30 28405 C 2708.11 1.69591 -3.03078 0
M  V30 28406 C 2707.06 1.24091 -4.09616 0
M  V30 28407 C 2706.39 2.48882 -4.73246 0
M  V30 28408 C 2707.69 0.355698 -5.21087 0
M  V30 28409 H 2709.38 -0.0743784 -2.99308 0
M  V30 28410 H 2706.93 -0.0372127 -1.43952 0
M  V30 28411 H 2708.88 2.30287 -3.52911 0
M  V30 28412 H 2707.6 2.33183 -2.28677 0
M  V30 28413 H 2706.26 0.656881 -3.60667 0
M  V30 28414 H 2705.91 3.10838 -3.9546 0
M  V30 28415 H 2705.61 2.19128 -5.45212 0
M  V30 28416 H 2707.13 3.10339 -5.25854 0
M  V30 28417 H 2708.55 0.868943 -5.66677 0
M  V30 28418 H 2706.94 0.150939 -5.9991 0
M  V30 28419 H 2708.01 -0.613423 -4.81004 0
M  V30 28420 N 2709.36 1.57515 -0.0518432 0
M  V30 28421 C 2710.63 1.84068 0.661694 0
M  V30 28422 C 2711.01 0.940384 1.88997 0
M  V30 28423 O 2710.36 0.0015942 2.285 0
M  V30 28424 C 2710.57 3.33812 1.01835 0
M  V30 28425 C 2711.92 4.00843 1.40036 0
M  V30 28426 O 2712.94 3.38441 1.11067 0
M  V30 28427 O 2711.8 5.10869 1.94102 0
M  V30 28428 H 2708.9 0.759739 0.326688 0
M  V30 28429 H 2711.44 1.69505 -0.0812575 0
M  V30 28430 H 2710.22 3.91031 0.145134 0
M  V30 28431 H 2709.84 3.53565 1.81873 0
M  V30 28432 N 2710.84 -0.221546 1.56035 0
M  V30 28433 C 2712.08 -0.943985 1.78247 0
M  V30 28434 C 2712.4 -1.855 0.620403 0
M  V30 28435 O 2713.6 -2.61609 0.726149 0
M  V30 28436 C 2712.06 -1.72874 3.15662 0
M  V30 28437 C 2711.67 -0.863865 4.39592 0
M  V30 28438 C 2713.41 -2.4424 3.47199 0
M  V30 28439 C 2711.32 -1.64597 5.68033 0
M  V30 28440 H 2710.25 -0.35621 0.664553 0
M  V30 28441 H 2712.9 -0.197872 1.8243 0
M  V30 28442 H 2711.28 -2.51776 3.05655 0
M  V30 28443 H 2712.46 -0.115383 4.60656 0
M  V30 28444 H 2710.77 -0.262334 4.15573 0
M  V30 28445 H 2713.37 -3.03256 4.40386 0
M  V30 28446 H 2713.71 -3.17125 2.69698 0
M  V30 28447 H 2714.24 -1.72328 3.58536 0
M  V30 28448 H 2710.98 -0.960393 6.48426 0
M  V30 28449 H 2710.5 -2.36907 5.51031 0
M  V30 28450 H 2712.18 -2.20665 6.08207 0
M  V30 28451 N 2712.31 -1.49846 -0.48825 0
M  V30 28452 C 2713.26 -1.67957 -1.60914 0
M  V30 28453 C 2714.26 -0.545418 -1.60379 0
M  V30 28454 O 2715.46 -0.725429 -1.64735 0
M  V30 28455 H 2711.84 -0.529833 -0.533649 0
M  V30 28456 H 2713.81 -2.62016 -1.42795 0
M  V30 28457 C 2712.56 -1.77514 -2.98972 0
M  V30 28458 H 2711.88 -2.64166 -3.00094 0
M  V30 28459 H 2713.32 -1.94217 -3.76903 0
M  V30 28460 C 2711.78 -0.522804 -3.32819 0
M  V30 28461 O 2712.31 0.345795 -4.00209 0
M  V30 28462 N 2710.51 -0.381933 -2.88079 0
M  V30 28463 H 2710.06 -1.08978 -2.33413 0
M  V30 28464 H 2710.02 0.454874 -3.11092 0
M  V30 28465 N 2713.79 0.740218 -1.39135 0
M  V30 28466 C 2715.02 1.52947 -1.39337 0
M  V30 28467 C 2715.43 1.88795 0.0134676 0
M  V30 28468 O 2714.79 1.53732 0.983497 0
M  V30 28469 C 2714.84 2.8203 -2.26145 0
M  V30 28470 O 2714.56 2.47706 -3.61349 0
M  V30 28471 C 2716.06 3.7609 -2.34673 0
M  V30 28472 H 2713.28 0.47282 -0.476111 0
M  V30 28473 H 2715.83 0.915068 -1.82885 0
M  V30 28474 H 2713.98 3.39814 -1.86024 0
M  V30 28475 H 2714.4 3.30588 -4.072 0
M  V30 28476 H 2715.87 4.63574 -2.99672 0
M  V30 28477 H 2716.35 4.17472 -1.36433 0
M  V30 28478 H 2716.95 3.24226 -2.75242 0
M  V30 28479 N 2715.27 1.24225 0.969846 0
M  V30 28480 C 2716.18 1.04974 2.09804 0
M  V30 28481 C 2717.2 -0.00883396 1.73998 0
M  V30 28482 O 2718.37 0.188883 2.00512 0
M  V30 28483 C 2715.44 0.654512 3.40466 0
M  V30 28484 C 2714.5 1.78933 3.90233 0
M  V30 28485 C 2713.73 1.41286 5.14659 0
M  V30 28486 O 2713.95 0.301732 5.69601 0
M  V30 28487 O 2712.89 2.23773 5.58757 0
M  V30 28488 H 2716.71 1.99552 2.28939 0
M  V30 28489 H 2714.3 1.03025 1.08195 0
M  V30 28490 H 2716.18 0.445525 4.19038 0
M  V30 28491 H 2714.86 -0.262159 3.22637 0
M  V30 28492 H 2713.76 2.05304 3.12731 0
M  V30 28493 H 2715.1 2.68469 4.12535 0
M  V30 28494 N 2716.75 -1.1702 1.05565 0
M  V30 28495 C 2717.68 -2.20713 0.617927 0
M  V30 28496 C 2718.69 -1.59619 -0.320275 0
M  V30 28497 O 2719.88 -1.78146 -0.112417 0
M  V30 28498 C 2716.98 -3.38704 -0.115274 0
M  V30 28499 C 2716.15 -4.29364 0.834569 0
M  V30 28500 C 2715.21 -5.26009 0.141948 0
M  V30 28501 O 2714.24 -5.63868 0.77725 0
M  V30 28502 N 2715.44 -5.69608 -1.11924 0
M  V30 28503 H 2718.21 -2.58889 1.50986 0
M  V30 28504 H 2715.77 -1.31957 0.938031 0
M  V30 28505 H 2717.76 -4.00393 -0.588848 0
M  V30 28506 H 2716.33 -2.99094 -0.908915 0
M  V30 28507 H 2715.55 -3.6505 1.48768 0
M  V30 28508 H 2716.84 -4.86824 1.47918 0
M  V30 28509 H 2716.24 -5.4093 -1.65565 0
M  V30 28510 H 2714.79 -6.33424 -1.53681 0
M  V30 28511 N 2718.23 -0.837197 -1.33524 0
M  V30 28512 C 2719.16 -0.214273 -2.27192 0
M  V30 28513 C 2720.14 0.637631 -1.49576 0
M  V30 28514 O 2721.32 0.59826 -1.78754 0
M  V30 28515 C 2718.45 0.699309 -3.31402 0
M  V30 28516 C 2717.49 -0.0769178 -4.26431 0
M  V30 28517 S 2718.33 -1.43369 -5.15951 0
M  V30 28518 C 2719.48 -0.52536 -6.23691 0
M  V30 28519 H 2719.72 -1.00836 -2.79677 0
M  V30 28520 H 2717.25 -0.633859 -1.40789 0
M  V30 28521 H 2719.21 1.22081 -3.91927 0
M  V30 28522 H 2717.87 1.46704 -2.77735 0
M  V30 28523 H 2717.06 0.61818 -5.00194 0
M  V30 28524 H 2716.66 -0.529429 -3.70234 0
M  V30 28525 H 2718.95 0.277456 -6.76932 0
M  V30 28526 H 2719.9 -1.23311 -6.9728 0
M  V30 28527 H 2720.31 -0.10745 -5.64398 0
M  V30 28528 N 2719.7 1.45999 -0.593476 0
M  V30 28529 C 2720.94 2.04219 -0.0860106 0
M  V30 28530 C 2721.31 1.45366 1.2543 0
M  V30 28531 O 2722.51 1.94853 1.85164 0
M  V30 28532 C 2720.78 3.57385 -0.0324942 0
M  V30 28533 S 2722.34 4.36825 0.415832 0
M  V30 28534 H 2719.16 0.709717 -0.0426997 0
M  V30 28535 H 2721.76 1.78898 -0.788401 0
M  V30 28536 H 2720.46 3.97734 -1.01173 0
M  V30 28537 H 2719.99 3.8726 0.692332 0
M  V30 28538 H 2722.01 4.67312 1.66836 0
M  V30 28539 N 2721.18 0.331843 1.54067 0
M  V30 28540 C 2722.11 -0.522892 2.2757 0
M  V30 28541 C 2723.09 -1.11244 1.28681 0
M  V30 28542 O 2724.28 -1.13603 1.57506 0
M  V30 28543 C 2721.41 -1.67981 3.03973 0
M  V30 28544 C 2720.36 -1.21917 4.10269 0
M  V30 28545 C 2719.69 -2.46369 4.74559 0
M  V30 28546 C 2720.99 -0.328058 5.21269 0
M  V30 28547 H 2722.68 0.0902503 2.99264 0
M  V30 28548 H 2720.23 0.0448463 1.4393 0
M  V30 28549 H 2722.18 -2.28412 3.54127 0
M  V30 28550 H 2720.91 -2.31967 2.2991 0
M  V30 28551 H 2719.56 -0.637745 3.6101 0
M  V30 28552 H 2719.21 -3.08736 3.97103 0
M  V30 28553 H 2718.91 -2.16234 5.46367 0
M  V30 28554 H 2720.44 -3.07546 5.27492 0
M  V30 28555 H 2721.85 -0.838878 5.67129 0
M  V30 28556 H 2720.25 -0.119122 5.99982 0
M  V30 28557 H 2721.32 0.638924 4.80672 0
M  V30 28558 N 2722.66 -1.57485 0.0601958 0
M  V30 28559 C 2723.57 -2.15548 -0.926083 0
M  V30 28560 C 2724.59 -1.11561 -1.3353 0
M  V30 28561 O 2725.76 -1.43772 -1.41037 0
M  V30 28562 C 2722.83 -2.69629 -2.17947 0
M  V30 28563 C 2721.89 -3.88447 -1.82776 0
M  V30 28564 C 2721.12 -4.3994 -3.0214 0
M  V30 28565 O 2721.34 -3.90473 -4.15796 0
M  V30 28566 O 2720.28 -5.31417 -2.8263 0
M  V30 28567 H 2724.1 -3.00162 -0.462236 0
M  V30 28568 H 2721.69 -1.48517 -0.16222 0
M  V30 28569 H 2723.57 -3.04342 -2.91469 0
M  V30 28570 H 2722.25 -1.88081 -2.63452 0
M  V30 28571 H 2721.15 -3.58608 -1.06543 0
M  V30 28572 H 2722.49 -4.71252 -1.42064 0
M  V30 28573 N 2724.14 0.213268 -1.5615 0
M  V30 28574 C 2725.42 0.961251 -1.70351 0
M  V30 28575 C 2725.8 2.021 -0.609827 0
M  V30 28576 O 2725.14 2.25285 0.381948 0
M  V30 28577 C 2725.35 1.56418 -3.11985 0
M  V30 28578 C 2726.7 2.05328 -3.71653 0
M  V30 28579 O 2727.73 1.66296 -3.14998 0
M  V30 28580 O 2726.58 2.77094 -4.71043 0
M  V30 28581 H 2723.68 0.44957 -0.694129 0
M  V30 28582 H 2726.22 0.204397 -1.68465 0
M  V30 28583 H 2725 0.799389 -3.83048 0
M  V30 28584 H 2724.62 2.38636 -3.18023 0
M  V30 28585 N 2725.62 1.50103 0.480296 0
M  V30 28586 C 2726.58 1.67753 1.56178 0
M  V30 28587 C 2727.58 0.548529 1.51155 0
M  V30 28588 O 2728.77 0.81539 1.53938 0
M  V30 28589 C 2725.9 1.6942 2.9582 0
M  V30 28590 H 2727.09 2.64232 1.4185 0
M  V30 28591 H 2724.65 1.39445 0.706025 0
M  V30 28592 H 2725.38 0.746003 3.15603 0
M  V30 28593 H 2725.17 2.5143 3.00874 0
M  V30 28594 H 2726.66 1.85061 3.74356 0
M  V30 28595 N 2727.09 -0.732829 1.39526 0
M  V30 28596 C 2728.03 -1.85572 1.32809 0
M  V30 28597 C 2729.01 -1.61348 0.201382 0
M  V30 28598 O 2730.19 -1.84585 0.382192 0
M  V30 28599 C 2727.32 -3.21594 1.06277 0
M  V30 28600 C 2726.36 -3.64674 2.21167 0
M  V30 28601 S 2727.2 -3.73789 3.83461 0
M  V30 28602 C 2728.35 -5.12598 3.59158 0
M  V30 28603 H 2728.58 -1.90986 2.27842 0
M  V30 28604 H 2726.12 -0.897905 1.25607 0
M  V30 28605 H 2728.08 -4.00137 0.916532 0
M  V30 28606 H 2726.74 -3.13834 0.129278 0
M  V30 28607 H 2725.93 -4.63392 1.98201 0
M  V30 28608 H 2725.53 -2.93342 2.32005 0
M  V30 28609 H 2727.82 -5.98997 3.16557 0
M  V30 28610 H 2728.77 -5.40594 4.57345 0
M  V30 28611 H 2729.17 -4.82377 2.93212 0
M  V30 28612 N 2728.57 -1.24737 -0.963244 0
M  V30 28613 C 2729.8 -1.11527 -1.73912 0
M  V30 28614 C 2730.21 0.334579 -1.86218 0
M  V30 28615 O 2729.55 1.24242 -1.35313 0
M  V30 28616 C 2729.62 -1.68627 -3.17498 0
M  V30 28617 C 2729.28 -3.17551 -3.28649 0
M  V30 28618 C 2730.28 -4.14647 -3.1363 0
M  V30 28619 C 2727.96 -3.57597 -3.52746 0
M  V30 28620 C 2729.96 -5.49769 -3.2254 0
M  V30 28621 C 2727.64 -4.92859 -3.61294 0
M  V30 28622 C 2728.64 -5.88754 -3.46204 0
M  V30 28623 O 2728.33 -7.21556 -3.54417 0
M  V30 28624 H 2728.06 -0.390149 -0.552051 0
M  V30 28625 H 2730.61 -1.65414 -1.21768 0
M  V30 28626 H 2728.84 -1.09179 -3.70968 0
M  V30 28627 H 2730.53 -1.50642 -3.76911 0
M  V30 28628 H 2731.3 -3.8505 -2.94892 0
M  V30 28629 H 2727.18 -2.83457 -3.63556 0
M  V30 28630 H 2730.72 -6.24599 -3.10679 0
M  V30 28631 H 2726.62 -5.22125 -3.79547 0
M  V30 28632 H 2727.39 -7.29537 -3.71103 0
M  V30 28633 N 2730.05 1.16459 -1.06184 0
M  V30 28634 C 2731.3 1.86593 -0.776359 0
M  V30 28635 C 2731.62 1.82034 0.699178 0
M  V30 28636 O 2730.89 1.25313 1.50577 0
M  V30 28637 H 2729.47 0.690827 -0.284196 0
M  V30 28638 H 2732.13 1.41233 -1.34311 0
M  V30 28639 H 2731.23 2.92062 -1.10027 0
M  V30 28640 N 2731.53 0.844266 1.33079 0
M  V30 28641 C 2732.76 0.456238 2.01807 0
M  V30 28642 C 2733.17 -0.944102 1.635 0
M  V30 28643 O 2732.53 -1.61442 0.851049 0
M  V30 28644 C 2732.58 0.573576 3.56921 0
M  V30 28645 O 2732.3 1.91874 3.93847 0
M  V30 28646 C 2733.8 0.183203 4.42921 0
M  V30 28647 H 2731.02 0.180489 0.64627 0
M  V30 28648 H 2733.57 1.13833 1.69889 0
M  V30 28649 H 2731.72 -0.0606686 3.87352 0
M  V30 28650 H 2732.13 1.90811 4.88561 0
M  V30 28651 H 2733.61 0.316337 5.51093 0
M  V30 28652 H 2734.09 -0.875401 4.30387 0
M  V30 28653 H 2734.69 0.7921 4.17859 0
M  V30 28654 N 2733.01 -1.45682 0.60121 0
M  V30 28655 C 2734.28 -1.95582 0.0262003 0
M  V30 28656 C 2734.66 -1.54372 -1.43987 0
M  V30 28657 O 2734.01 -0.803217 -2.13917 0
M  V30 28658 C 2734.22 -3.48321 0.217618 0
M  V30 28659 C 2735.57 -4.24494 0.0950822 0
M  V30 28660 O 2736.59 -3.55895 0.147408 0
M  V30 28661 O 2735.45 -5.46494 -0.0251649 0
M  V30 28662 H 2732.55 -0.826063 -0.0393543 0
M  V30 28663 H 2735.09 -1.55878 0.670825 0
M  V30 28664 H 2733.86 -3.71264 1.23608 0
M  V30 28665 H 2733.49 -3.949 -0.462571 0
M  V30 28666 N 2734.48 -0.340009 -1.53889 0
M  V30 28667 C 2735.73 0.257077 -2.00458 0
M  V30 28668 C 2736.05 1.51351 -1.22955 0
M  V30 28669 O 2735.32 1.93001 -0.335768 0
M  V30 28670 H 2733.9 0.0979835 -0.740546 0
M  V30 28671 H 2736.57 -0.46035 -1.89385 0
M  V30 28672 H 2735.66 0.502002 -3.08036 0
M  V30 28673 N 2735.96 1.57451 -0.0685468 0
M  V30 28674 C 2736.89 2.15565 0.897432 0
M  V30 28675 C 2737.87 1.08184 1.31264 0
M  V30 28676 O 2739.06 1.36204 1.38427 0
M  V30 28677 C 2736.19 2.71466 2.16618 0
M  V30 28678 C 2735.14 3.83986 1.89047 0
M  V30 28679 C 2734.47 4.26476 3.22525 0
M  V30 28680 C 2735.77 5.08368 1.19831 0
M  V30 28681 H 2737.46 2.96533 0.413321 0
M  V30 28682 H 2735.01 1.42641 0.197365 0
M  V30 28683 H 2736.96 3.10766 2.84609 0
M  V30 28684 H 2735.69 1.87715 2.67265 0
M  V30 28685 H 2734.35 3.45185 1.23463 0
M  V30 28686 H 2733.99 3.39651 3.71007 0
M  V30 28687 H 2733.69 5.02323 3.0487 0
M  V30 28688 H 2735.22 4.6839 3.91719 0
M  V30 28689 H 2736.63 5.45004 1.77886 0
M  V30 28690 H 2735.03 5.89471 1.12445 0
M  V30 28691 H 2736.1 4.84577 0.176911 0
M  V30 28692 N 2737.44 -0.204984 1.56261 0
M  V30 28693 C 2738.35 -1.27473 1.96946 0
M  V30 28694 C 2739.37 -1.5036 0.875662 0
M  V30 28695 O 2740.54 -1.63167 1.18061 0
M  V30 28696 C 2737.61 -2.60111 2.29223 0
M  V30 28697 C 2736.67 -2.45381 3.52259 0
M  V30 28698 C 2735.9 -3.71694 3.82987 0
M  V30 28699 O 2736.13 -4.75436 3.15146 0
M  V30 28700 O 2735.06 -3.67815 4.76441 0
M  V30 28701 H 2738.89 -0.959477 2.88145 0
M  V30 28702 H 2736.47 -0.409192 1.43687 0
M  V30 28703 H 2738.35 -3.38415 2.51104 0
M  V30 28704 H 2737.03 -2.91283 1.41195 0
M  V30 28705 H 2735.93 -1.65221 3.35638 0
M  V30 28706 H 2737.27 -2.19144 4.40723 0
M  V30 28707 N 2738.92 -1.50356 -0.472329 0
M  V30 28708 C 2739.88 -1.68579 -1.55287 0
M  V30 28709 C 2740.88 -0.556538 -1.50862 0
M  V30 28710 O 2742.07 -0.823543 -1.53504 0
M  V30 28711 C 2739.2 -1.70986 -2.94918 0
M  V30 28712 H 2740.4 -2.64981 -1.40447 0
M  V30 28713 H 2737.95 -1.39818 -0.69862 0
M  V30 28714 H 2738.69 -0.76273 -3.15203 0
M  V30 28715 H 2738.47 -2.53022 -2.99536 0
M  V30 28716 H 2739.96 -1.87044 -3.73369 0
M  V30 28717 N 2740.4 0.725419 -1.39912 0
M  V30 28718 C 2741.33 1.85252 -1.42141 0
M  V30 28719 C 2742.31 1.6772 -0.283542 0
M  V30 28720 O 2743.49 1.87897 -0.49075 0
M  V30 28721 C 2740.62 3.23105 -1.27359 0
M  V30 28722 C 2739.58 3.55291 -2.38646 0
M  V30 28723 C 2738.9 4.92184 -2.08947 0
M  V30 28724 C 2740.2 3.57288 -3.80976 0
M  V30 28725 H 2741.9 1.83644 -2.36464 0
M  V30 28726 H 2739.44 0.882118 -1.13819 0
M  V30 28727 H 2741.4 4.01637 -1.27537 0
M  V30 28728 H 2740.12 3.25264 -0.295083 0
M  V30 28729 H 2738.78 2.79094 -2.37701 0
M  V30 28730 H 2738.43 4.90934 -1.09511 0
M  V30 28731 H 2738.13 5.14686 -2.835 0
M  V30 28732 H 2739.65 5.73061 -2.10791 0
M  V30 28733 H 2741.07 4.25878 -3.83798 0
M  V30 28734 H 2739.46 3.91312 -4.54967 0
M  V30 28735 H 2740.53 2.56883 -4.11265 0
M  V30 28736 N 2741.88 1.25246 0.956615 0
M  V30 28737 C 2743.15 1.00654 1.67715 0
M  V30 28738 C 2743.53 -0.46783 2.05851 0
M  V30 28739 O 2742.88 -1.44472 1.77031 0
M  V30 28740 C 2743.09 1.94034 2.9009 0
M  V30 28741 C 2744.44 2.21763 3.62086 0
M  V30 28742 O 2745.46 1.91776 3.00167 0
M  V30 28743 O 2744.32 2.72744 4.73575 0
M  V30 28744 H 2741.42 0.381546 0.733724 0
M  V30 28745 H 2743.96 1.36392 1.00972 0
M  V30 28746 H 2742.73 2.93596 2.58683 0
M  V30 28747 H 2742.36 1.5868 3.64563 0
M  V30 28748 N 2743.35 -1.15894 1.068 0
M  V30 28749 C 2744.28 -2.22612 0.704716 0
M  V30 28750 C 2745.26 -1.67339 -0.305222 0
M  V30 28751 O 2746.45 -1.93371 -0.179213 0
M  V30 28752 C 2743.58 -3.47168 0.0957935 0
M  V30 28753 C 2742.53 -4.15365 1.03227 0
M  V30 28754 C 2741.86 -5.33933 0.286386 0
M  V30 28755 C 2743.16 -4.65764 2.3635 0
M  V30 28756 H 2744.85 -2.53256 1.59693 0
M  V30 28757 H 2742.4 -1.2173 0.769278 0
M  V30 28758 H 2744.35 -4.21056 -0.170259 0
M  V30 28759 H 2743.08 -3.15839 -0.831461 0
M  V30 28760 H 2741.74 -3.43411 1.28315 0
M  V30 28761 H 2741.38 -4.98858 -0.644149 0
M  V30 28762 H 2741.08 -5.80502 0.910538 0
M  V30 28763 H 2742.61 -6.10594 0.0280011 0
M  V30 28764 H 2744.02 -5.31207 2.15619 0
M  V30 28765 H 2742.42 -5.22975 2.94308 0
M  V30 28766 H 2743.49 -3.817 2.99054 0
M  V30 28767 N 2744.83 -0.851312 -1.32629 0
M  V30 28768 C 2746.06 -0.466042 -2.02096 0
M  V30 28769 C 2746.48 0.92868 -1.63576 0
M  V30 28770 O 2745.84 1.60943 -0.834694 0
M  V30 28771 C 2745.89 -0.6088 -3.55424 0
M  V30 28772 O 2744.99 0.359806 -4.10827 0
M  V30 28773 H 2744.33 -0.187735 -0.636908 0
M  V30 28774 H 2746.86 -1.14958 -1.69251 0
M  V30 28775 H 2746.87 -0.495077 -4.04985 0
M  V30 28776 H 2745.55 -1.62588 -3.82803 0
M  V30 28777 H 2744.12 0.202601 -3.72349 0
M  V30 28778 N 2746.31 1.45361 -0.608928 0
M  V30 28779 C 2747.54 2.06602 -0.111049 0
M  V30 28780 C 2747.95 1.45334 1.20513 0
M  V30 28781 O 2747.31 0.568008 1.73436 0
M  V30 28782 C 2747.36 3.61484 0.0336244 0
M  V30 28783 O 2747.08 4.20465 -1.23048 0
M  V30 28784 C 2748.58 4.39713 0.562805 0
M  V30 28785 H 2745.8 0.667395 -0.0694571 0
M  V30 28786 H 2748.35 1.86585 -0.83704 0
M  V30 28787 H 2746.5 3.80839 0.709949 0
M  V30 28788 H 2746.92 5.13656 -1.06103 0
M  V30 28789 H 2748.39 5.48584 0.613117 0
M  V30 28790 H 2748.87 4.09589 1.58535 0
M  V30 28791 H 2749.47 4.25226 -0.0795201 0
M  V30 28792 N 2747.79 0.348166 1.53706 0
M  V30 28793 C 2749.01 -0.250847 2.05877 0
M  V30 28794 C 2749.44 -1.4307 1.22117 0
M  V30 28795 O 2748.8 -1.79757 0.236017 0
M  V30 28796 C 2748.84 -0.639354 3.54887 0
M  V30 28797 O 2747.95 -1.73881 3.73951 0
M  V30 28798 H 2747.29 -0.0406414 0.662755 0
M  V30 28799 H 2749.82 0.50372 1.98302 0
M  V30 28800 H 2749.83 -0.915225 3.97602 0
M  V30 28801 H 2748.5 0.223459 4.15299 0
M  V30 28802 H 2747.08 -1.45985 3.43137 0
M  V30 28803 N 2749.27 -1.57412 0.0768958 0
M  V30 28804 C 2750.23 -2.11885 -0.873911 0
M  V30 28805 C 2751.23 -1.04401 -1.22299 0
M  V30 28806 O 2752.42 -1.30367 -1.15543 0
M  V30 28807 C 2749.55 -2.62442 -2.1757 0
M  V30 28808 H 2750.74 -2.97204 -0.401226 0
M  V30 28809 H 2748.3 -1.55352 -0.171877 0
M  V30 28810 H 2749.03 -1.80592 -2.69364 0
M  V30 28811 H 2748.82 -3.41012 -1.93528 0
M  V30 28812 H 2750.31 -3.04644 -2.85625 0
M  V30 28813 N 2750.74 0.196695 -1.56368 0
M  V30 28814 C 2751.99 0.915522 -1.80174 0
M  V30 28815 C 2752.31 1.83859 -0.649682 0
M  V30 28816 O 2751.58 1.93065 0.332077 0
M  V30 28817 H 2750.16 0.341055 -0.664598 0
M  V30 28818 H 2752.83 0.202588 -1.93844 0
M  V30 28819 H 2751.92 1.50759 -2.73273 0
M  V30 28820 N 2752.22 1.50604 0.464349 0
M  V30 28821 C 2753.45 1.65456 1.23724 0
M  V30 28822 C 2753.86 0.340064 1.86119 0
M  V30 28823 O 2753.2 -0.688676 1.70303 0
M  V30 28824 C 2753.27 2.69306 2.38149 0
M  V30 28825 C 2752.93 4.12675 1.96338 0
M  V30 28826 C 2753.93 4.98328 1.48206 0
M  V30 28827 C 2751.61 4.58629 2.04853 0
M  V30 28828 C 2753.61 6.27986 1.09141 0
M  V30 28829 C 2751.29 5.88291 1.65399 0
M  V30 28830 C 2752.29 6.72796 1.17622 0
M  V30 28831 O 2751.98 8.00037 0.787171 0
M  V30 28832 H 2751.71 0.559041 0.380065 0
M  V30 28833 H 2754.26 1.97622 0.559885 0
M  V30 28834 H 2752.49 2.32397 3.09077 0
M  V30 28835 H 2754.18 2.7331 3.00094 0
M  V30 28836 H 2754.95 4.64038 1.41044 0
M  V30 28837 H 2750.83 3.92995 2.40989 0
M  V30 28838 H 2754.37 6.93897 0.717787 0
M  V30 28839 H 2750.27 6.22101 1.72223 0
M  V30 28840 H 2751.04 8.13365 0.915424 0
M  V30 28841 N 2753.7 -0.717989 1.40295 0
M  V30 28842 C 2755.11 -1.29703 1.34291 0
M  V30 28843 C 2755.46 -1.96194 0.0152573 0
M  V30 28844 O 2754.59 -1.97396 -0.886785 0
M  V30 28845 C 2755.18 -2.35855 2.43223 0
M  V30 28846 C 2753.74 -2.8939 2.40687 0
M  V30 28847 C 2752.89 -1.6315 2.24226 0
M  V30 28848 H 2755.84 -0.514286 1.50136 0
M  V30 28849 H 2755.86 -3.16643 2.10992 0
M  V30 28850 H 2755.37 -1.87433 3.39839 0
M  V30 28851 H 2753.47 -3.42049 1.47762 0
M  V30 28852 H 2753.59 -3.41347 3.36183 0
M  V30 28853 H 2751.95 -1.88126 1.71699 0
M  V30 28854 H 2752.73 -1.16755 3.22836 0
M  V30 28855 N 2755.18 -1.25752 -0.94996 0
M  V30 28856 C 2756.41 -1.13366 -1.72719 0
M  V30 28857 C 2756.82 0.314809 -1.86563 0
M  V30 28858 O 2756.16 1.228 -1.36623 0
M  V30 28859 C 2756.22 -1.71985 -3.15692 0
M  V30 28860 C 2755.89 -3.21019 -3.25262 0
M  V30 28861 C 2756.88 -4.1795 -3.09214 0
M  V30 28862 C 2754.57 -3.61318 -3.48934 0
M  V30 28863 C 2756.56 -5.53159 -3.16691 0
M  V30 28864 C 2754.25 -4.96663 -3.56046 0
M  V30 28865 C 2755.25 -5.92393 -3.3994 0
M  V30 28866 O 2754.93 -7.25275 -3.46744 0
M  V30 28867 H 2754.67 -0.395982 -0.547881 0
M  V30 28868 H 2757.22 -1.66696 -1.20006 0
M  V30 28869 H 2755.45 -1.13107 -3.69789 0
M  V30 28870 H 2757.14 -1.54631 -3.75292 0
M  V30 28871 H 2757.91 -3.88156 -2.90791 0
M  V30 28872 H 2753.78 -2.87297 -3.60529 0
M  V30 28873 H 2757.33 -6.27859 -3.04037 0
M  V30 28874 H 2753.23 -5.26121 -3.73988 0
M  V30 28875 H 2753.99 -7.33432 -3.63345 0
M  V30 28876 N 2756.66 1.15326 -1.07413 0
M  V30 28877 C 2757.9 1.86403 -0.798863 0
M  V30 28878 C 2758.24 1.82151 0.673401 0
M  V30 28879 O 2757.51 1.24508 1.49426 0
M  V30 28880 C 2757.79 3.35484 -1.30852 0
M  V30 28881 C 2757.65 3.48365 -2.84538 0
M  V30 28882 C 2758.97 4.30257 -0.925562 0
M  V30 28883 H 2756.08 0.676829 -0.291671 0
M  V30 28884 H 2758.73 1.35489 -1.33202 0
M  V30 28885 H 2756.88 3.78975 -0.854983 0
M  V30 28886 H 2758.55 3.13733 -3.38185 0
M  V30 28887 H 2756.79 2.89904 -3.22704 0
M  V30 28888 H 2757.46 4.53112 -3.15267 0
M  V30 28889 H 2759.94 3.94729 -1.31637 0
M  V30 28890 H 2758.81 5.33051 -1.30949 0
M  V30 28891 H 2759.08 4.41779 0.168447 0
M  V30 28892 N 2758.13 0.858334 1.32176 0
M  V30 28893 C 2759.1 0.310628 2.27085 0
M  V30 28894 C 2760.1 -0.53178 1.51752 0
M  V30 28895 O 2761.29 -0.34276 1.70795 0
M  V30 28896 C 2758.42 -0.56012 3.36267 0
M  V30 28897 H 2759.61 1.14835 2.77043 0
M  V30 28898 H 2757.17 0.632967 1.4291 0
M  V30 28899 H 2757.9 -1.41951 2.91583 0
M  V30 28900 H 2757.69 0.0429162 3.92077 0
M  V30 28901 H 2759.18 -0.935984 4.06976 0
M  V30 28902 N 2759.61 -1.45036 0.616628 0
M  V30 28903 C 2760.55 -2.27733 -0.145944 0
M  V30 28904 C 2761.52 -1.37677 -0.865084 0
M  V30 28905 O 2762.71 -1.67112 -0.872122 0
M  V30 28906 C 2759.83 -3.16267 -1.21214 0
M  V30 28907 C 2758.88 -4.22327 -0.595144 0
M  V30 28908 S 2759.71 -5.32085 0.603837 0
M  V30 28909 C 2760.87 -6.24187 -0.462732 0
M  V30 28910 H 2761.1 -2.92061 0.555643 0
M  V30 28911 H 2758.64 -1.4901 0.404391 0
M  V30 28912 H 2760.59 -3.6783 -1.8224 0
M  V30 28913 H 2759.25 -2.51186 -1.88585 0
M  V30 28914 H 2758.45 -4.84233 -1.39767 0
M  V30 28915 H 2758.05 -3.73952 -0.0598308 0
M  V30 28916 H 2760.34 -6.6413 -1.33933 0
M  V30 28917 H 2761.28 -7.07998 0.120384 0
M  V30 28918 H 2761.69 -5.59056 -0.782121 0
M  V30 28919 N 2761.09 -0.356312 -1.53519 0
M  V30 28920 C 2762.34 0.235801 -2.0072 0
M  V30 28921 C 2762.66 1.50038 -1.24554 0
M  V30 28922 O 2761.93 1.92634 -0.356219 0
M  V30 28923 H 2760.51 0.0901235 -0.741543 0
M  V30 28924 H 2763.17 -0.480411 -1.88886 0
M  V30 28925 H 2762.27 0.469303 -3.08551 0
M  V30 28926 N 2762.57 1.57369 -0.0852427 0
M  V30 28927 C 2763.52 2.13479 0.877231 0
M  V30 28928 C 2764.49 1.05076 1.2864 0
M  V30 28929 O 2765.67 1.3281 1.36989 0
M  V30 28930 C 2762.81 2.71163 2.13459 0
M  V30 28931 C 2761.92 3.93767 1.77684 0
M  V30 28932 C 2761.06 4.39649 2.98132 0
M  V30 28933 C 2760.1 5.54867 2.58437 0
M  V30 28934 N 2759.23 5.95645 3.71687 0
M  V30 28935 H 2764.07 2.95412 0.391881 0
M  V30 28936 H 2761.61 1.45973 0.18177 0
M  V30 28937 H 2763.57 3.02722 2.87081 0
M  V30 28938 H 2762.2 1.91974 2.59511 0
M  V30 28939 H 2761.25 3.68585 0.940703 0
M  V30 28940 H 2762.56 4.77414 1.44489 0
M  V30 28941 H 2761.72 4.72939 3.80018 0
M  V30 28942 H 2760.46 3.54882 3.3453 0
M  V30 28943 H 2759.46 5.21214 1.74975 0
M  V30 28944 H 2760.69 6.41375 2.23194 0
M  V30 28945 H 2758.63 5.13826 4.07822 0
M  V30 28946 H 2758.55 6.74065 3.42305 0
M  V30 28947 H 2759.82 6.33563 4.54112 0
M  V30 28948 N 2764.05 -0.188399 1.5647 0
M  V30 28949 C 2764.99 -1.23346 1.95076 0
M  V30 28950 C 2765.96 -1.44884 0.812264 0
M  V30 28951 O 2767.15 -1.57907 1.07098 0
M  V30 28952 C 2764.29 -2.57167 2.30128 0
M  V30 28953 C 2763.4 -2.43151 3.57074 0
M  V30 28954 C 2762.54 -3.69722 3.81417 0
M  V30 28955 C 2761.58 -3.50566 5.01766 0
M  V30 28956 N 2760.71 -4.69165 5.2233 0
M  V30 28957 H 2765.55 -0.89723 2.84172 0
M  V30 28958 H 2763.09 -0.431659 1.40624 0
M  V30 28959 H 2765.05 -3.3514 2.48469 0
M  V30 28960 H 2763.68 -2.88819 1.44164 0
M  V30 28961 H 2762.73 -1.56441 3.46743 0
M  V30 28962 H 2764.04 -2.24934 4.45204 0
M  V30 28963 H 2763.2 -4.56134 4.00034 0
M  V30 28964 H 2761.93 -3.909 2.9163 0
M  V30 28965 H 2760.94 -2.6254 4.83066 0
M  V30 28966 H 2762.16 -3.30827 5.93069 0
M  V30 28967 H 2760.11 -4.90595 4.35491 0
M  V30 28968 H 2760.03 -4.53798 6.04651 0
M  V30 28969 H 2761.3 -5.56909 5.4541 0
M  V30 28970 N 2765.53 -1.50848 -0.456355 0
M  V30 28971 C 2766.47 -1.70785 -1.55246 0
M  V30 28972 C 2767.44 -0.549259 -1.56756 0
M  V30 28973 O 2768.63 -0.78153 -1.7406 0
M  V30 28974 C 2765.77 -1.82148 -2.93114 0
M  V30 28975 C 2764.88 -3.09604 -3.0128 0
M  V30 28976 C 2764.02 -3.11675 -4.30154 0
M  V30 28977 C 2763.05 -4.33523 -4.32116 0
M  V30 28978 N 2762.19 -4.3325 -5.52484 0
M  V30 28979 H 2767.03 -2.64356 -1.3755 0
M  V30 28980 H 2764.57 -1.31031 -0.66852 0
M  V30 28981 H 2766.53 -1.86718 -3.73085 0
M  V30 28982 H 2765.16 -0.920033 -3.09411 0
M  V30 28983 H 2764.21 -3.14435 -2.1409 0
M  V30 28984 H 2765.52 -3.99557 -2.9859 0
M  V30 28985 H 2764.67 -3.15055 -5.18484 0
M  V30 28986 H 2763.41 -2.19577 -4.35473 0
M  V30 28987 H 2762.42 -4.30339 -3.42182 0
M  V30 28988 H 2763.64 -5.26864 -4.28476 0
M  V30 28989 H 2761.59 -3.44014 -5.58561 0
M  V30 28990 H 2761.51 -5.16989 -5.51596 0
M  V30 28991 H 2762.77 -4.40797 -6.42898 0
M  V30 28992 N 2767 0.710538 -1.40674 0
M  V30 28993 C 2768.42 1.01925 -1.22814 0
M  V30 28994 C 2768.62 2.01216 -0.106905 0
M  V30 28995 O 2767.68 2.46798 0.533571 0
M  V30 28996 C 2768.99 1.55815 -2.57181 0
M  V30 28997 C 2770.54 1.67775 -2.64236 0
M  V30 28998 C 2771.01 2.25069 -3.98883 0
M  V30 28999 N 2772.5 2.32449 -4.00652 0
M  V30 29000 C 2773.24 2.77775 -5.01626 0
M  V30 29001 N 2772.73 3.22815 -6.12994 0
M  V30 29002 N 2774.53 2.77204 -4.88993 0
M  V30 29003 H 2766.68 0.0524927 -2.12335 0
M  V30 29004 H 2768.94 0.0858814 -0.944102 0
M  V30 29005 H 2768.65 0.903189 -3.39905 0
M  V30 29006 H 2768.52 2.54262 -2.78622 0
M  V30 29007 H 2770.91 2.32387 -1.8188 0
M  V30 29008 H 2770.99 0.679134 -2.4662 0
M  V30 29009 H 2770.63 1.61077 -4.81681 0
M  V30 29010 H 2770.56 3.25654 -4.13832 0
M  V30 29011 H 2773.05 2.00645 -3.20235 0
M  V30 29012 H 2773.37 3.55983 -6.85927 0
M  V30 29013 H 2771.71 3.20762 -6.16552 0
M  V30 29014 H 2774.9 2.41356 -4.0108 0
M  V30 29015 H 2775.08 3.12211 -5.67827 0
M  V30 29016 N 2768.48 1.26254 0.943277 0
M  V30 29017 C 2769.76 1.02427 1.66638 0
M  V30 29018 C 2770.14 -0.44597 2.06335 0
M  V30 29019 O 2769.49 -1.42586 1.78554 0
M  V30 29020 C 2769.7 1.97099 2.88015 0
M  V30 29021 C 2771.04 2.25591 3.59714 0
M  V30 29022 O 2772.07 1.94949 2.98117 0
M  V30 29023 O 2770.93 2.77751 4.70655 0
M  V30 29024 H 2768.02 0.389307 0.729636 0
M  V30 29025 H 2770.57 1.37455 0.995194 0
M  V30 29026 H 2769.34 2.96323 2.55555 0
M  V30 29027 H 2768.96 1.62538 3.6286 0
M  V30 29028 N 2769.96 -1.14755 1.08024 0
M  V30 29029 C 2771.21 -1.85048 0.802501 0
M  V30 29030 C 2771.52 -1.8362 -0.674028 0
M  V30 29031 O 2772.73 -2.49664 -1.06678 0
M  V30 29032 C 2771.18 -3.3216 1.38556 0
M  V30 29033 C 2770.79 -3.42016 2.8936 0
M  V30 29034 C 2772.54 -4.07591 1.18615 0
M  V30 29035 C 2770.44 -4.83315 3.40823 0
M  V30 29036 H 2769.37 -0.693243 0.29653 0
M  V30 29037 H 2772.02 -1.29391 1.30116 0
M  V30 29038 H 2770.41 -3.8753 0.814624 0
M  V30 29039 H 2771.58 -2.96716 3.52557 0
M  V30 29040 H 2769.89 -2.80036 3.0817 0
M  V30 29041 H 2772.49 -5.11882 1.54534 0
M  V30 29042 H 2772.83 -4.1611 0.125672 0
M  V30 29043 H 2773.37 -3.5851 1.72382 0
M  V30 29044 H 2770.11 -4.79983 4.46427 0
M  V30 29045 H 2769.63 -5.29169 2.82383 0
M  V30 29046 H 2771.31 -5.52194 3.37181 0
M  V30 29047 N 2771.44 -0.865331 -1.31719 0
M  V30 29048 C 2772.37 -0.333343 -2.31108 0
M  V30 29049 C 2773.35 0.573273 -1.60149 0
M  V30 29050 O 2774.53 0.491272 -1.87883 0
M  V30 29051 C 2771.66 0.470017 -3.44105 0
M  V30 29052 C 2770.62 -0.343096 -4.26623 0
M  V30 29053 C 2769.94 0.585663 -5.31483 0
M  V30 29054 C 2771.24 -1.57465 -4.97998 0
M  V30 29055 H 2772.94 -1.16385 -2.75853 0
M  V30 29056 H 2770.48 -0.561092 -1.32619 0
M  V30 29057 H 2772.44 0.852679 -4.12683 0
M  V30 29058 H 2771.16 1.33399 -2.98115 0
M  V30 29059 H 2769.82 -0.707646 -3.59705 0
M  V30 29060 H 2769.47 1.44678 -4.81744 0
M  V30 29061 H 2769.17 0.0455461 -5.87582 0
M  V30 29062 H 2770.69 0.965269 -6.02922 0
M  V30 29063 H 2772.11 -1.26369 -5.59199 0
M  V30 29064 H 2770.5 -2.05349 -5.63872 0
M  V30 29065 H 2771.57 -2.33005 -4.25249 0
M  V30 29066 N 2772.92 1.44707 -0.624311 0
M  V30 29067 C 2774.19 1.95516 -0.0573125 0
M  V30 29068 C 2774.57 1.56644 1.41513 0
M  V30 29069 O 2773.92 0.837148 2.12613 0
M  V30 29070 C 2774.13 3.47931 -0.273005 0
M  V30 29071 C 2775.48 4.24289 -0.162603 0
M  V30 29072 O 2776.5 3.55615 -0.204009 0
M  V30 29073 O 2775.36 5.46465 -0.0617807 0
M  V30 29074 H 2772.46 0.826585 0.0262073 0
M  V30 29075 H 2775 1.54791 -0.695539 0
M  V30 29076 H 2773.77 3.6925 -1.29499 0
M  V30 29077 H 2773.4 3.95586 0.399687 0
M  V30 29078 N 2774.39 0.364449 1.53328 0
M  V30 29079 C 2775.34 -0.482567 2.25699 0
M  V30 29080 C 2776.31 -1.07846 1.26327 0
M  V30 29081 O 2777.5 -1.11116 1.55106 0
M  V30 29082 C 2774.64 -1.61694 3.04876 0
M  V30 29083 C 2773.75 -1.04633 4.19137 0
M  V30 29084 C 2772.88 -2.14971 4.85758 0
M  V30 29085 C 2771.92 -1.5537 5.92053 0
M  V30 29086 N 2771.06 -2.59535 6.52369 0
M  V30 29087 H 2775.9 0.141084 2.97666 0
M  V30 29088 H 2773.44 0.081395 1.46875 0
M  V30 29089 H 2775.39 -2.28509 3.49055 0
M  V30 29090 H 2774.02 -2.21126 2.35166 0
M  V30 29091 H 2773.08 -0.268486 3.79451 0
M  V30 29092 H 2774.39 -0.570566 4.95526 0
M  V30 29093 H 2773.54 -2.89609 5.33115 0
M  V30 29094 H 2772.28 -2.65899 4.08839 0
M  V30 29095 H 2771.29 -0.792453 5.44059 0
M  V30 29096 H 2772.51 -1.05268 6.70892 0
M  V30 29097 H 2770.46 -3.09679 5.78304 0
M  V30 29098 H 2770.37 -2.16642 7.24294 0
M  V30 29099 H 2771.64 -3.3388 7.04375 0
M  V30 29100 N 2775.87 -1.57322 0.0935872 0
M  V30 29101 C 2776.8 -2.10966 -0.895886 0
M  V30 29102 C 2777.82 -1.04656 -1.24703 0
M  V30 29103 O 2779.01 -1.32107 -1.20041 0
M  V30 29104 C 2776.11 -2.57322 -2.20542 0
M  V30 29105 C 2775.28 -3.87449 -2.02983 0
M  V30 29106 C 2774.34 -4.19668 -3.17435 0
M  V30 29107 O 2773.36 -4.88914 -2.91465 0
M  V30 29108 N 2774.57 -3.7495 -4.43162 0
M  V30 29109 H 2777.33 -2.96486 -0.437736 0
M  V30 29110 H 2774.89 -1.61641 -0.0915579 0
M  V30 29111 H 2776.88 -2.75923 -2.96055 0
M  V30 29112 H 2775.45 -1.7682 -2.57785 0
M  V30 29113 H 2774.67 -3.78011 -1.11809 0
M  V30 29114 H 2775.96 -4.72583 -1.88527 0
M  V30 29115 H 2775.36 -3.19051 -4.67143 0
M  V30 29116 H 2773.92 -3.98709 -5.1563 0
M  V30 29117 N 2777.35 0.180099 -1.56568 0
M  V30 29118 C 2778.58 0.913939 -1.8562 0
M  V30 29119 C 2778.99 1.76209 -0.677923 0
M  V30 29120 O 2778.35 1.79051 0.35314 0
M  V30 29121 C 2778.4 1.79787 -3.13622 0
M  V30 29122 O 2778.12 0.983945 -4.26908 0
M  V30 29123 C 2779.62 2.64212 -3.55959 0
M  V30 29124 H 2776.84 0.265944 -0.616048 0
M  V30 29125 H 2779.39 0.182836 -2.03681 0
M  V30 29126 H 2777.54 2.48242 -2.97413 0
M  V30 29127 H 2777.96 1.58767 -4.99893 0
M  V30 29128 H 2779.43 3.21865 -4.48449 0
M  V30 29129 H 2779.91 3.38656 -2.79659 0
M  V30 29130 H 2780.51 2.01104 -3.74749 0
M  V30 29131 N 2778.83 1.51088 0.448349 0
M  V30 29132 C 2780.24 1.39019 0.783959 0
M  V30 29133 C 2780.44 0.463938 1.96086 0
M  V30 29134 O 2779.5 -0.0850091 2.52357 0
M  V30 29135 C 2780.81 2.80841 1.07467 0
M  V30 29136 C 2782.36 2.89915 1.17976 0
M  V30 29137 C 2782.84 4.3262 1.50347 0
M  V30 29138 N 2784.33 4.35675 1.57293 0
M  V30 29139 C 2785.06 5.43113 1.8389 0
M  V30 29140 N 2784.56 6.60727 2.08353 0
M  V30 29141 N 2786.35 5.30581 1.85581 0
M  V30 29142 H 2778.5 2.09869 -0.326918 0
M  V30 29143 H 2780.76 0.944287 -0.0838172 0
M  V30 29144 H 2780.47 3.50562 0.282706 0
M  V30 29145 H 2780.34 3.1949 2.00514 0
M  V30 29146 H 2782.73 2.20398 1.96236 0
M  V30 29147 H 2782.81 2.54777 0.228558 0
M  V30 29148 H 2782.46 5.02682 0.726185 0
M  V30 29149 H 2782.39 4.65262 2.46655 0
M  V30 29150 H 2784.88 3.50876 1.40336 0
M  V30 29151 H 2785.19 7.38405 2.27986 0
M  V30 29152 H 2783.54 6.63862 2.05698 0
M  V30 29153 H 2786.73 4.37685 1.65981 0
M  V30 29154 H 2786.9 6.14394 2.05972 0
M  V30 29155 N 2780.31 -0.703068 1.41049 0
M  V30 29156 C 2781.58 -1.45706 1.30496 0
M  V30 29157 C 2781.96 -2.10981 -0.0709521 0
M  V30 29158 O 2781.31 -2.01114 -1.08468 0
M  V30 29159 C 2781.52 -2.4826 2.45291 0
M  V30 29160 C 2782.87 -3.1373 2.86109 0
M  V30 29161 O 2783.89 -2.58583 2.44976 0
M  V30 29162 O 2782.75 -4.13595 3.57214 0
M  V30 29163 H 2779.85 -0.648537 0.513155 0
M  V30 29164 H 2782.39 -0.734181 1.52996 0
M  V30 29165 H 2781.16 -1.98629 3.37138 0
M  V30 29166 H 2780.79 -3.28067 2.24628 0
M  V30 29167 N 2781.78 -1.26752 -0.936569 0
M  V30 29168 C 2783.01 -1.15358 -1.71756 0
M  V30 29169 C 2783.43 0.29065 -1.86549 0
M  V30 29170 O 2782.78 1.19865 -1.37618 0
M  V30 29171 C 2782.84 -1.82263 -3.1219 0
M  V30 29172 O 2782.56 -3.21043 -2.98099 0
M  V30 29173 C 2784.06 -1.76882 -4.06482 0
M  V30 29174 H 2781.28 -0.401492 -0.537629 0
M  V30 29175 H 2783.82 -1.67459 -1.17379 0
M  V30 29176 H 2781.98 -1.34089 -3.63454 0
M  V30 29177 H 2782.39 -3.54221 -3.86817 0
M  V30 29178 H 2783.86 -2.28325 -5.02565 0
M  V30 29179 H 2784.34 -0.736292 -4.32984 0
M  V30 29180 H 2784.95 -2.24629 -3.6114 0
M  V30 29181 N 2783.26 1.1418 -1.08631 0
M  V30 29182 C 2784.21 2.19337 -0.718338 0
M  V30 29183 C 2785.18 1.63431 0.296558 0
M  V30 29184 O 2786.36 1.89949 0.180046 0
M  V30 29185 C 2783.5 3.44831 -0.136264 0
M  V30 29186 C 2782.62 4.14877 -1.20421 0
M  V30 29187 C 2781.75 5.27961 -0.585759 0
M  V30 29188 C 2780.79 5.89843 -1.63559 0
M  V30 29189 N 2779.93 6.94373 -1.03876 0
M  V30 29190 H 2784.77 2.50161 -1.61937 0
M  V30 29191 H 2782.31 1.22842 -0.809211 0
M  V30 29192 H 2784.26 4.16625 0.218948 0
M  V30 29193 H 2782.89 3.14482 0.728065 0
M  V30 29194 H 2781.95 3.41448 -1.67682 0
M  V30 29195 H 2783.26 4.56962 -1.99967 0
M  V30 29196 H 2782.41 6.06436 -0.178924 0
M  V30 29197 H 2781.15 4.87103 0.241334 0
M  V30 29198 H 2780.16 5.10069 -2.05206 0
M  V30 29199 H 2781.38 6.32775 -2.4652 0
M  V30 29200 H 2779.33 6.55587 -0.232803 0
M  V30 29201 H 2779.24 7.34957 -1.77129 0
M  V30 29202 H 2780.51 7.76719 -0.65786 0
M  V30 29203 N 2784.74 0.872304 1.31258 0
M  V30 29204 C 2785.65 0.333295 2.3222 0
M  V30 29205 C 2786.67 -0.557984 1.64811 0
M  V30 29206 O 2787.84 -0.454141 1.96213 0
M  V30 29207 C 2784.91 -0.454419 3.43709 0
M  V30 29208 C 2783.97 0.465099 4.26773 0
M  V30 29209 C 2783.2 -0.285116 5.32938 0
M  V30 29210 O 2783.42 -1.5129 5.4997 0
M  V30 29211 O 2782.36 0.358232 6.00833 0
M  V30 29212 H 2786.18 1.17021 2.8025 0
M  V30 29213 H 2783.77 0.635748 1.35198 0
M  V30 29214 H 2785.65 -0.90089 4.11658 0
M  V30 29215 H 2784.33 -1.26784 2.97838 0
M  V30 29216 H 2783.23 0.960119 3.6157 0
M  V30 29217 H 2784.57 1.24418 4.76215 0
M  V30 29218 N 2786.22 -1.44374 0.631976 0
M  V30 29219 C 2787.15 -2.27875 -0.121782 0
M  V30 29220 C 2788.13 -1.38587 -0.850432 0
M  V30 29221 O 2789.31 -1.68027 -0.854349 0
M  V30 29222 C 2786.44 -3.17535 -1.17853 0
M  V30 29223 C 2785.49 -4.22935 -0.550317 0
M  V30 29224 S 2786.32 -5.31414 0.660238 0
M  V30 29225 C 2787.48 -6.24643 -0.396503 0
M  V30 29226 H 2787.71 -2.91456 0.586588 0
M  V30 29227 H 2785.24 -1.48573 0.420172 0
M  V30 29228 H 2787.2 -3.69742 -1.78328 0
M  V30 29229 H 2785.86 -2.53172 -1.8591 0
M  V30 29230 H 2785.05 -4.85688 -1.34623 0
M  V30 29231 H 2784.66 -3.73995 -0.0201648 0
M  V30 29232 H 2786.95 -6.65513 -1.26882 0
M  V30 29233 H 2787.89 -7.0783 0.19547 0
M  V30 29234 H 2788.3 -5.59854 -0.722782 0
M  V30 29235 N 2787.7 -0.372575 -1.53133 0
M  V30 29236 C 2788.63 0.505405 -2.23558 0
M  V30 29237 C 2789.64 1.04046 -1.25213 0
M  V30 29238 O 2790.83 0.945649 -1.51393 0
M  V30 29239 C 2787.93 1.71131 -2.92519 0
M  V30 29240 C 2787.1 1.30654 -4.17431 0
M  V30 29241 C 2786.16 2.37527 -4.69539 0
M  V30 29242 O 2785.19 1.99627 -5.33046 0
M  V30 29243 N 2786.39 3.69212 -4.47954 0
M  V30 29244 H 2789.16 -0.0978785 -2.9954 0
M  V30 29245 H 2786.72 -0.198096 -1.60684 0
M  V30 29246 H 2788.71 2.42118 -3.24285 0
M  V30 29247 H 2787.28 2.2213 -2.19948 0
M  V30 29248 H 2786.5 0.426223 -3.91889 0
M  V30 29249 H 2787.79 1.0125 -4.98624 0
M  V30 29250 H 2787.18 4.02776 -3.97226 0
M  V30 29251 H 2785.74 4.36283 -4.84252 0
M  V30 29252 N 2789.17 1.5727 -0.101929 0
M  V30 29253 C 2790.59 1.57554 0.254712 0
M  V30 29254 C 2790.79 1.11355 1.67935 0
M  V30 29255 O 2789.85 0.793124 2.3972 0
M  V30 29256 C 2791.16 3.00677 0.0369221 0
M  V30 29257 C 2792.71 3.12827 0.104144 0
M  V30 29258 C 2793.18 4.5792 -0.085737 0
M  V30 29259 N 2794.67 4.6319 -0.0311313 0
M  V30 29260 C 2795.41 5.73195 -0.1532 0
M  V30 29261 N 2794.9 6.92011 -0.330485 0
M  V30 29262 N 2796.7 5.62021 -0.0939841 0
M  V30 29263 H 2788.85 1.85607 -1.03266 0
M  V30 29264 H 2791.11 0.857008 -0.405266 0
M  V30 29265 H 2790.82 3.38702 -0.947314 0
M  V30 29266 H 2790.69 3.69126 0.77627 0
M  V30 29267 H 2793.08 2.74671 1.07889 0
M  V30 29268 H 2793.16 2.46956 -0.666806 0
M  V30 29269 H 2792.8 4.96771 -1.05738 0
M  V30 29270 H 2792.73 5.2186 0.70499 0
M  V30 29271 H 2795.22 3.77759 0.103075 0
M  V30 29272 H 2795.54 7.71685 -0.414956 0
M  V30 29273 H 2793.88 6.94034 -0.366241 0
M  V30 29274 H 2797.07 4.6808 0.0434346 0
M  V30 29275 H 2797.25 6.47714 -0.192563 0
M  V30 29276 N 2790.65 -0.171793 1.56661 0
M  V30 29277 C 2791.58 -1.21494 1.99403 0
M  V30 29278 C 2792.56 -1.46195 0.869541 0
M  V30 29279 O 2793.75 -1.57537 1.13559 0
M  V30 29280 C 2790.88 -2.55396 2.35351 0
M  V30 29281 C 2789.83 -2.45265 3.50755 0
M  V30 29282 C 2789.16 -3.83653 3.72444 0
M  V30 29283 C 2790.46 -1.95778 4.84219 0
M  V30 29284 H 2792.15 -0.859648 2.86793 0
M  V30 29285 H 2789.7 -0.412079 1.37978 0
M  V30 29286 H 2791.65 -3.28575 2.63849 0
M  V30 29287 H 2790.38 -2.92713 1.44869 0
M  V30 29288 H 2789.03 -1.74541 3.22383 0
M  V30 29289 H 2788.68 -4.18362 2.79253 0
M  V30 29290 H 2788.38 -3.77743 4.50093 0
M  V30 29291 H 2789.91 -4.58418 4.03342 0
M  V30 29292 H 2791.32 -2.58731 5.11597 0
M  V30 29293 H 2789.72 -2.00817 5.65502 0
M  V30 29294 H 2790.79 -0.912075 4.76245 0
M  V30 29295 N 2792.13 -1.51324 -0.44033 0
M  V30 29296 C 2793.06 -1.75367 -1.54171 0
M  V30 29297 C 2794.04 -0.603403 -1.59038 0
M  V30 29298 O 2795.23 -0.845804 -1.74814 0
M  V30 29299 C 2792.36 -1.87598 -2.92274 0
M  V30 29300 C 2791.31 -3.03014 -3.02269 0
M  V30 29301 C 2790.64 -3.00425 -4.42322 0
M  V30 29302 C 2791.94 -4.43029 -2.76627 0
M  V30 29303 H 2793.63 -2.67588 -1.34302 0
M  V30 29304 H 2791.18 -1.28764 -0.644656 0
M  V30 29305 H 2793.13 -2.03002 -3.69281 0
M  V30 29306 H 2791.85 -0.920234 -3.13368 0
M  V30 29307 H 2790.51 -2.87311 -2.27701 0
M  V30 29308 H 2790.16 -2.02634 -4.60379 0
M  V30 29309 H 2789.86 -3.77926 -4.49939 0
M  V30 29310 H 2791.38 -3.17918 -5.21306 0
M  V30 29311 H 2792.8 -4.59099 -3.43368 0
M  V30 29312 H 2791.2 -5.22213 -2.95657 0
M  V30 29313 H 2792.27 -4.53273 -1.72254 0
M  V30 29314 N 2793.61 0.695578 -1.41419 0
M  V30 29315 C 2794.89 1.45012 -1.31266 0
M  V30 29316 C 2795.27 2.11015 0.0597623 0
M  V30 29317 O 2794.61 2.01687 1.074 0
M  V30 29318 C 2794.82 2.46956 -2.46605 0
M  V30 29319 C 2796.17 3.12209 -2.87769 0
M  V30 29320 O 2797.2 2.5728 -2.46344 0
M  V30 29321 O 2796.05 4.11694 -3.59402 0
M  V30 29322 H 2793.15 0.645807 -0.516587 0
M  V30 29323 H 2795.69 0.726057 -1.53383 0
M  V30 29324 H 2794.47 1.96839 -3.38187 0
M  V30 29325 H 2794.09 3.26872 -2.26364 0
M  V30 29326 N 2795.09 1.27247 0.929833 0
M  V30 29327 C 2796.32 1.16268 1.71142 0
M  V30 29328 C 2796.73 -0.280753 1.86701 0
M  V30 29329 O 2796.09 -1.19134 1.38251 0
M  V30 29330 C 2796.14 1.83916 3.11219 0
M  V30 29331 O 2795.86 3.22619 2.96392 0
M  V30 29332 C 2797.36 1.79035 4.05538 0
M  V30 29333 H 2794.58 0.404338 0.535492 0
M  V30 29334 H 2797.12 1.68079 1.16489 0
M  V30 29335 H 2795.28 1.36015 3.62738 0
M  V30 29336 H 2795.69 3.56268 3.84933 0
M  V30 29337 H 2797.17 2.30987 5.01347 0
M  V30 29338 H 2797.64 0.759244 4.32588 0
M  V30 29339 H 2798.25 2.26541 3.59943 0
M  V30 29340 N 2796.57 -1.13603 1.09235 0
M  V30 29341 C 2797.8 -1.88408 0.84771 0
M  V30 29342 C 2798.2 -1.79283 -0.604493 0
M  V30 29343 O 2797.55 -1.15594 -1.42771 0
M  V30 29344 C 2797.61 -3.38824 1.20159 0
M  V30 29345 C 2797.27 -3.7173 2.6583 0
M  V30 29346 C 2798.27 -3.71137 3.64079 0
M  V30 29347 C 2795.95 -4.01449 3.01901 0
M  V30 29348 C 2797.95 -3.99799 4.96426 0
M  V30 29349 C 2795.64 -4.29773 4.3444 0
M  V30 29350 C 2796.63 -4.28933 5.31512 0
M  V30 29351 O 2796.32 -4.56565 6.61668 0
M  V30 29352 H 2796.05 -0.603373 0.304824 0
M  V30 29353 H 2798.61 -1.44745 1.45733 0
M  V30 29354 H 2796.84 -3.82981 0.535014 0
M  V30 29355 H 2798.53 -3.94951 0.936419 0
M  V30 29356 H 2799.29 -3.48255 3.37556 0
M  V30 29357 H 2795.17 -4.01251 2.26978 0
M  V30 29358 H 2798.72 -3.99059 5.72187 0
M  V30 29359 H 2794.61 -4.52126 4.60708 0
M  V30 29360 H 2795.38 -4.74242 6.67111 0
M  V30 29361 N 2798.04 -0.879253 -1.30793 0
M  V30 29362 C 2799.29 -0.493843 -1.95973 0
M  V30 29363 C 2799.61 0.958991 -1.69789 0
M  V30 29364 O 2798.88 1.67351 -1.01835 0
M  V30 29365 H 2797.46 -0.179635 -0.72508 0
M  V30 29366 H 2800.12 -1.12108 -1.5943 0
M  V30 29367 H 2799.22 -0.659316 -3.05056 0
M  V30 29368 N 2799.52 1.44037 -0.639624 0
M  V30 29369 C 2800.77 2.01179 -0.144921 0
M  V30 29370 C 2801.08 1.50969 1.24369 0
M  V30 29371 O 2802.29 2.00295 1.83287 0
M  V30 29372 C 2800.75 3.59297 -0.208307 0
M  V30 29373 C 2800.35 4.18502 -1.59876 0
M  V30 29374 C 2802.1 4.23879 0.229493 0
M  V30 29375 C 2800 5.6887 -1.61681 0
M  V30 29376 H 2798.93 0.752313 -0.0504137 0
M  V30 29377 H 2801.59 1.65159 -0.799668 0
M  V30 29378 H 2799.97 3.92654 0.513698 0
M  V30 29379 H 2801.14 3.96667 -2.34503 0
M  V30 29380 H 2799.46 3.66239 -1.98137 0
M  V30 29381 H 2802.05 5.3418 0.235664 0
M  V30 29382 H 2802.4 3.96825 1.25841 0
M  V30 29383 H 2802.93 3.95356 -0.440302 0
M  V30 29384 H 2799.67 6.00672 -2.62437 0
M  V30 29385 H 2799.19 5.92801 -0.913594 0
M  V30 29386 H 2800.87 6.32663 -1.3545 0
M  V30 29387 N 2801 0.380691 1.52933 0
M  V30 29388 C 2801.95 -0.47357 2.27728 0
M  V30 29389 C 2802.94 -1.07048 1.3129 0
M  V30 29390 O 2804.15 -1.01194 1.48861 0
M  V30 29391 H 2800.52 -0.171463 0.732192 0
M  V30 29392 H 2802.49 0.178837 2.97864 0
M  V30 29393 C 2801.24 -1.59336 3.09043 0
M  V30 29394 H 2800.57 -1.14336 3.83102 0
M  V30 29395 H 2802.01 -2.16549 3.64531 0
M  V30 29396 C 2800.46 -2.54443 2.20818 0
M  V30 29397 O 2800.99 -3.57639 1.82914 0
M  V30 29398 N 2799.2 -2.23983 1.85149 0
M  V30 29399 H 2798.75 -1.40099 2.16171 0
M  V30 29400 H 2798.71 -2.87869 1.26407 0
M  V30 29401 N 2802.48 -1.57214 0.110268 0
M  V30 29402 C 2803.41 -2.17869 -0.839964 0
M  V30 29403 C 2804.39 -1.11626 -1.2835 0
M  V30 29404 O 2805.57 -1.39826 -1.34767 0
M  V30 29405 C 2802.7 -2.77114 -2.09344 0
M  V30 29406 C 2801.66 -3.88863 -1.788 0
M  V30 29407 C 2800.98 -4.34877 -3.11104 0
M  V30 29408 C 2802.28 -5.11366 -1.06311 0
M  V30 29409 H 2803.98 -2.97525 -0.334555 0
M  V30 29410 H 2801.52 -1.43114 -0.159477 0
M  V30 29411 H 2803.48 -3.18203 -2.76269 0
M  V30 29412 H 2802.2 -1.94735 -2.62194 0
M  V30 29413 H 2800.86 -3.48337 -1.14267 0
M  V30 29414 H 2800.51 -3.49368 -3.61871 0
M  V30 29415 H 2800.21 -5.10229 -2.91444 0
M  V30 29416 H 2801.73 -4.78611 -3.79162 0
M  V30 29417 H 2803.15 -5.49529 -1.63374 0
M  V30 29418 H 2801.54 -5.92245 -0.967772 0
M  V30 29419 H 2802.61 -4.84876 -0.0483717 0
M  V30 29420 N 2803.96 0.163482 -1.5675 0
M  V30 29421 C 2805.37 0.725185 -1.72041 0
M  V30 29422 C 2805.72 1.8243 -0.722052 0
M  V30 29423 O 2804.84 2.16095 0.114904 0
M  V30 29424 C 2805.44 1.32222 -3.11934 0
M  V30 29425 C 2804 1.83066 -3.28883 0
M  V30 29426 C 2803.14 0.712668 -2.67986 0
M  V30 29427 H 2806.09 -0.0620051 -1.58579 0
M  V30 29428 H 2806.12 2.19197 -3.11019 0
M  V30 29429 H 2805.63 0.522035 -3.84573 0
M  V30 29430 H 2803.73 2.65703 -2.61213 0
M  V30 29431 H 2803.84 1.97071 -4.36692 0
M  V30 29432 H 2802.21 1.13511 -2.28007 0
M  V30 29433 H 2802.99 -0.0757964 -3.43216 0
M  V30 29434 N 2805.43 1.51555 0.432299 0
M  V30 29435 C 2806.36 1.76182 1.53239 0
M  V30 29436 C 2807.34 0.611829 1.58716 0
M  V30 29437 O 2808.53 0.855063 1.74363 0
M  V30 29438 C 2805.66 1.89146 2.91275 0
M  V30 29439 C 2804.61 3.04613 3.00657 0
M  V30 29440 C 2803.94 3.02767 4.40722 0
M  V30 29441 C 2805.24 4.4449 2.74273 0
M  V30 29442 H 2806.93 2.68296 1.32881 0
M  V30 29443 H 2804.48 1.29104 0.637818 0
M  V30 29444 H 2806.43 2.04957 3.68199 0
M  V30 29445 H 2805.16 0.93684 3.12875 0
M  V30 29446 H 2803.82 2.88515 2.26174 0
M  V30 29447 H 2803.46 2.05073 4.59297 0
M  V30 29448 H 2803.16 3.80307 4.47929 0
M  V30 29449 H 2804.69 3.20678 5.19613 0
M  V30 29450 H 2806.1 4.60913 3.40928 0
M  V30 29451 H 2804.5 5.23774 2.92883 0
M  V30 29452 H 2805.57 4.5418 1.69848 0
M  V30 29453 N 2806.91 -0.688069 1.41786 0
M  V30 29454 C 2808.16 -1.45028 1.41756 0
M  V30 29455 C 2808.49 -1.94178 0.0291086 0
M  V30 29456 O 2807.77 -1.70032 -0.944426 0
M  V30 29457 C 2808.05 -2.65682 2.43074 0
M  V30 29458 C 2807.9 -2.22249 3.91057 0
M  V30 29459 C 2809.22 -3.67888 2.41549 0
M  V30 29460 H 2806.34 -0.526018 0.516212 0
M  V30 29461 H 2808.98 -0.783075 1.73112 0
M  V30 29462 H 2807.13 -3.22606 2.16466 0
M  V30 29463 H 2808.8 -1.70594 4.28597 0
M  V30 29464 H 2807.05 -1.53955 4.05562 0
M  V30 29465 H 2807.72 -3.08855 4.57507 0
M  V30 29466 H 2810.19 -3.20653 2.65181 0
M  V30 29467 H 2809.07 -4.49908 3.14442 0
M  V30 29468 H 2809.33 -4.18103 1.43673 0
M  V30 29469 N 2808.39 -1.27739 -0.923072 0
M  V30 29470 C 2809.62 -1.17174 -1.70523 0
M  V30 29471 C 2810.03 0.270848 -1.86847 0
M  V30 29472 O 2809.39 1.18399 -1.38881 0
M  V30 29473 C 2809.44 -1.85564 -3.10239 0
M  V30 29474 O 2809.16 -3.24187 -2.94677 0
M  V30 29475 C 2810.66 -1.81183 -4.04583 0
M  V30 29476 H 2807.88 -0.407172 -0.53334 0
M  V30 29477 H 2810.43 -1.68694 -1.15596 0
M  V30 29478 H 2808.58 -1.37937 -3.62011 0
M  V30 29479 H 2809 -3.58304 -3.83039 0
M  V30 29480 H 2810.47 -2.33642 -5.00115 0
M  V30 29481 H 2810.95 -0.782175 -4.32179 0
M  V30 29482 H 2811.55 -2.28447 -3.58737 0
M  V30 29483 N 2809.87 1.13022 -1.09836 0
M  V30 29484 C 2811.1 1.87955 -0.85769 0
M  V30 29485 C 2811.51 1.79601 0.594976 0
M  V30 29486 O 2810.85 1.1635 1.42156 0
M  V30 29487 C 2810.91 3.38182 -1.21955 0
M  V30 29488 C 2810.58 3.70315 -2.67798 0
M  V30 29489 C 2811.57 3.69201 -3.66042 0
M  V30 29490 C 2809.26 3.99842 -3.04026 0
M  V30 29491 C 2811.25 3.97161 -4.9854 0
M  V30 29492 C 2808.94 4.27463 -4.36713 0
M  V30 29493 C 2809.94 4.26108 -5.3378 0
M  V30 29494 O 2809.62 4.53049 -6.64079 0
M  V30 29495 H 2809.36 0.601748 -0.308019 0
M  V30 29496 H 2811.91 1.4397 -1.46498 0
M  V30 29497 H 2810.14 3.82692 -0.555317 0
M  V30 29498 H 2811.83 3.94448 -0.957351 0
M  V30 29499 H 2812.6 3.4646 -3.39398 0
M  V30 29500 H 2808.47 4.00041 -2.29103 0
M  V30 29501 H 2812.02 3.96019 -5.74295 0
M  V30 29502 H 2807.92 4.49677 -4.63099 0
M  V30 29503 H 2808.68 4.70698 -6.69616 0
M  V30 29504 N 2811.35 0.886177 1.30325 0
M  V30 29505 C 2812.59 0.505975 1.96387 0
M  V30 29506 C 2812.93 -0.942682 1.69786 0
M  V30 29507 O 2812.2 -1.66629 1.00325 0
M  V30 29508 C 2812.48 0.782887 3.51487 0
M  V30 29509 C 2812.34 2.28226 3.87599 0
M  V30 29510 C 2813.66 0.260205 4.3933 0
M  V30 29511 H 2810.77 0.185305 0.713324 0
M  V30 29512 H 2813.42 1.11039 1.54176 0
M  V30 29513 H 2811.57 0.268467 3.87571 0
M  V30 29514 H 2813.24 2.86518 3.61532 0
M  V30 29515 H 2811.48 2.74843 3.35625 0
M  V30 29516 H 2812.15 2.42662 4.95802 0
M  V30 29517 H 2814.63 0.700517 4.10161 0
M  V30 29518 H 2813.5 0.483276 5.46768 0
M  V30 29519 H 2813.77 -0.838598 4.34074 0
M  V30 29520 N 2812.82 -1.43695 0.647253 0
M  V30 29521 C 2813.77 -2.3075 -0.0479687 0
M  V30 29522 C 2814.74 -1.44409 -0.82068 0
M  V30 29523 O 2815.93 -1.73288 -0.798484 0
M  V30 29524 C 2813.07 -3.29912 -1.01254 0
M  V30 29525 C 2812.18 -4.31352 -0.236553 0
M  V30 29526 C 2811.31 -5.17598 -1.19438 0
M  V30 29527 C 2810.35 -6.10735 -0.408488 0
M  V30 29528 N 2809.49 -6.89626 -1.3176 0
M  V30 29529 H 2814.33 -2.89655 0.700289 0
M  V30 29530 H 2811.87 -1.427 0.357107 0
M  V30 29531 H 2813.83 -3.85906 -1.58532 0
M  V30 29532 H 2812.46 -2.7267 -1.72774 0
M  V30 29533 H 2811.51 -3.777 0.45242 0
M  V30 29534 H 2812.82 -4.9739 0.374818 0
M  V30 29535 H 2811.97 -5.78189 -1.83799 0
M  V30 29536 H 2810.71 -4.51672 -1.83967 0
M  V30 29537 H 2809.72 -5.49238 0.248507 0
M  V30 29538 H 2810.94 -6.78703 0.232308 0
M  V30 29539 H 2808.89 -6.26354 -1.9498 0
M  V30 29540 H 2808.81 -7.52164 -0.760647 0
M  V30 29541 H 2810.07 -7.54727 -1.94954 0
M  V30 29542 N 2814.3 -0.388796 -1.52729 0
M  V30 29543 C 2815.58 0.251099 -1.93982 0
M  V30 29544 C 2815.96 1.64402 -1.32421 0
M  V30 29545 O 2815.31 2.23138 -0.492113 0
M  V30 29546 C 2815.52 0.277959 -3.47891 0
M  V30 29547 C 2816.87 0.507155 -4.2156 0
M  V30 29548 O 2817.89 0.35819 -3.54394 0
M  V30 29549 O 2816.75 0.798999 -5.40628 0
M  V30 29550 H 2813.84 0.155966 -0.81216 0
M  V30 29551 H 2816.39 -0.443266 -1.63809 0
M  V30 29552 H 2815.16 -0.697737 -3.85029 0
M  V30 29553 H 2814.78 1.01727 -3.84366 0
M  V30 29554 N 2815.78 1.57153 -0.118604 0
M  V30 29555 C 2816.69 2.18836 0.845446 0
M  V30 29556 C 2817.71 1.1644 1.29297 0
M  V30 29557 O 2818.88 1.48908 1.35604 0
M  V30 29558 C 2815.95 2.77532 2.0779 0
M  V30 29559 C 2815.01 3.94963 1.68233 0
M  V30 29560 C 2814.24 4.5085 2.85604 0
M  V30 29561 O 2814.46 4.05636 4.01018 0
M  V30 29562 O 2813.4 5.4154 2.62712 0
M  V30 29563 H 2817.22 3.0167 0.350515 0
M  V30 29564 H 2814.81 1.49016 0.106987 0
M  V30 29565 H 2816.69 3.1495 2.79972 0
M  V30 29566 H 2815.37 1.9773 2.5629 0
M  V30 29567 H 2814.27 3.62315 0.931599 0
M  V30 29568 H 2815.61 4.762 1.24475 0
M  V30 29569 N 2817.26 -0.155167 1.56834 0
M  V30 29570 C 2818.19 -1.19372 2.0068 0
M  V30 29571 C 2819.17 -1.45265 0.884998 0
M  V30 29572 O 2820.35 -1.56324 1.15223 0
M  V30 29573 C 2817.48 -2.52886 2.38046 0
M  V30 29574 C 2816.44 -2.41531 3.53336 0
M  V30 29575 C 2815.76 -3.79681 3.76492 0
M  V30 29576 C 2817.06 -1.90631 4.86268 0
M  V30 29577 H 2818.76 -0.829182 2.87689 0
M  V30 29578 H 2816.3 -0.397421 1.38407 0
M  V30 29579 H 2818.26 -3.25758 2.67319 0
M  V30 29580 H 2816.98 -2.9116 1.47965 0
M  V30 29581 H 2815.64 -1.71112 3.24216 0
M  V30 29582 H 2815.29 -4.15377 2.83675 0
M  V30 29583 H 2814.99 -3.72948 4.54074 0
M  V30 29584 H 2816.51 -4.54115 4.08182 0
M  V30 29585 H 2817.93 -2.5329 5.14312 0
M  V30 29586 H 2816.32 -1.94808 5.676 0
M  V30 29587 H 2817.39 -0.861512 4.77185 0
M  V30 29588 N 2818.74 -1.51782 -0.424256 0
M  V30 29589 C 2820.15 -1.40248 -0.761743 0
M  V30 29590 C 2820.35 -0.495075 -1.95323 0
M  V30 29591 O 2819.41 0.0448505 -2.5246 0
M  V30 29592 C 2820.72 -2.82515 -1.02985 0
M  V30 29593 C 2822.27 -2.91755 -1.13349 0
M  V30 29594 C 2822.74 -4.34957 -1.43445 0
M  V30 29595 N 2824.24 -4.38123 -1.50342 0
M  V30 29596 C 2824.97 -5.4597 -1.75226 0
M  V30 29597 N 2824.47 -6.63958 -1.97815 0
M  V30 29598 N 2826.26 -5.33466 -1.77117 0
M  V30 29599 H 2818.41 -2.09322 0.360265 0
M  V30 29600 H 2820.67 -0.942834 0.0988294 0
M  V30 29601 H 2820.38 -3.50967 -0.226899 0
M  V30 29602 H 2820.25 -3.2264 -1.95405 0
M  V30 29603 H 2822.64 -2.23492 -1.92705 0
M  V30 29604 H 2822.72 -2.55108 -0.187996 0
M  V30 29605 H 2822.37 -5.03773 -0.646121 0
M  V30 29606 H 2822.3 -4.69127 -2.39222 0
M  V30 29607 H 2824.79 -3.53065 -1.34736 0
M  V30 29608 H 2825.1 -7.41939 -2.1621 0
M  V30 29609 H 2823.44 -6.67051 -1.95111 0
M  V30 29610 H 2826.64 -4.4027 -1.58997 0
M  V30 29611 H 2826.81 -6.17593 -1.96172 0
M  V30 29612 N 2820.21 0.68054 -1.42149 0
M  V30 29613 C 2821.44 1.47401 -1.45903 0
M  V30 29614 C 2821.86 1.87969 -0.0701315 0
M  V30 29615 O 2821.22 1.55623 0.930117 0
M  V30 29616 C 2821.27 2.70317 -2.38666 0
M  V30 29617 O 2820.37 3.68373 -1.85406 0
M  V30 29618 H 2819.72 0.443051 -0.494573 0
M  V30 29619 H 2822.25 0.835218 -1.86776 0
M  V30 29620 H 2822.26 3.18454 -2.55051 0
M  V30 29621 H 2820.93 2.40128 -3.39575 0
M  V30 29622 H 2819.51 3.27377 -1.78546 0
M  V30 29623 N 2821.69 1.28226 0.916285 0
M  V30 29624 C 2822.64 1.11935 2.01839 0
M  V30 29625 C 2823.61 0.0171896 1.66091 0
M  V30 29626 O 2824.79 0.181651 1.89933 0
M  V30 29627 C 2821.93 0.784563 3.36063 0
M  V30 29628 C 2821.05 1.96551 3.84697 0
M  V30 29629 C 2820.18 1.57157 5.0742 0
M  V30 29630 C 2819.22 2.71932 5.48379 0
M  V30 29631 N 2818.36 2.33048 6.62294 0
M  V30 29632 H 2823.2 2.06236 2.15106 0
M  V30 29633 H 2820.74 1.02649 1.05364 0
M  V30 29634 H 2822.69 0.571221 4.13271 0
M  V30 29635 H 2821.32 -0.121508 3.22571 0
M  V30 29636 H 2820.38 2.29106 3.03669 0
M  V30 29637 H 2821.69 2.8261 4.11015 0
M  V30 29638 H 2820.84 1.32015 5.92163 0
M  V30 29639 H 2819.58 0.682238 4.82905 0
M  V30 29640 H 2818.59 2.97776 4.62179 0
M  V30 29641 H 2819.81 3.61504 5.74884 0
M  V30 29642 H 2817.76 1.46581 6.39414 0
M  V30 29643 H 2817.67 3.12643 6.88324 0
M  V30 29644 H 2818.94 2.11183 7.50348 0
M  V30 29645 N 2823.17 -1.12438 1.10433 0
M  V30 29646 C 2824.4 -1.8777 0.868905 0
M  V30 29647 C 2824.81 -1.79651 -0.580614 0
M  V30 29648 O 2824.17 -1.17039 -1.40029 0
M  V30 29649 C 2824.22 -3.36983 1.30861 0
M  V30 29650 O 2823.94 -3.44909 2.70129 0
M  V30 29651 C 2825.44 -4.29254 1.10707 0
M  V30 29652 H 2822.66 -0.594115 0.311879 0
M  V30 29653 H 2825.21 -1.4227 1.46899 0
M  V30 29654 H 2823.36 -3.80027 0.752192 0
M  V30 29655 H 2823.78 -4.37743 2.88931 0
M  V30 29656 H 2825.25 -5.32236 1.46387 0
M  V30 29657 H 2825.73 -4.39176 0.0456999 0
M  V30 29658 H 2826.33 -3.91991 1.64995 0
M  V30 29659 N 2824.65 -0.893076 -1.29853 0
M  V30 29660 C 2825.6 -0.364201 -2.27908 0
M  V30 29661 C 2826.57 0.550065 -1.56727 0
M  V30 29662 O 2827.75 0.476738 -1.84748 0
M  V30 29663 C 2824.89 0.408118 -3.42678 0
M  V30 29664 C 2824 -0.536288 -4.28658 0
M  V30 29665 C 2823.14 0.252428 -5.306 0
M  V30 29666 C 2822.18 -0.686928 -6.08233 0
M  V30 29667 N 2821.32 0.0669668 -7.02068 0
M  V30 29668 H 2826.16 -1.20549 -2.72529 0
M  V30 29669 H 2823.69 -0.605803 -1.34046 0
M  V30 29670 H 2825.65 0.871891 -4.07988 0
M  V30 29671 H 2824.28 1.21391 -2.99105 0
M  V30 29672 H 2823.33 -1.11857 -3.63582 0
M  V30 29673 H 2824.64 -1.2556 -4.82738 0
M  V30 29674 H 2823.8 0.777696 -6.01695 0
M  V30 29675 H 2822.54 1.00491 -4.77235 0
M  V30 29676 H 2821.54 -1.22375 -5.36008 0
M  V30 29677 H 2822.77 -1.43864 -6.63687 0
M  V30 29678 H 2820.71 0.80184 -6.51081 0
M  V30 29679 H 2820.63 -0.592563 -7.53674 0
M  V30 29680 H 2821.9 0.572714 -7.77393 0
M  V30 29681 N 2826.13 1.4335 -0.654865 0
M  V30 29682 C 2827.37 2.02093 -0.169178 0
M  V30 29683 C 2827.71 1.51555 1.21428 0
M  V30 29684 O 2826.98 0.709348 1.81104 0
M  V30 29685 C 2827.26 3.59641 -0.181838 0
M  V30 29686 C 2827.12 4.20406 -1.59933 0
M  V30 29687 C 2828.44 4.37465 0.480868 0
M  V30 29688 H 2825.56 0.734307 -0.0629501 0
M  V30 29689 H 2828.2 1.70626 -0.835863 0
M  V30 29690 H 2826.35 3.86579 0.38585 0
M  V30 29691 H 2828.02 4.04493 -2.21773 0
M  V30 29692 H 2826.26 3.76994 -2.14612 0
M  V30 29693 H 2826.93 5.29497 -1.56003 0
M  V30 29694 H 2829.41 4.161 -0.00215586 0
M  V30 29695 H 2828.29 5.47123 0.441288 0
M  V30 29696 H 2828.55 4.13841 1.55526 0
M  V30 29697 N 2827.61 0.39689 1.52521 0
M  V30 29698 C 2828.52 -0.44174 2.30404 0
M  V30 29699 C 2829.53 -1.06466 1.37626 0
M  V30 29700 O 2830.71 -1.06883 1.70699 0
M  V30 29701 C 2827.77 -1.5498 3.10132 0
M  V30 29702 C 2826.83 -0.951206 4.18629 0
M  V30 29703 C 2826.07 -2.00646 4.94547 0
M  V30 29704 O 2826.29 -3.22272 4.70634 0
M  V30 29705 O 2825.22 -1.61952 5.79703 0
M  V30 29706 H 2829.05 0.192946 3.03086 0
M  V30 29707 H 2826.63 0.160406 1.48536 0
M  V30 29708 H 2828.52 -2.19335 3.5982 0
M  V30 29709 H 2827.19 -2.16931 2.40255 0
M  V30 29710 H 2826.1 -0.270707 3.73119 0
M  V30 29711 H 2827.43 -0.375801 4.90763 0
M  V30 29712 N 2829.08 -1.57088 0.126936 0
M  V30 29713 C 2830.02 -2.12819 -0.850936 0
M  V30 29714 C 2831.03 -1.07278 -1.22455 0
M  V30 29715 O 2832.22 -1.34624 -1.17212 0
M  V30 29716 C 2829.32 -2.61942 -2.15034 0
M  V30 29717 C 2828.49 -3.91667 -1.94719 0
M  V30 29718 C 2827.55 -4.26307 -3.08462 0
M  V30 29719 O 2826.58 -4.94986 -2.81029 0
M  V30 29720 N 2827.78 -3.84266 -4.35109 0
M  V30 29721 H 2830.54 -2.97348 -0.374748 0
M  V30 29722 H 2828.1 -1.61799 -0.0572509 0
M  V30 29723 H 2830.1 -2.8214 -2.90136 0
M  V30 29724 H 2828.67 -1.82249 -2.53977 0
M  V30 29725 H 2827.89 -3.80298 -1.03765 0
M  V30 29726 H 2829.17 -4.76476 -1.7846 0
M  V30 29727 H 2828.57 -3.28888 -4.60271 0
M  V30 29728 H 2827.13 -4.09557 -5.07057 0
M  V30 29729 N 2830.56 0.146848 -1.56914 0
M  V30 29730 C 2831.81 0.857738 -1.82995 0
M  V30 29731 C 2832.13 1.81699 -0.707846 0
M  V30 29732 O 2831.4 1.94024 0.270487 0
M  V30 29733 H 2829.98 0.319739 -0.675112 0
M  V30 29734 H 2832.64 0.140815 -1.94391 0
M  V30 29735 H 2831.74 1.41989 -2.77931 0
M  V30 29736 N 2832.04 1.52005 0.4162 0
M  V30 29737 C 2832.99 1.74841 1.50663 0
M  V30 29738 C 2833.96 0.590626 1.55244 0
M  V30 29739 O 2835.14 0.827405 1.71926 0
M  V30 29740 C 2832.28 1.89856 2.88182 0
M  V30 29741 C 2831.39 3.17483 2.92965 0
M  V30 29742 C 2830.53 3.2297 4.21739 0
M  V30 29743 C 2829.57 4.44827 4.2047 0
M  V30 29744 N 2828.71 4.47746 5.40803 0
M  V30 29745 H 2833.55 2.6791 1.30493 0
M  V30 29746 H 2831.08 1.32758 0.633544 0
M  V30 29747 H 2833.04 1.96544 3.68003 0
M  V30 29748 H 2831.67 1.00174 3.06863 0
M  V30 29749 H 2830.72 3.20001 2.05678 0
M  V30 29750 H 2832.03 4.07333 2.87891 0
M  V30 29751 H 2831.19 3.28691 5.09948 0
M  V30 29752 H 2829.93 2.31046 4.29499 0
M  V30 29753 H 2828.93 4.3926 3.30652 0
M  V30 29754 H 2830.16 5.38039 4.14356 0
M  V30 29755 H 2828.1 3.58702 5.49244 0
M  V30 29756 H 2828.02 5.31432 5.37695 0
M  V30 29757 H 2829.29 4.57687 6.30985 0
M  V30 29758 N 2833.52 -0.672992 1.42508 0
M  V30 29759 C 2834.74 -1.46625 1.46683 0
M  V30 29760 C 2835.17 -1.87929 0.080099 0
M  V30 29761 O 2834.53 -1.56114 -0.921851 0
M  V30 29762 C 2834.57 -2.69047 2.40096 0
M  V30 29763 O 2833.68 -3.67384 1.87357 0
M  V30 29764 H 2833.02 -0.440421 0.496915 0
M  V30 29765 H 2835.55 -0.825302 1.87216 0
M  V30 29766 H 2835.56 -3.17097 2.56737 0
M  V30 29767 H 2834.23 -2.38324 3.40844 0
M  V30 29768 H 2832.81 -3.26425 1.8028 0
M  V30 29769 N 2835 -1.2871 -0.909472 0
M  V30 29770 C 2836.41 -1.0651 -1.1886 0
M  V30 29771 C 2836.61 0.189828 -2.00604 0
M  V30 29772 O 2835.67 0.890314 -2.36283 0
M  V30 29773 C 2836.98 -2.31503 -1.91903 0
M  V30 29774 C 2838.53 -2.36725 -2.04769 0
M  V30 29775 C 2839 -3.61495 -2.81221 0
M  V30 29776 N 2840.49 -3.6216 -2.88781 0
M  V30 29777 C 2841.23 -4.55381 -3.48447 0
M  V30 29778 N 2840.73 -5.58925 -4.09359 0
M  V30 29779 N 2842.52 -4.42969 -3.46027 0
M  V30 29780 H 2834.67 -2.09261 -0.363831 0
M  V30 29781 H 2836.93 -0.921245 -0.223633 0
M  V30 29782 H 2836.64 -3.2295 -1.39269 0
M  V30 29783 H 2836.51 -2.3825 -2.92432 0
M  V30 29784 H 2838.9 -1.45771 -2.56583 0
M  V30 29785 H 2838.98 -2.33969 -1.03404 0
M  V30 29786 H 2838.62 -4.52794 -2.30086 0
M  V30 29787 H 2838.55 -3.61506 -3.82911 0
M  V30 29788 H 2841.05 -2.87287 -2.45508 0
M  V30 29789 H 2841.36 -6.26195 -4.5288 0
M  V30 29790 H 2839.7 -5.62746 -4.0785 0
M  V30 29791 H 2842.89 -3.61275 -2.97654 0
M  V30 29792 H 2843.07 -5.15806 -3.92235 0
M  V30 29793 N 2836.47 1.1185 -1.11028 0
M  V30 29794 C 2837.4 2.19843 -0.786851 0
M  V30 29795 C 2838.38 1.68357 0.242905 0
M  V30 29796 O 2839.57 1.93903 0.107321 0
M  V30 29797 C 2836.7 3.46573 -0.224577 0
M  V30 29798 C 2835.65 4.11248 -1.18572 0
M  V30 29799 C 2834.98 5.32502 -0.484355 0
M  V30 29800 C 2836.28 4.56671 -2.53473 0
M  V30 29801 H 2837.97 2.47155 -1.68982 0
M  V30 29802 H 2835.52 1.18791 -0.813927 0
M  V30 29803 H 2837.47 4.21398 0.0138694 0
M  V30 29804 H 2836.2 3.18707 0.713666 0
M  V30 29805 H 2834.86 3.38412 -1.40972 0
M  V30 29806 H 2834.5 5.00905 0.458558 0
M  V30 29807 H 2834.2 5.76723 -1.12536 0
M  V30 29808 H 2835.73 6.10069 -0.2546 0
M  V30 29809 H 2837.14 5.22839 -2.35186 0
M  V30 29810 H 2835.54 5.11691 -3.13516 0
M  V30 29811 H 2836.61 3.70338 -3.13014 0
M  V30 29812 N 2837.95 0.89995 1.29378 0
M  V30 29813 C 2839.2 0.521971 1.94829 0
M  V30 29814 C 2839.51 -0.936443 1.71727 0
M  V30 29815 O 2840.72 -1.42195 2.31285 0
M  V30 29816 C 2839.18 0.882611 3.4891 0
M  V30 29817 C 2838.78 2.35981 3.80811 0
M  V30 29818 C 2840.53 0.574554 4.20594 0
M  V30 29819 C 2838.43 2.6613 5.28137 0
M  V30 29820 H 2837.36 0.191481 0.729281 0
M  V30 29821 H 2840.02 1.09698 1.47101 0
M  V30 29822 H 2838.4 0.236529 3.95293 0
M  V30 29823 H 2839.57 3.05147 3.45286 0
M  V30 29824 H 2837.89 2.63692 3.22266 0
M  V30 29825 H 2840.48 0.776649 5.2903 0
M  V30 29826 H 2840.83 -0.486932 4.13442 0
M  V30 29827 H 2841.36 1.17849 3.79943 0
M  V30 29828 H 2838.1 3.71077 5.40353 0
M  V30 29829 H 2837.62 2.01588 5.64909 0
M  V30 29830 H 2839.3 2.5241 5.95734 0
M  V30 29831 N 2839.43 -1.43001 0.662458 0
M  V30 29832 C 2840.34 -2.34588 -0.0238786 0
M  V30 29833 C 2841.36 -1.54403 -0.802228 0
M  V30 29834 O 2842.53 -1.8702 -0.747368 0
M  V30 29835 C 2839.6 -3.32795 -0.97204 0
M  V30 29836 C 2838.66 -4.28881 -0.189597 0
M  V30 29837 C 2837.89 -5.22396 -1.0926 0
M  V30 29838 O 2838.11 -5.20551 -2.332 0
M  V30 29839 O 2837.05 -5.99289 -0.560031 0
M  V30 29840 H 2840.87 -2.9479 0.730223 0
M  V30 29841 H 2838.46 -1.43297 0.42266 0
M  V30 29842 H 2840.34 -3.9316 -1.51669 0
M  V30 29843 H 2839.02 -2.75082 -1.70621 0
M  V30 29844 H 2837.92 -3.71968 0.398859 0
M  V30 29845 H 2839.26 -4.896 0.505196 0
M  V30 29846 N 2840.91 -0.404973 -1.52308 0
M  V30 29847 C 2841.87 0.410612 -2.25492 0
M  V30 29848 C 2842.87 0.977132 -1.27706 0
M  V30 29849 O 2844.06 0.856665 -1.5168 0
M  V30 29850 C 2841.19 1.5776 -3.022 0
M  V30 29851 H 2842.39 -0.230329 -2.99014 0
M  V30 29852 H 2839.94 -0.157405 -1.55505 0
M  V30 29853 H 2840.67 2.25552 -2.33016 0
M  V30 29854 H 2840.46 1.17791 -3.73989 0
M  V30 29855 H 2841.95 2.15463 -3.57723 0
M  V30 29856 N 2842.39 1.57018 -0.135265 0
M  V30 29857 C 2843.61 2.00532 0.529308 0
M  V30 29858 C 2844.04 1.01462 1.58389 0
M  V30 29859 O 2843.39 -0.0113668 1.81296 0
M  V30 29860 C 2843.44 3.4285 1.11742 0
M  V30 29861 O 2842.55 3.46739 2.23261 0
M  V30 29862 H 2841.89 0.651018 0.130658 0
M  V30 29863 H 2844.42 2.0332 -0.228539 0
M  V30 29864 H 2844.43 3.81403 1.44898 0
M  V30 29865 H 2843.1 4.14466 0.345074 0
M  V30 29866 H 2841.68 3.20019 1.91422 0
M  V30 29867 N 2843.86 -0.138524 1.5699 0
M  V30 29868 C 2845.09 -0.868377 1.88345 0
M  V30 29869 C 2845.51 -1.73559 0.72519 0
M  V30 29870 O 2844.87 -1.78364 -0.324961 0
M  V30 29871 C 2844.92 -1.69393 3.18337 0
M  V30 29872 O 2844.02 -2.79902 3.02868 0
M  V30 29873 H 2843.37 -0.241356 0.618582 0
M  V30 29874 H 2845.9 -0.12679 2.04207 0
M  V30 29875 H 2845.91 -2.0872 3.50571 0
M  V30 29876 H 2844.58 -1.05717 4.0224 0
M  V30 29877 H 2843.16 -2.43919 2.8206 0
M  V30 29878 N 2845.34 -1.52224 -0.408133 0
M  V30 29879 C 2846.27 -1.78598 -1.50416 0
M  V30 29880 C 2847.25 -0.637002 -1.57722 0
M  V30 29881 O 2848.44 -0.882695 -1.7298 0
M  V30 29882 C 2845.57 -1.93756 -2.88229 0
M  V30 29883 C 2844.52 -3.09358 -2.95773 0
M  V30 29884 C 2843.85 -3.0974 -4.3585 0
M  V30 29885 C 2845.15 -4.48797 -2.67167 0
M  V30 29886 H 2846.84 -2.70376 -1.28596 0
M  V30 29887 H 2844.39 -1.30103 -0.617198 0
M  V30 29888 H 2846.34 -2.10789 -3.64892 0
M  V30 29889 H 2845.07 -0.986497 -3.11345 0
M  V30 29890 H 2843.72 -2.92076 -2.21556 0
M  V30 29891 H 2843.37 -2.12354 -4.55977 0
M  V30 29892 H 2843.07 -3.87385 -4.41822 0
M  V30 29893 H 2844.6 -3.28904 -5.14446 0
M  V30 29894 H 2846.01 -4.66279 -3.33552 0
M  V30 29895 H 2844.41 -5.28367 -2.84514 0
M  V30 29896 H 2845.48 -4.56825 -1.62601 0
M  V30 29897 N 2846.82 0.665425 -1.42863 0
M  V30 29898 C 2847.77 1.79997 -1.47322 0
M  V30 29899 C 2848.76 1.65787 -0.347992 0
M  V30 29900 O 2849.97 1.72282 -0.521436 0
M  V30 29901 H 2846.34 0.593659 -0.461598 0
M  V30 29902 H 2848.31 1.73356 -2.42879 0
M  V30 29903 C 2847.06 3.182 -1.40157 0
M  V30 29904 H 2846.39 3.29766 -2.26041 0
M  V30 29905 H 2847.83 3.97577 -1.47338 0
M  V30 29906 C 2846.29 3.36695 -0.117552 0
M  V30 29907 O 2846.82 3.93116 0.825989 0
M  V30 29908 N 2845.02 2.90583 -0.0316729 0
M  V30 29909 H 2844.57 2.44853 -0.80029 0
M  V30 29910 H 2844.53 3.03334 0.826782 0
M  V30 29911 N 2848.3 1.29191 0.902633 0
M  V30 29912 C 2849.58 1.07677 1.63295 0
M  V30 29913 C 2849.96 -0.3801 2.0765 0
M  V30 29914 O 2849.3 -1.36834 1.83 0
M  V30 29915 C 2849.51 2.06163 2.81599 0
M  V30 29916 C 2850.86 2.3692 3.52355 0
M  V30 29917 O 2851.89 2.04334 2.91763 0
M  V30 29918 O 2850.74 2.92584 4.61581 0
M  V30 29919 H 2847.84 0.412323 0.716881 0
M  V30 29920 H 2850.38 1.40552 0.950959 0
M  V30 29921 H 2849.16 3.04303 2.45998 0
M  V30 29922 H 2848.78 1.74 3.57505 0
M  V30 29923 N 2849.78 -1.1126 1.1162 0
M  V30 29924 C 2851 -1.87379 0.889046 0
M  V30 29925 C 2851.43 -1.79699 -0.555852 0
M  V30 29926 O 2850.78 -1.16075 -1.3927 0
M  V30 29927 C 2850.83 -3.34066 1.35765 0
M  V30 29928 O 2849.94 -4.08973 0.530571 0
M  V30 29929 H 2849.28 -0.581753 0.320092 0
M  V30 29930 H 2851.81 -1.40624 1.48613 0
M  V30 29931 H 2851.82 -3.84914 1.35298 0
M  V30 29932 H 2850.49 -3.38972 2.40979 0
M  V30 29933 H 2849.07 -3.68017 0.601503 0
M  V30 29934 N 2851.25 -0.906798 -1.28899 0
M  V30 29935 C 2852.5 -0.537155 -1.95557 0
M  V30 29936 C 2852.83 0.915552 -1.71264 0
M  V30 29937 O 2852.11 1.65011 -1.02964 0
M  V30 29938 C 2852.39 -0.838707 -3.50197 0
M  V30 29939 C 2852.24 -2.34364 -3.83919 0
M  V30 29940 C 2853.56 -0.330065 -4.38861 0
M  V30 29941 H 2850.68 -0.19663 -0.710286 0
M  V30 29942 H 2853.32 -1.13478 -1.5239 0
M  V30 29943 H 2851.47 -0.330092 -3.87095 0
M  V30 29944 H 2853.15 -2.92234 -3.56928 0
M  V30 29945 H 2851.39 -2.80147 -3.3121 0
M  V30 29946 H 2852.06 -2.50519 -4.91878 0
M  V30 29947 H 2854.54 -0.765681 -4.08995 0
M  V30 29948 H 2853.41 -0.5702 -5.4593 0
M  V30 29949 H 2853.67 0.769435 -4.35353 0
M  V30 29950 N 2852.73 1.42648 -0.670032 0
M  V30 29951 C 2853.7 2.292 0.00200631 0
M  V30 29952 C 2854.7 1.43081 0.733792 0
M  V30 29953 O 2855.89 1.64523 0.572511 0
M  V30 29954 C 2853.02 3.25485 1.01353 0
M  V30 29955 H 2854.21 2.90117 -0.759747 0
M  V30 29956 H 2851.76 1.50208 -0.432131 0
M  V30 29957 H 2852.5 2.69497 1.80394 0
M  V30 29958 H 2852.28 3.88998 0.492255 0
M  V30 29959 H 2853.77 3.90406 1.48233 0
M  V30 29960 N 2854.21 0.413044 1.52091 0
M  V30 29961 C 2855.14 -0.455195 2.23614 0
M  V30 29962 C 2856.12 -1.04478 1.24592 0
M  V30 29963 O 2857.31 -1.0919 1.53655 0
M  V30 29964 C 2854.43 -1.63219 2.96778 0
M  V30 29965 C 2853.48 -1.16561 4.10263 0
M  V30 29966 S 2854.31 -0.127539 5.35348 0
M  V30 29967 C 2855.47 -1.30976 6.12042 0
M  V30 29968 H 2855.7 0.152095 2.96911 0
M  V30 29969 H 2853.23 0.19737 1.53133 0
M  V30 29970 H 2855.19 -2.30707 3.39536 0
M  V30 29971 H 2853.85 -2.21083 2.23117 0
M  V30 29972 H 2853.05 -2.04507 4.60644 0
M  V30 29973 H 2852.65 -0.569321 3.69641 0
M  V30 29974 H 2854.94 -2.23265 6.39655 0
M  V30 29975 H 2855.88 -0.84641 7.03023 0
M  V30 29976 H 2856.29 -1.53733 5.43163 0
M  V30 29977 N 2855.69 -1.56945 0.143591 0
M  V30 29978 C 2857.11 -1.58174 -0.212849 0
M  V30 29979 C 2857.31 -1.15768 -1.64924 0
M  V30 29980 O 2856.36 -0.856402 -2.37533 0
M  V30 29981 C 2857.67 -3.0067 0.0428101 0
M  V30 29982 C 2859.22 -3.12993 -0.0211671 0
M  V30 29983 C 2859.7 -4.57531 0.207116 0
M  V30 29984 N 2861.19 -4.62944 0.153927 0
M  V30 29985 C 2861.92 -5.72588 0.305119 0
M  V30 29986 N 2861.42 -6.90892 0.513844 0
M  V30 29987 N 2863.21 -5.61575 0.242961 0
M  V30 29988 H 2855.36 -1.82804 1.08151 0
M  V30 29989 H 2857.63 -0.845962 0.427846 0
M  V30 29990 H 2857.33 -3.36071 1.03678 0
M  V30 29991 H 2857.21 -3.71054 -0.67813 0
M  V30 29992 H 2859.59 -2.77435 -1.00569 0
M  V30 29993 H 2859.67 -2.45101 0.732047 0
M  V30 29994 H 2859.32 -4.93793 1.18872 0
M  V30 29995 H 2859.25 -5.23545 -0.566381 0
M  V30 29996 H 2861.74 -3.779 -0.00288224 0
M  V30 29997 H 2862.05 -7.70314 0.619409 0
M  V30 29998 H 2860.4 -6.92819 0.550123 0
M  V30 29999 H 2863.59 -4.6803 0.0806838 0
M  V30 30000 H 2863.76 -6.46976 0.364226 0
M  V30 30001 N 2857.17 0.130197 -1.57061 0
M  V30 30002 C 2858.1 1.19025 -1.947 0
M  V30 30003 C 2859.08 1.40694 -0.815099 0
M  V30 30004 O 2860.26 1.55032 -1.07226 0
M  V30 30005 C 2857.39 2.54617 -2.23356 0
M  V30 30006 C 2856.44 2.49442 -3.45949 0
M  V30 30007 S 2857.27 1.94497 -4.9893 0
M  V30 30008 C 2858.42 3.31783 -5.30727 0
M  V30 30009 H 2858.66 0.869222 -2.84309 0
M  V30 30010 H 2856.19 0.336504 -1.50688 0
M  V30 30011 H 2858.15 3.32638 -2.40545 0
M  V30 30012 H 2856.81 2.83902 -1.34381 0
M  V30 30013 H 2856 3.49295 -3.6333 0
M  V30 30014 H 2855.6 1.79537 -3.28089 0
M  V30 30015 H 2857.9 4.27957 -5.25223 0
M  V30 30016 H 2858.84 3.1924 -6.32053 0
M  V30 30017 H 2859.25 3.29695 -4.58216 0
M  V30 30018 N 2858.65 1.52438 0.400055 0
M  V30 30019 C 2859.61 1.75795 1.47067 0
M  V30 30020 C 2860.61 0.627882 1.48035 0
M  V30 30021 O 2861.8 0.895843 1.494 0
M  V30 30022 C 2858.93 1.84863 2.86424 0
M  V30 30023 H 2860.12 2.7138 1.27644 0
M  V30 30024 H 2857.68 1.42992 0.631116 0
M  V30 30025 H 2858.41 0.912249 3.11205 0
M  V30 30026 H 2858.2 2.67026 2.87123 0
M  V30 30027 H 2859.69 2.04645 3.6402 0
M  V30 30028 N 2860.12 -0.657839 1.43214 0
M  V30 30029 C 2861.37 -1.41778 1.44586 0
M  V30 30030 C 2861.7 -1.94379 0.0684549 0
M  V30 30031 O 2860.95 -1.72414 -0.925842 0
M  V30 30032 C 2861.25 -2.61943 2.43147 0
M  V30 30033 C 2860.92 -2.27787 3.89132 0
M  V30 30034 C 2859.58 -2.18184 4.28893 0
M  V30 30035 C 2861.93 -2.00367 4.81147 0
M  V30 30036 C 2859.26 -1.7931 5.58628 0
M  V30 30037 C 2861.61 -1.62992 6.11242 0
M  V30 30038 C 2860.28 -1.51911 6.49984 0
M  V30 30039 H 2859.55 -0.518804 0.529078 0
M  V30 30040 H 2862.19 -0.748546 1.76264 0
M  V30 30041 H 2860.5 -3.33978 2.04857 0
M  V30 30042 H 2862.2 -3.20149 2.41466 0
M  V30 30043 H 2858.79 -2.3617 3.57661 0
M  V30 30044 H 2862.97 -2.0671 4.51204 0
M  V30 30045 H 2858.23 -1.69313 5.87489 0
M  V30 30046 H 2862.4 -1.40805 6.82017 0
M  V30 30047 H 2860.03 -1.21559 7.50418 0
M  V30 30048 N 2861.6 -1.29668 -0.895769 0
M  V30 30049 C 2862.85 -1.17634 -1.64337 0
M  V30 30050 C 2863.17 0.271609 -1.93099 0
M  V30 30051 O 2862.44 1.18516 -1.55984 0
M  V30 30052 H 2861.02 -0.432365 -0.609155 0
M  V30 30053 H 2863.68 -1.62648 -1.07386 0
M  V30 30054 H 2862.78 -1.72929 -2.59812 0
M  V30 30055 N 2863.08 1.10667 -1.12208 0
M  V30 30056 C 2864.03 2.19026 -0.782957 0
M  V30 30057 C 2865.02 1.67843 0.229145 0
M  V30 30058 O 2866.23 1.79787 0.0875979 0
M  V30 30059 H 2862.6 0.714223 -0.235351 0
M  V30 30060 H 2864.57 2.44871 -1.70531 0
M  V30 30061 C 2863.32 3.46791 -0.251221 0
M  V30 30062 H 2862.65 3.86535 -1.0213 0
M  V30 30063 H 2864.09 4.23968 -0.0522154 0
M  V30 30064 C 2862.54 3.21078 1.02031 0
M  V30 30065 O 2863.07 3.42525 2.09855 0
M  V30 30066 N 2861.28 2.74761 0.946299 0
M  V30 30067 H 2860.83 2.57508 0.0687317 0
M  V30 30068 H 2860.79 2.57934 1.7977 0
M  V30 30069 N 2864.56 0.913621 1.28416 0
M  V30 30070 C 2865.49 0.418888 2.29712 0
M  V30 30071 C 2866.47 -0.51344 1.62166 0
M  V30 30072 O 2867.65 -0.421202 1.89577 0
M  V30 30073 C 2864.78 -0.341981 3.45612 0
M  V30 30074 C 2863.74 0.501198 4.25055 0
M  V30 30075 C 2863.06 -0.388003 5.3329 0
M  V30 30076 C 2864.36 1.75839 4.91811 0
M  V30 30077 H 2866.06 1.26543 2.71344 0
M  V30 30078 H 2863.6 0.609926 1.30445 0
M  V30 30079 H 2865.56 -0.698927 4.15563 0
M  V30 30080 H 2864.28 -1.22242 3.0286 0
M  V30 30081 H 2862.94 0.840661 3.56831 0
M  V30 30082 H 2862.59 -1.26699 4.86782 0
M  V30 30083 H 2862.29 0.172563 5.87347 0
M  V30 30084 H 2863.81 -0.740833 6.06089 0
M  V30 30085 H 2865.23 1.47036 5.54124 0
M  V30 30086 H 2863.62 2.26136 5.55862 0
M  V30 30087 H 2864.69 2.48627 4.16308 0
M  V30 30088 N 2866.04 -1.4229 0.677588 0
M  V30 30089 C 2867.27 -2.05538 0.209191 0
M  V30 30090 C 2867.67 -1.51011 -1.13984 0
M  V30 30091 O 2867.02 -0.645794 -1.71974 0
M  V30 30092 C 2867.08 -3.59432 0.069839 0
M  V30 30093 C 2866.74 -4.36666 1.34803 0
M  V30 30094 C 2867.74 -4.67137 2.28209 0
M  V30 30095 C 2865.42 -4.76257 1.5964 0
M  V30 30096 C 2867.42 -5.36136 3.44727 0
M  V30 30097 C 2865.11 -5.44996 2.76447 0
M  V30 30098 C 2866.1 -5.74861 3.68815 0
M  V30 30099 O 2865.79 -6.42189 4.83578 0
M  V30 30100 H 2865.52 -0.668766 0.0986319 0
M  V30 30101 H 2868.08 -1.83367 0.925515 0
M  V30 30102 H 2866.31 -3.80273 -0.702091 0
M  V30 30103 H 2868 -4.04309 -0.359044 0
M  V30 30104 H 2868.76 -4.37048 2.10271 0
M  V30 30105 H 2864.64 -4.52403 0.886153 0
M  V30 30106 H 2868.19 -5.59364 4.16843 0
M  V30 30107 H 2864.08 -5.74502 2.94309 0
M  V30 30108 H 2864.85 -6.60681 4.83159 0
M  V30 30109 N 2867.51 -0.421104 -1.5187 0
M  V30 30110 C 2868.48 0.386672 -2.25915 0
M  V30 30111 C 2869.48 0.963532 -1.28735 0
M  V30 30112 O 2870.67 0.840529 -1.5258 0
M  V30 30113 C 2867.8 1.54546 -3.03856 0
M  V30 30114 H 2868.99 -0.262031 -2.98753 0
M  V30 30115 H 2866.54 -0.173889 -1.5533 0
M  V30 30116 H 2867.28 2.23068 -2.35396 0
M  V30 30117 H 2867.06 1.13817 -3.75217 0
M  V30 30118 H 2868.55 2.11657 -3.59988 0
M  V30 30119 N 2868.99 1.56866 -0.151912 0
M  V30 30120 C 2869.96 2.15814 0.771823 0
M  V30 30121 C 2870.96 1.10117 1.17179 0
M  V30 30122 O 2872.15 1.35731 1.09191 0
M  V30 30123 C 2869.28 2.72524 2.04801 0
M  V30 30124 H 2870.47 2.9878 0.258969 0
M  V30 30125 H 2868.02 1.55995 0.0975606 0
M  V30 30126 H 2868.76 1.93238 2.60441 0
M  V30 30127 H 2868.54 3.49857 1.77038 0
M  V30 30128 H 2870.03 3.17925 2.70765 0
M  V30 30129 N 2870.47 -0.121866 1.57128 0
M  V30 30130 C 2871.72 -0.830156 1.84702 0
M  V30 30131 C 2872.05 -1.80013 0.736575 0
M  V30 30132 O 2871.3 -1.93796 -0.272324 0
M  V30 30133 C 2871.6 -1.61671 3.18743 0
M  V30 30134 C 2871.27 -0.791283 4.43903 0
M  V30 30135 C 2869.93 -0.563647 4.77888 0
M  V30 30136 C 2872.28 -0.215731 5.20753 0
M  V30 30137 C 2869.61 0.24984 5.86168 0
M  V30 30138 C 2871.96 0.584931 6.2989 0
M  V30 30139 C 2870.62 0.82291 6.62408 0
M  V30 30140 H 2869.89 -0.303776 0.675871 0
M  V30 30141 H 2872.54 -0.0926558 1.91276 0
M  V30 30142 H 2870.85 -2.42504 3.07732 0
M  V30 30143 H 2872.54 -2.16866 3.37298 0
M  V30 30144 H 2869.13 -0.978794 4.17274 0
M  V30 30145 H 2873.32 -0.37882 4.94852 0
M  V30 30146 H 2868.57 0.443468 6.0979 0
M  V30 30147 H 2872.75 1.03791 6.88622 0
M  V30 30148 H 2870.37 1.45509 7.46144 0
M  V30 30149 N 2871.95 -1.52648 -0.391965 0
M  V30 30150 C 2872.9 -1.73596 -1.47812 0
M  V30 30151 C 2873.88 -0.590006 -1.49692 0
M  V30 30152 O 2875.07 -0.847728 -1.55379 0
M  V30 30153 C 2872.2 -1.90556 -2.85558 0
M  V30 30154 C 2871.29 -3.11075 -2.88259 0
M  V30 30155 N 2871.68 -4.33478 -2.60634 0
M  V30 30156 C 2869.98 -3.1126 -3.19427 0
M  V30 30157 C 2870.68 -5.15063 -2.70342 0
M  V30 30158 N 2869.66 -4.50685 -3.03948 0
M  V30 30159 H 2873.46 -2.65863 -1.25276 0
M  V30 30160 H 2870.97 -1.50915 -0.599881 0
M  V30 30161 H 2872.97 -2.03685 -3.63756 0
M  V30 30162 H 2871.63 -0.995007 -3.09079 0
M  V30 30163 H 2872.64 -4.61662 -2.3471 0
M  V30 30164 H 2869.32 -2.30003 -3.48432 0
M  V30 30165 H 2870.71 -6.22628 -2.52554 0
M  V30 30166 N 2873.43 0.650235 -1.43561 0
M  V30 30167 C 2874.37 1.76301 -1.48951 0
M  V30 30168 C 2875.34 1.62605 -0.338948 0
M  V30 30169 O 2876.53 1.82805 -0.546522 0
M  V30 30170 C 2873.67 3.1447 -1.42137 0
M  V30 30171 C 2872.78 3.39279 -2.67421 0
M  V30 30172 C 2871.92 4.67312 -2.52573 0
M  V30 30173 C 2870.96 4.85236 -3.73112 0
M  V30 30174 N 2870.09 6.04529 -3.57057 0
M  V30 30175 H 2874.93 1.7103 -2.44035 0
M  V30 30176 H 2872.47 0.834579 -1.21133 0
M  V30 30177 H 2874.43 3.94349 -1.36179 0
M  V30 30178 H 2873.06 3.18804 -0.506329 0
M  V30 30179 H 2872.11 2.53476 -2.83644 0
M  V30 30180 H 2873.42 3.48409 -3.56949 0
M  V30 30181 H 2872.58 5.55322 -2.44341 0
M  V30 30182 H 2871.31 4.60508 -1.60574 0
M  V30 30183 H 2870.32 3.95661 -3.8175 0
M  V30 30184 H 2871.54 4.93868 -4.66124 0
M  V30 30185 H 2869.49 5.98851 -2.67794 0
M  V30 30186 H 2869.41 6.1463 -4.40189 0
M  V30 30187 H 2870.68 6.95152 -3.52681 0
M  V30 30188 N 2874.9 1.30141 0.88888 0
M  V30 30189 C 2875.85 1.16091 2.01558 0
M  V30 30190 C 2876.85 0.073771 1.69239 0
M  V30 30191 O 2878.05 0.234345 1.78468 0
M  V30 30192 H 2874.43 0.358918 0.660819 0
M  V30 30193 H 2876.4 2.11457 2.10544 0
M  V30 30194 C 2875.15 0.865485 3.36756 0
M  V30 30195 H 2874.47 1.69408 3.62134 0
M  V30 30196 H 2875.91 0.807265 4.16244 0
M  V30 30197 C 2874.37 -0.431518 3.34125 0
M  V30 30198 O 2874.9 -1.45425 3.74452 0
M  V30 30199 N 2873.11 -0.441271 2.8723 0
M  V30 30200 H 2872.65 0.391477 2.54608 0
M  V30 30201 H 2872.61 -1.30903 2.85852 0
M  V30 30202 N 2876.38 -1.1007 1.12794 0
M  V30 30203 C 2877.79 -1.6361 0.899375 0
M  V30 30204 C 2878.14 -1.87873 -0.565514 0
M  V30 30205 O 2877.27 -1.6235 -1.43078 0
M  V30 30206 C 2877.86 -2.97224 1.62613 0
M  V30 30207 C 2876.42 -3.47616 1.44362 0
M  V30 30208 C 2875.57 -2.22153 1.65962 0
M  V30 30209 H 2878.52 -0.935201 1.28217 0
M  V30 30210 H 2878.54 -3.6487 1.07936 0
M  V30 30211 H 2878.05 -2.79533 2.69226 0
M  V30 30212 H 2876.16 -3.70444 0.400213 0
M  V30 30213 H 2876.27 -4.25485 2.20226 0
M  V30 30214 H 2874.63 -2.30482 1.08399 0
M  V30 30215 H 2875.42 -2.06988 2.73881 0
M  V30 30216 N 2877.86 -0.920419 -1.2793 0
M  V30 30217 C 2879.11 -0.55594 -1.94303 0
M  V30 30218 C 2879.43 0.904489 -1.72754 0
M  V30 30219 O 2878.7 1.64027 -1.07107 0
M  V30 30220 H 2877.28 -0.202612 -0.718998 0
M  V30 30221 H 2879.94 -1.17123 -1.55783 0
M  V30 30222 H 2879.04 -0.756034 -3.02804 0
M  V30 30223 N 2879.34 1.41929 -0.685124 0
M  V30 30224 C 2880.58 2.01689 -0.212007 0
M  V30 30225 C 2880.92 1.54096 1.18186 0
M  V30 30226 O 2880.19 0.747604 1.79558 0
M  V30 30227 C 2880.48 3.59174 -0.258083 0
M  V30 30228 C 2880.33 4.16919 -1.68814 0
M  V30 30229 C 2881.65 4.38387 0.387967 0
M  V30 30230 H 2878.77 0.732806 -0.0785116 0
M  V30 30231 H 2881.41 1.68815 -0.871867 0
M  V30 30232 H 2879.56 3.87311 0.303764 0
M  V30 30233 H 2881.23 3.99697 -2.30303 0
M  V30 30234 H 2879.47 3.72357 -2.2256 0
M  V30 30235 H 2880.14 5.26069 -1.67199 0
M  V30 30236 H 2882.62 4.16002 -0.0904163 0
M  V30 30237 H 2881.5 5.47936 0.325136 0
M  V30 30238 H 2881.76 4.17046 1.46713 0
M  V30 30239 N 2880.82 0.429152 1.51644 0
M  V30 30240 C 2882.06 -0.140251 2.02314 0
M  V30 30241 C 2882.4 -1.43072 1.31317 0
M  V30 30242 O 2881.67 -1.89787 0.425565 0
M  V30 30243 C 2881.95 -0.367427 3.58221 0
M  V30 30244 C 2881.81 0.941117 4.39844 0
M  V30 30245 C 2883.13 -1.14082 4.25057 0
M  V30 30246 H 2880.24 -0.0494983 0.735336 0
M  V30 30247 H 2882.89 0.566546 1.81357 0
M  V30 30248 H 2881.04 -0.96949 3.76209 0
M  V30 30249 H 2882.71 1.57653 4.33524 0
M  V30 30250 H 2880.95 1.54758 4.05256 0
M  V30 30251 H 2881.62 0.736306 5.47067 0
M  V30 30252 H 2884.1 -0.630913 4.11289 0
M  V30 30253 H 2882.97 -1.26853 5.34041 0
M  V30 30254 H 2883.24 -2.16676 3.85362 0
M  V30 30255 N 2882.29 -1.56783 0.160229 0
M  V30 30256 C 2883.52 -2.00913 -0.49413 0
M  V30 30257 C 2883.94 -1.04041 -1.57546 0
M  V30 30258 O 2883.29 -0.0394902 -1.82457 0
M  V30 30259 C 2883.35 -3.44907 -1.08265 0
M  V30 30260 O 2883.07 -4.38077 -0.0444934 0
M  V30 30261 C 2884.57 -4.04382 -1.81633 0
M  V30 30262 H 2881.79 -0.658778 -0.127486 0
M  V30 30263 H 2884.33 -2.02857 0.258701 0
M  V30 30264 H 2882.49 -3.43773 -1.78603 0
M  V30 30265 H 2882.9 -5.22322 -0.477452 0
M  V30 30266 H 2884.37 -5.07093 -2.18085 0
M  V30 30267 H 2884.85 -3.45842 -2.70721 0
M  V30 30268 H 2885.46 -4.09186 -1.15962 0
M  V30 30269 N 2883.77 0.113531 -1.57191 0
M  V30 30270 C 2885.02 0.818729 -1.84773 0
M  V30 30271 C 2885.34 1.80157 -0.746228 0
M  V30 30272 O 2884.61 1.94554 0.229271 0
M  V30 30273 H 2883.19 0.305347 -0.681742 0
M  V30 30274 H 2885.85 0.0995502 -1.94646 0
M  V30 30275 H 2884.95 1.36062 -2.8088 0
M  V30 30276 N 2885.25 1.52854 0.383864 0
M  V30 30277 C 2886.48 1.72332 1.15397 0
M  V30 30278 C 2886.9 0.443012 1.82809 0
M  V30 30279 O 2886.26 -0.601615 1.71027 0
M  V30 30280 C 2886.31 2.87712 2.17381 0
M  V30 30281 O 2885.41 2.55044 3.24078 0
M  V30 30282 H 2884.75 0.572889 0.335699 0
M  V30 30283 H 2887.28 1.99667 0.446585 0
M  V30 30284 H 2887.29 3.13355 2.61291 0
M  V30 30285 H 2885.97 3.8059 1.67703 0
M  V30 30286 H 2884.54 2.40158 2.85269 0
M  V30 30287 N 2886.73 -0.642612 1.43904 0
M  V30 30288 C 2887.69 -1.73696 1.49541 0
M  V30 30289 C 2888.69 -1.56275 0.378803 0
M  V30 30290 O 2889.88 -1.61979 0.640978 0
M  V30 30291 C 2887.01 -3.12672 1.35826 0
M  V30 30292 H 2888.21 -1.70075 2.47011 0
M  V30 30293 H 2885.76 -0.855237 1.30826 0
M  V30 30294 H 2886.5 -3.21897 0.394051 0
M  V30 30295 H 2886.28 -3.26723 2.16782 0
M  V30 30296 H 2887.77 -3.92452 1.42727 0
M  V30 30297 N 2888.21 -1.30611 -0.881966 0
M  V30 30298 C 2889.45 -1.19784 -1.63645 0
M  V30 30299 C 2889.79 0.246231 -1.92633 0
M  V30 30300 O 2889.06 1.17575 -1.5494 0
M  V30 30301 C 2889.34 -2.0299 -2.97434 0
M  V30 30302 C 2889.2 -3.55633 -2.754 0
M  V30 30303 C 2890.52 -1.87004 -3.98394 0
M  V30 30304 H 2887.64 -0.436498 -0.593833 0
M  V30 30305 H 2890.28 -1.60275 -1.02039 0
M  V30 30306 H 2888.43 -1.68587 -3.50015 0
M  V30 30307 H 2890.1 -4.00111 -2.29583 0
M  V30 30308 H 2888.34 -3.79665 -2.09849 0
M  V30 30309 H 2889.01 -4.09146 -3.70545 0
M  V30 30310 H 2891.49 -2.17088 -3.54982 0
M  V30 30311 H 2890.37 -2.47544 -4.89911 0
M  V30 30312 H 2890.63 -0.830019 -4.34239 0
M  V30 30313 N 2889.69 1.0947 -1.13376 0
M  V30 30314 C 2890.93 1.81278 -0.893454 0
M  V30 30315 C 2891.25 1.86112 0.581996 0
M  V30 30316 O 2890.52 1.34635 1.42303 0
M  V30 30317 H 2889.1 0.671355 -0.327555 0
M  V30 30318 H 2891.77 1.32405 -1.43021 0
M  V30 30319 H 2890.86 2.84474 -1.28379 0
M  V30 30320 N 2891.16 0.92719 1.2744 0
M  V30 30321 C 2892.4 0.574643 1.96156 0
M  V30 30322 C 2892.77 -0.867867 1.71266 0
M  V30 30323 O 2893.97 -1.32866 2.33667 0
M  V30 30324 C 2892.24 0.89107 3.46114 0
M  V30 30325 S 2893.8 0.646961 4.34004 0
M  V30 30326 H 2890.62 0.212137 0.678615 0
M  V30 30327 H 2893.22 1.19552 1.54686 0
M  V30 30328 H 2891.92 1.93861 3.61727 0
M  V30 30329 H 2891.45 0.25937 3.92544 0
M  V30 30330 H 2893.47 -0.495481 4.9372 0
M  V30 30331 N 2892.64 -1.41564 0.692641 0
M  V30 30332 C 2893.92 -1.9502 0.15053 0
M  V30 30333 C 2894.3 -1.63217 -1.33878 0
M  V30 30334 O 2893.65 -0.937635 -2.08376 0
M  V30 30335 C 2893.86 -3.46232 0.438697 0
M  V30 30336 C 2895.2 -4.2303 0.364852 0
M  V30 30337 O 2896.23 -3.54237 0.373445 0
M  V30 30338 O 2895.09 -5.45548 0.322436 0
M  V30 30339 H 2892.18 -0.826894 0.0132599 0
M  V30 30340 H 2894.73 -1.51296 0.7686 0
M  V30 30341 H 2893.5 -3.62651 1.46969 0
M  V30 30342 H 2893.12 -3.97042 -0.210493 0
M  V30 30343 N 2894.12 -0.437188 -1.51415 0
M  V30 30344 C 2895.53 0.0259677 -1.86682 0
M  V30 30345 C 2895.88 1.41957 -1.35435 0
M  V30 30346 O 2895.01 2.04591 -0.705091 0
M  V30 30347 C 2895.6 0.0538982 -3.38757 0
M  V30 30348 C 2894.16 0.461466 -3.73561 0
M  V30 30349 C 2893.31 -0.345973 -2.75133 0
M  V30 30350 H 2896.26 -0.653038 -1.44641 0
M  V30 30351 H 2896.28 0.863413 -3.70574 0
M  V30 30352 H 2895.79 -0.960516 -3.76026 0
M  V30 30353 H 2893.89 1.48149 -3.41881 0
M  V30 30354 H 2894.01 0.186367 -4.78737 0
M  V30 30355 H 2892.37 0.195695 -2.53947 0
M  V30 30356 H 2893.15 -1.35926 -3.15244 0
M  V30 30357 N 2895.6 1.56696 -0.168541 0
M  V30 30358 C 2896.87 1.88469 0.523334 0
M  V30 30359 C 2897.25 1.07799 1.81501 0
M  V30 30360 O 2896.6 0.171085 2.27859 0
M  V30 30361 C 2896.81 3.40447 0.767931 0
M  V30 30362 C 2898.16 4.10126 1.09917 0
M  V30 30363 O 2899.18 3.45748 0.856564 0
M  V30 30364 O 2898.04 5.23859 1.55672 0
M  V30 30365 H 2895.14 0.781879 0.269433 0
M  V30 30366 H 2897.68 1.68436 -0.206769 0
M  V30 30367 H 2896.46 3.9103 -0.145323 0
M  V30 30368 H 2896.08 3.66082 1.55145 0
M  V30 30369 N 2897.08 -0.105193 1.57249 0
M  V30 30370 C 2898.01 -1.12927 2.04376 0
M  V30 30371 C 2898.99 -1.42375 0.930765 0
M  V30 30372 O 2900.17 -1.52579 1.20138 0
M  V30 30373 C 2897.3 -2.45185 2.45971 0
M  V30 30374 C 2896.26 -2.30168 3.60842 0
M  V30 30375 C 2895.58 -3.67511 3.88381 0
M  V30 30376 C 2896.88 -1.75065 4.92087 0
M  V30 30377 H 2898.58 -0.737236 2.90181 0
M  V30 30378 H 2896.12 -0.353187 1.39602 0
M  V30 30379 H 2898.07 -3.17089 2.77548 0
M  V30 30380 H 2896.8 -2.86305 1.57153 0
M  V30 30381 H 2895.46 -1.6071 3.29496 0
M  V30 30382 H 2895.11 -4.06141 2.96746 0
M  V30 30383 H 2894.81 -3.58313 4.6571 0
M  V30 30384 H 2896.33 -4.40899 4.22422 0
M  V30 30385 H 2897.74 -2.36799 5.2211 0
M  V30 30386 H 2896.14 -1.76652 5.7351 0
M  V30 30387 H 2897.21 -0.709263 4.79685 0
M  V30 30388 N 2898.55 -1.53055 -0.375752 0
M  V30 30389 C 2899.8 -1.68744 -1.11945 0
M  V30 30390 C 2900.13 -0.434048 -1.89595 0
M  V30 30391 O 2899.38 0.583834 -1.86788 0
M  V30 30392 C 2899.68 -2.88211 -2.11351 0
M  V30 30393 C 2899.35 -4.25127 -1.50259 0
M  V30 30394 C 2898.01 -4.62361 -1.33325 0
M  V30 30395 C 2900.36 -5.10314 -1.05967 0
M  V30 30396 C 2897.69 -5.82429 -0.706663 0
M  V30 30397 C 2900.04 -6.31018 -0.44713 0
M  V30 30398 C 2898.71 -6.66973 -0.265196 0
M  V30 30399 H 2897.98 -0.617478 -0.409637 0
M  V30 30400 H 2900.62 -1.87223 -0.402459 0
M  V30 30401 H 2898.93 -2.64202 -2.89317 0
M  V30 30402 H 2900.63 -2.97544 -2.68828 0
M  V30 30403 H 2897.22 -3.95804 -1.6443 0
M  V30 30404 H 2901.4 -4.82106 -1.17847 0
M  V30 30405 H 2896.66 -6.08885 -0.554025 0
M  V30 30406 H 2900.83 -6.96334 -0.095684 0
M  V30 30407 H 2898.46 -7.59875 0.222401 0
M  V30 30408 N 2900.03 0.634971 -1.44242 0
M  V30 30409 C 2901.28 1.39489 -1.48035 0
M  V30 30410 C 2901.63 1.92086 -0.109825 0
M  V30 30411 O 2900.93 1.70486 0.874364 0
M  V30 30412 C 2901.12 2.58042 -2.47284 0
M  V30 30413 C 2900.95 2.1705 -3.93852 0
M  V30 30414 C 2899.72 2.0451 -4.62065 0
M  V30 30415 C 2901.92 1.762 -4.83175 0
M  V30 30416 N 2899.9 1.57041 -5.93474 0
M  V30 30417 C 2901.27 1.39948 -6.03999 0
M  V30 30418 C 2903.33 1.63546 -4.70274 0
M  V30 30419 C 2902.03 0.923071 -7.13353 0
M  V30 30420 C 2904.05 1.1731 -5.79648 0
M  V30 30421 C 2903.42 0.820058 -6.9961 0
M  V30 30422 H 2899.52 0.505382 -0.596752 0
M  V30 30423 H 2902.1 0.728838 -1.80544 0
M  V30 30424 H 2900.27 3.2228 -2.16772 0
M  V30 30425 H 2902 3.24823 -2.41397 0
M  V30 30426 H 2898.76 2.24843 -4.16824 0
M  V30 30427 H 2899.18 1.35616 -6.63278 0
M  V30 30428 H 2903.82 1.89474 -3.77968 0
M  V30 30429 H 2901.54 0.6513 -8.05471 0
M  V30 30430 H 2905.13 1.07983 -5.71691 0
M  V30 30431 H 2904.01 0.467763 -7.82804 0
M  V30 30432 N 2901.51 1.31076 0.875027 0
M  V30 30433 C 2902.74 1.23553 1.66581 0
M  V30 30434 C 2903.16 -0.196827 1.87067 0
M  V30 30435 O 2902.52 -1.14117 1.40879 0
M  V30 30436 C 2902.57 1.9797 3.01397 0
M  V30 30437 O 2901.67 1.31358 3.9092 0
M  V30 30438 H 2901.01 0.42683 0.508638 0
M  V30 30439 H 2903.54 1.73062 1.09136 0
M  V30 30440 H 2903.55 2.07372 3.5137 0
M  V30 30441 H 2902.23 3.02138 2.85806 0
M  V30 30442 H 2900.8 1.30374 3.49366 0
M  V30 30443 N 2902.99 -1.08867 1.13955 0
M  V30 30444 C 2903.94 -2.1566 0.822168 0
M  V30 30445 C 2904.91 -1.6466 -0.218245 0
M  V30 30446 O 2906.09 -1.90591 -0.089214 0
M  V30 30447 C 2903.23 -3.43788 0.300632 0
M  V30 30448 C 2902.34 -4.08659 1.40079 0
M  V30 30449 C 2901.48 -5.24565 0.836989 0
M  V30 30450 C 2900.52 -5.81368 1.91515 0
M  V30 30451 N 2899.65 -6.88626 1.36887 0
M  V30 30452 H 2904.49 -2.4215 1.73688 0
M  V30 30453 H 2902.03 -1.18841 0.866899 0
M  V30 30454 H 2903.99 -4.17195 -0.0199209 0
M  V30 30455 H 2902.62 -3.17598 -0.577193 0
M  V30 30456 H 2901.67 -3.33059 1.83782 0
M  V30 30457 H 2902.98 -4.46901 2.21542 0
M  V30 30458 H 2902.14 -6.04892 0.468059 0
M  V30 30459 H 2900.88 -4.87699 -0.00865635 0
M  V30 30460 H 2899.88 -4.99698 2.29308 0
M  V30 30461 H 2901.11 -6.20293 2.7643 0
M  V30 30462 H 2899.05 -6.53729 0.545326 0
M  V30 30463 H 2898.97 -7.25669 2.11993 0
M  V30 30464 H 2900.24 -7.72696 1.02769 0
M  V30 30465 N 2904.47 -0.933936 -1.26946 0
M  V30 30466 C 2905.72 -0.573443 -1.93377 0
M  V30 30467 C 2906.03 0.890583 -1.74149 0
M  V30 30468 O 2907.23 1.36013 -2.34974 0
M  V30 30469 C 2905.69 -0.974808 -3.46447 0
M  V30 30470 C 2905.3 -2.45995 -3.7442 0
M  V30 30471 C 2907.04 -0.685865 -4.18923 0
M  V30 30472 C 2904.95 -2.80039 -5.20896 0
M  V30 30473 H 2903.88 -0.210749 -0.723948 0
M  V30 30474 H 2906.53 -1.13559 -1.44141 0
M  V30 30475 H 2904.91 -0.341251 -3.94527 0
M  V30 30476 H 2906.09 -3.14194 -3.37074 0
M  V30 30477 H 2904.4 -2.72143 -3.15162 0
M  V30 30478 H 2907 -0.916638 -5.26784 0
M  V30 30479 H 2907.34 0.377144 -4.14588 0
M  V30 30480 H 2907.87 -1.27881 -3.76685 0
M  V30 30481 H 2904.61 -3.85274 -5.30325 0
M  V30 30482 H 2904.13 -2.16495 -5.59366 0
M  V30 30483 H 2905.81 -2.68116 -5.88832 0
M  V30 30484 N 2905.94 1.41194 -0.700139 0
M  V30 30485 C 2907.36 1.84154 -0.307281 0
M  V30 30486 C 2907.71 1.58574 1.15537 0
M  V30 30487 O 2906.83 1.05856 1.88742 0
M  V30 30488 C 2907.43 3.34291 -0.550931 0
M  V30 30489 C 2905.99 3.75803 -0.211943 0
M  V30 30490 C 2905.13 2.64557 -0.830961 0
M  V30 30491 H 2908.08 1.30681 -0.900454 0
M  V30 30492 H 2908.1 3.80031 0.188887 0
M  V30 30493 H 2907.62 3.52877 -1.61554 0
M  V30 30494 H 2905.72 3.62817 0.848219 0
M  V30 30495 H 2905.83 4.7439 -0.670153 0
M  V30 30496 H 2904.19 2.53367 -0.260199 0
M  V30 30497 H 2904.98 2.8596 -1.89953 0
M  V30 30498 N 2907.42 0.445212 1.51181 0
M  V30 30499 C 2908.67 -0.118785 2.02452 0
M  V30 30500 C 2909 -1.41671 1.32827 0
M  V30 30501 O 2908.28 -1.89325 0.44567 0
M  V30 30502 C 2908.56 -0.329412 3.5859 0
M  V30 30503 C 2908.41 0.987715 4.38821 0
M  V30 30504 C 2909.73 -1.09567 4.26243 0
M  V30 30505 H 2906.85 -0.0416963 0.73582 0
M  V30 30506 H 2909.49 0.585749 1.80746 0
M  V30 30507 H 2907.64 -0.929534 3.77216 0
M  V30 30508 H 2909.31 1.62242 4.31828 0
M  V30 30509 H 2907.56 1.59048 4.03592 0
M  V30 30510 H 2908.23 0.794288 5.46255 0
M  V30 30511 H 2910.7 -0.587255 4.11935 0
M  V30 30512 H 2909.58 -1.21182 5.35356 0
M  V30 30513 H 2909.84 -2.12577 3.87638 0
M  V30 30514 N 2908.9 -1.56605 0.176849 0
M  V30 30515 C 2909.83 -2.21235 -0.746802 0
M  V30 30516 C 2910.81 -1.16969 -1.235 0
M  V30 30517 O 2912 -1.45417 -1.28715 0
M  V30 30518 C 2909.13 -2.85744 -1.97402 0
M  V30 30519 C 2908.08 -3.96097 -1.62146 0
M  V30 30520 C 2907.41 -4.47681 -2.92379 0
M  V30 30521 C 2908.71 -5.15415 -0.845263 0
M  V30 30522 H 2910.4 -2.98676 -0.208064 0
M  V30 30523 H 2907.95 -1.43662 -0.0986342 0
M  V30 30524 H 2909.9 -3.29634 -2.62525 0
M  V30 30525 H 2908.62 -2.0568 -2.53699 0
M  V30 30526 H 2907.28 -3.5287 -0.993902 0
M  V30 30527 H 2906.93 -3.64402 -3.46728 0
M  V30 30528 H 2906.63 -5.22131 -2.69542 0
M  V30 30529 H 2908.15 -4.94262 -3.58522 0
M  V30 30530 H 2909.57 -5.55964 -1.39919 0
M  V30 30531 H 2907.97 -5.95817 -0.71571 0
M  V30 30532 H 2909.04 -4.84645 0.157324 0
M  V30 30533 N 2910.38 0.0968524 -1.57302 0
M  V30 30534 C 2911.31 1.14869 -1.97181 0
M  V30 30535 C 2912.29 1.38934 -0.844759 0
M  V30 30536 O 2913.47 1.52723 -1.1049 0
M  V30 30537 C 2910.6 2.49822 -2.28707 0
M  V30 30538 C 2909.65 2.42048 -3.51162 0
M  V30 30539 S 2910.48 1.8387 -5.02943 0
M  V30 30540 C 2911.64 3.20451 -5.37645 0
M  V30 30541 H 2911.87 0.80872 -2.86089 0
M  V30 30542 H 2909.4 0.304465 -1.51368 0
M  V30 30543 H 2911.36 3.27461 -2.47547 0
M  V30 30544 H 2910.02 2.80988 -1.40373 0
M  V30 30545 H 2909.21 3.4151 -3.70657 0
M  V30 30546 H 2908.82 1.72537 -3.31824 0
M  V30 30547 H 2911.11 4.1672 -5.34182 0
M  V30 30548 H 2912.05 3.05761 -6.38683 0
M  V30 30549 H 2912.46 3.19901 -4.65106 0
M  V30 30550 N 2911.86 1.53252 0.36763 0
M  V30 30551 C 2912.77 1.82502 1.47412 0
M  V30 30552 C 2913.78 0.71325 1.5871 0
M  V30 30553 O 2914.96 1.00309 1.74643 0
M  V30 30554 C 2912.02 2.00699 2.82703 0
M  V30 30555 C 2911.08 3.24601 2.8095 0
M  V30 30556 C 2910.32 3.41921 4.09787 0
M  V30 30557 O 2910.54 2.63581 5.05847 0
M  V30 30558 O 2909.47 4.35267 4.15724 0
M  V30 30559 H 2913.3 2.76502 1.25619 0
M  V30 30560 H 2910.89 1.38607 0.557535 0
M  V30 30561 H 2912.77 2.14252 3.62869 0
M  V30 30562 H 2911.44 1.09888 3.04477 0
M  V30 30563 H 2910.35 3.16473 1.99489 0
M  V30 30564 H 2911.68 4.15327 2.64129 0
M  V30 30565 N 2913.34 -0.627313 1.44577 0
M  V30 30566 C 2914.25 -1.76773 1.54235 0
M  V30 30567 C 2915.26 -1.68659 0.427811 0
M  V30 30568 O 2916.44 -1.89368 0.685705 0
M  V30 30569 C 2913.5 -3.13171 1.48744 0
M  V30 30570 C 2912.56 -3.32888 2.71079 0
M  V30 30571 C 2911.8 -4.62779 2.6584 0
M  V30 30572 O 2912.02 -5.43831 1.72057 0
M  V30 30573 O 2910.95 -4.84781 3.5675 0
M  V30 30574 H 2914.78 -1.71577 2.50589 0
M  V30 30575 H 2912.36 -0.789006 1.26866 0
M  V30 30576 H 2914.25 -3.94474 1.48218 0
M  V30 30577 H 2912.92 -3.18901 0.555348 0
M  V30 30578 H 2911.83 -2.5125 2.77172 0
M  V30 30579 H 2913.16 -3.32023 3.63348 0
M  V30 30580 N 2914.81 -1.31539 -0.868063 0
M  V30 30581 C 2915.76 -1.19349 -1.97546 0
M  V30 30582 C 2916.73 -0.0788214 -1.65913 0
M  V30 30583 O 2917.92 -0.252018 -1.89128 0
M  V30 30584 C 2915.06 -0.90875 -3.3292 0
M  V30 30585 C 2914.17 -2.10693 -3.77137 0
M  V30 30586 C 2913.3 -1.75882 -5.01238 0
M  V30 30587 C 2912.34 -2.92097 -5.37908 0
M  V30 30588 N 2911.48 -2.57468 -6.53188 0
M  V30 30589 H 2916.32 -2.14077 -2.07304 0
M  V30 30590 H 2913.86 -1.06489 -1.01481 0
M  V30 30591 H 2915.81 -0.72421 -4.10866 0
M  V30 30592 H 2914.44 0.00170436 -3.228 0
M  V30 30593 H 2913.5 -2.40218 -2.94956 0
M  V30 30594 H 2914.81 -2.9767 -4.00243 0
M  V30 30595 H 2913.96 -1.53901 -5.86855 0
M  V30 30596 H 2912.7 -0.860995 -4.8004 0
M  V30 30597 H 2911.71 -3.14725 -4.50809 0
M  V30 30598 H 2912.93 -3.82592 -5.61071 0
M  V30 30599 H 2910.88 -1.70211 -6.33533 0
M  V30 30600 H 2910.79 -3.37975 -6.76246 0
M  V30 30601 H 2912.06 -2.38886 -7.41993 0
M  V30 30602 N 2916.29 1.08262 -1.1453 0
M  V30 30603 C 2917.22 2.17228 -0.856394 0
M  V30 30604 C 2918.2 1.69044 0.189221 0
M  V30 30605 O 2919.39 1.94147 0.0455778 0
M  V30 30606 C 2916.52 3.45683 -0.334723 0
M  V30 30607 C 2915.47 4.07267 -1.31595 0
M  V30 30608 C 2914.8 5.30691 -0.653521 0
M  V30 30609 C 2916.1 4.48376 -2.67874 0
M  V30 30610 H 2917.79 2.41654 -1.76759 0
M  V30 30611 H 2915.34 1.16141 -0.851308 0
M  V30 30612 H 2917.29 4.21229 -0.120202 0
M  V30 30613 H 2916.01 3.20816 0.611911 0
M  V30 30614 H 2914.67 3.33755 -1.51667 0
M  V30 30615 H 2914.32 5.02111 0.298966 0
M  V30 30616 H 2914.02 5.72851 -1.30827 0
M  V30 30617 H 2915.55 6.0895 -0.44856 0
M  V30 30618 H 2916.96 5.15092 -2.51701 0
M  V30 30619 H 2915.36 5.01458 -3.29636 0
M  V30 30620 H 2916.43 3.60192 -3.24638 0
M  V30 30621 N 2917.77 0.940655 1.26449 0
M  V30 30622 C 2919.02 0.587943 1.93777 0
M  V30 30623 C 2919.34 -0.872904 1.73812 0
M  V30 30624 O 2918.6 -1.63976 1.06819 0
M  V30 30625 C 2918.9 0.875855 3.46502 0
M  V30 30626 C 2918.56 2.3205 3.86605 0
M  V30 30627 C 2917.23 2.71541 3.97264 0
M  V30 30628 C 2919.58 3.25934 4.06714 0
M  V30 30629 C 2916.91 4.04014 4.25429 0
M  V30 30630 C 2919.26 4.58003 4.36367 0
M  V30 30631 C 2917.92 4.9731 4.45241 0
M  V30 30632 H 2917.19 0.215144 0.70908 0
M  V30 30633 H 2919.84 1.18706 1.5027 0
M  V30 30634 H 2918.14 0.194193 3.91318 0
M  V30 30635 H 2919.84 0.581734 3.96758 0
M  V30 30636 H 2916.43 2.00418 3.78855 0
M  V30 30637 H 2920.62 2.96621 3.97907 0
M  V30 30638 H 2915.87 4.34131 4.30511 0
M  V30 30639 H 2920.05 5.30742 4.50872 0
M  V30 30640 H 2917.67 5.99987 4.66819 0
M  V30 30641 N 2919.25 -1.40821 0.707617 0
M  V30 30642 C 2920.21 -2.29125 0.0587627 0
M  V30 30643 C 2921.21 -1.44976 -0.695598 0
M  V30 30644 O 2922.4 -1.65983 -0.528689 0
M  V30 30645 C 2919.53 -3.28057 -0.926881 0
M  V30 30646 H 2920.73 -2.88001 0.8364 0
M  V30 30647 H 2918.28 -1.49009 0.471804 0
M  V30 30648 H 2919.01 -2.74185 -1.73186 0
M  V30 30649 H 2918.8 -3.90166 -0.388946 0
M  V30 30650 H 2920.29 -3.94199 -1.3783 0
M  V30 30651 N 2920.73 -0.453223 -1.50943 0
M  V30 30652 C 2921.97 0.107887 -2.02212 0
M  V30 30653 C 2922.3 1.41316 -1.33641 0
M  V30 30654 O 2921.56 1.90569 -0.445187 0
M  V30 30655 C 2921.85 0.357881 -3.55604 0
M  V30 30656 C 2921.52 -0.863505 -4.42554 0
M  V30 30657 C 2920.18 -1.19842 -4.66038 0
M  V30 30658 C 2922.53 -1.67755 -4.93465 0
M  V30 30659 C 2919.86 -2.34777 -5.37677 0
M  V30 30660 C 2922.21 -2.81803 -5.66365 0
M  V30 30661 C 2920.88 -3.1573 -5.88108 0
M  V30 30662 H 2920.15 0.0394786 -0.739948 0
M  V30 30663 H 2922.8 -0.603662 -1.81737 0
M  V30 30664 H 2921.1 1.15149 -3.74497 0
M  V30 30665 H 2922.8 0.805712 -3.92822 0
M  V30 30666 H 2919.39 -0.592553 -4.24484 0
M  V30 30667 H 2923.57 -1.432 -4.75192 0
M  V30 30668 H 2918.83 -2.61358 -5.52722 0
M  V30 30669 H 2923 -3.4524 -6.048 0
M  V30 30670 H 2920.63 -4.049 -6.43397 0
M  V30 30671 N 2922.2 1.56509 -0.185151 0
M  V30 30672 C 2923.48 1.89013 0.503315 0
M  V30 30673 C 2923.86 1.09718 1.80348 0
M  V30 30674 O 2923.21 0.195243 2.27664 0
M  V30 30675 C 2923.42 3.41242 0.731779 0
M  V30 30676 C 2924.77 4.11269 1.0556 0
M  V30 30677 O 2925.79 3.46637 0.819845 0
M  V30 30678 O 2924.65 5.25481 1.50107 0
M  V30 30679 H 2921.74 0.784693 0.261125 0
M  V30 30680 H 2924.29 1.68207 -0.224622 0
M  V30 30681 H 2923.06 3.90854 -0.186789 0
M  V30 30682 H 2922.68 3.67707 1.51254 0
M  V30 30683 N 2923.68 -0.0885089 1.57351 0
M  V30 30684 C 2924.91 -0.802997 1.90356 0
M  V30 30685 C 2925.32 -1.72477 0.777708 0
M  V30 30686 O 2924.66 -1.81867 -0.258876 0
M  V30 30687 C 2924.72 -1.66389 3.18677 0
M  V30 30688 C 2924.39 -0.913248 4.47782 0
M  V30 30689 C 2925.39 -0.240057 5.19345 0
M  V30 30690 C 2923.07 -0.885376 4.94435 0
M  V30 30691 C 2925.06 0.450966 6.35803 0
M  V30 30692 C 2922.75 -0.190571 6.10803 0
M  V30 30693 C 2923.75 0.476415 6.81336 0
M  V30 30694 O 2923.44 1.16006 7.95486 0
M  V30 30695 H 2923.17 -0.234458 0.634039 0
M  V30 30696 H 2925.72 -0.0681598 2.05287 0
M  V30 30697 H 2923.95 -2.44112 2.9991 0
M  V30 30698 H 2925.64 -2.25554 3.37462 0
M  V30 30699 H 2926.41 -0.253007 4.8434 0
M  V30 30700 H 2922.29 -1.39398 4.39419 0
M  V30 30701 H 2925.83 0.97214 6.90793 0
M  V30 30702 H 2921.73 -0.17549 6.45261 0
M  V30 30703 H 2922.5 1.06763 8.11507 0
M  V30 30704 N 2925.16 -1.53445 -0.359498 0
M  V30 30705 C 2926.39 -1.73839 -1.12195 0
M  V30 30706 C 2926.8 -0.470139 -1.82853 0
M  V30 30707 O 2926.16 0.557318 -1.73782 0
M  V30 30708 C 2926.21 -2.9079 -2.14763 0
M  V30 30709 O 2925.93 -4.12708 -1.46982 0
M  V30 30710 C 2927.43 -3.23106 -3.03509 0
M  V30 30711 H 2924.65 -0.581259 -0.33523 0
M  V30 30712 H 2927.2 -2.00212 -0.416563 0
M  V30 30713 H 2925.35 -2.66793 -2.80891 0
M  V30 30714 H 2925.77 -4.78243 -2.1537 0
M  V30 30715 H 2927.24 -4.08329 -3.71446 0
M  V30 30716 H 2927.72 -2.38728 -3.68654 0
M  V30 30717 H 2928.32 -3.4905 -2.4299 0
M  V30 30718 N 2926.64 0.619637 -1.44908 0
M  V30 30719 C 2927.89 1.37623 -1.48001 0
M  V30 30720 C 2928.21 1.94641 -0.118329 0
M  V30 30721 O 2927.48 1.76459 0.850829 0
M  V30 30722 H 2926.06 0.510864 -0.545002 0
M  V30 30723 H 2928.72 0.728491 -1.80773 0
M  V30 30724 H 2927.81 2.20175 -2.212 0
M  V30 30725 N 2928.12 1.31997 0.861075 0
M  V30 30726 C 2929.35 1.24995 1.64499 0
M  V30 30727 C 2929.75 -0.185542 1.88288 0
M  V30 30728 O 2929.1 -1.13097 1.44758 0
M  V30 30729 C 2929.16 1.93324 3.03094 0
M  V30 30730 C 2928.82 3.42663 3.02375 0
M  V30 30731 C 2929.82 4.38259 2.79688 0
M  V30 30732 C 2927.51 3.84497 3.23214 0
M  V30 30733 C 2929.5 5.73662 2.77833 0
M  V30 30734 C 2927.19 5.2001 3.20987 0
M  V30 30735 C 2928.18 6.14404 2.98324 0
M  V30 30736 O 2927.87 7.47438 2.95958 0
M  V30 30737 H 2927.6 0.432784 0.519302 0
M  V30 30738 H 2930.16 1.74567 1.08238 0
M  V30 30739 H 2928.39 1.38312 3.61119 0
M  V30 30740 H 2930.08 1.80117 3.63748 0
M  V30 30741 H 2930.84 4.07266 2.63361 0
M  V30 30742 H 2926.72 3.11451 3.39882 0
M  V30 30743 H 2930.27 6.47312 2.60063 0
M  V30 30744 H 2926.16 5.50635 3.36856 0
M  V30 30745 H 2926.93 7.5672 3.11957 0
M  V30 30746 N 2929.59 -1.07653 1.15103 0
M  V30 30747 C 2930.87 -1.769 0.834609 0
M  V30 30748 C 2931.25 -2.00172 -0.670396 0
M  V30 30749 O 2930.6 -1.61772 -1.61375 0
M  V30 30750 C 2930.81 -3.07962 1.64197 0
M  V30 30751 C 2932.16 -3.82361 1.84622 0
M  V30 30752 O 2933.18 -3.17765 1.60947 0
M  V30 30753 O 2932.04 -4.9837 2.24253 0
M  V30 30754 H 2929.13 -0.768057 0.306622 0
M  V30 30755 H 2931.68 -1.14046 1.25665 0
M  V30 30756 H 2930.45 -2.86621 2.66391 0
M  V30 30757 H 2930.08 -3.78547 1.21606 0
M  V30 30758 N 2931.07 -0.947348 -1.25949 0
M  V30 30759 C 2932.04 -0.466324 -2.24406 0
M  V30 30760 C 2933.04 0.425978 -1.55055 0
M  V30 30761 O 2934.23 0.224289 -1.7275 0
M  V30 30762 C 2931.36 0.327142 -3.39327 0
M  V30 30763 H 2932.55 -1.33647 -2.68474 0
M  V30 30764 H 2930.1 -0.729911 -1.3821 0
M  V30 30765 H 2930.84 1.21527 -3.00669 0
M  V30 30766 H 2930.62 -0.312907 -3.90849 0
M  V30 30767 H 2932.11 0.653404 -4.12457 0
M  V30 30768 N 2932.55 1.40444 -0.715075 0
M  V30 30769 C 2933.78 2.05731 -0.262576 0
M  V30 30770 C 2934.2 1.5352 1.08688 0
M  V30 30771 O 2933.56 0.670358 1.68451 0
M  V30 30772 C 2933.61 3.59718 -0.252013 0
M  V30 30773 O 2932.71 4.05206 0.766927 0
M  V30 30774 H 2932.05 0.652431 -0.123409 0
M  V30 30775 H 2934.58 1.79852 -0.975413 0
M  V30 30776 H 2934.59 4.07902 -0.0895254 0
M  V30 30777 H 2933.27 3.97085 -1.23679 0
M  V30 30778 H 2931.84 3.68484 0.572204 0
M  V30 30779 N 2934.03 0.461222 1.507 0
M  V30 30780 C 2934.96 -0.328144 2.31183 0
M  V30 30781 C 2935.94 -0.999384 1.37646 0
M  V30 30782 O 2937.12 -0.998451 1.66567 0
M  V30 30783 C 2934.25 -1.41615 3.17116 0
M  V30 30784 C 2933.21 -0.867074 4.19125 0
M  V30 30785 C 2932.53 -2.05263 4.93732 0
M  V30 30786 C 2933.83 0.1149 5.22174 0
M  V30 30787 H 2935.53 0.343553 2.97422 0
M  V30 30788 H 2933.07 0.166666 1.43032 0
M  V30 30789 H 2935.03 -1.97578 3.72211 0
M  V30 30790 H 2933.75 -2.11648 2.48742 0
M  V30 30791 H 2932.41 -0.329493 3.65116 0
M  V30 30792 H 2932.06 -2.73971 4.2184 0
M  V30 30793 H 2931.76 -1.69151 5.62727 0
M  V30 30794 H 2933.28 -2.61734 5.51659 0
M  V30 30795 H 2934.7 -0.355215 5.72198 0
M  V30 30796 H 2933.09 0.389794 5.98833 0
M  V30 30797 H 2934.16 1.044 4.73528 0
M  V30 30798 N 2935.51 -1.56408 0.193449 0
M  V30 30799 C 2936.73 -2.02358 -0.454517 0
M  V30 30800 C 2937.16 -1.07271 -1.54514 0
M  V30 30801 O 2936.51 -0.055928 -1.81214 0
M  V30 30802 C 2936.56 -3.46761 -0.989408 0
M  V30 30803 O 2935.67 -3.54787 -2.10238 0
M  V30 30804 H 2935.01 -0.655419 -0.106405 0
M  V30 30805 H 2937.54 -2.02331 0.303842 0
M  V30 30806 H 2937.55 -3.86518 -1.30643 0
M  V30 30807 H 2936.22 -4.15461 -0.19101 0
M  V30 30808 H 2934.8 -3.26903 -1.79413 0
M  V30 30809 N 2936.98 0.0801629 -1.57396 0
M  V30 30810 C 2938.4 0.632971 -1.75643 0
M  V30 30811 C 2938.75 1.78346 -0.817739 0
M  V30 30812 O 2937.87 2.164 0.000195706 0
M  V30 30813 C 2938.47 1.15501 -3.18504 0
M  V30 30814 C 2937.03 1.65375 -3.38124 0
M  V30 30815 C 2936.17 0.569613 -2.71387 0
M  V30 30816 H 2939.12 -0.145977 -1.58027 0
M  V30 30817 H 2939.14 2.02402 -3.22201 0
M  V30 30818 H 2938.66 0.317447 -3.868 0
M  V30 30819 H 2936.76 2.51484 -2.7493 0
M  V30 30820 H 2936.87 1.73646 -4.46524 0
M  V30 30821 H 2935.23 1.01266 -2.33704 0
M  V30 30822 H 2936.02 -0.257621 -3.42332 0
M  V30 30823 N 2938.46 1.53634 0.351355 0
M  V30 30824 C 2939.43 1.80385 1.41399 0
M  V30 30825 C 2940.43 0.67466 1.45962 0
M  V30 30826 O 2941.62 0.94292 1.46474 0
M  V30 30827 C 2938.75 1.93881 2.80398 0
M  V30 30828 H 2939.94 2.75303 1.18946 0
M  V30 30829 H 2937.49 1.44927 0.585304 0
M  V30 30830 H 2938.23 1.01079 3.08145 0
M  V30 30831 H 2938.01 2.76025 2.78483 0
M  V30 30832 H 2939.5 2.16122 3.57325 0
M  V30 30833 N 2939.94 -0.611943 1.45234 0
M  V30 30834 C 2941.19 -1.37116 1.50235 0
M  V30 30835 C 2941.54 -1.91887 0.14037 0
M  V30 30836 O 2940.83 -1.71855 -0.847131 0
M  V30 30837 C 2941.03 -2.54075 2.51358 0
M  V30 30838 C 2940.86 -2.10757 3.97255 0
M  V30 30839 C 2939.63 -1.97133 4.6526 0
M  V30 30840 C 2941.83 -1.6849 4.85917 0
M  V30 30841 N 2939.81 -1.47579 5.95897 0
M  V30 30842 C 2941.18 -1.30321 6.06149 0
M  V30 30843 C 2943.23 -1.56043 4.72816 0
M  V30 30844 C 2941.94 -0.809466 7.14731 0
M  V30 30845 C 2943.96 -1.08073 5.81441 0
M  V30 30846 C 2943.32 -0.708652 7.00826 0
M  V30 30847 H 2939.42 -0.495824 0.604717 0
M  V30 30848 H 2942.01 -0.700023 1.8168 0
M  V30 30849 H 2940.18 -3.18791 2.21872 0
M  V30 30850 H 2941.91 -3.20941 2.46534 0
M  V30 30851 H 2938.67 -2.18183 4.20349 0
M  V30 30852 H 2939.09 -1.25047 6.65351 0
M  V30 30853 H 2943.73 -1.83437 3.80934 0
M  V30 30854 H 2941.45 -0.523074 8.06405 0
M  V30 30855 H 2945.04 -0.988741 5.73337 0
M  V30 30856 H 2943.92 -0.343167 7.83449 0
M  V30 30857 N 2941.42 -1.32452 -0.854063 0
M  V30 30858 C 2942.67 -1.23046 -1.60829 0
M  V30 30859 C 2942.99 0.207566 -1.93389 0
M  V30 30860 O 2942.25 1.16072 -1.57562 0
M  V30 30861 C 2942.55 -2.03592 -2.93743 0
M  V30 30862 C 2942.21 -3.52944 -2.80609 0
M  V30 30863 C 2940.88 -3.93664 -2.76735 0
M  V30 30864 C 2943.23 -4.47915 -2.66499 0
M  V30 30865 C 2940.56 -5.27597 -2.56629 0
M  V30 30866 C 2942.91 -5.81992 -2.47929 0
M  V30 30867 C 2941.57 -6.21913 -2.42447 0
M  V30 30868 H 2940.84 -0.450257 -0.588515 0
M  V30 30869 H 2943.49 -1.63884 -0.99067 0
M  V30 30870 H 2941.79 -1.55484 -3.59627 0
M  V30 30871 H 2943.49 -1.93683 -3.51124 0
M  V30 30872 H 2940.08 -3.20603 -2.8445 0
M  V30 30873 H 2944.26 -4.17375 -2.68537 0
M  V30 30874 H 2939.52 -5.57583 -2.50821 0
M  V30 30875 H 2943.69 -6.55196 -2.35991 0
M  V30 30876 H 2941.32 -7.25634 -2.26627 0
M  V30 30877 N 2942.9 1.07041 -1.15672 0
M  V30 30878 C 2943.81 2.17853 -0.870473 0
M  V30 30879 C 2944.82 1.73313 0.154422 0
M  V30 30880 O 2946 2.0139 -0.0204113 0
M  V30 30881 C 2943.06 3.44749 -0.367279 0
M  V30 30882 C 2942.13 4.03839 -1.45646 0
M  V30 30883 C 2941.36 5.24678 -0.977184 0
M  V30 30884 O 2941.58 5.70128 0.176027 0
M  V30 30885 O 2940.52 5.75524 -1.76225 0
M  V30 30886 H 2944.34 2.44836 -1.79692 0
M  V30 30887 H 2941.93 1.16438 -0.936085 0
M  V30 30888 H 2943.81 4.21297 -0.0932687 0
M  V30 30889 H 2942.48 3.19311 0.531254 0
M  V30 30890 H 2941.39 3.28816 -1.78412 0
M  V30 30891 H 2942.72 4.33556 -2.33002 0
M  V30 30892 N 2944.38 0.954014 1.25445 0
M  V30 30893 C 2945.34 0.478219 2.24156 0
M  V30 30894 C 2946.34 -0.417749 1.55279 0
M  V30 30895 O 2947.53 -0.215124 1.72867 0
M  V30 30896 C 2944.66 -0.309142 3.39495 0
M  V30 30897 H 2945.85 1.35069 2.67762 0
M  V30 30898 H 2943.41 0.737231 1.37821 0
M  V30 30899 H 2944.14 -1.19931 3.01309 0
M  V30 30900 H 2943.93 0.333631 3.90678 0
M  V30 30901 H 2945.42 -0.631521 4.12797 0
M  V30 30902 N 2945.85 -1.40063 0.722513 0
M  V30 30903 C 2946.78 -2.33329 0.0892862 0
M  V30 30904 C 2947.76 -1.53258 -0.737965 0
M  V30 30905 O 2948.95 -1.817 -0.685484 0
M  V30 30906 C 2946.08 -3.37283 -0.828079 0
M  V30 30907 C 2945.03 -4.27869 -0.10593 0
M  V30 30908 C 2944.36 -5.22417 -1.13948 0
M  V30 30909 C 2945.66 -5.11759 1.04404 0
M  V30 30910 H 2947.35 -2.86532 0.868319 0
M  V30 30911 H 2944.9 -1.37769 0.419006 0
M  V30 30912 H 2946.85 -4.01473 -1.28051 0
M  V30 30913 H 2945.58 -2.82492 -1.63909 0
M  V30 30914 H 2944.24 -3.65141 0.326747 0
M  V30 30915 H 2943.88 -4.63927 -1.94372 0
M  V30 30916 H 2943.58 -5.83869 -0.661131 0
M  V30 30917 H 2945.11 -5.89485 -1.59187 0
M  V30 30918 H 2946.52 -5.69364 0.670641 0
M  V30 30919 H 2944.92 -5.82289 1.4512 0
M  V30 30920 H 2945.99 -4.47328 1.87152 0
M  V30 30921 N 2947.33 -0.469207 -1.50453 0
M  V30 30922 C 2948.28 0.325941 -2.28487 0
M  V30 30923 C 2949.25 0.98887 -1.33456 0
M  V30 30924 O 2950.43 1.00167 -1.62392 0
M  V30 30925 C 2947.57 1.40307 -3.1529 0
M  V30 30926 C 2946.69 0.755108 -4.25349 0
M  V30 30927 C 2945.82 1.80997 -4.99413 0
M  V30 30928 C 2944.86 1.14215 -6.0135 0
M  V30 30929 N 2944 2.13978 -6.68698 0
M  V30 30930 H 2948.84 -0.345805 -2.95987 0
M  V30 30931 H 2946.37 -0.18238 -1.45965 0
M  V30 30932 H 2948.33 2.03921 -3.63967 0
M  V30 30933 H 2946.96 2.04401 -2.4984 0
M  V30 30934 H 2946.01 0.00645215 -3.80399 0
M  V30 30935 H 2947.33 0.227853 -4.98279 0
M  V30 30936 H 2946.48 2.52196 -5.51799 0
M  V30 30937 H 2945.22 2.37103 -4.26185 0
M  V30 30938 H 2944.22 0.41578 -5.48226 0
M  V30 30939 H 2945.45 0.588016 -6.76549 0
M  V30 30940 H 2943.4 2.69105 -5.98263 0
M  V30 30941 H 2943.31 1.66233 -7.37498 0
M  V30 30942 H 2944.58 2.84563 -7.25702 0
M  V30 30943 N 2948.81 1.56303 -0.201741 0
M  V30 30944 C 2949.74 2.15316 0.755938 0
M  V30 30945 C 2950.72 1.09177 1.20495 0
M  V30 30946 O 2951.9 1.37326 1.29127 0
M  V30 30947 C 2949.03 2.71743 2.02172 0
M  V30 30948 C 2948.08 3.90531 1.71429 0
M  V30 30949 S 2948.91 5.28606 0.856531 0
M  V30 30950 C 2950.07 5.88458 2.13231 0
M  V30 30951 H 2950.3 2.9621 0.254296 0
M  V30 30952 H 2947.83 1.54394 0.0133397 0
M  V30 30953 H 2949.79 3.04896 2.74862 0
M  V30 30954 H 2948.45 1.90877 2.49449 0
M  V30 30955 H 2947.64 4.28445 2.65425 0
M  V30 30956 H 2947.25 3.58422 1.06817 0
M  V30 30957 H 2949.54 6.03225 3.08424 0
M  V30 30958 H 2950.48 6.84909 1.79738 0
M  V30 30959 H 2950.89 5.17119 2.26381 0
M  V30 30960 N 2950.29 -0.0718147 1.57436 0
M  V30 30961 C 2951.53 -0.772116 1.87527 0
M  V30 30962 C 2951.87 -1.77226 0.794021 0
M  V30 30963 O 2951.14 -1.93513 -0.195699 0
M  V30 30964 C 2951.42 -1.48012 3.28275 0
M  V30 30965 C 2951.28 -0.496391 4.47053 0
M  V30 30966 C 2952.6 -2.42503 3.67261 0
M  V30 30967 H 2949.72 -0.279233 0.682054 0
M  V30 30968 H 2952.36 -0.0353066 1.89967 0
M  V30 30969 H 2950.51 -2.10818 3.26325 0
M  V30 30970 H 2952.18 0.126456 4.61127 0
M  V30 30971 H 2950.42 0.188282 4.33391 0
M  V30 30972 H 2951.09 -1.0294 5.42317 0
M  V30 30973 H 2953.57 -1.89774 3.70304 0
M  V30 30974 H 2952.45 -2.89045 4.66631 0
M  V30 30975 H 2952.71 -3.27307 2.97192 0
M  V30 30976 N 2951.77 -1.53818 -0.343203 0
M  V30 30977 C 2952.7 -1.84817 -1.42706 0
M  V30 30978 C 2953.68 -0.703324 -1.54879 0
M  V30 30979 O 2954.86 -0.955267 -1.69081 0
M  V30 30980 C 2951.99 -2.05806 -2.79752 0
M  V30 30981 C 2950.95 -3.21624 -2.82386 0
M  V30 30982 C 2950.27 -3.27947 -4.22321 0
M  V30 30983 C 2951.57 -4.59725 -2.47892 0
M  V30 30984 H 2953.27 -2.75587 -1.17013 0
M  V30 30985 H 2950.81 -1.32603 -0.561462 0
M  V30 30986 H 2952.76 -2.26076 -3.55623 0
M  V30 30987 H 2951.49 -1.11766 -3.06881 0
M  V30 30988 H 2950.15 -3.0121 -2.08968 0
M  V30 30989 H 2949.8 -2.31502 -4.4656 0
M  V30 30990 H 2949.5 -4.05776 -4.24994 0
M  V30 30991 H 2951.02 -3.50428 -5.00033 0
M  V30 30992 H 2952.43 -4.80006 -3.13475 0
M  V30 30993 H 2950.83 -5.39959 -2.61848 0
M  V30 30994 H 2951.9 -4.6331 -1.43079 0
M  V30 30995 N 2953.24 0.604233 -1.45557 0
M  V30 30996 C 2954.15 1.74297 -1.57028 0
M  V30 30997 C 2955.17 1.67957 -0.454589 0
M  V30 30998 O 2956.35 1.88253 -0.715745 0
M  V30 30999 C 2953.41 3.10765 -1.53707 0
M  V30 31000 C 2952.47 3.28533 -2.76341 0
M  V30 31001 C 2951.7 4.58491 -2.73169 0
M  V30 31002 O 2951.93 5.41025 -1.80687 0
M  V30 31003 O 2950.86 4.79044 -3.64418 0
M  V30 31004 H 2954.69 1.67569 -2.53287 0
M  V30 31005 H 2952.27 0.768722 -1.28105 0
M  V30 31006 H 2954.15 3.92066 -1.54475 0
M  V30 31007 H 2952.83 3.17977 -0.606013 0
M  V30 31008 H 2951.74 2.46808 -2.81134 0
M  V30 31009 H 2953.07 3.262 -3.68584 0
M  V30 31010 N 2954.72 1.32903 0.847027 0
M  V30 31011 C 2955.67 1.22477 1.95622 0
M  V30 31012 C 2956.64 0.105207 1.65766 0
M  V30 31013 O 2957.82 0.282075 1.88703 0
M  V30 31014 C 2954.96 0.9616 3.31432 0
M  V30 31015 C 2954.08 2.16667 3.73737 0
M  V30 31016 C 2953.21 1.83834 4.98376 0
M  V30 31017 C 2952.25 3.00618 5.33193 0
M  V30 31018 N 2951.39 2.67827 6.49009 0
M  V30 31019 H 2956.23 2.17348 2.03872 0
M  V30 31020 H 2953.76 1.0809 0.997745 0
M  V30 31021 H 2955.72 0.789484 4.09662 0
M  V30 31022 H 2954.35 0.0496505 3.22762 0
M  V30 31023 H 2953.4 2.44881 2.91097 0
M  V30 31024 H 2954.72 3.04 3.95456 0
M  V30 31025 H 2953.87 1.63218 5.84333 0
M  V30 31026 H 2952.61 0.937256 4.78609 0
M  V30 31027 H 2951.61 3.21857 4.45745 0
M  V30 31028 H 2952.84 3.9147 5.54913 0
M  V30 31029 H 2950.79 1.80269 6.30745 0
M  V30 31030 H 2950.7 3.4869 6.70784 0
M  V30 31031 H 2951.97 2.5066 7.38099 0
M  V30 31032 N 2956.2 -1.06426 1.16238 0
M  V30 31033 C 2957.45 -1.78586 0.937554 0
M  V30 31034 C 2957.76 -1.88114 -0.535967 0
M  V30 31035 O 2958.97 -2.56889 -0.878651 0
M  V30 31036 C 2957.42 -3.20967 1.62813 0
M  V30 31037 C 2957.03 -3.19609 3.13933 0
M  V30 31038 C 2958.78 -3.9767 1.48522 0
M  V30 31039 C 2956.68 -4.56702 3.75735 0
M  V30 31040 H 2955.61 -0.669337 0.347137 0
M  V30 31041 H 2958.26 -1.19383 1.39356 0
M  V30 31042 H 2956.65 -3.8042 1.09984 0
M  V30 31043 H 2957.82 -2.69747 3.73595 0
M  V30 31044 H 2956.13 -2.56405 3.28094 0
M  V30 31045 H 2958.73 -4.99009 1.92078 0
M  V30 31046 H 2959.07 -4.14032 0.433986 0
M  V30 31047 H 2959.61 -3.44736 1.985 0
M  V30 31048 H 2956.35 -4.45546 4.80801 0
M  V30 31049 H 2955.87 -5.06765 3.20858 0
M  V30 31050 H 2957.55 -5.25661 3.77213 0
M  V30 31051 N 2957.68 -0.960653 -1.24937 0
M  V30 31052 C 2958.93 -0.617475 -1.92436 0
M  V30 31053 C 2959.25 0.84907 -1.75544 0
M  V30 31054 O 2958.52 1.60536 -1.12271 0
M  V30 31055 H 2957.1 -0.225384 -0.712188 0
M  V30 31056 H 2959.76 -1.2202 -1.51978 0
M  V30 31057 H 2958.86 -0.851986 -3.00246 0
M  V30 31058 N 2959.16 1.39677 -0.729931 0
M  V30 31059 C 2960.4 2.00615 -0.275657 0
M  V30 31060 C 2960.73 1.57909 1.13557 0
M  V30 31061 O 2959.99 0.79682 1.78744 0
M  V30 31062 C 2960.29 3.55968 -0.319627 0
M  V30 31063 C 2959.95 4.18307 -1.68316 0
M  V30 31064 C 2958.61 4.35048 -2.05637 0
M  V30 31065 C 2960.97 4.5294 -2.57865 0
M  V30 31066 C 2958.29 4.8371 -3.32026 0
M  V30 31067 C 2960.65 5.03008 -3.83621 0
M  V30 31068 C 2959.31 5.17957 -4.21042 0
M  V30 31069 H 2958.58 0.734102 -0.10087 0
M  V30 31070 H 2961.23 1.67079 -0.93578 0
M  V30 31071 H 2959.53 3.89498 0.424072 0
M  V30 31072 H 2961.23 4.00969 0.04992 0
M  V30 31073 H 2957.82 4.05675 -1.38297 0
M  V30 31074 H 2962 4.3963 -2.30303 0
M  V30 31075 H 2957.26 4.93469 -3.60969 0
M  V30 31076 H 2961.43 5.28781 -4.53171 0
M  V30 31077 H 2959.06 5.55426 -5.19044 0
M  V30 31078 N 2960.63 0.47718 1.50202 0
M  V30 31079 C 2961.88 -0.0755534 2.01959 0
M  V30 31080 C 2962.2 -1.39666 1.36082 0
M  V30 31081 O 2961.47 -1.89194 0.508169 0
M  V30 31082 H 2960.05 -0.0309117 0.74636 0
M  V30 31083 H 2962.72 0.628991 1.84471 0
M  V30 31084 H 2961.81 -0.222628 3.11305 0
M  V30 31085 N 2962.11 -1.56194 0.210027 0
M  V30 31086 C 2963.06 -2.21131 -0.721377 0
M  V30 31087 C 2964.05 -1.18708 -1.2085 0
M  V30 31088 O 2965.26 -1.36817 -1.16966 0
M  V30 31089 H 2961.64 -0.708867 -0.251021 0
M  V30 31090 H 2963.61 -2.98022 -0.150141 0
M  V30 31091 C 2962.36 -2.89625 -1.92387 0
M  V30 31092 H 2961.68 -3.68188 -1.55813 0
M  V30 31093 H 2963.12 -3.38477 -2.55361 0
M  V30 31094 C 2961.58 -1.91466 -2.77204 0
M  V30 31095 O 2962.11 -1.42433 -3.75601 0
M  V30 31096 N 2960.31 -1.59367 -2.43003 0
M  V30 31097 H 2959.86 -1.99435 -1.63044 0
M  V30 31098 H 2959.82 -0.939502 -3.00035 0
M  V30 31099 N 2963.59 0.0634645 -1.57472 0
M  V30 31100 C 2965.01 0.418439 -1.54017 0
M  V30 31101 C 2965.21 1.78681 -0.931407 0
M  V30 31102 O 2964.26 2.46713 -0.537508 0
M  V30 31103 C 2965.58 0.351854 -2.98634 0
M  V30 31104 C 2967.12 0.431439 -3.10012 0
M  V30 31105 C 2967.6 0.394673 -4.56296 0
M  V30 31106 N 2969.09 0.454502 -4.60965 0
M  V30 31107 C 2969.82 0.448401 -5.71644 0
M  V30 31108 N 2969.32 0.39662 -6.91664 0
M  V30 31109 N 2971.11 0.495579 -5.59911 0
M  V30 31110 H 2963.26 -0.832442 -1.95408 0
M  V30 31111 H 2965.53 -0.313212 -0.894764 0
M  V30 31112 H 2965.23 -0.587109 -3.46765 0
M  V30 31113 H 2965.11 1.15887 -3.58957 0
M  V30 31114 H 2967.49 1.36083 -2.6185 0
M  V30 31115 H 2967.58 -0.404303 -2.52585 0
M  V30 31116 H 2967.22 -0.5309 -5.05118 0
M  V30 31117 H 2967.15 1.24806 -5.11597 0
M  V30 31118 H 2969.64 0.49843 -3.74599 0
M  V30 31119 H 2969.95 0.39612 -7.71784 0
M  V30 31120 H 2968.3 0.363182 -6.9405 0
M  V30 31121 H 2971.49 0.533782 -4.65047 0
M  V30 31122 H 2971.66 0.487355 -6.46165 0
M  V30 31123 N 2965.07 1.53998 0.33504 0
M  V30 31124 C 2966.31 1.71907 1.07591 0
M  V30 31125 C 2966.65 0.485297 1.88039 0
M  V30 31126 O 2965.92 -0.51772 1.87483 0
M  V30 31127 C 2966.21 2.98775 2.01011 0
M  V30 31128 C 2966.06 4.32379 1.23969 0
M  V30 31129 C 2967.38 3.21348 3.00705 0
M  V30 31130 H 2964.5 0.625511 0.389749 0
M  V30 31131 H 2967.14 1.8668 0.353651 0
M  V30 31132 H 2965.29 2.86312 2.62598 0
M  V30 31133 H 2966.96 4.56708 0.649303 0
M  V30 31134 H 2965.2 4.30403 0.541803 0
M  V30 31135 H 2965.87 5.17346 1.92503 0
M  V30 31136 H 2968.35 3.33199 2.49235 0
M  V30 31137 H 2967.23 4.11497 3.63265 0
M  V30 31138 H 2967.49 2.3804 3.72545 0
M  V30 31139 N 2966.55 -0.596505 1.45875 0
M  V30 31140 C 2967.82 -1.35625 1.40944 0
M  V30 31141 C 2968.2 -2.10926 0.0857437 0
M  V30 31142 O 2967.55 -2.08606 -0.932507 0
M  V30 31143 C 2967.76 -2.29381 2.63031 0
M  V30 31144 C 2969.11 -2.91643 3.08593 0
M  V30 31145 O 2970.13 -2.39699 2.63482 0
M  V30 31146 O 2968.99 -3.85958 3.86909 0
M  V30 31147 H 2966.09 -0.608686 0.559849 0
M  V30 31148 H 2968.63 -0.61867 1.58021 0
M  V30 31149 H 2967.4 -1.73074 3.50943 0
M  V30 31150 H 2967.03 -3.10501 2.48344 0
M  V30 31151 N 2968.02 -1.3335 -0.839967 0
M  V30 31152 C 2969.25 -1.27596 -1.6249 0
M  V30 31153 C 2969.66 0.155564 -1.88559 0
M  V30 31154 O 2969.01 1.1078 -1.46539 0
M  V30 31155 C 2969.07 -1.98121 -2.9998 0
M  V30 31156 C 2968.73 -3.4743 -2.96886 0
M  V30 31157 C 2969.73 -4.42653 -2.7268 0
M  V30 31158 C 2967.41 -3.8959 -3.17056 0
M  V30 31159 C 2969.41 -5.78009 -2.68671 0
M  V30 31160 C 2967.09 -5.25051 -3.12673 0
M  V30 31161 C 2968.09 -6.19072 -2.88511 0
M  V30 31162 O 2967.78 -7.52052 -2.84029 0
M  V30 31163 H 2967.51 -0.440991 -0.512351 0
M  V30 31164 H 2970.07 -1.76267 -1.05447 0
M  V30 31165 H 2968.3 -1.4404 -3.58872 0
M  V30 31166 H 2969.99 -1.85881 -3.60837 0
M  V30 31167 H 2970.75 -4.11405 -2.56849 0
M  V30 31168 H 2966.63 -3.16818 -3.34884 0
M  V30 31169 H 2970.17 -6.51368 -2.49732 0
M  V30 31170 H 2966.07 -5.55924 -3.28053 0
M  V30 31171 H 2966.84 -7.61587 -2.99879 0
M  V30 31172 N 2969.5 1.05808 -1.16801 0
M  V30 31173 C 2970.75 1.78086 -0.947012 0
M  V30 31174 C 2971.06 1.88395 0.525983 0
M  V30 31175 O 2972.27 2.57351 0.865016 0
M  V30 31176 C 2970.73 3.20099 -1.64513 0
M  V30 31177 C 2970.33 3.1794 -3.15623 0
M  V30 31178 C 2972.08 3.96877 -1.50629 0
M  V30 31179 C 2969.99 4.54703 -3.78152 0
M  V30 31180 H 2968.92 0.667487 -0.350681 0
M  V30 31181 H 2971.57 1.18642 -1.39987 0
M  V30 31182 H 2969.95 3.79832 -1.12 0
M  V30 31183 H 2971.12 2.67762 -3.7502 0
M  V30 31184 H 2969.44 2.54662 -3.29449 0
M  V30 31185 H 2972.03 4.97983 -1.94722 0
M  V30 31186 H 2972.38 4.13796 -0.455937 0
M  V30 31187 H 2972.91 3.43678 -2.00325 0
M  V30 31188 H 2969.65 4.4299 -4.83157 0
M  V30 31189 H 2969.17 5.05056 -3.23541 0
M  V30 31190 H 2970.85 5.23653 -3.79995 0
M  V30 31191 N 2970.98 0.967265 1.24426 0
M  V30 31192 C 2972.26 0.545809 1.8783 0
M  V30 31193 C 2972.64 -0.977066 1.87127 0
M  V30 31194 O 2971.99 -1.84823 1.3436 0
M  V30 31195 C 2972.2 1.13684 3.29965 0
M  V30 31196 C 2973.54 1.22147 4.06651 0
M  V30 31197 O 2974.57 1.08932 3.39134 0
M  V30 31198 O 2973.43 1.43027 5.27452 0
M  V30 31199 H 2970.52 0.181926 0.806741 0
M  V30 31200 H 2973.07 1.06151 1.32401 0
M  V30 31201 H 2971.84 2.17963 3.24973 0
M  V30 31202 H 2971.46 0.605163 3.92968 0
M  V30 31203 N 2972.46 -1.39288 0.737328 0
M  V30 31204 C 2973.69 -2.04466 0.296178 0
M  V30 31205 C 2974.1 -1.55709 -1.07477 0
M  V30 31206 O 2973.44 -0.718153 -1.69081 0
M  V30 31207 C 2973.5 -3.58813 0.222224 0
M  V30 31208 C 2973.17 -4.30556 1.53202 0
M  V30 31209 C 2974.16 -4.57037 2.47817 0
M  V30 31210 C 2971.85 -4.69057 1.79696 0
M  V30 31211 C 2973.84 -5.21032 3.67157 0
M  V30 31212 C 2971.53 -5.3278 2.99313 0
M  V30 31213 C 2972.53 -5.58701 3.92865 0
M  V30 31214 O 2972.22 -6.21101 5.10381 0
M  V30 31215 H 2971.95 -0.663981 0.126908 0
M  V30 31216 H 2974.5 -1.79276 1.00245 0
M  V30 31217 H 2972.73 -3.82909 -0.540172 0
M  V30 31218 H 2974.42 -4.05468 -0.18724 0
M  V30 31219 H 2975.19 -4.27736 2.28619 0
M  V30 31220 H 2971.07 -4.48237 1.07723 0
M  V30 31221 H 2974.61 -5.41181 4.40192 0
M  V30 31222 H 2970.51 -5.61502 3.18411 0
M  V30 31223 H 2971.27 -6.39594 5.10746 0
M  V30 31224 N 2973.94 -0.485139 -1.49947 0
M  V30 31225 C 2974.87 0.291323 -2.31676 0
M  V30 31226 C 2975.85 0.977359 -1.39218 0
M  V30 31227 O 2977.03 0.971825 -1.68134 0
M  V30 31228 C 2974.16 1.36552 -3.19329 0
M  V30 31229 C 2973.12 0.800285 -4.20451 0
M  V30 31230 C 2972.44 1.97382 -4.96935 0
M  V30 31231 C 2973.74 -0.197959 -5.21925 0
M  V30 31232 H 2975.44 -0.390827 -2.96838 0
M  V30 31233 H 2972.98 -0.189401 -1.42749 0
M  V30 31234 H 2974.94 1.91631 -3.75307 0
M  V30 31235 H 2973.66 2.07664 -2.52078 0
M  V30 31236 H 2972.32 0.271364 -3.65594 0
M  V30 31237 H 2971.97 2.67225 -4.26145 0
M  V30 31238 H 2971.67 1.60177 -5.65347 0
M  V30 31239 H 2973.19 2.52925 -5.55753 0
M  V30 31240 H 2974.61 0.264138 -5.72691 0
M  V30 31241 H 2973 -0.485014 -5.98137 0
M  V30 31242 H 2974.07 -1.1192 -4.71807 0
M  V30 31243 N 2975.42 1.56081 -0.218307 0
M  V30 31244 C 2976.36 2.2151 0.70964 0
M  V30 31245 C 2977.36 1.19348 1.20219 0
M  V30 31246 O 2978.56 1.37436 1.16239 0
M  V30 31247 H 2974.94 0.710188 0.247258 0
M  V30 31248 H 2976.91 2.98097 0.134334 0
M  V30 31249 C 2975.66 2.90641 1.90848 0
M  V30 31250 H 2974.98 3.69009 1.53859 0
M  V30 31251 H 2976.42 3.39827 2.53562 0
M  V30 31252 C 2974.88 1.92934 2.76185 0
M  V30 31253 O 2975.41 1.44423 3.7484 0
M  V30 31254 N 2973.62 1.60654 2.42154 0
M  V30 31255 H 2973.16 2.00297 1.61984 0
M  V30 31256 H 2973.12 0.9554 2.99532 0
M  V30 31257 N 2976.89 -0.0551124 1.57504 0
M  V30 31258 C 2977.84 -1.07097 2.01282 0
M  V30 31259 C 2978.83 -1.33535 0.897616 0
M  V30 31260 O 2980.02 -1.33556 1.16154 0
M  V30 31261 C 2977.15 -2.3799 2.47418 0
M  V30 31262 C 2976.23 -2.14754 3.65707 0
M  V30 31263 N 2976.63 -1.61495 4.79325 0
M  V30 31264 C 2974.92 -2.45156 3.72578 0
M  V30 31265 C 2975.62 -1.53462 5.61092 0
M  V30 31266 N 2974.6 -2.00105 5.05429 0
M  V30 31267 H 2978.4 -0.652778 2.86559 0
M  V30 31268 H 2975.92 -0.261902 1.60274 0
M  V30 31269 H 2977.91 -3.11546 2.77028 0
M  V30 31270 H 2976.57 -2.80511 1.63535 0
M  V30 31271 H 2977.58 -1.30125 5.01286 0
M  V30 31272 H 2974.26 -2.90929 2.99444 0
M  V30 31273 H 2975.65 -1.12996 6.6233 0
M  V30 31274 N 2978.37 -1.54173 -0.326869 0
M  V30 31275 C 2979.6 -1.76496 -1.08921 0
M  V30 31276 C 2980.02 -0.510555 -1.81039 0
M  V30 31277 O 2979.38 0.537725 -1.73142 0
M  V30 31278 C 2979.43 -2.95581 -2.06553 0
M  V30 31279 O 2978.53 -2.66896 -3.14389 0
M  V30 31280 H 2977.87 -0.584954 -0.314205 0
M  V30 31281 H 2980.4 -2.01187 -0.372172 0
M  V30 31282 H 2980.41 -3.22836 -2.49481 0
M  V30 31283 H 2979.09 -3.86552 -1.53462 0
M  V30 31284 H 2977.66 -2.5058 -2.76159 0
M  V30 31285 N 2979.85 0.58876 -1.4619 0
M  V30 31286 C 2980.8 1.69301 -1.52713 0
M  V30 31287 C 2981.78 1.56137 -0.388606 0
M  V30 31288 O 2982.98 1.65154 -0.636645 0
M  V30 31289 C 2980.1 3.08081 -1.51463 0
M  V30 31290 C 2979.19 3.26563 -2.70587 0
M  V30 31291 N 2979.58 3.15229 -3.95556 0
M  V30 31292 C 2977.88 3.57486 -2.66682 0
M  V30 31293 C 2978.58 3.35552 -4.75163 0
M  V30 31294 N 2977.56 3.60425 -4.06933 0
M  V30 31295 H 2981.36 1.59059 -2.47139 0
M  V30 31296 H 2978.87 0.792608 -1.41744 0
M  V30 31297 H 2980.87 3.87325 -1.54223 0
M  V30 31298 H 2979.53 3.19458 -0.581092 0
M  V30 31299 H 2980.54 2.93225 -4.26895 0
M  V30 31300 H 2977.22 3.75585 -1.82324 0
M  V30 31301 H 2978.61 3.32024 -5.84132 0
M  V30 31302 N 2981.33 1.33794 0.832883 0
M  V30 31303 C 2982.28 1.21108 1.93176 0
M  V30 31304 C 2983.26 0.112519 1.60506 0
M  V30 31305 O 2984.45 0.34121 1.7368 0
M  V30 31306 C 2981.58 0.958584 3.29645 0
M  V30 31307 C 2980.67 2.09986 3.68465 0
M  V30 31308 N 2981.06 3.35031 3.7893 0
M  V30 31309 C 2979.36 2.00789 3.98246 0
M  V30 31310 C 2980.06 4.09919 4.12724 0
M  V30 31311 N 2979.03 3.38415 4.25413 0
M  V30 31312 H 2982.84 2.15881 1.9943 0
M  V30 31313 H 2980.35 1.25888 1.02596 0
M  V30 31314 H 2982.35 0.848624 4.08172 0
M  V30 31315 H 2981.01 0.019444 3.24694 0
M  V30 31316 H 2982.02 3.69706 3.62682 0
M  V30 31317 H 2978.7 1.14571 4.01472 0
M  V30 31318 H 2980.09 5.17854 4.28108 0
M  V30 31319 N 2982.81 -1.05187 1.1736 0
M  V30 31320 C 2983.74 -2.14881 0.913687 0
M  V30 31321 C 2984.72 -1.69487 -0.144335 0
M  V30 31322 O 2985.9 -1.94199 0.00591275 0
M  V30 31323 C 2983.03 -3.44674 0.426257 0
M  V30 31324 C 2981.99 -4.03635 1.42347 0
M  V30 31325 C 2981.31 -5.28772 0.793995 0
M  V30 31326 C 2982.61 -4.41116 2.79667 0
M  V30 31327 H 2984.31 -2.36882 1.83104 0
M  V30 31328 H 2981.85 -1.13843 0.881801 0
M  V30 31329 H 2983.8 -4.20762 0.231841 0
M  V30 31330 H 2982.53 -3.22326 -0.526637 0
M  V30 31331 H 2981.19 -3.29617 1.60463 0
M  V30 31332 H 2980.84 -5.02727 -0.165735 0
M  V30 31333 H 2980.54 -5.69181 1.45969 0
M  V30 31334 H 2982.06 -6.07547 0.609854 0
M  V30 31335 H 2983.47 -5.08237 2.65269 0
M  V30 31336 H 2981.87 -4.92542 3.42815 0
M  V30 31337 H 2982.94 -3.51458 3.34074 0
M  V30 31338 N 2984.28 -0.97385 -1.23911 0
M  V30 31339 C 2985.51 -0.655973 -1.9591 0
M  V30 31340 C 2985.92 0.779937 -1.72376 0
M  V30 31341 O 2985.26 1.53568 -1.0081 0
M  V30 31342 C 2985.33 -0.858385 -3.49102 0
M  V30 31343 C 2984.99 -2.27511 -3.96343 0
M  V30 31344 C 2985.99 -3.25331 -4.05532 0
M  V30 31345 C 2983.67 -2.60445 -4.29504 0
M  V30 31346 C 2985.67 -4.54168 -4.47225 0
M  V30 31347 C 2983.35 -3.89507 -4.7088 0
M  V30 31348 C 2984.35 -4.8618 -4.79706 0
M  V30 31349 O 2984.04 -6.12939 -5.20155 0
M  V30 31350 H 2983.77 -0.243255 -0.630716 0
M  V30 31351 H 2986.33 -1.30602 -1.58531 0
M  V30 31352 H 2984.56 -0.151165 -3.86404 0
M  V30 31353 H 2986.24 -0.538663 -4.0231 0
M  V30 31354 H 2987.01 -3.01217 -3.80123 0
M  V30 31355 H 2982.89 -1.85913 -4.2185 0
M  V30 31356 H 2986.43 -5.29626 -4.54029 0
M  V30 31357 H 2982.33 -4.13419 -4.95737 0
M  V30 31358 H 2983.1 -6.16595 -5.38287 0
M  V30 31359 N 2985.76 1.38895 -0.744705 0
M  V30 31360 C 2986.71 2.30532 -0.111104 0
M  V30 31361 C 2987.68 1.4972 0.719249 0
M  V30 31362 O 2988.86 1.78377 0.677213 0
M  V30 31363 C 2986 3.36103 0.782861 0
M  V30 31364 C 2985.12 4.31957 -0.0611576 0
M  V30 31365 C 2984.25 5.24596 0.834983 0
M  V30 31366 C 2983.29 6.12099 -0.013205 0
M  V30 31367 N 2982.43 6.97064 0.839403 0
M  V30 31368 H 2987.27 2.84143 -0.898163 0
M  V30 31369 H 2984.8 1.39901 -0.454561 0
M  V30 31370 H 2986.76 3.9591 1.31571 0
M  V30 31371 H 2985.39 2.83925 1.5358 0
M  V30 31372 H 2984.44 3.73686 -0.711535 0
M  V30 31373 H 2985.76 4.93626 -0.716569 0
M  V30 31374 H 2984.91 5.89477 1.43532 0
M  V30 31375 H 2983.65 4.63272 1.52415 0
M  V30 31376 H 2982.65 5.46221 -0.626275 0
M  V30 31377 H 2983.88 6.7549 -0.6993 0
M  V30 31378 H 2981.83 6.38297 1.51368 0
M  V30 31379 H 2981.74 7.55617 0.24069 0
M  V30 31380 H 2983.01 7.66364 1.42499 0
M  V30 31381 N 2987.24 0.493084 1.49688 0
M  V30 31382 C 2988.19 -0.303343 2.30614 0
M  V30 31383 C 2989.18 -0.970141 1.38869 0
M  V30 31384 O 2990.39 -0.898733 1.55958 0
M  V30 31385 H 2986.76 -0.116678 0.742893 0
M  V30 31386 H 2988.73 0.399292 2.95716 0
M  V30 31387 C 2987.48 -1.35973 3.20011 0
M  V30 31388 H 2986.81 -0.856034 3.90528 0
M  V30 31389 H 2988.25 -1.88912 3.79589 0
M  V30 31390 C 2986.71 -2.37362 2.39083 0
M  V30 31391 O 2987.24 -3.43085 2.08939 0
M  V30 31392 N 2985.44 -2.09632 2.01253 0
M  V30 31393 H 2984.99 -1.23678 2.25968 0
M  V30 31394 H 2984.95 -2.77699 1.47412 0
M  V30 31395 N 2988.72 -1.55963 0.226582 0
M  V30 31396 C 2989.67 -2.2051 -0.681465 0
M  V30 31397 C 2990.64 -1.16231 -1.18658 0
M  V30 31398 O 2991.82 -1.44605 -1.24475 0
M  V30 31399 C 2988.96 -2.8928 -1.88178 0
M  V30 31400 C 2988.07 -4.08165 -1.4151 0
M  V30 31401 C 2987.21 -4.64705 -2.57338 0
M  V30 31402 C 2986.25 -5.75881 -2.07431 0
M  V30 31403 N 2985.38 -6.2669 -3.1655 0
M  V30 31404 H 2990.22 -2.97741 -0.124319 0
M  V30 31405 H 2987.76 -1.47016 -0.0496074 0
M  V30 31406 H 2989.72 -3.27339 -2.5866 0
M  V30 31407 H 2988.35 -2.14559 -2.41173 0
M  V30 31408 H 2987.4 -3.75558 -0.605033 0
M  V30 31409 H 2988.71 -4.88484 -1.00919 0
M  V30 31410 H 2987.87 -5.05233 -3.35894 0
M  V30 31411 H 2986.61 -3.8356 -3.0122 0
M  V30 31412 H 2985.61 -5.34851 -1.27338 0
M  V30 31413 H 2986.84 -6.58865 -1.64542 0
M  V30 31414 H 2984.78 -5.48457 -3.59904 0
M  V30 31415 H 2984.7 -7.02146 -2.80226 0
M  V30 31416 H 2985.97 -6.71875 -3.95226 0
M  V30 31417 N 2990.2 0.0467589 -1.57531 0
M  V30 31418 C 2991.42 0.753337 -1.92698 0
M  V30 31419 C 2991.84 1.6983 -0.824822 0
M  V30 31420 O 2991.2 1.81399 0.200123 0
M  V30 31421 C 2991.25 1.52561 -3.27731 0
M  V30 31422 O 2990.97 0.618598 -4.33711 0
M  V30 31423 C 2992.47 2.33094 -3.7707 0
M  V30 31424 H 2989.69 0.212776 -0.63637 0
M  V30 31425 H 2992.23 0.00955767 -2.04498 0
M  V30 31426 H 2990.39 2.22143 -3.17382 0
M  V30 31427 H 2990.8 1.1583 -5.1155 0
M  V30 31428 H 2992.28 2.82701 -4.74114 0
M  V30 31429 H 2992.75 3.13736 -3.07354 0
M  V30 31430 H 2993.36 1.68621 -3.90445 0
M  V30 31431 N 2991.67 1.54344 0.318688 0
M  V30 31432 C 2992.9 1.76496 1.07391 0
M  V30 31433 C 2993.31 0.515913 1.8203 0
M  V30 31434 O 2992.66 -0.523219 1.76091 0
M  V30 31435 C 2992.72 2.90778 2.11396 0
M  V30 31436 C 2992.38 4.2951 1.56111 0
M  V30 31437 C 2993.38 5.10185 1.00034 0
M  V30 31438 C 2991.06 4.76066 1.60207 0
M  V30 31439 C 2993.06 6.3553 0.487881 0
M  V30 31440 C 2990.74 6.01378 1.08574 0
M  V30 31441 C 2991.74 6.80944 0.529594 0
M  V30 31442 O 2991.43 8.03897 0.021041 0
M  V30 31443 H 2991.16 0.592721 0.325051 0
M  V30 31444 H 2993.72 2.02059 0.368974 0
M  V30 31445 H 2991.95 2.60798 2.85519 0
M  V30 31446 H 2993.64 3.00668 2.72678 0
M  V30 31447 H 2994.4 4.75369 0.961727 0
M  V30 31448 H 2990.28 4.14176 2.02434 0
M  V30 31449 H 2993.82 6.9758 0.0531382 0
M  V30 31450 H 2989.72 6.35684 1.12144 0
M  V30 31451 H 2990.49 8.18387 0.136007 0
M  V30 31452 N 2993.15 -0.580999 1.465 0
M  V30 31453 C 2994.39 -1.35018 1.53459 0
M  V30 31454 C 2994.76 -1.9113 0.182575 0
M  V30 31455 O 2995.96 -2.685 0.126921 0
M  V30 31456 C 2994.23 -2.44808 2.60392 0
M  V30 31457 S 2995.79 -3.32129 2.86768 0
M  V30 31458 H 2992.61 -0.459972 0.542168 0
M  V30 31459 H 2995.21 -0.667722 1.83744 0
M  V30 31460 H 2993.91 -2.01979 3.57257 0
M  V30 31461 H 2993.44 -3.17823 2.31844 0
M  V30 31462 H 2995.46 -4.43684 2.22168 0
M  V30 31463 N 2994.63 -1.34234 -0.825776 0
M  V30 31464 C 2995.88 -1.26617 -1.58417 0
M  V30 31465 C 2996.21 0.164307 -1.93504 0
M  V30 31466 O 2995.48 1.10897 -1.59787 0
M  V30 31467 C 2995.77 -2.15423 -2.88557 0
M  V30 31468 C 2995.62 -3.66994 -2.60068 0
M  V30 31469 C 2996.94 -2.03733 -3.90104 0
M  V30 31470 H 2994.06 -0.461292 -0.574786 0
M  V30 31471 H 2996.7 -1.64459 -0.95149 0
M  V30 31472 H 2994.85 -1.83281 -3.4255 0
M  V30 31473 H 2996.52 -4.09489 -2.12407 0
M  V30 31474 H 2994.77 -3.88224 -1.93558 0
M  V30 31475 H 2995.44 -4.24494 -3.52858 0
M  V30 31476 H 2997.91 -2.31948 -3.45455 0
M  V30 31477 H 2996.79 -2.681 -4.78971 0
M  V30 31478 H 2997.05 -1.01345 -4.30327 0
M  V30 31479 N 2996.11 1.04563 -1.17917 0
M  V30 31480 C 2997.06 2.1246 -0.901642 0
M  V30 31481 C 2998.03 1.65357 0.156982 0
M  V30 31482 O 2999.21 1.90791 0.0184158 0
M  V30 31483 C 2996.35 3.42435 -0.42802 0
M  V30 31484 C 2995.46 4.03178 -1.55149 0
M  V30 31485 C 2994.6 5.21097 -1.0311 0
M  V30 31486 C 2993.64 5.73859 -2.1296 0
M  V30 31487 N 2992.77 6.83071 -1.62351 0
M  V30 31488 H 2997.61 2.35537 -1.82555 0
M  V30 31489 H 2995.15 1.15542 -0.910409 0
M  V30 31490 H 2997.11 4.16982 -0.134932 0
M  V30 31491 H 2995.74 3.19521 0.458921 0
M  V30 31492 H 2994.79 3.26008 -1.96017 0
M  V30 31493 H 2996.1 4.38371 -2.37976 0
M  V30 31494 H 2995.26 6.02738 -0.692238 0
M  V30 31495 H 2994 4.87395 -0.172356 0
M  V30 31496 H 2993 4.90843 -2.47696 0
M  V30 31497 H 2994.23 6.09606 -2.99261 0
M  V30 31498 H 2992.17 6.51255 -0.787578 0
M  V30 31499 H 2992.09 7.17301 -2.38779 0
M  V30 31500 H 2993.36 7.68349 -1.31377 0
M  V30 31501 N 2997.59 0.980408 1.23393 0
M  V30 31502 C 2998.83 0.648012 1.91429 0
M  V30 31503 C 2999.16 -0.821035 1.76873 0
M  V30 31504 O 2998.43 -1.5873 1.14811 0
M  V30 31505 H 2997.01 0.236685 0.708512 0
M  V30 31506 H 2999.67 1.24422 1.50017 0
M  V30 31507 H 2998.76 0.899645 2.98852 0
M  V30 31508 N 2999.06 -1.38498 0.75206 0
M  V30 31509 C 3000.31 -1.99756 0.306931 0
M  V30 31510 C 3000.63 -1.59994 -1.11476 0
M  V30 31511 O 2999.9 -0.856076 -1.76205 0
M  V30 31512 H 2998.48 -0.738783 0.110493 0
M  V30 31513 H 3001.15 -1.69287 0.965815 0
M  V30 31514 H 3000.24 -3.09913 0.368851 0
M  V30 31515 N 3000.54 -0.501015 -1.49424 0
M  V30 31516 C 3001.48 0.324047 -2.25888 0
M  V30 31517 C 3002.45 0.970365 -1.30471 0
M  V30 31518 O 3003.64 1.00046 -1.59759 0
M  V30 31519 C 3000.76 1.45638 -3.0579 0
M  V30 31520 C 2999.81 0.924435 -4.16361 0
M  V30 31521 S 3000.64 -0.184801 -5.35181 0
M  V30 31522 C 3001.8 0.950697 -6.18638 0
M  V30 31523 H 3002.03 -0.324943 -2.95519 0
M  V30 31524 H 2999.57 -0.286315 -1.51722 0
M  V30 31525 H 3001.52 2.10518 -3.52409 0
M  V30 31526 H 3000.18 2.07698 -2.35627 0
M  V30 31527 H 2999.38 1.77302 -4.71784 0
M  V30 31528 H 2998.98 0.352841 -3.72332 0
M  V30 31529 H 3001.27 1.85592 -6.51584 0
M  V30 31530 H 3002.21 0.435087 -7.06762 0
M  V30 31531 H 3002.62 1.21804 -5.51202 0
M  V30 31532 N 3002.02 1.5584 -0.234849 0
M  V30 31533 C 3003.43 1.84729 0.270556 0
M  V30 31534 C 3003.78 1.15649 1.58492 0
M  V30 31535 O 3002.91 0.430704 2.12071 0
M  V30 31536 C 3003.5 3.35125 0.497674 0
M  V30 31537 C 3002.06 3.64283 0.947364 0
M  V30 31538 C 3001.21 2.77294 0.0178213 0
M  V30 31539 H 3004.16 1.51956 -0.457718 0
M  V30 31540 H 3004.18 3.56052 1.34192 0
M  V30 31541 H 3003.69 3.85375 -0.459105 0
M  V30 31542 H 3001.79 3.195 1.91703 0
M  V30 31543 H 3001.91 4.72159 0.812568 0
M  V30 31544 H 3000.27 2.49188 0.527028 0
M  V30 31545 H 3001.05 3.30347 -0.934114 0
M  V30 31546 N 3003.5 -0.038404 1.57553 0
M  V30 31547 C 3004.72 -0.746838 1.93487 0
M  V30 31548 C 3005.15 -1.68595 0.834099 0
M  V30 31549 O 3004.51 -1.8007 -0.21087 0
M  V30 31550 C 3004.56 -1.48805 3.28465 0
M  V30 31551 O 3003.66 -2.60074 3.20055 0
M  V30 31552 H 3003 -0.201528 0.632679 0
M  V30 31553 H 3005.53 0.00333411 2.046 0
M  V30 31554 H 3005.54 -1.86003 3.63135 0
M  V30 31555 H 3004.22 -0.799225 4.08149 0
M  V30 31556 H 3002.79 -2.25487 2.97002 0
M  V30 31557 N 3004.98 -1.54511 -0.310498 0
M  V30 31558 C 3006.23 -1.72998 -1.04481 0
M  V30 31559 C 3006.55 -0.513512 -1.88117 0
M  V30 31560 O 3005.82 0.47235 -1.9012 0
M  V30 31561 H 3004.4 -0.637882 -0.388735 0
M  V30 31562 H 3007.06 -1.91844 -0.343777 0
M  V30 31563 H 3006.15 -2.61518 -1.70336 0
M  V30 31564 N 3006.46 0.573222 -1.46806 0
M  V30 31565 C 3007.7 1.34202 -1.54172 0
M  V30 31566 C 3008.06 1.9103 -0.192709 0
M  V30 31567 O 3009.26 2.68429 -0.141159 0
M  V30 31568 C 3007.53 2.43424 -2.61686 0
M  V30 31569 S 3009.09 3.30604 -2.88525 0
M  V30 31570 H 3005.91 0.457091 -0.5446 0
M  V30 31571 H 3008.51 0.657968 -1.84095 0
M  V30 31572 H 3007.21 2.00082 -3.58323 0
M  V30 31573 H 3006.75 3.16589 -2.33527 0
M  V30 31574 H 3008.76 4.425 -2.24518 0
M  V30 31575 N 3007.93 1.3467 0.818645 0
M  V30 31576 C 3009.16 1.30508 1.61191 0
M  V30 31577 C 3009.58 -0.117308 1.87734 0
M  V30 31578 O 3008.94 -1.08039 1.45592 0
M  V30 31579 C 3008.99 2.10575 2.92729 0
M  V30 31580 O 3008.09 1.4782 3.84997 0
M  V30 31581 H 3007.43 0.448019 0.490077 0
M  V30 31582 H 3009.96 1.77535 1.01697 0
M  V30 31583 H 3009.97 2.22088 3.42258 0
M  V30 31584 H 3008.65 3.13988 2.72735 0
M  V30 31585 H 3007.23 1.45075 3.43522 0
M  V30 31586 N 3009.41 -1.03936 1.1847 0
M  V30 31587 C 3010.66 -1.76809 0.978926 0
M  V30 31588 C 3010.98 -1.88677 -0.492537 0
M  V30 31589 O 3010.25 -1.41271 -1.35717 0
M  V30 31590 H 3008.83 -0.654962 0.359213 0
M  V30 31591 H 3011.49 -1.25431 1.49175 0
M  V30 31592 H 3010.59 -2.78025 1.41805 0
M  V30 31593 N 3010.89 -0.986938 -1.22871 0
M  V30 31594 C 3012.12 -0.677697 -1.95486 0
M  V30 31595 C 3012.53 0.756542 -1.72979 0
M  V30 31596 O 3011.89 1.50983 -1.0252 0
M  V30 31597 C 3011.94 -0.966699 -3.48335 0
M  V30 31598 O 3011.66 -2.34457 -3.70083 0
M  V30 31599 C 3013.16 -0.674325 -4.38141 0
M  V30 31600 H 3010.38 -0.251196 -0.622207 0
M  V30 31601 H 3012.93 -1.32009 -1.56185 0
M  V30 31602 H 3011.08 -0.370205 -3.85627 0
M  V30 31603 H 3011.5 -2.43926 -4.64328 0
M  V30 31604 H 3012.97 -0.926854 -5.44163 0
M  V30 31605 H 3013.45 0.391652 -4.3745 0
M  V30 31606 H 3014.05 -1.2516 -4.06467 0
M  V30 31607 N 3012.37 1.38098 -0.759394 0
M  V30 31608 C 3013.59 2.04792 -0.327895 0
M  V30 31609 C 3014.02 1.56901 1.03749 0
M  V30 31610 O 3013.38 0.72361 1.66233 0
M  V30 31611 C 3013.42 3.58734 -0.366327 0
M  V30 31612 O 3012.53 4.07441 0.637626 0
M  V30 31613 H 3011.87 0.648175 -0.144103 0
M  V30 31614 H 3014.4 1.76658 -1.03214 0
M  V30 31615 H 3014.41 4.0741 -0.219251 0
M  V30 31616 H 3013.08 3.92949 -1.36249 0
M  V30 31617 H 3011.66 3.70118 0.454684 0
M  V30 31618 N 3013.85 0.508932 1.49156 0
M  V30 31619 C 3015.09 -0.03465 2.0167 0
M  V30 31620 C 3015.41 -1.37308 1.39305 0
M  V30 31621 O 3016.61 -2.00381 1.83193 0
M  V30 31622 C 3015.07 -0.112198 3.59725 0
M  V30 31623 C 3014.68 1.22007 4.31067 0
M  V30 31624 C 3016.42 -0.605724 4.20156 0
M  V30 31625 C 3014.33 1.10425 5.80999 0
M  V30 31626 H 3013.26 -0.0167222 0.753815 0
M  V30 31627 H 3015.91 0.649548 1.71619 0
M  V30 31628 H 3014.29 -0.861019 3.86526 0
M  V30 31629 H 3015.47 1.9828 4.15959 0
M  V30 31630 H 3013.78 1.64766 3.82415 0
M  V30 31631 H 3016.38 -0.710009 5.29965 0
M  V30 31632 H 3016.72 -1.60649 3.84054 0
M  V30 31633 H 3017.25 0.0867938 3.97705 0
M  V30 31634 H 3013.99 2.07952 6.2164 0
M  V30 31635 H 3013.51 0.382534 5.98579 0
M  V30 31636 H 3015.19 0.786229 6.42205 0
M  V30 31637 N 3015.32 -1.55714 0.243111 0
M  V30 31638 C 3016.57 -1.98851 -0.382685 0
M  V30 31639 C 3016.9 -1.13118 -1.58223 0
M  V30 31640 O 3016.15 -0.181101 -1.9486 0
M  V30 31641 C 3016.45 -3.47399 -0.83956 0
M  V30 31642 C 3016.12 -4.50196 0.251816 0
M  V30 31643 C 3014.78 -4.78028 0.551571 0
M  V30 31644 C 3017.13 -5.11734 0.988818 0
M  V30 31645 C 3014.46 -5.64675 1.59247 0
M  V30 31646 C 3016.81 -5.99509 2.01921 0
M  V30 31647 C 3015.48 -6.25675 2.32565 0
M  V30 31648 H 3014.75 -0.727648 -0.140034 0
M  V30 31649 H 3017.39 -1.88272 0.350143 0
M  V30 31650 H 3015.7 -3.55291 -1.65152 0
M  V30 31651 H 3017.4 -3.78162 -1.33397 0
M  V30 31652 H 3013.99 -4.28599 0.00804275 0
M  V30 31653 H 3018.17 -4.90283 0.770486 0
M  V30 31654 H 3013.43 -5.83205 1.83527 0
M  V30 31655 H 3017.6 -6.46236 2.59522 0
M  V30 31656 H 3015.23 -6.9261 3.13361 0
M  V30 31657 N 3016.8 0.030048 -1.57571 0
M  V30 31658 C 3017.75 1.0494 -2.07582 0
M  V30 31659 C 3018.74 1.37503 -0.989408 0
M  V30 31660 O 3019.95 1.3642 -1.1743 0
M  V30 31661 H 3016.33 0.355944 -0.662426 0
M  V30 31662 H 3018.3 0.601796 -2.92269 0
M  V30 31663 C 3017.05 2.3421 -2.56984 0
M  V30 31664 H 3016.37 2.10015 -3.40197 0
M  V30 31665 H 3017.81 3.03883 -2.95687 0
M  V30 31666 C 3016.27 3.03107 -1.47064 0
M  V30 31667 O 3016.8 3.92898 -0.836319 0
M  V30 31668 N 3015 2.6442 -1.20543 0
M  V30 31669 H 3014.55 1.91487 -1.72309 0
M  V30 31670 H 3014.51 3.10835 -0.4721 0
M  V30 31671 N 3018.28 1.54674 0.3023 0
M  V30 31672 C 3019.51 1.78207 1.061 0
M  V30 31673 C 3019.93 0.539292 1.80203 0
M  V30 31674 O 3019.29 -0.510112 1.73976 0
M  V30 31675 C 3019.34 2.9883 2.01824 0
M  V30 31676 O 3018.44 2.71864 3.10103 0
M  V30 31677 H 3017.78 0.589879 0.304859 0
M  V30 31678 H 3020.31 2.01753 0.340118 0
M  V30 31679 H 3020.32 3.26764 2.44313 0
M  V30 31680 H 3019 3.88944 1.47293 0
M  V30 31681 H 3017.57 2.54942 2.72138 0
M  V30 31682 N 3019.76 -0.565428 1.47108 0
M  V30 31683 C 3020.69 -1.6885 1.53508 0
M  V30 31684 C 3021.67 -1.57907 0.387834 0
M  V30 31685 O 3022.85 -1.78881 0.594464 0
M  V30 31686 C 3019.98 -3.07037 1.4299 0
M  V30 31687 C 3019.03 -3.36449 2.62114 0
M  V30 31688 S 3019.86 -3.2661 4.24366 0
M  V30 31689 C 3021.02 -4.67304 4.16386 0
M  V30 31690 H 3021.25 -1.63165 2.48525 0
M  V30 31691 H 3018.78 -0.745586 1.35205 0
M  V30 31692 H 3020.74 -3.86748 1.37609 0
M  V30 31693 H 3019.4 -3.10195 0.493725 0
M  V30 31694 H 3018.59 -4.3717 2.50796 0
M  V30 31695 H 3018.2 -2.64341 2.64575 0
M  V30 31696 H 3020.49 -5.58075 3.84133 0
M  V30 31697 H 3021.43 -4.8368 5.17165 0
M  V30 31698 H 3021.84 -4.44965 3.4737 0
M  V30 31699 N 3021.24 -1.35102 -0.811492 0
M  V30 31700 C 3022.49 -1.27438 -1.56341 0
M  V30 31701 C 3022.8 0.150662 -1.95019 0
M  V30 31702 O 3024 0.349539 -2.69241 0
M  V30 31703 C 3022.46 -2.23464 -2.8212 0
M  V30 31704 C 3022.07 -3.71287 -2.50699 0
M  V30 31705 C 3023.81 -2.24732 -3.60133 0
M  V30 31706 C 3021.72 -4.5915 -3.7274 0
M  V30 31707 H 3020.65 -0.473464 -0.586812 0
M  V30 31708 H 3023.3 -1.60337 -0.892437 0
M  V30 31709 H 3021.68 -1.83531 -3.50902 0
M  V30 31710 H 3022.86 -4.19826 -1.89955 0
M  V30 31711 H 3021.17 -3.72579 -1.85941 0
M  V30 31712 H 3023.77 -2.87594 -4.5077 0
M  V30 31713 H 3024.11 -1.24972 -3.97099 0
M  V30 31714 H 3024.64 -2.63169 -2.98307 0
M  V30 31715 H 3021.38 -5.5989 -3.40886 0
M  V30 31716 H 3020.9 -4.1534 -4.32727 0
M  V30 31717 H 3022.58 -4.74329 -4.40024 0
M  V30 31718 N 3022.71 1.03306 -1.19019 0
M  V30 31719 C 3023.66 2.13604 -0.920664 0
M  V30 31720 C 3024.66 1.68961 0.12194 0
M  V30 31721 O 3025.86 1.7998 -0.0269171 0
M  V30 31722 H 3022.24 0.697809 -0.280297 0
M  V30 31723 H 3024.21 2.3353 -1.85759 0
M  V30 31724 C 3022.96 3.44492 -0.471259 0
M  V30 31725 H 3022.28 3.79258 -1.26505 0
M  V30 31726 H 3023.72 4.22778 -0.321737 0
M  V30 31727 C 3022.18 3.26917 0.814052 0
M  V30 31728 O 3022.71 3.55178 1.87647 0
M  V30 31729 N 3020.92 2.80223 0.769646 0
M  V30 31730 H 3020.46 2.57424 -0.0951731 0
M  V30 31731 H 3020.42 2.68845 1.63003 0
M  V30 31732 N 3024.19 0.99344 1.22346 0
M  V30 31733 C 3025.14 0.537092 2.26314 0
M  V30 31734 C 3026.13 -0.412516 1.64301 0
M  V30 31735 O 3027.34 -0.284976 1.7773 0
M  V30 31736 H 3023.72 0.155299 0.73579 0
M  V30 31737 H 3025.69 1.42539 2.62155 0
M  V30 31738 C 3024.44 -0.132057 3.47449 0
M  V30 31739 H 3023.76 0.589589 3.95429 0
M  V30 31740 H 3025.2 -0.41481 4.21966 0
M  V30 31741 C 3023.66 -1.36756 3.07895 0
M  V30 31742 O 3024.19 -2.46286 3.17343 0
M  V30 31743 N 3022.39 -1.24301 2.62674 0
M  V30 31744 H 3021.94 -0.351781 2.55187 0
M  V30 31745 H 3021.9 -2.07072 2.36577 0
M  V30 31746 N 3025.67 -1.37693 0.766707 0
M  V30 31747 C 3026.6 -2.32927 0.163473 0
M  V30 31748 C 3027.58 -1.55528 -0.688834 0
M  V30 31749 O 3028.77 -1.83788 -0.627331 0
M  V30 31750 C 3025.9 -3.39747 -0.720356 0
M  V30 31751 C 3024.85 -4.27989 0.0302471 0
M  V30 31752 C 3024.18 -5.25778 -0.972696 0
M  V30 31753 C 3025.48 -5.08178 1.20632 0
M  V30 31754 H 3027.17 -2.83624 0.959038 0
M  V30 31755 H 3024.72 -1.36366 0.462625 0
M  V30 31756 H 3026.67 -4.05344 -1.15214 0
M  V30 31757 H 3025.39 -2.87563 -1.54839 0
M  V30 31758 H 3024.05 -3.63917 0.442749 0
M  V30 31759 H 3023.7 -4.69876 -1.79514 0
M  V30 31760 H 3023.4 -5.85677 -0.475043 0
M  V30 31761 H 3024.92 -5.94251 -1.40352 0
M  V30 31762 H 3026.34 -5.66942 0.85144 0
M  V30 31763 H 3024.74 -5.77377 1.63572 0
M  V30 31764 H 3025.81 -4.41147 2.01288 0
M  V30 31765 N 3027.15 -0.516835 -1.48884 0
M  V30 31766 C 3028.4 0.0239544 -2.01686 0
M  V30 31767 C 3028.71 1.36567 -1.40031 0
M  V30 31768 O 3029.92 1.99407 -1.84253 0
M  V30 31769 C 3028.37 0.0931193 -3.5978 0
M  V30 31770 C 3027.98 -1.24291 -4.30413 0
M  V30 31771 C 3029.72 0.583433 -4.20472 0
M  V30 31772 C 3027.63 -1.13505 -5.80406 0
M  V30 31773 H 3026.56 0.0127243 -0.753893 0
M  V30 31774 H 3029.21 -0.65864 -1.71272 0
M  V30 31775 H 3027.59 0.840509 -3.86977 0
M  V30 31776 H 3028.77 -2.00483 -4.14901 0
M  V30 31777 H 3027.08 -1.66791 -3.81536 0
M  V30 31778 H 3029.68 0.681894 -5.30334 0
M  V30 31779 H 3030.02 1.5861 -3.84901 0
M  V30 31780 H 3030.56 -0.107884 -3.97654 0
M  V30 31781 H 3027.3 -2.11246 -6.20528 0
M  V30 31782 H 3026.82 -0.414272 -5.98368 0
M  V30 31783 H 3028.49 -0.820275 -6.41779 0
M  V30 31784 N 3028.63 1.55583 -0.251365 0
M  V30 31785 C 3029.88 1.98228 0.372646 0
M  V30 31786 C 3030.19 1.14283 1.58741 0
M  V30 31787 O 3031.39 1.46962 2.28286 0
M  V30 31788 C 3029.85 3.52739 0.714377 0
M  V30 31789 C 3029.46 4.45429 -0.479247 0
M  V30 31790 C 3031.2 4.04029 1.30233 0
M  V30 31791 C 3029.11 5.91291 -0.113422 0
M  V30 31792 H 3028.04 0.740314 0.143007 0
M  V30 31793 H 3030.69 1.80087 -0.352284 0
M  V30 31794 H 3029.07 3.66591 1.49756 0
M  V30 31795 H 3030.25 4.43338 -1.25652 0
M  V30 31796 H 3028.56 4.04645 -0.98243 0
M  V30 31797 H 3031.16 5.1053 1.58944 0
M  V30 31798 H 3031.5 3.51642 2.2283 0
M  V30 31799 H 3032.03 3.9352 0.581955 0
M  V30 31800 H 3028.77 6.47724 -1.00665 0
M  V30 31801 H 3028.29 5.96508 0.627561 0
M  V30 31802 H 3029.97 6.46291 0.302816 0
M  V30 31803 N 3030.1 -0.0216912 1.57585 0
M  V30 31804 C 3031.52 -0.377457 1.55072 0
M  V30 31805 C 3031.72 -1.76149 0.978454 0
M  V30 31806 O 3030.78 -2.45201 0.602731 0
M  V30 31807 C 3032.09 -0.272552 2.99462 0
M  V30 31808 C 3033.64 -0.349093 3.11047 0
M  V30 31809 C 3034.11 -0.273556 4.57182 0
M  V30 31810 N 3035.6 -0.332125 4.62008 0
M  V30 31811 C 3036.34 -0.296682 5.72632 0
M  V30 31812 N 3035.83 -0.213099 6.92472 0
M  V30 31813 N 3037.63 -0.346954 5.61028 0
M  V30 31814 H 3029.78 0.883959 1.93132 0
M  V30 31815 H 3032.04 0.336825 0.886145 0
M  V30 31816 H 3031.75 0.678841 3.45086 0
M  V30 31817 H 3031.62 -1.06329 3.61903 0
M  V30 31818 H 3034.01 -1.29092 2.65366 0
M  V30 31819 H 3034.09 0.471129 2.51424 0
M  V30 31820 H 3033.73 0.664637 5.03533 0
M  V30 31821 H 3033.66 -1.11198 5.14726 0
M  V30 31822 H 3036.15 -0.398937 3.75788 0
M  V30 31823 H 3036.47 -0.191356 7.72563 0
M  V30 31824 H 3034.81 -0.179039 6.94769 0
M  V30 31825 H 3038 -0.410296 4.66298 0
M  V30 31826 H 3038.18 -0.315865 6.4723 0
M  V30 31827 N 3031.58 -1.54832 -0.294093 0
M  V30 31828 C 3032.81 -1.78441 -1.04721 0
M  V30 31829 C 3033.23 -0.547271 -1.80694 0
M  V30 31830 O 3032.58 0.48311 -1.75989 0
M  V30 31831 C 3032.63 -2.99637 -2.02237 0
M  V30 31832 O 3032.36 -4.18571 -1.29345 0
M  V30 31833 C 3033.86 -3.35688 -2.89532 0
M  V30 31834 H 3031.08 -0.594954 -0.310275 0
M  V30 31835 H 3033.62 -2.01799 -0.331271 0
M  V30 31836 H 3031.78 -2.78467 -2.69323 0
M  V30 31837 H 3032.19 -4.86947 -1.94892 0
M  V30 31838 H 3033.66 -4.23715 -3.53793 0
M  V30 31839 H 3034.14 -2.54149 -3.58197 0
M  V30 31840 H 3034.75 -3.59042 -2.27966 0
M  V30 31841 N 3033.06 0.557619 -1.47405 0
M  V30 31842 C 3033.99 1.67446 -1.62739 0
M  V30 31843 C 3034.97 1.63279 -0.476853 0
M  V30 31844 O 3036.16 1.80907 -0.706139 0
M  V30 31845 C 3033.29 3.06083 -1.64105 0
M  V30 31846 C 3032.24 3.25096 -2.78382 0
M  V30 31847 C 3031.57 4.64515 -2.64821 0
M  V30 31848 C 3032.87 3.10511 -4.19977 0
M  V30 31849 H 3034.56 1.54869 -2.56234 0
M  V30 31850 H 3032.11 0.743628 -1.23313 0
M  V30 31851 H 3034.06 3.8406 -1.73424 0
M  V30 31852 H 3032.78 3.19618 -0.671708 0
M  V30 31853 H 3031.44 2.49527 -2.68574 0
M  V30 31854 H 3031.09 4.74849 -1.65915 0
M  V30 31855 H 3030.79 4.78185 -3.41486 0
M  V30 31856 H 3032.32 5.44628 -2.76067 0
M  V30 31857 H 3033.73 3.78306 -4.30764 0
M  V30 31858 H 3032.13 3.35691 -4.97425 0
M  V30 31859 H 3033.2 2.07262 -4.38372 0
M  V30 31860 N 3034.54 1.35531 0.804316 0
M  V30 31861 C 3035.47 1.31304 1.93084 0
M  V30 31862 C 3036.45 0.187073 1.69068 0
M  V30 31863 O 3037.64 0.382392 1.90398 0
M  V30 31864 C 3034.77 1.08656 3.29865 0
M  V30 31865 C 3033.72 2.17918 3.68369 0
M  V30 31866 C 3033.05 1.80432 5.03337 0
M  V30 31867 C 3034.35 3.599 3.78509 0
M  V30 31868 H 3036.04 2.25565 1.96878 0
M  V30 31869 H 3033.59 1.08583 0.945822 0
M  V30 31870 H 3035.54 1.04338 4.08279 0
M  V30 31871 H 3034.26 0.108416 3.2642 0
M  V30 31872 H 3032.92 2.21336 2.92243 0
M  V30 31873 H 3032.57 0.8123 4.96398 0
M  V30 31874 H 3032.27 2.53574 5.3007 0
M  V30 31875 H 3033.79 1.77643 5.84188 0
M  V30 31876 H 3035.21 3.58791 4.47149 0
M  V30 31877 H 3033.6 4.31822 4.16713 0
M  V30 31878 H 3034.67 3.95887 2.80003 0
M  V30 31879 N 3036.02 -1.02674 1.19565 0
M  V30 31880 C 3036.95 -2.12895 0.959061 0
M  V30 31881 C 3037.93 -1.69755 -0.108352 0
M  V30 31882 O 3039.11 -1.94143 0.0471039 0
M  V30 31883 C 3036.24 -3.43693 0.499271 0
M  V30 31884 C 3035.2 -4.00525 1.50877 0
M  V30 31885 C 3034.52 -5.26969 0.905976 0
M  V30 31886 C 3035.82 -4.35085 2.88961 0
M  V30 31887 H 3037.52 -2.32945 1.88088 0
M  V30 31888 H 3035.06 -1.11947 0.905751 0
M  V30 31889 H 3037.02 -4.20175 0.321039 0
M  V30 31890 H 3035.74 -3.23371 -0.458148 0
M  V30 31891 H 3034.4 -3.26139 1.67418 0
M  V30 31892 H 3034.05 -5.02965 -0.0590622 0
M  V30 31893 H 3033.75 -5.65956 1.5801 0
M  V30 31894 H 3035.27 -6.06117 0.738587 0
M  V30 31895 H 3036.69 -5.02496 2.7599 0
M  V30 31896 H 3035.08 -4.8516 3.53186 0
M  V30 31897 H 3036.15 -3.44293 3.41453 0
M  V30 31898 N 3037.5 -0.999914 -1.21817 0
M  V30 31899 C 3038.91 -0.711849 -1.42846 0
M  V30 31900 C 3039.11 0.714895 -1.88392 0
M  V30 31901 O 3038.17 1.48491 -2.04222 0
M  V30 31902 C 3039.48 -1.72339 -2.46414 0
M  V30 31903 C 3041.03 -1.73963 -2.60204 0
M  V30 31904 C 3041.5 -2.73998 -3.67 0
M  V30 31905 N 3042.99 -2.72635 -3.74465 0
M  V30 31906 C 3043.73 -3.46701 -4.56712 0
M  V30 31907 N 3043.23 -4.3039 -5.42897 0
M  V30 31908 N 3045.02 -3.35374 -4.51088 0
M  V30 31909 H 3037.17 -1.92126 -0.905622 0
M  V30 31910 H 3039.43 -0.828985 -0.459879 0
M  V30 31911 H 3039.14 -2.74469 -2.19909 0
M  V30 31912 H 3039.01 -1.52192 -3.45134 0
M  V30 31913 H 3041.4 -0.725268 -2.86049 0
M  V30 31914 H 3041.48 -1.9818 -1.61735 0
M  V30 31915 H 3041.12 -3.75588 -3.41901 0
M  V30 31916 H 3041.05 -2.47048 -4.65054 0
M  V30 31917 H 3043.55 -2.11915 -3.12891 0
M  V30 31918 H 3043.86 -4.83713 -6.02695 0
M  V30 31919 H 3042.2 -4.34474 -5.42455 0
M  V30 31920 H 3045.39 -2.69429 -3.82786 0
M  V30 31921 H 3045.57 -3.93353 -5.14953 0
M  V30 31922 N 3038.97 1.37284 -0.773999 0
M  V30 31923 C 3040.2 2.03905 -0.350794 0
M  V30 31924 C 3040.62 1.58375 1.02776 0
M  V30 31925 O 3039.97 0.766039 1.65644 0
M  V30 31926 C 3040.02 3.59418 -0.387399 0
M  V30 31927 O 3039.75 4.03283 -1.71157 0
M  V30 31928 C 3041.25 4.43275 0.0471201 0
M  V30 31929 H 3038.47 0.654773 -0.146675 0
M  V30 31930 H 3041.01 1.75573 -1.04855 0
M  V30 31931 H 3039.17 3.86514 0.261797 0
M  V30 31932 H 3039.58 4.97813 -1.65175 0
M  V30 31933 H 3041.05 5.51992 -0.0296445 0
M  V30 31934 H 3041.53 4.25259 1.09778 0
M  V30 31935 H 3042.14 4.21409 -0.573974 0
M  V30 31936 N 3040.45 0.524724 1.48608 0
M  V30 31937 C 3041.68 -0.00738237 2.06599 0
M  V30 31938 C 3042.09 -1.29184 1.38232 0
M  V30 31939 O 3041.43 -1.77796 0.461994 0
M  V30 31940 C 3041.49 -0.307261 3.58185 0
M  V30 31941 C 3041.16 0.882943 4.48389 0
M  V30 31942 C 3042.16 1.77993 4.88482 0
M  V30 31943 C 3039.84 1.08845 4.90365 0
M  V30 31944 C 3041.83 2.86637 5.69313 0
M  V30 31945 C 3039.52 2.17804 5.70968 0
M  V30 31946 C 3040.52 3.06533 6.10349 0
M  V30 31947 O 3040.21 4.13608 6.89336 0
M  V30 31948 H 3039.94 0.0279965 0.67542 0
M  V30 31949 H 3042.49 0.728234 1.92057 0
M  V30 31950 H 3040.72 -1.09678 3.7082 0
M  V30 31951 H 3042.41 -0.780816 3.98319 0
M  V30 31952 H 3043.18 1.63307 4.56679 0
M  V30 31953 H 3039.06 0.407116 4.59199 0
M  V30 31954 H 3042.6 3.55921 5.99972 0
M  V30 31955 H 3038.5 2.32476 6.02184 0
M  V30 31956 H 3039.27 4.11253 7.07682 0
M  V30 31957 N 3041.93 -1.55447 0.259613 0
M  V30 31958 C 3042.88 -2.21906 -0.634539 0
M  V30 31959 C 3043.85 -1.18721 -1.16166 0
M  V30 31960 O 3045.03 -1.47212 -1.2138 0
M  V30 31961 C 3042.17 -2.93207 -1.82 0
M  V30 31962 C 3041.28 -4.11075 -1.3282 0
M  V30 31963 C 3040.42 -4.70059 -2.47423 0
M  V30 31964 C 3039.46 -5.80151 -1.95169 0
M  V30 31965 N 3038.6 -6.33264 -3.03185 0
M  V30 31966 H 3043.44 -2.97937 -0.0611362 0
M  V30 31967 H 3040.97 -1.47088 -0.0184119 0
M  V30 31968 H 3042.93 -3.32752 -2.51658 0
M  V30 31969 H 3041.56 -2.19626 -2.36567 0
M  V30 31970 H 3040.61 -3.76756 -0.525235 0
M  V30 31971 H 3041.92 -4.90515 -0.905348 0
M  V30 31972 H 3041.08 -5.12244 -3.25102 0
M  V30 31973 H 3039.82 -3.89863 -2.93016 0
M  V30 31974 H 3038.82 -5.37431 -1.15964 0
M  V30 31975 H 3040.05 -6.62207 -1.5053 0
M  V30 31976 H 3037.99 -5.55968 -3.4819 0
M  V30 31977 H 3037.91 -7.07932 -2.6527 0
M  V30 31978 H 3039.18 -6.80108 -3.80886 0
M  V30 31979 N 3043.41 0.0133338 -1.57594 0
M  V30 31980 C 3044.66 0.699562 -1.89606 0
M  V30 31981 C 3044.98 1.75046 -0.85929 0
M  V30 31982 O 3044.25 1.95618 0.105078 0
M  V30 31983 H 3042.83 0.261373 -0.699781 0
M  V30 31984 H 3045.49 -0.0244386 -1.94885 0
M  V30 31985 H 3044.58 1.17923 -2.88965 0
M  V30 31986 N 3044.89 1.54985 0.285878 0
M  V30 31987 C 3046.13 1.74191 1.01688 0
M  V30 31988 C 3046.45 0.543168 1.87907 0
M  V30 31989 O 3047.65 0.617352 2.64388 0
M  V30 31990 C 3046.11 3.08244 1.85779 0
M  V30 31991 C 3045.72 4.35644 1.0449 0
M  V30 31992 C 3047.46 3.36803 2.58388 0
M  V30 31993 C 3045.37 5.60741 1.87945 0
M  V30 31994 H 3044.3 0.649255 0.383385 0
M  V30 31995 H 3046.95 1.81456 0.273138 0
M  V30 31996 H 3045.33 2.94982 2.642 0
M  V30 31997 H 3046.51 4.59784 0.305766 0
M  V30 31998 H 3044.82 4.14133 0.43395 0
M  V30 31999 H 3047.42 4.2747 3.21206 0
M  V30 32000 H 3047.76 2.56355 3.28006 0
M  V30 32001 H 3048.29 3.51103 1.87006 0
M  V30 32002 H 3045.03 6.43901 1.2277 0
M  V30 32003 H 3044.55 5.40764 2.5949 0
M  V30 32004 H 3046.23 5.98563 2.45625 0
M  V30 32005 N 3046.36 -0.549794 1.47699 0
M  V30 32006 C 3047.64 -1.31072 1.45188 0
M  V30 32007 C 3048.02 -2.10546 0.152805 0
M  V30 32008 O 3047.37 -2.11467 -0.865669 0
M  V30 32009 C 3047.58 -2.20897 2.70195 0
M  V30 32010 C 3048.93 -2.81678 3.17715 0
M  V30 32011 O 3049.95 -2.31195 2.70975 0
M  V30 32012 O 3048.81 -3.73453 3.98992 0
M  V30 32013 H 3045.9 -0.590567 0.57893 0
M  V30 32014 H 3048.45 -0.568084 1.59909 0
M  V30 32015 H 3047.22 -1.61822 3.56272 0
M  V30 32016 H 3046.85 -3.02443 2.58097 0
M  V30 32017 N 3047.84 -1.35955 -0.797117 0
M  V30 32018 C 3048.77 -1.32326 -1.92385 0
M  V30 32019 C 3049.75 -0.196037 -1.68967 0
M  V30 32020 O 3050.94 -0.392484 -1.90193 0
M  V30 32021 C 3048.07 -1.10404 -3.29285 0
M  V30 32022 C 3047.02 -2.19868 -3.67208 0
M  V30 32023 C 3046.35 -1.83099 -5.02373 0
M  V30 32024 C 3047.65 -3.61902 -3.76595 0
M  V30 32025 H 3049.34 -2.26606 -1.95679 0
M  V30 32026 H 3046.89 -1.09083 -0.94005 0
M  V30 32027 H 3048.84 -1.06502 -4.0772 0
M  V30 32028 H 3047.57 -0.125725 -3.26358 0
M  V30 32029 H 3046.22 -2.22883 -2.91065 0
M  V30 32030 H 3045.87 -0.838614 -4.9596 0
M  V30 32031 H 3045.57 -2.56382 -5.28718 0
M  V30 32032 H 3047.1 -1.80739 -5.83237 0
M  V30 32033 H 3048.51 -3.61157 -4.4524 0
M  V30 32034 H 3046.91 -4.34026 -4.14417 0
M  V30 32035 H 3047.98 -3.97366 -2.77899 0
M  V30 32036 N 3049.32 1.02038 -1.20108 0
M  V30 32037 C 3050.6 1.72717 -0.91806 0
M  V30 32038 C 3050.98 2.03143 0.574127 0
M  V30 32039 O 3050.33 1.69288 1.53473 0
M  V30 32040 C 3050.54 2.99777 -1.78703 0
M  V30 32041 C 3051.88 3.73117 -2.02655 0
M  V30 32042 O 3052.91 3.09724 -1.75925 0
M  V30 32043 O 3051.77 4.87103 -2.47776 0
M  V30 32044 H 3048.86 0.752553 -0.342918 0
M  V30 32045 H 3051.41 1.0792 -1.30963 0
M  V30 32046 H 3050.18 2.73585 -2.79762 0
M  V30 32047 H 3049.8 3.72314 -1.39529 0
M  V30 32048 N 3050.8 1.00636 1.21285 0
M  V30 32049 C 3051.75 0.538899 2.2154 0
M  V30 32050 C 3052.73 -0.400228 1.55843 0
M  V30 32051 O 3053.92 -0.224858 1.75566 0
M  V30 32052 C 3051.05 -0.131735 3.43047 0
M  V30 32053 C 3050.14 0.828492 4.15929 0
M  V30 32054 N 3050.53 1.98186 4.65356 0
M  V30 32055 C 3048.83 0.647161 4.4128 0
M  V30 32056 C 3049.53 2.58566 5.21074 0
M  V30 32057 N 3048.51 1.86714 5.10528 0
M  V30 32058 H 3052.31 1.41835 2.5741 0
M  V30 32059 H 3049.82 0.870362 1.37107 0
M  V30 32060 H 3051.82 -0.484105 4.1408 0
M  V30 32061 H 3050.48 -1.00716 3.08685 0
M  V30 32062 H 3051.49 2.36219 4.60892 0
M  V30 32063 H 3048.17 -0.181066 4.17107 0
M  V30 32064 H 3049.56 3.56117 5.69764 0
M  V30 32065 N 3052.28 -1.36872 0.781268 0
M  V30 32066 C 3053.21 -2.32741 0.188169 0
M  V30 32067 C 3054.19 -1.5625 -0.672299 0
M  V30 32068 O 3055.37 -1.84444 -0.607802 0
M  V30 32069 C 3052.5 -3.40492 -0.684281 0
M  V30 32070 C 3051.46 -4.27933 0.0756394 0
M  V30 32071 C 3050.78 -5.2678 -0.916875 0
M  V30 32072 C 3052.08 -5.0687 1.26015 0
M  V30 32073 H 3053.78 -2.82591 0.989066 0
M  V30 32074 H 3051.32 -1.35868 0.477062 0
M  V30 32075 H 3053.28 -4.06543 -1.10908 0
M  V30 32076 H 3052 -2.89189 -1.5178 0
M  V30 32077 H 3050.66 -3.63427 0.481322 0
M  V30 32078 H 3050.31 -4.71754 -1.7452 0
M  V30 32079 H 3050.01 -5.86148 -0.412897 0
M  V30 32080 H 3051.53 -5.95706 -1.34041 0
M  V30 32081 H 3052.94 -5.66007 0.911524 0
M  V30 32082 H 3051.34 -5.7561 1.69686 0
M  V30 32083 H 3052.41 -4.38988 2.05956 0
M  V30 32084 N 3053.75 -0.532597 -1.48328 0
M  V30 32085 C 3054.7 0.228739 -2.29664 0
M  V30 32086 C 3055.67 0.931376 -1.3753 0
M  V30 32087 O 3056.86 0.931892 -1.66494 0
M  V30 32088 C 3054 1.26808 -3.20957 0
M  V30 32089 C 3053.11 0.574024 -4.28169 0
M  V30 32090 C 3052.24 1.59653 -5.0664 0
M  V30 32091 C 3051.28 0.886073 -6.05653 0
M  V30 32092 N 3050.42 1.85424 -6.77172 0
M  V30 32093 H 3055.26 -0.471032 -2.94254 0
M  V30 32094 H 3052.8 -0.244125 -1.4506 0
M  V30 32095 H 3054.76 1.883 -3.72289 0
M  V30 32096 H 3053.39 1.9362 -2.58285 0
M  V30 32097 H 3052.44 -0.154894 -3.80085 0
M  V30 32098 H 3053.75 0.0163108 -4.98797 0
M  V30 32099 H 3052.9 2.28566 -5.61999 0
M  V30 32100 H 3051.64 2.18813 -4.35858 0
M  V30 32101 H 3050.65 0.182885 -5.49496 0
M  V30 32102 H 3051.87 0.300539 -6.78435 0
M  V30 32103 H 3049.82 2.43488 -6.09138 0
M  V30 32104 H 3049.74 1.34803 -7.43884 0
M  V30 32105 H 3051 2.53528 -7.37119 0
M  V30 32106 N 3055.23 1.55307 -0.267853 0
M  V30 32107 C 3056.17 2.18328 0.663935 0
M  V30 32108 C 3057.14 1.14189 1.15757 0
M  V30 32109 O 3058.33 1.42679 1.23187 0
M  V30 32110 C 3055.45 2.80073 1.90465 0
M  V30 32111 C 3054.5 3.9745 1.54711 0
M  V30 32112 S 3055.33 5.31763 0.631561 0
M  V30 32113 C 3056.49 5.96973 1.88081 0
M  V30 32114 H 3056.72 2.97022 0.128434 0
M  V30 32115 H 3054.26 1.54312 -0.0521562 0
M  V30 32116 H 3056.21 3.16279 2.61683 0
M  V30 32117 H 3054.87 2.01286 2.41128 0
M  V30 32118 H 3054.07 4.39317 2.47014 0
M  V30 32119 H 3053.67 3.6263 0.91519 0
M  V30 32120 H 3055.96 6.15764 2.82562 0
M  V30 32121 H 3056.9 6.91916 1.50527 0
M  V30 32122 H 3057.31 5.26255 2.04244 0
M  V30 32123 N 3056.71 -0.00497598 1.57599 0
M  V30 32124 C 3057.96 -0.690028 1.8953 0
M  V30 32125 C 3058.27 -1.75212 0.869482 0
M  V30 32126 O 3059.48 -2.49145 1.07883 0
M  V30 32127 C 3057.93 -1.27846 3.36427 0
M  V30 32128 C 3057.54 -0.251453 4.47294 0
M  V30 32129 C 3059.29 -1.942 3.77474 0
M  V30 32130 C 3057.19 -0.849597 5.85266 0
M  V30 32131 H 3056.12 -0.261487 0.707206 0
M  V30 32132 H 3058.77 0.0547531 1.83418 0
M  V30 32133 H 3057.16 -2.07375 3.3736 0
M  V30 32134 H 3058.33 0.518876 4.57869 0
M  V30 32135 H 3056.65 0.311354 4.15234 0
M  V30 32136 H 3059.24 -2.39847 4.77889 0
M  V30 32137 H 3059.59 -2.77046 3.10727 0
M  V30 32138 H 3060.12 -1.21412 3.78819 0
M  V30 32139 H 3056.86 -0.0600256 6.55473 0
M  V30 32140 H 3056.38 -1.5892 5.78364 0
M  V30 32141 H 3058.06 -1.34973 6.32765 0
M  V30 32142 N 3058.19 -1.55135 -0.277654 0
M  V30 32143 C 3059.15 -1.86926 -1.32632 0
M  V30 32144 C 3060.15 -0.743532 -1.42577 0
M  V30 32145 O 3061.34 -1.01173 -1.41808 0
M  V30 32146 C 3058.47 -2.07039 -2.70828 0
M  V30 32147 H 3059.67 -2.80665 -1.05675 0
M  V30 32148 H 3057.22 -1.47555 -0.515491 0
M  V30 32149 H 3057.95 -1.15666 -3.02972 0
M  V30 32150 H 3057.74 -2.88997 -2.64996 0
M  V30 32151 H 3059.23 -2.32924 -3.46606 0
M  V30 32152 N 3059.67 0.541953 -1.47989 0
M  V30 32153 C 3060.9 1.32152 -1.58806 0
M  V30 32154 C 3061.3 1.87634 -0.242926 0
M  V30 32155 O 3060.65 1.66495 0.77621 0
M  V30 32156 C 3060.71 2.51816 -2.56571 0
M  V30 32157 C 3060.37 2.17509 -4.01919 0
M  V30 32158 C 3061.37 1.73892 -4.89957 0
M  V30 32159 C 3059.06 2.284 -4.47369 0
M  V30 32160 C 3061.05 1.41614 -6.21469 0
M  V30 32161 C 3058.74 1.95734 -5.78905 0
M  V30 32162 C 3059.73 1.52411 -6.65778 0
M  V30 32163 O 3059.42 1.20169 -7.94868 0
M  V30 32164 H 3059.15 0.408592 -0.538543 0
M  V30 32165 H 3061.71 0.661784 -1.94447 0
M  V30 32166 H 3059.94 3.20732 -2.16028 0
M  V30 32167 H 3061.63 3.13886 -2.57352 0
M  V30 32168 H 3062.39 1.64958 -4.56085 0
M  V30 32169 H 3058.27 2.61078 -3.79947 0
M  V30 32170 H 3061.82 1.07726 -6.89232 0
M  V30 32171 H 3057.71 2.04305 -6.12315 0
M  V30 32172 H 3058.48 1.33669 -8.07511 0
M  V30 32173 N 3061.15 1.36376 0.789896 0
M  V30 32174 C 3062.39 1.30321 1.54469 0
M  V30 32175 C 3062.71 -0.117304 1.94647 0
M  V30 32176 O 3061.98 -1.05746 1.64908 0
M  V30 32177 H 3060.56 0.479404 0.57287 0
M  V30 32178 H 3063.23 1.70667 0.941215 0
M  V30 32179 H 3062.32 1.93028 2.45248 0
M  V30 32180 N 3062.62 -1.014 1.20647 0
M  V30 32181 C 3063.9 -1.72227 0.927206 0
M  V30 32182 C 3064.28 -2.03444 -0.563346 0
M  V30 32183 O 3063.63 -1.70099 -1.52573 0
M  V30 32184 C 3063.84 -2.98825 1.8029 0
M  V30 32185 C 3065.19 -3.72037 2.04631 0
M  V30 32186 O 3066.21 -3.08787 1.77565 0
M  V30 32187 O 3065.07 -4.85782 2.50355 0
M  V30 32188 H 3062.16 -0.750724 0.346904 0
M  V30 32189 H 3064.71 -1.07224 1.31533 0
M  V30 32190 H 3063.48 -2.72098 2.81209 0
M  V30 32191 H 3063.1 -3.71569 1.41501 0
M  V30 32192 N 3064.1 -1.01278 -1.2075 0
M  V30 32193 C 3065.38 -0.615145 -1.85675 0
M  V30 32194 C 3065.76 0.906942 -1.90625 0
M  V30 32195 O 3065.11 1.79709 -1.41127 0
M  V30 32196 C 3065.32 -1.25852 -3.25518 0
M  V30 32197 C 3066.66 -1.37155 -4.01838 0
M  V30 32198 O 3067.69 -1.21444 -3.34858 0
M  V30 32199 O 3066.55 -1.62504 -5.2178 0
M  V30 32200 H 3063.64 -0.211743 -0.799434 0
M  V30 32201 H 3066.19 -1.10992 -1.2837 0
M  V30 32202 H 3064.96 -2.29874 -3.1666 0
M  V30 32203 H 3064.58 -0.750593 -3.90451 0
M  V30 32204 N 3065.58 1.36456 -0.788516 0
M  V30 32205 C 3066.83 1.99561 -0.361031 0
M  V30 32206 C 3067.16 1.62439 1.0643 0
M  V30 32207 O 3066.43 0.878736 1.73518 0
M  V30 32208 C 3066.72 3.5627 -0.523798 0
M  V30 32209 C 3066.57 4.03248 -1.99275 0
M  V30 32210 C 3067.89 4.40057 0.0617135 0
M  V30 32211 H 3065.01 0.724964 -0.132653 0
M  V30 32212 H 3067.65 1.61883 -0.994688 0
M  V30 32213 H 3065.8 3.88497 0.0156296 0
M  V30 32214 H 3067.47 3.81513 -2.59317 0
M  V30 32215 H 3065.71 3.54822 -2.49567 0
M  V30 32216 H 3066.39 5.12217 -2.05761 0
M  V30 32217 H 3068.86 4.14185 -0.398747 0
M  V30 32218 H 3067.74 5.48838 -0.0822053 0
M  V30 32219 H 3068 4.2678 1.15373 0
M  V30 32220 N 3067.06 0.540456 1.48043 0
M  V30 32221 C 3068.31 0.00813507 2.01698 0
M  V30 32222 C 3068.62 -1.34322 1.42186 0
M  V30 32223 O 3069.83 -1.9645 1.87402 0
M  V30 32224 C 3068.28 -0.0358697 3.59882 0
M  V30 32225 C 3067.89 1.31123 4.28382 0
M  V30 32226 C 3069.63 -0.516466 4.21347 0
M  V30 32227 C 3067.54 1.22724 5.78526 0
M  V30 32228 H 3066.47 -0.00072892 0.754 0
M  V30 32229 H 3069.12 0.685805 1.70203 0
M  V30 32230 H 3067.5 -0.778838 3.88266 0
M  V30 32231 H 3068.68 2.07059 4.11659 0
M  V30 32232 H 3066.99 1.7284 3.78834 0
M  V30 32233 H 3069.59 -0.597436 5.31352 0
M  V30 32234 H 3069.93 -1.52466 3.87375 0
M  V30 32235 H 3070.47 0.171133 3.97432 0
M  V30 32236 H 3067.2 2.21091 6.17089 0
M  V30 32237 H 3066.72 0.509415 5.97633 0
M  V30 32238 H 3068.4 0.922273 6.40393 0
M  V30 32239 N 3068.54 -1.55163 0.276085 0
M  V30 32240 C 3069.5 -2.21264 -0.597886 0
M  V30 32241 C 3070.5 -1.1908 -1.08058 0
M  V30 32242 O 3071.69 -1.43979 -0.980601 0
M  V30 32243 C 3068.82 -2.87937 -1.82497 0
M  V30 32244 H 3070.01 -2.99893 -0.0207242 0
M  V30 32245 H 3067.57 -1.56277 0.0267097 0
M  V30 32246 H 3068.3 -2.13323 -2.44262 0
M  V30 32247 H 3068.09 -3.62819 -1.48677 0
M  V30 32248 H 3069.58 -3.38436 -2.44645 0
M  V30 32249 N 3070.01 -0.00338196 -1.576 0
M  V30 32250 C 3071.24 0.695276 -1.95399 0
M  V30 32251 C 3071.66 1.66325 -0.878505 0
M  V30 32252 O 3071.02 1.80565 0.163054 0
M  V30 32253 C 3071.07 1.40044 -3.32295 0
M  V30 32254 O 3070.17 2.51497 -3.26838 0
M  V30 32255 H 3069.51 0.184683 -0.637799 0
M  V30 32256 H 3072.04 -0.0575789 -2.04519 0
M  V30 32257 H 3072.05 1.76309 -3.67939 0
M  V30 32258 H 3070.73 0.690731 -4.10124 0
M  V30 32259 H 3069.31 2.17533 -3.02876 0
M  V30 32260 N 3071.49 1.5528 0.269423 0
M  V30 32261 C 3072.72 1.79823 1.01721 0
M  V30 32262 C 3073.13 0.573564 1.80297 0
M  V30 32263 O 3072.47 -0.466932 1.77667 0
M  V30 32264 C 3072.53 2.97357 2.02038 0
M  V30 32265 C 3072.2 4.34259 1.42367 0
M  V30 32266 C 3073.2 5.1311 0.837521 0
M  V30 32267 C 3070.88 4.80922 1.4498 0
M  V30 32268 C 3072.87 6.36761 0.285445 0
M  V30 32269 C 3070.56 6.04527 0.893863 0
M  V30 32270 C 3071.56 6.82284 0.312689 0
M  V30 32271 O 3071.25 8.03557 -0.234723 0
M  V30 32272 H 3070.98 0.602762 0.306029 0
M  V30 32273 H 3073.53 2.0313 0.304504 0
M  V30 32274 H 3071.76 2.6975 2.77077 0
M  V30 32275 H 3073.45 3.09191 2.62974 0
M  V30 32276 H 3074.22 4.78188 0.810006 0
M  V30 32277 H 3070.1 4.20406 1.89155 0
M  V30 32278 H 3073.64 6.97396 -0.168818 0
M  V30 32279 H 3069.54 6.3893 0.91863 0
M  V30 32280 H 3070.31 8.18405 -0.124426 0
M  V30 32281 N 3072.97 -0.534097 1.48274 0
M  V30 32282 C 3074.38 -1.11607 1.49669 0
M  V30 32283 C 3074.73 -1.94413 0.264173 0
M  V30 32284 O 3073.86 -2.07055 -0.629047 0
M  V30 32285 C 3074.45 -2.03074 2.71194 0
M  V30 32286 C 3073.01 -2.56498 2.75474 0
M  V30 32287 C 3072.16 -1.33368 2.43122 0
M  V30 32288 H 3075.11 -0.319551 1.5545 0
M  V30 32289 H 3075.13 -2.87299 2.49478 0
M  V30 32290 H 3074.64 -1.42779 3.60882 0
M  V30 32291 H 3072.74 -3.20526 1.89984 0
M  V30 32292 H 3072.86 -2.95912 3.76793 0
M  V30 32293 H 3071.22 -1.6481 1.9419 0
M  V30 32294 H 3072 -0.748316 3.35045 0
M  V30 32295 N 3074.45 -1.36793 -0.782652 0
M  V30 32296 C 3075.4 -1.28194 -1.88548 0
M  V30 32297 C 3076.38 -0.172013 -1.59978 0
M  V30 32298 O 3077.57 -0.405435 -1.72294 0
M  V30 32299 C 3074.7 -1.08027 -3.25861 0
M  V30 32300 C 3073.79 -2.23517 -3.60418 0
M  V30 32301 N 3074.18 -3.48864 -3.66235 0
M  V30 32302 C 3072.48 -2.15431 -3.90519 0
M  V30 32303 C 3073.18 -4.24955 -3.97226 0
M  V30 32304 N 3072.15 -3.5397 -4.1256 0
M  V30 32305 H 3075.96 -2.23134 -1.91281 0
M  V30 32306 H 3073.47 -1.29609 -0.978532 0
M  V30 32307 H 3075.47 -0.999529 -4.04741 0
M  V30 32308 H 3074.13 -0.139939 -3.24398 0
M  V30 32309 H 3075.14 -3.82912 -3.48711 0
M  V30 32310 H 3071.82 -1.29393 -3.96943 0
M  V30 32311 H 3073.21 -5.33387 -4.08593 0
M  V30 32312 N 3075.93 1.00759 -1.21184 0
M  V30 32313 C 3076.84 2.12933 -0.984729 0
M  V30 32314 C 3077.85 1.73888 0.0623351 0
M  V30 32315 O 3079.03 2.00998 -0.127135 0
M  V30 32316 C 3076.09 3.42318 -0.549507 0
M  V30 32317 C 3075.15 3.95551 -1.66848 0
M  V30 32318 C 3074.39 5.1876 -1.25393 0
M  V30 32319 O 3074.61 5.7026 -0.126433 0
M  V30 32320 O 3073.54 5.65374 -2.06485 0
M  V30 32321 H 3077.37 2.34967 -1.92417 0
M  V30 32322 H 3074.96 1.11312 -0.99649 0
M  V30 32323 H 3076.84 4.2021 -0.316458 0
M  V30 32324 H 3075.51 3.21678 0.361248 0
M  V30 32325 H 3074.42 3.18897 -1.95591 0
M  V30 32326 H 3075.75 4.20595 -2.55657 0
M  V30 32327 N 3077.4 1.01917 1.20211 0
M  V30 32328 C 3078.65 0.71104 1.89926 0
M  V30 32329 C 3078.98 -0.757638 1.78811 0
M  V30 32330 O 3078.26 -1.55071 1.17402 0
M  V30 32331 C 3078.54 1.15059 3.41223 0
M  V30 32332 C 3078.39 2.67977 3.61259 0
M  V30 32333 C 3079.71 0.723846 4.34107 0
M  V30 32334 H 3076.83 0.259781 0.689698 0
M  V30 32335 H 3079.47 1.26737 1.41555 0
M  V30 32336 H 3077.62 0.677267 3.82551 0
M  V30 32337 H 3079.3 3.23182 3.29167 0
M  V30 32338 H 3077.54 3.08829 3.04642 0
M  V30 32339 H 3078.21 2.93787 4.67326 0
M  V30 32340 H 3080.69 1.1308 4.0044 0
M  V30 32341 H 3079.56 1.0594 5.38579 0
M  V30 32342 H 3079.82 -0.374346 4.40512 0
M  V30 32343 N 3078.88 -1.36036 0.795742 0
M  V30 32344 C 3080.16 -1.93366 0.294777 0
M  V30 32345 C 3080.54 -1.72698 -1.21402 0
M  V30 32346 O 3079.89 -1.08962 -2.00847 0
M  V30 32347 C 3080.1 -3.42024 0.694314 0
M  V30 32348 C 3081.45 -4.19158 0.67764 0
M  V30 32349 O 3082.47 -3.50491 0.635181 0
M  V30 32350 O 3081.33 -5.41653 0.726222 0
M  V30 32351 H 3078.42 -0.823632 0.0745603 0
M  V30 32352 H 3080.97 -1.45178 0.878711 0
M  V30 32353 H 3079.74 -3.5075 1.73464 0
M  V30 32354 H 3079.36 -3.9751 0.0846037 0
M  V30 32355 N 3080.36 -0.5483 -1.47755 0
M  V30 32356 C 3081.32 0.193817 -2.28379 0
M  V30 32357 C 3082.32 0.850962 -1.36438 0
M  V30 32358 O 3083.51 0.708192 -1.59155 0
M  V30 32359 C 3080.65 1.28238 -3.15861 0
M  V30 32360 H 3081.84 -0.514283 -2.95458 0
M  V30 32361 H 3079.39 -0.304906 -1.53297 0
M  V30 32362 H 3080.13 2.02316 -2.53454 0
M  V30 32363 H 3079.91 0.816081 -3.83513 0
M  V30 32364 H 3081.4 1.80386 -3.76631 0
M  V30 32365 N 3081.84 1.55014 -0.28431 0
M  V30 32366 C 3083.06 2.04664 0.335763 0
M  V30 32367 C 3083.49 1.16097 1.47997 0
M  V30 32368 O 3082.85 0.161486 1.80579 0
M  V30 32369 C 3082.89 3.5194 0.785553 0
M  V30 32370 O 3082 3.66441 1.89196 0
M  V30 32371 H 3081.34 0.660508 0.0680117 0
M  V30 32372 H 3083.87 2.00216 -0.42129 0
M  V30 32373 H 3083.88 3.93478 1.07885 0
M  V30 32374 H 3082.55 4.15868 -0.0515406 0
M  V30 32375 H 3081.13 3.36807 1.60049 0
M  V30 32376 N 3083.32 0.0117398 1.57596 0
M  V30 32377 C 3084.25 -0.974562 2.1219 0
M  V30 32378 C 3085.23 -1.35079 1.03381 0
M  V30 32379 O 3086.41 -1.43247 1.31125 0
M  V30 32380 C 3083.54 -2.26264 2.63481 0
M  V30 32381 C 3082.5 -2.02768 3.76921 0
M  V30 32382 C 3081.82 -3.3769 4.14572 0
M  V30 32383 C 3083.12 -1.38081 5.03717 0
M  V30 32384 H 3084.82 -0.519955 2.94851 0
M  V30 32385 H 3082.36 -0.248661 1.41837 0
M  V30 32386 H 3084.32 -2.95627 3.00304 0
M  V30 32387 H 3083.04 -2.73859 1.77958 0
M  V30 32388 H 3081.7 -1.35827 3.4051 0
M  V30 32389 H 3081.35 -3.83011 3.26055 0
M  V30 32390 H 3081.05 -3.22781 4.91005 0
M  V30 32391 H 3082.57 -4.0835 4.53963 0
M  V30 32392 H 3083.98 -1.97418 5.38237 0
M  V30 32393 H 3082.38 -1.33623 5.85034 0
M  V30 32394 H 3083.45 -0.35149 4.83624 0
M  V30 32395 N 3084.79 -1.55421 -0.261185 0
M  V30 32396 C 3085.72 -1.92121 -1.32709 0
M  V30 32397 C 3086.71 -0.784433 -1.50933 0
M  V30 32398 O 3087.89 -1.04355 -1.63779 0
M  V30 32399 C 3085.02 -2.20346 -2.68449 0
M  V30 32400 C 3083.97 -3.36141 -2.64941 0
M  V30 32401 C 3083.3 -3.49872 -4.04343 0
M  V30 32402 C 3084.6 -4.72219 -2.23174 0
M  V30 32403 H 3086.29 -2.81402 -1.0224 0
M  V30 32404 H 3083.84 -1.35393 -0.490382 0
M  V30 32405 H 3085.79 -2.44609 -3.43139 0
M  V30 32406 H 3084.52 -1.27876 -3.00525 0
M  V30 32407 H 3083.18 -3.11864 -1.92708 0
M  V30 32408 H 3082.82 -2.54848 -4.33661 0
M  V30 32409 H 3082.52 -4.27733 -4.02887 0
M  V30 32410 H 3084.05 -3.76441 -4.80754 0
M  V30 32411 H 3085.46 -4.95948 -2.87591 0
M  V30 32412 H 3083.86 -5.5308 -2.32858 0
M  V30 32413 H 3084.93 -4.70243 -1.18318 0
M  V30 32414 N 3086.27 0.526227 -1.48555 0
M  V30 32415 C 3087.24 1.61263 -1.62871 0
M  V30 32416 C 3088.24 1.5277 -0.501789 0
M  V30 32417 O 3089.43 1.56373 -0.767668 0
M  V30 32418 C 3086.56 3.0089 -1.60243 0
M  V30 32419 H 3087.75 1.49908 -2.59745 0
M  V30 32420 H 3085.3 0.748571 -1.37208 0
M  V30 32421 H 3086.04 3.17748 -0.648601 0
M  V30 32422 H 3085.82 3.08463 -2.42059 0
M  V30 32423 H 3087.31 3.79869 -1.73462 0
M  V30 32424 N 3087.75 1.37206 0.775387 0
M  V30 32425 C 3088.68 1.28547 1.89758 0
M  V30 32426 C 3089.7 0.202025 1.61542 0
M  V30 32427 O 3090.88 0.457879 1.72527 0
M  V30 32428 C 3087.98 0.963942 3.24902 0
M  V30 32429 C 3087.16 2.15212 3.80792 0
M  V30 32430 C 3086.22 1.80143 4.94403 0
M  V30 32431 O 3085.24 2.52397 5.10181 0
M  V30 32432 N 3086.44 0.743399 5.7572 0
M  V30 32433 H 3089.21 2.25241 1.97704 0
M  V30 32434 H 3086.77 1.30783 0.954325 0
M  V30 32435 H 3088.76 0.710252 3.98419 0
M  V30 32436 H 3087.33 0.085687 3.12483 0
M  V30 32437 H 3086.55 2.56778 2.99097 0
M  V30 32438 H 3087.84 2.94559 4.14864 0
M  V30 32439 H 3087.24 0.143754 5.65517 0
M  V30 32440 H 3085.8 0.54956 6.49479 0
M  V30 32441 N 3089.23 -1.00115 1.21716 0
M  V30 32442 C 3090.45 -1.78052 1.0636 0
M  V30 32443 C 3090.88 -1.84179 -0.382043 0
M  V30 32444 O 3090.24 -1.28821 -1.27573 0
M  V30 32445 C 3090.28 -3.19605 1.66988 0
M  V30 32446 O 3089.39 -4.02054 0.917963 0
M  V30 32447 H 3088.73 -0.548596 0.374084 0
M  V30 32448 H 3091.26 -1.25819 1.6134 0
M  V30 32449 H 3091.27 -3.70265 1.71369 0
M  V30 32450 H 3089.94 -3.1446 2.72191 0
M  V30 32451 H 3088.52 -3.60608 0.949536 0
M  V30 32452 N 3090.71 -1.02553 -1.19669 0
M  V30 32453 C 3091.96 -0.718613 -1.88892 0
M  V30 32454 C 3092.28 0.754824 -1.79798 0
M  V30 32455 O 3091.55 1.54359 -1.20623 0
M  V30 32456 H 3090.13 -0.262818 -0.699239 0
M  V30 32457 H 3092.79 -1.29904 -1.45296 0
M  V30 32458 H 3091.88 -1.00994 -2.95308 0
M  V30 32459 N 3092.19 1.35612 -0.802945 0
M  V30 32460 C 3093.13 2.29854 -0.208781 0
M  V30 32461 C 3094.1 1.52636 0.655101 0
M  V30 32462 O 3095.29 1.81089 0.600947 0
M  V30 32463 C 3092.43 3.39121 0.639604 0
M  V30 32464 C 3091.54 4.31309 -0.24431 0
M  V30 32465 C 3090.68 5.27666 0.611732 0
M  V30 32466 C 3089.71 6.11492 -0.272805 0
M  V30 32467 N 3088.85 6.99997 0.542999 0
M  V30 32468 H 3093.69 2.80078 -1.01787 0
M  V30 32469 H 3091.23 1.37847 -0.513489 0
M  V30 32470 H 3093.19 4.01134 1.14661 0
M  V30 32471 H 3091.82 2.90183 1.41399 0
M  V30 32472 H 3090.87 3.70332 -0.869387 0
M  V30 32473 H 3092.18 4.90143 -0.925288 0
M  V30 32474 H 3091.33 5.95034 1.18401 0
M  V30 32475 H 3090.07 4.6932 1.32629 0
M  V30 32476 H 3089.08 5.43074 -0.857382 0
M  V30 32477 H 3090.3 6.71916 -0.985169 0
M  V30 32478 H 3088.25 6.44143 1.2416 0
M  V30 32479 H 3088.17 7.55958 -0.0800095 0
M  V30 32480 H 3089.43 7.71719 1.09867 0
M  V30 32481 N 3093.66 0.556128 1.47462 0
M  V30 32482 C 3094.94 -0.0339548 1.95571 0
M  V30 32483 C 3095.32 -1.48666 1.49872 0
M  V30 32484 O 3094.67 -2.16286 0.737057 0
M  V30 32485 C 3094.88 0.110404 3.48825 0
M  V30 32486 C 3096.23 -0.035497 4.24585 0
M  V30 32487 O 3097.25 0.0378982 3.5618 0
M  V30 32488 O 3096.11 -0.193203 5.46158 0
M  V30 32489 H 3093.2 -0.0647376 0.824462 0
M  V30 32490 H 3095.75 0.622575 1.57867 0
M  V30 32491 H 3094.52 1.12133 3.74889 0
M  V30 32492 H 3094.14 -0.583786 3.93291 0
M  V30 32493 N 3095.14 -1.54861 0.292527 0
M  V30 32494 C 3096.37 -2.04081 -0.321611 0
M  V30 32495 C 3096.78 -1.1697 -1.4871 0
M  V30 32496 O 3096.12 -0.186122 -1.82755 0
M  V30 32497 C 3096.18 -3.4934 -0.848617 0
M  V30 32498 C 3095.85 -4.56603 0.190496 0
M  V30 32499 C 3096.85 -5.09875 1.01604 0
M  V30 32500 C 3094.53 -5.01216 0.329754 0
M  V30 32501 C 3096.52 -6.06295 1.96687 0
M  V30 32502 C 3094.21 -5.97458 1.28403 0
M  V30 32503 C 3095.21 -6.4988 2.10108 0
M  V30 32504 O 3094.9 -7.44237 3.0392 0
M  V30 32505 H 3094.63 -0.671817 -0.0750862 0
M  V30 32506 H 3097.18 -2.00901 0.427566 0
M  V30 32507 H 3095.41 -3.49817 -1.64817 0
M  V30 32508 H 3097.1 -3.81803 -1.37772 0
M  V30 32509 H 3097.87 -4.76208 0.919281 0
M  V30 32510 H 3093.75 -4.60047 -0.296237 0
M  V30 32511 H 3097.29 -6.47136 2.605 0
M  V30 32512 H 3093.19 -6.30542 1.38155 0
M  V30 32513 H 3093.96 -7.62011 2.98801 0
M  V30 32514 N 3096.62 -0.0200973 -1.57587 0
M  V30 32515 C 3097.87 0.659187 -1.91047 0
M  V30 32516 C 3098.19 1.73184 -0.896227 0
M  V30 32517 O 3097.46 1.95797 0.0635608 0
M  V30 32518 H 3096.04 0.24647 -0.705168 0
M  V30 32519 H 3098.7 -0.065771 -1.94789 0
M  V30 32520 H 3097.8 1.11767 -2.91401 0
M  V30 32521 N 3098.1 1.55557 0.252939 0
M  V30 32522 C 3099.03 1.92822 1.31688 0
M  V30 32523 C 3100.01 0.792426 1.50515 0
M  V30 32524 O 3101.19 1.05222 1.63224 0
M  V30 32525 C 3098.32 2.21766 2.67277 0
M  V30 32526 C 3097.28 3.37541 2.63154 0
M  V30 32527 C 3096.6 3.52012 4.02482 0
M  V30 32528 C 3097.9 4.73396 2.20667 0
M  V30 32529 H 3099.6 2.81941 1.00746 0
M  V30 32530 H 3097.14 1.35651 0.483195 0
M  V30 32531 H 3099.1 2.46425 3.41837 0
M  V30 32532 H 3097.82 1.29468 2.99843 0
M  V30 32533 H 3096.48 3.12882 1.91052 0
M  V30 32534 H 3096.13 2.57144 4.32303 0
M  V30 32535 H 3095.83 4.29864 4.00613 0
M  V30 32536 H 3097.35 3.78985 4.78751 0
M  V30 32537 H 3098.77 4.97466 2.84957 0
M  V30 32538 H 3097.16 5.54307 2.29921 0
M  V30 32539 H 3098.23 4.70864 1.15823 0
M  V30 32540 N 3099.58 -0.518341 1.48832 0
M  V30 32541 C 3100.8 -1.29797 1.61122 0
M  V30 32542 C 3101.22 -1.86773 0.275905 0
M  V30 32543 O 3100.58 -1.66984 -0.736387 0
M  V30 32544 C 3100.63 -2.44058 2.6668 0
M  V30 32545 O 3100.35 -1.89427 3.9503 0
M  V30 32546 C 3101.85 -3.35701 2.89516 0
M  V30 32547 H 3099.07 -0.394304 0.542923 0
M  V30 32548 H 3101.61 -0.624108 1.94744 0
M  V30 32549 H 3099.77 -3.07307 2.35884 0
M  V30 32550 H 3100.18 -2.64308 4.53036 0
M  V30 32551 H 3101.66 -4.12196 3.67149 0
M  V30 32552 H 3102.13 -3.91644 1.98775 0
M  V30 32553 H 3102.74 -2.78235 3.21661 0
M  V30 32554 N 3101.05 -1.37615 -0.7681 0
M  V30 32555 C 3101.99 -1.28044 -1.88892 0
M  V30 32556 C 3102.96 -0.160254 -1.61808 0
M  V30 32557 O 3104.15 -0.335092 -1.85498 0
M  V30 32558 C 3101.28 -0.98058 -3.24195 0
M  V30 32559 C 3100.32 -2.11815 -3.70185 0
M  V30 32560 S 3101.15 -3.73824 -3.83427 0
M  V30 32561 C 3102.31 -3.45996 -5.21572 0
M  V30 32562 H 3102.54 -2.22907 -1.96722 0
M  V30 32563 H 3100.08 -1.23281 -0.929581 0
M  V30 32564 H 3102.03 -0.814402 -4.0234 0
M  V30 32565 H 3100.7 -0.0493674 -3.14061 0
M  V30 32566 H 3099.89 -1.86344 -4.68286 0
M  V30 32567 H 3099.49 -2.24465 -2.99151 0
M  V30 32568 H 3101.78 -3.0121 -6.0686 0
M  V30 32569 H 3102.73 -4.43439 -5.52058 0
M  V30 32570 H 3103.13 -2.8084 -4.89682 0
M  V30 32571 N 3102.53 0.994677 -1.22245 0
M  V30 32572 C 3103.76 1.7695 -1.07221 0
M  V30 32573 C 3104.17 1.8499 0.377356 0
M  V30 32574 O 3103.53 1.31876 1.26154 0
M  V30 32575 C 3103.58 3.20352 -1.67502 0
M  V30 32576 O 3103.3 3.1275 -3.06788 0
M  V30 32577 C 3104.8 4.14291 -1.57728 0
M  V30 32578 H 3102.02 0.555773 -0.375976 0
M  V30 32579 H 3104.57 1.25063 -1.61801 0
M  V30 32580 H 3102.72 3.69313 -1.16989 0
M  V30 32581 H 3103.14 4.0292 -3.35791 0
M  V30 32582 H 3104.61 5.12669 -2.04632 0
M  V30 32583 H 3105.09 4.35948 -0.533511 0
M  V30 32584 H 3105.69 3.71225 -2.07538 0
M  V30 32585 N 3104.01 1.03186 1.19123 0
M  V30 32586 C 3105.42 0.759294 1.70563 0
M  V30 32587 C 3105.77 -0.720761 1.82481 0
M  V30 32588 O 3104.9 -1.56163 1.49807 0
M  V30 32589 C 3105.49 1.37168 3.09791 0
M  V30 32590 C 3104.05 1.14763 3.58478 0
M  V30 32591 C 3103.2 1.46788 2.35263 0
M  V30 32592 H 3106.15 1.19941 1.03923 0
M  V30 32593 H 3106.17 0.770215 3.72623 0
M  V30 32594 H 3105.68 2.44888 3.01084 0
M  V30 32595 H 3103.78 0.0887837 3.72494 0
M  V30 32596 H 3103.9 1.83844 4.42423 0
M  V30 32597 H 3102.26 0.887296 2.38745 0
M  V30 32598 H 3103.04 2.55597 2.29183 0
M  V30 32599 N 3105.49 -1.35184 0.810125 0
M  V30 32600 C 3106.45 -2.28058 0.22856 0
M  V30 32601 C 3107.45 -1.49736 -0.586142 0
M  V30 32602 O 3108.64 -1.69448 -0.40411 0
M  V30 32603 C 3105.77 -3.34029 -0.680983 0
M  V30 32604 H 3106.97 -2.81003 1.04773 0
M  V30 32605 H 3104.52 -1.45099 0.581036 0
M  V30 32606 H 3105.25 -2.86276 -1.5237 0
M  V30 32607 H 3105.04 -3.91976 -0.0984587 0
M  V30 32608 H 3106.53 -4.03337 -1.08209 0
M  V30 32609 N 3106.97 -0.56394 -1.47165 0
M  V30 32610 C 3108.24 0.0235828 -1.95586 0
M  V30 32611 C 3108.62 1.47869 -1.50658 0
M  V30 32612 O 3107.97 2.15892 -0.748517 0
M  V30 32613 C 3108.18 -0.128902 -3.48762 0
M  V30 32614 C 3109.53 0.0129797 -4.24598 0
M  V30 32615 O 3110.55 -0.0567868 -3.56155 0
M  V30 32616 O 3109.41 0.164236 -5.46253 0
M  V30 32617 H 3106.51 0.0603644 -0.824794 0
M  V30 32618 H 3109.05 -0.630938 -1.57535 0
M  V30 32619 H 3107.82 -1.1412 -3.74289 0
M  V30 32620 H 3107.45 0.562921 -3.93595 0
M  V30 32621 N 3108.44 1.54704 -0.300735 0
M  V30 32622 C 3109.39 2.2351 0.575481 0
M  V30 32623 C 3110.36 1.2176 1.12977 0
M  V30 32624 O 3111.55 1.50379 1.17434 0
M  V30 32625 C 3108.69 2.97929 1.74162 0
M  V30 32626 C 3107.8 4.14452 1.21875 0
M  V30 32627 C 3106.93 4.76454 2.34873 0
M  V30 32628 C 3105.97 5.85122 1.79718 0
M  V30 32629 N 3105.11 6.4108 2.86289 0
M  V30 32630 H 3109.95 2.97995 -0.0178781 0
M  V30 32631 H 3107.49 1.47086 -0.0205924 0
M  V30 32632 H 3109.45 3.39307 2.42748 0
M  V30 32633 H 3108.08 2.25821 2.30661 0
M  V30 32634 H 3107.13 3.78017 0.42516 0
M  V30 32635 H 3108.44 4.92743 0.774979 0
M  V30 32636 H 3107.59 5.20683 3.11406 0
M  V30 32637 H 3106.33 3.97494 2.82577 0
M  V30 32638 H 3105.34 5.40317 1.01674 0
M  V30 32639 H 3106.56 6.65965 1.32919 0
M  V30 32640 H 3104.51 5.65004 3.33327 0
M  V30 32641 H 3104.43 7.14716 2.46407 0
M  V30 32642 H 3105.69 6.89967 3.6272 0
M  V30 32643 N 3109.92 0.0284543 1.57574 0
M  V30 32644 C 3111.15 -0.664102 1.9648 0
M  V30 32645 C 3111.57 -1.64906 0.904855 0
M  V30 32646 O 3110.93 -1.80802 -0.134307 0
M  V30 32647 C 3110.98 -1.34739 3.34481 0
M  V30 32648 O 3110.08 -2.46265 3.30798 0
M  V30 32649 H 3109.42 -0.174513 0.640657 0
M  V30 32650 H 3111.95 0.0901088 2.04401 0
M  V30 32651 H 3111.96 -1.70433 3.70697 0
M  V30 32652 H 3110.64 -0.625396 4.11171 0
M  V30 32653 H 3109.22 -2.12687 3.06298 0
M  V30 32654 N 3111.4 -1.55689 -0.244686 0
M  V30 32655 C 3112.36 -1.89697 -1.28637 0
M  V30 32656 C 3113.36 -0.773608 -1.40968 0
M  V30 32657 O 3114.55 -1.04158 -1.39631 0
M  V30 32658 C 3111.69 -2.12737 -2.66375 0
M  V30 32659 H 3112.88 -2.82843 -0.996983 0
M  V30 32660 H 3110.43 -1.48615 -0.484077 0
M  V30 32661 H 3111.17 -1.22067 -3.0045 0
M  V30 32662 H 3110.95 -2.94553 -2.58806 0
M  V30 32663 H 3112.44 -2.40224 -3.41588 0
M  V30 32664 N 3112.88 0.510441 -1.49105 0
M  V30 32665 C 3114.11 1.28941 -1.61808 0
M  V30 32666 C 3114.52 1.86624 -0.285806 0
M  V30 32667 O 3113.88 1.67372 0.727521 0
M  V30 32668 C 3113.93 2.4264 -2.6797 0
M  V30 32669 O 3113.65 1.8733 -3.96029 0
M  V30 32670 C 3115.15 3.34161 -2.91292 0
M  V30 32671 H 3112.37 0.391419 -0.545006 0
M  V30 32672 H 3114.92 0.613771 -1.95072 0
M  V30 32673 H 3113.07 3.06051 -2.37511 0
M  V30 32674 H 3113.48 2.61901 -4.54431 0
M  V30 32675 H 3114.96 4.10243 -3.6933 0
M  V30 32676 H 3115.44 3.90584 -2.00849 0
M  V30 32677 H 3116.04 2.76525 -3.23132 0
M  V30 32678 N 3114.36 1.38021 0.760791 0
M  V30 32679 C 3115.6 1.33833 1.5197 0
M  V30 32680 C 3115.93 -0.0738513 1.9436 0
M  V30 32681 O 3115.19 -1.04943 1.65183 0
M  V30 32682 C 3115.49 2.23344 2.7902 0
M  V30 32683 C 3115.15 3.71436 2.55629 0
M  V30 32684 C 3113.81 4.11792 2.48959 0
M  V30 32685 C 3116.17 4.65209 2.3501 0
M  V30 32686 C 3113.49 5.44022 2.19674 0
M  V30 32687 C 3115.85 5.97688 2.07248 0
M  V30 32688 C 3114.51 6.37137 1.99029 0
M  V30 32689 H 3113.78 0.489729 0.556099 0
M  V30 32690 H 3116.43 1.70319 0.87542 0
M  V30 32691 H 3114.73 1.79889 3.48062 0
M  V30 32692 H 3116.43 2.17411 3.36947 0
M  V30 32693 H 3113.02 3.39436 2.61689 0
M  V30 32694 H 3117.2 4.34882 2.39147 0
M  V30 32695 H 3112.46 5.73537 2.11814 0
M  V30 32696 H 3116.63 6.69896 1.90295 0
M  V30 32697 H 3114.26 7.39522 1.76102 0
M  V30 32698 N 3115.83 -0.98818 1.22771 0
M  V30 32699 C 3116.74 -2.11339 1.01848 0
M  V30 32700 C 3117.76 -1.73965 -0.0346631 0
M  V30 32701 O 3118.94 -2.00771 0.159096 0
M  V30 32702 C 3116 -3.414 0.603897 0
M  V30 32703 C 3115.06 -3.92846 1.7312 0
M  V30 32704 C 3114.3 -5.167 1.3363 0
M  V30 32705 O 3114.52 -5.69987 0.217141 0
M  V30 32706 O 3113.45 -5.62017 2.15453 0
M  V30 32707 H 3117.28 -2.31876 1.96131 0
M  V30 32708 H 3114.86 -1.09713 1.01407 0
M  V30 32709 H 3116.75 -4.19653 0.38327 0
M  V30 32710 H 3115.42 -3.22212 -0.310026 0
M  V30 32711 H 3114.33 -3.15745 2.00639 0
M  V30 32712 H 3115.66 -4.16475 2.62316 0
M  V30 32713 N 3117.31 -1.03816 -1.18575 0
M  V30 32714 C 3118.54 -0.76 -1.92436 0
M  V30 32715 C 3118.96 0.682495 -1.76033 0
M  V30 32716 O 3118.31 1.46499 -1.08831 0
M  V30 32717 C 3118.36 -1.11357 -3.43921 0
M  V30 32718 O 3118.08 -2.49943 -3.59806 0
M  V30 32719 C 3119.59 -0.859548 -4.34887 0
M  V30 32720 H 3116.81 -0.27736 -0.610993 0
M  V30 32721 H 3119.35 -1.38515 -1.50446 0
M  V30 32722 H 3117.5 -0.53343 -3.8371 0
M  V30 32723 H 3117.92 -2.63401 -4.53564 0
M  V30 32724 H 3119.39 -1.15682 -5.39742 0
M  V30 32725 H 3119.87 0.205762 -4.38718 0
M  V30 32726 H 3120.48 -1.42287 -4.00793 0
M  V30 32727 N 3118.79 1.34753 -0.817283 0
M  V30 32728 C 3120.04 1.9875 -0.403279 0
M  V30 32729 C 3120.37 1.6466 1.0296 0
M  V30 32730 O 3119.64 0.915344 1.71615 0
M  V30 32731 C 3119.93 3.55079 -0.59925 0
M  V30 32732 C 3119.78 3.98931 -2.07784 0
M  V30 32733 C 3121.1 4.40089 -0.0316429 0
M  V30 32734 H 3118.22 0.721987 -0.148001 0
M  V30 32735 H 3120.86 1.59736 -1.0288 0
M  V30 32736 H 3119.01 3.88443 -0.0667799 0
M  V30 32737 H 3120.68 3.75927 -2.67352 0
M  V30 32738 H 3118.93 3.49448 -2.57037 0
M  V30 32739 H 3119.6 5.07737 -2.1658 0
M  V30 32740 H 3122.07 4.13246 -0.486512 0
M  V30 32741 H 3120.95 5.48541 -0.198604 0
M  V30 32742 H 3121.21 4.29132 1.06295 0
M  V30 32743 N 3120.27 0.571737 1.46864 0
M  V30 32744 C 3121.5 0.0584339 2.06817 0
M  V30 32745 C 3121.91 -1.24173 1.4222 0
M  V30 32746 O 3121.27 -1.74825 0.523686 0
M  V30 32747 C 3121.32 -0.125609 3.61282 0
M  V30 32748 O 3121.04 1.12308 4.2346 0
M  V30 32749 C 3122.54 -0.674527 4.38138 0
M  V30 32750 H 3119.76 0.0524497 0.668947 0
M  V30 32751 H 3122.31 0.789285 1.88655 0
M  V30 32752 H 3120.46 -0.80664 3.78909 0
M  V30 32753 H 3120.88 0.929959 5.1619 0
M  V30 32754 H 3122.35 -0.75253 5.46846 0
M  V30 32755 H 3122.83 -1.68908 4.05422 0
M  V30 32756 H 3123.43 -0.0287231 4.2529 0
M  V30 32757 N 3121.75 -1.54542 0.308935 0
M  V30 32758 C 3122.99 -2.01304 -0.291276 0
M  V30 32759 C 3123.35 -1.19342 -1.50915 0
M  V30 32760 O 3122.64 -0.263757 -1.89776 0
M  V30 32761 C 3122.84 -3.50647 -0.69146 0
M  V30 32762 C 3122.66 -4.47065 0.486086 0
M  V30 32763 C 3121.43 -4.95694 0.980603 0
M  V30 32764 C 3123.63 -4.96709 1.33361 0
M  V30 32765 N 3121.61 -5.75983 2.12408 0
M  V30 32766 C 3122.99 -5.74777 2.32446 0
M  V30 32767 C 3125.04 -4.78879 1.36306 0
M  V30 32768 C 3123.74 -6.36915 3.34263 0
M  V30 32769 C 3125.77 -5.41841 2.36986 0
M  V30 32770 C 3125.13 -6.19749 3.348 0
M  V30 32771 H 3121.23 -0.778786 -0.0708281 0
M  V30 32772 H 3123.81 -1.89648 0.440654 0
M  V30 32773 H 3121.99 -3.62578 -1.39255 0
M  V30 32774 H 3123.72 -3.84194 -1.27189 0
M  V30 32775 H 3120.47 -4.70345 0.554272 0
M  V30 32776 H 3120.9 -6.20809 2.70046 0
M  V30 32777 H 3125.54 -4.18221 0.620546 0
M  V30 32778 H 3123.26 -6.96702 4.09429 0
M  V30 32779 H 3126.84 -5.2997 2.40049 0
M  V30 32780 H 3125.72 -6.67604 4.1143 0
M  V30 32781 N 3123.23 -0.0368104 -1.57557 0
M  V30 32782 C 3124.14 0.957979 -2.14149 0
M  V30 32783 C 3125.15 1.35171 -1.09566 0
M  V30 32784 O 3126.33 1.43156 -1.41663 0
M  V30 32785 C 3123.39 2.21926 -2.66364 0
M  V30 32786 C 3122.45 1.88523 -3.85691 0
M  V30 32787 C 3121.69 3.08638 -4.35406 0
M  V30 32788 O 3121.91 4.21547 -3.84258 0
M  V30 32789 O 3120.84 2.90488 -5.27163 0
M  V30 32790 H 3124.67 0.506744 -2.99442 0
M  V30 32791 H 3122.25 0.184249 -1.4826 0
M  V30 32792 H 3124.14 2.95955 -2.99981 0
M  V30 32793 H 3122.81 2.66215 -1.8415 0
M  V30 32794 H 3121.72 1.11855 -3.56986 0
M  V30 32795 H 3123.05 1.49044 -4.69091 0
M  V30 32796 N 3124.7 1.55817 0.236426 0
M  V30 32797 C 3125.65 1.92028 1.31256 0
M  V30 32798 C 3126.65 0.800544 1.4929 0
M  V30 32799 O 3127.85 0.985256 1.50641 0
M  V30 32800 H 3124.23 0.610027 0.43974 0
M  V30 32801 H 3126.2 2.81853 0.979877 0
M  V30 32802 C 3124.95 2.24051 2.65888 0
M  V30 32803 H 3124.27 3.09718 2.52814 0
M  V30 32804 H 3125.71 2.53283 3.40035 0
M  V30 32805 C 3124.17 1.06045 3.19775 0
M  V30 32806 O 3124.7 0.313856 4.00472 0
M  V30 32807 N 3122.9 0.848258 2.77944 0
M  V30 32808 H 3122.45 1.45709 2.1243 0
M  V30 32809 H 3122.41 0.0603977 3.14342 0
M  V30 32810 N 3126.18 -0.502526 1.49373 0
M  V30 32811 C 3127.43 -1.25861 1.59018 0
M  V30 32812 C 3127.76 -1.92238 0.275353 0
M  V30 32813 O 3127.04 -1.80645 -0.720956 0
M  V30 32814 C 3127.32 -2.32678 2.74832 0
M  V30 32815 C 3127.17 -1.70813 4.16105 0
M  V30 32816 C 3128.49 -3.34251 2.86294 0
M  V30 32817 H 3125.61 -0.456237 0.578806 0
M  V30 32818 H 3128.25 -0.557 1.81652 0
M  V30 32819 H 3126.4 -2.9252 2.55665 0
M  V30 32820 H 3128.07 -1.1481 4.46784 0
M  V30 32821 H 3126.32 -1.0123 4.21823 0
M  V30 32822 H 3126.99 -2.48283 4.93011 0
M  V30 32823 H 3129.46 -2.84399 3.03738 0
M  V30 32824 H 3128.34 -4.06355 3.69008 0
M  V30 32825 H 3128.6 -3.96484 1.95583 0
M  V30 32826 N 3127.66 -1.38422 -0.75346 0
M  V30 32827 C 3128.89 -1.37871 -1.5427 0
M  V30 32828 C 3129.3 0.0314823 -1.88774 0
M  V30 32829 O 3128.66 0.998121 -1.52787 0
M  V30 32830 C 3128.71 -2.23443 -2.84175 0
M  V30 32831 O 3128.43 -3.58969 -2.51143 0
M  V30 32832 C 3129.93 -2.31074 -3.78312 0
M  V30 32833 H 3127.15 -0.471578 -0.477342 0
M  V30 32834 H 3129.7 -1.82003 -0.932477 0
M  V30 32835 H 3127.85 -1.82773 -3.41574 0
M  V30 32836 H 3128.27 -4.04027 -3.34459 0
M  V30 32837 H 3129.74 -2.95234 -4.66413 0
M  V30 32838 H 3130.22 -1.32443 -4.18755 0
M  V30 32839 H 3130.82 -2.72135 -3.26837 0
M  V30 32840 N 3129.14 0.981655 -1.23294 0
M  V30 32841 C 3130.38 1.72277 -1.06427 0
M  V30 32842 C 3130.71 1.90363 0.399021 0
M  V30 32843 O 3129.97 1.45226 1.31179 0
M  V30 32844 C 3130.27 3.12548 -1.73344 0
M  V30 32845 C 3129.93 3.14345 -3.23261 0
M  V30 32846 C 3128.59 3.14543 -3.64165 0
M  V30 32847 C 3130.95 3.09758 -4.19165 0
M  V30 32848 C 3128.27 3.07868 -4.99434 0
M  V30 32849 C 3130.63 3.04625 -5.54424 0
M  V30 32850 C 3129.29 3.03144 -5.94693 0
M  V30 32851 H 3128.56 0.630408 -0.389445 0
M  V30 32852 H 3131.21 1.14887 -1.5321 0
M  V30 32853 H 3129.51 3.73317 -1.18918 0
M  V30 32854 H 3131.21 3.68658 -1.57773 0
M  V30 32855 H 3127.8 3.14948 -2.90699 0
M  V30 32856 H 3131.98 3.08746 -3.88574 0
M  V30 32857 H 3127.24 3.05073 -5.29849 0
M  V30 32858 H 3131.41 3.00032 -6.28453 0
M  V30 32859 H 3129.04 2.97726 -6.99473 0
M  V30 32860 N 3130.62 1.04444 1.18022 0
M  V30 32861 C 3131.55 0.659722 2.23986 0
M  V30 32862 C 3132.53 -0.338875 1.6669 0
M  V30 32863 O 3133.71 -0.218136 1.92971 0
M  V30 32864 C 3130.84 0.0258283 3.4729 0
M  V30 32865 C 3129.8 0.948373 4.17361 0
M  V30 32866 C 3129.12 0.178754 5.34401 0
M  V30 32867 C 3130.42 2.26918 4.70431 0
M  V30 32868 H 3132.12 1.54558 2.56422 0
M  V30 32869 H 3129.66 0.744596 1.23255 0
M  V30 32870 H 3131.61 -0.255057 4.20627 0
M  V30 32871 H 3130.34 -0.894926 3.141 0
M  V30 32872 H 3129 1.2137 3.45926 0
M  V30 32873 H 3128.65 -0.744526 4.97459 0
M  V30 32874 H 3128.35 0.793397 5.82219 0
M  V30 32875 H 3129.87 -0.0950242 6.10526 0
M  V30 32876 H 3131.28 2.04873 5.35444 0
M  V30 32877 H 3129.68 2.83712 5.28798 0
M  V30 32878 H 3130.75 2.91303 3.87648 0
M  V30 32879 N 3132.09 -1.34317 0.824418 0
M  V30 32880 C 3133.04 -2.29493 0.245322 0
M  V30 32881 C 3134.01 -1.53659 -0.630735 0
M  V30 32882 O 3135.2 -1.82022 -0.572062 0
M  V30 32883 C 3132.34 -3.40096 -0.585572 0
M  V30 32884 C 3131.45 -4.30865 0.312897 0
M  V30 32885 C 3130.58 -5.28572 -0.527708 0
M  V30 32886 C 3129.62 -6.1098 0.370054 0
M  V30 32887 N 3128.76 -7.00772 -0.431566 0
M  V30 32888 H 3133.6 -2.78423 1.0623 0
M  V30 32889 H 3131.14 -1.37012 0.535354 0
M  V30 32890 H 3133.09 -4.02908 -1.08264 0
M  V30 32891 H 3131.72 -2.92396 -1.36765 0
M  V30 32892 H 3130.78 -3.68902 0.928194 0
M  V30 32893 H 3132.09 -4.88609 1.00315 0
M  V30 32894 H 3131.24 -5.96843 -1.0892 0
M  V30 32895 H 3129.98 -4.7137 -1.25146 0
M  V30 32896 H 3128.99 -5.41641 0.943672 0
M  V30 32897 H 3130.21 -6.70264 1.09194 0
M  V30 32898 H 3128.16 -6.46037 -1.13896 0
M  V30 32899 H 3128.07 -7.55735 0.200266 0
M  V30 32900 H 3129.34 -7.73369 -0.975759 0
M  V30 32901 N 3133.57 -0.579517 -1.46558 0
M  V30 32902 C 3134.99 -0.240948 -1.57771 0
M  V30 32903 C 3135.19 1.25673 -1.57507 0
M  V30 32904 O 3134.24 2.03827 -1.49034 0
M  V30 32905 C 3135.56 -0.887335 -2.8731 0
M  V30 32906 C 3137.1 -0.860629 -3.00935 0
M  V30 32907 C 3137.58 -1.4865 -4.33206 0
M  V30 32908 N 3139.07 -1.45069 -4.39897 0
M  V30 32909 C 3139.81 -1.90437 -5.40852 0
M  V30 32910 N 3139.3 -2.43764 -6.48499 0
M  V30 32911 N 3141.09 -1.81373 -5.32034 0
M  V30 32912 H 3133.25 -1.5523 -1.44974 0
M  V30 32913 H 3135.51 -0.648652 -0.691343 0
M  V30 32914 H 3135.21 -1.94076 -2.93304 0
M  V30 32915 H 3135.09 -0.393643 -3.7514 0
M  V30 32916 H 3137.48 0.184171 -2.94525 0
M  V30 32917 H 3137.56 -1.39231 -2.14589 0
M  V30 32918 H 3137.2 -2.53048 -4.40374 0
M  V30 32919 H 3137.13 -0.930072 -5.18322 0
M  V30 32920 H 3139.62 -1.06086 -3.62704 0
M  V30 32921 H 3139.93 -2.76247 -7.21739 0
M  V30 32922 H 3138.28 -2.47787 -6.49328 0
M  V30 32923 H 3141.47 -1.39473 -4.46839 0
M  V30 32924 H 3141.64 -2.17046 -6.10569 0
M  V30 32925 N 3135.05 1.54376 -0.317127 0
M  V30 32926 C 3136.3 2.00451 0.287375 0
M  V30 32927 C 3136.63 1.20538 1.52646 0
M  V30 32928 O 3135.88 0.273865 1.93774 0
M  V30 32929 C 3136.18 3.51009 0.672855 0
M  V30 32930 C 3135.85 4.48482 -0.466324 0
M  V30 32931 C 3134.51 4.74852 -0.779016 0
M  V30 32932 C 3136.86 5.06434 -1.23185 0
M  V30 32933 C 3134.19 5.56434 -1.86007 0
M  V30 32934 C 3136.54 5.89192 -2.30294 0
M  V30 32935 C 3135.2 6.13867 -2.62152 0
M  V30 32936 H 3134.47 0.7335 0.105158 0
M  V30 32937 H 3137.12 1.86387 -0.439571 0
M  V30 32938 H 3135.43 3.62766 1.48013 0
M  V30 32939 H 3137.12 3.84096 1.15202 0
M  V30 32940 H 3133.71 4.28073 -0.212524 0
M  V30 32941 H 3137.9 4.86048 -1.00353 0
M  V30 32942 H 3133.15 5.73784 -2.11144 0
M  V30 32943 H 3137.33 6.33118 -2.90059 0
M  V30 32944 H 3134.95 6.76871 -3.46049 0
M  V30 32945 N 3136.53 0.0451655 1.57535 0
M  V30 32946 C 3137.78 -0.629953 1.92452 0
M  V30 32947 C 3138.1 -1.71204 0.92301 0
M  V30 32948 O 3137.36 -1.9559 -0.0656282 0
M  V30 32949 C 3137.66 -1.27019 3.34067 0
M  V30 32950 C 3137.32 -0.316891 4.49785 0
M  V30 32951 C 3135.99 -0.0545561 4.81169 0
M  V30 32952 C 3138.34 0.336785 5.20111 0
M  V30 32953 C 3135.67 0.868992 5.80229 0
M  V30 32954 C 3138.02 1.24849 6.20158 0
M  V30 32955 C 3136.68 1.51955 6.49974 0
M  V30 32956 H 3135.95 -0.230516 0.704232 0
M  V30 32957 H 3138.6 0.110362 1.91182 0
M  V30 32958 H 3136.9 -2.08563 3.31676 0
M  V30 32959 H 3138.6 -1.79939 3.58362 0
M  V30 32960 H 3135.19 -0.53154 4.25291 0
M  V30 32961 H 3139.37 0.147192 4.96082 0
M  V30 32962 H 3134.63 1.08654 6.01668 0
M  V30 32963 H 3138.8 1.7611 6.73764 0
M  V30 32964 H 3136.43 2.23683 7.26547 0
M  V30 32965 N 3138.01 -1.5594 -0.228159 0
M  V30 32966 C 3139.42 -1.48783 -0.577557 0
M  V30 32967 C 3139.62 -0.739004 -1.87459 0
M  V30 32968 O 3138.68 -0.275973 -2.50987 0
M  V30 32969 C 3139.99 -2.93302 -0.66291 0
M  V30 32970 C 3141.54 -3.03783 -0.753982 0
M  V30 32971 C 3142.01 -4.49647 -0.870736 0
M  V30 32972 N 3143.51 -4.53662 -0.935128 0
M  V30 32973 C 3144.24 -5.63796 -1.04506 0
M  V30 32974 N 3143.74 -6.83697 -1.11936 0
M  V30 32975 N 3145.53 -5.51633 -1.07968 0
M  V30 32976 H 3137.68 -2.03056 0.623054 0
M  V30 32977 H 3139.94 -0.922663 0.217709 0
M  V30 32978 H 3139.65 -3.51008 0.220437 0
M  V30 32979 H 3139.52 -3.44834 -1.5287 0
M  V30 32980 H 3141.91 -2.46145 -1.62777 0
M  V30 32981 H 3141.99 -2.55431 0.137346 0
M  V30 32982 H 3141.64 -5.079 -0.00142932 0
M  V30 32983 H 3141.57 -4.95698 -1.77738 0
M  V30 32984 H 3144.06 -3.67311 -0.888296 0
M  V30 32985 H 3144.37 -7.63382 -1.20283 0
M  V30 32986 H 3142.71 -6.86421 -1.0886 0
M  V30 32987 H 3145.91 -4.56891 -1.01825 0
M  V30 32988 H 3146.08 -6.37498 -1.16191 0
M  V30 32989 N 3139.48 0.494597 -1.49638 0
M  V30 32990 C 3140.45 1.57772 -1.66255 0
M  V30 32991 C 3141.45 1.51671 -0.534081 0
M  V30 32992 O 3142.64 1.54709 -0.800664 0
M  V30 32993 C 3139.77 2.97423 -1.6659 0
M  V30 32994 H 3140.96 1.44365 -2.62866 0
M  V30 32995 H 3138.52 0.719299 -1.38765 0
M  V30 32996 H 3139.25 3.16301 -0.715854 0
M  V30 32997 H 3139.04 3.0326 -2.48548 0
M  V30 32998 H 3140.53 3.76105 -1.8148 0
M  V30 32999 N 3140.96 1.3882 0.746109 0
M  V30 33000 C 3142.24 1.25953 1.4965 0
M  V30 33001 C 3142.62 -0.135796 2.10663 0
M  V30 33002 O 3141.97 -1.14601 1.97684 0
M  V30 33003 C 3142.18 2.37541 2.55686 0
M  V30 33004 C 3143.53 2.76326 3.2238 0
M  V30 33005 O 3144.55 2.36909 2.65994 0
M  V30 33006 O 3143.41 3.44327 4.24384 0
M  V30 33007 H 3140.5 0.49297 0.66401 0
M  V30 33008 H 3143.05 1.50666 0.780882 0
M  V30 33009 H 3141.82 3.30871 2.08903 0
M  V30 33010 H 3141.44 2.14433 3.3482 0
M  V30 33011 N 3142.44 -0.975103 1.23812 0
M  V30 33012 C 3143.35 -2.10247 1.04084 0
M  V30 33013 C 3144.37 -1.73992 -0.0162098 0
M  V30 33014 O 3145.54 -2.00591 0.180381 0
M  V30 33015 C 3142.61 -3.4074 0.640073 0
M  V30 33016 C 3141.67 -3.90988 1.77277 0
M  V30 33017 C 3140.9 -5.15253 1.39103 0
M  V30 33018 O 3141.12 -5.69724 0.277583 0
M  V30 33019 O 3140.06 -5.59701 2.21402 0
M  V30 33020 H 3143.88 -2.29782 1.98579 0
M  V30 33021 H 3141.47 -1.08631 1.02565 0
M  V30 33022 H 3143.35 -4.19223 0.427758 0
M  V30 33023 H 3142.03 -3.22523 -0.275833 0
M  V30 33024 H 3140.93 -3.13599 2.03977 0
M  V30 33025 H 3142.27 -4.13669 2.66718 0
M  V30 33026 N 3143.92 -1.05068 -1.17467 0
M  V30 33027 C 3144.87 -0.650551 -2.21442 0
M  V30 33028 C 3145.84 0.346674 -1.62442 0
M  V30 33029 O 3147.02 0.238371 -1.89305 0
M  V30 33030 C 3144.16 -0.0301621 -3.45087 0
M  V30 33031 C 3143.27 -1.07607 -4.18384 0
M  V30 33032 C 3142.41 -0.423131 -5.29512 0
M  V30 33033 C 3141.45 -1.45343 -5.94594 0
M  V30 33034 N 3140.58 -0.824745 -6.97239 0
M  V30 33035 H 3145.42 -1.54167 -2.55022 0
M  V30 33036 H 3142.96 -0.771054 -1.25272 0
M  V30 33037 H 3144.92 0.346959 -4.15755 0
M  V30 33038 H 3143.55 0.824426 -3.12095 0
M  V30 33039 H 3142.6 -1.57103 -3.46443 0
M  V30 33040 H 3143.91 -1.85821 -4.62895 0
M  V30 33041 H 3143.07 0.00764311 -6.067 0
M  V30 33042 H 3141.81 0.391007 -4.8613 0
M  V30 33043 H 3140.81 -1.89424 -5.16138 0
M  V30 33044 H 3142.04 -2.26945 -6.40057 0
M  V30 33045 H 3139.98 -0.0310957 -6.55993 0
M  V30 33046 H 3139.9 -1.54445 -7.40056 0
M  V30 33047 H 3141.17 -0.418703 -7.78375 0
M  V30 33048 N 3145.4 1.33878 -0.831529 0
M  V30 33049 C 3146.63 2.0194 -0.436327 0
M  V30 33050 C 3147.03 1.62743 0.96495 0
M  V30 33051 O 3146.38 0.832923 1.63732 0
M  V30 33052 C 3146.44 3.56429 -0.468874 0
M  V30 33053 C 3146.1 4.18979 -1.82498 0
M  V30 33054 C 3147.1 4.3888 -2.78712 0
M  V30 33055 C 3144.79 4.55564 -2.11582 0
M  V30 33056 C 3146.78 4.94502 -4.02177 0
M  V30 33057 C 3144.47 5.10895 -3.35304 0
M  V30 33058 C 3145.46 5.3031 -4.30419 0
M  V30 33059 O 3145.15 5.84467 -5.51954 0
M  V30 33060 H 3144.88 0.653661 -0.172347 0
M  V30 33061 H 3147.44 1.71945 -1.12357 0
M  V30 33062 H 3145.67 3.8572 0.275111 0
M  V30 33063 H 3147.36 4.05795 -0.0925232 0
M  V30 33064 H 3148.12 4.10971 -2.57542 0
M  V30 33065 H 3144 4.39752 -1.38346 0
M  V30 33066 H 3147.55 5.09571 -4.76427 0
M  V30 33067 H 3143.44 5.38234 -3.56335 0
M  V30 33068 H 3144.21 6.02891 -5.53593 0
M  V30 33069 N 3146.87 0.587281 1.46249 0
M  V30 33070 C 3148.29 0.161951 1.85996 0
M  V30 33071 C 3148.64 -1.27614 1.49027 0
M  V30 33072 O 3147.76 -1.96461 0.907316 0
M  V30 33073 C 3148.36 0.287137 3.37581 0
M  V30 33074 C 3146.92 -0.083355 3.76308 0
M  V30 33075 C 3146.06 0.620979 2.70258 0
M  V30 33076 H 3149.01 0.795223 1.37339 0
M  V30 33077 H 3149.03 -0.486266 3.7738 0
M  V30 33078 H 3148.55 1.3339 3.64457 0
M  V30 33079 H 3146.65 -1.13007 3.55049 0
M  V30 33080 H 3146.76 0.296148 4.78184 0
M  V30 33081 H 3145.12 0.0607475 2.54628 0
M  V30 33082 H 3145.91 1.66948 2.99972 0
M  V30 33083 N 3148.35 -1.54206 0.325309 0
M  V30 33084 C 3149.6 -2.006 -0.27674 0
M  V30 33085 C 3149.93 -1.21346 -1.52005 0
M  V30 33086 O 3149.18 -0.284138 -1.93626 0
M  V30 33087 C 3149.48 -3.51361 -0.654231 0
M  V30 33088 C 3149.15 -4.48229 0.490101 0
M  V30 33089 C 3147.81 -4.74433 0.804188 0
M  V30 33090 C 3150.16 -5.05773 1.25869 0
M  V30 33091 C 3147.49 -5.55439 1.88955 0
M  V30 33092 C 3149.84 -5.87963 2.33415 0
M  V30 33093 C 3148.51 -6.12468 2.65404 0
M  V30 33094 H 3147.78 -0.734048 -0.101266 0
M  V30 33095 H 3150.42 -1.86151 0.449449 0
M  V30 33096 H 3148.73 -3.63546 -1.46087 0
M  V30 33097 H 3150.42 -3.84701 -1.13164 0
M  V30 33098 H 3147.01 -4.27954 0.235223 0
M  V30 33099 H 3151.2 -4.85509 1.02929 0
M  V30 33100 H 3146.45 -5.72656 2.14184 0
M  V30 33101 H 3150.63 -6.31571 2.93413 0
M  V30 33102 H 3148.26 -6.75026 3.49634 0
M  V30 33103 N 3149.83 -0.0535194 -1.57509 0
M  V30 33104 C 3150.76 0.917961 -2.14699 0
M  V30 33105 C 3151.74 1.32291 -1.06926 0
M  V30 33106 O 3152.93 1.3972 -1.34877 0
M  V30 33107 C 3150.06 2.19198 -2.69387 0
M  V30 33108 C 3149.01 1.92703 -3.82164 0
M  V30 33109 C 3148.34 3.26579 -4.23379 0
M  V30 33110 C 3149.64 1.24677 -5.07201 0
M  V30 33111 H 3151.33 0.441598 -2.96125 0
M  V30 33112 H 3148.88 0.210968 -1.42446 0
M  V30 33113 H 3150.83 2.87561 -3.08036 0
M  V30 33114 H 3149.55 2.69044 -1.85156 0
M  V30 33115 H 3148.21 1.26751 -3.43991 0
M  V30 33116 H 3147.86 3.74231 -3.36095 0
M  V30 33117 H 3147.56 3.09649 -4.99391 0
M  V30 33118 H 3149.09 3.9617 -4.6463 0
M  V30 33119 H 3150.5 1.83078 -5.43282 0
M  V30 33120 H 3148.9 1.18065 -5.88371 0
M  V30 33121 H 3149.97 0.223142 -4.84386 0
M  V30 33122 N 3151.31 1.56059 0.219886 0
M  V30 33123 C 3152.56 1.79414 0.945431 0
M  V30 33124 C 3152.89 0.623443 1.83921 0
M  V30 33125 O 3152.16 -0.377223 1.90807 0
M  V30 33126 C 3152.45 3.12863 1.78294 0
M  V30 33127 C 3152.3 4.40384 0.915549 0
M  V30 33128 C 3153.62 3.42769 2.76039 0
M  V30 33129 H 3150.74 0.652699 0.342277 0
M  V30 33130 H 3153.38 1.88789 0.214202 0
M  V30 33131 H 3151.53 3.05002 2.40637 0
M  V30 33132 H 3153.2 4.60266 0.308739 0
M  V30 33133 H 3151.44 4.33236 0.221047 0
M  V30 33134 H 3152.12 5.302 1.53597 0
M  V30 33135 H 3154.59 3.50768 2.23832 0
M  V30 33136 H 3153.47 4.3731 3.3174 0
M  V30 33137 H 3153.73 2.65018 3.53861 0
M  V30 33138 N 3152.79 -0.486655 1.49898 0
M  V30 33139 C 3153.74 -1.58378 1.64013 0
M  V30 33140 C 3154.72 -1.53089 0.495242 0
M  V30 33141 O 3155.91 -1.60376 0.748904 0
M  V30 33142 C 3153.04 -2.96915 1.72326 0
M  V30 33143 C 3152.13 -3.07147 2.9244 0
M  V30 33144 N 3152.52 -2.87231 4.16331 0
M  V30 33145 C 3150.82 -3.38266 2.90675 0
M  V30 33146 C 3151.52 -3.02022 4.97149 0
M  V30 33147 N 3150.49 -3.31536 4.30795 0
M  V30 33148 H 3154.3 -1.41656 2.57509 0
M  V30 33149 H 3151.81 -0.69308 1.46868 0
M  V30 33150 H 3153.81 -3.75781 1.80539 0
M  V30 33151 H 3152.47 -3.14696 0.799779 0
M  V30 33152 H 3153.48 -2.6312 4.46081 0
M  V30 33153 H 3150.16 -3.62133 2.07764 0
M  V30 33154 H 3151.55 -2.90995 6.05616 0
M  V30 33155 N 3154.27 -1.39214 -0.738737 0
M  V30 33156 C 3155.68 -1.32351 -1.31682 0
M  V30 33157 C 3156.03 0.0138696 -1.96195 0
M  V30 33158 O 3155.15 0.915991 -1.96058 0
M  V30 33159 C 3155.75 -2.39695 -2.3944 0
M  V30 33160 C 3154.31 -2.36365 -2.92931 0
M  V30 33161 C 3153.45 -2.21779 -1.66461 0
M  V30 33162 H 3156.4 -1.49356 -0.536517 0
M  V30 33163 H 3156.43 -2.06268 -3.1974 0
M  V30 33164 H 3155.94 -3.37019 -1.92457 0
M  V30 33165 H 3154.04 -1.42668 -3.44204 0
M  V30 33166 H 3154.15 -3.31079 -3.463 0
M  V30 33167 H 3152.52 -1.68887 -1.90654 0
M  V30 33168 H 3153.3 -3.21067 -1.21535 0
M  V30 33169 N 3155.74 0.968523 -1.24328 0
M  V30 33170 C 3156.99 1.71392 -1.08409 0
M  V30 33171 C 3157.32 1.90519 0.376319 0
M  V30 33172 O 3156.6 1.46609 1.27813 0
M  V30 33173 C 3156.88 3.10517 -1.82349 0
M  V30 33174 C 3156.73 2.98887 -3.36135 0
M  V30 33175 C 3158.05 4.1016 -1.59552 0
M  V30 33176 H 3155.17 0.622072 -0.395216 0
M  V30 33177 H 3157.81 1.12675 -1.52985 0
M  V30 33178 H 3155.96 3.60644 -1.44459 0
M  V30 33179 H 3157.64 2.56193 -3.83618 0
M  V30 33180 H 3155.88 2.35117 -3.64558 0
M  V30 33181 H 3156.55 3.97443 -3.83071 0
M  V30 33182 H 3159.03 3.68889 -1.92511 0
M  V30 33183 H 3157.9 5.05573 -2.13745 0
M  V30 33184 H 3158.16 4.38868 -0.53358 0
M  V30 33185 N 3157.22 1.0569 1.16908 0
M  V30 33186 C 3158.15 0.606577 2.19991 0
M  V30 33187 C 3159.13 -0.367455 1.58394 0
M  V30 33188 O 3160.32 -0.277882 1.86441 0
M  V30 33189 C 3157.44 -0.111604 3.38516 0
M  V30 33190 C 3156.49 0.818226 4.18578 0
M  V30 33191 S 3157.32 2.31014 4.83107 0
M  V30 33192 C 3158.48 1.60328 6.05017 0
M  V30 33193 H 3158.71 1.47992 2.57848 0
M  V30 33194 H 3156.24 0.869313 1.27602 0
M  V30 33195 H 3158.2 -0.519758 4.07196 0
M  V30 33196 H 3156.86 -0.96105 2.99036 0
M  V30 33197 H 3156.06 0.262181 5.03318 0
M  V30 33198 H 3155.66 1.16598 3.5536 0
M  V30 33199 H 3157.95 0.905428 6.71423 0
M  V30 33200 H 3158.89 2.42835 6.65159 0
M  V30 33201 H 3159.3 1.08851 5.53906 0
M  V30 33202 N 3158.7 -1.33435 0.838617 0
M  V30 33203 C 3160.11 -1.80129 0.490966 0
M  V30 33204 C 3160.46 -1.69392 -0.989994 0
M  V30 33205 O 3159.59 -1.24305 -1.77136 0
M  V30 33206 C 3160.18 -3.27053 0.884405 0
M  V30 33207 C 3158.74 -3.71765 0.588894 0
M  V30 33208 C 3157.89 -2.54856 1.09287 0
M  V30 33209 H 3160.84 -1.2096 1.02734 0
M  V30 33210 H 3160.86 -3.80003 0.19435 0
M  V30 33211 H 3160.37 -3.34836 1.96231 0
M  V30 33212 H 3158.47 -3.69509 -0.478953 0
M  V30 33213 H 3158.59 -4.65242 1.14395 0
M  V30 33214 H 3156.95 -2.49465 0.513746 0
M  V30 33215 H 3157.73 -2.65401 2.17754 0
M  V30 33216 N 3160.18 -0.595029 -1.45935 0
M  V30 33217 C 3161.11 0.179735 -2.27491 0
M  V30 33218 C 3162.09 0.885427 -1.36378 0
M  V30 33219 O 3163.27 0.896834 -1.65798 0
M  V30 33220 C 3160.4 1.25896 -3.14433 0
M  V30 33221 C 3159.45 0.657773 -4.21397 0
M  V30 33222 S 3160.28 -0.524782 -5.32922 0
M  V30 33223 C 3161.43 0.555342 -6.23431 0
M  V30 33224 H 3161.67 -0.512225 -2.92854 0
M  V30 33225 H 3159.2 -0.382225 -1.49594 0
M  V30 33226 H 3161.16 1.8768 -3.65084 0
M  V30 33227 H 3159.82 1.92293 -2.48359 0
M  V30 33228 H 3159.01 1.4694 -4.82104 0
M  V30 33229 H 3158.61 0.115338 -3.73822 0
M  V30 33230 H 3160.91 1.43778 -6.62068 0
M  V30 33231 H 3161.85 -0.0152676 -7.08098 0
M  V30 33232 H 3162.26 0.865027 -5.57833 0
M  V30 33233 N 3161.66 1.54031 -0.333483 0
M  V30 33234 C 3162.6 2.24681 0.527942 0
M  V30 33235 C 3163.57 1.24129 1.10369 0
M  V30 33236 O 3164.76 1.52836 1.14218 0
M  V30 33237 C 3161.9 3.01556 1.67803 0
M  V30 33238 C 3161.01 4.16944 1.13056 0
M  V30 33239 C 3160.15 4.81328 2.24714 0
M  V30 33240 C 3159.18 5.88802 1.67267 0
M  V30 33241 N 3158.32 6.47008 2.72626 0
M  V30 33242 H 3163.16 2.9789 -0.0810831 0
M  V30 33243 H 3160.7 1.47009 -0.0517868 0
M  V30 33244 H 3162.66 3.4438 2.35496 0
M  V30 33245 H 3161.29 2.30663 2.25819 0
M  V30 33246 H 3160.34 3.78833 0.344882 0
M  V30 33247 H 3161.65 4.94276 0.670286 0
M  V30 33248 H 3160.8 5.27172 3.00292 0
M  V30 33249 H 3159.54 4.03399 2.74082 0
M  V30 33250 H 3158.55 5.42352 0.901907 0
M  V30 33251 H 3159.77 6.68634 1.18763 0
M  V30 33252 H 3157.72 5.71947 3.21267 0
M  V30 33253 H 3157.64 7.19782 2.31191 0
M  V30 33254 H 3158.9 6.97506 3.48003 0
M  V30 33255 N 3163.13 0.0618717 1.57479 0
M  V30 33256 C 3164.04 -0.923788 2.15646 0
M  V30 33257 C 3165.06 -1.33411 1.11703 0
M  V30 33258 O 3166.24 -1.40884 1.43922 0
M  V30 33259 C 3163.3 -2.1766 2.69861 0
M  V30 33260 C 3162.36 -1.82363 3.88642 0
M  V30 33261 C 3161.59 -3.01672 4.40261 0
M  V30 33262 O 3161.82 -4.15381 3.90916 0
M  V30 33263 O 3160.75 -2.82064 5.31717 0
M  V30 33264 H 3164.58 -0.459042 3.00211 0
M  V30 33265 H 3162.16 -0.160639 1.48534 0
M  V30 33266 H 3164.04 -2.91145 3.04652 0
M  V30 33267 H 3162.72 -2.63252 1.88362 0
M  V30 33268 H 3161.63 -1.06161 3.58721 0
M  V30 33269 H 3162.96 -1.41562 4.71403 0
M  V30 33270 N 3164.61 -1.56173 -0.211607 0
M  V30 33271 C 3165.86 -1.78844 -0.932616 0
M  V30 33272 C 3166.17 -0.632202 -1.85101 0
M  V30 33273 O 3167.38 -0.742792 -2.61141 0
M  V30 33274 C 3165.84 -3.16756 -1.70861 0
M  V30 33275 C 3165.44 -4.40133 -0.835856 0
M  V30 33276 C 3167.19 -3.48747 -2.42024 0
M  V30 33277 C 3165.1 -5.6907 -1.60977 0
M  V30 33278 H 3164.03 -0.666808 -0.351971 0
M  V30 33279 H 3166.68 -1.82552 -0.186252 0
M  V30 33280 H 3165.06 -3.07252 -2.49825 0
M  V30 33281 H 3166.23 -4.6072 -0.0860489 0
M  V30 33282 H 3164.55 -4.15731 -0.235868 0
M  V30 33283 H 3167.14 -4.42308 -3.00445 0
M  V30 33284 H 3167.49 -2.71712 -3.15402 0
M  V30 33285 H 3168.02 -3.59626 -1.70041 0
M  V30 33286 H 3164.76 -6.49025 -0.919085 0
M  V30 33287 H 3164.28 -5.52528 -2.33393 0
M  V30 33288 H 3165.96 -6.096 -2.16787 0
M  V30 33289 N 3166.09 0.478699 -1.50154 0
M  V30 33290 C 3167.04 1.57506 -1.64851 0
M  V30 33291 C 3168.02 1.52824 -0.503354 0
M  V30 33292 O 3169.22 1.59976 -0.757399 0
M  V30 33293 C 3166.35 2.95997 -1.73898 0
M  V30 33294 C 3165.43 3.05592 -2.94065 0
M  V30 33295 N 3165.82 2.85019 -4.17849 0
M  V30 33296 C 3164.12 3.3672 -2.92465 0
M  V30 33297 C 3164.82 2.99381 -4.98744 0
M  V30 33298 N 3163.8 3.29247 -4.32548 0
M  V30 33299 H 3167.6 1.40289 -2.58256 0
M  V30 33300 H 3165.11 0.685281 -1.47233 0
M  V30 33301 H 3167.11 3.74818 -1.82529 0
M  V30 33302 H 3165.77 3.14268 -0.816457 0
M  V30 33303 H 3166.78 2.60751 -4.4747 0
M  V30 33304 H 3163.46 3.61026 -2.09682 0
M  V30 33305 H 3164.85 2.8778 -6.07151 0
M  V30 33306 N 3167.57 1.39603 0.731343 0
M  V30 33307 C 3168.48 1.40898 1.87577 0
M  V30 33308 C 3169.49 0.303349 1.71335 0
M  V30 33309 O 3170.67 0.545411 1.93874 0
M  V30 33310 C 3167.74 1.25448 3.23209 0
M  V30 33311 C 3166.8 2.46014 3.51817 0
M  V30 33312 C 3166.03 2.31292 4.80978 0
M  V30 33313 O 3166.25 1.31834 5.54956 0
M  V30 33314 O 3165.19 3.2035 5.09568 0
M  V30 33315 H 3169.01 2.37373 1.8944 0
M  V30 33316 H 3166.6 1.20758 0.879654 0
M  V30 33317 H 3168.48 1.18979 4.04255 0
M  V30 33318 H 3167.15 0.320694 3.22108 0
M  V30 33319 H 3166.06 2.5806 2.70843 0
M  V30 33320 H 3167.39 3.38099 3.57701 0
M  V30 33321 N 3169.05 -0.961916 1.2484 0
M  V30 33322 C 3170.27 -1.74578 1.1197 0
M  V30 33323 C 3170.7 -1.85302 -0.323254 0
M  V30 33324 O 3170.05 -1.32815 -1.2341 0
M  V30 33325 C 3170.1 -3.14131 1.77071 0
M  V30 33326 O 3169.21 -3.9893 1.04541 0
M  V30 33327 H 3168.55 -0.536417 0.391348 0
M  V30 33328 H 3171.08 -1.20623 1.65261 0
M  V30 33329 H 3171.09 -3.64626 1.83062 0
M  V30 33330 H 3169.76 -3.05641 2.82057 0
M  V30 33331 H 3168.34 -3.57405 1.06378 0
M  V30 33332 N 3170.52 -1.06308 -1.16346 0
M  V30 33333 C 3171.77 -0.774942 -1.86219 0
M  V30 33334 C 3172.09 0.701213 -1.82599 0
M  V30 33335 O 3173.29 1.10373 -2.48053 0
M  V30 33336 C 3171.75 -1.3361 -3.3418 0
M  V30 33337 C 3171.36 -2.84251 -3.46274 0
M  V30 33338 C 3173.1 -1.12551 -4.09307 0
M  V30 33339 C 3171.01 -3.33611 -4.88322 0
M  V30 33340 H 3169.94 -0.286206 -0.697569 0
M  V30 33341 H 3172.59 -1.28181 -1.31308 0
M  V30 33342 H 3170.97 -0.757005 -3.88697 0
M  V30 33343 H 3172.14 -3.48113 -3.01917 0
M  V30 33344 H 3170.46 -3.03979 -2.8458 0
M  V30 33345 H 3173.06 -1.46918 -5.1412 0
M  V30 33346 H 3173.4 -0.063886 -4.16251 0
M  V30 33347 H 3173.93 -1.6704 -3.6103 0
M  V30 33348 H 3170.67 -4.39252 -4.86557 0
M  V30 33349 H 3170.19 -2.74497 -5.33303 0
M  V30 33350 H 3171.87 -3.28947 -5.57138 0
M  V30 33351 N 3172 1.32989 -0.845682 0
M  V30 33352 C 3173.42 1.50389 -0.534356 0
M  V30 33353 C 3173.62 1.78394 0.936908 0
M  V30 33354 O 3172.67 1.84821 1.72039 0
M  V30 33355 C 3173.99 2.65402 -1.41359 0
M  V30 33356 C 3175.54 2.79287 -1.41308 0
M  V30 33357 C 3176.01 3.97369 -2.27731 0
M  V30 33358 N 3177.5 4.04616 -2.25478 0
M  V30 33359 C 3178.24 4.95196 -2.89082 0
M  V30 33360 N 3177.73 5.90845 -3.61765 0
M  V30 33361 N 3179.53 4.88247 -2.78517 0
M  V30 33362 H 3171.68 1.13075 -1.798 0
M  V30 33363 H 3173.94 0.556511 -0.767463 0
M  V30 33364 H 3173.65 2.51409 -2.4594 0
M  V30 33365 H 3173.52 3.60971 -1.09452 0
M  V30 33366 H 3175.91 2.92708 -0.37495 0
M  V30 33367 H 3175.99 1.84458 -1.77225 0
M  V30 33368 H 3175.63 3.84707 -3.31606 0
M  V30 33369 H 3175.56 4.91456 -1.89151 0
M  V30 33370 H 3178.05 3.36167 -1.72628 0
M  V30 33371 H 3178.37 6.56639 -4.07486 0
M  V30 33372 H 3176.71 5.90899 -3.65873 0
M  V30 33373 H 3179.9 4.12489 -2.21292 0
M  V30 33374 H 3180.07 5.58639 -3.2837 0
M  V30 33375 N 3173.48 0.60276 1.45618 0
M  V30 33376 C 3174.73 0.104622 2.03131 0
M  V30 33377 C 3175.08 -1.24907 1.46342 0
M  V30 33378 O 3174.37 -1.81059 0.626765 0
M  V30 33379 C 3174.57 0.00164192 3.574 0
M  V30 33380 C 3174.4 1.34381 4.29153 0
M  V30 33381 C 3173.17 1.92324 4.67268 0
M  V30 33382 C 3175.37 2.27151 4.61418 0
M  V30 33383 N 3173.35 3.20071 5.23859 0
M  V30 33384 C 3174.72 3.39494 5.1879 0
M  V30 33385 C 3176.77 2.26583 4.43356 0
M  V30 33386 C 3175.48 4.51429 5.60004 0
M  V30 33387 C 3177.5 3.37561 4.85599 0
M  V30 33388 C 3176.86 4.48626 5.4306 0
M  V30 33389 H 3172.96 0.0815388 0.777737 0
M  V30 33390 H 3175.55 0.800055 1.77503 0
M  V30 33391 H 3173.72 -0.663001 3.82699 0
M  V30 33392 H 3175.45 -0.502714 4.01566 0
M  V30 33393 H 3172.21 1.45585 4.50668 0
M  V30 33394 H 3172.63 3.85308 5.56657 0
M  V30 33395 H 3177.27 1.41978 3.98249 0
M  V30 33396 H 3174.99 5.36762 6.0408 0
M  V30 33397 H 3178.58 3.38264 4.73359 0
M  V30 33398 H 3177.46 5.33082 5.75147 0
M  V30 33399 N 3174.96 -1.53852 0.341647 0
M  V30 33400 C 3176.19 -2.05299 -0.256893 0
M  V30 33401 C 3176.6 -1.21673 -1.44364 0
M  V30 33402 O 3175.96 -0.251615 -1.80757 0
M  V30 33403 C 3176.01 -3.55165 -0.673792 0
M  V30 33404 O 3175.73 -4.35617 0.465764 0
M  V30 33405 C 3177.23 -4.22776 -1.33325 0
M  V30 33406 H 3174.45 -0.66914 -0.0499327 0
M  V30 33407 H 3177 -1.98466 0.493082 0
M  V30 33408 H 3175.15 -3.62226 -1.37371 0
M  V30 33409 H 3175.56 -5.24329 0.133815 0
M  V30 33410 H 3177.04 -5.29032 -1.57573 0
M  V30 33411 H 3177.52 -3.75005 -2.28622 0
M  V30 33412 H 3178.12 -4.19903 -0.675415 0
M  V30 33413 N 3176.44 -0.0702223 -1.57443 0
M  V30 33414 C 3177.38 0.897561 -2.12632 0
M  V30 33415 C 3178.35 1.29637 -1.03843 0
M  V30 33416 O 3179.54 1.3825 -1.31497 0
M  V30 33417 C 3176.68 2.16037 -2.69114 0
M  V30 33418 C 3175.79 1.81433 -3.92054 0
M  V30 33419 C 3174.93 3.02313 -4.36784 0
M  V30 33420 C 3173.97 2.6372 -5.52375 0
M  V30 33421 N 3173.1 3.77354 -5.92071 0
M  V30 33422 H 3177.94 0.420052 -2.95025 0
M  V30 33423 H 3175.48 0.195691 -1.45793 0
M  V30 33424 H 3177.44 2.89956 -2.99969 0
M  V30 33425 H 3176.07 2.61331 -1.89489 0
M  V30 33426 H 3175.12 0.975831 -3.67671 0
M  V30 33427 H 3176.43 1.49038 -4.76014 0
M  V30 33428 H 3175.59 3.84513 -4.69291 0
M  V30 33429 H 3174.32 3.37901 -3.51674 0
M  V30 33430 H 3173.33 1.79941 -5.1952 0
M  V30 33431 H 3174.55 2.29304 -6.39216 0
M  V30 33432 H 3172.5 4.12706 -5.09911 0
M  V30 33433 H 3172.42 3.48721 -6.70768 0
M  V30 33434 H 3173.69 4.60137 -6.29201 0
M  V30 33435 N 3177.91 1.56283 0.203321 0
M  V30 33436 C 3179.19 1.70959 0.950385 0
M  V30 33437 C 3179.57 0.622683 2.01707 0
M  V30 33438 O 3178.92 -0.367595 2.25524 0
M  V30 33439 C 3179.13 3.12974 1.54428 0
M  V30 33440 C 3180.48 3.72953 2.02957 0
M  V30 33441 O 3181.5 3.16051 1.64287 0
M  V30 33442 O 3180.36 4.72798 2.74089 0
M  V30 33443 H 3177.45 0.696978 0.445141 0
M  V30 33444 H 3180 1.68591 0.193666 0
M  V30 33445 H 3178.77 3.83549 0.774983 0
M  V30 33446 H 3178.4 3.19536 2.36606 0
M  V30 33447 N 3179.39 -0.470729 1.50406 0
M  V30 33448 C 3180.8 -1.05159 1.54268 0
M  V30 33449 C 3181.16 -1.93118 0.346393 0
M  V30 33450 O 3180.28 -2.09537 -0.540662 0
M  V30 33451 C 3180.88 -1.91389 2.79563 0
M  V30 33452 C 3179.43 -2.44583 2.86105 0
M  V30 33453 C 3178.58 -1.22937 2.4856 0
M  V30 33454 H 3181.53 -0.253332 1.56665 0
M  V30 33455 H 3181.55 -2.7646 2.61439 0
M  V30 33456 H 3181.07 -1.27344 3.66613 0
M  V30 33457 H 3179.17 -3.12179 2.03408 0
M  V30 33458 H 3179.28 -2.79665 3.89004 0
M  V30 33459 H 3177.64 -1.56425 2.01005 0
M  V30 33460 H 3178.43 -0.605539 3.37917 0
M  V30 33461 N 3180.87 -1.39989 -0.72393 0
M  V30 33462 C 3182.29 -1.21836 -1.03093 0
M  V30 33463 C 3182.49 -0.0877001 -2.01309 0
M  V30 33464 O 3181.54 0.557096 -2.46278 0
M  V30 33465 C 3182.86 -2.55682 -1.58262 0
M  V30 33466 C 3184.4 -2.62623 -1.70288 0
M  V30 33467 C 3184.88 -3.96717 -2.28865 0
M  V30 33468 N 3186.37 -3.98415 -2.36262 0
M  V30 33469 C 3187.11 -4.98953 -2.82549 0
M  V30 33470 N 3186.6 -6.09886 -3.2865 0
M  V30 33471 N 3188.39 -4.86326 -2.81858 0
M  V30 33472 H 3180.55 -2.12275 -0.0727518 0
M  V30 33473 H 3182.81 -0.943239 -0.0948863 0
M  V30 33474 H 3182.51 -3.39028 -0.935582 0
M  V30 33475 H 3182.39 -2.76183 -2.5691 0
M  V30 33476 H 3184.78 -1.79655 -2.34112 0
M  V30 33477 H 3184.86 -2.45961 -0.702637 0
M  V30 33478 H 3184.5 -4.80122 -1.65666 0
M  V30 33479 H 3184.43 -4.10706 -3.29588 0
M  V30 33480 H 3186.92 -3.18305 -2.03691 0
M  V30 33481 H 3187.23 -6.82499 -3.62512 0
M  V30 33482 H 3185.58 -6.13464 -3.2663 0
M  V30 33483 H 3188.77 -3.98758 -2.45172 0
M  V30 33484 H 3188.94 -5.64822 -3.17616 0
M  V30 33485 N 3182.35 0.955282 -1.25348 0
M  V30 33486 C 3183.3 2.07316 -1.05464 0
M  V30 33487 C 3184.29 1.69394 0.0142401 0
M  V30 33488 O 3185.5 1.79444 -0.141323 0
M  V30 33489 H 3181.87 0.678571 -0.324107 0
M  V30 33490 H 3183.84 2.21243 -2.00235 0
M  V30 33491 C 3182.59 3.40797 -0.689389 0
M  V30 33492 H 3181.92 3.70445 -1.50368 0
M  V30 33493 H 3183.36 4.19876 -0.589957 0
M  V30 33494 C 3181.81 3.31432 0.604497 0
M  V30 33495 O 3182.34 3.66393 1.6468 0
M  V30 33496 N 3180.55 2.8455 0.589877 0
M  V30 33497 H 3180.1 2.56298 -0.258693 0
M  V30 33498 H 3180.06 2.78667 1.45575 0
M  V30 33499 N 3183.83 1.06924 1.1578 0
M  V30 33500 C 3185.06 0.810754 1.90353 0
M  V30 33501 C 3185.47 -0.635583 1.7778 0
M  V30 33502 O 3184.83 -1.43562 1.12677 0
M  V30 33503 C 3184.88 1.20436 3.40848 0
M  V30 33504 O 3184.6 2.59395 3.53052 0
M  V30 33505 C 3186.1 0.974549 4.32455 0
M  V30 33506 H 3183.32 0.293462 0.603424 0
M  V30 33507 H 3185.86 1.42455 1.4672 0
M  V30 33508 H 3184.02 0.634976 3.82161 0
M  V30 33509 H 3184.43 2.75333 4.46421 0
M  V30 33510 H 3185.91 1.29951 5.36485 0
M  V30 33511 H 3186.38 -0.0893709 4.39109 0
M  V30 33512 H 3186.99 1.52863 3.96879 0
M  V30 33513 N 3185.31 -1.32538 0.852723 0
M  V30 33514 C 3186.24 -2.27797 0.253221 0
M  V30 33515 C 3187.25 -1.52347 -0.57395 0
M  V30 33516 O 3188.44 -1.73989 -0.398756 0
M  V30 33517 C 3185.54 -3.32392 -0.660975 0
M  V30 33518 C 3184.71 -4.37207 0.129916 0
M  V30 33519 C 3183.77 -5.21391 -0.709745 0
M  V30 33520 O 3182.8 -5.69018 -0.143956 0
M  V30 33521 N 3184 -5.44042 -2.0248 0
M  V30 33522 H 3186.76 -2.79881 1.07175 0
M  V30 33523 H 3184.33 -1.45378 0.712517 0
M  V30 33524 H 3186.32 -3.85619 -1.22799 0
M  V30 33525 H 3184.89 -2.80481 -1.3802 0
M  V30 33526 H 3184.11 -3.8429 0.878357 0
M  V30 33527 H 3185.4 -5.04326 0.67323 0
M  V30 33528 H 3184.79 -5.07074 -2.50783 0
M  V30 33529 H 3183.35 -6.00273 -2.53999 0
M  V30 33530 N 3186.78 -0.610474 -1.45296 0
M  V30 33531 C 3188.06 -0.0386533 -1.95562 0
M  V30 33532 C 3188.44 1.43001 -1.55286 0
M  V30 33533 O 3187.79 2.13402 -0.816822 0
M  V30 33534 C 3188 -0.239793 -3.48175 0
M  V30 33535 C 3189.35 -0.122109 -4.24424 0
M  V30 33536 O 3190.37 -0.170066 -3.55794 0
M  V30 33537 O 3189.23 -0.00963301 -5.46499 0
M  V30 33538 H 3186.32 0.0340936 -0.826297 0
M  V30 33539 H 3188.87 -0.680737 -1.55448 0
M  V30 33540 H 3187.64 -1.25969 -3.70469 0
M  V30 33541 H 3187.26 0.437416 -3.95187 0
M  V30 33542 N 3188.26 1.53669 -0.349801 0
M  V30 33543 C 3189.21 2.21987 0.520191 0
M  V30 33544 C 3190.2 1.20946 1.06117 0
M  V30 33545 O 3191.39 1.46465 0.993831 0
M  V30 33546 C 3188.52 3.00084 1.66746 0
M  V30 33547 C 3187.6 4.08488 1.14012 0
M  V30 33548 N 3187.99 5.04693 0.334499 0
M  V30 33549 C 3186.29 4.22911 1.41643 0
M  V30 33550 C 3186.99 5.81681 0.0475883 0
M  V30 33551 N 3185.97 5.39808 0.640938 0
M  V30 33552 H 3189.77 2.93722 -0.102312 0
M  V30 33553 H 3187.28 1.61639 -0.156989 0
M  V30 33554 H 3189.28 3.47533 2.30275 0
M  V30 33555 H 3187.94 2.29877 2.29318 0
M  V30 33556 H 3188.95 5.17894 -0.0249575 0
M  V30 33557 H 3185.63 3.63925 2.04608 0
M  V30 33558 H 3187.02 6.69192 -0.602683 0
M  V30 33559 N 3189.74 0.0785709 1.57404 0
M  V30 33560 C 3190.99 -0.589862 1.94032 0
M  V30 33561 C 3191.32 -1.68851 0.959327 0
M  V30 33562 O 3190.59 -1.94497 -0.0103636 0
M  V30 33563 C 3190.88 -1.16049 3.40888 0
M  V30 33564 C 3190.73 -0.0680282 4.49749 0
M  V30 33565 C 3192.05 -2.06394 3.88702 0
M  V30 33566 H 3189.17 -0.212952 0.705564 0
M  V30 33567 H 3191.81 0.145919 1.89439 0
M  V30 33568 H 3189.96 -1.78755 3.44933 0
M  V30 33569 H 3191.63 0.565399 4.57822 0
M  V30 33570 H 3189.87 0.600507 4.29624 0
M  V30 33571 H 3190.55 -0.507809 5.49659 0
M  V30 33572 H 3193.02 -1.53615 3.86706 0
M  V30 33573 H 3191.9 -2.43252 4.92056 0
M  V30 33574 H 3192.16 -2.9749 3.27035 0
M  V30 33575 N 3191.22 -1.56389 -0.19503 0
M  V30 33576 C 3192.63 -1.49975 -0.545868 0
M  V30 33577 C 3192.83 -0.778601 -1.8585 0
M  V30 33578 O 3191.89 -0.329149 -2.50345 0
M  V30 33579 C 3193.2 -2.94642 -0.600547 0
M  V30 33580 C 3194.75 -3.05314 -0.689375 0
M  V30 33581 C 3195.23 -4.51393 -0.775164 0
M  V30 33582 N 3196.72 -4.55544 -0.838689 0
M  V30 33583 C 3197.45 -5.65886 -0.925237 0
M  V30 33584 N 3196.95 -6.85918 -0.974083 0
M  V30 33585 N 3198.74 -5.53799 -0.962431 0
M  V30 33586 H 3190.89 -2.01689 0.665985 0
M  V30 33587 H 3193.15 -0.917837 0.237231 0
M  V30 33588 H 3192.86 -3.50462 0.294841 0
M  V30 33589 H 3192.73 -3.47999 -1.45522 0
M  V30 33590 H 3195.12 -2.49543 -1.57519 0
M  V30 33591 H 3195.2 -2.55082 0.191496 0
M  V30 33592 H 3194.85 -5.07789 0.106304 0
M  V30 33593 H 3194.78 -4.99357 -1.67184 0
M  V30 33594 H 3197.27 -3.69113 -0.810184 0
M  V30 33595 H 3197.58 -7.65761 -1.04064 0
M  V30 33596 H 3195.93 -6.88576 -0.94276 0
M  V30 33597 H 3199.12 -4.58948 -0.921108 0
M  V30 33598 H 3199.29 -6.39819 -1.02642 0
M  V30 33599 N 3192.7 0.462746 -1.50653 0
M  V30 33600 C 3193.92 1.24193 -1.66105 0
M  V30 33601 C 3194.35 1.84863 -0.347453 0
M  V30 33602 O 3193.7 1.67671 0.689643 0
M  V30 33603 C 3193.75 2.32032 -2.76031 0
M  V30 33604 O 3192.86 3.36889 -2.37865 0
M  V30 33605 H 3192.2 0.365005 -0.554678 0
M  V30 33606 H 3194.73 0.549699 -1.97077 0
M  V30 33607 H 3194.74 2.77215 -2.99359 0
M  V30 33608 H 3193.41 1.87247 -3.71364 0
M  V30 33609 H 3191.99 2.97359 -2.25016 0
M  V30 33610 N 3194.17 1.40371 0.716495 0
M  V30 33611 C 3195.1 1.43318 1.84343 0
M  V30 33612 C 3196.09 0.294216 1.67536 0
M  V30 33613 O 3197.27 0.502704 1.87581 0
M  V30 33614 C 3194.4 1.29414 3.22288 0
M  V30 33615 C 3193.35 2.40904 3.53765 0
M  V30 33616 C 3192.68 2.12077 4.90844 0
M  V30 33617 C 3193.98 3.83243 3.54855 0
M  V30 33618 H 3195.67 2.37629 1.82134 0
M  V30 33619 H 3193.22 1.14378 0.874853 0
M  V30 33620 H 3195.17 1.30092 4.00817 0
M  V30 33621 H 3193.9 0.315787 3.2507 0
M  V30 33622 H 3192.56 2.39474 2.77575 0
M  V30 33623 H 3192.2 1.12635 4.90227 0
M  V30 33624 H 3191.9 2.86771 5.1287 0
M  V30 33625 H 3193.43 2.14436 5.71708 0
M  V30 33626 H 3194.84 3.86502 4.23426 0
M  V30 33627 H 3193.24 4.57449 3.88408 0
M  V30 33628 H 3194.31 4.12893 2.54259 0
M  V30 33629 N 3195.65 -0.948621 1.25853 0
M  V30 33630 C 3196.89 -1.70872 1.12169 0
M  V30 33631 C 3197.26 -1.89131 -0.3307 0
M  V30 33632 O 3198.46 -2.62256 -0.589494 0
M  V30 33633 C 3196.73 -3.05084 1.86167 0
M  V30 33634 S 3198.29 -3.96274 1.88448 0
M  V30 33635 H 3195.11 -0.587256 0.400813 0
M  V30 33636 H 3197.71 -1.13098 1.59465 0
M  V30 33637 H 3196.41 -2.89471 2.90921 0
M  V30 33638 H 3195.94 -3.67918 1.39283 0
M  V30 33639 H 3197.96 -4.86709 0.965836 0
M  V30 33640 N 3197.13 -1.07536 -1.15212 0
M  V30 33641 C 3198.06 -0.718876 -2.22159 0
M  V30 33642 C 3199.04 0.294561 -1.6753 0
M  V30 33643 O 3200.23 0.166897 -1.93482 0
M  V30 33644 C 3197.36 -0.117897 -3.471 0
M  V30 33645 C 3196.31 -1.0587 -4.14699 0
M  V30 33646 C 3195.64 -0.320378 -5.33739 0
M  V30 33647 C 3196.94 -2.39311 -4.6425 0
M  V30 33648 H 3198.63 -1.61302 -2.52234 0
M  V30 33649 H 3196.18 -0.777014 -1.21237 0
M  V30 33650 H 3198.13 0.143445 -4.21156 0
M  V30 33651 H 3196.85 0.811333 -3.16362 0
M  V30 33652 H 3195.51 -1.30499 -3.42587 0
M  V30 33653 H 3195.16 0.612372 -4.99258 0
M  V30 33654 H 3194.86 -0.947483 -5.79911 0
M  V30 33655 H 3196.38 -0.0668794 -6.10563 0
M  V30 33656 H 3197.8 -2.18997 -5.29824 0
M  V30 33657 H 3196.2 -2.97633 -5.2109 0
M  V30 33658 H 3197.27 -3.01478 -3.79788 0
M  V30 33659 N 3198.61 1.32084 -0.85974 0
M  V30 33660 C 3199.54 2.31248 -0.323543 0
M  V30 33661 C 3200.52 1.59904 0.580057 0
M  V30 33662 O 3201.7 1.87673 0.499232 0
M  V30 33663 C 3198.83 3.43902 0.4846 0
M  V30 33664 C 3197.79 4.26764 -0.325008 0
M  V30 33665 C 3197.11 5.3123 0.608187 0
M  V30 33666 C 3198.41 4.98661 -1.55353 0
M  V30 33667 H 3200.11 2.76344 -1.15214 0
M  V30 33668 H 3197.65 1.32855 -0.555465 0
M  V30 33669 H 3199.61 4.12318 0.870166 0
M  V30 33670 H 3198.33 2.97547 1.34661 0
M  V30 33671 H 3196.99 3.60002 -0.692391 0
M  V30 33672 H 3196.64 4.81126 1.46719 0
M  V30 33673 H 3196.34 5.87558 0.0704538 0
M  V30 33674 H 3197.86 6.02507 0.990819 0
M  V30 33675 H 3199.28 5.5973 -1.23997 0
M  V30 33676 H 3197.67 5.64737 -2.02957 0
M  V30 33677 H 3198.74 4.26233 -2.312 0
M  V30 33678 N 3200.09 0.618171 1.4497 0
M  V30 33679 C 3201.05 -0.0846336 2.29044 0
M  V30 33680 C 3202.05 -0.784896 1.40342 0
M  V30 33681 O 3203.24 -0.631451 1.62353 0
M  V30 33682 C 3200.37 -1.13022 3.21619 0
M  V30 33683 H 3201.56 0.654664 2.92667 0
M  V30 33684 H 3199.12 0.377699 1.51668 0
M  V30 33685 H 3199.85 -1.89993 2.62818 0
M  V30 33686 H 3199.64 -0.632172 3.8697 0
M  V30 33687 H 3201.13 -1.62211 3.84808 0
M  V30 33688 N 3201.56 -1.53481 0.357946 0
M  V30 33689 C 3202.81 -2.02128 -0.227085 0
M  V30 33690 C 3203.17 -1.24083 -1.47042 0
M  V30 33691 O 3202.46 -0.324 -1.88841 0
M  V30 33692 C 3202.65 -3.5267 -0.579555 0
M  V30 33693 C 3202.48 -4.45292 0.62807 0
M  V30 33694 C 3201.25 -4.92323 1.13781 0
M  V30 33695 C 3203.45 -4.92214 1.49096 0
M  V30 33696 N 3201.43 -5.68933 2.30625 0
M  V30 33697 C 3202.8 -5.67091 2.50614 0
M  V30 33698 C 3204.86 -4.743 1.51472 0
M  V30 33699 C 3203.56 -6.25958 3.54357 0
M  V30 33700 C 3205.59 -5.34027 2.54104 0
M  V30 33701 C 3204.95 -6.08784 3.54347 0
M  V30 33702 H 3201.05 -0.780645 -0.0460158 0
M  V30 33703 H 3203.63 -1.8815 0.500766 0
M  V30 33704 H 3201.8 -3.66825 -1.27649 0
M  V30 33705 H 3203.53 -3.88046 -1.14902 0
M  V30 33706 H 3200.29 -4.68344 0.703628 0
M  V30 33707 H 3200.71 -6.11904 2.8966 0
M  V30 33708 H 3205.36 -4.16035 0.753286 0
M  V30 33709 H 3203.07 -6.83323 4.31387 0
M  V30 33710 H 3206.66 -5.22064 2.56788 0
M  V30 33711 H 3205.54 -6.54177 4.32461 0
M  V30 33712 N 3203.04 -0.0869173 -1.5736 0
M  V30 33713 C 3203.99 0.885398 -2.10106 0
M  V30 33714 C 3204.98 1.24911 -1.0142 0
M  V30 33715 O 3206.17 1.22556 -1.27707 0
M  V30 33716 C 3203.3 2.14747 -2.6784 0
M  V30 33717 C 3202.38 1.80956 -3.83557 0
M  V30 33718 N 3202.77 1.17684 -4.91919 0
M  V30 33719 C 3201.07 2.10616 -3.93137 0
M  V30 33720 C 3201.77 1.02322 -5.7263 0
M  V30 33721 N 3200.75 1.53787 -5.21393 0
M  V30 33722 H 3204.55 0.392128 -2.91272 0
M  V30 33723 H 3202.07 0.116538 -1.61981 0
M  V30 33724 H 3204.06 2.85339 -3.03953 0
M  V30 33725 H 3202.72 2.64648 -1.88127 0
M  V30 33726 H 3203.73 0.844641 -5.10966 0
M  V30 33727 H 3200.41 2.62788 -3.24421 0
M  V30 33728 H 3201.8 0.529053 -6.69814 0
M  V30 33729 N 3204.52 1.5649 0.186734 0
M  V30 33730 C 3205.47 1.96106 1.2508 0
M  V30 33731 C 3206.46 0.847634 1.46668 0
M  V30 33732 O 3207.67 1.03268 1.4743 0
M  V30 33733 H 3204.04 0.623708 0.42011 0
M  V30 33734 H 3206.01 2.84827 0.889711 0
M  V30 33735 C 3204.76 2.32396 2.58626 0
M  V30 33736 H 3204.09 3.17604 2.42833 0
M  V30 33737 H 3205.53 2.63973 3.31805 0
M  V30 33738 C 3203.99 1.16165 3.16239 0
M  V30 33739 O 3204.52 0.441104 3.99271 0
M  V30 33740 N 3202.72 0.936255 2.75105 0
M  V30 33741 H 3202.27 1.52394 2.07687 0
M  V30 33742 H 3202.23 0.160373 3.13991 0
M  V30 33743 N 3206 -0.45475 1.50897 0
M  V30 33744 C 3207.25 -1.20321 1.6238 0
M  V30 33745 C 3207.57 -1.9212 0.333917 0
M  V30 33746 O 3206.84 -1.84822 -0.649444 0
M  V30 33747 H 3205.42 -0.447128 0.598402 0
M  V30 33748 H 3208.08 -0.523069 1.8775 0
M  V30 33749 H 3207.18 -1.94227 2.44299 0
M  V30 33750 N 3207.48 -1.40749 -0.709041 0
M  V30 33751 C 3208.39 -1.43864 -1.85311 0
M  V30 33752 C 3209.4 -0.330569 -1.70831 0
M  V30 33753 O 3210.58 -0.576185 -1.92982 0
M  V30 33754 C 3207.64 -1.30574 -3.21172 0
M  V30 33755 C 3206.7 -2.5158 -3.47859 0
M  V30 33756 C 3205.94 -2.38915 -4.77237 0
M  V30 33757 O 3206.16 -1.40646 -5.52788 0
M  V30 33758 O 3205.09 -3.28416 -5.04407 0
M  V30 33759 H 3208.92 -2.40357 -1.8564 0
M  V30 33760 H 3206.51 -1.22142 -0.860331 0
M  V30 33761 H 3208.39 -1.25395 -4.02311 0
M  V30 33762 H 3207.06 -0.371898 -3.21557 0
M  V30 33763 H 3205.97 -2.62336 -2.66703 0
M  V30 33764 H 3207.3 -3.43747 -3.52277 0
M  V30 33765 N 3208.96 0.941933 -1.26354 0
M  V30 33766 C 3209.87 2.07413 -1.09622 0
M  V30 33767 C 3210.88 1.73974 -0.0299269 0
M  V30 33768 O 3212.06 2.00042 -0.233501 0
M  V30 33769 C 3209.12 3.38923 -0.730189 0
M  V30 33770 C 3208.18 3.8615 -1.87581 0
M  V30 33771 C 3207.42 5.11384 -1.52715 0
M  V30 33772 O 3207.64 5.68788 -0.428538 0
M  V30 33773 O 3206.57 5.53634 -2.36164 0
M  V30 33774 H 3210.4 2.24437 -2.04602 0
M  V30 33775 H 3207.98 1.05874 -1.05409 0
M  V30 33776 H 3209.87 4.17942 -0.538757 0
M  V30 33777 H 3208.54 3.23141 0.190225 0
M  V30 33778 H 3207.45 3.0808 -2.1222 0
M  V30 33779 H 3208.78 4.06452 -2.77592 0
M  V30 33780 N 3210.43 1.08146 1.1464 0
M  V30 33781 C 3211.34 0.720707 2.23255 0
M  V30 33782 C 3212.36 -0.271618 1.71867 0
M  V30 33783 O 3213.54 -0.116231 2.01064 0
M  V30 33784 C 3210.6 0.132603 3.46446 0
M  V30 33785 C 3209.66 1.1792 4.12787 0
M  V30 33786 C 3208.89 0.619065 5.30097 0
M  V30 33787 O 3209.12 -0.562318 5.67621 0
M  V30 33788 O 3208.05 1.36784 5.86152 0
M  V30 33789 H 3211.88 1.62672 2.5646 0
M  V30 33790 H 3209.46 0.854953 1.22519 0
M  V30 33791 H 3211.34 -0.192696 4.20959 0
M  V30 33792 H 3210.02 -0.746607 3.14972 0
M  V30 33793 H 3208.93 1.55699 3.4016 0
M  V30 33794 H 3210.26 2.03059 4.48361 0
M  V30 33795 N 3211.91 -1.31626 0.866732 0
M  V30 33796 C 3213.14 -2.00712 0.489715 0
M  V30 33797 C 3213.55 -1.65244 -0.921463 0
M  V30 33798 O 3212.89 -0.876041 -1.61466 0
M  V30 33799 C 3212.95 -3.55061 0.56321 0
M  V30 33800 C 3212.62 -4.13993 1.93543 0
M  V30 33801 C 3213.62 -4.31336 2.90251 0
M  V30 33802 C 3211.3 -4.49794 2.23586 0
M  V30 33803 C 3213.29 -4.83665 4.15147 0
M  V30 33804 C 3210.98 -5.01826 3.48732 0
M  V30 33805 C 3211.98 -5.18712 4.44328 0
M  V30 33806 O 3211.67 -5.69627 5.67257 0
M  V30 33807 H 3211.4 -0.648862 0.189617 0
M  V30 33808 H 3213.95 -1.68905 1.16877 0
M  V30 33809 H 3212.18 -3.86314 -0.172748 0
M  V30 33810 H 3213.87 -4.05407 0.20008 0
M  V30 33811 H 3214.64 -4.03998 2.68347 0
M  V30 33812 H 3210.52 -4.35929 1.49956 0
M  V30 33813 H 3214.06 -4.9676 4.8977 0
M  V30 33814 H 3209.96 -5.28597 3.7048 0
M  V30 33815 H 3210.73 -5.88001 5.69383 0
M  V30 33816 N 3213.39 -0.62585 -1.4464 0
M  V30 33817 C 3214.34 0.0944812 -2.32408 0
M  V30 33818 C 3215.33 0.841172 -1.4704 0
M  V30 33819 O 3216.54 0.754669 -1.63416 0
M  V30 33820 H 3212.91 0.0493189 -0.750381 0
M  V30 33821 H 3214.88 -0.663914 -2.9092 0
M  V30 33822 C 3213.63 1.06609 -3.30953 0
M  V30 33823 H 3212.96 0.500952 -3.96649 0
M  V30 33824 H 3214.4 1.53969 -3.95056 0
M  V30 33825 C 3212.85 2.14873 -2.59483 0
M  V30 33826 O 3213.38 3.22881 -2.38979 0
M  V30 33827 N 3211.59 1.90661 -2.1931 0
M  V30 33828 H 3211.14 1.02831 -2.36186 0
M  V30 33829 H 3211.1 2.63299 -1.71816 0
M  V30 33830 N 3214.87 1.53289 -0.36608 0
M  V30 33831 C 3215.81 2.2575 0.480165 0
M  V30 33832 C 3216.78 1.26442 1.07711 0
M  V30 33833 O 3217.97 1.55224 1.10951 0
M  V30 33834 C 3215.11 3.05048 1.61369 0
M  V30 33835 C 3214.22 4.19248 1.04187 0
M  V30 33836 C 3213.36 4.85987 2.14454 0
M  V30 33837 C 3212.4 5.92218 1.5474 0
M  V30 33838 N 3211.53 6.52645 2.58841 0
M  V30 33839 H 3216.37 2.97651 -0.144252 0
M  V30 33840 H 3213.91 1.46866 -0.0829579 0
M  V30 33841 H 3215.87 3.49298 2.28138 0
M  V30 33842 H 3214.5 2.35401 2.20876 0
M  V30 33843 H 3213.55 3.7948 0.264448 0
M  V30 33844 H 3214.86 4.95586 0.565292 0
M  V30 33845 H 3214.02 5.33423 2.89042 0
M  V30 33846 H 3212.76 4.09122 2.65463 0
M  V30 33847 H 3211.76 5.44143 0.786663 0
M  V30 33848 H 3212.99 6.71003 1.04554 0
M  V30 33849 H 3210.93 5.78633 3.09063 0
M  V30 33850 H 3210.85 7.24524 2.15872 0
M  V30 33851 H 3212.12 7.0473 3.3313 0
M  V30 33852 N 3216.35 0.0952613 1.57312 0
M  V30 33853 C 3217.59 -0.568407 1.94359 0
M  V30 33854 C 3217.92 -1.68181 0.97701 0
M  V30 33855 O 3217.18 -1.957 -0.00336958 0
M  V30 33856 C 3217.47 -1.16326 3.37939 0
M  V30 33857 C 3217.14 -0.173635 4.50566 0
M  V30 33858 C 3215.8 0.0985518 4.81099 0
M  V30 33859 C 3218.15 0.502084 5.18776 0
M  V30 33860 C 3215.48 1.05315 5.7717 0
M  V30 33861 C 3217.83 1.44515 6.15872 0
M  V30 33862 C 3216.5 1.72557 6.4481 0
M  V30 33863 H 3215.77 -0.207995 0.71121 0
M  V30 33864 H 3218.42 0.171129 1.90734 0
M  V30 33865 H 3216.72 -1.97905 3.38143 0
M  V30 33866 H 3218.42 -1.68446 3.63905 0
M  V30 33867 H 3215.01 -0.395967 4.26767 0
M  V30 33868 H 3219.19 0.304942 4.95362 0
M  V30 33869 H 3214.45 1.27741 5.97907 0
M  V30 33870 H 3218.62 1.97456 6.6782 0
M  V30 33871 H 3216.25 2.46684 7.19063 0
M  V30 33872 N 3217.82 -1.56587 -0.178432 0
M  V30 33873 C 3218.75 -1.98886 -1.22338 0
M  V30 33874 C 3219.73 -0.863336 -1.46562 0
M  V30 33875 O 3220.92 -1.1289 -1.58017 0
M  V30 33876 C 3218.05 -2.34266 -2.56392 0
M  V30 33877 C 3217 -3.49712 -2.4675 0
M  V30 33878 C 3216.33 -3.70814 -3.85229 0
M  V30 33879 C 3217.63 -4.83385 -1.97829 0
M  V30 33880 H 3219.32 -2.86426 -0.871798 0
M  V30 33881 H 3216.87 -1.37802 -0.417924 0
M  V30 33882 H 3218.82 -2.62454 -3.29691 0
M  V30 33883 H 3217.55 -1.43627 -2.93324 0
M  V30 33884 H 3216.21 -3.21641 -1.75906 0
M  V30 33885 H 3215.85 -2.77477 -4.19542 0
M  V30 33886 H 3215.55 -4.48488 -3.79648 0
M  V30 33887 H 3217.08 -4.01395 -4.60124 0
M  V30 33888 H 3218.49 -5.10495 -2.60897 0
M  V30 33889 H 3216.89 -5.64646 -2.03213 0
M  V30 33890 H 3217.96 -4.75854 -0.932255 0
M  V30 33891 N 3219.3 0.446741 -1.51136 0
M  V30 33892 C 3220.26 1.52403 -1.7119 0
M  V30 33893 C 3221.26 1.49895 -0.582064 0
M  V30 33894 O 3222.45 1.52084 -0.849478 0
M  V30 33895 C 3219.59 2.91973 -1.75968 0
M  V30 33896 H 3220.78 1.35929 -2.67326 0
M  V30 33897 H 3218.33 0.674788 -1.40983 0
M  V30 33898 H 3219.07 3.13863 -0.81612 0
M  V30 33899 H 3218.85 2.95199 -2.5807 0
M  V30 33900 H 3220.34 3.70141 -1.93354 0
M  V30 33901 N 3220.78 1.41123 0.701567 0
M  V30 33902 C 3221.73 1.42498 1.81557 0
M  V30 33903 C 3222.7 0.280107 1.63721 0
M  V30 33904 O 3223.88 0.480263 1.84657 0
M  V30 33905 C 3221.02 1.30707 3.19389 0
M  V30 33906 C 3220.13 2.55015 3.48699 0
M  V30 33907 C 3219.27 2.35562 4.76113 0
M  V30 33908 C 3218.31 3.55376 4.98372 0
M  V30 33909 N 3217.45 3.35031 6.17008 0
M  V30 33910 H 3222.29 2.3771 1.79716 0
M  V30 33911 H 3219.82 1.18045 0.877706 0
M  V30 33912 H 3221.78 1.21874 3.99002 0
M  V30 33913 H 3220.41 0.391068 3.20422 0
M  V30 33914 H 3219.46 2.74322 2.63537 0
M  V30 33915 H 3220.77 3.44157 3.61051 0
M  V30 33916 H 3219.93 2.24162 5.6377 0
M  V30 33917 H 3218.67 1.43868 4.65997 0
M  V30 33918 H 3217.67 3.67237 4.09166 0
M  V30 33919 H 3218.9 4.48016 5.10351 0
M  V30 33920 H 3216.84 2.46031 6.08116 0
M  V30 33921 H 3216.76 4.17745 6.301 0
M  V30 33922 H 3218.03 3.27391 7.07414 0
M  V30 33923 N 3222.26 -0.935219 1.26852 0
M  V30 33924 C 3223.51 -1.67656 1.12135 0
M  V30 33925 C 3223.82 -1.92731 -0.333805 0
M  V30 33926 O 3225.03 -2.64747 -0.601754 0
M  V30 33927 C 3223.48 -3.01927 1.95878 0
M  V30 33928 C 3223.09 -2.84578 3.46005 0
M  V30 33929 C 3224.83 -3.79712 1.89787 0
M  V30 33930 C 3222.74 -4.14358 4.21973 0
M  V30 33931 H 3221.67 -0.628826 0.416046 0
M  V30 33932 H 3224.32 -1.03959 1.51211 0
M  V30 33933 H 3222.7 -3.66639 1.4964 0
M  V30 33934 H 3223.88 -2.2868 4.00053 0
M  V30 33935 H 3222.19 -2.2023 3.53395 0
M  V30 33936 H 3224.79 -4.7587 2.43827 0
M  V30 33937 H 3225.13 -4.07111 0.869868 0
M  V30 33938 H 3225.67 -3.21784 2.3388 0
M  V30 33939 H 3222.4 -3.92141 5.25267 0
M  V30 33940 H 3221.92 -4.69949 3.72704 0
M  V30 33941 H 3223.6 -4.82773 4.30743 0
M  V30 33942 N 3223.74 -1.08752 -1.14065 0
M  V30 33943 C 3225.15 -0.815847 -1.37172 0
M  V30 33944 C 3225.35 0.573181 -1.93176 0
M  V30 33945 O 3224.41 1.32933 -2.14674 0
M  V30 33946 C 3225.72 -1.90142 -2.32952 0
M  V30 33947 C 3227.27 -1.92785 -2.46583 0
M  V30 33948 C 3227.74 -3.00466 -3.45665 0
M  V30 33949 N 3229.24 -2.99661 -3.5321 0
M  V30 33950 C 3229.97 -3.79623 -4.29737 0
M  V30 33951 N 3229.47 -4.69475 -5.09476 0
M  V30 33952 N 3231.26 -3.67911 -4.24968 0
M  V30 33953 H 3223.41 -1.98314 -0.760613 0
M  V30 33954 H 3225.67 -0.860814 -0.39712 0
M  V30 33955 H 3225.38 -2.90025 -1.98944 0
M  V30 33956 H 3225.25 -1.77374 -3.32894 0
M  V30 33957 H 3227.64 -0.935453 -2.79881 0
M  V30 33958 H 3227.72 -2.09631 -1.46589 0
M  V30 33959 H 3227.37 -3.99914 -3.13099 0
M  V30 33960 H 3227.3 -2.80864 -4.45447 0
M  V30 33961 H 3229.79 -2.3454 -2.96309 0
M  V30 33962 H 3230.1 -5.27087 -5.65154 0
M  V30 33963 H 3228.44 -4.73515 -5.08732 0
M  V30 33964 H 3231.64 -2.97081 -3.61746 0
M  V30 33965 H 3231.81 -4.30468 -4.84357 0
M  V30 33966 N 3225.21 1.31165 -0.873701 0
M  V30 33967 C 3226.44 2.01276 -0.500277 0
M  V30 33968 C 3226.86 1.65129 0.900782 0
M  V30 33969 O 3226.22 0.86189 1.59503 0
M  V30 33970 C 3226.27 3.54339 -0.669039 0
M  V30 33971 O 3225.37 4.11379 0.290023 0
M  V30 33972 H 3224.72 0.63363 -0.198518 0
M  V30 33973 H 3227.25 1.67275 -1.17814 0
M  V30 33974 H 3227.26 4.04087 -0.563745 0
M  V30 33975 H 3225.93 3.79988 -1.69062 0
M  V30 33976 H 3224.51 3.72639 0.139372 0
M  V30 33977 N 3226.69 0.633512 1.44307 0
M  V30 33978 C 3227.94 0.139158 2.02322 0
M  V30 33979 C 3228.27 -1.23665 1.49735 0
M  V30 33980 O 3227.55 -1.82137 0.682385 0
M  V30 33981 C 3227.83 0.128429 3.59871 0
M  V30 33982 C 3227.68 1.53674 4.22734 0
M  V30 33983 C 3229 -0.545757 4.36703 0
M  V30 33984 H 3226.12 0.0520423 0.73516 0
M  V30 33985 H 3228.76 0.810441 1.71848 0
M  V30 33986 H 3226.91 -0.443195 3.85964 0
M  V30 33987 H 3228.58 2.15744 4.0774 0
M  V30 33988 H 3226.83 2.08991 3.80138 0
M  V30 33989 H 3227.5 1.48125 5.31755 0
M  V30 33990 H 3229.97 -0.0596148 4.16057 0
M  V30 33991 H 3228.85 -0.522461 5.46408 0
M  V30 33992 H 3229.11 -1.61652 4.11486 0
M  V30 33993 N 3228.17 -1.53093 0.374204 0
M  V30 33994 C 3229.58 -1.86415 -0.103139 0
M  V30 33995 C 3229.93 -1.29449 -1.47436 0
M  V30 33996 O 3229.06 -0.619889 -2.07331 0
M  V30 33997 C 3229.65 -3.38245 -0.193929 0
M  V30 33998 C 3228.21 -3.71333 -0.61554 0
M  V30 33999 C 3227.36 -2.76329 0.231909 0
M  V30 34000 H 3230.31 -1.47218 0.59267 0
M  V30 34001 H 3230.33 -3.66687 -1.01591 0
M  V30 34002 H 3229.84 -3.79676 0.804207 0
M  V30 34003 H 3227.94 -3.35463 -1.62159 0
M  V30 34004 H 3228.06 -4.77557 -0.384166 0
M  V30 34005 H 3226.42 -2.52921 -0.300535 0
M  V30 34006 H 3227.2 -3.20595 1.22774 0
M  V30 34007 N 3229.65 -0.103603 -1.57259 0
M  V30 34008 C 3230.9 0.557826 -1.93833 0
M  V30 34009 C 3231.21 1.68806 -0.988117 0
M  V30 34010 O 3232.42 2.41122 -1.2479 0
M  V30 34011 C 3230.87 1.04367 -3.44435 0
M  V30 34012 C 3230.48 -0.0572758 -4.47963 0
M  V30 34013 C 3232.22 1.67735 -3.89955 0
M  V30 34014 C 3230.13 0.444401 -5.89728 0
M  V30 34015 H 3229.06 0.212148 -0.723539 0
M  V30 34016 H 3231.71 -0.180976 -1.82605 0
M  V30 34017 H 3230.09 1.83642 -3.50844 0
M  V30 34018 H 3231.27 -0.83306 -4.53207 0
M  V30 34019 H 3229.58 -0.59666 -4.12103 0
M  V30 34020 H 3232.18 2.06356 -4.93276 0
M  V30 34021 H 3232.52 2.54982 -3.29074 0
M  V30 34022 H 3233.06 0.950275 -3.86283 0
M  V30 34023 H 3229.8 -0.391658 -6.54329 0
M  V30 34024 H 3229.32 1.187 -5.87937 0
M  V30 34025 H 3230.99 0.910627 -6.4056 0
M  V30 34026 N 3231.13 1.56679 0.170126 0
M  V30 34027 C 3232.37 1.81702 0.884809 0
M  V30 34028 C 3232.7 0.680795 1.8273 0
M  V30 34029 O 3231.97 -0.29926 1.93601 0
M  V30 34030 H 3230.55 0.670291 0.329726 0
M  V30 34031 H 3233.21 1.9416 0.169657 0
M  V30 34032 H 3232.3 2.75792 1.46099 0
M  V30 34033 N 3232.6 -0.43872 1.5137 0
M  V30 34034 C 3234.02 -0.775091 1.39515 0
M  V30 34035 C 3234.22 -1.95787 0.476414 0
M  V30 34036 O 3233.28 -2.52406 -0.0689388 0
M  V30 34037 C 3234.59 -1.05676 2.81519 0
M  V30 34038 C 3236.14 -1.16128 2.9066 0
M  V30 34039 C 3236.61 -1.47589 4.33568 0
M  V30 34040 N 3238.1 -1.54516 4.36668 0
M  V30 34041 C 3238.84 -1.80428 5.44273 0
M  V30 34042 N 3238.33 -2.04142 6.62041 0
M  V30 34043 N 3240.13 -1.82199 5.31752 0
M  V30 34044 H 3232.28 0.340274 2.09657 0
M  V30 34045 H 3234.54 0.0898281 0.943735 0
M  V30 34046 H 3234.25 -0.260379 3.50735 0
M  V30 34047 H 3234.12 -1.98475 3.20761 0
M  V30 34048 H 3236.51 -1.94829 2.21643 0
M  V30 34049 H 3236.59 -0.212331 2.54917 0
M  V30 34050 H 3236.23 -0.694163 5.03134 0
M  V30 34051 H 3236.16 -2.43688 4.66823 0
M  V30 34052 H 3238.65 -1.38099 3.51763 0
M  V30 34053 H 3238.97 -2.2328 7.39842 0
M  V30 34054 H 3237.31 -2.01467 6.65159 0
M  V30 34055 H 3240.5 -1.63191 4.38733 0
M  V30 34056 H 3240.68 -2.02056 6.15693 0
M  V30 34057 N 3234.08 -1.41493 -0.694073 0
M  V30 34058 C 3235.05 -1.43182 -1.78974 0
M  V30 34059 C 3236.05 -0.322218 -1.57539 0
M  V30 34060 O 3237.24 -0.582167 -1.64184 0
M  V30 34061 C 3234.37 -1.24466 -3.17366 0
M  V30 34062 H 3235.56 -2.40719 -1.78869 0
M  V30 34063 H 3233.11 -1.27658 -0.901845 0
M  V30 34064 H 3233.85 -0.277748 -3.23108 0
M  V30 34065 H 3233.63 -2.04862 -3.34326 0
M  V30 34066 H 3235.12 -1.28486 -3.97343 0
M  V30 34067 N 3235.56 0.928479 -1.27346 0
M  V30 34068 C 3236.49 2.04601 -1.12521 0
M  V30 34069 C 3237.47 1.70079 -0.0268862 0
M  V30 34070 O 3238.66 1.93155 -0.201231 0
M  V30 34071 C 3235.79 3.38638 -0.770808 0
M  V30 34072 C 3234.74 3.87269 -1.82227 0
M  V30 34073 C 3234.07 5.18103 -1.32187 0
M  V30 34074 C 3235.37 4.10746 -3.22621 0
M  V30 34075 H 3237.06 2.17262 -2.06004 0
M  V30 34076 H 3234.61 1.04396 -0.991845 0
M  V30 34077 H 3236.56 4.16295 -0.653916 0
M  V30 34078 H 3235.28 3.25989 0.199732 0
M  V30 34079 H 3233.94 3.11804 -1.92805 0
M  V30 34080 H 3233.59 5.01844 -0.340807 0
M  V30 34081 H 3233.29 5.5161 -2.02484 0
M  V30 34082 H 3234.81 5.98331 -1.2179 0
M  V30 34083 H 3236.23 4.78976 -3.15048 0
M  V30 34084 H 3234.63 4.55559 -3.90622 0
M  V30 34085 H 3235.7 3.1607 -3.67733 0
M  V30 34086 N 3237.04 1.09355 1.13486 0
M  V30 34087 C 3237.97 0.754129 2.20987 0
M  V30 34088 C 3238.95 -0.267871 1.67978 0
M  V30 34089 O 3240.13 -0.136094 1.93723 0
M  V30 34090 C 3237.26 0.173103 3.46868 0
M  V30 34091 C 3236.22 1.12454 4.12963 0
M  V30 34092 C 3235.54 0.405251 5.33162 0
M  V30 34093 C 3236.84 2.46666 4.60384 0
M  V30 34094 H 3238.54 1.65294 2.49636 0
M  V30 34095 H 3236.08 0.796203 1.19986 0
M  V30 34096 H 3238.04 -0.0764247 4.21331 0
M  V30 34097 H 3236.76 -0.7609 3.17613 0
M  V30 34098 H 3235.42 1.35933 3.40467 0
M  V30 34099 H 3235.07 -0.532867 5.0017 0
M  V30 34100 H 3234.77 1.03962 5.7833 0
M  V30 34101 H 3236.29 0.164006 6.1038 0
M  V30 34102 H 3237.71 2.27399 5.26272 0
M  V30 34103 H 3236.1 3.05885 5.16289 0
M  V30 34104 H 3237.17 3.07482 3.74944 0
M  V30 34105 N 3238.52 -1.307 0.880644 0
M  V30 34106 C 3239.45 -2.30704 0.360292 0
M  V30 34107 C 3240.43 -1.60807 -0.554544 0
M  V30 34108 O 3241.61 -1.88444 -0.469312 0
M  V30 34109 C 3238.74 -3.4463 -0.429827 0
M  V30 34110 C 3237.7 -4.26193 0.392861 0
M  V30 34111 C 3237.02 -5.3213 -0.523596 0
M  V30 34112 C 3238.32 -4.96126 1.63266 0
M  V30 34113 H 3240.02 -2.74476 1.19596 0
M  V30 34114 H 3237.56 -1.31955 0.576531 0
M  V30 34115 H 3239.52 -4.1365 -0.804459 0
M  V30 34116 H 3238.24 -2.99651 -1.2991 0
M  V30 34117 H 3236.9 -3.58855 0.749577 0
M  V30 34118 H 3236.55 -4.834 -1.39046 0
M  V30 34119 H 3236.25 -5.87595 0.0230304 0
M  V30 34120 H 3237.77 -6.04007 -0.89484 0
M  V30 34121 H 3239.19 -5.57686 1.32886 0
M  V30 34122 H 3237.58 -5.61437 2.11916 0
M  V30 34123 H 3238.65 -4.22501 2.37952 0
M  V30 34124 N 3240 -0.641156 -1.43969 0
M  V30 34125 C 3241.41 -0.23087 -1.85267 0
M  V30 34126 C 3241.76 1.21995 -1.53661 0
M  V30 34127 O 3240.88 1.92958 -0.979606 0
M  V30 34128 C 3241.48 -0.41223 -3.36283 0
M  V30 34129 C 3240.04 -0.0563666 -3.76358 0
M  V30 34130 C 3239.18 -0.720856 -2.67767 0
M  V30 34131 H 3242.13 -0.845647 -1.34293 0
M  V30 34132 H 3242.16 0.345869 -3.78925 0
M  V30 34133 H 3241.67 -1.46824 -3.59255 0
M  V30 34134 H 3239.77 0.997519 -3.58999 0
M  V30 34135 H 3239.88 -0.473419 -4.76755 0
M  V30 34136 H 3238.25 -0.155209 -2.54227 0
M  V30 34137 H 3239.03 -1.77966 -2.9357 0
M  V30 34138 N 3241.47 1.52892 -0.382318 0
M  V30 34139 C 3242.38 2.29972 0.463705 0
M  V30 34140 C 3243.4 1.36604 1.07774 0
M  V30 34141 O 3244.58 1.69671 1.08507 0
M  V30 34142 C 3241.64 3.08639 1.57932 0
M  V30 34143 C 3240.7 4.17703 0.991109 0
M  V30 34144 C 3239.93 4.9261 2.05356 0
M  V30 34145 O 3240.16 4.67538 3.26749 0
M  V30 34146 O 3239.09 5.78131 1.67477 0
M  V30 34147 H 3242.92 3.03257 -0.164016 0
M  V30 34148 H 3240.5 1.48683 -0.146225 0
M  V30 34149 H 3242.38 3.5771 2.22758 0
M  V30 34150 H 3241.06 2.38174 2.19214 0
M  V30 34151 H 3239.97 3.72844 0.306299 0
M  V30 34152 H 3241.3 4.90382 0.422613 0
M  V30 34153 N 3242.95 0.111941 1.57202 0
M  V30 34154 C 3244.18 -0.554872 1.99009 0
M  V30 34155 C 3244.59 -1.6121 0.990351 0
M  V30 34156 O 3243.93 -1.83682 -0.0259289 0
M  V30 34157 C 3243.99 -1.24592 3.3722 0
M  V30 34158 C 3243.66 -0.337469 4.55752 0
M  V30 34159 C 3244.66 0.421117 5.18192 0
M  V30 34160 C 3242.34 -0.250602 5.01674 0
M  V30 34161 C 3244.33 1.25437 6.24935 0
M  V30 34162 C 3242.02 0.586293 6.08281 0
M  V30 34163 C 3243.02 1.33742 6.69778 0
M  V30 34164 O 3242.71 2.16043 7.74326 0
M  V30 34165 H 3242.44 -0.152079 0.658671 0
M  V30 34166 H 3244.99 0.192973 2.04492 0
M  V30 34167 H 3243.22 -2.04068 3.28471 0
M  V30 34168 H 3244.91 -1.80893 3.63363 0
M  V30 34169 H 3245.68 0.363837 4.83633 0
M  V30 34170 H 3241.56 -0.824925 4.53559 0
M  V30 34171 H 3245.1 1.84114 6.72865 0
M  V30 34172 H 3241 0.644992 6.42269 0
M  V30 34173 H 3241.77 2.08908 7.91391 0
M  V30 34174 N 3244.43 -1.56767 -0.161814 0
M  V30 34175 C 3245.65 -1.87035 -0.896241 0
M  V30 34176 C 3246.08 -0.699345 -1.74616 0
M  V30 34177 O 3245.44 0.351404 -1.77862 0
M  V30 34178 C 3245.49 -3.15787 -1.741 0
M  V30 34179 O 3244.59 -2.98679 -2.84367 0
M  V30 34180 H 3243.93 -0.61493 -0.250513 0
M  V30 34181 H 3246.46 -2.03996 -0.157091 0
M  V30 34182 H 3246.47 -3.47434 -2.13901 0
M  V30 34183 H 3245.15 -4.00626 -1.11677 0
M  V30 34184 H 3243.72 -2.78408 -2.48079 0
M  V30 34185 N 3245.91 0.430686 -1.51601 0
M  V30 34186 C 3247.14 1.20182 -1.68416 0
M  V30 34187 C 3247.55 1.84847 -0.38433 0
M  V30 34188 O 3246.91 1.70993 0.637778 0
M  V30 34189 C 3246.96 2.28095 -2.80455 0
M  V30 34190 O 3246.68 1.66074 -4.05402 0
M  V30 34191 C 3248.18 3.18251 -3.08596 0
M  V30 34192 H 3245.4 0.36198 -0.564988 0
M  V30 34193 H 3247.94 0.509505 -1.98051 0
M  V30 34194 H 3246.1 2.93031 -2.534 0
M  V30 34195 H 3246.51 2.37445 -4.67675 0
M  V30 34196 H 3247.99 3.90089 -3.90557 0
M  V30 34197 H 3248.46 3.79389 -2.21271 0
M  V30 34198 H 3249.07 2.59008 -3.37335 0
M  V30 34199 N 3247.39 1.4186 0.686559 0
M  V30 34200 C 3248.32 1.47196 1.81261 0
M  V30 34201 C 3249.3 0.329686 1.66874 0
M  V30 34202 O 3250.48 0.54238 1.86472 0
M  V30 34203 C 3247.61 1.36221 3.1947 0
M  V30 34204 C 3246.57 2.48353 3.48575 0
M  V30 34205 C 3245.89 2.22441 4.86235 0
M  V30 34206 C 3247.19 3.90684 3.46646 0
M  V30 34207 H 3248.89 2.41439 1.77053 0
M  V30 34208 H 3246.43 1.16208 0.850395 0
M  V30 34209 H 3248.38 1.38565 3.97967 0
M  V30 34210 H 3247.11 0.384668 3.24327 0
M  V30 34211 H 3245.77 2.45307 2.72433 0
M  V30 34212 H 3245.42 1.23008 4.87727 0
M  V30 34213 H 3245.12 2.97585 5.06672 0
M  V30 34214 H 3246.64 2.26514 5.6703 0
M  V30 34215 H 3248.05 3.95396 4.15132 0
M  V30 34216 H 3246.45 4.65585 3.78617 0
M  V30 34217 H 3247.52 4.18193 2.45444 0
M  V30 34218 N 3248.86 -0.921712 1.27837 0
M  V30 34219 C 3250.09 -1.70151 1.17185 0
M  V30 34220 C 3250.5 -1.87218 -0.273174 0
M  V30 34221 O 3249.84 -1.39324 -1.19727 0
M  V30 34222 C 3249.91 -3.11783 1.78975 0
M  V30 34223 C 3249.57 -3.18031 3.28185 0
M  V30 34224 C 3250.57 -2.99828 4.24735 0
M  V30 34225 C 3248.25 -3.40799 3.69001 0
M  V30 34226 C 3250.25 -3.04291 5.60077 0
M  V30 34227 C 3247.93 -3.44895 5.04471 0
M  V30 34228 C 3248.93 -3.2666 5.99819 0
M  V30 34229 O 3248.62 -3.30502 7.32819 0
M  V30 34230 H 3248.35 -0.538925 0.408088 0
M  V30 34231 H 3250.91 -1.16263 1.69328 0
M  V30 34232 H 3249.14 -3.67177 1.21316 0
M  V30 34233 H 3250.82 -3.71754 1.62952 0
M  V30 34234 H 3251.59 -2.82073 3.94538 0
M  V30 34235 H 3247.47 -3.5404 2.95257 0
M  V30 34236 H 3251.01 -2.89976 6.34476 0
M  V30 34237 H 3246.91 -3.62175 5.34321 0
M  V30 34238 H 3247.68 -3.46917 7.41344 0
M  V30 34239 N 3250.34 -1.09956 -1.12905 0
M  V30 34240 C 3251.76 -0.83035 -1.36299 0
M  V30 34241 C 3251.96 0.55266 -1.93773 0
M  V30 34242 O 3251.01 1.30649 -2.16072 0
M  V30 34243 C 3252.33 -1.92602 -2.30922 0
M  V30 34244 C 3253.87 -1.95389 -2.44524 0
M  V30 34245 C 3254.35 -3.04116 -3.42458 0
M  V30 34246 N 3255.84 -3.0339 -3.50012 0
M  V30 34247 C 3256.58 -3.8416 -4.25686 0
M  V30 34248 N 3256.07 -4.74852 -5.04468 0
M  V30 34249 N 3257.86 -3.72398 -4.21042 0
M  V30 34250 H 3250.02 -1.9911 -0.739536 0
M  V30 34251 H 3252.28 -0.864977 -0.387967 0
M  V30 34252 H 3251.98 -2.92119 -1.95856 0
M  V30 34253 H 3251.86 -1.80894 -3.30994 0
M  V30 34254 H 3254.25 -0.965086 -2.78873 0
M  V30 34255 H 3254.33 -2.11174 -1.44357 0
M  V30 34256 H 3253.97 -4.03213 -3.0884 0
M  V30 34257 H 3253.9 -2.85573 -4.42443 0
M  V30 34258 H 3256.39 -2.3767 -2.93805 0
M  V30 34259 H 3256.7 -5.33051 -5.59532 0
M  V30 34260 H 3255.05 -4.78884 -5.03681 0
M  V30 34261 H 3258.24 -3.00901 -3.58575 0
M  V30 34262 H 3258.41 -4.35581 -4.79764 0
M  V30 34263 N 3251.82 1.30231 -0.887563 0
M  V30 34264 C 3253.24 1.48613 -0.581931 0
M  V30 34265 C 3253.44 1.81284 0.879679 0
M  V30 34266 O 3252.49 1.90201 1.66072 0
M  V30 34267 C 3253.8 2.6077 -1.49731 0
M  V30 34268 C 3255.35 2.7465 -1.50121 0
M  V30 34269 C 3255.83 3.89923 -2.40258 0
M  V30 34270 N 3257.32 3.97238 -2.38236 0
M  V30 34271 C 3258.05 4.85748 -3.0469 0
M  V30 34272 N 3257.55 5.79037 -3.80379 0
M  V30 34273 N 3259.34 4.79139 -2.93909 0
M  V30 34274 H 3251.49 1.07297 -1.83306 0
M  V30 34275 H 3253.76 0.531813 -0.78478 0
M  V30 34276 H 3253.46 2.43457 -2.53814 0
M  V30 34277 H 3253.34 3.57306 -1.2088 0
M  V30 34278 H 3255.72 2.91367 -0.467883 0
M  V30 34279 H 3255.8 1.78727 -1.83004 0
M  V30 34280 H 3255.45 3.73963 -3.43678 0
M  V30 34281 H 3255.38 4.8519 -2.04691 0
M  V30 34282 H 3257.87 3.30505 -1.83235 0
M  V30 34283 H 3258.18 6.43343 -4.28171 0
M  V30 34284 H 3256.53 5.7896 -3.84487 0
M  V30 34285 H 3259.72 4.0524 -2.34303 0
M  V30 34286 H 3259.89 5.47909 -3.45976 0
M  V30 34287 N 3253.3 0.648782 1.43627 0
M  V30 34288 C 3254.54 0.169194 2.02695 0
M  V30 34289 C 3254.9 -1.20188 1.50242 0
M  V30 34290 O 3254.19 -1.78973 0.68405 0
M  V30 34291 C 3254.39 0.115345 3.57214 0
M  V30 34292 C 3254.22 1.47966 4.2466 0
M  V30 34293 C 3252.99 2.07092 4.60913 0
M  V30 34294 C 3255.18 2.41716 4.53958 0
M  V30 34295 N 3253.17 3.36575 5.13411 0
M  V30 34296 C 3254.54 3.55828 5.07727 0
M  V30 34297 C 3256.59 2.40573 4.35923 0
M  V30 34298 C 3255.29 4.69016 5.45359 0
M  V30 34299 C 3257.32 3.52839 4.74614 0
M  V30 34300 C 3256.68 4.65676 5.28512 0
M  V30 34301 H 3252.78 0.106241 0.77475 0
M  V30 34302 H 3255.37 0.856121 1.74868 0
M  V30 34303 H 3253.54 -0.540912 3.84615 0
M  V30 34304 H 3255.27 -0.374704 4.02962 0
M  V30 34305 H 3252.02 1.59849 4.45809 0
M  V30 34306 H 3252.45 4.02822 5.44117 0
M  V30 34307 H 3257.09 1.54576 3.9353 0
M  V30 34308 H 3254.81 5.55709 5.86697 0
M  V30 34309 H 3258.39 3.53152 4.62358 0
M  V30 34310 H 3257.27 5.5111 5.57896 0
M  V30 34311 N 3254.78 -1.52688 0.390421 0
M  V30 34312 C 3255.71 -2.294 -0.435629 0
M  V30 34313 C 3256.69 -1.32834 -1.0625 0
M  V30 34314 O 3257.87 -1.61728 -1.07506 0
M  V30 34315 C 3255 -3.10165 -1.56254 0
M  V30 34316 C 3253.96 -4.14624 -1.06165 0
M  V30 34317 C 3253.28 -4.83619 -2.28071 0
M  V30 34318 C 3254.58 -5.22141 -0.12881 0
M  V30 34319 H 3256.28 -2.98701 0.204437 0
M  V30 34320 H 3253.82 -1.43654 0.0997629 0
M  V30 34321 H 3255.78 -3.62589 -2.14725 0
M  V30 34322 H 3254.5 -2.38599 -2.23021 0
M  V30 34323 H 3253.16 -3.63182 -0.499455 0
M  V30 34324 H 3252.81 -4.08601 -2.93351 0
M  V30 34325 H 3252.51 -5.54224 -1.95217 0
M  V30 34326 H 3254.03 -5.38849 -2.87183 0
M  V30 34327 H 3255.44 -5.69919 -0.621749 0
M  V30 34328 H 3253.84 -5.99999 0.110024 0
M  V30 34329 H 3254.91 -4.77883 0.821968 0
M  V30 34330 N 3256.25 -0.120276 -1.5714 0
M  V30 34331 C 3257.53 0.581042 -1.86771 0
M  V30 34332 C 3257.91 1.8473 -1.02166 0
M  V30 34333 O 3257.26 2.28277 -0.100937 0
M  V30 34334 C 3257.47 0.872257 -3.37924 0
M  V30 34335 C 3258.82 1.22476 -4.06552 0
M  V30 34336 O 3259.84 0.962478 -3.4295 0
M  V30 34337 O 3258.7 1.71707 -5.18824 0
M  V30 34338 H 3255.79 0.293349 -0.773224 0
M  V30 34339 H 3258.34 -0.154876 -1.68992 0
M  V30 34340 H 3257.11 -0.0250104 -3.91292 0
M  V30 34341 H 3256.74 1.66329 -3.61138 0
M  V30 34342 N 3257.73 1.56851 0.153498 0
M  V30 34343 C 3258.96 1.87508 0.88631 0
M  V30 34344 C 3259.38 0.708595 1.74243 0
M  V30 34345 O 3258.74 -0.341966 1.78046 0
M  V30 34346 C 3258.79 3.16706 1.72422 0
M  V30 34347 O 3257.89 3.00183 2.82779 0
M  V30 34348 H 3257.23 0.61625 0.247248 0
M  V30 34349 H 3259.76 2.04076 0.146271 0
M  V30 34350 H 3259.77 3.48563 2.12056 0
M  V30 34351 H 3258.45 4.01212 1.09551 0
M  V30 34352 H 3257.03 2.7972 2.46599 0
M  V30 34353 N 3259.21 -0.42264 1.51827 0
M  V30 34354 C 3260.46 -1.17081 1.65222 0
M  V30 34355 C 3260.79 -1.9084 0.375541 0
M  V30 34356 O 3260.04 -1.84905 -0.640997 0
M  V30 34357 C 3260.34 -2.20114 2.81575 0
M  V30 34358 C 3260.01 -1.63261 4.20306 0
M  V30 34359 C 3258.67 -1.47479 4.58043 0
M  V30 34360 C 3261.02 -1.21609 5.06814 0
M  V30 34361 C 3258.35 -0.885429 5.7998 0
M  V30 34362 C 3260.7 -0.64096 6.29344 0
M  V30 34363 C 3259.36 -0.470169 6.65842 0
M  V30 34364 H 3258.63 -0.428431 0.604589 0
M  V30 34365 H 3261.28 -0.459841 1.85897 0
M  V30 34366 H 3259.59 -2.97305 2.55181 0
M  V30 34367 H 3261.28 -2.77851 2.89137 0
M  V30 34368 H 3257.87 -1.76524 3.9056 0
M  V30 34369 H 3262.06 -1.32616 4.78254 0
M  V30 34370 H 3257.31 -0.740998 6.06893 0
M  V30 34371 H 3261.49 -0.309766 6.95711 0
M  V30 34372 H 3259.11 -0.0113702 7.60199 0
M  V30 34373 O 3260.73 -1.51164 -0.568468 0
M  V30 34374 H 3261.42 -1.50164 -1.22354 0
M  V30 END ATOM
M  V30 BEGIN BOND
M  V30 END BOND
M  V30 END CTAB
M  END
$$$$
