5289306
  -OEChem-01152014073D

 52 53  0     1  0  0  0  0  0999 V2000
   -6.9883    1.0331   -0.0872 P   0  0  0  0  0  0  0  0  0  0  0  0
   -2.8869   -0.1044   -0.7918 O   0  0  0  0  0  0  0  0  0  0  0  0
   -0.9328   -2.1027    1.4587 O   0  0  0  0  0  0  0  0  0  0  0  0
   -2.3152   -3.0940   -0.6803 O   0  0  0  0  0  0  0  0  0  0  0  0
   -5.6569    0.3040   -0.6510 O   0  0  0  0  0  0  0  0  0  0  0  0
   -0.1866   -1.1530   -1.4563 O   0  0  0  0  0  0  0  0  0  0  0  0
   -0.0350    2.7146    1.0335 O   0  0  0  0  0  0  0  0  0  0  0  0
   -7.9478   -0.2112    0.2949 O   0  0  0  0  0  0  0  0  0  0  0  0
   -6.5306    1.6062    1.3541 O   0  0  0  0  0  0  0  0  0  0  0  0
   -7.5986    2.0428   -1.0147 O   0  0  0  0  0  0  0  0  0  0  0  0
    6.5506    2.1387   -0.2556 O   0  0  0  0  0  0  0  0  0  0  0  0
    5.1831   -1.7002    1.4981 O   0  0  0  0  0  0  0  0  0  0  0  0
    5.3001   -1.9955   -0.7465 O   0  0  0  0  0  0  0  0  0  0  0  0
    8.9250    0.6036   -0.1152 O   0  0  0  0  0  0  0  0  0  0  0  0
   -1.6243    1.0222    0.8368 N   0  0  0  0  0  0  0  0  0  0  0  0
    0.2642    0.8388   -0.3322 N   0  0  0  0  0  0  0  0  0  0  0  0
    6.5520    0.6933   -0.4022 N   0  0  2  0  0  0  0  0  0  0  0  0
   -1.7966   -0.2169    0.1217 C   0  0  1  0  0  0  0  0  0  0  0  0
   -2.0812   -1.3959    1.0400 C   0  0  1  0  0  0  0  0  0  0  0  0
   -3.0291   -2.2470    0.2169 C   0  0  1  0  0  0  0  0  0  0  0  0
   -3.8025   -1.2003   -0.5781 C   0  0  1  0  0  0  0  0  0  0  0  0
   -0.4844   -0.2711   -0.6616 C   0  0  0  0  0  0  0  0  0  0  0  0
   -5.0193   -0.6632    0.1643 C   0  0  0  0  0  0  0  0  0  0  0  0
   -0.4073    1.6478    0.5625 C   0  0  0  0  0  0  0  0  0  0  0  0
    1.5723    1.1244   -0.8870 C   0  0  0  0  0  0  0  0  0  0  0  0
    2.7040    0.5018   -0.0728 C   0  0  0  0  0  0  0  0  0  0  0  0
    4.0889    0.8265   -0.6552 C   0  0  0  0  0  0  0  0  0  0  0  0
    5.2685    0.2723    0.1580 C   0  0  1  0  0  0  0  0  0  0  0  0
    5.2538   -1.2445    0.2192 C   0  0  0  0  0  0  0  0  0  0  0  0
    7.6610    0.2298    0.4289 C   0  0  0  0  0  0  0  0  0  0  0  0
   -2.6036   -1.0501    1.9404 H   0  0  0  0  0  0  0  0  0  0  0  0
   -3.6615   -2.8904    0.8363 H   0  0  0  0  0  0  0  0  0  0  0  0
   -4.0988   -1.5619   -1.5690 H   0  0  0  0  0  0  0  0  0  0  0  0
   -2.3305    1.4235    1.4458 H   0  0  0  0  0  0  0  0  0  0  0  0
   -5.7173   -1.4777    0.3811 H   0  0  0  0  0  0  0  0  0  0  0  0
   -4.7242   -0.1849    1.1033 H   0  0  0  0  0  0  0  0  0  0  0  0
    1.7000    2.2122   -0.9236 H   0  0  0  0  0  0  0  0  0  0  0  0
    1.6044    0.7415   -1.9134 H   0  0  0  0  0  0  0  0  0  0  0  0
   -0.5531   -2.5493    0.6832 H   0  0  0  0  0  0  0  0  0  0  0  0
   -2.9726   -3.5753   -1.2111 H   0  0  0  0  0  0  0  0  0  0  0  0
    2.6511    0.8643    0.9614 H   0  0  0  0  0  0  0  0  0  0  0  0
    2.5631   -0.5849   -0.0292 H   0  0  0  0  0  0  0  0  0  0  0  0
    4.1346    0.4353   -1.6806 H   0  0  0  0  0  0  0  0  0  0  0  0
    4.1657    1.9181   -0.7352 H   0  0  0  0  0  0  0  0  0  0  0  0
    5.1628    0.6454    1.1877 H   0  0  0  0  0  0  0  0  0  0  0  0
    7.6869   -0.8631    0.4781 H   0  0  0  0  0  0  0  0  0  0  0  0
    7.6057    0.6104    1.4563 H   0  0  0  0  0  0  0  0  0  0  0  0
   -8.8685   -0.0302    0.5806 H   0  0  0  0  0  0  0  0  0  0  0  0
   -7.1597    2.1566    1.8675 H   0  0  0  0  0  0  0  0  0  0  0  0
    6.5045    2.2700    0.7072 H   0  0  0  0  0  0  0  0  0  0  0  0
    5.1745   -2.6803    1.5363 H   0  0  0  0  0  0  0  0  0  0  0  0
    9.6079    0.2575    0.4845 H   0  0  0  0  0  0  0  0  0  0  0  0
  1  5  1  0  0  0  0
  1  8  1  0  0  0  0
  1  9  1  0  0  0  0
  1 10  2  0  0  0  0
  2 18  1  0  0  0  0
  2 21  1  0  0  0  0
  3 19  1  0  0  0  0
  3 39  1  0  0  0  0
  4 20  1  0  0  0  0
  4 40  1  0  0  0  0
  5 23  1  0  0  0  0
  6 22  2  0  0  0  0
  7 24  2  0  0  0  0
  8 48  1  0  0  0  0
  9 49  1  0  0  0  0
 11 17  1  0  0  0  0
 11 50  1  0  0  0  0
 12 29  1  0  0  0  0
 12 51  1  0  0  0  0
 13 29  2  0  0  0  0
 14 30  1  0  0  0  0
 14 52  1  0  0  0  0
 15 18  1  0  0  0  0
 15 24  1  0  0  0  0
 15 34  1  0  0  0  0
 16 22  1  0  0  0  0
 16 24  1  0  0  0  0
 16 25  1  0  0  0  0
 17 28  1  0  0  0  0
 17 30  1  0  0  0  0
 18 19  1  0  0  0  0
 18 22  1  0  0  0  0
 19 20  1  0  0  0  0
 19 31  1  0  0  0  0
 20 21  1  0  0  0  0
 20 32  1  0  0  0  0
 21 23  1  0  0  0  0
 21 33  1  0  0  0  0
 23 35  1  0  0  0  0
 23 36  1  0  0  0  0
 25 26  1  0  0  0  0
 25 37  1  0  0  0  0
 25 38  1  0  0  0  0
 26 27  1  0  0  0  0
 26 41  1  0  0  0  0
 26 42  1  0  0  0  0
 27 28  1  0  0  0  0
 27 43  1  0  0  0  0
 27 44  1  0  0  0  0
 28 29  1  0  0  0  0
 28 45  1  0  0  0  0
 30 46  1  0  0  0  0
 30 47  1  0  0  0  0
M  END
> <DATABASE_ID>
DB04460

> <DATABASE_NAME>
drugbank

> <ORIGINAL_SOURCE>
PUBCHEM

> <ORIGINAL_SOURCE_URL>
https://pubchem.ncbi.nlm.nih.gov/rest/pug/compound/inchikey/MAXSFYCTFIBEAR-FUIMDIGMSA-N/SDF?record_type=3d

> <SMILES>
[H]N1C(=O)N(CCC[C@H](N(O)CO)C(O)=O)C(=O)[C@]11O[C@H](COP(O)(O)=O)[C@@H](O)[C@H]1O

> <INCHI_IDENTIFIER>
InChI=1S/C13H22N3O13P/c17-5-16(24)6(10(20)21)2-1-3-15-11(22)13(14-12(15)23)9(19)8(18)7(29-13)4-28-30(25,26)27/h6-9,17-19,24H,1-5H2,(H,14,23)(H,20,21)(H2,25,26,27)/t6-,7+,8+,9+,13-/m0/s1

> <INCHI_KEY>
MAXSFYCTFIBEAR-FUIMDIGMSA-N

> <FORMULA>
C13H22N3O13P

> <MOLECULAR_WEIGHT>
459.2998

> <EXACT_MASS>
459.089024317

> <JCHEM_ACCEPTOR_COUNT>
13

> <JCHEM_ATOM_COUNT>
52

> <JCHEM_AVERAGE_NEUTRAL_MICROSPECIES_CHARGE>
-2.9195213280114762

> <JCHEM_AVERAGE_POLARIZABILITY>
39.308275283559155

> <JCHEM_BIOAVAILABILITY>
0

> <JCHEM_DONOR_COUNT>
8

> <JCHEM_FORMAL_CHARGE>
0

> <JCHEM_GHOSE_FILTER>
0

> <JCHEM_IUPAC>
(2S)-5-[(5S,7R,8S,9R)-8,9-dihydroxy-2,4-dioxo-7-[(phosphonooxy)methyl]-6-oxa-1,3-diazaspiro[4.4]nonan-3-yl]-2-[N-hydroxy-N-(hydroxymethyl)amino]pentanoic acid

> <ALOGPS_LOGP>
-2.24

> <JCHEM_LOGP>
-3.6540424720000004

> <ALOGPS_LOGS>
-1.66

> <JCHEM_MDDR_LIKE_RULE>
0

> <JCHEM_NEUTRAL_CHARGE>
-3

> <JCHEM_NUMBER_OF_RINGS>
2

> <JCHEM_PHYSIOLOGICAL_CHARGE>
-3

> <JCHEM_PKA>
3.4206843334293344

> <JCHEM_PKA_STRONGEST_ACIDIC>
1.2205103852690353

> <JCHEM_PKA_STRONGEST_BASIC>
-2.795885195562658

> <JCHEM_POLAR_SURFACE_AREA>
246.85999999999999

> <JCHEM_REFRACTIVITY>
89.7038

> <JCHEM_ROTATABLE_BOND_COUNT>
10

> <JCHEM_RULE_OF_FIVE>
0

> <ALOGPS_SOLUBILITY>
1.00e+01 g/l

> <JCHEM_TRADITIONAL_IUPAC>
[(2R,3S,4R,5R)-3,4-dihydroxy-5-(4-hydroxy-5-methyl-2-oxopyrimidin-1-yl)oxolan-2-yl]methoxyphosphonic acid

> <JCHEM_VEBER_RULE>
0

> <DRUGBANK_ID>
DB04460

> <SECONDARY_ACCESSION_NUMBERS>
EXPT02811

> <DRUG_GROUPS>
experimental

> <GENERIC_NAME>
(C8-S)-Hydantocidin 5'-phosphate

$$$$