drugbank_target|P29508 Serpin B3 (DB03929; DB04522)
 OpenBabel12092120533D

  0  0  0     0  0            999 V3000
M  V30 BEGIN CTAB
M  V30 COUNTS 6249 6314 0 0 0
M  V30 BEGIN ATOM
M  V30 1 H -0.908 1.98254 -0.117106 0
M  V30 2 N 0 1.576 0 0
M  V30 3 C 0.933 2.03868 1.02534 0
M  V30 4 C 1.911 0.928543 1.3348 0
M  V30 5 O 3.095 1.19667 1.45644 0
M  V30 6 C 0.222 2.43627 2.35294 0
M  V30 7 C -0.732 3.65373 2.2001 0
M  V30 8 S 0.101 5.13292 1.52614 0
M  V30 9 C 1.257 5.56322 2.86805 0
M  V30 10 H 1.49 2.90518 0.631377 0
M  V30 11 H -0.977 1.52953 0.210867 0
M  V30 12 H 0.981 2.67203 3.11629 0
M  V30 13 H -0.358 1.57376 2.7183 0
M  V30 14 H -1.165 3.90944 3.18086 0
M  V30 15 H -1.563 3.418 1.51819 0
M  V30 16 H 0.729 5.58782 3.83104 0
M  V30 17 H 1.672 6.56266 2.65933 0
M  V30 18 H 2.08 4.83886 2.90714 0
M  V30 19 N 1.4781 -0.272755 1.55222 0
M  V30 20 C 2.4261 -1.35705 1.88909 0
M  V30 21 C 3.4201 -1.5112 0.765456 0
M  V30 22 O 4.6261 -1.52901 0.949802 0
M  V30 23 H 1.0011 -0.453868 0.59959 0
M  V30 24 H 2.9721 -1.04544 2.79487 0
M  V30 25 C 1.7211 -2.71049 2.17779 0
M  V30 26 H 1.0441 -2.59979 3.03728 0
M  V30 27 H 2.4841 -3.45858 2.45272 0
M  V30 28 C 0.9431 -3.22165 0.985473 0
M  V30 29 O 1.4731 -4.01096 0.220233 0
M  V30 30 N -0.3209 -2.7985 0.783108 0
M  V30 31 H -0.7739 -2.15775 1.40708 0
M  V30 32 H -0.8159 -3.14397 -0.0130392 0
M  V30 33 N 2.9562 -1.48159 -0.537278 0
M  V30 34 C 4.1812 -1.59707 -1.32319 0
M  V30 35 C 4.6062 -0.254859 -1.86365 0
M  V30 36 O 3.9642 0.772378 -1.64024 0
M  V30 37 C 4.0122 -2.6412 -2.45505 0
M  V30 38 O 3.1162 -2.20774 -3.48328 0
M  V30 39 H 2.4572 -0.535791 -0.392204 0
M  V30 40 H 4.9872 -1.94092 -0.647268 0
M  V30 41 H 4.9972 -2.85166 -2.91795 0
M  V30 42 H 3.6722 -3.61567 -2.05528 0
M  V30 43 H 2.2492 -2.09911 -3.08207 0
M  V30 44 N 4.4343 0.785586 -1.36625 0
M  V30 45 C 5.3643 1.91259 -1.33949 0
M  V30 46 C 6.3453 1.68795 -0.210325 0
M  V30 47 O 7.5303 1.89854 -0.408561 0
M  V30 48 C 4.6603 3.28339 -1.13186 0
M  V30 49 C 3.6143 3.65335 -2.22967 0
M  V30 50 C 2.9403 5.00806 -1.87342 0
M  V30 51 C 4.2403 3.7352 -3.65075 0
M  V30 52 H 5.9343 1.93755 -2.28253 0
M  V30 53 H 3.4803 0.930788 -1.09874 0
M  V30 54 H 5.4333 4.06804 -1.09948 0
M  V30 55 H 4.1573 3.2624 -0.153332 0
M  V30 56 H 2.8163 2.89169 -2.25337 0
M  V30 57 H 2.4643 4.95233 -0.880545 0
M  V30 58 H 2.1643 5.26529 -2.60846 0
M  V30 59 H 3.6883 5.81687 -1.85667 0
M  V30 60 H 5.1023 4.42168 -3.64911 0
M  V30 61 H 3.4993 4.10731 -4.37516 0
M  V30 62 H 4.5693 2.74527 -3.99703 0
M  V30 63 N 5.9124 1.20967 1.01018 0
M  V30 64 C 7.1374 1.0503 1.78839 0
M  V30 65 C 7.5624 -0.395752 1.8389 0
M  V30 66 O 6.9204 -1.28529 1.27867 0
M  V30 67 C 6.9684 1.64602 3.2084 0
M  V30 68 O 6.0724 0.887988 4.02726 0
M  V30 69 H 5.4134 0.369987 0.551367 0
M  V30 70 H 7.9434 1.60399 1.27018 0
M  V30 71 H 7.9534 1.68607 3.71532 0
M  V30 72 H 6.6284 2.69841 3.16479 0
M  V30 73 H 5.2054 0.922648 3.61305 0
M  V30 74 N 7.3905 -1.2043 1.01659 0
M  V30 75 C 8.3005 -2.2689 0.596484 0
M  V30 76 C 9.3165 -1.70107 -0.36599 0
M  V30 77 O 10.4925 -2.00117 -0.226942 0
M  V30 78 C 7.5575 -3.4665 -0.0586659 0
M  V30 79 C 6.6185 -4.18662 0.949751 0
M  V30 80 C 5.8515 -5.32705 0.32577 0
M  V30 81 O 6.0745 -5.63656 -0.874509 0
M  V30 82 O 5.0085 -5.92803 1.04249 0
M  V30 83 H 8.8345 -2.65041 1.4828 0
M  V30 84 H 6.4195 -1.27048 0.786082 0
M  V30 85 H 8.3015 -4.19256 -0.424564 0
M  V30 86 H 6.9765 -3.10375 -0.91918 0
M  V30 87 H 5.8835 -3.48229 1.36702 0
M  V30 88 H 7.2165 -4.58878 1.78023 0
M  V30 89 N 8.8686 -0.792821 -1.36206 0
M  V30 90 C 9.8316 -0.199459 -2.2833 0
M  V30 91 C 10.8316 0.605189 -1.48977 0
M  V30 92 O 12.0216 0.425685 -1.68919 0
M  V30 93 C 9.1536 0.723523 -3.33134 0
M  V30 94 H 10.3466 -1.01181 -2.82316 0
M  V30 95 H 7.8996 -0.562485 -1.45828 0
M  V30 96 H 8.6346 1.56008 -2.84309 0
M  V30 97 H 8.4196 0.148436 -3.91819 0
M  V30 98 H 9.9096 1.13344 -4.01924 0
M  V30 99 N 10.3467 1.47872 -0.545128 0
M  V30 100 C 11.2947 2.31533 0.222512 0
M  V30 101 C 12.2887 1.42177 0.920985 0
M  V30 102 O 13.4947 1.59005 0.843645 0
M  V30 103 H 9.8697 0.746519 0.0906278 0
M  V30 104 H 11.8407 2.94139 -0.50246 0
M  V30 105 C 10.5897 3.2457 1.24699 0
M  V30 106 H 9.9127 3.93283 0.718944 0
M  V30 107 H 11.3527 3.85963 1.75523 0
M  V30 108 C 9.8117 2.47237 2.28856 0
M  V30 109 O 10.3417 2.20808 3.35569 0
M  V30 110 N 8.5477 2.08461 2.02466 0
M  V30 111 H 8.0947 2.30155 1.157 0
M  V30 112 H 8.0527 1.57033 2.72375 0
M  V30 113 N 11.8248 0.280983 1.55075 0
M  V30 114 C 13.0528 -0.337293 2.04132 0
M  V30 115 C 13.4678 -1.4903 1.15912 0
M  V30 116 O 12.8248 -1.81606 0.180459 0
M  V30 117 C 12.8758 -0.812706 3.52246 0
M  V30 118 O 12.5968 0.294387 4.3711 0
M  V30 119 C 14.0978 -1.4982 4.17216 0
M  V30 120 H 11.3178 -0.0761638 0.666663 0
M  V30 121 H 13.8618 0.414787 2.00249 0
M  V30 122 H 12.0168 -1.51486 3.56554 0
M  V30 123 H 12.4308 -0.0721325 5.2445 0
M  V30 124 H 13.9048 -1.7822 5.22438 0
M  V30 125 H 14.3818 -2.43168 3.65741 0
M  V30 126 H 14.9878 -0.839742 4.16927 0
M  V30 127 N 13.3029 -1.57598 0.00835791 0
M  V30 128 C 14.2499 -2.08945 -0.980346 0
M  V30 129 C 15.2199 -0.986738 -1.33614 0
M  V30 130 O 16.4049 -1.25968 -1.43306 0
M  V30 131 C 13.5449 -2.60425 -2.26435 0
M  V30 132 C 12.6579 -3.84628 -1.96685 0
M  V30 133 C 11.7929 -4.24579 -3.19228 0
M  V30 134 C 10.8319 -5.41596 -2.85202 0
M  V30 135 N 9.9689 -5.768 -4.00307 0
M  V30 136 H 14.8089 -2.93148 -0.535551 0
M  V30 137 H 12.3459 -1.44912 -0.252776 0
M  V30 138 H 14.3039 -2.88354 -3.01509 0
M  V30 139 H 12.9339 -1.79083 -2.68568 0
M  V30 140 H 11.9859 -3.63556 -1.11942 0
M  V30 141 H 13.2979 -4.69796 -1.67611 0
M  V30 142 H 12.4519 -4.53834 -4.02641 0
M  V30 143 H 11.1909 -3.38137 -3.51447 0
M  V30 144 H 10.1959 -5.12056 -2.00198 0
M  V30 145 H 11.4209 -6.29721 -2.54222 0
M  V30 146 H 9.3669 -4.93316 -4.32407 0
M  V30 147 H 9.2839 -6.5656 -3.74786 0
M  V30 148 H 10.5519 -6.10652 -4.84484 0
M  V30 149 N 14.781 0.264519 -1.55364 0
M  V30 150 C 16.028 0.994986 -1.7637 0
M  V30 151 C 16.356 1.85976 -0.5695 0
M  V30 152 O 15.611 1.90509 0.44776 0
M  V30 153 C 15.91 1.9004 -3.02687 0
M  V30 154 C 15.576 1.19243 -4.34847 0
M  V30 155 C 14.238 0.996709 -4.70764 0
M  V30 156 C 16.59 0.689296 -5.16622 0
M  V30 157 C 13.918 0.285261 -5.86006 0
M  V30 158 C 16.27 -0.00860079 -6.32599 0
M  V30 159 C 14.934 -0.215963 -6.67151 0
M  V30 160 H 14.204 0.364091 -0.645383 0
M  V30 161 H 16.851 0.266543 -1.89636 0
M  V30 162 H 15.156 2.69533 -2.84357 0
M  V30 163 H 16.853 2.46695 -3.16137 0
M  V30 164 H 13.443 1.3549 -4.06621 0
M  V30 165 H 17.627 0.828108 -4.89342 0
M  V30 166 H 12.883 0.113961 -6.11294 0
M  V30 167 H 17.057 -0.406186 -6.95214 0
M  V30 168 H 14.684 -0.769217 -7.56298 0
M  V30 169 N 16.2591 1.48442 0.529413 0
M  V30 170 C 17.1921 1.57577 1.65059 0
M  V30 171 C 18.1701 0.426198 1.56915 0
M  V30 172 O 19.3541 0.637877 1.77379 0
M  V30 173 C 16.4811 1.5043 3.03461 0
M  V30 174 C 15.5271 2.70235 3.29962 0
M  V30 175 S 16.3601 4.32198 3.16172 0
M  V30 176 C 17.5161 4.2765 4.57019 0
M  V30 177 H 17.7491 2.52427 1.5706 0
M  V30 178 H 15.2821 1.36982 0.712417 0
M  V30 179 H 17.2401 1.46992 3.8328 0
M  V30 180 H 15.9011 0.569167 3.089 0
M  V30 181 H 15.0941 2.61374 4.30929 0
M  V30 182 H 14.6961 2.70938 2.57815 0
M  V30 183 H 16.9881 3.97618 5.48549 0
M  V30 184 H 17.9311 5.28797 4.70934 0
M  V30 185 H 18.3391 3.5811 4.36368 0
M  V30 186 N 17.7372 -0.778329 1.37039 0
M  V30 187 C 18.9842 -1.53665 1.31884 0
M  V30 188 C 19.3122 -1.9425 -0.0986303 0
M  V30 189 O 18.5672 -1.63832 -1.07041 0
M  V30 190 C 18.8662 -2.81845 2.19768 0
M  V30 191 C 18.5322 -2.60345 3.68146 0
M  V30 192 C 17.1942 -2.5419 4.08584 0
M  V30 193 C 19.5462 -2.40923 4.62175 0
M  V30 194 C 16.8742 -2.26594 5.41177 0
M  V30 195 C 19.2262 -2.14852 5.94997 0
M  V30 196 C 17.8902 -2.07137 6.34547 0
M  V30 197 H 17.1602 -0.562299 0.482598 0
M  V30 198 H 19.8072 -0.897069 1.69189 0
M  V30 199 H 18.1122 -3.50328 1.75436 0
M  V30 200 H 19.8092 -3.39692 2.13097 0
M  V30 201 H 16.3992 -2.65996 3.36072 0
M  V30 202 H 20.5832 -2.44673 4.31797 0
M  V30 203 H 15.8392 -2.19111 5.70789 0
M  V30 204 H 20.0132 -1.98822 6.67415 0
M  V30 205 H 17.6402 -1.85518 7.37216 0
M  V30 206 N 19.2153 -1.21501 -1.00376 0
M  V30 207 C 20.4923 -0.941745 -1.71437 0
M  V30 208 C 20.8723 0.546114 -2.03914 0
M  V30 209 O 20.2203 1.51128 -1.71384 0
M  V30 210 C 20.4303 -1.82812 -2.97289 0
M  V30 211 C 21.7783 -2.07771 -3.70292 0
M  V30 212 O 22.8023 -1.80171 -3.07273 0
M  V30 213 O 21.6613 -2.54456 -4.83647 0
M  V30 214 H 18.7553 -0.353243 -0.747762 0
M  V30 215 H 21.3013 -1.32436 -1.06108 0
M  V30 216 H 20.0733 -2.83501 -2.69709 0
M  V30 217 H 19.6963 -1.4464 -3.70358 0
M  V30 218 N 20.6934 1.19889 -1.02296 0
M  V30 219 C 21.6234 2.25141 -0.619174 0
M  V30 220 C 22.6044 1.66051 0.368915 0
M  V30 221 O 23.7894 1.92546 0.252941 0
M  V30 222 C 20.9194 3.4728 0.0368783 0
M  V30 223 C 19.8734 4.19005 -0.872865 0
M  V30 224 C 19.1994 5.34637 -0.0822402 0
M  V30 225 C 20.4994 4.74452 -2.18387 0
M  V30 226 H 22.1934 2.59171 -1.49903 0
M  V30 227 H 19.7394 1.24579 -0.722222 0
M  V30 228 H 21.6924 4.20098 0.330958 0
M  V30 229 H 20.4164 3.12433 0.95149 0
M  V30 230 H 19.0754 3.48061 -1.15105 0
M  V30 231 H 18.7234 4.96034 0.83422 0
M  V30 232 H 18.4234 5.83557 -0.688149 0
M  V30 233 H 19.9474 6.10255 0.205238 0
M  V30 234 H 21.3614 5.39055 -1.95172 0
M  V30 235 H 19.7584 5.33834 -2.74119 0
M  V30 236 H 20.8284 3.92844 -2.84257 0
M  V30 237 N 22.1715 0.800033 1.35784 0
M  V30 238 C 23.4185 0.377342 1.98953 0
M  V30 239 C 23.7465 -1.05378 1.6348 0
M  V30 240 O 23.0015 -1.74459 0.886707 0
M  V30 241 C 23.3005 0.500276 3.53881 0
M  V30 242 C 22.9665 1.89375 4.09204 0
M  V30 243 C 21.6285 2.27499 4.24025 0
M  V30 244 C 23.9805 2.8057 4.39238 0
M  V30 245 C 21.3085 3.562 4.66195 0
M  V30 246 C 23.6605 4.0871 4.82844 0
M  V30 247 C 22.3245 4.46843 4.95871 0
M  V30 248 H 21.5945 0.138079 0.728021 0
M  V30 249 H 24.2415 1.01955 1.62103 0
M  V30 250 H 22.5465 -0.225405 3.91151 0
M  V30 251 H 24.2435 0.154097 4.00704 0
M  V30 252 H 20.8335 1.58753 3.98115 0
M  V30 253 H 25.0175 2.52367 4.27346 0
M  V30 254 H 20.2735 3.85602 4.74469 0
M  V30 255 H 24.4475 4.79481 5.05046 0
M  V30 256 H 22.0745 5.46623 5.28306 0
M  V30 257 N 23.6496 -1.47581 0.552962 0
M  V30 258 C 24.5816 -2.27997 -0.234533 0
M  V30 259 C 25.5946 -1.36753 -0.883321 0
M  V30 260 O 26.7836 -1.61612 -0.757889 0
M  V30 261 C 23.8836 -3.10879 -1.34935 0
M  V30 262 C 23.0566 -4.30056 -0.798158 0
M  V30 263 C 22.1156 -4.94567 -1.79694 0
M  V30 264 O 21.1416 -5.53087 -1.34474 0
M  V30 265 N 22.3436 -4.88878 -3.13015 0
M  V30 266 H 25.1086 -2.96222 0.455255 0
M  V30 267 H 22.6696 -1.57163 0.388761 0
M  V30 268 H 24.6616 -3.50903 -2.01616 0
M  V30 269 H 23.2316 -2.44924 -1.94244 0
M  V30 270 H 22.4516 -3.94174 0.0453079 0
M  V30 271 H 23.7396 -5.07152 -0.409173 0
M  V30 272 H 23.1376 -4.42526 -3.52402 0
M  V30 273 H 21.6946 -5.32934 -3.75266 0
M  V30 274 N 25.1277 -0.289203 -1.54924 0
M  V30 275 C 26.0597 0.625583 -2.20497 0
M  V30 276 C 27.0727 1.10667 -1.19402 0
M  V30 277 O 28.2617 1.02615 -1.46056 0
M  V30 278 C 25.3617 1.86702 -2.82835 0
M  V30 279 C 24.5347 1.5304 -4.09753 0
M  V30 280 C 23.5937 2.62576 -4.56005 0
M  V30 281 O 22.6197 2.28167 -5.21468 0
M  V30 282 N 23.8217 3.92901 -4.27328 0
M  V30 283 H 26.5867 0.0642801 -2.99631 0
M  V30 284 H 24.1477 -0.110896 -1.6152 0
M  V30 285 H 26.1397 2.59304 -3.10715 0
M  V30 286 H 24.7097 2.33702 -2.07611 0
M  V30 287 H 23.9297 0.637564 -3.8901 0
M  V30 288 H 25.2177 1.28072 -4.92418 0
M  V30 289 H 24.6157 4.23671 -3.74859 0
M  V30 290 H 23.1727 4.61837 -4.59946 0
M  V30 291 N 26.6058 1.57591 -0.0167156 0
M  V30 292 C 27.8528 1.91283 0.664597 0
M  V30 293 C 28.1808 0.891949 1.72842 0
M  V30 294 O 27.4358 -0.100931 1.9544 0
M  V30 295 C 27.7348 3.3172 1.33029 0
M  V30 296 C 27.4008 4.4914 0.398047 0
M  V30 297 C 26.0628 4.80992 0.141421 0
M  V30 298 C 28.4148 5.20634 -0.242825 0
M  V30 299 C 25.7428 5.81703 -0.764092 0
M  V30 300 C 28.0948 6.22311 -1.13632 0
M  V30 301 C 26.7588 6.52611 -1.40196 0
M  V30 302 H 26.0288 0.699956 0.243193 0
M  V30 303 H 28.6758 1.9135 -0.0758267 0
M  V30 304 H 26.9808 3.27856 2.14517 0
M  V30 305 H 28.6778 3.55055 1.86379 0
M  V30 306 H 25.2678 4.24262 0.608238 0
M  V30 307 H 29.4518 4.96267 -0.0576019 0
M  V30 308 H 24.7078 6.03532 -0.977732 0
M  V30 309 H 28.8818 6.76834 -1.63917 0
M  V30 310 H 26.5088 7.30467 -2.10529 0
M  V30 311 N 28.0839 -0.256276 1.55502 0
M  V30 312 C 29.4999 -0.604325 1.47716 0
M  V30 313 C 29.6999 -1.88763 0.705039 0
M  V30 314 O 28.7559 -2.51445 0.230613 0
M  V30 315 C 30.0689 -0.715756 2.92057 0
M  V30 316 C 31.6169 -0.808706 3.02372 0
M  V30 317 C 32.0919 -0.951777 4.48001 0
M  V30 318 N 33.5829 -1.01688 4.519 0
M  V30 319 C 34.3179 -1.14668 5.61817 0
M  V30 320 N 33.8139 -1.24261 6.81565 0
M  V30 321 N 35.6069 -1.1791 5.49594 0
M  V30 322 H 27.7579 0.586291 2.04148 0
M  V30 323 H 30.0209 0.201015 0.926443 0
M  V30 324 H 29.7269 0.157027 3.51349 0
M  V30 325 H 29.6009 -1.59071 3.42018 0
M  V30 326 H 31.9879 -1.67195 2.43166 0
M  V30 327 H 32.0689 0.0912063 2.55637 0
M  V30 328 H 31.7129 -0.0931291 5.07815 0
M  V30 329 H 31.6429 -1.86659 4.92408 0
M  V30 330 H 34.1339 -0.954468 3.65648 0
M  V30 331 H 34.4469 -1.34046 7.61086 0
M  V30 332 H 32.7919 -1.21236 6.84344 0
M  V30 333 H 35.9829 -1.10057 4.54978 0
M  V30 334 H 36.1559 -1.27681 6.35296 0
M  V30 335 N 29.562 -1.4872 -0.521534 0
M  V30 336 C 30.509 -1.63871 -1.62527 0
M  V30 337 C 31.479 -0.480559 -1.58996 0
M  V30 338 O 32.664 -0.705085 -1.77294 0
M  V30 339 C 29.804 -1.69227 -3.00759 0
M  V30 340 C 28.917 -2.96207 -3.14461 0
M  V30 341 C 28.052 -2.92671 -4.43303 0
M  V30 342 C 27.091 -4.14318 -4.50563 0
M  V30 343 N 26.228 -4.0881 -5.70805 0
M  V30 344 H 31.068 -2.58123 -1.48918 0
M  V30 345 H 28.605 -1.28 -0.724878 0
M  V30 346 H 30.563 -1.70314 -3.80853 0
M  V30 347 H 29.193 -0.784586 -3.1312 0
M  V30 348 H 28.245 -3.04826 -2.27564 0
M  V30 349 H 29.557 -3.86192 -3.15686 0
M  V30 350 H 28.711 -2.92206 -5.31696 0
M  V30 351 H 27.45 -2.00429 -4.44612 0
M  V30 352 H 26.455 -4.15049 -3.60575 0
M  V30 353 H 27.68 -5.07729 -4.50986 0
M  V30 354 H 25.626 -3.19394 -5.72995 0
M  V30 355 H 25.543 -4.92509 -5.7356 0
M  V30 356 H 26.811 -4.12418 -6.61462 0
M  V30 357 N 31.0401 0.771051 -1.3745 0
M  V30 358 C 32.2651 1.56529 -1.36065 0
M  V30 359 C 32.6901 1.88029 0.0515859 0
M  V30 360 O 32.0481 1.49282 1.02882 0
M  V30 361 C 32.0961 2.85187 -2.20683 0
M  V30 362 O 31.2001 3.79593 -1.61193 0
M  V30 363 H 30.5411 0.47411 -0.464883 0
M  V30 364 H 33.0711 0.954269 -1.80983 0
M  V30 365 H 33.0811 3.34283 -2.33921 0
M  V30 366 H 31.7561 2.61588 -3.23334 0
M  V30 367 H 30.3331 3.38239 -1.56999 0
M  V30 368 N 32.5182 1.22032 0.997298 0
M  V30 369 C 33.4652 0.986467 2.08656 0
M  V30 370 C 34.4352 -0.0902671 1.65855 0
M  V30 371 O 35.6202 0.0584294 1.90711 0
M  V30 372 C 32.7602 0.565569 3.40434 0
M  V30 373 C 31.8732 1.71259 3.96604 0
M  V30 374 C 31.0082 1.24011 5.16522 0
M  V30 375 C 30.0472 2.35896 5.64818 0
M  V30 376 N 29.1842 1.89726 6.7598 0
M  V30 377 H 34.0242 1.91892 2.27994 0
M  V30 378 H 31.5612 0.956199 1.11782 0
M  V30 379 H 33.5192 0.302738 4.161 0
M  V30 380 H 32.1492 -0.329879 3.2111 0
M  V30 381 H 31.2012 2.08986 3.17851 0
M  V30 382 H 32.5132 2.55436 4.28432 0
M  V30 383 H 31.6672 0.934395 5.99461 0
M  V30 384 H 30.4062 0.368487 4.86306 0
M  V30 385 H 29.4112 2.67261 4.8047 0
M  V30 386 H 30.6362 3.23567 5.97061 0
M  V30 387 H 28.5822 1.0492 6.47555 0
M  V30 388 H 28.4992 2.67471 7.07103 0
M  V30 389 H 29.7672 1.62211 7.62435 0
M  V30 390 N 33.9963 -1.19345 1.0293 0
M  V30 391 C 34.9063 -2.26245 0.620515 0
M  V30 392 C 35.9223 -1.70486 -0.347928 0
M  V30 393 O 37.0983 -2.00347 -0.205704 0
M  V30 394 C 34.1633 -3.46693 -0.0218957 0
M  V30 395 C 33.2243 -4.17632 0.994102 0
M  V30 396 C 32.4573 -5.32329 0.382253 0
M  V30 397 O 32.6803 -5.64552 -0.814676 0
M  V30 398 O 31.6143 -5.91664 1.10531 0
M  V30 399 H 35.4403 -2.63453 1.51083 0
M  V30 400 H 33.0253 -1.26207 0.799513 0
M  V30 401 H 34.9073 -4.19683 -0.380072 0
M  V30 402 H 33.5823 -3.11333 -0.886209 0
M  V30 403 H 32.4893 -3.4676 1.40387 0
M  V30 404 H 33.8223 -4.56964 1.8288 0
M  V30 405 N 35.4744 -0.807222 -1.35358 0
M  V30 406 C 36.4224 -0.20614 -2.31685 0
M  V30 407 C 37.4164 0.644445 -1.56663 0
M  V30 408 O 38.6224 0.537538 -1.71786 0
M  V30 409 H 34.9974 -0.0479006 -0.750473 0
M  V30 410 H 36.9684 -1.03369 -2.79924 0
M  V30 411 C 35.7174 0.630212 -3.41941 0
M  V30 412 H 35.0404 -0.0149558 -3.99797 0
M  V30 413 H 36.4804 1.01716 -4.11619 0
M  V30 414 C 34.9394 1.79601 -2.85035 0
M  V30 415 O 35.4694 2.89351 -2.78637 0
M  V30 416 N 33.6754 1.60774 -2.42074 0
M  V30 417 H 33.2224 0.715009 -2.47478 0
M  V30 418 H 33.1804 2.38933 -2.04349 0
M  V30 419 N 36.9525 1.47285 -0.560781 0
M  V30 420 C 37.9005 2.31756 0.197942 0
M  V30 421 C 38.8945 1.43146 0.905854 0
M  V30 422 O 40.1005 1.59891 0.826733 0
M  V30 423 H 36.4755 0.747438 0.0827049 0
M  V30 424 H 38.4465 2.9359 -0.533629 0
M  V30 425 C 37.1955 3.25874 1.21249 0
M  V30 426 H 36.5185 3.94023 0.67719 0
M  V30 427 H 37.9585 3.87803 1.71419 0
M  V30 428 C 36.4175 2.49651 2.26221 0
M  V30 429 O 36.9475 2.24355 3.33208 0
M  V30 430 N 35.1535 2.10597 2.00243 0
M  V30 431 H 34.7005 2.31369 1.13252 0
M  V30 432 H 34.6585 1.59913 2.70694 0
M  V30 433 N 38.4306 0.297415 1.54768 0
M  V30 434 C 39.6796 -0.313669 1.99246 0
M  V30 435 C 39.9926 -1.55281 1.18942 0
M  V30 436 O 41.1986 -2.23825 1.5367 0
M  V30 437 C 39.6546 -0.609407 3.54703 0
M  V30 438 C 39.2626 0.611192 4.43811 0
M  V30 439 C 41.0066 -1.18188 4.07715 0
M  V30 440 C 38.9136 0.288805 5.90694 0
M  V30 441 H 37.8436 -0.120979 0.744231 0
M  V30 442 H 40.4946 0.40556 1.78962 0
M  V30 443 H 38.8766 -1.38813 3.70873 0
M  V30 444 H 40.0506 1.3875 4.39414 0
M  V30 445 H 38.3656 1.10205 4.01552 0
M  V30 446 H 40.9626 -1.43727 5.15021 0
M  V30 447 H 41.3056 -2.12299 3.58099 0
M  V30 448 H 41.8386 -0.464944 3.95074 0
M  V30 449 H 38.5776 1.19838 6.44453 0
M  V30 450 H 38.0976 -0.450305 5.98107 0
M  V30 451 H 39.7766 -0.110933 6.46905 0
M  V30 452 N 39.9087 -1.5758 0.0250728 0
M  V30 453 C 41.1557 -1.91633 -0.654444 0
M  V30 454 C 41.4837 -0.901103 -1.72367 0
M  V30 455 O 40.7387 0.0905647 -1.9549 0
M  V30 456 C 41.0377 -3.32421 -1.31268 0
M  V30 457 C 40.7037 -4.49344 -0.374223 0
M  V30 458 C 39.3657 -4.8106 -0.115911 0
M  V30 459 C 41.7177 -5.20498 0.270432 0
M  V30 460 C 39.0457 -5.8129 0.79493 0
M  V30 461 C 41.3977 -6.21699 1.1693 0
M  V30 462 C 40.0617 -6.51859 1.43655 0
M  V30 463 H 39.3317 -0.701236 -0.239478 0
M  V30 464 H 41.9787 -1.91307 0.0859734 0
M  V30 465 H 40.2837 -3.28989 -2.12775 0
M  V30 466 H 41.9807 -3.56038 -1.84494 0
M  V30 467 H 38.5707 -4.24579 -0.58573 0
M  V30 468 H 42.7547 -4.96229 0.0839194 0
M  V30 469 H 38.0107 -6.03005 1.00973 0
M  V30 470 H 42.1847 -6.75955 1.67504 0
M  V30 471 H 39.8117 -7.2934 2.144 0
M  V30 472 N 41.3868 0.248026 -1.55636 0
M  V30 473 C 42.6168 0.992367 -1.81206 0
M  V30 474 C 43.0248 1.7949 -0.598324 0
M  V30 475 O 42.3678 1.78292 0.442434 0
M  V30 476 C 42.4298 1.97926 -3.00109 0
M  V30 477 C 42.0938 1.36377 -4.36177 0
M  V30 478 C 43.0908 0.76682 -5.14214 0
M  V30 479 C 40.7758 1.38347 -4.82872 0
M  V30 480 C 42.7698 0.197778 -6.37093 0
M  V30 481 C 40.4568 0.810574 -6.057 0
M  V30 482 C 41.4548 0.218754 -6.8265 0
M  V30 483 O 41.1428 -0.345298 -8.03158 0
M  V30 484 H 40.8748 0.297704 -0.606917 0
M  V30 485 H 43.4288 0.276517 -2.0353 0
M  V30 486 H 41.6588 2.73339 -2.73538 0
M  V30 487 H 43.3478 2.58694 -3.12781 0
M  V30 488 H 44.1138 0.744114 -4.79258 0
M  V30 489 H 39.9928 1.8335 -4.2297 0
M  V30 490 H 43.5368 -0.264788 -6.97097 0
M  V30 491 H 39.4338 0.830604 -6.40134 0
M  V30 492 H 40.2018 -0.237055 -8.18157 0
M  V30 493 N 42.8649 1.48995 0.513639 0
M  V30 494 C 44.0899 1.61792 1.29762 0
M  V30 495 C 44.5149 0.284475 1.85936 0
M  V30 496 O 43.8729 -0.746185 1.65232 0
M  V30 497 C 43.9209 2.67993 2.41272 0
M  V30 498 O 43.0249 2.26287 3.44772 0
M  V30 499 H 42.3659 0.541963 0.38363 0
M  V30 500 H 44.8959 1.95097 0.616307 0
M  V30 501 H 44.9059 2.89772 2.87221 0
M  V30 502 H 43.5809 3.64791 1.9975 0
M  V30 503 H 42.1579 2.14788 3.04829 0
M  V30 504 N 44.343 -0.763751 1.37857 0
M  V30 505 C 45.754 -1.3405 1.29952 0
M  V30 506 C 46.105 -1.96138 -0.0492898 0
M  V30 507 O 45.23 -1.94372 -0.951239 0
M  V30 508 C 45.825 -2.43729 2.35333 0
M  V30 509 C 44.384 -2.97151 2.31037 0
M  V30 510 C 43.531 -1.70438 2.18738 0
M  V30 511 H 46.482 -0.563396 1.48363 0
M  V30 512 H 46.503 -3.23412 2.00462 0
M  V30 513 H 46.015 -1.9851 3.33489 0
M  V30 514 H 44.116 -3.46724 1.3643 0
M  V30 515 H 44.229 -3.52221 3.24772 0
M  V30 516 H 42.593 -1.93673 1.65418 0
M  V30 517 H 43.376 -1.27312 3.18821 0
M  V30 518 N 45.8211 -1.22559 -0.990812 0
M  V30 519 C 47.0701 -1.04553 -1.72486 0
M  V30 520 C 47.3831 0.419349 -1.91052 0
M  V30 521 O 48.5891 0.719121 -2.61803 0
M  V30 522 C 47.0451 -1.82231 -3.10355 0
M  V30 523 C 46.6531 -3.32981 -2.99713 0
M  V30 524 C 48.3971 -1.7268 -3.87791 0
M  V30 525 C 46.3041 -4.03091 -4.32748 0
M  V30 526 H 45.2341 -0.387614 -0.646739 0
M  V30 527 H 47.8851 -1.46429 -1.10593 0
M  V30 528 H 46.2671 -1.33155 -3.72942 0
M  V30 529 H 47.4411 -3.89466 -2.46278 0
M  V30 530 H 45.7561 -3.43231 -2.35758 0
M  V30 531 H 48.3531 -2.22381 -4.86262 0
M  V30 532 H 48.6961 -0.687607 -4.10582 0
M  V30 533 H 49.2291 -2.1931 -3.31885 0
M  V30 534 H 45.9681 -5.07273 -4.15156 0
M  V30 535 H 45.4881 -3.51394 -4.86089 0
M  V30 536 H 47.1671 -4.08804 -5.01486 0
M  V30 537 N 47.2992 1.18797 -1.03562 0
M  V30 538 C 48.5242 1.9314 -0.755764 0
M  V30 539 C 48.9492 1.7537 0.68022 0
M  V30 540 O 48.3072 1.06046 1.47051 0
M  V30 541 C 48.3552 3.42747 -1.12058 0
M  V30 542 O 47.4592 4.11683 -0.243124 0
M  V30 543 H 46.8002 0.602724 -0.278604 0
M  V30 544 H 49.3302 1.50678 -1.3841 0
M  V30 545 H 49.3402 3.93437 -1.08035 0
M  V30 546 H 48.0152 3.55002 -2.16672 0
M  V30 547 H 46.5922 3.71323 -0.342539 0
M  V30 548 N 48.7773 0.814389 1.34928 0
M  V30 549 C 50.0263 0.394871 1.97797 0
M  V30 550 C 50.3393 -1.04555 1.65311 0
M  V30 551 O 51.5453 -1.56856 2.21604 0
M  V30 552 C 50.0013 0.655103 3.53888 0
M  V30 553 C 49.6093 2.10858 3.95276 0
M  V30 554 C 51.3533 0.301329 4.23429 0
M  V30 555 C 49.2603 2.31415 5.44244 0
M  V30 556 H 48.1903 0.143913 0.740139 0
M  V30 557 H 50.8413 0.999544 1.53888 0
M  V30 558 H 49.2233 -0.0196253 3.95995 0
M  V30 559 H 50.3973 2.82176 3.64298 0
M  V30 560 H 48.7123 2.42297 3.38646 0
M  V30 561 H 51.3093 0.432869 5.32945 0
M  V30 562 H 51.6523 -0.75331 4.09428 0
M  V30 563 H 52.1853 0.930288 3.86769 0
M  V30 564 H 48.9243 3.35353 5.63222 0
M  V30 565 H 48.4443 1.6463 5.76764 0
M  V30 566 H 50.1233 2.13352 6.10811 0
M  V30 567 N 50.2554 -1.46986 0.568584 0
M  V30 568 C 51.4834 -2.0683 0.0539956 0
M  V30 569 C 51.8984 -1.41953 -1.24478 0
M  V30 570 O 51.2554 -0.519933 -1.74937 0
M  V30 571 C 51.3064 -3.61254 -0.133362 0
M  V30 572 O 51.0274 -4.237 1.11399 0
M  V30 573 C 52.5284 -4.37992 -0.683927 0
M  V30 574 H 49.7484 -0.669058 0.0510141 0
M  V30 575 H 52.2924 -1.88824 0.785234 0
M  V30 576 H 50.4474 -3.78735 -0.81477 0
M  V30 577 H 50.8614 -5.16388 0.91888 0
M  V30 578 H 52.3354 -5.46684 -0.764263 0
M  V30 579 H 52.8124 -4.05058 -1.69778 0
M  V30 580 H 53.4184 -4.25283 -0.0378494 0
M  V30 581 N 51.7335 -0.305618 -1.54608 0
M  V30 582 C 52.9585 0.307562 -2.05107 0
M  V30 583 C 53.3835 1.46385 -1.18123 0
M  V30 584 O 52.7415 1.8034 -0.186324 0
M  V30 585 C 52.7895 0.73704 -3.52987 0
M  V30 586 O 51.8935 1.84134 -3.6901 0
M  V30 587 H 51.2345 0.0589143 -0.661381 0
M  V30 588 H 53.7645 -0.448807 -1.99617 0
M  V30 589 H 53.7745 1.02459 -3.94925 0
M  V30 590 H 52.4495 -0.108773 -4.15758 0
M  V30 591 H 51.0265 1.55398 -3.38978 0
M  V30 592 N 53.2116 1.57565 -0.0334293 0
M  V30 593 C 54.1746 2.09393 0.932048 0
M  V30 594 C 55.1746 1.00986 1.25134 0
M  V30 595 O 56.3646 1.27129 1.19096 0
M  V30 596 C 53.4966 2.56338 2.2473 0
M  V30 597 H 54.6896 2.95984 0.483085 0
M  V30 598 H 52.2426 1.54819 0.21468 0
M  V30 599 H 52.9776 1.7309 2.74245 0
M  V30 600 H 52.7626 3.35542 2.02865 0
M  V30 601 H 54.2526 2.96646 2.93923 0
M  V30 602 N 54.6897 -0.239769 1.55765 0
M  V30 603 C 55.6197 -1.30052 1.9393 0
M  V30 604 C 56.6007 -1.49839 0.805132 0
M  V30 605 O 57.7857 -1.62328 1.06599 0
M  V30 606 C 54.9157 -2.65391 2.2402 0
M  V30 607 C 53.8697 -2.60289 3.39755 0
M  V30 608 C 53.1957 -3.99489 3.55405 0
M  V30 609 C 54.4957 -2.16654 4.75246 0
M  V30 610 H 56.1897 -0.983573 2.82783 0
M  V30 611 H 53.7357 -0.471701 1.36055 0
M  V30 612 H 55.6887 -3.3974 2.49308 0
M  V30 613 H 54.4127 -2.98736 1.32 0
M  V30 614 H 53.0717 -1.88398 3.14487 0
M  V30 615 H 52.7197 -4.30112 2.60793 0
M  V30 616 H 52.4197 -3.96962 4.33238 0
M  V30 617 H 53.9437 -4.75528 3.83022 0
M  V30 618 H 55.3577 -2.80737 4.99859 0
M  V30 619 H 53.7547 -2.25223 5.56232 0
M  V30 620 H 54.8247 -1.11835 4.71827 0
M  V30 621 N 56.1678 -1.49265 -0.50573 0
M  V30 622 C 57.4158 -1.582 -1.25766 0
M  V30 623 C 57.7368 -0.268482 -1.93143 0
M  V30 624 O 57.0068 0.711833 -1.8251 0
M  V30 625 H 55.5868 -0.582873 -0.467191 0
M  V30 626 H 58.2488 -1.85865 -0.586525 0
M  V30 627 H 57.3448 -2.37563 -2.02412 0
M  V30 628 N 57.6459 0.756429 -1.3826 0
M  V30 629 C 58.5789 1.87802 -1.29637 0
M  V30 630 C 59.5569 1.61667 -0.173939 0
M  V30 631 O 60.7409 1.85208 -0.350775 0
M  V30 632 C 57.8679 3.23354 -1.00797 0
M  V30 633 C 56.9139 3.68379 -2.14939 0
M  V30 634 S 57.7469 3.8025 -3.77054 0
M  V30 635 C 58.9029 5.18626 -3.50396 0
M  V30 636 H 59.1359 1.94829 -2.24564 0
M  V30 637 H 56.6689 0.919117 -1.24063 0
M  V30 638 H 58.6269 4.01637 -0.848413 0
M  V30 639 H 57.2879 3.14008 -0.0759369 0
M  V30 640 H 56.4809 4.66693 -1.90299 0
M  V30 641 H 56.0829 2.97242 -2.26988 0
M  V30 642 H 58.3749 6.04289 -3.06334 0
M  V30 643 H 59.3179 5.48286 -4.48094 0
M  V30 644 H 59.7259 4.87289 -2.84973 0
M  V30 645 N 59.124 1.23083 0.984299 0
M  V30 646 C 60.37 1.06214 1.72761 0
M  V30 647 C 60.703 -0.400584 1.90024 0
M  V30 648 O 59.978 -1.29672 1.44967 0
M  V30 649 C 60.261 1.78375 3.12817 0
M  V30 650 C 60.114 3.32296 3.03149 0
M  V30 651 C 61.433 1.54309 4.12161 0
M  V30 652 H 58.552 0.387251 0.627061 0
M  V30 653 H 61.194 1.51536 1.14616 0
M  V30 654 H 59.344 1.39848 3.62457 0
M  V30 655 H 61.016 3.8032 2.61064 0
M  V30 656 H 59.259 3.6153 2.39747 0
M  V30 657 H 59.93 3.77972 4.02295 0
M  V30 658 H 62.406 1.87791 3.71314 0
M  V30 659 H 61.282 2.07281 5.08258 0
M  V30 660 H 61.543 0.477572 4.39513 0
M  V30 661 N 60.6021 -1.18246 1.0419 0
M  V30 662 C 61.5321 -2.24127 0.654914 0
M  V30 663 C 62.5131 -1.66617 -0.342451 0
M  V30 664 O 63.6981 -1.92924 -0.222277 0
M  V30 665 C 60.8281 -3.47295 0.0183757 0
M  V30 666 C 59.7821 -4.17563 0.939414 0
M  V30 667 C 59.1081 -5.34438 0.167286 0
M  V30 668 C 60.4081 -4.70917 2.25908 0
M  V30 669 H 62.1021 -2.56753 1.54007 0
M  V30 670 H 59.6481 -1.23414 0.74195 0
M  V30 671 H 61.6011 -4.20572 -0.264082 0
M  V30 672 H 60.3251 -3.13907 -0.901664 0
M  V30 673 H 58.9841 -3.46186 1.20628 0
M  V30 674 H 58.6321 -4.97298 -0.7552 0
M  V30 675 H 58.3321 -5.82388 0.780901 0
M  V30 676 H 59.8561 -6.10504 -0.108125 0
M  V30 677 H 61.2701 -5.35882 2.03724 0
M  V30 678 H 59.6671 -5.29406 2.82577 0
M  V30 679 H 60.7371 -3.88272 2.9047 0
M  V30 680 N 62.0802 -0.821533 -1.34494 0
M  V30 681 C 63.0102 -0.257138 -2.3208 0
M  V30 682 C 63.9912 0.625645 -1.58176 0
M  V30 683 O 65.1762 0.552811 -1.86166 0
M  V30 684 C 62.3062 0.582958 -3.42372 0
M  V30 685 C 61.2602 -0.202571 -4.2752 0
M  V30 686 C 60.5862 0.760179 -5.29269 0
M  V30 687 C 61.8862 -1.40998 -5.02908 0
M  V30 688 H 63.5802 -1.07247 -2.79532 0
M  V30 689 H 61.1262 -0.517163 -1.34393 0
M  V30 690 H 63.0792 0.987972 -4.09655 0
M  V30 691 H 61.8032 1.43133 -2.93565 0
M  V30 692 H 60.4622 -0.588936 -3.61838 0
M  V30 693 H 60.1102 1.60447 -4.76724 0
M  V30 694 H 59.8102 0.238809 -5.87115 0
M  V30 695 H 61.3342 1.16308 -5.9942 0
M  V30 696 H 62.7482 -1.07905 -5.63054 0
M  V30 697 H 61.1452 -1.86689 -5.70322 0
M  V30 698 H 62.2152 -2.1889 -4.32684 0
M  V30 699 N 63.5583 1.46682 -0.576371 0
M  V30 700 C 64.8063 2.02013 -0.0594163 0
M  V30 701 C 65.1273 1.45101 1.30271 0
M  V30 702 O 64.3973 0.633317 1.8538 0
M  V30 703 H 62.9773 0.746759 -0.0189745 0
M  V30 704 H 65.6393 1.79862 -0.750717 0
M  V30 705 H 64.7353 3.12097 0.014345 0
M  V30 706 N 65.0364 0.313813 1.54444 0
M  V30 707 C 65.9994 -0.54379 2.22656 0
M  V30 708 C 66.9994 -1.05124 1.21678 0
M  V30 709 O 68.1894 -0.945225 1.46325 0
M  V30 710 C 65.3214 -1.75427 2.92298 0
M  V30 711 H 66.5144 0.0523599 2.99854 0
M  V30 712 H 64.0674 0.0647834 1.56166 0
M  V30 713 H 64.8024 -2.38991 2.19211 0
M  V30 714 H 64.5874 -1.39791 3.66334 0
M  V30 715 H 66.0774 -2.36325 3.44297 0
M  V30 716 N 66.5145 -1.57545 0.0417849 0
M  V30 717 C 67.4615 -2.10977 -0.935805 0
M  V30 718 C 68.4315 -1.01486 -1.31491 0
M  V30 719 O 69.6165 -1.2898 -1.40602 0
M  V30 720 C 66.7565 -2.65169 -2.2086 0
M  V30 721 C 65.8695 -3.88714 -1.88482 0
M  V30 722 C 65.0045 -4.31254 -3.1015 0
M  V30 723 C 64.0435 -5.47524 -2.7365 0
M  V30 724 N 63.1805 -5.85162 -3.87982 0
M  V30 725 H 68.0205 -2.94218 -0.473249 0
M  V30 726 H 65.5575 -1.45415 -0.221981 0
M  V30 727 H 67.5155 -2.94685 -2.95325 0
M  V30 728 H 66.1455 -1.8474 -2.64709 0
M  V30 729 H 65.1975 -3.65849 -1.04205 0
M  V30 730 H 66.5095 -4.73245 -1.57608 0
M  V30 731 H 65.6635 -4.62273 -3.92923 0
M  V30 732 H 64.4025 -3.45516 -3.44195 0
M  V30 733 H 63.4075 -5.16187 -1.89291 0
M  V30 734 H 64.6325 -6.34971 -2.40807 0
M  V30 735 H 62.5785 -5.02377 -4.21846 0
M  V30 736 H 62.4955 -6.64362 -3.60775 0
M  V30 737 H 63.7635 -6.20791 -4.71422 0
M  V30 738 N 67.9926 0.231505 -1.5589 0
M  V30 739 C 69.2696 0.981096 -1.69215 0
M  V30 740 C 69.6496 2.02799 -0.586164 0
M  V30 741 O 68.9976 2.24823 0.408253 0
M  V30 742 C 69.2076 1.60054 -3.10135 0
M  V30 743 C 70.5556 2.09658 -3.69227 0
M  V30 744 O 71.5796 1.69967 -3.13033 0
M  V30 745 O 70.4386 2.8258 -4.67772 0
M  V30 746 H 67.5326 0.457653 -0.688827 0
M  V30 747 H 70.0786 0.224073 -1.68214 0
M  V30 748 H 68.8506 0.844105 -3.82087 0
M  V30 749 H 68.4736 2.42336 -3.15212 0
M  V30 750 N 69.4707 1.49531 0.497807 0
M  V30 751 C 70.4187 1.66926 1.61983 0
M  V30 752 C 71.4127 0.535167 1.60724 0
M  V30 753 O 72.6187 0.714896 1.65195 0
M  V30 754 H 68.9937 0.526415 0.537021 0
M  V30 755 H 70.9647 2.61098 1.44465 0
M  V30 756 C 69.7137 1.75602 3.00099 0
M  V30 757 H 69.0367 2.62244 3.01775 0
M  V30 758 H 70.4767 1.91807 3.78135 0
M  V30 759 C 68.9357 0.501543 3.33146 0
M  V30 760 O 69.4657 -0.371342 3.9998 0
M  V30 761 N 67.6717 0.363531 2.88317 0
M  V30 762 H 67.2187 1.07485 2.34104 0
M  V30 763 H 67.1767 -0.474728 3.10795 0
M  V30 764 N 70.9488 -0.749086 1.3866 0
M  V30 765 C 72.1768 -1.53834 1.38358 0
M  V30 766 C 72.5918 -1.88783 -0.0255219 0
M  V30 767 O 71.9488 -1.53101 -0.993292 0
M  V30 768 C 71.9998 -2.83468 2.2434 0
M  V30 769 O 71.7208 -2.50008 3.5976 0
M  V30 770 C 73.2218 -3.7758 2.32267 0
M  V30 771 H 70.4418 -0.47585 0.473083 0
M  V30 772 H 72.9858 -0.926726 1.82297 0
M  V30 773 H 71.1408 -3.40995 1.83851 0
M  V30 774 H 71.5548 -3.33182 4.05081 0
M  V30 775 H 73.0288 -4.65478 2.96706 0
M  V30 776 H 73.5058 -4.18334 1.33765 0
M  V30 777 H 74.1118 -3.25976 2.73166 0
M  V30 778 N 72.4269 -1.23603 -0.977757 0
M  V30 779 C 73.3899 -1.02069 -2.05218 0
M  V30 780 C 74.3899 0.0184305 -1.60789 0
M  V30 781 O 75.5799 -0.221569 -1.72785 0
M  V30 782 C 72.7119 -0.544926 -3.36517 0
M  V30 783 H 73.9049 -1.9742 -2.25755 0
M  V30 784 H 71.4579 -1.05684 -1.15155 0
M  V30 785 H 72.1929 0.412241 -3.21669 0
M  V30 786 H 71.9779 -1.2948 -3.70105 0
M  V30 787 H 73.4679 -0.414985 -4.15533 0
M  V30 788 N 73.905 1.17692 -1.04816 0
M  V30 789 C 74.837 2.21103 -0.603822 0
M  V30 790 C 75.85 1.59411 0.33046 0
M  V30 791 O 77.039 1.7807 0.12379 0
M  V30 792 C 74.139 3.38623 0.136898 0
M  V30 793 C 73.312 4.29888 -0.807137 0
M  V30 794 C 72.371 5.26088 -0.10836 0
M  V30 795 O 71.397 5.64353 -0.741232 0
M  V30 796 N 72.599 5.68882 1.15558 0
M  V30 797 H 75.364 2.59848 -1.49329 0
M  V30 798 H 72.925 1.32553 -0.929587 0
M  V30 799 H 74.917 4.00009 0.614401 0
M  V30 800 H 73.487 2.98508 0.927993 0
M  V30 801 H 72.707 3.65993 -1.46434 0
M  V30 802 H 73.995 4.87759 -1.44807 0
M  V30 803 H 73.393 5.39861 1.69015 0
M  V30 804 H 71.95 6.32429 1.57722 0
M  V30 805 N 75.3831 0.828654 1.34056 0
M  V30 806 C 76.3151 0.212052 2.28217 0
M  V30 807 C 77.3281 -0.601362 1.51286 0
M  V30 808 O 78.5171 -0.430104 1.73241 0
M  V30 809 C 75.6171 -0.72088 3.31144 0
M  V30 810 C 74.7901 0.0509587 4.3737 0
M  V30 811 C 73.8491 -0.803766 5.20025 0
M  V30 812 O 72.8751 -0.246667 5.68665 0
M  V30 813 N 74.0771 -2.1227 5.40298 0
M  V30 814 H 76.8421 1.02105 2.81771 0
M  V30 815 H 74.4031 0.686153 1.46641 0
M  V30 816 H 76.3951 -1.29742 3.8334 0
M  V30 817 H 74.9651 -1.43061 2.77943 0
M  V30 818 H 74.1851 0.808831 3.85813 0
M  V30 819 H 75.4731 0.582065 5.0546 0
M  V30 820 H 74.8711 -2.59898 5.02464 0
M  V30 821 H 73.4281 -2.64796 5.95589 0
M  V30 822 N 76.8612 -1.46375 0.584142 0
M  V30 823 C 78.1102 -2.01585 0.0679741 0
M  V30 824 C 78.4232 -1.46109 -1.30045 0
M  V30 825 O 79.6292 -1.93148 -1.90804 0
M  V30 826 C 78.0852 -3.5983 0.0709207 0
M  V30 827 C 77.6932 -4.24303 1.43775 0
M  V30 828 C 79.4372 -4.22693 -0.391228 0
M  V30 829 C 77.3442 -5.74631 1.39834 0
M  V30 830 H 76.2742 -0.753689 0.0216421 0
M  V30 831 H 78.9252 -1.68093 0.736001 0
M  V30 832 H 77.3072 -3.90405 -0.663299 0
M  V30 833 H 78.4812 -4.05335 2.19181 0
M  V30 834 H 76.7962 -3.73539 1.84004 0
M  V30 835 H 79.3932 -5.3289 -0.439524 0
M  V30 836 H 79.7362 -3.91728 -1.40906 0
M  V30 837 H 80.2692 -3.96749 0.288974 0
M  V30 838 H 77.0082 -6.10258 2.39303 0
M  V30 839 H 76.5282 -5.95858 0.686505 0
M  V30 840 H 78.2072 -6.37375 1.11187 0
M  V30 841 N 78.3393 -0.321999 -1.54275 0
M  V30 842 C 79.2863 0.544664 -2.24281 0
M  V30 843 C 80.2563 1.1129 -1.23303 0
M  V30 844 O 81.4413 1.15354 -1.51981 0
M  V30 845 C 78.5813 1.70045 -3.00298 0
M  V30 846 C 77.6943 1.16159 -4.1609 0
M  V30 847 C 76.8293 2.28293 -4.79641 0
M  V30 848 C 75.8683 1.71648 -5.8754 0
M  V30 849 N 75.0053 2.77438 -6.44959 0
M  V30 850 H 79.8453 -0.0588907 -2.97942 0
M  V30 851 H 77.3823 -0.0408345 -1.47043 0
M  V30 852 H 79.3403 2.38054 -3.42616 0
M  V30 853 H 77.9703 2.27531 -2.28975 0
M  V30 854 H 77.0223 0.373092 -3.78566 0
M  V30 855 H 78.3343 0.707087 -4.93763 0
M  V30 856 H 77.4883 3.0421 -5.2492 0
M  V30 857 H 76.2273 2.77079 -4.01346 0
M  V30 858 H 75.2323 0.942282 -5.41665 0
M  V30 859 H 76.4573 1.23741 -6.67731 0
M  V30 860 H 74.4033 3.25519 -5.69538 0
M  V30 861 H 74.3203 2.36547 -7.1804 0
M  V30 862 H 75.5883 3.53189 -6.94894 0
M  V30 863 N 79.8174 1.5752 -0.0501392 0
M  V30 864 C 80.7644 2.1147 0.924603 0
M  V30 865 C 81.7344 1.02182 1.30951 0
M  V30 866 O 82.9194 1.29723 1.39916 0
M  V30 867 C 80.0594 2.66337 2.19451 0
M  V30 868 C 79.1724 3.89708 1.86418 0
M  V30 869 C 78.3074 4.32893 3.07859 0
M  V30 870 C 77.3464 5.48967 2.70742 0
M  V30 871 N 76.4834 5.87211 3.84874 0
M  V30 872 H 81.3234 2.94465 0.457639 0
M  V30 873 H 78.8604 1.45531 0.214266 0
M  V30 874 H 80.8184 2.96247 2.93758 0
M  V30 875 H 79.4484 1.86141 2.63726 0
M  V30 876 H 78.5004 3.66396 1.02264 0
M  V30 877 H 79.8124 4.74074 1.55096 0
M  V30 878 H 78.9664 4.6435 3.90466 0
M  V30 879 H 77.7054 3.47336 3.42358 0
M  V30 880 H 76.7104 5.17183 1.86551 0
M  V30 881 H 77.9354 6.3624 2.37436 0
M  V30 882 H 75.8814 5.04607 4.19175 0
M  V30 883 H 75.7984 6.66266 3.57247 0
M  V30 884 H 77.0664 6.23282 4.68123 0
M  V30 885 N 81.2955 -0.223234 1.56011 0
M  V30 886 C 82.5415 -0.949279 1.79211 0
M  V30 887 C 82.8745 -1.84054 0.619494 0
M  V30 888 O 82.1495 -1.90726 -0.381317 0
M  V30 889 C 82.4325 -1.78965 3.12479 0
M  V30 890 C 82.2855 -0.924997 4.40186 0
M  V30 891 C 83.6045 -2.76774 3.42175 0
M  V30 892 H 80.7235 -0.343676 0.651963 0
M  V30 893 H 83.3655 -0.218253 1.88742 0
M  V30 894 H 81.5155 -2.41291 3.04485 0
M  V30 895 H 83.1875 -0.318615 4.60198 0
M  V30 896 H 81.4305 -0.230344 4.33188 0
M  V30 897 H 82.1015 -1.54735 5.29869 0
M  V30 898 H 84.5775 -2.24584 3.50287 0
M  V30 899 H 83.4535 -3.32678 4.36597 0
M  V30 900 H 83.7145 -3.54429 2.64258 0
M  V30 901 N 82.7736 -1.49793 -0.48987 0
M  V30 902 C 83.7036 -1.70201 -1.59856 0
M  V30 903 C 84.6846 -0.55076 -1.60937 0
M  V30 904 O 85.8696 -0.787841 -1.77501 0
M  V30 905 C 82.9996 -1.77882 -2.98287 0
M  V30 906 C 81.9536 -2.92907 -3.12073 0
M  V30 907 C 81.2796 -2.85712 -4.51965 0
M  V30 908 C 82.5796 -4.3369 -2.91051 0
M  V30 909 H 84.2736 -2.63025 -1.43032 0
M  V30 910 H 81.8196 -1.26574 -0.686664 0
M  V30 911 H 83.7726 -1.90744 -3.75759 0
M  V30 912 H 82.4966 -0.816653 -3.16225 0
M  V30 913 H 81.1556 -2.79665 -2.37029 0
M  V30 914 H 80.8036 -1.8738 -4.66795 0
M  V30 915 H 80.5036 -3.62921 -4.62128 0
M  V30 916 H 82.0276 -3.00598 -5.31482 0
M  V30 917 H 83.4416 -4.47555 -3.58284 0
M  V30 918 H 81.8386 -5.12205 -3.12675 0
M  V30 919 H 82.9086 -4.47362 -1.87071 0
M  V30 920 N 84.2517 0.741722 -1.39055 0
M  V30 921 C 85.2017 1.84661 -1.33732 0
M  V30 922 C 86.1857 1.59397 -0.219401 0
M  V30 923 O 87.3777 1.71015 -0.456375 0
M  V30 924 C 84.5067 3.22512 -1.17647 0
M  V30 925 C 83.5927 3.53628 -2.34112 0
M  V30 926 N 83.9837 3.55723 -3.59576 0
M  V30 927 C 82.2817 3.83956 -2.26923 0
M  V30 928 C 82.9827 3.84443 -4.36553 0
M  V30 929 N 81.9587 4.01877 -3.66055 0
M  V30 930 H 85.7607 1.84576 -2.28711 0
M  V30 931 H 83.2747 0.939647 -1.32455 0
M  V30 932 H 85.2717 4.01597 -1.11917 0
M  V30 933 H 83.9317 3.2384 -0.236124 0
M  V30 934 H 84.9427 3.37196 -3.93089 0
M  V30 935 H 81.6197 3.92929 -1.41113 0
M  V30 936 H 83.0097 3.92588 -5.45274 0
M  V30 937 N 85.7298 1.2412 0.971189 0
M  V30 938 C 86.9768 1.07881 1.71371 0
M  V30 939 C 87.3048 -0.382901 1.90694 0
M  V30 940 O 86.5598 -1.29945 1.46331 0
M  V30 941 C 86.8588 1.75983 3.11071 0
M  V30 942 C 86.5248 3.25909 3.11599 0
M  V30 943 C 85.1868 3.66813 3.11451 0
M  V30 944 C 87.5388 4.21771 3.062 0
M  V30 945 C 84.8668 5.02021 3.03631 0
M  V30 946 C 87.2188 5.56982 2.99923 0
M  V30 947 C 85.8828 5.97237 2.98102 0
M  V30 948 H 85.1528 0.394764 0.62709 0
M  V30 949 H 87.7998 1.54176 1.13587 0
M  V30 950 H 86.1048 1.22072 3.72298 0
M  V30 951 H 87.8018 1.60887 3.6731 0
M  V30 952 H 84.3918 2.93353 3.12477 0
M  V30 953 H 88.5758 3.91172 3.05447 0
M  V30 954 H 83.8318 5.32411 3.0058 0
M  V30 955 H 88.0058 6.30969 2.94704 0
M  V30 956 H 85.6328 7.01967 2.91798 0
M  V30 957 N 87.2079 -1.17134 1.05439 0
M  V30 958 C 88.4849 -1.83411 0.679699 0
M  V30 959 C 88.8649 -1.9368 -0.839726 0
M  V30 960 O 88.2129 -1.47325 -1.74664 0
M  V30 961 C 88.4229 -3.20918 1.37159 0
M  V30 962 C 89.7709 -3.96796 1.51123 0
M  V30 963 O 90.7949 -3.30406 1.3308 0
M  V30 964 O 89.6539 -5.15778 1.80651 0
M  V30 965 H 86.7479 -0.79154 0.239569 0
M  V30 966 H 89.2939 -1.24411 1.15413 0
M  V30 967 H 88.0659 -3.08428 2.40807 0
M  V30 968 H 87.6889 -3.87587 0.886674 0
M  V30 969 N 88.686 -0.835752 -1.33615 0
M  V30 970 C 89.618 -0.224151 -2.28101 0
M  V30 971 C 90.631 0.593331 -1.51603 0
M  V30 972 O 91.82 0.420911 -1.73466 0
M  V30 973 C 88.92 0.703309 -3.31522 0
M  V30 974 C 88.093 -0.0741528 -4.37337 0
M  V30 975 C 87.152 0.776176 -5.20444 0
M  V30 976 O 86.178 0.216506 -5.68788 0
M  V30 977 N 87.38 2.09401 -5.41416 0
M  V30 978 H 90.145 -1.03598 -2.81225 0
M  V30 979 H 87.706 -0.69392 -1.46275 0
M  V30 980 H 89.698 1.27707 -3.84022 0
M  V30 981 H 88.268 1.41585 -2.78698 0
M  V30 982 H 87.488 -0.82928 -3.85378 0
M  V30 983 H 88.776 -0.608863 -5.05144 0
M  V30 984 H 88.174 2.57229 -5.03835 0
M  V30 985 H 86.731 2.61633 -5.96985 0
M  V30 986 N 90.1641 1.46063 -0.591896 0
M  V30 987 C 91.4101 2.02638 -0.0811191 0
M  V30 988 C 91.7431 1.4613 1.27905 0
M  V30 989 O 91.0181 0.629908 1.84017 0
M  V30 990 C 91.3011 3.60091 -0.0252436 0
M  V30 991 C 91.1541 4.26965 -1.41496 0
M  V30 992 C 92.4731 4.3496 0.670685 0
M  V30 993 H 89.5921 0.73635 -0.0309524 0
M  V30 994 H 92.2341 1.741 -0.760859 0
M  V30 995 H 90.3841 3.84535 0.553624 0
M  V30 996 H 92.0561 4.13756 -2.0397 0
M  V30 997 H 90.2991 3.85971 -1.98011 0
M  V30 998 H 90.9701 5.35781 -1.32825 0
M  V30 999 H 93.4461 4.15716 0.178825 0
M  V30 1000 H 92.3221 5.44686 0.678837 0
M  V30 1001 H 92.5831 4.06685 1.73379 0
M  V30 1002 N 91.6422 0.330177 1.54103 0
M  V30 1003 C 92.8702 -0.272179 2.05102 0
M  V30 1004 C 93.2852 -1.45267 1.20595 0
M  V30 1005 O 92.6422 -1.8094 0.238144 0
M  V30 1006 C 92.6932 -0.70023 3.54653 0
M  V30 1007 O 92.4142 0.433301 4.35952 0
M  V30 1008 C 93.9152 -1.3647 4.21771 0
M  V30 1009 H 91.1352 -0.0549159 0.668749 0
M  V30 1010 H 93.6792 0.478285 1.98828 0
M  V30 1011 H 91.8342 -1.40066 3.61193 0
M  V30 1012 H 92.2482 0.0947539 5.24414 0
M  V30 1013 H 93.7222 -1.61509 5.27843 0
M  V30 1014 H 94.1992 -2.31409 3.73292 0
M  V30 1015 H 94.8052 -0.706675 4.19388 0
M  V30 1016 N 93.1203 -1.57491 0.0584922 0
M  V30 1017 C 94.0303 -2.15448 -0.928414 0
M  V30 1018 C 95.0463 -1.11416 -1.3365 0
M  V30 1019 O 96.2223 -1.4362 -1.41193 0
M  V30 1020 C 93.2873 -2.69393 -2.18239 0
M  V30 1021 C 92.3483 -3.88249 -1.83196 0
M  V30 1022 C 91.5813 -4.39613 -3.02616 0
M  V30 1023 O 91.8043 -3.90023 -4.16219 0
M  V30 1024 O 90.7383 -5.31111 -2.83204 0
M  V30 1025 H 94.5643 -3.00112 -0.465483 0
M  V30 1026 H 92.1493 -1.48499 -0.163826 0
M  V30 1027 H 94.0313 -3.04026 -2.91798 0
M  V30 1028 H 92.7063 -1.87796 -2.63656 0
M  V30 1029 H 91.6133 -3.58492 -1.06931 0
M  V30 1030 H 92.9463 -4.71098 -1.42573 0
M  V30 1031 N 94.5984 0.214957 -1.56127 0
M  V30 1032 C 95.5464 1.28601 -1.93816 0
M  V30 1033 C 96.5404 1.48175 -0.821016 0
M  V30 1034 O 97.7464 1.49271 -1.0059 0
M  V30 1035 H 94.1214 0.431302 -0.616022 0
M  V30 1036 H 96.0924 0.940991 -2.83175 0
M  V30 1037 C 94.8414 2.62779 -2.27689 0
M  V30 1038 H 94.1644 2.48527 -3.13168 0
M  V30 1039 H 95.6044 3.36517 -2.57939 0
M  V30 1040 C 94.0634 3.18285 -1.10436 0
M  V30 1041 O 94.5934 4.00002 -0.368945 0
M  V30 1042 N 92.7994 2.7675 -0.886433 0
M  V30 1043 H 92.3464 2.10404 -1.48619 0
M  V30 1044 H 92.3044 3.14229 -0.103656 0
M  V30 1045 N 96.0765 1.50051 0.48192 0
M  V30 1046 C 97.3045 1.64237 1.25832 0
M  V30 1047 C 97.7195 0.321336 1.86045 0
M  V30 1048 O 97.0765 -0.695478 1.68729 0
M  V30 1049 C 97.1275 2.72548 2.37487 0
M  V30 1050 O 96.8485 3.99529 1.79745 0
M  V30 1051 C 98.3495 2.9761 3.28547 0
M  V30 1052 H 95.5695 0.55237 0.380957 0
M  V30 1053 H 98.1135 1.96207 0.576467 0
M  V30 1054 H 96.2685 2.43303 3.01467 0
M  V30 1055 H 96.6825 4.59342 2.5319 0
M  V30 1056 H 98.1565 3.77084 4.03127 0
M  V30 1057 H 98.6335 2.0826 3.86684 0
M  V30 1058 H 99.2395 3.28345 2.70314 0
M  V30 1059 N 97.5546 -0.734337 1.39446 0
M  V30 1060 C 98.7826 -1.52358 1.39981 0
M  V30 1061 C 99.1976 -1.88799 -0.0054975 0
M  V30 1062 O 98.5546 -1.54146 -0.976998 0
M  V30 1063 C 98.6056 -2.81072 2.27333 0
M  V30 1064 O 98.3266 -2.46178 3.62392 0
M  V30 1065 C 99.8276 -3.75096 2.36259 0
M  V30 1066 H 97.0476 -0.470806 0.478103 0
M  V30 1067 H 99.5916 -0.907339 1.83269 0
M  V30 1068 H 97.7466 -3.39026 1.87457 0
M  V30 1069 H 98.1606 -3.28866 4.08592 0
M  V30 1070 H 99.6346 -4.62305 3.01626 0
M  V30 1071 H 100.112 -4.16892 1.38194 0
M  V30 1072 H 100.718 -3.23061 2.76608 0
M  V30 1073 N 99.0327 -1.24633 -0.964593 0
M  V30 1074 C 100.281 -1.08573 -1.70459 0
M  V30 1075 C 100.602 0.375655 -1.91347 0
M  V30 1076 O 99.8717 1.26779 -1.49345 0
M  V30 1077 H 98.4517 -0.398784 -0.631649 0
M  V30 1078 H 101.114 -1.56601 -1.16026 0
M  V30 1079 H 100.21 -1.58623 -2.68785 0
M  V30 1080 N 100.511 1.16574 -1.06058 0
M  V30 1081 C 101.458 2.20883 -0.669263 0
M  V30 1082 C 102.428 1.62729 0.332918 0
M  V30 1083 O 103.613 1.895 0.222346 0
M  V30 1084 C 100.753 3.45049 -0.0593572 0
M  V30 1085 C 99.8658 4.17458 -1.11143 0
M  V30 1086 C 99.0008 5.29135 -0.467916 0
M  V30 1087 C 98.0398 5.93343 -1.50369 0
M  V30 1088 N 97.1768 6.96516 -0.883706 0
M  V30 1089 H 102.017 2.53709 -1.5632 0
M  V30 1090 H 99.5538 1.24616 -0.781625 0
M  V30 1091 H 101.512 4.16033 0.311771 0
M  V30 1092 H 100.142 3.12781 0.797992 0
M  V30 1093 H 99.1938 3.45101 -1.60029 0
M  V30 1094 H 100.506 4.61307 -1.89731 0
M  V30 1095 H 99.6598 6.06684 -0.0436871 0
M  V30 1096 H 98.3988 4.86443 0.349864 0
M  V30 1097 H 97.4038 5.14517 -1.93784 0
M  V30 1098 H 98.6288 6.38114 -2.32352 0
M  V30 1099 H 96.5748 6.55943 -0.086595 0
M  V30 1100 H 96.4918 7.38723 -1.607 0
M  V30 1101 H 97.7598 7.77993 -0.484543 0
M  V30 1102 N 101.989 0.842826 1.3317 0
M  V30 1103 C 102.952 0.284065 2.27433 0
M  V30 1104 C 103.952 -0.54948 1.5112 0
M  V30 1105 O 105.142 -0.362699 1.70382 0
M  V30 1106 C 102.274 -0.599384 3.35589 0
M  V30 1107 H 103.467 1.11589 2.78366 0
M  V30 1108 H 101.02 0.616221 1.4364 0
M  V30 1109 H 101.755 -1.45349 2.89904 0
M  V30 1110 H 101.54 -0.00291266 3.921 0
M  V30 1111 H 103.03 -0.983488 4.05854 0
M  V30 1112 N 103.467 -1.45747 0.599634 0
M  V30 1113 C 104.43 -2.28917 -0.113835 0
M  V30 1114 C 105.43 -1.3933 -0.802729 0
M  V30 1115 O 106.62 -1.61534 -0.652103 0
M  V30 1116 C 103.752 -3.20152 -1.17114 0
M  V30 1117 H 104.945 -2.93478 0.617289 0
M  V30 1118 H 102.498 -1.52137 0.358327 0
M  V30 1119 H 103.233 -2.60374 -1.93329 0
M  V30 1120 H 103.018 -3.86133 -0.681468 0
M  V30 1121 H 104.508 -3.82708 -1.67105 0
M  V30 1122 N 104.945 -0.338344 -1.53925 0
M  V30 1123 C 106.173 0.261298 -2.05243 0
M  V30 1124 C 106.588 1.44625 -1.21363 0
M  V30 1125 O 105.945 1.80811 -0.247736 0
M  V30 1126 C 105.996 0.681412 -3.5502 0
M  V30 1127 O 105.717 -0.456414 -4.35716 0
M  V30 1128 C 107.218 1.34232 -4.22489 0
M  V30 1129 H 104.438 0.0513685 -0.669031 0
M  V30 1130 H 106.982 -0.488822 -1.98572 0
M  V30 1131 H 105.137 1.38148 -3.61931 0
M  V30 1132 H 105.551 -0.122564 -5.24357 0
M  V30 1133 H 107.025 1.58708 -5.28693 0
M  V30 1134 H 107.502 2.29426 -3.74514 0
M  V30 1135 H 108.108 0.684424 -4.19757 0
M  V30 1136 N 106.423 1.57458 -0.0668435 0
M  V30 1137 C 107.653 1.97337 0.611677 0
M  V30 1138 C 108.061 0.943744 1.63982 0
M  V30 1139 O 107.404 -0.0785584 1.83532 0
M  V30 1140 C 107.466 3.33511 1.34205 0
M  V30 1141 C 107.13 4.54598 0.467941 0
M  V30 1142 C 108.127 5.19186 -0.272439 0
M  V30 1143 C 105.812 5.0075 0.39427 0
M  V30 1144 C 107.806 6.28274 -1.07476 0
M  V30 1145 C 105.493 6.09711 -0.411729 0
M  V30 1146 C 106.491 6.73335 -1.14492 0
M  V30 1147 O 106.179 7.80199 -1.93763 0
M  V30 1148 H 105.911 0.654042 0.170893 0
M  V30 1149 H 108.465 2.04961 -0.134289 0
M  V30 1150 H 106.695 3.22487 2.13398 0
M  V30 1151 H 108.384 3.58029 1.91233 0
M  V30 1152 H 109.15 4.84477 -0.225086 0
M  V30 1153 H 105.029 4.51009 0.954569 0
M  V30 1154 H 108.573 6.77866 -1.64755 0
M  V30 1155 H 104.47 6.43854 -0.460664 0
M  V30 1156 H 105.238 7.97053 -1.86142 0
M  V30 1157 N 107.901 -0.206675 1.56239 0
M  V30 1158 C 108.851 -1.26 1.90021 0
M  V30 1159 C 109.835 -1.41566 0.764721 0
M  V30 1160 O 111.027 -1.44131 1.02739 0
M  V30 1161 C 108.156 -2.6073 2.23326 0
M  V30 1162 C 107.242 -2.49005 3.43304 0
M  V30 1163 N 107.633 -2.06946 4.61527 0
M  V30 1164 C 105.931 -2.79927 3.47213 0
M  V30 1165 C 106.632 -2.06832 5.43687 0
M  V30 1166 N 105.608 -2.47892 4.83788 0
M  V30 1167 H 109.41 -0.925955 2.78932 0
M  V30 1168 H 106.924 -0.415172 1.57003 0
M  V30 1169 H 108.921 -3.36798 2.45708 0
M  V30 1170 H 107.581 -2.94968 1.35735 0
M  V30 1171 H 108.592 -1.77839 4.86409 0
M  V30 1172 H 105.269 -3.18438 2.70006 0
M  V30 1173 H 106.659 -1.76312 6.48354 0
M  V30 1174 N 109.379 -1.50304 -0.473955 0
M  V30 1175 C 110.625 -1.61389 -1.22806 0
M  V30 1176 C 110.958 -0.311955 -1.91678 0
M  V30 1177 O 110.233 0.686384 -1.81986 0
M  V30 1178 C 110.516 -2.79219 -2.27396 0
M  V30 1179 C 110.369 -4.19286 -1.62848 0
M  V30 1180 C 111.688 -2.92614 -3.28732 0
M  V30 1181 H 108.807 -0.587399 -0.445119 0
M  V30 1182 H 111.449 -1.82681 -0.522265 0
M  V30 1183 H 109.599 -2.61195 -2.87592 0
M  V30 1184 H 111.271 -4.48892 -1.06271 0
M  V30 1185 H 109.514 -4.23677 -0.931693 0
M  V30 1186 H 110.185 -4.97655 -2.38838 0
M  V30 1187 H 112.661 -3.09105 -2.78556 0
M  V30 1188 H 111.537 -3.76688 -3.99246 0
M  V30 1189 H 111.798 -2.03107 -3.92683 0
M  V30 1190 N 110.857 0.726932 -1.39834 0
M  V30 1191 C 112.134 1.47902 -1.28001 0
M  V30 1192 C 112.514 2.1083 0.106789 0
M  V30 1193 O 111.862 1.99242 1.11869 0
M  V30 1194 C 112.072 2.52392 -2.41038 0
M  V30 1195 C 113.42 3.18546 -2.80737 0
M  V30 1196 O 114.444 2.62708 -2.40547 0
M  V30 1197 O 113.303 4.19604 -3.50135 0
M  V30 1198 H 110.397 0.657163 -0.502062 0
M  V30 1199 H 112.943 0.760071 -1.51727 0
M  V30 1200 H 111.715 2.04329 -3.33715 0
M  V30 1201 H 111.338 3.31837 -2.19021 0
M  V30 1202 N 112.336 1.25143 0.95797 0
M  V30 1203 C 113.752 1.01892 1.22842 0
M  V30 1204 C 113.952 -0.266311 1.99732 0
M  V30 1205 O 113.008 -0.979913 2.3271 0
M  V30 1206 C 114.321 2.24004 2.00606 0
M  V30 1207 C 115.869 2.28731 2.13662 0
M  V30 1208 C 116.344 3.5049 2.94823 0
M  V30 1209 N 117.835 3.50866 3.02403 0
M  V30 1210 C 118.57 4.4174 3.65586 0
M  V30 1211 N 118.066 5.42882 4.30408 0
M  V30 1212 N 119.859 4.29429 3.62694 0
M  V30 1213 H 112.01 2.07718 0.443493 0
M  V30 1214 H 114.273 0.912031 0.258657 0
M  V30 1215 H 113.979 3.17395 1.51503 0
M  V30 1216 H 113.853 2.26907 3.01319 0
M  V30 1217 H 116.24 1.35865 2.61963 0
M  V30 1218 H 116.321 2.29848 1.12265 0
M  V30 1219 H 115.965 4.43676 2.47213 0
M  V30 1220 H 115.895 3.46617 3.96439 0
M  V30 1221 H 118.386 2.777 2.56302 0
M  V30 1222 H 118.699 6.0844 4.76467 0
M  V30 1223 H 117.044 5.46758 4.29047 0
M  V30 1224 H 120.235 3.49643 3.11236 0
M  V30 1225 H 120.408 5.00448 4.1165 0
M  V30 1226 N 113.814 -1.1601 1.06675 0
M  V30 1227 C 115.039 -1.91068 0.806706 0
M  V30 1228 C 115.464 -1.77112 -0.633485 0
M  V30 1229 O 114.822 -1.09908 -1.44187 0
M  V30 1230 C 114.87 -3.39655 1.21106 0
M  V30 1231 O 113.974 -4.10893 0.352189 0
M  V30 1232 H 113.315 -0.595125 0.294486 0
M  V30 1233 H 115.845 -1.46955 1.42356 0
M  V30 1234 H 115.855 -3.90434 1.18428 0
M  V30 1235 H 114.53 -3.49132 2.26008 0
M  V30 1236 H 113.107 -3.70285 0.440868 0
M  V30 1237 N 115.292 -0.849877 -1.32721 0
M  V30 1238 C 116.54 -0.450032 -1.97026 0
M  V30 1239 C 116.861 0.996604 -1.67609 0
M  V30 1240 O 116.131 1.6958 -0.980786 0
M  V30 1241 H 114.711 -0.163426 -0.728904 0
M  V30 1242 H 117.373 -1.08526 -1.6189 0
M  V30 1243 H 116.469 -0.591146 -3.0645 0
M  V30 1244 N 116.77 1.45427 -0.607355 0
M  V30 1245 C 117.718 2.32269 0.12411 0
M  V30 1246 C 118.712 1.45955 0.859854 0
M  V30 1247 O 119.918 1.6244 0.775447 0
M  V30 1248 H 116.293 0.749691 0.0588839 0
M  V30 1249 H 118.264 2.91743 -0.626762 0
M  V30 1250 C 117.013 3.29567 1.1082 0
M  V30 1251 H 116.336 3.95978 0.551492 0
M  V30 1252 H 117.776 3.93061 1.58995 0
M  V30 1253 C 116.235 2.56722 2.18164 0
M  V30 1254 O 116.765 2.34842 3.25902 0
M  V30 1255 N 114.971 2.16861 1.93442 0
M  V30 1256 H 114.518 2.34855 1.05834 0
M  V30 1257 H 114.476 1.68444 2.65469 0
M  V30 1258 N 118.248 0.346503 1.53744 0
M  V30 1259 C 119.494 -0.249473 2.0126 0
M  V30 1260 C 119.827 -1.49965 1.23386 0
M  V30 1261 O 119.102 -1.91811 0.32229 0
M  V30 1262 C 119.385 -0.560643 3.55709 0
M  V30 1263 C 119.238 0.701836 4.44291 0
M  V30 1264 C 120.557 -1.36905 4.18264 0
M  V30 1265 H 117.676 -0.0891987 0.731582 0
M  V30 1266 H 120.318 0.467624 1.84156 0
M  V30 1267 H 118.468 -1.17156 3.70414 0
M  V30 1268 H 120.14 1.33974 4.41417 0
M  V30 1269 H 118.383 1.32612 4.13033 0
M  V30 1270 H 119.054 0.43933 5.50249 0
M  V30 1271 H 121.53 -0.852448 4.07275 0
M  V30 1272 H 120.406 -1.55553 5.26398 0
M  V30 1273 H 120.667 -2.37203 3.73078 0
M  V30 1274 N 119.726 -1.57421 0.075193 0
M  V30 1275 C 120.676 -2.09441 -0.901025 0
M  V30 1276 C 121.66 -1.00486 -1.25663 0
M  V30 1277 O 122.852 -1.2679 -1.23504 0
M  V30 1278 C 119.981 -2.66233 -2.16737 0
M  V30 1279 C 119.067 -3.82198 -1.83808 0
M  V30 1280 N 119.458 -4.91028 -1.21345 0
M  V30 1281 C 117.756 -3.91558 -2.13538 0
M  V30 1282 C 118.457 -5.71852 -1.06585 0
M  V30 1283 N 117.433 -5.20233 -1.57667 0
M  V30 1284 H 121.235 -2.90972 -0.413815 0
M  V30 1285 H 118.749 -1.6189 -0.128601 0
M  V30 1286 H 120.746 -3.01819 -2.87595 0
M  V30 1287 H 119.406 -1.8615 -2.66042 0
M  V30 1288 H 120.417 -5.10323 -0.88268 0
M  V30 1289 H 117.094 -3.22454 -2.65197 0
M  V30 1290 H 118.484 -6.69401 -0.578933 0
M  V30 1291 N 121.204 0.198386 -1.56346 0
M  V30 1292 C 122.154 1.2499 -1.90687 0
M  V30 1293 C 123.138 1.41158 -0.772217 0
M  V30 1294 O 124.33 1.43584 -1.03502 0
M  V30 1295 C 121.459 2.59542 -2.24706 0
M  V30 1296 C 120.545 2.47181 -3.44619 0
M  V30 1297 N 120.936 2.04495 -4.62618 0
M  V30 1298 C 119.234 2.78082 -3.48692 0
M  V30 1299 C 119.935 2.03945 -5.44776 0
M  V30 1300 N 118.911 2.45323 -4.85095 0
M  V30 1301 H 122.713 0.911149 -2.7942 0
M  V30 1302 H 120.227 0.40684 -1.57221 0
M  V30 1303 H 122.224 3.3549 -2.47491 0
M  V30 1304 H 120.884 2.94244 -1.37298 0
M  V30 1305 H 121.895 1.75256 -4.87345 0
M  V30 1306 H 118.572 3.17002 -2.71691 0
M  V30 1307 H 119.962 1.72872 -6.4928 0
M  V30 1308 N 122.682 1.50554 0.465978 0
M  V30 1309 C 123.614 1.65949 1.58093 0
M  V30 1310 C 124.627 0.540827 1.53554 0
M  V30 1311 O 125.816 0.814187 1.5885 0
M  V30 1312 C 122.916 1.63261 2.96983 0
M  V30 1313 C 122.089 2.91245 3.26336 0
M  V30 1314 C 121.148 2.8113 4.44806 0
M  V30 1315 O 120.174 3.55086 4.44862 0
M  V30 1316 N 121.376 1.95032 5.46756 0
M  V30 1317 H 124.141 2.62122 1.45301 0
M  V30 1318 H 121.702 1.48082 0.65448 0
M  V30 1319 H 123.694 1.54101 3.74212 0
M  V30 1320 H 122.264 0.748032 3.03518 0
M  V30 1321 H 121.484 3.14493 2.37672 0
M  V30 1322 H 122.772 3.76022 3.42761 0
M  V30 1323 H 122.17 1.3427 5.49534 0
M  V30 1324 H 120.727 1.91772 6.2295 0
M  V30 1325 N 124.16 -0.719506 1.40217 0
M  V30 1326 C 125.407 -1.47933 1.38283 0
M  V30 1327 C 125.735 -1.94493 -0.0161536 0
M  V30 1328 O 124.99 -1.68224 -0.999956 0
M  V30 1329 C 125.289 -2.72271 2.31524 0
M  V30 1330 C 124.955 -2.44496 3.78857 0
M  V30 1331 C 123.617 -2.36631 4.18998 0
M  V30 1332 C 125.969 -2.21104 4.71977 0
M  V30 1333 C 123.297 -2.03437 5.503 0
M  V30 1334 C 125.649 -1.89423 6.03574 0
M  V30 1335 C 124.313 -1.80038 6.42762 0
M  V30 1336 H 123.583 -0.541325 0.506012 0
M  V30 1337 H 126.23 -0.824502 1.72842 0
M  V30 1338 H 124.535 -3.42572 1.90137 0
M  V30 1339 H 126.232 -3.30348 2.27313 0
M  V30 1340 H 122.822 -2.51503 3.47051 0
M  V30 1341 H 127.006 -2.26139 4.41786 0
M  V30 1342 H 122.262 -1.94705 5.79569 0
M  V30 1343 H 126.436 -1.70336 6.75247 0
M  V30 1344 H 124.063 -1.54083 7.44421 0
M  V30 1345 N 125.638 -1.25649 -0.95132 0
M  V30 1346 C 126.57 -1.02112 -2.05197 0
M  V30 1347 C 127.583 0.0150571 -1.62793 0
M  V30 1348 O 128.772 -0.223874 -1.77091 0
M  V30 1349 C 125.872 -0.522361 -3.3485 0
M  V30 1350 C 125.045 -1.62546 -4.06076 0
M  V30 1351 C 124.104 -1.12649 -5.14001 0
M  V30 1352 O 123.13 -1.82156 -5.39266 0
M  V30 1353 N 124.332 0.03047 -5.80492 0
M  V30 1354 H 127.097 -1.96885 -2.25957 0
M  V30 1355 H 124.658 -1.16899 -1.1201 0
M  V30 1356 H 126.65 -0.172961 -4.0433 0
M  V30 1357 H 125.22 0.33151 -3.10837 0
M  V30 1358 H 124.44 -2.14628 -3.30649 0
M  V30 1359 H 125.728 -2.36644 -4.50419 0
M  V30 1360 H 125.126 0.611169 -5.62389 0
M  V30 1361 H 123.683 0.320875 -6.5101 0
M  V30 1362 N 127.117 1.15442 -1.07289 0
M  V30 1363 C 128.064 2.20161 -0.692653 0
M  V30 1364 C 129.034 1.63073 0.31564 0
M  V30 1365 O 130.219 1.89725 0.202235 0
M  V30 1366 C 127.359 3.44967 -0.0959509 0
M  V30 1367 C 126.472 4.16256 -1.15564 0
M  V30 1368 C 125.607 5.28609 -0.524011 0
M  V30 1369 C 124.646 5.91715 -1.56653 0
M  V30 1370 N 123.783 6.9554 -0.957531 0
M  V30 1371 H 128.623 2.52037 -1.59002 0
M  V30 1372 H 126.16 1.2378 -0.794798 0
M  V30 1373 H 128.118 4.16341 0.267628 0
M  V30 1374 H 126.748 3.1361 0.764772 0
M  V30 1375 H 125.8 3.43385 -1.6368 0
M  V30 1376 H 127.112 4.59268 -1.94613 0
M  V30 1377 H 126.266 6.06604 -0.108032 0
M  V30 1378 H 125.005 4.86787 0.29825 0
M  V30 1379 H 124.01 5.12433 -1.9923 0
M  V30 1380 H 125.235 6.35614 -2.39107 0
M  V30 1381 H 123.181 6.55814 -0.156162 0
M  V30 1382 H 123.098 7.36977 -1.68526 0
M  V30 1383 H 124.366 7.77435 -0.567032 0
M  V30 1384 N 128.595 0.856903 1.32268 0
M  V30 1385 C 129.525 0.31858 2.31316 0
M  V30 1386 C 130.506 -0.583487 1.59779 0
M  V30 1387 O 131.691 -0.503259 1.87566 0
M  V30 1388 C 128.821 -0.491979 3.43798 0
M  V30 1389 C 127.775 0.315849 4.26833 0
M  V30 1390 C 127.101 -0.619586 5.31098 0
M  V30 1391 C 128.401 1.54282 4.98993 0
M  V30 1392 H 130.095 1.14621 2.76591 0
M  V30 1393 H 127.641 0.552613 1.32974 0
M  V30 1394 H 129.594 -0.879012 4.1213 0
M  V30 1395 H 128.318 -1.35299 2.97257 0
M  V30 1396 H 126.977 0.684664 3.6015 0
M  V30 1397 H 126.625 -1.47751 4.8081 0
M  V30 1398 H 126.325 -0.0830621 5.87541 0
M  V30 1399 H 127.849 -1.00375 6.02293 0
M  V30 1400 H 129.263 1.22796 5.59995 0
M  V30 1401 H 127.66 2.01745 5.65172 0
M  V30 1402 H 128.73 2.30285 4.26728 0
M  V30 1403 N 130.073 -1.45103 0.615059 0
M  V30 1404 C 131.003 -2.33339 -0.0865619 0
M  V30 1405 C 131.984 -1.4727 -0.851209 0
M  V30 1406 O 133.169 -1.76026 -0.820281 0
M  V30 1407 C 130.299 -3.30095 -1.07956 0
M  V30 1408 C 129.253 -4.25858 -0.427628 0
M  V30 1409 C 128.579 -5.12361 -1.5294 0
M  V30 1410 C 129.879 -5.18165 0.655944 0
M  V30 1411 H 131.573 -2.92254 0.650224 0
M  V30 1412 H 129.119 -1.40532 0.314138 0
M  V30 1413 H 131.072 -3.90698 -1.57901 0
M  V30 1414 H 129.796 -2.69355 -1.84703 0
M  V30 1415 H 128.455 -3.66564 0.0510292 0
M  V30 1416 H 128.103 -4.47984 -2.28734 0
M  V30 1417 H 127.803 -5.77238 -1.09865 0
M  V30 1418 H 129.327 -5.75833 -2.03098 0
M  V30 1419 H 130.741 -5.72796 0.240257 0
M  V30 1420 H 129.138 -5.91559 1.00888 0
M  V30 1421 H 130.208 -4.60144 1.52957 0
M  V30 1422 N 131.551 -0.354651 -1.53558 0
M  V30 1423 C 132.779 0.239515 -2.05509 0
M  V30 1424 C 133.194 1.4333 -1.2289 0
M  V30 1425 O 132.551 1.80538 -0.266899 0
M  V30 1426 C 132.602 0.643719 -3.55723 0
M  V30 1427 O 132.323 -0.502602 -4.35207 0
M  V30 1428 C 133.824 1.29743 -4.23889 0
M  V30 1429 H 131.044 0.0442697 -0.669538 0
M  V30 1430 H 133.588 -0.509856 -1.98042 0
M  V30 1431 H 131.743 1.34302 -3.63376 0
M  V30 1432 H 132.157 -0.178172 -5.24197 0
M  V30 1433 H 133.631 1.53091 -5.30346 0
M  V30 1434 H 134.108 2.25441 -3.76926 0
M  V30 1435 H 134.714 0.639865 -4.20459 0
M  V30 1436 N 133.029 1.57378 -0.0835403 0
M  V30 1437 C 133.939 2.16897 0.894021 0
M  V30 1438 C 134.955 1.13528 1.31861 0
M  V30 1439 O 136.131 1.45848 1.3889 0
M  V30 1440 C 133.196 2.72831 2.13925 0
M  V30 1441 C 132.257 3.91115 1.76997 0
M  V30 1442 C 131.49 4.44371 2.95584 0
M  V30 1443 O 131.713 3.96596 4.09961 0
M  V30 1444 O 130.647 5.35549 2.74719 0
M  V30 1445 H 134.473 3.00814 0.417679 0
M  V30 1446 H 132.058 1.48741 0.140181 0
M  V30 1447 H 133.94 3.0863 2.86924 0
M  V30 1448 H 132.615 1.91967 2.60635 0
M  V30 1449 H 131.522 3.60148 1.01214 0
M  V30 1450 H 132.855 4.73307 1.3506 0
M  V30 1451 N 134.507 -0.190092 1.56449 0
M  V30 1452 C 135.754 -0.909705 1.80916 0
M  V30 1453 C 136.082 -1.83047 0.657583 0
M  V30 1454 O 135.337 -1.92428 -0.356356 0
M  V30 1455 C 135.636 -1.75382 3.1141 0
M  V30 1456 C 135.302 -0.983606 4.40041 0
M  V30 1457 C 133.964 -0.770967 4.74984 0
M  V30 1458 C 136.316 -0.442024 5.19322 0
M  V30 1459 C 133.644 -0.0053448 5.867 0
M  V30 1460 C 135.996 0.310412 6.31838 0
M  V30 1461 C 134.66 0.534023 6.6536 0
M  V30 1462 H 133.93 -0.332885 0.662019 0
M  V30 1463 H 136.577 -0.175762 1.90692 0
M  V30 1464 H 134.882 -2.55659 2.96893 0
M  V30 1465 H 136.579 -2.31331 3.27547 0
M  V30 1466 H 133.169 -1.15936 4.12622 0
M  V30 1467 H 137.353 -0.593693 4.92736 0
M  V30 1468 H 132.609 0.177825 6.11141 0
M  V30 1469 H 136.783 0.737419 6.92485 0
M  V30 1470 H 134.41 1.12918 7.51767 0
M  V30 1471 N 135.985 -1.50799 -0.457987 0
M  V30 1472 C 136.933 -1.71162 -1.575 0
M  V30 1473 C 137.927 -0.577592 -1.59249 0
M  V30 1474 O 139.133 -0.758443 -1.63241 0
M  V30 1475 H 135.508 -0.540468 -0.522875 0
M  V30 1476 H 137.479 -2.64837 -1.37492 0
M  V30 1477 C 136.228 -1.83496 -2.95338 0
M  V30 1478 H 135.551 -2.70153 -2.94716 0
M  V30 1479 H 136.991 -2.01765 -3.72917 0
M  V30 1480 C 135.45 -0.589694 -3.31699 0
M  V30 1481 O 135.98 0.265163 -4.00824 0
M  V30 1482 N 134.186 -0.439845 -2.87252 0
M  V30 1483 H 133.733 -1.13655 -2.31172 0
M  V30 1484 H 133.691 0.392159 -3.11945 0
M  V30 1485 N 137.463 0.71206 -1.40597 0
M  V30 1486 C 138.41 1.82613 -1.41142 0
M  V30 1487 C 139.38 1.63925 -0.267903 0
M  V30 1488 O 140.565 1.85009 -0.466495 0
M  V30 1489 C 137.705 3.20354 -1.28324 0
M  V30 1490 C 136.818 3.50589 -2.52411 0
M  V30 1491 C 135.953 4.77855 -2.32009 0
M  V30 1492 C 134.992 5.01005 -3.51654 0
M  V30 1493 N 134.129 6.19487 -3.30425 0
M  V30 1494 H 138.969 1.81482 -2.36365 0
M  V30 1495 H 136.506 0.886475 -1.17388 0
M  V30 1496 H 138.464 3.99899 -1.18899 0
M  V30 1497 H 137.094 3.20705 -0.367189 0
M  V30 1498 H 136.146 2.65573 -2.72351 0
M  V30 1499 H 137.458 3.63604 -3.41458 0
M  V30 1500 H 136.612 5.65424 -2.19956 0
M  V30 1501 H 135.351 4.67056 -1.40392 0
M  V30 1502 H 134.356 4.1189 -3.64179 0
M  V30 1503 H 135.581 5.13674 -4.44202 0
M  V30 1504 H 133.527 6.09932 -2.41494 0
M  V30 1505 H 133.444 6.33194 -4.13039 0
M  V30 1506 H 134.712 7.09834 -3.22113 0
M  V30 1507 N 138.941 1.26152 0.944643 0
M  V30 1508 C 140.166 1.14363 1.7302 0
M  V30 1509 C 140.591 -0.29772 1.85729 0
M  V30 1510 O 139.949 -1.2157 1.34501 0
M  V30 1511 C 139.997 1.81378 3.11664 0
M  V30 1512 O 139.101 1.10022 3.97453 0
M  V30 1513 H 138.442 0.398694 0.53098 0
M  V30 1514 H 140.972 1.66906 1.18337 0
M  V30 1515 H 140.982 1.88064 3.62072 0
M  V30 1516 H 139.657 2.86237 3.0173 0
M  V30 1517 H 138.234 1.11287 3.55907 0
M  V30 1518 N 140.419 -1.14872 1.07899 0
M  V30 1519 C 141.647 -1.89661 0.82683 0
M  V30 1520 C 142.062 -1.78312 -0.620519 0
M  V30 1521 O 141.419 -1.13888 -1.42604 0
M  V30 1522 C 141.47 -3.39817 1.23316 0
M  V30 1523 O 141.191 -3.50845 2.62372 0
M  V30 1524 C 142.692 -4.31615 1.0111 0
M  V30 1525 H 139.912 -0.60092 0.298557 0
M  V30 1526 H 142.456 -1.4551 1.43691 0
M  V30 1527 H 140.611 -3.8161 0.667286 0
M  V30 1528 H 141.025 -4.44076 2.79101 0
M  V30 1529 H 142.499 -5.35367 1.34486 0
M  V30 1530 H 142.976 -4.39169 -0.0522168 0
M  V30 1531 H 143.582 -3.95572 1.56215 0
M  V30 1532 N 141.898 -0.863906 -1.31812 0
M  V30 1533 C 143.175 -0.39275 -1.91616 0
M  V30 1534 C 143.555 1.12461 -1.7865 0
M  V30 1535 O 142.903 1.95045 -1.19037 0
M  V30 1536 C 143.113 -0.867385 -3.38049 0
M  V30 1537 C 144.461 -0.889966 -4.15168 0
M  V30 1538 O 145.485 -0.812635 -3.46806 0
M  V30 1539 O 144.344 -1.00079 -5.37258 0
M  V30 1540 H 141.438 -0.116358 -0.818773 0
M  V30 1541 H 143.984 -0.951418 -1.40521 0
M  V30 1542 H 142.756 -1.91081 -3.41473 0
M  V30 1543 H 142.379 -0.286687 -3.96565 0
M  V30 1544 N 143.376 1.44774 -0.622745 0
M  V30 1545 C 144.339 2.29069 0.0774015 0
M  V30 1546 C 145.339 1.4059 0.780461 0
M  V30 1547 O 146.529 1.62551 0.626322 0
M  V30 1548 C 143.661 3.21974 1.12006 0
M  V30 1549 H 144.854 2.92459 -0.663901 0
M  V30 1550 H 142.407 1.51548 -0.382486 0
M  V30 1551 H 143.142 2.63417 1.89162 0
M  V30 1552 H 142.927 3.87168 0.619951 0
M  V30 1553 H 144.417 3.85318 1.60995 0
M  V30 1554 N 144.854 0.36279 1.53368 0
M  V30 1555 C 146.084 -0.228281 2.05335 0
M  V30 1556 C 146.492 -1.43226 1.23625 0
M  V30 1557 O 145.835 -1.81717 0.269206 0
M  V30 1558 C 145.897 -0.688549 3.52845 0
M  V30 1559 C 145.561 0.398362 4.5526 0
M  V30 1560 C 146.558 1.24732 5.04716 0
M  V30 1561 C 144.243 0.557805 4.99193 0
M  V30 1562 C 146.237 2.2411 5.96702 0
M  V30 1563 C 143.924 1.55495 5.90986 0
M  V30 1564 C 144.922 2.39503 6.39631 0
M  V30 1565 O 144.61 3.37517 7.29615 0
M  V30 1566 H 144.342 -0.044395 0.674541 0
M  V30 1567 H 146.896 0.518668 1.98744 0
M  V30 1568 H 145.126 -1.48706 3.56964 0
M  V30 1569 H 146.815 -1.20231 3.87685 0
M  V30 1570 H 147.581 1.13532 4.71525 0
M  V30 1571 H 143.46 -0.0862959 4.60919 0
M  V30 1572 H 147.004 2.89718 6.34594 0
M  V30 1573 H 142.901 1.66744 6.23592 0
M  V30 1574 H 143.669 3.33213 7.47604 0
M  V30 1575 N 146.332 -1.57332 0.0918853 0
M  V30 1576 C 147.242 -2.17368 -0.882505 0
M  V30 1577 C 148.258 -1.14226 -1.31257 0
M  V30 1578 O 149.434 -1.46582 -1.38115 0
M  V30 1579 C 146.499 -2.73962 -2.12476 0
M  V30 1580 C 145.56 -3.92048 -1.7492 0
M  V30 1581 C 144.793 -4.45933 -2.93223 0
M  V30 1582 O 145.016 -3.98764 -4.07852 0
M  V30 1583 O 143.95 -5.36999 -2.71875 0
M  V30 1584 H 147.776 -3.01031 -0.40172 0
M  V30 1585 H 145.361 -1.48813 -0.132291 0
M  V30 1586 H 147.243 -3.10147 -2.85283 0
M  V30 1587 H 145.918 -1.93347 -2.59613 0
M  V30 1588 H 144.825 -3.6068 -0.993025 0
M  V30 1589 H 146.158 -4.74017 -1.32548 0
M  V30 1590 N 147.81 0.181792 -1.56548 0
M  V30 1591 C 148.74 1.22765 -1.98623 0
M  V30 1592 C 149.721 1.46747 -0.860189 0
M  V30 1593 O 150.906 1.58259 -1.12551 0
M  V30 1594 C 148.036 2.56894 -2.33715 0
M  V30 1595 C 146.99 2.475 -3.49182 0
M  V30 1596 C 146.316 3.86023 -3.69986 0
M  V30 1597 C 147.616 1.98866 -4.82959 0
M  V30 1598 H 149.31 0.877942 -2.86239 0
M  V30 1599 H 146.856 0.42088 -1.37712 0
M  V30 1600 H 148.809 3.30253 -2.61746 0
M  V30 1601 H 147.533 2.93632 -1.42997 0
M  V30 1602 H 146.192 1.76596 -3.21262 0
M  V30 1603 H 145.84 4.20136 -2.76576 0
M  V30 1604 H 145.54 3.80609 -4.47672 0
M  V30 1605 H 147.064 4.60984 -4.00407 0
M  V30 1606 H 148.478 2.61992 -5.09934 0
M  V30 1607 H 146.875 2.04424 -5.64208 0
M  V30 1608 H 147.945 0.942465 -4.75653 0
M  V30 1609 N 149.288 1.51039 0.449983 0
M  V30 1610 C 150.235 1.71439 1.54523 0
M  V30 1611 C 151.205 0.555871 1.56522 0
M  V30 1612 O 152.39 0.788871 1.73728 0
M  V30 1613 C 149.53 1.83384 2.92343 0
M  V30 1614 C 148.643 3.10873 2.9997 0
M  V30 1615 C 147.778 3.13488 4.28834 0
M  V30 1616 C 146.817 4.35343 4.30282 0
M  V30 1617 N 145.954 4.35579 5.5065 0
M  V30 1618 H 150.794 2.64934 1.36433 0
M  V30 1619 H 148.331 1.31312 0.662982 0
M  V30 1620 H 150.289 1.88291 3.72293 0
M  V30 1621 H 148.919 0.933086 3.0902 0
M  V30 1622 H 147.971 3.15336 2.12761 0
M  V30 1623 H 149.283 4.00814 2.96901 0
M  V30 1624 H 148.437 3.17241 5.17149 0
M  V30 1625 H 147.176 2.21414 4.34543 0
M  V30 1626 H 146.181 4.3178 3.40362 0
M  V30 1627 H 147.406 5.28668 4.26248 0
M  V30 1628 H 145.352 3.46369 5.57104 0
M  V30 1629 H 145.269 5.19313 5.49409 0
M  V30 1630 H 146.537 4.43507 6.41032 0
M  V30 1631 N 150.766 -0.704594 1.40972 0
M  V30 1632 C 152.015 -1.46018 1.39146 0
M  V30 1633 C 152.328 -1.956 0.000589254 0
M  V30 1634 O 153.534 -2.71137 -0.1403 0
M  V30 1635 C 151.99 -2.63996 2.4461 0
M  V30 1636 C 151.598 -2.21238 3.89561 0
M  V30 1637 C 153.342 -3.41677 2.51907 0
M  V30 1638 C 151.249 -3.3612 4.86598 0
M  V30 1639 H 150.179 -0.548444 0.517422 0
M  V30 1640 H 152.83 -0.765784 1.66757 0
M  V30 1641 H 151.212 -3.3566 2.10115 0
M  V30 1642 H 152.386 -1.56923 4.33257 0
M  V30 1643 H 150.701 -1.56574 3.85841 0
M  V30 1644 H 153.298 -4.27182 3.2159 0
M  V30 1645 H 153.641 -3.86247 1.55303 0
M  V30 1646 H 154.174 -2.77064 2.85448 0
M  V30 1647 H 150.913 -2.96572 5.84573 0
M  V30 1648 H 150.433 -3.99315 4.47557 0
M  V30 1649 H 152.112 -4.02029 5.06934 0
M  V30 1650 N 152.244 -1.26651 -0.937939 0
M  V30 1651 C 153.207 -1.08546 -2.01867 0
M  V30 1652 C 154.207 -0.0327327 -1.60767 0
M  V30 1653 O 155.397 -0.276427 -1.71993 0
M  V30 1654 C 152.529 -0.651711 -3.34613 0
M  V30 1655 H 153.722 -2.04502 -2.1936 0
M  V30 1656 H 151.275 -1.09294 -1.11734 0
M  V30 1657 H 152.01 0.309696 -3.22818 0
M  V30 1658 H 151.795 -1.41189 -3.65798 0
M  V30 1659 H 153.285 -0.546973 -4.14002 0
M  V30 1660 N 153.722 1.14298 -1.08507 0
M  V30 1661 C 154.67 2.21483 -0.710483 0
M  V30 1662 C 155.664 1.66998 0.284234 0
M  V30 1663 O 156.87 1.79401 0.146692 0
M  V30 1664 H 153.245 0.721578 -0.211729 0
M  V30 1665 H 155.216 2.50348 -1.62384 0
M  V30 1666 C 153.965 3.4743 -0.137007 0
M  V30 1667 H 153.288 3.89686 -0.893592 0
M  V30 1668 H 154.728 4.2391 0.0872789 0
M  V30 1669 C 153.187 3.17548 1.12538 0
M  V30 1670 O 153.717 3.35437 2.21009 0
M  V30 1671 N 151.923 2.71499 1.03617 0
M  V30 1672 H 151.47 2.57143 0.153403 0
M  V30 1673 H 151.428 2.51881 1.88158 0
M  V30 1674 N 155.201 0.870884 1.31352 0
M  V30 1675 C 156.148 0.325425 2.28494 0
M  V30 1676 C 157.118 -0.576615 1.5577 0
M  V30 1677 O 158.303 -0.508059 1.83911 0
M  V30 1678 C 155.443 -0.466283 3.41935 0
M  V30 1679 C 154.556 0.463378 4.29508 0
M  V30 1680 C 153.691 -0.342544 5.30094 0
M  V30 1681 C 152.73 0.583486 6.09313 0
M  V30 1682 N 151.867 -0.186244 7.01853 0
M  V30 1683 H 156.707 1.15901 2.74538 0
M  V30 1684 H 154.244 0.58294 1.35056 0
M  V30 1685 H 156.202 -0.941085 4.06447 0
M  V30 1686 H 154.832 -1.26456 2.97 0
M  V30 1687 H 153.884 1.05663 3.65431 0
M  V30 1688 H 155.196 1.1734 4.84802 0
M  V30 1689 H 154.35 -0.879816 6.00287 0
M  V30 1690 H 153.089 -1.08585 4.75458 0
M  V30 1691 H 152.094 1.13251 5.3801 0
M  V30 1692 H 153.319 1.32566 6.66035 0
M  V30 1693 H 151.265 -0.912348 6.49625 0
M  V30 1694 H 151.182 0.464422 7.54572 0
M  V30 1695 H 152.45 -0.704716 7.76308 0
M  V30 1696 N 156.679 -1.44442 0.630414 0
M  V30 1697 C 157.609 -2.33418 -0.0618083 0
M  V30 1698 C 158.59 -1.48165 -0.835541 0
M  V30 1699 O 159.775 -1.76886 -0.801564 0
M  V30 1700 C 156.905 -3.31222 -1.04449 0
M  V30 1701 C 155.859 -4.26288 -0.382436 0
M  V30 1702 C 155.185 -5.13954 -1.47497 0
M  V30 1703 C 156.485 -5.1744 0.710865 0
M  V30 1704 H 158.179 -2.91548 0.681184 0
M  V30 1705 H 155.725 -1.40191 0.329026 0
M  V30 1706 H 157.678 -3.92351 -1.53748 0
M  V30 1707 H 156.402 -2.71299 -1.81836 0
M  V30 1708 H 155.061 -3.6649 0.0899054 0
M  V30 1709 H 154.709 -4.50385 -2.2397 0
M  V30 1710 H 154.409 -5.7837 -1.03737 0
M  V30 1711 H 155.933 -5.77955 -1.96979 0
M  V30 1712 H 157.347 -5.72509 0.300996 0
M  V30 1713 H 155.744 -5.90455 1.07156 0
M  V30 1714 H 156.814 -4.58496 1.57829 0
M  V30 1715 N 158.157 -0.370918 -1.53173 0
M  V30 1716 C 159.404 0.217102 -2.01333 0
M  V30 1717 C 159.732 1.48338 -1.25802 0
M  V30 1718 O 158.987 1.92698 -0.34146 0
M  V30 1719 C 159.286 0.549696 -3.53147 0
M  V30 1720 C 158.952 -0.622872 -4.46577 0
M  V30 1721 C 157.614 -0.944595 -4.71838 0
M  V30 1722 C 159.966 -1.40819 -5.01816 0
M  V30 1723 C 157.294 -2.05351 -5.49589 0
M  V30 1724 C 159.646 -2.50757 -5.80778 0
M  V30 1725 C 158.31 -2.83458 -6.04324 0
M  V30 1726 H 157.58 0.0794431 -0.736729 0
M  V30 1727 H 160.227 -0.504481 -1.84736 0
M  V30 1728 H 158.532 1.35237 -3.6772 0
M  V30 1729 H 160.229 1.017 -3.87889 0
M  V30 1730 H 156.819 -0.36209 -4.27068 0
M  V30 1731 H 161.003 -1.17289 -4.82242 0
M  V30 1732 H 156.259 -2.3108 -5.6605 0
M  V30 1733 H 160.433 -3.12022 -6.22588 0
M  V30 1734 H 158.06 -3.69508 -6.64355 0
M  V30 1735 N 159.635 1.57281 -0.100228 0
M  V30 1736 C 160.883 1.94153 0.561157 0
M  V30 1737 C 161.204 0.983157 1.68401 0
M  V30 1738 O 160.474 0.0361132 1.95867 0
M  V30 1739 H 159.054 0.716791 0.210283 0
M  V30 1740 H 161.716 1.94202 -0.164765 0
M  V30 1741 H 160.812 2.96709 0.968008 0
M  V30 1742 N 161.113 -0.173488 1.56642 0
M  V30 1743 C 162.023 -1.23482 1.99473 0
M  V30 1744 C 163.039 -1.48567 0.905752 0
M  V30 1745 O 164.215 -1.60758 1.21321 0
M  V30 1746 C 161.28 -2.55444 2.34413 0
M  V30 1747 C 160.341 -2.38241 3.57127 0
M  V30 1748 C 159.574 -3.63909 3.90392 0
M  V30 1749 O 159.797 -4.68996 3.24653 0
M  V30 1750 O 158.731 -3.58149 4.83749 0
M  V30 1751 H 162.557 -0.901279 2.90018 0
M  V30 1752 H 160.142 -0.380185 1.44482 0
M  V30 1753 H 162.024 -3.33292 2.57865 0
M  V30 1754 H 160.699 -2.88382 1.4703 0
M  V30 1755 H 159.606 -1.58431 3.38896 0
M  V30 1756 H 160.939 -2.10228 4.45045 0
M  V30 1757 N 162.591 -1.51276 -0.441967 0
M  V30 1758 C 163.538 -1.72256 -1.53612 0
M  V30 1759 C 164.508 -0.564164 -1.56225 0
M  V30 1760 O 165.693 -0.798074 -1.73307 0
M  V30 1761 C 162.833 -1.84932 -2.91366 0
M  V30 1762 C 161.946 -3.12459 -2.98317 0
M  V30 1763 C 161.081 -3.15758 -4.27166 0
M  V30 1764 C 160.12 -4.37619 -4.27967 0
M  V30 1765 N 159.257 -4.38493 -5.48333 0
M  V30 1766 H 164.097 -2.65654 -1.35026 0
M  V30 1767 H 161.634 -1.31662 -0.656009 0
M  V30 1768 H 163.592 -1.90263 -3.7129 0
M  V30 1769 H 162.222 -0.949461 -3.08521 0
M  V30 1770 H 161.274 -3.1646 -2.11086 0
M  V30 1771 H 162.586 -4.02382 -2.94771 0
M  V30 1772 H 161.74 -3.19979 -5.15459 0
M  V30 1773 H 160.479 -2.23715 -4.33362 0
M  V30 1774 H 159.484 -4.33579 -3.38067 0
M  V30 1775 H 160.709 -5.30921 -4.23438 0
M  V30 1776 H 158.655 -3.49318 -5.55259 0
M  V30 1777 H 158.572 -5.22219 -5.46647 0
M  V30 1778 H 159.84 -4.469 -6.38671 0
M  V30 1779 N 164.069 0.697108 -1.41344 0
M  V30 1780 C 165.297 1.48593 -1.43972 0
M  V30 1781 C 165.712 1.88747 -0.0445612 0
M  V30 1782 O 165.069 1.56682 0.935785 0
M  V30 1783 C 165.12 2.74946 -2.34706 0
M  V30 1784 O 164.841 2.36484 -3.68791 0
M  V30 1785 C 166.342 3.687 -2.46121 0
M  V30 1786 H 163.562 0.457964 -0.490418 0
M  V30 1787 H 166.106 0.858429 -1.8561 0
M  V30 1788 H 164.261 3.33937 -1.9638 0
M  V30 1789 H 164.675 3.17918 -4.17167 0
M  V30 1790 H 166.149 4.54145 -3.13777 0
M  V30 1791 H 166.626 4.13081 -1.49199 0
M  V30 1792 H 167.232 3.15613 -2.85076 0
M  V30 1793 N 165.547 1.27147 0.931209 0
M  V30 1794 C 166.777 1.15914 1.71019 0
M  V30 1795 C 167.185 -0.287112 1.87009 0
M  V30 1796 O 166.528 -1.20761 1.38429 0
M  V30 1797 C 166.59 1.76647 3.13107 0
M  V30 1798 C 166.254 3.25807 3.20467 0
M  V30 1799 C 167.251 4.22489 3.02983 0
M  V30 1800 C 164.936 3.66452 3.43538 0
M  V30 1801 C 166.93 5.57794 3.08454 0
M  V30 1802 C 164.617 5.01888 3.48643 0
M  V30 1803 C 165.615 5.97369 3.31119 0
M  V30 1804 O 165.303 7.30337 3.35952 0
M  V30 1805 H 165.035 0.404062 0.54195 0
M  V30 1806 H 167.589 1.68457 1.17521 0
M  V30 1807 H 165.819 1.18578 3.68071 0
M  V30 1808 H 167.508 1.60179 3.72958 0
M  V30 1809 H 168.274 3.92425 2.85004 0
M  V30 1810 H 164.153 2.92611 3.5623 0
M  V30 1811 H 167.697 6.32298 2.94694 0
M  V30 1812 H 163.594 5.31609 3.66145 0
M  V30 1813 H 164.362 7.38739 3.5243 0
M  V30 1814 N 167.025 -1.13721 1.09112 0
M  V30 1815 C 167.955 -2.21148 0.749385 0
M  V30 1816 C 168.936 -1.6792 -0.271475 0
M  V30 1817 O 170.121 -1.93693 -0.140251 0
M  V30 1818 C 167.251 -3.46905 0.165659 0
M  V30 1819 C 166.205 -4.13203 1.11567 0
M  V30 1820 C 165.531 -5.33248 0.393809 0
M  V30 1821 C 166.831 -4.60912 2.45678 0
M  V30 1822 H 168.525 -2.4999 1.64758 0
M  V30 1823 H 166.071 -1.20156 0.793626 0
M  V30 1824 H 168.024 -4.21313 -0.085466 0
M  V30 1825 H 166.748 -3.17449 -0.767714 0
M  V30 1826 H 165.407 -3.40758 1.35202 0
M  V30 1827 H 165.055 -5.00054 -0.543599 0
M  V30 1828 H 164.755 -5.78552 1.02721 0
M  V30 1829 H 166.279 -6.10413 0.150908 0
M  V30 1830 H 167.693 -5.26759 2.26269 0
M  V30 1831 H 166.09 -5.16944 3.04776 0
M  V30 1832 H 167.16 -3.75603 3.06677 0
M  V30 1833 N 168.503 -0.877838 -1.30888 0
M  V30 1834 C 169.75 -0.492696 -1.96415 0
M  V30 1835 C 170.078 0.956671 -1.69346 0
M  V30 1836 O 169.333 1.68993 -0.986913 0
M  V30 1837 C 169.632 -0.705748 -3.50363 0
M  V30 1838 C 169.298 -2.1291 -3.97467 0
M  V30 1839 C 167.96 -2.51834 -4.1004 0
M  V30 1840 C 170.312 -3.05702 -4.22132 0
M  V30 1841 C 167.64 -3.82775 -4.44635 0
M  V30 1842 C 169.992 -4.36166 -4.58194 0
M  V30 1843 C 168.656 -4.74993 -4.68975 0
M  V30 1844 H 167.926 -0.18029 -0.718733 0
M  V30 1845 H 170.573 -1.11233 -1.55883 0
M  V30 1846 H 168.878 -0.00303058 -3.918 0
M  V30 1847 H 170.575 -0.387456 -3.99124 0
M  V30 1848 H 167.165 -1.81694 -3.88182 0
M  V30 1849 H 171.349 -2.76853 -4.11906 0
M  V30 1850 H 166.605 -4.12609 -4.51181 0
M  V30 1851 H 170.779 -5.08111 -4.76231 0
M  V30 1852 H 168.406 -5.76495 -4.95537 0
M  V30 1853 N 169.982 1.44106 -0.638065 0
M  V30 1854 C 170.912 2.33448 0.0494287 0
M  V30 1855 C 171.893 1.48606 0.827672 0
M  V30 1856 O 173.078 1.77308 0.792173 0
M  V30 1857 C 170.208 3.31771 1.02691 0
M  V30 1858 C 169.162 4.26485 0.359823 0
M  V30 1859 C 168.488 5.14729 1.44769 0
M  V30 1860 C 169.788 5.17056 -0.738296 0
M  V30 1861 H 171.482 2.91183 -0.696636 0
M  V30 1862 H 169.028 1.40014 -0.336456 0
M  V30 1863 H 170.981 3.93161 1.51666 0
M  V30 1864 H 169.705 2.7226 1.80395 0
M  V30 1865 H 168.364 3.66437 -0.10934 0
M  V30 1866 H 168.012 4.51566 2.21578 0
M  V30 1867 H 167.712 5.78913 1.00668 0
M  V30 1868 H 169.236 5.78991 1.93911 0
M  V30 1869 H 170.65 5.72342 -0.331354 0
M  V30 1870 H 169.047 5.89879 -1.10286 0
M  V30 1871 H 170.117 4.57652 -1.60258 0
M  V30 1872 N 171.46 0.379036 1.52974 0
M  V30 1873 C 172.392 -0.495963 2.2377 0
M  V30 1874 C 173.405 -1.03517 1.25651 0
M  V30 1875 O 174.594 -0.939249 1.51791 0
M  V30 1876 C 171.694 -1.69894 2.93239 0
M  V30 1877 C 170.867 -1.2889 4.17979 0
M  V30 1878 C 169.926 -2.35543 4.70538 0
M  V30 1879 O 168.952 -1.97375 5.33883 0
M  V30 1880 N 170.154 -3.67318 4.49508 0
M  V30 1881 H 172.919 0.110523 2.99496 0
M  V30 1882 H 170.48 0.204878 1.60598 0
M  V30 1883 H 172.472 -2.40747 3.25304 0
M  V30 1884 H 171.042 -2.212 2.20883 0
M  V30 1885 H 170.262 -0.409676 3.92065 0
M  V30 1886 H 171.55 -0.991443 4.99047 0
M  V30 1887 H 170.948 -4.01095 3.98923 0
M  V30 1888 H 169.505 -4.34235 4.8609 0
M  V30 1889 N 172.938 -1.57226 0.108567 0
M  V30 1890 C 173.848 -2.18292 -0.859401 0
M  V30 1891 C 174.864 -1.15612 -1.30038 0
M  V30 1892 O 176.04 -1.48039 -1.36552 0
M  V30 1893 C 173.105 -2.762 -2.09558 0
M  V30 1894 C 172.166 -3.93881 -1.70752 0
M  V30 1895 C 171.399 -4.49018 -2.88477 0
M  V30 1896 O 171.622 -4.03068 -4.036 0
M  V30 1897 O 170.556 -5.39852 -2.66164 0
M  V30 1898 H 174.382 -3.01441 -0.369769 0
M  V30 1899 H 171.967 -1.48945 -0.1165 0
M  V30 1900 H 173.849 -3.13156 -2.81978 0
M  V30 1901 H 172.524 -1.96089 -2.57548 0
M  V30 1902 H 171.431 -3.61713 -0.954714 0
M  V30 1903 H 172.764 -4.75396 -1.27513 0
M  V30 1904 N 174.416 0.165178 -1.56732 0
M  V30 1905 C 175.646 0.894919 -1.86212 0
M  V30 1906 C 176.054 1.76066 -0.692627 0
M  V30 1907 O 175.397 1.80387 0.347303 0
M  V30 1908 C 175.459 1.8174 -3.10179 0
M  V30 1909 C 175.123 1.13064 -4.42793 0
M  V30 1910 C 176.12 0.493169 -5.17556 0
M  V30 1911 C 173.805 1.12556 -4.89527 0
M  V30 1912 C 175.799 -0.140209 -6.37246 0
M  V30 1913 C 173.486 0.488366 -6.09145 0
M  V30 1914 C 174.484 -0.143411 -6.82849 0
M  V30 1915 O 174.172 -0.77055 -8.00199 0
M  V30 1916 H 173.904 0.265114 -0.621844 0
M  V30 1917 H 176.458 0.168242 -2.0471 0
M  V30 1918 H 174.688 2.58455 -2.87642 0
M  V30 1919 H 176.377 2.4175 -3.26055 0
M  V30 1920 H 177.143 0.489023 -4.82528 0
M  V30 1921 H 173.022 1.60672 -4.32094 0
M  V30 1922 H 176.566 -0.633932 -6.94714 0
M  V30 1923 H 172.463 0.490116 -6.43637 0
M  V30 1924 H 173.231 -0.670408 -8.1575 0
M  V30 1925 N 175.894 1.51508 0.433938 0
M  V30 1926 C 176.824 1.76016 1.53429 0
M  V30 1927 C 177.805 0.610112 1.58782 0
M  V30 1928 O 178.99 0.853177 1.74455 0
M  V30 1929 C 176.12 1.88831 2.9148 0
M  V30 1930 C 175.074 3.04288 3.00987 0
M  V30 1931 C 174.4 3.0229 4.4105 0
M  V30 1932 C 175.7 4.44193 2.74754 0
M  V30 1933 H 177.394 2.68152 1.33171 0
M  V30 1934 H 174.94 1.29035 0.639214 0
M  V30 1935 H 176.893 2.04559 3.6842 0
M  V30 1936 H 175.617 0.933455 3.12976 0
M  V30 1937 H 174.276 2.8827 2.26486 0
M  V30 1938 H 173.924 2.04576 4.59519 0
M  V30 1939 H 173.624 3.79822 4.4834 0
M  V30 1940 H 175.148 3.20116 5.1996 0
M  V30 1941 H 176.562 4.60544 3.41426 0
M  V30 1942 H 174.959 5.23457 2.9345 0
M  V30 1943 H 176.029 4.53996 1.70339 0
M  V30 1944 N 177.372 -0.689602 1.41712 0
M  V30 1945 C 178.649 -1.44457 1.31877 0
M  V30 1946 C 179.029 -2.11039 -0.0508537 0
M  V30 1947 O 178.377 -2.02138 -1.06547 0
M  V30 1948 C 178.587 -2.45913 2.47645 0
M  V30 1949 C 179.935 -3.10991 2.89084 0
M  V30 1950 O 180.959 -2.56238 2.47428 0
M  V30 1951 O 179.818 -4.10174 3.61137 0
M  V30 1952 H 176.912 -0.64362 0.519309 0
M  V30 1953 H 179.458 -0.719576 1.53689 0
M  V30 1954 H 178.23 -1.95409 3.39015 0
M  V30 1955 H 177.853 -3.25913 2.27742 0
M  V30 1956 N 178.85 -1.27639 -0.924453 0
M  V30 1957 C 179.813 -1.10681 -2.00705 0
M  V30 1958 C 180.813 -0.0497823 -1.60723 0
M  V30 1959 O 182.003 -0.294654 -1.7169 0
M  V30 1960 C 179.135 -0.687164 -3.33902 0
M  V30 1961 H 180.328 -2.06817 -2.17179 0
M  V30 1962 H 177.881 -1.10473 -1.10569 0
M  V30 1963 H 178.616 0.275439 -3.23128 0
M  V30 1964 H 178.401 -1.45061 -3.6428 0
M  V30 1965 H 179.891 -0.590853 -4.13399 0
M  V30 1966 N 180.328 1.1314 -1.09713 0
M  V30 1967 C 181.577 1.83838 -0.829851 0
M  V30 1968 C 181.89 1.84599 0.646728 0
M  V30 1969 O 183.096 2.51218 1.02965 0
M  V30 1970 C 181.552 3.30069 -1.43466 0
M  V30 1971 C 181.16 3.37688 -2.94399 0
M  V30 1972 C 182.904 4.05788 -1.24645 0
M  V30 1973 C 180.811 4.78209 -3.47952 0
M  V30 1974 H 179.741 0.68877 -0.306777 0
M  V30 1975 H 182.392 1.27448 -1.3202 0
M  V30 1976 H 180.774 3.8628 -0.871996 0
M  V30 1977 H 181.948 2.91456 -3.56918 0
M  V30 1978 H 180.263 2.75436 -3.12289 0
M  V30 1979 H 182.86 5.09535 -1.62107 0
M  V30 1980 H 183.203 4.15878 -0.187357 0
M  V30 1981 H 183.736 3.55915 -1.77678 0
M  V30 1982 H 180.475 4.73311 -4.53495 0
M  V30 1983 H 179.995 5.24924 -2.90198 0
M  V30 1984 H 181.674 5.47133 -3.45332 0
M  V30 1985 N 181.806 0.884767 1.30421 0
M  V30 1986 C 182.753 0.349642 2.28136 0
M  V30 1987 C 183.723 -0.560061 1.56373 0
M  V30 1988 O 184.908 -0.488524 1.8444 0
M  V30 1989 C 182.048 -0.42999 3.42411 0
M  V30 1990 C 181.161 0.508907 4.28992 0
M  V30 1991 C 180.296 -0.286301 5.30428 0
M  V30 1992 C 179.335 0.648079 6.08659 0
M  V30 1993 N 178.472 -0.111792 7.02011 0
M  V30 1994 H 183.312 1.18807 2.73293 0
M  V30 1995 H 180.849 0.597231 1.3443 0
M  V30 1996 H 182.807 -0.897923 4.07423 0
M  V30 1997 H 181.437 -1.23299 2.98324 0
M  V30 1998 H 180.489 1.09533 3.64289 0
M  V30 1999 H 181.801 1.22475 4.8353 0
M  V30 2000 H 180.955 -0.816098 6.01186 0
M  V30 2001 H 179.694 -1.03536 4.76583 0
M  V30 2002 H 178.699 1.18951 5.36778 0
M  V30 2003 H 179.924 1.39623 6.64592 0
M  V30 2004 H 177.87 -0.843395 6.50556 0
M  V30 2005 H 177.787 0.544429 7.54037 0
M  V30 2006 H 179.055 -0.622339 7.77012 0
M  V30 2007 N 183.284 -1.43765 0.645699 0
M  V30 2008 C 184.231 -2.30745 -0.0504648 0
M  V30 2009 C 185.201 -1.4432 -0.822241 0
M  V30 2010 O 186.386 -1.73202 -0.800358 0
M  V30 2011 C 183.526 -3.29802 -1.0161 0
M  V30 2012 C 182.639 -4.31326 -0.241219 0
M  V30 2013 C 181.774 -5.17469 -1.19998 0
M  V30 2014 C 180.813 -6.10691 -0.415094 0
M  V30 2015 N 179.95 -6.89483 -1.32506 0
M  V30 2016 H 184.79 -2.8973 0.697155 0
M  V30 2017 H 182.327 -1.42738 0.355563 0
M  V30 2018 H 184.285 -3.85734 -1.58949 0
M  V30 2019 H 182.915 -2.72483 -1.73069 0
M  V30 2020 H 181.967 -3.77749 0.448334 0
M  V30 2021 H 183.279 -4.9743 0.369437 0
M  V30 2022 H 182.433 -5.7799 -1.84424 0
M  V30 2023 H 181.172 -4.51473 -1.84455 0
M  V30 2024 H 180.177 -5.49265 0.242565 0
M  V30 2025 H 181.402 -6.78727 0.224966 0
M  V30 2026 H 179.348 -6.26142 -1.95657 0
M  V30 2027 H 179.265 -7.52081 -0.768783 0
M  V30 2028 H 180.533 -7.54516 -1.9577 0
M  V30 2029 N 184.763 -0.387143 -1.52771 0
M  V30 2030 C 186.01 0.195735 -2.01552 0
M  V30 2031 C 186.338 1.46995 -1.27369 0
M  V30 2032 O 185.593 1.92325 -0.361879 0
M  V30 2033 C 185.892 0.512209 -3.53711 0
M  V30 2034 C 185.558 -0.670202 -4.45891 0
M  V30 2035 C 184.22 -0.994586 -4.70809 0
M  V30 2036 C 186.572 -1.46134 -5.00294 0
M  V30 2037 C 183.9 -2.11169 -5.4738 0
M  V30 2038 C 186.252 -2.56903 -5.78086 0
M  V30 2039 C 184.916 -2.89852 -6.01284 0
M  V30 2040 H 184.186 0.0716246 -0.73753 0
M  V30 2041 H 186.833 -0.524046 -1.8419 0
M  V30 2042 H 185.138 1.31329 -3.69134 0
M  V30 2043 H 186.835 0.975804 -3.88946 0
M  V30 2044 H 183.425 -0.407366 -4.2666 0
M  V30 2045 H 187.609 -1.22397 -4.80971 0
M  V30 2046 H 182.865 -2.3707 -5.63567 0
M  V30 2047 H 187.039 -3.18608 -6.19243 0
M  V30 2048 H 184.666 -3.76533 -6.60399 0
M  V30 2049 N 186.241 1.57166 -0.116904 0
M  V30 2050 C 187.471 1.99184 0.548586 0
M  V30 2051 C 187.879 0.995436 1.60897 0
M  V30 2052 O 187.222 -0.0201293 1.83689 0
M  V30 2053 C 187.284 3.37611 1.23526 0
M  V30 2054 C 186.948 4.55857 0.323077 0
M  V30 2055 C 187.945 5.18056 -0.437476 0
M  V30 2056 C 185.63 5.01751 0.234761 0
M  V30 2057 C 187.624 6.24536 -1.2741 0
M  V30 2058 C 185.311 6.08093 -0.605496 0
M  V30 2059 C 186.309 6.69352 -1.35856 0
M  V30 2060 O 185.997 7.7364 -2.18487 0
M  V30 2061 H 185.729 0.659148 0.149999 0
M  V30 2062 H 188.283 2.0443 -0.199428 0
M  V30 2063 H 186.513 3.29113 2.0303 0
M  V30 2064 H 188.202 3.63932 1.79745 0
M  V30 2065 H 188.968 4.83516 -0.379105 0
M  V30 2066 H 184.847 4.53817 0.810601 0
M  V30 2067 H 188.391 6.72281 -1.86237 0
M  V30 2068 H 184.288 6.42063 -0.665268 0
M  V30 2069 H 185.056 7.90727 -2.11406 0
M  V30 2070 N 187.719 -0.156864 1.56817 0
M  V30 2071 C 188.651 -1.21883 1.94106 0
M  V30 2072 C 189.664 -1.3971 0.835754 0
M  V30 2073 O 190.853 -1.39457 1.11418 0
M  V30 2074 C 187.953 -2.58527 2.19127 0
M  V30 2075 C 187.126 -2.61809 3.50393 0
M  V30 2076 C 186.185 -3.7992 3.64071 0
M  V30 2077 O 185.211 -3.65249 4.36557 0
M  V30 2078 N 186.413 -4.96973 2.99997 0
M  V30 2079 H 189.178 -0.901974 2.85805 0
M  V30 2080 H 186.739 -0.346513 1.58148 0
M  V30 2081 H 188.731 -3.36034 2.25529 0
M  V30 2082 H 187.301 -2.82545 1.33742 0
M  V30 2083 H 186.521 -1.7029 3.5552 0
M  V30 2084 H 187.809 -2.61024 4.36742 0
M  V30 2085 H 187.207 -5.11794 2.41004 0
M  V30 2086 H 185.764 -5.7229 3.11974 0
M  V30 2087 N 189.197 -1.51736 -0.425897 0
M  V30 2088 C 190.425 -1.68794 -1.1965 0
M  V30 2089 C 190.84 -0.390164 -1.84725 0
M  V30 2090 O 190.197 0.632376 -1.71194 0
M  V30 2091 C 190.248 -2.81174 -2.27208 0
M  V30 2092 O 189.969 -4.05925 -1.64793 0
M  V30 2093 C 191.47 -3.09599 -3.17275 0
M  V30 2094 H 188.69 -0.566128 -0.360194 0
M  V30 2095 H 191.234 -1.98211 -0.503249 0
M  V30 2096 H 189.389 -2.54324 -2.9223 0
M  V30 2097 H 189.803 -4.68423 -2.35967 0
M  V30 2098 H 191.277 -3.91786 -3.88854 0
M  V30 2099 H 191.754 -2.22468 -3.78688 0
M  V30 2100 H 192.36 -3.38151 -2.57941 0
M  V30 2101 N 190.675 0.682077 -1.42076 0
M  V30 2102 C 191.9 1.47558 -1.45744 0
M  V30 2103 C 192.325 1.87977 -0.0680981 0
M  V30 2104 O 191.683 1.55522 0.9318 0
M  V30 2105 C 191.731 2.70575 -2.38373 0
M  V30 2106 O 190.835 3.68573 -1.85007 0
M  V30 2107 H 190.176 0.443585 -0.494093 0
M  V30 2108 H 192.706 0.837238 -1.86686 0
M  V30 2109 H 192.716 3.18729 -2.54707 0
M  V30 2110 H 191.391 2.40495 -3.39315 0
M  V30 2111 H 189.968 3.2757 -1.78192 0
M  V30 2112 N 192.153 1.28127 0.917671 0
M  V30 2113 C 193.399 1.15223 1.66888 0
M  V30 2114 C 193.732 -0.299293 1.9188 0
M  V30 2115 O 193.007 -1.21805 1.51637 0
M  V30 2116 C 193.29 1.94706 3.02922 0
M  V30 2117 C 193.143 3.47898 2.85109 0
M  V30 2118 C 194.462 1.75939 4.03402 0
M  V30 2119 H 191.581 0.419946 0.605652 0
M  V30 2120 H 194.223 1.57398 1.06423 0
M  V30 2121 H 192.373 1.58864 3.54534 0
M  V30 2122 H 194.045 3.93624 2.40537 0
M  V30 2123 H 192.288 3.7373 2.20246 0
M  V30 2124 H 192.959 3.98765 3.81694 0
M  V30 2125 H 195.435 2.07209 3.60837 0
M  V30 2126 H 194.311 2.33931 4.96556 0
M  V30 2127 H 194.572 0.709877 4.36364 0
M  V30 2128 N 193.631 -1.12557 1.10312 0
M  V30 2129 C 194.541 -2.21841 0.763142 0
M  V30 2130 C 195.557 -1.72354 -0.238801 0
M  V30 2131 O 196.733 -2.01249 -0.0778746 0
M  V30 2132 C 193.798 -3.46131 0.198632 0
M  V30 2133 C 192.859 -4.10464 1.25769 0
M  V30 2134 C 192.092 -5.28821 0.72002 0
M  V30 2135 O 192.315 -5.6859 -0.453993 0
M  V30 2136 O 191.249 -5.83437 1.47935 0
M  V30 2137 H 195.075 -2.53312 1.67532 0
M  V30 2138 H 192.66 -1.20867 0.878157 0
M  V30 2139 H 194.542 -4.2125 -0.112401 0
M  V30 2140 H 193.217 -3.16338 -0.686419 0
M  V30 2141 H 192.124 -3.3713 1.62156 0
M  V30 2142 H 193.457 -4.44408 2.11571 0
M  V30 2143 N 195.109 -0.891671 -1.2995 0
M  V30 2144 C 196.334 -0.527932 -2.00568 0
M  V30 2145 C 196.759 0.877969 -1.66353 0
M  V30 2146 O 196.117 1.58301 -0.883762 0
M  V30 2147 C 196.165 -0.717745 -3.53385 0
M  V30 2148 O 195.269 0.233376 -4.11739 0
M  V30 2149 H 194.61 -0.20722 -0.630837 0
M  V30 2150 H 197.14 -1.20105 -1.65638 0
M  V30 2151 H 197.15 -0.619307 -4.03272 0
M  V30 2152 H 195.825 -1.74276 -3.77625 0
M  V30 2153 H 194.402 0.0880706 -3.72796 0
M  V30 2154 N 196.587 1.43421 -0.653314 0
M  V30 2155 C 197.833 2.02111 -0.166992 0
M  V30 2156 C 198.166 1.51423 1.21592 0
M  V30 2157 O 197.441 0.707389 1.8118 0
M  V30 2158 C 197.724 3.5966 -0.177948 0
M  V30 2159 C 197.577 4.20579 -1.59478 0
M  V30 2160 C 198.896 4.37413 0.4856 0
M  V30 2161 H 196.015 0.734374 -0.0621557 0
M  V30 2162 H 198.657 1.70717 -0.834016 0
M  V30 2163 H 196.807 3.86537 0.390032 0
M  V30 2164 H 198.479 4.04732 -2.21336 0
M  V30 2165 H 196.722 3.77226 -2.14204 0
M  V30 2166 H 197.393 5.29665 -1.5543 0
M  V30 2167 H 199.869 4.161 0.00234528 0
M  V30 2168 H 198.745 5.47075 0.447207 0
M  V30 2169 H 199.006 4.13672 1.55974 0
M  V30 2170 N 198.065 0.39524 1.52563 0
M  V30 2171 C 199.342 -0.242908 1.94086 0
M  V30 2172 C 199.722 -1.63841 1.33114 0
M  V30 2173 O 199.07 -2.22928 0.501529 0
M  V30 2174 C 199.28 -0.26327 3.48006 0
M  V30 2175 C 200.628 -0.489354 4.21771 0
M  V30 2176 O 201.652 -0.343226 3.54543 0
M  V30 2177 O 200.511 -0.776169 5.4096 0
M  V30 2178 H 197.605 -0.152536 0.812811 0
M  V30 2179 H 200.151 0.450178 1.6362 0
M  V30 2180 H 198.923 0.713985 3.84731 0
M  V30 2181 H 198.546 -1.00103 3.84792 0
M  V30 2182 N 199.544 -1.57102 0.125237 0
M  V30 2183 C 200.791 -1.95407 -0.531248 0
M  V30 2184 C 201.119 -1.0089 -1.66287 0
M  V30 2185 O 200.374 -0.0339431 -1.95671 0
M  V30 2186 C 200.673 -3.40096 -1.09862 0
M  V30 2187 C 200.339 -4.50815 -0.0876989 0
M  V30 2188 C 199.001 -4.80824 0.19026 0
M  V30 2189 C 201.353 -5.17724 0.600902 0
M  V30 2190 C 198.681 -5.75058 1.163 0
M  V30 2191 C 201.033 -6.13005 1.56231 0
M  V30 2192 C 199.697 -6.41403 1.8482 0
M  V30 2193 H 198.967 -0.715046 -0.194397 0
M  V30 2194 H 201.614 -1.90373 0.207463 0
M  V30 2195 H 199.919 -3.41855 -1.91422 0
M  V30 2196 H 201.616 -3.6705 -1.61478 0
M  V30 2197 H 198.206 -4.27444 -0.314528 0
M  V30 2198 H 202.39 -4.94691 0.399333 0
M  V30 2199 H 197.646 -5.95362 1.39117 0
M  V30 2200 H 201.82 -6.63934 2.10153 0
M  V30 2201 H 199.447 -7.14229 2.60349 0
M  V30 2202 N 201.022 0.148545 -1.56898 0
M  V30 2203 C 201.985 1.16736 -1.97244 0
M  V30 2204 C 202.985 1.35947 -0.858777 0
M  V30 2205 O 204.175 1.32966 -1.12542 0
M  V30 2206 C 201.307 2.52798 -2.28705 0
M  V30 2207 H 202.5 0.821279 -2.88435 0
M  V30 2208 H 200.053 0.391831 -1.51309 0
M  V30 2209 H 200.788 2.92381 -1.403 0
M  V30 2210 H 200.573 2.40216 -3.09901 0
M  V30 2211 H 202.063 3.26179 -2.60762 0
M  V30 2212 N 202.5 1.5196 0.417844 0
M  V30 2213 C 203.448 1.75278 1.52907 0
M  V30 2214 C 204.442 0.619611 1.57662 0
M  V30 2215 O 205.648 0.801457 1.61173 0
M  V30 2216 H 202.023 0.554141 0.508362 0
M  V30 2217 H 203.994 2.68389 1.30422 0
M  V30 2218 C 202.743 1.91262 2.90369 0
M  V30 2219 H 202.066 2.77872 2.8745 0
M  V30 2220 H 203.506 2.11581 3.67436 0
M  V30 2221 C 201.965 0.677431 3.30019 0
M  V30 2222 O 202.495 -0.158799 4.01386 0
M  V30 2223 N 200.701 0.515851 2.85985 0
M  V30 2224 H 200.248 1.19744 2.28077 0
M  V30 2225 H 200.206 -0.309315 3.12875 0
M  V30 2226 N 203.978 -0.674533 1.42435 0
M  V30 2227 C 204.941 -1.76986 1.45632 0
M  V30 2228 C 205.941 -1.5708 0.343871 0
M  V30 2229 O 207.131 -1.63367 0.604709 0
M  V30 2230 C 204.263 -3.15623 1.28822 0
M  V30 2231 H 205.456 -1.75539 2.43158 0
M  V30 2232 H 203.009 -0.884189 1.28887 0
M  V30 2233 H 203.744 -3.22696 0.322193 0
M  V30 2234 H 203.529 -3.31475 2.09444 0
M  V30 2235 H 205.019 -3.95537 1.33942 0
M  V30 2236 N 205.456 -1.28612 -0.910864 0
M  V30 2237 C 206.867 -1.14406 -1.47541 0
M  V30 2238 C 207.218 0.264901 -1.94403 0
M  V30 2239 O 206.343 1.15942 -1.82719 0
M  V30 2240 C 206.938 -2.07073 -2.68153 0
M  V30 2241 C 205.497 -1.96923 -3.20778 0
M  V30 2242 C 204.644 -1.98646 -1.93481 0
M  V30 2243 H 207.595 -1.41259 -0.723291 0
M  V30 2244 H 207.616 -1.63642 -3.43514 0
M  V30 2245 H 207.128 -3.09611 -2.34015 0
M  V30 2246 H 205.229 -0.97433 -3.59635 0
M  V30 2247 H 205.342 -2.84026 -3.85832 0
M  V30 2248 H 203.706 -1.43093 -2.10705 0
M  V30 2249 H 204.489 -3.02868 -1.61634 0
M  V30 2250 N 206.934 1.1197 -1.10907 0
M  V30 2251 C 207.844 2.21433 -0.774896 0
M  V30 2252 C 208.86 1.72478 0.229657 0
M  V30 2253 O 210.036 2.01288 0.0672008 0
M  V30 2254 C 207.101 3.4602 -0.216986 0
M  V30 2255 C 206.162 4.09791 -1.27944 0
M  V30 2256 C 205.395 5.28431 -0.748055 0
M  V30 2257 O 205.618 5.68823 0.423833 0
M  V30 2258 O 204.552 5.82644 -1.51027 0
M  V30 2259 H 208.378 2.5242 -1.68873 0
M  V30 2260 H 205.963 1.20399 -0.884555 0
M  V30 2261 H 207.845 4.21304 0.090059 0
M  V30 2262 H 206.52 3.16698 0.669633 0
M  V30 2263 H 205.427 3.36265 -1.63941 0
M  V30 2264 H 206.76 4.4328 -2.13925 0
M  V30 2265 N 208.412 0.89855 1.29475 0
M  V30 2266 C 209.322 0.379974 2.31502 0
M  V30 2267 C 210.338 -0.524695 1.659 0
M  V30 2268 O 211.514 -0.414551 1.97087 0
M  V30 2269 C 208.579 -0.385138 3.44554 0
M  V30 2270 C 207.64 0.550914 4.2575 0
M  V30 2271 C 206.873 -0.177778 5.33404 0
M  V30 2272 O 207.096 -1.40189 5.52904 0
M  V30 2273 O 206.03 0.479106 5.9999 0
M  V30 2274 H 209.856 1.22639 2.77837 0
M  V30 2275 H 207.441 0.662834 1.33891 0
M  V30 2276 H 209.323 -0.817841 4.13388 0
M  V30 2277 H 207.998 -1.20763 3.0033 0
M  V30 2278 H 206.905 1.03271 3.59564 0
M  V30 2279 H 208.238 1.33979 4.73614 0
M  V30 2280 N 209.89 -1.43072 0.660911 0
M  V30 2281 C 211.115 -2.06584 0.183805 0
M  V30 2282 C 211.54 -1.49257 -1.14472 0
M  V30 2283 O 210.898 -0.605528 -1.70889 0
M  V30 2284 C 210.946 -3.60418 0.114434 0
M  V30 2285 O 210.05 -4.01981 -0.921137 0
M  V30 2286 H 209.391 -0.656669 0.0983994 0
M  V30 2287 H 211.921 -1.83447 0.906006 0
M  V30 2288 H 211.931 -4.07946 -0.0663394 0
M  V30 2289 H 210.606 -4.01519 1.08422 0
M  V30 2290 H 209.183 -3.66029 -0.71253 0
M  V30 2291 N 211.368 -0.403325 -1.52352 0
M  V30 2292 C 212.784 -0.0539281 -1.59509 0
M  V30 2293 C 212.984 1.43307 -1.41652 0
M  V30 2294 O 212.04 2.19924 -1.24056 0
M  V30 2295 C 213.353 -0.543654 -2.95745 0
M  V30 2296 C 214.901 -0.501125 -3.08962 0
M  V30 2297 C 215.376 -0.967267 -4.47669 0
M  V30 2298 N 216.867 -0.923849 -4.53893 0
M  V30 2299 C 217.602 -1.25578 -5.5948 0
M  V30 2300 N 217.098 -1.65889 -6.72646 0
M  V30 2301 N 218.891 -1.17613 -5.49658 0
M  V30 2302 H 211.042 -1.37123 -1.62206 0
M  V30 2303 H 213.305 -0.56294 -0.76276 0
M  V30 2304 H 213.011 -1.58275 -3.14073 0
M  V30 2305 H 212.885 0.0498042 -3.77167 0
M  V30 2306 H 215.272 0.528909 -2.90321 0
M  V30 2307 H 215.353 -1.13056 -2.2946 0
M  V30 2308 H 214.997 -1.9956 -4.67053 0
M  V30 2309 H 214.927 -0.314698 -5.25659 0
M  V30 2310 H 217.418 -0.627403 -3.72655 0
M  V30 2311 H 217.731 -1.89543 -7.49195 0
M  V30 2312 H 216.076 -1.69787 -6.73942 0
M  V30 2313 H 219.267 -0.860115 -4.6013 0
M  V30 2314 H 219.44 -1.43812 -6.3184 0
M  V30 2315 N 212.846 1.57033 -0.133567 0
M  V30 2316 C 213.793 2.16074 0.811208 0
M  V30 2317 C 214.763 1.08979 1.2535 0
M  V30 2318 O 215.948 1.36958 1.32843 0
M  V30 2319 C 213.088 2.77595 2.05024 0
M  V30 2320 C 212.201 3.99042 1.65498 0
M  V30 2321 C 211.336 4.48603 2.84479 0
M  V30 2322 C 210.375 5.62547 2.41262 0
M  V30 2323 N 209.512 6.06787 3.53206 0
M  V30 2324 H 214.352 2.96477 0.300906 0
M  V30 2325 H 211.889 1.46462 0.136822 0
M  V30 2326 H 213.847 3.11402 2.77642 0
M  V30 2327 H 212.477 1.99859 2.53488 0
M  V30 2328 H 211.529 3.71302 0.826981 0
M  V30 2329 H 212.841 4.81629 1.29748 0
M  V30 2330 H 211.995 4.84395 3.65303 0
M  V30 2331 H 210.734 3.64995 3.23465 0
M  V30 2332 H 209.739 5.26345 1.58874 0
M  V30 2333 H 210.964 6.47931 2.03377 0
M  V30 2334 H 208.91 5.26117 3.91838 0
M  V30 2335 H 208.827 6.84266 3.21427 0
M  V30 2336 H 210.095 6.4722 4.34427 0
M  V30 2337 N 214.325 -0.140222 1.56975 0
M  V30 2338 C 215.272 -1.17292 1.98774 0
M  V30 2339 C 216.242 -1.4232 0.856408 0
M  V30 2340 O 217.427 -1.54541 1.119 0
M  V30 2341 C 214.567 -2.49973 2.37923 0
M  V30 2342 C 213.68 -2.32062 3.64378 0
M  V30 2343 C 212.815 -3.57825 3.926 0
M  V30 2344 C 211.854 -3.3498 5.12303 0
M  V30 2345 N 210.991 -4.52891 5.36502 0
M  V30 2346 H 215.831 -0.809472 2.86795 0
M  V30 2347 H 213.368 -0.388237 1.41884 0
M  V30 2348 H 215.326 -3.27346 2.58652 0
M  V30 2349 H 213.956 -2.84252 1.52972 0
M  V30 2350 H 213.008 -1.45711 3.51387 0
M  V30 2351 H 214.32 -2.11145 4.51906 0
M  V30 2352 H 213.474 -4.43624 4.13863 0
M  V30 2353 H 212.213 -3.81753 3.03506 0
M  V30 2354 H 211.218 -2.4757 4.90906 0
M  V30 2355 H 212.443 -3.12444 6.02956 0
M  V30 2356 H 210.389 -4.76979 4.50363 0
M  V30 2357 H 210.306 -4.35001 6.18312 0
M  V30 2358 H 211.574 -5.39884 5.62268 0
M  V30 2359 N 215.803 -1.52179 -0.40978 0
M  V30 2360 C 217.052 -1.65434 -1.15388 0
M  V30 2361 C 217.365 -0.390056 -1.91671 0
M  V30 2362 O 218.571 -0.402399 -2.68501 0
M  V30 2363 C 217.027 -2.92279 -2.10003 0
M  V30 2364 C 216.635 -4.25813 -1.39239 0
M  V30 2365 C 218.379 -3.14897 -2.84675 0
M  V30 2366 C 216.286 -5.43782 -2.32498 0
M  V30 2367 H 215.216 -0.616267 -0.434432 0
M  V30 2368 H 217.867 -1.78666 -0.418401 0
M  V30 2369 H 216.249 -2.72744 -2.871 0
M  V30 2370 H 217.423 -4.55828 -0.675099 0
M  V30 2371 H 215.738 -4.09292 -0.766097 0
M  V30 2372 H 218.335 -4.0021 -3.54593 0
M  V30 2373 H 218.678 -2.29103 -3.47588 0
M  V30 2374 H 219.211 -3.34901 -2.14677 0
M  V30 2375 H 215.95 -6.3192 -1.74233 0
M  V30 2376 H 215.47 -5.18106 -3.02201 0
M  V30 2377 H 217.149 -5.76834 -2.93038 0
M  V30 2378 N 217.281 0.66697 -1.42791 0
M  V30 2379 C 218.229 1.80157 -1.47127 0
M  V30 2380 C 219.223 1.65825 -0.346199 0
M  V30 2381 O 220.429 1.72338 -0.519572 0
M  V30 2382 H 216.804 0.594158 -0.460956 0
M  V30 2383 H 218.775 1.73619 -2.42692 0
M  V30 2384 C 217.524 3.18351 -1.39813 0
M  V30 2385 H 216.847 3.3001 -2.25684 0
M  V30 2386 H 218.287 3.97736 -1.46908 0
M  V30 2387 C 216.746 3.36707 -0.11391 0
M  V30 2388 O 217.276 3.93027 0.830241 0
M  V30 2389 N 215.482 2.90586 -0.0285295 0
M  V30 2390 H 215.029 2.4494 -0.79764 0
M  V30 2391 H 214.987 3.03245 0.830063 0
M  V30 2392 N 218.759 1.29093 0.90403 0
M  V30 2393 C 219.984 1.19809 1.69294 0
M  V30 2394 C 220.409 -0.238481 1.86582 0
M  V30 2395 O 219.767 -1.1723 1.383 0
M  V30 2396 C 219.815 1.91202 3.05736 0
M  V30 2397 O 218.919 1.22611 3.93752 0
M  V30 2398 H 218.26 0.415385 0.518027 0
M  V30 2399 H 220.79 1.70586 1.12967 0
M  V30 2400 H 220.8 1.99487 3.55906 0
M  V30 2401 H 219.475 2.95692 2.92471 0
M  V30 2402 H 218.052 1.22554 3.52186 0
M  V30 2403 N 220.237 -1.11381 1.11499 0
M  V30 2404 C 221.483 -1.83597 0.875423 0
M  V30 2405 C 221.838 -1.83048 -0.592555 0
M  V30 2406 O 221.131 -1.27304 -1.43193 0
M  V30 2407 C 221.325 -3.30026 1.37177 0
M  V30 2408 C 221.154 -3.44837 2.88647 0
M  V30 2409 C 219.924 -3.57825 3.56776 0
M  V30 2410 C 222.122 -3.3907 3.86699 0
M  V30 2411 N 220.104 -3.61113 4.96458 0
M  V30 2412 C 221.475 -3.48986 5.12454 0
M  V30 2413 C 223.53 -3.22605 3.7925 0
M  V30 2414 C 222.233 -3.44135 6.31636 0
M  V30 2415 C 224.259 -3.19072 4.97943 0
M  V30 2416 C 223.621 -3.29559 6.22551 0
M  V30 2417 H 219.72 -0.687044 0.37349 0
M  V30 2418 H 222.304 -1.33265 1.41946 0
M  V30 2419 H 220.475 -3.78874 0.854919 0
M  V30 2420 H 222.207 -3.90153 1.07529 0
M  V30 2421 H 218.962 -3.60414 3.07244 0
M  V30 2422 H 219.386 -3.66394 5.69284 0
M  V30 2423 H 224.028 -3.13382 2.83816 0
M  V30 2424 H 221.746 -3.52126 7.27347 0
M  V30 2425 H 225.332 -3.07498 4.93899 0
M  V30 2426 H 224.212 -3.26815 7.12855 0
M  V30 2427 N 221.715 -0.905404 -1.28997 0
M  V30 2428 C 222.961 -0.535039 -1.95615 0
M  V30 2429 C 223.294 0.917404 -1.71165 0
M  V30 2430 O 222.569 1.65123 -1.02785 0
M  V30 2431 C 222.852 -0.834918 -3.50287 0
M  V30 2432 C 222.705 -2.33948 -3.84172 0
M  V30 2433 C 224.024 -0.325318 -4.38896 0
M  V30 2434 H 221.143 -0.195861 -0.710498 0
M  V30 2435 H 223.785 -1.13313 -1.52513 0
M  V30 2436 H 221.935 -0.325904 -3.87131 0
M  V30 2437 H 223.607 -2.91847 -3.57243 0
M  V30 2438 H 221.85 -2.79789 -3.31513 0
M  V30 2439 H 222.521 -2.49987 -4.92149 0
M  V30 2440 H 224.997 -0.761256 -4.09077 0
M  V30 2441 H 223.873 -0.564295 -5.45992 0
M  V30 2442 H 224.134 0.774144 -4.35269 0
M  V30 2443 N 223.193 1.4272 -0.668489 0
M  V30 2444 C 224.103 2.34596 0.0139753 0
M  V30 2445 C 225.119 1.5474 0.795703 0
M  V30 2446 O 226.295 1.87334 0.739466 0
M  V30 2447 C 223.36 3.33202 0.957982 0
M  V30 2448 C 222.421 4.28957 0.17149 0
M  V30 2449 C 221.654 5.22853 1.07053 0
M  V30 2450 O 221.877 5.21531 2.31001 0
M  V30 2451 O 220.811 5.9952 0.534727 0
M  V30 2452 H 224.637 2.9448 -0.742661 0
M  V30 2453 H 222.222 1.43117 -0.428705 0
M  V30 2454 H 224.104 3.93796 1.50008 0
M  V30 2455 H 222.779 2.758 1.69458 0
M  V30 2456 H 221.686 3.71796 -0.414558 0
M  V30 2457 H 223.019 4.89383 -0.52586 0
M  V30 2458 N 224.671 0.411399 1.52136 0
M  V30 2459 C 225.896 -0.165538 2.06738 0
M  V30 2460 C 226.321 -1.379 1.27926 0
M  V30 2461 O 225.679 -1.78628 0.310114 0
M  V30 2462 C 225.727 -0.492124 3.57226 0
M  V30 2463 O 224.831 -1.58276 3.80818 0
M  V30 2464 H 224.172 -0.0132132 0.663869 0
M  V30 2465 H 226.702 0.585253 1.96051 0
M  V30 2466 H 226.712 -0.750104 4.01045 0
M  V30 2467 H 225.387 0.394922 4.14021 0
M  V30 2468 H 223.964 -1.31677 3.48877 0
M  V30 2469 N 226.149 -1.5696 0.141893 0
M  V30 2470 C 227.081 -2.13619 -0.830627 0
M  V30 2471 C 228.094 -1.08439 -1.21428 0
M  V30 2472 O 229.283 -1.35734 -1.15925 0
M  V30 2473 C 226.383 -2.63978 -2.12529 0
M  V30 2474 C 225.556 -3.93504 -1.9098 0
M  V30 2475 C 224.615 -4.29225 -3.04388 0
M  V30 2476 O 223.641 -4.97641 -2.76302 0
M  V30 2477 N 224.843 -3.88393 -4.31429 0
M  V30 2478 H 227.608 -2.97691 -0.34641 0
M  V30 2479 H 225.169 -1.61846 -0.0418375 0
M  V30 2480 H 227.161 -2.84891 -2.87436 0
M  V30 2481 H 225.731 -1.84659 -2.52229 0
M  V30 2482 H 224.951 -3.81269 -1.00139 0
M  V30 2483 H 226.239 -4.78154 -1.73914 0
M  V30 2484 H 225.637 -3.33257 -4.57117 0
M  V30 2485 H 224.194 -4.14368 -5.03133 0
M  V30 2486 N 227.627 0.131896 -1.57047 0
M  V30 2487 C 228.855 0.856461 -1.88341 0
M  V30 2488 C 229.27 1.74042 -0.731757 0
M  V30 2489 O 228.627 1.80051 0.297945 0
M  V30 2490 C 228.678 1.70064 -3.18999 0
M  V30 2491 O 228.399 0.852278 -4.2973 0
M  V30 2492 C 229.9 2.53148 -3.63911 0
M  V30 2493 H 227.12 0.246885 -0.62393 0
M  V30 2494 H 229.664 0.120152 -2.04147 0
M  V30 2495 H 227.819 2.38984 -3.04902 0
M  V30 2496 H 228.233 1.43329 -5.04537 0
M  V30 2497 H 229.707 3.07931 -4.58129 0
M  V30 2498 H 230.184 3.29901 -2.89935 0
M  V30 2499 H 230.79 1.89492 -3.80753 0
M  V30 2500 N 229.106 1.52395 0.401703 0
M  V30 2501 C 230.054 1.7689 1.51039 0
M  V30 2502 C 231.048 0.636298 1.56996 0
M  V30 2503 O 232.254 0.818507 1.60314 0
M  V30 2504 H 228.629 0.559502 0.502456 0
M  V30 2505 H 230.6 2.69757 1.27568 0
M  V30 2506 C 229.349 1.94331 2.88324 0
M  V30 2507 H 228.672 2.80905 2.84486 0
M  V30 2508 H 230.112 2.15466 3.65172 0
M  V30 2509 C 228.571 0.712396 3.29282 0
M  V30 2510 O 229.101 -0.116218 4.01532 0
M  V30 2511 N 227.307 0.546154 2.85422 0
M  V30 2512 H 226.854 1.22156 2.26794 0
M  V30 2513 H 226.812 -0.276113 3.13185 0
M  V30 2514 N 230.584 -0.659388 1.43143 0
M  V30 2515 C 231.494 -1.80167 1.50256 0
M  V30 2516 C 232.51 -1.69571 0.390106 0
M  V30 2517 O 233.686 -1.90849 0.643319 0
M  V30 2518 C 230.751 -3.16409 1.41725 0
M  V30 2519 C 229.812 -3.38848 2.63591 0
M  V30 2520 C 229.045 -4.68591 2.55458 0
M  V30 2521 O 229.268 -5.47532 1.59891 0
M  V30 2522 O 228.202 -4.92614 3.45854 0
M  V30 2523 H 232.028 -1.77121 2.46702 0
M  V30 2524 H 229.613 -0.817092 1.25076 0
M  V30 2525 H 231.495 -3.9768 1.39387 0
M  V30 2526 H 230.17 -3.20059 0.484118 0
M  V30 2527 H 229.077 -2.57366 2.71502 0
M  V30 2528 H 230.41 -3.4004 3.55856 0
M  V30 2529 N 232.062 -1.29571 -0.897171 0
M  V30 2530 C 233.009 -1.14916 -2.00158 0
M  V30 2531 C 233.979 -0.0418149 -1.66047 0
M  V30 2532 O 235.164 -0.209793 -1.89643 0
M  V30 2533 C 232.304 -0.834307 -3.34863 0
M  V30 2534 C 231.417 -2.02234 -3.8174 0
M  V30 2535 C 230.552 -1.64664 -5.05034 0
M  V30 2536 C 229.591 -2.80033 -5.44286 0
M  V30 2537 N 228.728 -2.42843 -6.58765 0
M  V30 2538 H 233.568 -2.09403 -2.12025 0
M  V30 2539 H 231.105 -1.042 -1.0383 0
M  V30 2540 H 233.063 -0.632436 -4.12379 0
M  V30 2541 H 231.693 0.0736656 -3.22716 0
M  V30 2542 H 230.745 -2.33583 -3.00238 0
M  V30 2543 H 232.057 -2.88673 -4.06779 0
M  V30 2544 H 231.211 -1.4078 -5.9014 0
M  V30 2545 H 229.95 -0.753766 -4.8184 0
M  V30 2546 H 228.955 -3.04596 -4.57713 0
M  V30 2547 H 230.18 -3.69989 -5.6946 0
M  V30 2548 H 228.126 -1.56046 -6.3717 0
M  V30 2549 H 228.043 -3.22815 -6.83613 0
M  V30 2550 H 229.311 -2.22285 -7.47134 0
M  V30 2551 N 233.54 1.10788 -1.12088 0
M  V30 2552 C 234.789 1.82036 -0.868659 0
M  V30 2553 C 235.102 1.85929 0.607426 0
M  V30 2554 O 236.308 2.53346 0.97613 0
M  V30 2555 C 234.764 3.26951 -1.50435 0
M  V30 2556 C 234.372 3.31367 -3.01496 0
M  V30 2557 C 236.116 4.03053 -1.33225 0
M  V30 2558 C 234.023 4.7072 -3.58017 0
M  V30 2559 H 232.953 0.682108 -0.321318 0
M  V30 2560 H 235.604 1.24618 -1.34694 0
M  V30 2561 H 233.986 3.84343 -0.953735 0
M  V30 2562 H 235.16 2.83819 -3.6302 0
M  V30 2563 H 233.475 2.6875 -3.18061 0
M  V30 2564 H 236.072 5.05981 -1.72878 0
M  V30 2565 H 236.415 4.15387 -0.275529 0
M  V30 2566 H 236.948 3.52066 -1.85188 0
M  V30 2567 H 233.687 4.63585 -4.63432 0
M  V30 2568 H 233.207 5.1865 -3.01268 0
M  V30 2569 H 234.886 5.39685 -3.56859 0
M  V30 2570 N 235.018 0.912232 1.28515 0
M  V30 2571 C 235.965 0.397954 2.27343 0
M  V30 2572 C 236.935 -0.526766 1.57526 0
M  V30 2573 O 238.12 -0.449292 1.85435 0
M  V30 2574 C 235.26 -0.357263 3.43246 0
M  V30 2575 C 234.373 0.599788 4.27816 0
M  V30 2576 C 233.508 -0.173725 5.30916 0
M  V30 2577 C 232.547 0.777039 6.07148 0
M  V30 2578 N 231.684 0.0371398 7.0209 0
M  V30 2579 H 236.524 1.24577 2.70711 0
M  V30 2580 H 234.061 0.625612 1.33133 0
M  V30 2581 H 236.019 -0.8113 4.09236 0
M  V30 2582 H 234.649 -1.16943 3.00872 0
M  V30 2583 H 233.701 1.17235 3.61884 0
M  V30 2584 H 235.013 1.32704 4.80823 0
M  V30 2585 H 234.167 -0.688394 6.02782 0
M  V30 2586 H 232.906 -0.934041 4.78672 0
M  V30 2587 H 231.911 1.3031 5.34134 0
M  V30 2588 H 233.136 1.53689 6.61481 0
M  V30 2589 H 231.082 -0.705213 6.52198 0
M  V30 2590 H 230.999 0.704249 7.52713 0
M  V30 2591 H 232.267 -0.457383 7.78157 0
M  V30 2592 N 236.496 -1.42363 0.676048 0
M  V30 2593 C 237.444 -2.32596 -0.0131507 0
M  V30 2594 C 238.438 -1.49891 -0.789238 0
M  V30 2595 O 239.644 -1.65955 -0.697061 0
M  V30 2596 H 236.019 -0.751647 -0.0230481 0
M  V30 2597 H 237.99 -2.88421 0.765243 0
M  V30 2598 C 236.739 -3.34479 -0.949702 0
M  V30 2599 H 236.062 -3.98158 -0.361938 0
M  V30 2600 H 237.502 -4.00199 -1.4006 0
M  V30 2601 C 235.961 -2.66838 -2.05667 0
M  V30 2602 O 236.491 -2.50124 -3.14326 0
M  V30 2603 N 234.697 -2.25843 -1.82875 0
M  V30 2604 H 234.244 -2.39637 -0.945085 0
M  V30 2605 H 234.202 -1.80918 -2.5713 0
M  V30 2606 N 237.974 -0.419461 -1.51915 0
M  V30 2607 C 238.904 0.391813 -2.30189 0
M  V30 2608 C 239.885 1.03699 -1.34836 0
M  V30 2609 O 241.07 1.04403 -1.63748 0
M  V30 2610 C 238.2 1.50312 -3.13087 0
M  V30 2611 C 237.154 0.9824 -4.16573 0
M  V30 2612 C 236.48 2.18809 -4.8788 0
M  V30 2613 C 237.78 0.0292356 -5.22292 0
M  V30 2614 H 239.474 -0.26135 -2.98257 0
M  V30 2615 H 237.02 -0.127134 -1.43438 0
M  V30 2616 H 238.973 2.07773 -3.66617 0
M  V30 2617 H 237.697 2.18431 -2.42807 0
M  V30 2618 H 236.356 0.430119 -3.64068 0
M  V30 2619 H 236.004 2.85507 -4.14119 0
M  V30 2620 H 235.704 1.84615 -5.57845 0
M  V30 2621 H 237.228 2.76858 -5.44226 0
M  V30 2622 H 238.642 0.512976 -5.71 0
M  V30 2623 H 237.039 -0.2244 -5.9968 0
M  V30 2624 H 238.109 -0.912931 -4.76228 0
M  V30 2625 N 239.452 1.56882 -0.150215 0
M  V30 2626 C 240.701 1.95403 0.500071 0
M  V30 2627 C 241.014 1.03777 1.658 0
M  V30 2628 O 242.22 1.31889 2.37313 0
M  V30 2629 C 240.676 3.4738 0.941018 0
M  V30 2630 C 240.284 4.47596 -0.190158 0
M  V30 2631 C 242.028 3.9476 1.56091 0
M  V30 2632 C 239.935 5.90787 0.269237 0
M  V30 2633 H 238.865 0.729515 0.190588 0
M  V30 2634 H 241.516 1.81988 -0.235074 0
M  V30 2635 H 239.898 3.56138 1.73152 0
M  V30 2636 H 241.072 4.50536 -0.967157 0
M  V30 2637 H 239.387 4.10151 -0.718666 0
M  V30 2638 H 241.984 4.99181 1.9163 0
M  V30 2639 H 242.327 3.36494 2.45107 0
M  V30 2640 H 242.86 3.88932 0.835249 0
M  V30 2641 H 239.599 6.52879 -0.585621 0
M  V30 2642 H 239.119 5.912 1.01204 0
M  V30 2643 H 240.798 6.42979 0.720176 0
M  V30 2644 N 240.93 -0.123565 1.57115 0
M  V30 2645 C 242.341 -0.681198 1.73829 0
M  V30 2646 C 242.692 -1.80535 0.768214 0
M  V30 2647 O 241.817 -2.16317 -0.0599103 0
M  V30 2648 C 242.412 -1.24246 3.15196 0
M  V30 2649 C 240.971 -1.74643 3.33432 0
M  V30 2650 C 240.118 -0.644284 2.69711 0
M  V30 2651 H 243.069 0.102315 1.5837 0
M  V30 2652 H 243.09 -2.11216 3.16493 0
M  V30 2653 H 242.602 -0.424062 3.85776 0
M  V30 2654 H 240.703 -2.58974 2.67886 0
M  V30 2655 H 240.816 -1.85902 4.41562 0
M  V30 2656 H 239.18 -1.07676 2.3082 0
M  V30 2657 H 239.963 0.163058 3.42913 0
M  V30 2658 N 242.408 -1.52605 -0.393616 0
M  V30 2659 C 243.318 -1.79971 -1.50492 0
M  V30 2660 C 244.334 -0.686181 -1.59899 0
M  V30 2661 O 245.51 -0.973274 -1.76322 0
M  V30 2662 C 242.575 -1.95867 -2.86072 0
M  V30 2663 C 241.636 -3.19781 -2.86424 0
M  V30 2664 C 240.869 -3.34909 -4.15538 0
M  V30 2665 O 241.092 -2.54948 -5.10253 0
M  V30 2666 O 240.026 -4.28141 -4.23059 0
M  V30 2667 H 243.852 -2.74328 -1.30299 0
M  V30 2668 H 241.437 -1.3764 -0.581005 0
M  V30 2669 H 243.319 -2.08056 -3.66457 0
M  V30 2670 H 241.994 -1.04699 -3.063 0
M  V30 2671 H 240.901 -3.13038 -2.04837 0
M  V30 2672 H 242.234 -4.1078 -2.71147 0
M  V30 2673 N 243.887 0.651787 -1.4349 0
M  V30 2674 C 245.135 1.40888 -1.44897 0
M  V30 2675 C 245.456 1.94856 -0.0749086 0
M  V30 2676 O 244.726 1.74518 0.889956 0
M  V30 2677 H 243.306 0.522887 -0.533478 0
M  V30 2678 H 245.968 0.768609 -1.79104 0
M  V30 2679 H 245.064 2.25052 -2.16236 0
M  V30 2680 N 245.365 1.30045 0.890287 0
M  V30 2681 C 246.313 1.15873 2.01683 0
M  V30 2682 C 247.307 0.0719403 1.69247 0
M  V30 2683 O 248.513 0.232414 1.78493 0
M  V30 2684 H 244.888 0.358203 0.661207 0
M  V30 2685 H 246.859 2.11229 2.10772 0
M  V30 2686 C 245.608 0.861842 3.36849 0
M  V30 2687 H 244.931 1.69016 3.62317 0
M  V30 2688 H 246.371 0.802762 4.16331 0
M  V30 2689 C 244.83 -0.435132 3.34078 0
M  V30 2690 O 245.36 -1.4583 3.74295 0
M  V30 2691 N 243.566 -0.444377 2.87182 0
M  V30 2692 H 243.113 0.388723 2.5465 0
M  V30 2693 H 243.071 -1.31213 2.85711 0
M  V30 2694 N 246.843 -1.10192 1.12674 0
M  V30 2695 C 248.092 -1.81573 0.8783 0
M  V30 2696 C 248.405 -1.86249 -0.597557 0
M  V30 2697 O 249.611 -2.5386 -0.962681 0
M  V30 2698 C 248.067 -3.26149 1.52167 0
M  V30 2699 C 247.675 -3.29763 3.03249 0
M  V30 2700 C 249.419 -4.0234 1.3536 0
M  V30 2701 C 247.326 -4.68815 3.60508 0
M  V30 2702 H 246.256 -0.680394 0.324931 0
M  V30 2703 H 248.907 -1.23902 1.35353 0
M  V30 2704 H 247.289 -3.83832 0.974104 0
M  V30 2705 H 248.463 -2.8189 3.6452 0
M  V30 2706 H 246.778 -2.67059 3.19481 0
M  V30 2707 H 249.375 -5.05058 1.75559 0
M  V30 2708 H 249.718 -4.15235 0.297554 0
M  V30 2709 H 250.251 -3.51079 1.87052 0
M  V30 2710 H 246.99 -4.61121 4.65884 0
M  V30 2711 H 246.51 -5.17045 3.04014 0
M  V30 2712 H 248.189 -5.37785 3.59717 0
M  V30 2713 N 248.321 -0.919034 -1.28029 0
M  V30 2714 C 249.569 -0.553838 -1.94363 0
M  V30 2715 C 249.89 0.906357 -1.72656 0
M  V30 2716 O 249.16 1.64143 -1.0693 0
M  V30 2717 H 247.74 -0.201834 -0.719216 0
M  V30 2718 H 250.402 -1.16954 -1.55909 0
M  V30 2719 H 249.498 -0.752758 -3.02886 0
M  V30 2720 N 249.799 1.42003 -0.683588 0
M  V30 2721 C 251.024 2.06265 -0.216647 0
M  V30 2722 C 251.449 1.51059 1.12083 0
M  V30 2723 O 250.807 0.632638 1.69904 0
M  V30 2724 C 250.855 3.60191 -0.171759 0
M  V30 2725 O 249.959 4.03396 0.857069 0
M  V30 2726 H 249.3 0.65502 -0.108834 0
M  V30 2727 H 251.83 1.81982 -0.935077 0
M  V30 2728 H 251.84 4.08 0.0014303 0
M  V30 2729 H 250.515 3.99743 -1.14796 0
M  V30 2730 H 249.092 3.67117 0.654208 0
M  V30 2731 N 251.277 0.427512 1.51691 0
M  V30 2732 C 252.225 -0.403359 2.29076 0
M  V30 2733 C 253.219 -1.02962 1.34518 0
M  V30 2734 O 254.425 -0.965715 1.51901 0
M  V30 2735 H 250.8 -0.148879 0.737115 0
M  V30 2736 H 252.771 0.270295 2.97173 0
M  V30 2737 C 251.52 -1.49763 3.13794 0
M  V30 2738 H 250.843 -1.02508 3.86435 0
M  V30 2739 H 252.283 -2.05244 3.71014 0
M  V30 2740 C 250.742 -2.47536 2.28533 0
M  V30 2741 O 251.272 -3.51848 1.93819 0
M  V30 2742 N 249.478 -2.18187 1.91945 0
M  V30 2743 H 249.025 -1.33389 2.20375 0
M  V30 2744 H 248.983 -2.83848 1.35195 0
M  V30 2745 N 252.755 -1.56801 0.158532 0
M  V30 2746 C 253.983 -2.00859 -0.496303 0
M  V30 2747 C 254.398 -1.03871 -1.57659 0
M  V30 2748 O 253.755 -0.0375165 -1.82461 0
M  V30 2749 C 253.806 -3.4479 -1.08638 0
M  V30 2750 O 253.527 -4.38072 -0.0492322 0
M  V30 2751 C 255.028 -4.04185 -1.8207 0
M  V30 2752 H 252.248 -0.65864 -0.128199 0
M  V30 2753 H 254.792 -2.02885 0.256506 0
M  V30 2754 H 252.947 -3.43579 -1.78975 0
M  V30 2755 H 253.361 -5.2227 -0.483102 0
M  V30 2756 H 254.835 -5.06857 -2.18633 0
M  V30 2757 H 255.312 -3.45549 -2.71095 0
M  V30 2758 H 255.918 -4.0906 -1.16405 0
M  V30 2759 N 254.233 0.115231 -1.57178 0
M  V30 2760 C 255.461 0.836437 -1.89239 0
M  V30 2761 C 255.876 1.73256 -0.750175 0
M  V30 2762 O 255.233 1.80357 0.278832 0
M  V30 2763 C 255.284 1.66671 -3.20785 0
M  V30 2764 O 255.005 0.806652 -4.3061 0
M  V30 2765 C 256.506 2.49274 -3.66575 0
M  V30 2766 H 253.726 0.240253 -0.626514 0
M  V30 2767 H 256.27 0.0984932 -2.04263 0
M  V30 2768 H 254.425 2.35737 -3.0742 0
M  V30 2769 H 254.839 1.37969 -5.06028 0
M  V30 2770 H 256.313 3.03055 -4.6137 0
M  V30 2771 H 256.79 3.26807 -2.93417 0
M  V30 2772 H 257.396 1.85443 -3.82741 0
M  V30 2773 N 255.711 1.52812 0.385517 0
M  V30 2774 C 256.641 1.80808 1.47752 0
M  V30 2775 C 257.622 0.660318 1.5676 0
M  V30 2776 O 258.807 0.908246 1.71652 0
M  V30 2777 C 255.937 1.98008 2.85324 0
M  V30 2778 C 254.891 3.13709 2.91154 0
M  V30 2779 C 254.217 3.16169 4.31209 0
M  V30 2780 C 255.517 4.52709 2.60483 0
M  V30 2781 H 257.211 2.72253 1.24573 0
M  V30 2782 H 254.757 1.31003 0.597839 0
M  V30 2783 H 256.71 2.16176 3.61726 0
M  V30 2784 H 255.434 1.03255 3.09848 0
M  V30 2785 H 254.093 2.95329 2.17201 0
M  V30 2786 H 253.741 2.19092 4.52778 0
M  V30 2787 H 253.441 3.93894 4.36029 0
M  V30 2788 H 254.965 3.36496 5.09512 0
M  V30 2789 H 256.379 4.71173 3.26602 0
M  V30 2790 H 254.776 5.32528 2.76648 0
M  V30 2791 H 255.846 4.59186 1.55809 0
M  V30 2792 N 257.189 -0.644168 1.43834 0
M  V30 2793 C 258.435 -1.40603 1.46146 0
M  V30 2794 C 258.768 -1.93997 0.0887717 0
M  V30 2795 O 258.043 -1.72854 -0.891724 0
M  V30 2796 C 258.326 -2.58086 2.51124 0
M  V30 2797 C 258.179 -2.10126 3.97702 0
M  V30 2798 C 259.498 -3.60291 2.52742 0
M  V30 2799 H 256.617 -0.509905 0.532134 0
M  V30 2800 H 259.259 -0.729502 1.75437 0
M  V30 2801 H 257.409 -3.15801 2.26278 0
M  V30 2802 H 259.081 -1.57342 4.33637 0
M  V30 2803 H 257.324 -1.41419 4.10101 0
M  V30 2804 H 257.995 -2.94649 4.66783 0
M  V30 2805 H 260.471 -3.12352 2.7491 0
M  V30 2806 H 259.347 -4.40032 3.28121 0
M  V30 2807 H 259.608 -4.1349 1.56455 0
M  V30 2808 N 258.668 -1.30515 -0.883378 0
M  V30 2809 C 259.598 -1.19607 -2.00541 0
M  V30 2810 C 260.579 -0.086346 -1.69881 0
M  V30 2811 O 261.764 -0.268654 -1.92333 0
M  V30 2812 C 258.894 -0.888758 -3.35736 0
M  V30 2813 C 257.848 -1.95659 -3.8066 0
M  V30 2814 C 257.174 -1.50224 -5.13164 0
M  V30 2815 C 258.474 -3.36788 -3.99213 0
M  V30 2816 H 260.168 -2.13476 -2.09925 0
M  V30 2817 H 257.714 -1.02775 -1.00863 0
M  V30 2818 H 259.667 -0.799094 -4.13754 0
M  V30 2819 H 258.391 0.0856125 -3.26488 0
M  V30 2820 H 257.05 -2.03591 -3.04871 0
M  V30 2821 H 256.698 -0.516092 -5.00345 0
M  V30 2822 H 256.398 -2.2165 -5.44192 0
M  V30 2823 H 257.922 -1.42639 -5.93706 0
M  V30 2824 H 259.336 -3.31605 -4.67665 0
M  V30 2825 H 257.733 -4.06314 -4.41621 0
M  V30 2826 H 258.803 -3.78561 -3.03017 0
M  V30 2827 N 260.146 1.09593 -1.13257 0
M  V30 2828 C 261.392 1.82003 -0.89458 0
M  V30 2829 C 261.725 1.85402 0.577906 0
M  V30 2830 O 261 1.32099 1.42759 0
M  V30 2831 C 261.283 3.28237 -1.48096 0
M  V30 2832 C 261.136 3.3312 -3.02244 0
M  V30 2833 C 262.455 4.24871 -1.14774 0
M  V30 2834 H 259.574 0.66077 -0.326424 0
M  V30 2835 H 262.216 1.28389 -1.40058 0
M  V30 2836 H 260.366 3.74024 -1.05062 0
M  V30 2837 H 262.038 2.95748 -3.54021 0
M  V30 2838 H 260.281 2.72756 -3.37323 0
M  V30 2839 H 260.952 4.3613 -3.38371 0
M  V30 2840 H 263.428 3.87361 -1.51957 0
M  V30 2841 H 262.304 5.25532 -1.58452 0
M  V30 2842 H 262.565 4.42058 -0.0611849 0
M  V30 2843 N 261.624 0.925811 1.2754 0
M  V30 2844 C 262.572 0.413897 2.28888 0
M  V30 2845 C 263.566 -0.500779 1.61829 0
M  V30 2846 O 264.772 -0.38069 1.75928 0
M  V30 2847 H 261.147 0.115274 0.743112 0
M  V30 2848 H 263.118 1.28151 2.69481 0
M  V30 2849 C 261.867 -0.319792 3.46226 0
M  V30 2850 H 261.19 0.374846 3.98039 0
M  V30 2851 H 262.63 -0.642435 4.19105 0
M  V30 2852 C 261.089 -1.53209 3.00048 0
M  V30 2853 O 261.619 -2.6309 3.03557 0
M  V30 2854 N 259.825 -1.38326 2.55566 0
M  V30 2855 H 259.372 -0.489292 2.5291 0
M  V30 2856 H 259.33 -2.19564 2.25031 0
M  V30 2857 N 263.102 -1.41638 0.69111 0
M  V30 2858 C 264.065 -2.29178 0.0319786 0
M  V30 2859 C 265.065 -1.44153 -0.712496 0
M  V30 2860 O 266.255 -1.65354 -0.548053 0
M  V30 2861 C 263.387 -3.26952 -0.965161 0
M  V30 2862 H 264.58 -2.88959 0.802681 0
M  V30 2863 H 262.133 -1.4955 0.454356 0
M  V30 2864 H 262.868 -2.72142 -1.76378 0
M  V30 2865 H 262.653 -3.89685 -0.434522 0
M  V30 2866 H 264.143 -3.92561 -1.42428 0
M  V30 2867 N 264.58 -0.43555 -1.51462 0
M  V30 2868 C 265.829 0.133007 -2.01261 0
M  V30 2869 C 266.142 1.43942 -1.32439 0
M  V30 2870 O 267.348 2.09081 -1.73198 0
M  V30 2871 C 265.804 0.287581 -3.58749 0
M  V30 2872 C 265.412 -1.00829 -4.36506 0
M  V30 2873 C 267.156 0.810004 -4.167 0
M  V30 2874 C 265.063 -0.819454 -5.85695 0
M  V30 2875 H 263.993 0.0534822 -0.752101 0
M  V30 2876 H 266.644 -0.565038 -1.74584 0
M  V30 2877 H 265.026 1.04859 -3.81865 0
M  V30 2878 H 266.2 -1.77749 -4.25138 0
M  V30 2879 H 264.515 -1.45911 -3.89999 0
M  V30 2880 H 267.112 0.967743 -5.2587 0
M  V30 2881 H 267.455 1.79196 -3.75758 0
M  V30 2882 H 267.988 0.107357 -3.97655 0
M  V30 2883 H 264.727 -1.77374 -6.31046 0
M  V30 2884 H 264.247 -0.0900208 -5.99732 0
M  V30 2885 H 265.926 -0.471949 -6.45276 0
M  V30 2886 N 266.058 1.56714 -0.166846 0
M  V30 2887 C 267.288 2.00828 0.48494 0
M  V30 2888 C 267.696 1.04612 1.57648 0
M  V30 2889 O 267.039 0.0383201 1.8366 0
M  V30 2890 C 267.101 3.4137 1.12723 0
M  V30 2891 C 266.765 4.56654 0.177886 0
M  V30 2892 C 267.762 5.16402 -0.60207 0
M  V30 2893 C 265.447 5.02244 0.0750139 0
M  V30 2894 C 267.441 6.20167 -1.47215 0
M  V30 2895 C 265.128 6.05859 -0.798649 0
M  V30 2896 C 266.126 6.64691 -1.57082 0
M  V30 2897 O 265.814 7.66297 -2.42989 0
M  V30 2898 H 265.546 0.663587 0.128953 0
M  V30 2899 H 268.1 2.03692 -0.264365 0
M  V30 2900 H 266.33 3.35406 1.92457 0
M  V30 2901 H 268.019 3.69466 1.68076 0
M  V30 2902 H 268.785 4.82065 -0.53274 0
M  V30 2903 H 264.664 4.56167 0.665812 0
M  V30 2904 H 268.208 6.66016 -2.07531 0
M  V30 2905 H 264.105 6.39621 -0.869199 0
M  V30 2906 H 264.873 7.83601 -2.36455 0
M  V30 2907 N 267.536 -0.106894 1.57237 0
M  V30 2908 C 268.783 -0.812526 1.85484 0
M  V30 2909 C 269.111 -1.79304 0.753687 0
M  V30 2910 O 268.366 -1.94047 -0.253853 0
M  V30 2911 C 268.665 -1.58628 3.20268 0
M  V30 2912 C 268.331 -0.748967 4.44636 0
M  V30 2913 C 266.993 -0.518104 4.78403 0
M  V30 2914 C 269.345 -0.166122 5.20935 0
M  V30 2915 C 266.673 0.305659 5.85903 0
M  V30 2916 C 269.025 0.644899 6.29304 0
M  V30 2917 C 267.689 0.885965 6.61594 0
M  V30 2918 H 266.959 -0.297324 0.678734 0
M  V30 2919 H 269.606 -0.0744332 1.91355 0
M  V30 2920 H 267.911 -2.39562 3.10028 0
M  V30 2921 H 269.608 -2.13643 3.39349 0
M  V30 2922 H 266.198 -0.939006 4.18187 0
M  V30 2923 H 270.382 -0.33167 4.95191 0
M  V30 2924 H 265.638 0.501528 6.0934 0
M  V30 2925 H 269.812 1.10345 6.87602 0
M  V30 2926 H 267.439 1.52609 7.44725 0
M  V30 2927 N 269.014 -1.53014 -0.377408 0
M  V30 2928 C 269.961 -1.78616 -1.46168 0
M  V30 2929 C 270.931 -0.629917 -1.53692 0
M  V30 2930 O 272.116 -0.870861 -1.69766 0
M  V30 2931 C 269.256 -1.97123 -2.8326 0
M  V30 2932 C 268.369 -3.24831 -2.84796 0
M  V30 2933 C 267.504 -3.33591 -4.13389 0
M  V30 2934 C 266.543 -4.55377 -4.09021 0
M  V30 2935 N 265.68 -4.61355 -5.29241 0
M  V30 2936 H 270.52 -2.71142 -1.23637 0
M  V30 2937 H 268.057 -1.34326 -0.599577 0
M  V30 2938 H 270.015 -2.05839 -3.62886 0
M  V30 2939 H 268.645 -1.07946 -3.04216 0
M  V30 2940 H 267.697 -3.25128 -1.97474 0
M  V30 2941 H 269.009 -4.14523 -2.77439 0
M  V30 2942 H 268.163 -3.41554 -5.01424 0
M  V30 2943 H 266.902 -2.41894 -4.23484 0
M  V30 2944 H 265.907 -4.47527 -3.19373 0
M  V30 2945 H 267.132 -5.48402 -4.00539 0
M  V30 2946 H 265.078 -3.72554 -5.39944 0
M  V30 2947 H 264.995 -5.44935 -5.24006 0
M  V30 2948 H 266.263 -4.73586 -6.19141 0
M  V30 2949 N 270.492 0.636531 -1.44174 0
M  V30 2950 C 271.74 1.39343 -1.46383 0
M  V30 2951 C 272.061 1.94766 -0.0955715 0
M  V30 2952 O 271.331 1.75452 0.871395 0
M  V30 2953 H 269.911 0.517199 -0.538994 0
M  V30 2954 H 272.573 0.74957 -1.7991 0
M  V30 2955 H 271.669 2.22746 -2.18611 0
M  V30 2956 N 271.97 1.30982 0.876444 0
M  V30 2957 C 272.902 1.13902 1.98894 0
M  V30 2958 C 273.915 0.0798815 1.62604 0
M  V30 2959 O 275.104 0.326743 1.75484 0
M  V30 2960 C 272.204 0.716699 3.31235 0
M  V30 2961 C 271.377 1.85945 3.95908 0
M  V30 2962 C 270.436 1.42426 5.06558 0
M  V30 2963 O 269.462 2.13287 5.27729 0
M  V30 2964 N 270.664 0.308025 5.79682 0
M  V30 2965 H 273.429 2.09724 2.14094 0
M  V30 2966 H 270.99 1.2323 1.05004 0
M  V30 2967 H 272.982 0.408403 4.02634 0
M  V30 2968 H 271.552 -0.149719 3.12241 0
M  V30 2969 H 270.772 2.33541 3.17573 0
M  V30 2970 H 272.06 2.62503 4.35855 0
M  V30 2971 H 271.458 -0.282241 5.64995 0
M  V30 2972 H 270.015 0.0592282 6.51773 0
M  V30 2973 N 273.449 -1.08991 1.13837 0
M  V30 2974 C 274.695 -1.81699 0.91417 0
M  V30 2975 C 275.05 -1.84264 -0.553594 0
M  V30 2976 O 274.343 -1.30313 -1.4046 0
M  V30 2977 C 274.537 -3.27042 1.44147 0
M  V30 2978 C 274.366 -3.38637 2.95897 0
M  V30 2979 C 273.136 -3.50177 3.64286 0
M  V30 2980 C 275.334 -3.30791 3.93804 0
M  V30 2981 N 273.316 -3.50501 5.04006 0
M  V30 2982 C 274.687 -3.38037 5.19741 0
M  V30 2983 C 276.742 -3.14488 3.86007 0
M  V30 2984 C 275.445 -3.30659 6.38793 0
M  V30 2985 C 277.471 -3.08438 5.04599 0
M  V30 2986 C 276.833 -3.1628 6.29402 0
M  V30 2987 H 272.932 -0.678967 0.387979 0
M  V30 2988 H 275.516 -1.30224 1.4474 0
M  V30 2989 H 273.687 -3.76976 0.935091 0
M  V30 2990 H 275.419 -3.87785 1.1578 0
M  V30 2991 H 272.174 -3.53815 3.1482 0
M  V30 2992 H 272.598 -3.54236 5.76928 0
M  V30 2993 H 277.24 -3.07291 2.90399 0
M  V30 2994 H 274.958 -3.36618 7.34652 0
M  V30 2995 H 278.544 -2.96952 5.0031 0
M  V30 2996 H 277.424 -3.1162 7.19627 0
M  V30 2997 N 274.927 -0.932562 -1.27047 0
M  V30 2998 C 275.837 -0.441219 -2.30414 0
M  V30 2999 C 276.853 0.480525 -1.67233 0
M  V30 3000 O 278.029 0.362151 -1.98117 0
M  V30 3001 C 275.094 0.293651 -3.45454 0
M  V30 3002 C 274.155 -0.663601 -4.2414 0
M  V30 3003 C 273.388 0.0362932 -5.33688 0
M  V30 3004 O 273.611 1.2548 -5.56427 0
M  V30 3005 O 272.545 -0.638015 -5.98509 0
M  V30 3006 H 276.371 -1.29962 -2.74488 0
M  V30 3007 H 273.956 -0.6981 -1.32087 0
M  V30 3008 H 275.838 0.707951 -4.15411 0
M  V30 3009 H 274.513 1.12758 -3.03426 0
M  V30 3010 H 273.42 -1.12768 -3.56699 0
M  V30 3011 H 274.753 -1.46489 -4.69896 0
M  V30 3012 N 276.405 1.4127 -0.698611 0
M  V30 3013 C 277.352 2.30773 -0.0352094 0
M  V30 3014 C 278.322 1.47273 0.768111 0
M  V30 3015 O 279.507 1.76053 0.735524 0
M  V30 3016 C 276.647 3.33346 0.893 0
M  V30 3017 C 275.76 4.31924 0.0809695 0
M  V30 3018 C 274.895 5.21566 1.0071 0
M  V30 3019 C 273.934 6.11811 0.188155 0
M  V30 3020 N 273.071 6.93926 1.06825 0
M  V30 3021 H 277.911 2.86943 -0.804207 0
M  V30 3022 H 275.448 1.4132 -0.408294 0
M  V30 3023 H 277.406 3.91368 1.44523 0
M  V30 3024 H 276.036 2.78719 1.62836 0
M  V30 3025 H 275.088 3.75825 -0.588224 0
M  V30 3026 H 276.4 4.95716 -0.553801 0
M  V30 3027 H 275.554 5.84437 1.62845 0
M  V30 3028 H 274.293 4.58008 1.67572 0
M  V30 3029 H 273.298 5.47986 -0.446254 0
M  V30 3030 H 274.523 6.77425 -0.476716 0
M  V30 3031 H 272.469 6.32973 1.72283 0
M  V30 3032 H 272.386 7.54416 0.489123 0
M  V30 3033 H 273.654 7.61262 1.67632 0
M  V30 3034 N 277.883 0.443576 1.51229 0
M  V30 3035 C 278.83 -0.364716 2.279 0
M  V30 3036 C 279.8 -1.0114 1.31757 0
M  V30 3037 O 280.985 -1.02912 1.60667 0
M  V30 3038 C 278.125 -1.45644 3.12861 0
M  V30 3039 C 277.238 -0.827269 4.24005 0
M  V30 3040 C 276.373 -1.89456 4.96266 0
M  V30 3041 C 275.412 -1.24416 5.99322 0
M  V30 3042 N 274.549 -2.25309 6.64966 0
M  V30 3043 H 279.389 0.295464 2.96532 0
M  V30 3044 H 276.926 0.157554 1.46254 0
M  V30 3045 H 278.884 -2.10076 3.6045 0
M  V30 3046 H 277.514 -2.08616 2.46331 0
M  V30 3047 H 276.566 -0.0710839 3.80334 0
M  V30 3048 H 277.878 -0.312481 4.9782 0
M  V30 3049 H 277.032 -2.61535 5.47434 0
M  V30 3050 H 275.771 -2.4431 4.22095 0
M  V30 3051 H 274.776 -0.508868 5.4744 0
M  V30 3052 H 276.001 -0.702882 6.75453 0
M  V30 3053 H 273.947 -2.79231 5.93604 0
M  V30 3054 H 273.864 -1.78739 7.34567 0
M  V30 3055 H 275.132 -2.96853 7.20763 0
M  V30 3056 N 279.361 -1.56624 0.175154 0
M  V30 3057 C 280.608 -1.96999 -0.468811 0
M  V30 3058 C 280.936 -1.06129 -1.62994 0
M  V30 3059 O 280.191 -0.0961771 -1.95464 0
M  V30 3060 C 280.49 -3.43419 -0.989864 0
M  V30 3061 C 280.156 -4.50866 0.0557687 0
M  V30 3062 C 278.818 -4.79975 0.343134 0
M  V30 3063 C 281.17 -5.15551 0.765308 0
M  V30 3064 C 278.498 -5.71066 1.34536 0
M  V30 3065 C 280.85 -6.07724 1.75654 0
M  V30 3066 C 279.514 -6.35199 2.05132 0
M  V30 3067 H 278.784 -0.720869 -0.17155 0
M  V30 3068 H 281.431 -1.89616 0.267924 0
M  V30 3069 H 279.736 -3.47772 -1.80449 0
M  V30 3070 H 281.433 -3.72002 -1.49719 0
M  V30 3071 H 278.023 -4.28229 -0.178381 0
M  V30 3072 H 282.207 -4.9317 0.556513 0
M  V30 3073 H 277.463 -5.90635 1.57988 0
M  V30 3074 H 281.637 -6.56912 2.31169 0
M  V30 3075 H 279.264 -7.05584 2.8294 0
M  V30 3076 N 280.839 0.0985539 -1.57292 0
M  V30 3077 C 281.787 1.1387 -2.02821 0
M  V30 3078 C 282.781 1.41676 -0.928666 0
M  V30 3079 O 283.987 1.41398 -1.11385 0
M  V30 3080 H 280.362 0.384419 -0.646317 0
M  V30 3081 H 282.333 0.728347 -2.89375 0
M  V30 3082 C 281.082 2.45166 -2.46554 0
M  V30 3083 H 280.405 2.24613 -3.3074 0
M  V30 3084 H 281.845 3.16456 -2.8219 0
M  V30 3085 C 280.304 3.09216 -1.33742 0
M  V30 3086 O 280.834 3.96163 -0.66464 0
M  V30 3087 N 279.04 2.69413 -1.08928 0
M  V30 3088 H 278.587 1.98801 -1.63817 0
M  V30 3089 H 278.545 3.12594 -0.336458 0
M  V30 3090 N 282.317 1.53212 0.369288 0
M  V30 3091 C 283.264 1.79388 1.45219 0
M  V30 3092 C 284.234 0.638059 1.53356 0
M  V30 3093 O 285.419 0.879852 1.69302 0
M  V30 3094 C 282.559 1.98623 2.82211 0
M  V30 3095 C 281.672 3.26337 2.8307 0
M  V30 3096 C 280.807 3.35779 4.11614 0
M  V30 3097 C 279.846 4.5754 4.06601 0
M  V30 3098 N 278.983 4.64155 5.26787 0
M  V30 3099 H 283.823 2.71794 1.22198 0
M  V30 3100 H 281.36 1.34642 0.592444 0
M  V30 3101 H 283.318 2.07761 3.61789 0
M  V30 3102 H 281.948 1.09558 3.03639 0
M  V30 3103 H 281 3.26171 1.95747 0
M  V30 3104 H 282.312 4.15988 2.75237 0
M  V30 3105 H 281.466 3.44208 4.99606 0
M  V30 3106 H 280.205 2.44137 4.22195 0
M  V30 3107 H 279.21 4.49215 3.16996 0
M  V30 3108 H 280.435 5.50519 3.97625 0
M  V30 3109 H 278.381 3.75413 5.3796 0
M  V30 3110 H 278.298 5.47706 5.21109 0
M  V30 3111 H 279.566 4.76863 6.16621 0
M  V30 3112 N 283.795 -0.628877 1.44509 0
M  V30 3113 C 284.705 -1.7694 1.54044 0
M  V30 3114 C 285.721 -1.68705 0.425987 0
M  V30 3115 O 286.897 -1.89442 0.683656 0
M  V30 3116 C 283.962 -3.13332 1.48405 0
M  V30 3117 C 283.023 -3.33181 2.70719 0
M  V30 3118 C 282.256 -4.63067 2.6534 0
M  V30 3119 O 282.479 -5.44017 1.71469 0
M  V30 3120 O 281.413 -4.85167 3.56226 0
M  V30 3121 H 285.239 -1.71848 2.50403 0
M  V30 3122 H 282.824 -0.790378 1.26781 0
M  V30 3123 H 284.706 -3.94634 1.47791 0
M  V30 3124 H 283.381 -3.1896 0.551898 0
M  V30 3125 H 282.288 -2.51549 2.769 0
M  V30 3126 H 283.621 -3.32416 3.62988 0
M  V30 3127 N 285.273 -1.31445 -0.869486 0
M  V30 3128 C 286.55 -1.11795 -1.60503 0
M  V30 3129 C 286.93 0.327168 -2.08549 0
M  V30 3130 O 286.278 1.32135 -1.8642 0
M  V30 3131 C 286.488 -2.13258 -2.76265 0
M  V30 3132 C 287.836 -2.45805 -3.46215 0
M  V30 3133 O 288.86 -2.11688 -2.86473 0
M  V30 3134 O 287.719 -3.04228 -4.5399 0
M  V30 3135 H 284.813 -0.430421 -0.706163 0
M  V30 3136 H 287.359 -1.42925 -0.914907 0
M  V30 3137 H 286.131 -3.10461 -2.3818 0
M  V30 3138 H 285.754 -1.83035 -3.52964 0
M  V30 3139 N 286.751 1.08385 -1.14413 0
M  V30 3140 C 287.979 1.84517 -0.936001 0
M  V30 3141 C 288.394 1.81626 0.515503 0
M  V30 3142 O 287.751 1.22008 1.35721 0
M  V30 3143 C 287.802 3.32049 -1.42918 0
M  V30 3144 O 287.523 3.34951 -2.82381 0
M  V30 3145 C 289.024 4.24986 -1.26103 0
M  V30 3146 H 286.244 0.582491 -0.333084 0
M  V30 3147 H 288.788 1.36885 -1.5193 0
M  V30 3148 H 286.943 3.7707 -0.888641 0
M  V30 3149 H 287.357 4.27048 -3.04517 0
M  V30 3150 H 288.831 5.26615 -1.6547 0
M  V30 3151 H 289.308 4.38726 -0.20392 0
M  V30 3152 H 289.914 3.85791 -1.79012 0
M  V30 3153 N 288.23 0.939286 1.26551 0
M  V30 3154 C 289.177 0.446088 2.26448 0
M  V30 3155 C 290.147 -0.493234 1.58608 0
M  V30 3156 O 291.332 -0.409857 1.86346 0
M  V30 3157 C 288.472 -0.284375 3.43926 0
M  V30 3158 C 287.585 0.690399 4.26448 0
M  V30 3159 C 286.72 -0.0610712 5.31165 0
M  V30 3160 C 285.759 0.905649 6.05363 0
M  V30 3161 N 284.896 0.186055 7.01853 0
M  V30 3162 H 289.736 1.30291 2.68008 0
M  V30 3163 H 287.273 0.65371 1.31776 0
M  V30 3164 H 289.231 -0.724313 4.10864 0
M  V30 3165 H 287.861 -1.10535 3.03285 0
M  V30 3166 H 286.913 1.24885 3.59316 0
M  V30 3167 H 288.225 1.42873 4.779 0
M  V30 3168 H 287.379 -0.56038 6.04106 0
M  V30 3169 H 286.118 -0.832297 4.80546 0
M  V30 3170 H 285.123 1.4161 5.3125 0
M  V30 3171 H 286.348 1.67685 6.58072 0
M  V30 3172 H 284.294 -0.566714 6.53548 0
M  V30 3173 H 284.211 0.863752 7.51049 0
M  V30 3174 H 285.479 -0.292221 7.78952 0
M  V30 3175 N 289.708 -1.40897 0.706093 0
M  V30 3176 C 290.618 -2.3455 0.0482286 0
M  V30 3177 C 291.634 -1.56796 -0.754396 0
M  V30 3178 O 292.81 -1.89228 -0.689538 0
M  V30 3179 C 289.875 -3.35625 -0.869303 0
M  V30 3180 C 288.936 -4.29261 -0.0576994 0
M  V30 3181 C 288.169 -5.25508 -0.931531 0
M  V30 3182 O 288.392 -5.27472 -2.17092 0
M  V30 3183 O 287.326 -6.00727 -0.375587 0
M  V30 3184 H 291.152 -2.92407 0.820476 0
M  V30 3185 H 288.737 -1.4193 0.4665 0
M  V30 3186 H 290.619 -3.97635 -1.39514 0
M  V30 3187 H 289.294 -2.80196 -1.62086 0
M  V30 3188 H 288.201 -3.70566 0.512988 0
M  V30 3189 H 289.534 -4.87817 0.655426 0
M  V30 3190 N 291.186 -0.45159 -1.50991 0
M  V30 3191 C 292.096 0.358431 -2.31846 0
M  V30 3192 C 293.112 1.01438 -1.41373 0
M  V30 3193 O 294.288 1.00663 -1.74439 0
M  V30 3194 C 291.353 1.43704 -3.15515 0
M  V30 3195 C 290.414 0.799742 -4.21785 0
M  V30 3196 C 289.647 1.82696 -5.01456 0
M  V30 3197 O 289.87 3.05105 -4.81941 0
M  V30 3198 O 288.804 1.40958 -5.85162 0
M  V30 3199 H 292.63 -0.302032 -3.02194 0
M  V30 3200 H 290.215 -0.213825 -1.47862 0
M  V30 3201 H 292.097 2.06227 -3.67489 0
M  V30 3202 H 290.772 2.08133 -2.47916 0
M  V30 3203 H 289.679 0.136084 -3.73852 0
M  V30 3204 H 291.012 0.198718 -4.91799 0
M  V30 3205 N 292.664 1.56529 -0.183458 0
M  V30 3206 C 293.611 2.18546 0.742055 0
M  V30 3207 C 294.581 1.12912 1.2182 0
M  V30 3208 O 295.766 1.41115 1.28418 0
M  V30 3209 C 292.906 2.83977 1.96089 0
M  V30 3210 C 292.019 4.04105 1.52719 0
M  V30 3211 C 291.154 4.57427 2.70063 0
M  V30 3212 C 290.193 5.69938 2.23243 0
M  V30 3213 N 289.33 6.17717 3.33722 0
M  V30 3214 H 294.17 2.97284 0.206432 0
M  V30 3215 H 291.707 1.46823 0.0901571 0
M  V30 3216 H 293.665 3.20077 2.67594 0
M  V30 3217 H 292.295 2.07822 2.47002 0
M  V30 3218 H 291.347 3.73745 0.708436 0
M  V30 3219 H 292.659 4.85513 1.1436 0
M  V30 3220 H 291.813 4.95772 3.49708 0
M  V30 3221 H 290.552 3.75101 3.11689 0
M  V30 3222 H 289.557 5.31133 1.42048 0
M  V30 3223 H 290.782 6.54073 1.82661 0
M  V30 3224 H 288.728 5.38317 3.74902 0
M  V30 3225 H 288.645 6.94146 2.99495 0
M  V30 3226 H 289.913 6.60713 4.13616 0
M  V30 3227 N 294.142 -0.090211 1.57342 0
M  V30 3228 C 295.389 -0.792807 1.86335 0
M  V30 3229 C 295.717 -1.78494 0.772662 0
M  V30 3230 O 294.972 -1.94305 -0.233258 0
M  V30 3231 C 295.271 -1.55222 3.21933 0
M  V30 3232 C 294.937 -0.701765 4.45406 0
M  V30 3233 C 293.599 -0.467334 4.78925 0
M  V30 3234 C 295.951 -0.11086 5.21082 0
M  V30 3235 C 293.279 0.367785 5.85546 0
M  V30 3236 C 295.631 0.711609 6.28585 0
M  V30 3237 C 294.295 0.956086 6.60617 0
M  V30 3238 H 293.565 -0.290109 0.681849 0
M  V30 3239 H 296.212 -0.0541332 1.91423 0
M  V30 3240 H 294.517 -2.3626 3.12551 0
M  V30 3241 H 296.214 -2.10032 3.41595 0
M  V30 3242 H 292.804 -0.894598 4.1916 0
M  V30 3243 H 296.988 -0.279129 4.95514 0
M  V30 3244 H 292.244 0.566128 6.08773 0
M  V30 3245 H 296.418 1.17632 6.86393 0
M  V30 3246 H 294.045 1.60499 7.43064 0
M  V30 3247 N 295.62 -1.53406 -0.361157 0
M  V30 3248 C 296.866 -1.70999 -1.1014 0
M  V30 3249 C 297.221 -0.458425 -1.86859 0
M  V30 3250 O 296.514 0.548654 -1.83577 0
M  V30 3251 C 296.708 -2.90211 -2.08596 0
M  V30 3252 C 296.537 -4.26841 -1.41553 0
M  V30 3253 C 295.307 -4.91621 -1.16778 0
M  V30 3254 C 297.505 -5.07212 -0.850915 0
M  V30 3255 N 295.487 -6.12164 -0.461312 0
M  V30 3256 C 296.858 -6.19394 -0.274046 0
M  V30 3257 C 298.913 -4.92218 -0.750036 0
M  V30 3258 C 297.616 -7.18221 0.393868 0
M  V30 3259 C 299.642 -5.91322 -0.095894 0
M  V30 3260 C 299.004 -7.0283 0.470081 0
M  V30 3261 H 295.103 -0.678939 -0.388028 0
M  V30 3262 H 297.687 -1.90811 -0.38722 0
M  V30 3263 H 295.858 -2.71931 -2.77323 0
M  V30 3264 H 297.59 -2.96606 -2.7533 0
M  V30 3265 H 294.345 -4.50849 -1.45024 0
M  V30 3266 H 294.769 -6.76888 -0.123312 0
M  V30 3267 H 299.411 -4.06192 -1.17337 0
M  V30 3268 H 297.129 -8.03835 0.82914 0
M  V30 3269 H 300.715 -5.81797 -0.0187075 0
M  V30 3270 H 299.595 -7.782 0.968241 0
M  V30 3271 N 297.098 0.621204 -1.44841 0
M  V30 3272 C 298.509 1.20298 -1.42777 0
M  V30 3273 C 298.86 1.95639 -0.148259 0
M  V30 3274 O 297.985 2.02955 0.750892 0
M  V30 3275 C 298.58 2.1882 -2.58657 0
M  V30 3276 C 297.139 2.72403 -2.59756 0
M  V30 3277 C 296.286 1.4757 -2.34773 0
M  V30 3278 H 299.237 0.411297 -1.53278 0
M  V30 3279 H 299.258 3.01607 -2.31977 0
M  V30 3280 H 298.77 1.63957 -3.51766 0
M  V30 3281 H 296.871 3.31242 -1.70615 0
M  V30 3282 H 296.984 3.17765 -3.58556 0
M  V30 3283 H 295.348 1.76051 -1.8406 0
M  V30 3284 H 296.131 0.945954 -3.3001 0
M  V30 3285 N 298.576 1.31904 0.862503 0
M  V30 3286 C 299.524 1.20125 1.9918 0
M  V30 3287 C 300.518 0.107824 1.69056 0
M  V30 3288 O 301.724 0.270223 1.7796 0
M  V30 3289 H 298.099 0.372148 0.65346 0
M  V30 3290 H 300.07 2.15652 2.06244 0
M  V30 3291 C 298.819 0.933099 3.34946 0
M  V30 3292 H 298.142 1.76664 3.5865 0
M  V30 3293 H 299.582 0.890892 4.14535 0
M  V30 3294 C 298.041 -0.364172 3.34926 0
M  V30 3295 O 298.571 -1.37858 3.77304 0
M  V30 3296 N 296.777 -0.383362 2.8806 0
M  V30 3297 H 296.324 0.442651 2.53768 0
M  V30 3298 H 296.282 -1.25123 2.8843 0
M  V30 3299 N 300.054 -1.07777 1.14986 0
M  V30 3300 C 301.001 -2.14867 0.842672 0
M  V30 3301 C 301.971 -1.6486 -0.202552 0
M  V30 3302 O 303.156 -1.90668 -0.0710568 0
M  V30 3303 C 300.296 -3.43486 0.333363 0
M  V30 3304 C 299.409 -4.07306 1.43965 0
M  V30 3305 C 298.544 -5.23744 0.886914 0
M  V30 3306 C 297.583 -5.79517 1.97043 0
M  V30 3307 N 296.72 -6.87291 1.4344 0
M  V30 3308 H 301.56 -2.40485 1.75986 0
M  V30 3309 H 299.097 -1.1801 0.878179 0
M  V30 3310 H 301.055 -4.17195 0.0198163 0
M  V30 3311 H 299.685 -3.18133 -0.546916 0
M  V30 3312 H 298.737 -3.31293 1.86946 0
M  V30 3313 H 300.049 -4.44771 2.25788 0
M  V30 3314 H 299.203 -6.04419 0.525651 0
M  V30 3315 H 297.942 -4.87685 0.0377957 0
M  V30 3316 H 296.947 -4.97491 2.34057 0
M  V30 3317 H 298.172 -6.17632 2.82325 0
M  V30 3318 H 296.118 -6.5318 0.607567 0
M  V30 3319 H 296.035 -7.23617 2.18895 0
M  V30 3320 H 297.303 -7.71682 1.10124 0
M  V30 3321 N 301.532 -0.945985 -1.26051 0
M  V30 3322 C 302.48 -0.450259 -2.282 0
M  V30 3323 C 303.474 0.47497 -1.62605 0
M  V30 3324 O 304.68 0.352653 -1.76512 0
M  V30 3325 H 301.055 -0.127081 -0.741184 0
M  V30 3326 H 303.026 -1.32422 -2.67408 0
M  V30 3327 C 301.775 0.26467 -3.46691 0
M  V30 3328 H 301.098 -0.438123 -3.97392 0
M  V30 3329 H 302.538 0.575678 -4.20074 0
M  V30 3330 C 300.997 1.48416 -3.02447 0
M  V30 3331 O 301.527 2.58227 -3.07704 0
M  V30 3332 N 299.733 1.34243 -2.57735 0
M  V30 3333 H 299.28 0.448994 -2.53657 0
M  V30 3334 H 299.238 2.15957 -2.28495 0
M  V30 3335 N 303.011 1.40521 -0.713556 0
M  V30 3336 C 304.239 2.05237 -0.261775 0
M  V30 3337 C 304.654 1.53755 1.09567 0
M  V30 3338 O 304.011 0.693268 1.6882 0
M  V30 3339 C 304.062 3.60763 -0.230706 0
M  V30 3340 O 303.783 4.10345 -1.53455 0
M  V30 3341 C 305.284 4.42651 0.239874 0
M  V30 3342 H 302.504 0.660533 -0.118057 0
M  V30 3343 H 305.048 1.79967 -0.971192 0
M  V30 3344 H 303.203 3.8501 0.429661 0
M  V30 3345 H 303.617 5.04526 -1.43366 0
M  V30 3346 H 305.091 5.51599 0.210468 0
M  V30 3347 H 305.568 4.20082 1.28171 0
M  V30 3348 H 306.174 4.23507 -0.390142 0
M  V30 3349 N 304.489 0.459591 1.5075 0
M  V30 3350 C 305.719 -0.0972338 2.06371 0
M  V30 3351 C 306.127 -1.35074 1.32483 0
M  V30 3352 O 305.47 -1.79637 0.384226 0
M  V30 3353 C 305.532 -0.462759 3.56509 0
M  V30 3354 C 305.196 0.687084 4.51805 0
M  V30 3355 C 306.193 1.56578 4.95761 0
M  V30 3356 C 303.878 0.874144 4.94635 0
M  V30 3357 C 305.872 2.61604 5.81242 0
M  V30 3358 C 303.559 1.92765 5.79901 0
M  V30 3359 C 304.557 2.79697 6.23104 0
M  V30 3360 O 304.245 3.83235 7.06673 0
M  V30 3361 H 303.977 -0.00140687 0.675999 0
M  V30 3362 H 306.531 0.644011 1.95043 0
M  V30 3363 H 304.761 -1.25703 3.65699 0
M  V30 3364 H 306.45 -0.953323 3.94546 0
M  V30 3365 H 307.216 1.4329 4.6335 0
M  V30 3366 H 303.095 0.207006 4.60535 0
M  V30 3367 H 306.639 3.29489 6.14884 0
M  V30 3368 H 302.536 2.06064 6.11725 0
M  V30 3369 H 303.304 3.80084 7.24899 0
M  V30 3370 N 305.967 -1.56429 0.191757 0
M  V30 3371 C 306.914 -2.18936 -0.730454 0
M  V30 3372 C 307.884 -1.13557 -1.21219 0
M  V30 3373 O 309.069 -1.41794 -1.27668 0
M  V30 3374 C 306.209 -2.85013 -1.9458 0
M  V30 3375 C 305.322 -4.04909 -1.50574 0
M  V30 3376 C 304.457 -4.58853 -2.67634 0
M  V30 3377 C 303.496 -5.71114 -2.20217 0
M  V30 3378 N 302.633 -6.19478 -3.30442 0
M  V30 3379 H 307.473 -2.97389 -0.190664 0
M  V30 3380 H 305.01 -1.46869 -0.0823694 0
M  V30 3381 H 306.968 -3.21492 -2.65893 0
M  V30 3382 H 305.598 -2.09129 -2.45896 0
M  V30 3383 H 304.65 -3.74115 -0.688605 0
M  V30 3384 H 305.962 -4.86113 -1.11784 0
M  V30 3385 H 305.116 -4.97619 -3.47074 0
M  V30 3386 H 303.855 -3.76749 -3.09696 0
M  V30 3387 H 302.86 -5.31879 -1.3923 0
M  V30 3388 H 304.085 -6.55033 -1.79189 0
M  V30 3389 H 302.031 -5.40297 -3.72041 0
M  V30 3390 H 301.948 -6.95725 -2.9581 0
M  V30 3391 H 303.216 -6.62898 -4.10106 0
M  V30 3392 N 307.445 0.0818655 -1.57387 0
M  V30 3393 C 308.67 0.799946 -1.91352 0
M  V30 3394 C 309.095 1.70833 -0.787258 0
M  V30 3395 O 308.453 1.79419 0.26048 0
M  V30 3396 C 308.501 1.57812 -3.24234 0
M  V30 3397 O 307.605 2.68806 -3.12757 0
M  V30 3398 H 306.946 0.21891 -0.626877 0
M  V30 3399 H 309.476 0.0531256 -2.04531 0
M  V30 3400 H 309.486 1.95952 -3.57864 0
M  V30 3401 H 308.161 0.911548 -4.05788 0
M  V30 3402 H 306.738 2.33597 -2.90666 0
M  V30 3403 N 308.923 1.53595 0.353017 0
M  V30 3404 C 310.172 1.69603 1.09168 0
M  V30 3405 C 310.485 0.460925 1.90092 0
M  V30 3406 O 311.691 0.501774 2.66823 0
M  V30 3407 C 310.147 2.99872 1.9901 0
M  V30 3408 C 309.755 4.30687 1.23339 0
M  V30 3409 C 311.499 3.25246 2.72792 0
M  V30 3410 C 309.406 5.52036 2.12156 0
M  V30 3411 H 308.336 0.631966 0.411261 0
M  V30 3412 H 310.987 1.80096 0.351802 0
M  V30 3413 H 309.369 2.83212 2.7678 0
M  V30 3414 H 310.543 4.58019 0.505456 0
M  V30 3415 H 308.858 4.11853 0.613663 0
M  V30 3416 H 311.455 4.13095 3.39495 0
M  V30 3417 H 311.798 2.41846 3.38846 0
M  V30 3418 H 312.331 3.42638 2.021 0
M  V30 3419 H 309.07 6.37951 1.50659 0
M  V30 3420 H 308.59 5.28966 2.82764 0
M  V30 3421 H 310.269 5.87313 2.71427 0
M  V30 3422 N 310.401 -0.613514 1.45168 0
M  V30 3423 C 311.333 -1.73825 1.4939 0
M  V30 3424 C 312.346 -1.58175 0.385304 0
M  V30 3425 O 313.535 -1.66165 0.652036 0
M  V30 3426 C 310.635 -3.11758 1.32891 0
M  V30 3427 C 309.808 -3.53704 2.57317 0
M  V30 3428 C 308.867 -4.70579 2.35462 0
M  V30 3429 O 307.893 -4.77996 3.09044 0
M  V30 3430 N 309.095 -5.63454 1.39644 0
M  V30 3431 H 311.86 -1.70669 2.46358 0
M  V30 3432 H 309.421 -0.79862 1.40832 0
M  V30 3433 H 311.413 -3.87692 1.1609 0
M  V30 3434 H 309.983 -3.09456 0.442218 0
M  V30 3435 H 309.203 -2.67794 2.89275 0
M  V30 3436 H 310.491 -3.78486 3.40038 0
M  V30 3437 H 309.889 -5.6017 0.789062 0
M  V30 3438 H 308.446 -6.38944 1.28816 0
M  V30 3439 N 311.879 -1.3236 -0.855495 0
M  V30 3440 C 312.812 -1.15559 -1.96777 0
M  V30 3441 C 313.79 -0.0552681 -1.62506 0
M  V30 3442 O 314.974 -0.214419 -1.87277 0
M  V30 3443 C 312.101 -0.768851 -3.29858 0
M  V30 3444 C 311.147 -1.87429 -3.83109 0
M  V30 3445 S 311.98 -3.48243 -4.06801 0
M  V30 3446 C 313.136 -3.11539 -5.42858 0
M  V30 3447 H 313.369 -2.09717 -2.10727 0
M  V30 3448 H 310.902 -1.17011 -1.00737 0
M  V30 3449 H 312.86 -0.55248 -4.06765 0
M  V30 3450 H 311.521 0.153857 -3.13723 0
M  V30 3451 H 310.714 -1.55667 -4.79358 0
M  V30 3452 H 310.316 -2.04647 -3.13042 0
M  V30 3453 H 312.608 -2.61331 -6.2507 0
M  V30 3454 H 313.551 -4.06806 -5.79582 0
M  V30 3455 H 313.959 -2.48582 -5.06821 0
M  V30 3456 N 313.357 1.07166 -1.15556 0
M  V30 3457 C 314.29 2.13808 -0.797593 0
M  V30 3458 C 315.268 1.6101 0.226812 0
M  V30 3459 O 316.452 1.88161 0.112932 0
M  V30 3460 C 313.579 3.38187 -0.186371 0
M  V30 3461 C 312.625 4.09766 -1.18297 0
M  V30 3462 S 313.458 4.60932 -2.72584 0
M  V30 3463 C 314.614 5.88583 -2.12886 0
M  V30 3464 H 314.847 2.43843 -1.70083 0
M  V30 3465 H 312.38 1.19467 -0.978106 0
M  V30 3466 H 314.338 4.10189 0.159837 0
M  V30 3467 H 312.999 3.06326 0.694489 0
M  V30 3468 H 312.192 4.99065 -0.703562 0
M  V30 3469 H 311.794 3.43736 -1.47381 0
M  V30 3470 H 314.086 6.60866 -1.49208 0
M  V30 3471 H 315.029 6.41241 -3.0036 0
M  V30 3472 H 315.437 5.42194 -1.57116 0
M  V30 3473 N 314.835 0.952656 1.25548 0
M  V30 3474 C 316.251 0.656769 1.4546 0
M  V30 3475 C 316.451 -0.78633 1.85524 0
M  V30 3476 O 315.507 -1.56183 1.98402 0
M  V30 3477 C 316.82 1.62801 2.52817 0
M  V30 3478 C 318.368 1.63897 2.66659 0
M  V30 3479 C 318.843 2.5978 3.77198 0
M  V30 3480 N 320.334 2.58133 3.84606 0
M  V30 3481 C 321.069 3.29003 4.69621 0
M  V30 3482 N 320.565 4.09339 5.58939 0
M  V30 3483 N 322.358 3.179 4.63569 0
M  V30 3484 H 314.509 1.88526 0.978344 0
M  V30 3485 H 316.772 0.810815 0.491206 0
M  V30 3486 H 316.478 2.65869 2.30232 0
M  V30 3487 H 316.352 1.38898 3.50695 0
M  V30 3488 H 318.739 0.615481 2.8861 0
M  V30 3489 H 318.82 1.91858 1.69187 0
M  V30 3490 H 318.464 3.62254 3.55997 0
M  V30 3491 H 318.394 2.29105 4.7415 0
M  V30 3492 H 320.885 1.99809 3.20757 0
M  V30 3493 H 321.198 4.6034 6.20731 0
M  V30 3494 H 319.543 4.13438 5.58654 0
M  V30 3495 H 322.734 2.54612 3.92798 0
M  V30 3496 H 322.907 3.73398 5.29602 0
M  V30 3497 N 316.313 -1.40141 0.720998 0
M  V30 3498 C 317.245 -2.29177 0.0324669 0
M  V30 3499 C 318.258 -1.46105 -0.718126 0
M  V30 3500 O 319.447 -1.69335 -0.564608 0
M  V30 3501 C 316.547 -3.24473 -0.978292 0
M  V30 3502 C 315.72 -4.36423 -0.292115 0
M  V30 3503 C 314.779 -5.12122 -1.20901 0
M  V30 3504 O 313.805 -5.64981 -0.691766 0
M  V30 3505 N 315.007 -5.21992 -2.53978 0
M  V30 3506 H 317.772 -2.88909 0.796984 0
M  V30 3507 H 315.333 -1.51569 0.569068 0
M  V30 3508 H 317.325 -3.71987 -1.59398 0
M  V30 3509 H 315.895 -2.65871 -1.64413 0
M  V30 3510 H 315.115 -3.90967 0.503847 0
M  V30 3511 H 316.403 -5.08467 0.183971 0
M  V30 3512 H 315.801 -4.8054 -2.98493 0
M  V30 3513 H 314.358 -5.72995 -3.10677 0
M  V30 3514 N 317.792 -0.46758 -1.50504 0
M  V30 3515 C 319.022 0.086288 -2.0642 0
M  V30 3516 C 319.43 1.34369 -1.33197 0
M  V30 3517 O 318.773 1.79431 -0.393747 0
M  V30 3518 C 318.835 0.443846 -3.5675 0
M  V30 3519 C 318.499 -0.711035 -4.51435 0
M  V30 3520 C 319.496 -1.59205 -4.94924 0
M  V30 3521 C 317.181 -0.900363 -4.94165 0
M  V30 3522 C 319.175 -2.64683 -5.79846 0
M  V30 3523 C 316.862 -1.95837 -5.7887 0
M  V30 3524 C 317.86 -2.82997 -6.21612 0
M  V30 3525 O 317.548 -3.86977 -7.0463 0
M  V30 3526 H 317.28 -0.00217814 -0.675996 0
M  V30 3527 H 319.834 -0.654346 -1.94698 0
M  V30 3528 H 318.064 1.23762 -3.6636 0
M  V30 3529 H 319.753 0.932386 -3.95046 0
M  V30 3530 H 320.519 -1.45745 -4.62583 0
M  V30 3531 H 316.398 -0.231427 -4.60419 0
M  V30 3532 H 319.942 -3.32745 -6.13128 0
M  V30 3533 H 315.839 -2.09305 -6.10624 0
M  V30 3534 H 316.607 -3.83923 -7.22873 0
M  V30 3535 N 319.27 1.56325 -0.20005 0
M  V30 3536 C 320.498 2.02105 0.442874 0
M  V30 3537 C 320.913 1.08014 1.5485 0
M  V30 3538 O 320.27 0.0858797 1.82298 0
M  V30 3539 C 320.321 3.47549 0.994583 0
M  V30 3540 O 320.042 4.38049 -0.0669322 0
M  V30 3541 C 321.543 4.0887 1.7129 0
M  V30 3542 H 318.763 0.661807 0.110691 0
M  V30 3543 H 321.307 2.02134 -0.310207 0
M  V30 3544 H 319.462 3.48204 1.69803 0
M  V30 3545 H 319.876 5.23368 0.344462 0
M  V30 3546 H 321.35 5.12475 2.05118 0
M  V30 3547 H 321.827 3.52615 2.61838 0
M  V30 3548 H 322.433 4.12002 1.05518 0
M  V30 3549 N 320.748 -0.0735177 1.57428 0
M  V30 3550 C 321.973 -0.789787 1.91774 0
M  V30 3551 C 322.398 -1.70413 0.796306 0
M  V30 3552 O 321.756 -1.79555 -0.250961 0
M  V30 3553 C 321.804 -1.5609 3.25067 0
M  V30 3554 O 320.908 -2.67144 3.14178 0
M  V30 3555 H 320.249 -0.215582 0.628029 0
M  V30 3556 H 322.779 -0.0422781 2.04556 0
M  V30 3557 H 322.789 -1.94052 3.58898 0
M  V30 3558 H 321.464 -0.890015 4.06265 0
M  V30 3559 H 320.041 -2.32052 2.91901 0
M  V30 3560 N 322.226 -1.5378 -0.344866 0
M  V30 3561 C 323.473 -1.70963 -1.08526 0
M  V30 3562 C 323.801 -0.472126 -1.88683 0
M  V30 3563 O 323.056 0.546116 -1.87926 0
M  V30 3564 C 323.355 -2.92407 -2.05506 0
M  V30 3565 C 323.021 -4.28066 -1.41671 0
M  V30 3566 C 321.683 -4.64951 -1.2399 0
M  V30 3567 C 324.035 -5.12344 -0.956726 0
M  V30 3568 C 321.363 -5.83733 -0.589277 0
M  V30 3569 C 323.715 -6.3179 -0.320015 0
M  V30 3570 C 322.379 -6.67372 -0.130881 0
M  V30 3571 H 321.649 -0.625598 -0.397124 0
M  V30 3572 H 324.296 -1.87995 -0.36469 0
M  V30 3573 H 322.601 -2.69973 -2.8394 0
M  V30 3574 H 324.298 -3.02895 -2.62784 0
M  V30 3575 H 320.888 -3.99034 -1.56429 0
M  V30 3576 H 325.072 -4.8438 -1.08118 0
M  V30 3577 H 320.328 -6.09877 -0.431344 0
M  V30 3578 H 324.502 -6.96386 0.0445072 0
M  V30 3579 H 322.129 -7.59273 0.375318 0
M  V30 3580 N 323.704 0.605807 -1.45491 0
M  V30 3581 C 324.654 1.71074 -1.50724 0
M  V30 3582 C 325.638 1.5658 -0.37033 0
M  V30 3583 O 326.83 1.65887 -0.617299 0
M  V30 3584 C 323.959 3.0983 -1.47852 0
M  V30 3585 C 323.045 3.29704 -2.66751 0
M  V30 3586 N 323.436 3.19831 -3.91844 0
M  V30 3587 C 321.734 3.60579 -2.62486 0
M  V30 3588 C 322.435 3.41083 -4.71208 0
M  V30 3589 N 321.411 3.65157 -4.02693 0
M  V30 3590 H 325.213 1.61937 -2.45263 0
M  V30 3591 H 322.727 0.80912 -1.40808 0
M  V30 3592 H 324.724 3.89101 -1.49686 0
M  V30 3593 H 323.384 3.20115 -0.543714 0
M  V30 3594 H 324.395 2.98194 -4.23439 0
M  V30 3595 H 321.072 3.7769 -1.77922 0
M  V30 3596 H 322.462 3.38828 -5.80211 0
M  V30 3597 N 325.182 1.32811 0.848464 0
M  V30 3598 C 326.429 1.23724 1.60308 0
M  V30 3599 C 326.757 -0.1994 1.93475 0
M  V30 3600 O 326.012 -1.15406 1.5805 0
M  V30 3601 C 326.311 2.04831 2.92881 0
M  V30 3602 C 325.977 3.54125 2.79117 0
M  V30 3603 C 324.639 3.94829 2.7507 0
M  V30 3604 C 326.991 4.49036 2.64606 0
M  V30 3605 C 324.319 5.28675 2.544 0
M  V30 3606 C 326.671 5.83033 2.4547 0
M  V30 3607 C 325.335 6.22931 2.39819 0
M  V30 3608 H 324.605 0.452737 0.586609 0
M  V30 3609 H 327.252 1.64301 0.983743 0
M  V30 3610 H 325.557 1.57001 3.58968 0
M  V30 3611 H 327.254 1.95164 3.50303 0
M  V30 3612 H 323.844 3.21801 2.83094 0
M  V30 3613 H 328.028 4.18505 2.66772 0
M  V30 3614 H 323.284 5.58637 2.48465 0
M  V30 3615 H 327.458 6.56186 2.33222 0
M  V30 3616 H 325.085 7.26584 2.23562 0
M  V30 3617 N 326.66 -1.06551 1.16123 0
M  V30 3618 C 327.623 -2.12132 0.867906 0
M  V30 3619 C 328.623 -1.60224 -0.135944 0
M  V30 3620 O 329.813 -1.73943 0.0946422 0
M  V30 3621 C 326.945 -3.396 0.297419 0
M  V30 3622 H 328.138 -2.39586 1.80385 0
M  V30 3623 H 325.691 -1.22574 0.969812 0
M  V30 3624 H 326.426 -3.17794 -0.64633 0
M  V30 3625 H 326.211 -3.78581 1.02073 0
M  V30 3626 H 327.701 -4.17455 0.110052 0
M  V30 3627 N 328.138 -0.959301 -1.25041 0
M  V30 3628 C 329.363 -0.633507 -1.97488 0
M  V30 3629 C 329.788 0.788555 -1.70773 0
M  V30 3630 O 329.146 1.53394 -0.966431 0
M  V30 3631 C 329.194 -0.904057 -3.49083 0
M  V30 3632 O 328.298 0.0147939 -4.12397 0
M  V30 3633 H 327.639 -0.240368 -0.618966 0
M  V30 3634 H 330.169 -1.28717 -1.59038 0
M  V30 3635 H 330.179 -0.832203 -3.99423 0
M  V30 3636 H 328.854 -1.94048 -3.67856 0
M  V30 3637 H 327.431 -0.109664 -3.72739 0
M  V30 3638 N 329.616 1.39756 -0.72842 0
M  V30 3639 C 330.546 2.33289 -0.0991354 0
M  V30 3640 C 331.527 1.53568 0.731489 0
M  V30 3641 O 332.712 1.81987 0.677807 0
M  V30 3642 C 329.842 3.3763 0.813834 0
M  V30 3643 C 328.796 4.2791 0.0878663 0
M  V30 3644 C 328.122 5.22894 1.11741 0
M  V30 3645 C 329.422 5.11314 -1.06563 0
M  V30 3646 H 331.116 2.86163 -0.880408 0
M  V30 3647 H 328.662 1.37591 -0.424819 0
M  V30 3648 H 330.615 4.0201 1.26355 0
M  V30 3649 H 329.339 2.83181 1.62715 0
M  V30 3650 H 327.998 3.65 -0.342159 0
M  V30 3651 H 327.646 4.64744 1.92412 0
M  V30 3652 H 327.346 5.84143 0.636477 0
M  V30 3653 H 328.87 5.90151 1.56697 0
M  V30 3654 H 330.284 5.69076 -0.694671 0
M  V30 3655 H 328.681 5.81671 -1.47577 0
M  V30 3656 H 329.751 4.46534 -1.89038 0
M  V30 3657 N 331.094 0.475555 1.50254 0
M  V30 3658 C 332.004 -0.321501 2.32387 0
M  V30 3659 C 333.02 -0.991755 1.42969 0
M  V30 3660 O 334.196 -0.978747 1.76018 0
M  V30 3661 C 331.261 -1.38667 3.17762 0
M  V30 3662 C 330.322 -0.732538 4.23004 0
M  V30 3663 C 329.555 -1.74695 5.04299 0
M  V30 3664 O 329.778 -2.97399 4.86734 0
M  V30 3665 O 328.712 -1.31631 5.8733 0
M  V30 3666 H 332.538 0.350071 3.01676 0
M  V30 3667 H 330.123 0.237321 1.47503 0
M  V30 3668 H 332.005 -2.00354 3.70724 0
M  V30 3669 H 330.68 -2.04163 2.51196 0
M  V30 3670 H 329.587 -0.0765902 3.74022 0
M  V30 3671 H 330.92 -0.120452 4.92053 0
M  V30 3672 N 332.573 -1.56217 0.208337 0
M  V30 3673 C 333.85 -1.89739 -0.475234 0
M  V30 3674 C 334.23 -1.1238 -1.78701 0
M  V30 3675 O 333.578 -0.228979 -2.2735 0
M  V30 3676 C 333.788 -3.42289 -0.681101 0
M  V30 3677 C 335.136 -4.12789 -0.994507 0
M  V30 3678 O 336.16 -3.47814 -0.768357 0
M  V30 3679 O 335.019 -5.27649 -1.42299 0
M  V30 3680 H 332.113 -0.788478 -0.249461 0
M  V30 3681 H 334.659 -1.67855 0.249538 0
M  V30 3682 H 333.431 -3.90534 0.244722 0
M  V30 3683 H 333.054 -3.69909 -1.45785 0
M  V30 3684 N 334.051 0.0651679 -1.57465 0
M  V30 3685 C 335.297 0.764193 -1.87851 0
M  V30 3686 C 335.63 1.76889 -0.801495 0
M  V30 3687 O 334.905 1.93594 0.187528 0
M  V30 3688 C 335.188 1.46625 -3.28897 0
M  V30 3689 C 335.041 0.477515 -4.47258 0
M  V30 3690 C 336.36 2.4095 -3.68281 0
M  V30 3691 H 333.479 0.276351 -0.683227 0
M  V30 3692 H 336.121 0.0272868 -1.8998 0
M  V30 3693 H 334.271 2.09438 -3.27212 0
M  V30 3694 H 335.943 -0.145922 -4.61069 0
M  V30 3695 H 334.186 -0.206576 -4.33308 0
M  V30 3696 H 334.857 1.0065 -5.42746 0
M  V30 3697 H 337.333 1.88209 -3.71102 0
M  V30 3698 H 336.209 2.87072 -4.67847 0
M  V30 3699 H 336.47 3.26049 -2.98571 0
M  V30 3700 N 335.529 1.53961 0.336706 0
M  V30 3701 C 336.461 1.78751 1.4346 0
M  V30 3702 C 337.474 0.669019 1.48418 0
M  V30 3703 O 338.663 0.945884 1.51378 0
M  V30 3704 C 335.763 1.87844 2.82078 0
M  V30 3705 C 334.936 3.17854 3.00479 0
M  V30 3706 C 333.995 3.17816 4.19379 0
M  V30 3707 O 333.021 3.91511 4.13168 0
M  V30 3708 N 334.223 2.40669 5.2826 0
M  V30 3709 H 336.988 2.73493 1.22563 0
M  V30 3710 H 334.549 1.53096 0.526625 0
M  V30 3711 H 336.541 1.85261 3.59806 0
M  V30 3712 H 335.111 1.00257 2.96086 0
M  V30 3713 H 334.331 3.33504 2.10163 0
M  V30 3714 H 335.619 4.03718 3.0966 0
M  V30 3715 H 335.017 1.8036 5.36178 0
M  V30 3716 H 333.574 2.43877 6.04456 0
M  V30 3717 N 337.007 -0.598083 1.45811 0
M  V30 3718 C 337.97 -1.69018 1.54808 0
M  V30 3719 C 338.97 -1.55037 0.426652 0
M  V30 3720 O 340.16 -1.59932 0.690456 0
M  V30 3721 C 337.292 -3.0835 1.45371 0
M  V30 3722 H 338.485 -1.62403 2.52121 0
M  V30 3723 H 336.038 -0.814626 1.33392 0
M  V30 3724 H 336.773 -3.20534 0.492793 0
M  V30 3725 H 336.558 -3.19907 2.26721 0
M  V30 3726 H 338.048 -3.8788 1.54721 0
M  V30 3727 N 338.485 -1.33259 -0.841409 0
M  V30 3728 C 339.432 -1.23302 -1.95103 0
M  V30 3729 C 340.402 -0.112204 -1.65721 0
M  V30 3730 O 341.587 -0.290038 -1.88583 0
M  V30 3731 C 338.727 -0.975583 -3.31023 0
M  V30 3732 C 337.84 -2.18243 -3.72819 0
M  V30 3733 C 336.975 -1.85936 -4.97595 0
M  V30 3734 C 336.014 -3.02866 -5.3192 0
M  V30 3735 N 335.151 -2.70565 -6.47873 0
M  V30 3736 H 339.991 -2.18207 -2.02952 0
M  V30 3737 H 337.528 -1.0851 -0.993173 0
M  V30 3738 H 339.486 -0.80677 -4.09325 0
M  V30 3739 H 338.116 -0.0632755 -3.22738 0
M  V30 3740 H 337.168 -2.46107 -2.90061 0
M  V30 3741 H 338.48 -3.05666 -3.94169 0
M  V30 3742 H 337.634 -1.65684 -5.83638 0
M  V30 3743 H 336.373 -0.957452 -4.78209 0
M  V30 3744 H 335.378 -3.23736 -4.44382 0
M  V30 3745 H 336.603 -3.93809 -5.53255 0
M  V30 3746 H 334.549 -1.8293 -6.29978 0
M  V30 3747 H 334.466 -3.51519 -6.69306 0
M  V30 3748 H 335.734 -2.53774 -7.37034 0
M  V30 3749 N 339.963 1.05934 -1.16686 0
M  V30 3750 C 341.209 1.79065 -0.95203 0
M  V30 3751 C 341.542 1.87147 0.518629 0
M  V30 3752 O 340.817 1.36574 1.38484 0
M  V30 3753 C 341.1 3.23359 -1.58464 0
M  V30 3754 C 340.953 3.23336 -3.12689 0
M  V30 3755 C 342.272 4.21004 -1.28232 0
M  V30 3756 H 339.391 0.65005 -0.34728 0
M  V30 3757 H 342.033 1.23868 -1.44072 0
M  V30 3758 H 340.183 3.70493 -1.16908 0
M  V30 3759 H 341.855 2.84336 -3.6325 0
M  V30 3760 H 340.098 2.61886 -3.4583 0
M  V30 3761 H 340.769 4.25144 -3.52075 0
M  V30 3762 H 343.245 3.8233 -1.64203 0
M  V30 3763 H 342.121 5.20225 -1.75092 0
M  V30 3764 H 342.382 4.41639 -0.201791 0
M  V30 3765 N 341.441 0.965919 1.2453 0
M  V30 3766 C 342.371 0.513476 2.27784 0
M  V30 3767 C 343.352 -0.445974 1.6415 0
M  V30 3768 O 344.537 -0.342485 1.91156 0
M  V30 3769 C 341.667 -0.198839 3.4673 0
M  V30 3770 C 340.621 0.676456 4.2262 0
M  V30 3771 C 339.947 -0.167248 5.34438 0
M  V30 3772 C 341.247 1.96017 4.84123 0
M  V30 3773 H 342.941 1.3765 2.65881 0
M  V30 3774 H 340.487 0.663321 1.27813 0
M  V30 3775 H 342.44 -0.526567 4.18097 0
M  V30 3776 H 341.164 -1.0962 3.07654 0
M  V30 3777 H 339.823 0.98743 3.53052 0
M  V30 3778 H 339.471 -1.0647 4.91603 0
M  V30 3779 H 339.171 0.415181 5.86131 0
M  V30 3780 H 340.695 -0.489688 6.08633 0
M  V30 3781 H 342.109 1.69814 5.47573 0
M  V30 3782 H 340.506 2.48918 5.4604 0
M  V30 3783 H 341.576 2.65622 4.05676 0
M  V30 3784 N 342.919 -1.39368 0.735821 0
M  V30 3785 C 343.829 -2.34395 0.0979693 0
M  V30 3786 C 344.845 -1.58361 -0.720968 0
M  V30 3787 O 346.021 -1.90648 -0.649245 0
M  V30 3788 C 343.086 -3.37393 -0.797916 0
M  V30 3789 C 342.147 -4.29287 0.0333662 0
M  V30 3790 C 341.38 -5.27365 -0.819854 0
M  V30 3791 O 341.603 -5.31959 -2.05855 0
M  V30 3792 O 340.537 -6.01389 -0.248079 0
M  V30 3793 H 344.363 -2.90601 0.882315 0
M  V30 3794 H 341.948 -1.40909 0.4965 0
M  V30 3795 H 343.83 -4.00505 -1.31048 0
M  V30 3796 H 342.505 -2.83571 -1.56106 0
M  V30 3797 H 341.412 -3.69395 0.591475 0
M  V30 3798 H 342.745 -4.86317 0.758752 0
M  V30 3799 N 344.397 -0.483516 -1.5 0
M  V30 3800 C 345.646 0.0689102 -2.01582 0
M  V30 3801 C 345.959 1.39655 -1.36952 0
M  V30 3802 O 347.165 2.03465 -1.79762 0
M  V30 3803 C 345.621 0.173302 -3.59483 0
M  V30 3804 C 345.229 -1.14665 -4.33077 0
M  V30 3805 C 346.973 0.677024 -4.19066 0
M  V30 3806 C 344.88 -1.00537 -5.82792 0
M  V30 3807 H 343.81 0.0295277 -0.753422 0
M  V30 3808 H 346.461 -0.620295 -1.72698 0
M  V30 3809 H 344.843 0.926569 -3.85007 0
M  V30 3810 H 346.017 -1.91184 -4.19268 0
M  V30 3811 H 344.332 -1.58244 -3.85159 0
M  V30 3812 H 346.929 0.799952 -5.28682 0
M  V30 3813 H 347.272 1.67151 -3.81269 0
M  V30 3814 H 347.805 -0.0192083 -3.97795 0
M  V30 3815 H 344.544 -1.9736 -6.25083 0
M  V30 3816 H 344.064 -0.280776 -5.99142 0
M  V30 3817 H 345.743 -0.677 -6.43448 0
M  V30 3818 N 345.875 1.56104 -0.216619 0
M  V30 3819 C 347.286 1.844 0.292128 0
M  V30 3820 C 347.637 1.13788 1.59833 0
M  V30 3821 O 346.762 0.405888 2.12559 0
M  V30 3822 C 347.357 3.3452 0.53681 0
M  V30 3823 C 345.916 3.63151 0.989876 0
M  V30 3824 C 345.063 2.77255 0.0502302 0
M  V30 3825 H 348.014 1.52481 -0.439926 0
M  V30 3826 H 348.035 3.54459 1.38345 0
M  V30 3827 H 347.547 3.85885 -0.414031 0
M  V30 3828 H 345.648 3.17238 1.95425 0
M  V30 3829 H 345.761 4.71177 0.867698 0
M  V30 3830 H 344.125 2.48555 0.556117 0
M  V30 3831 H 344.908 3.31416 -0.89544 0
M  V30 3832 N 347.353 -0.0568162 1.57498 0
M  V30 3833 C 348.583 -0.764515 1.91934 0
M  V30 3834 C 348.991 -1.70877 0.81227 0
M  V30 3835 O 348.334 -1.82351 -0.222213 0
M  V30 3836 C 348.396 -1.5994 3.21962 0
M  V30 3837 C 348.06 -0.822925 4.4953 0
M  V30 3838 C 349.057 -0.135464 5.19723 0
M  V30 3839 C 346.742 -0.785666 4.96117 0
M  V30 3840 C 348.736 0.578861 6.34766 0
M  V30 3841 C 346.423 -0.0675784 6.11063 0
M  V30 3842 C 347.421 0.613471 6.80239 0
M  V30 3843 O 347.109 1.31996 7.92989 0
M  V30 3844 H 346.841 -0.221647 0.63863 0
M  V30 3845 H 349.395 -0.0268218 2.05382 0
M  V30 3846 H 347.625 -2.38026 3.04763 0
M  V30 3847 H 349.314 -2.18715 3.41934 0
M  V30 3848 H 350.08 -0.155458 4.84751 0
M  V30 3849 H 345.959 -1.30524 4.42136 0
M  V30 3850 H 349.503 1.111 6.88696 0
M  V30 3851 H 345.4 -0.0455636 6.45484 0
M  V30 3852 H 346.168 1.23077 8.09194 0
M  V30 3853 N 348.832 -1.54138 -0.328536 0
M  V30 3854 C 349.779 -1.83176 -1.40411 0
M  V30 3855 C 350.749 -0.678494 -1.5161 0
M  V30 3856 O 351.934 -0.92443 -1.6691 0
M  V30 3857 C 349.074 -2.06035 -2.76846 0
M  V30 3858 C 348.187 -3.33727 -2.74318 0
M  V30 3859 C 347.322 -3.46574 -4.02567 0
M  V30 3860 C 346.361 -4.68159 -3.94327 0
M  V30 3861 N 345.498 -4.77959 -5.14296 0
M  V30 3862 H 350.338 -2.74938 -1.14948 0
M  V30 3863 H 347.875 -1.36166 -0.556538 0
M  V30 3864 H 349.833 -2.1728 -3.56153 0
M  V30 3865 H 348.463 -1.1757 -3.00628 0
M  V30 3866 H 347.515 -3.31246 -1.8703 0
M  V30 3867 H 348.827 -4.23139 -2.64111 0
M  V30 3868 H 347.981 -3.57333 -4.90304 0
M  V30 3869 H 346.72 -2.55245 -4.15574 0
M  V30 3870 H 345.725 -4.57461 -3.04974 0
M  V30 3871 H 346.95 -5.60868 -3.82889 0
M  V30 3872 H 344.896 -3.89544 -5.27818 0
M  V30 3873 H 344.813 -5.6133 -5.06404 0
M  V30 3874 H 346.081 -4.93044 -6.03761 0
M  V30 3875 N 350.31 0.590341 -1.46126 0
M  V30 3876 C 351.558 1.34616 -1.50742 0
M  V30 3877 C 351.879 1.94363 -0.157486 0
M  V30 3878 O 351.149 1.78136 0.815136 0
M  V30 3879 H 349.729 0.499789 -0.555175 0
M  V30 3880 H 352.391 0.691953 -1.82203 0
M  V30 3881 H 351.487 2.15678 -2.25587 0
M  V30 3882 N 351.788 1.33704 0.83433 0
M  V30 3883 C 352.735 1.24335 1.94447 0
M  V30 3884 C 353.705 0.120991 1.65659 0
M  V30 3885 O 354.89 0.300035 1.88426 0
M  V30 3886 C 352.03 0.993124 3.30501 0
M  V30 3887 C 351.143 2.20217 3.71657 0
M  V30 3888 C 350.278 1.88572 4.96602 0
M  V30 3889 C 349.317 3.05683 5.30306 0
M  V30 3890 N 348.454 2.73997 6.46429 0
M  V30 3891 H 353.294 2.1928 2.01792 0
M  V30 3892 H 350.831 1.09035 0.987404 0
M  V30 3893 H 352.789 0.828467 4.08892 0
M  V30 3894 H 351.419 0.0803902 3.227 0
M  V30 3895 H 350.471 2.47642 2.88752 0
M  V30 3896 H 351.783 3.07752 3.92543 0
M  V30 3897 H 350.937 1.68776 5.82752 0
M  V30 3898 H 349.676 0.982799 4.77695 0
M  V30 3899 H 348.681 3.26088 4.42659 0
M  V30 3900 H 349.906 3.96737 5.51159 0
M  V30 3901 H 347.852 1.86268 6.28999 0
M  V30 3902 H 347.769 3.55064 6.67432 0
M  V30 3903 H 349.037 2.57679 7.35678 0
M  V30 3904 N 353.266 -1.05314 1.17247 0
M  V30 3905 C 354.543 -1.75184 0.87005 0
M  V30 3906 C 354.923 -2.01481 -0.629965 0
M  V30 3907 O 354.271 -1.64988 -1.58086 0
M  V30 3908 C 354.481 -3.04594 1.70363 0
M  V30 3909 C 355.829 -3.78567 1.92281 0
M  V30 3910 O 356.853 -3.14461 1.67311 0
M  V30 3911 O 355.712 -4.93755 2.3424 0
M  V30 3912 H 352.806 -0.761729 0.322021 0
M  V30 3913 H 355.352 -1.11493 1.27935 0
M  V30 3914 H 354.124 -2.81201 2.72106 0
M  V30 3915 H 353.747 -3.76022 1.29202 0
M  V30 3916 N 354.744 -0.972509 -1.24016 0
M  V30 3917 C 355.674 -0.525548 -2.27509 0
M  V30 3918 C 356.655 0.437262 -1.64384 0
M  V30 3919 O 357.84 0.332343 -1.91335 0
M  V30 3920 C 354.97 0.180448 -3.46831 0
M  V30 3921 C 353.924 -0.698859 -4.22256 0
M  V30 3922 C 353.25 0.138903 -5.3452 0
M  V30 3923 C 354.55 -1.98582 -4.83076 0
M  V30 3924 H 356.244 -1.39058 -2.65148 0
M  V30 3925 H 353.79 -0.67009 -1.27459 0
M  V30 3926 H 355.743 0.504387 -4.18371 0
M  V30 3927 H 354.467 1.07987 -3.08231 0
M  V30 3928 H 353.126 -1.00614 -3.52523 0
M  V30 3929 H 352.774 1.03862 -4.9216 0
M  V30 3930 H 352.474 -0.446259 -5.85903 0
M  V30 3931 H 353.998 0.457404 -6.08884 0
M  V30 3932 H 355.412 -1.72715 -5.46665 0
M  V30 3933 H 353.809 -2.5181 -5.44713 0
M  V30 3934 H 354.879 -2.67769 -4.04262 0
M  V30 3935 N 356.222 1.38976 -0.743202 0
M  V30 3936 C 357.447 2.05161 -0.303936 0
M  V30 3937 C 357.872 1.55677 1.05576 0
M  V30 3938 O 357.23 0.704131 1.67068 0
M  V30 3939 C 357.278 3.59138 -0.324373 0
M  V30 3940 O 356.382 4.06668 0.685204 0
M  V30 3941 H 355.723 0.649815 -0.136518 0
M  V30 3942 H 358.253 1.77852 -1.01142 0
M  V30 3943 H 358.263 4.07639 -0.171618 0
M  V30 3944 H 356.938 3.94515 -1.31647 0
M  V30 3945 H 355.515 3.69561 0.497913 0
M  V30 3946 N 357.7 0.491464 1.49741 0
M  V30 3947 C 358.633 -0.338464 2.25676 0
M  V30 3948 C 359.611 -0.978676 1.29849 0
M  V30 3949 O 360.795 -1.01064 1.59117 0
M  V30 3950 C 357.922 -1.47588 3.04853 0
M  V30 3951 C 356.968 -0.951 4.15762 0
M  V30 3952 S 357.801 0.150626 5.35288 0
M  V30 3953 C 358.957 -0.990178 6.18018 0
M  V30 3954 H 359.19 0.306068 2.9572 0
M  V30 3955 H 356.723 0.276622 1.51902 0
M  V30 3956 H 358.681 -2.12764 3.51058 0
M  V30 3957 H 357.342 -2.09199 2.34296 0
M  V30 3958 H 356.535 -1.80311 4.70642 0
M  V30 3959 H 356.137 -0.376607 3.72099 0
M  V30 3960 H 358.429 -1.89748 6.50386 0
M  V30 3961 H 359.372 -0.480205 7.0647 0
M  V30 3962 H 359.78 -1.25321 5.50413 0
M  V30 3963 N 359.178 -1.55987 0.224894 0
M  V30 3964 C 360.427 -1.97566 -0.406273 0
M  V30 3965 C 360.74 -1.11569 -1.6066 0
M  V30 3966 O 361.946 -1.43062 -2.3075 0
M  V30 3967 C 360.402 -3.51474 -0.774207 0
M  V30 3968 C 360.01 -4.46179 0.403496 0
M  V30 3969 C 361.754 -4.01758 -1.37079 0
M  V30 3970 C 359.661 -5.91399 0.0129412 0
M  V30 3971 H 358.591 -0.737777 -0.155565 0
M  V30 3972 H 361.242 -1.80659 0.321635 0
M  V30 3973 H 359.624 -3.63994 -1.55963 0
M  V30 3974 H 360.798 -4.45409 1.18101 0
M  V30 3975 H 359.113 -4.06255 0.913536 0
M  V30 3976 H 361.71 -5.07756 -1.67596 0
M  V30 3977 H 362.053 -3.47805 -2.28773 0
M  V30 3978 H 362.586 -3.92475 -0.648733 0
M  V30 3979 H 359.325 -6.49341 0.896451 0
M  V30 3980 H 358.845 -5.95356 -0.728821 0
M  V30 3981 H 360.524 -6.45683 -0.412582 0
M  V30 3982 N 360.656 0.0484629 -1.57525 0
M  V30 3983 C 361.902 0.744226 -1.88651 0
M  V30 3984 C 362.235 1.76029 -0.820212 0
M  V30 3985 O 361.51 1.93782 0.166985 0
M  V30 3986 C 361.793 1.43128 -3.30434 0
M  V30 3987 C 361.646 0.43005 -4.47739 0
M  V30 3988 C 362.965 2.37031 -3.70816 0
M  V30 3989 H 360.084 0.269089 -0.68612 0
M  V30 3990 H 362.726 0.00713532 -1.89999 0
M  V30 3991 H 360.876 2.05956 -3.29415 0
M  V30 3992 H 362.548 -0.194816 -4.60888 0
M  V30 3993 H 360.791 -0.252522 -4.33064 0
M  V30 3994 H 361.462 0.948874 -5.43783 0
M  V30 3995 H 363.938 1.84263 -3.73077 0
M  V30 3996 H 362.814 2.82094 -4.70865 0
M  V30 3997 H 363.075 3.22864 -3.02012 0
M  V30 3998 N 362.134 1.5431 0.320358 0
M  V30 3999 C 363.064 1.86912 1.3995 0
M  V30 4000 C 364.045 0.726211 1.53819 0
M  V30 4001 O 365.23 0.980233 1.67646 0
M  V30 4002 C 362.36 2.09932 2.7667 0
M  V30 4003 C 361.314 3.25776 2.77586 0
M  V30 4004 C 360.64 3.34173 4.17412 0
M  V30 4005 C 361.94 4.6335 2.41048 0
M  V30 4006 H 363.634 2.77292 1.12914 0
M  V30 4007 H 361.18 1.33421 0.541738 0
M  V30 4008 H 363.133 2.31324 3.52232 0
M  V30 4009 H 361.857 1.16304 3.0519 0
M  V30 4010 H 360.516 3.04276 2.04479 0
M  V30 4011 H 360.164 2.38098 4.43078 0
M  V30 4012 H 359.864 4.12033 4.18931 0
M  V30 4013 H 361.388 3.57803 4.94782 0
M  V30 4014 H 362.802 4.84602 3.06324 0
M  V30 4015 H 361.199 5.43782 2.53813 0
M  V30 4016 H 362.269 4.65381 1.36193 0
M  V30 4017 N 363.613 -0.582584 1.46437 0
M  V30 4018 C 364.543 -1.70187 1.59871 0
M  V30 4019 C 365.524 -1.64066 0.449042 0
M  V30 4020 O 366.709 -1.82081 0.6753 0
M  V30 4021 C 363.839 -3.08827 1.58881 0
M  V30 4022 C 362.793 -3.29779 2.72819 0
M  V30 4023 C 362.119 -4.68947 2.5689 0
M  V30 4024 C 363.419 -3.17601 4.1464 0
M  V30 4025 H 365.113 -1.592 2.53566 0
M  V30 4026 H 362.659 -0.764472 1.22032 0
M  V30 4027 H 364.612 -3.86951 1.66873 0
M  V30 4028 H 363.336 -3.20713 0.617306 0
M  V30 4029 H 361.995 -2.54054 2.64296 0
M  V30 4030 H 361.643 -4.77599 1.57823 0
M  V30 4031 H 361.343 -4.83919 3.33312 0
M  V30 4032 H 362.867 -5.4924 2.66773 0
M  V30 4033 H 364.281 -3.8557 4.24274 0
M  V30 4034 H 362.678 -3.44094 4.9165 0
M  V30 4035 H 363.748 -2.14681 4.34788 0
M  V30 4036 N 365.091 -1.34144 -0.827227 0
M  V30 4037 C 366.502 -1.23557 -1.39966 0
M  V30 4038 C 366.853 0.140731 -1.95695 0
M  V30 4039 O 365.978 1.04087 -1.89723 0
M  V30 4040 C 366.573 -2.23708 -2.54441 0
M  V30 4041 C 365.132 -2.16924 -3.07605 0
M  V30 4042 C 364.279 -2.10549 -1.80456 0
M  V30 4043 H 367.23 -1.45573 -0.631991 0
M  V30 4044 H 367.251 -1.85157 -3.32411 0
M  V30 4045 H 366.763 -3.23866 -2.13851 0
M  V30 4046 H 364.864 -1.20107 -3.52711 0
M  V30 4047 H 364.977 -3.07988 -3.66988 0
M  V30 4048 H 363.341 -1.56203 -2.01178 0
M  V30 4049 H 364.124 -3.12535 -1.42046 0
M  V30 4050 N 366.569 1.04691 -1.17803 0
M  V30 4051 C 367.517 2.14665 -0.895635 0
M  V30 4052 C 368.511 1.68806 0.141679 0
M  V30 4053 O 369.717 1.79999 -0.00587914 0
M  V30 4054 H 366.092 0.701038 -0.272121 0
M  V30 4055 H 368.063 2.35685 -1.83017 0
M  V30 4056 C 366.812 3.45019 -0.430962 0
M  V30 4057 H 366.135 3.8071 -1.22064 0
M  V30 4058 H 367.575 4.23125 -0.272301 0
M  V30 4059 C 366.034 3.25943 0.852207 0
M  V30 4060 O 366.564 3.5296 1.91786 0
M  V30 4061 N 364.77 2.79304 0.802346 0
M  V30 4062 H 364.317 2.57518 -0.0650788 0
M  V30 4063 H 364.275 2.66921 1.66134 0
M  V30 4064 N 368.047 0.979072 1.23499 0
M  V30 4065 C 368.957 0.526431 2.28617 0
M  V30 4066 C 369.973 -0.418126 1.68901 0
M  V30 4067 O 371.149 -0.288372 1.99325 0
M  V30 4068 C 368.214 -0.165235 3.46306 0
M  V30 4069 C 367.275 0.82056 4.21385 0
M  V30 4070 C 366.508 0.161807 5.33455 0
M  V30 4071 O 366.731 -1.04742 5.60701 0
M  V30 4072 O 365.665 0.859708 5.95729 0
M  V30 4073 H 369.491 1.4006 2.69475 0
M  V30 4074 H 367.076 0.746643 1.29405 0
M  V30 4075 H 368.958 -0.553287 4.17752 0
M  V30 4076 H 367.633 -1.01419 3.07402 0
M  V30 4077 H 366.54 1.25929 3.52268 0
M  V30 4078 H 367.873 1.63828 4.64135 0
M  V30 4079 N 369.525 -1.3858 0.750561 0
M  V30 4080 C 370.774 -1.99424 0.302172 0
M  V30 4081 C 371.087 -1.60254 -1.12152 0
M  V30 4082 O 372.293 -2.14046 -1.67023 0
M  V30 4083 C 370.749 -3.56558 0.489307 0
M  V30 4084 C 370.357 -4.04682 1.92189 0
M  V30 4085 C 372.101 -4.24374 0.103478 0
M  V30 4086 C 370.008 -5.54446 2.05775 0
M  V30 4087 H 368.938 -0.746046 0.10923 0
M  V30 4088 H 371.589 -1.58383 0.92667 0
M  V30 4089 H 369.971 -3.95472 -0.204329 0
M  V30 4090 H 371.145 -3.77065 2.64875 0
M  V30 4091 H 369.46 -3.4958 2.26236 0
M  V30 4092 H 372.057 -5.34384 0.183787 0
M  V30 4093 H 372.4 -4.05468 -0.943481 0
M  V30 4094 H 372.933 -3.90688 0.748854 0
M  V30 4095 H 369.672 -5.78252 3.08714 0
M  V30 4096 H 369.192 -5.83816 1.37546 0
M  V30 4097 H 370.871 -6.20099 1.84626 0
M  V30 4098 N 371.003 -0.499398 -1.49478 0
M  V30 4099 C 372.28 0.108629 -1.95298 0
M  V30 4100 C 372.66 1.54282 -1.44084 0
M  V30 4101 O 372.008 2.18944 -0.653908 0
M  V30 4102 C 372.218 0.0229111 -3.48992 0
M  V30 4103 C 373.566 0.197643 -4.2414 0
M  V30 4104 O 374.59 0.0981735 -3.56065 0
M  V30 4105 O 373.449 0.401669 -5.45022 0
M  V30 4106 H 370.543 0.096181 -0.821388 0
M  V30 4107 H 373.089 -0.561822 -1.6013 0
M  V30 4108 H 371.861 -0.977321 -3.78899 0
M  V30 4109 H 371.484 0.733579 -3.90774 0
M  V30 4110 N 372.481 1.55866 -0.233164 0
M  V30 4111 C 373.729 1.9821 0.394593 0
M  V30 4112 C 374.05 1.12234 1.59463 0
M  V30 4113 O 373.32 0.201981 1.94856 0
M  V30 4114 H 371.9 0.732034 0.148778 0
M  V30 4115 H 374.562 1.92107 -0.32876 0
M  V30 4116 H 373.658 3.03845 0.713063 0
M  V30 4117 N 373.959 -0.0401083 1.57549 0
M  V30 4118 C 374.889 -1.04384 2.08869 0
M  V30 4119 C 375.87 -1.38407 0.988817 0
M  V30 4120 O 377.055 -1.47483 1.26342 0
M  V30 4121 C 374.185 -2.34808 2.55895 0
M  V30 4122 C 373.139 -2.15057 3.70047 0
M  V30 4123 C 372.465 -3.51145 4.03239 0
M  V30 4124 C 373.765 -1.54576 4.98902 0
M  V30 4125 H 375.459 -0.616666 2.92981 0
M  V30 4126 H 373.005 -0.295184 1.40942 0
M  V30 4127 H 374.958 -3.05346 2.90417 0
M  V30 4128 H 373.682 -2.79565 1.68853 0
M  V30 4129 H 372.341 -1.46954 3.35857 0
M  V30 4130 H 371.989 -3.93529 3.13279 0
M  V30 4131 H 371.689 -3.38758 4.80122 0
M  V30 4132 H 373.213 -4.23062 4.40285 0
M  V30 4133 H 374.627 -2.15017 5.31451 0
M  V30 4134 H 373.024 -1.52796 5.80322 0
M  V30 4135 H 374.094 -0.51039 4.82206 0
M  V30 4136 N 375.437 -1.54477 -0.31217 0
M  V30 4137 C 376.369 -1.81011 -1.40598 0
M  V30 4138 C 377.382 -0.692546 -1.47335 0
M  V30 4139 O 378.571 -0.969847 -1.49854 0
M  V30 4140 C 375.671 -1.92307 -2.79054 0
M  V30 4141 C 374.844 -3.22594 -2.95384 0
M  V30 4142 C 373.903 -3.24448 -4.1427 0
M  V30 4143 O 372.929 -3.98035 -4.06887 0
M  V30 4144 N 374.131 -2.49042 -5.24365 0
M  V30 4145 H 376.896 -2.75408 -1.18196 0
M  V30 4146 H 374.457 -1.53914 -0.502202 0
M  V30 4147 H 376.449 -1.90962 -3.56813 0
M  V30 4148 H 375.019 -1.04955 -2.94454 0
M  V30 4149 H 374.239 -3.36806 -2.04831 0
M  V30 4150 H 375.527 -4.08593 -3.03198 0
M  V30 4151 H 374.925 -1.88867 -5.33241 0
M  V30 4152 H 373.482 -2.53463 -6.005 0
M  V30 4153 N 376.915 0.57481 -1.46744 0
M  V30 4154 C 377.862 1.68329 -1.57905 0
M  V30 4155 C 378.832 1.60625 -0.422927 0
M  V30 4156 O 380.017 1.79721 -0.640711 0
M  V30 4157 C 377.157 3.06665 -1.58274 0
M  V30 4158 C 376.27 3.24935 -2.84678 0
M  V30 4159 C 375.405 4.53566 -2.76499 0
M  V30 4160 C 374.444 4.65207 -3.97806 0
M  V30 4161 N 373.581 5.85172 -3.87967 0
M  V30 4162 H 378.421 1.58127 -2.52587 0
M  V30 4163 H 375.958 0.770552 -1.25303 0
M  V30 4164 H 377.916 3.86745 -1.56473 0
M  V30 4165 H 376.546 3.15745 -0.671194 0
M  V30 4166 H 375.598 2.38405 -2.96424 0
M  V30 4167 H 376.91 3.29403 -3.7456 0
M  V30 4168 H 376.064 5.41885 -2.72848 0
M  V30 4169 H 374.803 4.51548 -1.8427 0
M  V30 4170 H 373.808 3.75304 -4.0178 0
M  V30 4171 H 375.033 4.68997 -4.9114 0
M  V30 4172 H 372.979 5.84137 -2.98529 0
M  V30 4173 H 372.896 5.90943 -4.71511 0
M  V30 4174 H 374.164 6.759 -3.88303 0
M  V30 4175 N 378.394 1.34581 0.820102 0
M  V30 4176 C 379.324 1.29038 1.94606 0
M  V30 4177 C 380.305 0.1673 1.69275 0
M  V30 4178 O 381.49 0.360112 1.90832 0
M  V30 4179 C 378.62 1.04793 3.31113 0
M  V30 4180 C 377.574 2.13597 3.70891 0
M  V30 4181 C 376.9 1.74537 5.05412 0
M  V30 4182 C 378.2 3.55451 3.8269 0
M  V30 4183 H 379.894 2.23248 1.99501 0
M  V30 4184 H 377.44 1.0747 0.958449 0
M  V30 4185 H 379.393 0.995592 4.0947 0
M  V30 4186 H 378.117 0.0702565 3.26524 0
M  V30 4187 H 376.776 2.17905 2.9481 0
M  V30 4188 H 376.424 0.754226 4.97313 0
M  V30 4189 H 376.124 2.47361 5.32997 0
M  V30 4190 H 377.648 1.70803 5.86224 0
M  V30 4191 H 379.062 3.5354 4.51312 0
M  V30 4192 H 377.459 4.26922 4.21732 0
M  V30 4193 H 378.529 3.92587 2.84611 0
M  V30 4194 N 379.872 -1.04064 1.18357 0
M  V30 4195 C 380.782 -2.15569 0.925596 0
M  V30 4196 C 381.798 -1.7365 -0.110295 0
M  V30 4197 O 382.974 -2.01273 0.0716218 0
M  V30 4198 C 380.039 -3.43704 0.454836 0
M  V30 4199 C 379.1 -4.00004 1.55869 0
M  V30 4200 C 378.333 -5.22023 1.1103 0
M  V30 4201 O 378.556 -5.70392 -0.0309756 0
M  V30 4202 O 377.49 -5.70856 1.90805 0
M  V30 4203 H 381.316 -2.40187 1.8586 0
M  V30 4204 H 378.901 -1.1402 0.965394 0
M  V30 4205 H 380.783 -4.20923 0.200382 0
M  V30 4206 H 379.458 -3.20559 -0.449876 0
M  V30 4207 H 378.365 -3.24172 1.86716 0
M  V30 4208 H 379.698 -4.2749 2.43953 0
M  V30 4209 N 381.35 -0.985608 -1.22978 0
M  V30 4210 C 382.26 -0.538548 -2.28335 0
M  V30 4211 C 383.276 0.409163 -1.69121 0
M  V30 4212 O 384.452 0.277797 -1.99475 0
M  V30 4213 C 381.517 0.146867 -3.46389 0
M  V30 4214 C 380.578 -0.842896 -4.20944 0
M  V30 4215 C 379.811 -0.190095 -5.33361 0
M  V30 4216 O 380.034 1.01767 -5.61248 0
M  V30 4217 O 378.968 -0.891289 -5.95264 0
M  V30 4218 H 382.794 -1.41487 -2.68729 0
M  V30 4219 H 380.379 -0.753495 -1.29007 0
M  V30 4220 H 382.261 0.531125 -4.1804 0
M  V30 4221 H 380.936 0.997871 -3.07935 0
M  V30 4222 H 379.843 -1.27795 -3.51595 0
M  V30 4223 H 381.176 -1.66287 -4.6326 0
M  V30 4224 N 382.828 1.3818 -0.7579 0
M  V30 4225 C 383.775 2.30416 -0.133057 0
M  V30 4226 C 384.745 1.50398 0.704957 0
M  V30 4227 O 385.93 1.79014 0.660192 0
M  V30 4228 C 383.07 3.36834 0.750813 0
M  V30 4229 C 382.183 4.31879 -0.102297 0
M  V30 4230 C 381.318 5.25368 0.784979 0
M  V30 4231 C 380.357 6.12058 -0.0715046 0
M  V30 4232 N 379.494 6.97832 0.772972 0
M  V30 4233 H 384.334 2.83274 -0.925186 0
M  V30 4234 H 381.871 1.39461 -0.467866 0
M  V30 4235 H 383.829 3.97145 1.27794 0
M  V30 4236 H 382.459 2.85374 1.50868 0
M  V30 4237 H 381.511 3.72991 -0.747095 0
M  V30 4238 H 382.823 4.92921 -0.763552 0
M  V30 4239 H 381.977 5.90818 1.37911 0
M  V30 4240 H 380.716 4.64703 1.47996 0
M  V30 4241 H 379.721 5.456 -0.678272 0
M  V30 4242 H 380.946 6.74793 -0.763606 0
M  V30 4243 H 378.892 6.3971 1.45282 0
M  V30 4244 H 378.809 7.55812 0.168709 0
M  V30 4245 H 380.077 7.67687 1.35194 0
M  V30 4246 N 384.306 0.507319 1.49211 0
M  V30 4247 C 385.236 -0.256939 2.32082 0
M  V30 4248 C 386.217 -0.956609 1.40652 0
M  V30 4249 O 387.402 -0.946788 1.69557 0
M  V30 4250 C 384.532 -1.31802 3.21318 0
M  V30 4251 C 383.486 -0.737855 4.21592 0
M  V30 4252 C 382.812 -1.89992 4.99807 0
M  V30 4253 C 384.112 0.275325 5.21574 0
M  V30 4254 H 385.806 0.434798 2.96226 0
M  V30 4255 H 383.352 0.210546 1.42452 0
M  V30 4256 H 385.305 -1.86045 3.78107 0
M  V30 4257 H 384.029 -2.03903 2.5513 0
M  V30 4258 H 382.688 -0.217126 3.65956 0
M  V30 4259 H 382.336 -2.60877 4.30061 0
M  V30 4260 H 382.036 -1.51777 5.6766 0
M  V30 4261 H 383.56 -2.44657 5.59442 0
M  V30 4262 H 384.974 -0.179193 5.7302 0
M  V30 4263 H 383.371 0.573649 5.97352 0
M  V30 4264 H 384.441 1.18903 4.70096 0
M  V30 4265 N 385.784 -1.5574 0.241426 0
M  V30 4266 C 387.012 -2.03208 -0.389134 0
M  V30 4267 C 387.427 -1.12082 -1.51931 0
M  V30 4268 O 386.784 -0.134183 -1.82006 0
M  V30 4269 C 386.835 -3.50064 -0.902087 0
M  V30 4270 O 386.556 -4.37717 0.18305 0
M  V30 4271 C 388.057 -4.13268 -1.60389 0
M  V30 4272 H 385.277 -0.664509 -0.0931053 0
M  V30 4273 H 387.821 -2.0124 0.36369 0
M  V30 4274 H 385.976 -3.52583 -1.60511 0
M  V30 4275 H 386.39 -5.24097 -0.205579 0
M  V30 4276 H 387.864 -5.17733 -1.91458 0
M  V30 4277 H 388.341 -3.59434 -2.52397 0
M  V30 4278 H 388.947 -4.14655 -0.945576 0
M  V30 4279 N 387.262 0.0317525 -1.57568 0
M  V30 4280 C 388.225 1.01783 -2.0536 0
M  V30 4281 C 389.225 1.29203 -0.957253 0
M  V30 4282 O 390.415 1.24251 -1.22095 0
M  V30 4283 C 387.547 2.35137 -2.46827 0
M  V30 4284 H 388.74 0.605062 -2.93733 0
M  V30 4285 H 386.293 0.278514 -1.53799 0
M  V30 4286 H 387.028 2.81168 -1.61602 0
M  V30 4287 H 386.813 2.16566 -3.26866 0
M  V30 4288 H 388.303 3.05938 -2.84239 0
M  V30 4289 N 388.74 1.54641 0.303973 0
M  V30 4290 C 389.65 1.88439 1.39743 0
M  V30 4291 C 390.666 0.778239 1.55626 0
M  V30 4292 O 391.842 1.07442 1.70347 0
M  V30 4293 C 388.907 2.12212 2.74166 0
M  V30 4294 C 387.968 3.35936 2.67293 0
M  V30 4295 C 387.201 3.58566 3.95305 0
M  V30 4296 O 387.424 2.84263 4.9452 0
M  V30 4297 O 386.358 4.52078 3.97378 0
M  V30 4298 H 390.184 2.81458 1.14083 0
M  V30 4299 H 387.769 1.40793 0.499768 0
M  V30 4300 H 389.651 2.29067 3.53704 0
M  V30 4301 H 388.326 1.22379 2.99675 0
M  V30 4302 H 387.233 3.24448 1.86237 0
M  V30 4303 H 388.566 4.2589 2.46736 0
M  V30 4304 N 390.218 -0.567019 1.47046 0
M  V30 4305 C 391.165 -1.67489 1.58796 0
M  V30 4306 C 392.135 -1.60399 0.43144 0
M  V30 4307 O 393.32 -1.79378 0.650233 0
M  V30 4308 C 390.46 -3.05821 1.59899 0
M  V30 4309 C 389.573 -3.2342 2.86397 0
M  V30 4310 C 388.708 -4.52093 2.789 0
M  V30 4311 C 387.747 -4.6309 4.00267 0
M  V30 4312 N 386.884 -5.83106 3.91064 0
M  V30 4313 H 391.724 -1.56785 2.53422 0
M  V30 4314 H 389.261 -0.763896 1.2571 0
M  V30 4315 H 391.219 -3.8591 1.58522 0
M  V30 4316 H 389.849 -3.15384 0.687929 0
M  V30 4317 H 388.901 -2.3683 2.97684 0
M  V30 4318 H 390.213 -3.27412 3.76301 0
M  V30 4319 H 389.367 -5.4043 2.75718 0
M  V30 4320 H 388.106 -4.50565 1.86662 0
M  V30 4321 H 387.111 -3.73168 4.03765 0
M  V30 4322 H 388.336 -4.66386 4.93621 0
M  V30 4323 H 386.282 -5.82546 3.01623 0
M  V30 4324 H 386.199 -5.88434 4.74638 0
M  V30 4325 H 387.467 -6.73831 3.91882 0
M  V30 4326 N 391.696 -1.35014 -0.812953 0
M  V30 4327 C 392.626 -1.30069 -1.93919 0
M  V30 4328 C 393.607 -0.176275 -1.69184 0
M  V30 4329 O 394.792 -0.370227 -1.90638 0
M  V30 4330 C 391.922 -1.06547 -3.30552 0
M  V30 4331 C 390.876 -2.15561 -3.69753 0
M  V30 4332 C 390.202 -1.77214 -5.04479 0
M  V30 4333 C 391.502 -3.57476 -3.808 0
M  V30 4334 H 393.196 -2.24303 -1.98314 0
M  V30 4335 H 390.742 -1.07977 -0.952736 0
M  V30 4336 H 392.695 -1.01729 -4.08937 0
M  V30 4337 H 391.419 -0.0875719 -3.26483 0
M  V30 4338 H 390.078 -2.19466 -2.9365 0
M  V30 4339 H 389.726 -0.780589 -4.96906 0
M  V30 4340 H 389.426 -2.50184 -5.31678 0
M  V30 4341 H 390.95 -1.7391 -5.8531 0
M  V30 4342 H 392.364 -3.55929 -4.4943 0
M  V30 4343 H 390.761 -4.29152 -4.19462 0
M  V30 4344 H 391.831 -3.94091 -2.82525 0
M  V30 4345 N 393.175 1.03435 -1.18907 0
M  V30 4346 C 394.108 2.11162 -0.86521 0
M  V30 4347 C 395.086 1.6165 0.175473 0
M  V30 4348 O 396.27 1.88425 0.0530129 0
M  V30 4349 C 393.397 3.37423 -0.293868 0
M  V30 4350 C 392.443 4.05795 -1.31274 0
M  V30 4351 S 393.276 4.52027 -2.8711 0
M  V30 4352 C 394.432 5.81513 -2.31504 0
M  V30 4353 H 394.665 2.38308 -1.77754 0
M  V30 4354 H 392.198 1.16295 -1.01562 0
M  V30 4355 H 394.156 4.1049 0.0292572 0
M  V30 4356 H 392.817 3.0838 0.596682 0
M  V30 4357 H 392.01 4.96574 -0.86198 0
M  V30 4358 H 391.612 3.38874 -1.58242 0
M  V30 4359 H 393.904 6.55784 -1.70157 0
M  V30 4360 H 394.847 6.3136 -3.20608 0
M  V30 4361 H 395.255 5.36921 -1.74286 0
M  V30 4362 N 394.653 0.992116 1.22453 0
M  V30 4363 C 395.563 0.55065 2.28046 0
M  V30 4364 C 396.579 -0.400189 1.69335 0
M  V30 4365 O 397.755 -0.267215 1.99619 0
M  V30 4366 C 394.82 -0.128496 3.46462 0
M  V30 4367 C 393.881 0.865208 4.20491 0
M  V30 4368 C 393.114 0.218377 5.33253 0
M  V30 4369 O 393.337 -0.987894 5.6178 0
M  V30 4370 O 392.271 0.922845 5.94783 0
M  V30 4371 H 396.097 1.4291 2.67975 0
M  V30 4372 H 393.682 0.760326 1.28606 0
M  V30 4373 H 395.564 -0.508947 4.18315 0
M  V30 4374 H 394.239 -0.981526 3.0846 0
M  V30 4375 H 393.146 1.29658 3.50913 0
M  V30 4376 H 394.479 1.68741 4.62371 0
M  V30 4377 N 396.131 -1.37776 0.765217 0
M  V30 4378 C 397.377 -2.00604 0.336066 0
M  V30 4379 C 397.732 -1.59657 -1.07366 0
M  V30 4380 O 397.025 -0.829565 -1.7271 0
M  V30 4381 C 397.219 -3.5504 0.410053 0
M  V30 4382 C 397.048 -4.10985 1.82542 0
M  V30 4383 C 395.818 -4.42229 2.44461 0
M  V30 4384 C 398.016 -4.32438 2.78392 0
M  V30 4385 N 395.998 -4.8385 3.77839 0
M  V30 4386 C 397.369 -4.76596 3.96556 0
M  V30 4387 C 399.424 -4.14559 2.75764 0
M  V30 4388 C 398.127 -5.04748 5.12466 0
M  V30 4389 C 400.153 -4.43843 3.90842 0
M  V30 4390 C 399.515 -4.88235 5.07746 0
M  V30 4391 H 395.614 -0.763325 0.169881 0
M  V30 4392 H 398.198 -1.67197 0.997656 0
M  V30 4393 H 396.369 -3.87769 -0.221325 0
M  V30 4394 H 398.101 -4.0468 -0.0405285 0
M  V30 4395 H 394.856 -4.31079 1.96131 0
M  V30 4396 H 395.28 -5.08979 4.46396 0
M  V30 4397 H 399.922 -3.79415 1.86558 0
M  V30 4398 H 397.64 -5.38783 6.02277 0
M  V30 4399 H 401.226 -4.31603 3.90141 0
M  V30 4400 H 400.106 -5.10461 5.95315 0
M  V30 4401 N 397.609 -0.515225 -1.4894 0
M  V30 4402 C 398.837 0.0206034 -2.0689 0
M  V30 4403 C 399.252 1.29514 -1.37374 0
M  V30 4404 O 398.609 1.76698 -0.456529 0
M  V30 4405 C 398.66 0.26351 -3.60538 0
M  V30 4406 O 398.381 -0.960517 -4.27441 0
M  V30 4407 C 399.882 0.841383 -4.35242 0
M  V30 4408 H 397.102 -0.0268608 -0.670462 0
M  V30 4409 H 399.646 -0.716651 -1.91532 0
M  V30 4410 H 397.801 0.950777 -3.75552 0
M  V30 4411 H 398.215 -0.73212 -5.19365 0
M  V30 4412 H 399.689 0.96085 -5.43573 0
M  V30 4413 H 400.166 1.8427 -3.98674 0
M  V30 4414 H 400.772 0.191143 -4.2487 0
M  V30 4415 N 399.087 1.5561 -0.249682 0
M  V30 4416 C 400.312 2.03865 0.381305 0
M  V30 4417 C 400.737 1.12769 1.50548 0
M  V30 4418 O 400.095 0.121189 1.80895 0
M  V30 4419 C 400.143 3.50101 0.863816 0
M  V30 4420 O 399.247 3.62132 1.97318 0
M  V30 4421 H 398.588 0.658827 0.0827194 0
M  V30 4422 H 401.118 2.01105 -0.376552 0
M  V30 4423 H 401.128 3.90975 1.1663 0
M  V30 4424 H 399.803 4.1588 0.0411816 0
M  V30 4425 H 398.38 3.33155 1.67517 0
M  V30 4426 N 400.565 -0.0233959 1.57583 0
M  V30 4427 C 401.495 -1.02162 2.09965 0
M  V30 4428 C 402.476 -1.3735 1.00344 0
M  V30 4429 O 403.661 -1.46135 1.27899 0
M  V30 4430 C 400.791 -2.32081 2.58371 0
M  V30 4431 C 399.745 -2.1112 3.72307 0
M  V30 4432 C 399.071 -3.46848 4.06941 0
M  V30 4433 C 400.371 -1.49276 5.00514 0
M  V30 4434 H 402.065 -0.585557 2.93618 0
M  V30 4435 H 399.611 -0.280218 1.41247 0
M  V30 4436 H 401.564 -3.02249 2.93639 0
M  V30 4437 H 400.288 -2.77758 1.71808 0
M  V30 4438 H 398.947 -1.43384 3.37397 0
M  V30 4439 H 398.595 -3.90184 3.17436 0
M  V30 4440 H 398.295 -3.33646 4.83688 0
M  V30 4441 H 399.819 -4.18369 4.44747 0
M  V30 4442 H 401.233 -2.09368 5.33702 0
M  V30 4443 H 399.63 -1.46632 5.8191 0
M  V30 4444 H 400.7 -0.459217 4.82721 0
M  V30 4445 N 402.043 -1.548 -0.295768 0
M  V30 4446 C 402.975 -1.82492 -1.3867 0
M  V30 4447 C 403.988 -0.708134 -1.46592 0
M  V30 4448 O 405.177 -0.985686 -1.48817 0
M  V30 4449 C 402.277 -1.95256 -2.76999 0
M  V30 4450 C 401.45 -3.25709 -2.91946 0
M  V30 4451 C 400.509 -3.28824 -4.10806 0
M  V30 4452 O 399.535 -4.02328 -4.02643 0
M  V30 4453 N 400.737 -2.5459 -5.21694 0
M  V30 4454 H 403.502 -2.76646 -1.15269 0
M  V30 4455 H 401.063 -1.54438 -0.485849 0
M  V30 4456 H 403.055 -1.94736 -3.54768 0
M  V30 4457 H 401.625 -1.08072 -2.93324 0
M  V30 4458 H 400.845 -3.38959 -2.01247 0
M  V30 4459 H 402.133 -4.11786 -2.98847 0
M  V30 4460 H 401.531 -1.94512 -5.31208 0
M  V30 4461 H 400.088 -2.59818 -5.97778 0
M  V30 4462 N 403.521 0.559213 -1.47345 0
M  V30 4463 C 404.469 1.68747 -1.60085 0
M  V30 4464 C 405.463 1.628 -0.46825 0
M  V30 4465 O 406.669 1.68009 -0.645977 0
M  V30 4466 H 403.044 0.558329 -0.503759 0
M  V30 4467 H 405.015 1.55138 -2.54902 0
M  V30 4468 C 403.764 3.07103 -1.63042 0
M  V30 4469 H 403.087 3.12361 -2.49541 0
M  V30 4470 H 404.527 3.85743 -1.76006 0
M  V30 4471 C 402.986 3.34935 -0.363357 0
M  V30 4472 O 403.516 3.98102 0.536416 0
M  V30 4473 N 401.722 2.89574 -0.244 0
M  V30 4474 H 401.269 2.38348 -0.977133 0
M  V30 4475 H 401.227 3.08566 0.602836 0
M  V30 4476 N 404.999 1.35443 0.805782 0
M  V30 4477 C 405.932 1.22783 1.92353 0
M  V30 4478 C 406.91 0.115543 1.62189 0
M  V30 4479 O 408.094 0.283778 1.86352 0
M  V30 4480 C 405.221 0.890746 3.26777 0
M  V30 4481 C 404.267 2.01519 3.75889 0
M  V30 4482 S 405.1 3.63101 3.93596 0
M  V30 4483 C 406.256 3.31472 5.30921 0
M  V30 4484 H 406.489 2.17394 2.02798 0
M  V30 4485 H 404.022 1.20669 0.963245 0
M  V30 4486 H 405.98 0.703068 4.04434 0
M  V30 4487 H 404.641 -0.0373152 3.14078 0
M  V30 4488 H 403.834 1.7335 4.7325 0
M  V30 4489 H 403.436 2.16124 3.05231 0
M  V30 4490 H 405.728 2.8435 6.1494 0
M  V30 4491 H 406.671 4.28036 5.64084 0
M  V30 4492 H 407.079 2.67221 4.97246 0
M  V30 4493 N 406.477 -1.02803 1.19454 0
M  V30 4494 C 407.893 -1.28473 0.946937 0
M  V30 4495 C 408.093 -1.97881 -0.380202 0
M  V30 4496 O 407.149 -2.26719 -1.11151 0
M  V30 4497 C 408.462 -2.13099 2.12154 0
M  V30 4498 C 410.01 -2.26404 2.16126 0
M  V30 4499 C 410.485 -3.14402 3.33039 0
M  V30 4500 N 411.976 -3.21991 3.32981 0
M  V30 4501 C 412.711 -3.90272 4.20089 0
M  V30 4502 N 412.207 -4.60777 5.17355 0
M  V30 4503 N 414 -3.8668 4.07964 0
M  V30 4504 H 406.151 -0.561665 2.04839 0
M  V30 4505 H 408.414 -0.310438 0.89573 0
M  V30 4506 H 408.12 -1.69422 3.08203 0
M  V30 4507 H 407.994 -3.13813 2.09287 0
M  V30 4508 H 410.381 -2.69311 1.20647 0
M  V30 4509 H 410.462 -1.25237 2.23045 0
M  V30 4510 H 410.106 -2.72204 4.28798 0
M  V30 4511 H 410.036 -4.1563 3.23356 0
M  V30 4512 H 412.527 -2.71778 2.62574 0
M  V30 4513 H 412.84 -5.10513 5.80169 0
M  V30 4514 H 411.185 -4.5964 5.21302 0
M  V30 4515 H 414.376 -3.30739 3.31254 0
M  V30 4516 H 414.549 -4.39621 4.76064 0
M  V30 4517 N 407.956 -0.998596 -1.21925 0
M  V30 4518 C 408.866 -0.562736 -2.27751 0
M  V30 4519 C 409.882 0.391203 -1.69545 0
M  V30 4520 O 411.058 0.256625 -1.99758 0
M  V30 4521 C 408.123 0.11012 -3.46525 0
M  V30 4522 C 407.184 -0.887495 -4.20026 0
M  V30 4523 C 406.417 -0.246654 -5.3313 0
M  V30 4524 O 406.64 0.958088 -5.62296 0
M  V30 4525 O 405.574 -0.954374 -5.94286 0
M  V30 4526 H 409.4 -1.44329 -2.67213 0
M  V30 4527 H 406.985 -0.767135 -1.28201 0
M  V30 4528 H 408.867 0.486756 -4.18579 0
M  V30 4529 H 407.542 0.965154 -3.08976 0
M  V30 4530 H 406.449 -1.31517 -3.5022 0
M  V30 4531 H 407.782 -1.71191 -4.6147 0
M  V30 4532 N 409.434 1.37368 -0.772513 0
M  V30 4533 C 410.662 2.03942 -0.348588 0
M  V30 4534 C 411.077 1.58264 1.02947 0
M  V30 4535 O 410.434 0.764246 1.65727 0
M  V30 4536 C 410.485 3.5946 -0.38351 0
M  V30 4537 O 410.206 4.03468 -1.70721 0
M  V30 4538 C 411.707 4.4327 0.0519152 0
M  V30 4539 H 408.927 0.654931 -0.145966 0
M  V30 4540 H 411.471 1.75686 -1.04665 0
M  V30 4541 H 409.626 3.86486 0.265978 0
M  V30 4542 H 410.04 4.97991 -1.64636 0
M  V30 4543 H 411.514 5.51995 -0.0236733 0
M  V30 4544 H 411.991 4.2514 1.10238 0
M  V30 4545 H 412.597 4.21471 -0.569415 0
M  V30 4546 N 410.912 0.523116 1.48665 0
M  V30 4547 C 412.328 0.180511 1.58576 0
M  V30 4548 C 412.528 -1.31597 1.52592 0
M  V30 4549 O 411.584 -2.0937 1.4114 0
M  V30 4550 C 412.897 0.776949 2.90489 0
M  V30 4551 C 414.445 0.745058 3.04003 0
M  V30 4552 C 414.92 1.31995 4.38567 0
M  V30 4553 N 416.411 1.28162 4.45117 0
M  V30 4554 C 417.146 1.6964 5.47731 0
M  V30 4555 N 416.642 2.18816 6.57337 0
M  V30 4556 N 418.435 1.6092 5.38573 0
M  V30 4557 H 410.586 1.4958 1.50797 0
M  V30 4558 H 412.849 0.621772 0.715614 0
M  V30 4559 H 412.555 1.82732 3.00503 0
M  V30 4560 H 412.429 0.25007 3.7637 0
M  V30 4561 H 414.816 -0.296532 2.93606 0
M  V30 4562 H 414.897 1.30933 2.1975 0
M  V30 4563 H 414.541 2.36043 4.49718 0
M  V30 4564 H 414.471 0.731418 5.21496 0
M  V30 4565 H 416.962 0.92155 3.66491 0
M  V30 4566 H 417.275 2.48478 7.31764 0
M  V30 4567 H 415.62 2.22805 6.58318 0
M  V30 4568 H 418.811 1.22304 4.5184 0
M  V30 4569 H 418.984 1.93567 6.18414 0
M  V30 4570 N 412.39 -1.55475 0.257931 0
M  V30 4571 C 413.636 -1.99502 -0.364266 0
M  V30 4572 C 413.969 -1.146 -1.56782 0
M  V30 4573 O 413.244 -0.211968 -1.93342 0
M  V30 4574 C 413.527 -3.51917 -0.763333 0
M  V30 4575 C 413.38 -4.4758 0.446371 0
M  V30 4576 C 414.699 -4.09742 -1.60623 0
M  V30 4577 H 411.818 -0.725277 -0.130929 0
M  V30 4578 H 414.46 -1.8653 0.361446 0
M  V30 4579 H 412.61 -3.63101 -1.38166 0
M  V30 4580 H 414.282 -4.48362 1.08487 0
M  V30 4581 H 412.525 -4.19947 1.08753 0
M  V30 4582 H 413.196 -5.51862 0.123645 0
M  V30 4583 H 415.672 -4.01727 -1.08418 0
M  V30 4584 H 414.548 -5.16631 -1.85429 0
M  V30 4585 H 414.809 -3.58889 -2.58169 0
M  V30 4586 N 413.868 0.0150385 -1.57593 0
M  V30 4587 C 415.145 0.7392 -1.81094 0
M  V30 4588 C 415.525 1.92817 -0.859344 0
M  V30 4589 O 414.873 2.28301 0.095362 0
M  V30 4590 C 415.083 1.15907 -3.29191 0
M  V30 4591 C 416.431 1.56918 -3.9454 0
M  V30 4592 O 417.455 1.25328 -3.33424 0
M  V30 4593 O 416.314 2.15604 -5.02173 0
M  V30 4594 H 413.408 0.358631 -0.745193 0
M  V30 4595 H 415.954 -0.00926156 -1.69697 0
M  V30 4596 H 414.726 0.310921 -3.90063 0
M  V30 4597 H 414.349 1.96711 -3.45529 0
M  V30 4598 N 415.346 1.54954 0.287554 0
M  V30 4599 C 416.276 1.89839 1.35954 0
M  V30 4600 C 417.257 0.758675 1.52244 0
M  V30 4601 O 418.442 1.01557 1.65529 0
M  V30 4602 C 415.572 2.15753 2.72154 0
M  V30 4603 C 414.526 3.3159 2.70614 0
M  V30 4604 C 413.852 3.42952 4.10229 0
M  V30 4605 C 415.152 4.68359 2.31165 0
M  V30 4606 H 416.846 2.79625 1.07007 0
M  V30 4607 H 414.392 1.3454 0.513316 0
M  V30 4608 H 416.345 2.38743 3.47246 0
M  V30 4609 H 415.069 1.22752 3.02654 0
M  V30 4610 H 413.728 3.08545 1.97979 0
M  V30 4611 H 413.376 2.47443 4.37928 0
M  V30 4612 H 413.076 4.20826 4.10097 0
M  V30 4613 H 414.6 3.68218 4.87081 0
M  V30 4614 H 416.014 4.9099 2.95976 0
M  V30 4615 H 414.411 5.49044 2.42221 0
M  V30 4616 H 415.481 4.68165 1.26291 0
M  V30 4617 N 416.824 -0.551391 1.4764 0
M  V30 4618 C 417.774 -1.65362 1.56969 0
M  V30 4619 C 418.758 -1.55098 0.428189 0
M  V30 4620 O 419.95 -1.63481 0.678441 0
M  V30 4621 C 417.079 -3.04129 1.59249 0
M  V30 4622 C 416.165 -3.19576 2.78804 0
M  V30 4623 N 416.556 -3.05067 4.03445 0
M  V30 4624 C 414.854 -3.50588 2.75688 0
M  V30 4625 C 415.555 -3.2336 4.83543 0
M  V30 4626 N 414.531 -3.4996 4.15968 0
M  V30 4627 H 418.333 -1.52722 2.51104 0
M  V30 4628 H 415.847 -0.756303 1.43714 0
M  V30 4629 H 417.844 -3.83278 1.64024 0
M  V30 4630 H 416.504 -3.17877 0.662148 0
M  V30 4631 H 417.515 -2.82273 4.34215 0
M  V30 4632 H 414.192 -3.70827 1.91817 0
M  V30 4633 H 415.582 -3.17061 5.92387 0
M  V30 4634 N 418.302 -1.35869 -0.798587 0
M  V30 4635 C 419.232 -1.32118 -1.92528 0
M  V30 4636 C 420.213 -0.194209 -1.68988 0
M  V30 4637 O 421.398 -0.390426 -1.90235 0
M  V30 4638 C 418.528 -1.10047 -3.29404 0
M  V30 4639 C 417.482 -2.19471 -3.67446 0
M  V30 4640 C 416.808 -1.82555 -5.02571 0
M  V30 4641 C 418.108 -3.61495 -3.76987 0
M  V30 4642 H 419.802 -2.26394 -1.95924 0
M  V30 4643 H 417.348 -1.08981 -0.94123 0
M  V30 4644 H 419.301 -1.06061 -4.07835 0
M  V30 4645 H 418.025 -0.122195 -3.26371 0
M  V30 4646 H 416.684 -2.22568 -2.91306 0
M  V30 4647 H 416.332 -0.833249 -4.9605 0
M  V30 4648 H 416.032 -2.5581 -5.28995 0
M  V30 4649 H 417.556 -1.80108 -5.83432 0
M  V30 4650 H 418.97 -3.60676 -4.4563 0
M  V30 4651 H 417.367 -4.33577 -4.14887 0
M  V30 4652 H 418.437 -3.97065 -2.78329 0
M  V30 4653 N 419.78 1.02168 -1.19998 0
M  V30 4654 C 421.191 1.57135 -1.00825 0
M  V30 4655 C 421.542 1.91276 0.436818 0
M  V30 4656 O 420.667 1.71679 1.3174 0
M  V30 4657 C 421.262 2.85514 -1.82393 0
M  V30 4658 C 419.821 3.37027 -1.67601 0
M  V30 4659 C 418.968 2.10388 -1.80644 0
M  V30 4660 H 421.919 0.846106 -1.34264 0
M  V30 4661 H 421.94 3.56711 -1.32429 0
M  V30 4662 H 421.452 2.60634 -2.87561 0
M  V30 4663 H 419.553 3.66878 -0.650485 0
M  V30 4664 H 419.666 4.09572 -2.4857 0
M  V30 4665 H 418.03 2.22601 -1.23778 0
M  V30 4666 H 418.813 1.8794 -2.87286 0
M  V30 4667 N 421.258 1.00505 1.21394 0
M  V30 4668 C 422.674 0.717873 1.42544 0
M  V30 4669 C 422.874 -0.706936 1.88692 0
M  V30 4670 O 421.93 -1.47627 2.04847 0
M  V30 4671 C 423.243 1.73377 2.45684 0
M  V30 4672 C 424.791 1.75059 2.59467 0
M  V30 4673 C 425.266 2.75545 3.6584 0
M  V30 4674 N 426.757 2.74213 3.73311 0
M  V30 4675 C 427.492 3.48626 4.55245 0
M  V30 4676 N 426.988 4.32678 5.41075 0
M  V30 4677 N 428.781 3.37276 4.49668 0
M  V30 4678 H 420.932 1.92506 0.897503 0
M  V30 4679 H 423.195 0.830919 0.456375 0
M  V30 4680 H 422.901 2.75395 2.18748 0
M  V30 4681 H 422.775 1.53647 3.44489 0
M  V30 4682 H 425.162 0.737337 2.8574 0
M  V30 4683 H 425.243 1.98861 1.60897 0
M  V30 4684 H 424.887 3.77028 3.40313 0
M  V30 4685 H 424.817 2.49009 4.64007 0
M  V30 4686 H 427.308 2.13234 3.11993 0
M  V30 4687 H 427.621 4.86253 6.00648 0
M  V30 4688 H 425.966 4.3676 5.40616 0
M  V30 4689 H 429.157 2.71043 3.81646 0
M  V30 4690 H 429.33 3.95524 5.13288 0
M  V30 4691 N 422.737 -1.36956 0.779787 0
M  V30 4692 C 423.984 -1.99491 0.347766 0
M  V30 4693 C 424.312 -1.61898 -1.07793 0
M  V30 4694 O 423.567 -0.86071 -1.75756 0
M  V30 4695 C 423.866 -3.54585 0.447686 0
M  V30 4696 C 423.532 -4.1197 1.83279 0
M  V30 4697 C 422.194 -4.27356 2.2118 0
M  V30 4698 C 424.546 -4.43354 2.74019 0
M  V30 4699 C 421.874 -4.71432 3.4924 0
M  V30 4700 C 424.226 -4.88858 4.01497 0
M  V30 4701 C 422.89 -5.0245 4.39432 0
M  V30 4702 H 422.16 -0.729991 0.127257 0
M  V30 4703 H 424.807 -1.63599 0.995376 0
M  V30 4704 H 423.112 -3.90773 -0.283447 0
M  V30 4705 H 424.809 -4.00888 0.0945948 0
M  V30 4706 H 421.399 -4.00428 1.52825 0
M  V30 4707 H 425.583 -4.31045 2.45995 0
M  V30 4708 H 420.839 -4.80141 3.78516 0
M  V30 4709 H 425.013 -5.12108 4.71931 0
M  V30 4710 H 422.64 -5.36362 5.38721 0
M  V30 4711 N 424.215 -0.530993 -1.48385 0
M  V30 4712 C 425.162 0.231223 -2.29639 0
M  V30 4713 C 426.132 0.932864 -1.37429 0
M  V30 4714 O 427.317 0.933692 -1.66394 0
M  V30 4715 C 424.457 1.27155 -3.2082 0
M  V30 4716 C 423.57 0.578655 -4.28107 0
M  V30 4717 C 422.705 1.602 -5.06467 0
M  V30 4718 C 421.744 0.892625 -6.05556 0
M  V30 4719 N 420.881 1.86157 -6.76971 0
M  V30 4720 H 425.721 -0.467848 -2.94305 0
M  V30 4721 H 423.258 -0.242556 -1.45086 0
M  V30 4722 H 425.216 1.88703 -3.72085 0
M  V30 4723 H 423.846 1.939 -2.58075 0
M  V30 4724 H 422.898 -0.150782 -3.80101 0
M  V30 4725 H 424.21 0.0217065 -4.98795 0
M  V30 4726 H 423.364 2.29173 -5.61751 0
M  V30 4727 H 422.103 2.19285 -4.35621 0
M  V30 4728 H 421.108 0.188829 -5.49476 0
M  V30 4729 H 422.333 0.307878 -6.78402 0
M  V30 4730 H 420.279 2.44147 -6.08875 0
M  V30 4731 H 420.196 1.35608 -7.43738 0
M  V30 4732 H 421.464 2.54325 -7.36844 0
M  V30 4733 N 425.693 1.55336 -0.266172 0
M  V30 4734 C 426.939 1.99692 0.353681 0
M  V30 4735 C 427.272 1.1543 1.56172 0
M  V30 4736 O 426.547 0.222218 1.93226 0
M  V30 4737 C 426.83 3.52316 0.74466 0
M  V30 4738 C 426.683 4.47337 -0.470101 0
M  V30 4739 C 428.002 4.10588 1.58447 0
M  V30 4740 H 425.121 0.725961 0.12708 0
M  V30 4741 H 427.763 1.86336 -0.371333 0
M  V30 4742 H 425.913 3.63829 1.36239 0
M  V30 4743 H 427.585 4.4778 -1.10864 0
M  V30 4744 H 425.828 4.19364 -1.10978 0
M  V30 4745 H 426.499 5.51788 -0.15291 0
M  V30 4746 H 428.975 4.02297 1.06286 0
M  V30 4747 H 427.851 5.17607 1.82686 0
M  V30 4748 H 428.112 3.60253 2.56262 0
M  V30 4749 N 427.171 -0.0066808 1.57599 0
M  V30 4750 C 428.081 -1.01671 2.11424 0
M  V30 4751 C 429.097 -1.38143 1.05795 0
M  V30 4752 O 430.273 -1.47011 1.37658 0
M  V30 4753 C 427.338 -2.29192 2.60139 0
M  V30 4754 C 426.399 -1.99094 3.80342 0
M  V30 4755 C 425.632 -3.20535 4.26724 0
M  V30 4756 O 425.855 -4.3199 3.72479 0
M  V30 4757 O 424.789 -3.04924 5.18946 0
M  V30 4758 H 428.615 -0.589181 2.9793 0
M  V30 4759 H 426.2 -0.225091 1.47695 0
M  V30 4760 H 428.082 -3.0412 2.917 0
M  V30 4761 H 426.757 -2.71195 1.76733 0
M  V30 4762 H 425.664 -1.21663 3.53764 0
M  V30 4763 H 426.997 -1.61931 4.648 0
M  V30 4764 N 428.649 -1.55105 -0.279332 0
M  V30 4765 C 429.559 -1.90638 -1.36727 0
M  V30 4766 C 430.575 -0.802899 -1.54368 0
M  V30 4767 O 431.751 -1.10138 -1.68616 0
M  V30 4768 C 428.816 -2.16547 -2.70755 0
M  V30 4769 C 427.877 -3.40146 -2.61915 0
M  V30 4770 C 427.11 -3.6481 -3.8955 0
M  V30 4771 O 427.333 -2.92095 -4.89935 0
M  V30 4772 O 426.267 -4.58343 -3.90135 0
M  V30 4773 H 430.093 -2.83237 -1.09591 0
M  V30 4774 H 427.678 -1.4157 -0.477306 0
M  V30 4775 H 429.56 -2.34665 -3.50014 0
M  V30 4776 H 428.235 -1.27131 -2.9769 0
M  V30 4777 H 427.142 -3.2737 -1.81052 0
M  V30 4778 H 428.475 -4.29761 -2.3993 0
M  V30 4779 N 430.127 0.543554 -1.4793 0
M  V30 4780 C 431.352 1.32995 -1.59145 0
M  V30 4781 C 431.777 1.86472 -0.246956 0
M  V30 4782 O 431.135 1.63696 0.779324 0
M  V30 4783 C 431.183 2.46623 -2.63077 0
M  V30 4784 O 430.287 3.49261 -2.19295 0
M  V30 4785 H 429.628 0.394472 -0.534124 0
M  V30 4786 H 432.158 0.655489 -1.93816 0
M  V30 4787 H 432.168 2.93001 -2.83926 0
M  V30 4788 H 430.843 2.07059 -3.60693 0
M  V30 4789 H 429.42 3.09094 -2.08603 0
M  V30 4790 N 431.605 1.3629 0.791371 0
M  V30 4791 C 432.835 1.33368 1.57786 0
M  V30 4792 C 433.243 -0.0875188 1.88997 0
M  V30 4793 O 432.586 -1.05427 1.50435 0
M  V30 4794 C 432.648 2.08802 2.92646 0
M  V30 4795 C 432.312 3.57903 2.84174 0
M  V30 4796 C 433.309 4.52191 2.56553 0
M  V30 4797 C 430.994 4.00762 3.02812 0
M  V30 4798 C 432.988 5.87315 2.47669 0
M  V30 4799 C 430.675 5.35977 2.93551 0
M  V30 4800 C 431.673 6.29066 2.66017 0
M  V30 4801 O 431.361 7.61798 2.56746 0
M  V30 4802 H 431.093 0.459166 0.496128 0
M  V30 4803 H 433.647 1.79952 0.990269 0
M  V30 4804 H 431.877 1.56878 3.53449 0
M  V30 4805 H 433.566 1.98762 3.53904 0
M  V30 4806 H 434.332 4.20393 2.41858 0
M  V30 4807 H 430.211 3.2868 3.2325 0
M  V30 4808 H 433.755 6.59943 2.26099 0
M  V30 4809 H 429.652 5.67384 3.07808 0
M  V30 4810 H 430.42 7.71898 2.72242 0
M  V30 4811 N 433.083 -1.0153 1.20538 0
M  V30 4812 C 434.36 -1.72327 0.925343 0
M  V30 4813 C 434.74 -2.03383 -0.565547 0
M  V30 4814 O 434.088 -1.69934 -1.52757 0
M  V30 4815 C 434.298 -2.9902 1.79967 0
M  V30 4816 C 435.646 -3.72258 2.04228 0
M  V30 4817 O 436.67 -3.08979 1.77231 0
M  V30 4818 O 435.529 -4.86053 2.4983 0
M  V30 4819 H 432.623 -0.751099 0.346092 0
M  V30 4820 H 435.169 -1.07366 1.31417 0
M  V30 4821 H 433.941 -2.72402 2.80915 0
M  V30 4822 H 433.564 -3.71721 1.41099 0
M  V30 4823 N 434.561 -1.01147 -1.20859 0
M  V30 4824 C 435.491 -0.597663 -2.25722 0
M  V30 4825 C 436.472 0.384744 -1.65692 0
M  V30 4826 O 437.657 0.271303 -1.92296 0
M  V30 4827 C 434.787 0.0700149 -3.47229 0
M  V30 4828 C 433.741 -0.832843 -4.19819 0
M  V30 4829 C 433.067 -0.0312202 -5.34691 0
M  V30 4830 C 434.367 -2.1385 -4.76514 0
M  V30 4831 H 436.061 -1.47423 -2.60589 0
M  V30 4832 H 433.607 -0.710301 -1.25263 0
M  V30 4833 H 435.56 0.37103 -4.19763 0
M  V30 4834 H 434.284 0.981259 -3.11511 0
M  V30 4835 H 432.943 -1.11778 -3.49144 0
M  V30 4836 H 432.591 0.881515 -4.95215 0
M  V30 4837 H 432.291 -0.632434 -5.84187 0
M  V30 4838 H 433.815 0.26346 -6.10031 0
M  V30 4839 H 435.229 -1.9002 -5.40893 0
M  V30 4840 H 433.626 -2.69012 -5.36426 0
M  V30 4841 H 434.696 -2.80495 -3.95538 0
M  V30 4842 N 436.039 1.36541 -0.78704 0
M  V30 4843 C 436.986 2.30082 -0.181901 0
M  V30 4844 C 437.956 1.5186 0.672896 0
M  V30 4845 O 439.141 1.80374 0.622072 0
M  V30 4846 C 436.281 3.3835 0.679197 0
M  V30 4847 C 435.394 4.31565 -0.193882 0
M  V30 4848 C 434.529 5.26915 0.673364 0
M  V30 4849 C 433.568 6.11769 -0.201315 0
M  V30 4850 N 432.705 6.99315 0.624777 0
M  V30 4851 H 437.545 2.81248 -0.985064 0
M  V30 4852 H 435.082 1.38437 -0.497342 0
M  V30 4853 H 437.04 3.99767 1.19341 0
M  V30 4854 H 435.67 2.8851 1.44781 0
M  V30 4855 H 434.722 3.71323 -0.826044 0
M  V30 4856 H 436.034 4.91191 -0.867937 0
M  V30 4857 H 435.188 5.9361 1.25348 0
M  V30 4858 H 433.927 4.67737 1.38105 0
M  V30 4859 H 432.932 5.44039 -0.793849 0
M  V30 4860 H 434.157 6.73022 -0.906568 0
M  V30 4861 H 432.103 6.42648 1.3168 0
M  V30 4862 H 432.02 7.56 0.00835237 0
M  V30 4863 H 433.288 7.70382 1.18879 0
M  V30 4864 N 437.518 0.538854 1.48102 0
M  V30 4865 C 438.795 -0.0568108 1.95517 0
M  V30 4866 C 439.175 -1.50408 1.48124 0
M  V30 4867 O 438.523 -2.17133 0.711727 0
M  V30 4868 C 438.733 0.0696262 3.48931 0
M  V30 4869 C 440.081 -0.0851202 4.24515 0
M  V30 4870 O 441.105 -0.0037347 3.562 0
M  V30 4871 O 439.964 -0.257025 5.45895 0
M  V30 4872 H 437.058 -0.0743695 0.823649 0
M  V30 4873 H 439.604 0.604081 1.58584 0
M  V30 4874 H 438.376 1.07744 3.76174 0
M  V30 4875 H 437.999 -0.629714 3.92582 0
M  V30 4876 N 438.996 -1.55193 0.274407 0
M  V30 4877 C 440.224 -2.03987 -0.345943 0
M  V30 4878 C 440.639 -1.15279 -1.4952 0
M  V30 4879 O 439.996 -0.172759 -1.8168 0
M  V30 4880 C 440.047 -3.51898 -0.827631 0
M  V30 4881 O 439.768 -4.37231 0.275855 0
M  V30 4882 C 441.269 -4.16577 -1.51587 0
M  V30 4883 H 438.489 -0.666335 -0.0789892 0
M  V30 4884 H 441.033 -2.00423 0.406294 0
M  V30 4885 H 439.188 -3.55909 -1.52996 0
M  V30 4886 H 439.602 -5.24415 -0.0943638 0
M  V30 4887 H 441.076 -5.21678 -1.80433 0
M  V30 4888 H 441.553 -3.64707 -2.44716 0
M  V30 4889 H 442.159 -4.16568 -0.857409 0
M  V30 4890 N 440.474 -0.00167713 -1.576 0
M  V30 4891 C 441.404 0.988091 -2.11563 0
M  V30 4892 C 442.385 1.35736 -1.02517 0
M  V30 4893 O 443.57 1.44082 -1.30208 0
M  V30 4894 C 440.7 2.27941 -2.62031 0
M  V30 4895 C 439.654 2.0517 -3.75619 0
M  V30 4896 C 438.98 3.4033 -4.12407 0
M  V30 4897 C 440.28 1.41294 -5.02825 0
M  V30 4898 H 441.974 0.538771 -2.94513 0
M  V30 4899 H 439.52 0.257712 -1.41675 0
M  V30 4900 H 441.473 2.97539 -2.9841 0
M  V30 4901 H 440.197 2.74989 -1.76205 0
M  V30 4902 H 438.856 1.37998 -3.39635 0
M  V30 4903 H 438.504 3.85085 -3.23603 0
M  V30 4904 H 438.204 3.25909 -4.88935 0
M  V30 4905 H 439.728 4.1124 -4.51347 0
M  V30 4906 H 441.142 2.00851 -5.36965 0
M  V30 4907 H 439.539 1.37356 -5.84169 0
M  V30 4908 H 440.609 0.382362 -4.8339 0
M  V30 4909 N 441.952 1.55251 0.271103 0
M  V30 4910 C 443.368 1.47133 0.618393 0
M  V30 4911 C 443.568 0.686994 1.89427 0
M  V30 4912 O 442.624 0.206609 2.51653 0
M  V30 4913 C 443.937 2.91361 0.743593 0
M  V30 4914 C 445.485 3.01587 0.837522 0
M  V30 4915 C 445.96 4.47073 0.994483 0
M  V30 4916 N 447.451 4.50909 1.05996 0
M  V30 4917 C 448.186 5.60698 1.20024 0
M  V30 4918 N 447.682 6.80348 1.30759 0
M  V30 4919 N 449.475 5.48444 1.23149 0
M  V30 4920 H 441.626 2.04698 -0.566784 0
M  V30 4921 H 443.889 0.928319 -0.192165 0
M  V30 4922 H 443.595 3.51483 -0.123493 0
M  V30 4923 H 443.469 3.40484 1.62328 0
M  V30 4924 H 445.856 2.4156 1.69507 0
M  V30 4925 H 445.937 2.55713 -0.0668086 0
M  V30 4926 H 445.581 5.07703 0.141582 0
M  V30 4927 H 445.511 4.90605 1.91349 0
M  V30 4928 H 448.002 3.6472 0.989316 0
M  V30 4929 H 448.315 7.59772 1.41303 0
M  V30 4930 H 446.66 6.83156 1.27761 0
M  V30 4931 H 449.851 4.53907 1.14394 0
M  V30 4932 H 450.024 6.34049 1.33738 0
M  V30 4933 N 443.43 -0.535701 1.48216 0
M  V30 4934 C 444.658 -1.31671 1.59594 0
M  V30 4935 C 445.073 -1.87083 0.254056 0
M  V30 4936 O 444.43 -1.66112 -0.755854 0
M  V30 4937 C 444.481 -2.47158 2.63809 0
M  V30 4938 O 444.202 -1.94032 3.92789 0
M  V30 4939 C 445.703 -3.39062 2.85573 0
M  V30 4940 H 442.923 -0.400623 0.538277 0
M  V30 4941 H 445.467 -0.646827 1.94001 0
M  V30 4942 H 443.622 -3.10043 2.32276 0
M  V30 4943 H 444.036 -2.69585 4.49916 0
M  V30 4944 H 445.51 -4.16459 3.62306 0
M  V30 4945 H 445.987 -3.93941 1.94184 0
M  V30 4946 H 446.593 -2.81975 3.18387 0
M  V30 4947 N 444.908 -1.36708 -0.784132 0
M  V30 4948 C 445.841 -1.25827 -1.90375 0
M  V30 4949 C 446.819 -0.141331 -1.61985 0
M  V30 4950 O 448.003 -0.313389 -1.85877 0
M  V30 4951 C 445.13 -0.942621 -3.25319 0
M  V30 4952 C 444.176 -2.07474 -3.72635 0
M  V30 4953 S 445.009 -3.69317 -3.8777 0
M  V30 4954 C 446.165 -3.39876 -5.25581 0
M  V30 4955 H 446.398 -2.20593 -1.99314 0
M  V30 4956 H 443.931 -1.22186 -0.943926 0
M  V30 4957 H 445.889 -0.767321 -4.03265 0
M  V30 4958 H 444.55 -0.0126566 -3.14097 0
M  V30 4959 H 443.743 -1.80858 -4.70432 0
M  V30 4960 H 443.345 -2.20953 -3.01754 0
M  V30 4961 H 445.637 -2.94097 -6.10339 0
M  V30 4962 H 446.58 -4.36956 -5.57203 0
M  V30 4963 H 446.988 -2.75098 -4.92931 0
M  V30 4964 N 446.386 1.0089 -1.21074 0
M  V30 4965 C 447.634 1.74262 -1.02358 0
M  V30 4966 C 447.955 1.89869 0.444393 0
M  V30 4967 O 447.225 1.44677 1.32081 0
M  V30 4968 H 445.805 0.645615 -0.375754 0
M  V30 4969 H 448.467 1.21596 -1.52317 0
M  V30 4970 H 447.563 2.74328 -1.4883 0
M  V30 4971 N 447.864 1.01787 1.20321 0
M  V30 4972 C 448.797 0.533882 2.21867 0
M  V30 4973 C 449.775 -0.419361 1.57099 0
M  V30 4974 O 450.959 -0.339062 1.85426 0
M  V30 4975 C 448.086 -0.222899 3.37966 0
M  V30 4976 C 447.132 0.680091 4.21043 0
M  V30 4977 S 447.965 2.14997 4.90445 0
M  V30 4978 C 449.121 1.40339 6.09964 0
M  V30 4979 H 449.354 1.39429 2.62577 0
M  V30 4980 H 446.887 0.826867 1.30393 0
M  V30 4981 H 448.845 -0.653425 4.05266 0
M  V30 4982 H 447.506 -1.0589 2.95713 0
M  V30 4983 H 446.699 0.0964704 5.03908 0
M  V30 4984 H 446.301 1.04845 3.59004 0
M  V30 4985 H 448.593 0.68407 6.74038 0
M  V30 4986 H 449.536 2.20823 6.72787 0
M  V30 4987 H 449.944 0.905716 5.57187 0
M  V30 4988 N 449.342 -1.36122 0.79427 0
M  V30 4989 C 450.588 -1.99406 0.369452 0
M  V30 4990 C 450.921 -1.62886 -1.05743 0
M  V30 4991 O 450.196 -0.886053 -1.73145 0
M  V30 4992 C 450.479 -3.56046 0.538833 0
M  V30 4993 C 450.332 -4.02404 2.00976 0
M  V30 4994 C 451.651 -4.40079 -0.0431359 0
M  V30 4995 H 448.77 -0.724397 0.135712 0
M  V30 4996 H 451.412 -1.61461 1.00151 0
M  V30 4997 H 449.562 -3.885 0.000771004 0
M  V30 4998 H 451.234 -3.80415 2.60926 0
M  V30 4999 H 449.477 -3.53765 2.51063 0
M  V30 5000 H 450.148 -5.11344 2.07922 0
M  V30 5001 H 452.624 -4.14013 0.416228 0
M  V30 5002 H 451.5 -5.48799 0.105374 0
M  V30 5003 H 451.761 -4.27264 -1.13571 0
M  V30 5004 N 450.82 -0.546701 -1.47814 0
M  V30 5005 C 452.097 0.0464413 -1.95545 0
M  V30 5006 C 452.477 1.4962 -1.48919 0
M  V30 5007 O 451.825 2.16752 -0.723232 0
M  V30 5008 C 452.035 -0.0881298 -3.48889 0
M  V30 5009 C 453.383 0.0626059 -4.24554 0
M  V30 5010 O 454.407 -0.0151555 -3.56197 0
M  V30 5011 O 453.266 0.228071 -5.46024 0
M  V30 5012 H 450.36 0.0700004 -0.824032 0
M  V30 5013 H 452.906 -0.612482 -1.58262 0
M  V30 5014 H 451.678 -1.09737 -3.75597 0
M  V30 5015 H 451.301 0.608886 -3.9291 0
M  V30 5016 N 452.299 1.55045 -0.282633 0
M  V30 5017 C 453.548 1.98938 0.332667 0
M  V30 5018 C 453.861 1.17455 1.56409 0
M  V30 5019 O 455.067 1.51527 2.25282 0
M  V30 5020 C 453.523 3.54105 0.643226 0
M  V30 5021 C 453.131 4.44374 -0.568814 0
M  V30 5022 C 454.875 4.06569 1.22074 0
M  V30 5023 C 452.782 5.90943 -0.232426 0
M  V30 5024 H 451.712 0.743043 0.128075 0
M  V30 5025 H 454.363 1.79341 -0.388464 0
M  V30 5026 H 452.745 3.69532 1.42346 0
M  V30 5027 H 453.919 4.40718 -1.34551 0
M  V30 5028 H 452.234 4.02585 -1.06369 0
M  V30 5029 H 454.831 5.13626 1.48635 0
M  V30 5030 H 455.174 3.56057 2.15707 0
M  V30 5031 H 455.707 3.94612 0.502621 0
M  V30 5032 H 452.446 6.45567 -1.13683 0
M  V30 5033 H 451.966 5.9765 0.507357 0
M  V30 5034 H 453.645 6.4677 0.172657 0
M  V30 5035 N 453.777 0.010035 1.57597 0
M  V30 5036 C 455.024 -0.6727 1.91 0
M  V30 5037 C 455.352 -1.73219 0.884614 0
M  V30 5038 O 454.607 -1.95395 -0.109215 0
M  V30 5039 C 454.906 -1.34434 3.31153 0
M  V30 5040 C 454.572 -0.417083 4.48967 0
M  V30 5041 C 453.234 -0.161809 4.80928 0
M  V30 5042 C 455.586 0.220753 5.20732 0
M  V30 5043 C 452.914 0.739426 5.82022 0
M  V30 5044 C 455.266 1.10993 6.22787 0
M  V30 5045 C 453.93 1.37428 6.532 0
M  V30 5046 H 453.2 -0.246158 0.698918 0
M  V30 5047 H 455.847 0.0677145 1.9138 0
M  V30 5048 H 454.152 -2.15905 3.26944 0
M  V30 5049 H 455.849 -1.87883 3.54261 0
M  V30 5050 H 452.439 -0.626217 4.24001 0
M  V30 5051 H 456.623 0.0365643 4.96287 0
M  V30 5052 H 451.879 0.952139 6.03941 0
M  V30 5053 H 456.053 1.61046 6.77523 0
M  V30 5054 H 453.68 2.0743 7.31353 0
M  V30 5055 N 455.255 -1.55392 -0.262866 0
M  V30 5056 C 456.203 -1.8977 -1.345 0
M  V30 5057 C 457.197 -0.775063 -1.50629 0
M  V30 5058 O 458.403 -0.959519 -1.52293 0
M  V30 5059 H 454.778 -0.602467 -0.450041 0
M  V30 5060 H 456.749 -2.80147 -1.02762 0
M  V30 5061 C 455.498 -2.19501 -2.69657 0
M  V30 5062 H 454.821 -3.05378 -2.5804 0
M  V30 5063 H 456.261 -2.47469 -3.44289 0
M  V30 5064 C 454.72 -1.00597 -3.21531 0
M  V30 5065 O 455.25 -0.245768 -4.00947 0
M  V30 5066 N 453.456 -0.800911 -2.79345 0
M  V30 5067 H 453.003 -1.42079 -2.14875 0
M  V30 5068 H 452.961 -0.00697996 -3.14399 0
M  V30 5069 N 456.733 0.527833 -1.48498 0
M  V30 5070 C 457.981 1.28101 -1.56316 0
M  V30 5071 C 458.302 1.9352 -0.239781 0
M  V30 5072 O 457.572 1.81433 0.738849 0
M  V30 5073 H 456.152 0.475793 -0.575873 0
M  V30 5074 H 458.814 0.614052 -1.84974 0
M  V30 5075 H 457.91 2.05916 -2.34532 0
M  V30 5076 N 458.211 1.37122 0.776871 0
M  V30 5077 C 459.488 1.22586 1.52421 0
M  V30 5078 C 459.868 -0.182726 2.10308 0
M  V30 5079 O 459.216 -1.18979 1.9508 0
M  V30 5080 C 459.426 2.31782 2.60918 0
M  V30 5081 C 460.774 2.69071 3.2846 0
M  V30 5082 O 461.798 2.3092 2.71209 0
M  V30 5083 O 460.657 3.3478 4.31954 0
M  V30 5084 H 457.751 0.478045 0.674835 0
M  V30 5085 H 460.297 1.48888 0.814275 0
M  V30 5086 H 459.069 3.26131 2.16227 0
M  V30 5087 H 458.692 2.06916 3.39517 0
M  V30 5088 N 459.689 -1.00246 1.21608 0
M  V30 5089 C 460.652 -2.07233 0.979133 0
M  V30 5090 C 461.652 -1.6072 -0.0508219 0
M  V30 5091 O 462.842 -1.73196 0.186712 0
M  V30 5092 C 459.974 -3.37546 0.477016 0
M  V30 5093 H 461.167 -2.29687 1.92831 0
M  V30 5094 H 458.72 -1.17261 1.03342 0
M  V30 5095 H 459.455 -3.20773 -0.476966 0
M  V30 5096 H 459.24 -3.72638 1.21997 0
M  V30 5097 H 460.73 -4.16285 0.331181 0
M  V30 5098 N 461.167 -1.02423 -1.1978 0
M  V30 5099 C 462.444 -0.632802 -1.85081 0
M  V30 5100 C 462.824 0.888745 -1.9148 0
M  V30 5101 O 462.172 1.78357 -1.42832 0
M  V30 5102 C 462.382 -1.28947 -3.24305 0
M  V30 5103 C 463.73 -1.40976 -4.00513 0
M  V30 5104 O 464.754 -1.24628 -3.33686 0
M  V30 5105 O 463.613 -1.67467 -5.20209 0
M  V30 5106 H 460.707 -0.219348 -0.79738 0
M  V30 5107 H 463.253 -1.12209 -1.27307 0
M  V30 5108 H 462.025 -2.3288 -3.14456 0
M  V30 5109 H 461.648 -0.787748 -3.89718 0
M  V30 5110 N 462.645 1.35699 -0.801477 0
M  V30 5111 C 463.575 2.32436 -0.222658 0
M  V30 5112 C 464.556 1.5723 0.649057 0
M  V30 5113 O 465.741 1.85324 0.580387 0
M  V30 5114 C 462.871 3.41469 0.633719 0
M  V30 5115 C 461.825 4.27774 -0.139083 0
M  V30 5116 C 461.151 5.28082 0.838666 0
M  V30 5117 C 462.451 5.04946 -1.33517 0
M  V30 5118 H 464.145 2.81094 -1.03086 0
M  V30 5119 H 461.691 1.35146 -0.497155 0
M  V30 5120 H 463.644 4.08143 1.04868 0
M  V30 5121 H 462.368 2.91408 1.47475 0
M  V30 5122 H 461.027 3.62673 -0.535156 0
M  V30 5123 H 460.675 4.7429 1.67506 0
M  V30 5124 H 460.375 5.86695 0.32594 0
M  V30 5125 H 461.899 5.97628 1.25194 0
M  V30 5126 H 463.313 5.64593 -0.995349 0
M  V30 5127 H 461.71 5.7303 -1.78202 0
M  V30 5128 H 462.78 4.35886 -2.12442 0
M  V30 5129 N 464.123 0.554532 1.47522 0
M  V30 5130 C 465.348 0.0322661 2.07375 0
M  V30 5131 C 465.773 -1.25079 1.40488 0
M  V30 5132 O 465.131 -1.74859 0.47896 0
M  V30 5133 C 465.179 -0.149397 3.6029 0
M  V30 5134 O 464.283 -1.21259 3.9417 0
M  V30 5135 H 463.624 0.0501228 0.662106 0
M  V30 5136 H 466.154 0.769452 1.8958 0
M  V30 5137 H 466.164 -0.364437 4.06369 0
M  V30 5138 H 464.839 0.787743 4.08372 0
M  V30 5139 H 463.416 -0.97825 3.5984 0
M  V30 5140 N 465.601 -1.54893 0.290851 0
M  V30 5141 C 466.849 -1.99538 -0.320756 0
M  V30 5142 C 467.17 -1.18075 -1.55188 0
M  V30 5143 O 466.44 -0.274162 -1.93972 0
M  V30 5144 H 465.02 -0.737052 -0.121507 0
M  V30 5145 H 467.682 -1.90755 0.399832 0
M  V30 5146 H 466.778 -3.06282 -0.599802 0
M  V30 5147 N 467.08 -0.0183926 -1.57589 0
M  V30 5148 C 468.013 1.00148 -2.0505 0
M  V30 5149 C 468.991 1.32387 -0.944058 0
M  V30 5150 O 470.175 1.44237 -1.21358 0
M  V30 5151 C 467.302 2.32435 -2.46357 0
M  V30 5152 C 466.348 2.15731 -3.67916 0
M  V30 5153 S 467.181 1.46613 -5.15039 0
M  V30 5154 C 468.337 2.80293 -5.59631 0
M  V30 5155 H 468.57 0.597429 -2.91235 0
M  V30 5156 H 466.103 0.193002 -1.53189 0
M  V30 5157 H 468.061 3.0849 -2.70822 0
M  V30 5158 H 466.722 2.69975 -1.60537 0
M  V30 5159 H 465.915 3.13502 -3.9463 0
M  V30 5160 H 465.517 1.4782 -3.43548 0
M  V30 5161 H 467.809 3.76557 -5.63215 0
M  V30 5162 H 468.752 2.58256 -6.59325 0
M  V30 5163 H 469.16 2.85047 -4.87246 0
M  V30 5164 N 468.558 1.5553 0.254621 0
M  V30 5165 C 469.786 1.81046 1.00149 0
M  V30 5166 C 470.201 0.593047 1.79244 0
M  V30 5167 O 469.558 -0.438196 1.77161 0
M  V30 5168 C 469.609 3.04684 1.94551 0
M  V30 5169 O 469.33 4.21725 1.18658 0
M  V30 5170 C 470.831 3.42943 2.80901 0
M  V30 5171 H 468.051 0.602653 0.295044 0
M  V30 5172 H 470.595 2.02576 0.279842 0
M  V30 5173 H 468.75 2.85226 2.62154 0
M  V30 5174 H 469.164 4.91746 1.82445 0
M  V30 5175 H 470.638 4.32576 3.42902 0
M  V30 5176 H 471.115 2.63176 3.51617 0
M  V30 5177 H 471.721 3.64724 2.18762 0
M  V30 5178 N 470.036 -0.519951 1.48776 0
M  V30 5179 C 471.284 -1.2727 1.56993 0
M  V30 5180 C 471.605 -1.9339 0.25004 0
M  V30 5181 O 470.875 -1.81822 -0.729216 0
M  V30 5182 H 469.455 -0.472732 0.578389 0
M  V30 5183 H 472.117 -0.604234 1.85297 0
M  V30 5184 H 471.213 -2.04669 2.3562 0
M  V30 5185 N 471.514 -1.37532 -0.769588 0
M  V30 5186 C 472.739 -1.36231 -1.56384 0
M  V30 5187 C 473.164 0.0495849 -1.88035 0
M  V30 5188 O 472.522 1.02723 -1.49391 0
M  V30 5189 C 472.57 -2.20986 -2.84952 0
M  V30 5190 O 471.674 -1.61597 -3.79421 0
M  V30 5191 H 471.015 -0.465387 -0.473615 0
M  V30 5192 H 473.545 -1.81085 -0.952342 0
M  V30 5193 H 473.555 -2.34277 -3.34034 0
M  V30 5194 H 472.23 -3.23612 -2.61243 0
M  V30 5195 H 470.807 -1.57359 -3.38072 0
M  V30 5196 N 472.992 0.995999 -1.22138 0
M  V30 5197 C 474.408 1.25917 -0.980667 0
M  V30 5198 C 474.608 1.98819 0.327604 0
M  V30 5199 O 473.664 2.29587 1.05101 0
M  V30 5200 C 474.977 2.07399 -2.17729 0
M  V30 5201 C 476.525 2.20594 -2.22052 0
M  V30 5202 C 477 3.05462 -3.41258 0
M  V30 5203 N 478.491 3.13049 -3.41401 0
M  V30 5204 C 479.226 3.78997 -4.30289 0
M  V30 5205 N 478.722 4.46899 -5.2939 0
M  V30 5206 N 480.515 3.75728 -4.18073 0
M  V30 5207 H 472.666 0.507158 -2.06256 0
M  V30 5208 H 474.929 0.28658 -0.903646 0
M  V30 5209 H 474.635 1.61191 -3.12586 0
M  V30 5210 H 474.509 3.08154 -2.17534 0
M  V30 5211 H 476.896 2.66017 -1.27745 0
M  V30 5212 H 476.977 1.1928 -2.26287 0
M  V30 5213 H 476.621 2.60739 -4.35864 0
M  V30 5214 H 476.551 4.06911 -3.34262 0
M  V30 5215 H 479.042 2.64721 -2.69688 0
M  V30 5216 H 479.355 4.94952 -5.935 0
M  V30 5217 H 477.7 4.45657 -5.33306 0
M  V30 5218 H 480.891 3.2184 -3.39907 0
M  V30 5219 H 481.064 4.26845 -4.87553 0
M  V30 5220 N 474.47 1.03057 1.19235 0
M  V30 5221 C 475.718 0.726581 1.88587 0
M  V30 5222 C 476.039 -0.747227 1.80115 0
M  V30 5223 O 475.309 -1.53849 1.21274 0
M  V30 5224 H 473.889 0.265768 0.698124 0
M  V30 5225 H 476.551 1.30516 1.44746 0
M  V30 5226 H 475.647 1.0224 2.94879 0
M  V30 5227 N 475.948 -1.35272 0.808662 0
M  V30 5228 C 476.878 -2.32315 0.234981 0
M  V30 5229 C 477.859 -1.57572 -0.64071 0
M  V30 5230 O 479.044 -1.8563 -0.570551 0
M  V30 5231 C 476.174 -3.41801 -0.615601 0
M  V30 5232 C 475.128 -4.27694 0.161767 0
M  V30 5233 C 474.454 -5.28519 -0.810649 0
M  V30 5234 C 475.754 -5.04231 1.36193 0
M  V30 5235 H 477.448 -2.80543 1.04575 0
M  V30 5236 H 474.994 -1.3488 0.504315 0
M  V30 5237 H 476.947 -4.08693 -1.02702 0
M  V30 5238 H 475.671 -2.92186 -1.45928 0
M  V30 5239 H 474.33 -3.62384 0.554382 0
M  V30 5240 H 473.978 -4.75171 -1.64988 0
M  V30 5241 H 473.678 -5.8686 -0.294822 0
M  V30 5242 H 475.202 -5.98283 -1.22023 0
M  V30 5243 H 476.616 -5.64058 1.02528 0
M  V30 5244 H 475.013 -5.72077 1.81239 0
M  V30 5245 H 476.083 -4.34753 2.14751 0
M  V30 5246 N 477.426 -0.562348 -1.47226 0
M  V30 5247 C 478.672 -0.0402761 -2.0276 0
M  V30 5248 C 479.005 1.30823 -1.43523 0
M  V30 5249 O 478.28 1.85249 -0.592705 0
M  V30 5250 C 478.563 0.047311 -3.60069 0
M  V30 5251 C 478.416 -1.32865 -4.29729 0
M  V30 5252 C 479.735 0.758182 -4.3352 0
M  V30 5253 H 476.854 -0.0161105 -0.736824 0
M  V30 5254 H 479.496 -0.725628 -1.75598 0
M  V30 5255 H 477.646 0.630986 -3.83342 0
M  V30 5256 H 479.318 -1.95593 -4.17781 0
M  V30 5257 H 477.561 -1.90195 -3.89882 0
M  V30 5258 H 478.232 -1.22004 -5.38349 0
M  V30 5259 H 480.708 0.262546 -4.15271 0
M  V30 5260 H 479.584 0.78844 -5.43208 0
M  V30 5261 H 479.845 1.81537 -4.03109 0
M  V30 5262 N 478.904 1.54736 -0.299062 0
M  V30 5263 C 479.834 2.26409 0.571085 0
M  V30 5264 C 480.815 1.2629 1.13951 0
M  V30 5265 O 482 1.55059 1.16921 0
M  V30 5266 C 479.13 3.00338 1.74396 0
M  V30 5267 C 478.084 4.07588 1.30599 0
M  V30 5268 C 477.41 4.69222 2.56387 0
M  V30 5269 C 478.71 5.20455 0.438645 0
M  V30 5270 H 480.404 2.99388 -0.0266991 0
M  V30 5271 H 477.95 1.43993 -0.0142812 0
M  V30 5272 H 479.903 3.49198 2.35878 0
M  V30 5273 H 478.627 2.24934 2.36796 0
M  V30 5274 H 477.286 3.59575 0.71424 0
M  V30 5275 H 476.934 3.9046 3.17097 0
M  V30 5276 H 476.634 5.41653 2.27784 0
M  V30 5277 H 478.158 5.20844 3.18675 0
M  V30 5278 H 479.572 5.65221 0.959085 0
M  V30 5279 H 477.969 5.99594 0.246466 0
M  V30 5280 H 479.039 4.8192 -0.536738 0
M  V30 5281 N 480.382 0.0267497 1.57577 0
M  V30 5282 C 481.607 -0.666227 1.96408 0
M  V30 5283 C 482.032 -1.65004 0.903071 0
M  V30 5284 O 481.39 -1.80787 -0.136263 0
M  V30 5285 C 481.438 -1.35101 3.34335 0
M  V30 5286 O 480.542 -2.46623 3.30531 0
M  V30 5287 H 479.883 -0.175206 0.640468 0
M  V30 5288 H 482.413 0.0878977 2.04411 0
M  V30 5289 H 482.423 -1.70834 3.70513 0
M  V30 5290 H 481.098 -0.629844 4.11103 0
M  V30 5291 H 479.675 -2.13019 3.06068 0
M  V30 5292 N 481.861 -1.55662 -0.24637 0
M  V30 5293 C 483.109 -1.77168 -0.972411 0
M  V30 5294 C 483.43 -0.590827 -1.85834 0
M  V30 5295 O 482.7 0.393365 -1.9191 0
M  V30 5296 H 481.28 -0.653405 -0.362038 0
M  V30 5297 H 483.942 -1.93101 -0.264189 0
M  V30 5298 H 483.038 -2.68335 -1.59382 0
M  V30 5299 N 483.339 0.512053 -1.4905 0
M  V30 5300 C 484.585 1.26874 -1.58212 0
M  V30 5301 C 484.918 1.9241 -0.263073 0
M  V30 5302 O 484.193 1.80181 0.732476 0
M  V30 5303 C 484.476 2.34428 -2.73341 0
M  V30 5304 C 484.329 1.73466 -4.15006 0
M  V30 5305 C 485.648 3.36073 -2.84154 0
M  V30 5306 H 482.767 0.459924 -0.575881 0
M  V30 5307 H 485.409 0.568587 -1.81293 0
M  V30 5308 H 483.559 2.94146 -2.53792 0
M  V30 5309 H 485.231 1.17661 -4.46042 0
M  V30 5310 H 483.474 1.03921 -4.21168 0
M  V30 5311 H 484.145 2.51426 -4.91415 0
M  V30 5312 H 486.621 2.86332 -3.01916 0
M  V30 5313 H 485.497 4.08703 -3.66406 0
M  V30 5314 H 485.758 3.97725 -1.93048 0
M  V30 5315 N 484.817 1.37938 0.762283 0
M  V30 5316 C 485.747 1.37176 1.88958 0
M  V30 5317 C 486.728 0.238945 1.68413 0
M  V30 5318 O 487.913 0.440726 1.89133 0
M  V30 5319 C 485.043 1.18742 3.2637 0
M  V30 5320 C 483.997 2.29136 3.61498 0
M  V30 5321 C 483.323 1.95816 4.97554 0
M  V30 5322 C 484.623 3.71363 3.6727 0
M  V30 5323 H 486.317 2.31509 1.89853 0
M  V30 5324 H 483.863 1.11438 0.912005 0
M  V30 5325 H 485.816 1.16837 4.04879 0
M  V30 5326 H 484.54 0.208683 3.25933 0
M  V30 5327 H 483.199 2.30213 2.85303 0
M  V30 5328 H 482.847 0.964475 4.93667 0
M  V30 5329 H 482.547 2.69745 5.22026 0
M  V30 5330 H 484.071 1.95513 5.78452 0
M  V30 5331 H 485.485 3.72364 4.35911 0
M  V30 5332 H 483.882 4.44425 4.03245 0
M  V30 5333 H 484.952 4.04305 2.67704 0
M  V30 5334 N 486.295 -0.989507 1.22664 0
M  V30 5335 C 487.245 -2.06478 0.967005 0
M  V30 5336 C 488.229 -1.60682 -0.0836374 0
M  V30 5337 O 489.421 -1.76541 0.127322 0
M  V30 5338 C 486.55 -3.38861 0.550313 0
M  V30 5339 C 485.636 -3.9128 1.63587 0
M  V30 5340 N 486.027 -4.16884 2.86429 0
M  V30 5341 C 484.325 -4.1972 1.50834 0
M  V30 5342 C 485.026 -4.5954 3.56648 0
M  V30 5343 N 484.002 -4.63434 2.84131 0
M  V30 5344 H 487.804 -2.24219 1.90008 0
M  V30 5345 H 485.318 -1.17153 1.12467 0
M  V30 5346 H 487.315 -4.15465 0.345612 0
M  V30 5347 H 485.975 -3.22518 -0.375822 0
M  V30 5348 H 486.986 -4.04976 3.22823 0
M  V30 5349 H 483.663 -4.1243 0.648643 0
M  V30 5350 H 485.053 -4.87944 4.61909 0
M  V30 5351 N 487.773 -1.03688 -1.18687 0
M  V30 5352 C 488.72 -0.624624 -2.22187 0
M  V30 5353 C 489.69 0.365636 -1.62026 0
M  V30 5354 O 490.875 0.260481 -1.89014 0
M  V30 5355 C 488.015 0.0101738 -3.45099 0
M  V30 5356 C 487.128 -1.02709 -4.19613 0
M  V30 5357 C 486.263 -0.361213 -5.2997 0
M  V30 5358 C 485.302 -1.38384 -5.96252 0
M  V30 5359 N 484.439 -0.743196 -6.98155 0
M  V30 5360 H 489.279 -1.51176 -2.56807 0
M  V30 5361 H 486.816 -0.75636 -1.26165 0
M  V30 5362 H 488.774 0.395528 -4.15321 0
M  V30 5363 H 487.404 0.860848 -3.1111 0
M  V30 5364 H 486.456 -1.53043 -3.48256 0
M  V30 5365 H 487.768 -1.80398 -4.65036 0
M  V30 5366 H 486.922 0.0785537 -6.06649 0
M  V30 5367 H 485.661 0.447799 -4.8564 0
M  V30 5368 H 484.666 -1.83378 -5.18317 0
M  V30 5369 H 485.891 -2.19448 -6.42666 0
M  V30 5370 H 483.837 0.0455789 -6.55984 0
M  V30 5371 H 483.754 -1.45784 -7.41811 0
M  V30 5372 H 485.022 -0.327698 -7.78811 0
M  V30 5373 N 489.251 1.34841 -0.815825 0
M  V30 5374 C 490.214 2.27959 -0.238185 0
M  V30 5375 C 491.214 1.49983 0.579816 0
M  V30 5376 O 492.404 1.69617 0.396953 0
M  V30 5377 C 489.536 3.34314 0.666876 0
M  V30 5378 H 490.729 2.80558 -1.05958 0
M  V30 5379 H 488.282 1.44852 -0.587156 0
M  V30 5380 H 489.017 2.86916 1.5116 0
M  V30 5381 H 488.802 3.92014 0.0819106 0
M  V30 5382 H 490.292 4.0379 1.06506 0
M  V30 5383 N 490.729 0.570148 1.46925 0
M  V30 5384 C 491.976 0.0509529 2.02436 0
M  V30 5385 C 492.304 -1.30405 1.44308 0
M  V30 5386 O 491.559 -1.86493 0.593198 0
M  V30 5387 C 491.858 -0.0780336 3.57315 0
M  V30 5388 C 491.524 1.20775 4.34424 0
M  V30 5389 C 490.186 1.56004 4.5521 0
M  V30 5390 C 492.538 2.0592 4.78797 0
M  V30 5391 C 489.866 2.76201 5.17619 0
M  V30 5392 C 492.218 3.25332 5.42533 0
M  V30 5393 C 490.882 3.60859 5.61549 0
M  V30 5394 H 490.152 0.018645 0.740765 0
M  V30 5395 H 492.799 0.744262 1.76445 0
M  V30 5396 H 491.104 -0.854394 3.82371 0
M  V30 5397 H 492.801 -0.495312 3.97929 0
M  V30 5398 H 489.391 0.923469 4.18533 0
M  V30 5399 H 493.575 1.80008 4.62505 0
M  V30 5400 H 488.831 3.0388 5.30535 0
M  V30 5401 H 493.005 3.91586 5.75876 0
M  V30 5402 H 490.632 4.54088 6.09678 0
M  V30 5403 N 492.207 -1.54576 0.307264 0
M  V30 5404 C 493.453 -2.0056 -0.300612 0
M  V30 5405 C 493.786 -1.1953 -1.53057 0
M  V30 5406 O 493.061 -0.27337 -1.92569 0
M  V30 5407 C 493.344 -3.54167 -0.650987 0
M  V30 5408 C 493.197 -4.45933 0.588539 0
M  V30 5409 C 494.516 -4.14645 -1.47506 0
M  V30 5410 H 491.635 -0.729075 -0.107788 0
M  V30 5411 H 494.277 -1.85286 0.420606 0
M  V30 5412 H 492.427 -3.67313 -1.26544 0
M  V30 5413 H 494.099 -4.44683 1.22697 0
M  V30 5414 H 492.342 -4.16274 1.22058 0
M  V30 5415 H 493.013 -5.51189 0.299153 0
M  V30 5416 H 495.489 -4.04973 -0.955821 0
M  V30 5417 H 494.365 -5.22269 -1.68899 0
M  V30 5418 H 494.626 -3.66921 -2.4662 0
M  V30 5419 N 493.685 -0.035106 -1.57561 0
M  V30 5420 C 494.595 0.960295 -2.14046 0
M  V30 5421 C 495.611 1.3529 -1.0942 0
M  V30 5422 O 496.787 1.43309 -1.41508 0
M  V30 5423 C 493.852 2.22214 -2.66124 0
M  V30 5424 C 492.913 1.8894 -3.85487 0
M  V30 5425 C 492.146 3.09109 -4.35072 0
M  V30 5426 O 492.369 4.21963 -3.83802 0
M  V30 5427 O 491.303 2.91058 -5.26848 0
M  V30 5428 H 495.129 0.509983 -2.99387 0
M  V30 5429 H 492.714 0.185853 -1.48239 0
M  V30 5430 H 494.596 2.96279 -2.99661 0
M  V30 5431 H 493.271 2.66414 -1.83862 0
M  V30 5432 H 492.178 1.12241 -3.56865 0
M  V30 5433 H 493.511 1.49551 -4.6893 0
M  V30 5434 N 495.163 1.55791 0.238111 0
M  V30 5435 C 496.409 1.78297 0.966337 0
M  V30 5436 C 496.742 0.601903 1.84637 0
M  V30 5437 O 496.017 -0.399499 1.90353 0
M  V30 5438 C 496.3 3.10758 1.81939 0
M  V30 5439 C 496.153 4.39283 0.966958 0
M  V30 5440 C 497.472 3.39519 2.80027 0
M  V30 5441 H 494.591 0.648654 0.349882 0
M  V30 5442 H 497.233 1.88525 0.236253 0
M  V30 5443 H 495.383 3.02168 2.44185 0
M  V30 5444 H 497.055 4.59873 0.362514 0
M  V30 5445 H 495.298 4.32948 0.271669 0
M  V30 5446 H 495.969 5.28368 1.59784 0
M  V30 5447 H 498.445 3.48128 2.27917 0
M  V30 5448 H 497.321 4.33402 3.36829 0
M  V30 5449 H 497.582 2.60864 3.56934 0
M  V30 5450 N 496.642 -0.504142 1.49319 0
M  V30 5451 C 497.87 -1.28256 1.62351 0
M  V30 5452 C 498.285 -1.86502 0.293682 0
M  V30 5453 O 497.642 -1.67678 -0.720449 0
M  V30 5454 C 497.693 -2.41507 2.68992 0
M  V30 5455 O 497.414 -1.85656 3.96817 0
M  V30 5456 C 498.915 -3.32929 2.927 0
M  V30 5457 H 496.135 -0.389115 0.546654 0
M  V30 5458 H 498.679 -0.605531 1.95329 0
M  V30 5459 H 496.834 -3.05046 2.38801 0
M  V30 5460 H 497.248 -2.59981 4.55533 0
M  V30 5461 H 498.722 -4.0868 3.71058 0
M  V30 5462 H 499.199 -3.89733 2.02496 0
M  V30 5463 H 499.805 -2.75158 3.24296 0
M  V30 5464 N 498.12 -1.38341 -0.754957 0
M  V30 5465 C 499.03 -1.3769 -1.89944 0
M  V30 5466 C 500.046 -0.274194 -1.71826 0
M  V30 5467 O 501.222 -0.512391 -1.94773 0
M  V30 5468 C 498.287 -1.19938 -3.25293 0
M  V30 5469 C 497.348 -2.40001 -3.55946 0
M  V30 5470 C 496.581 -2.23087 -4.84838 0
M  V30 5471 O 496.804 -1.22386 -5.57116 0
M  V30 5472 O 495.738 -3.11646 -5.14937 0
M  V30 5473 H 499.564 -2.3412 -1.93446 0
M  V30 5474 H 497.149 -1.19246 -0.900044 0
M  V30 5475 H 499.031 -1.12093 -4.06218 0
M  V30 5476 H 497.706 -0.265919 -3.22606 0
M  V30 5477 H 496.613 -2.53421 -2.75188 0
M  V30 5478 H 497.946 -3.31973 -3.63394 0
M  V30 5479 N 499.598 0.982988 -1.23187 0
M  V30 5480 C 500.508 2.10907 -1.02739 0
M  V30 5481 C 501.524 1.73979 0.0273188 0
M  V30 5482 O 502.7 2.00702 -0.16757 0
M  V30 5483 C 499.765 3.41142 -0.618304 0
M  V30 5484 C 498.826 3.92112 -1.74777 0
M  V30 5485 C 498.059 5.16131 -1.3581 0
M  V30 5486 O 498.282 5.6989 -0.241201 0
M  V30 5487 O 497.216 5.61103 -2.17824 0
M  V30 5488 H 501.042 2.31046 -1.97108 0
M  V30 5489 H 498.627 1.09284 -1.01869 0
M  V30 5490 H 500.509 4.19488 -0.400982 0
M  V30 5491 H 499.184 3.2234 0.296421 0
M  V30 5492 H 498.091 3.14895 -2.0197 0
M  V30 5493 H 499.424 4.15364 -2.64071 0
M  V30 5494 N 501.076 1.04316 1.18135 0
M  V30 5495 C 502.324 0.746542 1.87806 0
M  V30 5496 C 502.645 -0.728082 1.80898 0
M  V30 5497 O 501.915 -1.52554 1.22899 0
M  V30 5498 H 500.495 0.273157 0.695265 0
M  V30 5499 H 503.157 1.32044 1.43354 0
M  V30 5500 H 502.253 1.05362 2.93778 0
M  V30 5501 N 502.554 -1.34406 0.822964 0
M  V30 5502 C 503.517 -2.2783 0.250271 0
M  V30 5503 C 504.517 -1.50288 -0.571854 0
M  V30 5504 O 505.707 -1.69825 -0.387952 0
M  V30 5505 C 502.839 -3.34663 -0.649137 0
M  V30 5506 H 504.032 -2.79992 1.07444 0
M  V30 5507 H 501.585 -1.44539 0.594829 0
M  V30 5508 H 502.32 -2.87714 -1.49637 0
M  V30 5509 H 502.105 -3.92052 -0.0611199 0
M  V30 5510 H 503.595 -4.04349 -1.04363 0
M  V30 5511 N 504.032 -0.577932 -1.46621 0
M  V30 5512 C 504.942 0.160651 -2.34049 0
M  V30 5513 C 505.958 0.890911 -1.49462 0
M  V30 5514 O 507.134 0.855166 -1.82343 0
M  V30 5515 C 504.199 1.16447 -3.26559 0
M  V30 5516 C 503.26 0.4394 -4.27045 0
M  V30 5517 C 502.493 1.3954 -5.15135 0
M  V30 5518 O 502.716 2.63162 -5.06065 0
M  V30 5519 O 501.65 0.908585 -5.95003 0
M  V30 5520 H 505.476 -0.557057 -2.98547 0
M  V30 5521 H 503.061 -0.338369 -1.45518 0
M  V30 5522 H 504.943 1.7434 -3.83645 0
M  V30 5523 H 503.618 1.86373 -2.64663 0
M  V30 5524 H 502.525 -0.181247 -3.73661 0
M  V30 5525 H 503.858 -0.218799 -4.91713 0
M  V30 5526 N 505.51 1.54411 -0.315457 0
M  V30 5527 C 506.473 2.22713 0.54142 0
M  V30 5528 C 507.473 1.2179 1.04995 0
M  V30 5529 O 508.663 1.46426 0.943667 0
M  V30 5530 C 505.795 2.92485 1.75116 0
M  V30 5531 H 506.988 2.99849 -0.0555508 0
M  V30 5532 H 504.541 1.56159 -0.0664453 0
M  V30 5533 H 505.276 2.19466 2.38758 0
M  V30 5534 H 505.061 3.66483 1.39401 0
M  V30 5535 H 506.551 3.44548 2.35959 0
M  V30 5536 N 506.988 0.0434614 1.5754 0
M  V30 5537 C 507.951 -0.918696 2.09982 0
M  V30 5538 C 508.951 -1.24488 1.01781 0
M  V30 5539 O 510.141 -1.18284 1.27885 0
M  V30 5540 C 507.273 -2.23093 2.57764 0
M  V30 5541 H 508.466 -0.464229 2.96285 0
M  V30 5542 H 506.019 -0.204818 1.54952 0
M  V30 5543 H 506.754 -2.73137 1.74832 0
M  V30 5544 H 506.539 -2.00724 3.36827 0
M  V30 5545 H 508.029 -2.92028 2.98512 0
M  V30 5546 N 508.466 -1.55915 -0.229846 0
M  V30 5547 C 509.429 -1.90914 -1.26824 0
M  V30 5548 C 510.429 -0.786999 -1.40225 0
M  V30 5549 O 511.619 -1.05484 -1.38632 0
M  V30 5550 C 508.751 -2.15264 -2.64337 0
M  V30 5551 H 509.944 -2.8378 -0.969998 0
M  V30 5552 H 507.497 -1.49069 -0.4699 0
M  V30 5553 H 508.232 -1.24923 -2.99274 0
M  V30 5554 H 508.017 -2.97005 -2.55989 0
M  V30 5555 H 509.507 -2.43467 -3.39284 0
M  V30 5556 N 509.944 0.496216 -1.49584 0
M  V30 5557 C 510.907 1.57952 -1.66084 0
M  V30 5558 C 511.907 1.51729 -0.53244 0
M  V30 5559 O 513.097 1.54796 -0.79899 0
M  V30 5560 C 510.229 2.97604 -1.66268 0
M  V30 5561 H 511.422 1.44649 -2.6271 0
M  V30 5562 H 508.975 0.7208 -1.38687 0
M  V30 5563 H 509.71 3.16378 -0.712432 0
M  V30 5564 H 509.495 3.03528 -2.4822 0
M  V30 5565 H 510.985 3.76301 -1.81073 0
M  V30 5566 N 511.423 1.38739 0.74761 0
M  V30 5567 C 512.651 1.38521 1.53686 0
M  V30 5568 C 513.066 -0.0235129 1.88785 0
M  V30 5569 O 512.423 -0.991662 1.53207 0
M  V30 5570 C 512.474 2.24641 2.83229 0
M  V30 5571 O 512.195 3.60026 2.49625 0
M  V30 5572 C 513.696 2.32669 3.77333 0
M  V30 5573 H 510.916 0.473589 0.475347 0
M  V30 5574 H 513.46 1.82395 0.924786 0
M  V30 5575 H 511.615 1.84213 3.40799 0
M  V30 5576 H 512.029 4.05435 3.3275 0
M  V30 5577 H 513.503 2.97201 4.65162 0
M  V30 5578 H 513.98 1.3421 4.18192 0
M  V30 5579 H 514.586 2.73512 3.25685 0
M  V30 5580 N 512.901 -0.976442 1.23707 0
M  V30 5581 C 513.864 -2.0511 1.02287 0
M  V30 5582 C 514.864 -1.60791 -0.0167195 0
M  V30 5583 O 516.054 -1.72761 0.223408 0
M  V30 5584 C 513.186 -3.36458 0.548507 0
M  V30 5585 H 514.379 -2.25545 1.9766 0
M  V30 5586 H 511.932 -1.15042 1.05806 0
M  V30 5587 H 512.667 -3.21713 -0.408818 0
M  V30 5588 H 512.452 -3.69967 1.29874 0
M  V30 5589 H 513.942 -4.15489 0.419406 0
M  V30 5590 N 514.379 -1.04941 -1.1758 0
M  V30 5591 C 515.625 -0.759112 -1.88057 0
M  V30 5592 C 515.958 0.711918 -1.8068 0
M  V30 5593 O 515.233 1.52035 -1.21308 0
M  V30 5594 C 515.516 -1.237 -3.38187 0
M  V30 5595 C 515.369 -2.77078 -3.54327 0
M  V30 5596 C 516.688 -0.834014 -4.32125 0
M  V30 5597 H 513.807 -0.277237 -0.682868 0
M  V30 5598 H 516.449 -1.30296 -1.38286 0
M  V30 5599 H 514.599 -0.774337 -3.80705 0
M  V30 5600 H 516.271 -3.31449 -3.20842 0
M  V30 5601 H 514.514 -3.16477 -2.96689 0
M  V30 5602 H 515.185 -3.05577 -4.59703 0
M  V30 5603 H 517.661 -1.23228 -3.97434 0
M  V30 5604 H 516.537 -1.19603 -5.35711 0
M  V30 5605 H 516.798 0.262195 -4.41322 0
M  V30 5606 N 515.857 1.33968 -0.830081 0
M  V30 5607 C 517.103 1.98357 -0.422191 0
M  V30 5608 C 517.436 1.65633 1.01387 0
M  V30 5609 O 516.711 0.931648 1.70735 0
M  V30 5610 C 516.994 3.54492 -0.633043 0
M  V30 5611 C 516.847 3.96934 -2.11574 0
M  V30 5612 C 518.166 4.40039 -0.0735584 0
M  V30 5613 H 515.285 0.720544 -0.154871 0
M  V30 5614 H 517.927 1.58749 -1.04397 0
M  V30 5615 H 516.077 3.88361 -0.103775 0
M  V30 5616 H 517.749 3.73363 -2.7092 0
M  V30 5617 H 515.992 3.46984 -2.60354 0
M  V30 5618 H 516.663 5.05651 -2.21406 0
M  V30 5619 H 519.139 4.12764 -0.52585 0
M  V30 5620 H 518.015 5.48327 -0.250841 0
M  V30 5621 H 518.276 4.30124 1.02202 0
M  V30 5622 N 517.335 0.585699 1.46312 0
M  V30 5623 C 518.583 0.072278 2.01971 0
M  V30 5624 C 518.904 -1.29345 1.45928 0
M  V30 5625 O 518.174 -1.84973 0.645109 0
M  V30 5626 H 516.754 0.023729 0.746623 0
M  V30 5627 H 519.416 0.762155 1.7938 0
M  V30 5628 H 518.512 0.00552767 3.121 0
M  V30 5629 N 518.813 -1.54241 0.323641 0
M  V30 5630 C 520.06 -2.0057 -0.27891 0
M  V30 5631 C 520.388 -1.21181 -1.52136 0
M  V30 5632 O 519.643 -0.282043 -1.93657 0
M  V30 5633 C 519.942 -3.5129 -0.658031 0
M  V30 5634 C 519.608 -4.48281 0.485252 0
M  V30 5635 C 518.27 -4.74519 0.799055 0
M  V30 5636 C 520.622 -5.05909 1.25322 0
M  V30 5637 C 517.95 -5.55643 1.88354 0
M  V30 5638 C 520.302 -5.88215 2.32779 0
M  V30 5639 C 518.966 -6.12755 2.64741 0
M  V30 5640 H 518.236 -0.733938 -0.10206 0
M  V30 5641 H 520.883 -1.862 0.447435 0
M  V30 5642 H 519.188 -3.63388 -1.4648 0
M  V30 5643 H 520.885 -3.84578 -1.1358 0
M  V30 5644 H 517.475 -4.27979 0.230593 0
M  V30 5645 H 521.659 -4.8562 1.02404 0
M  V30 5646 H 516.915 -5.72888 2.13564 0
M  V30 5647 H 521.089 -6.31888 2.92729 0
M  V30 5648 H 518.716 -6.75404 3.48904 0
M  V30 5649 N 520.291 -0.0518155 -1.57515 0
M  V30 5650 C 521.539 0.620595 -1.92336 0
M  V30 5651 C 521.86 1.71345 -0.930907 0
M  V30 5652 O 521.13 1.95885 0.0241341 0
M  V30 5653 H 519.71 0.232226 -0.709986 0
M  V30 5654 H 522.372 -0.104969 -1.94617 0
M  V30 5655 H 521.468 1.05879 -2.93592 0
M  V30 5656 N 521.769 1.56035 0.221574 0
M  V30 5657 C 522.994 1.83476 0.967026 0
M  V30 5658 C 523.419 0.632139 1.7716 0
M  V30 5659 O 522.777 -0.419082 1.7639 0
M  V30 5660 C 522.825 3.08907 1.86034 0
M  V30 5661 O 521.929 2.876 2.95567 0
M  V30 5662 H 521.27 0.604913 0.273817 0
M  V30 5663 H 523.8 2.03247 0.234893 0
M  V30 5664 H 523.81 3.3901 2.27016 0
M  V30 5665 H 522.485 3.96068 1.26898 0
M  V30 5666 H 521.062 2.6873 2.58532 0
M  V30 5667 N 523.247 -0.488276 1.49845 0
M  V30 5668 C 524.472 -1.26997 1.63971 0
M  V30 5669 C 524.897 -1.85427 0.315994 0
M  V30 5670 O 524.255 -1.66475 -0.718032 0
M  V30 5671 C 524.303 -2.36689 2.72049 0
M  V30 5672 O 523.407 -3.40882 2.32107 0
M  V30 5673 H 522.748 -0.374376 0.548396 0
M  V30 5674 H 525.278 -0.583104 1.96115 0
M  V30 5675 H 525.288 -2.82262 2.94605 0
M  V30 5676 H 523.963 -1.93529 3.68129 0
M  V30 5677 H 522.54 -3.01139 2.19931 0
M  V30 5678 N 524.725 -1.39134 -0.740242 0
M  V30 5679 C 526.136 -1.32208 -1.31825 0
M  V30 5680 C 526.487 0.0159919 -1.96193 0
M  V30 5681 O 525.612 0.918111 -1.95958 0
M  V30 5682 C 526.207 -2.39436 -2.39699 0
M  V30 5683 C 524.766 -2.36048 -2.93187 0
M  V30 5684 C 523.913 -2.21599 -1.66701 0
M  V30 5685 H 526.864 -1.49298 -0.538133 0
M  V30 5686 H 526.885 -2.05922 -3.19963 0
M  V30 5687 H 526.397 -3.36811 -1.92821 0
M  V30 5688 H 524.498 -1.42295 -3.44359 0
M  V30 5689 H 524.611 -3.30704 -3.46658 0
M  V30 5690 H 522.975 -1.68681 -1.90837 0
M  V30 5691 H 523.758 -3.20936 -1.21882 0
M  V30 5692 N 526.204 0.969867 -1.24223 0
M  V30 5693 C 527.432 1.74756 -1.10761 0
M  V30 5694 C 527.847 1.85713 0.340041 0
M  V30 5695 O 527.204 1.34389 1.23474 0
M  V30 5696 C 527.255 3.16915 -1.73917 0
M  V30 5697 O 526.976 3.06511 -3.13021 0
M  V30 5698 C 528.477 4.11032 -1.66036 0
M  V30 5699 H 525.697 0.548092 -0.387087 0
M  V30 5700 H 528.241 1.2178 -1.64286 0
M  V30 5701 H 526.396 3.66884 -1.244 0
M  V30 5702 H 526.81 3.96079 -3.43834 0
M  V30 5703 H 528.284 5.08446 -2.14911 0
M  V30 5704 H 528.761 4.34785 -0.621159 0
M  V30 5705 H 529.367 3.66972 -2.14969 0
M  V30 5706 N 527.682 1.05563 1.17022 0
M  V30 5707 C 528.907 0.788437 1.91829 0
M  V30 5708 C 529.332 -0.650356 1.76499 0
M  V30 5709 O 528.69 -1.45229 1.08527 0
M  V30 5710 C 528.738 1.1786 3.40795 0
M  V30 5711 O 527.842 0.312965 4.11211 0
M  V30 5712 H 527.183 0.288794 0.597908 0
M  V30 5713 H 529.713 1.40948 1.48307 0
M  V30 5714 H 529.723 1.14697 3.91546 0
M  V30 5715 H 528.398 2.22666 3.51273 0
M  V30 5716 H 526.975 0.405515 3.70689 0
M  V30 5717 N 529.16 -1.33526 0.837174 0
M  V30 5718 C 530.388 -2.02047 0.445494 0
M  V30 5719 C 530.803 -1.62995 -0.952788 0
M  V30 5720 O 530.16 -0.842447 -1.61892 0
M  V30 5721 C 530.211 -3.57221 0.554577 0
M  V30 5722 O 529.932 -3.94863 1.89776 0
M  V30 5723 C 531.433 -4.43012 0.159634 0
M  V30 5724 H 528.653 -0.647221 0.177048 0
M  V30 5725 H 531.197 -1.70492 1.12928 0
M  V30 5726 H 529.352 -3.87315 -0.0812781 0
M  V30 5727 H 529.766 -4.89569 1.88208 0
M  V30 5728 H 531.24 -5.51253 0.28701 0
M  V30 5729 H 531.717 -4.29916 -0.898289 0
M  V30 5730 H 532.323 -4.18274 0.769855 0
M  V30 5731 N 530.638 -0.59345 -1.46 0
M  V30 5732 C 531.586 0.146268 -2.3214 0
M  V30 5733 C 532.58 0.873743 -1.45128 0
M  V30 5734 O 533.786 0.790912 -1.61693 0
M  V30 5735 H 530.161 0.0660349 -0.749095 0
M  V30 5736 H 532.132 -0.598895 -2.92328 0
M  V30 5737 C 530.881 1.1396 -3.28494 0
M  V30 5738 H 530.204 0.589252 -3.95434 0
M  V30 5739 H 531.644 1.62738 -3.91526 0
M  V30 5740 C 530.103 2.20604 -2.54628 0
M  V30 5741 O 530.633 3.28128 -2.31722 0
M  V30 5742 N 528.839 1.95502 -2.15005 0
M  V30 5743 H 528.386 1.0807 -2.33834 0
M  V30 5744 H 528.344 2.67064 -1.65904 0
M  V30 5745 N 532.116 1.54067 -0.331816 0
M  V30 5746 C 533.026 2.28322 0.539104 0
M  V30 5747 C 534.042 1.32985 1.1221 0
M  V30 5748 O 535.218 1.6601 1.1403 0
M  V30 5749 C 532.283 3.03277 1.68 0
M  V30 5750 C 531.344 4.14216 1.12798 0
M  V30 5751 C 530.577 4.85588 2.2145 0
M  V30 5752 O 530.8 4.56536 3.41952 0
M  V30 5753 O 529.734 5.72309 1.86404 0
M  V30 5754 H 533.56 3.03632 -0.0641692 0
M  V30 5755 H 531.145 1.49083 -0.0972365 0
M  V30 5756 H 533.027 3.50189 2.34405 0
M  V30 5757 H 531.702 2.30834 2.2693 0
M  V30 5758 H 530.609 3.71635 0.428782 0
M  V30 5759 H 531.942 4.88727 0.583698 0
M  V30 5760 N 533.594 0.0601682 1.57485 0
M  V30 5761 C 534.504 -0.926121 2.15546 0
M  V30 5762 C 535.52 -1.33532 1.11558 0
M  V30 5763 O 536.696 -1.4104 1.4377 0
M  V30 5764 C 533.761 -2.17952 2.69625 0
M  V30 5765 C 532.822 -1.82783 3.88444 0
M  V30 5766 C 532.055 -3.02148 4.39935 0
M  V30 5767 O 532.278 -4.15803 3.90466 0
M  V30 5768 O 531.212 -2.82639 5.31412 0
M  V30 5769 H 535.038 -0.462289 3.00161 0
M  V30 5770 H 532.623 -0.162246 1.48516 0
M  V30 5771 H 534.505 -2.91474 3.04337 0
M  V30 5772 H 533.18 -2.63456 1.88077 0
M  V30 5773 H 532.087 -1.06549 3.58606 0
M  V30 5774 H 533.42 -1.42072 4.7125 0
M  V30 5775 N 535.072 -1.5615 -0.213296 0
M  V30 5776 C 536.319 -1.79546 -0.936462 0
M  V30 5777 C 536.647 -0.630337 -1.84003 0
M  V30 5778 O 535.902 0.384883 -1.91878 0
M  V30 5779 C 536.201 -3.08772 -1.79985 0
M  V30 5780 C 535.867 -4.38532 -1.04882 0
M  V30 5781 C 534.529 -4.73787 -0.841393 0
M  V30 5782 C 536.881 -5.18609 -0.51907 0
M  V30 5783 C 534.209 -5.86627 -0.0924403 0
M  V30 5784 C 536.561 -6.32229 0.216581 0
M  V30 5785 C 535.225 -6.6608 0.435191 0
M  V30 5786 H 534.495 -0.657004 -0.342676 0
M  V30 5787 H 537.142 -1.9041 -0.204051 0
M  V30 5788 H 535.447 -2.93065 -2.60038 0
M  V30 5789 H 537.144 -3.24077 -2.36168 0
M  V30 5790 H 533.734 -4.10855 -1.22048 0
M  V30 5791 H 537.918 -4.91801 -0.666775 0
M  V30 5792 H 533.174 -6.11338 0.087081 0
M  V30 5793 H 537.348 -6.93503 0.634538 0
M  V30 5794 H 534.975 -7.5336 1.01746 0
M  V30 5795 N 536.55 0.480323 -1.50102 0
M  V30 5796 C 537.5 1.57685 -1.6468 0
M  V30 5797 C 538.484 1.52878 -0.5017 0
M  V30 5798 O 539.676 1.60058 -0.755668 0
M  V30 5799 C 536.805 2.96185 -1.73578 0
M  V30 5800 C 535.891 3.0591 -2.93734 0
M  V30 5801 N 536.282 2.85471 -4.1754 0
M  V30 5802 C 534.58 3.37036 -2.92101 0
M  V30 5803 C 535.281 2.99921 -4.9842 0
M  V30 5804 N 534.257 3.29715 -4.32191 0
M  V30 5805 H 538.059 1.40568 -2.58104 0
M  V30 5806 H 535.573 0.686874 -1.47159 0
M  V30 5807 H 537.57 3.75015 -1.82124 0
M  V30 5808 H 536.23 3.14356 -0.813057 0
M  V30 5809 H 537.241 2.61235 -4.47188 0
M  V30 5810 H 533.918 3.61253 -2.09291 0
M  V30 5811 H 535.308 2.88436 -6.06839 0
M  V30 5812 N 538.028 1.39524 0.732853 0
M  V30 5813 C 539.268 1.383 1.50508 0
M  V30 5814 C 539.632 -0.0208271 1.91989 0
M  V30 5815 O 540.833 -0.158091 2.68335 0
M  V30 5816 C 539.104 2.33007 2.71003 0
M  V30 5817 S 540.663 2.49989 3.60626 0
M  V30 5818 H 537.481 0.490417 0.514794 0
M  V30 5819 H 540.083 1.75641 0.858524 0
M  V30 5820 H 538.787 3.33862 2.38672 0
M  V30 5821 H 538.318 1.96889 3.40585 0
M  V30 5822 H 540.333 1.7394 4.64714 0
M  V30 5823 N 539.506 -0.963266 1.24736 0
M  V30 5824 C 540.454 -2.07985 1.04139 0
M  V30 5825 C 541.448 -1.69381 -0.0250556 0
M  V30 5826 O 542.654 -1.79531 0.129863 0
M  V30 5827 H 539.029 -0.680627 0.319768 0
M  V30 5828 H 541 -2.22517 1.98818 0
M  V30 5829 C 539.749 -3.4123 0.667615 0
M  V30 5830 H 539.072 -3.71397 1.48 0
M  V30 5831 H 540.512 -4.20244 0.563136 0
M  V30 5832 C 538.971 -3.3104 -0.625647 0
M  V30 5833 O 539.501 -3.65334 -1.67016 0
M  V30 5834 N 537.707 -2.84168 -0.608033 0
M  V30 5835 H 537.254 -2.56458 0.242323 0
M  V30 5836 H 537.212 -2.77732 -1.47352 0
M  V30 5837 N 540.985 -1.06182 -1.16461 0
M  V30 5838 C 541.935 -0.641619 -2.18786 0
M  V30 5839 C 542.919 0.327122 -1.5754 0
M  V30 5840 O 544.111 0.142746 -1.76423 0
M  V30 5841 C 541.24 -0.0283734 -3.43288 0
M  V30 5842 C 540.326 -1.02154 -4.11613 0
M  V30 5843 N 540.717 -2.19671 -4.55608 0
M  V30 5844 C 539.015 -0.852229 -4.37782 0
M  V30 5845 C 539.716 -2.82583 -5.0845 0
M  V30 5846 N 538.692 -2.10318 -5.01266 0
M  V30 5847 H 542.494 -1.53684 -2.50516 0
M  V30 5848 H 540.008 -0.933349 -1.329 0
M  V30 5849 H 542.005 0.29049 -4.15887 0
M  V30 5850 H 540.665 0.862118 -3.13046 0
M  V30 5851 H 541.676 -2.57453 -4.49375 0
M  V30 5852 H 538.353 -0.0136314 -4.17498 0
M  V30 5853 H 539.743 -3.82298 -5.52538 0
M  V30 5854 N 542.463 1.3308 -0.844243 0
M  V30 5855 C 543.874 1.7992 -0.498566 0
M  V30 5856 C 544.225 1.69808 0.982834 0
M  V30 5857 O 543.35 1.25051 1.7661 0
M  V30 5858 C 543.945 3.26677 -0.898204 0
M  V30 5859 C 542.504 3.71513 -0.604583 0
M  V30 5860 C 541.651 2.54393 -1.10362 0
M  V30 5861 H 544.602 1.20526 -1.03244 0
M  V30 5862 H 544.623 3.79918 -0.21039 0
M  V30 5863 H 544.135 3.34004 -1.97643 0
M  V30 5864 H 542.236 3.69708 0.46335 0
M  V30 5865 H 542.349 4.64755 -1.16358 0
M  V30 5866 H 540.713 2.49246 -0.524273 0
M  V30 5867 H 541.496 2.6448 -2.18873 0
M  V30 5868 N 543.941 0.601185 1.45683 0
M  V30 5869 C 545.188 0.0938811 2.02282 0
M  V30 5870 C 545.516 -1.27315 1.47041 0
M  V30 5871 O 544.771 -1.85193 0.632623 0
M  V30 5872 C 545.07 -0.00222425 3.574 0
M  V30 5873 C 544.736 1.29963 4.31764 0
M  V30 5874 C 543.398 1.65625 4.51798 0
M  V30 5875 C 545.75 2.1603 4.74321 0
M  V30 5876 C 543.078 2.87119 5.11644 0
M  V30 5877 C 545.43 3.36766 5.3551 0
M  V30 5878 C 544.094 3.72689 5.53768 0
M  V30 5879 H 543.364 0.0343535 0.740203 0
M  V30 5880 H 546.011 0.781522 1.74827 0
M  V30 5881 H 544.316 -0.773096 3.84097 0
M  V30 5882 H 546.013 -0.410794 3.9889 0
M  V30 5883 H 542.603 1.01204 4.1648 0
M  V30 5884 H 546.787 1.89778 4.58582 0
M  V30 5885 H 542.043 3.15065 5.2397 0
M  V30 5886 H 546.217 4.03713 5.67441 0
M  V30 5887 H 543.844 4.66918 5.99909 0
M  V30 5888 N 545.419 -1.53889 0.339982 0
M  V30 5889 C 546.349 -2.27843 -0.510856 0
M  V30 5890 C 547.33 -1.29267 -1.10563 0
M  V30 5891 O 548.515 -1.58104 -1.12768 0
M  V30 5892 C 545.645 -3.04857 -1.66372 0
M  V30 5893 C 544.599 -4.10907 -1.19746 0
M  V30 5894 C 543.925 -4.75855 -2.43857 0
M  V30 5895 C 545.225 -5.21435 -0.300501 0
M  V30 5896 H 546.919 -2.99212 0.106067 0
M  V30 5897 H 544.465 -1.43904 0.0524533 0
M  V30 5898 H 546.418 -3.5533 -2.26537 0
M  V30 5899 H 545.142 -2.31133 -2.30749 0
M  V30 5900 H 543.801 -3.61342 -0.618654 0
M  V30 5901 H 543.449 -3.9873 -3.06633 0
M  V30 5902 H 543.149 -5.47502 -2.13343 0
M  V30 5903 H 544.673 -5.2911 -3.04754 0
M  V30 5904 H 546.087 -5.67565 -0.80889 0
M  V30 5905 H 544.484 -6.00036 -0.0874076 0
M  V30 5906 H 545.554 -4.80328 0.664321 0
M  V30 5907 N 546.897 -0.0685191 -1.57451 0
M  V30 5908 C 548.144 0.601348 -1.93365 0
M  V30 5909 C 548.472 1.69816 -0.948294 0
M  V30 5910 O 547.727 1.95666 0.0366199 0
M  V30 5911 C 548.026 1.22051 -3.35914 0
M  V30 5912 C 547.692 0.250165 -4.50205 0
M  V30 5913 C 546.354 -0.0167954 -4.81197 0
M  V30 5914 C 548.706 -0.413867 -5.19554 0
M  V30 5915 C 546.034 -0.95493 -5.78876 0
M  V30 5916 C 548.386 -1.3403 -6.18238 0
M  V30 5917 C 547.05 -1.61576 -6.47649 0
M  V30 5918 H 546.32 0.220049 -0.707573 0
M  V30 5919 H 548.967 -0.138697 -1.90997 0
M  V30 5920 H 547.272 2.03622 -3.34732 0
M  V30 5921 H 548.969 1.74605 -3.6099 0
M  V30 5922 H 545.559 0.468421 -4.26033 0
M  V30 5923 H 549.743 -0.220733 -4.95809 0
M  V30 5924 H 544.999 -1.17563 -5.99991 0
M  V30 5925 H 549.173 -1.86081 -6.71079 0
M  V30 5926 H 546.8 -2.34431 -7.2315 0
M  V30 5927 N 548.375 1.56261 0.205012 0
M  V30 5928 C 549.622 1.8004 0.926927 0
M  V30 5929 C 549.95 0.640086 1.83666 0
M  V30 5930 O 549.205 -0.374702 1.92079 0
M  V30 5931 C 549.504 3.09722 1.78345 0
M  V30 5932 C 549.17 4.39082 1.02555 0
M  V30 5933 C 547.832 4.74226 0.816256 0
M  V30 5934 C 550.184 5.18877 0.491559 0
M  V30 5935 C 547.512 5.86668 0.0613287 0
M  V30 5936 C 549.864 6.32105 -0.250107 0
M  V30 5937 C 548.528 6.6584 -0.470508 0
M  V30 5938 H 547.798 0.658812 0.339187 0
M  V30 5939 H 550.445 1.90515 0.19395 0
M  V30 5940 H 548.75 2.9444 2.5848 0
M  V30 5941 H 550.447 3.25324 2.34446 0
M  V30 5942 H 547.037 4.11497 1.19868 0
M  V30 5943 H 551.221 4.92147 0.640684 0
M  V30 5944 H 546.477 6.11283 -0.119501 0
M  V30 5945 H 550.651 6.93157 -0.671307 0
M  V30 5946 H 548.278 7.5281 -1.05739 0
M  V30 5947 N 549.853 -0.472356 1.50355 0
M  V30 5948 C 551.102 -1.2213 1.60522 0
M  V30 5949 C 551.415 -1.9312 0.310466 0
M  V30 5950 O 552.621 -2.69936 0.291029 0
M  V30 5951 C 551.077 -2.21909 2.83345 0
M  V30 5952 C 550.685 -1.56727 4.19691 0
M  V30 5953 C 552.429 -2.97453 3.02856 0
M  V30 5954 C 550.336 -2.54785 5.33703 0
M  V30 5955 H 549.266 -0.459543 0.597776 0
M  V30 5956 H 551.917 -0.491922 1.76783 0
M  V30 5957 H 550.299 -2.98133 2.60639 0
M  V30 5958 H 551.473 -0.863007 4.52646 0
M  V30 5959 H 549.788 -0.934685 4.05774 0
M  V30 5960 H 552.385 -3.70838 3.85205 0
M  V30 5961 H 552.728 -3.56764 2.14534 0
M  V30 5962 H 553.261 -2.28342 3.25737 0
M  V30 5963 H 550 -2.00214 6.24175 0
M  V30 5964 H 549.52 -3.23367 5.05167 0
M  V30 5965 H 551.199 -3.16639 5.64224 0
M  V30 5966 N 551.331 -1.39911 -0.725443 0
M  V30 5967 C 552.747 -1.21725 -1.03224 0
M  V30 5968 C 552.947 -0.0855224 -2.01318 0
M  V30 5969 O 552.003 0.55976 -2.46217 0
M  V30 5970 C 553.316 -2.55511 -1.58539 0
M  V30 5971 C 554.864 -2.62439 -1.70572 0
M  V30 5972 C 555.339 -3.9647 -2.29294 0
M  V30 5973 N 556.83 -3.98159 -2.36692 0
M  V30 5974 C 557.565 -4.98647 -2.83088 0
M  V30 5975 N 557.061 -6.0953 -3.2931 0
M  V30 5976 N 558.854 -4.8602 -2.82384 0
M  V30 5977 H 551.005 -2.12267 -0.075048 0
M  V30 5978 H 553.268 -0.943136 -0.0959066 0
M  V30 5979 H 552.974 -3.38926 -0.939249 0
M  V30 5980 H 552.848 -2.75905 -2.57208 0
M  V30 5981 H 555.235 -1.79401 -2.34306 0
M  V30 5982 H 555.316 -2.45885 -0.705297 0
M  V30 5983 H 554.96 -4.79942 -1.66186 0
M  V30 5984 H 554.89 -4.10349 -3.30032 0
M  V30 5985 H 557.381 -3.18085 -2.04035 0
M  V30 5986 H 557.694 -6.82106 -3.6325 0
M  V30 5987 H 556.039 -6.1311 -3.27294 0
M  V30 5988 H 559.23 -3.98493 -2.45603 0
M  V30 5989 H 559.403 -5.64478 -3.18226 0
M  V30 5990 N 552.809 0.956637 -1.25245 0
M  V30 5991 C 553.741 2.05628 -1.01242 0
M  V30 5992 C 554.754 1.62785 0.0219579 0
M  V30 5993 O 555.943 1.77184 -0.216365 0
M  V30 5994 C 553.043 3.35069 -0.508161 0
M  V30 5995 C 552.216 4.06761 -1.60823 0
M  V30 5996 C 551.275 5.14473 -1.1047 0
M  V30 5997 O 550.301 5.40033 -1.79868 0
M  V30 5998 N 551.503 5.80474 0.0550773 0
M  V30 5999 H 554.268 2.2679 -1.95925 0
M  V30 6000 H 551.829 1.12505 -1.16423 0
M  V30 6001 H 553.821 4.044 -0.155819 0
M  V30 6002 H 552.391 3.10694 0.344683 0
M  V30 6003 H 551.611 3.31555 -2.13224 0
M  V30 6004 H 552.899 4.51418 -2.34733 0
M  V30 6005 H 552.297 5.62125 0.635004 0
M  V30 6006 H 550.854 6.50868 0.348469 0
M  V30 6007 N 554.287 1.06798 1.15896 0
M  V30 6008 C 555.235 0.677525 2.22514 0
M  V30 6009 C 556.229 -0.308994 1.66558 0
M  V30 6010 O 557.435 -0.173308 1.79164 0
M  V30 6011 H 553.81 0.200994 0.724642 0
M  V30 6012 H 555.781 1.5865 2.52731 0
M  V30 6013 C 554.53 0.0854153 3.47595 0
M  V30 6014 H 553.853 0.835645 3.90969 0
M  V30 6015 H 555.293 -0.150199 4.23734 0
M  V30 6016 C 553.752 -1.1724 3.15843 0
M  V30 6017 O 554.282 -2.25965 3.32119 0
M  V30 6018 N 552.488 -1.07636 2.69931 0
M  V30 6019 H 552.035 -0.191559 2.56887 0
M  V30 6020 H 551.993 -1.91876 2.4906 0
M  V30 6021 N 555.766 -1.3263 0.851289 0
M  V30 6022 C 556.713 -2.28952 0.291469 0
M  V30 6023 C 557.683 -1.54897 -0.599676 0
M  V30 6024 O 558.868 -1.83137 -0.535305 0
M  V30 6025 C 556.008 -3.41206 -0.516992 0
M  V30 6026 C 555.121 -4.30148 0.399566 0
M  V30 6027 C 554.256 -5.29527 -0.4212 0
M  V30 6028 C 553.295 -6.10112 0.492969 0
M  V30 6029 N 552.432 -7.01499 -0.290414 0
M  V30 6030 H 557.272 -2.76228 1.11813 0
M  V30 6031 H 554.809 -1.35907 0.562826 0
M  V30 6032 H 556.767 -4.05005 -1.00132 0
M  V30 6033 H 555.397 -2.9509 -1.30851 0
M  V30 6034 H 554.449 -3.66959 1.00227 0
M  V30 6035 H 555.761 -4.8649 1.1013 0
M  V30 6036 H 554.915 -5.98914 -0.968832 0
M  V30 6037 H 553.654 -4.73794 -1.15632 0
M  V30 6038 H 552.659 -5.39632 1.05251 0
M  V30 6039 H 553.884 -6.6793 1.22664 0
M  V30 6040 H 551.83 -6.48199 -1.00868 0
M  V30 6041 H 551.747 -7.55178 0.352354 0
M  V30 6042 H 553.015 -7.75176 -0.819882 0
M  V30 6043 N 557.244 -0.608902 -1.45362 0
M  V30 6044 C 558.472 -0.111013 -2.06602 0
M  V30 6045 C 558.887 1.20516 -1.45332 0
M  V30 6046 O 558.244 1.73437 -0.567978 0
M  V30 6047 C 558.295 0.033688 -3.61484 0
M  V30 6048 O 558.016 -1.23041 -4.20467 0
M  V30 6049 C 559.517 0.562882 -4.39712 0
M  V30 6050 H 556.737 -0.0694453 -0.667397 0
M  V30 6051 H 559.281 -0.837008 -1.86586 0
M  V30 6052 H 557.436 0.710016 -3.80838 0
M  V30 6053 H 557.85 -1.06094 -5.13658 0
M  V30 6054 H 559.324 0.613213 -5.48583 0
M  V30 6055 H 559.801 1.58543 -4.09586 0
M  V30 6056 H 560.407 -0.0794454 -4.25226 0
M  V30 6057 N 558.722 1.53707 -0.348139 0
M  V30 6058 C 559.67 2.26671 0.521808 0
M  V30 6059 C 560.664 1.28988 1.09811 0
M  V30 6060 O 561.87 1.4668 1.04332 0
M  V30 6061 H 558.245 0.728387 0.186968 0
M  V30 6062 H 560.216 2.98176 -0.115563 0
M  V30 6063 C 558.965 3.05591 1.6586 0
M  V30 6064 H 558.288 3.80589 1.22443 0
M  V30 6065 H 559.728 3.59851 2.24239 0
M  V30 6066 C 558.187 2.15366 2.59073 0
M  V30 6067 O 558.717 1.7528 3.61441 0
M  V30 6068 N 556.923 1.80352 2.27863 0
M  V30 6069 H 556.47 2.13149 1.44656 0
M  V30 6070 H 556.428 1.20268 2.90488 0
M  V30 6071 N 560.2 0.0768682 1.57412 0
M  V30 6072 C 561.425 -0.603404 1.98428 0
M  V30 6073 C 561.85 -1.62047 0.955108 0
M  V30 6074 O 561.208 -1.81129 -0.0786778 0
M  V30 6075 C 561.256 -1.24396 3.38464 0
M  V30 6076 O 560.36 -2.35982 3.3821 0
M  V30 6077 H 559.701 -0.154741 0.645718 0
M  V30 6078 H 562.231 0.152885 2.04028 0
M  V30 6079 H 562.241 -1.5896 3.7576 0
M  V30 6080 H 560.916 -0.498735 4.12899 0
M  V30 6081 H 559.493 -2.03173 3.1269 0
M  V30 6082 N 561.678 -1.56367 -0.196722 0
M  V30 6083 C 562.927 -1.79724 -0.915539 0
M  V30 6084 C 563.24 -0.649804 -1.84491 0
M  V30 6085 O 564.446 -0.767631 -2.60422 0
M  V30 6086 C 562.902 -3.18369 -1.67836 0
M  V30 6087 C 562.51 -4.4091 -0.793897 0
M  V30 6088 C 564.254 -3.51037 -2.38691 0
M  V30 6089 C 562.161 -5.70577 -1.55549 0
M  V30 6090 H 561.091 -0.67013 -0.345604 0
M  V30 6091 H 563.742 -1.82721 -0.168856 0
M  V30 6092 H 562.124 -3.09617 -2.46887 0
M  V30 6093 H 563.298 -4.60781 -0.042163 0
M  V30 6094 H 561.613 -4.15937 -0.19626 0
M  V30 6095 H 564.21 -4.4515 -2.96219 0
M  V30 6096 H 564.553 -2.74704 -3.12799 0
M  V30 6097 H 565.086 -3.61229 -1.66608 0
M  V30 6098 H 561.825 -6.49871 -0.857226 0
M  V30 6099 H 561.345 -5.54726 -2.2812 0
M  V30 6100 H 563.024 -6.11637 -2.10971 0
M  V30 6101 N 563.156 0.464375 -1.50603 0
M  V30 6102 C 564.086 1.56944 -1.72889 0
M  V30 6103 C 565.067 1.59979 -0.577997 0
M  V30 6104 O 566.252 1.76138 -0.817855 0
M  V30 6105 C 563.382 2.95225 -1.8292 0
M  V30 6106 C 562.336 3.07056 -2.98162 0
M  V30 6107 C 561.662 4.47051 -2.93343 0
M  V30 6108 C 562.962 2.83648 -4.38567 0
M  V30 6109 H 564.656 1.38547 -2.65415 0
M  V30 6110 H 562.202 0.665082 -1.27721 0
M  V30 6111 H 564.155 3.72467 -1.97095 0
M  V30 6112 H 562.879 3.14793 -0.870209 0
M  V30 6113 H 561.538 2.32248 -2.83648 0
M  V30 6114 H 561.186 4.63547 -1.95276 0
M  V30 6115 H 560.886 4.55902 -3.70712 0
M  V30 6116 H 562.41 5.26304 -3.09575 0
M  V30 6117 H 563.824 3.50636 -4.53572 0
M  V30 6118 H 562.221 3.03937 -5.17438 0
M  V30 6119 H 563.291 1.79451 -4.50472 0
M  V30 6120 N 564.634 1.40294 0.718013 0
M  V30 6121 C 565.881 1.3844 1.47786 0
M  V30 6122 C 566.209 -0.0140838 1.94495 0
M  V30 6123 O 565.464 -0.998165 1.68331 0
M  V30 6124 C 565.763 2.31814 2.72024 0
M  V30 6125 C 565.429 3.79117 2.44093 0
M  V30 6126 C 564.091 4.19249 2.36185 0
M  V30 6127 C 566.443 4.72212 2.20602 0
M  V30 6128 C 563.771 5.50516 2.02851 0
M  V30 6129 C 566.123 6.03775 1.88781 0
M  V30 6130 C 564.787 6.42953 1.79354 0
M  V30 6131 H 564.057 0.506588 0.540786 0
M  V30 6132 H 566.704 1.72929 0.822663 0
M  V30 6133 H 565.009 1.90501 3.42369 0
M  V30 6134 H 566.706 2.27664 3.30106 0
M  V30 6135 H 563.296 3.47318 2.51133 0
M  V30 6136 H 567.48 4.42026 2.25669 0
M  V30 6137 H 562.736 5.79776 1.94088 0
M  V30 6138 H 566.91 6.75428 1.69617 0
M  V30 6139 H 564.537 7.44584 1.53291 0
M  V30 6140 N 566.112 -0.949982 1.2575 0
M  V30 6141 C 567.342 -1.72721 1.13363 0
M  V30 6142 C 567.75 -1.86562 -0.314842 0
M  V30 6143 O 567.093 -1.36621 -1.22803 0
M  V30 6144 C 567.155 -3.15695 1.7198 0
M  V30 6145 C 566.819 -3.25268 3.21014 0
M  V30 6146 C 567.816 -3.09222 4.17945 0
M  V30 6147 C 565.501 -3.4894 3.61312 0
M  V30 6148 C 567.495 -3.16701 5.53154 0
M  V30 6149 C 565.182 -3.56055 4.96657 0
M  V30 6150 C 566.18 -3.3995 5.92387 0
M  V30 6151 O 565.868 -3.46757 7.25269 0
M  V30 6152 H 565.6 -0.547888 0.395973 0
M  V30 6153 H 568.154 -1.20009 1.66694 0
M  V30 6154 H 566.384 -3.69791 1.13101 0
M  V30 6155 H 568.073 -3.75295 1.54624 0
M  V30 6156 H 568.839 -2.90798 3.88151 0
M  V30 6157 H 564.718 -3.60534 2.87291 0
M  V30 6158 H 568.262 -3.04048 6.27854 0
M  V30 6159 H 564.159 -3.73997 5.26115 0
M  V30 6160 H 564.927 -3.63358 7.33426 0
M  V30 6161 N 567.59 -1.07411 -1.15328 0
M  V30 6162 C 568.838 -0.796073 -1.85761 0
M  V30 6163 C 569.159 0.679864 -1.82764 0
M  V30 6164 O 568.429 1.49242 -1.269 0
M  V30 6165 H 567.009 -0.291495 -0.687779 0
M  V30 6166 H 569.671 -1.35799 -1.39802 0
M  V30 6167 H 568.767 -1.13114 -2.90881 0
M  V30 6168 N 569.068 1.32177 -0.85831 0
M  V30 6169 C 570.484 1.49873 -0.548656 0
M  V30 6170 C 570.684 1.79278 0.919874 0
M  V30 6171 O 569.74 1.86451 1.70271 0
M  V30 6172 C 571.053 2.64043 -1.4388 0
M  V30 6173 C 572.601 2.77928 -1.43961 0
M  V30 6174 C 573.076 3.95182 -2.31506 0
M  V30 6175 N 574.567 4.0245 -2.29321 0
M  V30 6176 C 575.302 4.9242 -2.93786 0
M  V30 6177 N 574.798 5.87373 -3.67376 0
M  V30 6178 N 576.591 4.85572 -2.83155 0
M  V30 6179 H 568.742 1.11357 -1.80868 0
M  V30 6180 H 571.005 0.549175 -0.772729 0
M  V30 6181 H 570.711 2.49055 -2.48324 0
M  V30 6182 H 570.585 3.59912 -1.12885 0
M  V30 6183 H 572.972 2.92338 -0.402813 0
M  V30 6184 H 573.053 1.82762 -1.78974 0
M  V30 6185 H 572.697 3.81531 -3.35256 0
M  V30 6186 H 572.627 4.89633 -1.93823 0
M  V30 6187 H 575.118 3.34507 -1.75822 0
M  V30 6188 H 575.431 6.52728 -4.13722 0
M  V30 6189 H 573.776 5.87388 -3.71484 0
M  V30 6190 H 576.967 4.10363 -2.25211 0
M  V30 6191 H 577.14 5.55486 -3.33676 0
M  V30 6192 N 570.547 0.616602 1.45037 0
M  V30 6193 C 571.794 0.115331 2.02171 0
M  V30 6194 C 572.122 -1.25748 1.48383 0
M  V30 6195 O 571.377 -1.84511 0.652229 0
M  V30 6196 C 571.676 0.0356829 3.57382 0
M  V30 6197 C 571.342 1.34535 4.30362 0
M  V30 6198 C 570.004 1.70408 4.50016 0
M  V30 6199 C 572.356 2.21049 4.72003 0
M  V30 6200 C 569.684 2.92529 5.0857 0
M  V30 6201 C 572.036 3.42427 5.31908 0
M  V30 6202 C 570.7 3.78541 5.49784 0
M  V30 6203 H 569.97 0.0422024 0.739797 0
M  V30 6204 H 572.617 0.80002 1.73988 0
M  V30 6205 H 570.922 -0.732314 3.84895 0
M  V30 6206 H 572.619 -0.368463 3.99304 0
M  V30 6207 H 569.209 1.05615 4.15383 0
M  V30 6208 H 573.393 1.94632 4.56544 0
M  V30 6209 H 568.649 3.20605 5.20598 0
M  V30 6210 H 572.823 4.09709 5.63127 0
M  V30 6211 H 570.45 4.73255 5.94923 0
M  V30 6212 N 572.025 -1.5352 0.356285 0
M  V30 6213 C 573.25 -2.06007 -0.239961 0
M  V30 6214 C 573.675 -1.22872 -1.42422 0
M  V30 6215 O 573.033 -0.245516 -1.7963 0
M  V30 6216 C 573.081 -3.5522 -0.620587 0
M  V30 6217 O 572.185 -3.74864 -1.71902 0
M  V30 6218 H 571.526 -0.662961 -0.0371377 0
M  V30 6219 H 574.056 -1.98033 0.514194 0
M  V30 6220 H 574.066 -3.98081 -0.894197 0
M  V30 6221 H 572.741 -4.15175 0.245407 0
M  V30 6222 H 571.318 -3.43904 -1.44169 0
M  V30 6223 N 573.503 -0.0852151 -1.57369 0
M  V30 6224 C 574.728 0.592872 -1.98746 0
M  V30 6225 C 575.153 1.61538 -0.963689 0
M  V30 6226 O 574.511 1.81168 0.069071 0
M  V30 6227 C 574.559 1.22599 -3.39119 0
M  V30 6228 O 573.663 2.34185 -3.39457 0
M  V30 6229 H 573.004 0.151314 -0.646529 0
M  V30 6230 H 575.534 -0.163703 -2.03944 0
M  V30 6231 H 575.544 1.56965 -3.76598 0
M  V30 6232 H 574.219 0.476831 -4.13158 0
M  V30 6233 H 572.796 2.01512 -3.13763 0
M  V30 6234 N 574.981 1.5647 0.188427 0
M  V30 6235 C 576.392 1.70864 0.752494 0
M  V30 6236 C 576.743 0.692905 1.83557 0
M  V30 6237 O 575.868 -0.149307 2.15884 0
M  V30 6238 C 576.463 3.09789 1.37173 0
M  V30 6239 C 575.022 3.25925 1.88281 0
M  V30 6240 C 574.169 2.66817 0.755259 0
M  V30 6241 H 577.12 1.58657 -0.0367408 0
M  V30 6242 H 577.141 3.07489 2.24122 0
M  V30 6243 H 576.653 3.83693 0.583219 0
M  V30 6244 H 574.754 2.56948 2.6983 0
M  V30 6245 H 574.867 4.33498 2.04001 0
M  V30 6246 H 573.231 2.2617 1.17128 0
M  V30 6247 H 574.014 3.43294 -0.0211237 0
M  V30 6248 O 576.498 -0.333583 1.58017 0
M  V30 6249 H 577.189 -0.982643 1.66925 0
M  V30 END ATOM
M  V30 BEGIN BOND
M  V30 END BOND
M  V30 END CTAB
M  END
$$$$
