drugbank_target|P51957 Serine/threonine-protein kinase Nek4 (DB12010)
 OpenBabel12092121173D

  0  0  0     0  0            999 V3000
M  V30 BEGIN CTAB
M  V30 COUNTS 13285 13400 0 0 0
M  V30 BEGIN ATOM
M  V30 1 H -0.908 1.98254 -0.117106 0
M  V30 2 N 0 1.576 0 0
M  V30 3 C 0.933 2.03868 1.02534 0
M  V30 4 C 1.911 0.928543 1.3348 0
M  V30 5 O 3.095 1.19667 1.45644 0
M  V30 6 C 0.222 2.43627 2.35294 0
M  V30 7 C -0.732 3.65373 2.2001 0
M  V30 8 S 0.101 5.13292 1.52614 0
M  V30 9 C 1.257 5.56322 2.86805 0
M  V30 10 H 1.49 2.90518 0.631377 0
M  V30 11 H -0.977 1.52953 0.210867 0
M  V30 12 H 0.981 2.67203 3.11629 0
M  V30 13 H -0.358 1.57376 2.7183 0
M  V30 14 H -1.165 3.90944 3.18086 0
M  V30 15 H -1.563 3.418 1.51819 0
M  V30 16 H 0.729 5.58782 3.83104 0
M  V30 17 H 1.672 6.56266 2.65933 0
M  V30 18 H 2.08 4.83886 2.90714 0
M  V30 19 N 1.4781 -0.272755 1.55222 0
M  V30 20 C 2.8891 -0.84378 1.66545 0
M  V30 21 C 3.2401 -1.87035 0.592641 0
M  V30 22 O 2.3651 -2.14761 -0.265818 0
M  V30 23 C 2.9601 -1.53723 3.01918 0
M  V30 24 C 1.5191 -2.05628 3.15268 0
M  V30 25 C 0.6661 -0.898424 2.62343 0
M  V30 26 H 3.6171 -0.0490998 1.58624 0
M  V30 27 H 3.6381 -2.40421 2.94921 0
M  V30 28 H 3.1501 -0.78983 3.79978 0
M  V30 29 H 1.2511 -2.83329 2.41983 0
M  V30 30 H 1.3641 -2.27142 4.21833 0
M  V30 31 H -0.2719 -1.29186 2.19506 0
M  V30 32 H 0.5111 -0.164528 3.42906 0
M  V30 33 N 2.9562 -1.48159 -0.537278 0
M  V30 34 C 3.8862 -1.65029 -1.6519 0
M  V30 35 C 4.8672 -0.499281 -1.62607 0
M  V30 36 O 6.0522 -0.730972 -1.79918 0
M  V30 37 C 3.1822 -1.68303 -3.03795 0
M  V30 38 C 2.1362 -2.8283 -3.21234 0
M  V30 39 C 1.4622 -2.71189 -4.60826 0
M  V30 40 C 2.7622 -4.24211 -3.04701 0
M  V30 41 H 4.4562 -2.58341 -1.51328 0
M  V30 42 H 2.0022 -1.24325 -0.726585 0
M  V30 43 H 3.9552 -1.78693 -3.81637 0
M  V30 44 H 2.6792 -0.715635 -3.18663 0
M  V30 45 H 1.3382 -2.71983 -2.45807 0
M  V30 46 H 0.9862 -1.72435 -4.7252 0
M  V30 47 H 0.6862 -3.48035 -4.7344 0
M  V30 48 H 2.2102 -2.83537 -5.40777 0
M  V30 49 H 3.6242 -4.3593 -3.72341 0
M  V30 50 H 2.0212 -5.01998 -3.28813 0
M  V30 51 H 3.0912 -4.41184 -2.01209 0
M  V30 52 N 4.4343 0.785586 -1.36625 0
M  V30 53 C 5.3973 1.87999 -1.31107 0
M  V30 54 C 6.3973 1.59316 -0.217959 0
M  V30 55 O 7.5873 1.67656 -0.472977 0
M  V30 56 C 4.7193 3.24861 -1.03334 0
M  V30 57 H 5.9123 1.94307 -2.2844 0
M  V30 58 H 3.4653 0.983813 -1.21453 0
M  V30 59 H 4.2003 3.24235 -0.0647432 0
M  V30 60 H 3.9853 3.4707 -1.82441 0
M  V30 61 H 5.4753 4.04929 -1.02088 0
M  V30 62 N 5.9124 1.20967 1.01018 0
M  V30 63 C 6.8754 0.965918 2.07853 0
M  V30 64 C 7.8754 -0.0610545 1.60684 0
M  V30 65 O 9.0654 0.175681 1.73312 0
M  V30 66 C 6.1974 0.455513 3.37843 0
M  V30 67 H 7.3904 1.91365 2.3091 0
M  V30 68 H 4.9434 1.02594 1.17916 0
M  V30 69 H 5.6784 -0.497381 3.20463 0
M  V30 70 H 5.4634 1.19622 3.73407 0
M  V30 71 H 6.9534 0.304667 4.16487 0
M  V30 72 N 7.3905 -1.2043 1.01659 0
M  V30 73 C 8.6205 -1.93496 0.724081 0
M  V30 74 C 9.0285 -1.74998 -0.71918 0
M  V30 75 O 8.3715 -1.06118 -1.49949 0
M  V30 76 C 8.4335 -3.45886 0.97994 0
M  V30 77 C 8.0975 -3.88145 2.41232 0
M  V30 78 C 9.0945 -3.93907 3.39313 0
M  V30 79 C 6.7795 -4.20134 2.75305 0
M  V30 80 C 8.7735 -4.31069 4.6953 0
M  V30 81 C 6.4605 -4.56971 4.05735 0
M  V30 82 C 7.4585 -4.62411 5.02658 0
M  V30 83 O 7.1465 -4.98403 6.30754 0
M  V30 84 H 6.8785 -0.621824 0.265162 0
M  V30 85 H 9.4325 -1.53867 1.36066 0
M  V30 86 H 7.6625 -3.85639 0.286198 0
M  V30 87 H 9.3515 -4.0018 0.679021 0
M  V30 88 H 10.1175 -3.69357 3.14325 0
M  V30 89 H 5.9965 -4.1509 2.00551 0
M  V30 90 H 9.5405 -4.3523 5.45179 0
M  V30 91 H 5.4375 -4.80977 4.30502 0
M  V30 92 H 6.2055 -5.16395 6.35042 0
M  V30 93 N 8.8686 -0.792821 -1.36206 0
M  V30 94 C 10.1086 -0.372238 -2.00982 0
M  V30 95 C 10.4726 1.03749 -1.61555 0
M  V30 96 O 11.6736 1.55934 -2.18948 0
M  V30 97 C 9.9446 -0.534566 -3.5338 0
M  V30 98 S 11.5036 -0.202365 -4.38333 0
M  V30 99 H 8.3216 -0.142044 -0.696667 0
M  V30 100 H 10.9236 -1.03206 -1.66039 0
M  V30 101 H 9.6276 -1.5608 -3.79562 0
M  V30 102 H 9.1586 0.141065 -3.93147 0
M  V30 103 H 11.1736 0.994869 -4.86124 0
M  V30 104 N 10.3467 1.47872 -0.545128 0
M  V30 105 C 11.5767 2.06589 -0.0210534 0
M  V30 106 C 11.9847 1.39997 1.27269 0
M  V30 107 O 11.3277 0.486421 1.77143 0
M  V30 108 C 11.3897 3.58574 0.257933 0
M  V30 109 C 11.0537 4.47132 -0.944573 0
M  V30 110 C 12.0507 4.85986 -1.84699 0
M  V30 111 C 9.7357 4.88821 -1.15584 0
M  V30 112 C 11.7297 5.65314 -2.94446 0
M  V30 113 C 9.4167 5.67916 -2.25642 0
M  V30 114 C 10.4147 6.06073 -3.14905 0
M  V30 115 O 10.1027 6.83578 -4.23057 0
M  V30 116 H 9.8347 0.674971 -0.0372899 0
M  V30 117 H 12.3887 1.91037 -0.754599 0
M  V30 118 H 10.6187 3.72295 1.04564 0
M  V30 119 H 12.3077 3.99356 0.72592 0
M  V30 120 H 13.0737 4.54388 -1.69577 0
M  V30 121 H 8.9527 4.58595 -0.470279 0
M  V30 122 H 12.4967 5.95016 -3.64145 0
M  V30 123 H 8.3937 5.98927 -2.40742 0
M  V30 124 H 9.1617 7.01954 -4.20954 0
M  V30 125 N 11.8248 0.280983 1.55075 0
M  V30 126 C 12.7548 -0.597469 2.25727 0
M  V30 127 C 13.7358 -1.15417 1.24952 0
M  V30 128 O 14.9208 -1.18722 1.53684 0
M  V30 129 C 12.0508 -1.7789 2.98283 0
M  V30 130 C 11.0048 -1.35347 4.06036 0
M  V30 131 C 10.3308 -2.61846 4.66198 0
M  V30 132 C 11.6308 -0.499354 5.19907 0
M  V30 133 H 13.3248 -0.00824265 2.99399 0
M  V30 134 H 10.8708 -0.0025244 1.44 0
M  V30 135 H 12.8238 -2.39937 3.46422 0
M  V30 136 H 11.5478 -2.39405 2.22155 0
M  V30 137 H 10.2068 -0.756156 3.58717 0
M  V30 138 H 9.8548 -3.21632 3.86732 0
M  V30 139 H 9.5548 -2.3409 5.38958 0
M  V30 140 H 11.0788 -3.24732 5.1709 0
M  V30 141 H 12.4928 -1.02498 5.64063 0
M  V30 142 H 10.8898 -0.316424 5.99265 0
M  V30 143 H 11.9598 0.480459 4.82514 0
M  V30 144 N 13.3029 -1.57598 0.00835791 0
M  V30 145 C 14.7189 -1.55764 -0.347822 0
M  V30 146 C 14.9189 -1.01186 -1.74252 0
M  V30 147 O 13.9749 -0.649371 -2.44007 0
M  V30 148 C 15.2879 -2.99927 -0.215407 0
M  V30 149 C 16.8359 -3.11656 -0.289725 0
M  V30 150 C 17.3109 -4.57621 -0.18634 0
M  V30 151 N 18.8019 -4.62557 -0.243978 0
M  V30 152 C 19.5369 -5.73094 -0.18745 0
M  V30 153 N 19.0329 -6.92753 -0.0810331 0
M  V30 154 N 20.8259 -5.61588 -0.239925 0
M  V30 155 H 12.9769 -1.91411 0.92062 0
M  V30 156 H 15.2399 -0.879562 0.353659 0
M  V30 157 H 14.9459 -3.43729 0.744512 0
M  V30 158 H 14.8199 -3.63865 -0.994097 0
M  V30 159 H 17.2069 -2.67779 -1.24009 0
M  V30 160 H 17.2879 -2.5048 0.51898 0
M  V30 161 H 16.9319 -5.02174 0.760519 0
M  V30 162 H 16.8619 -5.16752 -1.01364 0
M  V30 163 H 19.3529 -3.76481 -0.327217 0
M  V30 164 H 19.6659 -7.72787 -0.0440241 0
M  V30 165 H 18.0109 -6.94984 -0.0465419 0
M  V30 166 H 21.2019 -4.66996 -0.321317 0
M  V30 167 H 21.3749 -6.47714 -0.192407 0
M  V30 168 N 14.781 0.264519 -1.55364 0
M  V30 169 C 16.027 0.99646 -1.76631 0
M  V30 170 C 16.36 1.85632 -0.570478 0
M  V30 171 O 15.635 1.89647 0.43175 0
M  V30 172 C 15.918 1.87187 -3.07625 0
M  V30 173 C 15.771 1.04138 -4.37579 0
M  V30 174 C 17.09 2.85749 -3.34717 0
M  V30 175 H 14.209 0.360841 -0.642622 0
M  V30 176 H 16.851 0.268218 -1.88097 0
M  V30 177 H 15.001 2.49279 -2.9798 0
M  V30 178 H 16.673 0.440517 -4.59192 0
M  V30 179 H 14.916 0.345115 -4.32425 0
M  V30 180 H 15.587 1.68729 -5.2558 0
M  V30 181 H 18.063 2.33793 -3.4421 0
M  V30 182 H 16.939 3.44136 -4.27623 0
M  V30 183 H 17.2 3.61311 -2.54768 0
M  V30 184 N 16.2591 1.48442 0.529413 0
M  V30 185 C 17.5051 1.5672 1.28711 0
M  V30 186 C 17.8381 0.2406 1.92704 0
M  V30 187 O 17.1131 -0.753454 1.79313 0
M  V30 188 C 17.3961 2.70587 2.37603 0
M  V30 189 C 17.2491 4.12953 1.78297 0
M  V30 190 C 18.5681 2.80212 3.39366 0
M  V30 191 H 15.6871 0.570474 0.466613 0
M  V30 192 H 18.3291 1.80617 0.589706 0
M  V30 193 H 16.4791 2.50342 2.97088 0
M  V30 194 H 18.1511 4.44639 1.22858 0
M  V30 195 H 16.3941 4.19927 1.0883 0
M  V30 196 H 17.0651 4.88448 2.57144 0
M  V30 197 H 19.5411 2.98553 2.89836 0
M  V30 198 H 18.4171 3.61611 4.12951 0
M  V30 199 H 18.6781 1.88393 3.99951 0
M  V30 200 N 17.7372 -0.778329 1.37039 0
M  V30 201 C 18.9852 -1.53361 1.31623 0
M  V30 202 C 19.3062 -1.94739 -0.100831 0
M  V30 203 O 18.5762 -1.65797 -1.04347 0
M  V30 204 H 17.1562 -0.568794 0.484234 0
M  V30 205 H 19.8182 -0.926742 1.71457 0
M  V30 206 H 18.9142 -2.43606 1.95096 0
M  V30 207 N 19.2153 -1.21501 -1.00376 0
M  V30 208 C 20.1623 -0.975387 -2.09177 0
M  V30 209 C 21.1323 0.0990615 -1.65804 0
M  V30 210 O 22.3173 -0.0483147 -1.90739 0
M  V30 211 C 19.4573 -0.547507 -3.40729 0
M  V30 212 C 18.5703 -1.69153 -3.97506 0
M  V30 213 C 17.7053 -1.2127 -5.17172 0
M  V30 214 C 16.7443 -2.32897 -5.66061 0
M  V30 215 N 15.8813 -1.86138 -6.76976 0
M  V30 216 H 20.7213 -1.9068 -2.29009 0
M  V30 217 H 18.2583 -0.950257 -1.12288 0
M  V30 218 H 20.2163 -0.280667 -4.16255 0
M  V30 219 H 18.8463 0.346904 -3.20931 0
M  V30 220 H 17.8983 -2.07298 -3.18954 0
M  V30 221 H 19.2103 -2.5316 -4.29781 0
M  V30 222 H 18.3643 -0.902591 -5.99948 0
M  V30 223 H 17.1033 -0.342692 -4.86495 0
M  V30 224 H 16.1083 -2.64709 -4.81881 0
M  V30 225 H 17.3333 -3.20396 -5.98768 0
M  V30 226 H 15.2793 -1.01484 -6.48103 0
M  V30 227 H 15.1963 -2.63717 -7.08512 0
M  V30 228 H 16.4643 -1.58165 -7.63285 0
M  V30 229 N 20.6934 1.19889 -1.02296 0
M  V30 230 C 21.9414 1.89046 -0.714558 0
M  V30 231 C 22.2624 1.79636 0.758681 0
M  V30 232 O 21.5324 1.20292 1.54618 0
M  V30 233 H 20.1124 0.699802 -0.261317 0
M  V30 234 H 22.7744 1.45574 -1.29592 0
M  V30 235 H 21.8704 2.95524 -1.0036 0
M  V30 236 N 22.1715 0.800033 1.35784 0
M  V30 237 C 23.3965 0.388511 2.03729 0
M  V30 238 C 23.8215 -0.990481 1.5991 0
M  V30 239 O 23.1795 -1.64013 0.772612 0
M  V30 240 C 23.2275 0.4726 3.5749 0
M  V30 241 O 22.3315 -0.51646 4.09153 0
M  V30 242 H 21.6725 0.163271 0.643614 0
M  V30 243 H 24.2025 1.0841 1.73518 0
M  V30 244 H 24.2125 0.34003 4.06581 0
M  V30 245 H 22.8875 1.47848 3.88734 0
M  V30 246 H 21.4645 -0.344673 3.71304 0
M  V30 247 N 23.6496 -1.47581 0.552962 0
M  V30 248 C 24.8796 -2.06575 0.0320091 0
M  V30 249 C 25.2876 -1.4067 -1.26525 0
M  V30 250 O 24.6306 -0.495808 -1.76883 0
M  V30 251 C 24.6926 -3.58705 -0.238913 0
M  V30 252 C 24.3566 -4.46625 0.968272 0
M  V30 253 C 25.3536 -4.85 1.87274 0
M  V30 254 C 23.0386 -4.88201 1.18175 0
M  V30 255 C 25.0326 -5.63745 2.9744 0
M  V30 256 C 22.7196 -5.66712 2.28651 0
M  V30 257 C 23.7176 -6.04394 3.18114 0
M  V30 258 O 23.4056 -6.81324 4.26676 0
M  V30 259 H 23.1376 -0.674763 0.0408689 0
M  V30 260 H 25.6916 -1.90634 0.764719 0
M  V30 261 H 23.9216 -3.72844 -1.02588 0
M  V30 262 H 25.6106 -3.99735 -0.704731 0
M  V30 263 H 26.3766 -4.53482 1.71984 0
M  V30 264 H 22.2556 -4.58339 0.494593 0
M  V30 265 H 25.7996 -5.93077 3.67296 0
M  V30 266 H 21.6966 -5.97642 2.43915 0
M  V30 267 H 22.4646 -6.99712 4.24671 0
M  V30 268 N 25.1277 -0.289203 -1.54924 0
M  V30 269 C 26.3757 0.322879 -1.99504 0
M  V30 270 C 26.6967 1.55313 -1.1791 0
M  V30 271 O 25.9667 1.94001 -0.272097 0
M  V30 272 H 24.5467 0.122291 -0.736922 0
M  V30 273 H 27.2087 -0.397802 -1.90797 0
M  V30 274 H 26.3047 0.603061 -3.06218 0
M  V30 275 N 26.6058 1.57591 -0.0167156 0
M  V30 276 C 27.5158 2.1291 0.98521 0
M  V30 277 C 28.5318 1.07834 1.36557 0
M  V30 278 O 29.7078 1.39826 1.44951 0
M  V30 279 C 26.7728 2.63512 2.25305 0
M  V30 280 C 25.8338 3.83256 1.93426 0
M  V30 281 C 25.0668 4.31435 3.14165 0
M  V30 282 O 25.2898 3.78851 4.26413 0
M  V30 283 O 24.2238 5.23416 2.97186 0
M  V30 284 H 28.0498 2.98772 0.544888 0
M  V30 285 H 25.6348 1.48012 0.203141 0
M  V30 286 H 27.5168 2.96183 2.99756 0
M  V30 287 H 26.1918 1.8074 2.68542 0
M  V30 288 H 25.0988 3.55531 1.16398 0
M  V30 289 H 26.4318 4.67153 1.55013 0
M  V30 290 N 28.0839 -0.256276 1.55502 0
M  V30 291 C 29.3299 -0.987079 1.77157 0
M  V30 292 C 29.6629 -1.85327 0.580315 0
M  V30 293 O 28.9379 -1.89874 -0.421686 0
M  V30 294 C 29.2209 -1.85553 3.08613 0
M  V30 295 C 29.0739 -1.01816 4.38125 0
M  V30 296 C 30.3929 -2.8397 3.36228 0
M  V30 297 H 27.5119 -0.357428 0.644526 0
M  V30 298 H 30.1539 -0.258239 1.88237 0
M  V30 299 H 28.3039 -2.47695 2.99298 0
M  V30 300 H 29.9759 -0.416159 4.59419 0
M  V30 301 H 28.2189 -0.322178 4.32602 0
M  V30 302 H 28.8899 -1.65939 5.26468 0
M  V30 303 H 31.3659 -2.31964 3.45445 0
M  V30 304 H 30.2419 -3.41864 4.29442 0
M  V30 305 H 30.5029 -3.59955 2.56681 0
M  V30 306 N 29.562 -1.4872 -0.521534 0
M  V30 307 C 30.79 -1.60843 -1.30142 0
M  V30 308 C 31.205 -0.271897 -1.86832 0
M  V30 309 O 30.562 0.739969 -1.66825 0
M  V30 310 C 30.613 -2.66155 -2.4463 0
M  V30 311 O 30.334 -3.94623 -1.90275 0
M  V30 312 C 31.835 -2.88795 -3.36322 0
M  V30 313 H 29.055 -0.542075 -0.395468 0
M  V30 314 H 31.599 -1.94609 -0.628285 0
M  V30 315 H 29.754 -2.35224 -3.07812 0
M  V30 316 H 30.168 -4.52468 -2.65279 0
M  V30 317 H 31.642 -3.66264 -4.12983 0
M  V30 318 H 32.119 -1.97934 -3.9207 0
M  V30 319 H 32.725 -3.21063 -2.78924 0
M  V30 320 N 31.0401 0.771051 -1.3745 0
M  V30 321 C 31.9701 1.89827 -1.3597 0
M  V30 322 C 32.9511 1.68562 -0.228216 0
M  V30 323 O 34.1361 1.8941 -0.428675 0
M  V30 324 C 31.2661 3.2712 -1.16662 0
M  V30 325 C 30.2201 3.6295 -2.2683 0
M  V30 326 C 29.5461 4.98791 -1.92644 0
M  V30 327 C 30.8461 3.69627 -3.69017 0
M  V30 328 H 32.5401 1.91323 -2.30295 0
M  V30 329 H 30.0861 0.919082 -1.10855 0
M  V30 330 H 32.0391 4.05615 -1.14256 0
M  V30 331 H 30.7631 3.26059 -0.187926 0
M  V30 332 H 29.4221 2.86763 -2.28392 0
M  V30 333 H 29.0701 4.94271 -0.933021 0
M  V30 334 H 28.7701 5.23733 -2.66416 0
M  V30 335 H 30.2941 5.79685 -1.91826 0
M  V30 336 H 31.7081 4.38273 -3.69581 0
M  V30 337 H 30.1051 4.06067 -4.41848 0
M  V30 338 H 31.1751 2.70273 -4.02592 0
M  V30 339 N 32.5182 1.22032 0.997298 0
M  V30 340 C 33.7642 1.04376 1.73878 0
M  V30 341 C 34.0972 -0.420716 1.89588 0
M  V30 342 O 33.3722 -1.31202 1.43583 0
M  V30 343 C 33.6552 1.75047 3.14691 0
M  V30 344 C 33.5082 3.29062 3.06656 0
M  V30 345 C 34.8272 1.49928 4.13775 0
M  V30 346 H 31.9462 0.380578 0.631133 0
M  V30 347 H 34.5882 1.50312 1.16217 0
M  V30 348 H 32.7382 1.35996 3.63919 0
M  V30 349 H 34.4102 3.7753 2.65083 0
M  V30 350 H 32.6532 3.58967 2.43568 0
M  V30 351 H 33.3242 3.73683 4.06282 0
M  V30 352 H 35.8002 1.83842 3.73285 0
M  V30 353 H 34.6762 2.01878 5.10428 0
M  V30 354 H 34.9372 0.430929 4.39995 0
M  V30 355 N 33.9963 -1.19345 1.0293 0
M  V30 356 C 34.9433 -2.2258 0.610464 0
M  V30 357 C 35.9133 -1.6179 -0.375946 0
M  V30 358 O 37.0983 -1.88844 -0.272511 0
M  V30 359 C 34.2383 -3.45085 -0.0321473 0
M  V30 360 C 33.3513 -4.20258 1.00035 0
M  V30 361 C 32.4863 -5.3019 0.32746 0
M  V30 362 C 31.5253 -5.97121 1.34584 0
M  V30 363 N 30.6623 -6.98615 0.698726 0
M  V30 364 H 35.5023 -2.57764 1.49538 0
M  V30 365 H 33.0393 -1.26644 0.748311 0
M  V30 366 H 34.9973 -4.15061 -0.421966 0
M  V30 367 H 33.6273 -3.10555 -0.88064 0
M  V30 368 H 32.6793 -3.49223 1.50823 0
M  V30 369 H 33.9913 -4.66175 1.77433 0
M  V30 370 H 33.1453 -6.06587 -0.11718 0
M  V30 371 H 31.8843 -4.85345 -0.478713 0
M  V30 372 H 30.8893 -5.19474 1.80074 0
M  V30 373 H 32.1143 -6.4405 2.15352 0
M  V30 374 H 30.0603 -6.55942 -0.0873471 0
M  V30 375 H 29.9773 -7.42724 1.41058 0
M  V30 376 H 31.2453 -7.79004 0.278102 0
M  V30 377 N 35.4744 -0.807222 -1.35358 0
M  V30 378 C 36.4244 -0.190706 -2.27201 0
M  V30 379 C 37.4084 0.635838 -1.47804 0
M  V30 380 O 38.6004 0.492991 -1.69996 0
M  V30 381 C 35.7294 0.659337 -3.36909 0
M  V30 382 C 34.8154 -0.176971 -4.23731 0
M  V30 383 N 35.2064 -1.24029 -4.90357 0
M  V30 384 C 33.5044 0.0412953 -4.45981 0
M  V30 385 C 34.2054 -1.75092 -5.54723 0
M  V30 386 N 33.1814 -1.05727 -5.33219 0
M  V30 387 H 36.9834 -1.0043 -2.76208 0
M  V30 388 H 34.4974 -0.648445 -1.48892 0
M  V30 389 H 36.4944 1.11706 -4.01656 0
M  V30 390 H 35.1544 1.47127 -2.89454 0
M  V30 391 H 36.1654 -1.62295 -4.91814 0
M  V30 392 H 32.8424 0.82232 -4.09322 0
M  V30 393 H 34.2324 -2.63963 -6.17878 0
M  V30 394 N 36.9525 1.47285 -0.560781 0
M  V30 395 C 38.3685 1.58065 -0.22081 0
M  V30 396 C 38.5685 1.55892 1.27671 0
M  V30 397 O 37.6245 1.46422 2.0571 0
M  V30 398 C 38.9375 2.88418 -0.850625 0
M  V30 399 C 40.4855 3.02009 -0.822184 0
M  V30 400 C 40.9605 4.35066 -1.43113 0
M  V30 401 N 42.4515 4.41711 -1.39448 0
M  V30 402 C 43.1865 5.43237 -1.83525 0
M  V30 403 N 42.6825 6.51555 -2.35474 0
M  V30 404 N 44.4755 5.34304 -1.74574 0
M  V30 405 H 36.6265 1.46941 -1.53369 0
M  V30 406 H 38.8895 0.699558 -0.639783 0
M  V30 407 H 38.5955 2.95755 -1.9032 0
M  V30 408 H 38.4695 3.75612 -0.345773 0
M  V30 409 H 40.8565 2.94266 0.221714 0
M  V30 410 H 40.9375 2.16347 -1.36483 0
M  V30 411 H 40.5815 4.43565 -2.47412 0
M  V30 412 H 40.5115 5.19465 -0.863899 0
M  V30 413 H 43.0025 3.64027 -1.01452 0
M  V30 414 H 43.3155 7.25203 -2.67021 0
M  V30 415 H 41.6605 6.52435 -2.39487 0
M  V30 416 H 44.8515 4.48581 -1.33763 0
M  V30 417 H 45.0245 6.13288 -2.09242 0
M  V30 418 N 38.4306 0.297415 1.54768 0
M  V30 419 C 39.8466 -0.0560823 1.59501 0
M  V30 420 C 40.0466 -1.52725 1.31444 0
M  V30 421 O 39.1026 -2.27947 1.08611 0
M  V30 422 C 40.4156 0.338631 2.98787 0
M  V30 423 C 41.9636 0.287097 3.11681 0
M  V30 424 C 42.4386 0.656579 4.53269 0
M  V30 425 N 43.9296 0.608977 4.59179 0
M  V30 426 C 44.6646 0.867385 5.66802 0
M  V30 427 N 44.1606 1.19157 6.82476 0
M  V30 428 N 45.9536 0.794687 5.56454 0
M  V30 429 H 38.1046 1.25624 1.71267 0
M  V30 430 H 40.3676 0.509057 0.799728 0
M  V30 431 H 40.0736 1.36263 3.2423 0
M  V30 432 H 39.9476 -0.309508 3.75928 0
M  V30 433 H 42.3346 -0.727649 2.85988 0
M  V30 434 H 42.4156 0.969809 2.36703 0
M  V30 435 H 42.0596 1.66912 4.7969 0
M  V30 436 H 41.9896 -0.0481649 5.26578 0
M  V30 437 H 44.4806 0.369198 3.76092 0
M  V30 438 H 44.7936 1.37482 7.60473 0
M  V30 439 H 43.1386 1.22958 6.84037 0
M  V30 440 H 46.3296 0.541098 4.64962 0
M  V30 441 H 46.5026 0.999445 6.40246 0
M  V30 442 N 39.9087 -1.5758 0.0250728 0
M  V30 443 C 41.1857 -1.82917 -0.692873 0
M  V30 444 C 41.5657 -0.908137 -1.90568 0
M  V30 445 O 40.9137 0.0372298 -2.2847 0
M  V30 446 C 41.1237 -3.32034 -1.07492 0
M  V30 447 C 42.4717 -3.98406 -1.46826 0
M  V30 448 O 43.4957 -3.36505 -1.16801 0
M  V30 449 O 42.3547 -5.07497 -2.02754 0
M  V30 450 H 39.4487 -0.754079 -0.33955 0
M  V30 451 H 41.9947 -1.69619 0.0524456 0
M  V30 452 H 40.7667 -3.90728 -0.211552 0
M  V30 453 H 40.3897 -3.50424 -1.87854 0
M  V30 454 N 41.3868 0.248026 -1.55636 0
M  V30 455 C 42.6348 0.974295 -1.77065 0
M  V30 456 C 42.9558 1.85897 -0.588849 0
M  V30 457 O 42.2258 1.91868 0.395407 0
M  V30 458 H 40.8058 0.362733 -0.653019 0
M  V30 459 H 43.4678 0.266244 -1.93073 0
M  V30 460 H 42.5638 1.59667 -2.68166 0
M  V30 461 N 42.8649 1.48995 0.513639 0
M  V30 462 C 43.8119 1.6473 1.61656 0
M  V30 463 C 44.7819 0.488984 1.58739 0
M  V30 464 O 45.9669 0.714478 1.76918 0
M  V30 465 C 43.1069 1.7082 2.99858 0
M  V30 466 C 42.2199 2.9787 3.12885 0
M  V30 467 C 41.3549 2.95017 4.41744 0
M  V30 468 C 40.3939 4.16702 4.48359 0
M  V30 469 N 39.5309 4.11832 5.68629 0
M  V30 470 H 44.3709 2.58909 1.47547 0
M  V30 471 H 41.9079 1.28382 0.71808 0
M  V30 472 H 43.8659 1.72331 3.79944 0
M  V30 473 H 42.4959 0.801181 3.12699 0
M  V30 474 H 41.5479 3.06029 2.25944 0
M  V30 475 H 42.8599 3.8786 3.13633 0
M  V30 476 H 42.0139 2.95021 5.30139 0
M  V30 477 H 40.7529 2.02784 4.43542 0
M  V30 478 H 39.7579 4.16955 3.58369 0
M  V30 479 H 40.9829 5.10113 4.48287 0
M  V30 480 H 38.9289 3.22428 5.71293 0
M  V30 481 H 38.8459 4.95543 5.7094 0
M  V30 482 H 40.1139 4.1592 6.59266 0
M  V30 483 N 44.343 -0.763751 1.37857 0
M  V30 484 C 45.275 -1.88664 1.30148 0
M  V30 485 C 46.288 -1.61365 0.215685 0
M  V30 486 O 47.477 -1.72134 0.472459 0
M  V30 487 C 44.577 -3.24075 0.991396 0
M  V30 488 C 43.75 -3.78958 2.18426 0
M  V30 489 C 42.809 -4.92862 1.8432 0
M  V30 490 O 41.835 -5.08027 2.56704 0
M  V30 491 N 43.037 -5.75071 0.792081 0
M  V30 492 H 45.802 -1.95791 2.26905 0
M  V30 493 H 43.363 -0.943226 1.31586 0
M  V30 494 H 45.355 -3.97804 0.743935 0
M  V30 495 H 43.925 -3.12399 0.112122 0
M  V30 496 H 43.145 -2.96913 2.59299 0
M  V30 497 H 44.433 -4.12357 2.98058 0
M  V30 498 H 43.831 -5.65375 0.191595 0
M  V30 499 H 42.388 -6.48991 0.60449 0
M  V30 500 N 45.8211 -1.22559 -0.990812 0
M  V30 501 C 47.0511 -1.07623 -1.76355 0
M  V30 502 C 47.4591 0.37601 -1.85426 0
M  V30 503 O 46.8021 1.27228 -1.32509 0
M  V30 504 C 46.8641 -1.61507 -3.21179 0
M  V30 505 C 46.5281 -3.10146 -3.35646 0
M  V30 506 C 47.5251 -4.07553 -3.22796 0
M  V30 507 C 45.2101 -3.49644 -3.60631 0
M  V30 508 C 47.2041 -5.42442 -3.34716 0
M  V30 509 C 44.8911 -4.84682 -3.72192 0
M  V30 510 C 45.8891 -5.8089 -3.59243 0
M  V30 511 O 45.5771 -7.13476 -3.70415 0
M  V30 512 H 45.3091 -0.377745 -0.560611 0
M  V30 513 H 47.8631 -1.62658 -1.25425 0
M  V30 514 H 46.0931 -1.00881 -3.73309 0
M  V30 515 H 47.7821 -1.42202 -3.80175 0
M  V30 516 H 48.5481 -3.78381 -3.03403 0
M  V30 517 H 44.4271 -2.75282 -3.69785 0
M  V30 518 H 47.9711 -6.17518 -3.24526 0
M  V30 519 H 43.8681 -5.13534 -3.91092 0
M  V30 520 H 44.6361 -7.21083 -3.87275 0
M  V30 521 N 47.2992 1.18797 -1.03562 0
M  V30 522 C 48.5452 1.8893 -0.737113 0
M  V30 523 C 48.8782 1.79837 0.732956 0
M  V30 524 O 48.1532 1.19525 1.5344 0
M  V30 525 C 48.4362 3.39607 -1.19745 0
M  V30 526 C 48.2892 3.57537 -2.72924 0
M  V30 527 C 49.6082 4.33069 -0.783526 0
M  V30 528 H 46.7272 0.686057 -0.269249 0
M  V30 529 H 49.3692 1.39797 -1.28673 0
M  V30 530 H 47.5192 3.81583 -0.729855 0
M  V30 531 H 49.1912 3.24688 -3.27682 0
M  V30 532 H 47.4342 3.00363 -3.12993 0
M  V30 533 H 48.1052 4.63238 -3.00191 0
M  V30 534 H 50.5812 3.98846 -1.18581 0
M  V30 535 H 49.4572 5.3707 -1.13343 0
M  V30 536 H 49.7182 4.40986 0.313681 0
M  V30 537 N 48.7773 0.814389 1.34928 0
M  V30 538 C 50.0263 0.394871 1.97797 0
M  V30 539 C 50.3393 -1.04555 1.65311 0
M  V30 540 O 51.5453 -1.56856 2.21604 0
M  V30 541 C 50.0013 0.655103 3.53888 0
M  V30 542 C 49.6093 2.10858 3.95276 0
M  V30 543 C 51.3533 0.301329 4.23429 0
M  V30 544 C 49.2603 2.31415 5.44244 0
M  V30 545 H 48.1903 0.143913 0.740139 0
M  V30 546 H 50.8413 0.999544 1.53888 0
M  V30 547 H 49.2233 -0.0196253 3.95995 0
M  V30 548 H 50.3973 2.82176 3.64298 0
M  V30 549 H 48.7123 2.42297 3.38646 0
M  V30 550 H 51.3093 0.432869 5.32945 0
M  V30 551 H 51.6523 -0.75331 4.09428 0
M  V30 552 H 52.1853 0.930288 3.86769 0
M  V30 553 H 48.9243 3.35353 5.63222 0
M  V30 554 H 48.4443 1.6463 5.76764 0
M  V30 555 H 50.1233 2.13352 6.10811 0
M  V30 556 N 50.2554 -1.46986 0.568584 0
M  V30 557 C 51.2024 -2.30153 -0.172707 0
M  V30 558 C 52.1724 -1.39759 -0.897586 0
M  V30 559 O 53.3574 -1.68716 -0.891044 0
M  V30 560 C 50.4974 -3.23952 -1.1895 0
M  V30 561 C 49.6104 -4.29441 -0.469517 0
M  V30 562 C 48.7454 -5.1038 -1.47259 0
M  V30 563 C 47.7844 -6.07632 -0.738225 0
M  V30 564 N 46.9214 -6.8149 -1.68868 0
M  V30 565 H 51.7614 -2.93019 0.542596 0
M  V30 566 H 49.2984 -1.44422 0.279401 0
M  V30 567 H 51.2564 -3.76767 -1.79173 0
M  V30 568 H 49.8864 -2.62926 -1.87269 0
M  V30 569 H 48.9384 -3.79594 0.247467 0
M  V30 570 H 50.2504 -4.98689 0.105241 0
M  V30 571 H 49.4044 -5.67402 -2.14803 0
M  V30 572 H 48.1434 -4.4106 -2.08128 0
M  V30 573 H 47.1484 -5.49778 -0.0489293 0
M  V30 574 H 48.3734 -6.78966 -0.135129 0
M  V30 575 H 46.3194 -6.14891 -2.28573 0
M  V30 576 H 46.2364 -7.46948 -1.16636 0
M  V30 577 H 47.5044 -7.43078 -2.3549 0
M  V30 578 N 51.7335 -0.305618 -1.54608 0
M  V30 579 C 52.6805 0.568421 -2.23691 0
M  V30 580 C 53.6505 1.12592 -1.22116 0
M  V30 581 O 54.8355 1.16959 -1.50749 0
M  V30 582 C 51.9755 1.7322 -2.98477 0
M  V30 583 C 51.0885 1.20566 -4.14835 0
M  V30 584 C 50.2235 2.33368 -4.77193 0
M  V30 585 C 49.2625 1.7787 -5.85686 0
M  V30 586 N 48.3995 2.84263 -6.4198 0
M  V30 587 H 53.2395 -0.0272867 -2.97988 0
M  V30 588 H 50.7765 -0.0252363 -1.47078 0
M  V30 589 H 52.7345 2.41675 -3.40072 0
M  V30 590 H 51.3645 2.29947 -2.26548 0
M  V30 591 H 50.4165 0.413223 -3.78149 0
M  V30 592 H 51.7285 0.759417 -4.92985 0
M  V30 593 H 50.8825 3.09761 -5.21664 0
M  V30 594 H 49.6215 2.8132 -3.98385 0
M  V30 595 H 48.6265 0.99968 -5.40635 0
M  V30 596 H 49.8515 1.30816 -6.66381 0
M  V30 597 H 47.7975 3.31541 -5.66053 0
M  V30 598 H 47.7145 2.44149 -7.15491 0
M  V30 599 H 48.9825 3.6054 -6.91109 0
M  V30 600 N 53.2116 1.57565 -0.0334293 0
M  V30 601 C 54.1416 2.13511 0.945265 0
M  V30 602 C 55.1226 1.05231 1.33643 0
M  V30 603 O 56.3076 1.33084 1.41429 0
M  V30 604 C 53.4376 2.6657 2.22616 0
M  V30 605 C 52.3916 3.79676 1.97561 0
M  V30 606 C 51.7176 4.1918 3.31952 0
M  V30 607 C 53.0176 5.0557 1.31135 0
M  V30 608 H 54.7116 2.95538 0.479325 0
M  V30 609 H 52.2576 1.42166 0.229115 0
M  V30 610 H 54.2106 3.04344 2.91466 0
M  V30 611 H 52.9346 1.8171 2.71384 0
M  V30 612 H 51.5936 3.42347 1.31127 0
M  V30 613 H 51.2416 3.31296 3.78487 0
M  V30 614 H 50.9416 4.95402 3.15992 0
M  V30 615 H 52.4656 4.59541 4.02063 0
M  V30 616 H 53.8796 5.40903 1.89992 0
M  V30 617 H 52.2766 5.86818 1.25559 0
M  V30 618 H 53.3466 4.84062 0.284894 0
M  V30 619 N 54.6897 -0.239769 1.55765 0
M  V30 620 C 55.6377 -1.31668 1.91745 0
M  V30 621 C 56.6317 -1.49462 0.797338 0
M  V30 622 O 57.8377 -1.50852 0.982021 0
M  V30 623 H 54.2127 -0.441048 0.609082 0
M  V30 624 H 56.1837 -0.985923 2.81642 0
M  V30 625 C 54.9327 -2.66368 2.2348 0
M  V30 626 H 54.2557 -2.53478 3.09175 0
M  V30 627 H 55.6957 -3.40578 2.52553 0
M  V30 628 C 54.1547 -3.20002 1.05359 0
M  V30 629 O 54.6847 -4.00538 0.305261 0
M  V30 630 N 52.8907 -2.78126 0.842292 0
M  V30 631 H 52.4377 -2.12742 1.45253 0
M  V30 632 H 52.3957 -3.14354 0.053652 0
M  V30 633 N 56.1678 -1.49265 -0.50573 0
M  V30 634 C 57.0978 -1.68495 -1.61653 0
M  V30 635 C 58.0788 -0.53366 -1.61512 0
M  V30 636 O 59.2638 -0.76897 -1.78327 0
M  V30 637 C 56.3938 -1.74709 -3.00157 0
M  V30 638 C 55.3478 -2.89581 -3.15162 0
M  V30 639 C 54.6738 -2.80903 -4.5497 0
M  V30 640 C 55.9738 -4.30578 -2.95634 0
M  V30 641 H 57.6678 -2.61493 -1.45814 0
M  V30 642 H 55.2138 -1.25838 -0.70005 0
M  V30 643 H 57.1668 -1.86748 -3.77761 0
M  V30 644 H 55.8908 -0.783067 -3.17074 0
M  V30 645 H 54.5498 -2.77136 -2.39982 0
M  V30 646 H 54.1978 -1.82419 -4.68756 0
M  V30 647 H 53.8978 -3.57999 -4.65951 0
M  V30 648 H 55.4218 -2.94944 -5.34641 0
M  V30 649 H 56.8358 -4.4373 -3.63011 0
M  V30 650 H 55.2328 -5.0886 -3.18091 0
M  V30 651 H 56.3028 -4.45352 -1.91806 0
M  V30 652 N 57.6459 0.756429 -1.3826 0
M  V30 653 C 59.0619 1.0591 -1.19395 0
M  V30 654 C 59.2619 2.01459 -0.0406567 0
M  V30 655 O 58.3179 2.44909 0.614467 0
M  V30 656 C 59.6309 1.64191 -2.51916 0
M  V30 657 C 61.1789 1.76376 -2.58574 0
M  V30 658 C 61.6539 2.38069 -3.91264 0
M  V30 659 N 63.1449 2.45503 -3.92788 0
M  V30 660 C 63.8799 2.94126 -4.92217 0
M  V30 661 N 63.3759 3.42805 -6.02043 0
M  V30 662 N 65.1689 2.9314 -4.7961 0
M  V30 663 H 57.3199 0.122313 -2.12048 0
M  V30 664 H 59.5829 0.116892 -0.940766 0
M  V30 665 H 59.2889 1.01451 -3.3675 0
M  V30 666 H 59.1629 2.6329 -2.70108 0
M  V30 667 H 61.5499 2.38244 -1.74137 0
M  V30 668 H 61.6309 0.759894 -2.44252 0
M  V30 669 H 61.2749 1.76835 -4.76121 0
M  V30 670 H 61.2049 3.39091 -4.02895 0
M  V30 671 H 63.6959 2.1107 -3.13461 0
M  V30 672 H 64.0089 3.78354 -6.73846 0
M  V30 673 H 62.3539 3.4087 -6.05667 0
M  V30 674 H 65.5449 2.54419 -3.92923 0
M  V30 675 H 65.7179 3.30721 -5.5725 0
M  V30 676 N 59.124 1.23083 0.984299 0
M  V30 677 C 60.072 1.00593 2.09723 0
M  V30 678 C 61.066 -0.0538014 1.69315 0
M  V30 679 O 62.272 0.0993719 1.79725 0
M  V30 680 H 58.647 0.30817 0.685956 0
M  V30 681 H 60.618 1.95012 2.2586 0
M  V30 682 C 59.367 0.609601 3.42314 0
M  V30 683 H 58.69 1.41675 3.73856 0
M  V30 684 H 60.13 0.491726 4.21139 0
M  V30 685 C 58.589 -0.681745 3.2993 0
M  V30 686 O 59.119 -1.73192 3.62446 0
M  V30 687 N 57.325 -0.656178 2.83095 0
M  V30 688 H 56.872 0.198759 2.56832 0
M  V30 689 H 56.83 -1.52044 2.75191 0
M  V30 690 N 60.6021 -1.18246 1.0419 0
M  V30 691 C 61.5651 -2.20128 0.638452 0
M  V30 692 C 62.5651 -1.57885 -0.304805 0
M  V30 693 O 63.7551 -1.73967 -0.0900369 0
M  V30 694 C 60.8871 -3.4084 -0.0637751 0
M  V30 695 H 62.0801 -2.57336 1.54007 0
M  V30 696 H 59.6331 -1.32152 0.834598 0
M  V30 697 H 60.3681 -3.09166 -0.979136 0
M  V30 698 H 60.1531 -3.8726 0.614198 0
M  V30 699 H 61.6431 -4.16274 -0.332512 0
M  V30 700 N 62.0802 -0.821533 -1.34494 0
M  V30 701 C 63.3052 -0.420873 -2.03085 0
M  V30 702 C 63.7302 0.964915 -1.61465 0
M  V30 703 O 63.0882 1.62763 -0.798607 0
M  V30 704 C 63.1362 -0.529414 -3.56693 0
M  V30 705 O 62.2402 0.451302 -4.09923 0
M  V30 706 H 61.5812 -0.173489 -0.640935 0
M  V30 707 H 64.1112 -1.11157 -1.71771 0
M  V30 708 H 64.1212 -0.404671 -4.05988 0
M  V30 709 H 62.7962 -1.54014 -3.86332 0
M  V30 710 H 61.3732 0.285558 -3.71805 0
M  V30 711 N 63.5583 1.46682 -0.576371 0
M  V30 712 C 64.7833 2.07304 -0.0630475 0
M  V30 713 C 65.2083 1.42329 1.2298 0
M  V30 714 O 64.5663 0.504865 1.74129 0
M  V30 715 C 64.6143 3.60472 0.095895 0
M  V30 716 O 63.7183 3.95927 1.15394 0
M  V30 717 H 63.0593 0.661288 -0.0599463 0
M  V30 718 H 65.5893 1.88417 -0.797511 0
M  V30 719 H 65.5993 4.06865 0.304071 0
M  V30 720 H 64.2743 4.07157 -0.84828 0
M  V30 721 H 62.8513 3.61252 0.924724 0
M  V30 722 N 65.0364 0.313813 1.54444 0
M  V30 723 C 66.4524 -0.0391619 1.59552 0
M  V30 724 C 66.6524 -1.51322 1.33056 0
M  V30 725 O 65.7084 -2.26782 1.11022 0
M  V30 726 C 67.0214 0.370302 2.98411 0
M  V30 727 C 68.5694 0.320139 3.11358 0
M  V30 728 C 69.0444 0.704617 4.52547 0
M  V30 729 N 70.5354 0.657645 4.58508 0
M  V30 730 C 71.2704 0.927453 5.6585 0
M  V30 731 N 70.7664 1.26389 6.81174 0
M  V30 732 N 72.5594 0.853662 5.5558 0
M  V30 733 H 64.7104 1.27433 1.69925 0
M  V30 734 H 66.9734 0.517511 0.794284 0
M  V30 735 H 66.6794 1.39694 3.22767 0
M  V30 736 H 66.5534 -0.269619 3.76235 0
M  V30 737 H 68.9404 -0.697275 2.86744 0
M  V30 738 H 69.0214 0.99486 2.35661 0
M  V30 739 H 68.6654 1.7199 4.77893 0
M  V30 740 H 68.5954 0.00768843 5.26599 0
M  V30 741 H 71.0864 0.409067 3.75679 0
M  V30 742 H 71.3994 1.4554 7.58972 0
M  V30 743 H 69.7444 1.30206 6.82694 0
M  V30 744 H 72.9354 0.590383 4.64362 0
M  V30 745 H 73.1084 1.0673 6.3915 0
M  V30 746 N 66.5145 -1.57545 0.0417849 0
M  V30 747 C 67.4245 -2.14451 -0.951213 0
M  V30 748 C 68.4405 -1.09992 -1.34825 0
M  V30 749 O 69.6165 -1.42114 -1.42708 0
M  V30 750 C 66.6815 -2.67063 -2.21084 0
M  V30 751 C 65.7425 -3.86284 -1.87304 0
M  V30 752 C 64.9755 -4.36378 -3.07261 0
M  V30 753 O 65.1985 -3.85587 -4.20332 0
M  V30 754 O 64.1325 -5.28077 -2.88822 0
M  V30 755 H 67.9585 -2.99601 -0.497287 0
M  V30 756 H 65.5435 -1.48317 -0.179567 0
M  V30 757 H 67.4255 -3.00914 -2.95006 0
M  V30 758 H 66.1005 -1.84989 -2.65633 0
M  V30 759 H 65.0075 -3.57338 -1.10727 0
M  V30 760 H 66.3405 -4.6956 -1.47562 0
M  V30 761 N 67.9926 0.231505 -1.5589 0
M  V30 762 C 69.4086 0.580748 -1.48659 0
M  V30 763 C 69.6086 1.87617 -0.73498 0
M  V30 764 O 68.6646 2.51046 -0.270586 0
M  V30 765 C 69.9776 0.669202 -2.93159 0
M  V30 766 C 71.5256 0.760499 -3.03621 0
M  V30 767 C 72.0006 0.880383 -4.49459 0
M  V30 768 N 73.4916 0.944861 -4.53461 0
M  V30 769 C 74.2266 1.05716 -5.63571 0
M  V30 770 N 73.7226 1.13403 -6.83456 0
M  V30 771 N 75.5156 1.09152 -5.514 0
M  V30 772 H 67.6666 -0.618695 -2.03189 0
M  V30 773 H 69.9296 -0.215728 -0.923128 0
M  V30 774 H 69.6356 -0.212904 -3.51055 0
M  V30 775 H 69.5096 1.5361 -3.44505 0
M  V30 776 H 71.8966 1.63305 -2.45796 0
M  V30 777 H 71.9776 -0.131864 -2.5546 0
M  V30 778 H 71.6216 0.0123284 -5.07899 0
M  V30 779 H 71.5516 1.78802 -4.95316 0
M  V30 780 H 74.0426 0.896176 -3.6712 0
M  V30 781 H 74.3556 1.21921 -7.63122 0
M  V30 782 H 72.7006 1.10333 -6.86186 0
M  V30 783 H 75.8916 1.02805 -4.56671 0
M  V30 784 H 76.0646 1.17558 -6.37247 0
M  V30 785 N 69.4707 1.49531 0.497807 0
M  V30 786 C 70.8867 1.36365 0.829266 0
M  V30 787 C 71.0867 0.399184 1.97506 0
M  V30 788 O 70.1427 -0.167977 2.51941 0
M  V30 789 C 71.4557 2.77153 1.16647 0
M  V30 790 C 73.0037 2.85877 1.27449 0
M  V30 791 C 73.4787 4.2744 1.64497 0
M  V30 792 N 74.9697 4.30265 1.7154 0
M  V30 793 C 75.7047 5.3677 2.01656 0
M  V30 794 N 75.2007 6.53516 2.29976 0
M  V30 795 N 76.9937 5.24189 2.02934 0
M  V30 796 H 69.1447 2.10831 -0.257703 0
M  V30 797 H 71.4077 0.946534 -0.0527091 0
M  V30 798 H 71.1137 3.49442 0.397872 0
M  V30 799 H 70.9877 3.12722 2.10915 0
M  V30 800 H 73.3747 2.13824 2.0338 0
M  V30 801 H 73.4557 2.53887 0.312244 0
M  V30 802 H 73.0997 5.00021 0.891151 0
M  V30 803 H 73.0297 4.56896 2.61827 0
M  V30 804 H 75.5207 3.4607 1.51802 0
M  V30 805 H 75.8337 7.30506 2.52153 0
M  V30 806 H 74.1787 6.56737 2.27425 0
M  V30 807 H 77.3697 4.31988 1.80289 0
M  V30 808 H 77.5427 6.07286 2.26071 0
M  V30 809 N 70.9488 -0.749086 1.3866 0
M  V30 810 C 71.9118 -1.84457 1.36045 0
M  V30 811 C 72.9118 -1.58682 0.260122 0
M  V30 812 O 74.1018 -1.66343 0.517261 0
M  V30 813 C 71.2338 -3.22008 1.11911 0
M  V30 814 H 72.4268 -1.88182 2.33512 0
M  V30 815 H 69.9798 -0.951266 1.24019 0
M  V30 816 H 70.7148 -3.2395 0.150686 0
M  V30 817 H 70.4998 -3.42111 1.91579 0
M  V30 818 H 71.9898 -4.0208 1.12788 0
M  V30 819 N 72.4269 -1.23603 -0.977757 0
M  V30 820 C 73.3899 -1.02069 -2.05218 0
M  V30 821 C 74.3899 0.0184305 -1.60789 0
M  V30 822 O 75.5799 -0.221569 -1.72785 0
M  V30 823 C 72.7119 -0.544926 -3.36517 0
M  V30 824 H 73.9049 -1.9742 -2.25755 0
M  V30 825 H 71.4579 -1.05684 -1.15155 0
M  V30 826 H 72.1929 0.412241 -3.21669 0
M  V30 827 H 71.9779 -1.2948 -3.70105 0
M  V30 828 H 73.4679 -0.414985 -4.15533 0
M  V30 829 N 73.905 1.17692 -1.04816 0
M  V30 830 C 74.815 2.25229 -0.65643 0
M  V30 831 C 75.831 1.71018 0.320761 0
M  V30 832 O 77.007 2.00649 0.173805 0
M  V30 833 C 74.072 3.46684 -0.0332629 0
M  V30 834 C 73.133 4.15997 -1.06042 0
M  V30 835 C 72.366 5.31654 -0.466893 0
M  V30 836 O 72.589 5.65777 0.724758 0
M  V30 837 O 71.523 5.89831 -1.1993 0
M  V30 838 H 75.349 2.61016 -1.55255 0
M  V30 839 H 72.934 1.24919 -0.81949 0
M  V30 840 H 74.816 4.20234 0.313256 0
M  V30 841 H 73.491 3.12703 0.836566 0
M  V30 842 H 72.398 3.44482 -1.45886 0
M  V30 843 H 73.731 4.53996 -1.90127 0
M  V30 844 N 75.3831 0.828654 1.34056 0
M  V30 845 C 76.3151 0.212052 2.28217 0
M  V30 846 C 77.3281 -0.601362 1.51286 0
M  V30 847 O 78.5171 -0.430104 1.73241 0
M  V30 848 C 75.6171 -0.72088 3.31144 0
M  V30 849 C 74.7901 0.0509587 4.3737 0
M  V30 850 C 73.8491 -0.803766 5.20025 0
M  V30 851 O 72.8751 -0.246667 5.68665 0
M  V30 852 N 74.0771 -2.1227 5.40298 0
M  V30 853 H 76.8421 1.02105 2.81771 0
M  V30 854 H 74.4031 0.686153 1.46641 0
M  V30 855 H 76.3951 -1.29742 3.8334 0
M  V30 856 H 74.9651 -1.43061 2.77943 0
M  V30 857 H 74.1851 0.808831 3.85813 0
M  V30 858 H 75.4731 0.582065 5.0546 0
M  V30 859 H 74.8711 -2.59898 5.02464 0
M  V30 860 H 73.4281 -2.64796 5.95589 0
M  V30 861 N 76.8612 -1.46375 0.584142 0
M  V30 862 C 77.7712 -2.34115 -0.150728 0
M  V30 863 C 78.7872 -1.49838 -0.884567 0
M  V30 864 O 79.9632 -1.82704 -0.847429 0
M  V30 865 C 77.0282 -3.2705 -1.15062 0
M  V30 866 C 76.0892 -4.27228 -0.421293 0
M  V30 867 C 75.3222 -5.15722 -1.37355 0
M  V30 868 O 75.5452 -5.07176 -2.61014 0
M  V30 869 O 74.4792 -5.95383 -0.883355 0
M  V30 870 H 78.3052 -2.98309 0.569708 0
M  V30 871 H 75.8902 -1.45373 0.344535 0
M  V30 872 H 77.7722 -3.84381 -1.72712 0
M  V30 873 H 76.4472 -2.65451 -1.8525 0
M  V30 874 H 75.3542 -3.7358 0.197085 0
M  V30 875 H 76.6872 -4.91616 0.239641 0
M  V30 876 N 78.3393 -0.321999 -1.54275 0
M  V30 877 C 79.3023 0.531975 -2.22941 0
M  V30 878 C 80.3023 1.04478 -1.22234 0
M  V30 879 O 81.4923 0.937452 -1.46825 0
M  V30 880 C 78.6243 1.73874 -2.93224 0
M  V30 881 H 79.8173 -0.0682612 -2.99822 0
M  V30 882 H 77.3703 -0.0730644 -1.56129 0
M  V30 883 H 78.1053 2.37825 -2.20476 0
M  V30 884 H 77.8903 1.37847 -3.6707 0
M  V30 885 H 79.3803 2.34496 -3.45545 0
M  V30 886 N 79.8174 1.5752 -0.0501392 0
M  V30 887 C 80.7494 2.08413 0.95376 0
M  V30 888 C 81.7624 1.01175 1.27544 0
M  V30 889 O 82.9514 1.28744 1.23641 0
M  V30 890 C 80.0514 2.51138 2.27559 0
M  V30 891 C 79.2244 3.817 2.13598 0
M  V30 892 C 78.2834 4.10749 3.28895 0
M  V30 893 O 77.3094 4.80685 3.04845 0
M  V30 894 N 78.5114 3.62579 4.5334 0
M  V30 895 H 81.2764 2.95165 0.519383 0
M  V30 896 H 78.8374 1.61327 0.136127 0
M  V30 897 H 80.8294 2.67648 3.03557 0
M  V30 898 H 79.3994 1.6964 2.62567 0
M  V30 899 H 78.6194 3.74782 1.22197 0
M  V30 900 H 79.9074 4.67201 2.01496 0
M  V30 901 H 79.3054 3.06039 4.75769 0
M  V30 902 H 77.8624 3.84329 5.26436 0
M  V30 903 N 81.2955 -0.223234 1.56011 0
M  V30 904 C 82.2255 -1.27988 1.95298 0
M  V30 905 C 83.2065 -1.48976 0.820979 0
M  V30 906 O 84.3915 -1.61188 1.08315 0
M  V30 907 C 81.5215 -2.63 2.26822 0
M  V30 908 C 80.4755 -2.56671 3.42497 0
M  V30 909 C 79.8015 -3.95697 3.59622 0
M  V30 910 C 81.1015 -2.11601 4.77517 0
M  V30 911 H 82.7955 -0.953525 2.8381 0
M  V30 912 H 80.3415 -0.457244 1.36548 0
M  V30 913 H 82.2945 -3.37077 2.52898 0
M  V30 914 H 81.0185 -2.9732 1.35161 0
M  V30 915 H 79.6775 -1.85051 3.16467 0
M  V30 916 H 79.3255 -4.27322 2.6534 0
M  V30 917 H 79.0255 -3.92345 4.37424 0
M  V30 918 H 80.5495 -4.71438 3.88044 0
M  V30 919 H 81.9635 -2.7542 5.02809 0
M  V30 920 H 80.3605 -2.19311 5.5859 0
M  V30 921 H 81.4305 -1.06824 4.72987 0
M  V30 922 N 82.7736 -1.49793 -0.48987 0
M  V30 923 C 83.7036 -1.70201 -1.59856 0
M  V30 924 C 84.6846 -0.55076 -1.60937 0
M  V30 925 O 85.8696 -0.787841 -1.77501 0
M  V30 926 C 82.9996 -1.77882 -2.98287 0
M  V30 927 C 81.9536 -2.92907 -3.12073 0
M  V30 928 C 81.2796 -2.85712 -4.51965 0
M  V30 929 C 82.5796 -4.3369 -2.91051 0
M  V30 930 H 84.2736 -2.63025 -1.43032 0
M  V30 931 H 81.8196 -1.26574 -0.686664 0
M  V30 932 H 83.7726 -1.90744 -3.75759 0
M  V30 933 H 82.4966 -0.816653 -3.16225 0
M  V30 934 H 81.1556 -2.79665 -2.37029 0
M  V30 935 H 80.8036 -1.8738 -4.66795 0
M  V30 936 H 80.5036 -3.62921 -4.62128 0
M  V30 937 H 82.0276 -3.00598 -5.31482 0
M  V30 938 H 83.4416 -4.47555 -3.58284 0
M  V30 939 H 81.8386 -5.12205 -3.12675 0
M  V30 940 H 82.9086 -4.47362 -1.87071 0
M  V30 941 N 84.2517 0.741722 -1.39055 0
M  V30 942 C 85.4767 1.53607 -1.39354 0
M  V30 943 C 85.9017 1.88096 0.0116905 0
M  V30 944 O 85.2597 1.5143 0.996924 0
M  V30 945 C 85.3077 2.80441 -2.26682 0
M  V30 946 O 84.4117 3.76088 -1.69208 0
M  V30 947 H 83.7527 0.464142 -0.474835 0
M  V30 948 H 86.2827 0.915665 -1.82967 0
M  V30 949 H 86.2927 3.29246 -2.40959 0
M  V30 950 H 84.9677 2.5467 -3.2881 0
M  V30 951 H 83.5447 3.34833 -1.64138 0
M  V30 952 N 85.7298 1.2412 0.971189 0
M  V30 953 C 86.6618 0.988349 2.06795 0
M  V30 954 C 87.6748 -0.0409541 1.62748 0
M  V30 955 O 88.8638 0.195673 1.77424 0
M  V30 956 C 85.9638 0.469023 3.35639 0
M  V30 957 C 85.1368 1.56065 4.08611 0
M  V30 958 C 84.1958 1.04458 5.15728 0
M  V30 959 O 83.2218 1.73553 5.42096 0
M  V30 960 N 84.4238 -0.122817 5.8037 0
M  V30 961 H 87.1888 1.93265 2.29061 0
M  V30 962 H 84.7498 1.15102 1.13856 0
M  V30 963 H 86.7418 0.108613 4.04554 0
M  V30 964 H 85.3118 -0.380919 3.1027 0
M  V30 965 H 84.5318 2.09341 3.34021 0
M  V30 966 H 85.8198 2.29449 4.54126 0
M  V30 967 H 85.2178 -0.700563 5.61345 0
M  V30 968 H 83.7748 -0.424404 6.50417 0
M  V30 969 N 87.2079 -1.17134 1.05439 0
M  V30 970 C 88.1379 -2.2342 0.678649 0
M  V30 971 C 89.1189 -1.66971 -0.32476 0
M  V30 972 O 90.3039 -1.93149 -0.201802 0
M  V30 973 C 87.4339 -3.47256 0.0552099 0
M  V30 974 C 86.3879 -4.16543 0.98365 0
M  V30 975 C 85.7139 -5.34231 0.223961 0
M  V30 976 C 87.0139 -4.68495 2.3089 0
M  V30 977 H 88.7079 -2.55105 1.56722 0
M  V30 978 H 86.2539 -1.2262 0.754998 0
M  V30 979 H 88.2069 -4.20828 -0.21946 0
M  V30 980 H 86.9309 -3.14846 -0.868319 0
M  V30 981 H 85.5899 -3.44887 1.24293 0
M  V30 982 H 85.2379 -4.98071 -0.702412 0
M  V30 983 H 84.9379 -5.81527 0.842627 0
M  V30 984 H 86.4619 -6.10585 -0.0433671 0
M  V30 985 H 87.8759 -5.33691 2.09396 0
M  V30 986 H 86.2729 -5.26379 2.88176 0
M  V30 987 H 87.3429 -3.85169 2.94572 0
M  V30 988 N 88.686 -0.835752 -1.33615 0
M  V30 989 C 89.633 -0.26473 -2.29277 0
M  V30 990 C 90.603 0.617712 -1.54187 0
M  V30 991 O 91.788 0.556641 -1.825 0
M  V30 992 C 88.928 0.556777 -3.40579 0
M  V30 993 C 88.041 -0.349339 -4.30585 0
M  V30 994 C 87.176 0.482969 -5.29 0
M  V30 995 C 86.215 -0.421732 -6.10645 0
M  V30 996 N 85.352 0.372262 -7.01112 0
M  V30 997 H 90.192 -1.08582 -2.77514 0
M  V30 998 H 87.729 -0.546927 -1.36554 0
M  V30 999 H 89.687 1.04852 -4.03809 0
M  V30 1000 H 88.317 1.34286 -2.93542 0
M  V30 1001 H 87.369 -0.959372 -3.68104 0
M  V30 1002 H 88.681 -1.04445 -4.87742 0
M  V30 1003 H 87.835 1.03866 -5.97743 0
M  V30 1004 H 86.574 1.21153 -4.72412 0
M  V30 1005 H 85.579 -0.989464 -5.40823 0
M  V30 1006 H 86.804 -1.14861 -6.69316 0
M  V30 1007 H 84.75 1.08426 -6.46977 0
M  V30 1008 H 84.667 -0.264198 -7.55538 0
M  V30 1009 H 85.935 0.910293 -7.74167 0
M  V30 1010 N 90.1641 1.46063 -0.591896 0
M  V30 1011 C 91.1141 2.27458 0.157172 0
M  V30 1012 C 92.0981 1.3641 0.853301 0
M  V30 1013 O 93.2901 1.60517 0.74588 0
M  V30 1014 C 90.4191 3.22956 1.16423 0
M  V30 1015 C 89.5051 4.2149 0.469742 0
M  V30 1016 N 89.8961 5.03519 -0.479839 0
M  V30 1017 C 88.1941 4.40161 0.719319 0
M  V30 1018 C 88.8951 5.74904 -0.886591 0
M  V30 1019 N 87.8711 5.43097 -0.233731 0
M  V30 1020 H 91.6731 2.88272 -0.572392 0
M  V30 1021 H 89.1871 1.57024 -0.414375 0
M  V30 1022 H 91.1841 3.79986 1.71513 0
M  V30 1023 H 89.8441 2.63701 1.89451 0
M  V30 1024 H 90.8551 5.1078 -0.855823 0
M  V30 1025 H 87.5321 3.92046 1.43548 0
M  V30 1026 H 88.9221 6.50844 -1.66888 0
M  V30 1027 N 91.6422 0.330177 1.54103 0
M  V30 1028 C 93.0532 -0.15652 1.86043 0
M  V30 1029 C 93.4042 -1.51086 1.2517 0
M  V30 1030 O 92.5292 -2.09023 0.560217 0
M  V30 1031 C 93.1242 -0.290784 3.3755 0
M  V30 1032 C 91.6832 -0.721705 3.69416 0
M  V30 1033 C 90.8302 0.152622 2.7688 0
M  V30 1034 H 93.7812 0.550237 1.48856 0
M  V30 1035 H 93.8022 -1.12058 3.63625 0
M  V30 1036 H 93.3142 0.695068 3.81825 0
M  V30 1037 H 91.4152 -1.71706 3.30678 0
M  V30 1038 H 91.5282 -0.520869 4.7626 0
M  V30 1039 H 89.8922 -0.372894 2.51956 0
M  V30 1040 H 90.6752 1.13536 3.23982 0
M  V30 1041 N 93.1203 -1.57491 0.0584922 0
M  V30 1042 C 94.0683 -2.13148 -0.931168 0
M  V30 1043 C 95.0623 -1.06507 -1.31729 0
M  V30 1044 O 96.2683 -1.24906 -1.29609 0
M  V30 1045 H 92.6433 -0.68137 -0.31818 0
M  V30 1046 H 94.6143 -2.95187 -0.436707 0
M  V30 1047 C 93.3633 -2.69732 -2.19408 0
M  V30 1048 H 92.6863 -3.51454 -1.90578 0
M  V30 1049 H 94.1263 -3.12287 -2.86798 0
M  V30 1050 C 92.5853 -1.63855 -2.94369 0
M  V30 1051 O 93.1153 -1.05565 -3.87581 0
M  V30 1052 N 91.3213 -1.35202 -2.57233 0
M  V30 1053 H 90.8683 -1.82791 -1.81508 0
M  V30 1054 H 90.8263 -0.645922 -3.07693 0
M  V30 1055 N 94.5984 0.214957 -1.56127 0
M  V30 1056 C 95.8474 0.936451 -1.78643 0
M  V30 1057 C 96.1604 1.85237 -0.628229 0
M  V30 1058 O 97.3664 2.613 -0.737186 0
M  V30 1059 C 95.8224 1.7154 -3.16389 0
M  V30 1060 C 95.4304 0.845299 -4.39953 0
M  V30 1061 C 97.1744 2.42772 -3.48227 0
M  V30 1062 C 95.0814 1.62198 -5.68723 0
M  V30 1063 H 94.0114 0.353401 -0.666051 0
M  V30 1064 H 96.6624 0.190169 -1.82512 0
M  V30 1065 H 95.0444 2.50484 -3.06715 0
M  V30 1066 H 96.2184 0.0959353 -4.607 0
M  V30 1067 H 94.5334 0.244789 -4.1568 0
M  V30 1068 H 97.1304 3.01394 -4.41663 0
M  V30 1069 H 97.4734 3.15984 -2.71035 0
M  V30 1070 H 98.0064 1.70813 -3.5926 0
M  V30 1071 H 94.7454 0.933011 -6.48826 0
M  V30 1072 H 94.2654 2.34579 -5.52026 0
M  V30 1073 H 95.9444 2.18095 -6.09133 0
M  V30 1074 N 96.0765 1.50051 0.48192 0
M  V30 1075 C 97.3225 1.60736 1.2366 0
M  V30 1076 C 97.6555 0.301786 1.91841 0
M  V30 1077 O 96.9305 -0.696025 1.8162 0
M  V30 1078 C 97.2135 2.78009 2.28874 0
M  V30 1079 C 97.0665 4.18416 1.65069 0
M  V30 1080 C 98.3855 2.90867 3.30279 0
M  V30 1081 H 95.5045 0.585031 0.448228 0
M  V30 1082 H 98.1465 1.82402 0.531946 0
M  V30 1083 H 96.2965 2.59667 2.88973 0
M  V30 1084 H 97.9685 4.48322 1.0865 0
M  V30 1085 H 96.2115 4.23177 0.954148 0
M  V30 1086 H 96.8825 4.96381 2.41474 0
M  V30 1087 H 99.3585 3.07623 2.80191 0
M  V30 1088 H 98.2345 3.74566 4.01238 0
M  V30 1089 H 98.4955 2.01021 3.93755 0
M  V30 1090 N 97.5546 -0.734337 1.39446 0
M  V30 1091 C 98.7826 -1.52358 1.39981 0
M  V30 1092 C 99.1976 -1.88799 -0.0054975 0
M  V30 1093 O 98.5546 -1.54146 -0.976998 0
M  V30 1094 C 98.6056 -2.81072 2.27333 0
M  V30 1095 O 98.3266 -2.46178 3.62392 0
M  V30 1096 C 99.8276 -3.75096 2.36259 0
M  V30 1097 H 97.0476 -0.470806 0.478103 0
M  V30 1098 H 99.5916 -0.907339 1.83269 0
M  V30 1099 H 97.7466 -3.39026 1.87457 0
M  V30 1100 H 98.1606 -3.28866 4.08592 0
M  V30 1101 H 99.6346 -4.62305 3.01626 0
M  V30 1102 H 100.112 -4.16892 1.38194 0
M  V30 1103 H 100.718 -3.23061 2.76608 0
M  V30 1104 N 99.0327 -1.24633 -0.964593 0
M  V30 1105 C 100.263 -1.11339 -1.74032 0
M  V30 1106 C 100.671 0.336593 -1.86182 0
M  V30 1107 O 100.014 1.24389 -1.35178 0
M  V30 1108 C 100.076 -1.68284 -3.1768 0
M  V30 1109 C 99.7397 -3.17196 -3.28992 0
M  V30 1110 C 100.737 -4.14308 -3.14078 0
M  V30 1111 C 98.4217 -3.57215 -3.53133 0
M  V30 1112 C 100.416 -5.4942 -3.23135 0
M  V30 1113 C 98.1027 -4.92468 -3.61827 0
M  V30 1114 C 99.1007 -5.8838 -3.46841 0
M  V30 1115 O 98.7887 -7.21173 -3.55197 0
M  V30 1116 H 98.5207 -0.389551 -0.552472 0
M  V30 1117 H 101.075 -1.65282 -1.21946 0
M  V30 1118 H 99.3047 -1.08777 -3.71085 0
M  V30 1119 H 100.994 -1.50234 -3.77074 0
M  V30 1120 H 101.76 -3.84731 -2.95308 0
M  V30 1121 H 97.6387 -2.83063 -3.63863 0
M  V30 1122 H 101.183 -6.24263 -3.11355 0
M  V30 1123 H 97.0797 -5.21714 -3.80111 0
M  V30 1124 H 97.8477 -7.29135 -3.71892 0
M  V30 1125 N 100.511 1.16574 -1.06058 0
M  V30 1126 C 101.458 2.20883 -0.669263 0
M  V30 1127 C 102.428 1.62729 0.332918 0
M  V30 1128 O 103.613 1.895 0.222346 0
M  V30 1129 C 100.753 3.45049 -0.0593572 0
M  V30 1130 C 99.8658 4.17458 -1.11143 0
M  V30 1131 C 99.0008 5.29135 -0.467916 0
M  V30 1132 C 98.0398 5.93343 -1.50369 0
M  V30 1133 N 97.1768 6.96516 -0.883706 0
M  V30 1134 H 102.017 2.53709 -1.5632 0
M  V30 1135 H 99.5538 1.24616 -0.781625 0
M  V30 1136 H 101.512 4.16033 0.311771 0
M  V30 1137 H 100.142 3.12781 0.797992 0
M  V30 1138 H 99.1938 3.45101 -1.60029 0
M  V30 1139 H 100.506 4.61307 -1.89731 0
M  V30 1140 H 99.6598 6.06684 -0.0436871 0
M  V30 1141 H 98.3988 4.86443 0.349864 0
M  V30 1142 H 97.4038 5.14517 -1.93784 0
M  V30 1143 H 98.6288 6.38114 -2.32352 0
M  V30 1144 H 96.5748 6.55943 -0.086595 0
M  V30 1145 H 96.4918 7.38723 -1.607 0
M  V30 1146 H 97.7598 7.77993 -0.484543 0
M  V30 1147 N 101.989 0.842826 1.3317 0
M  V30 1148 C 102.899 0.281444 2.32906 0
M  V30 1149 C 103.915 -0.594587 1.63526 0
M  V30 1150 O 105.091 -0.49777 1.95152 0
M  V30 1151 C 102.156 -0.530929 3.42611 0
M  V30 1152 C 101.217 0.369843 4.27704 0
M  V30 1153 C 100.45 -0.403853 5.3217 0
M  V30 1154 O 100.673 -1.63513 5.46461 0
M  V30 1155 O 99.6069 0.224199 6.01482 0
M  V30 1156 H 103.433 1.10744 2.82789 0
M  V30 1157 H 101.018 0.60545 1.36582 0
M  V30 1158 H 102.9 -0.992437 4.09547 0
M  V30 1159 H 101.575 -1.33392 2.94938 0
M  V30 1160 H 100.482 0.879275 3.6362 0
M  V30 1161 H 101.815 1.13771 4.78871 0
M  V30 1162 N 103.467 -1.45747 0.599634 0
M  V30 1163 C 104.692 -2.07178 0.0960198 0
M  V30 1164 C 105.117 -1.44268 -1.207 0
M  V30 1165 O 104.475 -0.532503 -1.73303 0
M  V30 1166 C 104.523 -3.60579 -0.0385348 0
M  V30 1167 O 103.627 -3.97713 -1.0908 0
M  V30 1168 H 102.968 -0.660251 0.0704593 0
M  V30 1169 H 105.498 -1.87124 0.827385 0
M  V30 1170 H 105.508 -4.07298 -0.239304 0
M  V30 1171 H 104.183 -4.05756 0.912947 0
M  V30 1172 H 102.76 -3.62678 -0.867135 0
M  V30 1173 N 104.945 -0.338344 -1.53925 0
M  V30 1174 C 106.191 0.252842 -2.01822 0
M  V30 1175 C 106.546 1.48612 -1.22197 0
M  V30 1176 O 105.839 1.89238 -0.299892 0
M  V30 1177 C 106.033 0.62448 -3.51902 0
M  V30 1178 C 105.862 -0.571235 -4.46057 0
M  V30 1179 C 104.632 -1.07493 -4.93734 0
M  V30 1180 C 106.83 -1.42807 -4.94076 0
M  V30 1181 N 104.812 -2.23351 -5.71828 0
M  V30 1182 C 106.183 -2.43362 -5.70241 0
M  V30 1183 C 108.238 -1.45412 -4.76193 0
M  V30 1184 C 106.941 -3.46346 -6.30426 0
M  V30 1185 C 108.967 -2.47274 -5.37224 0
M  V30 1186 C 108.329 -3.46555 -6.13253 0
M  V30 1187 H 104.428 0.0559669 -0.779995 0
M  V30 1188 H 107.012 -0.476732 -1.88773 0
M  V30 1189 H 105.183 1.32317 -3.65167 0
M  V30 1190 H 106.915 1.19841 -3.86549 0
M  V30 1191 H 103.67 -0.643848 -4.69203 0
M  V30 1192 H 104.094 -2.81834 -6.15548 0
M  V30 1193 H 108.736 -0.700171 -4.16962 0
M  V30 1194 H 106.454 -4.22638 -6.88769 0
M  V30 1195 H 110.04 -2.50109 -5.25297 0
M  V30 1196 H 108.92 -4.24083 -6.59638 0
M  V30 1197 N 106.423 1.57458 -0.0668435 0
M  V30 1198 C 107.333 2.15937 0.916975 0
M  V30 1199 C 108.349 1.12123 1.33058 0
M  V30 1200 O 109.525 1.44366 1.40429 0
M  V30 1201 C 106.59 2.70547 2.16807 0
M  V30 1202 C 105.651 3.89215 1.81135 0
M  V30 1203 C 104.884 4.41211 3.0028 0
M  V30 1204 O 105.107 3.92225 4.14144 0
M  V30 1205 O 104.041 5.32605 2.80384 0
M  V30 1206 H 107.867 3.00354 0.449561 0
M  V30 1207 H 105.452 1.48584 0.155949 0
M  V30 1208 H 107.334 3.0557 2.90181 0
M  V30 1209 H 106.009 1.89192 2.62656 0
M  V30 1210 H 104.916 3.59054 1.05028 0
M  V30 1211 H 106.249 4.71848 1.40073 0
M  V30 1212 N 107.901 -0.206675 1.56239 0
M  V30 1213 C 109.149 -0.927007 1.79586 0
M  V30 1214 C 109.47 -1.8427 0.637929 0
M  V30 1215 O 108.74 -1.92849 -0.344398 0
M  V30 1216 H 107.32 -0.345292 0.662407 0
M  V30 1217 H 109.982 -0.21496 1.93711 0
M  V30 1218 H 109.078 -1.52501 2.72305 0
M  V30 1219 N 109.379 -1.50304 -0.473955 0
M  V30 1220 C 110.627 -1.60832 -1.22382 0
M  V30 1221 C 110.948 -0.30939 -1.9253 0
M  V30 1222 O 110.218 0.67296 -1.83978 0
M  V30 1223 H 108.798 -0.592652 -0.454723 0
M  V30 1224 H 111.46 -1.87068 -0.546968 0
M  V30 1225 H 110.556 -2.41803 -1.97327 0
M  V30 1226 N 110.857 0.726932 -1.39834 0
M  V30 1227 C 112.134 1.47902 -1.28001 0
M  V30 1228 C 112.514 2.1083 0.106789 0
M  V30 1229 O 111.862 1.99242 1.11869 0
M  V30 1230 C 112.072 2.52392 -2.41038 0
M  V30 1231 C 113.42 3.18546 -2.80737 0
M  V30 1232 O 114.444 2.62708 -2.40547 0
M  V30 1233 O 113.303 4.19604 -3.50135 0
M  V30 1234 H 110.397 0.657163 -0.502062 0
M  V30 1235 H 112.943 0.760071 -1.51727 0
M  V30 1236 H 111.715 2.04329 -3.33715 0
M  V30 1237 H 111.338 3.31837 -2.19021 0
M  V30 1238 N 112.336 1.25143 0.95797 0
M  V30 1239 C 113.584 1.09476 1.69881 0
M  V30 1240 C 113.905 -0.365502 1.91544 0
M  V30 1241 O 113.175 -1.25985 1.50015 0
M  V30 1242 H 111.755 0.402128 0.629525 0
M  V30 1243 H 114.417 1.57214 1.15194 0
M  V30 1244 H 113.513 1.60046 2.6794 0
M  V30 1245 N 113.814 -1.1601 1.06675 0
M  V30 1246 C 114.744 -2.22688 0.702307 0
M  V30 1247 C 115.725 -1.67306 -0.307032 0
M  V30 1248 O 116.91 -1.93352 -0.181305 0
M  V30 1249 C 114.04 -3.47178 0.092038 0
M  V30 1250 C 112.994 -4.15477 1.02777 0
M  V30 1251 C 112.32 -5.33963 0.28061 0
M  V30 1252 C 113.62 -4.66019 2.35846 0
M  V30 1253 H 115.314 -2.53429 1.59419 0
M  V30 1254 H 112.86 -1.21813 0.767961 0
M  V30 1255 H 114.813 -4.21037 -0.174814 0
M  V30 1256 H 113.537 -3.15749 -0.834877 0
M  V30 1257 H 112.196 -3.43549 1.27944 0
M  V30 1258 H 111.844 -4.98788 -0.649545 0
M  V30 1259 H 111.544 -5.806 0.904258 0
M  V30 1260 H 113.068 -6.10596 0.021396 0
M  V30 1261 H 114.482 -5.3144 2.15045 0
M  V30 1262 H 112.879 -5.23293 2.93743 0
M  V30 1263 H 113.949 -3.82023 2.98641 0
M  V30 1264 N 115.292 -0.849877 -1.32721 0
M  V30 1265 C 116.222 -0.306308 -2.31482 0
M  V30 1266 C 117.203 0.591952 -1.59468 0
M  V30 1267 O 118.388 0.513199 -1.87296 0
M  V30 1268 C 115.518 0.510204 -3.43532 0
M  V30 1269 C 114.472 -0.293209 -4.26994 0
M  V30 1270 C 113.798 0.647743 -5.30762 0
M  V30 1271 C 115.098 -1.51634 -4.99804 0
M  V30 1272 H 116.792 -1.13153 -2.77195 0
M  V30 1273 H 114.338 -0.545553 -1.33266 0
M  V30 1274 H 116.291 0.900856 -4.11658 0
M  V30 1275 H 115.015 1.36874 -2.96535 0
M  V30 1276 H 113.674 -0.665555 -3.60508 0
M  V30 1277 H 113.322 1.50299 -4.8002 0
M  V30 1278 H 113.022 0.11422 -5.87489 0
M  V30 1279 H 114.546 1.03567 -6.01753 0
M  V30 1280 H 115.96 -1.19824 -5.60638 0
M  V30 1281 H 114.357 -1.98745 -5.66234 0
M  V30 1282 H 115.427 -2.28018 -4.27943 0
M  V30 1283 N 116.77 1.45427 -0.607355 0
M  V30 1284 C 118 2.06314 -0.108656 0
M  V30 1285 C 118.408 1.45269 1.21217 0
M  V30 1286 O 117.751 0.561115 1.74921 0
M  V30 1287 C 117.813 3.59345 0.105618 0
M  V30 1288 C 117.477 4.42723 -1.13337 0
M  V30 1289 C 118.474 4.77715 -2.05145 0
M  V30 1290 C 116.159 4.83478 -1.36213 0
M  V30 1291 C 118.153 5.52317 -3.18158 0
M  V30 1292 C 115.84 5.57835 -2.49527 0
M  V30 1293 C 116.838 5.92171 -3.40327 0
M  V30 1294 O 116.526 6.65019 -4.51669 0
M  V30 1295 H 116.258 0.672782 -0.0658842 0
M  V30 1296 H 118.812 1.87664 -0.834945 0
M  V30 1297 H 117.042 3.76394 0.886796 0
M  V30 1298 H 118.731 4.02076 0.555886 0
M  V30 1299 H 119.497 4.46787 -1.88697 0
M  V30 1300 H 115.376 4.56188 -0.664362 0
M  V30 1301 H 118.92 5.79036 -3.89054 0
M  V30 1302 H 114.817 5.88177 -2.65928 0
M  V30 1303 H 115.585 6.83469 -4.50348 0
M  V30 1304 N 118.248 0.346503 1.53744 0
M  V30 1305 C 119.497 -0.250122 2.00143 0
M  V30 1306 C 119.81 -1.51418 1.23822 0
M  V30 1307 O 121.016 -2.18823 1.60713 0
M  V30 1308 C 119.472 -0.496252 3.56462 0
M  V30 1309 C 119.08 0.752077 4.41642 0
M  V30 1310 C 120.824 -1.05157 4.11269 0
M  V30 1311 C 118.731 0.476583 5.89477 0
M  V30 1312 H 117.661 -0.0972409 0.747703 0
M  V30 1313 H 120.312 0.46229 1.77581 0
M  V30 1314 H 118.694 -1.26944 3.75102 0
M  V30 1315 H 119.868 1.5266 4.34778 0
M  V30 1316 H 118.183 1.22925 3.97842 0
M  V30 1317 H 120.78 -1.27269 5.19333 0
M  V30 1318 H 121.123 -2.00799 3.64672 0
M  V30 1319 H 121.656 -0.339019 3.96353 0
M  V30 1320 H 118.395 1.4028 6.40314 0
M  V30 1321 H 117.915 -0.259794 5.99237 0
M  V30 1322 H 119.594 0.0949315 6.4693 0
M  V30 1323 N 119.726 -1.57421 0.075193 0
M  V30 1324 C 120.972 -1.93905 -0.594025 0
M  V30 1325 C 121.305 -0.955701 -1.69056 0
M  V30 1326 O 120.58 0.0145373 -1.94495 0
M  V30 1327 C 120.863 -3.40638 -1.1678 0
M  V30 1328 C 120.716 -4.49733 -0.0776792 0
M  V30 1329 C 122.035 -3.88259 -2.07228 0
M  V30 1330 H 119.154 -0.705105 -0.214466 0
M  V30 1331 H 121.796 -1.8947 0.141854 0
M  V30 1332 H 119.946 -3.44549 -1.79494 0
M  V30 1333 H 121.618 -4.57942 0.555573 0
M  V30 1334 H 119.861 -4.29751 0.591286 0
M  V30 1335 H 120.532 -5.49549 -0.519603 0
M  V30 1336 H 123.008 -3.86376 -1.54445 0
M  V30 1337 H 121.884 -4.91533 -2.44308 0
M  V30 1338 H 122.145 -3.26396 -2.98191 0
M  V30 1339 N 121.204 0.198386 -1.56346 0
M  V30 1340 C 122.137 1.27381 -1.89339 0
M  V30 1341 C 123.115 1.44106 -0.753134 0
M  V30 1342 O 124.299 1.59549 -1.00381 0
M  V30 1343 C 121.426 2.6409 -2.12071 0
M  V30 1344 C 120.472 2.64253 -3.34772 0
M  V30 1345 S 121.305 2.16013 -4.89999 0
M  V30 1346 C 122.461 3.54553 -5.15794 0
M  V30 1347 H 122.694 0.992058 -2.8026 0
M  V30 1348 H 120.227 0.401726 -1.49082 0
M  V30 1349 H 122.185 3.42786 -2.2585 0
M  V30 1350 H 120.846 2.89478 -1.21906 0
M  V30 1351 H 120.039 3.64768 -3.47794 0
M  V30 1352 H 119.641 1.93637 -3.1997 0
M  V30 1353 H 121.933 4.50396 -5.06112 0
M  V30 1354 H 122.876 3.46428 -6.1757 0
M  V30 1355 H 123.284 3.49313 -4.43442 0
M  V30 1356 N 122.682 1.50554 0.465978 0
M  V30 1357 C 123.93 1.61479 1.21528 0
M  V30 1358 C 124.251 0.319596 1.92363 0
M  V30 1359 O 123.521 -0.663194 1.84333 0
M  V30 1360 H 122.101 0.595055 0.451573 0
M  V30 1361 H 124.763 1.87355 0.53704 0
M  V30 1362 H 123.859 2.42846 1.96042 0
M  V30 1363 N 124.16 -0.719506 1.40217 0
M  V30 1364 C 125.407 -1.47933 1.38283 0
M  V30 1365 C 125.735 -1.94493 -0.0161536 0
M  V30 1366 O 124.99 -1.68224 -0.999956 0
M  V30 1367 C 125.289 -2.72271 2.31524 0
M  V30 1368 C 124.955 -2.44496 3.78857 0
M  V30 1369 C 123.617 -2.36631 4.18998 0
M  V30 1370 C 125.969 -2.21104 4.71977 0
M  V30 1371 C 123.297 -2.03437 5.503 0
M  V30 1372 C 125.649 -1.89423 6.03574 0
M  V30 1373 C 124.313 -1.80038 6.42762 0
M  V30 1374 H 123.583 -0.541325 0.506012 0
M  V30 1375 H 126.23 -0.824502 1.72842 0
M  V30 1376 H 124.535 -3.42572 1.90137 0
M  V30 1377 H 126.232 -3.30348 2.27313 0
M  V30 1378 H 122.822 -2.51503 3.47051 0
M  V30 1379 H 127.006 -2.26139 4.41786 0
M  V30 1380 H 122.262 -1.94705 5.79569 0
M  V30 1381 H 126.436 -1.70336 6.75247 0
M  V30 1382 H 124.063 -1.54083 7.44421 0
M  V30 1383 N 125.638 -1.25649 -0.95132 0
M  V30 1384 C 126.878 -1.11802 -1.71113 0
M  V30 1385 C 127.242 0.334758 -1.89059 0
M  V30 1386 O 128.443 0.595121 -2.62129 0
M  V30 1387 C 126.714 -1.85512 -3.05483 0
M  V30 1388 S 128.273 -1.87597 -3.96677 0
M  V30 1389 H 125.091 -0.399552 -0.588115 0
M  V30 1390 H 127.693 -1.59222 -1.1344 0
M  V30 1391 H 126.397 -2.90299 -2.90094 0
M  V30 1392 H 125.928 -1.38493 -3.68216 0
M  V30 1393 H 127.943 -0.955389 -4.86916 0
M  V30 1394 N 127.117 1.15442 -1.07289 0
M  V30 1395 C 128.027 2.23786 -0.704057 0
M  V30 1396 C 129.043 1.7166 0.284413 0
M  V30 1397 O 130.219 2.00972 0.131205 0
M  V30 1398 C 127.284 3.46535 -0.106792 0
M  V30 1399 C 126.345 4.13654 -1.14842 0
M  V30 1400 C 125.578 5.30544 -0.57956 0
M  V30 1401 O 125.801 5.67187 0.604585 0
M  V30 1402 O 124.735 5.87154 -1.32414 0
M  V30 1403 H 128.561 2.57664 -1.60757 0
M  V30 1404 H 126.146 1.23152 -0.845803 0
M  V30 1405 H 128.028 4.20804 0.224048 0
M  V30 1406 H 126.703 3.14407 0.770049 0
M  V30 1407 H 125.61 3.4131 -1.5316 0
M  V30 1408 H 126.943 4.49861 -1.99714 0
M  V30 1409 N 128.595 0.856903 1.32268 0
M  V30 1410 C 129.843 0.460474 1.96784 0
M  V30 1411 C 130.164 -0.987701 1.68135 0
M  V30 1412 O 129.434 -1.69058 0.989765 0
M  V30 1413 H 128.014 0.167289 0.728027 0
M  V30 1414 H 130.676 1.09383 1.61312 0
M  V30 1415 H 129.772 0.60739 3.06133 0
M  V30 1416 N 130.073 -1.45103 0.615059 0
M  V30 1417 C 131.321 -2.01784 0.112955 0
M  V30 1418 C 131.642 -1.48504 -1.26378 0
M  V30 1419 O 130.912 -0.682245 -1.83636 0
M  V30 1420 H 129.492 -0.745993 0.0387668 0
M  V30 1421 H 132.154 -1.77808 0.798141 0
M  V30 1422 H 131.25 -3.12025 0.0684069 0
M  V30 1423 N 131.551 -0.354651 -1.53558 0
M  V30 1424 C 132.828 0.294281 -1.93374 0
M  V30 1425 C 133.208 1.67313 -1.28723 0
M  V30 1426 O 132.556 2.24179 -0.442247 0
M  V30 1427 C 132.766 0.355445 -3.47185 0
M  V30 1428 C 134.114 0.601007 -4.20325 0
M  V30 1429 O 135.138 0.437106 -3.53508 0
M  V30 1430 O 133.997 0.919322 -5.38712 0
M  V30 1431 H 131.091 0.174033 -0.808481 0
M  V30 1432 H 133.637 -0.406638 -1.64756 0
M  V30 1433 H 132.409 -0.611729 -3.86489 0
M  V30 1434 H 132.032 1.1027 -3.82003 0
M  V30 1435 N 133.029 1.57378 -0.0835403 0
M  V30 1436 C 133.959 2.1641 0.87686 0
M  V30 1437 C 134.94 1.09429 1.30228 0
M  V30 1438 O 136.125 1.37516 1.37124 0
M  V30 1439 C 133.255 2.73517 2.14022 0
M  V30 1440 C 132.209 3.85769 1.85381 0
M  V30 1441 C 131.535 4.29529 3.18448 0
M  V30 1442 C 132.835 5.09486 1.14984 0
M  V30 1443 H 134.529 2.96914 0.385059 0
M  V30 1444 H 132.075 1.42823 0.18377 0
M  V30 1445 H 134.028 3.13463 2.81636 0
M  V30 1446 H 132.752 1.90252 2.65465 0
M  V30 1447 H 131.411 3.46345 1.20169 0
M  V30 1448 H 131.059 3.43169 3.67755 0
M  V30 1449 H 130.759 5.05204 3.00071 0
M  V30 1450 H 132.283 4.72099 3.8724 0
M  V30 1451 H 133.697 5.46674 1.72687 0
M  V30 1452 H 132.094 5.90515 1.06826 0
M  V30 1453 H 133.164 4.84724 0.130749 0
M  V30 1454 N 134.507 -0.190092 1.56449 0
M  V30 1455 C 135.737 -0.92443 1.84764 0
M  V30 1456 C 136.145 -1.77146 0.664529 0
M  V30 1457 O 135.488 -1.79812 -0.375957 0
M  V30 1458 C 135.55 -1.86651 3.07248 0
M  V30 1459 C 135.214 -1.20094 4.40938 0
M  V30 1460 C 136.211 -0.575445 5.16706 0
M  V30 1461 C 133.896 -1.2033 4.87674 0
M  V30 1462 C 135.89 0.0388111 6.37388 0
M  V30 1463 C 133.577 -0.585214 6.08291 0
M  V30 1464 C 134.575 0.0347578 6.82991 0
M  V30 1465 O 134.263 0.643147 8.01323 0
M  V30 1466 H 133.995 -0.274974 0.617548 0
M  V30 1467 H 136.549 -0.200788 2.04416 0
M  V30 1468 H 134.779 -2.62998 2.83494 0
M  V30 1469 H 136.468 -2.46907 3.22167 0
M  V30 1470 H 137.234 -0.565728 4.81689 0
M  V30 1471 H 133.113 -1.67526 4.29484 0
M  V30 1472 H 136.657 0.523329 6.95634 0
M  V30 1473 H 132.554 -0.592451 6.42775 0
M  V30 1474 H 133.322 0.540545 8.16713 0
M  V30 1475 N 135.985 -1.50799 -0.457987 0
M  V30 1476 C 137.401 -1.38515 -0.792819 0
M  V30 1477 C 137.601 -0.451409 -1.96379 0
M  V30 1478 O 136.657 0.10112 -2.52297 0
M  V30 1479 C 137.97 -2.80149 -1.09258 0
M  V30 1480 C 139.518 -2.89156 -1.19825 0
M  V30 1481 C 139.993 -4.31651 -1.53106 0
M  V30 1482 N 141.484 -4.34662 -1.60072 0
M  V30 1483 C 142.219 -5.41928 -1.87354 0
M  V30 1484 N 141.715 -6.59384 -2.12568 0
M  V30 1485 N 143.508 -5.29385 -1.88965 0
M  V30 1486 H 135.659 -2.10073 0.313511 0
M  V30 1487 H 137.922 -0.944803 0.0777862 0
M  V30 1488 H 137.628 -3.50374 -0.305084 0
M  V30 1489 H 137.502 -3.18204 -2.02549 0
M  V30 1490 H 139.889 -2.19141 -1.97639 0
M  V30 1491 H 139.97 -2.54626 -0.244821 0
M  V30 1492 H 139.614 -5.02208 -0.758266 0
M  V30 1493 H 139.544 -4.63678 -2.49621 0
M  V30 1494 H 142.035 -3.49973 -1.42573 0
M  V30 1495 H 142.348 -7.36934 -2.32696 0
M  V30 1496 H 140.693 -6.62535 -2.09933 0
M  V30 1497 H 143.884 -4.36616 -1.68772 0
M  V30 1498 H 144.057 -6.13066 -2.09891 0
M  V30 1499 N 137.463 0.71206 -1.40597 0
M  V30 1500 C 138.41 1.82613 -1.41142 0
M  V30 1501 C 139.38 1.63925 -0.267903 0
M  V30 1502 O 140.565 1.85009 -0.466495 0
M  V30 1503 C 137.705 3.20354 -1.28324 0
M  V30 1504 C 136.818 3.50589 -2.52411 0
M  V30 1505 C 135.953 4.77855 -2.32009 0
M  V30 1506 C 134.992 5.01005 -3.51654 0
M  V30 1507 N 134.129 6.19487 -3.30425 0
M  V30 1508 H 138.969 1.81482 -2.36365 0
M  V30 1509 H 136.506 0.886475 -1.17388 0
M  V30 1510 H 138.464 3.99899 -1.18899 0
M  V30 1511 H 137.094 3.20705 -0.367189 0
M  V30 1512 H 136.146 2.65573 -2.72351 0
M  V30 1513 H 137.458 3.63604 -3.41458 0
M  V30 1514 H 136.612 5.65424 -2.19956 0
M  V30 1515 H 135.351 4.67056 -1.40392 0
M  V30 1516 H 134.356 4.1189 -3.64179 0
M  V30 1517 H 135.581 5.13674 -4.44202 0
M  V30 1518 H 133.527 6.09932 -2.41494 0
M  V30 1519 H 133.444 6.33194 -4.13039 0
M  V30 1520 H 134.712 7.09834 -3.22113 0
M  V30 1521 N 138.941 1.26152 0.944643 0
M  V30 1522 C 139.871 1.09902 2.06019 0
M  V30 1523 C 140.852 0.00519538 1.70099 0
M  V30 1524 O 142.037 0.176583 1.93396 0
M  V30 1525 C 139.167 0.727562 3.39594 0
M  V30 1526 C 138.121 1.77274 3.89561 0
M  V30 1527 C 137.447 1.25569 5.19747 0
M  V30 1528 C 138.747 3.17357 4.14827 0
M  V30 1529 H 140.441 2.03217 2.19871 0
M  V30 1530 H 137.987 0.978452 1.05652 0
M  V30 1531 H 139.94 0.600777 4.17095 0
M  V30 1532 H 138.664 -0.241287 3.25707 0
M  V30 1533 H 137.323 1.88814 3.14237 0
M  V30 1534 H 136.971 0.276783 5.02238 0
M  V30 1535 H 136.671 1.95433 5.54148 0
M  V30 1536 H 138.195 1.1415 5.99835 0
M  V30 1537 H 139.609 3.08914 4.82954 0
M  V30 1538 H 138.006 3.84781 4.60504 0
M  V30 1539 H 139.076 3.63673 3.20734 0
M  V30 1540 N 140.419 -1.14872 1.07899 0
M  V30 1541 C 141.366 -2.19791 0.704319 0
M  V30 1542 C 142.336 -1.63238 -0.306987 0
M  V30 1543 O 143.521 -1.8983 -0.192171 0
M  V30 1544 C 140.661 -3.44911 0.114244 0
M  V30 1545 C 139.774 -4.15637 1.1777 0
M  V30 1546 C 138.909 -5.28324 0.552037 0
M  V30 1547 C 137.948 -5.90875 1.59789 0
M  V30 1548 N 137.085 -6.95022 0.994404 0
M  V30 1549 H 141.925 -2.5119 1.60336 0
M  V30 1550 H 139.462 -1.23356 0.801352 0
M  V30 1551 H 141.42 -4.16477 -0.245544 0
M  V30 1552 H 140.05 -3.14011 -0.74813 0
M  V30 1553 H 139.102 -3.42512 1.65499 0
M  V30 1554 H 140.414 -4.5823 1.97046 0
M  V30 1555 H 139.568 -6.06538 0.1402 0
M  V30 1556 H 138.307 -4.86939 -0.272431 0
M  V30 1557 H 137.312 -5.11369 2.01945 0
M  V30 1558 H 138.537 -6.34337 2.42474 0
M  V30 1559 H 136.483 -6.55722 0.190939 0
M  V30 1560 H 136.4 -7.36073 1.72432 0
M  V30 1561 H 137.668 -7.77123 0.608253 0
M  V30 1562 N 141.898 -0.863906 -1.31812 0
M  V30 1563 C 142.808 -0.318461 -2.32428 0
M  V30 1564 C 143.824 0.568496 -1.64451 0
M  V30 1565 O 145 0.46666 -1.95919 0
M  V30 1566 C 142.065 0.476355 -3.43412 0
M  V30 1567 C 141.126 -0.43784 -4.27061 0
M  V30 1568 C 140.359 0.319138 -5.32745 0
M  V30 1569 O 140.582 1.54799 -5.48993 0
M  V30 1570 O 139.516 -0.319861 -6.01049 0
M  V30 1571 H 143.342 -1.15229 -2.80991 0
M  V30 1572 H 140.927 -0.627103 -1.35602 0
M  V30 1573 H 142.809 0.927156 -4.11074 0
M  V30 1574 H 141.484 1.28683 -2.97022 0
M  V30 1575 H 140.391 -0.937013 -3.62175 0
M  V30 1576 H 141.724 -1.21375 -4.77 0
M  V30 1577 N 143.376 1.44774 -0.622745 0
M  V30 1578 C 144.308 2.28856 0.125485 0
M  V30 1579 C 145.321 1.40811 0.817069 0
M  V30 1580 O 146.51 1.65044 0.679918 0
M  V30 1581 C 143.61 3.16963 1.19949 0
M  V30 1582 C 142.783 4.33374 0.592064 0
M  V30 1583 C 141.842 5.02577 1.55893 0
M  V30 1584 O 140.868 5.58873 1.07933 0
M  V30 1585 N 142.07 5.03256 2.89334 0
M  V30 1586 H 144.835 2.93713 -0.596068 0
M  V30 1587 H 142.396 1.55129 -0.463303 0
M  V30 1588 H 144.388 3.60123 1.84644 0
M  V30 1589 H 142.958 2.53913 1.82337 0
M  V30 1590 H 142.178 3.93509 -0.233322 0
M  V30 1591 H 143.466 5.08527 0.166738 0
M  V30 1592 H 142.864 4.58836 3.30887 0
M  V30 1593 H 141.421 5.50232 3.49412 0
M  V30 1594 N 144.854 0.36279 1.53368 0
M  V30 1595 C 145.801 -0.485008 2.25646 0
M  V30 1596 C 146.771 -1.07982 1.2621 0
M  V30 1597 O 147.956 -1.11284 1.54986 0
M  V30 1598 C 145.096 -1.62023 3.04701 0
M  V30 1599 C 144.209 -1.05086 4.19024 0
M  V30 1600 C 143.344 -2.15496 4.85525 0
M  V30 1601 C 142.383 -1.5601 5.91884 0
M  V30 1602 N 141.52 -2.60241 6.52088 0
M  V30 1603 H 146.36 0.137864 2.97681 0
M  V30 1604 H 143.897 0.0798061 1.46883 0
M  V30 1605 H 145.855 -2.28887 3.48807 0
M  V30 1606 H 144.485 -2.2138 2.34927 0
M  V30 1607 H 143.537 -0.27259 3.79422 0
M  V30 1608 H 144.849 -0.575926 4.95464 0
M  V30 1609 H 144.003 -2.90186 5.32801 0
M  V30 1610 H 142.742 -2.66341 4.08551 0
M  V30 1611 H 141.747 -0.798338 5.43973 0
M  V30 1612 H 142.972 -1.05994 6.70777 0
M  V30 1613 H 140.918 -3.10304 5.77968 0
M  V30 1614 H 140.835 -2.17426 7.24059 0
M  V30 1615 H 142.103 -3.34641 7.04014 0
M  V30 1616 N 146.332 -1.57332 0.0918853 0
M  V30 1617 C 147.58 -1.93853 -0.571446 0
M  V30 1618 C 147.901 -0.974212 -1.6892 0
M  V30 1619 O 147.171 -0.0257254 -1.95883 0
M  V30 1620 H 145.751 -0.715666 -0.214082 0
M  V30 1621 H 148.413 -1.94287 0.154464 0
M  V30 1622 H 147.509 -2.96191 -0.983729 0
M  V30 1623 N 147.81 0.181792 -1.56548 0
M  V30 1624 C 148.742 1.24956 -1.92142 0
M  V30 1625 C 149.755 1.41022 -0.813422 0
M  V30 1626 O 150.944 1.41212 -1.09186 0
M  V30 1627 C 148.044 2.61981 -2.14987 0
M  V30 1628 C 147.217 2.6735 -3.46183 0
M  V30 1629 C 146.276 3.85664 -3.5798 0
M  V30 1630 O 145.302 3.72148 -4.30691 0
M  V30 1631 N 146.504 5.01683 -2.92053 0
M  V30 1632 H 149.269 0.947329 -2.84334 0
M  V30 1633 H 146.83 0.371629 -1.57577 0
M  V30 1634 H 148.822 3.3958 -2.20154 0
M  V30 1635 H 147.392 2.84637 -1.2923 0
M  V30 1636 H 146.612 1.75925 -3.52766 0
M  V30 1637 H 147.9 2.67939 -4.32534 0
M  V30 1638 H 147.298 5.15564 -2.32832 0
M  V30 1639 H 145.855 5.77181 -3.0283 0
M  V30 1640 N 149.288 1.51039 0.449983 0
M  V30 1641 C 150.218 1.74379 1.55288 0
M  V30 1642 C 151.199 0.593236 1.5942 0
M  V30 1643 O 152.384 0.834625 1.7535 0
M  V30 1644 C 149.514 1.85728 2.93466 0
M  V30 1645 C 148.468 3.01078 3.04197 0
M  V30 1646 C 147.794 2.97595 4.44231 0
M  V30 1647 C 149.094 4.41254 2.7945 0
M  V30 1648 H 150.788 2.66725 1.36008 0
M  V30 1649 H 148.334 1.2835 0.652864 0
M  V30 1650 H 150.287 2.0064 3.70569 0
M  V30 1651 H 149.011 0.900207 3.13949 0
M  V30 1652 H 147.67 2.85851 2.29531 0
M  V30 1653 H 147.318 1.99691 4.61663 0
M  V30 1654 H 147.018 3.75046 4.52343 0
M  V30 1655 H 148.542 3.14583 5.23326 0
M  V30 1656 H 149.956 4.56897 3.46292 0
M  V30 1657 H 148.353 5.20315 2.98985 0
M  V30 1658 H 149.423 4.52164 1.75144 0
M  V30 1659 N 150.766 -0.704594 1.40972 0
M  V30 1660 C 151.696 -1.83124 1.44872 0
M  V30 1661 C 152.677 -1.67281 0.30838 0
M  V30 1662 O 153.862 -1.87149 0.518556 0
M  V30 1663 C 150.992 -3.21181 1.32136 0
M  V30 1664 C 149.946 -3.51714 2.43888 0
M  V30 1665 C 149.272 -4.89032 2.16222 0
M  V30 1666 C 150.572 -3.516 3.86232 0
M  V30 1667 H 152.266 -1.80117 2.39161 0
M  V30 1668 H 149.812 -0.865145 1.15114 0
M  V30 1669 H 151.765 -3.99702 1.33479 0
M  V30 1670 H 150.489 -3.24791 0.343279 0
M  V30 1671 H 149.148 -2.75539 2.41813 0
M  V30 1672 H 148.796 -4.89256 1.16778 0
M  V30 1673 H 148.496 -5.10426 2.911 0
M  V30 1674 H 150.02 -5.69873 2.19265 0
M  V30 1675 H 151.434 -4.2014 3.9007 0
M  V30 1676 H 149.831 -3.84523 4.60719 0
M  V30 1677 H 150.901 -2.50757 4.15029 0
M  V30 1678 N 152.244 -1.26651 -0.937939 0
M  V30 1679 C 153.655 -1.1125 -1.49934 0
M  V30 1680 C 154.006 0.306077 -1.93798 0
M  V30 1681 O 153.131 1.19792 -1.80219 0
M  V30 1682 C 153.726 -2.01339 -2.72485 0
M  V30 1683 C 152.285 -1.90074 -3.24883 0
M  V30 1684 C 151.432 -1.94498 -1.97651 0
M  V30 1685 H 154.383 -1.39693 -0.753091 0
M  V30 1686 H 154.404 -1.56319 -3.46907 0
M  V30 1687 H 153.916 -3.04577 -2.40529 0
M  V30 1688 H 152.017 -0.897827 -3.61621 0
M  V30 1689 H 152.13 -2.75778 -3.9177 0
M  V30 1690 H 150.494 -1.38591 -2.13693 0
M  V30 1691 H 151.277 -2.99372 -1.68022 0
M  V30 1692 N 153.722 1.14298 -1.08507 0
M  V30 1693 C 154.632 2.23027 -0.727753 0
M  V30 1694 C 155.648 1.71952 0.26619 0
M  V30 1695 O 156.824 2.011 0.109882 0
M  V30 1696 C 153.889 3.46403 -0.143541 0
M  V30 1697 C 152.95 4.12413 -1.19223 0
M  V30 1698 C 152.183 5.29899 -0.635798 0
M  V30 1699 O 152.406 5.67796 0.544393 0
M  V30 1700 O 151.34 5.85717 -1.38634 0
M  V30 1701 H 155.166 2.55945 -1.63481 0
M  V30 1702 H 152.751 1.22248 -0.858817 0
M  V30 1703 H 154.633 4.21018 0.179404 0
M  V30 1704 H 153.308 3.15206 0.736659 0
M  V30 1705 H 152.215 3.39667 -1.56772 0
M  V30 1706 H 153.548 4.47718 -2.04474 0
M  V30 1707 N 155.201 0.870884 1.31352 0
M  V30 1708 C 156.149 0.316445 2.30437 0
M  V30 1709 C 157.143 -0.568965 1.59559 0
M  V30 1710 O 158.349 -0.454964 1.74155 0
M  V30 1711 H 154.724 0.0836521 0.747333 0
M  V30 1712 H 156.695 1.16606 2.74673 0
M  V30 1713 C 155.444 -0.46635 3.44558 0
M  V30 1714 H 154.767 0.205687 3.99271 0
M  V30 1715 H 156.207 -0.819614 4.16003 0
M  V30 1716 C 154.666 -1.65797 2.9328 0
M  V30 1717 O 155.196 -2.75728 2.92125 0
M  V30 1718 N 153.402 -1.49041 2.4947 0
M  V30 1719 H 152.949 -0.59612 2.50608 0
M  V30 1720 H 152.907 -2.28911 2.15516 0
M  V30 1721 N 156.679 -1.44442 0.630414 0
M  V30 1722 C 157.611 -2.2892 -0.113347 0
M  V30 1723 C 158.624 -1.41243 -0.80959 0
M  V30 1724 O 159.813 -1.65402 -0.671156 0
M  V30 1725 C 156.913 -3.17594 -1.18266 0
M  V30 1726 C 156.086 -4.33682 -0.569073 0
M  V30 1727 C 155.145 -5.03397 -1.53226 0
M  V30 1728 O 154.171 -5.59438 -1.04967 0
M  V30 1729 N 155.373 -5.04783 -2.86661 0
M  V30 1730 H 158.138 -2.93392 0.611636 0
M  V30 1731 H 155.699 -1.54881 0.471523 0
M  V30 1732 H 157.691 -3.61097 -1.82732 0
M  V30 1733 H 156.261 -2.54876 -1.80988 0
M  V30 1734 H 155.481 -3.9338 0.254187 0
M  V30 1735 H 156.769 -5.08608 -0.139767 0
M  V30 1736 H 156.167 -4.60584 -3.28449 0
M  V30 1737 H 154.724 -5.52077 -3.46489 0
M  V30 1738 N 158.157 -0.370918 -1.53173 0
M  V30 1739 C 159.403 0.217423 -2.01631 0
M  V30 1740 C 159.736 1.47983 -1.25756 0
M  V30 1741 O 159.011 1.91274 -0.352764 0
M  V30 1742 C 159.294 0.503982 -3.56556 0
M  V30 1743 C 159.147 -0.77243 -4.43118 0
M  V30 1744 C 160.466 1.30234 -4.20389 0
M  V30 1745 H 157.585 0.0775486 -0.732909 0
M  V30 1746 H 160.227 -0.496863 -1.83388 0
M  V30 1747 H 158.377 1.11248 -3.72231 0
M  V30 1748 H 160.049 -1.4098 -4.39229 0
M  V30 1749 H 158.292 -1.39167 -4.10871 0
M  V30 1750 H 158.963 -0.526815 -5.4948 0
M  V30 1751 H 161.439 0.787546 -4.08579 0
M  V30 1752 H 160.315 1.47158 -5.28806 0
M  V30 1753 H 160.576 2.31237 -3.76805 0
M  V30 1754 N 159.635 1.57281 -0.100228 0
M  V30 1755 C 160.881 1.94826 0.563101 0
M  V30 1756 C 161.214 0.982475 1.67514 0
M  V30 1757 O 160.489 0.0164069 1.94493 0
M  V30 1758 C 160.772 3.42453 1.11346 0
M  V30 1759 C 160.625 4.498 0.00612081 0
M  V30 1760 C 161.944 3.91506 2.01024 0
M  V30 1761 H 159.063 0.708428 0.203221 0
M  V30 1762 H 161.705 1.8922 -0.171979 0
M  V30 1763 H 159.855 3.47361 1.7399 0
M  V30 1764 H 161.527 4.57 -0.628357 0
M  V30 1765 H 159.77 4.28756 -0.659581 0
M  V30 1766 H 160.441 5.50306 0.432109 0
M  V30 1767 H 162.917 3.88784 1.48278 0
M  V30 1768 H 161.793 4.95358 2.36457 0
M  V30 1769 H 162.054 3.31099 2.92961 0
M  V30 1770 N 161.113 -0.173488 1.56642 0
M  V30 1771 C 162.023 -1.23482 1.99473 0
M  V30 1772 C 163.039 -1.48567 0.905752 0
M  V30 1773 O 164.215 -1.60758 1.21321 0
M  V30 1774 C 161.28 -2.55444 2.34413 0
M  V30 1775 C 160.341 -2.38241 3.57127 0
M  V30 1776 C 159.574 -3.63909 3.90392 0
M  V30 1777 O 159.797 -4.68996 3.24653 0
M  V30 1778 O 158.731 -3.58149 4.83749 0
M  V30 1779 H 162.557 -0.901279 2.90018 0
M  V30 1780 H 160.142 -0.380185 1.44482 0
M  V30 1781 H 162.024 -3.33292 2.57865 0
M  V30 1782 H 160.699 -2.88382 1.4703 0
M  V30 1783 H 159.606 -1.58431 3.38896 0
M  V30 1784 H 160.939 -2.10228 4.45045 0
M  V30 1785 N 162.591 -1.51276 -0.441967 0
M  V30 1786 C 163.837 -1.6492 -1.1905 0
M  V30 1787 C 164.192 -0.358731 -1.89026 0
M  V30 1788 O 163.485 0.645193 -1.8041 0
M  V30 1789 C 163.679 -2.78746 -2.23686 0
M  V30 1790 C 163.508 -4.18737 -1.63979 0
M  V30 1791 C 162.278 -4.84739 -1.42674 0
M  V30 1792 C 164.476 -5.01988 -1.11858 0
M  V30 1793 N 162.458 -6.08858 -0.785159 0
M  V30 1794 C 163.829 -6.17071 -0.601989 0
M  V30 1795 C 165.884 -4.87551 -1.0099 0
M  V30 1796 C 164.587 -7.19299 0.0126012 0
M  V30 1797 C 166.613 -5.89983 -0.409206 0
M  V30 1798 C 165.975 -7.04333 0.0968651 0
M  V30 1799 H 162.074 -0.657416 -0.423471 0
M  V30 1800 H 164.658 -1.8849 -0.48782 0
M  V30 1801 H 162.829 -2.56848 -2.91348 0
M  V30 1802 H 164.561 -2.81595 -2.90666 0
M  V30 1803 H 161.316 -4.42528 -1.68719 0
M  V30 1804 H 161.74 -6.75282 -0.481942 0
M  V30 1805 H 166.382 -3.99401 -1.38703 0
M  V30 1806 H 164.1 -8.071 0.401879 0
M  V30 1807 H 167.686 -5.8088 -0.327079 0
M  V30 1808 H 166.566 -7.82238 0.554373 0
M  V30 1809 N 164.069 0.697108 -1.41344 0
M  V30 1810 C 165.316 1.45714 -1.40619 0
M  V30 1811 C 165.644 1.94494 -0.0147907 0
M  V30 1812 O 164.899 1.69794 0.973066 0
M  V30 1813 C 165.198 2.68553 -2.35826 0
M  V30 1814 C 164.864 2.38438 -3.82698 0
M  V30 1815 C 163.526 2.29936 -4.22709 0
M  V30 1816 C 165.878 2.13567 -4.75435 0
M  V30 1817 C 163.206 1.94656 -5.53467 0
M  V30 1818 C 165.558 1.79797 -6.06511 0
M  V30 1819 C 164.222 1.69789 -6.45545 0
M  V30 1820 H 163.492 0.533206 -0.51456 0
M  V30 1821 H 166.139 0.796901 -1.74131 0
M  V30 1822 H 164.444 3.39503 -1.95563 0
M  V30 1823 H 166.141 3.2669 -2.32539 0
M  V30 1824 H 162.731 2.4595 -3.51008 0
M  V30 1825 H 166.915 2.19082 -4.45328 0
M  V30 1826 H 162.171 1.8546 -5.82593 0
M  V30 1827 H 166.345 1.59572 -6.77872 0
M  V30 1828 H 163.972 1.4222 -7.46778 0
M  V30 1829 N 165.547 1.27147 0.931209 0
M  V30 1830 C 166.793 1.13446 1.68101 0
M  V30 1831 C 167.126 -0.319628 1.91552 0
M  V30 1832 O 166.401 -1.23407 1.50336 0
M  V30 1833 C 166.684 1.91482 3.0497 0
M  V30 1834 C 166.537 3.44855 2.88782 0
M  V30 1835 C 167.856 1.71651 4.05246 0
M  V30 1836 H 164.975 0.413498 0.610072 0
M  V30 1837 H 167.617 1.56261 1.08086 0
M  V30 1838 H 165.767 1.55095 3.56199 0
M  V30 1839 H 167.439 3.9105 2.44698 0
M  V30 1840 H 165.682 3.71373 2.24198 0
M  V30 1841 H 166.353 3.94694 3.85902 0
M  V30 1842 H 168.829 2.0337 3.63015 0
M  V30 1843 H 167.705 2.28651 4.99009 0
M  V30 1844 H 167.966 0.663555 4.37092 0
M  V30 1845 N 167.025 -1.13721 1.09112 0
M  V30 1846 C 167.957 -2.1871 0.685467 0
M  V30 1847 C 168.97 -1.60527 -0.271068 0
M  V30 1848 O 170.159 -1.78407 -0.0576148 0
M  V30 1849 C 167.259 -3.38898 -0.0111255 0
M  V30 1850 C 166.432 -4.26597 0.966131 0
M  V30 1851 C 165.491 -5.25324 0.303539 0
M  V30 1852 O 164.517 -5.61213 0.950177 0
M  V30 1853 N 165.719 -5.72779 -0.943651 0
M  V30 1854 H 168.484 -2.54126 1.58871 0
M  V30 1855 H 166.045 -1.29012 0.978143 0
M  V30 1856 H 168.037 -4.02014 -0.465517 0
M  V30 1857 H 166.607 -3.01747 -0.816565 0
M  V30 1858 H 165.827 -3.60306 1.59917 0
M  V30 1859 H 167.115 -4.82048 1.6281 0
M  V30 1860 H 166.513 -5.45762 -1.48862 0
M  V30 1861 H 165.07 -6.37847 -1.34142 0
M  V30 1862 N 168.503 -0.877838 -1.30888 0
M  V30 1863 C 169.752 -0.488793 -1.95688 0
M  V30 1864 C 170.065 0.965485 -1.70111 0
M  V30 1865 O 171.271 1.46104 -2.28836 0
M  V30 1866 C 169.727 -0.823201 -3.50359 0
M  V30 1867 C 169.335 -2.29477 -3.84765 0
M  V30 1868 C 171.079 -0.503009 -4.21509 0
M  V30 1869 C 168.986 -2.57118 -5.32583 0
M  V30 1870 H 167.916 -0.179062 -0.732429 0
M  V30 1871 H 170.567 -1.07183 -1.48943 0
M  V30 1872 H 168.949 -0.169331 -3.95638 0
M  V30 1873 H 170.123 -2.99236 -3.5042 0
M  V30 1874 H 168.438 -2.58178 -3.267 0
M  V30 1875 H 171.035 -0.68665 -5.30273 0
M  V30 1876 H 171.378 0.557109 -4.12555 0
M  V30 1877 H 171.911 -1.11376 -3.8189 0
M  V30 1878 H 168.65 -3.61843 -5.4658 0
M  V30 1879 H 168.17 -1.91961 -5.68253 0
M  V30 1880 H 169.849 -2.42251 -5.99936 0
M  V30 1881 N 169.982 1.44106 -0.638065 0
M  V30 1882 C 170.945 2.29138 0.0531013 0
M  V30 1883 C 171.945 1.41409 0.765506 0
M  V30 1884 O 173.135 1.63206 0.609046 0
M  V30 1885 C 170.267 3.23144 1.08584 0
M  V30 1886 H 171.46 2.91739 -0.694883 0
M  V30 1887 H 169.013 1.51134 -0.398538 0
M  V30 1888 H 169.748 2.65408 1.86357 0
M  V30 1889 H 169.533 3.87804 0.578852 0
M  V30 1890 H 171.023 3.87004 1.56899 0
M  V30 1891 N 171.46 0.379036 1.52974 0
M  V30 1892 C 172.393 -0.504932 2.22544 0
M  V30 1893 C 173.371 -1.0723 1.22231 0
M  V30 1894 O 174.555 -1.12589 1.51182 0
M  V30 1895 C 171.682 -1.69794 2.93066 0
M  V30 1896 C 170.728 -1.25678 4.07563 0
M  V30 1897 S 171.561 -0.246852 5.34931 0
M  V30 1898 C 172.717 -1.44588 6.08971 0
M  V30 1899 H 172.95 0.0858666 2.97176 0
M  V30 1900 H 170.483 0.163183 1.53535 0
M  V30 1901 H 172.441 -2.38219 3.34308 0
M  V30 1902 H 171.102 -2.26002 2.18133 0
M  V30 1903 H 170.295 -2.14725 4.5597 0
M  V30 1904 H 169.897 -0.651584 3.6828 0
M  V30 1905 H 172.189 -2.37469 6.34519 0
M  V30 1906 H 173.132 -1.00292 7.00962 0
M  V30 1907 H 173.54 -1.65804 5.39601 0
M  V30 1908 N 172.938 -1.57226 0.108567 0
M  V30 1909 C 173.901 -2.13602 -0.831082 0
M  V30 1910 C 174.901 -1.06841 -1.20173 0
M  V30 1911 O 176.091 -1.32666 -1.12895 0
M  V30 1912 C 173.223 -2.66769 -2.12243 0
M  V30 1913 H 174.416 -2.97951 -0.341317 0
M  V30 1914 H 171.969 -1.55667 -0.14057 0
M  V30 1915 H 172.704 -1.85977 -2.65675 0
M  V30 1916 H 172.489 -3.44839 -1.86625 0
M  V30 1917 H 173.979 -3.10332 -2.79435 0
M  V30 1918 N 174.416 0.165178 -1.56732 0
M  V30 1919 C 175.346 1.20651 -1.99914 0
M  V30 1920 C 176.327 1.45827 -0.875705 0
M  V30 1921 O 177.512 1.57057 -1.14223 0
M  V30 1922 C 174.642 2.54401 -2.36427 0
M  V30 1923 C 173.596 2.43782 -3.51787 0
M  V30 1924 C 172.922 3.82078 -3.7406 0
M  V30 1925 C 174.222 1.93732 -4.85041 0
M  V30 1926 H 175.916 0.847534 -2.87154 0
M  V30 1927 H 173.462 0.40625 -1.38151 0
M  V30 1928 H 175.415 3.27458 -2.65234 0
M  V30 1929 H 174.139 2.92098 -1.46103 0
M  V30 1930 H 172.798 1.73178 -3.23117 0
M  V30 1931 H 172.446 4.17179 -2.81017 0
M  V30 1932 H 172.146 3.7584 -4.51684 0
M  V30 1933 H 173.67 4.56712 -4.05274 0
M  V30 1934 H 175.084 2.56569 -5.12684 0
M  V30 1935 H 173.481 1.98428 -5.66345 0
M  V30 1936 H 174.551 0.891962 -4.76626 0
M  V30 1937 N 175.894 1.51508 0.433938 0
M  V30 1938 C 176.826 1.69266 1.54537 0
M  V30 1939 C 177.839 0.573276 1.52373 0
M  V30 1940 O 179.028 0.847698 1.57087 0
M  V30 1941 C 176.128 1.69524 2.93453 0
M  V30 1942 C 175.301 2.98101 3.20085 0
M  V30 1943 C 174.36 2.90502 4.38742 0
M  V30 1944 O 173.386 3.64442 4.3723 0
M  V30 1945 N 174.588 2.06586 5.42496 0
M  V30 1946 H 177.353 2.65145 1.39708 0
M  V30 1947 H 174.914 1.49437 0.622922 0
M  V30 1948 H 176.906 1.62004 3.70859 0
M  V30 1949 H 175.476 0.812245 3.01863 0
M  V30 1950 H 174.696 3.19464 2.30947 0
M  V30 1951 H 175.984 3.83207 3.34708 0
M  V30 1952 H 175.382 1.45896 5.46563 0
M  V30 1953 H 173.939 2.04943 6.18742 0
M  V30 1954 N 177.372 -0.689602 1.41712 0
M  V30 1955 C 178.602 -1.47613 1.44548 0
M  V30 1956 C 179.01 -1.89132 0.0509034 0
M  V30 1957 O 178.353 -1.57741 -0.94146 0
M  V30 1958 C 178.415 -2.76596 2.2964 0
M  V30 1959 C 178.079 -2.57245 3.77722 0
M  V30 1960 C 179.076 -2.22804 4.69739 0
M  V30 1961 C 176.761 -2.727 4.2183 0
M  V30 1962 C 178.755 -2.04064 6.03851 0
M  V30 1963 C 176.442 -2.53576 5.56006 0
M  V30 1964 C 177.44 -2.1931 6.46832 0
M  V30 1965 O 177.128 -2.00359 7.78532 0
M  V30 1966 H 176.86 -0.461227 0.494212 0
M  V30 1967 H 179.414 -0.856045 1.86711 0
M  V30 1968 H 177.644 -3.41033 1.82301 0
M  V30 1969 H 179.333 -3.38424 2.24107 0
M  V30 1970 H 180.099 -2.10473 4.36951 0
M  V30 1971 H 175.978 -2.98353 3.51435 0
M  V30 1972 H 179.522 -1.77241 6.74708 0
M  V30 1973 H 175.419 -2.65499 5.88371 0
M  V30 1974 H 176.187 -2.15075 7.89737 0
M  V30 1975 N 178.85 -1.27639 -0.924453 0
M  V30 1976 C 179.78 -1.13166 -2.04244 0
M  V30 1977 C 180.761 -0.032256 -1.70069 0
M  V30 1978 O 181.946 -0.207328 -1.9309 0
M  V30 1979 C 179.076 -0.781496 -3.38393 0
M  V30 1980 C 178.03 -1.83449 -3.86692 0
M  V30 1981 C 177.356 -1.33822 -5.17683 0
M  V30 1982 C 178.656 -3.23917 -4.09726 0
M  V30 1983 H 180.35 -2.06689 -2.1661 0
M  V30 1984 H 177.896 -0.995136 -1.04082 0
M  V30 1985 H 179.849 -0.667057 -4.16087 0
M  V30 1986 H 178.573 0.189439 -3.2605 0
M  V30 1987 H 177.232 -1.93789 -3.11193 0
M  V30 1988 H 176.88 -0.35665 -5.01734 0
M  V30 1989 H 176.58 -2.04224 -5.50968 0
M  V30 1990 H 178.104 -1.23679 -5.97943 0
M  V30 1991 H 179.518 -3.16559 -4.77978 0
M  V30 1992 H 177.915 -3.92059 -4.54324 0
M  V30 1993 H 178.985 -3.68729 -3.14908 0
M  V30 1994 N 180.328 1.1314 -1.09713 0
M  V30 1995 C 181.278 2.16709 -0.708593 0
M  V30 1996 C 182.262 1.58471 0.278523 0
M  V30 1997 O 183.454 1.76779 0.088427 0
M  V30 1998 C 180.583 3.43039 -0.133923 0
M  V30 1999 C 179.669 4.08277 -1.14763 0
M  V30 2000 N 180.06 4.48637 -2.33577 0
M  V30 2001 C 178.358 4.34954 -0.986446 0
M  V30 2002 C 179.059 4.9952 -2.98085 0
M  V30 2003 N 178.035 4.94561 -2.25632 0
M  V30 2004 H 181.837 2.45672 -1.61315 0
M  V30 2005 H 179.351 1.29967 -0.973775 0
M  V30 2006 H 181.348 4.16583 0.162465 0
M  V30 2007 H 180.008 3.15549 0.765447 0
M  V30 2008 H 181.019 4.41246 -2.7115 0
M  V30 2009 H 177.696 4.17258 -0.142008 0
M  V30 2010 H 179.086 5.40521 -3.99108 0
M  V30 2011 N 181.806 0.884767 1.30421 0
M  V30 2012 C 182.716 0.355398 2.31892 0
M  V30 2013 C 183.732 -0.542261 1.65335 0
M  V30 2014 O 184.908 -0.435432 1.96637 0
M  V30 2015 C 181.973 -0.421661 3.44126 0
M  V30 2016 C 181.034 0.505727 4.26311 0
M  V30 2017 C 180.267 -0.234343 5.33185 0
M  V30 2018 O 180.49 -1.46045 5.51386 0
M  V30 2019 O 179.424 0.415443 6.00465 0
M  V30 2020 H 183.25 1.19685 2.79122 0
M  V30 2021 H 180.835 0.648596 1.34587 0
M  V30 2022 H 182.717 -0.861641 4.12497 0
M  V30 2023 H 181.392 -1.23942 2.99032 0
M  V30 2024 H 180.299 0.994513 3.60639 0
M  V30 2025 H 181.632 1.28948 4.75009 0
M  V30 2026 N 183.284 -1.43765 0.645699 0
M  V30 2027 C 184.231 -2.30745 -0.0504648 0
M  V30 2028 C 185.201 -1.4432 -0.822241 0
M  V30 2029 O 186.386 -1.73202 -0.800358 0
M  V30 2030 C 183.526 -3.29802 -1.0161 0
M  V30 2031 C 182.639 -4.31326 -0.241219 0
M  V30 2032 C 181.774 -5.17469 -1.19998 0
M  V30 2033 C 180.813 -6.10691 -0.415094 0
M  V30 2034 N 179.95 -6.89483 -1.32506 0
M  V30 2035 H 184.79 -2.8973 0.697155 0
M  V30 2036 H 182.327 -1.42738 0.355563 0
M  V30 2037 H 184.285 -3.85734 -1.58949 0
M  V30 2038 H 182.915 -2.72483 -1.73069 0
M  V30 2039 H 181.967 -3.77749 0.448334 0
M  V30 2040 H 183.279 -4.9743 0.369437 0
M  V30 2041 H 182.433 -5.7799 -1.84424 0
M  V30 2042 H 181.172 -4.51473 -1.84455 0
M  V30 2043 H 180.177 -5.49265 0.242565 0
M  V30 2044 H 181.402 -6.78727 0.224966 0
M  V30 2045 H 179.348 -6.26142 -1.95657 0
M  V30 2046 H 179.265 -7.52081 -0.768783 0
M  V30 2047 H 180.533 -7.54516 -1.9577 0
M  V30 2048 N 184.763 -0.387143 -1.52771 0
M  V30 2049 C 185.713 0.465942 -2.23188 0
M  V30 2050 C 186.697 1.03138 -1.23496 0
M  V30 2051 O 187.889 0.957845 -1.48843 0
M  V30 2052 C 185.018 1.59384 -3.04059 0
M  V30 2053 C 184.104 1.04024 -4.11144 0
M  V30 2054 N 184.495 0.211416 -5.05358 0
M  V30 2055 C 182.793 1.31295 -4.26237 0
M  V30 2056 C 183.494 -0.0941698 -5.81624 0
M  V30 2057 N 182.47 0.509207 -5.4121 0
M  V30 2058 H 186.272 -0.173856 -2.93385 0
M  V30 2059 H 183.786 -0.19633 -1.61209 0
M  V30 2060 H 185.783 2.21738 -3.53041 0
M  V30 2061 H 184.443 2.23648 -2.35397 0
M  V30 2062 H 185.454 -0.151151 -5.17679 0
M  V30 2063 H 182.131 1.95679 -3.68803 0
M  V30 2064 H 183.521 -0.765572 -6.67524 0
M  V30 2065 N 186.241 1.57166 -0.116904 0
M  V30 2066 C 187.49 1.94298 0.541407 0
M  V30 2067 C 187.803 1.00236 1.67964 0
M  V30 2068 O 189.009 1.26826 2.40057 0
M  V30 2069 C 187.465 3.45306 1.01449 0
M  V30 2070 C 187.073 4.47899 -0.0951738 0
M  V30 2071 C 188.817 3.91361 1.6443 0
M  V30 2072 C 186.724 5.90083 0.394491 0
M  V30 2073 H 185.654 0.725308 0.206019 0
M  V30 2074 H 188.305 1.82446 -0.196419 0
M  V30 2075 H 186.687 3.52385 1.80667 0
M  V30 2076 H 187.861 4.52486 -0.871374 0
M  V30 2077 H 186.176 4.11583 -0.631505 0
M  V30 2078 H 188.773 4.95004 2.02176 0
M  V30 2079 H 189.116 3.3122 2.52189 0
M  V30 2080 H 189.649 3.87073 0.917559 0
M  V30 2081 H 186.388 6.53974 -0.447004 0
M  V30 2082 H 185.908 5.88921 1.13722 0
M  V30 2083 H 187.587 6.41307 0.856399 0
M  V30 2084 N 187.719 -0.156864 1.56817 0
M  V30 2085 C 188.649 -1.19589 2.00551 0
M  V30 2086 C 189.63 -1.4536 0.883426 0
M  V30 2087 O 190.815 -1.56449 1.15054 0
M  V30 2088 C 187.945 -2.53143 2.37773 0
M  V30 2089 C 186.899 -2.41913 3.53075 0
M  V30 2090 C 186.225 -3.80088 3.76081 0
M  V30 2091 C 187.525 -1.91157 4.86062 0
M  V30 2092 H 189.219 -0.832293 2.87599 0
M  V30 2093 H 186.765 -0.398918 1.38364 0
M  V30 2094 H 188.718 -3.26047 2.66967 0
M  V30 2095 H 187.442 -2.91319 1.4765 0
M  V30 2096 H 186.101 -1.71462 3.24031 0
M  V30 2097 H 185.749 -4.15683 2.83225 0
M  V30 2098 H 185.449 -3.73439 4.53671 0
M  V30 2099 H 186.973 -4.54556 4.0769 0
M  V30 2100 H 188.387 -2.53846 5.14038 0
M  V30 2101 H 186.784 -1.95422 5.67389 0
M  V30 2102 H 187.854 -0.866673 4.77092 0
M  V30 2103 N 189.197 -1.51736 -0.425897 0
M  V30 2104 C 190.147 -1.70258 -1.51645 0
M  V30 2105 C 191.131 -0.556488 -1.5097 0
M  V30 2106 O 192.323 -0.812879 -1.5723 0
M  V30 2107 C 189.452 -1.84143 -2.89735 0
M  V30 2108 C 188.538 -3.04572 -2.95122 0
M  V30 2109 N 188.929 -4.2756 -2.70233 0
M  V30 2110 C 187.227 -3.04061 -3.26286 0
M  V30 2111 C 187.928 -5.08908 -2.81757 0
M  V30 2112 N 186.904 -4.43797 -3.13919 0
M  V30 2113 H 190.706 -2.63004 -1.31172 0
M  V30 2114 H 188.22 -1.4954 -0.633375 0
M  V30 2115 H 190.217 -1.95525 -3.68206 0
M  V30 2116 H 188.877 -0.925857 -3.1122 0
M  V30 2117 H 189.888 -4.56315 -2.44943 0
M  V30 2118 H 186.565 -2.22179 -3.53473 0
M  V30 2119 H 187.955 -6.16843 -2.66372 0
M  V30 2120 N 190.675 0.682077 -1.42076 0
M  V30 2121 C 192.091 0.994324 -1.24841 0
M  V30 2122 C 192.291 2.0096 -0.147389 0
M  V30 2123 O 191.347 2.47822 0.483782 0
M  V30 2124 C 192.66 1.50607 -2.60265 0
M  V30 2125 C 194.208 1.62421 -2.6756 0
M  V30 2126 C 194.683 2.16994 -4.03333 0
M  V30 2127 N 196.174 2.24337 -4.0525 0
M  V30 2128 C 196.909 2.67621 -5.07116 0
M  V30 2129 N 196.405 3.1041 -6.19368 0
M  V30 2130 N 198.198 2.67305 -4.94474 0
M  V30 2131 H 190.349 0.00973908 -2.12398 0
M  V30 2132 H 192.612 0.0668593 -0.945639 0
M  V30 2133 H 192.318 0.834583 -3.41654 0
M  V30 2134 H 192.192 2.48602 -2.83684 0
M  V30 2135 H 194.579 2.28678 -1.86521 0
M  V30 2136 H 194.66 0.629352 -2.47937 0
M  V30 2137 H 194.304 1.51349 -4.84826 0
M  V30 2138 H 194.234 3.17258 -4.20304 0
M  V30 2139 H 196.725 1.94158 -3.24209 0
M  V30 2140 H 197.038 3.42103 -6.92954 0
M  V30 2141 H 195.383 3.08286 -6.22884 0
M  V30 2142 H 198.574 2.33233 -4.05857 0
M  V30 2143 H 198.747 3.00718 -5.73997 0
M  V30 2144 N 192.153 1.28127 0.917671 0
M  V30 2145 C 193.43 1.05761 1.64542 0
M  V30 2146 C 193.81 -0.404344 2.07191 0
M  V30 2147 O 193.158 -1.38963 1.81388 0
M  V30 2148 C 193.368 2.02857 2.83989 0
M  V30 2149 C 194.716 2.32786 3.551 0
M  V30 2150 O 195.74 2.0091 2.94132 0
M  V30 2151 O 194.599 2.87169 4.64969 0
M  V30 2152 H 191.693 0.403916 0.721652 0
M  V30 2153 H 194.239 1.39431 0.967322 0
M  V30 2154 H 193.011 3.01407 2.49538 0
M  V30 2155 H 192.634 1.69809 3.59514 0
M  V30 2156 N 193.631 -1.12557 1.10312 0
M  V30 2157 C 194.561 -2.20341 0.772798 0
M  V30 2158 C 195.542 -1.68198 -0.25365 0
M  V30 2159 O 196.727 -1.93831 -0.119699 0
M  V30 2160 C 193.857 -3.46709 0.202443 0
M  V30 2161 C 192.811 -4.11996 1.15943 0
M  V30 2162 C 192.137 -5.328 0.450345 0
M  V30 2163 C 193.437 -4.5828 2.50552 0
M  V30 2164 H 195.131 -2.48229 1.674 0
M  V30 2165 H 192.677 -1.19308 0.806326 0
M  V30 2166 H 194.63 -4.2138 -0.0407752 0
M  V30 2167 H 193.354 -3.18245 -0.734001 0
M  V30 2168 H 192.013 -3.39305 1.38808 0
M  V30 2169 H 191.661 -5.00602 -0.490531 0
M  V30 2170 H 191.361 -5.7743 1.08851 0
M  V30 2171 H 192.885 -6.10219 0.215642 0
M  V30 2172 H 194.299 -5.2433 2.31843 0
M  V30 2173 H 192.696 -5.13683 3.10242 0
M  V30 2174 H 193.766 -3.72329 3.10643 0
M  V30 2175 N 195.109 -0.891671 -1.2995 0
M  V30 2176 C 196.056 -0.361736 -2.27948 0
M  V30 2177 C 197.026 0.551761 -1.56668 0
M  V30 2178 O 198.211 0.478736 -1.84696 0
M  V30 2179 C 195.351 0.411825 -3.42634 0
M  V30 2180 C 194.464 -0.531651 -4.28716 0
M  V30 2181 C 193.599 0.258167 -5.30572 0
M  V30 2182 C 192.638 -0.680349 -6.08307 0
M  V30 2183 N 191.775 0.0745613 -7.0206 0
M  V30 2184 H 196.615 -1.20254 -2.72659 0
M  V30 2185 H 194.152 -0.604352 -1.34112 0
M  V30 2186 H 196.11 0.876304 -4.07893 0
M  V30 2187 H 194.74 1.21715 -2.98974 0
M  V30 2188 H 193.792 -1.11463 -3.63703 0
M  V30 2189 H 195.104 -1.25038 -4.82874 0
M  V30 2190 H 194.258 0.784204 -6.0161 0
M  V30 2191 H 192.997 1.01008 -4.77126 0
M  V30 2192 H 192.002 -1.21796 -5.3614 0
M  V30 2193 H 193.227 -1.43145 -6.63842 0
M  V30 2194 H 191.173 0.808883 -6.50994 0
M  V30 2195 H 191.09 -0.584409 -7.53738 0
M  V30 2196 H 192.358 0.581123 -7.77331 0
M  V30 2197 N 196.587 1.43421 -0.653314 0
M  V30 2198 C 197.815 2.06163 -0.174491 0
M  V30 2199 C 198.23 1.48969 1.1599 0
M  V30 2200 O 197.587 0.621042 1.71608 0
M  V30 2201 C 197.638 3.61417 -0.0774865 0
M  V30 2202 O 197.359 4.16485 -1.35912 0
M  V30 2203 C 198.86 4.41235 0.427402 0
M  V30 2204 H 196.08 0.664946 -0.0899353 0
M  V30 2205 H 198.624 1.83924 -0.893988 0
M  V30 2206 H 196.779 3.82841 0.59257 0
M  V30 2207 H 197.193 5.10153 -1.21839 0
M  V30 2208 H 198.667 5.5021 0.44423 0
M  V30 2209 H 199.144 4.14268 1.45873 0
M  V30 2210 H 199.75 4.2478 -0.210167 0
M  V30 2211 N 198.065 0.39524 1.52563 0
M  V30 2212 C 198.997 -0.472201 2.24283 0
M  V30 2213 C 200.01 -1.02178 1.26742 0
M  V30 2214 O 201.199 -0.923097 1.52778 0
M  V30 2215 C 198.299 -1.66775 2.95024 0
M  V30 2216 C 197.472 -1.2445 4.19322 0
M  V30 2217 C 196.531 -2.30539 4.7301 0
M  V30 2218 O 195.557 -1.91702 5.35947 0
M  V30 2219 N 196.759 -3.6253 4.53379 0
M  V30 2220 H 199.524 0.142282 2.99362 0
M  V30 2221 H 197.085 0.2219 1.60372 0
M  V30 2222 H 199.077 -2.37283 3.27839 0
M  V30 2223 H 197.647 -2.18845 2.23217 0
M  V30 2224 H 196.867 -0.368069 3.92478 0
M  V30 2225 H 198.155 -0.938457 5.0007 0
M  V30 2226 H 197.553 -3.96841 4.03154 0
M  V30 2227 H 196.11 -4.29055 4.90668 0
M  V30 2228 N 199.544 -1.57102 0.125237 0
M  V30 2229 C 200.492 -2.16905 -0.839927 0
M  V30 2230 C 201.486 -1.11998 -1.27094 0
M  V30 2231 O 202.692 -1.3029 -1.24195 0
M  V30 2232 H 199.067 -0.694252 -0.288995 0
M  V30 2233 H 201.038 -2.96774 -0.311115 0
M  V30 2234 C 199.787 -2.78795 -2.07771 0
M  V30 2235 H 199.11 -3.59221 -1.755 0
M  V30 2236 H 200.55 -3.2417 -2.73295 0
M  V30 2237 C 199.009 -1.76193 -2.87155 0
M  V30 2238 O 199.539 -1.21909 -3.82755 0
M  V30 2239 N 197.745 -1.45991 -2.51267 0
M  V30 2240 H 197.292 -1.90325 -1.73592 0
M  V30 2241 H 197.25 -0.775844 -3.04677 0
M  V30 2242 N 201.022 0.148545 -1.56898 0
M  V30 2243 C 202.268 0.862694 -1.83536 0
M  V30 2244 C 202.601 1.80889 -0.706604 0
M  V30 2245 O 201.876 1.92328 0.289885 0
M  V30 2246 C 202.159 1.63853 -3.20662 0
M  V30 2247 C 202.012 0.713925 -4.44098 0
M  V30 2248 C 203.331 2.60133 -3.54991 0
M  V30 2249 H 200.45 0.312179 -0.667618 0
M  V30 2250 H 203.092 0.127953 -1.89569 0
M  V30 2251 H 201.242 2.26489 -3.1565 0
M  V30 2252 H 202.914 0.098686 -4.61194 0
M  V30 2253 H 201.157 0.0234019 -4.33794 0
M  V30 2254 H 201.828 1.29278 -5.36648 0
M  V30 2255 H 204.304 2.07616 -3.60603 0
M  V30 2256 H 203.18 3.11468 -4.51972 0
M  V30 2257 H 203.441 3.41417 -2.80868 0
M  V30 2258 N 202.5 1.5196 0.417844 0
M  V30 2259 C 203.747 1.65591 1.16559 0
M  V30 2260 C 204.075 0.381565 1.90721 0
M  V30 2261 O 203.33 -0.635156 1.85106 0
M  V30 2262 C 203.629 2.82269 2.19223 0
M  V30 2263 C 203.295 4.20819 1.61933 0
M  V30 2264 C 201.957 4.58506 1.46033 0
M  V30 2265 C 204.309 5.07196 1.20008 0
M  V30 2266 C 201.637 5.80257 0.867113 0
M  V30 2267 C 203.989 6.29544 0.621086 0
M  V30 2268 C 202.653 6.65987 0.449144 0
M  V30 2269 H 201.923 0.605939 0.42652 0
M  V30 2270 H 204.57 1.86041 0.45397 0
M  V30 2271 H 202.875 2.56118 2.96498 0
M  V30 2272 H 204.572 2.90012 2.76936 0
M  V30 2273 H 201.162 3.91116 1.7529 0
M  V30 2274 H 205.346 4.7867 1.31105 0
M  V30 2275 H 200.602 6.07124 0.721833 0
M  V30 2276 H 204.776 6.95805 0.287798 0
M  V30 2277 H 202.403 7.60199 -0.012632 0
M  V30 2278 N 203.978 -0.674533 1.42435 0
M  V30 2279 C 204.908 -1.80009 1.48724 0
M  V30 2280 C 205.889 -1.6659 0.343793 0
M  V30 2281 O 207.074 -1.86007 0.558137 0
M  V30 2282 C 204.204 -3.18306 1.38919 0
M  V30 2283 C 203.158 -3.46461 2.51294 0
M  V30 2284 C 202.484 -4.84335 2.26547 0
M  V30 2285 C 203.784 -3.43328 3.93603 0
M  V30 2286 H 205.478 -1.75004 2.42928 0
M  V30 2287 H 203.024 -0.840533 1.16923 0
M  V30 2288 H 204.977 -3.9678 1.41927 0
M  V30 2289 H 203.701 -3.2399 0.412094 0
M  V30 2290 H 202.36 -2.70348 2.47604 0
M  V30 2291 H 202.008 -4.86669 1.2713 0
M  V30 2292 H 201.708 -5.04136 3.01861 0
M  V30 2293 H 203.232 -5.65094 2.31304 0
M  V30 2294 H 204.646 -4.11772 3.98894 0
M  V30 2295 H 203.043 -3.74664 4.68771 0
M  V30 2296 H 204.113 -2.41897 4.20255 0
M  V30 2297 N 205.456 -1.28612 -0.910864 0
M  V30 2298 C 206.684 -1.18792 -1.69399 0
M  V30 2299 C 207.099 0.253039 -1.87097 0
M  V30 2300 O 206.456 1.17071 -1.40003 0
M  V30 2301 C 206.507 -1.88511 -3.08457 0
M  V30 2302 O 206.228 -3.26979 -2.91576 0
M  V30 2303 C 207.729 -1.85029 -4.02839 0
M  V30 2304 H 204.949 -0.412233 -0.529438 0
M  V30 2305 H 207.493 -1.69788 -1.13984 0
M  V30 2306 H 205.648 -1.41379 -3.60681 0
M  V30 2307 H 206.062 -3.61936 -3.79608 0
M  V30 2308 H 207.536 -2.38395 -4.97867 0
M  V30 2309 H 208.013 -0.823303 -4.31414 0
M  V30 2310 H 208.619 -2.31853 -3.56545 0
M  V30 2311 N 206.934 1.1197 -1.10907 0
M  V30 2312 C 208.35 1.35591 -0.841852 0
M  V30 2313 C 208.55 1.94233 0.536246 0
M  V30 2314 O 207.606 2.1717 1.28816 0
M  V30 2315 C 208.919 2.29284 -1.94549 0
M  V30 2316 C 210.467 2.42862 -1.97451 0
M  V30 2317 C 210.942 3.39873 -3.07002 0
M  V30 2318 N 212.433 3.47433 -3.06341 0
M  V30 2319 C 213.168 4.22421 -3.87748 0
M  V30 2320 N 212.664 5.00432 -4.79103 0
M  V30 2321 N 214.457 4.17876 -3.75946 0
M  V30 2322 H 206.608 0.722664 -1.99728 0
M  V30 2323 H 208.871 0.380635 -0.868229 0
M  V30 2324 H 208.577 1.93378 -2.93765 0
M  V30 2325 H 208.451 3.29452 -1.83688 0
M  V30 2326 H 210.838 2.78046 -0.988645 0
M  V30 2327 H 210.919 1.42566 -2.12388 0
M  V30 2328 H 210.563 3.05417 -4.05811 0
M  V30 2329 H 210.493 4.40011 -2.89306 0
M  V30 2330 H 212.984 2.91784 -2.40147 0
M  V30 2331 H 213.297 5.55002 -5.37766 0
M  V30 2332 H 211.642 4.99612 -4.83128 0
M  V30 2333 H 214.833 3.56016 -3.03924 0
M  V30 2334 H 215.006 4.76061 -4.39624 0
M  V30 2335 N 208.412 0.89855 1.29475 0
M  V30 2336 C 209.64 0.539261 1.99749 0
M  V30 2337 C 210.055 -0.875716 1.67262 0
M  V30 2338 O 209.412 -1.57786 0.917049 0
M  V30 2339 C 209.463 0.72061 3.54245 0
M  V30 2340 O 209.184 2.07989 3.8558 0
M  V30 2341 C 210.685 0.366118 4.41786 0
M  V30 2342 H 207.905 0.207047 0.638258 0
M  V30 2343 H 210.449 1.20758 1.65039 0
M  V30 2344 H 208.604 0.0994862 3.87272 0
M  V30 2345 H 209.018 2.10841 4.80257 0
M  V30 2346 H 210.492 0.543848 5.49314 0
M  V30 2347 H 210.969 -0.696763 4.33638 0
M  V30 2348 H 211.575 0.964135 4.14228 0
M  V30 2349 N 209.89 -1.43072 0.660911 0
M  V30 2350 C 210.838 -2.32569 -0.0378199 0
M  V30 2351 C 211.832 -1.49046 -0.805092 0
M  V30 2352 O 213.038 -1.65206 -0.714624 0
M  V30 2353 H 209.413 -0.75136 -0.031019 0
M  V30 2354 H 211.384 -2.89216 0.734609 0
M  V30 2355 C 210.133 -3.33453 -0.985124 0
M  V30 2356 H 209.456 -3.97752 -0.404147 0
M  V30 2357 H 210.896 -3.98691 -1.44297 0
M  V30 2358 C 209.355 -2.64642 -2.08486 0
M  V30 2359 O 209.885 -2.46776 -3.16961 0
M  V30 2360 N 208.091 -2.23891 -1.8526 0
M  V30 2361 H 207.638 -2.38621 -0.970449 0
M  V30 2362 H 207.596 -1.78181 -2.59034 0
M  V30 2363 N 211.368 -0.403325 -1.52352 0
M  V30 2364 C 212.617 0.175668 -2.00934 0
M  V30 2365 C 212.93 1.46718 -1.29356 0
M  V30 2366 O 214.136 2.12708 -1.68724 0
M  V30 2367 C 212.592 0.363612 -3.58058 0
M  V30 2368 C 212.2 -0.915472 -4.38547 0
M  V30 2369 C 213.944 0.89821 -4.14888 0
M  V30 2370 C 211.851 -0.695035 -5.87302 0
M  V30 2371 H 210.781 0.0694234 -0.750797 0
M  V30 2372 H 213.432 -0.527879 -1.75743 0
M  V30 2373 H 211.814 1.12935 -3.79555 0
M  V30 2374 H 212.988 -1.68691 -4.28812 0
M  V30 2375 H 211.303 -1.37606 -3.93006 0
M  V30 2376 H 213.9 1.07907 -5.23699 0
M  V30 2377 H 214.243 1.87126 -3.71873 0
M  V30 2378 H 214.776 0.191681 -3.97338 0
M  V30 2379 H 211.515 -1.63948 -6.34666 0
M  V30 2380 H 211.035 0.0372116 -5.99788 0
M  V30 2381 H 212.714 -0.33497 -6.46132 0
M  V30 2382 N 212.846 1.57033 -0.133567 0
M  V30 2383 C 214.095 1.94861 0.520768 0
M  V30 2384 C 214.408 1.02012 1.66892 0
M  V30 2385 O 215.614 1.29365 2.38699 0
M  V30 2386 C 214.07 3.46362 0.977809 0
M  V30 2387 C 213.678 4.47773 -0.142674 0
M  V30 2388 C 215.422 3.93083 1.60269 0
M  V30 2389 C 213.329 5.90468 0.331883 0
M  V30 2390 H 212.259 0.727453 0.198315 0
M  V30 2391 H 214.91 1.82227 -0.215759 0
M  V30 2392 H 213.292 3.54282 1.7692 0
M  V30 2393 H 214.466 4.51536 -0.919317 0
M  V30 2394 H 212.781 4.10891 -0.675124 0
M  V30 2395 H 215.378 4.97121 1.96914 0
M  V30 2396 H 215.721 3.33876 2.48662 0
M  V30 2397 H 216.254 3.88025 0.876453 0
M  V30 2398 H 212.993 6.53463 -0.516341 0
M  V30 2399 H 212.513 5.90094 1.07469 0
M  V30 2400 H 214.192 6.42179 0.788332 0
M  V30 2401 N 214.325 -0.140222 1.56975 0
M  V30 2402 C 215.272 -1.17292 1.98774 0
M  V30 2403 C 216.242 -1.4232 0.856408 0
M  V30 2404 O 217.427 -1.54541 1.119 0
M  V30 2405 C 214.567 -2.49973 2.37923 0
M  V30 2406 C 213.68 -2.32062 3.64378 0
M  V30 2407 C 212.815 -3.57825 3.926 0
M  V30 2408 C 211.854 -3.3498 5.12303 0
M  V30 2409 N 210.991 -4.52891 5.36502 0
M  V30 2410 H 215.831 -0.809472 2.86795 0
M  V30 2411 H 213.368 -0.388237 1.41884 0
M  V30 2412 H 215.326 -3.27346 2.58652 0
M  V30 2413 H 213.956 -2.84252 1.52972 0
M  V30 2414 H 213.008 -1.45711 3.51387 0
M  V30 2415 H 214.32 -2.11145 4.51906 0
M  V30 2416 H 213.474 -4.43624 4.13863 0
M  V30 2417 H 212.213 -3.81753 3.03506 0
M  V30 2418 H 211.218 -2.4757 4.90906 0
M  V30 2419 H 212.443 -3.12444 6.02956 0
M  V30 2420 H 210.389 -4.76979 4.50363 0
M  V30 2421 H 210.306 -4.35001 6.18312 0
M  V30 2422 H 211.574 -5.39884 5.62268 0
M  V30 2423 N 215.803 -1.52179 -0.40978 0
M  V30 2424 C 217.049 -1.66453 -1.15851 0
M  V30 2425 C 217.382 -0.392972 -1.90182 0
M  V30 2426 O 216.657 0.608579 -1.84734 0
M  V30 2427 C 216.94 -2.88612 -2.15349 0
M  V30 2428 C 216.793 -4.25815 -1.44918 0
M  V30 2429 C 218.112 -3.06294 -3.16026 0
M  V30 2430 H 215.231 -0.60575 -0.419805 0
M  V30 2431 H 217.873 -1.84732 -0.444314 0
M  V30 2432 H 216.023 -2.73158 -2.76255 0
M  V30 2433 H 217.695 -4.52995 -0.871365 0
M  V30 2434 H 215.938 -4.27247 -0.751159 0
M  V30 2435 H 216.609 -5.07337 -2.17516 0
M  V30 2436 H 219.085 -3.20641 -2.65195 0
M  V30 2437 H 217.961 -3.93283 -3.8291 0
M  V30 2438 H 218.222 -2.19579 -3.83715 0
M  V30 2439 N 217.281 0.66697 -1.42791 0
M  V30 2440 C 218.529 1.42417 -1.43394 0
M  V30 2441 C 218.85 1.94925 -0.0542373 0
M  V30 2442 O 218.12 1.73564 0.908415 0
M  V30 2443 H 216.7 0.528515 -0.527902 0
M  V30 2444 H 219.362 0.787562 -1.78279 0
M  V30 2445 H 218.458 2.27333 -2.13837 0
M  V30 2446 N 218.759 1.29093 0.90403 0
M  V30 2447 C 220.036 1.075 1.63411 0
M  V30 2448 C 220.416 -0.382346 2.07609 0
M  V30 2449 O 219.764 -1.37031 1.82851 0
M  V30 2450 C 219.974 2.05858 2.81822 0
M  V30 2451 C 221.322 2.36539 3.52611 0
M  V30 2452 O 222.346 2.04019 2.91984 0
M  V30 2453 O 221.205 2.92085 4.61897 0
M  V30 2454 H 218.299 0.411547 0.717327 0
M  V30 2455 H 220.845 1.40449 0.952479 0
M  V30 2456 H 219.617 3.04037 2.46327 0
M  V30 2457 H 219.24 1.73613 3.57693 0
M  V30 2458 N 220.237 -1.11381 1.11499 0
M  V30 2459 C 221.167 -2.19509 0.796125 0
M  V30 2460 C 222.148 -1.68458 -0.235796 0
M  V30 2461 O 223.333 -1.93947 -0.0991344 0
M  V30 2462 C 220.463 -3.46475 0.239205 0
M  V30 2463 C 219.417 -4.10744 1.20307 0
M  V30 2464 C 218.743 -5.32293 0.50683 0
M  V30 2465 C 220.043 -4.55597 2.55399 0
M  V30 2466 H 221.737 -2.46439 1.70024 0
M  V30 2467 H 219.283 -1.18446 0.818935 0
M  V30 2468 H 221.236 -4.214 0.00392006 0
M  V30 2469 H 219.96 -3.19006 -0.700206 0
M  V30 2470 H 218.619 -3.37813 1.42399 0
M  V30 2471 H 218.267 -5.01095 -0.437408 0
M  V30 2472 H 217.967 -5.76243 1.1497 0
M  V30 2473 H 219.491 -6.09956 0.280351 0
M  V30 2474 H 220.905 -5.21841 2.37391 0
M  V30 2475 H 219.302 -5.10363 3.15673 0
M  V30 2476 H 220.372 -3.69013 3.14575 0
M  V30 2477 N 221.715 -0.905404 -1.28997 0
M  V30 2478 C 222.963 -0.533192 -1.9494 0
M  V30 2479 C 223.284 0.924618 -1.71685 0
M  V30 2480 O 222.554 1.65268 -1.05183 0
M  V30 2481 H 221.134 -0.194194 -0.721317 0
M  V30 2482 H 223.796 -1.15294 -1.57141 0
M  V30 2483 H 222.892 -0.72059 -3.03667 0
M  V30 2484 N 223.193 1.4272 -0.668489 0
M  V30 2485 C 224.442 2.00846 -0.185389 0
M  V30 2486 C 224.755 1.53442 1.21305 0
M  V30 2487 O 225.961 2.03944 1.79218 0
M  V30 2488 C 224.417 3.58805 -0.280591 0
M  V30 2489 C 224.025 4.15198 -1.68268 0
M  V30 2490 C 225.769 4.24255 0.14412 0
M  V30 2491 C 223.676 5.655 -1.73099 0
M  V30 2492 H 222.606 0.751145 -0.0655475 0
M  V30 2493 H 225.257 1.63516 -0.832752 0
M  V30 2494 H 223.639 3.93608 0.434553 0
M  V30 2495 H 224.813 3.91866 -2.42441 0
M  V30 2496 H 223.128 3.62176 -2.05469 0
M  V30 2497 H 225.725 5.34547 0.128086 0
M  V30 2498 H 226.068 3.99277 1.17827 0
M  V30 2499 H 226.601 3.94389 -0.519798 0
M  V30 2500 H 223.34 5.95268 -2.74475 0
M  V30 2501 H 222.86 5.90842 -1.03274 0
M  V30 2502 H 224.539 6.29808 -1.48158 0
M  V30 2503 N 224.671 0.411399 1.52136 0
M  V30 2504 C 225.634 -0.401089 2.25663 0
M  V30 2505 C 226.634 -0.971732 1.28117 0
M  V30 2506 O 227.824 -0.850254 1.52041 0
M  V30 2507 C 224.956 -1.56483 3.02863 0
M  V30 2508 H 226.149 0.24295 2.98914 0
M  V30 2509 H 223.702 0.163968 1.55438 0
M  V30 2510 H 224.437 -2.24567 2.33967 0
M  V30 2511 H 224.222 -1.16211 3.74483 0
M  V30 2512 H 225.712 -2.13951 3.58629 0
M  V30 2513 N 226.149 -1.5696 0.141893 0
M  V30 2514 C 227.565 -1.58151 -0.21456 0
M  V30 2515 C 227.765 -1.1559 -1.65049 0
M  V30 2516 O 226.821 -0.853832 -2.37626 0
M  V30 2517 C 228.134 -3.00674 0.0395576 0
M  V30 2518 C 229.682 -3.1299 -0.0245529 0
M  V30 2519 C 230.157 -4.57554 0.202167 0
M  V30 2520 N 231.648 -4.62961 0.148919 0
M  V30 2521 C 232.383 -5.7262 0.298924 0
M  V30 2522 N 231.879 -6.90947 0.50637 0
M  V30 2523 N 233.672 -5.61601 0.236886 0
M  V30 2524 H 225.823 -1.8292 1.07953 0
M  V30 2525 H 228.086 -0.846425 0.42693 0
M  V30 2526 H 227.792 -3.36183 1.03315 0
M  V30 2527 H 227.666 -3.70981 -0.682143 0
M  V30 2528 H 230.053 -2.77326 -1.00869 0
M  V30 2529 H 230.134 -2.4518 0.729396 0
M  V30 2530 H 229.778 -4.93922 1.18338 0
M  V30 2531 H 229.708 -5.23484 -0.572044 0
M  V30 2532 H 232.199 -3.77899 -0.00697015 0
M  V30 2533 H 232.512 -7.7038 0.611076 0
M  V30 2534 H 230.857 -6.92878 0.542628 0
M  V30 2535 H 234.048 -4.68039 0.0756209 0
M  V30 2536 H 234.221 -6.47015 0.357227 0
M  V30 2537 N 227.627 0.131896 -1.57047 0
M  V30 2538 C 228.873 0.843179 -1.84441 0
M  V30 2539 C 229.206 1.80129 -0.725749 0
M  V30 2540 O 228.481 1.92624 0.269469 0
M  V30 2541 C 228.764 1.60442 -3.22382 0
M  V30 2542 C 228.617 0.666782 -4.4483 0
M  V30 2543 C 229.936 2.56354 -3.5773 0
M  V30 2544 H 227.055 0.305081 -0.670891 0
M  V30 2545 H 229.697 0.107839 -1.89694 0
M  V30 2546 H 227.847 2.23128 -3.18035 0
M  V30 2547 H 229.519 0.0497646 -4.61273 0
M  V30 2548 H 227.762 -0.022609 -4.33794 0
M  V30 2549 H 228.433 1.23579 -5.37989 0
M  V30 2550 H 230.909 2.0378 -3.62785 0
M  V30 2551 H 229.785 3.06657 -4.5525 0
M  V30 2552 H 230.046 3.38419 -2.84473 0
M  V30 2553 N 229.106 1.52395 0.401703 0
M  V30 2554 C 230.036 1.79231 1.49661 0
M  V30 2555 C 231.017 0.643654 1.57452 0
M  V30 2556 O 232.202 0.889989 1.72606 0
M  V30 2557 C 229.332 1.94971 2.87409 0
M  V30 2558 C 228.286 3.10604 2.94465 0
M  V30 2559 C 227.612 3.11577 4.34538 0
M  V30 2560 C 228.912 4.49921 2.6527 0
M  V30 2561 H 230.606 2.70917 1.27454 0
M  V30 2562 H 228.152 1.30362 0.6117 0
M  V30 2563 H 230.105 2.12328 3.63999 0
M  V30 2564 H 228.829 0.999632 3.10926 0
M  V30 2565 H 227.488 2.93009 2.20321 0
M  V30 2566 H 227.136 2.14277 4.55076 0
M  V30 2567 H 226.836 3.89247 4.40183 0
M  V30 2568 H 228.36 3.31073 5.13053 0
M  V30 2569 H 229.774 4.67683 3.31581 0
M  V30 2570 H 228.171 5.29564 2.82281 0
M  V30 2571 H 229.241 4.57507 1.60671 0
M  V30 2572 N 230.584 -0.659388 1.43143 0
M  V30 2573 C 231.494 -1.80167 1.50256 0
M  V30 2574 C 232.51 -1.69571 0.390106 0
M  V30 2575 O 233.686 -1.90849 0.643319 0
M  V30 2576 C 230.751 -3.16409 1.41725 0
M  V30 2577 C 229.812 -3.38848 2.63591 0
M  V30 2578 C 229.045 -4.68591 2.55458 0
M  V30 2579 O 229.268 -5.47532 1.59891 0
M  V30 2580 O 228.202 -4.92614 3.45854 0
M  V30 2581 H 232.028 -1.77121 2.46702 0
M  V30 2582 H 229.613 -0.817092 1.25076 0
M  V30 2583 H 231.495 -3.9768 1.39387 0
M  V30 2584 H 230.17 -3.20059 0.484118 0
M  V30 2585 H 229.077 -2.57366 2.71502 0
M  V30 2586 H 230.41 -3.4004 3.55856 0
M  V30 2587 N 232.062 -1.29571 -0.897171 0
M  V30 2588 C 233.01 -1.14802 -2.02295 0
M  V30 2589 C 234.004 -0.0629637 -1.69283 0
M  V30 2590 O 235.21 -0.222945 -1.78614 0
M  V30 2591 H 231.585 -0.354692 -0.663097 0
M  V30 2592 H 233.556 -2.10108 -2.11889 0
M  V30 2593 C 232.305 -0.843966 -3.37302 0
M  V30 2594 H 231.628 -1.67093 -3.63208 0
M  V30 2595 H 233.068 -0.780672 -4.16751 0
M  V30 2596 C 231.527 0.452843 -3.33843 0
M  V30 2597 O 232.057 1.47813 -3.73516 0
M  V30 2598 N 230.263 0.459601 -2.86943 0
M  V30 2599 H 229.81 -0.375213 -2.54853 0
M  V30 2600 H 229.768 1.32726 -2.85011 0
M  V30 2601 N 233.54 1.10788 -1.12088 0
M  V30 2602 C 234.49 2.15158 -0.754401 0
M  V30 2603 C 235.474 1.59026 0.244846 0
M  V30 2604 O 236.666 1.76927 0.0509097 0
M  V30 2605 C 233.795 3.42677 -0.206657 0
M  V30 2606 C 232.881 4.05751 -1.23398 0
M  V30 2607 N 233.272 4.43582 -2.43041 0
M  V30 2608 C 231.57 4.32764 -1.07848 0
M  V30 2609 C 232.271 4.93085 -3.08613 0
M  V30 2610 N 231.247 4.89664 -2.36072 0
M  V30 2611 H 235.049 2.42195 -1.6649 0
M  V30 2612 H 232.563 1.27872 -1.00112 0
M  V30 2613 H 234.56 4.16834 0.0740646 0
M  V30 2614 H 233.22 3.17101 0.698342 0
M  V30 2615 H 234.231 4.35395 -2.80449 0
M  V30 2616 H 230.908 4.16863 -0.230483 0
M  V30 2617 H 232.298 5.31933 -4.10483 0
M  V30 2618 N 235.018 0.912232 1.28515 0
M  V30 2619 C 236.258 0.551677 1.96814 0
M  V30 2620 C 236.622 -0.887825 1.7024 0
M  V30 2621 O 237.823 -1.35588 2.32098 0
M  V30 2622 C 236.094 0.850555 3.47132 0
M  V30 2623 S 237.653 0.59619 4.34731 0
M  V30 2624 H 234.471 0.204191 0.681049 0
M  V30 2625 H 237.073 1.17736 1.56072 0
M  V30 2626 H 235.777 1.8962 3.63968 0
M  V30 2627 H 235.308 0.213471 3.9282 0
M  V30 2628 H 237.323 -0.553154 4.93107 0
M  V30 2629 N 236.496 -1.42363 0.676048 0
M  V30 2630 C 237.773 -1.95183 0.127726 0
M  V30 2631 C 238.153 -1.61641 -1.35777 0
M  V30 2632 O 237.501 -0.913216 -2.09458 0
M  V30 2633 C 237.711 -3.46721 0.398199 0
M  V30 2634 C 239.059 -4.23427 0.315383 0
M  V30 2635 O 240.083 -3.54649 0.332016 0
M  V30 2636 O 238.942 -5.45888 0.25865 0
M  V30 2637 H 236.036 -0.826992 0.00359427 0
M  V30 2638 H 238.582 -1.52184 0.750864 0
M  V30 2639 H 237.354 -3.64344 1.4272 0
M  V30 2640 H 236.977 -3.96769 -0.256885 0
M  V30 2641 N 237.974 -0.419461 -1.51915 0
M  V30 2642 C 238.907 0.445751 -2.23804 0
M  V30 2643 C 239.885 1.03951 -1.25031 0
M  V30 2644 O 241.069 1.08541 -1.54114 0
M  V30 2645 C 238.196 1.61964 -2.97465 0
M  V30 2646 C 237.242 1.14828 -4.10751 0
M  V30 2647 S 238.075 0.104938 -5.35397 0
M  V30 2648 C 239.231 1.28391 -6.1259 0
M  V30 2649 H 239.464 -0.164627 -2.96844 0
M  V30 2650 H 236.997 -0.203833 -1.53049 0
M  V30 2651 H 238.955 2.29271 -3.40507 0
M  V30 2652 H 237.616 2.20139 -2.24048 0
M  V30 2653 H 236.809 2.02561 -4.61503 0
M  V30 2654 H 236.411 0.553712 -3.69878 0
M  V30 2655 H 238.703 2.20563 -6.40592 0
M  V30 2656 H 239.646 0.816724 -7.03374 0
M  V30 2657 H 240.054 1.51439 -5.43807 0
M  V30 2658 N 239.452 1.56882 -0.150215 0
M  V30 2659 C 240.415 2.1573 0.774157 0
M  V30 2660 C 241.415 1.0999 1.17298 0
M  V30 2661 O 242.605 1.35613 1.09338 0
M  V30 2662 C 239.737 2.72302 2.05096 0
M  V30 2663 H 240.93 2.98752 0.262201 0
M  V30 2664 H 238.483 1.55985 0.099248 0
M  V30 2665 H 239.218 1.92956 2.6065 0
M  V30 2666 H 239.003 3.49665 1.77416 0
M  V30 2667 H 240.493 3.17632 2.71109 0
M  V30 2668 N 240.93 -0.123565 1.57115 0
M  V30 2669 C 242.155 -0.850398 1.89164 0
M  V30 2670 C 242.58 -1.7286 0.741688 0
M  V30 2671 O 241.938 -1.78665 -0.307958 0
M  V30 2672 C 241.986 -1.66353 3.19936 0
M  V30 2673 O 241.09 -2.77004 3.0552 0
M  V30 2674 H 240.431 -0.235454 0.620852 0
M  V30 2675 H 242.961 -0.107335 2.04318 0
M  V30 2676 H 242.971 -2.05372 3.52543 0
M  V30 2677 H 241.646 -1.01881 4.03228 0
M  V30 2678 H 240.223 -2.41221 2.84371 0
M  V30 2679 N 242.408 -1.52605 -0.393616 0
M  V30 2680 C 243.636 -1.71294 -1.16043 0
M  V30 2681 C 244.051 -0.429259 -1.83855 0
M  V30 2682 O 243.408 0.595921 -1.72496 0
M  V30 2683 C 243.459 -2.8593 -2.21193 0
M  V30 2684 O 243.18 -4.09329 -1.56146 0
M  V30 2685 C 244.681 -3.16259 -3.10636 0
M  V30 2686 H 241.901 -0.573641 -0.348104 0
M  V30 2687 H 244.445 -1.99234 -0.461092 0
M  V30 2688 H 242.6 -2.60465 -2.86769 0
M  V30 2689 H 243.014 -4.73323 -2.25978 0
M  V30 2690 H 244.488 -3.99946 -3.80456 0
M  V30 2691 H 244.965 -2.3045 -3.73884 0
M  V30 2692 H 245.571 -3.43547 -2.50711 0
M  V30 2693 N 243.887 0.651787 -1.4349 0
M  V30 2694 C 244.817 1.77621 -1.51569 0
M  V30 2695 C 245.798 1.66022 -0.370253 0
M  V30 2696 O 246.983 1.85095 -0.587658 0
M  V30 2697 C 244.113 3.16056 -1.43966 0
M  V30 2698 C 243.067 3.4242 -2.56774 0
M  V30 2699 C 242.393 4.8067 -2.34223 0
M  V30 2700 C 243.693 3.37023 -3.99015 0
M  V30 2701 H 245.387 1.71117 -2.45681 0
M  V30 2702 H 242.933 0.821825 -1.18246 0
M  V30 2703 H 244.886 3.94472 -1.48221 0
M  V30 2704 H 243.61 3.23293 -0.463586 0
M  V30 2705 H 242.269 2.66375 -2.51873 0
M  V30 2706 H 241.917 4.84585 -1.34856 0
M  V30 2707 H 241.617 4.9927 -3.09844 0
M  V30 2708 H 243.141 5.61342 -2.40265 0
M  V30 2709 H 244.555 4.05374 -4.05395 0
M  V30 2710 H 242.952 3.67159 -4.74673 0
M  V30 2711 H 244.022 2.3518 -4.2405 0
M  V30 2712 N 245.365 1.30045 0.890287 0
M  V30 2713 C 246.614 1.17929 1.63633 0
M  V30 2714 C 246.927 -0.266204 1.9378 0
M  V30 2715 O 248.133 -0.508804 2.6669 0
M  V30 2716 C 246.589 2.06317 2.94892 0
M  V30 2717 C 246.197 3.55745 2.72305 0
M  V30 2718 C 247.941 2.0295 3.72843 0
M  V30 2719 C 245.848 4.36205 3.99348 0
M  V30 2720 H 244.778 0.437782 0.613892 0
M  V30 2721 H 247.429 1.54754 0.986075 0
M  V30 2722 H 245.811 1.6237 3.61182 0
M  V30 2723 H 246.985 4.07805 2.1455 0
M  V30 2724 H 245.3 3.6088 2.07737 0
M  V30 2725 H 247.897 2.60319 4.67053 0
M  V30 2726 H 248.24 1.0117 4.0382 0
M  V30 2727 H 248.773 2.4499 3.13408 0
M  V30 2728 H 245.512 5.38659 3.73533 0
M  V30 2729 H 245.032 3.8891 4.56628 0
M  V30 2730 H 246.711 4.47362 4.67415 0
M  V30 2731 N 246.843 -1.10192 1.12674 0
M  V30 2732 C 248.091 -1.81845 0.881861 0
M  V30 2733 C 248.412 -1.85737 -0.593867 0
M  V30 2734 O 247.682 -1.33724 -1.4316 0
M  V30 2735 H 246.262 -0.673432 0.323261 0
M  V30 2736 H 248.924 -1.33316 1.42172 0
M  V30 2737 H 248.02 -2.85288 1.2656 0
M  V30 2738 N 248.321 -0.919034 -1.28029 0
M  V30 2739 C 249.549 -0.570971 -1.98866 0
M  V30 2740 C 249.964 0.848996 -1.68634 0
M  V30 2741 O 249.321 1.56307 -0.942036 0
M  V30 2742 C 249.372 -0.776876 -3.53054 0
M  V30 2743 O 249.093 -2.14097 -3.82222 0
M  V30 2744 C 250.594 -0.436356 -4.41147 0
M  V30 2745 H 247.814 -0.217175 -0.634883 0
M  V30 2746 H 250.358 -1.23368 -1.63097 0
M  V30 2747 H 248.513 -0.161085 -3.87065 0
M  V30 2748 H 248.927 -2.18455 -4.76841 0
M  V30 2749 H 250.401 -0.63117 -5.4838 0
M  V30 2750 H 250.878 0.627686 -4.34692 0
M  V30 2751 H 251.484 -1.02991 -4.12641 0
M  V30 2752 N 249.799 1.42003 -0.683588 0
M  V30 2753 C 251.21 1.84501 -0.285736 0
M  V30 2754 C 251.561 1.57213 1.17382 0
M  V30 2755 O 250.686 1.03642 1.89966 0
M  V30 2756 C 251.281 3.34912 -0.511821 0
M  V30 2757 C 249.84 3.76025 -0.168005 0
M  V30 2758 C 248.987 2.6551 -0.799983 0
M  V30 2759 H 251.938 1.31724 -0.885119 0
M  V30 2760 H 251.959 3.79784 0.233292 0
M  V30 2761 H 251.471 3.54741 -1.57418 0
M  V30 2762 H 249.572 3.61801 0.890567 0
M  V30 2763 H 249.685 4.75141 -0.614661 0
M  V30 2764 H 248.049 2.53654 -0.230568 0
M  V30 2765 H 248.832 2.8816 -1.86597 0
M  V30 2766 N 251.277 0.427512 1.51691 0
M  V30 2767 C 252.507 -0.140986 2.06118 0
M  V30 2768 C 252.915 -1.37854 1.29588 0
M  V30 2769 O 252.258 -1.80411 0.346036 0
M  V30 2770 C 252.32 -0.538276 3.55447 0
M  V30 2771 C 251.984 0.591095 4.53161 0
M  V30 2772 C 252.981 1.46027 4.98971 0
M  V30 2773 C 250.666 0.769028 4.96378 0
M  V30 2774 C 252.66 2.49216 5.8666 0
M  V30 2775 C 250.347 1.80421 5.83859 0
M  V30 2776 C 251.345 2.66417 6.28897 0
M  V30 2777 O 251.033 3.68159 7.14643 0
M  V30 2778 H 250.765 -0.0157455 0.675817 0
M  V30 2779 H 253.319 0.602495 1.96365 0
M  V30 2780 H 251.549 -1.33432 3.6295 0
M  V30 2781 H 253.238 -1.0368 3.92435 0
M  V30 2782 H 254.004 1.33429 4.66285 0
M  V30 2783 H 249.883 0.109273 4.6087 0
M  V30 2784 H 253.427 3.16372 6.21735 0
M  V30 2785 H 249.324 1.93042 6.15959 0
M  V30 2786 H 250.092 3.64622 7.32798 0
M  V30 2787 N 252.755 -1.56801 0.158532 0
M  V30 2788 C 253.985 -2.00568 -0.495583 0
M  V30 2789 C 254.393 -1.03774 -1.58201 0
M  V30 2790 O 253.736 -0.0285797 -1.83678 0
M  V30 2791 C 253.798 -3.40768 -1.14532 0
M  V30 2792 C 253.462 -4.56553 -0.202101 0
M  V30 2793 C 254.459 -5.16714 0.574675 0
M  V30 2794 C 252.144 -5.02197 -0.101648 0
M  V30 2795 C 254.138 -6.20939 1.43924 0
M  V30 2796 C 251.825 -6.06274 0.766508 0
M  V30 2797 C 252.823 -6.65515 1.53555 0
M  V30 2798 O 252.511 -7.67575 2.38922 0
M  V30 2799 H 252.243 -0.662893 -0.13247 0
M  V30 2800 H 254.797 -2.03829 0.253559 0
M  V30 2801 H 253.027 -3.34381 -1.94233 0
M  V30 2802 H 254.716 -3.6857 -1.70033 0
M  V30 2803 H 255.482 -4.82341 0.507167 0
M  V30 2804 H 251.361 -4.55807 -0.689994 0
M  V30 2805 H 254.905 -6.67107 2.03996 0
M  V30 2806 H 250.802 -6.40073 0.835266 0
M  V30 2807 H 251.57 -7.84844 2.32296 0
M  V30 2808 N 254.233 0.115231 -1.57178 0
M  V30 2809 C 255.166 1.17166 -1.95825 0
M  V30 2810 C 256.144 1.39912 -0.828463 0
M  V30 2811 O 257.328 1.54004 -1.08697 0
M  V30 2812 C 254.455 2.52478 -2.25771 0
M  V30 2813 C 253.501 2.46136 -3.48309 0
M  V30 2814 S 254.334 1.89736 -5.0076 0
M  V30 2815 C 255.49 3.26713 -5.33863 0
M  V30 2816 H 255.723 0.842103 -2.85124 0
M  V30 2817 H 253.256 0.322136 -1.51002 0
M  V30 2818 H 255.214 3.30332 -2.43702 0
M  V30 2819 H 253.875 2.82609 -1.37079 0
M  V30 2820 H 253.068 3.45819 -3.66641 0
M  V30 2821 H 252.67 1.76404 -3.29784 0
M  V30 2822 H 254.962 4.22935 -5.29275 0
M  V30 2823 H 255.905 3.13205 -6.35065 0
M  V30 2824 H 256.313 3.25316 -4.61335 0
M  V30 2825 N 255.711 1.52812 0.385517 0
M  V30 2826 C 256.936 1.72207 1.15583 0
M  V30 2827 C 257.361 0.441034 1.82857 0
M  V30 2828 O 256.719 -0.603465 1.70962 0
M  V30 2829 C 256.767 2.87476 2.17692 0
M  V30 2830 O 255.871 2.54693 3.24354 0
M  V30 2831 H 255.212 0.572526 0.336319 0
M  V30 2832 H 257.742 1.99618 0.448744 0
M  V30 2833 H 257.752 3.13072 2.6163 0
M  V30 2834 H 256.427 3.80408 1.68115 0
M  V30 2835 H 255.004 2.3985 2.85529 0
M  V30 2836 N 257.189 -0.644168 1.43834 0
M  V30 2837 C 258.6 -1.22554 1.40845 0
M  V30 2838 C 258.951 -1.9585 0.117115 0
M  V30 2839 O 258.076 -2.01734 -0.783086 0
M  V30 2840 C 258.671 -2.22907 2.55143 0
M  V30 2841 C 257.23 -2.76501 2.5539 0
M  V30 2842 C 256.377 -1.51287 2.32396 0
M  V30 2843 H 259.328 -0.43563 1.52604 0
M  V30 2844 H 259.349 -3.05259 2.2715 0
M  V30 2845 H 258.861 -1.69533 3.49114 0
M  V30 2846 H 256.962 -3.33914 1.65324 0
M  V30 2847 H 257.075 -3.23429 3.53455 0
M  V30 2848 H 255.439 -1.78957 1.81236 0
M  V30 2849 H 256.222 -0.998336 3.28463 0
M  V30 2850 N 258.668 -1.30515 -0.883378 0
M  V30 2851 C 259.578 -1.18959 -2.02203 0
M  V30 2852 C 260.594 -0.109172 -1.73657 0
M  V30 2853 O 261.77 -0.324413 -1.9877 0
M  V30 2854 C 258.835 -0.883871 -3.35244 0
M  V30 2855 C 257.896 -2.04982 -3.77201 0
M  V30 2856 C 257.129 -1.75859 -5.03894 0
M  V30 2857 O 257.352 -0.687276 -5.66244 0
M  V30 2858 O 256.286 -2.61146 -5.42297 0
M  V30 2859 H 260.112 -2.14616 -2.1488 0
M  V30 2860 H 257.697 -1.10124 -1.0096 0
M  V30 2861 H 259.579 -0.728644 -4.15053 0
M  V30 2862 H 258.254 0.0427798 -3.23672 0
M  V30 2863 H 257.161 -2.26038 -2.9809 0
M  V30 2864 H 258.494 -2.95825 -3.93381 0
M  V30 2865 N 260.146 1.09593 -1.13257 0
M  V30 2866 C 261.076 2.18214 -0.830946 0
M  V30 2867 C 262.057 1.68812 0.208966 0
M  V30 2868 O 263.242 1.9408 0.0682666 0
M  V30 2869 C 260.372 3.46051 -0.294296 0
M  V30 2870 C 259.326 4.08778 -1.26826 0
M  V30 2871 C 258.652 5.31419 -0.591449 0
M  V30 2872 C 259.952 4.51476 -2.62615 0
M  V30 2873 H 261.646 2.43703 -1.73923 0
M  V30 2874 H 259.192 1.17128 -0.837675 0
M  V30 2875 H 261.145 4.2134 -0.0709606 0
M  V30 2876 H 259.869 3.20079 0.649366 0
M  V30 2877 H 258.528 3.35505 -1.47756 0
M  V30 2878 H 258.176 5.01727 0.357633 0
M  V30 2879 H 257.876 5.74341 -1.24123 0
M  V30 2880 H 259.4 6.09433 -0.377355 0
M  V30 2881 H 260.814 5.17999 -2.45663 0
M  V30 2882 H 259.211 5.05277 -3.23752 0
M  V30 2883 H 260.281 3.63962 -3.20406 0
M  V30 2884 N 261.624 0.925811 1.2754 0
M  V30 2885 C 262.871 0.565255 1.94451 0
M  V30 2886 C 263.199 -0.89316 1.7278 0
M  V30 2887 O 262.454 -1.65213 1.04895 0
M  V30 2888 C 262.753 0.835296 3.47502 0
M  V30 2889 C 262.419 2.27515 3.89291 0
M  V30 2890 C 261.081 2.66879 4.00411 0
M  V30 2891 C 263.433 3.21158 4.10496 0
M  V30 2892 C 260.761 3.99014 4.30122 0
M  V30 2893 C 263.113 4.52871 4.4169 0
M  V30 2894 C 261.777 4.92072 4.51023 0
M  V30 2895 H 261.047 0.206841 0.711546 0
M  V30 2896 H 263.694 1.16942 1.51647 0
M  V30 2897 H 261.999 0.148442 3.91519 0
M  V30 2898 H 263.696 0.535322 3.97411 0
M  V30 2899 H 260.286 1.95976 3.81171 0
M  V30 2900 H 264.47 2.9195 4.01346 0
M  V30 2901 H 259.726 4.2907 4.35556 0
M  V30 2902 H 263.9 5.25436 4.57045 0
M  V30 2903 H 261.527 5.9449 4.738 0
M  V30 2904 N 263.102 -1.41638 0.69111 0
M  V30 2905 C 264.327 -2.06148 0.227583 0
M  V30 2906 C 264.752 -1.51652 -1.11281 0
M  V30 2907 O 264.11 -0.64164 -1.69566 0
M  V30 2908 C 264.158 -3.60095 0.190858 0
M  V30 2909 O 263.262 -4.03845 -0.835664 0
M  V30 2910 H 262.603 -0.654434 0.112306 0
M  V30 2911 H 265.133 -1.81484 0.944714 0
M  V30 2912 H 265.143 -4.07995 0.020207 0
M  V30 2913 H 263.818 -3.99129 1.16915 0
M  V30 2914 H 262.395 -3.67458 -0.63473 0
M  V30 2915 N 264.58 -0.43555 -1.51462 0
M  V30 2916 C 265.528 0.391205 -2.29287 0
M  V30 2917 C 266.522 1.02247 -1.35062 0
M  V30 2918 O 267.728 0.957646 -1.52411 0
M  V30 2919 H 264.103 0.144968 -0.737895 0
M  V30 2920 H 266.074 -0.286051 -2.97026 0
M  V30 2921 C 264.823 1.48096 -3.14583 0
M  V30 2922 H 264.146 1.00457 -3.86973 0
M  V30 2923 H 265.586 2.03273 -3.72097 0
M  V30 2924 C 264.045 2.46321 -2.29843 0
M  V30 2925 O 264.575 3.50815 -1.95682 0
M  V30 2926 N 262.781 2.17166 -1.931 0
M  V30 2927 H 262.328 1.32218 -2.21079 0
M  V30 2928 H 262.286 2.83127 -1.36698 0
M  V30 2929 N 266.058 1.56714 -0.166846 0
M  V30 2930 C 267.005 2.17746 0.765193 0
M  V30 2931 C 267.975 1.11614 1.23011 0
M  V30 2932 O 269.16 1.39745 1.29908 0
M  V30 2933 C 266.3 2.81882 1.9909 0
M  V30 2934 C 265.413 4.02462 1.56997 0
M  V30 2935 C 264.548 4.54537 2.749 0
M  V30 2936 C 263.587 5.67538 2.29275 0
M  V30 2937 N 262.724 6.14142 3.40255 0
M  V30 2938 H 267.564 2.97048 0.237952 0
M  V30 2939 H 265.101 1.4672 0.105725 0
M  V30 2940 H 267.059 3.17221 2.70974 0
M  V30 2941 H 265.689 2.05191 2.49192 0
M  V30 2942 H 264.741 3.72973 0.748037 0
M  V30 2943 H 266.053 4.84273 1.19503 0
M  V30 2944 H 265.207 4.92035 3.54946 0
M  V30 2945 H 263.946 3.71774 3.1565 0
M  V30 2946 H 262.951 5.29597 1.47674 0
M  V30 2947 H 264.176 6.52099 1.89588 0
M  V30 2948 H 262.122 5.3431 3.8059 0
M  V30 2949 H 262.039 6.9093 3.06841 0
M  V30 2950 H 263.307 6.56289 4.206 0
M  V30 2951 N 267.536 -0.106894 1.57237 0
M  V30 2952 C 268.947 -0.662723 1.74542 0
M  V30 2953 C 269.298 -1.7971 0.787319 0
M  V30 2954 O 268.423 -2.16368 -0.0369636 0
M  V30 2955 C 269.018 -1.20896 3.16496 0
M  V30 2956 C 267.577 -1.71096 3.35266 0
M  V30 2957 C 266.724 -0.615642 2.7038 0
M  V30 2958 H 269.675 0.119106 1.58252 0
M  V30 2959 H 269.696 -2.07847 3.18716 0
M  V30 2960 H 269.208 -0.383122 3.86204 0
M  V30 2961 H 267.309 -2.56119 2.70618 0
M  V30 2962 H 267.422 -1.81208 4.43509 0
M  V30 2963 H 265.786 -1.05222 2.31949 0
M  V30 2964 H 266.569 0.199419 3.4272 0
M  V30 2965 N 269.014 -1.53014 -0.377408 0
M  V30 2966 C 270.244 -1.72265 -1.14054 0
M  V30 2967 C 270.652 -0.44601 -1.83868 0
M  V30 2968 O 269.995 0.590095 -1.73964 0
M  V30 2969 C 270.057 -2.82492 -2.22348 0
M  V30 2970 C 269.721 -4.23233 -1.72402 0
M  V30 2971 C 270.718 -5.05992 -1.19448 0
M  V30 2972 C 268.403 -4.696 -1.78273 0
M  V30 2973 C 270.397 -6.33203 -0.730268 0
M  V30 2974 C 268.084 -5.96792 -1.31464 0
M  V30 2975 C 269.082 -6.78424 -0.789297 0
M  V30 2976 O 268.77 -8.0323 -0.328077 0
M  V30 2977 H 268.502 -0.579873 -0.347453 0
M  V30 2978 H 271.056 -2.00502 -0.445882 0
M  V30 2979 H 269.286 -2.49702 -2.95272 0
M  V30 2980 H 270.975 -2.90034 -2.83963 0
M  V30 2981 H 271.741 -4.71349 -1.14259 0
M  V30 2982 H 267.62 -4.06142 -2.18106 0
M  V30 2983 H 271.164 -6.96868 -0.319542 0
M  V30 2984 H 267.061 -6.30937 -1.36342 0
M  V30 2985 H 267.829 -8.1727 -0.448493 0
M  V30 2986 N 270.492 0.636531 -1.44174 0
M  V30 2987 C 271.44 1.76995 -1.50915 0
M  V30 2988 C 272.434 1.65053 -0.381295 0
M  V30 2989 O 273.64 1.71197 -0.55601 0
M  V30 2990 H 270.015 0.584247 -0.473455 0
M  V30 2991 H 271.986 1.68432 -2.4632 0
M  V30 2992 C 270.735 3.15314 -1.46534 0
M  V30 2993 H 270.058 3.25149 -2.32633 0
M  V30 2994 H 271.498 3.9453 -1.55312 0
M  V30 2995 C 269.957 3.3639 -0.185305 0
M  V30 2996 O 270.487 3.94699 0.746688 0
M  V30 2997 N 268.693 2.9046 -0.0901606 0
M  V30 2998 H 268.24 2.43193 -0.849416 0
M  V30 2999 H 268.198 3.04937 0.765553 0
M  V30 3000 N 271.97 1.30982 0.876444 0
M  V30 3001 C 273.2 1.23063 1.65949 0
M  V30 3002 C 273.608 -0.207537 1.88058 0
M  V30 3003 O 272.951 -1.14781 1.43426 0
M  V30 3004 C 273.013 1.89768 3.05333 0
M  V30 3005 C 272.677 3.39106 3.0636 0
M  V30 3006 C 273.674 4.3496 2.84791 0
M  V30 3007 C 271.359 3.80693 3.27686 0
M  V30 3008 C 273.353 5.70375 2.84519 0
M  V30 3009 C 271.04 5.16223 3.27043 0
M  V30 3010 C 272.038 6.10875 3.05485 0
M  V30 3011 O 271.726 7.43928 3.04674 0
M  V30 3012 H 271.458 0.426685 0.524324 0
M  V30 3013 H 274.012 1.7329 1.10271 0
M  V30 3014 H 272.242 1.34082 3.6271 0
M  V30 3015 H 273.931 1.75853 3.65829 0
M  V30 3016 H 274.697 4.0416 2.68103 0
M  V30 3017 H 270.576 3.07457 3.43499 0
M  V30 3018 H 274.12 6.44228 2.67611 0
M  V30 3019 H 270.017 5.4666 3.43269 0
M  V30 3020 H 270.785 7.53022 3.2078 0
M  V30 3021 N 273.449 -1.08991 1.13837 0
M  V30 3022 C 274.396 -2.15748 0.819835 0
M  V30 3023 C 275.366 -1.64636 -0.220026 0
M  V30 3024 O 276.551 -1.90582 -0.0912757 0
M  V30 3025 C 273.691 -3.4382 0.296913 0
M  V30 3026 C 272.804 -4.0881 1.39636 0
M  V30 3027 C 271.939 -5.24655 0.831314 0
M  V30 3028 C 270.978 -5.81575 1.90886 0
M  V30 3029 N 270.115 -6.88774 1.36142 0
M  V30 3030 H 274.955 -2.42338 1.73426 0
M  V30 3031 H 272.492 -1.18935 0.865613 0
M  V30 3032 H 274.45 -4.17193 -0.0244339 0
M  V30 3033 H 273.08 -3.17535 -0.580628 0
M  V30 3034 H 272.132 -3.33258 1.83422 0
M  V30 3035 H 273.444 -4.47141 2.21058 0
M  V30 3036 H 272.598 -6.04942 0.461515 0
M  V30 3037 H 271.337 -4.87698 -0.013932 0
M  V30 3038 H 270.342 -4.99946 2.28767 0
M  V30 3039 H 271.567 -6.20592 2.75758 0
M  V30 3040 H 269.513 -6.53788 0.538254 0
M  V30 3041 H 269.43 -7.25898 2.11208 0
M  V30 3042 H 270.698 -7.72806 1.01933 0
M  V30 3043 N 274.927 -0.932562 -1.27047 0
M  V30 3044 C 276.152 -0.591474 -1.98787 0
M  V30 3045 C 276.577 0.824601 -1.69062 0
M  V30 3046 O 275.935 1.5541 -0.933677 0
M  V30 3047 C 275.983 -0.829808 -3.50922 0
M  V30 3048 O 275.087 0.102266 -4.12273 0
M  V30 3049 H 274.428 -0.227185 -0.623926 0
M  V30 3050 H 276.958 -1.25314 -1.61733 0
M  V30 3051 H 276.968 -0.747292 -4.01098 0
M  V30 3052 H 275.643 -1.86201 -3.7189 0
M  V30 3053 H 274.22 -0.0305761 -3.72887 0
M  V30 3054 N 276.405 1.4127 -0.698611 0
M  V30 3055 C 277.682 1.94955 -0.158762 0
M  V30 3056 C 278.062 1.63781 1.33188 0
M  V30 3057 O 277.41 0.946423 2.07979 0
M  V30 3058 C 277.62 3.46044 -0.453309 0
M  V30 3059 C 278.968 4.22872 -0.382707 0
M  V30 3060 O 279.992 3.54076 -0.388396 0
M  V30 3061 O 278.851 5.45407 -0.345463 0
M  V30 3062 H 275.945 0.82683 -0.0167505 0
M  V30 3063 H 278.491 1.50971 -0.77498 0
M  V30 3064 H 277.263 3.62028 -1.48498 0
M  V30 3065 H 276.886 3.97128 0.19373 0
M  V30 3066 N 277.883 0.443576 1.51229 0
M  V30 3067 C 279.129 -0.120975 2.02439 0
M  V30 3068 C 279.462 -1.41815 1.32674 0
M  V30 3069 O 278.737 -1.89373 0.443622 0
M  V30 3070 C 279.02 -0.333291 3.58554 0
M  V30 3071 C 278.873 0.982968 4.38928 0
M  V30 3072 C 280.192 -1.10028 4.26124 0
M  V30 3073 H 277.311 -0.0424923 0.735774 0
M  V30 3074 H 279.953 0.583794 1.80809 0
M  V30 3075 H 278.103 -0.933614 3.77115 0
M  V30 3076 H 279.775 1.61775 4.32003 0
M  V30 3077 H 278.018 1.58611 4.03763 0
M  V30 3078 H 278.689 0.788379 5.46341 0
M  V30 3079 H 281.165 -0.591711 4.11871 0
M  V30 3080 H 280.041 -1.21761 5.35225 0
M  V30 3081 H 280.302 -2.12996 3.87408 0
M  V30 3082 N 279.361 -1.56624 0.175154 0
M  V30 3083 C 280.607 -1.98061 -0.462976 0
M  V30 3084 C 280.962 -1.05949 -1.60601 0
M  V30 3085 O 280.255 -0.0999027 -1.91339 0
M  V30 3086 C 280.449 -3.43419 -0.989864 0
M  V30 3087 C 280.278 -4.49587 0.100583 0
M  V30 3088 C 279.048 -5.02281 0.551539 0
M  V30 3089 C 281.246 -5.06322 0.902369 0
M  V30 3090 N 279.228 -5.92088 1.62189 0
M  V30 3091 C 280.599 -5.92607 1.82256 0
M  V30 3092 C 282.654 -4.88811 0.947019 0
M  V30 3093 C 281.357 -6.63254 2.78364 0
M  V30 3094 C 283.383 -5.60182 1.89606 0
M  V30 3095 C 282.745 -6.46197 2.80372 0
M  V30 3096 H 278.844 -0.769833 -0.137409 0
M  V30 3097 H 281.428 -1.9273 0.276256 0
M  V30 3098 H 279.599 -3.49288 -1.6986 0
M  V30 3099 H 281.331 -3.7186 -1.59694 0
M  V30 3100 H 278.086 -4.73367 0.148537 0
M  V30 3101 H 278.51 -6.41696 2.15767 0
M  V30 3102 H 283.152 -4.22004 0.259304 0
M  V30 3103 H 280.87 -7.29271 3.48122 0
M  V30 3104 H 284.456 -5.48617 1.93676 0
M  V30 3105 H 283.336 -7.00453 3.52612 0
M  V30 3106 N 280.839 0.0985539 -1.57292 0
M  V30 3107 C 281.802 1.10402 -2.00858 0
M  V30 3108 C 282.802 1.33146 -0.901593 0
M  V30 3109 O 283.992 1.29318 -1.16716 0
M  V30 3110 C 281.124 2.45394 -2.36632 0
M  V30 3111 H 282.317 0.729099 -2.90902 0
M  V30 3112 H 279.87 0.343495 -1.52479 0
M  V30 3113 H 280.605 2.87769 -1.49531 0
M  V30 3114 H 280.39 2.30235 -3.17387 0
M  V30 3115 H 281.88 3.17718 -2.71007 0
M  V30 3116 N 282.317 1.53212 0.369288 0
M  V30 3117 C 283.247 1.82365 1.45826 0
M  V30 3118 C 284.228 0.676907 1.56051 0
M  V30 3119 O 285.413 0.926401 1.70679 0
M  V30 3120 C 282.543 2.01023 2.83208 0
M  V30 3121 C 281.497 3.1678 2.8781 0
M  V30 3122 C 280.823 3.20724 4.27832 0
M  V30 3123 C 282.123 4.55447 2.55667 0
M  V30 3124 H 283.817 2.73559 1.21678 0
M  V30 3125 H 281.363 1.3163 0.583911 0
M  V30 3126 H 283.316 2.20001 3.59413 0
M  V30 3127 H 282.04 1.06536 3.08736 0
M  V30 3128 H 280.699 2.97616 2.14056 0
M  V30 3129 H 280.347 2.23882 4.50429 0
M  V30 3130 H 280.047 3.98496 4.31827 0
M  V30 3131 H 281.571 3.41881 5.05915 0
M  V30 3132 H 282.985 4.74611 3.21586 0
M  V30 3133 H 281.382 5.35432 2.70984 0
M  V30 3134 H 282.452 4.60812 1.5093 0
M  V30 3135 N 283.795 -0.628877 1.44509 0
M  V30 3136 C 285.043 -1.38565 1.4712 0
M  V30 3137 C 285.364 -1.94712 0.105899 0
M  V30 3138 O 284.634 -1.75912 -0.862079 0
M  V30 3139 H 283.214 -0.514333 0.541729 0
M  V30 3140 H 285.876 -0.740018 1.80305 0
M  V30 3141 H 284.972 -2.21583 2.19789 0
M  V30 3142 N 285.273 -1.31445 -0.869486 0
M  V30 3143 C 286.513 -1.22458 -1.63656 0
M  V30 3144 C 286.877 0.213846 -1.90805 0
M  V30 3145 O 288.078 0.427212 -2.65383 0
M  V30 3146 C 286.349 -2.04564 -2.93067 0
M  V30 3147 S 287.908 -2.12445 -3.83944 0
M  V30 3148 H 284.726 -0.436145 -0.561514 0
M  V30 3149 H 287.328 -1.66114 -1.03085 0
M  V30 3150 H 286.032 -3.0816 -2.71045 0
M  V30 3151 H 285.563 -1.6163 -3.58663 0
M  V30 3152 H 287.578 -1.26312 -4.79854 0
M  V30 3153 N 286.751 1.08385 -1.14413 0
M  V30 3154 C 287.991 1.8238 -0.922868 0
M  V30 3155 C 288.355 1.84225 0.540842 0
M  V30 3156 O 289.556 2.53985 0.880058 0
M  V30 3157 C 287.827 3.24048 -1.50757 0
M  V30 3158 S 289.386 4.14917 -1.4279 0
M  V30 3159 H 286.204 0.628524 -0.332384 0
M  V30 3160 H 288.806 1.30278 -1.45766 0
M  V30 3161 H 287.51 3.20288 -2.56601 0
M  V30 3162 H 287.041 3.81224 -0.971178 0
M  V30 3163 H 289.056 4.94473 -0.413582 0
M  V30 3164 N 288.23 0.939286 1.26551 0
M  V30 3165 C 289.476 0.586715 1.94128 0
M  V30 3166 C 289.809 -0.8717 1.73537 0
M  V30 3167 O 289.084 -1.62339 1.07127 0
M  V30 3168 C 289.367 0.927497 3.4795 0
M  V30 3169 C 289.22 2.44052 3.77834 0
M  V30 3170 C 290.539 0.441569 4.37879 0
M  V30 3171 H 287.658 0.21463 0.705055 0
M  V30 3172 H 290.3 1.17316 1.49455 0
M  V30 3173 H 288.45 0.428431 3.8613 0
M  V30 3174 H 290.122 3.01216 3.4938 0
M  V30 3175 H 288.365 2.8848 3.23978 0
M  V30 3176 H 289.036 2.62947 4.85348 0
M  V30 3177 H 291.512 0.869448 4.06915 0
M  V30 3178 H 290.388 0.708856 5.44304 0
M  V30 3179 H 290.649 -0.658467 4.37169 0
M  V30 3180 N 289.708 -1.40897 0.706093 0
M  V30 3181 C 290.938 -2.05075 0.250523 0
M  V30 3182 C 291.346 -1.53275 -1.10921 0
M  V30 3183 O 290.689 -0.680281 -1.7064 0
M  V30 3184 C 290.751 -3.59219 0.142178 0
M  V30 3185 C 290.415 -4.33864 1.43566 0
M  V30 3186 C 291.412 -4.62448 2.37566 0
M  V30 3187 C 289.097 -4.72946 1.69195 0
M  V30 3188 C 291.091 -5.29088 3.5545 0
M  V30 3189 C 288.778 -5.3932 2.87362 0
M  V30 3190 C 289.776 -5.6732 3.80312 0
M  V30 3191 O 289.464 -6.32325 4.96408 0
M  V30 3192 H 289.196 -0.666645 0.112074 0
M  V30 3193 H 291.75 -1.81467 0.962239 0
M  V30 3194 H 289.98 -3.81609 -0.6254 0
M  V30 3195 H 291.669 -4.0495 -0.277584 0
M  V30 3196 H 292.435 -4.32727 2.19027 0
M  V30 3197 H 288.314 -4.50527 0.977042 0
M  V30 3198 H 291.858 -5.50859 4.28018 0
M  V30 3199 H 287.755 -5.68461 3.05814 0
M  V30 3200 H 288.523 -6.50821 4.9636 0
M  V30 3201 N 291.186 -0.45159 -1.50991 0
M  V30 3202 C 292.096 0.358431 -2.31846 0
M  V30 3203 C 293.112 1.01438 -1.41373 0
M  V30 3204 O 294.288 1.00663 -1.74439 0
M  V30 3205 C 291.353 1.43704 -3.15515 0
M  V30 3206 C 290.414 0.799742 -4.21785 0
M  V30 3207 C 289.647 1.82696 -5.01456 0
M  V30 3208 O 289.87 3.05105 -4.81941 0
M  V30 3209 O 288.804 1.40958 -5.85162 0
M  V30 3210 H 292.63 -0.302032 -3.02194 0
M  V30 3211 H 290.215 -0.213825 -1.47862 0
M  V30 3212 H 292.097 2.06227 -3.67489 0
M  V30 3213 H 290.772 2.08133 -2.47916 0
M  V30 3214 H 289.679 0.136084 -3.73852 0
M  V30 3215 H 291.012 0.198718 -4.91799 0
M  V30 3216 N 292.664 1.56529 -0.183458 0
M  V30 3217 C 293.597 2.14417 0.781052 0
M  V30 3218 C 294.575 1.07761 1.21763 0
M  V30 3219 O 295.759 1.35807 1.30724 0
M  V30 3220 C 292.886 2.69361 2.05335 0
M  V30 3221 C 291.932 3.885 1.75982 0
M  V30 3222 S 292.765 5.27568 0.918256 0
M  V30 3223 C 293.921 5.85926 2.20095 0
M  V30 3224 H 294.154 2.95893 0.2889 0
M  V30 3225 H 291.687 1.54368 0.0313844 0
M  V30 3226 H 293.645 3.01662 2.78406 0
M  V30 3227 H 292.306 1.87949 2.51663 0
M  V30 3228 H 291.499 4.25314 2.70415 0
M  V30 3229 H 291.101 3.57149 1.10999 0
M  V30 3230 H 293.393 5.99579 3.15453 0
M  V30 3231 H 294.336 6.82761 1.87731 0
M  V30 3232 H 294.744 5.14438 2.32409 0
M  V30 3233 N 294.142 -0.090211 1.57342 0
M  V30 3234 C 295.105 -1.09335 2.01441 0
M  V30 3235 C 296.105 -1.32666 0.908641 0
M  V30 3236 O 297.295 -1.28697 1.174 0
M  V30 3237 C 294.427 -2.44136 2.3793 0
M  V30 3238 H 295.62 -0.713662 2.91285 0
M  V30 3239 H 293.173 -0.335404 1.52659 0
M  V30 3240 H 293.908 -2.86972 1.51055 0
M  V30 3241 H 293.693 -2.28548 3.18603 0
M  V30 3242 H 295.183 -3.16277 2.72688 0
M  V30 3243 N 295.62 -1.53406 -0.361157 0
M  V30 3244 C 296.848 -1.73717 -1.12383 0
M  V30 3245 C 297.263 -0.468161 -1.82904 0
M  V30 3246 O 296.62 0.559198 -1.73722 0
M  V30 3247 C 296.671 -2.90558 -2.15078 0
M  V30 3248 O 296.392 -4.12549 -1.47428 0
M  V30 3249 C 297.893 -3.22777 -3.03858 0
M  V30 3250 H 295.113 -0.580896 -0.335858 0
M  V30 3251 H 297.657 -2.00167 -0.418728 0
M  V30 3252 H 295.812 -2.66489 -2.8118 0
M  V30 3253 H 296.226 -4.78009 -2.15887 0
M  V30 3254 H 297.7 -4.07927 -3.71887 0
M  V30 3255 H 298.177 -2.38329 -3.68912 0
M  V30 3256 H 298.783 -3.48787 -2.43367 0
M  V30 3257 N 297.098 0.621204 -1.44841 0
M  V30 3258 C 298.028 1.74366 -1.55303 0
M  V30 3259 C 299.009 1.65199 -0.405385 0
M  V30 3260 O 300.194 1.83807 -0.626787 0
M  V30 3261 C 297.324 3.12931 -1.50637 0
M  V30 3262 C 296.278 3.36896 -2.63979 0
M  V30 3263 C 295.604 4.75594 -2.44366 0
M  V30 3264 C 296.904 3.28483 -4.06074 0
M  V30 3265 H 298.598 1.65867 -2.49256 0
M  V30 3266 H 296.144 0.796558 -1.19962 0
M  V30 3267 H 298.097 3.9124 -1.56555 0
M  V30 3268 H 296.821 3.22237 -0.532057 0
M  V30 3269 H 295.48 2.60972 -2.57467 0
M  V30 3270 H 295.128 4.81616 -1.45105 0
M  V30 3271 H 294.828 4.92586 -3.20364 0
M  V30 3272 H 296.352 5.5612 -2.52117 0
M  V30 3273 H 297.766 3.96684 -4.13902 0
M  V30 3274 H 296.163 3.57008 -4.82354 0
M  V30 3275 H 297.233 2.26133 -4.28943 0
M  V30 3276 N 298.576 1.31904 0.862503 0
M  V30 3277 C 299.523 1.20182 1.9704 0
M  V30 3278 C 300.493 0.0858247 1.65878 0
M  V30 3279 O 301.678 0.26 1.8902 0
M  V30 3280 C 298.818 0.922797 3.32533 0
M  V30 3281 C 297.931 2.12284 3.76244 0
M  V30 3282 C 297.066 1.77996 5.00491 0
M  V30 3283 C 296.105 2.94366 5.36671 0
M  V30 3284 N 295.242 2.60223 6.52095 0
M  V30 3285 H 300.082 2.14951 2.06398 0
M  V30 3286 H 297.619 1.06917 1.01031 0
M  V30 3287 H 299.577 0.741548 4.10557 0
M  V30 3288 H 298.207 0.0119227 3.22798 0
M  V30 3289 H 297.259 2.41461 2.9394 0
M  V30 3290 H 298.571 2.99357 3.98982 0
M  V30 3291 H 297.725 1.56377 5.862 0
M  V30 3292 H 296.464 0.881252 4.79672 0
M  V30 3293 H 295.469 3.16625 4.49476 0
M  V30 3294 H 296.694 3.84957 5.59451 0
M  V30 3295 H 294.64 1.72884 6.32809 0
M  V30 3296 H 294.557 3.40827 6.74814 0
M  V30 3297 H 295.825 2.42016 7.40978 0
M  V30 3298 N 300.054 -1.07777 1.14986 0
M  V30 3299 C 301.004 -2.13082 0.811181 0
M  V30 3300 C 301.988 -1.59619 -0.202597 0
M  V30 3301 O 303.18 -1.77 -0.00398275 0
M  V30 3302 C 300.309 -3.42009 0.297439 0
M  V30 3303 C 299.395 -4.02337 1.34112 0
M  V30 3304 N 299.786 -4.36982 2.54716 0
M  V30 3305 C 298.084 -4.29752 1.19285 0
M  V30 3306 C 298.785 -4.84729 3.21578 0
M  V30 3307 N 297.761 -4.83233 2.48972 0
M  V30 3308 H 301.563 -2.37696 1.72853 0
M  V30 3309 H 299.077 -1.25173 1.03468 0
M  V30 3310 H 301.074 -4.16884 0.0364777 0
M  V30 3311 H 299.734 -3.18841 -0.614022 0
M  V30 3312 H 300.745 -4.27807 2.91894 0
M  V30 3313 H 297.422 -4.16106 0.340926 0
M  V30 3314 H 298.812 -5.20863 4.24442 0
M  V30 3315 N 301.532 -0.945985 -1.26051 0
M  V30 3316 C 302.495 -0.463897 -2.24456 0
M  V30 3317 C 303.495 0.427655 -1.55009 0
M  V30 3318 O 304.685 0.226157 -1.72726 0
M  V30 3319 C 301.817 0.330812 -3.39291 0
M  V30 3320 H 303.01 -1.33357 -2.68619 0
M  V30 3321 H 300.563 -0.728416 -1.38289 0
M  V30 3322 H 301.298 1.21852 -3.00537 0
M  V30 3323 H 301.083 -0.308679 -3.90883 0
M  V30 3324 H 302.573 0.657865 -4.12386 0
M  V30 3325 N 303.011 1.40521 -0.713556 0
M  V30 3326 C 304.258 2.00923 -0.25219 0
M  V30 3327 C 304.586 1.56571 1.15395 0
M  V30 3328 O 303.841 0.775874 1.79663 0
M  V30 3329 C 304.14 3.56317 -0.278 0
M  V30 3330 C 303.806 4.20246 -1.63415 0
M  V30 3331 C 302.468 4.37422 -2.00538 0
M  V30 3332 C 304.82 4.55923 -2.52554 0
M  V30 3333 C 302.148 4.87558 -3.2635 0
M  V30 3334 C 304.5 5.07458 -3.77716 0
M  V30 3335 C 303.164 5.22843 -4.14959 0
M  V30 3336 H 302.434 0.735231 -0.0922829 0
M  V30 3337 H 305.081 1.68161 -0.916188 0
M  V30 3338 H 303.386 3.88976 0.469567 0
M  V30 3339 H 305.083 4.00883 0.0967819 0
M  V30 3340 H 301.673 4.07263 -1.33546 0
M  V30 3341 H 305.857 4.42291 -2.25149 0
M  V30 3342 H 301.113 4.97654 -3.55176 0
M  V30 3343 H 305.287 5.34041 -4.4696 0
M  V30 3344 H 302.914 5.61454 -5.12516 0
M  V30 3345 N 304.489 0.459591 1.5075 0
M  V30 3346 C 305.437 -0.354678 2.2988 0
M  V30 3347 C 306.431 -1.00086 1.36672 0
M  V30 3348 O 307.637 -0.933277 1.53915 0
M  V30 3349 H 304.012 -0.13321 0.740107 0
M  V30 3350 H 305.983 0.333269 2.96533 0
M  V30 3351 C 304.732 -1.43073 3.169 0
M  V30 3352 H 304.055 -0.942882 3.88523 0
M  V30 3353 H 305.495 -1.97328 3.75284 0
M  V30 3354 C 303.954 -2.42633 2.33732 0
M  V30 3355 O 304.484 -3.47658 2.01238 0
M  V30 3356 N 302.69 -2.14066 1.9653 0
M  V30 3357 H 302.237 -1.28685 2.23155 0
M  V30 3358 H 302.195 -2.80917 1.41185 0
M  V30 3359 N 305.967 -1.56429 0.191757 0
M  V30 3360 C 306.93 -2.17707 -0.716688 0
M  V30 3361 C 307.93 -1.13061 -1.14341 0
M  V30 3362 O 309.12 -1.38464 -1.05704 0
M  V30 3363 C 306.252 -2.77644 -1.97804 0
M  V30 3364 H 307.445 -2.99342 -0.1829 0
M  V30 3365 H 304.998 -1.56193 -0.0578566 0
M  V30 3366 H 305.733 -1.99799 -2.55443 0
M  V30 3367 H 305.518 -3.54246 -1.68083 0
M  V30 3368 H 307.008 -3.24708 -2.62592 0
M  V30 3369 N 307.445 0.0818655 -1.57387 0
M  V30 3370 C 308.392 1.09834 -2.0299 0
M  V30 3371 C 309.362 1.39043 -0.908639 0
M  V30 3372 O 310.547 1.50282 -1.17559 0
M  V30 3373 C 307.687 2.40971 -2.47037 0
M  V30 3374 C 306.8 2.18379 -3.7274 0
M  V30 3375 C 305.935 3.43008 -4.0561 0
M  V30 3376 C 304.974 3.15736 -5.24383 0
M  V30 3377 N 304.111 4.32667 -5.52941 0
M  V30 3378 H 308.951 0.702472 -2.89602 0
M  V30 3379 H 306.488 0.33531 -1.43227 0
M  V30 3380 H 308.446 3.1752 -2.70623 0
M  V30 3381 H 307.076 2.78379 -1.63417 0
M  V30 3382 H 306.128 1.32569 -3.56552 0
M  V30 3383 H 307.44 1.94227 -4.59431 0
M  V30 3384 H 306.594 4.27958 -4.30043 0
M  V30 3385 H 305.333 3.70225 -3.17466 0
M  V30 3386 H 304.338 2.2918 -4.99757 0
M  V30 3387 H 305.563 2.8985 -6.14136 0
M  V30 3388 H 303.509 4.59935 -4.67756 0
M  V30 3389 H 303.426 4.11753 -6.34031 0
M  V30 3390 H 304.694 5.18644 -5.81918 0
M  V30 3391 N 308.923 1.53595 0.353017 0
M  V30 3392 C 310.2 1.61002 1.11075 0
M  V30 3393 C 310.58 0.425356 2.0677 0
M  V30 3394 O 309.928 -0.583267 2.2093 0
M  V30 3395 C 310.138 2.96631 1.83877 0
M  V30 3396 C 311.486 3.51653 2.37961 0
M  V30 3397 O 312.51 2.98743 1.93987 0
M  V30 3398 O 311.369 4.44177 3.18386 0
M  V30 3399 H 308.463 0.650825 0.510251 0
M  V30 3400 H 311.009 1.6594 0.35527 0
M  V30 3401 H 309.781 3.74293 1.14108 0
M  V30 3402 H 309.404 2.95242 2.66304 0
M  V30 3403 N 310.401 -0.613514 1.45168 0
M  V30 3404 C 311.334 -1.73809 1.47871 0
M  V30 3405 C 312.312 -1.59097 0.33568 0
M  V30 3406 O 313.496 -1.8074 0.535299 0
M  V30 3407 C 310.623 -3.11574 1.32813 0
M  V30 3408 C 309.669 -3.4489 2.50905 0
M  V30 3409 S 310.502 -3.40393 4.13392 0
M  V30 3410 C 311.658 -4.80749 4.00789 0
M  V30 3411 H 311.891 -1.71252 2.43023 0
M  V30 3412 H 309.424 -0.789658 1.32679 0
M  V30 3413 H 311.382 -3.91065 1.24812 0
M  V30 3414 H 310.043 -3.11652 0.391418 0
M  V30 3415 H 309.236 -4.45183 2.36279 0
M  V30 3416 H 308.838 -2.72901 2.55736 0
M  V30 3417 H 311.13 -5.7041 3.65567 0
M  V30 3418 H 312.073 -5.00431 5.00974 0
M  V30 3419 H 312.481 -4.56151 3.32545 0
M  V30 3420 N 311.879 -1.3236 -0.855495 0
M  V30 3421 C 312.827 -1.2118 -1.9854 0
M  V30 3422 C 313.821 -0.116788 -1.68997 0
M  V30 3423 O 315.027 -0.279657 -1.77814 0
M  V30 3424 H 311.402 -0.375608 -0.651477 0
M  V30 3425 H 313.373 -2.16743 -2.05098 0
M  V30 3426 C 312.122 -0.950849 -3.34446 0
M  V30 3427 H 311.445 -1.78563 -3.57708 0
M  V30 3428 H 312.885 -0.912863 -4.14057 0
M  V30 3429 C 311.344 0.346404 -3.35114 0
M  V30 3430 O 311.874 1.35855 -3.7803 0
M  V30 3431 N 310.08 0.36808 -2.88259 0
M  V30 3432 H 309.627 -0.456102 -2.5353 0
M  V30 3433 H 309.585 1.23591 -2.89089 0
M  V30 3434 N 313.357 1.07166 -1.15556 0
M  V30 3435 C 314.582 1.84053 -0.955988 0
M  V30 3436 C 315.007 1.81586 0.490739 0
M  V30 3437 O 314.365 1.21018 1.34997 0
M  V30 3438 C 314.413 3.28957 -1.47714 0
M  V30 3439 O 313.517 4.06795 -0.677593 0
M  V30 3440 H 312.858 0.569842 -0.340847 0
M  V30 3441 H 315.388 1.35178 -1.53584 0
M  V30 3442 H 315.398 3.79788 -1.4908 0
M  V30 3443 H 314.073 3.30068 -2.53037 0
M  V30 3444 H 312.65 3.6561 -0.733721 0
M  V30 3445 N 314.835 0.952656 1.25548 0
M  V30 3446 C 315.765 0.489287 2.28316 0
M  V30 3447 C 316.746 -0.463359 1.63667 0
M  V30 3448 O 317.931 -0.36274 1.90782 0
M  V30 3449 C 315.061 -0.235603 3.465 0
M  V30 3450 C 314.015 0.631593 4.23314 0
M  V30 3451 C 313.341 -0.223923 5.34231 0
M  V30 3452 C 314.641 1.90871 4.86174 0
M  V30 3453 H 316.335 1.34822 2.67326 0
M  V30 3454 H 313.881 0.649728 1.28509 0
M  V30 3455 H 315.834 -0.570882 4.17515 0
M  V30 3456 H 314.558 -1.12877 3.06474 0
M  V30 3457 H 313.217 0.949929 3.54079 0
M  V30 3458 H 312.865 -1.11678 4.90446 0
M  V30 3459 H 312.565 0.35299 5.86539 0
M  V30 3460 H 314.089 -0.554214 6.0808 0
M  V30 3461 H 315.503 1.63997 5.49343 0
M  V30 3462 H 313.9 2.43112 5.4865 0
M  V30 3463 H 314.97 2.61304 4.08471 0
M  V30 3464 N 316.313 -1.40141 0.720998 0
M  V30 3465 C 317.559 -2.01084 0.263231 0
M  V30 3466 C 317.892 -1.57052 -1.14229 0
M  V30 3467 O 317.167 -0.793027 -1.77599 0
M  V30 3468 C 317.45 -3.58401 0.349344 0
M  V30 3469 C 317.303 -4.12491 1.79363 0
M  V30 3470 C 318.622 -4.39231 -0.276351 0
M  V30 3471 H 315.741 -0.730572 0.0971228 0
M  V30 3472 H 318.383 -1.66543 0.914518 0
M  V30 3473 H 316.533 -3.87958 -0.205165 0
M  V30 3474 H 318.205 -3.93711 2.40394 0
M  V30 3475 H 316.448 -3.66576 2.31958 0
M  V30 3476 H 317.119 -5.21646 1.80524 0
M  V30 3477 H 319.595 -4.15637 0.196184 0
M  V30 3478 H 318.471 -5.48586 -0.185681 0
M  V30 3479 H 318.732 -4.20643 -1.36059 0
M  V30 3480 N 317.792 -0.46758 -1.50504 0
M  V30 3481 C 319.022 0.086288 -2.0642 0
M  V30 3482 C 319.43 1.34369 -1.33197 0
M  V30 3483 O 318.773 1.79431 -0.393747 0
M  V30 3484 C 318.835 0.443846 -3.5675 0
M  V30 3485 C 318.499 -0.711035 -4.51435 0
M  V30 3486 C 319.496 -1.59205 -4.94924 0
M  V30 3487 C 317.181 -0.900363 -4.94165 0
M  V30 3488 C 319.175 -2.64683 -5.79846 0
M  V30 3489 C 316.862 -1.95837 -5.7887 0
M  V30 3490 C 317.86 -2.82997 -6.21612 0
M  V30 3491 O 317.548 -3.86977 -7.0463 0
M  V30 3492 H 317.28 -0.00217814 -0.675996 0
M  V30 3493 H 319.834 -0.654346 -1.94698 0
M  V30 3494 H 318.064 1.23762 -3.6636 0
M  V30 3495 H 319.753 0.932386 -3.95046 0
M  V30 3496 H 320.519 -1.45745 -4.62583 0
M  V30 3497 H 316.398 -0.231427 -4.60419 0
M  V30 3498 H 319.942 -3.32745 -6.13128 0
M  V30 3499 H 315.839 -2.09305 -6.10624 0
M  V30 3500 H 316.607 -3.83923 -7.22873 0
M  V30 3501 N 319.27 1.56325 -0.20005 0
M  V30 3502 C 320.686 1.58839 0.155716 0
M  V30 3503 C 320.886 1.21636 1.60645 0
M  V30 3504 O 319.942 0.941437 2.34293 0
M  V30 3505 C 321.255 3.0032 -0.151124 0
M  V30 3506 C 322.803 3.12866 -0.0916284 0
M  V30 3507 C 323.278 4.56488 -0.371845 0
M  V30 3508 N 324.769 4.62089 -0.320641 0
M  V30 3509 C 325.504 5.71116 -0.511243 0
M  V30 3510 N 325 6.88592 -0.762461 0
M  V30 3511 N 326.793 5.60335 -0.445157 0
M  V30 3512 H 318.944 1.78788 -1.14668 0
M  V30 3513 H 321.207 0.829996 -0.458051 0
M  V30 3514 H 320.913 3.32117 -1.15721 0
M  V30 3515 H 320.787 3.73257 0.543986 0
M  V30 3516 H 323.174 2.80878 0.905065 0
M  V30 3517 H 323.255 2.42304 -0.81989 0
M  V30 3518 H 322.899 4.89189 -1.36588 0
M  V30 3519 H 322.829 5.25246 0.377362 0
M  V30 3520 H 325.32 3.77665 -0.13329 0
M  V30 3521 H 325.633 7.67581 -0.896576 0
M  V30 3522 H 323.978 6.90387 -0.799412 0
M  V30 3523 H 327.169 4.67436 -0.249278 0
M  V30 3524 H 327.342 6.45243 -0.597116 0
M  V30 3525 N 320.748 -0.0735177 1.57428 0
M  V30 3526 C 321.997 -0.771809 1.86349 0
M  V30 3527 C 322.31 -1.78828 0.792452 0
M  V30 3528 O 323.516 -2.53602 0.96945 0
M  V30 3529 C 321.972 -1.42358 3.30548 0
M  V30 3530 C 321.58 -0.445761 4.45777 0
M  V30 3531 C 323.324 -2.10434 3.6867 0
M  V30 3532 C 321.231 -1.10335 5.81016 0
M  V30 3533 H 320.161 -0.291999 0.695164 0
M  V30 3534 H 322.812 -0.0250749 1.83483 0
M  V30 3535 H 321.194 -2.21852 3.28021 0
M  V30 3536 H 322.368 0.319239 4.59693 0
M  V30 3537 H 320.683 0.130457 4.16196 0
M  V30 3538 H 323.28 -2.60405 4.67004 0
M  V30 3539 H 323.623 -2.90298 2.98383 0
M  V30 3540 H 324.156 -1.37773 3.7318 0
M  V30 3541 H 320.895 -0.345061 6.54591 0
M  V30 3542 H 320.415 -1.83925 5.70904 0
M  V30 3543 H 322.094 -1.62367 6.26295 0
M  V30 3544 N 322.226 -1.5378 -0.344866 0
M  V30 3545 C 323.475 -1.7018 -1.08267 0
M  V30 3546 C 323.788 -0.471 -1.89845 0
M  V30 3547 O 324.994 -0.515917 -2.66553 0
M  V30 3548 C 323.45 -3.00923 -1.97417 0
M  V30 3549 C 323.058 -4.31335 -1.21053 0
M  V30 3550 C 324.802 -3.26688 -2.71063 0
M  V30 3551 C 322.709 -5.53153 -2.09225 0
M  V30 3552 H 321.639 -0.634138 -0.407903 0
M  V30 3553 H 324.29 -1.8028 -0.342246 0
M  V30 3554 H 322.672 -2.84676 -2.75274 0
M  V30 3555 H 323.846 -4.58281 -0.481159 0
M  V30 3556 H 322.161 -4.12173 -0.591813 0
M  V30 3557 H 324.758 -4.1489 -3.37299 0
M  V30 3558 H 325.101 -2.43639 -3.37558 0
M  V30 3559 H 325.634 -3.43705 -2.0028 0
M  V30 3560 H 322.373 -6.38741 -1.47274 0
M  V30 3561 H 321.893 -5.30458 -2.79955 0
M  V30 3562 H 323.572 -5.88744 -2.68308 0
M  V30 3563 N 323.704 0.605807 -1.45491 0
M  V30 3564 C 324.614 1.74466 -1.56839 0
M  V30 3565 C 325.63 1.68006 -0.452772 0
M  V30 3566 O 326.806 1.8833 -0.713708 0
M  V30 3567 C 323.871 3.10931 -1.53371 0
M  V30 3568 C 322.932 3.28832 -2.75986 0
M  V30 3569 C 322.165 4.58787 -2.72673 0
M  V30 3570 O 322.388 5.4122 -1.80102 0
M  V30 3571 O 321.322 4.79438 -3.63899 0
M  V30 3572 H 325.148 1.67843 -2.53106 0
M  V30 3573 H 322.733 0.770108 -1.28022 0
M  V30 3574 H 324.615 3.92233 -1.54051 0
M  V30 3575 H 323.29 3.18042 -0.602572 0
M  V30 3576 H 322.197 2.47112 -2.80867 0
M  V30 3577 H 323.53 3.26599 -3.68231 0
M  V30 3578 N 325.182 1.32811 0.848464 0
M  V30 3579 C 326.43 1.23479 1.59991 0
M  V30 3580 C 326.751 -0.201853 1.93952 0
M  V30 3581 O 326.021 -1.12818 1.60153 0
M  V30 3582 H 324.601 0.454034 0.593179 0
M  V30 3583 H 327.263 1.66412 1.01455 0
M  V30 3584 H 326.359 1.82178 2.53412 0
M  V30 3585 N 326.66 -1.06551 1.16123 0
M  V30 3586 C 327.607 -2.13961 0.865414 0
M  V30 3587 C 328.577 -1.65066 -0.185055 0
M  V30 3588 O 329.762 -1.90732 -0.05083 0
M  V30 3589 C 326.902 -3.43113 0.369776 0
M  V30 3590 C 326.015 -4.05756 1.48276 0
M  V30 3591 C 325.15 -5.22773 0.942414 0
M  V30 3592 C 324.189 -5.77395 2.03179 0
M  V30 3593 N 323.326 -6.85731 1.50721 0
M  V30 3594 H 328.166 -2.38605 1.78527 0
M  V30 3595 H 325.703 -1.17072 0.890646 0
M  V30 3596 H 327.661 -4.17151 0.0640643 0
M  V30 3597 H 326.291 -3.18695 -0.513143 0
M  V30 3598 H 325.343 -3.29292 1.9045 0
M  V30 3599 H 326.655 -4.42351 2.30493 0
M  V30 3600 H 325.809 -6.03827 0.589729 0
M  V30 3601 H 324.548 -4.87618 0.0895191 0
M  V30 3602 H 323.553 -4.94981 2.3932 0
M  V30 3603 H 324.778 -6.14603 2.8886 0
M  V30 3604 H 322.724 -6.52499 0.676811 0
M  V30 3605 H 322.641 -7.21254 2.26557 0
M  V30 3606 H 323.909 -7.7047 1.18303 0
M  V30 3607 N 328.138 -0.959301 -1.25041 0
M  V30 3608 C 329.068 -0.501388 -2.28053 0
M  V30 3609 C 330.049 0.454673 -1.63911 0
M  V30 3610 O 331.234 0.352618 -1.90972 0
M  V30 3611 C 328.364 0.217224 -3.4662 0
M  V30 3612 C 327.318 -0.654034 -4.22973 0
M  V30 3613 C 326.644 0.195589 -5.34342 0
M  V30 3614 C 327.944 -1.93447 -4.85155 0
M  V30 3615 H 329.638 -1.36238 -2.66608 0
M  V30 3616 H 327.184 -0.656534 -1.28163 0
M  V30 3617 H 329.137 0.548732 -4.17812 0
M  V30 3618 H 327.861 1.1125 -3.07068 0
M  V30 3619 H 326.52 -0.968693 -3.5357 0
M  V30 3620 H 326.168 1.09076 -4.91031 0
M  V30 3621 H 325.868 -0.384091 -5.86343 0
M  V30 3622 H 327.392 0.521958 -6.08365 0
M  V30 3623 H 328.806 -1.66908 -5.48466 0
M  V30 3624 H 327.203 -2.46018 -5.47353 0
M  V30 3625 H 328.273 -2.63466 -4.07079 0
M  V30 3626 N 329.616 1.39756 -0.72842 0
M  V30 3627 C 331.027 1.83498 -0.344289 0
M  V30 3628 C 331.378 1.60868 1.12321 0
M  V30 3629 O 330.503 1.09634 1.86573 0
M  V30 3630 C 331.098 3.33114 -0.618112 0
M  V30 3631 C 329.657 3.753 -0.287549 0
M  V30 3632 C 328.804 2.62831 -0.884048 0
M  V30 3633 H 331.755 1.28842 -0.926578 0
M  V30 3634 H 331.776 3.80334 0.112349 0
M  V30 3635 H 331.288 3.49553 -1.68625 0
M  V30 3636 H 329.389 3.64451 0.775012 0
M  V30 3637 H 329.502 4.72945 -0.765512 0
M  V30 3638 H 327.866 2.52792 -0.311149 0
M  V30 3639 H 328.649 2.82078 -1.95671 0
M  V30 3640 N 331.094 0.475555 1.50254 0
M  V30 3641 C 332.505 0.0215174 1.86688 0
M  V30 3642 C 332.856 -1.38467 1.39001 0
M  V30 3643 O 331.981 -2.02732 0.756894 0
M  V30 3644 C 332.576 0.0322715 3.38785 0
M  V30 3645 C 331.135 -0.366314 3.74613 0
M  V30 3646 C 330.282 0.415832 2.74164 0
M  V30 3647 H 333.233 0.689612 1.42934 0
M  V30 3648 H 333.254 -0.76889 3.7265 0
M  V30 3649 H 332.766 1.05584 3.73462 0
M  V30 3650 H 330.867 -1.39406 3.45538 0
M  V30 3651 H 330.98 -0.064555 4.79057 0
M  V30 3652 H 329.344 -0.131048 2.54363 0
M  V30 3653 H 330.127 1.43899 3.11686 0
M  V30 3654 N 332.573 -1.56217 0.208337 0
M  V30 3655 C 333.506 -2.15633 -0.746842 0
M  V30 3656 C 334.484 -1.09685 -1.20034 0
M  V30 3657 O 335.668 -1.3787 -1.28547 0
M  V30 3658 C 332.795 -2.72594 -2.01023 0
M  V30 3659 C 331.841 -3.91251 -1.69779 0
M  V30 3660 S 332.674 -5.28962 -0.834209 0
M  V30 3661 C 333.83 -5.89353 -2.10745 0
M  V30 3662 H 334.063 -2.96315 -0.241789 0
M  V30 3663 H 331.596 -1.54398 -0.00682183 0
M  V30 3664 H 333.554 -3.06053 -2.73572 0
M  V30 3665 H 332.215 -1.91929 -2.48641 0
M  V30 3666 H 331.408 -4.29562 -2.63614 0
M  V30 3667 H 331.01 -3.58869 -1.05303 0
M  V30 3668 H 333.302 -6.04522 -3.05875 0
M  V30 3669 H 334.245 -6.85661 -1.76845 0
M  V30 3670 H 334.653 -5.1807 -2.24196 0
M  V30 3671 N 334.051 0.0651679 -1.57465 0
M  V30 3672 C 335.462 0.616213 -1.76238 0
M  V30 3673 C 335.813 1.7756 -0.834689 0
M  V30 3674 O 334.938 2.1639 -0.0204156 0
M  V30 3675 C 335.533 1.12462 -3.1959 0
M  V30 3676 C 334.092 1.62147 -3.39684 0
M  V30 3677 C 333.239 0.543739 -2.71917 0
M  V30 3678 H 336.19 -0.161022 -1.57881 0
M  V30 3679 H 336.211 1.99324 -3.24114 0
M  V30 3680 H 335.723 0.280592 -3.87084 0
M  V30 3681 H 333.824 2.48854 -2.77313 0
M  V30 3682 H 333.937 1.69385 -4.48158 0
M  V30 3683 H 332.301 0.990352 -2.34657 0
M  V30 3684 H 333.084 -0.290216 -3.42071 0
M  V30 3685 N 335.529 1.53961 0.336706 0
M  V30 3686 C 336.945 1.44378 0.680241 0
M  V30 3687 C 337.145 0.606034 1.9217 0
M  V30 3688 O 336.201 0.099688 2.52303 0
M  V30 3689 C 337.514 2.87945 0.8665 0
M  V30 3690 C 339.062 2.97763 0.964682 0
M  V30 3691 C 339.537 4.42453 1.18321 0
M  V30 3692 N 341.028 4.46008 1.25025 0
M  V30 3693 C 341.763 5.55102 1.43697 0
M  V30 3694 N 341.259 6.7419 1.59498 0
M  V30 3695 N 343.052 5.42727 1.463 0
M  V30 3696 H 335.203 2.06918 -0.479455 0
M  V30 3697 H 337.466 0.935634 -0.152619 0
M  V30 3698 H 337.172 3.51691 0.0256937 0
M  V30 3699 H 337.046 3.33293 1.76623 0
M  V30 3700 H 339.433 2.34153 1.796 0
M  V30 3701 H 339.514 2.55766 0.041708 0
M  V30 3702 H 339.158 5.06645 0.356788 0
M  V30 3703 H 339.088 4.82048 2.11985 0
M  V30 3704 H 341.579 3.60196 1.14312 0
M  V30 3705 H 341.892 7.53095 1.734 0
M  V30 3706 H 340.237 6.77123 1.56621 0
M  V30 3707 H 343.428 4.48647 1.33543 0
M  V30 3708 H 343.601 6.27806 1.6051 0
M  V30 3709 N 337.007 -0.598083 1.45811 0
M  V30 3710 C 338.284 -1.35777 1.40797 0
M  V30 3711 C 338.664 -2.10935 0.083462 0
M  V30 3712 O 338.012 -2.08505 -0.934763 0
M  V30 3713 C 338.222 -2.29666 2.62783 0
M  V30 3714 C 339.57 -2.91977 3.08277 0
M  V30 3715 O 340.594 -2.39984 2.63223 0
M  V30 3716 O 339.453 -3.86376 3.86491 0
M  V30 3717 H 336.547 -0.609291 0.55919 0
M  V30 3718 H 339.093 -0.620379 1.57954 0
M  V30 3719 H 337.865 -1.73454 3.50756 0
M  V30 3720 H 337.488 -3.1077 2.48008 0
M  V30 3721 N 338.485 -1.33259 -0.841409 0
M  V30 3722 C 339.715 -1.2742 -1.62628 0
M  V30 3723 C 340.123 0.157604 -1.88542 0
M  V30 3724 O 339.466 1.10938 -1.46419 0
M  V30 3725 C 339.528 -1.97797 -3.00194 0
M  V30 3726 C 339.192 -3.47109 -2.97261 0
M  V30 3727 C 340.189 -4.42358 -2.73159 0
M  V30 3728 C 337.874 -3.89247 -3.17478 0
M  V30 3729 C 339.868 -5.77718 -2.69296 0
M  V30 3730 C 337.555 -5.24713 -3.13241 0
M  V30 3731 C 338.553 -6.1876 -2.89181 0
M  V30 3732 O 338.241 -7.51745 -2.84843 0
M  V30 3733 H 337.973 -0.440436 -0.512827 0
M  V30 3734 H 340.527 -1.76153 -1.05638 0
M  V30 3735 H 338.757 -1.43652 -3.59028 0
M  V30 3736 H 340.446 -1.8549 -3.61038 0
M  V30 3737 H 341.212 -4.11127 -2.57294 0
M  V30 3738 H 337.091 -3.16456 -3.35226 0
M  V30 3739 H 340.635 -6.51097 -2.50436 0
M  V30 3740 H 336.532 -5.55569 -3.28654 0
M  V30 3741 H 337.3 -7.61262 -3.00702 0
M  V30 3742 N 339.963 1.05934 -1.16686 0
M  V30 3743 C 341.188 1.83029 -0.975455 0
M  V30 3744 C 341.613 1.82096 0.471452 0
M  V30 3745 O 340.971 1.22443 1.33706 0
M  V30 3746 C 341.019 3.27372 -1.51195 0
M  V30 3747 O 340.123 4.06054 -0.720701 0
M  V30 3748 H 339.464 0.566194 -0.346872 0
M  V30 3749 H 341.994 1.33541 -1.55009 0
M  V30 3750 H 342.004 3.78186 -1.53099 0
M  V30 3751 H 340.679 3.27366 -2.56523 0
M  V30 3752 H 339.256 3.64812 -0.772458 0
M  V30 3753 N 341.441 0.965919 1.2453 0
M  V30 3754 C 342.852 0.665929 1.7442 0
M  V30 3755 C 343.203 -0.818407 1.78316 0
M  V30 3756 O 342.328 -1.64037 1.41141 0
M  V30 3757 C 342.923 1.20211 3.16757 0
M  V30 3758 C 341.482 0.952059 3.6416 0
M  V30 3759 C 340.629 1.33848 2.42858 0
M  V30 3760 H 343.58 1.14144 1.10258 0
M  V30 3761 H 343.601 0.567544 3.76244 0
M  V30 3762 H 343.113 2.28244 3.13889 0
M  V30 3763 H 341.214 -0.112821 3.72429 0
M  V30 3764 H 341.327 1.59645 4.51719 0
M  V30 3765 H 339.691 0.756864 2.43195 0
M  V30 3766 H 340.474 2.42827 2.42673 0
M  V30 3767 N 342.919 -1.39368 0.735821 0
M  V30 3768 C 343.829 -2.34395 0.0979693 0
M  V30 3769 C 344.845 -1.58361 -0.720968 0
M  V30 3770 O 346.021 -1.90648 -0.649245 0
M  V30 3771 C 343.086 -3.37393 -0.797916 0
M  V30 3772 C 342.147 -4.29287 0.0333662 0
M  V30 3773 C 341.38 -5.27365 -0.819854 0
M  V30 3774 O 341.603 -5.31959 -2.05855 0
M  V30 3775 O 340.537 -6.01389 -0.248079 0
M  V30 3776 H 344.363 -2.90601 0.882315 0
M  V30 3777 H 341.948 -1.40909 0.4965 0
M  V30 3778 H 343.83 -4.00505 -1.31048 0
M  V30 3779 H 342.505 -2.83571 -1.56106 0
M  V30 3780 H 341.412 -3.69395 0.591475 0
M  V30 3781 H 342.745 -4.86317 0.758752 0
M  V30 3782 N 344.397 -0.483516 -1.5 0
M  V30 3783 C 345.327 0.293829 -2.31644 0
M  V30 3784 C 346.308 0.978864 -1.39112 0
M  V30 3785 O 347.493 0.973644 -1.68029 0
M  V30 3786 C 344.623 1.36897 -3.19181 0
M  V30 3787 C 343.577 0.804833 -4.20365 0
M  V30 3788 C 342.903 1.9792 -4.96721 0
M  V30 3789 C 344.203 -0.192313 -5.21946 0
M  V30 3790 H 345.897 -0.387616 -2.9688 0
M  V30 3791 H 343.443 -0.187856 -1.42769 0
M  V30 3792 H 345.396 1.92037 -3.751 0
M  V30 3793 H 344.12 2.07936 -2.51853 0
M  V30 3794 H 342.779 0.275319 -3.65565 0
M  V30 3795 H 342.427 2.67686 -4.25856 0
M  V30 3796 H 342.127 1.60789 -5.65173 0
M  V30 3797 H 343.651 2.53526 -5.55479 0
M  V30 3798 H 345.065 0.270333 -5.72662 0
M  V30 3799 H 343.462 -0.478543 -5.98189 0
M  V30 3800 H 344.532 -1.11409 -4.71928 0
M  V30 3801 N 345.875 1.56104 -0.216619 0
M  V30 3802 C 346.838 2.18819 0.681962 0
M  V30 3803 C 347.838 1.14866 1.12528 0
M  V30 3804 O 349.028 1.40128 1.03488 0
M  V30 3805 C 346.16 2.80756 1.93362 0
M  V30 3806 H 347.353 2.99595 0.135254 0
M  V30 3807 H 344.906 1.56265 0.0330003 0
M  V30 3808 H 345.641 2.03837 2.52232 0
M  V30 3809 H 345.426 3.56876 1.62426 0
M  V30 3810 H 346.916 3.28844 2.57393 0
M  V30 3811 N 347.353 -0.0568162 1.57498 0
M  V30 3812 C 348.263 -1.08346 2.08083 0
M  V30 3813 C 349.279 -1.41439 1.01346 0
M  V30 3814 O 350.455 -1.51316 1.32912 0
M  V30 3815 C 347.52 -2.37352 2.52715 0
M  V30 3816 C 346.581 -2.11093 3.73816 0
M  V30 3817 C 345.814 -3.33949 4.1631 0
M  V30 3818 O 346.037 -4.43622 3.58547 0
M  V30 3819 O 344.971 -3.21279 5.08983 0
M  V30 3820 H 348.797 -0.683667 2.95905 0
M  V30 3821 H 346.382 -0.271965 1.46904 0
M  V30 3822 H 348.264 -3.13246 2.81877 0
M  V30 3823 H 346.939 -2.76681 1.68016 0
M  V30 3824 H 345.846 -1.32856 3.49714 0
M  V30 3825 H 347.179 -1.76637 4.59413 0
M  V30 3826 N 348.832 -1.54138 -0.328536 0
M  V30 3827 C 349.762 -1.86167 -1.40939 0
M  V30 3828 C 350.743 -0.718044 -1.54202 0
M  V30 3829 O 351.928 -0.971328 -1.68163 0
M  V30 3830 C 349.058 -2.08461 -2.77779 0
M  V30 3831 C 348.012 -3.24299 -2.7931 0
M  V30 3832 C 347.338 -3.31955 -4.19178 0
M  V30 3833 C 348.638 -4.62065 -2.43502 0
M  V30 3834 H 350.332 -2.76689 -1.14383 0
M  V30 3835 H 347.878 -1.33132 -0.548806 0
M  V30 3836 H 349.831 -2.29453 -3.53454 0
M  V30 3837 H 348.555 -1.14684 -3.05802 0
M  V30 3838 H 347.214 -3.03187 -2.0609 0
M  V30 3839 H 346.862 -2.35745 -4.44335 0
M  V30 3840 H 346.562 -4.09805 -4.2111 0
M  V30 3841 H 348.086 -3.55175 -4.96672 0
M  V30 3842 H 349.5 -4.8297 -3.08889 0
M  V30 3843 H 347.897 -5.42429 -2.56693 0
M  V30 3844 H 348.967 -4.64652 -1.38659 0
M  V30 3845 N 350.31 0.590341 -1.46126 0
M  V30 3846 C 351.559 1.34499 -1.50309 0
M  V30 3847 C 351.872 1.94977 -0.156021 0
M  V30 3848 O 353.078 2.71395 -0.0756037 0
M  V30 3849 C 351.534 2.43723 -2.64815 0
M  V30 3850 C 351.142 1.89582 -4.0591 0
M  V30 3851 C 352.886 3.20579 -2.78262 0
M  V30 3852 C 350.793 2.9639 -5.11769 0
M  V30 3853 H 349.723 0.505593 -0.559368 0
M  V30 3854 H 352.374 0.630848 -1.72315 0
M  V30 3855 H 350.756 3.17902 -2.36124 0
M  V30 3856 H 351.93 1.21997 -4.44357 0
M  V30 3857 H 350.245 1.25418 -3.97063 0
M  V30 3858 H 352.842 4.00276 -3.54519 0
M  V30 3859 H 353.185 3.72684 -1.85505 0
M  V30 3860 H 353.718 2.53505 -3.06562 0
M  V30 3861 H 350.457 2.49181 -6.06291 0
M  V30 3862 H 349.977 3.62487 -4.77873 0
M  V30 3863 H 351.656 3.60474 -5.37278 0
M  V30 3864 N 351.788 1.33704 0.83433 0
M  V30 3865 C 353.204 1.13137 1.12571 0
M  V30 3866 C 353.404 -0.0747261 2.01361 0
M  V30 3867 O 352.46 -0.753647 2.4099 0
M  V30 3868 C 353.773 2.42105 1.78342 0
M  V30 3869 C 355.321 2.48054 1.90888 0
M  V30 3870 C 355.796 3.76995 2.60075 0
M  V30 3871 N 357.287 3.78092 2.67584 0
M  V30 3872 C 358.022 4.74574 3.21818 0
M  V30 3873 N 357.518 5.81434 3.76705 0
M  V30 3874 N 359.311 4.62044 3.20112 0
M  V30 3875 H 351.462 2.11 0.243489 0
M  V30 3876 H 353.725 0.932532 0.17055 0
M  V30 3877 H 353.431 3.30391 1.20561 0
M  V30 3878 H 353.305 2.54594 2.7832 0
M  V30 3879 H 355.692 1.60215 2.47821 0
M  V30 3880 H 355.773 2.39502 0.898459 0
M  V30 3881 H 355.417 4.65219 2.03799 0
M  V30 3882 H 355.347 3.82825 3.61597 0
M  V30 3883 H 357.838 3.00865 2.28667 0
M  V30 3884 H 358.151 6.51084 4.16305 0
M  V30 3885 H 356.496 5.85163 3.7498 0
M  V30 3886 H 359.687 3.77716 2.76493 0
M  V30 3887 H 359.86 5.37406 3.62076 0
M  V30 3888 N 353.266 -1.05314 1.17247 0
M  V30 3889 C 354.494 -1.81971 0.984593 0
M  V30 3890 C 354.909 -1.82929 -0.467166 0
M  V30 3891 O 354.266 -1.25564 -1.32438 0
M  V30 3892 C 354.317 -3.28143 1.51672 0
M  V30 3893 O 354.038 -3.27347 2.91163 0
M  V30 3894 C 355.539 -4.21493 1.37326 0
M  V30 3895 H 352.759 -0.573455 0.348411 0
M  V30 3896 H 355.303 -1.32808 1.55506 0
M  V30 3897 H 353.458 -3.74582 0.988302 0
M  V30 3898 H 353.872 -4.18824 3.15732 0
M  V30 3899 H 355.346 -5.22043 1.79375 0
M  V30 3900 H 355.823 -4.38031 0.320169 0
M  V30 3901 H 356.429 -3.80909 1.89178 0
M  V30 3902 N 354.744 -0.972509 -1.24016 0
M  V30 3903 C 355.677 -0.45117 -2.23696 0
M  V30 3904 C 356.655 0.477378 -1.55434 0
M  V30 3905 O 357.839 0.407647 -1.84039 0
M  V30 3906 C 354.966 0.34818 -3.36906 0
M  V30 3907 C 354.012 -0.523355 -4.23277 0
M  V30 3908 S 354.845 -1.96647 -4.98087 0
M  V30 3909 C 356.001 -1.17604 -6.14752 0
M  V30 3910 H 356.234 -1.29588 -2.67571 0
M  V30 3911 H 353.767 -0.777903 -1.33372 0
M  V30 3912 H 355.725 0.803387 -4.02562 0
M  V30 3913 H 354.386 1.16792 -2.91579 0
M  V30 3914 H 353.579 0.0906181 -5.03919 0
M  V30 3915 H 353.181 -0.914485 -3.62647 0
M  V30 3916 H 355.473 -0.433434 -6.76112 0
M  V30 3917 H 356.416 -1.95701 -6.8052 0
M  V30 3918 H 356.824 -0.698295 -5.60164 0
M  V30 3919 N 356.222 1.38976 -0.743202 0
M  V30 3920 C 357.152 2.33171 -0.123873 0
M  V30 3921 C 358.133 1.54336 0.71516 0
M  V30 3922 O 359.318 1.82696 0.658467 0
M  V30 3923 C 356.448 3.38474 0.777978 0
M  V30 3924 C 355.402 4.27979 0.0424758 0
M  V30 3925 C 354.728 5.2405 1.06189 0
M  V30 3926 C 356.028 5.10155 -1.1198 0
M  V30 3927 H 357.722 2.85213 -0.910709 0
M  V30 3928 H 355.268 1.37133 -0.439388 0
M  V30 3929 H 357.221 4.03328 1.22084 0
M  V30 3930 H 355.945 2.84891 1.59702 0
M  V30 3931 H 354.604 3.64616 -0.380853 0
M  V30 3932 H 354.252 4.66758 1.87472 0
M  V30 3933 H 353.952 5.84785 0.574485 0
M  V30 3934 H 355.476 5.9178 1.50428 0
M  V30 3935 H 356.89 5.68307 -0.75499 0
M  V30 3936 H 355.287 5.80073 -1.53738 0
M  V30 3937 H 356.357 4.44504 -1.93764 0
M  V30 3938 N 357.7 0.491464 1.49741 0
M  V30 3939 C 358.925 -0.0557177 2.07325 0
M  V30 3940 C 359.35 -1.30925 1.35056 0
M  V30 3941 O 358.708 -1.76733 0.404365 0
M  V30 3942 C 358.756 -0.302074 3.59333 0
M  V30 3943 O 357.86 -1.37868 3.88672 0
M  V30 3944 H 357.201 0.0219956 0.663636 0
M  V30 3945 H 359.731 0.688352 1.92673 0
M  V30 3946 H 359.741 -0.536464 4.04458 0
M  V30 3947 H 358.416 0.61383 4.11345 0
M  V30 3948 H 356.993 -1.12999 3.55367 0
M  V30 3949 N 359.178 -1.55987 0.224894 0
M  V30 3950 C 360.125 -2.20436 -0.68385 0
M  V30 3951 C 361.095 -1.16102 -1.18783 0
M  V30 3952 O 362.28 -1.4447 -1.24632 0
M  V30 3953 C 359.42 -2.89076 -1.88491 0
M  V30 3954 C 358.533 -4.08012 -1.41951 0
M  V30 3955 C 357.668 -4.64426 -2.5784 0
M  V30 3956 C 356.707 -5.75656 -2.08053 0
M  V30 3957 N 355.844 -6.26347 -3.17227 0
M  V30 3958 H 360.684 -2.97727 -0.12754 0
M  V30 3959 H 358.221 -1.47011 -0.0511978 0
M  V30 3960 H 360.179 -3.27059 -2.59014 0
M  V30 3961 H 358.809 -2.14298 -2.41405 0
M  V30 3962 H 357.861 -3.75492 -0.609095 0
M  V30 3963 H 359.173 -4.88375 -1.01447 0
M  V30 3964 H 358.327 -5.04869 -3.3644 0
M  V30 3965 H 357.066 -3.83233 -3.01635 0
M  V30 3966 H 356.071 -5.34712 -1.27916 0
M  V30 3967 H 357.296 -6.58686 -1.65255 0
M  V30 3968 H 355.242 -5.48067 -3.60497 0
M  V30 3969 H 355.159 -7.01843 -2.80986 0
M  V30 3970 H 356.427 -6.71447 -3.95953 0
M  V30 3971 N 360.656 0.0484629 -1.57525 0
M  V30 3972 C 362.072 0.40375 -1.54409 0
M  V30 3973 C 362.272 1.77786 -0.948384 0
M  V30 3974 O 361.328 2.46189 -0.560983 0
M  V30 3975 C 362.641 0.323394 -2.98956 0
M  V30 3976 C 364.189 0.401892 -3.10409 0
M  V30 3977 C 364.664 0.351195 -4.56652 0
M  V30 3978 N 366.155 0.410576 -4.61377 0
M  V30 3979 C 366.89 0.393933 -5.72045 0
M  V30 3980 N 366.386 0.330724 -6.9201 0
M  V30 3981 N 368.179 0.442227 -5.60358 0
M  V30 3982 H 360.33 -0.851016 -1.94606 0
M  V30 3983 H 362.593 -0.321721 -0.89174 0
M  V30 3984 H 362.299 -0.62011 -3.4619 0
M  V30 3985 H 362.173 1.12463 -3.60044 0
M  V30 3986 H 364.56 1.33582 -2.63134 0
M  V30 3987 H 364.641 -0.428342 -2.52188 0
M  V30 3988 H 364.285 -0.578987 -5.04589 0
M  V30 3989 H 364.215 1.19928 -5.12762 0
M  V30 3990 H 366.706 0.462729 -3.75056 0
M  V30 3991 H 367.019 0.322592 -7.72126 0
M  V30 3992 H 365.364 0.29706 -6.94365 0
M  V30 3993 H 368.555 0.489464 -4.65534 0
M  V30 3994 H 368.728 0.425788 -6.466 0
M  V30 3995 N 362.134 1.5431 0.320358 0
M  V30 3996 C 363.545 1.63872 0.894594 0
M  V30 3997 C 363.896 0.534847 1.88769 0
M  V30 3998 O 363.021 -0.331732 2.13842 0
M  V30 3999 C 363.616 2.97049 1.62934 0
M  V30 4000 C 362.175 3.08796 2.15226 0
M  V30 4001 C 361.322 2.59456 0.978671 0
M  V30 4002 H 364.273 1.58398 0.0978544 0
M  V30 4003 H 364.294 2.87388 2.49376 0
M  V30 4004 H 363.806 3.7737 0.906302 0
M  V30 4005 H 361.907 2.33156 2.90636 0
M  V30 4006 H 362.02 4.14649 2.40006 0
M  V30 4007 H 360.384 2.1543 1.35875 0
M  V30 4008 H 361.167 3.42237 0.269895 0
M  V30 4009 N 363.613 -0.582584 1.46437 0
M  V30 4010 C 364.523 -1.71949 1.59595 0
M  V30 4011 C 365.539 -1.67264 0.479443 0
M  V30 4012 O 366.715 -1.87171 0.743579 0
M  V30 4013 C 363.78 -3.08452 1.58298 0
M  V30 4014 C 362.841 -3.244 2.81182 0
M  V30 4015 C 362.074 -4.54391 2.79937 0
M  V30 4016 O 362.297 -5.38287 1.8869 0
M  V30 4017 O 361.231 -4.73588 3.71481 0
M  V30 4018 H 365.057 -1.63795 2.55744 0
M  V30 4019 H 362.642 -0.749643 1.29231 0
M  V30 4020 H 364.524 -3.89732 1.60271 0
M  V30 4021 H 363.199 -3.17043 0.653094 0
M  V30 4022 H 362.106 -2.42613 2.84763 0
M  V30 4023 H 363.439 -3.20699 3.7338 0
M  V30 4024 N 365.091 -1.34144 -0.827227 0
M  V30 4025 C 366.001 -1.27428 -1.96975 0
M  V30 4026 C 367.017 -0.182728 -1.73038 0
M  V30 4027 O 368.193 -0.408426 -1.97215 0
M  V30 4028 C 365.258 -1.02526 -3.31194 0
M  V30 4029 C 364.319 -2.20796 -3.68168 0
M  V30 4030 C 363.552 -1.97073 -4.95982 0
M  V30 4031 O 363.775 -0.926822 -5.6282 0
M  V30 4032 O 362.709 -2.83912 -5.30733 0
M  V30 4033 H 366.535 -2.23537 -2.05584 0
M  V30 4034 H 364.12 -1.14307 -0.961989 0
M  V30 4035 H 366.002 -0.904026 -4.11589 0
M  V30 4036 H 364.677 -0.0945389 -3.23562 0
M  V30 4037 H 363.584 -2.38477 -2.88235 0
M  V30 4038 H 364.917 -3.12243 -3.8048 0
M  V30 4039 N 366.569 1.04691 -1.17803 0
M  V30 4040 C 367.985 1.29963 -0.926379 0
M  V30 4041 C 368.185 1.97251 0.411635 0
M  V30 4042 O 367.241 2.24922 1.14744 0
M  V30 4043 C 368.554 2.16447 -2.08737 0
M  V30 4044 C 370.102 2.29814 -2.12496 0
M  V30 4045 C 370.577 3.19661 -3.27995 0
M  V30 4046 N 372.068 3.27247 -3.27816 0
M  V30 4047 C 372.803 3.96906 -4.13827 0
M  V30 4048 N 372.299 4.6895 -5.09959 0
M  V30 4049 N 374.092 3.93122 -4.01761 0
M  V30 4050 H 366.243 0.594182 -2.0392 0
M  V30 4051 H 368.506 0.324649 -0.890678 0
M  V30 4052 H 368.212 1.74304 -3.05469 0
M  V30 4053 H 368.086 3.17103 -2.04268 0
M  V30 4054 H 370.473 2.71196 -1.16347 0
M  V30 4055 H 370.554 1.2877 -2.21025 0
M  V30 4056 H 370.198 2.78991 -4.24413 0
M  V30 4057 H 370.128 4.20722 -3.16703 0
M  V30 4058 H 372.619 2.75921 -2.58217 0
M  V30 4059 H 372.932 5.19679 -5.71974 0
M  V30 4060 H 371.277 4.67875 -5.13924 0
M  V30 4061 H 374.468 3.35967 -3.2595 0
M  V30 4062 H 374.641 4.47139 -4.6901 0
M  V30 4063 N 368.047 0.979072 1.23499 0
M  V30 4064 C 369.458 0.684391 1.73704 0
M  V30 4065 C 369.809 -0.799448 1.79174 0
M  V30 4066 O 368.934 -1.62531 1.42873 0
M  V30 4067 C 369.529 1.23564 3.15464 0
M  V30 4068 C 368.088 0.99063 3.6313 0
M  V30 4069 C 367.235 1.36416 2.41425 0
M  V30 4070 H 370.186 1.15307 1.09041 0
M  V30 4071 H 370.207 0.607417 3.7562 0
M  V30 4072 H 369.719 2.31561 3.1145 0
M  V30 4073 H 367.82 -0.0733136 3.72528 0
M  V30 4074 H 367.933 1.64427 4.5 0
M  V30 4075 H 366.297 0.782616 2.42378 0
M  V30 4076 H 367.08 2.45387 2.40083 0
M  V30 4077 N 369.525 -1.3858 0.750561 0
M  V30 4078 C 370.75 -2.04997 0.314812 0
M  V30 4079 C 371.175 -1.56235 -1.04749 0
M  V30 4080 O 370.533 -0.712981 -1.66692 0
M  V30 4081 C 370.581 -3.58961 0.343415 0
M  V30 4082 O 369.685 -4.07025 -0.663628 0
M  V30 4083 H 369.026 -0.649081 0.139962 0
M  V30 4084 H 371.556 -1.77313 1.02084 0
M  V30 4085 H 371.566 -4.07542 0.193233 0
M  V30 4086 H 370.241 -3.93811 1.33738 0
M  V30 4087 H 368.818 -3.6982 -0.478307 0
M  V30 4088 N 371.003 -0.499398 -1.49478 0
M  V30 4089 C 372.249 0.0457576 -2.02748 0
M  V30 4090 C 372.582 1.36793 -1.37846 0
M  V30 4091 O 371.857 1.87596 -0.513601 0
M  V30 4092 C 372.14 0.199986 -3.59544 0
M  V30 4093 C 371.993 -1.1452 -4.34977 0
M  V30 4094 C 373.312 0.94137 -4.29914 0
M  V30 4095 H 370.431 0.0151552 -0.736844 0
M  V30 4096 H 373.073 -0.650498 -1.78518 0
M  V30 4097 H 371.223 0.793007 -3.8032 0
M  V30 4098 H 372.895 -1.77697 -4.25701 0
M  V30 4099 H 371.138 -1.73488 -3.97598 0
M  V30 4100 H 371.809 -0.990607 -5.43039 0
M  V30 4101 H 374.285 0.43844 -4.13784 0
M  V30 4102 H 373.161 1.01812 -5.39375 0
M  V30 4103 H 373.422 1.98471 -3.95046 0
M  V30 4104 N 372.481 1.55866 -0.233164 0
M  V30 4105 C 373.897 1.59133 0.121988 0
M  V30 4106 C 374.097 1.25016 1.58029 0
M  V30 4107 O 373.153 0.990922 2.32243 0
M  V30 4108 C 374.466 2.99932 -0.214792 0
M  V30 4109 C 376.014 3.12601 -0.157971 0
M  V30 4110 C 376.489 4.55597 -0.46859 0
M  V30 4111 N 377.98 4.61305 -0.418585 0
M  V30 4112 C 378.715 5.69903 -0.63227 0
M  V30 4113 N 378.211 6.86819 -0.90835 0
M  V30 4114 N 380.004 5.59264 -0.563913 0
M  V30 4115 H 372.155 1.76315 -1.18434 0
M  V30 4116 H 374.418 0.820093 -0.475553 0
M  V30 4117 H 374.124 3.29588 -1.22739 0
M  V30 4118 H 373.998 3.74327 0.464691 0
M  V30 4119 H 376.385 2.82735 0.845283 0
M  V30 4120 H 376.466 2.40511 -0.871102 0
M  V30 4121 H 376.11 4.86182 -1.46934 0
M  V30 4122 H 376.04 5.25928 0.265865 0
M  V30 4123 H 378.531 3.77297 -0.213368 0
M  V30 4124 H 378.844 7.65507 -1.05919 0
M  V30 4125 H 377.189 6.88536 -0.945673 0
M  V30 4126 H 380.38 4.66802 -0.348372 0
M  V30 4127 H 380.553 6.43831 -0.733847 0
M  V30 4128 N 373.959 -0.0401083 1.57549 0
M  V30 4129 C 375.184 -0.748931 1.93406 0
M  V30 4130 C 375.609 -1.68686 0.832274 0
M  V30 4131 O 374.967 -1.80047 -0.212818 0
M  V30 4132 C 375.015 -1.4916 3.28304 0
M  V30 4133 O 374.119 -2.6042 3.19774 0
M  V30 4134 H 373.46 -0.202212 0.63246 0
M  V30 4135 H 375.99 0.00112086 2.046 0
M  V30 4136 H 376 -1.86395 3.62934 0
M  V30 4137 H 374.675 -0.80364 4.08062 0
M  V30 4138 H 373.252 -2.25808 2.96758 0
M  V30 4139 N 375.437 -1.54477 -0.31217 0
M  V30 4140 C 376.686 -1.72438 -1.04633 0
M  V30 4141 C 376.999 -0.511163 -1.88803 0
M  V30 4142 O 378.205 -0.572341 -2.65399 0
M  V30 4143 C 376.661 -3.05043 -1.9099 0
M  V30 4144 C 376.269 -4.33806 -1.11877 0
M  V30 4145 C 378.013 -3.32364 -2.64073 0
M  V30 4146 C 375.92 -5.57467 -1.97445 0
M  V30 4147 H 374.85 -0.642647 -0.394361 0
M  V30 4148 H 377.501 -1.80966 -0.303929 0
M  V30 4149 H 375.883 -2.90451 -2.69173 0
M  V30 4150 H 377.057 -4.59199 -0.383843 0
M  V30 4151 H 375.372 -4.13336 -0.504252 0
M  V30 4152 H 377.969 -4.21951 -3.28423 0
M  V30 4153 H 378.312 -2.50745 -3.32314 0
M  V30 4154 H 378.845 -3.47875 -1.92944 0
M  V30 4155 H 375.584 -6.41722 -1.33692 0
M  V30 4156 H 375.104 -5.36277 -2.6864 0
M  V30 4157 H 376.783 -5.94303 -2.5576 0
M  V30 4158 N 376.915 0.57481 -1.46744 0
M  V30 4159 C 377.845 1.69337 -1.60771 0
M  V30 4160 C 378.826 1.63825 -0.457736 0
M  V30 4161 O 380.011 1.8172 -0.684947 0
M  V30 4162 C 377.141 3.0798 -1.60517 0
M  V30 4163 C 376.095 3.28327 -2.74564 0
M  V30 4164 C 375.421 4.67578 -2.59373 0
M  V30 4165 C 376.721 3.15398 -4.16319 0
M  V30 4166 H 378.415 1.57853 -2.54407 0
M  V30 4167 H 375.961 0.75799 -1.22436 0
M  V30 4168 H 377.914 3.86061 -1.68923 0
M  V30 4169 H 376.638 3.20381 -0.634305 0
M  V30 4170 H 375.297 2.52649 -2.65639 0
M  V30 4171 H 374.945 4.76755 -1.60353 0
M  V30 4172 H 374.645 4.82144 -3.35873 0
M  V30 4173 H 376.169 5.47817 -2.69682 0
M  V30 4174 H 377.583 3.83315 -4.26313 0
M  V30 4175 H 375.98 3.41482 -4.93468 0
M  V30 4176 H 377.05 2.12372 -4.3592 0
M  V30 4177 N 378.394 1.34581 0.820102 0
M  V30 4178 C 379.81 1.14325 1.11364 0
M  V30 4179 C 380.01 -0.0533648 2.01429 0
M  V30 4180 O 379.066 -0.728044 2.41776 0
M  V30 4181 C 380.379 2.43983 1.75764 0
M  V30 4182 C 381.927 2.50065 1.88246 0
M  V30 4183 C 382.402 3.79732 2.56061 0
M  V30 4184 N 383.893 3.80908 2.63558 0
M  V30 4185 C 384.628 4.77961 3.16766 0
M  V30 4186 N 384.124 5.85397 3.70517 0
M  V30 4187 N 385.917 4.65413 3.15194 0
M  V30 4188 H 378.068 2.11246 0.221096 0
M  V30 4189 H 380.331 0.934289 0.160649 0
M  V30 4190 H 380.037 3.31651 1.1705 0
M  V30 4191 H 379.911 2.57531 2.75604 0
M  V30 4192 H 382.298 1.62834 2.46108 0
M  V30 4193 H 382.379 2.40442 0.873006 0
M  V30 4194 H 382.023 4.67354 1.98853 0
M  V30 4195 H 381.953 3.86639 3.57516 0
M  V30 4196 H 384.444 3.03274 2.25463 0
M  V30 4197 H 384.757 6.55463 4.09376 0
M  V30 4198 H 383.102 5.89107 3.68752 0
M  V30 4199 H 386.293 3.80627 2.72471 0
M  V30 4200 H 386.466 5.41216 3.56356 0
M  V30 4201 N 379.872 -1.04064 1.18357 0
M  V30 4202 C 380.804 -2.12114 0.868358 0
M  V30 4203 C 381.817 -1.62247 -0.134045 0
M  V30 4204 O 383.006 -1.78253 0.0937933 0
M  V30 4205 C 380.106 -3.37773 0.276132 0
M  V30 4206 C 379.279 -4.16874 1.3242 0
M  V30 4207 C 378.338 -5.20861 0.747662 0
M  V30 4208 O 377.364 -5.51141 1.42239 0
M  V30 4209 N 378.566 -5.78715 -0.454823 0
M  V30 4210 H 381.331 -2.39748 1.79836 0
M  V30 4211 H 378.892 -1.20258 1.08396 0
M  V30 4212 H 380.884 -4.04513 -0.123133 0
M  V30 4213 H 379.454 -3.07581 -0.557895 0
M  V30 4214 H 378.674 -3.45456 1.89878 0
M  V30 4215 H 379.962 -4.66516 2.03078 0
M  V30 4216 H 379.36 -5.56415 -1.02073 0
M  V30 4217 H 377.917 -6.46921 -0.79601 0
M  V30 4218 N 381.35 -0.985608 -1.22978 0
M  V30 4219 C 382.761 -0.693593 -1.73338 0
M  V30 4220 C 383.112 0.789935 -1.79595 0
M  V30 4221 O 382.237 1.61771 -1.43733 0
M  V30 4222 C 382.832 -1.25235 -3.14804 0
M  V30 4223 C 381.391 -1.00987 -3.626 0
M  V30 4224 C 380.538 -1.37695 -2.40698 0
M  V30 4225 H 383.489 -1.15884 -1.08428 0
M  V30 4226 H 383.51 -0.627329 -3.75293 0
M  V30 4227 H 383.022 -2.33209 -3.10218 0
M  V30 4228 H 381.123 0.0535565 -3.72562 0
M  V30 4229 H 381.236 -1.66812 -4.49122 0
M  V30 4230 H 379.6 -0.795459 -2.4196 0
M  V30 4231 H 380.383 -2.46657 -2.38779 0
M  V30 4232 N 382.828 1.3818 -0.7579 0
M  V30 4233 C 384.058 2.04004 -0.326463 0
M  V30 4234 C 384.466 1.57286 1.05156 0
M  V30 4235 O 383.809 0.743144 1.67997 0
M  V30 4236 C 383.871 3.58444 -0.275402 0
M  V30 4237 C 383.535 4.28237 -1.59569 0
M  V30 4238 C 384.532 4.53312 -2.54566 0
M  V30 4239 C 382.217 4.66341 -1.86631 0
M  V30 4240 C 384.211 5.15531 -3.74842 0
M  V30 4241 C 381.898 5.28283 -3.0718 0
M  V30 4242 C 382.896 5.52814 -4.01106 0
M  V30 4243 O 382.584 6.13465 -5.19534 0
M  V30 4244 H 382.316 0.662026 -0.136739 0
M  V30 4245 H 384.87 1.7777 -1.02893 0
M  V30 4246 H 383.1 3.83667 0.483337 0
M  V30 4247 H 384.789 4.05701 0.127099 0
M  V30 4248 H 385.555 4.24299 -2.34936 0
M  V30 4249 H 381.434 4.46591 -1.14358 0
M  V30 4250 H 384.978 5.34594 -4.48168 0
M  V30 4251 H 380.875 5.56719 -3.26702 0
M  V30 4252 H 381.643 6.31951 -5.20173 0
M  V30 4253 N 384.306 0.507319 1.49211 0
M  V30 4254 C 385.555 -0.0368315 2.01666 0
M  V30 4255 C 385.868 -1.37459 1.39156 0
M  V30 4256 O 387.074 -2.00579 1.82976 0
M  V30 4257 C 385.53 -0.116089 3.59713 0
M  V30 4258 C 385.138 1.2154 4.31198 0
M  V30 4259 C 386.882 -0.610268 4.2009 0
M  V30 4260 C 384.789 1.09796 5.81119 0
M  V30 4261 H 383.719 -0.0175376 0.753796 0
M  V30 4262 H 386.37 0.647691 1.71689 0
M  V30 4263 H 384.752 -0.8652 3.86433 0
M  V30 4264 H 385.926 1.9783 4.16173 0
M  V30 4265 H 384.241 1.64352 3.82593 0
M  V30 4266 H 386.838 -0.715742 5.29888 0
M  V30 4267 H 387.181 -1.61064 3.8388 0
M  V30 4268 H 387.714 0.0824916 3.97714 0
M  V30 4269 H 384.453 2.0728 6.21864 0
M  V30 4270 H 383.973 0.376058 5.9862 0
M  V30 4271 H 385.652 0.779281 6.4229 0
M  V30 4272 N 385.784 -1.5574 0.241426 0
M  V30 4273 C 386.731 -2.21149 -0.660432 0
M  V30 4274 C 387.701 -1.17356 -1.17545 0
M  V30 4275 O 388.886 -1.45784 -1.23093 0
M  V30 4276 C 386.026 -2.91059 -1.85414 0
M  V30 4277 C 385.139 -4.09495 -1.37616 0
M  V30 4278 C 384.274 -4.67135 -2.529 0
M  V30 4279 C 383.313 -5.77831 -2.01936 0
M  V30 4280 N 382.45 -6.29677 -3.10566 0
M  V30 4281 H 387.29 -2.97845 -0.095955 0
M  V30 4282 H 384.827 -1.47057 -0.0356024 0
M  V30 4283 H 386.785 -3.29788 -2.5553 0
M  V30 4284 H 385.415 -2.16846 -2.39118 0
M  V30 4285 H 384.467 -3.76117 -0.569235 0
M  V30 4286 H 385.779 -4.89423 -0.962618 0
M  V30 4287 H 384.933 -5.08409 -3.31067 0
M  V30 4288 H 383.672 -3.86411 -2.97553 0
M  V30 4289 H 382.677 -5.36039 -1.22238 0
M  V30 4290 H 383.902 -6.60402 -1.58259 0
M  V30 4291 H 381.848 -5.5186 -3.54664 0
M  V30 4292 H 381.765 -7.04783 -2.73526 0
M  V30 4293 H 383.033 -6.75609 -3.88809 0
M  V30 4294 N 387.262 0.0317525 -1.57568 0
M  V30 4295 C 388.678 0.38735 -1.54828 0
M  V30 4296 C 388.878 1.7677 -0.967187 0
M  V30 4297 O 387.934 2.45581 -0.587063 0
M  V30 4298 C 389.247 0.291667 -2.99282 0
M  V30 4299 C 390.795 0.368946 -3.10818 0
M  V30 4300 C 391.27 0.302741 -4.56998 0
M  V30 4301 N 392.761 0.361617 -4.61786 0
M  V30 4302 C 393.496 0.333238 -5.72431 0
M  V30 4303 N 392.992 0.257308 -6.92322 0
M  V30 4304 N 394.785 0.382769 -5.60795 0
M  V30 4305 H 386.936 -0.871609 -1.93692 0
M  V30 4306 H 389.199 -0.331161 -0.888277 0
M  V30 4307 H 388.905 -0.656794 -3.45513 0
M  V30 4308 H 388.779 1.08638 -3.61217 0
M  V30 4309 H 391.166 1.30784 -2.64536 0
M  V30 4310 H 391.247 -0.455066 -2.5172 0
M  V30 4311 H 390.891 -0.632473 -5.03947 0
M  V30 4312 H 390.821 1.14482 -5.14005 0
M  V30 4313 H 393.312 0.422923 -3.75526 0
M  V30 4314 H 393.625 0.24068 -7.72425 0
M  V30 4315 H 391.97 0.223396 -6.94641 0
M  V30 4316 H 395.161 0.44006 -4.66027 0
M  V30 4317 H 395.334 0.357184 -6.47015 0
M  V30 4318 N 388.74 1.54641 0.303973 0
M  V30 4319 C 389.672 1.81754 1.39636 0
M  V30 4320 C 390.685 0.70035 1.46966 0
M  V30 4321 O 391.874 0.97778 1.49338 0
M  V30 4322 C 388.974 1.93785 2.7803 0
M  V30 4323 C 388.147 3.24156 2.93669 0
M  V30 4324 C 387.206 3.26641 4.12544 0
M  V30 4325 O 386.232 4.00187 4.04771 0
M  V30 4326 N 387.434 2.5182 5.23036 0
M  V30 4327 H 390.199 2.76031 1.16734 0
M  V30 4328 H 387.76 1.54178 0.494033 0
M  V30 4329 H 389.752 1.92852 3.55795 0
M  V30 4330 H 388.322 1.06515 2.93893 0
M  V30 4331 H 387.542 3.37887 2.03042 0
M  V30 4332 H 388.83 4.10195 3.01027 0
M  V30 4333 H 388.228 1.91692 5.32232 0
M  V30 4334 H 386.785 2.56644 5.99147 0
M  V30 4335 N 390.218 -0.567019 1.47046 0
M  V30 4336 C 391.467 -1.32091 1.5243 0
M  V30 4337 C 391.78 -1.94704 0.187021 0
M  V30 4338 O 392.986 -2.7124 0.118771 0
M  V30 4339 C 391.442 -2.39479 2.68659 0
M  V30 4340 C 391.05 -1.831 4.08874 0
M  V30 4341 C 392.794 -3.16111 2.83327 0
M  V30 4342 C 390.701 -2.8821 5.16419 0
M  V30 4343 H 389.631 -0.496629 0.56734 0
M  V30 4344 H 392.282 -0.603354 1.73297 0
M  V30 4345 H 390.664 -3.14105 2.41152 0
M  V30 4346 H 391.838 -1.14913 4.46242 0
M  V30 4347 H 390.153 -1.19085 3.99008 0
M  V30 4348 H 392.75 -3.94585 3.60842 0
M  V30 4349 H 393.093 -3.69686 1.91411 0
M  V30 4350 H 393.626 -2.48595 3.10556 0
M  V30 4351 H 390.365 -2.39504 6.10179 0
M  V30 4352 H 389.885 -3.54839 4.8358 0
M  V30 4353 H 391.564 -3.51881 5.42945 0
M  V30 4354 N 391.696 -1.35014 -0.812953 0
M  V30 4355 C 392.921 -1.31187 -1.60639 0
M  V30 4356 C 393.346 0.109382 -1.87782 0
M  V30 4357 O 392.704 1.07424 -1.46047 0
M  V30 4358 C 392.752 -2.11809 -2.91838 0
M  V30 4359 O 391.856 -1.49444 -3.8437 0
M  V30 4360 H 391.197 -0.450084 -0.488181 0
M  V30 4361 H 393.727 -1.77963 -1.00947 0
M  V30 4362 H 393.737 -2.23531 -3.41318 0
M  V30 4363 H 392.412 -3.15137 -2.71407 0
M  V30 4364 H 390.989 -1.46524 -3.42907 0
M  V30 4365 N 393.175 1.03435 -1.18907 0
M  V30 4366 C 394.422 1.76743 -0.988334 0
M  V30 4367 C 394.75 1.88447 0.481441 0
M  V30 4368 O 394.005 1.39383 1.37371 0
M  V30 4369 C 394.304 3.19792 -1.59586 0
M  V30 4370 C 393.97 3.28108 -3.09283 0
M  V30 4371 C 392.632 3.30084 -3.5014 0
M  V30 4372 C 394.984 3.27696 -4.05296 0
M  V30 4373 C 392.312 3.29299 -4.85571 0
M  V30 4374 C 394.664 3.28451 -5.4065 0
M  V30 4375 C 393.328 3.28723 -5.80946 0
M  V30 4376 H 392.598 0.64675 -0.361657 0
M  V30 4377 H 395.245 1.21442 -1.48068 0
M  V30 4378 H 393.55 3.78136 -1.02568 0
M  V30 4379 H 395.247 3.75171 -1.41589 0
M  V30 4380 H 391.837 3.27294 -2.76725 0
M  V30 4381 H 396.021 3.25354 -3.74778 0
M  V30 4382 H 391.277 3.2783 -5.16079 0
M  V30 4383 H 395.451 3.27082 -6.14809 0
M  V30 4384 H 393.078 3.27868 -6.85862 0
M  V30 4385 N 394.653 0.992116 1.22453 0
M  V30 4386 C 395.9 0.667534 1.91181 0
M  V30 4387 C 396.228 -0.800317 1.77271 0
M  V30 4388 O 395.483 -1.59421 1.13505 0
M  V30 4389 C 395.782 1.01832 3.42586 0
M  V30 4390 C 395.448 2.47831 3.76684 0
M  V30 4391 C 394.11 2.87729 3.85701 0
M  V30 4392 C 396.462 3.42466 3.92895 0
M  V30 4393 C 393.79 4.21252 4.08367 0
M  V30 4394 C 396.142 4.75648 4.17064 0
M  V30 4395 C 394.806 5.15288 4.24305 0
M  V30 4396 H 394.076 0.244268 0.699581 0
M  V30 4397 H 396.723 1.24816 1.45235 0
M  V30 4398 H 395.028 0.355769 3.90181 0
M  V30 4399 H 396.725 0.745228 3.94014 0
M  V30 4400 H 393.315 2.15905 3.70247 0
M  V30 4401 H 397.499 3.12814 3.85307 0
M  V30 4402 H 392.755 4.51554 4.122 0
M  V30 4403 H 396.929 5.48924 4.2855 0
M  V30 4404 H 394.556 6.18769 4.41621 0
M  V30 4405 N 396.131 -1.37776 0.765217 0
M  V30 4406 C 397.061 -2.32945 0.160953 0
M  V30 4407 C 398.042 -1.55454 -0.690516 0
M  V30 4408 O 399.227 -1.83721 -0.629318 0
M  V30 4409 C 396.357 -3.39669 -0.724031 0
M  V30 4410 C 395.311 -4.27992 0.0256173 0
M  V30 4411 C 394.637 -5.25673 -0.978383 0
M  V30 4412 C 395.937 -5.08309 1.20082 0
M  V30 4413 H 397.631 -2.83728 0.955969 0
M  V30 4414 H 395.177 -1.36416 0.461149 0
M  V30 4415 H 397.13 -4.05219 -1.15652 0
M  V30 4416 H 395.854 -2.87396 -1.5515 0
M  V30 4417 H 394.513 -3.63964 0.438812 0
M  V30 4418 H 394.161 -4.69682 -1.80022 0
M  V30 4419 H 393.861 -5.85625 -0.481378 0
M  V30 4420 H 395.385 -5.94098 -1.40995 0
M  V30 4421 H 396.799 -5.67034 0.845307 0
M  V30 4422 H 395.196 -5.77554 1.62947 0
M  V30 4423 H 396.266 -4.41365 2.00811 0
M  V30 4424 N 397.609 -0.515225 -1.4894 0
M  V30 4425 C 398.519 0.259774 -2.33157 0
M  V30 4426 C 399.535 0.953501 -1.45548 0
M  V30 4427 O 400.711 0.931735 -1.78552 0
M  V30 4428 C 397.776 1.30193 -3.21326 0
M  V30 4429 C 396.837 0.620129 -4.24797 0
M  V30 4430 C 396.07 1.61263 -5.08753 0
M  V30 4431 O 396.293 2.84389 -4.94448 0
M  V30 4432 O 395.227 1.16013 -5.90614 0
M  V30 4433 H 399.053 -0.429932 -3.00641 0
M  V30 4434 H 396.638 -0.276346 -1.46822 0
M  V30 4435 H 398.52 1.90455 -3.75905 0
M  V30 4436 H 397.195 1.97431 -2.56521 0
M  V30 4437 H 396.102 -0.0226019 -3.74093 0
M  V30 4438 H 397.435 -0.0100493 -4.92199 0
M  V30 4439 N 399.087 1.5561 -0.249682 0
M  V30 4440 C 400.05 2.20217 0.635394 0
M  V30 4441 C 401.05 1.17227 1.10066 0
M  V30 4442 O 402.24 1.42292 1.00492 0
M  V30 4443 C 399.372 2.84794 1.87363 0
M  V30 4444 H 400.565 2.99814 0.0716752 0
M  V30 4445 H 398.118 1.563 -0.000153234 0
M  V30 4446 H 398.853 2.09142 2.47851 0
M  V30 4447 H 398.638 3.60241 1.5482 0
M  V30 4448 H 400.128 3.3423 2.5036 0
M  V30 4449 N 400.565 -0.0233959 1.57583 0
M  V30 4450 C 401.793 -0.724682 1.93794 0
M  V30 4451 C 402.208 -1.68588 0.849912 0
M  V30 4452 O 401.565 -1.81676 -0.173204 0
M  V30 4453 C 401.616 -1.47684 3.29957 0
M  V30 4454 O 401.337 -0.554222 4.3458 0
M  V30 4455 C 402.838 -2.27477 3.80485 0
M  V30 4456 H 400.058 -0.203317 0.639455 0
M  V30 4457 H 402.602 0.0207653 2.04489 0
M  V30 4458 H 400.757 -2.17412 3.20641 0
M  V30 4459 H 401.171 -1.08232 5.13212 0
M  V30 4460 H 402.645 -2.7564 4.78254 0
M  V30 4461 H 403.122 -3.09144 3.11972 0
M  V30 4462 H 403.728 -1.62813 3.92902 0
M  V30 4463 N 402.043 -1.548 -0.295768 0
M  V30 4464 C 402.99 -1.86113 -1.36494 0
M  V30 4465 C 403.96 -0.7105 -1.50137 0
M  V30 4466 O 405.145 -0.959626 -1.64912 0
M  V30 4467 C 402.285 -2.11861 -2.72413 0
M  V30 4468 C 401.398 -3.39471 -2.67177 0
M  V30 4469 C 400.533 -3.55035 -3.95125 0
M  V30 4470 C 399.572 -4.76418 -3.84308 0
M  V30 4471 N 398.709 -4.8876 -5.04042 0
M  V30 4472 H 403.549 -2.77314 -1.09091 0
M  V30 4473 H 401.086 -1.37315 -0.52753 0
M  V30 4474 H 403.044 -2.24786 -3.51464 0
M  V30 4475 H 401.674 -1.2392 -2.98066 0
M  V30 4476 H 400.726 -3.35139 -1.79962 0
M  V30 4477 H 402.038 -4.28646 -2.55076 0
M  V30 4478 H 401.192 -3.67653 -4.82614 0
M  V30 4479 H 399.931 -2.64002 -4.10066 0
M  V30 4480 H 398.936 -4.63827 -2.95202 0
M  V30 4481 H 400.161 -5.68863 -3.70906 0
M  V30 4482 H 398.107 -4.00652 -5.19436 0
M  V30 4483 H 398.024 -5.71945 -4.94384 0
M  V30 4484 H 399.292 -5.0574 -5.93167 0
M  V30 4485 N 403.521 0.559213 -1.47345 0
M  V30 4486 C 404.77 1.31281 -1.53128 0
M  V30 4487 C 405.083 1.94602 -0.197344 0
M  V30 4488 O 406.289 2.71173 -0.133154 0
M  V30 4489 C 404.745 2.38051 -2.69925 0
M  V30 4490 C 404.353 1.8093 -4.0984 0
M  V30 4491 C 406.097 3.14604 -2.84999 0
M  V30 4492 C 404.004 2.85468 -5.1794 0
M  V30 4493 H 402.934 0.493614 -0.569966 0
M  V30 4494 H 405.585 0.594155 -1.73615 0
M  V30 4495 H 403.967 3.12822 -2.42814 0
M  V30 4496 H 405.141 1.12544 -4.46845 0
M  V30 4497 H 403.456 1.16967 -3.99634 0
M  V30 4498 H 406.053 3.92666 -3.62929 0
M  V30 4499 H 406.396 3.68665 -1.93369 0
M  V30 4500 H 406.929 2.46945 -3.1187 0
M  V30 4501 H 403.668 2.36264 -6.1144 0
M  V30 4502 H 403.188 3.52269 -4.85455 0
M  V30 4503 H 404.867 3.48996 -5.44803 0
M  V30 4504 N 404.999 1.35443 0.805782 0
M  V30 4505 C 405.946 1.28431 1.91766 0
M  V30 4506 C 406.916 0.156102 1.65365 0
M  V30 4507 O 408.101 0.339936 1.87747 0
M  V30 4508 C 405.241 1.06301 3.2832 0
M  V30 4509 C 404.354 2.2805 3.66902 0
M  V30 4510 C 403.489 1.99064 4.92491 0
M  V30 4511 C 402.528 3.16863 5.23703 0
M  V30 4512 N 401.665 2.87647 6.40471 0
M  V30 4513 H 406.505 2.23511 1.97096 0
M  V30 4514 H 404.042 1.11105 0.964054 0
M  V30 4515 H 406 0.915012 4.07042 0
M  V30 4516 H 404.63 0.148822 3.22457 0
M  V30 4517 H 403.682 2.53711 2.83434 0
M  V30 4518 H 404.994 3.1601 3.85927 0
M  V30 4519 H 404.148 1.81099 5.7904 0
M  V30 4520 H 402.887 1.0839 4.75503 0
M  V30 4521 H 401.892 3.35404 4.35642 0
M  V30 4522 H 403.117 4.08339 5.4262 0
M  V30 4523 H 401.063 1.99568 6.24907 0
M  V30 4524 H 400.98 3.69141 6.59751 0
M  V30 4525 H 402.248 2.73226 7.30047 0
M  V30 4526 N 406.477 -1.02803 1.19454 0
M  V30 4527 C 407.705 -1.79841 1.02297 0
M  V30 4528 C 408.12 -1.83879 -0.428259 0
M  V30 4529 O 407.477 -1.28345 -1.29745 0
M  V30 4530 C 407.528 -3.24852 1.58598 0
M  V30 4531 O 407.249 -3.21097 2.98041 0
M  V30 4532 C 408.75 -4.18485 1.46236 0
M  V30 4533 H 405.97 -0.565936 0.360496 0
M  V30 4534 H 408.514 -1.2948 1.58288 0
M  V30 4535 H 406.669 -3.72401 1.06753 0
M  V30 4536 H 407.083 -4.12033 3.24545 0
M  V30 4537 H 408.557 -5.18121 1.90407 0
M  V30 4538 H 409.034 -4.37254 0.41301 0
M  V30 4539 H 409.64 -3.76811 1.97215 0
M  V30 4540 N 407.956 -0.998596 -1.21925 0
M  V30 4541 C 409.181 -0.696015 -1.95372 0
M  V30 4542 C 409.606 0.733826 -1.73195 0
M  V30 4543 O 408.964 1.50242 -1.01474 0
M  V30 4544 C 409.012 -1.01466 -3.4603 0
M  V30 4545 O 408.116 -0.116415 -4.12236 0
M  V30 4546 H 407.457 -0.259938 -0.611006 0
M  V30 4547 H 409.987 -1.33711 -1.54863 0
M  V30 4548 H 409.997 -0.958855 -3.96573 0
M  V30 4549 H 408.672 -2.05653 -3.61497 0
M  V30 4550 H 407.249 -0.228193 -3.72201 0
M  V30 4551 N 409.434 1.37368 -0.772513 0
M  V30 4552 C 410.381 2.30262 -0.157488 0
M  V30 4553 C 411.351 1.51137 0.688965 0
M  V30 4554 O 412.536 1.79704 0.641168 0
M  V30 4555 C 409.676 3.37611 0.715045 0
M  V30 4556 C 408.789 4.31746 -0.148098 0
M  V30 4557 C 407.924 5.26171 0.729213 0
M  V30 4558 C 406.963 6.11948 -0.136418 0
M  V30 4559 N 406.1 6.98613 0.698914 0
M  V30 4560 H 410.94 2.82277 -0.955179 0
M  V30 4561 H 408.477 1.38957 -0.482631 0
M  V30 4562 H 410.435 3.98479 1.23575 0
M  V30 4563 H 409.065 2.86959 1.47833 0
M  V30 4564 H 408.117 3.72178 -0.786613 0
M  V30 4565 H 409.429 4.92084 -0.81579 0
M  V30 4566 H 408.583 5.92247 1.31637 0
M  V30 4567 H 407.322 4.66246 1.43059 0
M  V30 4568 H 406.327 5.4485 -0.736102 0
M  V30 4569 H 407.552 6.73945 -0.835134 0
M  V30 4570 H 405.498 6.41215 1.38489 0
M  V30 4571 H 405.415 7.55948 0.0885358 0
M  V30 4572 H 406.683 7.69077 1.27044 0
M  V30 4573 N 410.912 0.523116 1.48665 0
M  V30 4574 C 411.86 -0.256859 2.31177 0
M  V30 4575 C 412.854 -0.94199 1.40794 0
M  V30 4576 O 414.06 -0.867157 1.57735 0
M  V30 4577 H 410.435 -0.1017 0.745091 0
M  V30 4578 H 412.406 0.458739 2.94853 0
M  V30 4579 C 411.155 -1.29503 3.22683 0
M  V30 4580 H 410.478 -0.777248 3.92172 0
M  V30 4581 H 411.918 -1.81233 3.83315 0
M  V30 4582 C 410.377 -2.32501 2.43813 0
M  V30 4583 O 410.907 -3.3881 2.15803 0
M  V30 4584 N 409.113 -2.05538 2.05432 0
M  V30 4585 H 408.66 -1.19104 2.28412 0
M  V30 4586 H 408.618 -2.74676 1.52973 0
M  V30 4587 N 412.39 -1.55475 0.257931 0
M  V30 4588 C 413.338 -2.23244 -0.653076 0
M  V30 4589 C 414.332 -1.22366 -1.17144 0
M  V30 4590 O 415.538 -1.40347 -1.12706 0
M  V30 4591 H 411.913 -0.716247 -0.229117 0
M  V30 4592 H 413.884 -2.98343 -0.0584788 0
M  V30 4593 C 412.633 -2.95401 -1.83395 0
M  V30 4594 H 411.956 -3.72802 -1.44424 0
M  V30 4595 H 413.396 -3.46165 -2.44838 0
M  V30 4596 C 411.855 -1.99895 -2.71189 0
M  V30 4597 O 412.385 -1.53909 -3.71046 0
M  V30 4598 N 410.591 -1.6676 -2.3799 0
M  V30 4599 H 410.138 -2.04352 -1.56837 0
M  V30 4600 H 410.096 -1.03127 -2.97005 0
M  V30 4601 N 413.868 0.0150385 -1.57593 0
M  V30 4602 C 415.117 0.702115 -1.89085 0
M  V30 4603 C 415.43 1.75764 -0.858277 0
M  V30 4604 O 416.636 2.49829 -1.0629 0
M  V30 4605 C 415.092 1.29992 -3.35604 0
M  V30 4606 C 414.7 0.280007 -4.47124 0
M  V30 4607 C 416.444 1.96606 -3.76227 0
M  V30 4608 C 414.351 0.886949 -5.84711 0
M  V30 4609 H 413.281 0.265997 -0.705522 0
M  V30 4610 H 415.932 -0.0430408 -1.8345 0
M  V30 4611 H 414.314 2.09525 -3.36029 0
M  V30 4612 H 415.488 -0.489631 -4.58191 0
M  V30 4613 H 413.803 -0.284835 -4.15425 0
M  V30 4614 H 416.4 2.42893 -4.76347 0
M  V30 4615 H 416.743 2.79024 -3.08952 0
M  V30 4616 H 417.276 1.23828 -3.78036 0
M  V30 4617 H 414.015 0.101876 -6.55421 0
M  V30 4618 H 413.535 1.6261 -5.77337 0
M  V30 4619 H 415.214 1.39011 -6.3189 0
M  V30 4620 N 415.346 1.54954 0.287554 0
M  V30 4621 C 416.293 1.86834 1.35505 0
M  V30 4622 C 417.263 0.718452 1.49758 0
M  V30 4623 O 418.448 0.968358 1.644 0
M  V30 4624 C 415.588 2.13303 2.71286 0
M  V30 4625 C 414.701 3.40883 2.65373 0
M  V30 4626 C 413.836 3.57125 3.93236 0
M  V30 4627 C 412.875 4.78449 3.81776 0
M  V30 4628 N 412.012 4.91426 5.01443 0
M  V30 4629 H 416.852 2.77889 1.07619 0
M  V30 4630 H 414.389 1.37593 0.520241 0
M  V30 4631 H 416.347 2.26646 3.50267 0
M  V30 4632 H 414.977 1.25499 2.97405 0
M  V30 4633 H 414.029 3.36088 1.78182 0
M  V30 4634 H 415.341 4.29993 2.52799 0
M  V30 4635 H 414.495 3.70207 4.80658 0
M  V30 4636 H 413.234 2.66173 4.0866 0
M  V30 4637 H 412.239 4.65386 2.92738 0
M  V30 4638 H 413.464 5.70822 3.67884 0
M  V30 4639 H 411.41 4.03401 5.17304 0
M  V30 4640 H 411.327 5.74559 4.91343 0
M  V30 4641 H 412.595 5.08879 5.90477 0
M  V30 4642 N 416.824 -0.551391 1.4764 0
M  V30 4643 C 417.772 -1.67896 1.60978 0
M  V30 4644 C 418.766 -1.62549 0.476877 0
M  V30 4645 O 419.972 -1.67664 0.654878 0
M  V30 4646 H 416.347 -0.555649 0.506713 0
M  V30 4647 H 418.318 -1.53784 2.55721 0
M  V30 4648 C 417.067 -3.06234 1.64669 0
M  V30 4649 H 416.39 -3.11033 2.51194 0
M  V30 4650 H 417.83 -3.84804 1.7805 0
M  V30 4651 C 416.289 -3.34737 0.381115 0
M  V30 4652 O 416.819 -3.98381 -0.515297 0
M  V30 4653 N 415.025 -2.8944 0.259354 0
M  V30 4654 H 414.572 -2.37827 0.98976 0
M  V30 4655 H 414.53 -3.08882 -0.586464 0
M  V30 4656 N 418.302 -1.35869 -0.798587 0
M  V30 4657 C 419.55 -1.29332 -1.55298 0
M  V30 4658 C 419.871 0.129729 -1.94568 0
M  V30 4659 O 419.141 1.06796 -1.6423 0
M  V30 4660 H 417.721 -0.475737 -0.57592 0
M  V30 4661 H 420.383 -1.70062 -0.952093 0
M  V30 4662 H 419.479 -1.91458 -2.46476 0
M  V30 4663 N 419.78 1.02168 -1.19998 0
M  V30 4664 C 421.057 1.72816 -0.916191 0
M  V30 4665 C 421.437 2.03081 0.576325 0
M  V30 4666 O 420.785 1.69122 1.53656 0
M  V30 4667 C 420.995 2.9997 -1.78378 0
M  V30 4668 C 422.343 3.73336 -2.02251 0
M  V30 4669 O 423.367 3.09914 -1.75589 0
M  V30 4670 O 422.226 4.87371 -2.47249 0
M  V30 4671 H 419.32 0.752924 -0.342103 0
M  V30 4672 H 421.866 1.08062 -1.30846 0
M  V30 4673 H 420.638 2.73888 -2.79466 0
M  V30 4674 H 420.261 3.72464 -1.39126 0
M  V30 4675 N 421.258 1.00505 1.21394 0
M  V30 4676 C 422.483 0.706367 1.95001 0
M  V30 4677 C 422.908 -0.72463 1.73582 0
M  V30 4678 O 422.266 -1.49702 1.0227 0
M  V30 4679 C 422.314 1.03299 3.45487 0
M  V30 4680 O 421.418 0.138275 4.12168 0
M  V30 4681 H 420.759 0.263175 0.609619 0
M  V30 4682 H 423.289 1.34531 1.54151 0
M  V30 4683 H 423.299 0.979872 3.96059 0
M  V30 4684 H 421.974 2.07567 3.60401 0
M  V30 4685 H 420.551 0.247928 3.72075 0
M  V30 4686 N 422.737 -1.36956 0.779787 0
M  V30 4687 C 423.669 -2.28833 0.129639 0
M  V30 4688 C 424.682 -1.4902 -0.655511 0
M  V30 4689 O 425.871 -1.71578 -0.492279 0
M  V30 4690 C 422.971 -3.2833 -0.839792 0
M  V30 4691 C 422.144 -4.3727 -0.10675 0
M  V30 4692 C 421.203 -5.16789 -0.990717 0
M  V30 4693 O 420.229 -5.67406 -0.451516 0
M  V30 4694 N 421.431 -5.32294 -2.3161 0
M  V30 4695 H 424.196 -2.85268 0.918803 0
M  V30 4696 H 421.757 -1.49019 0.632841 0
M  V30 4697 H 423.749 -3.78413 -1.43477 0
M  V30 4698 H 422.319 -2.72605 -1.52988 0
M  V30 4699 H 421.539 -3.88478 0.669216 0
M  V30 4700 H 422.827 -5.07229 0.399464 0
M  V30 4701 H 422.225 -4.92768 -2.77843 0
M  V30 4702 H 420.782 -5.85656 -2.86095 0
M  V30 4703 N 424.215 -0.530993 -1.48385 0
M  V30 4704 C 425.44 0.000729535 -2.074 0
M  V30 4705 C 425.865 1.27298 -1.3848 0
M  V30 4706 O 425.223 1.75599 -0.451081 0
M  V30 4707 C 425.271 0.206697 -3.60007 0
M  V30 4708 O 424.375 1.27514 -3.92191 0
M  V30 4709 H 423.716 -0.039583 -0.662819 0
M  V30 4710 H 426.246 -0.739194 -1.9078 0
M  V30 4711 H 426.256 0.42904 -4.05738 0
M  V30 4712 H 424.931 -0.722675 -4.09573 0
M  V30 4713 H 423.508 1.03537 -3.58238 0
M  V30 4714 N 425.693 1.55336 -0.266172 0
M  V30 4715 C 426.64 2.22172 0.625165 0
M  V30 4716 C 427.61 1.19211 1.15663 0
M  V30 4717 O 428.795 1.47723 1.20758 0
M  V30 4718 C 425.935 2.93972 1.8076 0
M  V30 4719 C 425.048 4.11632 1.31084 0
M  V30 4720 C 424.183 4.71099 2.45436 0
M  V30 4721 C 423.222 5.8097 1.92718 0
M  V30 4722 N 422.359 6.34538 3.00509 0
M  V30 4723 H 427.199 2.9796 0.0485582 0
M  V30 4724 H 424.736 1.47095 0.0122024 0
M  V30 4725 H 426.694 3.33811 2.50251 0
M  V30 4726 H 425.324 2.20623 2.35638 0
M  V30 4727 H 424.376 3.76975 0.509326 0
M  V30 4728 H 425.688 4.90893 0.884633 0
M  V30 4729 H 424.842 5.13612 3.22936 0
M  V30 4730 H 423.581 3.91096 2.91368 0
M  V30 4731 H 422.586 5.37916 1.13695 0
M  V30 4732 H 423.811 6.62836 1.47733 0
M  V30 4733 H 421.757 5.57433 3.45839 0
M  V30 4734 H 421.674 7.09046 2.62279 0
M  V30 4735 H 422.942 6.81709 3.78011 0
M  V30 4736 N 427.171 -0.0066808 1.57599 0
M  V30 4737 C 428.582 -0.550379 1.78403 0
M  V30 4738 C 428.933 -1.74339 0.900014 0
M  V30 4739 O 428.058 -2.16166 0.100713 0
M  V30 4740 C 428.653 -1.00523 3.23544 0
M  V30 4741 C 427.212 -1.49428 3.45468 0
M  V30 4742 C 426.359 -0.442444 2.73748 0
M  V30 4743 H 429.31 0.219508 1.57175 0
M  V30 4744 H 429.331 -1.87157 3.31289 0
M  V30 4745 H 428.843 -0.136735 3.87859 0
M  V30 4746 H 426.944 -2.3839 2.86358 0
M  V30 4747 H 427.057 -1.52635 4.54136 0
M  V30 4748 H 425.421 -0.902578 2.38171 0
M  V30 4749 H 426.204 0.416973 3.40758 0
M  V30 4750 N 428.649 -1.55105 -0.279332 0
M  V30 4751 C 429.896 -1.75412 -1.01177 0
M  V30 4752 C 430.224 -0.551728 -1.86511 0
M  V30 4753 O 429.479 0.465919 -1.90073 0
M  V30 4754 C 429.778 -3.0086 -1.92919 0
M  V30 4755 C 429.444 -4.33689 -1.23387 0
M  V30 4756 C 428.106 -4.69792 -1.04159 0
M  V30 4757 C 430.458 -5.15941 -0.738562 0
M  V30 4758 C 427.786 -5.85707 -0.341166 0
M  V30 4759 C 430.138 -6.32579 -0.0517636 0
M  V30 4760 C 428.802 -6.67326 0.152292 0
M  V30 4761 H 428.072 -0.641879 -0.370233 0
M  V30 4762 H 430.719 -1.89373 -0.284627 0
M  V30 4763 H 429.024 -2.81773 -2.72234 0
M  V30 4764 H 430.721 -3.13768 -2.49701 0
M  V30 4765 H 427.311 -4.05309 -1.39364 0
M  V30 4766 H 431.495 -4.8853 -0.874764 0
M  V30 4767 H 426.751 -6.11157 -0.172287 0
M  V30 4768 H 430.925 -6.9557 0.339828 0
M  V30 4769 H 428.552 -7.56998 0.697014 0
M  V30 4770 N 430.127 0.543554 -1.4793 0
M  V30 4771 C 431.09 1.63156 -1.60975 0
M  V30 4772 C 432.09 1.53346 -0.483899 0
M  V30 4773 O 433.28 1.5726 -0.749339 0
M  V30 4774 C 430.412 3.02743 -1.56716 0
M  V30 4775 H 431.605 1.52934 -2.57975 0
M  V30 4776 H 429.158 0.764557 -1.36324 0
M  V30 4777 H 429.893 3.18484 -0.611418 0
M  V30 4778 H 429.678 3.11272 -2.38438 0
M  V30 4779 H 431.168 3.81871 -1.6901 0
M  V30 4780 N 431.605 1.3629 0.791371 0
M  V30 4781 C 432.833 1.33562 1.58016 0
M  V30 4782 C 433.248 -0.0835616 1.88615 0
M  V30 4783 O 432.605 -1.0399 1.49974 0
M  V30 4784 C 432.656 2.15517 2.90232 0
M  V30 4785 O 432.377 3.51902 2.60953 0
M  V30 4786 C 433.878 2.20546 3.84544 0
M  V30 4787 H 431.098 0.458226 0.490173 0
M  V30 4788 H 433.642 1.79361 0.982345 0
M  V30 4789 H 431.797 1.73278 3.46487 0
M  V30 4790 H 432.211 3.94644 3.4548 0
M  V30 4791 H 433.685 2.82252 4.74382 0
M  V30 4792 H 434.162 1.20838 4.2225 0
M  V30 4793 H 434.768 2.63013 3.34222 0
M  V30 4794 N 433.083 -1.0153 1.20538 0
M  V30 4795 C 434.329 -1.75408 1.01783 0
M  V30 4796 C 434.662 -1.88943 -0.448814 0
M  V30 4797 O 433.937 -1.4162 -1.33319 0
M  V30 4798 C 434.22 -3.17255 1.70356 0
M  V30 4799 C 434.073 -3.11508 3.24473 0
M  V30 4800 C 435.392 -4.15955 1.43769 0
M  V30 4801 H 432.511 -0.636713 0.371167 0
M  V30 4802 H 435.153 -1.18436 1.4857 0
M  V30 4803 H 433.303 -3.65898 1.30578 0
M  V30 4804 H 434.975 -2.70658 3.73553 0
M  V30 4805 H 433.218 -2.4887 3.55311 0
M  V30 4806 H 433.889 -4.11784 3.67611 0
M  V30 4807 H 436.365 -3.75973 1.7828 0
M  V30 4808 H 435.241 -5.13368 1.94279 0
M  V30 4809 H 435.502 -4.40586 0.365564 0
M  V30 4810 N 434.561 -1.01147 -1.20859 0
M  V30 4811 C 435.807 -0.698899 -1.90377 0
M  V30 4812 C 436.14 0.76904 -1.78324 0
M  V30 4813 O 435.415 1.55817 -1.16409 0
M  V30 4814 C 435.698 -1.12878 -3.41951 0
M  V30 4815 C 435.551 -2.65665 -3.62963 0
M  V30 4816 C 436.87 -0.696114 -4.3456 0
M  V30 4817 H 433.989 -0.255372 -0.691342 0
M  V30 4818 H 436.631 -1.25831 -1.42361 0
M  V30 4819 H 434.781 -0.652827 -3.82976 0
M  V30 4820 H 436.453 -3.21074 -3.31224 0
M  V30 4821 H 434.696 -3.06878 -3.06608 0
M  V30 4822 H 435.367 -2.90797 -4.69192 0
M  V30 4823 H 437.843 -1.10521 -4.01154 0
M  V30 4824 H 436.719 -1.025 -5.39245 0
M  V30 4825 H 436.98 0.402465 -4.40264 0
M  V30 4826 N 436.039 1.36541 -0.78704 0
M  V30 4827 C 437.264 2.0409 -0.369053 0
M  V30 4828 C 437.689 1.58957 1.00569 0
M  V30 4829 O 437.047 0.756926 1.64743 0
M  V30 4830 C 437.095 3.57924 -0.438466 0
M  V30 4831 O 436.199 4.08642 0.555479 0
M  V30 4832 H 435.54 0.645142 -0.157122 0
M  V30 4833 H 438.07 1.74545 -1.06749 0
M  V30 4834 H 438.08 4.06887 -0.301218 0
M  V30 4835 H 436.755 3.90127 -1.44132 0
M  V30 4836 H 435.332 3.70958 0.380088 0
M  V30 4837 N 437.518 0.538854 1.48102 0
M  V30 4838 C 438.766 0.00798599 2.02098 0
M  V30 4839 C 439.087 -1.33922 1.41739 0
M  V30 4840 O 438.357 -1.86932 0.585934 0
M  V30 4841 H 436.937 -3.62179e-05 0.747 0
M  V30 4842 H 439.599 0.7047 1.81714 0
M  V30 4843 H 438.695 -0.0937672 3.11959 0
M  V30 4844 N 438.996 -1.55193 0.274407 0
M  V30 4845 C 439.906 -2.26164 -0.623473 0
M  V30 4846 C 440.922 -1.28729 -1.17068 0
M  V30 4847 O 442.098 -1.61663 -1.20112 0
M  V30 4848 C 439.163 -2.96833 -1.7914 0
M  V30 4849 C 438.224 -4.09745 -1.28093 0
M  V30 4850 C 437.457 -4.77034 -2.3932 0
M  V30 4851 O 437.68 -4.4353 -3.5866 0
M  V30 4852 O 436.614 -5.64996 -2.07516 0
M  V30 4853 H 440.44 -3.03661 -0.0485661 0
M  V30 4854 H 438.025 -1.49341 0.0418382 0
M  V30 4855 H 439.907 -3.41248 -2.4724 0
M  V30 4856 H 438.582 -2.22253 -2.35341 0
M  V30 4857 H 437.489 -3.69787 -0.566416 0
M  V30 4858 H 438.822 -4.86224 -0.764683 0
M  V30 4859 N 440.474 -0.00167713 -1.576 0
M  V30 4860 C 441.437 0.974046 -2.07473 0
M  V30 4861 C 442.437 1.27143 -0.984444 0
M  V30 4862 O 443.627 1.21633 -1.24703 0
M  V30 4863 C 440.759 2.29849 -2.51759 0
M  V30 4864 H 441.952 0.54262 -2.9495 0
M  V30 4865 H 439.505 0.245829 -1.54355 0
M  V30 4866 H 440.24 2.77677 -1.67529 0
M  V30 4867 H 440.025 2.09584 -3.31386 0
M  V30 4868 H 441.515 2.9984 -2.90664 0
M  V30 4869 N 441.952 1.55251 0.271103 0
M  V30 4870 C 442.862 1.9136 1.35714 0
M  V30 4871 C 443.878 0.811075 1.5394 0
M  V30 4872 O 445.054 1.11031 1.6803 0
M  V30 4873 C 442.119 2.1798 2.69603 0
M  V30 4874 C 441.18 3.4153 2.60107 0
M  V30 4875 C 440.413 3.66871 3.8761 0
M  V30 4876 O 440.636 2.94689 4.8838 0
M  V30 4877 O 439.57 4.60405 3.87699 0
M  V30 4878 H 443.396 2.83815 1.08088 0
M  V30 4879 H 440.981 1.41821 0.469792 0
M  V30 4880 H 442.863 2.36518 3.48765 0
M  V30 4881 H 441.538 1.28708 2.97012 0
M  V30 4882 H 440.445 3.28325 1.79314 0
M  V30 4883 H 441.778 4.31027 2.37647 0
M  V30 4884 N 443.43 -0.535701 1.48216 0
M  V30 4885 C 444.655 -1.32149 1.59848 0
M  V30 4886 C 445.08 -1.86338 0.256842 0
M  V30 4887 O 444.438 -1.64107 -0.770632 0
M  V30 4888 C 444.486 -2.45224 2.64381 0
M  V30 4889 O 443.59 -3.48093 2.21144 0
M  V30 4890 H 442.931 -0.391634 0.536208 0
M  V30 4891 H 445.461 -0.645202 1.94161 0
M  V30 4892 H 445.471 -2.91491 2.85476 0
M  V30 4893 H 444.146 -2.05143 3.61786 0
M  V30 4894 H 442.723 -3.07984 2.10239 0
M  V30 4895 N 444.908 -1.36708 -0.784132 0
M  V30 4896 C 445.856 -1.31533 -1.91838 0
M  V30 4897 C 446.85 -0.206205 -1.6814 0
M  V30 4898 O 448.056 -0.373519 -1.76082 0
M  V30 4899 H 444.431 -0.409613 -0.630651 0
M  V30 4900 H 446.402 -2.2731 -1.9332 0
M  V30 4901 C 445.151 -1.12679 -3.28936 0
M  V30 4902 H 444.474 -1.97274 -3.4774 0
M  V30 4903 H 445.914 -1.13106 -4.08636 0
M  V30 4904 C 444.373 0.168281 -3.36479 0
M  V30 4905 O 444.903 1.15625 -3.84699 0
M  V30 4906 N 443.109 0.214762 -2.89805 0
M  V30 4907 H 442.656 -0.589852 -2.50756 0
M  V30 4908 H 442.614 1.08094 -2.95234 0
M  V30 4909 N 446.386 1.0089 -1.21074 0
M  V30 4910 C 447.336 2.0799 -0.934034 0
M  V30 4911 C 448.32 1.60529 0.10919 0
M  V30 4912 O 449.512 1.76722 -0.0992198 0
M  V30 4913 C 446.641 3.39693 -0.496334 0
M  V30 4914 C 445.727 3.93833 -1.57341 0
M  V30 4915 N 446.118 4.21388 -2.7976 0
M  V30 4916 C 444.416 4.22067 -1.44137 0
M  V30 4917 C 445.117 4.65156 -3.49292 0
M  V30 4918 N 444.093 4.67895 -2.76722 0
M  V30 4919 H 447.895 2.27213 -1.86417 0
M  V30 4920 H 445.409 1.18927 -1.10589 0
M  V30 4921 H 447.406 4.15962 -0.279471 0
M  V30 4922 H 446.066 3.21879 0.427084 0
M  V30 4923 H 447.077 4.10061 -3.1634 0
M  V30 4924 H 443.754 4.1341 -0.582947 0
M  V30 4925 H 445.144 4.95231 -4.54088 0
M  V30 4926 N 447.864 1.01787 1.20321 0
M  V30 4927 C 448.774 0.598898 2.26827 0
M  V30 4928 C 449.79 -0.36418 1.70146 0
M  V30 4929 O 450.966 -0.224812 2.00141 0
M  V30 4930 C 448.031 -0.0549769 3.46656 0
M  V30 4931 C 447.092 0.954205 4.18561 0
M  V30 4932 C 446.325 0.331439 5.3267 0
M  V30 4933 O 446.548 -0.86851 5.63749 0
M  V30 4934 O 445.482 1.0488 5.92692 0
M  V30 4935 H 449.308 1.48562 2.64883 0
M  V30 4936 H 446.893 0.787434 1.26964 0
M  V30 4937 H 448.775 -0.420102 4.19301 0
M  V30 4938 H 447.45 -0.915876 3.10473 0
M  V30 4939 H 446.357 1.37072 3.48083 0
M  V30 4940 H 447.69 1.78511 4.58688 0
M  V30 4941 N 449.342 -1.36122 0.79427 0
M  V30 4942 C 450.588 -1.99406 0.369452 0
M  V30 4943 C 450.921 -1.62886 -1.05743 0
M  V30 4944 O 450.196 -0.886053 -1.73145 0
M  V30 4945 C 450.479 -3.56046 0.538833 0
M  V30 4946 C 450.332 -4.02404 2.00976 0
M  V30 4947 C 451.651 -4.40079 -0.0431359 0
M  V30 4948 H 448.77 -0.724397 0.135712 0
M  V30 4949 H 451.412 -1.61461 1.00151 0
M  V30 4950 H 449.562 -3.885 0.000771004 0
M  V30 4951 H 451.234 -3.80415 2.60926 0
M  V30 4952 H 449.477 -3.53765 2.51063 0
M  V30 4953 H 450.148 -5.11344 2.07922 0
M  V30 4954 H 452.624 -4.14013 0.416228 0
M  V30 4955 H 451.5 -5.48799 0.105374 0
M  V30 4956 H 451.761 -4.27264 -1.13571 0
M  V30 4957 N 450.82 -0.546701 -1.47814 0
M  V30 4958 C 452.069 -0.0166497 -2.01693 0
M  V30 4959 C 452.382 1.33721 -1.42752 0
M  V30 4960 O 453.588 1.95658 -1.8823 0
M  V30 4961 C 452.044 0.0206769 -3.59894 0
M  V30 4962 C 451.652 -1.3293 -4.27824 0
M  V30 4963 C 453.396 0.498674 -4.21561 0
M  V30 4964 C 451.303 -1.25165 -5.78003 0
M  V30 4965 H 450.233 -0.0024541 -0.753996 0
M  V30 4966 H 452.884 -0.692984 -1.69912 0
M  V30 4967 H 451.266 0.76244 -3.88591 0
M  V30 4968 H 452.44 -2.08795 -4.10781 0
M  V30 4969 H 450.755 -1.74438 -3.78101 0
M  V30 4970 H 453.352 0.575 -5.31599 0
M  V30 4971 H 453.695 1.5083 -3.88016 0
M  V30 4972 H 454.228 -0.18791 -3.97356 0
M  V30 4973 H 450.967 -2.23695 -6.1615 0
M  V30 4974 H 450.487 -0.53464 -5.97412 0
M  V30 4975 H 452.166 -0.949299 -6.39998 0
M  V30 4976 N 452.299 1.55045 -0.282633 0
M  V30 4977 C 453.249 2.19514 0.616249 0
M  V30 4978 C 454.233 1.16216 1.11277 0
M  V30 4979 O 455.425 1.42004 1.05659 0
M  V30 4980 C 452.554 2.92548 1.7964 0
M  V30 4981 C 451.64 4.03142 1.31671 0
M  V30 4982 N 452.031 5.0276 0.553695 0
M  V30 4983 C 450.329 4.1635 1.59903 0
M  V30 4984 C 451.03 5.80923 0.30054 0
M  V30 4985 N 450.006 5.3651 0.875116 0
M  V30 4986 H 453.808 2.93889 0.0255363 0
M  V30 4987 H 451.322 1.62169 -0.0865362 0
M  V30 4988 H 453.319 3.37188 2.45173 0
M  V30 4989 H 451.979 2.19685 2.39099 0
M  V30 4990 H 452.99 5.17512 0.20032 0
M  V30 4991 H 449.667 3.54682 2.20243 0
M  V30 4992 H 451.057 6.7118 -0.311053 0
M  V30 4993 N 453.777 0.010035 1.57597 0
M  V30 4994 C 455.188 -0.531426 1.78977 0
M  V30 4995 C 455.539 -1.73375 0.918454 0
M  V30 4996 O 454.664 -2.16047 0.123635 0
M  V30 4997 C 455.259 -0.97086 3.24592 0
M  V30 4998 C 453.818 -1.45756 3.47033 0
M  V30 4999 C 452.965 -0.413384 2.74201 0
M  V30 5000 H 455.916 0.236166 1.56933 0
M  V30 5001 H 455.937 -1.83633 3.33255 0
M  V30 5002 H 455.449 -0.0955893 3.87982 0
M  V30 5003 H 453.55 -2.35339 2.88871 0
M  V30 5004 H 453.663 -1.4781 4.55729 0
M  V30 5005 H 452.027 -0.877266 2.39115 0
M  V30 5006 H 452.81 0.453092 3.40297 0
M  V30 5007 N 455.255 -1.55392 -0.262866 0
M  V30 5008 C 456.187 -1.85392 -1.34768 0
M  V30 5009 C 457.2 -0.739069 -1.45057 0
M  V30 5010 O 458.389 -1.01703 -1.46693 0
M  V30 5011 C 455.489 -2.01088 -2.72795 0
M  V30 5012 C 454.662 -3.31828 -2.84972 0
M  V30 5013 C 453.721 -3.37464 -4.03738 0
M  V30 5014 O 452.747 -4.10778 -3.94018 0
M  V30 5015 N 453.949 -2.65599 -5.16176 0
M  V30 5016 H 456.714 -2.79029 -1.09375 0
M  V30 5017 H 454.275 -1.55434 -0.452981 0
M  V30 5018 H 456.267 -2.02217 -3.50557 0
M  V30 5019 H 454.837 -1.1427 -2.90966 0
M  V30 5020 H 454.057 -3.43152 -1.94012 0
M  V30 5021 H 455.345 -4.18032 -2.90045 0
M  V30 5022 H 454.743 -2.05736 -5.26962 0
M  V30 5023 H 453.3 -2.72439 -5.92132 0
M  V30 5024 N 456.733 0.527833 -1.48498 0
M  V30 5025 C 458.144 1.10975 -1.50138 0
M  V30 5026 C 458.495 1.943 -0.272378 0
M  V30 5027 O 457.62 2.07319 0.620301 0
M  V30 5028 C 458.215 2.01927 -2.72049 0
M  V30 5029 C 456.774 2.55332 -2.76554 0
M  V30 5030 C 455.921 1.32341 -2.43683 0
M  V30 5031 H 458.872 0.312986 -1.55583 0
M  V30 5032 H 458.893 2.86244 -2.50689 0
M  V30 5033 H 458.405 1.41254 -3.61481 0
M  V30 5034 H 456.506 3.19721 -1.91336 0
M  V30 5035 H 456.619 2.94319 -3.78038 0
M  V30 5036 H 454.983 1.63989 -1.94884 0
M  V30 5037 H 455.766 0.734165 -3.35358 0
M  V30 5038 N 458.211 1.37122 0.776871 0
M  V30 5039 C 459.141 1.35164 1.90402 0
M  V30 5040 C 460.122 0.221069 1.68657 0
M  V30 5041 O 461.307 0.420642 1.8959 0
M  V30 5042 C 458.437 1.15274 3.27611 0
M  V30 5043 C 457.391 2.25289 3.63908 0
M  V30 5044 C 456.717 1.90527 4.99603 0
M  V30 5045 C 458.017 3.67446 3.71188 0
M  V30 5046 H 459.711 2.29482 1.92297 0
M  V30 5047 H 457.257 1.10465 0.923773 0
M  V30 5048 H 459.21 1.12536 4.06096 0
M  V30 5049 H 457.934 0.174102 3.26136 0
M  V30 5050 H 456.593 2.27174 2.87728 0
M  V30 5051 H 456.241 0.91206 4.94662 0
M  V30 5052 H 455.941 2.64193 5.24858 0
M  V30 5053 H 457.465 1.89367 5.80493 0
M  V30 5054 H 458.879 3.67719 4.39836 0
M  V30 5055 H 457.276 4.40123 4.07936 0
M  V30 5056 H 458.346 4.01443 2.71977 0
M  V30 5057 N 459.689 -1.00246 1.21608 0
M  V30 5058 C 460.914 -1.78167 1.06167 0
M  V30 5059 C 461.339 -1.84138 -0.384035 0
M  V30 5060 O 460.697 -1.28683 -1.27712 0
M  V30 5061 C 460.745 -3.19786 1.66642 0
M  V30 5062 O 459.849 -4.02153 0.913613 0
M  V30 5063 H 459.19 -0.549 0.37349 0
M  V30 5064 H 461.72 -1.25994 1.61204 0
M  V30 5065 H 461.73 -3.70451 1.70969 0
M  V30 5066 H 460.405 -3.14754 2.7185 0
M  V30 5067 H 458.982 -3.60711 0.945635 0
M  V30 5068 N 461.167 -1.02423 -1.1978 0
M  V30 5069 C 462.392 -0.7373 -1.93852 0
M  V30 5070 C 462.817 0.696923 -1.74713 0
M  V30 5071 O 462.175 1.48056 -1.04638 0
M  V30 5072 C 462.223 -1.08783 -3.438 0
M  V30 5073 O 461.327 -0.20383 -4.11896 0
M  V30 5074 H 460.668 -0.27284 -0.605355 0
M  V30 5075 H 463.198 -1.36966 -1.51992 0
M  V30 5076 H 463.208 -1.04276 -3.9445 0
M  V30 5077 H 461.883 -2.13274 -3.57053 0
M  V30 5078 H 460.46 -0.307091 -3.71633 0
M  V30 5079 N 462.645 1.35699 -0.801477 0
M  V30 5080 C 463.555 2.33661 -0.209691 0
M  V30 5081 C 464.571 1.6162 0.644591 0
M  V30 5082 O 465.747 1.93529 0.557545 0
M  V30 5083 C 462.812 3.40816 0.636033 0
M  V30 5084 C 461.873 4.28639 -0.238147 0
M  V30 5085 C 461.106 5.30676 0.567307 0
M  V30 5086 O 461.329 5.41174 1.8024 0
M  V30 5087 O 460.263 6.01887 -0.0391336 0
M  V30 5088 H 464.089 2.8606 -1.01996 0
M  V30 5089 H 461.674 1.38379 -0.563164 0
M  V30 5090 H 463.556 4.06301 1.11791 0
M  V30 5091 H 462.231 2.90696 1.42399 0
M  V30 5092 H 461.138 3.66152 -0.767044 0
M  V30 5093 H 462.471 4.82143 -0.989915 0
M  V30 5094 N 464.123 0.554532 1.47522 0
M  V30 5095 C 465.371 0.0294208 2.02079 0
M  V30 5096 C 465.692 -1.32411 1.43151 0
M  V30 5097 O 464.962 -1.863 0.605728 0
M  V30 5098 H 463.542 0.00788672 0.746958 0
M  V30 5099 H 466.204 0.723934 1.80956 0
M  V30 5100 H 465.3 -0.0606745 3.12041 0
M  V30 5101 N 465.601 -1.54893 0.290851 0
M  V30 5102 C 466.826 -2.04804 -0.32712 0
M  V30 5103 C 467.251 -1.16721 -1.47506 0
M  V30 5104 O 466.609 -0.169107 -1.8051 0
M  V30 5105 C 466.657 -3.52268 -0.770689 0
M  V30 5106 O 465.761 -3.67236 -1.87647 0
M  V30 5107 H 465.102 -0.660789 -0.0652227 0
M  V30 5108 H 467.632 -2.00036 0.429739 0
M  V30 5109 H 467.642 -3.9393 -1.06223 0
M  V30 5110 H 466.317 -4.15843 0.069096 0
M  V30 5111 H 464.894 -3.37479 -1.58626 0
M  V30 5112 N 467.08 -0.0183926 -1.57589 0
M  V30 5113 C 468.012 0.995557 -2.06449 0
M  V30 5114 C 469.025 1.29556 -0.985849 0
M  V30 5115 O 470.214 1.2621 -1.26227 0
M  V30 5116 C 467.314 2.32572 -2.46502 0
M  V30 5117 C 466.487 2.21245 -3.77319 0
M  V30 5118 C 465.546 3.37104 -4.04039 0
M  V30 5119 O 464.572 3.14468 -4.74445 0
M  V30 5120 N 465.774 4.60553 -3.53372 0
M  V30 5121 H 468.539 0.578746 -2.94059 0
M  V30 5122 H 466.1 0.168603 -1.6102 0
M  V30 5123 H 468.092 3.08887 -2.61478 0
M  V30 5124 H 466.662 2.65931 -1.64315 0
M  V30 5125 H 465.882 1.29723 -3.72244 0
M  V30 5126 H 467.17 2.10868 -4.63047 0
M  V30 5127 H 466.568 4.81839 -2.96391 0
M  V30 5128 H 465.125 5.34072 -3.73644 0
M  V30 5129 N 468.558 1.5553 0.254621 0
M  V30 5130 C 469.786 1.81046 1.00149 0
M  V30 5131 C 470.201 0.593047 1.79244 0
M  V30 5132 O 469.558 -0.438196 1.77161 0
M  V30 5133 C 469.609 3.04684 1.94551 0
M  V30 5134 O 469.33 4.21725 1.18658 0
M  V30 5135 C 470.831 3.42943 2.80901 0
M  V30 5136 H 468.051 0.602653 0.295044 0
M  V30 5137 H 470.595 2.02576 0.279842 0
M  V30 5138 H 468.75 2.85226 2.62154 0
M  V30 5139 H 469.164 4.91746 1.82445 0
M  V30 5140 H 470.638 4.32576 3.42902 0
M  V30 5141 H 471.115 2.63176 3.51617 0
M  V30 5142 H 471.721 3.64724 2.18762 0
M  V30 5143 N 470.036 -0.519951 1.48776 0
M  V30 5144 C 471.266 -1.29783 1.60748 0
M  V30 5145 C 471.674 -1.87253 0.27072 0
M  V30 5146 O 471.017 -1.67628 -0.751438 0
M  V30 5147 C 471.079 -2.47984 2.60277 0
M  V30 5148 C 470.743 -2.11526 4.051 0
M  V30 5149 C 471.74 -1.66608 4.92481 0
M  V30 5150 C 469.425 -2.21742 4.50706 0
M  V30 5151 C 471.419 -1.32384 6.23501 0
M  V30 5152 C 469.106 -1.87129 5.81744 0
M  V30 5153 C 470.104 -1.42523 6.67964 0
M  V30 5154 O 469.792 -1.0837 7.96562 0
M  V30 5155 H 469.524 -0.400562 0.544542 0
M  V30 5156 H 472.078 -0.632879 1.95407 0
M  V30 5157 H 470.308 -3.17493 2.2076 0
M  V30 5158 H 471.997 -3.10036 2.61978 0
M  V30 5159 H 472.763 -1.58178 4.58481 0
M  V30 5160 H 468.642 -2.55415 3.83776 0
M  V30 5161 H 472.186 -0.974949 6.90754 0
M  V30 5162 H 468.083 -1.95204 6.15277 0
M  V30 5163 H 468.851 -1.21681 8.09405 0
M  V30 5164 N 471.514 -1.37532 -0.769588 0
M  V30 5165 C 472.763 -1.32183 -1.5235 0
M  V30 5166 C 473.076 0.0906555 -1.9539 0
M  V30 5167 O 474.282 0.266628 -2.70188 0
M  V30 5168 C 472.738 -2.32029 -2.75119 0
M  V30 5169 C 472.346 -3.78816 -2.3917 0
M  V30 5170 C 474.09 -2.35694 -3.53056 0
M  V30 5171 C 471.997 -4.70388 -3.58453 0
M  V30 5172 H 470.927 -0.491275 -0.571984 0
M  V30 5173 H 473.578 -1.63004 -0.842739 0
M  V30 5174 H 471.96 -1.94229 -3.45096 0
M  V30 5175 H 473.134 -4.25466 -1.76962 0
M  V30 5176 H 471.449 -3.78117 -1.74402 0
M  V30 5177 H 474.046 -3.01312 -4.41718 0
M  V30 5178 H 474.389 -1.37117 -3.93071 0
M  V30 5179 H 474.922 -2.72212 -2.90078 0
M  V30 5180 H 471.661 -5.70102 -3.23518 0
M  V30 5181 H 471.181 -4.28442 -4.19758 0
M  V30 5182 H 472.86 -4.87628 -4.25239 0
M  V30 5183 N 472.992 0.995999 -1.22138 0
M  V30 5184 C 473.925 2.08302 -0.931952 0
M  V30 5185 C 474.903 1.62127 0.123956 0
M  V30 5186 O 476.087 1.88499 -0.00696004 0
M  V30 5187 C 473.214 3.36317 -0.401068 0
M  V30 5188 C 472.26 4.01413 -1.44117 0
M  V30 5189 S 473.093 4.42664 -3.01345 0
M  V30 5190 C 474.249 5.73853 -2.49887 0
M  V30 5191 H 474.482 2.32532 -1.85246 0
M  V30 5192 H 472.015 1.13005 -1.0521 0
M  V30 5193 H 473.973 4.10375 -0.101352 0
M  V30 5194 H 472.634 3.10123 0.498272 0
M  V30 5195 H 471.827 4.9358 -1.01952 0
M  V30 5196 H 471.429 3.33668 -1.68943 0
M  V30 5197 H 473.721 6.50039 -1.90934 0
M  V30 5198 H 474.664 6.20841 -3.40532 0
M  V30 5199 H 475.072 5.31105 -1.9128 0
M  V30 5200 N 474.47 1.03057 1.19235 0
M  V30 5201 C 475.718 0.726581 1.88587 0
M  V30 5202 C 476.039 -0.747227 1.80115 0
M  V30 5203 O 475.309 -1.53849 1.21274 0
M  V30 5204 H 473.889 0.265768 0.698124 0
M  V30 5205 H 476.551 1.30516 1.44746 0
M  V30 5206 H 475.647 1.0224 2.94879 0
M  V30 5207 N 475.948 -1.35272 0.808662 0
M  V30 5208 C 476.858 -2.33546 0.222079 0
M  V30 5209 C 477.874 -1.6196 -0.636011 0
M  V30 5210 O 479.05 -1.93822 -0.547274 0
M  V30 5211 C 476.115 -3.41148 -0.61795 0
M  V30 5212 C 475.176 -4.28507 0.260875 0
M  V30 5213 C 474.409 -5.3097 -0.539156 0
M  V30 5214 O 474.632 -5.42123 -1.77367 0
M  V30 5215 O 473.566 -6.01858 0.0710526 0
M  V30 5216 H 477.392 -2.85515 1.03512 0
M  V30 5217 H 474.977 -1.38079 0.570495 0
M  V30 5218 H 476.859 -4.06889 -1.09634 0
M  V30 5219 H 475.534 -2.91447 -1.40855 0
M  V30 5220 H 474.441 -3.6574 0.786451 0
M  V30 5221 H 475.774 -4.81611 1.01547 0
M  V30 5222 N 477.426 -0.562348 -1.47226 0
M  V30 5223 C 478.674 -0.0401371 -2.0206 0
M  V30 5224 C 478.995 1.3165 -1.43852 0
M  V30 5225 O 478.265 1.85976 -0.615599 0
M  V30 5226 H 476.845 -0.0118479 -0.746906 0
M  V30 5227 H 479.507 -0.73352 -1.8057 0
M  V30 5228 H 478.603 0.0441254 -3.12069 0
M  V30 5229 N 478.904 1.54736 -0.299062 0
M  V30 5230 C 479.851 2.23448 0.577899 0
M  V30 5231 C 480.821 1.21637 1.13109 0
M  V30 5232 O 482.006 1.50252 1.17597 0
M  V30 5233 C 479.146 2.9774 1.74484 0
M  V30 5234 C 478.259 4.1432 1.22323 0
M  V30 5235 C 477.394 4.76199 2.35388 0
M  V30 5236 C 476.433 5.84927 1.80351 0
M  V30 5237 N 475.57 6.4077 2.86982 0
M  V30 5238 H 480.41 2.97996 -0.0146545 0
M  V30 5239 H 477.947 1.47088 -0.0190013 0
M  V30 5240 H 479.905 3.39045 2.43114 0
M  V30 5241 H 478.535 2.25572 2.30905 0
M  V30 5242 H 477.587 3.7797 0.429249 0
M  V30 5243 H 478.899 4.92659 0.780309 0
M  V30 5244 H 478.053 5.20346 3.11969 0
M  V30 5245 H 476.792 3.97188 2.83006 0
M  V30 5246 H 475.797 5.40207 1.02259 0
M  V30 5247 H 477.022 6.65821 1.3364 0
M  V30 5248 H 474.968 5.64643 3.33938 0
M  V30 5249 H 474.885 7.1445 2.4718 0
M  V30 5250 H 476.153 6.89574 3.63466 0
M  V30 5251 N 480.382 0.0267497 1.57577 0
M  V30 5252 C 481.622 -0.65659 1.93567 0
M  V30 5253 C 481.986 -1.69429 0.903213 0
M  V30 5254 O 483.187 -2.42994 1.14923 0
M  V30 5255 C 481.458 -1.25912 3.34486 0
M  V30 5256 S 483.017 -1.96386 3.924 0
M  V30 5257 H 479.835 -0.216237 0.67732 0
M  V30 5258 H 482.437 0.0898475 1.95293 0
M  V30 5259 H 481.141 -0.491405 4.07447 0
M  V30 5260 H 480.672 -2.04291 3.36198 0
M  V30 5261 H 482.687 -3.24202 3.75643 0
M  V30 5262 N 481.861 -1.55662 -0.24637 0
M  V30 5263 C 482.791 -1.93377 -1.30873 0
M  V30 5264 C 483.772 -0.798773 -1.50179 0
M  V30 5265 O 484.957 -1.0591 -1.62778 0
M  V30 5266 C 482.087 -2.22893 -2.66338 0
M  V30 5267 C 481.041 -3.38649 -2.61727 0
M  V30 5268 C 480.367 -3.53708 -4.00992 0
M  V30 5269 C 481.667 -4.74323 -2.18666 0
M  V30 5270 H 483.361 -2.82363 -0.995552 0
M  V30 5271 H 480.907 -1.35854 -0.477464 0
M  V30 5272 H 482.86 -2.47866 -3.40794 0
M  V30 5273 H 481.584 -1.30733 -2.99293 0
M  V30 5274 H 480.243 -3.13685 -1.89729 0
M  V30 5275 H 479.891 -2.58967 -4.31214 0
M  V30 5276 H 479.591 -4.31551 -3.98795 0
M  V30 5277 H 481.115 -3.81003 -4.77147 0
M  V30 5278 H 482.529 -4.98665 -2.82854 0
M  V30 5279 H 480.926 -5.55273 -2.27579 0
M  V30 5280 H 481.996 -4.71349 -1.13834 0
M  V30 5281 N 483.339 0.512053 -1.4905 0
M  V30 5282 C 484.564 1.2959 -1.6193 0
M  V30 5283 C 484.989 1.85906 -0.286454 0
M  V30 5284 O 484.347 1.65312 0.744426 0
M  V30 5285 C 484.395 2.40987 -2.68249 0
M  V30 5286 O 483.499 3.44531 -2.26654 0
M  V30 5287 H 482.84 0.383053 -0.542371 0
M  V30 5288 H 485.37 0.614231 -1.95162 0
M  V30 5289 H 485.38 2.86913 -2.90078 0
M  V30 5290 H 484.055 1.99361 -3.65004 0
M  V30 5291 H 482.632 3.046 -2.15112 0
M  V30 5292 N 484.817 1.37938 0.762283 0
M  V30 5293 C 485.749 1.30349 1.88525 0
M  V30 5294 C 486.762 0.217402 1.61342 0
M  V30 5295 O 487.951 0.474291 1.72084 0
M  V30 5296 C 485.051 0.994844 3.23969 0
M  V30 5297 C 484.224 2.18829 3.78725 0
M  V30 5298 C 483.283 1.84844 4.92665 0
M  V30 5299 O 482.309 2.57244 5.07754 0
M  V30 5300 N 483.511 0.798201 5.74986 0
M  V30 5301 H 486.276 2.27114 1.95549 0
M  V30 5302 H 483.837 1.31686 0.941825 0
M  V30 5303 H 485.829 0.748168 3.97724 0
M  V30 5304 H 484.399 0.115446 3.12387 0
M  V30 5305 H 483.619 2.59615 2.96637 0
M  V30 5306 H 484.907 2.98497 4.1204 0
M  V30 5307 H 484.305 0.197611 5.65355 0
M  V30 5308 H 482.862 0.611396 6.48926 0
M  V30 5309 N 486.295 -0.989507 1.22664 0
M  V30 5310 C 487.205 -2.11449 1.01619 0
M  V30 5311 C 488.221 -1.73962 -0.036545 0
M  V30 5312 O 489.397 -2.00788 0.156924 0
M  V30 5313 C 486.462 -3.41465 0.600204 0
M  V30 5314 C 485.523 -3.93033 1.72695 0
M  V30 5315 C 484.756 -5.16844 1.33071 0
M  V30 5316 O 484.979 -5.7001 0.210975 0
M  V30 5317 O 483.913 -5.6225 2.14845 0
M  V30 5318 H 487.739 -2.32088 1.9588 0
M  V30 5319 H 485.324 -1.09823 1.01289 0
M  V30 5320 H 487.206 -4.19695 0.37873 0
M  V30 5321 H 485.881 -3.22178 -0.313511 0
M  V30 5322 H 484.788 -3.15961 2.00298 0
M  V30 5323 H 486.121 -4.16758 2.61865 0
M  V30 5324 N 487.773 -1.03688 -1.18687 0
M  V30 5325 C 488.72 -0.624624 -2.22187 0
M  V30 5326 C 489.69 0.365636 -1.62026 0
M  V30 5327 O 490.875 0.260481 -1.89014 0
M  V30 5328 C 488.015 0.0101738 -3.45099 0
M  V30 5329 C 487.128 -1.02709 -4.19613 0
M  V30 5330 C 486.263 -0.361213 -5.2997 0
M  V30 5331 C 485.302 -1.38384 -5.96252 0
M  V30 5332 N 484.439 -0.743196 -6.98155 0
M  V30 5333 H 489.279 -1.51176 -2.56807 0
M  V30 5334 H 486.816 -0.75636 -1.26165 0
M  V30 5335 H 488.774 0.395528 -4.15321 0
M  V30 5336 H 487.404 0.860848 -3.1111 0
M  V30 5337 H 486.456 -1.53043 -3.48256 0
M  V30 5338 H 487.768 -1.80398 -4.65036 0
M  V30 5339 H 486.922 0.0785537 -6.06649 0
M  V30 5340 H 485.661 0.447799 -4.8564 0
M  V30 5341 H 484.666 -1.83378 -5.18317 0
M  V30 5342 H 485.891 -2.19448 -6.42666 0
M  V30 5343 H 483.837 0.0455789 -6.55984 0
M  V30 5344 H 483.754 -1.45784 -7.41811 0
M  V30 5345 H 485.022 -0.327698 -7.78811 0
M  V30 5346 N 489.251 1.34841 -0.815825 0
M  V30 5347 C 490.662 1.80937 -0.46029 0
M  V30 5348 C 491.013 1.67685 1.01863 0
M  V30 5349 O 490.138 1.21277 1.79223 0
M  V30 5350 C 490.733 3.28509 -0.828708 0
M  V30 5351 C 489.292 3.72712 -0.525644 0
M  V30 5352 C 488.439 2.56676 -1.04941 0
M  V30 5353 H 491.39 1.22688 -1.00664 0
M  V30 5354 H 491.411 3.80279 -0.129757 0
M  V30 5355 H 490.923 3.38122 -1.90513 0
M  V30 5356 H 489.024 3.68642 0.541666 0
M  V30 5357 H 489.137 4.67119 -1.06474 0
M  V30 5358 H 487.501 2.50302 -0.471286 0
M  V30 5359 H 488.284 2.69063 -2.13214 0
M  V30 5360 N 490.729 0.570148 1.46925 0
M  V30 5361 C 492.145 0.23087 1.57921 0
M  V30 5362 C 492.345 -1.26676 1.56702 0
M  V30 5363 O 491.401 -2.04774 1.47729 0
M  V30 5364 C 492.714 0.868973 2.8787 0
M  V30 5365 C 494.262 0.841397 3.01479 0
M  V30 5366 C 494.737 1.45881 4.34146 0
M  V30 5367 N 496.228 1.42258 4.40814 0
M  V30 5368 C 496.963 1.8698 5.42057 0
M  V30 5369 N 496.459 2.39618 6.50042 0
M  V30 5370 N 498.252 1.77972 5.33181 0
M  V30 5371 H 490.403 1.54301 1.45962 0
M  V30 5372 H 492.666 0.644224 0.69547 0
M  V30 5373 H 492.372 1.922 2.94537 0
M  V30 5374 H 492.246 0.369682 3.75384 0
M  V30 5375 H 494.633 -0.202973 2.94401 0
M  V30 5376 H 494.714 1.37858 2.15474 0
M  V30 5377 H 494.358 2.50231 4.4198 0
M  V30 5378 H 494.288 0.896958 5.18905 0
M  V30 5379 H 496.779 1.03768 3.63374 0
M  V30 5380 H 497.092 2.71633 7.23488 0
M  V30 5381 H 495.437 2.43636 6.50897 0
M  V30 5382 H 498.628 1.36617 4.4772 0
M  V30 5383 H 498.801 2.13143 6.11943 0
M  V30 5384 N 492.207 -1.54576 0.307264 0
M  V30 5385 C 493.17 -2.22423 -0.553224 0
M  V30 5386 C 494.17 -1.21231 -1.05639 0
M  V30 5387 O 495.36 -1.45923 -0.951419 0
M  V30 5388 C 492.492 -2.91552 -1.76664 0
M  V30 5389 H 493.685 -2.99874 0.0396484 0
M  V30 5390 H 491.238 -1.56192 0.0581629 0
M  V30 5391 H 491.973 -2.18196 -2.39918 0
M  V30 5392 H 491.758 -3.65738 -1.41343 0
M  V30 5393 H 493.248 -3.43292 -2.37783 0
M  V30 5394 N 493.685 -0.035106 -1.57561 0
M  V30 5395 C 494.91 0.655802 -1.96759 0
M  V30 5396 C 495.335 1.64523 -0.911809 0
M  V30 5397 O 494.693 1.80857 0.126673 0
M  V30 5398 C 494.741 1.33326 -3.35047 0
M  V30 5399 O 493.845 2.44866 -3.31835 0
M  V30 5400 H 493.186 0.171807 -0.641388 0
M  V30 5401 H 495.716 -0.0987369 -2.04362 0
M  V30 5402 H 495.726 1.68867 -3.71413 0
M  V30 5403 H 494.401 0.608033 -4.11431 0
M  V30 5404 H 492.978 2.11392 -3.07193 0
M  V30 5405 N 495.163 1.55791 0.238111 0
M  V30 5406 C 496.411 1.77681 0.963001 0
M  V30 5407 C 496.732 0.600674 1.85518 0
M  V30 5408 O 496.002 -0.383182 1.92116 0
M  V30 5409 H 494.582 0.655315 0.358568 0
M  V30 5410 H 497.244 1.93239 0.253945 0
M  V30 5411 H 496.34 2.69177 1.57956 0
M  V30 5412 N 496.642 -0.504142 1.49319 0
M  V30 5413 C 497.572 -1.61473 1.68667 0
M  V30 5414 C 498.553 -1.61455 0.535378 0
M  V30 5415 O 499.738 -1.78245 0.770868 0
M  V30 5416 C 496.868 -2.99971 1.75028 0
M  V30 5417 C 495.822 -3.14854 2.89916 0
M  V30 5418 C 495.148 -4.54671 2.81387 0
M  V30 5419 C 496.448 -2.95176 4.30893 0
M  V30 5420 H 498.142 -1.45535 2.61648 0
M  V30 5421 H 495.688 -0.698711 1.25913 0
M  V30 5422 H 497.641 -3.77562 1.8715 0
M  V30 5423 H 496.365 -3.1699 0.786441 0
M  V30 5424 H 495.024 -2.39687 2.77391 0
M  V30 5425 H 494.672 -4.68562 1.82917 0
M  V30 5426 H 494.372 -4.6557 3.58494 0
M  V30 5427 H 495.896 -5.34327 2.95512 0
M  V30 5428 H 497.31 -3.62538 4.44116 0
M  V30 5429 H 495.707 -3.17549 5.09198 0
M  V30 5430 H 496.777 -1.91332 4.45556 0
M  V30 5431 N 498.12 -1.38341 -0.754957 0
M  V30 5432 C 499.05 -1.38176 -1.88227 0
M  V30 5433 C 500.031 -0.247873 -1.68284 0
M  V30 5434 O 501.216 -0.45075 -1.88896 0
M  V30 5435 C 498.346 -1.20471 -3.25736 0
M  V30 5436 C 497.3 -2.3105 -3.60278 0
M  V30 5437 C 496.626 -1.98452 -4.96509 0
M  V30 5438 C 497.926 -3.73305 -3.65295 0
M  V30 5439 H 499.62 -2.32512 -1.88622 0
M  V30 5440 H 497.166 -1.1192 -0.906082 0
M  V30 5441 H 499.119 -1.18982 -4.04254 0
M  V30 5442 H 497.843 -0.225965 -3.25817 0
M  V30 5443 H 496.502 -2.31723 -2.84078 0
M  V30 5444 H 496.15 -0.990641 -4.93148 0
M  V30 5445 H 495.85 -2.7251 -5.20588 0
M  V30 5446 H 497.374 -1.98578 -5.77407 0
M  V30 5447 H 498.788 -3.7467 -4.3393 0
M  V30 5448 H 497.185 -4.46557 -4.00883 0
M  V30 5449 H 498.255 -4.05719 -2.65556 0
M  V30 5450 N 499.598 0.982988 -1.23187 0
M  V30 5451 C 500.545 2.07491 -1.01075 0
M  V30 5452 C 501.515 1.65949 0.070905 0
M  V30 5453 O 502.7 1.90629 -0.0806822 0
M  V30 5454 C 499.84 3.39751 -0.605261 0
M  V30 5455 C 498.953 3.94578 -1.75876 0
M  V30 5456 C 498.088 5.15039 -1.3003 0
M  V30 5457 C 497.127 5.62027 -2.42472 0
M  V30 5458 N 496.264 6.73719 -1.97602 0
M  V30 5459 H 501.104 2.25739 -1.9454 0
M  V30 5460 H 498.641 1.10659 -0.969179 0
M  V30 5461 H 500.599 4.15719 -0.351279 0
M  V30 5462 H 499.229 3.21473 0.292382 0
M  V30 5463 H 498.281 3.1539 -2.12681 0
M  V30 5464 H 499.593 4.25422 -2.60418 0
M  V30 5465 H 498.747 5.9833 -1.00429 0
M  V30 5466 H 497.486 4.85843 -0.425216 0
M  V30 5467 H 496.491 4.77318 -2.7285 0
M  V30 5468 H 497.716 5.93244 -3.30512 0
M  V30 5469 H 495.662 6.46287 -1.1247 0
M  V30 5470 H 495.579 7.03934 -2.75705 0
M  V30 5471 H 496.847 7.6049 -1.71098 0
M  V30 5472 N 501.076 1.04316 1.18135 0
M  V30 5473 C 502.301 0.768047 1.92655 0
M  V30 5474 C 502.726 -0.66904 1.758 0
M  V30 5475 O 502.084 -1.46372 1.06981 0
M  V30 5476 C 502.132 1.14239 3.42026 0
M  V30 5477 O 501.236 0.269333 4.1152 0
M  V30 5478 H 500.577 0.282436 0.600937 0
M  V30 5479 H 503.107 1.39367 1.49793 0
M  V30 5480 H 503.117 1.10538 3.92741 0
M  V30 5481 H 501.792 2.18928 3.53615 0
M  V30 5482 H 500.369 0.366175 3.71098 0
M  V30 5483 N 502.554 -1.34406 0.822964 0
M  V30 5484 C 503.965 -1.8069 0.469879 0
M  V30 5485 C 504.316 -1.68223 -1.00972 0
M  V30 5486 O 503.441 -1.22226 -1.78577 0
M  V30 5487 C 504.036 -3.28064 0.846118 0
M  V30 5488 C 502.595 -3.72428 0.545402 0
M  V30 5489 C 501.742 -2.56116 1.06301 0
M  V30 5490 H 504.693 -1.22153 1.01313 0
M  V30 5491 H 504.714 -3.80205 0.149922 0
M  V30 5492 H 504.226 -3.37107 1.92304 0
M  V30 5493 H 502.327 -3.68924 -0.522109 0
M  V30 5494 H 502.44 -4.66548 1.0895 0
M  V30 5495 H 500.804 -2.50048 0.484554 0
M  V30 5496 H 501.587 -2.67928 2.14638 0
M  V30 5497 N 504.032 -0.577932 -1.46621 0
M  V30 5498 C 504.995 0.147805 -2.28723 0
M  V30 5499 C 505.995 0.823325 -1.38123 0
M  V30 5500 O 507.185 0.676011 -1.60548 0
M  V30 5501 C 504.317 1.21853 -3.18378 0
M  V30 5502 H 505.51 -0.573654 -2.94362 0
M  V30 5503 H 503.063 -0.335703 -1.52652 0
M  V30 5504 H 503.798 1.97173 -2.57475 0
M  V30 5505 H 503.583 0.738714 -3.85078 0
M  V30 5506 H 505.073 1.72768 -3.80186 0
M  V30 5507 N 505.51 1.54411 -0.315457 0
M  V30 5508 C 506.735 2.05299 0.294496 0
M  V30 5509 C 507.16 1.19052 1.4563 0
M  V30 5510 O 506.518 0.197804 1.80218 0
M  V30 5511 C 506.566 3.5345 0.714549 0
M  V30 5512 O 505.67 3.70175 1.81781 0
M  V30 5513 H 505.011 0.661743 0.0547019 0
M  V30 5514 H 507.541 1.99327 -0.461508 0
M  V30 5515 H 507.551 3.9557 0.999426 0
M  V30 5516 H 506.226 4.1568 -0.135244 0
M  V30 5517 H 504.803 3.3996 1.53236 0
M  V30 5518 N 506.988 0.0434614 1.5754 0
M  V30 5519 C 507.918 -0.931651 2.14109 0
M  V30 5520 C 508.899 -1.32971 1.06079 0
M  V30 5521 O 510.084 -1.40579 1.33982 0
M  V30 5522 C 507.214 -2.20914 2.67982 0
M  V30 5523 C 506.168 -1.95139 3.80926 0
M  V30 5524 C 505.494 -3.29276 4.21285 0
M  V30 5525 C 506.794 -1.27913 5.06395 0
M  V30 5526 H 508.488 -0.460497 2.95837 0
M  V30 5527 H 506.034 -0.220058 1.42309 0
M  V30 5528 H 507.987 -2.89522 3.06194 0
M  V30 5529 H 506.711 -2.70221 1.83434 0
M  V30 5530 H 505.37 -1.28945 3.43175 0
M  V30 5531 H 505.018 -3.76369 3.33699 0
M  V30 5532 H 504.718 -3.12831 4.97404 0
M  V30 5533 H 506.242 -3.99129 4.62091 0
M  V30 5534 H 507.656 -1.86544 5.42102 0
M  V30 5535 H 506.053 -1.2182 5.87605 0
M  V30 5536 H 507.123 -0.254066 4.84234 0
M  V30 5537 N 508.466 -1.55915 -0.229846 0
M  V30 5538 C 509.413 -1.91734 -1.28478 0
M  V30 5539 C 510.383 -0.773539 -1.46988 0
M  V30 5540 O 511.568 -1.02871 -1.60693 0
M  V30 5541 C 508.708 -2.23224 -2.63182 0
M  V30 5542 C 507.821 -3.50497 -2.52539 0
M  V30 5543 C 506.956 -3.71474 -3.79711 0
M  V30 5544 C 505.995 -4.92289 -3.63755 0
M  V30 5545 N 505.132 -5.09698 -4.82858 0
M  V30 5546 H 509.972 -2.81692 -0.972308 0
M  V30 5547 H 507.509 -1.39429 -0.468815 0
M  V30 5548 H 509.467 -2.3949 -3.41614 0
M  V30 5549 H 508.097 -1.36451 -2.92542 0
M  V30 5550 H 507.149 -3.4247 -1.65585 0
M  V30 5551 H 508.461 -4.39079 -2.36666 0
M  V30 5552 H 507.615 -3.87791 -4.66586 0
M  V30 5553 H 506.354 -2.81157 -3.985 0
M  V30 5554 H 505.359 -4.7593 -2.75264 0
M  V30 5555 H 506.584 -5.84083 -3.46445 0
M  V30 5556 H 504.53 -4.22322 -5.01976 0
M  V30 5557 H 504.447 -5.92399 -4.69681 0
M  V30 5558 H 505.715 -5.30443 -5.71183 0
M  V30 5559 N 509.944 0.496216 -1.49584 0
M  V30 5560 C 510.907 1.57952 -1.66084 0
M  V30 5561 C 511.907 1.51729 -0.53244 0
M  V30 5562 O 513.097 1.54796 -0.79899 0
M  V30 5563 C 510.229 2.97604 -1.66268 0
M  V30 5564 H 511.422 1.44649 -2.6271 0
M  V30 5565 H 508.975 0.7208 -1.38687 0
M  V30 5566 H 509.71 3.16378 -0.712432 0
M  V30 5567 H 509.495 3.03528 -2.4822 0
M  V30 5568 H 510.985 3.76301 -1.81073 0
M  V30 5569 N 511.423 1.38739 0.74761 0
M  V30 5570 C 512.373 1.32948 1.85226 0
M  V30 5571 C 513.357 0.212642 1.59489 0
M  V30 5572 O 514.549 0.449121 1.71207 0
M  V30 5573 C 511.678 1.16279 3.23008 0
M  V30 5574 C 510.764 2.32611 3.54617 0
M  V30 5575 N 511.155 3.58065 3.57244 0
M  V30 5576 C 509.453 2.25293 3.84914 0
M  V30 5577 C 510.154 4.34919 3.8629 0
M  V30 5578 N 509.13 3.64348 4.03425 0
M  V30 5579 H 512.932 2.27927 1.85544 0
M  V30 5580 H 510.446 1.32056 0.945253 0
M  V30 5581 H 512.443 1.10214 4.02068 0
M  V30 5582 H 511.103 0.222394 3.23937 0
M  V30 5583 H 512.114 3.91656 3.3886 0
M  V30 5584 H 508.791 1.39446 3.93524 0
M  V30 5585 H 510.181 5.43605 3.94896 0
M  V30 5586 N 512.901 -0.976442 1.23707 0
M  V30 5587 C 514.129 -1.75341 1.09833 0
M  V30 5588 C 514.544 -1.8553 -0.349885 0
M  V30 5589 O 513.901 -1.33732 -1.24185 0
M  V30 5590 C 513.952 -3.17833 1.72233 0
M  V30 5591 O 513.673 -3.08167 3.11391 0
M  V30 5592 C 515.174 -4.11906 1.63853 0
M  V30 5593 H 512.394 -0.550137 0.384175 0
M  V30 5594 H 514.938 -1.2265 1.63638 0
M  V30 5595 H 513.093 -3.67538 1.22452 0
M  V30 5596 H 513.507 -3.97897 3.41729 0
M  V30 5597 H 514.981 -5.09579 2.12211 0
M  V30 5598 H 515.458 -4.35109 0.598092 0
M  V30 5599 H 516.064 -3.68107 2.13019 0
M  V30 5600 N 514.379 -1.04941 -1.1758 0
M  V30 5601 C 515.619 -0.766996 -1.89464 0
M  V30 5602 C 515.983 0.693123 -1.79053 0
M  V30 5603 O 517.184 1.08953 -2.45729 0
M  V30 5604 C 515.455 -1.23108 -3.35528 0
M  V30 5605 S 517.014 -1.07565 -4.25412 0
M  V30 5606 H 513.832 -0.278616 -0.654136 0
M  V30 5607 H 516.434 -1.34352 -1.4202 0
M  V30 5608 H 515.138 -2.28896 -3.40639 0
M  V30 5609 H 514.669 -0.648724 -3.88014 0
M  V30 5610 H 516.684 0.00169467 -4.962 0
M  V30 5611 N 515.857 1.33968 -0.830081 0
M  V30 5612 C 516.804 2.29387 -0.255008 0
M  V30 5613 C 517.774 1.53923 0.624243 0
M  V30 5614 O 518.959 1.82262 0.564372 0
M  V30 5615 C 516.099 3.4034 0.571209 0
M  V30 5616 C 515.212 4.30729 -0.331083 0
M  V30 5617 C 514.347 5.2879 0.505389 0
M  V30 5618 C 513.386 6.10819 -0.395843 0
M  V30 5619 N 512.523 7.00948 0.401979 0
M  V30 5620 H 517.363 2.77972 -1.07404 0
M  V30 5621 H 514.9 1.36785 -0.541133 0
M  V30 5622 H 516.858 4.03361 1.06562 0
M  V30 5623 H 515.488 2.9297 1.35529 0
M  V30 5624 H 514.54 3.68507 -0.943759 0
M  V30 5625 H 515.852 4.88181 -1.02377 0
M  V30 5626 H 515.006 5.97297 1.06399 0
M  V30 5627 H 513.745 4.71894 1.23155 0
M  V30 5628 H 512.75 5.41238 -0.966529 0
M  V30 5629 H 513.975 6.69797 -1.12023 0
M  V30 5630 H 511.921 6.46512 1.11168 0
M  V30 5631 H 511.838 7.55643 -0.232167 0
M  V30 5632 H 513.106 7.73774 0.943102 0
M  V30 5633 N 517.335 0.585699 1.46312 0
M  V30 5634 C 518.267 -0.183687 2.28463 0
M  V30 5635 C 519.28 -0.85264 1.38686 0
M  V30 5636 O 520.469 -0.721701 1.6326 0
M  V30 5637 C 517.569 -1.27977 3.13808 0
M  V30 5638 C 516.742 -0.702164 4.31727 0
M  V30 5639 C 515.801 -1.68633 4.98447 0
M  V30 5640 O 514.827 -1.22121 5.55945 0
M  V30 5641 N 516.029 -3.02047 4.95729 0
M  V30 5642 H 518.794 0.521127 2.95134 0
M  V30 5643 H 516.355 0.423673 1.56258 0
M  V30 5644 H 518.347 -1.9375 3.55307 0
M  V30 5645 H 516.917 -1.8874 2.4919 0
M  V30 5646 H 516.137 0.1331 3.93975 0
M  V30 5647 H 517.425 -0.296101 5.07938 0
M  V30 5648 H 516.823 -3.42457 4.50266 0
M  V30 5649 H 515.38 -3.63301 5.41161 0
M  V30 5650 N 518.813 -1.54241 0.323641 0
M  V30 5651 C 520.09 -1.92741 -0.333181 0
M  V30 5652 C 520.47 -1.25326 -1.69872 0
M  V30 5653 O 519.818 -0.396991 -2.25025 0
M  V30 5654 C 520.028 -3.46399 -0.425322 0
M  V30 5655 C 521.376 -4.19029 -0.68557 0
M  V30 5656 O 522.4 -3.52555 -0.50824 0
M  V30 5657 O 521.259 -5.36751 -1.02767 0
M  V30 5658 H 518.353 -0.804811 -0.190286 0
M  V30 5659 H 520.899 -1.65542 0.373361 0
M  V30 5660 H 519.671 -3.87643 0.533737 0
M  V30 5661 H 519.294 -3.79704 -1.17944 0
M  V30 5662 N 520.291 -0.0518155 -1.57515 0
M  V30 5663 C 521.221 0.920283 -2.146 0
M  V30 5664 C 522.202 1.32406 -1.06783 0
M  V30 5665 O 523.387 1.39866 -1.34726 0
M  V30 5666 C 520.517 2.1949 -2.6915 0
M  V30 5667 C 519.471 1.93116 -3.81956 0
M  V30 5668 C 518.797 3.27037 -4.23026 0
M  V30 5669 C 520.097 1.25225 -5.07066 0
M  V30 5670 H 521.791 0.444801 -2.96077 0
M  V30 5671 H 519.337 0.212508 -1.42423 0
M  V30 5672 H 521.29 2.87894 -3.07725 0
M  V30 5673 H 520.014 2.69244 -1.84865 0
M  V30 5674 H 518.673 1.27123 -3.43854 0
M  V30 5675 H 518.321 3.74595 -3.3569 0
M  V30 5676 H 518.021 3.10189 -4.99056 0
M  V30 5677 H 519.545 3.96673 -4.64202 0
M  V30 5678 H 520.959 1.83666 -5.43083 0
M  V30 5679 H 519.356 1.18702 -5.88243 0
M  V30 5680 H 520.426 0.228382 -4.84362 0
M  V30 5681 N 521.769 1.56035 0.221574 0
M  V30 5682 C 522.994 1.83476 0.967026 0
M  V30 5683 C 523.419 0.632139 1.7716 0
M  V30 5684 O 522.777 -0.419082 1.7639 0
M  V30 5685 C 522.825 3.08907 1.86034 0
M  V30 5686 O 521.929 2.876 2.95567 0
M  V30 5687 H 521.27 0.604913 0.273817 0
M  V30 5688 H 523.8 2.03247 0.234893 0
M  V30 5689 H 523.81 3.3901 2.27016 0
M  V30 5690 H 522.485 3.96068 1.26898 0
M  V30 5691 H 521.062 2.6873 2.58532 0
M  V30 5692 N 523.247 -0.488276 1.49845 0
M  V30 5693 C 524.195 -1.60917 1.67954 0
M  V30 5694 C 525.189 -1.6038 0.54539 0
M  V30 5695 O 526.395 -1.64736 0.7254 0
M  V30 5696 H 522.77 -0.533658 0.529824 0
M  V30 5697 H 524.741 -1.428 2.62013 0
M  V30 5698 C 523.49 -2.98975 1.77509 0
M  V30 5699 H 522.813 -3.00099 2.6416 0
M  V30 5700 H 524.253 -3.76906 1.9421 0
M  V30 5701 C 522.712 -3.3282 0.522745 0
M  V30 5702 O 523.242 -4.00208 -0.345866 0
M  V30 5703 N 521.448 -2.8808 0.381882 0
M  V30 5704 H 520.995 -2.33415 1.08974 0
M  V30 5705 H 520.953 -3.11091 -0.454929 0
M  V30 5706 N 524.725 -1.39134 -0.740242 0
M  V30 5707 C 525.953 -1.39334 -1.5295 0
M  V30 5708 C 526.368 0.0135008 -1.88795 0
M  V30 5709 O 525.725 0.983524 -1.5373 0
M  V30 5710 C 525.776 -2.2614 -2.82034 0
M  V30 5711 O 525.497 -3.61345 -2.47712 0
M  V30 5712 C 526.998 -2.34666 -3.76094 0
M  V30 5713 H 524.218 -0.476103 -0.472828 0
M  V30 5714 H 526.762 -1.82883 -0.9151 0
M  V30 5715 H 524.917 -1.86018 -3.39818 0
M  V30 5716 H 525.331 -4.07194 -3.30595 0
M  V30 5717 H 526.805 -2.99663 -4.63579 0
M  V30 5718 H 527.282 -1.36426 -4.17474 0
M  V30 5719 H 527.888 -2.75236 -3.2423 0
M  V30 5720 N 526.204 0.969867 -1.24223 0
M  V30 5721 C 527.432 1.74756 -1.10761 0
M  V30 5722 C 527.847 1.85713 0.340041 0
M  V30 5723 O 527.204 1.34389 1.23474 0
M  V30 5724 C 527.255 3.16915 -1.73917 0
M  V30 5725 O 526.976 3.06511 -3.13021 0
M  V30 5726 C 528.477 4.11032 -1.66036 0
M  V30 5727 H 525.697 0.548092 -0.387087 0
M  V30 5728 H 528.241 1.2178 -1.64286 0
M  V30 5729 H 526.396 3.66884 -1.244 0
M  V30 5730 H 526.81 3.96079 -3.43834 0
M  V30 5731 H 528.284 5.08446 -2.14911 0
M  V30 5732 H 528.761 4.34785 -0.621159 0
M  V30 5733 H 529.367 3.66972 -2.14969 0
M  V30 5734 N 527.682 1.05563 1.17022 0
M  V30 5735 C 528.592 0.670758 2.24807 0
M  V30 5736 C 529.608 -0.309865 1.71219 0
M  V30 5737 O 530.784 -0.161025 2.00755 0
M  V30 5738 C 527.849 0.055337 3.46656 0
M  V30 5739 C 526.91 1.08688 4.15314 0
M  V30 5740 C 526.143 0.500736 5.31346 0
M  V30 5741 O 526.366 -0.688718 5.66227 0
M  V30 5742 O 525.3 1.23683 5.89055 0
M  V30 5743 H 529.126 1.56914 2.60023 0
M  V30 5744 H 526.711 0.827428 1.24395 0
M  V30 5745 H 528.593 -0.286492 4.20425 0
M  V30 5746 H 527.268 -0.816638 3.13229 0
M  V30 5747 H 526.175 1.48077 3.43546 0
M  V30 5748 H 527.508 1.93014 4.52777 0
M  V30 5749 N 529.16 -1.33526 0.837174 0
M  V30 5750 C 530.09 -2.31764 0.284206 0
M  V30 5751 C 531.071 -1.58896 -0.607142 0
M  V30 5752 O 532.256 -1.86798 -0.531047 0
M  V30 5753 C 529.386 -3.43029 -0.542962 0
M  V30 5754 C 528.34 -4.27255 0.252451 0
M  V30 5755 C 527.666 -5.3012 -0.69836 0
M  V30 5756 C 528.966 -5.01229 1.46858 0
M  V30 5757 H 530.66 -2.78262 1.10502 0
M  V30 5758 H 528.206 -1.3378 0.532812 0
M  V30 5759 H 530.159 -4.1078 -0.940096 0
M  V30 5760 H 528.883 -2.95216 -1.39697 0
M  V30 5761 H 527.542 -3.61127 0.631124 0
M  V30 5762 H 527.19 -4.78564 -1.54872 0
M  V30 5763 H 526.89 -5.87353 -0.170274 0
M  V30 5764 H 528.414 -6.00737 -1.09305 0
M  V30 5765 H 529.828 -5.61756 1.14469 0
M  V30 5766 H 528.225 -5.68104 1.93333 0
M  V30 5767 H 529.295 -4.301 2.23924 0
M  V30 5768 N 530.638 -0.59345 -1.46 0
M  V30 5769 C 531.601 0.123538 -2.28867 0
M  V30 5770 C 532.601 0.808628 -1.38989 0
M  V30 5771 O 533.791 0.658945 -1.61256 0
M  V30 5772 C 530.923 1.1847 -3.19653 0
M  V30 5773 H 532.116 -0.604843 -2.93737 0
M  V30 5774 H 529.669 -0.351875 -1.52288 0
M  V30 5775 H 530.404 1.94431 -2.59552 0
M  V30 5776 H 530.189 0.69783 -3.8584 0
M  V30 5777 H 531.679 1.68726 -3.81997 0
M  V30 5778 N 532.116 1.54067 -0.331816 0
M  V30 5779 C 533.344 2.05131 0.269996 0
M  V30 5780 C 533.759 1.20749 1.45138 0
M  V30 5781 O 533.116 0.240069 1.80914 0
M  V30 5782 C 533.167 3.54728 0.696456 0
M  V30 5783 O 532.888 4.35906 -0.43794 0
M  V30 5784 C 534.389 4.21916 1.36021 0
M  V30 5785 H 531.609 0.668807 0.0542042 0
M  V30 5786 H 534.153 1.98777 -0.4804 0
M  V30 5787 H 532.308 3.61342 1.39681 0
M  V30 5788 H 532.722 5.24404 -0.100334 0
M  V30 5789 H 534.196 5.28015 1.60947 0
M  V30 5790 H 534.673 3.73538 2.31011 0
M  V30 5791 H 535.279 4.19463 0.702212 0
M  V30 5792 N 533.594 0.0601682 1.57485 0
M  V30 5793 C 534.843 -0.611101 1.9222 0
M  V30 5794 C 535.156 -1.71469 0.941159 0
M  V30 5795 O 536.362 -2.44473 1.18089 0
M  V30 5796 C 534.818 -1.13832 3.41424 0
M  V30 5797 C 534.426 -0.0663596 4.47951 0
M  V30 5798 C 536.17 -1.78432 3.85178 0
M  V30 5799 C 534.077 -0.606965 5.88277 0
M  V30 5800 H 533.007 -0.232033 0.71741 0
M  V30 5801 H 535.658 0.130518 1.83035 0
M  V30 5802 H 534.04 -1.93254 3.45643 0
M  V30 5803 H 535.214 0.707682 4.55333 0
M  V30 5804 H 533.529 0.482715 4.13593 0
M  V30 5805 H 536.126 -2.1989 4.87394 0
M  V30 5806 H 536.469 -2.63966 3.21913 0
M  V30 5807 H 537.002 -1.05651 3.83514 0
M  V30 5808 H 533.741 0.21095 6.5516 0
M  V30 5809 H 533.261 -1.34879 5.84438 0
M  V30 5810 H 534.94 -1.08704 6.37803 0
M  V30 5811 N 535.072 -1.5615 -0.213296 0
M  V30 5812 C 536.297 -1.83986 -0.957282 0
M  V30 5813 C 536.722 -0.641526 -1.76822 0
M  V30 5814 O 536.08 0.409722 -1.7661 0
M  V30 5815 C 536.128 -3.09889 -1.84393 0
M  V30 5816 O 535.232 -2.89163 -2.94038 0
M  V30 5817 H 534.573 -0.606357 -0.270605 0
M  V30 5818 H 537.103 -2.03369 -0.224111 0
M  V30 5819 H 537.113 -3.40209 -2.25215 0
M  V30 5820 H 535.788 -3.96735 -1.24795 0
M  V30 5821 H 534.365 -2.70097 -2.57103 0
M  V30 5822 N 536.55 0.480323 -1.50102 0
M  V30 5823 C 537.775 1.26126 -1.64642 0
M  V30 5824 C 538.2 1.85257 -0.325823 0
M  V30 5825 O 537.558 1.66854 0.709194 0
M  V30 5826 C 537.606 2.35243 -2.73301 0
M  V30 5827 O 536.71 3.39646 -2.33911 0
M  V30 5828 H 536.051 0.371463 -0.550374 0
M  V30 5829 H 538.581 0.572696 -1.96421 0
M  V30 5830 H 538.591 2.80695 -2.96098 0
M  V30 5831 H 537.266 1.91574 -3.6915 0
M  V30 5832 H 535.843 2.99969 -2.21525 0
M  V30 5833 N 538.028 1.39524 0.732853 0
M  V30 5834 C 539.274 1.37068 1.49467 0
M  V30 5835 C 539.607 -0.0327166 1.94172 0
M  V30 5836 O 538.882 -0.998071 1.66939 0
M  V30 5837 C 539.165 2.34494 2.73285 0
M  V30 5838 C 539.018 3.83784 2.34585 0
M  V30 5839 C 540.337 2.29717 3.75391 0
M  V30 5840 H 537.456 0.499206 0.542183 0
M  V30 5841 H 540.098 1.70532 0.837783 0
M  V30 5842 H 538.248 2.06087 3.29333 0
M  V30 5843 H 539.92 4.22949 1.84151 0
M  V30 5844 H 538.163 4.00455 1.66787 0
M  V30 5845 H 538.834 4.47444 3.23262 0
M  V30 5846 H 541.31 2.54839 3.28932 0
M  V30 5847 H 540.186 2.99962 4.59689 0
M  V30 5848 H 540.447 1.30291 4.22465 0
M  V30 5849 N 539.506 -0.963266 1.24736 0
M  V30 5850 C 540.454 -2.07985 1.04139 0
M  V30 5851 C 541.448 -1.69381 -0.0250556 0
M  V30 5852 O 542.654 -1.79531 0.129863 0
M  V30 5853 H 539.029 -0.680627 0.319768 0
M  V30 5854 H 541 -2.22517 1.98818 0
M  V30 5855 C 539.749 -3.4123 0.667615 0
M  V30 5856 H 539.072 -3.71397 1.48 0
M  V30 5857 H 540.512 -4.20244 0.563136 0
M  V30 5858 C 538.971 -3.3104 -0.625647 0
M  V30 5859 O 539.501 -3.65334 -1.67016 0
M  V30 5860 N 537.707 -2.84168 -0.608033 0
M  V30 5861 H 537.254 -2.56458 0.242323 0
M  V30 5862 H 537.212 -2.77732 -1.47352 0
M  V30 5863 N 540.985 -1.06182 -1.16461 0
M  V30 5864 C 542.234 -0.772927 -1.86303 0
M  V30 5865 C 542.547 0.703187 -1.82523 0
M  V30 5866 O 543.753 1.10641 -2.47933 0
M  V30 5867 C 542.209 -1.33249 -3.34324 0
M  V30 5868 C 541.817 -2.83876 -3.46581 0
M  V30 5869 C 543.561 -1.12108 -4.09429 0
M  V30 5870 C 541.468 -3.33082 -4.88682 0
M  V30 5871 H 540.398 -0.285452 -0.697878 0
M  V30 5872 H 543.049 -1.28039 -1.31447 0
M  V30 5873 H 541.431 -0.7528 -3.88779 0
M  V30 5874 H 542.605 -3.47786 -3.02293 0
M  V30 5875 H 540.92 -3.03671 -2.84909 0
M  V30 5876 H 543.517 -1.46361 -5.14279 0
M  V30 5877 H 543.86 -0.0593832 -4.16258 0
M  V30 5878 H 544.393 -1.6665 -3.6121 0
M  V30 5879 H 541.132 -4.38726 -4.87032 0
M  V30 5880 H 540.652 -2.73919 -5.33599 0
M  V30 5881 H 542.331 -3.28344 -5.57494 0
M  V30 5882 N 542.463 1.3308 -0.844243 0
M  V30 5883 C 543.74 1.92178 -0.364261 0
M  V30 5884 C 544.12 1.76961 1.15101 0
M  V30 5885 O 543.468 1.16128 1.9679 0
M  V30 5886 C 543.678 3.393 -0.817106 0
M  V30 5887 C 545.026 4.16444 -0.828236 0
M  V30 5888 O 546.05 3.47975 -0.761062 0
M  V30 5889 O 544.909 5.38685 -0.920926 0
M  V30 5890 H 542.003 0.820411 -0.10419 0
M  V30 5891 H 544.549 1.41918 -0.930453 0
M  V30 5892 H 543.321 3.44272 -1.85991 0
M  V30 5893 H 542.944 3.96947 -0.227785 0
M  V30 5894 N 543.941 0.601185 1.45683 0
M  V30 5895 C 545.19 0.0914953 2.01492 0
M  V30 5896 C 545.503 -1.28331 1.47616 0
M  V30 5897 O 546.709 -1.88537 1.95362 0
M  V30 5898 C 545.165 0.11291 3.59723 0
M  V30 5899 C 544.773 1.48717 4.22596 0
M  V30 5900 C 546.517 -0.341871 4.23121 0
M  V30 5901 C 544.424 1.46531 5.7296 0
M  V30 5902 H 543.354 0.0304365 0.753385 0
M  V30 5903 H 546.005 0.755568 1.67223 0
M  V30 5904 H 544.387 -0.617692 3.91153 0
M  V30 5905 H 545.561 2.23897 4.02749 0
M  V30 5906 H 543.876 1.88351 3.71366 0
M  V30 5907 H 546.473 -0.377304 5.33367 0
M  V30 5908 H 546.816 -1.36325 3.93346 0
M  V30 5909 H 547.349 0.335256 3.96385 0
M  V30 5910 H 544.088 2.46408 6.07423 0
M  V30 5911 H 543.608 0.755997 5.95017 0
M  V30 5912 H 545.287 1.18618 6.36034 0
M  V30 5913 N 545.419 -1.53889 0.339982 0
M  V30 5914 C 546.349 -2.27843 -0.510856 0
M  V30 5915 C 547.33 -1.29267 -1.10563 0
M  V30 5916 O 548.515 -1.58104 -1.12768 0
M  V30 5917 C 545.645 -3.04857 -1.66372 0
M  V30 5918 C 544.599 -4.10907 -1.19746 0
M  V30 5919 C 543.925 -4.75855 -2.43857 0
M  V30 5920 C 545.225 -5.21435 -0.300501 0
M  V30 5921 H 546.919 -2.99212 0.106067 0
M  V30 5922 H 544.465 -1.43904 0.0524533 0
M  V30 5923 H 546.418 -3.5533 -2.26537 0
M  V30 5924 H 545.142 -2.31133 -2.30749 0
M  V30 5925 H 543.801 -3.61342 -0.618654 0
M  V30 5926 H 543.449 -3.9873 -3.06633 0
M  V30 5927 H 543.149 -5.47502 -2.13343 0
M  V30 5928 H 544.673 -5.2911 -3.04754 0
M  V30 5929 H 546.087 -5.67565 -0.80889 0
M  V30 5930 H 544.484 -6.00036 -0.0874076 0
M  V30 5931 H 545.554 -4.80328 0.664321 0
M  V30 5932 N 546.897 -0.0685191 -1.57451 0
M  V30 5933 C 548.308 0.464634 -1.80826 0
M  V30 5934 C 548.659 1.69847 -0.982169 0
M  V30 5935 O 547.784 2.15439 -0.203734 0
M  V30 5936 C 548.379 0.849721 -3.27971 0
M  V30 5937 C 546.938 1.32776 -3.52204 0
M  V30 5938 C 546.085 0.311332 -2.75547 0
M  V30 5939 H 549.036 -0.294248 -1.55948 0
M  V30 5940 H 549.057 1.71138 -3.39841 0
M  V30 5941 H 548.569 -0.0484736 -3.8807 0
M  V30 5942 H 546.67 2.24456 -2.97406 0
M  V30 5943 H 546.783 1.30794 -4.60901 0
M  V30 5944 H 545.147 0.787915 -2.42206 0
M  V30 5945 H 545.93 -0.579078 -3.38381 0
M  V30 5946 N 548.375 1.56261 0.205012 0
M  V30 5947 C 549.338 1.92908 1.23771 0
M  V30 5948 C 550.338 0.809208 1.38955 0
M  V30 5949 O 551.528 1.07676 1.36936 0
M  V30 5950 C 548.66 2.19442 2.60879 0
M  V30 5951 H 549.853 2.85287 0.924728 0
M  V30 5952 H 547.406 1.49798 0.446125 0
M  V30 5953 H 548.141 1.29668 2.97248 0
M  V30 5954 H 547.926 3.0104 2.51232 0
M  V30 5955 H 549.416 2.48833 3.35368 0
M  V30 5956 N 549.853 -0.472356 1.50355 0
M  V30 5957 C 550.8 -1.57051 1.69126 0
M  V30 5958 C 551.77 -1.5733 0.532574 0
M  V30 5959 O 552.955 -1.7488 0.762994 0
M  V30 5960 C 550.095 -2.95033 1.79024 0
M  V30 5961 C 549.208 -3.04552 3.06386 0
M  V30 5962 C 548.343 -4.33441 3.07087 0
M  V30 5963 C 547.382 -4.36697 4.28908 0
M  V30 5964 N 546.519 -5.57056 4.27356 0
M  V30 5965 H 551.359 -1.40351 2.62879 0
M  V30 5966 H 548.896 -0.682403 1.30314 0
M  V30 5967 H 550.854 -3.75048 1.82744 0
M  V30 5968 H 549.484 -3.10371 0.887109 0
M  V30 5969 H 548.536 -2.17419 3.12143 0
M  V30 5970 H 549.848 -3.02818 3.96362 0
M  V30 5971 H 549.002 -5.21801 3.09529 0
M  V30 5972 H 547.741 -4.37782 2.14939 0
M  V30 5973 H 546.746 -3.46734 4.2668 0
M  V30 5974 H 547.971 -4.34049 5.22282 0
M  V30 5975 H 545.917 -5.62184 3.3806 0
M  V30 5976 H 545.834 -5.57058 5.111 0
M  V30 5977 H 547.102 -6.47545 4.33942 0
M  V30 5978 N 551.331 -1.39911 -0.725443 0
M  V30 5979 C 552.579 -1.37382 -1.48224 0
M  V30 5980 C 552.9 0.0264107 -1.94982 0
M  V30 5981 O 552.17 0.979408 -1.6966 0
M  V30 5982 H 550.75 -0.505596 -0.549892 0
M  V30 5983 H 553.412 -1.7487 -0.860608 0
M  V30 5984 H 552.508 -2.04254 -2.3598 0
M  V30 5985 N 552.809 0.956637 -1.25245 0
M  V30 5986 C 554.225 1.22733 -1.02023 0
M  V30 5987 C 554.425 1.99761 0.264186 0
M  V30 5988 O 553.481 2.32814 0.977436 0
M  V30 5989 C 554.794 2.00367 -2.24217 0
M  V30 5990 C 556.342 2.13418 -2.28958 0
M  V30 5991 C 556.817 2.9445 -3.50803 0
M  V30 5992 N 558.308 3.02029 -3.51187 0
M  V30 5993 C 559.043 3.65116 -4.42129 0
M  V30 5994 N 558.539 4.2983 -5.43339 0
M  V30 5995 N 560.332 3.62237 -4.29815 0
M  V30 5996 H 552.483 0.441282 -2.07765 0
M  V30 5997 H 554.746 0.257686 -0.912306 0
M  V30 5998 H 554.452 1.51165 -3.17556 0
M  V30 5999 H 554.326 3.01077 -2.27228 0
M  V30 6000 H 556.713 2.61819 -1.36143 0
M  V30 6001 H 556.794 1.1202 -2.29968 0
M  V30 6002 H 556.438 2.46741 -4.43939 0
M  V30 6003 H 556.368 3.9607 -3.47039 0
M  V30 6004 H 558.859 2.56007 -2.77973 0
M  V30 6005 H 559.172 4.75819 -6.08947 0
M  V30 6006 H 557.517 4.28465 -5.47214 0
M  V30 6007 H 560.708 3.10863 -3.49974 0
M  V30 6008 H 560.881 4.11117 -5.00886 0
M  V30 6009 N 554.287 1.06798 1.15896 0
M  V30 6010 C 555.564 0.701057 1.82605 0
M  V30 6011 C 555.944 -0.817066 1.94646 0
M  V30 6012 O 555.292 -1.72933 1.49353 0
M  V30 6013 C 555.502 1.40895 3.19296 0
M  V30 6014 C 556.85 1.55744 3.95005 0
M  V30 6015 O 557.874 1.36927 3.28831 0
M  V30 6016 O 556.733 1.86658 5.13635 0
M  V30 6017 H 553.827 0.248791 0.78869 0
M  V30 6018 H 556.373 1.16857 1.23055 0
M  V30 6019 H 555.145 2.4439 3.05596 0
M  V30 6020 H 554.768 0.931847 3.86526 0
M  V30 6021 N 555.766 -1.3263 0.851289 0
M  V30 6022 C 556.991 -2.02097 0.466006 0
M  V30 6023 C 557.416 -1.63574 -0.928709 0
M  V30 6024 O 556.774 -0.834665 -1.60944 0
M  V30 6025 C 556.822 -3.55425 0.608737 0
M  V30 6026 O 555.926 -4.10827 -0.359878 0
M  V30 6027 H 555.267 -0.636911 0.187724 0
M  V30 6028 H 557.797 -1.69253 1.14955 0
M  V30 6029 H 557.807 -4.04986 0.495006 0
M  V30 6030 H 556.482 -3.82806 1.62581 0
M  V30 6031 H 555.059 -3.72349 -0.202666 0
M  V30 6032 N 557.244 -0.608902 -1.45362 0
M  V30 6033 C 558.49 -0.104762 -2.02529 0
M  V30 6034 C 558.823 1.26191 -1.47613 0
M  V30 6035 O 558.098 1.8327 -0.65134 0
M  V30 6036 C 558.381 -0.0672661 -3.60037 0
M  V30 6037 C 558.234 -1.4647 -4.25284 0
M  V30 6038 C 559.553 0.619877 -4.35713 0
M  V30 6039 H 556.672 -0.0395438 -0.735938 0
M  V30 6040 H 559.314 -0.781126 -1.73201 0
M  V30 6041 H 557.464 0.50871 -3.85155 0
M  V30 6042 H 559.136 -2.08785 -4.11347 0
M  V30 6043 H 557.379 -2.02502 -3.83634 0
M  V30 6044 H 558.05 -1.39069 -5.34195 0
M  V30 6045 H 560.526 0.130297 -4.15896 0
M  V30 6046 H 559.402 0.615224 -5.45441 0
M  V30 6047 H 559.663 1.68621 -4.0868 0
M  V30 6048 N 558.722 1.53707 -0.348139 0
M  V30 6049 C 559.947 2.05877 0.250883 0
M  V30 6050 C 560.372 1.22115 1.43072 0
M  V30 6051 O 559.73 0.235986 1.79758 0
M  V30 6052 C 559.778 3.54886 0.639416 0
M  V30 6053 O 558.882 3.73948 1.73888 0
M  V30 6054 H 558.223 0.662754 0.040653 0
M  V30 6055 H 560.753 1.98303 -0.503685 0
M  V30 6056 H 560.763 3.97601 0.915295 0
M  V30 6057 H 559.438 4.153 -0.223386 0
M  V30 6058 H 558.015 3.43134 1.45991 0
M  V30 6059 N 560.2 0.0768682 1.57412 0
M  V30 6060 C 561.477 -0.632359 1.85096 0
M  V30 6061 C 561.857 -1.87479 0.9703 0
M  V30 6062 O 561.205 -2.28469 0.0379062 0
M  V30 6063 C 561.415 -0.965174 3.35388 0
M  V30 6064 C 562.763 -1.33648 4.03018 0
M  V30 6065 O 563.787 -1.05675 3.40164 0
M  V30 6066 O 562.646 -1.85959 5.13889 0
M  V30 6067 H 559.74 -0.314574 0.764835 0
M  V30 6068 H 562.286 0.108184 1.69355 0
M  V30 6069 H 561.058 -0.0829745 3.91212 0
M  V30 6070 H 560.681 -1.76231 3.5641 0
M  V30 6071 N 561.678 -1.56367 -0.196722 0
M  V30 6072 C 562.926 -1.80172 -0.915554 0
M  V30 6073 C 563.247 -0.649649 -1.8386 0
M  V30 6074 O 562.517 0.332111 -1.93064 0
M  V30 6075 H 561.097 -0.664592 -0.341067 0
M  V30 6076 H 563.759 -1.93844 -0.202622 0
M  V30 6077 H 562.855 -2.7327 -1.50764 0
M  V30 6078 N 563.156 0.464375 -1.50603 0
M  V30 6079 C 564.403 1.21596 -1.61928 0
M  V30 6080 C 564.731 1.91804 -0.322737 0
M  V30 6081 O 563.986 1.83065 0.691776 0
M  V30 6082 C 564.285 2.278 -2.75394 0
M  V30 6083 C 563.951 1.74797 -4.1564 0
M  V30 6084 C 562.613 1.60063 -4.53799 0
M  V30 6085 C 564.965 1.35548 -5.03266 0
M  V30 6086 C 562.293 1.04514 -5.77316 0
M  V30 6087 C 564.645 0.814381 -6.27336 0
M  V30 6088 C 563.309 0.653726 -6.64291 0
M  V30 6089 H 562.579 0.444951 -0.592536 0
M  V30 6090 H 565.226 0.510964 -1.84557 0
M  V30 6091 H 563.531 3.04233 -2.46879 0
M  V30 6092 H 565.228 2.85723 -2.81359 0
M  V30 6093 H 561.818 1.87234 -3.8554 0
M  V30 6094 H 566.002 1.45763 -4.74412 0
M  V30 6095 H 561.258 0.908186 -6.04617 0
M  V30 6096 H 565.432 0.501626 -6.94591 0
M  V30 6097 H 563.059 0.22114 -7.59878 0
M  V30 6098 N 564.634 1.40294 0.718013 0
M  V30 6099 C 565.88 1.38645 1.48005 0
M  V30 6100 C 566.213 -0.0121202 1.94196 0
M  V30 6101 O 565.488 -0.980309 1.67989 0
M  V30 6102 C 565.771 2.37379 2.70782 0
M  V30 6103 C 565.624 3.8625 2.30501 0
M  V30 6104 C 566.943 2.33685 3.72933 0
M  V30 6105 H 564.062 0.504928 0.536858 0
M  V30 6106 H 566.704 1.71411 0.819649 0
M  V30 6107 H 564.854 2.09568 3.27129 0
M  V30 6108 H 566.526 4.24879 1.79655 0
M  V30 6109 H 564.769 4.02202 1.6253 0
M  V30 6110 H 565.44 4.50847 3.18498 0
M  V30 6111 H 567.916 2.58314 3.2621 0
M  V30 6112 H 566.792 3.0482 4.56482 0
M  V30 6113 H 567.053 1.34765 4.21059 0
M  V30 6114 N 566.112 -0.949982 1.2575 0
M  V30 6115 C 567.044 -2.05088 1.02331 0
M  V30 6116 C 568.057 -1.62795 -0.0133247 0
M  V30 6117 O 569.246 -1.77067 0.225759 0
M  V30 6118 C 566.346 -3.34794 0.525924 0
M  V30 6119 C 565.519 -4.05903 1.62978 0
M  V30 6120 C 564.578 -5.1388 1.13196 0
M  V30 6121 O 563.604 -5.39072 1.82729 0
M  V30 6122 N 564.806 -5.80495 -0.0242926 0
M  V30 6123 H 567.571 -2.25747 1.97125 0
M  V30 6124 H 565.132 -1.11886 1.17018 0
M  V30 6125 H 567.124 -4.04312 0.177263 0
M  V30 6126 H 565.694 -3.10872 -0.328202 0
M  V30 6127 H 564.914 -3.3042 2.1498 0
M  V30 6128 H 566.202 -4.50166 2.37124 0
M  V30 6129 H 565.6 -5.62454 -0.605184 0
M  V30 6130 H 564.157 -6.51043 -0.313947 0
M  V30 6131 N 567.59 -1.07411 -1.15328 0
M  V30 6132 C 568.5 -0.706438 -2.23711 0
M  V30 6133 C 569.516 0.282586 -1.7169 0
M  V30 6134 O 570.692 0.129066 -2.00986 0
M  V30 6135 C 567.757 -0.11048 -3.46524 0
M  V30 6136 C 566.818 -1.15282 -4.13532 0
M  V30 6137 C 566.051 -0.585205 -5.30482 0
M  V30 6138 O 566.274 0.598549 -5.67251 0
M  V30 6139 O 565.208 -1.33039 -5.87013 0
M  V30 6140 H 569.034 -1.61031 -2.57493 0
M  V30 6141 H 566.619 -0.847113 -1.23062 0
M  V30 6142 H 568.501 0.21957 -4.20828 0
M  V30 6143 H 567.176 0.766703 -3.14489 0
M  V30 6144 H 566.083 -1.53523 -3.41147 0
M  V30 6145 H 567.416 -2.00192 -4.49649 0
M  V30 6146 N 569.068 1.32177 -0.85831 0
M  V30 6147 C 570.016 2.30729 -0.294442 0
M  V30 6148 C 571.01 1.59009 0.584165 0
M  V30 6149 O 572.216 1.73713 0.471562 0
M  V30 6150 H 568.591 0.748097 -0.0765171 0
M  V30 6151 H 570.562 2.75774 -1.1398 0
M  V30 6152 C 569.311 3.44098 0.499208 0
M  V30 6153 H 568.634 3.99449 -0.167579 0
M  V30 6154 H 570.074 4.15202 0.859273 0
M  V30 6155 C 568.533 2.91684 1.68588 0
M  V30 6156 O 569.063 2.89481 2.78503 0
M  V30 6157 N 567.269 2.48036 1.51415 0
M  V30 6158 H 566.816 2.50027 0.620006 0
M  V30 6159 H 566.774 2.13322 2.30957 0
M  V30 6160 N 570.547 0.616602 1.45037 0
M  V30 6161 C 571.479 -0.135186 2.28801 0
M  V30 6162 C 572.492 -0.82303 1.40464 0
M  V30 6163 O 573.681 -0.686909 1.64754 0
M  V30 6164 C 570.781 -1.21292 3.16451 0
M  V30 6165 C 569.954 -0.61043 4.3312 0
M  V30 6166 C 569.013 -1.58022 5.01912 0
M  V30 6167 O 568.039 -1.10301 5.58411 0
M  V30 6168 N 569.241 -2.91464 5.02025 0
M  V30 6169 H 572.006 0.583612 2.93963 0
M  V30 6170 H 569.567 0.456723 1.55324 0
M  V30 6171 H 571.559 -1.86169 3.59337 0
M  V30 6172 H 570.129 -1.83412 2.53138 0
M  V30 6173 H 569.349 0.216638 3.93604 0
M  V30 6174 H 570.637 -0.188293 5.08451 0
M  V30 6175 H 570.035 -3.32829 4.57429 0
M  V30 6176 H 568.592 -3.51741 5.48745 0
M  V30 6177 N 572.025 -1.5352 0.356285 0
M  V30 6178 C 573.436 -1.86282 -0.12492 0
M  V30 6179 C 573.787 -1.27717 -1.48939 0
M  V30 6180 O 572.912 -0.595614 -2.08042 0
M  V30 6181 C 573.507 -3.37995 -0.23345 0
M  V30 6182 C 572.066 -3.70588 -0.658899 0
M  V30 6183 C 571.213 -2.76581 0.199596 0
M  V30 6184 H 574.164 -1.47901 0.575423 0
M  V30 6185 H 574.185 -3.65475 -1.0587 0
M  V30 6186 H 573.697 -3.8059 0.759776 0
M  V30 6187 H 571.798 -3.33544 -1.66069 0
M  V30 6188 H 571.911 -4.77076 -0.439957 0
M  V30 6189 H 570.275 -2.52552 -0.330076 0
M  V30 6190 H 571.058 -3.22008 1.19019 0
M  V30 6191 N 573.503 -0.0852151 -1.57369 0
M  V30 6192 C 574.919 0.271436 -1.57275 0
M  V30 6193 C 575.119 1.69109 -1.09565 0
M  V30 6194 O 574.175 2.40549 -0.767611 0
M  V30 6195 C 575.488 0.0688638 -3.00621 0
M  V30 6196 C 577.036 0.137373 -3.12698 0
M  V30 6197 C 577.511 -0.0370832 -4.57985 0
M  V30 6198 N 579.002 0.0180794 -4.63196 0
M  V30 6199 C 579.737 -0.0922953 -5.73326 0
M  V30 6200 N 579.233 -0.256948 -6.92323 0
M  V30 6201 N 581.026 -0.0342702 -5.6209 0
M  V30 6202 H 573.177 -1.01288 -1.86693 0
M  V30 6203 H 575.44 -0.396138 -0.861266 0
M  V30 6204 H 575.146 -0.911277 -3.39689 0
M  V30 6205 H 575.02 0.815442 -3.6828 0
M  V30 6206 H 577.407 1.10801 -2.73509 0
M  V30 6207 H 577.488 -0.640532 -2.47651 0
M  V30 6208 H 577.132 -1.00455 -4.97867 0
M  V30 6209 H 577.062 0.760392 -5.21081 0
M  V30 6210 H 579.553 0.143202 -3.77629 0
M  V30 6211 H 579.866 -0.332949 -7.72082 0
M  V30 6212 H 578.211 -0.292487 -6.94384 0
M  V30 6213 H 581.402 0.0931605 -4.68007 0
M  V30 6214 H 581.575 -0.12374 -6.47882 0
M  V30 6215 N 574.981 1.5647 0.188427 0
M  V30 6216 C 576.211 1.84863 0.922463 0
M  V30 6217 C 576.619 0.666413 1.77075 0
M  V30 6218 O 575.962 -0.374044 1.79852 0
M  V30 6219 C 576.024 3.07447 1.86324 0
M  V30 6220 C 575.688 4.41066 1.19625 0
M  V30 6221 C 576.685 5.16767 0.569946 0
M  V30 6222 C 574.37 4.87802 1.19811 0
M  V30 6223 C 576.364 6.37384 -0.045594 0
M  V30 6224 C 574.051 6.08353 0.57874 0
M  V30 6225 C 575.049 6.82987 -0.0420259 0
M  V30 6226 O 574.737 8.01254 -0.651675 0
M  V30 6227 H 574.469 0.61784 0.274316 0
M  V30 6228 H 577.023 2.04437 0.198613 0
M  V30 6229 H 575.253 2.83774 2.62696 0
M  V30 6230 H 576.942 3.2243 2.46564 0
M  V30 6231 H 577.708 4.81749 0.560601 0
M  V30 6232 H 573.587 4.29662 1.67069 0
M  V30 6233 H 577.131 6.95578 -0.530731 0
M  V30 6234 H 573.028 6.42838 0.58561 0
M  V30 6235 H 573.796 8.16655 -0.549236 0
M  V30 6236 N 576.459 -0.456382 1.50847 0
M  V30 6237 C 577.389 -1.56025 1.73719 0
M  V30 6238 C 578.37 -1.5967 0.586473 0
M  V30 6239 O 579.555 -1.75702 0.827185 0
M  V30 6240 C 576.685 -2.94251 1.84483 0
M  V30 6241 C 575.639 -3.05471 2.99786 0
M  V30 6242 C 574.965 -4.45489 2.95709 0
M  V30 6243 C 576.265 -2.81318 4.40065 0
M  V30 6244 H 577.959 -1.37138 2.66146 0
M  V30 6245 H 575.505 -0.658299 1.28072 0
M  V30 6246 H 577.458 -3.71417 1.99067 0
M  V30 6247 H 576.182 -3.14328 0.886891 0
M  V30 6248 H 574.841 -2.30741 2.84876 0
M  V30 6249 H 574.489 -4.62505 1.97732 0
M  V30 6250 H 574.189 -4.53929 3.73125 0
M  V30 6251 H 575.713 -5.24655 3.12362 0
M  V30 6252 H 577.127 -3.48226 4.55425 0
M  V30 6253 H 575.524 -3.01188 5.19043 0
M  V30 6254 H 576.594 -1.7706 4.51418 0
M  V30 6255 N 577.937 -1.40673 -0.710563 0
M  V30 6256 C 579.214 -1.29718 -1.46398 0
M  V30 6257 C 579.594 0.082177 -2.1094 0
M  V30 6258 O 578.942 1.09536 -2.00534 0
M  V30 6259 C 579.152 -2.43967 -2.49562 0
M  V30 6260 C 580.5 -2.84436 -3.15248 0
M  V30 6261 O 581.524 -2.43597 -2.59883 0
M  V30 6262 O 580.383 -3.55008 -4.1549 0
M  V30 6263 H 577.477 -0.509697 -0.651258 0
M  V30 6264 H 580.023 -1.52603 -0.742312 0
M  V30 6265 H 578.795 -3.36076 -2.0042 0
M  V30 6266 H 578.418 -2.22879 -3.29258 0
M  V30 6267 N 579.415 0.9433 -1.26252 0
M  V30 6268 C 580.378 2.02326 -1.07689 0
M  V30 6269 C 581.378 1.60779 -0.0259174 0
M  V30 6270 O 582.568 1.72108 -0.269134 0
M  V30 6271 C 579.7 3.34886 -0.63752 0
M  V30 6272 H 580.893 2.20225 -2.0357 0
M  V30 6273 H 578.446 1.12197 -1.08819 0
M  V30 6274 H 579.181 3.22684 0.323377 0
M  V30 6275 H 578.966 3.66393 -1.39637 0
M  V30 6276 H 580.456 4.14231 -0.529418 0
M  V30 6277 N 580.893 1.08022 1.14757 0
M  V30 6278 C 582.118 0.82895 1.90114 0
M  V30 6279 C 582.543 -0.612772 1.77839 0
M  V30 6280 O 581.901 -1.42895 1.11583 0
M  V30 6281 C 581.949 1.25062 3.38219 0
M  V30 6282 O 581.053 0.400119 4.10454 0
M  V30 6283 H 580.394 0.301412 0.591648 0
M  V30 6284 H 582.924 1.44062 1.45284 0
M  V30 6285 H 582.934 1.22977 3.89025 0
M  V30 6286 H 581.609 2.30067 3.46471 0
M  V30 6287 H 580.186 0.484052 3.69745 0
M  V30 6288 N 582.371 -1.3172 0.865308 0
M  V30 6289 C 583.319 -2.30569 0.306674 0
M  V30 6290 C 584.313 -1.59317 -0.575724 0
M  V30 6291 O 585.519 -1.73961 -0.462343 0
M  V30 6292 H 581.894 -0.747681 0.0804834 0
M  V30 6293 H 583.865 -2.75165 1.15441 0
M  V30 6294 C 582.614 -3.44358 -0.480952 0
M  V30 6295 H 581.937 -3.99354 0.18876 0
M  V30 6296 H 583.377 -4.15652 -0.837241 0
M  V30 6297 C 581.836 -2.92574 -1.67039 0
M  V30 6298 O 582.366 -2.90954 -2.76964 0
M  V30 6299 N 580.572 -2.48835 -1.50097 0
M  V30 6300 H 580.119 -2.50353 -0.606738 0
M  V30 6301 H 580.077 -2.14543 -2.29823 0
M  V30 6302 N 583.85 -0.624285 -1.44708 0
M  V30 6303 C 584.76 0.0861083 -2.34442 0
M  V30 6304 C 585.776 0.84291 -1.5222 0
M  V30 6305 O 586.952 0.796723 -1.84971 0
M  V30 6306 C 584.017 1.05999 -3.30099 0
M  V30 6307 C 583.077 0.303316 -4.28227 0
M  V30 6308 C 582.311 1.23081 -5.19314 0
M  V30 6309 O 582.534 2.46929 -5.14181 0
M  V30 6310 O 581.468 0.71883 -5.97592 0
M  V30 6311 H 585.293 -0.651756 -2.96624 0
M  V30 6312 H 582.879 -0.384493 -1.44368 0
M  V30 6313 H 584.76 1.62046 -3.88997 0
M  V30 6314 H 583.436 1.77859 -2.70459 0
M  V30 6315 H 582.343 -0.300033 -3.72895 0
M  V30 6316 H 583.676 -0.375123 -4.90768 0
M  V30 6317 N 585.328 1.53329 -0.364422 0
M  V30 6318 C 586.258 2.28627 0.474543 0
M  V30 6319 C 587.239 1.31009 1.08492 0
M  V30 6320 O 588.424 1.59878 1.10239 0
M  V30 6321 C 585.554 3.07465 1.61501 0
M  V30 6322 C 584.508 4.1276 1.13194 0
M  V30 6323 C 583.834 4.79674 2.36255 0
M  V30 6324 C 585.134 5.21847 0.217507 0
M  V30 6325 H 586.828 2.99005 -0.153656 0
M  V30 6326 H 584.374 1.43803 -0.0753406 0
M  V30 6327 H 586.327 3.58889 2.20855 0
M  V30 6328 H 585.051 2.34775 2.27042 0
M  V30 6329 H 583.71 3.62281 0.56109 0
M  V30 6330 H 583.358 4.03557 3.00251 0
M  V30 6331 H 583.058 5.50827 2.04606 0
M  V30 6332 H 584.582 5.33892 2.96297 0
M  V30 6333 H 585.996 5.6878 0.718493 0
M  V30 6334 H 584.393 6.00099 -0.00806408 0
M  V30 6335 H 585.463 4.7921 -0.740653 0
M  V30 6336 N 586.806 0.0935595 1.57322 0
M  V30 6337 C 588.054 -0.569383 1.93913 0
M  V30 6338 C 588.375 -1.68817 0.976009 0
M  V30 6339 O 587.645 -1.9588 0.0278099 0
M  V30 6340 H 586.225 -0.21332 0.715894 0
M  V30 6341 H 588.887 0.156531 1.9427 0
M  V30 6342 H 587.983 -0.980577 2.96296 0
M  V30 6343 N 588.284 -1.56567 -0.180126 0
M  V30 6344 C 589.532 -1.81133 -0.896392 0
M  V30 6345 C 589.853 -0.669114 -1.83161 0
M  V30 6346 O 589.123 0.311616 -1.93406 0
M  V30 6347 H 587.703 -0.668172 -0.333999 0
M  V30 6348 H 590.365 -1.94048 -0.182051 0
M  V30 6349 H 589.461 -2.74854 -1.47857 0
M  V30 6350 N 589.762 0.448376 -1.51087 0
M  V30 6351 C 591.011 1.19561 -1.62444 0
M  V30 6352 C 591.324 1.92602 -0.341151 0
M  V30 6353 O 592.53 2.69439 -0.333936 0
M  V30 6354 C 590.986 2.17373 -2.8684 0
M  V30 6355 C 590.594 1.5003 -4.22131 0
M  V30 6356 C 592.338 2.92597 -3.0755 0
M  V30 6357 C 590.245 2.46262 -5.37689 0
M  V30 6358 H 589.175 0.449975 -0.605011 0
M  V30 6359 H 591.826 0.463735 -1.77544 0
M  V30 6360 H 590.208 2.93948 -2.65349 0
M  V30 6361 H 591.382 0.790886 -4.53962 0
M  V30 6362 H 589.697 0.870011 -4.0721 0
M  V30 6363 H 592.294 3.64663 -3.91056 0
M  V30 6364 H 592.637 3.53306 -2.20183 0
M  V30 6365 H 593.17 2.23131 -3.29329 0
M  V30 6366 H 589.909 1.90258 -6.27281 0
M  V30 6367 H 589.429 3.15289 -5.10248 0
M  V30 6368 H 591.108 3.07623 -5.6919 0
M  V30 6369 N 591.24 1.41047 0.703093 0
M  V30 6370 C 592.48 1.41461 1.4754 0
M  V30 6371 C 592.844 0.0199013 1.9199 0
M  V30 6372 O 594.045 -0.101138 2.6861 0
M  V30 6373 C 592.316 2.38703 2.66 0
M  V30 6374 S 593.875 2.57582 3.55242 0
M  V30 6375 H 590.693 0.501226 0.504275 0
M  V30 6376 H 593.295 1.77422 0.821074 0
M  V30 6377 H 591.999 3.3885 2.31536 0
M  V30 6378 H 591.53 2.04069 3.36333 0
M  V30 6379 H 593.545 1.83758 4.6092 0
M  V30 6380 N 592.718 -0.936591 1.26751 0
M  V30 6381 C 593.943 -1.72288 1.15462 0
M  V30 6382 C 594.368 -1.85915 -0.285887 0
M  V30 6383 O 593.726 -1.35272 -1.20711 0
M  V30 6384 C 593.774 -3.10503 1.83359 0
M  V30 6385 O 592.878 -3.96745 1.1255 0
M  V30 6386 H 592.219 -0.52843 0.402067 0
M  V30 6387 H 594.749 -1.17271 1.67656 0
M  V30 6388 H 594.759 -3.60867 1.90365 0
M  V30 6389 H 593.434 -2.99901 2.88153 0
M  V30 6390 H 592.011 -3.55191 1.13551 0
M  V30 6391 N 594.196 -1.08629 -1.14182 0
M  V30 6392 C 595.445 -0.812271 -1.84621 0
M  V30 6393 C 595.758 0.664313 -1.83973 0
M  V30 6394 O 596.964 1.05357 -2.50224 0
M  V30 6395 C 595.42 -1.4031 -3.31423 0
M  V30 6396 C 595.028 -2.91164 -3.40481 0
M  V30 6397 C 596.772 -1.20767 -4.06959 0
M  V30 6398 C 594.679 -3.43373 -4.81507 0
M  V30 6399 H 593.609 -0.30019 -0.691666 0
M  V30 6400 H 596.26 -1.30798 -1.28701 0
M  V30 6401 H 594.642 -0.835096 -3.87094 0
M  V30 6402 H 595.816 -3.5412 -2.94848 0
M  V30 6403 H 594.131 -3.09646 -2.78403 0
M  V30 6404 H 596.728 -1.57237 -5.11058 0
M  V30 6405 H 597.071 -0.147664 -4.16038 0
M  V30 6406 H 597.604 -1.74274 -3.57594 0
M  V30 6407 H 594.343 -4.48958 -4.77616 0
M  V30 6408 H 593.863 -2.85176 -5.27669 0
M  V30 6409 H 595.542 -3.40095 -5.50404 0
M  V30 6410 N 595.674 1.31259 -0.872281 0
M  V30 6411 C 596.899 2.0133 -0.498099 0
M  V30 6412 C 597.324 1.65031 0.902568 0
M  V30 6413 O 596.682 0.860164 1.59596 0
M  V30 6414 C 596.73 3.54411 -0.665205 0
M  V30 6415 O 595.834 4.11347 0.294473 0
M  V30 6416 H 595.175 0.633844 -0.197832 0
M  V30 6417 H 597.705 1.67402 -1.17633 0
M  V30 6418 H 597.715 4.04147 -0.559373 0
M  V30 6419 H 596.39 3.80171 -1.68651 0
M  V30 6420 H 594.967 3.72624 0.143403 0
M  V30 6421 N 597.152 0.631951 1.44375 0
M  V30 6422 C 598.084 -0.110911 2.28931 0
M  V30 6423 C 599.097 -0.808086 1.41329 0
M  V30 6424 O 600.286 -0.669396 1.65473 0
M  V30 6425 C 597.386 -1.17928 3.1772 0
M  V30 6426 C 596.559 -0.564458 4.33743 0
M  V30 6427 C 595.618 -1.5269 5.0356 0
M  V30 6428 O 594.644 -1.04372 5.59549 0
M  V30 6429 N 595.846 -2.86123 5.05088 0
M  V30 6430 H 598.611 0.614758 2.93327 0
M  V30 6431 H 596.172 0.473171 1.54831 0
M  V30 6432 H 598.164 -1.82348 3.61291 0
M  V30 6433 H 596.734 -1.80717 2.55069 0
M  V30 6434 H 595.954 0.258373 3.93352 0
M  V30 6435 H 597.242 -0.134355 5.08623 0
M  V30 6436 H 596.64 -3.27959 4.60933 0
M  V30 6437 H 595.197 -3.45901 5.52445 0
M  V30 6438 N 598.631 -1.53133 0.372548 0
M  V30 6439 C 599.877 -2.01654 -0.215277 0
M  V30 6440 C 600.21 -1.25914 -1.47849 0
M  V30 6441 O 599.485 -0.3548 -1.91237 0
M  V30 6442 C 599.768 -3.56609 -0.500187 0
M  V30 6443 C 599.621 -4.43036 0.777145 0
M  V30 6444 C 600.94 -4.20528 -1.29786 0
M  V30 6445 H 598.059 -0.732991 -0.0767686 0
M  V30 6446 H 600.701 -1.83335 0.498814 0
M  V30 6447 H 598.851 -3.7235 -1.10852 0
M  V30 6448 H 600.523 -4.39079 1.41447 0
M  V30 6449 H 598.766 -4.10723 1.39604 0
M  V30 6450 H 599.437 -5.49424 0.532662 0
M  V30 6451 H 601.913 -4.08663 -0.783198 0
M  V30 6452 H 600.789 -5.28962 -1.46596 0
M  V30 6453 H 601.05 -3.77051 -2.30836 0
M  V30 6454 N 600.109 -0.101901 -1.5727 0
M  V30 6455 C 601.019 0.868647 -2.17926 0
M  V30 6456 C 602.035 1.30527 -1.1506 0
M  V30 6457 O 603.211 1.37178 -1.47459 0
M  V30 6458 C 600.276 2.10727 -2.75309 0
M  V30 6459 C 599.337 1.7242 -3.93154 0
M  V30 6460 C 598.57 2.90377 -4.47791 0
M  V30 6461 O 598.793 4.05305 -4.01353 0
M  V30 6462 O 597.727 2.6845 -5.38719 0
M  V30 6463 H 601.553 0.382544 -3.01281 0
M  V30 6464 H 599.138 0.122812 -1.48894 0
M  V30 6465 H 601.02 2.83303 -3.11958 0
M  V30 6466 H 599.695 2.58376 -1.94996 0
M  V30 6467 H 598.602 0.970039 -3.61305 0
M  V30 6468 H 599.935 1.29528 -4.74851 0
M  V30 6469 N 601.587 1.56661 0.17182 0
M  V30 6470 C 602.497 1.99604 1.2327 0
M  V30 6471 C 603.513 0.907333 1.4847 0
M  V30 6472 O 604.689 1.21492 1.60629 0
M  V30 6473 C 601.754 2.34685 2.55194 0
M  V30 6474 C 600.815 3.57381 2.3786 0
M  V30 6475 C 600.048 3.90779 3.63494 0
M  V30 6476 O 600.271 3.25152 4.6865 0
M  V30 6477 O 599.205 4.84129 3.57634 0
M  V30 6478 H 603.031 2.90114 0.898192 0
M  V30 6479 H 600.616 1.44522 0.378647 0
M  V30 6480 H 602.498 2.5822 3.33017 0
M  V30 6481 H 601.173 1.47336 2.88225 0
M  V30 6482 H 600.08 3.39064 1.5807 0
M  V30 6483 H 601.413 4.45268 2.09754 0
M  V30 6484 N 603.065 -0.440357 1.51323 0
M  V30 6485 C 603.975 -1.55955 1.75258 0
M  V30 6486 C 604.991 -1.61933 0.636687 0
M  V30 6487 O 606.167 -1.79231 0.918593 0
M  V30 6488 C 603.232 -2.9196 1.86977 0
M  V30 6489 C 602.293 -2.96122 3.10822 0
M  V30 6490 C 601.526 -4.2564 3.21973 0
M  V30 6491 O 601.749 -5.17851 2.39137 0
M  V30 6492 O 600.683 -4.36025 4.14929 0
M  V30 6493 H 604.509 -1.38673 2.70191 0
M  V30 6494 H 602.094 -0.623055 1.35788 0
M  V30 6495 H 603.976 -3.72682 1.96688 0
M  V30 6496 H 602.651 -3.09375 0.952307 0
M  V30 6497 H 601.558 -2.14366 3.06591 0
M  V30 6498 H 602.891 -2.83651 4.02247 0
M  V30 6499 N 604.543 -1.41418 -0.695603 0
M  V30 6500 C 605.476 -1.3768 -1.81988 0
M  V30 6501 C 606.454 -0.244061 -1.60758 0
M  V30 6502 O 607.638 -0.430965 -1.83507 0
M  V30 6503 C 604.765 -1.1476 -3.18666 0
M  V30 6504 C 603.811 -2.30752 -3.58686 0
M  V30 6505 S 604.644 -3.9323 -3.63498 0
M  V30 6506 C 605.8 -3.72613 -5.02902 0
M  V30 6507 H 606.033 -2.32822 -1.84882 0
M  V30 6508 H 603.566 -1.27942 -0.86431 0
M  V30 6509 H 605.524 -1.02223 -3.97569 0
M  V30 6510 H 604.185 -0.212385 -3.13381 0
M  V30 6511 H 603.378 -2.10409 -4.57978 0
M  V30 6512 H 602.98 -2.39696 -2.87092 0
M  V30 6513 H 605.272 -3.32317 -5.904 0
M  V30 6514 H 606.215 -4.71507 -5.28286 0
M  V30 6515 H 606.623 -3.0589 -4.74438 0
M  V30 6516 N 606.021 0.929856 -1.27246 0
M  V30 6517 C 606.951 2.04722 -1.12299 0
M  V30 6518 C 607.932 1.70082 -0.0250464 0
M  V30 6519 O 609.117 1.93176 -0.199141 0
M  V30 6520 C 606.247 3.38721 -0.767145 0
M  V30 6521 C 605.201 3.87466 -1.81808 0
M  V30 6522 C 604.527 5.18246 -1.31626 0
M  V30 6523 C 605.827 4.11095 -3.22177 0
M  V30 6524 H 607.521 2.17485 -2.05769 0
M  V30 6525 H 605.067 1.04503 -0.990715 0
M  V30 6526 H 607.02 4.16366 -0.649413 0
M  V30 6527 H 605.744 3.25967 0.203259 0
M  V30 6528 H 604.403 3.12012 -1.92468 0
M  V30 6529 H 604.051 5.01881 -0.335378 0
M  V30 6530 H 603.751 5.51829 -2.01887 0
M  V30 6531 H 605.275 5.98462 -1.21143 0
M  V30 6532 H 606.689 4.79316 -3.1453 0
M  V30 6533 H 605.086 4.55982 -3.90129 0
M  V30 6534 H 606.156 3.16468 -3.67391 0
M  V30 6535 N 607.499 1.09233 1.13605 0
M  V30 6536 C 608.431 0.687794 2.18637 0
M  V30 6537 C 609.444 -0.26936 1.60556 0
M  V30 6538 O 610.633 -0.0557162 1.78413 0
M  V30 6539 C 607.733 -0.00751901 3.38899 0
M  V30 6540 C 606.906 0.97067 4.26494 0
M  V30 6541 C 605.965 0.309129 5.25291 0
M  V30 6542 O 604.991 0.956149 5.61112 0
M  V30 6543 N 606.193 -0.937555 5.72879 0
M  V30 6544 H 608.958 1.59141 2.53957 0
M  V30 6545 H 606.519 0.979515 1.28907 0
M  V30 6546 H 608.511 -0.461238 4.02063 0
M  V30 6547 H 607.081 -0.813353 3.01833 0
M  V30 6548 H 606.301 1.603 3.60135 0
M  V30 6549 H 607.589 1.63323 4.81875 0
M  V30 6550 H 606.987 -1.48281 5.4592 0
M  V30 6551 H 605.544 -1.33463 6.3799 0
M  V30 6552 N 608.977 -1.30795 0.87923 0
M  V30 6553 C 610.254 -1.91145 0.415086 0
M  V30 6554 C 610.634 -1.7995 -1.10368 0
M  V30 6555 O 609.982 -1.21305 -1.93642 0
M  V30 6556 C 610.192 -3.37014 0.906778 0
M  V30 6557 C 611.54 -4.14101 0.938358 0
M  V30 6558 O 612.564 -3.45834 0.853053 0
M  V30 6559 O 611.423 -5.36054 1.06342 0
M  V30 6560 H 608.517 -0.81736 0.125905 0
M  V30 6561 H 611.063 -1.39401 0.967753 0
M  V30 6562 H 609.835 -3.3922 1.95053 0
M  V30 6563 H 609.458 -3.96204 0.332948 0
M  V30 6564 N 610.455 -0.639598 -1.44038 0
M  V30 6565 C 611.403 0.0723409 -2.32487 0
M  V30 6566 C 612.397 0.827129 -1.47834 0
M  V30 6567 O 613.603 0.73907 -1.64127 0
M  V30 6568 H 609.978 0.0421696 -0.750817 0
M  V30 6569 H 611.949 -0.691593 -2.90275 0
M  V30 6570 C 610.698 1.03452 -3.31953 0
M  V30 6571 H 610.021 0.46315 -3.97108 0
M  V30 6572 H 611.461 1.502 -3.96505 0
M  V30 6573 C 609.92 2.12392 -2.61518 0
M  V30 6574 O 610.45 3.2059 -2.42044 0
M  V30 6575 N 608.656 1.88563 -2.21116 0
M  V30 6576 H 608.203 1.00577 -2.37154 0
M  V30 6577 H 608.161 2.61651 -1.74316 0
M  V30 6578 N 611.933 1.52934 -0.380664 0
M  V30 6579 C 613.161 2.05886 0.204599 0
M  V30 6580 C 613.576 1.25305 1.41223 0
M  V30 6581 O 612.933 0.297504 1.80059 0
M  V30 6582 C 612.984 3.56764 0.583249 0
M  V30 6583 O 612.705 4.34292 -0.576398 0
M  V30 6584 C 614.206 4.2603 1.2253 0
M  V30 6585 H 611.426 0.670193 0.0328991 0
M  V30 6586 H 613.97 1.97148 -0.543397 0
M  V30 6587 H 612.125 3.65603 1.28115 0
M  V30 6588 H 612.539 5.23819 -0.267119 0
M  V30 6589 H 614.013 5.32868 1.44068 0
M  V30 6590 H 614.49 3.80698 2.19011 0
M  V30 6591 H 615.096 4.21485 0.568407 0
M  V30 6592 N 613.412 0.11024 1.57214 0
M  V30 6593 C 614.359 -0.843195 2.14846 0
M  V30 6594 C 615.329 -1.26954 1.07107 0
M  V30 6595 O 616.514 -1.34861 1.34971 0
M  V30 6596 C 613.654 -2.09123 2.74521 0
M  V30 6597 C 612.767 -1.71404 3.96541 0
M  V30 6598 C 611.902 -2.91107 4.44331 0
M  V30 6599 C 610.941 -2.49586 5.58903 0
M  V30 6600 N 610.078 -3.62175 6.01477 0
M  V30 6601 H 614.918 -0.344886 2.95998 0
M  V30 6602 H 612.455 -0.15855 1.46243 0
M  V30 6603 H 614.413 -2.82234 3.07246 0
M  V30 6604 H 613.043 -2.56427 1.96074 0
M  V30 6605 H 612.095 -0.88201 3.70033 0
M  V30 6606 H 613.407 -1.36884 4.7965 0
M  V30 6607 H 612.561 -3.72454 4.78919 0
M  V30 6608 H 611.3 -3.28848 3.60153 0
M  V30 6609 H 610.305 -1.6667 5.23929 0
M  V30 6610 H 611.53 -2.12973 6.4484 0
M  V30 6611 H 609.476 -3.99605 5.20242 0
M  V30 6612 H 609.393 -3.3155 6.79419 0
M  V30 6613 H 610.661 -4.43987 6.407 0
M  V30 6614 N 614.89 -1.56749 -0.16351 0
M  V30 6615 C 616.115 -1.86938 -0.898264 0
M  V30 6616 C 616.54 -0.697456 -1.74692 0
M  V30 6617 O 615.898 0.353327 -1.77824 0
M  V30 6618 C 615.946 -3.15599 -1.74441 0
M  V30 6619 O 615.05 -2.98371 -2.8469 0
M  V30 6620 H 614.391 -0.614659 -0.251178 0
M  V30 6621 H 616.921 -2.03979 -0.159298 0
M  V30 6622 H 616.931 -3.47202 -2.14277 0
M  V30 6623 H 615.606 -4.00505 -1.1211 0
M  V30 6624 H 614.183 -2.7814 -2.4838 0
M  V30 6625 N 616.368 0.432326 -1.51554 0
M  V30 6626 C 617.593 1.20824 -1.68571 0
M  V30 6627 C 618.018 1.84126 -0.384596 0
M  V30 6628 O 617.376 1.69025 0.655751 0
M  V30 6629 C 617.424 2.26429 -2.80646 0
M  V30 6630 O 616.528 3.32032 -2.44598 0
M  V30 6631 H 615.869 0.353765 -0.561913 0
M  V30 6632 H 618.399 0.509916 -1.98144 0
M  V30 6633 H 618.409 2.71133 -3.04878 0
M  V30 6634 H 617.084 1.79733 -3.75058 0
M  V30 6635 H 615.661 2.92769 -2.30956 0
M  V30 6636 N 617.846 1.41785 0.688094 0
M  V30 6637 C 618.809 1.43936 1.78368 0
M  V30 6638 C 619.809 0.328866 1.57401 0
M  V30 6639 O 620.999 0.589093 1.63937 0
M  V30 6640 C 618.131 1.25804 3.16838 0
M  V30 6641 H 619.324 2.41472 1.77852 0
M  V30 6642 H 616.877 1.28037 0.896448 0
M  V30 6643 H 617.612 0.291386 3.22988 0
M  V30 6644 H 617.397 2.06272 3.33458 0
M  V30 6645 H 618.887 1.30162 3.96797 0
M  V30 6646 N 619.324 -0.923095 1.27737 0
M  V30 6647 C 620.256 -2.02871 1.06658 0
M  V30 6648 C 621.269 -1.62786 0.0212095 0
M  V30 6649 O 622.458 -1.76548 0.263267 0
M  V30 6650 C 619.558 -3.33603 0.59682 0
M  V30 6651 C 618.731 -4.02354 1.71551 0
M  V30 6652 C 617.79 -5.11364 1.24071 0
M  V30 6653 O 616.816 -5.35075 1.94123 0
M  V30 6654 N 618.018 -5.80416 0.0988444 0
M  V30 6655 H 620.783 -2.21515 2.01869 0
M  V30 6656 H 618.344 -1.09378 1.19365 0
M  V30 6657 H 620.336 -4.03845 0.262984 0
M  V30 6658 H 618.906 -3.11499 -0.262187 0
M  V30 6659 H 618.126 -3.25786 2.2194 0
M  V30 6660 H 619.414 -4.45035 2.46619 0
M  V30 6661 H 618.812 -5.63611 -0.485743 0
M  V30 6662 H 617.369 -6.51563 -0.17578 0
M  V30 6663 N 620.802 -1.09834 -1.13024 0
M  V30 6664 C 622.213 -0.855651 -1.65938 0
M  V30 6665 C 622.564 0.615159 -1.86307 0
M  V30 6666 O 621.689 1.47335 -1.58497 0
M  V30 6667 C 622.284 -1.5467 -3.01434 0
M  V30 6668 C 620.843 -1.35088 -3.51323 0
M  V30 6669 C 619.99 -1.6001 -2.26478 0
M  V30 6670 H 622.941 -1.25691 -0.968889 0
M  V30 6671 H 622.962 -0.982179 -3.67605 0
M  V30 6672 H 622.474 -2.61715 -2.86578 0
M  V30 6673 H 620.575 -0.30179 -3.71376 0
M  V30 6674 H 620.688 -2.0886 -4.31178 0
M  V30 6675 H 619.052 -1.02246 -2.33276 0
M  V30 6676 H 619.835 -2.68293 -2.14182 0
M  V30 6677 N 622.28 1.30327 -0.886154 0
M  V30 6678 C 623.19 2.31854 -0.357866 0
M  V30 6679 C 624.206 1.65392 0.540502 0
M  V30 6680 O 625.382 1.96683 0.433339 0
M  V30 6681 C 622.447 3.44171 0.417999 0
M  V30 6682 C 621.508 4.26257 -0.510263 0
M  V30 6683 C 620.741 5.3321 0.228669 0
M  V30 6684 O 620.964 5.51542 1.45458 0
M  V30 6685 O 619.898 6.0042 -0.421832 0
M  V30 6686 H 623.724 2.78995 -1.19982 0
M  V30 6687 H 621.309 1.34518 -0.650028 0
M  V30 6688 H 623.191 4.12588 0.857251 0
M  V30 6689 H 621.866 2.99164 1.23623 0
M  V30 6690 H 620.773 3.60533 -0.99835 0
M  V30 6691 H 622.106 4.74871 -1.29454 0
M  V30 6692 N 623.758 0.647228 1.43697 0
M  V30 6693 C 624.706 -0.0600105 2.32523 0
M  V30 6694 C 625.7 -0.819277 1.48271 0
M  V30 6695 O 626.906 -0.730356 1.64517 0
M  V30 6696 H 623.281 -0.0381872 0.75103 0
M  V30 6697 H 625.252 0.706978 2.89904 0
M  V30 6698 C 624.001 -1.0169 3.32497 0
M  V30 6699 H 623.324 -0.442083 3.97348 0
M  V30 6700 H 624.764 -1.48095 3.97296 0
M  V30 6701 C 623.223 -2.11002 2.6264 0
M  V30 6702 O 623.753 -3.19302 2.4374 0
M  V30 6703 N 621.959 -1.87388 2.22113 0
M  V30 6704 H 621.506 -0.993174 2.37684 0
M  V30 6705 H 621.464 -2.60723 1.75701 0
M  V30 6706 N 625.236 -1.5273 0.388769 0
M  V30 6707 C 626.166 -2.29353 -0.438111 0
M  V30 6708 C 627.147 -1.32719 -1.06394 0
M  V30 6709 O 628.332 -1.61612 -1.07681 0
M  V30 6710 C 625.462 -3.09995 -1.56589 0
M  V30 6711 C 624.416 -4.14509 -1.06613 0
M  V30 6712 C 623.742 -4.83372 -2.28594 0
M  V30 6713 C 625.042 -5.22127 -0.134459 0
M  V30 6714 H 626.736 -2.98723 0.201206 0
M  V30 6715 H 624.282 -1.43665 0.0982089 0
M  V30 6716 H 626.235 -3.62357 -2.15118 0
M  V30 6717 H 624.959 -2.38357 -2.23279 0
M  V30 6718 H 623.618 -3.63128 -0.503383 0
M  V30 6719 H 623.266 -4.08283 -2.93792 0
M  V30 6720 H 622.966 -5.54012 -1.95817 0
M  V30 6721 H 624.49 -5.38538 -2.87766 0
M  V30 6722 H 625.904 -5.69851 -0.627914 0
M  V30 6723 H 624.301 -6.00011 0.103534 0
M  V30 6724 H 625.371 -4.77971 0.816798 0
M  V30 6725 N 626.714 -0.118576 -1.57153 0
M  V30 6726 C 627.963 0.539339 -1.94355 0
M  V30 6727 C 628.276 1.67858 -1.00415 0
M  V30 6728 O 629.482 2.39922 -1.27081 0
M  V30 6729 C 627.938 1.01082 -3.45414 0
M  V30 6730 C 627.546 -0.0999402 -4.47889 0
M  V30 6731 C 629.29 1.64013 -3.91535 0
M  V30 6732 C 627.197 0.388212 -5.90124 0
M  V30 6733 H 626.127 0.205247 -0.725527 0
M  V30 6734 H 628.778 -0.19836 -1.82425 0
M  V30 6735 H 627.16 1.80292 -3.52577 0
M  V30 6736 H 628.334 -0.876189 -4.52393 0
M  V30 6737 H 626.649 -0.635885 -4.11516 0
M  V30 6738 H 629.246 2.01649 -4.95219 0
M  V30 6739 H 629.589 2.51836 -3.31488 0
M  V30 6740 H 630.122 0.913439 -3.87171 0
M  V30 6741 H 626.861 -0.453963 -6.53926 0
M  V30 6742 H 626.381 1.13095 -5.89041 0
M  V30 6743 H 628.06 0.849574 -6.41398 0
M  V30 6744 N 628.193 1.56834 0.155195 0
M  V30 6745 C 629.604 1.72421 0.716082 0
M  V30 6746 C 629.955 0.731685 1.82046 0
M  V30 6747 O 629.08 -0.103481 2.16152 0
M  V30 6748 C 629.675 3.12629 1.30571 0
M  V30 6749 C 628.234 3.29846 1.81325 0
M  V30 6750 C 627.381 2.68359 0.698494 0
M  V30 6751 H 630.332 1.58544 -0.0703861 0
M  V30 6752 H 630.353 3.12174 2.1755 0
M  V30 6753 H 629.865 3.84844 0.501701 0
M  V30 6754 H 627.966 2.62614 2.64319 0
M  V30 6755 H 628.079 4.37727 1.9476 0
M  V30 6756 H 626.443 2.28604 1.12305 0
M  V30 6757 H 627.226 3.43171 -0.0939366 0
M  V30 6758 N 629.671 -0.424282 1.51781 0
M  V30 6759 C 630.604 -1.53633 1.68737 0
M  V30 6760 C 631.582 -1.53549 0.534915 0
M  V30 6761 O 632.766 -1.72483 0.760391 0
M  V30 6762 C 629.893 -2.92195 1.71288 0
M  V30 6763 C 628.939 -3.10251 2.92654 0
M  V30 6764 S 629.772 -2.85166 4.53256 0
M  V30 6765 C 630.928 -4.25986 4.58571 0
M  V30 6766 H 631.161 -1.39018 2.62795 0
M  V30 6767 H 628.694 -0.614854 1.41629 0
M  V30 6768 H 630.652 -3.72059 1.73443 0
M  V30 6769 H 629.313 -3.04162 0.783847 0
M  V30 6770 H 628.506 -4.1159 2.90877 0
M  V30 6771 H 628.108 -2.38231 2.88308 0
M  V30 6772 H 630.4 -5.19392 4.35015 0
M  V30 6773 H 631.343 -4.32792 5.60444 0
M  V30 6774 H 631.751 -4.1025 3.87757 0
M  V30 6775 N 631.149 -1.42148 -0.680565 0
M  V30 6776 C 632.395 -1.4352 -1.44131 0
M  V30 6777 C 632.75 -0.0486244 -1.92339 0
M  V30 6778 O 632.043 0.92819 -1.67616 0
M  V30 6779 C 632.237 -2.38945 -2.65782 0
M  V30 6780 C 632.066 -3.86743 -2.29477 0
M  V30 6781 C 630.836 -4.5532 -2.19115 0
M  V30 6782 C 633.034 -4.77321 -1.91491 0
M  V30 6783 N 631.016 -5.88174 -1.75853 0
M  V30 6784 C 632.387 -5.99238 -1.59103 0
M  V30 6785 C 634.442 -4.64829 -1.78432 0
M  V30 6786 C 633.145 -7.10053 -1.14968 0
M  V30 6787 C 635.171 -5.75621 -1.35702 0
M  V30 6788 C 634.533 -6.96645 -1.04234 0
M  V30 6789 H 630.632 -0.580363 -0.524121 0
M  V30 6790 H 633.216 -1.78132 -0.785939 0
M  V30 6791 H 631.387 -2.06403 -3.29017 0
M  V30 6792 H 633.119 -2.30935 -3.32342 0
M  V30 6793 H 629.874 -4.09456 -2.37998 0
M  V30 6794 H 630.298 -6.58625 -1.56661 0
M  V30 6795 H 634.94 -3.71745 -2.01409 0
M  V30 6796 H 632.658 -8.0299 -0.907365 0
M  V30 6797 H 636.244 -5.67964 -1.26126 0
M  V30 6798 H 635.124 -7.80918 -0.716707 0
M  V30 6799 N 632.627 0.916307 -1.28225 0
M  V30 6800 C 633.852 1.7043 -1.18188 0
M  V30 6801 C 634.277 1.86346 0.256274 0
M  V30 6802 O 633.635 1.37175 1.18544 0
M  V30 6803 C 633.683 3.07546 -1.88275 0
M  V30 6804 O 632.787 3.94904 -1.18848 0
M  V30 6805 H 632.128 0.521967 -0.410423 0
M  V30 6806 H 634.658 1.14589 -1.69501 0
M  V30 6807 H 634.668 3.57793 -1.96082 0
M  V30 6808 H 633.343 2.95279 -2.92887 0
M  V30 6809 H 631.92 3.53339 -1.19187 0
M  V30 6810 N 634.105 1.10431 1.1244 0
M  V30 6811 C 635.33 0.869089 1.88313 0
M  V30 6812 C 635.755 -0.574912 1.79099 0
M  V30 6813 O 635.113 -1.40496 1.14589 0
M  V30 6814 C 635.161 1.32208 3.3549 0
M  V30 6815 O 634.265 0.487092 4.09513 0
M  V30 6816 H 633.606 0.313894 0.585121 0
M  V30 6817 H 636.136 1.47111 1.42195 0
M  V30 6818 H 636.146 1.31201 3.86329 0
M  V30 6819 H 634.821 2.37364 3.41513 0
M  V30 6820 H 633.398 0.562372 3.68635 0
M  V30 6821 N 635.583 -1.29855 0.893053 0
M  V30 6822 C 636.86 -1.90694 0.435336 0
M  V30 6823 C 637.24 -1.8111 -1.08454 0
M  V30 6824 O 636.588 -1.23352 -1.92345 0
M  V30 6825 C 636.798 -3.36033 0.942472 0
M  V30 6826 C 638.146 -4.13083 0.982226 0
M  V30 6827 O 639.17 -3.4491 0.889686 0
M  V30 6828 O 638.029 -5.34896 1.12022 0
M  V30 6829 H 635.123 -0.815978 0.134567 0
M  V30 6830 H 637.669 -1.38367 0.982484 0
M  V30 6831 H 636.441 -3.37132 1.9864 0
M  V30 6832 H 636.064 -3.95828 0.374952 0
M  V30 6833 N 637.061 -0.65484 -1.43351 0
M  V30 6834 C 638.31 -0.166215 -2.01014 0
M  V30 6835 C 638.623 1.22764 -1.52278 0
M  V30 6836 O 639.829 1.81156 -2.02224 0
M  V30 6837 C 638.285 -0.246341 -3.59056 0
M  V30 6838 C 637.893 -1.64299 -4.16785 0
M  V30 6839 C 639.637 0.184597 -4.24098 0
M  V30 6840 C 637.544 -1.67695 -5.67126 0
M  V30 6841 H 636.474 -0.0583769 -0.751737 0
M  V30 6842 H 639.125 -0.817111 -1.64303 0
M  V30 6843 H 637.507 0.472092 -3.93176 0
M  V30 6844 H 638.681 -2.3869 -3.94162 0
M  V30 6845 H 636.996 -2.02004 -3.6412 0
M  V30 6846 H 639.593 0.179088 -5.344 0
M  V30 6847 H 639.936 1.21632 -3.98135 0
M  V30 6848 H 640.469 -0.482141 -3.94867 0
M  V30 6849 H 637.208 -2.68783 -5.9786 0
M  V30 6850 H 636.728 -0.976313 -5.91801 0
M  V30 6851 H 638.407 -1.42142 -6.31193 0
M  V30 6852 N 638.539 1.52521 -0.396863 0
M  V30 6853 C 639.785 2.01971 0.183169 0
M  V30 6854 C 640.118 1.2825 1.45827 0
M  V30 6855 O 639.393 0.385179 1.90648 0
M  V30 6856 C 639.676 3.5736 0.443391 0
M  V30 6857 C 639.529 4.41743 -0.84753 0
M  V30 6858 C 640.848 4.22539 1.2308 0
M  V30 6859 H 637.967 0.734119 0.0650976 0
M  V30 6860 H 640.609 1.82519 -0.527918 0
M  V30 6861 H 638.759 3.74066 1.04914 0
M  V30 6862 H 640.431 4.36773 -1.48414 0
M  V30 6863 H 638.674 4.0845 -1.4612 0
M  V30 6864 H 639.345 5.48507 -0.620003 0
M  V30 6865 H 641.821 4.09857 0.718084 0
M  V30 6866 H 640.697 5.31227 1.38162 0
M  V30 6867 H 640.958 3.80675 2.24808 0
M  V30 6868 N 640.017 0.126909 1.57088 0
M  V30 6869 C 641.245 -0.53667 1.99819 0
M  V30 6870 C 641.66 -1.5972 1.00673 0
M  V30 6871 O 641.017 -1.825 0.000747365 0
M  V30 6872 C 641.068 -1.15563 3.42531 0
M  V30 6873 O 640.789 -0.137483 4.37884 0
M  V30 6874 C 642.29 -1.90176 4.00435 0
M  V30 6875 H 639.51 -0.141443 0.655923 0
M  V30 6876 H 642.054 0.215578 2.03361 0
M  V30 6877 H 640.209 -1.85861 3.39904 0
M  V30 6878 H 640.623 -0.588229 5.21191 0
M  V30 6879 H 642.097 -2.28801 5.02349 0
M  V30 6880 H 642.574 -2.78002 3.40017 0
M  V30 6881 H 643.18 -1.24623 4.06632 0
M  V30 6882 N 641.495 -1.56914 -0.146875 0
M  V30 6883 C 642.743 -1.82994 -0.85777 0
M  V30 6884 C 643.064 -0.707814 -1.817 0
M  V30 6885 O 642.334 0.270521 -1.94023 0
M  V30 6886 H 640.914 -0.675106 -0.319751 0
M  V30 6887 H 643.576 -1.9439 -0.140849 0
M  V30 6888 H 642.672 -2.77928 -1.41994 0
M  V30 6889 N 642.974 0.416227 -1.52004 0
M  V30 6890 C 643.884 1.53147 -1.77717 0
M  V30 6891 C 644.9 1.609 -0.662368 0
M  V30 6892 O 646.076 1.77747 -0.946991 0
M  V30 6893 C 643.141 2.88948 -1.91598 0
M  V30 6894 C 642.202 2.9114 -3.15493 0
M  V30 6895 C 641.435 4.20464 -3.28703 0
M  V30 6896 O 641.658 5.13981 -2.47345 0
M  V30 6897 O 640.592 4.29368 -4.21813 0
M  V30 6898 H 644.418 1.34357 -2.72363 0
M  V30 6899 H 642.003 0.601373 -1.36762 0
M  V30 6900 H 643.885 3.69505 -2.02593 0
M  V30 6901 H 642.56 3.07821 -1.00141 0
M  V30 6902 H 641.467 2.09461 -3.09962 0
M  V30 6903 H 642.8 2.77216 -4.06709 0
M  V30 6904 N 644.452 1.42507 0.673017 0
M  V30 6905 C 645.399 1.46124 1.78651 0
M  V30 6906 C 646.369 0.313007 1.63124 0
M  V30 6907 O 647.554 0.517337 1.83653 0
M  V30 6908 C 644.694 1.3711 3.16694 0
M  V30 6909 C 643.807 2.61983 3.43495 0
M  V30 6910 C 642.942 2.45098 4.71275 0
M  V30 6911 C 641.981 3.65336 4.91117 0
M  V30 6912 N 641.118 3.47383 6.10139 0
M  V30 6913 H 645.958 2.4128 1.74895 0
M  V30 6914 H 643.495 1.19788 0.853766 0
M  V30 6915 H 645.453 1.29881 3.96468 0
M  V30 6916 H 644.083 0.45549 3.1957 0
M  V30 6917 H 643.135 2.79571 2.57961 0
M  V30 6918 H 644.447 3.51355 3.5405 0
M  V30 6919 H 643.601 2.35466 5.59143 0
M  V30 6920 H 642.34 1.53219 4.63007 0
M  V30 6921 H 641.345 3.754 4.0169 0
M  V30 6922 H 642.57 4.58199 5.01229 0
M  V30 6923 H 640.516 2.58222 6.0304 0
M  V30 6924 H 640.433 4.30344 6.21563 0
M  V30 6925 H 641.701 3.41565 7.00681 0
M  V30 6926 N 645.93 -0.909495 1.28709 0
M  V30 6927 C 646.878 -2.03381 1.12866 0
M  V30 6928 C 647.872 -1.69335 0.0468074 0
M  V30 6929 O 649.078 -1.78819 0.205891 0
M  V30 6930 H 645.453 -0.666452 0.348348 0
M  V30 6931 H 647.424 -2.13885 2.08077 0
M  V30 6932 C 646.173 -3.38092 0.811742 0
M  V30 6933 H 645.496 -3.64786 1.63619 0
M  V30 6934 H 646.936 -4.17477 0.740869 0
M  V30 6935 C 645.395 -3.33395 -0.484679 0
M  V30 6936 O 645.925 -3.72089 -1.5137 0
M  V30 6937 N 644.131 -2.86491 -0.486961 0
M  V30 6938 H 643.678 -2.55199 0.350877 0
M  V30 6939 H 643.636 -2.83731 -1.3544 0
M  V30 6940 N 647.408 -1.11026 -1.11852 0
M  V30 6941 C 648.318 -0.777252 -2.2135 0
M  V30 6942 C 649.334 0.227821 -1.72502 0
M  V30 6943 O 650.51 0.0650587 -2.01295 0
M  V30 6944 C 647.575 -0.220668 -3.45997 0
M  V30 6945 C 646.636 -1.2838 -4.09655 0
M  V30 6946 C 645.869 -0.753678 -5.28352 0
M  V30 6947 O 646.092 0.417779 -5.68868 0
M  V30 6948 O 645.026 -1.51647 -5.82483 0
M  V30 6949 H 648.852 -1.69141 -2.5224 0
M  V30 6950 H 646.437 -0.885836 -1.20305 0
M  V30 6951 H 648.319 0.0855756 -4.21313 0
M  V30 6952 H 646.994 0.666262 -3.16769 0
M  V30 6953 H 645.901 -1.64299 -3.3609 0
M  V30 6954 H 647.234 -2.14396 -4.43052 0
M  V30 6955 N 648.886 1.2938 -0.899927 0
M  V30 6956 C 650.297 1.77644 -0.574427 0
M  V30 6957 C 650.648 1.73824 0.909928 0
M  V30 6958 O 649.773 1.32429 1.71147 0
M  V30 6959 C 650.368 3.22573 -1.03595 0
M  V30 6960 C 648.927 3.68614 -0.76161 0
M  V30 6961 C 648.074 2.49483 -1.21052 0
M  V30 6962 H 651.025 1.16038 -1.08263 0
M  V30 6963 H 651.046 3.78684 -0.371337 0
M  V30 6964 H 650.558 3.25321 -2.11631 0
M  V30 6965 H 648.659 3.7134 0.306127 0
M  V30 6966 H 648.772 4.59402 -1.35965 0
M  V30 6967 H 647.136 2.46798 -0.629515 0
M  V30 6968 H 647.919 2.54959 -2.29893 0
M  V30 6969 N 650.364 0.662433 1.43002 0
M  V30 6970 C 651.61 0.179857 2.02001 0
M  V30 6971 C 651.943 -1.20625 1.52195 0
M  V30 6972 O 651.218 -1.80726 0.718911 0
M  V30 6973 C 651.501 0.200845 3.59539 0
M  V30 6974 C 651.354 1.62153 4.19555 0
M  V30 6975 C 652.673 -0.457738 4.37713 0
M  V30 6976 H 649.792 0.0668305 0.733964 0
M  V30 6977 H 652.434 0.84487 1.70182 0
M  V30 6978 H 650.584 -0.365411 3.86778 0
M  V30 6979 H 652.256 2.23908 4.03315 0
M  V30 6980 H 650.499 2.16601 3.75854 0
M  V30 6981 H 651.17 1.58799 5.28665 0
M  V30 6982 H 653.646 0.0241495 4.16093 0
M  V30 6983 H 652.522 -0.412363 5.47349 0
M  V30 6984 H 652.783 -1.53336 4.14657 0
M  V30 6985 N 651.842 -1.52309 0.404946 0
M  V30 6986 C 652.789 -2.26898 -0.422597 0
M  V30 6987 C 653.759 -1.2914 -1.04461 0
M  V30 6988 O 654.944 -1.57996 -1.06967 0
M  V30 6989 C 652.084 -3.09053 -1.53559 0
M  V30 6990 C 651.197 -4.21762 -0.934908 0
M  V30 6991 C 650.332 -4.91283 -2.02025 0
M  V30 6992 C 649.371 -5.95962 -1.39628 0
M  V30 6993 N 648.508 -6.59017 -2.42159 0
M  V30 6994 H 653.348 -2.97188 0.219903 0
M  V30 6995 H 650.885 -1.46607 0.120282 0
M  V30 6996 H 652.843 -3.54987 -2.19181 0
M  V30 6997 H 651.473 -2.40942 -2.14818 0
M  V30 6998 H 650.525 -3.80029 -0.167854 0
M  V30 6999 H 651.837 -4.96864 -0.439073 0
M  V30 7000 H 650.991 -5.40601 -2.75383 0
M  V30 7001 H 649.73 -4.15741 -2.54973 0
M  V30 7002 H 648.735 -5.45968 -0.648023 0
M  V30 7003 H 649.96 -6.73445 -0.874553 0
M  V30 7004 H 647.906 -5.86306 -2.94247 0
M  V30 7005 H 647.823 -7.2978 -1.97376 0
M  V30 7006 H 649.091 -7.12974 -3.15099 0
M  V30 7007 N 653.32 -0.135238 -1.57019 0
M  V30 7008 C 654.731 0.387521 -1.82634 0
M  V30 7009 C 655.082 1.65528 -1.05332 0
M  V30 7010 O 654.207 2.14381 -0.294926 0
M  V30 7011 C 654.802 0.709852 -3.3128 0
M  V30 7012 C 653.361 1.17718 -3.57518 0
M  V30 7013 C 652.508 0.194183 -2.76619 0
M  V30 7014 H 655.459 -0.360126 -1.5456 0
M  V30 7015 H 655.48 1.5657 -3.46794 0
M  V30 7016 H 654.992 -0.213024 -3.87515 0
M  V30 7017 H 653.093 2.1164 -3.06658 0
M  V30 7018 H 653.206 1.11128 -4.66034 0
M  V30 7019 H 651.57 0.684478 -2.4533 0
M  V30 7020 H 652.353 -0.722076 -3.3562 0
M  V30 7021 N 654.798 1.5699 0.138552 0
M  V30 7022 C 655.728 2.01933 1.17241 0
M  V30 7023 C 656.709 0.90033 1.44319 0
M  V30 7024 O 657.894 1.16872 1.55095 0
M  V30 7025 C 655.024 2.40711 2.50351 0
M  V30 7026 C 653.978 3.55874 2.37776 0
M  V30 7027 C 653.304 3.80491 3.75674 0
M  V30 7028 C 654.604 4.8826 1.85472 0
M  V30 7029 H 656.298 2.88551 0.798672 0
M  V30 7030 H 653.844 1.3882 0.382743 0
M  V30 7031 H 655.797 2.70754 3.22909 0
M  V30 7032 H 654.521 1.5104 2.89576 0
M  V30 7033 H 653.18 3.2601 1.67669 0
M  V30 7034 H 652.828 2.88057 4.12349 0
M  V30 7035 H 652.528 4.57998 3.68119 0
M  V30 7036 H 654.052 4.12967 4.49767 0
M  V30 7037 H 655.466 5.16965 2.4783 0
M  V30 7038 H 653.863 5.69631 1.88787 0
M  V30 7039 H 654.933 4.78071 0.810935 0
M  V30 7040 N 656.276 -0.40816 1.52223 0
M  V30 7041 C 657.208 -1.51642 1.71864 0
M  V30 7042 C 658.221 -1.51378 0.599056 0
M  V30 7043 O 659.41 -1.55626 0.874239 0
M  V30 7044 C 656.51 -2.90534 1.74481 0
M  V30 7045 C 655.683 -3.14979 3.03491 0
M  V30 7046 C 654.742 -4.33749 2.97907 0
M  V30 7047 O 653.768 -4.30982 3.71811 0
M  V30 7048 N 654.97 -5.38912 2.15764 0
M  V30 7049 H 657.735 -1.35188 2.67478 0
M  V30 7050 H 655.296 -0.597468 1.50472 0
M  V30 7051 H 657.288 -3.68056 1.68275 0
M  V30 7052 H 655.858 -3.00441 0.863363 0
M  V30 7053 H 655.078 -2.25492 3.23337 0
M  V30 7054 H 656.366 -3.28156 3.88833 0
M  V30 7055 H 655.764 -5.44008 1.55152 0
M  V30 7056 H 654.321 -6.15174 2.15415 0
M  V30 7057 N 657.755 -1.42862 -0.66545 0
M  V30 7058 C 659.166 -1.3901 -1.24632 0
M  V30 7059 C 659.517 -0.0880285 -1.96002 0
M  V30 7060 O 658.642 0.812947 -2.0055 0
M  V30 7061 C 659.237 -2.51806 -2.2667 0
M  V30 7062 C 657.796 -2.51257 -2.80262 0
M  V30 7063 C 656.943 -2.30124 -1.5472 0
M  V30 7064 H 659.894 -1.5194 -0.458237 0
M  V30 7065 H 659.915 -2.22593 -3.08598 0
M  V30 7066 H 659.427 -3.46558 -1.74697 0
M  V30 7067 H 657.528 -1.60349 -3.36332 0
M  V30 7068 H 657.641 -3.48614 -3.28641 0
M  V30 7069 H 656.005 -1.7856 -1.81627 0
M  V30 7070 H 656.788 -3.26945 -1.04699 0
M  V30 7071 N 659.233 0.902656 -1.29189 0
M  V30 7072 C 660.163 2.02294 -1.16616 0
M  V30 7073 C 661.144 1.6999 -0.0611175 0
M  V30 7074 O 662.329 1.9271 -0.240072 0
M  V30 7075 C 659.459 3.37018 -0.83882 0
M  V30 7076 C 658.413 3.83522 -1.89986 0
M  V30 7077 C 657.739 5.15337 -1.42589 0
M  V30 7078 C 659.039 4.04169 -3.30824 0
M  V30 7079 H 660.733 2.13071 -2.10336 0
M  V30 7080 H 658.279 1.02378 -1.01266 0
M  V30 7081 H 660.232 4.14895 -0.737584 0
M  V30 7082 H 658.956 3.26325 0.134071 0
M  V30 7083 H 657.615 3.07859 -1.99043 0
M  V30 7084 H 657.263 5.01056 -0.441759 0
M  V30 7085 H 656.963 5.47423 -2.13547 0
M  V30 7086 H 658.487 5.95758 -1.3381 0
M  V30 7087 H 659.901 4.72537 -3.24626 0
M  V30 7088 H 658.298 4.47604 -3.99713 0
M  V30 7089 H 659.368 3.08604 -3.74021 0
M  V30 7090 N 660.711 1.11618 1.11262 0
M  V30 7091 C 661.96 0.860934 1.82403 0
M  V30 7092 C 662.273 -0.615303 1.8567 0
M  V30 7093 O 663.479 -0.986861 2.52929 0
M  V30 7094 C 661.935 1.49048 3.27586 0
M  V30 7095 C 661.543 3.00089 3.32642 0
M  V30 7096 C 663.287 1.31515 4.03614 0
M  V30 7097 C 661.194 3.56019 4.72234 0
M  V30 7098 H 660.124 0.318423 0.683464 0
M  V30 7099 H 662.775 1.34165 1.25188 0
M  V30 7100 H 661.157 0.937434 3.84744 0
M  V30 7101 H 662.331 3.61813 2.85356 0
M  V30 7102 H 660.646 3.16919 2.70096 0
M  V30 7103 H 663.243 1.70732 5.0671 0
M  V30 7104 H 663.586 0.257917 4.155 0
M  V30 7105 H 664.119 1.83694 3.52848 0
M  V30 7106 H 660.858 4.61463 4.65545 0
M  V30 7107 H 660.378 2.99066 5.19923 0
M  V30 7108 H 662.057 3.54568 5.41193 0
M  V30 7109 N 662.189 -1.289 0.906776 0
M  V30 7110 C 663.136 -2.2751 0.388313 0
M  V30 7111 C 664.106 -1.57301 -0.533439 0
M  V30 7112 O 665.291 -1.85243 -0.457148 0
M  V30 7113 C 662.431 -3.43091 -0.37181 0
M  V30 7114 C 661.544 -4.28066 0.581647 0
M  V30 7115 C 660.679 -5.30837 -0.19623 0
M  V30 7116 C 659.718 -6.07472 0.751294 0
M  V30 7117 N 658.855 -7.021 0.00737727 0
M  V30 7118 H 663.695 -2.71237 1.23428 0
M  V30 7119 H 661.232 -1.33397 0.619962 0
M  V30 7120 H 663.19 -4.08888 -0.828641 0
M  V30 7121 H 661.82 -3.00374 -1.18218 0
M  V30 7122 H 660.872 -3.62378 1.157 0
M  V30 7123 H 662.184 -4.81382 1.30665 0
M  V30 7124 H 661.338 -6.02485 -0.71394 0
M  V30 7125 H 660.077 -4.78272 -0.954324 0
M  V30 7126 H 659.082 -5.34682 1.28044 0
M  V30 7127 H 660.307 -6.62126 1.50883 0
M  V30 7128 H 658.253 -6.51894 -0.732854 0
M  V30 7129 H 658.17 -7.53004 0.672334 0
M  V30 7130 H 659.438 -7.77956 -0.490365 0
M  V30 7131 N 663.667 -0.670007 -1.42649 0
M  V30 7132 C 664.577 0.0114788 -2.34597 0
M  V30 7133 C 665.593 0.794055 -1.54825 0
M  V30 7134 O 666.769 0.737472 -1.87412 0
M  V30 7135 C 663.834 0.954436 -3.33304 0
M  V30 7136 C 662.895 0.166925 -4.28975 0
M  V30 7137 C 662.128 1.06497 -5.22967 0
M  V30 7138 O 662.351 2.30446 -5.21777 0
M  V30 7139 O 661.285 0.528347 -5.99577 0
M  V30 7140 H 665.111 -0.745794 -2.944 0
M  V30 7141 H 662.696 -0.430228 -1.43071 0
M  V30 7142 H 664.578 1.49589 -3.93956 0
M  V30 7143 H 663.253 1.69164 -2.7598 0
M  V30 7144 H 662.16 -0.418515 -3.71752 0
M  V30 7145 H 663.493 -0.531067 -4.89327 0
M  V30 7146 N 665.145 1.52092 -0.413018 0
M  V30 7147 C 666.077 2.24819 0.445994 0
M  V30 7148 C 667.09 1.27925 1.00692 0
M  V30 7149 O 668.279 1.53845 0.905204 0
M  V30 7150 C 665.379 2.96951 1.6332 0
M  V30 7151 C 664.552 4.20746 1.19548 0
M  V30 7152 C 663.611 4.75668 2.25003 0
M  V30 7153 O 662.637 5.38148 1.85434 0
M  V30 7154 N 663.839 4.57579 3.57214 0
M  V30 7155 H 666.604 2.99176 -0.177209 0
M  V30 7156 H 664.165 1.60102 -0.240601 0
M  V30 7157 H 666.157 3.30586 2.33441 0
M  V30 7158 H 664.727 2.25756 2.16225 0
M  V30 7159 H 663.947 3.92881 0.32224 0
M  V30 7160 H 665.235 5.01132 0.880033 0
M  V30 7161 H 664.633 4.07758 3.92109 0
M  V30 7162 H 663.19 4.95642 4.23299 0
M  V30 7163 N 666.623 0.143563 1.56945 0
M  V30 7164 C 667.57 -0.797433 2.16586 0
M  V30 7165 C 668.54 -1.24654 1.09775 0
M  V30 7166 O 669.725 -1.31968 1.37801 0
M  V30 7167 C 666.865 -2.03253 2.78895 0
M  V30 7168 C 665.978 -1.62954 4.00087 0
M  V30 7169 C 665.113 -2.81617 4.50406 0
M  V30 7170 C 664.152 -2.37675 5.64072 0
M  V30 7171 N 663.289 -3.49335 6.09023 0
M  V30 7172 H 668.129 -0.282023 2.96662 0
M  V30 7173 H 665.666 -0.127494 1.46546 0
M  V30 7174 H 667.624 -2.75653 3.13163 0
M  V30 7175 H 666.254 -2.52211 2.01469 0
M  V30 7176 H 665.306 -0.803322 3.71821 0
M  V30 7177 H 666.618 -1.26679 4.82446 0
M  V30 7178 H 665.772 -3.62212 4.86711 0
M  V30 7179 H 664.511 -3.21134 3.67048 0
M  V30 7180 H 663.516 -1.55519 5.27346 0
M  V30 7181 H 664.741 -1.99247 6.49213 0
M  V30 7182 H 662.687 -3.8848 5.28601 0
M  V30 7183 H 662.604 -3.17064 6.86299 0
M  V30 7184 H 663.872 -4.30297 6.49973 0
M  V30 7185 N 668.101 -1.57061 -0.130224 0
M  V30 7186 C 669.512 -1.73539 -0.68856 0
M  V30 7187 C 669.863 -0.760554 -1.80859 0
M  V30 7188 O 668.988 0.0690796 -2.1629 0
M  V30 7189 C 669.583 -3.14666 -1.25581 0
M  V30 7190 C 668.142 -3.32689 -1.76055 0
M  V30 7191 C 667.289 -2.69436 -0.655712 0
M  V30 7192 H 670.24 -1.58412 0.0956002 0
M  V30 7193 H 670.261 -3.15595 -2.12556 0
M  V30 7194 H 669.773 -3.85593 -0.440412 0
M  V30 7195 H 667.874 -2.66786 -2.60108 0
M  V30 7196 H 667.987 -4.4077 -1.87772 0
M  V30 7197 H 666.351 -2.30362 -1.08654 0
M  V30 7198 H 667.134 -3.42979 0.14852 0
M  V30 7199 N 669.579 0.400081 -1.52437 0
M  V30 7200 C 670.526 1.48803 -1.76426 0
M  V30 7201 C 671.496 1.5461 -0.607032 0
M  V30 7202 O 672.681 1.71041 -0.845563 0
M  V30 7203 C 669.821 2.86156 -1.92896 0
M  V30 7204 C 668.934 2.89587 -3.20567 0
M  V30 7205 C 668.069 4.18296 -3.27417 0
M  V30 7206 C 667.108 4.15736 -4.49255 0
M  V30 7207 N 666.245 5.36032 -4.53447 0
M  V30 7208 H 671.085 1.27649 -2.69276 0
M  V30 7209 H 668.622 0.619451 -1.33421 0
M  V30 7210 H 670.58 3.65901 -2.00429 0
M  V30 7211 H 669.21 3.05785 -1.03418 0
M  V30 7212 H 668.262 2.02278 -3.22161 0
M  V30 7213 H 669.574 2.83562 -4.10358 0
M  V30 7214 H 668.728 5.06439 -3.34072 0
M  V30 7215 H 667.467 4.27028 -2.35581 0
M  V30 7216 H 666.472 3.25982 -4.42737 0
M  V30 7217 H 667.697 4.08636 -5.42396 0
M  V30 7218 H 665.643 5.45415 -3.64498 0
M  V30 7219 H 665.56 5.32038 -5.37096 0
M  V30 7220 H 666.828 6.26104 -4.64343 0
M  V30 7221 N 671.057 1.43213 0.657864 0
M  V30 7222 C 672.334 1.35063 1.41483 0
M  V30 7223 C 672.714 -0.0038314 2.111 0
M  V30 7224 O 672.062 -1.02018 2.04462 0
M  V30 7225 C 672.272 2.53061 2.40335 0
M  V30 7226 C 673.62 2.9594 3.04474 0
M  V30 7227 O 674.644 2.53074 2.50663 0
M  V30 7228 O 673.503 3.70184 4.02027 0
M  V30 7229 H 670.597 0.533517 0.631893 0
M  V30 7230 H 673.143 1.55253 0.685162 0
M  V30 7231 H 671.915 3.43283 1.87809 0
M  V30 7232 H 671.538 2.34945 3.20759 0
M  V30 7233 N 672.536 -0.895792 1.29666 0
M  V30 7234 C 673.468 -2.00563 1.10937 0
M  V30 7235 C 674.481 -1.62705 0.055734 0
M  V30 7236 O 675.67 -1.7595 0.300656 0
M  V30 7237 C 672.77 -3.32262 0.667448 0
M  V30 7238 C 671.943 -3.98625 1.80047 0
M  V30 7239 C 671.002 -5.08617 1.3489 0
M  V30 7240 O 670.028 -5.30837 2.05429 0
M  V30 7241 N 671.23 -5.80076 0.221937 0
M  V30 7242 H 673.995 -2.17184 2.06522 0
M  V30 7243 H 671.556 -1.06822 1.21658 0
M  V30 7244 H 673.548 -4.03196 0.348586 0
M  V30 7245 H 672.118 -3.11985 -0.196055 0
M  V30 7246 H 671.338 -3.21005 2.28801 0
M  V30 7247 H 672.626 -4.39704 2.56003 0
M  V30 7248 H 672.024 -5.64514 -0.366084 0
M  V30 7249 H 670.581 -6.51789 -0.0375346 0
M  V30 7250 N 674.014 -1.12206 -1.10668 0
M  V30 7251 C 675.239 -0.898938 -1.86906 0
M  V30 7252 C 675.664 0.546346 -1.79991 0
M  V30 7253 O 675.022 1.38655 -1.1681 0
M  V30 7254 C 675.07 -1.37529 -3.33344 0
M  V30 7255 O 674.174 -0.55218 -4.08687 0
M  V30 7256 H 673.515 -0.323163 -0.580053 0
M  V30 7257 H 676.045 -1.49355 -1.39837 0
M  V30 7258 H 676.055 -1.3733 -3.84193 0
M  V30 7259 H 674.73 -2.42767 -3.37693 0
M  V30 7260 H 673.307 -0.620947 -3.67694 0
M  V30 7261 N 675.492 1.28418 -0.913599 0
M  V30 7262 C 676.422 2.29713 -0.418847 0
M  V30 7263 C 677.403 1.62165 0.513469 0
M  V30 7264 O 678.588 1.89576 0.421235 0
M  V30 7265 C 675.718 3.45612 0.342042 0
M  V30 7266 C 674.672 4.25056 -0.501123 0
M  V30 7267 C 673.998 5.3329 0.388097 0
M  V30 7268 C 675.298 4.91814 -1.75831 0
M  V30 7269 H 676.992 2.71346 -1.26538 0
M  V30 7270 H 674.538 1.30446 -0.609903 0
M  V30 7271 H 676.491 4.15562 0.699 0
M  V30 7272 H 675.215 3.02858 1.22248 0
M  V30 7273 H 673.874 3.56833 -0.840598 0
M  V30 7274 H 673.522 4.8678 1.26707 0
M  V30 7275 H 673.222 5.87347 -0.172459 0
M  V30 7276 H 674.746 6.06088 0.74094 0
M  V30 7277 H 676.16 5.54126 -1.47026 0
M  V30 7278 H 674.557 5.55866 -2.26126 0
M  V30 7279 H 675.627 4.16313 -2.4862 0
M  V30 7280 N 676.97 0.677563 1.42291 0
M  V30 7281 C 677.933 0.0101085 2.29198 0
M  V30 7282 C 678.933 -0.726219 1.43467 0
M  V30 7283 O 680.123 -0.563807 1.64824 0
M  V30 7284 C 677.255 -0.996316 3.26016 0
M  V30 7285 H 678.448 0.775071 2.89711 0
M  V30 7286 H 676.001 0.440065 1.49977 0
M  V30 7287 H 676.736 -1.78967 2.70446 0
M  V30 7288 H 676.521 -0.471687 3.89253 0
M  V30 7289 H 678.011 -1.46167 3.91184 0
M  V30 7290 N 678.448 -1.51871 0.421078 0
M  V30 7291 C 679.378 -2.30231 -0.389363 0
M  V30 7292 C 680.359 -1.34946 -1.03555 0
M  V30 7293 O 681.544 -1.63859 -1.04229 0
M  V30 7294 C 678.674 -3.13247 -1.49979 0
M  V30 7295 C 677.628 -4.16677 -0.977966 0
M  V30 7296 C 676.954 -4.88112 -2.1829 0
M  V30 7297 C 678.254 -5.22295 -0.0236775 0
M  V30 7298 H 679.948 -2.98229 0.264524 0
M  V30 7299 H 677.494 -1.43424 0.12866 0
M  V30 7300 H 679.447 -3.66838 -2.07383 0
M  V30 7301 H 678.171 -2.4304 -2.18173 0
M  V30 7302 H 676.83 -3.64114 -0.426245 0
M  V30 7303 H 676.478 -4.14423 -2.85066 0
M  V30 7304 H 676.178 -5.58041 -1.84021 0
M  V30 7305 H 677.702 -5.44521 -2.76278 0
M  V30 7306 H 679.116 -5.71055 -0.506899 0
M  V30 7307 H 677.513 -5.99656 0.230782 0
M  V30 7308 H 678.583 -4.76131 0.917999 0
M  V30 7309 N 679.926 -0.151884 -1.56866 0
M  V30 7310 C 681.151 0.508044 -2.01081 0
M  V30 7311 C 681.576 1.57306 -1.03134 0
M  V30 7312 O 680.934 1.81298 -0.0078309 0
M  V30 7313 C 680.982 1.08106 -3.44014 0
M  V30 7314 O 680.086 2.19577 -3.49084 0
M  V30 7315 H 679.427 0.123757 -0.652365 0
M  V30 7316 H 681.957 -0.250055 -2.03066 0
M  V30 7317 H 681.967 1.40851 -3.82916 0
M  V30 7318 H 680.642 0.301168 -4.14808 0
M  V30 7319 H 679.219 1.88023 -3.22027 0
M  V30 7320 N 681.404 1.57128 0.121893 0
M  V30 7321 C 682.815 1.73902 0.679348 0
M  V30 7322 C 683.166 0.770135 1.80453 0
M  V30 7323 O 682.291 -0.0576083 2.16323 0
M  V30 7324 C 682.886 3.15328 1.2391 0
M  V30 7325 C 681.445 3.33618 1.74288 0
M  V30 7326 C 680.592 2.6978 0.641414 0
M  V30 7327 H 683.543 1.58359 -0.104 0
M  V30 7328 H 683.564 3.16718 2.10879 0
M  V30 7329 H 683.076 3.85821 0.419957 0
M  V30 7330 H 681.177 2.68162 2.58689 0
M  V30 7331 H 681.29 4.4176 1.85432 0
M  V30 7332 H 679.654 2.30935 1.0743 0
M  V30 7333 H 680.437 3.42895 -0.166707 0
M  V30 7334 N 682.882 -0.391992 1.52647 0
M  V30 7335 C 683.829 -1.47866 1.77213 0
M  V30 7336 C 684.799 -1.54286 0.615223 0
M  V30 7337 O 685.984 -1.7059 0.854622 0
M  V30 7338 C 683.124 -2.85129 1.94411 0
M  V30 7339 C 682.237 -2.87883 3.22098 0
M  V30 7340 C 681.372 -4.16553 3.29631 0
M  V30 7341 C 680.411 -4.13348 4.51453 0
M  V30 7342 N 679.548 -5.33619 4.56284 0
M  V30 7343 H 684.388 -1.26219 2.6995 0
M  V30 7344 H 681.925 -0.612367 1.33748 0
M  V30 7345 H 683.883 -3.64833 2.02367 0
M  V30 7346 H 682.513 -3.05232 1.05038 0
M  V30 7347 H 681.565 -2.00567 3.23229 0
M  V30 7348 H 682.877 -2.81382 4.11856 0
M  V30 7349 H 682.031 -5.0466 3.36753 0
M  V30 7350 H 680.77 -4.25773 2.37842 0
M  V30 7351 H 679.775 -3.23629 4.44459 0
M  V30 7352 H 681 -4.05754 5.44555 0
M  V30 7353 H 678.946 -5.43474 3.67385 0
M  V30 7354 H 678.863 -5.29182 5.3991 0
M  V30 7355 H 680.131 -6.23632 4.67657 0
M  V30 7356 N 684.36 -1.4356 -0.65026 0
M  V30 7357 C 685.29 -1.51758 -1.77459 0
M  V30 7358 C 686.271 -0.372019 -1.65982 0
M  V30 7359 O 687.456 -0.589627 -1.85033 0
M  V30 7360 C 684.586 -1.44302 -3.15902 0
M  V30 7361 C 683.54 -2.57138 -3.42146 0
M  V30 7362 C 682.866 -2.34735 -4.8042 0
M  V30 7363 C 684.166 -3.99373 -3.36598 0
M  V30 7364 H 685.86 -2.45863 -1.70855 0
M  V30 7365 H 683.406 -1.18333 -0.820566 0
M  V30 7366 H 685.359 -1.48641 -3.94314 0
M  V30 7367 H 684.083 -0.467026 -3.23244 0
M  V30 7368 H 682.742 -2.52157 -2.66106 0
M  V30 7369 H 682.39 -1.35372 -4.84441 0
M  V30 7370 H 682.09 -3.10375 -4.9894 0
M  V30 7371 H 683.614 -2.40862 -5.61086 0
M  V30 7372 H 685.028 -4.05826 -4.04942 0
M  V30 7373 H 683.425 -4.75063 -3.66654 0
M  V30 7374 H 684.495 -4.243 -2.34729 0
M  V30 7375 N 685.838 0.888903 -1.30139 0
M  V30 7376 C 686.748 2.02705 -1.18101 0
M  V30 7377 C 687.764 1.73702 -0.101809 0
M  V30 7378 O 688.94 1.98906 -0.315984 0
M  V30 7379 C 686.005 3.35616 -0.869651 0
M  V30 7380 C 685.066 3.78067 -2.03381 0
M  V30 7381 C 684.299 5.04635 -1.73721 0
M  V30 7382 O 684.522 5.66531 -0.663267 0
M  V30 7383 O 683.456 5.43399 -2.58845 0
M  V30 7384 H 687.282 2.15788 -2.13704 0
M  V30 7385 H 684.867 1.01426 -1.09695 0
M  V30 7386 H 686.749 4.15358 -0.711043 0
M  V30 7387 H 685.424 3.23651 0.0565002 0
M  V30 7388 H 684.331 2.99046 -2.24772 0
M  V30 7389 H 685.664 3.94631 -2.94155 0
M  V30 7390 N 687.317 1.12792 1.10072 0
M  V30 7391 C 688.557 0.895691 1.8373 0
M  V30 7392 C 688.921 -0.568131 1.83402 0
M  V30 7393 O 690.122 -0.917666 2.52651 0
M  V30 7394 C 688.393 1.4593 3.2625 0
M  V30 7395 S 689.952 1.36615 4.16991 0
M  V30 7396 H 686.77 0.323017 0.633389 0
M  V30 7397 H 689.372 1.43816 1.32428 0
M  V30 7398 H 688.076 2.51818 3.24062 0
M  V30 7399 H 687.607 0.914478 3.82624 0
M  V30 7400 H 689.622 0.340131 4.95033 0
M  V30 7401 N 688.795 -1.27931 0.920396 0
M  V30 7402 C 690.02 -1.99343 0.572478 0
M  V30 7403 C 690.445 -1.68267 -0.840696 0
M  V30 7404 O 689.803 -0.918805 -1.56294 0
M  V30 7405 C 689.851 -3.51698 0.796284 0
M  V30 7406 O 688.955 -4.12157 -0.141602 0
M  V30 7407 H 688.296 -0.626065 0.221221 0
M  V30 7408 H 690.826 -1.62921 1.23765 0
M  V30 7409 H 690.836 -4.01793 0.708984 0
M  V30 7410 H 689.511 -3.73649 1.82644 0
M  V30 7411 H 688.088 -3.729 -0.005007 0
M  V30 7412 N 690.273 -0.685099 -1.4193 0
M  V30 7413 C 691.521 -0.21124 -2.00993 0
M  V30 7414 C 691.842 1.18985 -1.54491 0
M  V30 7415 O 691.112 1.8009 -0.771 0
M  V30 7416 H 689.692 -0.0751059 -0.743215 0
M  V30 7417 H 692.354 -0.883915 -1.73704 0
M  V30 7418 H 691.45 -0.220513 -3.1132 0
M  V30 7419 N 691.751 1.51645 -0.429126 0
M  V30 7420 C 692.979 2.06433 0.138994 0
M  V30 7421 C 693.394 1.29735 1.37165 0
M  V30 7422 O 692.751 0.354638 1.79021 0
M  V30 7423 C 692.802 3.58439 0.469452 0
M  V30 7424 O 692.523 4.32238 -0.714273 0
M  V30 7425 C 694.024 4.29712 1.08914 0
M  V30 7426 H 691.244 0.6709 0.0115608 0
M  V30 7427 H 693.788 1.9532 -0.605843 0
M  V30 7428 H 691.943 3.69494 1.16419 0
M  V30 7429 H 692.357 5.22704 -0.433633 0
M  V30 7430 H 693.831 5.37182 1.27042 0
M  V30 7431 H 694.308 3.87473 2.06788 0
M  V30 7432 H 694.914 4.2308 0.434028 0
M  V30 7433 N 693.229 0.160201 1.56784 0
M  V30 7434 C 694.478 -0.487619 1.95717 0
M  V30 7435 C 694.791 -1.65136 1.0483 0
M  V30 7436 O 695.997 -2.36468 1.33398 0
M  V30 7437 C 694.453 -0.91888 3.47972 0
M  V30 7438 C 694.061 0.218655 4.47466 0
M  V30 7439 C 695.805 -1.53575 3.95746 0
M  V30 7440 C 693.712 -0.231614 5.90946 0
M  V30 7441 H 692.642 -0.185939 0.730714 0
M  V30 7442 H 695.293 0.246657 1.81835 0
M  V30 7443 H 693.675 -1.70881 3.57234 0
M  V30 7444 H 694.849 0.995825 4.49911 0
M  V30 7445 H 693.164 0.744767 4.09685 0
M  V30 7446 H 695.761 -1.88448 5.00391 0
M  V30 7447 H 696.104 -2.42959 3.38048 0
M  V30 7448 H 696.637 -0.810467 3.89456 0
M  V30 7449 H 693.376 0.62718 6.52493 0
M  V30 7450 H 692.896 -0.974379 5.91833 0
M  V30 7451 H 694.575 -0.67922 6.43425 0
M  V30 7452 N 694.707 -1.5719 -0.113559 0
M  V30 7453 C 695.637 -2.03772 -1.14013 0
M  V30 7454 C 696.618 -0.923176 -1.42869 0
M  V30 7455 O 697.803 -1.19325 -1.53216 0
M  V30 7456 C 694.933 -2.44663 -2.4649 0
M  V30 7457 C 693.887 -3.59612 -2.32085 0
M  V30 7458 C 693.213 -3.8642 -3.69573 0
M  V30 7459 C 694.513 -4.91149 -1.7768 0
M  V30 7460 H 696.207 -2.89785 -0.752665 0
M  V30 7461 H 693.753 -1.39412 -0.360609 0
M  V30 7462 H 695.706 -2.75857 -3.18561 0
M  V30 7463 H 694.43 -1.55628 -2.87137 0
M  V30 7464 H 693.089 -3.28636 -1.62461 0
M  V30 7465 H 692.737 -2.94581 -4.07715 0
M  V30 7466 H 692.437 -4.63797 -3.60786 0
M  V30 7467 H 693.961 -4.2007 -4.4314 0
M  V30 7468 H 695.375 -5.20843 -2.39574 0
M  V30 7469 H 693.772 -5.72562 -1.79701 0
M  V30 7470 H 694.842 -4.79301 -0.734776 0
M  V30 7471 N 696.185 0.383891 -1.52853 0
M  V30 7472 C 697.148 1.45197 -1.77343 0
M  V30 7473 C 698.148 1.47362 -0.643522 0
M  V30 7474 O 699.338 1.48443 -0.911613 0
M  V30 7475 C 696.47 2.8445 -1.87885 0
M  V30 7476 H 697.663 1.24764 -2.72716 0
M  V30 7477 H 695.216 0.615939 -1.43652 0
M  V30 7478 H 695.951 3.10222 -0.94515 0
M  V30 7479 H 695.736 2.8428 -2.70051 0
M  V30 7480 H 697.226 3.61832 -2.08488 0
M  V30 7481 N 697.663 1.43903 0.642637 0
M  V30 7482 C 698.613 1.46321 1.74854 0
M  V30 7483 C 699.597 0.330361 1.57472 0
M  V30 7484 O 700.789 0.574881 1.67404 0
M  V30 7485 C 697.918 1.39919 3.13493 0
M  V30 7486 C 697.004 2.58274 3.36385 0
M  V30 7487 N 697.395 3.83578 3.29699 0
M  V30 7488 C 695.693 2.53224 3.67142 0
M  V30 7489 C 696.394 4.62375 3.52965 0
M  V30 7490 N 695.37 3.93269 3.75287 0
M  V30 7491 H 699.172 2.41062 1.68126 0
M  V30 7492 H 696.686 1.38704 0.844693 0
M  V30 7493 H 698.683 1.39735 3.92785 0
M  V30 7494 H 697.343 0.46207 3.21395 0
M  V30 7495 H 698.354 4.15713 3.08874 0
M  V30 7496 H 695.031 1.68252 3.82096 0
M  V30 7497 H 696.421 5.714 3.53485 0
M  V30 7498 N 699.141 -0.881989 1.30609 0
M  V30 7499 C 700.366 -1.67236 1.22665 0
M  V30 7500 C 700.791 -1.8696 -0.206777 0
M  V30 7501 O 700.149 -1.4027 -1.14865 0
M  V30 7502 C 700.197 -3.02446 1.96363 0
M  V30 7503 O 699.301 -3.91614 1.29276 0
M  V30 7504 H 698.642 -0.510902 0.424117 0
M  V30 7505 H 701.172 -1.10055 1.72479 0
M  V30 7506 H 701.182 -3.52468 2.055 0
M  V30 7507 H 699.857 -2.8741 3.00613 0
M  V30 7508 H 698.434 -3.50055 1.28514 0
M  V30 7509 N 700.619 -1.13374 -1.09472 0
M  V30 7510 C 701.567 -0.806105 -2.18185 0
M  V30 7511 C 702.561 0.21136 -1.68076 0
M  V30 7512 O 703.767 0.0685558 -1.79869 0
M  V30 7513 H 700.142 -0.242901 -0.71169 0
M  V30 7514 H 702.113 -1.73115 -2.43051 0
M  V30 7515 C 700.862 -0.287928 -3.46506 0
M  V30 7516 H 700.185 -1.06217 -3.85432 0
M  V30 7517 H 701.625 -0.0971054 -4.23889 0
M  V30 7518 C 700.084 0.986256 -3.22141 0
M  V30 7519 O 700.614 2.06217 -3.44728 0
M  V30 7520 N 698.82 0.917153 -2.75747 0
M  V30 7521 H 698.367 0.0414609 -2.57567 0
M  V30 7522 H 698.325 1.77029 -2.59823 0
M  V30 7523 N 702.098 1.27442 -0.927168 0
M  V30 7524 C 703.028 2.29256 -0.443188 0
M  V30 7525 C 704.009 1.62701 0.49624 0
M  V30 7526 O 705.194 1.90013 0.401105 0
M  V30 7527 C 702.324 3.45955 0.305366 0
M  V30 7528 C 701.278 4.24501 -0.546178 0
M  V30 7529 C 700.604 5.33671 0.331512 0
M  V30 7530 C 701.904 4.89921 -1.81037 0
M  V30 7531 H 703.598 2.69988 -1.29409 0
M  V30 7532 H 701.144 1.29792 -0.623705 0
M  V30 7533 H 703.097 4.1628 0.654885 0
M  V30 7534 H 701.821 3.04138 1.19029 0
M  V30 7535 H 700.48 3.55921 -0.878398 0
M  V30 7536 H 700.128 4.88096 1.21537 0
M  V30 7537 H 699.828 5.87131 -0.234746 0
M  V30 7538 H 701.352 6.0684 0.676614 0
M  V30 7539 H 702.766 5.52536 -1.52895 0
M  V30 7540 H 701.163 5.53436 -2.32009 0
M  V30 7541 H 702.233 4.13652 -2.53021 0
M  V30 7542 N 703.576 0.692616 1.41565 0
M  V30 7543 C 704.992 0.363878 1.55397 0
M  V30 7544 C 705.192 -1.1294 1.66874 0
M  V30 7545 O 704.248 -1.91517 1.64552 0
M  V30 7546 C 705.561 1.10982 2.7947 0
M  V30 7547 C 707.109 1.09387 2.93263 0
M  V30 7548 C 707.584 1.8215 4.20221 0
M  V30 7549 N 709.075 1.79105 4.27172 0
M  V30 7550 C 709.81 2.32247 5.2426 0
M  V30 7551 N 709.306 2.93847 6.27396 0
M  V30 7552 N 711.099 2.22519 5.1618 0
M  V30 7553 H 703.25 1.66116 1.3236 0
M  V30 7554 H 705.513 0.700848 0.63837 0
M  V30 7555 H 705.219 2.1647 2.77188 0
M  V30 7556 H 705.093 0.686492 3.709 0
M  V30 7557 H 707.48 0.0472638 2.95062 0
M  V30 7558 H 707.561 1.55623 2.03015 0
M  V30 7559 H 707.205 2.86789 4.19183 0
M  V30 7560 H 707.135 1.33351 5.09436 0
M  V30 7561 H 709.626 1.34191 3.53272 0
M  V30 7562 H 709.939 3.31972 6.97864 0
M  V30 7563 H 708.284 2.97924 6.27906 0
M  V30 7564 H 711.475 1.7407 4.34531 0
M  V30 7565 H 711.648 2.64239 5.91677 0
M  V30 7566 N 705.054 -1.51416 0.437162 0
M  V30 7567 C 705.984 -2.30631 -0.364922 0
M  V30 7568 C 706.965 -1.36037 -1.02118 0
M  V30 7569 O 708.15 -1.64956 -1.02485 0
M  V30 7570 C 705.28 -3.1482 -1.46648 0
M  V30 7571 C 704.234 -4.17691 -0.933717 0
M  V30 7572 C 703.56 -4.904 -2.13101 0
M  V30 7573 C 704.86 -5.2229 0.0317201 0
M  V30 7574 H 706.554 -2.97932 0.29614 0
M  V30 7575 H 704.1 -1.4328 0.143865 0
M  V30 7576 H 706.053 -3.69017 -2.03481 0
M  V30 7577 H 704.777 -2.4534 -2.15583 0
M  V30 7578 H 703.436 -3.64545 -0.387602 0
M  V30 7579 H 703.084 -4.17423 -2.80654 0
M  V30 7580 H 702.784 -5.59962 -1.78092 0
M  V30 7581 H 704.308 -5.4742 -2.70487 0
M  V30 7582 H 705.722 -5.7156 -0.446302 0
M  V30 7583 H 704.119 -5.99378 0.29437 0
M  V30 7584 H 705.189 -4.75131 0.968447 0
M  V30 7585 N 706.532 -0.168513 -1.56696 0
M  V30 7586 C 707.462 0.758563 -2.20835 0
M  V30 7587 C 708.443 1.24121 -1.1631 0
M  V30 7588 O 709.628 1.29487 -1.4473 0
M  V30 7589 C 706.758 1.9892 -2.8469 0
M  V30 7590 C 705.712 1.64252 -3.95228 0
M  V30 7591 C 705.038 2.94757 -4.46119 0
M  V30 7592 C 706.338 0.872675 -5.14958 0
M  V30 7593 H 708.032 0.223953 -2.98561 0
M  V30 7594 H 705.578 0.106277 -1.43607 0
M  V30 7595 H 707.531 2.64275 -3.28233 0
M  V30 7596 H 706.255 2.5479 -2.04327 0
M  V30 7597 H 704.914 1.01266 -3.52336 0
M  V30 7598 H 704.562 3.48662 -3.62552 0
M  V30 7599 H 704.262 2.72316 -5.2069 0
M  V30 7600 H 705.786 3.61147 -4.92347 0
M  V30 7601 H 707.2 1.42875 -5.55211 0
M  V30 7602 H 705.597 0.747402 -5.95428 0
M  V30 7603 H 706.667 -0.131535 -4.84722 0
M  V30 7604 N 708.01 1.57248 0.105221 0
M  V30 7605 C 709.258 1.85204 0.808951 0
M  V30 7606 C 709.579 0.75574 1.7976 0
M  V30 7607 O 708.849 -0.218984 1.94672 0
M  V30 7608 H 707.429 0.683346 0.301739 0
M  V30 7609 H 710.091 1.94695 0.0892605 0
M  V30 7610 H 709.187 2.81595 1.34575 0
M  V30 7611 N 709.488 -0.375779 1.53054 0
M  V30 7612 C 710.713 -1.14484 1.7294 0
M  V30 7613 C 711.138 -1.82572 0.452668 0
M  V30 7614 O 710.496 -1.71343 -0.592567 0
M  V30 7615 C 710.544 -2.15857 2.88857 0
M  V30 7616 O 709.648 -3.22725 2.56753 0
M  V30 7617 H 708.989 -0.332666 0.574656 0
M  V30 7618 H 711.519 -0.436025 1.999 0
M  V30 7619 H 711.529 -2.59631 3.14731 0
M  V30 7620 H 710.204 -1.65689 3.81471 0
M  V30 7621 H 708.781 -2.83996 2.41663 0
M  V30 7622 N 710.966 -1.44241 -0.634997 0
M  V30 7623 C 712.191 -1.50516 -1.42687 0
M  V30 7624 C 712.616 -0.129864 -1.87651 0
M  V30 7625 O 711.974 0.880164 -1.58502 0
M  V30 7626 C 712.022 -2.4714 -2.62591 0
M  V30 7627 O 711.126 -1.97025 -3.62291 0
M  V30 7628 H 710.467 -0.50841 -0.427101 0
M  V30 7629 H 712.997 -1.89337 -0.775408 0
M  V30 7630 H 713.007 -2.65048 -3.10183 0
M  V30 7631 H 711.682 -3.47039 -2.29209 0
M  V30 7632 H 710.259 -1.88866 -3.21534 0
M  V30 7633 N 712.444 0.87505 -1.31075 0
M  V30 7634 C 713.721 1.60976 -1.11113 0
M  V30 7635 C 714.101 2.08409 0.336006 0
M  V30 7636 O 713.449 1.85858 1.32924 0
M  V30 7637 C 713.659 2.77166 -2.12085 0
M  V30 7638 C 715.007 3.47254 -2.44335 0
M  V30 7639 O 716.031 2.87367 -2.10472 0
M  V30 7640 O 714.89 4.55276 -3.02301 0
M  V30 7641 H 711.984 0.707982 -0.427424 0
M  V30 7642 H 714.53 0.920957 -1.42536 0
M  V30 7643 H 713.302 2.39494 -3.09449 0
M  V30 7644 H 712.925 3.53737 -1.81538 0
M  V30 7645 N 713.922 1.13953 1.08869 0
M  V30 7646 C 715.147 0.928559 1.85452 0
M  V30 7647 C 715.572 -0.517642 1.80837 0
M  V30 7648 O 714.93 -1.36779 1.19001 0
M  V30 7649 C 714.978 1.42814 3.31114 0
M  V30 7650 O 714.082 0.617129 4.07756 0
M  V30 7651 H 713.423 0.33235 0.574839 0
M  V30 7652 H 715.953 1.5156 1.37443 0
M  V30 7653 H 715.963 1.43425 3.8196 0
M  V30 7654 H 714.638 2.48109 3.33788 0
M  V30 7655 H 713.215 0.679365 3.66659 0
M  V30 7656 N 715.4 -1.26948 0.933913 0
M  V30 7657 C 716.811 -1.76058 0.621324 0
M  V30 7658 C 717.162 -1.76175 -0.863522 0
M  V30 7659 O 716.287 -1.36921 -1.67576 0
M  V30 7660 C 716.882 -3.19713 1.12111 0
M  V30 7661 C 715.441 -3.66465 0.859074 0
M  V30 7662 C 714.588 -2.46186 1.27624 0
M  V30 7663 H 717.539 -1.13127 1.11301 0
M  V30 7664 H 717.56 -3.77566 0.471608 0
M  V30 7665 H 717.072 -3.19596 2.20182 0
M  V30 7666 H 715.173 -3.72021 -0.207566 0
M  V30 7667 H 715.286 -4.55636 1.48098 0
M  V30 7668 H 713.65 -2.45042 0.694727 0
M  V30 7669 H 714.433 -2.48774 2.36572 0
M  V30 7670 N 716.879 -0.700114 -1.41195 0
M  V30 7671 C 717.842 -0.0465706 -2.29153 0
M  V30 7672 C 718.842 0.703302 -1.44604 0
M  V30 7673 O 720.032 0.537513 -1.657 0
M  V30 7674 C 717.164 0.944324 -3.2756 0
M  V30 7675 H 718.357 -0.821064 -2.88442 0
M  V30 7676 H 715.91 -0.463869 -1.49258 0
M  V30 7677 H 716.645 1.74642 -2.73259 0
M  V30 7678 H 716.43 0.409701 -3.89954 0
M  V30 7679 H 717.92 1.39925 -3.9346 0
M  V30 7680 N 718.357 1.51182 -0.445186 0
M  V30 7681 C 719.582 2.07056 0.119445 0
M  V30 7682 C 720.007 1.30966 1.35016 0
M  V30 7683 O 719.365 0.349827 1.77893 0
M  V30 7684 C 719.413 3.58234 0.412428 0
M  V30 7685 O 718.517 3.84249 1.49754 0
M  V30 7686 H 717.858 0.663998 -0.00157797 0
M  V30 7687 H 720.388 1.94699 -0.628779 0
M  V30 7688 H 720.398 4.02617 0.660583 0
M  V30 7689 H 719.073 4.13038 -0.487049 0
M  V30 7690 H 717.65 3.51724 1.23873 0
M  V30 7691 N 719.835 0.176821 1.56605 0
M  V30 7692 C 720.798 -0.737429 2.17013 0
M  V30 7693 C 721.798 -1.15414 1.11965 0
M  V30 7694 O 722.988 -1.0702 1.37449 0
M  V30 7695 C 720.12 -2.00445 2.75744 0
M  V30 7696 H 721.313 -0.211455 2.99154 0
M  V30 7697 H 718.866 -0.0727582 1.56131 0
M  V30 7698 H 719.601 -2.57338 1.97352 0
M  V30 7699 H 719.386 -1.71456 3.52626 0
M  V30 7700 H 720.876 -2.65679 3.22187 0
M  V30 7701 N 721.313 -1.57302 -0.09688 0
M  V30 7702 C 722.538 -1.9058 -0.818169 0
M  V30 7703 C 722.963 -0.770921 -1.71576 0
M  V30 7704 O 722.321 0.277588 -1.79162 0
M  V30 7705 C 722.369 -3.22714 -1.60898 0
M  V30 7706 O 721.473 -3.10178 -2.71779 0
M  V30 7707 H 720.814 -0.624759 -0.224882 0
M  V30 7708 H 723.344 -2.04471 -0.07264 0
M  V30 7709 H 723.354 -3.55978 -1.99358 0
M  V30 7710 H 722.029 -4.04899 -0.950227 0
M  V30 7711 H 720.606 -2.88424 -2.3636 0
M  V30 7712 N 722.791 0.367657 -1.53252 0
M  V30 7713 C 724.207 0.709191 -1.42978 0
M  V30 7714 C 724.407 1.93352 -0.567193 0
M  V30 7715 O 723.463 2.52453 -0.0488349 0
M  V30 7716 C 724.776 0.924338 -2.86141 0
M  V30 7717 C 726.324 1.02448 -2.95759 0
M  V30 7718 C 726.799 1.27211 -4.39979 0
M  V30 7719 N 728.29 1.33986 -4.43398 0
M  V30 7720 C 729.025 1.54852 -5.52095 0
M  V30 7721 N 728.521 1.73049 -6.7084 0
M  V30 7722 N 730.314 1.57205 -5.39669 0
M  V30 7723 H 722.465 -0.437669 -2.07842 0
M  V30 7724 H 724.728 -0.133737 -0.938519 0
M  V30 7725 H 724.434 0.0965455 -3.51567 0
M  V30 7726 H 724.308 1.83302 -3.29667 0
M  V30 7727 H 726.695 1.84282 -2.30487 0
M  V30 7728 H 726.776 0.0932301 -2.5563 0
M  V30 7729 H 726.42 0.458792 -5.05824 0
M  V30 7730 H 726.35 2.21654 -4.77679 0
M  V30 7731 H 728.841 1.21545 -3.5782 0
M  V30 7732 H 729.154 1.88538 -7.49449 0
M  V30 7733 H 727.499 1.70231 -6.7383 0
M  V30 7734 H 730.69 1.42555 -4.45865 0
M  V30 7735 H 730.863 1.73126 -6.24445 0
M  V30 7736 N 724.269 1.44576 0.627338 0
M  V30 7737 C 725.515 1.47777 1.38888 0
M  V30 7738 C 725.848 0.111406 1.9388 0
M  V30 7739 O 725.123 -0.87149 1.73883 0
M  V30 7740 C 725.406 2.54119 2.55138 0
M  V30 7741 C 725.259 4.00128 2.0547 0
M  V30 7742 C 726.578 2.56929 3.57317 0
M  V30 7743 H 723.697 0.538048 0.50366 0
M  V30 7744 H 726.339 1.76277 0.708978 0
M  V30 7745 H 724.489 2.29948 3.13139 0
M  V30 7746 H 726.161 4.35444 1.5227 0
M  V30 7747 H 724.404 4.11724 1.36623 0
M  V30 7748 H 725.075 4.7019 2.89181 0
M  V30 7749 H 727.551 2.78536 3.09122 0
M  V30 7750 H 726.427 3.33234 4.36173 0
M  V30 7751 H 726.688 1.6127 4.11636 0
M  V30 7752 N 725.747 -0.868086 1.31537 0
M  V30 7753 C 726.71 -1.95703 1.19302 0
M  V30 7754 C 727.71 -1.60355 0.119612 0
M  V30 7755 O 728.9 -1.70247 0.36902 0
M  V30 7756 C 726.032 -3.30599 0.831684 0
M  V30 7757 H 727.225 -2.07982 2.16064 0
M  V30 7758 H 724.778 -1.05661 1.15176 0
M  V30 7759 H 725.513 -3.2402 -0.134694 0
M  V30 7760 H 725.298 -3.57629 1.60761 0
M  V30 7761 H 726.788 -4.10439 0.770026 0
M  V30 7762 N 727.225 -1.14528 -1.08264 0
M  V30 7763 C 728.473 -0.912599 -1.80322 0
M  V30 7764 C 728.794 0.562256 -1.86718 0
M  V30 7765 O 728.064 1.40869 -1.36135 0
M  V30 7766 H 726.644 -0.334645 -0.667849 0
M  V30 7767 H 729.306 -1.44415 -1.30883 0
M  V30 7768 H 728.402 -1.31384 -2.83098 0
M  V30 7769 N 728.703 1.26451 -0.940633 0
M  V30 7770 C 729.952 1.93071 -0.583656 0
M  V30 7771 C 730.265 1.74618 0.881366 0
M  V30 7772 O 731.471 2.35689 1.34769 0
M  V30 7773 C 729.927 3.45927 -0.993106 0
M  V30 7774 C 729.535 3.73115 -2.4797 0
M  V30 7775 C 731.279 4.18554 -0.707998 0
M  V30 7776 C 729.186 5.19408 -2.82788 0
M  V30 7777 H 728.116 0.722824 -0.214572 0
M  V30 7778 H 730.767 1.43538 -1.1432 0
M  V30 7779 H 729.149 3.94341 -0.362099 0
M  V30 7780 H 730.323 3.35408 -3.15971 0
M  V30 7781 H 728.638 3.13719 -2.73805 0
M  V30 7782 H 731.235 5.26293 -0.94447 0
M  V30 7783 H 731.578 4.14782 0.355225 0
M  V30 7784 H 732.111 3.76003 -1.2987 0
M  V30 7785 H 728.85 5.28281 -3.88071 0
M  V30 7786 H 728.37 5.58214 -2.19449 0
M  V30 7787 H 730.049 5.87407 -2.71224 0
M  V30 7788 N 730.181 0.707592 1.40822 0
M  V30 7789 C 731.409 0.253073 2.05346 0
M  V30 7790 C 731.824 -1.10218 1.53289 0
M  V30 7791 O 731.181 -1.69112 0.686105 0
M  V30 7792 C 731.232 0.215411 3.60858 0
M  V30 7793 O 730.953 1.51714 4.10992 0
M  V30 7794 C 732.454 -0.258636 4.42545 0
M  V30 7795 H 729.674 0.115256 0.661027 0
M  V30 7796 H 732.218 0.963555 1.80377 0
M  V30 7797 H 730.373 -0.445978 3.84824 0
M  V30 7798 H 730.787 1.41226 5.05129 0
M  V30 7799 H 732.261 -0.233849 5.51504 0
M  V30 7800 H 732.738 -1.2995 4.19535 0
M  V30 7801 H 733.344 0.372186 4.23668 0
M  V30 7802 N 731.66 -1.50943 0.453197 0
M  V30 7803 C 732.908 -2.01813 -0.107709 0
M  V30 7804 C 733.229 -1.33841 -1.41816 0
M  V30 7805 O 732.499 -0.477973 -1.8998 0
M  V30 7806 H 731.079 -0.745773 -0.0427948 0
M  V30 7807 H 733.741 -1.8545 0.599531 0
M  V30 7808 H 732.837 -3.10911 -0.27218 0
M  V30 7809 N 733.138 -0.185124 -1.56509 0
M  V30 7810 C 734.384 0.456934 -1.97585 0
M  V30 7811 C 734.717 1.61957 -1.07161 0
M  V30 7812 O 733.992 1.9412 -0.121546 0
M  V30 7813 C 734.275 0.926666 -3.47973 0
M  V30 7814 C 734.128 -0.237097 -4.49175 0
M  V30 7815 C 735.447 1.79561 -4.01803 0
M  V30 7816 H 732.566 0.164619 -0.71838 0
M  V30 7817 H 735.208 -0.274039 -1.88013 0
M  V30 7818 H 733.358 1.54954 -3.56261 0
M  V30 7819 H 735.03 -0.87454 -4.52934 0
M  V30 7820 H 733.273 -0.890446 -4.24563 0
M  V30 7821 H 733.944 0.133924 -5.51838 0
M  V30 7822 H 736.42 1.27039 -3.96232 0
M  V30 7823 H 735.296 2.09327 -5.07418 0
M  V30 7824 H 735.557 2.74629 -3.46455 0
M  V30 7825 N 734.616 1.57351 0.0885366 0
M  V30 7826 C 735.856 1.88248 0.796362 0
M  V30 7827 C 736.22 0.776915 1.75579 0
M  V30 7828 O 737.421 0.968485 2.50747 0
M  V30 7829 C 735.692 3.24385 1.50031 0
M  V30 7830 S 737.251 3.76991 2.24551 0
M  V30 7831 H 734.069 0.659697 0.265181 0
M  V30 7832 H 736.671 1.95428 0.0531843 0
M  V30 7833 H 735.375 4.02764 0.788 0
M  V30 7834 H 734.906 3.20361 2.28325 0
M  V30 7835 H 736.921 3.50933 3.508 0
M  V30 7836 N 736.094 -0.359525 1.53444 0
M  V30 7837 C 737.044 -1.441 1.7669 0
M  V30 7838 C 738.028 -1.48408 0.621599 0
M  V30 7839 O 739.22 -1.53547 0.880468 0
M  V30 7840 C 736.349 -2.81455 1.96566 0
M  V30 7841 C 735.435 -2.81601 3.17115 0
M  V30 7842 N 735.826 -2.51388 4.38905 0
M  V30 7843 C 734.124 -3.12758 3.1796 0
M  V30 7844 C 734.825 -2.59365 5.20677 0
M  V30 7845 N 733.801 -2.94328 4.57025 0
M  V30 7846 H 737.603 -1.19613 2.68458 0
M  V30 7847 H 735.117 -0.567761 1.52152 0
M  V30 7848 H 737.114 -3.59357 2.11348 0
M  V30 7849 H 735.774 -3.06901 1.06029 0
M  V30 7850 H 736.785 -2.24873 4.66533 0
M  V30 7851 H 733.462 -3.43479 2.37336 0
M  V30 7852 H 734.852 -2.39301 6.27841 0
M  V30 7853 N 737.572 -1.44907 -0.619662 0
M  V30 7854 C 738.522 -1.49085 -1.72504 0
M  V30 7855 C 739.506 -0.355372 -1.56926 0
M  V30 7856 O 740.698 -0.601441 -1.66468 0
M  V30 7857 C 737.827 -1.44889 -3.11227 0
M  V30 7858 C 736.913 -2.63593 -3.32234 0
M  V30 7859 N 737.304 -3.88775 -3.23555 0
M  V30 7860 C 735.602 -2.59033 -3.63067 0
M  V30 7861 C 736.303 -4.67932 -3.45564 0
M  V30 7862 N 735.279 -3.9919 -3.68983 0
M  V30 7863 H 739.081 -2.43706 -1.6427 0
M  V30 7864 H 736.595 -1.4003 -0.82252 0
M  V30 7865 H 738.592 -1.45966 -3.90512 0
M  V30 7866 H 737.252 -0.513143 -3.2062 0
M  V30 7867 H 738.263 -4.20574 -3.02221 0
M  V30 7868 H 734.94 -1.7431 -3.79371 0
M  V30 7869 H 736.33 -5.76952 -3.44349 0
M  V30 7870 N 739.05 0.861098 -1.31996 0
M  V30 7871 C 740.013 1.95068 -1.20338 0
M  V30 7872 C 741.013 1.60289 -0.128114 0
M  V30 7873 O 742.203 1.70048 -0.378044 0
M  V30 7874 C 739.335 3.30153 -0.849205 0
M  V30 7875 H 740.528 2.06833 -2.17164 0
M  V30 7876 H 738.081 1.05049 -1.15734 0
M  V30 7877 H 738.816 3.24087 0.117508 0
M  V30 7878 H 738.601 3.56771 -1.62655 0
M  V30 7879 H 740.091 4.10025 -0.791782 0
M  V30 7880 N 740.528 1.15101 1.07655 0
M  V30 7881 C 741.46 0.802722 2.14684 0
M  V30 7882 C 742.473 -0.183874 1.61758 0
M  V30 7883 O 743.662 0.0389349 1.78458 0
M  V30 7884 C 740.762 0.172135 3.38463 0
M  V30 7885 C 739.935 1.19538 4.20749 0
M  V30 7886 C 738.994 0.58714 5.22914 0
M  V30 7887 O 738.02 1.25224 5.55255 0
M  V30 7888 N 739.222 -0.632566 5.77043 0
M  V30 7889 H 741.987 1.72379 2.45164 0
M  V30 7890 H 739.548 1.04647 1.23534 0
M  V30 7891 H 741.54 -0.247465 4.03943 0
M  V30 7892 H 740.11 -0.652214 3.0572 0
M  V30 7893 H 739.33 1.79165 3.51132 0
M  V30 7894 H 740.618 1.88636 4.7254 0
M  V30 7895 H 740.016 -1.19135 5.53013 0
M  V30 7896 H 738.573 -0.994566 6.44167 0
M  V30 7897 N 742.006 -1.2595 0.947325 0
M  V30 7898 C 743.283 -1.88676 0.515824 0
M  V30 7899 C 743.663 -1.85547 -1.00675 0
M  V30 7900 O 743.011 -1.31399 -1.8694 0
M  V30 7901 C 743.221 -3.31734 1.08415 0
M  V30 7902 C 744.569 -4.08545 1.15654 0
M  V30 7903 O 745.593 -3.40826 1.03517 0
M  V30 7904 O 744.452 -5.29663 1.34608 0
M  V30 7905 H 741.546 -0.809537 0.169055 0
M  V30 7906 H 744.092 -1.34075 1.04029 0
M  V30 7907 H 742.864 -3.28404 2.1276 0
M  V30 7908 H 742.487 -3.93882 0.542499 0
M  V30 7909 N 743.484 -0.715051 -1.40445 0
M  V30 7910 C 744.416 -0.0227516 -2.29189 0
M  V30 7911 C 745.429 0.724313 -1.458 0
M  V30 7912 O 746.618 0.571781 -1.69094 0
M  V30 7913 C 743.718 0.992038 -3.24055 0
M  V30 7914 C 742.891 0.310613 -4.36296 0
M  V30 7915 C 741.95 1.23071 -5.11605 0
M  V30 7916 O 740.976 0.71571 -5.64682 0
M  V30 7917 N 742.178 2.56188 -5.2091 0
M  V30 7918 H 744.943 -0.78473 -2.89244 0
M  V30 7919 H 742.504 -0.562637 -1.51809 0
M  V30 7920 H 744.496 1.60973 -3.71308 0
M  V30 7921 H 743.066 1.65538 -2.65171 0
M  V30 7922 H 742.286 -0.487269 -3.91177 0
M  V30 7923 H 743.574 -0.162415 -5.08541 0
M  V30 7924 H 742.972 3.00527 -4.7927 0
M  V30 7925 H 741.529 3.13103 -5.71673 0
M  V30 7926 N 744.962 1.50701 -0.461195 0
M  V30 7927 C 746.208 2.02566 0.0973411 0
M  V30 7928 C 746.541 1.3432 1.40257 0
M  V30 7929 O 745.816 0.465692 1.88843 0
M  V30 7930 C 746.099 3.58919 0.291423 0
M  V30 7931 C 745.952 4.37751 -1.03413 0
M  V30 7932 C 747.271 4.27379 1.05048 0
M  V30 7933 H 744.39 0.73622 0.0339026 0
M  V30 7934 H 747.032 1.80115 -0.604855 0
M  V30 7935 H 745.182 3.78179 0.889539 0
M  V30 7936 H 746.854 4.30085 -1.66806 0
M  V30 7937 H 745.097 4.01885 -1.63313 0
M  V30 7938 H 745.768 5.45384 -0.852085 0
M  V30 7939 H 748.244 4.12534 0.543603 0
M  V30 7940 H 747.12 5.36609 1.15506 0
M  V30 7941 H 747.381 3.89868 2.0846 0
M  V30 7942 N 746.441 0.193421 1.56409 0
M  V30 7943 C 747.404 -0.714371 2.17783 0
M  V30 7944 C 748.404 -1.1422 1.13183 0
M  V30 7945 O 749.594 -1.05557 1.38576 0
M  V30 7946 C 746.726 -1.97509 2.77855 0
M  V30 7947 H 747.919 -0.179714 2.99361 0
M  V30 7948 H 745.472 -0.0561944 1.56199 0
M  V30 7949 H 746.207 -2.5523 2.0007 0
M  V30 7950 H 745.992 -1.67706 3.54425 0
M  V30 7951 H 747.482 -2.62246 3.24987 0
M  V30 7952 N 747.919 -1.57396 -0.0801906 0
M  V30 7953 C 749.167 -1.86467 -0.779384 0
M  V30 7954 C 749.488 -0.784243 -1.78535 0
M  V30 7955 O 748.758 0.187986 -1.94996 0
M  V30 7956 H 747.338 -0.68806 -0.29083 0
M  V30 7957 H 750 -1.94813 -0.0582749 0
M  V30 7958 H 749.096 -2.83701 -1.30078 0
M  V30 7959 N 749.397 0.351382 -1.53633 0
M  V30 7960 C 750.307 1.45471 -1.84052 0
M  V30 7961 C 751.323 1.57945 -0.730015 0
M  V30 7962 O 752.499 1.73571 -1.02153 0
M  V30 7963 C 749.564 2.80562 -2.03681 0
M  V30 7964 C 748.625 2.77497 -3.27558 0
M  V30 7965 C 747.858 4.06144 -3.46241 0
M  V30 7966 O 748.081 5.03028 -2.68922 0
M  V30 7967 O 747.015 4.11092 -4.39645 0
M  V30 7968 H 750.841 1.22684 -2.77817 0
M  V30 7969 H 748.426 0.542827 -1.3919 0
M  V30 7970 H 750.308 3.6058 -2.18082 0
M  V30 7971 H 748.983 3.03296 -1.13106 0
M  V30 7972 H 747.89 1.96126 -3.18568 0
M  V30 7973 H 749.223 2.59716 -4.18101 0
M  V30 7974 N 750.875 1.45233 0.611969 0
M  V30 7975 C 752.115 1.50558 1.38245 0
M  V30 7976 C 752.479 0.141959 1.91474 0
M  V30 7977 O 753.68 0.0698926 2.68709 0
M  V30 7978 C 751.951 2.55136 2.50281 0
M  V30 7979 S 753.51 2.79652 3.38142 0
M  V30 7980 H 750.328 0.532281 0.471378 0
M  V30 7981 H 752.93 1.82285 0.706578 0
M  V30 7982 H 751.634 3.52888 2.09518 0
M  V30 7983 H 751.165 2.25045 3.22674 0
M  V30 7984 H 753.18 2.12699 4.48301 0
M  V30 7985 N 752.353 -0.854086 1.3245 0
M  V30 7986 C 753.602 -1.60318 1.22397 0
M  V30 7987 C 753.915 -1.9444 -0.212664 0
M  V30 7988 O 755.121 -2.67991 -0.435066 0
M  V30 7989 C 753.577 -2.8909 2.1437 0
M  V30 7990 C 753.185 -2.62391 3.63119 0
M  V30 7991 C 754.929 -3.67104 2.13155 0
M  V30 7992 C 752.836 -3.87167 4.47052 0
M  V30 7993 H 751.766 -0.601586 0.454544 0
M  V30 7994 H 754.417 -0.943023 1.57415 0
M  V30 7995 H 752.799 -3.56567 1.72268 0
M  V30 7996 H 753.973 -2.03222 4.13567 0
M  V30 7997 H 752.288 -1.97706 3.66471 0
M  V30 7998 H 754.885 -4.59696 2.731 0
M  V30 7999 H 755.228 -4.00876 1.12268 0
M  V30 8000 H 755.761 -3.06533 2.5354 0
M  V30 8001 H 752.5 -3.58536 5.48755 0
M  V30 8002 H 752.02 -4.45729 4.01355 0
M  V30 8003 H 753.699 -4.549 4.60081 0
M  V30 8004 N 753.831 -1.1567 -1.07043 0
M  V30 8005 C 755.08 -0.928039 -1.79082 0
M  V30 8006 C 755.393 0.545968 -1.87826 0
M  V30 8007 O 756.599 0.892308 -2.56418 0
M  V30 8008 C 755.055 -1.61103 -3.21829 0
M  V30 8009 C 754.663 -3.12228 -3.21275 0
M  V30 8010 C 756.407 -1.46404 -3.98455 0
M  V30 8011 C 754.314 -3.733 -4.58695 0
M  V30 8012 H 753.244 -0.34357 -0.671175 0
M  V30 8013 H 755.895 -1.38718 -1.20123 0
M  V30 8014 H 754.277 -1.07958 -3.81 0
M  V30 8015 H 755.451 -3.72155 -2.71731 0
M  V30 8016 H 753.766 -3.26725 -2.58147 0
M  V30 8017 H 756.363 -1.8942 -5.00024 0
M  V30 8018 H 756.706 -0.41195 -4.14257 0
M  V30 8019 H 757.239 -1.96663 -3.45787 0
M  V30 8020 H 753.978 -4.78423 -4.48098 0
M  V30 8021 H 753.498 -3.18157 -5.08465 0
M  V30 8022 H 755.177 -3.7441 -5.27661 0
M  V30 8023 N 755.309 1.25446 -0.953992 0
M  V30 8024 C 756.219 2.29632 -0.480264 0
M  V30 8025 C 757.235 1.68025 0.452071 0
M  V30 8026 O 758.411 1.98703 0.328472 0
M  V30 8027 C 755.476 3.45903 0.234974 0
M  V30 8028 C 754.537 4.22953 -0.735495 0
M  V30 8029 C 753.77 5.33672 -0.0542957 0
M  V30 8030 O 753.993 5.58477 1.16018 0
M  V30 8031 O 752.927 5.9734 -0.739509 0
M  V30 8032 H 756.753 2.72242 -1.34602 0
M  V30 8033 H 754.338 1.30883 -0.720419 0
M  V30 8034 H 756.22 4.16552 0.637341 0
M  V30 8035 H 754.895 3.05296 1.07592 0
M  V30 8036 H 753.802 3.54734 -1.18806 0
M  V30 8037 H 755.135 4.67341 -1.54444 0
M  V30 8038 N 756.787 0.722489 1.40064 0
M  V30 8039 C 757.734 0.0743738 2.3068 0
M  V30 8040 C 758.704 -0.743004 1.48555 0
M  V30 8041 O 759.889 -0.705536 1.77276 0
M  V30 8042 C 757.029 -0.836292 3.34814 0
M  V30 8043 C 756.142 -0.00764663 4.31999 0
M  V30 8044 C 755.277 -0.918428 5.232 0
M  V30 8045 C 754.316 -0.0842838 6.12042 0
M  V30 8046 N 753.453 -0.950316 6.95639 0
M  V30 8047 H 758.293 0.852794 2.85537 0
M  V30 8048 H 755.83 0.432222 1.40607 0
M  V30 8049 H 757.788 -1.3786 3.93765 0
M  V30 8050 H 756.418 -1.58082 2.81443 0
M  V30 8051 H 755.47 0.651928 3.74772 0
M  V30 8052 H 756.782 0.63786 4.94705 0
M  V30 8053 H 755.936 -1.52902 5.87116 0
M  V30 8054 H 754.675 -1.59774 4.60786 0
M  V30 8055 H 753.68 0.5392 5.4715 0
M  V30 8056 H 754.905 0.591628 6.76518 0
M  V30 8057 H 752.851 -1.61515 6.35806 0
M  V30 8058 H 752.768 -0.361004 7.55138 0
M  V30 8059 H 754.036 -1.54687 7.63997 0
M  V30 8060 N 758.265 -1.50454 0.469181 0
M  V30 8061 C 759.197 -2.26319 -0.362247 0
M  V30 8062 C 760.21 -1.31574 -0.958751 0
M  V30 8063 O 761.399 -1.57099 -0.847482 0
M  V30 8064 C 758.499 -3.02808 -1.52187 0
M  V30 8065 C 757.672 -4.24893 -1.03849 0
M  V30 8066 C 756.731 -4.83691 -2.07194 0
M  V30 8067 O 755.757 -5.44659 -1.65333 0
M  V30 8068 N 756.959 -4.70522 -3.39985 0
M  V30 8069 H 759.724 -2.98312 0.288124 0
M  V30 8070 H 757.285 -1.59099 0.299856 0
M  V30 8071 H 759.277 -3.39023 -2.21011 0
M  V30 8072 H 757.847 -2.33625 -2.07697 0
M  V30 8073 H 757.067 -3.93806 -0.176203 0
M  V30 8074 H 758.355 -5.04053 -0.693435 0
M  V30 8075 H 757.753 -4.2203 -3.76706 0
M  V30 8076 H 756.31 -5.11011 -4.04612 0
M  V30 8077 N 759.743 -0.201713 -1.56304 0
M  V30 8078 C 760.991 0.434447 -1.97375 0
M  V30 8079 C 761.312 1.61692 -1.08998 0
M  V30 8080 O 760.582 1.95223 -0.162682 0
M  V30 8081 H 759.162 0.163497 -0.728888 0
M  V30 8082 H 761.824 -0.289988 -1.92731 0
M  V30 8083 H 760.92 0.774136 -3.02347 0
M  V30 8084 N 761.222 1.57436 0.0718424 0
M  V30 8085 C 762.638 1.53792 0.426628 0
M  V30 8086 C 762.838 0.921887 1.79174 0
M  V30 8087 O 761.894 0.524374 2.46995 0
M  V30 8088 C 763.207 2.98443 0.367739 0
M  V30 8089 C 764.755 3.09778 0.447928 0
M  V30 8090 C 765.23 4.5608 0.418946 0
M  V30 8091 N 766.721 4.60716 0.479022 0
M  V30 8092 C 767.456 5.71397 0.47881 0
M  V30 8093 N 766.952 6.91443 0.433417 0
M  V30 8094 N 768.745 5.59639 0.525364 0
M  V30 8095 H 760.896 1.95848 -0.822033 0
M  V30 8096 H 763.159 0.896418 -0.308447 0
M  V30 8097 H 762.865 3.47072 -0.56865 0
M  V30 8098 H 762.739 3.58335 1.17795 0
M  V30 8099 H 765.126 2.61122 1.37474 0
M  V30 8100 H 765.207 2.52796 -0.390857 0
M  V30 8101 H 764.851 5.05393 -0.504016 0
M  V30 8102 H 764.781 5.10925 1.27526 0
M  V30 8103 H 767.272 3.74328 0.518355 0
M  V30 8104 H 767.585 7.71562 0.43718 0
M  V30 8105 H 765.93 6.93847 0.400106 0
M  V30 8106 H 769.121 4.64756 0.558519 0
M  V30 8107 H 769.294 6.45896 0.52173 0
M  V30 8108 N 762.7 -0.34323 1.53817 0
M  V30 8109 C 763.949 -1.08086 1.70295 0
M  V30 8110 C 764.262 -1.89794 0.47302 0
M  V30 8111 O 765.468 -2.66498 0.518754 0
M  V30 8112 C 763.924 -1.97097 3.01133 0
M  V30 8113 C 763.532 -1.20594 4.31464 0
M  V30 8114 C 765.276 -2.70715 3.26976 0
M  V30 8115 C 763.183 -2.08636 5.53376 0
M  V30 8116 H 762.113 -0.407228 0.634572 0
M  V30 8117 H 764.764 -0.340328 1.80316 0
M  V30 8118 H 763.146 -2.74971 2.84969 0
M  V30 8119 H 764.32 -0.476282 4.58332 0
M  V30 8120 H 762.635 -0.587426 4.12236 0
M  V30 8121 H 765.232 -3.36857 4.15248 0
M  V30 8122 H 765.575 -3.37299 2.43998 0
M  V30 8123 H 766.108 -1.99914 3.43917 0
M  V30 8124 H 762.847 -1.46594 6.38898 0
M  V30 8125 H 762.367 -2.7939 5.30755 0
M  V30 8126 H 764.046 -2.67682 5.89029 0
M  V30 8127 N 764.178 -1.45556 -0.604258 0
M  V30 8128 C 765.128 -1.50906 -1.70913 0
M  V30 8129 C 766.112 -0.371996 -1.56541 0
M  V30 8130 O 767.304 -0.619064 -1.65821 0
M  V30 8131 C 764.433 -1.48181 -3.09673 0
M  V30 8132 C 763.519 -2.67102 -3.2942 0
M  V30 8133 N 763.91 -3.92184 -3.19414 0
M  V30 8134 C 762.208 -2.6287 -3.60299 0
M  V30 8135 C 762.909 -4.71571 -3.40581 0
M  V30 8136 N 761.885 -4.03081 -3.64728 0
M  V30 8137 H 765.687 -2.45435 -1.61675 0
M  V30 8138 H 763.201 -1.40894 -0.807622 0
M  V30 8139 H 765.198 -1.501 -3.88942 0
M  V30 8140 H 763.858 -0.54712 -3.20057 0
M  V30 8141 H 764.869 -4.23756 -2.97743 0
M  V30 8142 H 761.546 -1.78324 -3.77501 0
M  V30 8143 H 762.936 -5.80571 -3.38211 0
M  V30 8144 N 765.656 0.84705 -1.32902 0
M  V30 8145 C 767.067 1.41785 -1.21466 0
M  V30 8146 C 767.418 1.95464 0.169767 0
M  V30 8147 O 766.543 1.88157 1.06892 0
M  V30 8148 C 767.138 2.57734 -2.19906 0
M  V30 8149 C 765.697 3.10791 -2.12334 0
M  V30 8150 C 764.844 1.83562 -2.07847 0
M  V30 8151 H 767.795 0.653532 -1.44619 0
M  V30 8152 H 767.816 3.35123 -1.80202 0
M  V30 8153 H 767.328 2.18635 -3.20656 0
M  V30 8154 H 765.429 3.54455 -1.14858 0
M  V30 8155 H 765.542 3.71519 -3.02506 0
M  V30 8156 H 763.906 2.03475 -1.53199 0
M  V30 8157 H 764.689 1.4667 -3.10392 0
M  V30 8158 N 767.134 1.16236 1.06428 0
M  V30 8159 C 768.411 0.853294 1.76006 0
M  V30 8160 C 768.791 -0.649162 2.00871 0
M  V30 8161 O 768.139 -1.59653 1.63472 0
M  V30 8162 C 768.349 1.67448 3.06206 0
M  V30 8163 C 769.697 1.8866 3.80385 0
M  V30 8164 O 770.721 1.64303 3.16043 0
M  V30 8165 O 769.58 2.29518 4.95968 0
M  V30 8166 H 766.674 0.314737 0.764767 0
M  V30 8167 H 769.22 1.26865 1.12709 0
M  V30 8168 H 767.992 2.69411 2.83784 0
M  V30 8169 H 767.615 1.25608 3.77238 0
M  V30 8170 N 768.612 -1.24939 0.960631 0
M  V30 8171 C 769.542 -2.28 0.503815 0
M  V30 8172 C 770.523 -1.63959 -0.452928 0
M  V30 8173 O 771.708 -1.91009 -0.350585 0
M  V30 8174 C 768.838 -3.46643 -0.213535 0
M  V30 8175 C 767.792 -4.22903 0.658535 0
M  V30 8176 C 767.118 -5.34363 -0.189902 0
M  V30 8177 C 768.418 -4.84949 1.93963 0
M  V30 8178 H 770.112 -2.66462 1.36521 0
M  V30 8179 H 767.658 -1.28093 0.657897 0
M  V30 8180 H 769.611 -4.1787 -0.544286 0
M  V30 8181 H 768.335 -3.07187 -1.10923 0
M  V30 8182 H 766.994 -3.53467 0.972455 0
M  V30 8183 H 766.642 -4.91147 -1.08553 0
M  V30 8184 H 766.342 -5.86302 0.390331 0
M  V30 8185 H 767.866 -6.0842 -0.515484 0
M  V30 8186 H 769.28 -5.48288 1.67491 0
M  V30 8187 H 767.677 -5.47091 2.46601 0
M  V30 8188 H 768.747 -4.06799 2.639 0
M  V30 8189 N 770.09 -0.729906 -1.39679 0
M  V30 8190 C 771.022 -0.0470588 -2.29152 0
M  V30 8191 C 772.035 0.708808 -1.4656 0
M  V30 8192 O 773.224 0.553815 -1.69691 0
M  V30 8193 C 770.324 0.957612 -3.25089 0
M  V30 8194 C 769.497 0.264321 -4.36601 0
M  V30 8195 C 768.556 1.17638 -5.12882 0
M  V30 8196 O 767.582 0.655777 -5.6541 0
M  V30 8197 N 768.784 2.50649 -5.23598 0
M  V30 8198 H 771.549 -0.815364 -2.88395 0
M  V30 8199 H 769.11 -0.578707 -1.51204 0
M  V30 8200 H 771.102 1.57026 -3.72995 0
M  V30 8201 H 769.672 1.62716 -2.66912 0
M  V30 8202 H 768.892 -0.528732 -3.90638 0
M  V30 8203 H 770.18 -0.216344 -5.0834 0
M  V30 8204 H 769.578 2.95427 -4.82431 0
M  V30 8205 H 768.135 3.07022 -5.74961 0
M  V30 8206 N 771.568 1.50203 -0.477153 0
M  V30 8207 C 772.979 1.86685 -0.0235041 0
M  V30 8208 C 773.33 1.39148 1.38319 0
M  V30 8209 O 772.455 0.759051 2.02651 0
M  V30 8210 C 773.05 3.38781 -0.0358767 0
M  V30 8211 C 771.609 3.74652 0.362327 0
M  V30 8212 C 770.756 2.7412 -0.41875 0
M  V30 8213 H 773.707 1.4286 -0.691133 0
M  V30 8214 H 773.728 3.72732 0.764924 0
M  V30 8215 H 773.24 3.73349 -1.05981 0
M  V30 8216 H 771.341 3.45686 1.39039 0
M  V30 8217 H 771.454 4.79063 0.059457 0
M  V30 8218 H 769.818 2.54376 0.128341 0
M  V30 8219 H 770.601 3.11532 -1.44231 0
M  V30 8220 N 773.046 0.209999 1.56195 0
M  V30 8221 C 773.996 -0.717978 2.164 0
M  V30 8222 C 774.98 -1.16577 1.10899 0
M  V30 8223 O 776.172 -1.12169 1.3692 0
M  V30 8224 C 773.301 -1.93091 2.8385 0
M  V30 8225 C 772.387 -1.50333 3.96561 0
M  V30 8226 N 772.778 -0.787621 4.9963 0
M  V30 8227 C 771.076 -1.79151 4.08437 0
M  V30 8228 C 771.777 -0.571204 5.78889 0
M  V30 8229 N 770.753 -1.12444 5.31843 0
M  V30 8230 H 774.555 -0.162603 2.9345 0
M  V30 8231 H 772.069 0.0107928 1.62396 0
M  V30 8232 H 774.066 -2.60635 3.25384 0
M  V30 8233 H 772.726 -2.49087 2.08293 0
M  V30 8234 H 773.737 -0.441513 5.16015 0
M  V30 8235 H 770.414 -2.36549 3.44022 0
M  V30 8236 H 771.804 -0.00237941 6.719 0
M  V30 8237 N 774.524 -1.57472 -0.0634922 0
M  V30 8238 C 775.472 -2.05307 -1.09323 0
M  V30 8239 C 776.466 -0.959995 -1.39572 0
M  V30 8240 O 777.672 -1.14507 -1.38882 0
M  V30 8241 H 774.047 -0.65472 -0.369927 0
M  V30 8242 H 776.018 -2.90925 -0.663707 0
M  V30 8243 C 774.767 -2.51954 -2.39613 0
M  V30 8244 H 774.09 -3.35662 -2.1719 0
M  V30 8245 H 775.53 -2.89169 -3.10092 0
M  V30 8246 C 773.989 -1.40596 -3.06161 0
M  V30 8247 O 774.519 -0.752722 -3.94585 0
M  V30 8248 N 772.725 -1.14902 -2.66919 0
M  V30 8249 H 772.272 -1.68205 -1.95102 0
M  V30 8250 H 772.23 -0.406006 -3.11767 0
M  V30 8251 N 776.003 0.335068 -1.53997 0
M  V30 8252 C 777.228 1.09859 -1.75914 0
M  V30 8253 C 777.653 1.81308 -0.500915 0
M  V30 8254 O 777.011 1.72854 0.54693 0
M  V30 8255 C 777.059 2.08122 -2.94478 0
M  V30 8256 O 776.163 3.15805 -2.65219 0
M  V30 8257 H 775.504 0.317313 -0.583274 0
M  V30 8258 H 778.034 0.382872 -2.00986 0
M  V30 8259 H 778.044 2.51195 -3.21504 0
M  V30 8260 H 776.719 1.55517 -3.8573 0
M  V30 8261 H 775.296 2.77489 -2.49107 0
M  V30 8262 N 777.481 1.45874 0.596531 0
M  V30 8263 C 778.729 1.5017 1.35253 0
M  V30 8264 C 779.05 0.149246 1.94428 0
M  V30 8265 O 778.32 -0.82268 1.77789 0
M  V30 8266 H 776.9 0.553052 0.502138 0
M  V30 8267 H 779.562 1.81908 0.699671 0
M  V30 8268 H 778.658 2.24671 2.16632 0
M  V30 8269 N 778.959 -0.83999 1.33349 0
M  V30 8270 C 780.184 -1.63249 1.27924 0
M  V30 8271 C 780.609 -1.87523 -0.147193 0
M  V30 8272 O 779.967 -1.43853 -1.10345 0
M  V30 8273 C 780.015 -2.96046 2.05886 0
M  V30 8274 O 779.119 -3.87303 1.4167 0
M  V30 8275 H 778.46 -0.49715 0.440157 0
M  V30 8276 H 780.99 -1.04512 1.75893 0
M  V30 8277 H 781 -3.45752 2.16609 0
M  V30 8278 H 779.675 -2.77701 3.09605 0
M  V30 8279 H 778.252 -3.45789 1.39585 0
M  V30 8280 N 780.437 -1.16799 -1.0581 0
M  V30 8281 C 781.347 -0.893492 -2.16919 0
M  V30 8282 C 782.363 0.136061 -1.73467 0
M  V30 8283 O 783.539 -0.0417348 -2.01357 0
M  V30 8284 C 780.604 -0.403763 -3.44341 0
M  V30 8285 C 779.665 -1.49914 -4.02274 0
M  V30 8286 C 778.898 -1.03269 -5.23614 0
M  V30 8287 O 779.121 0.115647 -5.70283 0
M  V30 8288 O 778.055 -1.8231 -5.73626 0
M  V30 8289 H 781.881 -1.82274 -2.42919 0
M  V30 8290 H 779.466 -0.948361 -1.1544 0
M  V30 8291 H 781.348 -0.137874 -4.21174 0
M  V30 8292 H 780.023 0.497413 -3.19855 0
M  V30 8293 H 778.93 -1.81883 -3.26909 0
M  V30 8294 H 780.263 -2.3758 -4.31064 0
M  V30 8295 N 781.915 1.24427 -0.967243 0
M  V30 8296 C 783.326 1.74349 -0.667785 0
M  V30 8297 C 783.677 1.78403 0.816509 0
M  V30 8298 O 782.802 1.41315 1.63887 0
M  V30 8299 C 783.397 3.16628 -1.20548 0
M  V30 8300 C 781.956 3.64059 -0.955934 0
M  V30 8301 C 781.103 2.42715 -1.34106 0
M  V30 8302 H 784.054 1.10136 -1.14262 0
M  V30 8303 H 784.075 3.76183 -0.571547 0
M  V30 8304 H 783.587 3.13646 -2.28578 0
M  V30 8305 H 781.688 3.72441 0.108858 0
M  V30 8306 H 781.801 4.51549 -1.60126 0
M  V30 8307 H 780.165 2.43114 -0.759452 0
M  V30 8308 H 780.948 2.42414 -2.43085 0
M  V30 8309 N 783.393 0.737304 1.3929 0
M  V30 8310 C 784.618 0.295237 2.05288 0
M  V30 8311 C 785.043 -1.06235 1.55228 0
M  V30 8312 O 784.401 -1.67365 0.697043 0
M  V30 8313 C 784.449 0.309146 3.59272 0
M  V30 8314 O 783.553 -0.702437 4.06374 0
M  V30 8315 H 782.894 0.133762 0.650387 0
M  V30 8316 H 785.424 1.00387 1.78279 0
M  V30 8317 H 785.434 0.154336 4.07708 0
M  V30 8318 H 784.109 1.29974 3.95069 0
M  V30 8319 H 782.686 -0.513574 3.69346 0
M  V30 8320 N 784.871 -1.49948 0.485112 0
M  V30 8321 C 785.801 -2.31675 -0.291364 0
M  V30 8322 C 786.782 -1.39216 -0.977383 0
M  V30 8323 O 787.967 -1.68133 -0.971855 0
M  V30 8324 C 785.097 -3.19326 -1.36558 0
M  V30 8325 C 784.051 -4.2045 -0.800359 0
M  V30 8326 C 783.377 -4.96931 -1.97391 0
M  V30 8327 C 784.677 -5.21925 0.197867 0
M  V30 8328 H 786.371 -2.96839 0.390775 0
M  V30 8329 H 783.917 -1.42749 0.189375 0
M  V30 8330 H 785.87 -3.75304 -1.91638 0
M  V30 8331 H 784.594 -2.52074 -2.07668 0
M  V30 8332 H 783.253 -3.65594 -0.271428 0
M  V30 8333 H 782.901 -4.26141 -2.67232 0
M  V30 8334 H 782.601 -5.65344 -1.60187 0
M  V30 8335 H 784.125 -5.55749 -2.52935 0
M  V30 8336 H 785.539 -5.72691 -0.264239 0
M  V30 8337 H 783.936 -5.98138 0.484908 0
M  V30 8338 H 785.006 -4.71809 1.11912 0
M  V30 8339 N 786.349 -0.21828 -1.56081 0
M  V30 8340 C 787.574 0.422302 -2.03055 0
M  V30 8341 C 787.999 1.5279 -1.09713 0
M  V30 8342 O 787.357 1.81102 -0.0847187 0
M  V30 8343 C 787.405 0.934177 -3.48289 0
M  V30 8344 O 786.509 2.04574 -3.58083 0
M  V30 8345 H 785.85 0.0959764 -0.657027 0
M  V30 8346 H 788.38 -0.335958 -2.01823 0
M  V30 8347 H 788.39 1.24484 -3.88546 0
M  V30 8348 H 787.065 0.124963 -4.15712 0
M  V30 8349 H 785.642 1.74196 -3.29712 0
M  V30 8350 N 787.827 1.57504 0.0551401 0
M  V30 8351 C 789.243 1.54236 0.410292 0
M  V30 8352 C 789.443 0.940839 1.78187 0
M  V30 8353 O 788.499 0.550541 2.46425 0
M  V30 8354 C 789.812 2.98816 0.336064 0
M  V30 8355 C 791.36 3.10236 0.415047 0
M  V30 8356 C 791.835 4.56499 0.37055 0
M  V30 8357 N 793.326 4.61199 0.43013 0
M  V30 8358 C 794.061 5.71873 0.418179 0
M  V30 8359 N 793.557 6.91864 0.360056 0
M  V30 8360 N 795.35 5.60165 0.465977 0
M  V30 8361 H 787.501 1.94965 -0.842759 0
M  V30 8362 H 789.764 0.893096 -0.317937 0
M  V30 8363 H 789.47 3.4645 -0.605429 0
M  V30 8364 H 789.344 3.59564 1.13988 0
M  V30 8365 H 791.731 2.62566 1.34697 0
M  V30 8366 H 791.812 2.52367 -0.417648 0
M  V30 8367 H 791.456 5.0483 -0.557592 0
M  V30 8368 H 791.386 5.12249 1.221 0
M  V30 8369 H 793.877 3.74857 0.478623 0
M  V30 8370 H 794.19 7.71983 0.35532 0
M  V30 8371 H 792.535 6.94233 0.326492 0
M  V30 8372 H 795.726 4.65322 0.509194 0
M  V30 8373 H 795.899 6.46413 0.453194 0
M  V30 8374 N 789.305 -0.326896 1.54172 0
M  V30 8375 C 790.237 -1.42319 1.79661 0
M  V30 8376 C 791.25 -1.47989 0.678456 0
M  V30 8377 O 792.439 -1.50773 0.955503 0
M  V30 8378 C 789.539 -2.80876 1.89636 0
M  V30 8379 C 788.712 -2.98449 3.19761 0
M  V30 8380 C 787.771 -4.17347 3.2048 0
M  V30 8381 O 786.797 -4.10667 3.94134 0
M  V30 8382 N 787.999 -5.26717 2.44027 0
M  V30 8383 H 790.764 -1.20819 2.74268 0
M  V30 8384 H 788.325 -0.516866 1.53428 0
M  V30 8385 H 790.317 -3.58619 1.87549 0
M  V30 8386 H 788.887 -2.95442 1.02141 0
M  V30 8387 H 788.107 -2.08035 3.34836 0
M  V30 8388 H 789.395 -3.07083 4.05681 0
M  V30 8389 H 788.793 -5.35019 1.8377 0
M  V30 8390 H 787.35 -6.02891 2.47721 0
M  V30 8391 N 790.784 -1.46188 -0.588786 0
M  V30 8392 C 792.2 -1.31009 -0.911524 0
M  V30 8393 C 792.4 -0.277017 -1.99587 0
M  V30 8394 O 791.456 0.322532 -2.50432 0
M  V30 8395 C 792.769 -2.69459 -1.33463 0
M  V30 8396 C 794.317 -2.77502 -1.44782 0
M  V30 8397 C 794.792 -4.1652 -1.90461 0
M  V30 8398 N 796.283 -4.18907 -1.97665 0
M  V30 8399 C 797.018 -5.23359 -2.34271 0
M  V30 8400 N 796.514 -6.38143 -2.69714 0
M  V30 8401 N 798.307 -5.10723 -2.34774 0
M  V30 8402 H 790.458 -2.12016 0.127614 0
M  V30 8403 H 792.721 -0.947984 -0.00557599 0
M  V30 8404 H 792.427 -3.46336 -0.611929 0
M  V30 8405 H 792.301 -2.99165 -2.2974 0
M  V30 8406 H 794.688 -2.00917 -2.1614 0
M  V30 8407 H 794.769 -2.51488 -0.467724 0
M  V30 8408 H 794.413 -4.93597 -1.19684 0
M  V30 8409 H 794.343 -4.39937 -2.89418 0
M  V30 8410 H 796.834 -3.36084 -1.72789 0
M  V30 8411 H 797.147 -7.13624 -2.96582 0
M  V30 8412 H 795.492 -6.41514 -2.67366 0
M  V30 8413 H 798.683 -4.20088 -2.06503 0
M  V30 8414 H 798.856 -5.9224 -2.62975 0
M  V30 8415 N 792.262 0.832906 -1.33792 0
M  V30 8416 C 793.678 1.1245 -1.13257 0
M  V30 8417 C 793.878 2.01369 0.0725832 0
M  V30 8418 O 792.934 2.41071 0.751082 0
M  V30 8419 C 794.247 1.78084 -2.42294 0
M  V30 8420 C 795.795 1.90624 -2.48257 0
M  V30 8421 C 796.27 2.59673 -3.77271 0
M  V30 8422 N 797.761 2.67181 -3.78376 0
M  V30 8423 C 798.496 3.21313 -4.74916 0
M  V30 8424 N 797.992 3.76086 -5.81835 0
M  V30 8425 N 799.785 3.19621 -4.62384 0
M  V30 8426 H 791.936 0.241244 -2.11026 0
M  V30 8427 H 794.199 0.169557 -0.932713 0
M  V30 8428 H 793.905 1.20209 -3.30519 0
M  V30 8429 H 793.779 2.78049 -2.5489 0
M  V30 8430 H 796.166 2.4765 -1.60478 0
M  V30 8431 H 796.247 0.89591 -2.39598 0
M  V30 8432 H 795.891 2.03304 -4.65435 0
M  V30 8433 H 795.821 3.61189 -3.8321 0
M  V30 8434 H 798.312 2.28346 -3.01108 0
M  V30 8435 H 798.625 4.15612 -6.51526 0
M  V30 8436 H 796.97 3.74357 -5.85561 0
M  V30 8437 H 800.161 2.76091 -3.7801 0
M  V30 8438 H 800.334 3.61504 -5.37791 0
M  V30 8439 N 793.74 1.17359 1.05189 0
M  V30 8440 C 794.672 0.848078 2.12933 0
M  V30 8441 C 795.685 -0.149521 1.62112 0
M  V30 8442 O 796.874 0.0767797 1.78335 0
M  V30 8443 C 793.974 0.243889 3.38021 0
M  V30 8444 C 793.147 1.28436 4.18118 0
M  V30 8445 C 792.206 0.697926 5.21551 0
M  V30 8446 O 791.232 1.36973 5.52473 0
M  V30 8447 N 792.434 -0.510024 5.78255 0
M  V30 8448 H 795.199 1.7754 2.41453 0
M  V30 8449 H 792.76 1.07244 1.21286 0
M  V30 8450 H 794.752 -0.161727 4.04377 0
M  V30 8451 H 793.322 -0.58722 3.07035 0
M  V30 8452 H 792.542 1.86573 3.47252 0
M  V30 8453 H 793.83 1.98617 4.68432 0
M  V30 8454 H 793.228 -1.07378 5.55416 0
M  V30 8455 H 791.785 -0.857705 6.46132 0
M  V30 8456 N 795.218 -1.23913 0.973828 0
M  V30 8457 C 796.165 -2.25132 0.508366 0
M  V30 8458 C 797.135 -1.59908 -0.449307 0
M  V30 8459 O 798.32 -1.87405 -0.358313 0
M  V30 8460 C 795.46 -3.4458 -0.189422 0
M  V30 8461 C 794.573 -4.24381 0.807738 0
M  V30 8462 C 793.708 -5.31131 0.0854315 0
M  V30 8463 C 792.747 -6.02635 1.07225 0
M  V30 8464 N 791.884 -7.01073 0.379535 0
M  V30 8465 H 796.724 -2.64313 1.37632 0
M  V30 8466 H 794.261 -1.29924 0.689802 0
M  V30 8467 H 796.219 -4.12706 -0.610733 0
M  V30 8468 H 794.849 -3.06218 -1.02129 0
M  V30 8469 H 793.901 -3.55735 1.34747 0
M  V30 8470 H 795.213 -4.73778 1.55998 0
M  V30 8471 H 794.367 -6.05422 -0.393572 0
M  V30 8472 H 793.106 -4.82658 -0.699461 0
M  V30 8473 H 792.111 -5.27143 1.56207 0
M  V30 8474 H 793.336 -6.53197 1.85769 0
M  V30 8475 H 791.282 -6.54862 -0.386269 0
M  V30 8476 H 791.199 -7.48382 1.07054 0
M  V30 8477 H 792.467 -7.79462 -0.0772984 0
M  V30 8478 N 796.696 -0.74468 -1.38897 0
M  V30 8479 C 798.112 -0.421302 -1.53939 0
M  V30 8480 C 798.312 1.06668 -1.70951 0
M  V30 8481 O 797.368 1.85278 -1.71547 0
M  V30 8482 C 798.681 -1.21278 -2.75159 0
M  V30 8483 C 800.229 -1.20196 -2.89001 0
M  V30 8484 C 800.704 -1.97621 -4.13171 0
M  V30 8485 N 802.195 -1.94836 -4.2023 0
M  V30 8486 C 802.93 -2.51545 -5.15279 0
M  V30 8487 N 802.426 -3.1693 -6.16058 0
M  V30 8488 N 804.219 -2.41524 -5.07565 0
M  V30 8489 H 796.37 -1.70914 -1.26103 0
M  V30 8490 H 798.633 -0.724058 -0.611919 0
M  V30 8491 H 798.339 -2.26609 -2.68963 0
M  V30 8492 H 798.213 -0.823677 -3.68097 0
M  V30 8493 H 800.6 -0.156742 -2.94683 0
M  V30 8494 H 800.681 -1.63051 -1.97099 0
M  V30 8495 H 800.325 -3.02149 -4.0825 0
M  V30 8496 H 800.255 -1.52166 -5.04136 0
M  V30 8497 H 802.746 -1.4721 -3.48048 0
M  V30 8498 H 803.059 -3.57644 -6.85062 0
M  V30 8499 H 801.404 -3.21023 -6.16417 0
M  V30 8500 H 804.595 -1.90077 -4.27771 0
M  V30 8501 H 804.768 -2.86016 -5.81462 0
M  V30 8502 N 798.174 1.49689 -0.493057 0
M  V30 8503 C 799.59 1.58907 -0.148526 0
M  V30 8504 C 799.79 1.4991 1.34645 0
M  V30 8505 O 798.846 1.36893 2.12171 0
M  V30 8506 C 800.159 2.91996 -0.718265 0
M  V30 8507 C 801.707 3.05443 -0.683658 0
M  V30 8508 C 802.182 4.41138 -1.23132 0
M  V30 8509 N 803.673 4.47608 -1.19167 0
M  V30 8510 C 804.408 5.51038 -1.5857 0
M  V30 8511 N 803.904 6.61612 -2.05528 0
M  V30 8512 N 805.697 5.41706 -1.50036 0
M  V30 8513 H 797.848 1.5378 -1.46511 0
M  V30 8514 H 800.111 0.727996 -0.607228 0
M  V30 8515 H 799.817 3.04123 -1.7664 0
M  V30 8516 H 799.691 3.76798 -0.17419 0
M  V30 8517 H 802.078 2.92949 0.355626 0
M  V30 8518 H 802.159 2.22344 -1.26479 0
M  V30 8519 H 801.803 4.54382 -2.26935 0
M  V30 8520 H 801.733 5.22864 -0.626201 0
M  V30 8521 H 804.224 3.68274 -0.847524 0
M  V30 8522 H 804.537 7.36622 -2.33685 0
M  V30 8523 H 802.882 6.62674 -2.09497 0
M  V30 8524 H 806.073 4.54212 -1.13176 0
M  V30 8525 H 806.246 6.22188 -1.81068 0
M  V30 8526 N 799.652 0.226554 1.55963 0
M  V30 8527 C 800.562 -0.692725 2.24139 0
M  V30 8528 C 801.578 -1.20971 1.25068 0
M  V30 8529 O 802.754 -1.25027 1.57893 0
M  V30 8530 C 799.819 -1.88183 2.91184 0
M  V30 8531 C 798.88 -1.40633 4.05612 0
M  V30 8532 C 798.113 -2.53875 4.6945 0
M  V30 8533 O 798.336 -3.72129 4.32292 0
M  V30 8534 O 797.27 -2.24792 5.58348 0
M  V30 8535 H 801.096 -0.141921 3.03368 0
M  V30 8536 H 798.681 -0.0041049 1.49399 0
M  V30 8537 H 800.563 -2.57617 3.33484 0
M  V30 8538 H 799.238 -2.42064 2.14911 0
M  V30 8539 H 798.145 -0.67986 3.67871 0
M  V30 8540 H 799.478 -0.913838 4.83642 0
M  V30 8541 N 801.13 -1.57531 -0.0467866 0
M  V30 8542 C 802.062 -2.02156 -1.08007 0
M  V30 8543 C 803.075 -0.931434 -1.33522 0
M  V30 8544 O 804.264 -1.209 -1.31321 0
M  V30 8545 C 801.364 -2.36675 -2.42566 0
M  V30 8546 C 800.537 -3.67848 -2.36658 0
M  V30 8547 C 799.596 -3.89754 -3.53523 0
M  V30 8548 O 798.622 -4.61036 -3.33818 0
M  V30 8549 N 799.824 -3.34025 -4.74771 0
M  V30 8550 H 802.589 -2.91414 -0.699845 0
M  V30 8551 H 800.15 -1.60185 -0.235041 0
M  V30 8552 H 802.142 -2.48482 -3.19435 0
M  V30 8553 H 800.712 -1.53178 -2.72498 0
M  V30 8554 H 799.932 -3.66561 -1.45005 0
M  V30 8555 H 801.22 -4.53931 -2.29835 0
M  V30 8556 H 800.618 -2.76214 -4.93683 0
M  V30 8557 H 799.175 -3.51241 -5.49066 0
M  V30 8558 N 802.608 0.318715 -1.54344 0
M  V30 8559 C 803.836 1.0755 -1.7675 0
M  V30 8560 C 804.251 1.81543 -0.518422 0
M  V30 8561 O 803.608 1.75198 0.511078 0
M  V30 8562 C 803.659 2.06983 -2.96378 0
M  V30 8563 O 803.38 1.35995 -4.16458 0
M  V30 8564 C 804.881 2.94841 -3.31034 0
M  V30 8565 H 802.101 0.319711 -0.589937 0
M  V30 8566 H 804.645 0.363369 -2.01246 0
M  V30 8567 H 802.8 2.73724 -2.74142 0
M  V30 8568 H 803.214 2.02623 -4.83781 0
M  V30 8569 H 804.688 3.60496 -4.18027 0
M  V30 8570 H 805.165 3.62199 -2.48412 0
M  V30 8571 H 805.771 2.33656 -3.55366 0
M  V30 8572 N 804.086 1.46499 0.581025 0
M  V30 8573 C 804.996 1.59778 1.71779 0
M  V30 8574 C 806.012 0.481223 1.67213 0
M  V30 8575 O 807.188 0.74557 1.87091 0
M  V30 8576 C 804.253 1.58626 3.08283 0
M  V30 8577 C 803.314 2.81527 3.241 0
M  V30 8578 C 802.547 2.80421 4.54092 0
M  V30 8579 O 802.77 1.89262 5.38085 0
M  V30 8580 O 801.704 3.71984 4.73193 0
M  V30 8581 H 805.53 2.55918 1.63523 0
M  V30 8582 H 803.115 1.29311 0.748267 0
M  V30 8583 H 804.997 1.60686 3.89561 0
M  V30 8584 H 803.672 0.656467 3.16973 0
M  V30 8585 H 802.579 2.85021 2.42309 0
M  V30 8586 H 803.912 3.73721 3.20302 0
M  V30 8587 N 805.565 -0.825799 1.34232 0
M  V30 8588 C 806.515 -1.92533 1.22128 0
M  V30 8589 C 807.499 -1.60444 0.121002 0
M  V30 8590 O 808.691 -1.73497 0.350385 0
M  V30 8591 C 805.82 -3.29134 0.975995 0
M  V30 8592 C 804.906 -3.6735 2.11931 0
M  V30 8593 N 805.297 -3.77154 3.37029 0
M  V30 8594 C 803.595 -3.97179 2.02891 0
M  V30 8595 C 804.296 -4.10552 4.12095 0
M  V30 8596 N 803.272 -4.23619 3.40658 0
M  V30 8597 H 807.074 -1.98287 2.16932 0
M  V30 8598 H 804.588 -1.01929 1.26429 0
M  V30 8599 H 806.585 -4.07717 0.870187 0
M  V30 8600 H 805.245 -3.24679 0.036606 0
M  V30 8601 H 806.256 -3.60723 3.71618 0
M  V30 8602 H 802.933 -4.00861 1.16692 0
M  V30 8603 H 804.323 -4.25365 5.2011 0
M  V30 8604 N 807.043 -1.17915 -1.04565 0
M  V30 8605 C 808.459 -0.927761 -1.29864 0
M  V30 8606 C 808.659 0.409536 -1.97294 0
M  V30 8607 O 807.715 1.14505 -2.25044 0
M  V30 8608 C 809.028 -2.08967 -2.16225 0
M  V30 8609 C 810.576 -2.12741 -2.29587 0
M  V30 8610 C 811.051 -3.28335 -3.19312 0
M  V30 8611 N 812.542 -3.28164 -3.26898 0
M  V30 8612 C 813.277 -4.14249 -3.96466 0
M  V30 8613 N 812.773 -5.10457 -4.68407 0
M  V30 8614 N 814.566 -4.02179 -3.92694 0
M  V30 8615 H 806.717 -2.03983 -0.592011 0
M  V30 8616 H 808.98 -0.891023 -0.323701 0
M  V30 8617 H 808.686 -3.05654 -1.73979 0
M  V30 8618 H 808.56 -2.04606 -3.16885 0
M  V30 8619 H 810.947 -1.16636 -2.71072 0
M  V30 8620 H 811.028 -2.21162 -1.28535 0
M  V30 8621 H 810.672 -4.2471 -2.78539 0
M  V30 8622 H 810.602 -3.17151 -4.20384 0
M  V30 8623 H 813.093 -2.58511 -2.75646 0
M  V30 8624 H 813.406 -5.72526 -5.1907 0
M  V30 8625 H 811.751 -5.14422 -4.67328 0
M  V30 8626 H 814.942 -3.26308 -3.3562 0
M  V30 8627 H 815.115 -4.69486 -4.4664 0
M  V30 8628 N 808.521 1.23394 -0.980386 0
M  V30 8629 C 809.769 1.91431 -0.647978 0
M  V30 8630 C 810.09 1.76871 0.821066 0
M  V30 8631 O 809.36 1.14808 1.58732 0
M  V30 8632 H 807.94 0.708516 -0.236673 0
M  V30 8633 H 810.602 1.50019 -1.2442 0
M  V30 8634 H 809.698 2.98854 -0.899592 0
M  V30 8635 N 809.999 0.752036 1.385 0
M  V30 8636 C 810.909 0.125318 2.34265 0
M  V30 8637 C 811.925 -0.702437 1.59191 0
M  V30 8638 O 813.101 -0.626951 1.91393 0
M  V30 8639 C 810.166 -0.758486 3.38301 0
M  V30 8640 C 809.227 0.0834636 4.29219 0
M  V30 8641 C 808.46 -0.758252 5.28286 0
M  V30 8642 O 808.683 -1.99632 5.34325 0
M  V30 8643 O 807.617 -0.177878 6.01637 0
M  V30 8644 H 811.443 0.91617 2.89551 0
M  V30 8645 H 809.028 0.512911 1.4032 0
M  V30 8646 H 810.91 -1.26365 4.02007 0
M  V30 8647 H 809.585 -1.52786 2.85374 0
M  V30 8648 H 808.492 0.634545 3.68679 0
M  V30 8649 H 809.825 0.815455 4.85398 0
M  V30 8650 N 811.477 -1.49425 0.500989 0
M  V30 8651 C 812.424 -2.29126 -0.277443 0
M  V30 8652 C 813.394 -1.35522 -0.960363 0
M  V30 8653 O 814.579 -1.64479 -0.967027 0
M  V30 8654 C 811.719 -3.18193 -1.33593 0
M  V30 8655 C 810.832 -4.26854 -0.664791 0
M  V30 8656 C 809.967 -5.03137 -1.70372 0
M  V30 8657 C 809.006 -6.03635 -1.01445 0
M  V30 8658 N 808.143 -6.73083 -1.99758 0
M  V30 8659 H 812.983 -2.95187 0.408458 0
M  V30 8660 H 810.52 -1.45546 0.213275 0
M  V30 8661 H 812.478 -3.68207 -1.96161 0
M  V30 8662 H 811.108 -2.54116 -1.9906 0
M  V30 8663 H 810.16 -3.80328 0.0741708 0
M  V30 8664 H 811.472 -4.9865 -0.122197 0
M  V30 8665 H 810.626 -5.5702 -2.40445 0
M  V30 8666 H 809.365 -4.31114 -2.28017 0
M  V30 8667 H 808.37 -5.48984 -0.299496 0
M  V30 8668 H 809.595 -6.77644 -0.444497 0
M  V30 8669 H 807.541 -6.03832 -2.56365 0
M  V30 8670 H 807.458 -7.40855 -1.50565 0
M  V30 8671 H 808.726 -7.3157 -2.69119 0
M  V30 8672 N 812.955 -0.234822 -1.55841 0
M  V30 8673 C 814.371 0.120295 -1.59146 0
M  V30 8674 C 814.571 1.57896 -1.25184 0
M  V30 8675 O 813.627 2.32138 -0.993393 0
M  V30 8676 C 814.94 -0.217984 -2.99909 0
M  V30 8677 C 816.488 -0.161298 -3.12584 0
M  V30 8678 C 816.963 -0.473438 -4.55546 0
M  V30 8679 N 818.454 -0.423494 -4.6126 0
M  V30 8680 C 819.189 -0.638334 -5.69836 0
M  V30 8681 N 818.685 -0.915659 -6.86722 0
M  V30 8682 N 820.478 -0.569864 -5.59204 0
M  V30 8683 H 812.629 -1.18622 -1.76189 0
M  V30 8684 H 814.892 -0.476426 -0.819587 0
M  V30 8685 H 814.598 -1.2309 -3.29457 0
M  V30 8686 H 814.472 0.460707 -3.74376 0
M  V30 8687 H 816.859 0.842274 -2.82825 0
M  V30 8688 H 816.94 -0.873661 -2.40418 0
M  V30 8689 H 816.584 -1.47451 -4.86025 0
M  V30 8690 H 816.514 0.260268 -5.25956 0
M  V30 8691 H 819.005 -0.217383 -3.77274 0
M  V30 8692 H 819.318 -1.06734 -7.65394 0
M  V30 8693 H 817.663 -0.953 -6.88435 0
M  V30 8694 H 820.854 -0.35334 -4.66765 0
M  V30 8695 H 821.027 -0.740698 -6.43753 0
M  V30 8696 N 814.433 1.57553 0.0384317 0
M  V30 8697 C 815.365 2.02726 1.06934 0
M  V30 8698 C 816.378 0.938502 1.33026 0
M  V30 8699 O 817.567 1.21595 1.30678 0
M  V30 8700 C 814.667 2.37958 2.41308 0
M  V30 8701 C 813.84 3.69098 2.34703 0
M  V30 8702 C 812.899 3.91623 3.51451 0
M  V30 8703 O 811.925 4.628 3.31368 0
M  V30 8704 N 813.127 3.36538 4.72993 0
M  V30 8705 H 815.892 2.91781 0.684381 0
M  V30 8706 H 813.453 1.60307 0.226542 0
M  V30 8707 H 815.445 2.50172 3.18113 0
M  V30 8708 H 814.015 1.54621 2.71682 0
M  V30 8709 H 813.235 3.67325 1.43059 0
M  V30 8710 H 814.523 4.55144 2.27424 0
M  V30 8711 H 813.921 2.78828 4.92211 0
M  V30 8712 H 812.478 3.54148 5.47195 0
M  V30 8713 N 815.911 -0.310526 1.54511 0
M  V30 8714 C 817.157 -1.04846 1.73595 0
M  V30 8715 C 817.49 -1.87244 0.515118 0
M  V30 8716 O 816.765 -1.88282 -0.48786 0
M  V30 8717 C 817.048 -1.96237 3.01932 0
M  V30 8718 C 816.901 -1.17082 4.34295 0
M  V30 8719 C 818.22 -2.9556 3.26086 0
M  V30 8720 H 815.339 -0.37976 0.631626 0
M  V30 8721 H 817.981 -0.32394 1.87218 0
M  V30 8722 H 816.131 -2.58015 2.90449 0
M  V30 8723 H 817.803 -0.576643 4.57682 0
M  V30 8724 H 816.046 -0.473336 4.3121 0
M  V30 8725 H 816.717 -1.84257 5.20339 0
M  V30 8726 H 819.193 -2.43908 3.37117 0
M  V30 8727 H 818.069 -3.5668 4.17218 0
M  V30 8728 H 818.33 -3.68715 2.4393 0
M  V30 8729 N 817.389 -1.46805 -0.573248 0
M  V30 8730 C 818.805 -1.31969 -0.897577 0
M  V30 8731 C 819.005 -0.298171 -1.99282 0
M  V30 8732 O 818.061 0.295953 -2.5076 0
M  V30 8733 C 819.374 -2.70859 -1.30598 0
M  V30 8734 C 820.922 -2.79022 -1.4183 0
M  V30 8735 C 821.397 -4.18516 -1.86033 0
M  V30 8736 N 822.888 -4.2098 -1.9321 0
M  V30 8737 C 823.623 -5.25814 -2.28707 0
M  V30 8738 N 823.119 -6.40968 -2.6293 0
M  V30 8739 N 824.912 -5.13184 -2.29343 0
M  V30 8740 H 817.063 -2.11869 0.150094 0
M  V30 8741 H 819.326 -0.947989 0.00447895 0
M  V30 8742 H 819.032 -3.46965 -0.575161 0
M  V30 8743 H 818.906 -3.01585 -2.26554 0
M  V30 8744 H 821.293 -2.03198 -2.13996 0
M  V30 8745 H 821.374 -2.51969 -0.441024 0
M  V30 8746 H 821.018 -4.94839 -1.14442 0
M  V30 8747 H 820.948 -4.42982 -2.84735 0
M  V30 8748 H 823.439 -3.37898 -1.69214 0
M  V30 8749 H 823.752 -7.16729 -2.88996 0
M  V30 8750 H 822.097 -6.44314 -2.60547 0
M  V30 8751 H 825.288 -4.22255 -2.02036 0
M  V30 8752 H 825.461 -5.94996 -2.56679 0
M  V30 8753 N 818.867 0.818669 -1.34668 0
M  V30 8754 C 820.283 1.11243 -1.14443 0
M  V30 8755 C 820.483 2.01435 0.0512212 0
M  V30 8756 O 819.539 2.41854 0.725471 0
M  V30 8757 C 820.852 1.75504 -2.4417 0
M  V30 8758 C 822.4 1.8798 -2.50265 0
M  V30 8759 C 822.875 2.55657 -3.80004 0
M  V30 8760 N 824.366 2.63153 -3.81189 0
M  V30 8761 C 825.101 3.16258 -4.78298 0
M  V30 8762 N 824.597 3.69893 -5.85791 0
M  V30 8763 N 826.39 3.14698 -4.65748 0
M  V30 8764 H 818.541 0.218848 -2.1127 0
M  V30 8765 H 820.804 0.159655 -0.934459 0
M  V30 8766 H 820.51 1.16697 -3.31775 0
M  V30 8767 H 820.384 2.75329 -2.57825 0
M  V30 8768 H 822.771 2.45934 -1.63096 0
M  V30 8769 H 822.852 0.870447 -2.40535 0
M  V30 8770 H 822.496 1.98356 -4.67565 0
M  V30 8771 H 822.426 3.57105 -3.87019 0
M  V30 8772 H 824.917 2.2514 -3.03513 0
M  V30 8773 H 825.23 4.08678 -6.55898 0
M  V30 8774 H 823.575 3.68125 -5.89499 0
M  V30 8775 H 826.766 2.72066 -3.80917 0
M  V30 8776 H 826.939 3.5578 -5.41594 0
M  V30 8777 N 820.346 1.18468 1.03938 0
M  V30 8778 C 821.623 0.890435 1.74157 0
M  V30 8779 C 822.003 -0.606409 2.02203 0
M  V30 8780 O 821.351 -1.5615 1.66822 0
M  V30 8781 C 821.561 1.73906 3.02585 0
M  V30 8782 C 822.909 1.96686 3.76297 0
M  V30 8783 O 823.933 1.70969 3.12487 0
M  V30 8784 O 822.792 2.39986 4.90988 0
M  V30 8785 H 819.886 0.330889 0.757919 0
M  V30 8786 H 822.432 1.29228 1.09992 0
M  V30 8787 H 821.204 2.75369 2.78006 0
M  V30 8788 H 820.827 1.33581 3.74489 0
M  V30 8789 N 821.824 -1.22873 0.986916 0
M  V30 8790 C 822.754 -2.2688 0.552064 0
M  V30 8791 C 823.735 -1.64883 -0.418048 0
M  V30 8792 O 824.92 -1.9171 -0.30999 0
M  V30 8793 C 822.05 -3.47018 -0.139959 0
M  V30 8794 C 821.004 -4.21411 0.748091 0
M  V30 8795 C 820.33 -5.34645 -0.0765132 0
M  V30 8796 C 821.63 -4.80726 2.04206 0
M  V30 8797 H 823.324 -2.63507 1.42143 0
M  V30 8798 H 820.87 -1.26668 0.68492 0
M  V30 8799 H 822.823 -4.18931 -0.455527 0
M  V30 8800 H 821.547 -3.0947 -1.04382 0
M  V30 8801 H 820.206 -3.51325 1.04721 0
M  V30 8802 H 819.854 -4.93339 -0.981109 0
M  V30 8803 H 819.554 -5.85342 0.514606 0
M  V30 8804 H 821.078 -6.09377 -0.386313 0
M  V30 8805 H 822.492 -5.44612 1.79083 0
M  V30 8806 H 820.889 -5.41737 2.5815 0
M  V30 8807 H 821.959 -4.01109 2.72469 0
M  V30 8808 N 823.302 -0.75937 -1.38099 0
M  V30 8809 C 824.549 -0.318113 -1.99986 0
M  V30 8810 C 824.877 1.10184 -1.6028 0
M  V30 8811 O 824.132 1.77015 -0.834524 0
M  V30 8812 C 824.431 -0.394999 -3.55211 0
M  V30 8813 C 824.097 -1.77143 -4.14646 0
M  V30 8814 C 822.759 -2.14811 -4.30592 0
M  V30 8815 C 825.111 -2.67407 -4.47373 0
M  V30 8816 C 822.439 -3.42203 -4.76565 0
M  V30 8817 C 824.791 -3.94196 -4.94765 0
M  V30 8818 C 823.455 -4.31925 -5.08918 0
M  V30 8819 H 822.725 -0.116406 -0.7318 0
M  V30 8820 H 825.372 -0.97098 -1.65058 0
M  V30 8821 H 823.677 0.341426 -3.9031 0
M  V30 8822 H 825.374 -0.0350722 -4.00985 0
M  V30 8823 H 821.964 -1.46864 -4.02652 0
M  V30 8824 H 826.148 -2.39569 -4.3465 0
M  V30 8825 H 821.404 -3.71346 -4.85708 0
M  V30 8826 H 825.578 -4.64276 -5.19057 0
M  V30 8827 H 823.205 -5.30699 -5.443 0
M  V30 8828 N 824.78 1.49157 -0.508906 0
M  V30 8829 C 825.743 2.27784 0.25434 0
M  V30 8830 C 826.743 1.34132 0.88686 0
M  V30 8831 O 827.933 1.5722 0.750168 0
M  V30 8832 C 825.065 3.12347 1.36573 0
M  V30 8833 H 826.258 2.96718 -0.435714 0
M  V30 8834 H 823.811 1.54052 -0.264128 0
M  V30 8835 H 824.546 2.47997 2.08969 0
M  V30 8836 H 824.331 3.81213 0.917543 0
M  V30 8837 H 825.821 3.71712 1.90315 0
M  V30 8838 N 826.258 0.243083 1.55714 0
M  V30 8839 C 827.505 -0.38272 1.9885 0
M  V30 8840 C 827.833 -1.58225 1.13115 0
M  V30 8841 O 827.088 -1.94861 0.181067 0
M  V30 8842 C 827.387 -0.839621 3.47398 0
M  V30 8843 C 827.053 0.251737 4.50197 0
M  V30 8844 C 825.715 0.551487 4.78029 0
M  V30 8845 C 828.067 0.988728 5.11736 0
M  V30 8846 C 825.395 1.59237 5.64677 0
M  V30 8847 C 827.747 2.0191 5.99512 0
M  V30 8848 C 826.411 2.32554 6.2568 0
M  V30 8849 H 825.681 -0.140047 0.727645 0
M  V30 8850 H 828.328 0.35011 1.88272 0
M  V30 8851 H 826.633 -1.65159 3.55288 0
M  V30 8852 H 828.33 -1.33404 3.78159 0
M  V30 8853 H 824.92 0.00796741 4.28599 0
M  V30 8854 H 829.104 0.7704 4.90284 0
M  V30 8855 H 824.36 1.83517 5.83208 0
M  V30 8856 H 828.534 2.59511 6.46241 0
M  V30 8857 H 826.161 3.13349 6.92616 0
M  V30 8858 N 827.736 -1.57571 -0.0300757 0
M  V30 8859 C 828.668 -2.0329 -1.05857 0
M  V30 8860 C 829.681 -0.945543 -1.32527 0
M  V30 8861 O 830.87 -1.22287 -1.30032 0
M  V30 8862 C 827.97 -2.39234 -2.40042 0
M  V30 8863 C 827.143 -3.70337 -2.32743 0
M  V30 8864 C 826.202 -3.93482 -3.49369 0
M  V30 8865 O 825.228 -4.64551 -3.28909 0
M  V30 8866 N 826.43 -3.39042 -4.71201 0
M  V30 8867 H 829.195 -2.9214 -0.668897 0
M  V30 8868 H 826.756 -1.60425 -0.218038 0
M  V30 8869 H 828.748 -2.51856 -3.16782 0
M  V30 8870 H 827.318 -1.5606 -2.70858 0
M  V30 8871 H 826.538 -3.68079 -1.41109 0
M  V30 8872 H 827.826 -4.56343 -2.25007 0
M  V30 8873 H 827.224 -2.81434 -4.90725 0
M  V30 8874 H 825.781 -3.57045 -5.45309 0
M  V30 8875 N 829.214 0.302327 -1.54673 0
M  V30 8876 C 830.124 1.39542 -1.88587 0
M  V30 8877 C 831.14 1.55543 -0.779895 0
M  V30 8878 O 832.316 1.70233 -1.07623 0
M  V30 8879 C 829.381 2.7394 -2.12504 0
M  V30 8880 C 828.442 2.66935 -3.3622 0
M  V30 8881 C 827.675 3.94923 -3.58987 0
M  V30 8882 O 827.898 4.94218 -2.84789 0
M  V30 8883 O 826.832 3.96896 -4.52501 0
M  V30 8884 H 830.658 1.13784 -2.81579 0
M  V30 8885 H 828.243 0.49827 -1.40846 0
M  V30 8886 H 830.125 3.5346 -2.29443 0
M  V30 8887 H 828.8 2.99544 -1.22698 0
M  V30 8888 H 827.707 1.85892 -3.24646 0
M  V30 8889 H 829.04 2.46283 -4.26152 0
M  V30 8890 N 830.692 1.47107 0.565454 0
M  V30 8891 C 831.917 1.57153 1.35343 0
M  V30 8892 C 832.342 0.219247 1.86818 0
M  V30 8893 O 831.7 -0.803539 1.62521 0
M  V30 8894 C 831.748 2.59387 2.50501 0
M  V30 8895 O 830.852 2.14086 3.52478 0
M  V30 8896 H 830.193 0.528209 0.402357 0
M  V30 8897 H 832.723 1.92821 0.684189 0
M  V30 8898 H 832.733 2.79546 2.97184 0
M  V30 8899 H 831.408 3.57579 2.12391 0
M  V30 8900 H 829.985 2.03991 3.12157 0
M  V30 8901 N 832.17 -0.811516 1.35101 0
M  V30 8902 C 833.581 -1.38515 1.25182 0
M  V30 8903 C 833.932 -1.95846 -0.117883 0
M  V30 8904 O 833.057 -1.90925 -1.01866 0
M  V30 8905 C 833.652 -2.51813 2.26662 0
M  V30 8906 C 832.211 -3.05052 2.20499 0
M  V30 8907 C 831.358 -1.77987 2.12641 0
M  V30 8908 H 834.309 -0.614959 1.46301 0
M  V30 8909 H 834.33 -3.30228 1.89023 0
M  V30 8910 H 833.842 -2.10057 3.2634 0
M  V30 8911 H 831.943 -3.51285 1.24215 0
M  V30 8912 H 832.056 -3.63368 3.1225 0
M  V30 8913 H 830.42 -1.99342 1.5854 0
M  V30 8914 H 831.203 -1.38389 3.14171 0
M  V30 8915 N 833.648 -1.19017 -1.03309 0
M  V30 8916 C 835.059 -0.993206 -1.5809 0
M  V30 8917 C 835.41 0.45505 -1.9085 0
M  V30 8918 O 834.535 1.33372 -1.70414 0
M  V30 8919 C 835.13 -1.79661 -2.87241 0
M  V30 8920 C 833.689 -1.64377 -3.38611 0
M  V30 8921 C 832.836 -1.78628 -2.12102 0
M  V30 8922 H 835.787 -1.3345 -0.858879 0
M  V30 8923 H 835.808 -1.29019 -3.57958 0
M  V30 8924 H 835.32 -2.85061 -2.63366 0
M  V30 8925 H 833.421 -0.615447 -3.67482 0
M  V30 8926 H 833.534 -2.44651 -4.11926 0
M  V30 8927 H 831.898 -1.21648 -2.23772 0
M  V30 8928 H 832.681 -2.8548 -1.90673 0
M  V30 8929 N 835.127 1.22348 -0.993418 0
M  V30 8930 C 836.543 1.43222 -0.704238 0
M  V30 8931 C 836.743 1.88009 0.724909 0
M  V30 8932 O 835.799 2.03429 1.49575 0
M  V30 8933 C 837.112 2.47328 -1.71025 0
M  V30 8934 C 838.66 2.61126 -1.72576 0
M  V30 8935 C 839.135 3.68453 -2.72041 0
M  V30 8936 N 840.626 3.75911 -2.70639 0
M  V30 8937 C 841.361 4.58551 -3.44266 0
M  V30 8938 N 840.857 5.45179 -4.27495 0
M  V30 8939 N 842.65 4.52866 -3.32969 0
M  V30 8940 H 834.801 0.915832 -1.91641 0
M  V30 8941 H 837.064 0.464283 -0.826526 0
M  V30 8942 H 836.77 2.21366 -2.73295 0
M  V30 8943 H 836.644 3.45939 -1.50353 0
M  V30 8944 H 839.031 2.86431 -0.710037 0
M  V30 8945 H 839.112 1.62787 -1.97317 0
M  V30 8946 H 838.756 3.43895 -3.73763 0
M  V30 8947 H 838.686 4.66362 -2.4457 0
M  V30 8948 H 841.177 3.14014 -2.10247 0
M  V30 8949 H 841.49 6.0526 -4.80499 0
M  V30 8950 H 839.835 5.44759 -4.31582 0
M  V30 8951 H 843.026 3.84215 -2.67389 0
M  V30 8952 H 843.199 5.17039 -3.90608 0
M  V30 8953 N 836.605 0.766683 1.37694 0
M  V30 8954 C 837.852 0.328714 1.99814 0
M  V30 8955 C 838.18 -1.09333 1.60862 0
M  V30 8956 O 837.435 -1.7657 0.8439 0
M  V30 8957 C 837.734 0.413831 3.54996 0
M  V30 8958 C 837.4 1.7934 4.137 0
M  V30 8959 C 836.062 2.17092 4.29447 0
M  V30 8960 C 838.414 2.69776 4.45949 0
M  V30 8961 C 835.742 3.44726 4.74743 0
M  V30 8962 C 838.094 3.96814 4.92667 0
M  V30 8963 C 836.758 4.34618 5.0662 0
M  V30 8964 H 836.028 0.120285 0.731172 0
M  V30 8965 H 838.675 0.97972 1.64541 0
M  V30 8966 H 836.98 -0.320723 3.90485 0
M  V30 8967 H 838.677 0.0563369 4.0096 0
M  V30 8968 H 835.267 1.48997 4.01868 0
M  V30 8969 H 839.451 2.41871 4.33373 0
M  V30 8970 H 834.707 3.73917 4.83731 0
M  V30 8971 H 838.881 4.67022 5.16588 0
M  V30 8972 H 836.508 5.33578 5.41478 0
M  V30 8973 N 838.083 -1.48885 0.516809 0
M  V30 8974 C 839.013 -2.32241 -0.242157 0
M  V30 8975 C 839.994 -1.41258 -0.947633 0
M  V30 8976 O 841.179 -1.70156 -0.935973 0
M  V30 8977 C 838.309 -3.22151 -1.29754 0
M  V30 8978 C 837.263 -4.22053 -0.710995 0
M  V30 8979 C 836.589 -5.01007 -1.86806 0
M  V30 8980 C 837.889 -5.21388 0.30853 0
M  V30 8981 H 839.583 -2.95943 0.453651 0
M  V30 8982 H 837.129 -1.42316 0.219612 0
M  V30 8983 H 839.082 -3.79284 -1.83634 0
M  V30 8984 H 837.806 -2.56423 -2.02274 0
M  V30 8985 H 836.465 -3.66087 -0.193819 0
M  V30 8986 H 836.113 -4.31713 -2.58133 0
M  V30 8987 H 835.813 -5.68615 -1.48159 0
M  V30 8988 H 837.337 -5.60989 -2.4109 0
M  V30 8989 H 838.751 -5.73122 -0.142703 0
M  V30 8990 H 837.148 -5.96975 0.611673 0
M  V30 8991 H 838.218 -4.69329 1.21894 0
M  V30 8992 N 839.561 -0.251338 -1.55583 0
M  V30 8993 C 840.972 0.25098 -1.85005 0
M  V30 8994 C 841.323 1.57259 -1.17321 0
M  V30 8995 O 840.448 2.11603 -0.453136 0
M  V30 8996 C 841.043 0.462161 -3.35633 0
M  V30 8997 C 839.602 0.908737 -3.65266 0
M  V30 8998 C 838.749 -0.0115418 -2.77298 0
M  V30 8999 H 841.7 -0.473782 -1.51463 0
M  V30 9000 H 841.721 1.30415 -3.57452 0
M  V30 9001 H 841.233 -0.499886 -3.84867 0
M  V30 9002 H 839.334 1.8831 -3.21512 0
M  V30 9003 H 839.447 0.762526 -4.72993 0
M  V30 9004 H 837.811 0.500612 -2.49732 0
M  V30 9005 H 838.594 -0.969042 -3.29339 0
M  V30 9006 N 841.039 1.57585 0.0217189 0
M  V30 9007 C 842.264 1.94267 0.726309 0
M  V30 9008 C 842.689 0.851904 1.67703 0
M  V30 9009 O 842.047 -0.191792 1.80283 0
M  V30 9010 C 842.095 3.30023 1.45318 0
M  V30 9011 O 841.199 3.22791 2.5667 0
M  V30 9012 H 840.54 0.634777 0.194818 0
M  V30 9013 H 843.07 2.04585 -0.0249985 0
M  V30 9014 H 843.08 3.65084 1.82147 0
M  V30 9015 H 841.755 4.08972 0.755962 0
M  V30 9016 H 840.332 2.99373 2.2233 0
M  V30 9017 N 842.517 -0.29412 1.54831 0
M  V30 9018 C 843.467 -1.36476 1.82643 0
M  V30 9019 C 844.451 -1.45638 0.683984 0
M  V30 9020 O 845.643 -1.49675 0.944801 0
M  V30 9021 C 842.772 -2.72865 2.08326 0
M  V30 9022 C 841.858 -2.67898 3.28773 0
M  V30 9023 N 842.249 -2.32547 4.49172 0
M  V30 9024 C 840.547 -2.98991 3.30939 0
M  V30 9025 C 841.248 -2.37048 5.31209 0
M  V30 9026 N 840.224 -2.74679 4.69097 0
M  V30 9027 H 844.026 -1.08119 2.7329 0
M  V30 9028 H 841.54 -0.502718 1.54423 0
M  V30 9029 H 843.537 -3.5007 2.264 0
M  V30 9030 H 842.197 -3.02127 1.1895 0
M  V30 9031 H 843.208 -2.04883 4.7565 0
M  V30 9032 H 839.885 -3.33104 2.51691 0
M  V30 9033 H 841.275 -2.12457 6.37426 0
M  V30 9034 N 843.995 -1.47404 -0.557645 0
M  V30 9035 C 845.406 -1.47872 -1.13977 0
M  V30 9036 C 845.757 -0.233176 -1.94809 0
M  V30 9037 O 844.882 0.661945 -2.06027 0
M  V30 9038 C 845.477 -2.67926 -2.07368 0
M  V30 9039 C 844.036 -2.71354 -2.60852 0
M  V30 9040 C 843.183 -2.40967 -1.37223 0
M  V30 9041 H 846.134 -1.54921 -0.344268 0
M  V30 9042 H 846.155 -2.44871 -2.91236 0
M  V30 9043 H 845.667 -3.58562 -1.48509 0
M  V30 9044 H 843.768 -1.84855 -3.23511 0
M  V30 9045 H 843.881 -3.72032 -3.01876 0
M  V30 9046 H 842.245 -1.91541 -1.67882 0
M  V30 9047 H 843.028 -3.33811 -0.801583 0
M  V30 9048 N 845.473 0.80434 -1.35529 0
M  V30 9049 C 846.722 1.55665 -1.28263 0
M  V30 9050 C 847.035 1.95096 0.140352 0
M  V30 9051 O 848.241 2.69422 0.335303 0
M  V30 9052 C 846.697 2.80935 -2.24952 0
M  V30 9053 C 846.305 2.48733 -3.72607 0
M  V30 9054 C 848.049 3.5894 -2.26632 0
M  V30 9055 C 845.956 3.70308 -4.61114 0
M  V30 9056 H 844.886 0.584301 -0.476559 0
M  V30 9057 H 847.537 0.88395 -1.60806 0
M  V30 9058 H 845.919 3.49927 -1.85383 0
M  V30 9059 H 847.093 1.87733 -4.20824 0
M  V30 9060 H 845.408 1.83969 -3.73557 0
M  V30 9061 H 848.005 4.49244 -2.89973 0
M  V30 9062 H 848.348 3.96433 -1.27069 0
M  V30 9063 H 848.881 2.96912 -2.64742 0
M  V30 9064 H 845.62 3.37922 -5.61684 0
M  V30 9065 H 845.14 4.30526 -4.17621 0
M  V30 9066 H 846.819 4.37511 -4.76648 0
M  V30 9067 N 846.951 1.19563 1.02676 0
M  V30 9068 C 848.197 1.00105 1.76371 0
M  V30 9069 C 848.53 -0.466823 1.88506 0
M  V30 9070 O 847.805 -1.34665 1.40341 0
M  V30 9071 C 848.088 1.67321 3.18866 0
M  V30 9072 C 847.941 3.21486 3.1459 0
M  V30 9073 C 849.26 1.39794 4.17308 0
M  V30 9074 H 846.379 0.365075 0.640226 0
M  V30 9075 H 849.021 1.47433 1.19848 0
M  V30 9076 H 847.171 1.27081 3.67128 0
M  V30 9077 H 848.843 3.70953 2.7421 0
M  V30 9078 H 847.086 3.5292 2.52249 0
M  V30 9079 H 847.757 3.63665 4.15273 0
M  V30 9080 H 850.233 1.74685 3.77657 0
M  V30 9081 H 849.109 1.89371 5.15199 0
M  V30 9082 H 849.37 0.323505 4.40915 0
M  V30 9083 N 848.429 -1.21819 0.999893 0
M  V30 9084 C 849.677 -1.90375 0.678351 0
M  V30 9085 C 849.998 -1.78155 -0.792824 0
M  V30 9086 O 849.268 -1.17319 -1.56885 0
M  V30 9087 H 847.848 -0.704661 0.247915 0
M  V30 9088 H 850.51 -1.48021 1.2679 0
M  V30 9089 H 849.606 -2.97385 0.947023 0
M  V30 9090 N 849.908 -0.773975 -1.37286 0
M  V30 9091 C 850.855 -0.159938 -2.30245 0
M  V30 9092 C 851.825 0.687356 -1.51211 0
M  V30 9093 O 853.01 0.639255 -1.79773 0
M  V30 9094 C 850.15 0.711452 -3.37687 0
M  V30 9095 C 849.263 -0.152692 -4.3173 0
M  V30 9096 C 848.398 0.723613 -5.26248 0
M  V30 9097 C 847.437 -0.14293 -6.11933 0
M  V30 9098 N 846.574 0.691479 -6.98687 0
M  V30 9099 H 851.414 -0.958182 -2.82175 0
M  V30 9100 H 848.951 -0.48411 -1.38906 0
M  V30 9101 H 850.909 1.2315 -3.9861 0
M  V30 9102 H 849.539 1.47528 -2.87116 0
M  V30 9103 H 848.591 -0.790574 -3.72094 0
M  V30 9104 H 849.903 -0.821027 -4.91997 0
M  V30 9105 H 849.057 1.31006 -5.92387 0
M  V30 9106 H 847.796 1.42562 -4.66398 0
M  V30 9107 H 846.801 -0.7419 -5.44771 0
M  V30 9108 H 848.026 -0.842305 -6.73856 0
M  V30 9109 H 845.972 1.37806 -6.41362 0
M  V30 9110 H 845.889 0.0804911 -7.55957 0
M  V30 9111 H 847.157 1.26225 -7.69212 0
M  V30 9112 N 851.386 1.48609 -0.524698 0
M  V30 9113 C 852.632 2.02797 0.0113382 0
M  V30 9114 C 852.965 1.40147 1.34433 0
M  V30 9115 O 852.24 0.545368 1.86698 0
M  V30 9116 C 852.523 3.59832 0.138931 0
M  V30 9117 C 852.376 4.32971 -1.21886 0
M  V30 9118 C 853.695 4.3145 0.868265 0
M  V30 9119 H 850.814 0.736995 0.00264645 0
M  V30 9120 H 853.456 1.77388 -0.680704 0
M  V30 9121 H 851.606 3.81612 0.72834 0
M  V30 9122 H 853.278 4.22624 -1.84897 0
M  V30 9123 H 851.521 3.94597 -1.80211 0
M  V30 9124 H 852.192 5.41279 -1.08263 0
M  V30 9125 H 854.668 4.14468 0.368145 0
M  V30 9126 H 853.544 5.41025 0.926428 0
M  V30 9127 H 853.805 3.98358 1.91737 0
M  V30 9128 N 852.864 0.259585 1.55447 0
M  V30 9129 C 854.141 -0.412595 1.91199 0
M  V30 9130 C 854.521 -1.74909 1.18194 0
M  V30 9131 O 853.869 -2.26474 0.303603 0
M  V30 9132 C 854.079 -0.568195 3.44344 0
M  V30 9133 C 855.427 -0.858253 4.15836 0
M  V30 9134 O 856.451 -0.653588 3.50152 0
M  V30 9135 O 855.31 -1.24874 5.32042 0
M  V30 9136 H 852.404 -0.223403 0.796254 0
M  V30 9137 H 854.95 0.30459 1.66944 0
M  V30 9138 H 853.722 0.372989 3.89518 0
M  V30 9139 H 853.345 -1.33544 3.74502 0
M  V30 9140 N 854.342 -1.57594 -0.0133615 0
M  V30 9141 C 855.588 -1.90262 -0.702019 0
M  V30 9142 C 855.921 -0.859219 -1.74158 0
M  V30 9143 O 855.196 0.123778 -1.94106 0
M  V30 9144 C 855.479 -3.3354 -1.35732 0
M  V30 9145 C 855.332 -4.48586 -0.330208 0
M  V30 9146 C 856.651 -3.76004 -2.28712 0
M  V30 9147 H 853.77 -0.691943 -0.253739 0
M  V30 9148 H 856.412 -1.89967 0.0351894 0
M  V30 9149 H 854.562 -3.33921 -1.98567 0
M  V30 9150 H 856.234 -4.6034 0.297433 0
M  V30 9151 H 854.477 -4.32394 0.348926 0
M  V30 9152 H 855.148 -5.45762 -0.827508 0
M  V30 9153 H 857.624 -3.77089 -1.75906 0
M  V30 9154 H 856.5 -4.77032 -2.71535 0
M  V30 9155 H 856.761 -3.09129 -3.16056 0
M  V30 9156 N 855.82 0.285905 -1.54985 0
M  V30 9157 C 857.048 1.03776 -1.78992 0
M  V30 9158 C 857.463 1.80402 -0.556814 0
M  V30 9159 O 856.82 1.76242 0.473801 0
M  V30 9160 C 856.871 2.0065 -3.00702 0
M  V30 9161 O 856.592 1.27131 -4.19249 0
M  V30 9162 C 858.093 2.87753 -3.37214 0
M  V30 9163 H 855.313 0.307126 -0.596586 0
M  V30 9164 H 857.857 0.3206 -2.01971 0
M  V30 9165 H 856.012 2.67847 -2.79887 0
M  V30 9166 H 856.426 1.92316 -4.8797 0
M  V30 9167 H 857.9 3.51548 -4.2558 0
M  V30 9168 H 858.377 3.56848 -2.56039 0
M  V30 9169 H 858.983 2.26065 -3.60242 0
M  V30 9170 N 857.298 1.47698 0.54982 0
M  V30 9171 C 858.523 1.58579 1.33669 0
M  V30 9172 C 858.948 0.239049 1.86575 0
M  V30 9173 O 858.306 -0.786256 1.63364 0
M  V30 9174 C 858.354 2.62029 2.47736 0
M  V30 9175 O 857.458 2.17813 3.50188 0
M  V30 9176 H 856.799 0.532447 0.396732 0
M  V30 9177 H 859.329 1.93536 0.6637 0
M  V30 9178 H 859.339 2.82682 2.94202 0
M  V30 9179 H 858.014 3.59812 2.08586 0
M  V30 9180 H 856.591 2.07291 3.09976 0
M  V30 9181 N 858.776 -0.797141 1.35954 0
M  V30 9182 C 860.004 -1.5858 1.32891 0
M  V30 9183 C 860.419 -1.88578 -0.0915564 0
M  V30 9184 O 859.776 -1.49532 -1.04625 0
M  V30 9185 C 859.827 -2.91143 2.14284 0
M  V30 9186 O 859.548 -2.62442 3.50793 0
M  V30 9187 C 861.049 -3.85476 2.18914 0
M  V30 9188 H 858.269 -0.492111 0.456144 0
M  V30 9189 H 860.813 -0.98994 1.78943 0
M  V30 9190 H 858.968 -3.47219 1.71807 0
M  V30 9191 H 859.382 -3.4715 3.93175 0
M  V30 9192 H 860.856 -4.75574 2.80238 0
M  V30 9193 H 861.333 -4.22758 1.19047 0
M  V30 9194 H 861.939 -3.35334 2.61593 0
M  V30 9195 N 860.254 -1.20106 -1.0204 0
M  V30 9196 C 861.186 -0.904236 -2.10609 0
M  V30 9197 C 862.199 0.106487 -1.62451 0
M  V30 9198 O 863.388 -0.124035 -1.78069 0
M  V30 9199 C 860.488 -0.333423 -3.37256 0
M  V30 9200 C 859.661 -1.39476 -4.14566 0
M  V30 9201 C 858.72 -0.835961 -5.19517 0
M  V30 9202 O 857.746 -1.51573 -5.48648 0
M  V30 9203 N 858.948 0.356531 -5.79404 0
M  V30 9204 H 861.713 -1.8388 -2.36661 0
M  V30 9205 H 859.274 -1.10422 -1.184 0
M  V30 9206 H 861.266 0.0544571 -4.04663 0
M  V30 9207 H 859.836 0.505608 -3.08484 0
M  V30 9208 H 859.056 -1.95714 -3.42184 0
M  V30 9209 H 860.344 -2.10967 -4.63001 0
M  V30 9210 H 859.742 0.926143 -5.58067 0
M  V30 9211 H 858.299 0.686093 -6.48179 0
M  V30 9212 N 861.732 1.21287 -1.00634 0
M  V30 9213 C 862.679 2.23705 -0.567876 0
M  V30 9214 C 863.649 1.61043 0.406753 0
M  V30 9215 O 864.834 1.88289 0.308499 0
M  V30 9216 C 861.974 3.44961 0.097996 0
M  V30 9217 C 861.087 4.22091 -0.919972 0
M  V30 9218 C 860.222 5.30718 -0.226222 0
M  V30 9219 C 859.261 5.99581 -1.23165 0
M  V30 9220 N 858.398 6.99821 -0.565278 0
M  V30 9221 H 863.238 2.60571 -1.44592 0
M  V30 9222 H 860.775 1.28049 -0.724006 0
M  V30 9223 H 862.733 4.1418 0.501097 0
M  V30 9224 H 861.363 3.08818 0.939744 0
M  V30 9225 H 860.415 3.52038 -1.44131 0
M  V30 9226 H 861.727 4.69476 -1.68505 0
M  V30 9227 H 860.881 6.06253 0.232917 0
M  V30 9228 H 859.62 4.84343 0.571247 0
M  V30 9229 H 858.625 5.22816 -1.70128 0
M  V30 9230 H 859.85 6.48042 -2.03022 0
M  V30 9231 H 857.796 6.55656 0.212508 0
M  V30 9232 H 857.713 7.4528 -1.26858 0
M  V30 9233 H 858.981 7.79393 -0.129389 0
M  V30 9234 N 863.21 0.781244 1.36873 0
M  V30 9235 C 864.12 0.174981 2.33947 0
M  V30 9236 C 865.136 -0.668512 1.60645 0
M  V30 9237 O 866.312 -0.586213 1.9268 0
M  V30 9238 C 863.377 -0.686557 3.39834 0
M  V30 9239 C 862.438 0.174489 4.28945 0
M  V30 9240 C 861.671 -0.646024 5.29776 0
M  V30 9241 O 861.894 -1.88254 5.38439 0
M  V30 9242 O 860.828 -0.0502214 6.01879 0
M  V30 9243 H 864.654 0.977382 2.87543 0
M  V30 9244 H 862.239 0.542559 1.392 0
M  V30 9245 H 864.121 -1.1781 4.04597 0
M  V30 9246 H 862.796 -1.46699 2.8855 0
M  V30 9247 H 861.703 0.712604 3.6725 0
M  V30 9248 H 863.036 0.918232 4.83559 0
M  V30 9249 N 864.689 -1.48329 0.532571 0
M  V30 9250 C 865.652 -2.2816 -0.218069 0
M  V30 9251 C 866.652 -1.35526 -0.865409 0
M  V30 9252 O 867.842 -1.58394 -0.725061 0
M  V30 9253 C 864.974 -3.1448 -1.31586 0
M  V30 9254 H 866.167 -2.95987 0.482865 0
M  V30 9255 H 863.72 -1.53612 0.288603 0
M  V30 9256 H 864.455 -2.5129 -2.04997 0
M  V30 9257 H 864.24 -3.82625 -0.856779 0
M  V30 9258 H 865.73 -3.74693 -1.84377 0
M  V30 9259 N 866.167 -0.267825 -1.55308 0
M  V30 9260 C 867.077 0.633055 -2.25897 0
M  V30 9261 C 868.093 1.17613 -1.28231 0
M  V30 9262 O 869.269 1.20797 -1.61153 0
M  V30 9263 C 866.334 1.80397 -2.96071 0
M  V30 9264 C 865.395 1.29829 -4.09198 0
M  V30 9265 C 864.628 2.4134 -4.76016 0
M  V30 9266 O 864.851 3.60537 -4.42006 0
M  V30 9267 O 863.785 2.09909 -5.64111 0
M  V30 9268 H 867.611 0.0614381 -3.03638 0
M  V30 9269 H 865.196 -0.0355072 -1.49358 0
M  V30 9270 H 867.078 2.48685 -3.40197 0
M  V30 9271 H 865.753 2.36281 -2.21253 0
M  V30 9272 H 864.66 0.582086 -3.69544 0
M  V30 9273 H 865.993 0.785288 -4.85895 0
M  V30 9274 N 867.645 1.57599 0.00500368 0
M  V30 9275 C 868.593 2.09223 1.01628 0
M  V30 9276 C 869.587 1.01113 1.35913 0
M  V30 9277 O 870.793 1.19583 1.34536 0
M  V30 9278 H 867.168 0.667999 0.345372 0
M  V30 9279 H 869.139 2.93188 0.555274 0
M  V30 9280 C 867.888 2.60674 2.30097 0
M  V30 9281 H 867.211 3.43491 2.04582 0
M  V30 9282 H 868.651 3.00479 2.99146 0
M  V30 9283 C 867.11 1.51862 3.00731 0
M  V30 9284 O 867.64 0.898651 3.91519 0
M  V30 9285 N 865.846 1.24729 2.62471 0
M  V30 9286 H 865.393 1.7533 1.88725 0
M  V30 9287 H 865.351 0.521437 3.10046 0
M  V30 9288 N 869.123 -0.277682 1.55134 0
M  V30 9289 C 870.055 -1.36531 1.84098 0
M  V30 9290 C 871.068 -1.45756 0.725194 0
M  V30 9291 O 872.257 -1.47656 1.00299 0
M  V30 9292 C 869.357 -2.74701 1.98476 0
M  V30 9293 C 868.53 -2.88125 3.29094 0
M  V30 9294 C 867.589 -4.0694 3.33596 0
M  V30 9295 O 866.615 -3.9792 4.06999 0
M  V30 9296 N 867.817 -5.18687 2.60661 0
M  V30 9297 H 870.582 -1.12032 2.77973 0
M  V30 9298 H 868.143 -0.467793 1.54995 0
M  V30 9299 H 870.135 -3.52471 1.98863 0
M  V30 9300 H 868.705 -2.92043 1.11488 0
M  V30 9301 H 867.925 -1.97277 3.41285 0
M  V30 9302 H 869.213 -2.94021 4.15246 0
M  V30 9303 H 868.611 -5.28901 2.00699 0
M  V30 9304 H 867.168 -5.94705 2.66776 0
M  V30 9305 N 870.601 -1.47988 -0.541979 0
M  V30 9306 C 872.017 -1.33843 -0.869383 0
M  V30 9307 C 872.217 -0.340374 -1.98604 0
M  V30 9308 O 871.273 0.242696 -2.51331 0
M  V30 9309 C 872.586 -2.73568 -1.24823 0
M  V30 9310 C 874.134 -2.81967 -1.3588 0
M  V30 9311 C 874.609 -4.22368 -1.77114 0
M  V30 9312 N 876.1 -4.24983 -1.84237 0
M  V30 9313 C 876.835 -5.30547 -2.17503 0
M  V30 9314 N 876.331 -6.46401 -2.49275 0
M  V30 9315 N 878.124 -5.17933 -2.18406 0
M  V30 9316 H 870.275 -2.11503 0.195001 0
M  V30 9317 H 872.538 -0.947681 0.0245862 0
M  V30 9318 H 872.244 -3.48107 -0.501435 0
M  V30 9319 H 872.118 -3.06322 -2.20106 0
M  V30 9320 H 874.505 -2.07692 -2.09638 0
M  V30 9321 H 874.586 -2.52848 -0.387478 0
M  V30 9322 H 874.23 -4.97155 -1.0392 0
M  V30 9323 H 874.16 -4.48922 -2.75275 0
M  V30 9324 H 876.651 -3.41411 -1.62009 0
M  V30 9325 H 876.964 -7.22698 -2.73729 0
M  V30 9326 H 875.309 -6.49696 -2.46821 0
M  V30 9327 H 878.5 -4.26445 -1.93034 0
M  V30 9328 H 878.673 -6.00307 -2.44 0
M  V30 9329 N 872.079 0.78992 -1.36375 0
M  V30 9330 C 873.495 1.0879 -1.16777 0
M  V30 9331 C 873.695 2.01498 0.00848236 0
M  V30 9332 O 872.751 2.43338 0.674007 0
M  V30 9333 C 874.064 1.70285 -2.47837 0
M  V30 9334 C 875.612 1.82629 -2.54196 0
M  V30 9335 C 876.087 2.47539 -3.85342 0
M  V30 9336 N 877.578 2.55008 -3.86685 0
M  V30 9337 C 878.313 3.06041 -4.84898 0
M  V30 9338 N 877.809 3.57385 -5.93505 0
M  V30 9339 N 879.602 3.04748 -4.72319 0
M  V30 9340 H 871.753 0.173985 -2.11686 0
M  V30 9341 H 874.016 0.139798 -0.937636 0
M  V30 9342 H 873.722 1.09633 -3.34176 0
M  V30 9343 H 873.596 2.69799 -2.63607 0
M  V30 9344 H 875.983 2.42419 -1.68276 0
M  V30 9345 H 876.064 0.81923 -2.42327 0
M  V30 9346 H 875.708 1.88393 -4.71668 0
M  V30 9347 H 875.638 3.48815 -3.94507 0
M  V30 9348 H 878.129 2.18651 -3.08221 0
M  V30 9349 H 878.442 3.94674 -6.64419 0
M  V30 9350 H 876.787 3.55538 -5.97175 0
M  V30 9351 H 879.978 2.63925 -3.86602 0
M  V30 9352 H 880.151 3.44212 -5.49019 0
M  V30 9353 N 873.557 1.20646 1.01402 0
M  V30 9354 C 874.803 1.0197 1.753 0
M  V30 9355 C 875.136 -0.446803 1.8899 0
M  V30 9356 O 874.411 -1.33169 1.41762 0
M  V30 9357 C 874.694 1.70693 3.17074 0
M  V30 9358 C 874.547 3.24805 3.11162 0
M  V30 9359 C 875.866 1.44212 4.15802 0
M  V30 9360 H 872.985 0.371844 0.636318 0
M  V30 9361 H 875.627 1.48696 1.18277 0
M  V30 9362 H 873.777 1.30968 3.65759 0
M  V30 9363 H 875.449 3.73841 2.70261 0
M  V30 9364 H 873.692 3.55576 2.48492 0
M  V30 9365 H 874.363 3.68049 4.11393 0
M  V30 9366 H 876.839 1.7868 3.75783 0
M  V30 9367 H 875.715 1.94825 5.13161 0
M  V30 9368 H 875.976 0.370252 4.40547 0
M  V30 9369 N 875.035 -1.20752 1.01276 0
M  V30 9370 C 876.281 -1.90302 0.700924 0
M  V30 9371 C 876.614 -1.78406 -0.767142 0
M  V30 9372 O 875.889 -1.16575 -1.55694 0
M  V30 9373 C 876.172 -3.41831 1.13242 0
M  V30 9374 C 876.025 -3.6268 2.66051 0
M  V30 9375 C 877.344 -4.34486 0.700738 0
M  V30 9376 H 874.463 -0.69107 0.256107 0
M  V30 9377 H 877.105 -1.42227 1.25982 0
M  V30 9378 H 875.255 -3.82906 0.656902 0
M  V30 9379 H 876.927 -3.30882 3.21426 0
M  V30 9380 H 875.17 -3.06281 3.07204 0
M  V30 9381 H 875.841 -4.68882 2.91296 0
M  V30 9382 H 878.317 -4.01036 1.10948 0
M  V30 9383 H 877.193 -5.39136 1.03073 0
M  V30 9384 H 877.454 -4.40307 -0.39778 0
M  V30 9385 N 876.513 -0.788492 -1.36457 0
M  V30 9386 C 877.741 -0.372365 -2.03522 0
M  V30 9387 C 878.156 1.01093 -1.59454 0
M  V30 9388 O 877.513 1.64824 -0.783535 0
M  V30 9389 C 877.564 -0.425435 -3.58988 0
M  V30 9390 O 877.285 -1.75418 -4.01448 0
M  V30 9391 C 878.786 0.000180167 -4.433 0
M  V30 9392 H 876.006 -0.1536 -0.653183 0
M  V30 9393 H 878.55 -1.06708 -1.74452 0
M  V30 9394 H 876.705 0.220856 -3.8677 0
M  V30 9395 H 877.119 -1.70437 -4.96036 0
M  V30 9396 H 878.593 -0.0880919 -5.5193 0
M  V30 9397 H 879.07 1.05269 -4.26398 0
M  V30 9398 H 879.676 -0.618563 -4.20778 0
M  V30 9399 N 877.991 1.48044 -0.54043 0
M  V30 9400 C 879.239 2.02097 -0.0101367 0
M  V30 9401 C 879.56 1.41881 1.33771 0
M  V30 9402 O 878.83 0.587923 1.8687 0
M  V30 9403 H 877.41 0.747 -0.000758716 0
M  V30 9404 H 880.072 1.81639 -0.706634 0
M  V30 9405 H 879.168 3.11969 0.0904474 0
M  V30 9406 N 879.47 0.276058 1.55163 0
M  V30 9407 C 880.695 -0.346648 2.04483 0
M  V30 9408 C 881.12 -1.48613 1.15308 0
M  V30 9409 O 880.478 -1.80663 0.151875 0
M  V30 9410 C 880.526 -0.804268 3.51517 0
M  V30 9411 O 879.63 -1.91143 3.65429 0
M  V30 9412 H 878.971 -0.0715251 0.660136 0
M  V30 9413 H 881.501 0.410631 2.00437 0
M  V30 9414 H 881.511 -1.09977 3.92898 0
M  V30 9415 H 880.186 0.0294123 4.1589 0
M  V30 9416 H 878.763 -1.61839 3.3595 0
M  V30 9417 N 880.948 -1.576 0.00335426 0
M  V30 9418 C 882.194 -1.90996 -0.681799 0
M  V30 9419 C 882.527 -0.877643 -1.73237 0
M  V30 9420 O 881.802 0.103183 -1.94226 0
M  V30 9421 C 882.085 -3.34961 -1.32187 0
M  V30 9422 C 881.938 -4.48911 -0.28261 0
M  V30 9423 C 883.257 -3.78408 -2.24711 0
M  V30 9424 H 880.376 -0.694596 -0.246386 0
M  V30 9425 H 883.018 -1.89919 0.055336 0
M  V30 9426 H 881.168 -3.36008 -1.95014 0
M  V30 9427 H 882.84 -4.59999 0.346241 0
M  V30 9428 H 881.083 -4.32 0.394768 0
M  V30 9429 H 881.754 -5.46609 -0.769576 0
M  V30 9430 H 884.23 -3.78934 -1.71897 0
M  V30 9431 H 883.106 -4.79885 -2.66461 0
M  V30 9432 H 883.367 -3.12464 -3.1276 0
M  V30 9433 N 882.426 0.269451 -1.5528 0
M  V30 9434 C 883.651 1.02299 -1.80415 0
M  V30 9435 C 884.076 1.7902 -0.577363 0
M  V30 9436 O 883.434 1.75018 0.473125 0
M  V30 9437 C 883.482 1.95445 -3.0304 0
M  V30 9438 O 882.586 3.04271 -2.78375 0
M  V30 9439 H 881.927 0.292289 -0.596207 0
M  V30 9440 H 884.457 0.297282 -2.02429 0
M  V30 9441 H 884.467 2.37333 -3.31869 0
M  V30 9442 H 883.142 1.39017 -3.91978 0
M  V30 9443 H 881.719 2.66673 -2.60653 0
M  V30 9444 N 883.904 1.48273 0.534124 0
M  V30 9445 C 885.129 1.59988 1.31979 0
M  V30 9446 C 885.554 0.258824 1.86311 0
M  V30 9447 O 884.912 -0.768885 1.64188 0
M  V30 9448 C 884.96 2.64642 2.44943 0
M  V30 9449 O 884.064 2.21515 3.47858 0
M  V30 9450 H 883.405 0.536625 0.391063 0
M  V30 9451 H 885.935 1.94229 0.643135 0
M  V30 9452 H 885.945 2.85786 2.91187 0
M  V30 9453 H 884.62 3.62004 2.04758 0
M  V30 9454 H 883.197 2.10567 3.0776 0
M  V30 9455 N 885.382 -0.782676 1.36792 0
M  V30 9456 C 886.607 -1.57676 1.34733 0
M  V30 9457 C 887.032 -1.87979 -0.0675253 0
M  V30 9458 O 886.39 -1.48404 -1.04144 0
M  V30 9459 C 886.438 -2.87047 2.18257 0
M  V30 9460 O 885.542 -3.80946 1.57969 0
M  V30 9461 H 884.883 -0.478034 0.460846 0
M  V30 9462 H 887.413 -0.969578 1.80168 0
M  V30 9463 H 887.423 -3.36254 2.31079 0
M  V30 9464 H 886.098 -2.64319 3.21104 0
M  V30 9465 H 884.675 -3.39558 1.54126 0
M  V30 9466 N 886.86 -1.21182 -1.00761 0
M  V30 9467 C 888.276 -0.968607 -1.26847 0
M  V30 9468 C 888.476 0.346561 -1.98497 0
M  V30 9469 O 887.532 1.07287 -2.28573 0
M  V30 9470 C 888.845 -2.1574 -2.09467 0
M  V30 9471 C 890.393 -2.19937 -2.22703 0
M  V30 9472 C 890.868 -3.38328 -3.08704 0
M  V30 9473 N 892.359 -3.38398 -3.16293 0
M  V30 9474 C 893.094 -4.26653 -3.83086 0
M  V30 9475 N 892.59 -5.25101 -4.5193 0
M  V30 9476 N 894.383 -4.14469 -3.797 0
M  V30 9477 H 886.534 -2.05763 -0.526816 0
M  V30 9478 H 888.797 -0.90087 -0.29519 0
M  V30 9479 H 888.503 -3.11034 -1.64167 0
M  V30 9480 H 888.377 -2.14584 -3.10216 0
M  V30 9481 H 890.764 -1.25201 -2.67224 0
M  V30 9482 H 890.845 -2.25139 -1.21433 0
M  V30 9483 H 890.489 -4.33356 -2.64886 0
M  V30 9484 H 890.419 -3.30364 -4.10082 0
M  V30 9485 H 892.91 -2.67149 -2.67282 0
M  V30 9486 H 893.223 -5.8875 -5.00592 0
M  V30 9487 H 891.568 -5.29029 -4.50726 0
M  V30 9488 H 894.759 -3.3682 -3.25069 0
M  V30 9489 H 894.932 -4.83458 -4.31477 0
M  V30 9490 N 888.338 1.20213 -1.01915 0
M  V30 9491 C 889.563 1.94163 -0.729076 0
M  V30 9492 C 889.988 1.74416 0.704323 0
M  V30 9493 O 889.346 1.0401 1.48498 0
M  V30 9494 C 889.394 3.44258 -1.07324 0
M  V30 9495 O 888.498 4.11979 -0.186367 0
M  V30 9496 H 887.839 0.606506 -0.270272 0
M  V30 9497 H 890.369 1.52571 -1.3632 0
M  V30 9498 H 890.379 3.94888 -1.02603 0
M  V30 9499 H 889.054 3.57954 -2.11759 0
M  V30 9500 H 887.631 3.7176 -0.291334 0
M  V30 9501 N 889.816 0.795718 1.36037 0
M  V30 9502 C 891.041 0.38204 2.03851 0
M  V30 9503 C 891.466 -0.995553 1.59594 0
M  V30 9504 O 890.824 -1.64258 0.767401 0
M  V30 9505 C 890.872 0.461248 3.57638 0
M  V30 9506 O 889.976 -0.529448 4.08987 0
M  V30 9507 H 889.317 0.161227 0.644129 0
M  V30 9508 H 891.847 1.07858 1.73861 0
M  V30 9509 H 891.857 0.32712 4.06687 0
M  V30 9510 H 890.532 1.46613 3.89201 0
M  V30 9511 H 889.109 -0.35646 3.71192 0
M  V30 9512 N 891.294 -1.47756 0.548274 0
M  V30 9513 C 892.204 -2.33678 -0.207773 0
M  V30 9514 C 893.22 -1.47636 -0.920843 0
M  V30 9515 O 894.396 -1.80583 -0.89173 0
M  V30 9516 C 891.461 -3.24147 -1.23003 0
M  V30 9517 C 890.522 -4.26073 -0.52535 0
M  V30 9518 C 889.755 -5.12219 -1.4989 0
M  V30 9519 O 889.978 -5.0066 -2.73305 0
M  V30 9520 O 888.912 -5.93051 -1.02828 0
M  V30 9521 H 892.738 -2.99609 0.496794 0
M  V30 9522 H 890.323 -1.4617 0.308982 0
M  V30 9523 H 892.205 -3.80055 -1.82034 0
M  V30 9524 H 890.88 -2.60855 -1.91668 0
M  V30 9525 H 889.787 -3.7395 0.105927 0
M  V30 9526 H 891.12 -4.92054 0.119686 0
M  V30 9527 N 892.772 -0.284283 -1.55015 0
M  V30 9528 C 893.705 0.640779 -2.19019 0
M  V30 9529 C 894.683 1.14541 -1.15409 0
M  V30 9530 O 895.867 1.21669 -1.43975 0
M  V30 9531 C 892.994 1.87488 -2.82074 0
M  V30 9532 C 892.04 1.50494 -3.99066 0
M  V30 9533 S 892.873 0.575218 -5.32402 0
M  V30 9534 C 894.029 1.81749 -5.98931 0
M  V30 9535 H 894.262 0.0969761 -2.97142 0
M  V30 9536 H 891.795 -0.0684929 -1.54248 0
M  V30 9537 H 893.753 2.58319 -3.19032 0
M  V30 9538 H 892.414 2.38984 -2.03828 0
M  V30 9539 H 891.607 2.42349 -4.41908 0
M  V30 9540 H 891.209 0.876741 -3.63578 0
M  V30 9541 H 893.501 2.76026 -6.18721 0
M  V30 9542 H 894.444 1.43192 -6.93471 0
M  V30 9543 H 894.852 1.98661 -5.28388 0
M  V30 9544 N 894.251 1.57596 -0.0117121 0
M  V30 9545 C 895.476 1.95764 0.684938 0
M  V30 9546 C 895.901 0.887285 1.65858 0
M  V30 9547 O 895.259 -0.153508 1.80649 0
M  V30 9548 C 895.307 3.33031 1.38285 0
M  V30 9549 O 894.411 3.28163 2.49765 0
M  V30 9550 H 893.752 0.638767 0.181309 0
M  V30 9551 H 896.282 2.04486 -0.0683883 0
M  V30 9552 H 896.292 3.68866 1.74362 0
M  V30 9553 H 894.967 4.10483 0.669043 0
M  V30 9554 H 893.544 3.04021 2.15929 0
M  V30 9555 N 895.729 -0.261212 1.5542 0
M  V30 9556 C 896.954 -1.01341 1.80955 0
M  V30 9557 C 897.379 -1.78711 0.586849 0
M  V30 9558 O 896.737 -1.75266 -0.463837 0
M  V30 9559 C 896.785 -1.93835 3.04073 0
M  V30 9560 O 895.889 -3.02791 2.79985 0
M  V30 9561 H 895.23 -0.289123 0.597749 0
M  V30 9562 H 897.76 -0.286543 2.02584 0
M  V30 9563 H 897.77 -2.3557 3.33123 0
M  V30 9564 H 896.445 -1.36936 3.9271 0
M  V30 9565 H 895.022 -2.65287 2.62063 0
M  V30 9566 N 897.207 -1.48554 -0.526253 0
M  V30 9567 C 898.432 -1.60686 -1.31129 0
M  V30 9568 C 898.857 -0.268701 -1.86171 0
M  V30 9569 O 898.215 0.760167 -1.64594 0
M  V30 9570 C 898.263 -2.65938 -2.43536 0
M  V30 9571 O 897.367 -2.23356 -3.46678 0
M  V30 9572 H 896.708 -0.538691 -0.388211 0
M  V30 9573 H 899.238 -1.94567 -0.632826 0
M  V30 9574 H 899.248 -2.87327 -2.89668 0
M  V30 9575 H 897.923 -3.63085 -2.02835 0
M  V30 9576 H 896.5 -2.12196 -3.06639 0
M  V30 9577 N 898.685 0.775411 -1.37205 0
M  V30 9578 C 899.632 1.88857 -1.32671 0
M  V30 9579 C 900.602 1.64976 -0.192899 0
M  V30 9580 O 901.787 1.86944 -0.381673 0
M  V30 9581 C 898.927 3.25871 -1.13588 0
M  V30 9582 C 898.04 3.61731 -2.36167 0
M  V30 9583 C 897.175 4.87934 -2.09985 0
M  V30 9584 C 896.214 5.16514 -3.2845 0
M  V30 9585 N 895.351 6.33905 -3.01842 0
M  V30 9586 H 900.191 1.92068 -2.27846 0
M  V30 9587 H 897.728 0.939066 -1.13225 0
M  V30 9588 H 899.686 4.04903 -1.00546 0
M  V30 9589 H 898.316 3.22045 -0.220613 0
M  V30 9590 H 897.368 2.77712 -2.59962 0
M  V30 9591 H 898.68 3.78792 -3.24528 0
M  V30 9592 H 897.834 5.74863 -1.93953 0
M  V30 9593 H 896.573 4.7297 -1.18956 0
M  V30 9594 H 895.578 4.28063 -3.45025 0
M  V30 9595 H 896.803 5.33389 -4.20325 0
M  V30 9596 H 894.749 6.20306 -2.13439 0
M  V30 9597 H 894.666 6.51364 -3.83746 0
M  V30 9598 H 895.934 7.23779 -2.8942 0
M  V30 9599 N 900.163 1.21714 1.00117 0
M  V30 9600 C 901.44 0.945391 1.71236 0
M  V30 9601 C 901.82 -0.541772 2.0403 0
M  V30 9602 O 901.168 -1.50763 1.71705 0
M  V30 9603 C 901.378 1.83444 2.96899 0
M  V30 9604 C 902.726 2.08558 3.69849 0
M  V30 9605 O 903.75 1.80824 3.06889 0
M  V30 9606 O 902.609 2.55485 4.83104 0
M  V30 9607 H 899.703 0.354834 0.747009 0
M  V30 9608 H 902.249 1.32661 1.05825 0
M  V30 9609 H 901.021 2.84075 2.69105 0
M  V30 9610 H 900.644 1.45428 3.70049 0
M  V30 9611 N 901.641 -1.19671 1.02551 0
M  V30 9612 C 903.057 -1.41305 0.741963 0
M  V30 9613 C 903.257 -1.89865 -0.674807 0
M  V30 9614 O 902.313 -2.07323 -1.44129 0
M  V30 9615 C 903.626 -2.42706 1.77522 0
M  V30 9616 C 905.174 -2.56458 1.79438 0
M  V30 9617 C 905.649 -3.61111 2.81715 0
M  V30 9618 N 907.14 -3.68603 2.8051 0
M  V30 9619 C 907.875 -4.49262 3.56302 0
M  V30 9620 N 907.371 -5.33653 4.41799 0
M  V30 9621 N 909.164 -4.43879 3.44859 0
M  V30 9622 H 901.315 -0.8647 1.94002 0
M  V30 9623 H 903.578 -0.442206 0.838545 0
M  V30 9624 H 903.284 -2.14042 2.79068 0
M  V30 9625 H 903.158 -3.41831 1.59472 0
M  V30 9626 H 905.545 -2.84447 0.78573 0
M  V30 9627 H 905.626 -1.57499 2.01563 0
M  V30 9628 H 905.27 -3.33864 3.82749 0
M  V30 9629 H 905.2 -4.59713 2.56849 0
M  V30 9630 H 907.691 -3.08329 2.18498 0
M  V30 9631 H 908.004 -5.92308 4.96378 0
M  V30 9632 H 906.349 -5.33125 4.45873 0
M  V30 9633 H 909.54 -3.7699 2.77482 0
M  V30 9634 H 909.713 -5.06501 4.04179 0
M  V30 9635 N 903.119 -0.802921 -1.35613 0
M  V30 9636 C 904.53 -0.443004 -1.81368 0
M  V30 9637 C 904.881 1.03459 -1.66706 0
M  V30 9638 O 904.006 1.80372 -1.19561 0
M  V30 9639 C 904.601 -0.797324 -3.29284 0
M  V30 9640 C 903.16 -0.490055 -3.73196 0
M  V30 9641 C 902.307 -1.02487 -2.57666 0
M  V30 9642 H 905.258 -0.994888 -1.23643 0
M  V30 9643 H 905.279 -0.0934638 -3.80385 0
M  V30 9644 H 904.791 -1.87278 -3.39924 0
M  V30 9645 H 902.892 0.576818 -3.68108 0
M  V30 9646 H 903.005 -1.02012 -4.68114 0
M  V30 9647 H 901.369 -0.44738 -2.5074 0
M  V30 9648 H 902.152 -2.10636 -2.71085 0
M  V30 9649 N 904.597 1.47463 -0.556102 0
M  V30 9650 C 905.527 2.32801 0.180497 0
M  V30 9651 C 906.508 1.43721 0.909848 0
M  V30 9652 O 907.693 1.72578 0.89053 0
M  V30 9653 C 904.823 3.25478 1.21167 0
M  V30 9654 C 903.777 4.2379 0.598846 0
M  V30 9655 C 903.103 5.05783 1.73457 0
M  V30 9656 C 904.403 5.20387 -0.446659 0
M  V30 9657 H 906.097 2.94636 -0.531956 0
M  V30 9658 H 903.643 1.41683 -0.257267 0
M  V30 9659 H 905.596 3.8402 1.73513 0
M  V30 9660 H 904.32 2.61695 1.95405 0
M  V30 9661 H 902.979 3.66472 0.0966897 0
M  V30 9662 H 902.627 4.38405 2.46596 0
M  V30 9663 H 902.327 5.72343 1.33031 0
M  V30 9664 H 903.851 5.67183 2.26131 0
M  V30 9665 H 905.265 5.73299 -0.00930019 0
M  V30 9666 H 903.662 5.95143 -0.769735 0
M  V30 9667 H 904.732 4.65932 -1.34295 0
M  V30 9668 N 906.075 0.2925 1.54862 0
M  V30 9669 C 907.3 -0.32494 2.04839 0
M  V30 9670 C 907.725 -1.47381 1.16877 0
M  V30 9671 O 907.083 -1.80492 0.171028 0
M  V30 9672 C 907.131 -0.76694 3.5235 0
M  V30 9673 O 906.235 -1.87256 3.67436 0
M  V30 9674 H 905.576 -0.0645195 0.660858 0
M  V30 9675 H 908.106 0.431867 1.9999 0
M  V30 9676 H 908.116 -1.05804 3.94043 0
M  V30 9677 H 906.791 0.0735212 4.15835 0
M  V30 9678 H 905.368 -1.58266 3.37648 0
M  V30 9679 N 907.553 -1.57587 0.0200696 0
M  V30 9680 C 908.516 -2.08595 -0.949767 0
M  V30 9681 C 909.516 -0.999215 -1.25985 0
M  V30 9682 O 910.706 -1.26115 -1.2017 0
M  V30 9683 C 907.838 -2.54424 -2.26895 0
M  V30 9684 H 909.031 -2.95563 -0.508161 0
M  V30 9685 H 906.584 -1.54631 -0.227798 0
M  V30 9686 H 907.319 -1.70758 -2.75703 0
M  V30 9687 H 907.104 -3.3381 -2.05702 0
M  V30 9688 H 908.594 -2.94144 -2.96427 0
M  V30 9689 N 909.032 0.252966 -1.55557 0
M  V30 9690 C 910.448 0.60118 -1.47844 0
M  V30 9691 C 910.648 1.88612 -0.709055 0
M  V30 9692 O 909.704 2.51395 -0.235964 0
M  V30 9693 C 911.017 0.709539 -2.92209 0
M  V30 9694 C 912.565 0.802269 -3.02544 0
M  V30 9695 C 913.04 0.94224 -4.48203 0
M  V30 9696 N 914.531 1.00726 -4.52116 0
M  V30 9697 C 915.266 1.13472 -5.6206 0
M  V30 9698 N 914.762 1.22811 -6.81828 0
M  V30 9699 N 916.555 1.1674 -5.49844 0
M  V30 9700 H 908.706 -0.590635 -2.04023 0
M  V30 9701 H 910.969 -0.202986 -0.926013 0
M  V30 9702 H 910.675 -0.164505 -3.51315 0
M  V30 9703 H 910.549 1.58343 -3.42356 0
M  V30 9704 H 912.936 1.66677 -2.43522 0
M  V30 9705 H 913.017 -0.0966469 -2.55617 0
M  V30 9706 H 912.661 0.0823209 -5.07833 0
M  V30 9707 H 912.591 1.85611 -4.92805 0
M  V30 9708 H 915.082 0.946684 -3.6585 0
M  V30 9709 H 915.395 1.32426 -7.61369 0
M  V30 9710 H 913.74 1.19779 -6.84601 0
M  V30 9711 H 916.931 1.09089 -4.55211 0
M  V30 9712 H 917.104 1.26329 -6.35567 0
M  V30 9713 N 910.51 1.48831 0.518367 0
M  V30 9714 C 911.42 1.6692 1.64848 0
M  V30 9715 C 912.436 0.551711 1.65022 0
M  V30 9716 O 913.612 0.824251 1.83761 0
M  V30 9717 C 910.677 1.71559 3.01278 0
M  V30 9718 C 909.738 2.9502 3.11868 0
M  V30 9719 C 908.971 2.99428 4.4179 0
M  V30 9720 O 909.194 2.11914 5.29574 0
M  V30 9721 O 908.128 3.91719 4.5699 0
M  V30 9722 H 911.954 2.62623 1.52521 0
M  V30 9723 H 909.539 1.32368 0.692749 0
M  V30 9724 H 911.421 1.77064 3.82396 0
M  V30 9725 H 910.096 0.790316 3.13904 0
M  V30 9726 H 909.003 2.95042 2.30003 0
M  V30 9727 H 910.336 3.8697 3.04163 0
M  V30 9728 N 911.988 -0.768124 1.37614 0
M  V30 9729 C 913.404 -1.06919 1.18493 0
M  V30 9730 C 913.604 -2.01486 0.0235753 0
M  V30 9731 O 912.66 -2.4438 -0.635209 0
M  V30 9732 C 913.973 -1.66321 2.50515 0
M  V30 9733 C 915.521 -1.78562 2.57069 0
M  V30 9734 C 915.996 -2.41377 3.89231 0
M  V30 9735 N 917.487 -2.48824 3.90693 0
M  V30 9736 C 918.222 -2.98288 4.89706 0
M  V30 9737 N 917.718 -3.47897 5.99115 0
M  V30 9738 N 919.511 -2.97196 4.77107 0
M  V30 9739 H 911.662 -0.140286 2.11936 0
M  V30 9740 H 913.925 -0.124863 0.939741 0
M  V30 9741 H 913.631 -1.04303 3.35878 0
M  V30 9742 H 913.505 -2.65571 2.67866 0
M  V30 9743 H 915.892 -2.39712 1.72111 0
M  V30 9744 H 915.973 -0.780574 2.43599 0
M  V30 9745 H 915.617 -1.80866 4.74605 0
M  V30 9746 H 915.547 -3.42495 4.00006 0
M  V30 9747 H 918.038 -2.1372 3.1166 0
M  V30 9748 H 918.351 -3.84053 6.70614 0
M  V30 9749 H 916.696 -3.45993 6.02755 0
M  V30 9750 H 919.887 -2.57741 3.90752 0
M  V30 9751 H 920.06 -3.35434 5.54426 0
M  V30 9752 N 913.466 -1.22244 -0.994698 0
M  V30 9753 C 914.882 -0.982006 -1.25813 0
M  V30 9754 C 915.082 0.325488 -1.98854 0
M  V30 9755 O 914.138 1.04857 -2.29698 0
M  V30 9756 C 915.451 -2.1795 -2.07167 0
M  V30 9757 C 916.999 -2.22287 -2.20358 0
M  V30 9758 C 917.474 -3.41583 -3.05098 0
M  V30 9759 N 918.965 -3.41734 -3.12686 0
M  V30 9760 C 919.7 -4.30692 -3.78539 0
M  V30 9761 N 919.196 -5.29865 -4.46335 0
M  V30 9762 N 920.989 -4.18473 -3.75283 0
M  V30 9763 H 913.14 -2.0631 -0.504963 0
M  V30 9764 H 915.403 -0.90395 -0.285618 0
M  V30 9765 H 915.109 -3.12758 -1.60858 0
M  V30 9766 H 914.983 -2.17862 -3.07922 0
M  V30 9767 H 917.37 -1.28028 -2.65881 0
M  V30 9768 H 917.451 -2.26414 -1.19039 0
M  V30 9769 H 917.095 -4.36141 -2.60275 0
M  V30 9770 H 917.025 -3.34695 -4.06555 0
M  V30 9771 H 919.516 -2.69969 -2.64433 0
M  V30 9772 H 919.829 -5.94027 -4.9432 0
M  V30 9773 H 918.174 -5.3378 -4.45089 0
M  V30 9774 H 921.365 -3.40249 -3.21478 0
M  V30 9775 H 921.538 -4.88007 -4.26326 0
M  V30 9776 N 914.944 1.19125 -1.03184 0
M  V30 9777 C 916.36 1.40909 -0.749447 0
M  V30 9778 C 916.56 1.9022 0.664729 0
M  V30 9779 O 915.616 2.08085 1.43028 0
M  V30 9780 C 916.929 2.41761 -1.78807 0
M  V30 9781 C 918.477 2.55503 -1.80796 0
M  V30 9782 C 918.952 3.59612 -2.83626 0
M  V30 9783 N 920.443 3.6711 -2.82461 0
M  V30 9784 C 921.178 4.47366 -3.5868 0
M  V30 9785 N 920.674 5.31302 -4.44623 0
M  V30 9786 N 922.467 4.42044 -3.47208 0
M  V30 9787 H 914.618 0.854399 -1.94458 0
M  V30 9788 H 916.881 0.437753 -0.840878 0
M  V30 9789 H 916.587 2.12559 -2.80199 0
M  V30 9790 H 916.461 3.40981 -1.61283 0
M  V30 9791 H 918.848 2.84027 -0.800803 0
M  V30 9792 H 918.929 1.56427 -2.02396 0
M  V30 9793 H 918.573 3.3183 -3.84515 0
M  V30 9794 H 918.503 4.58345 -2.59283 0
M  V30 9795 H 920.994 3.07166 -2.2013 0
M  V30 9796 H 921.307 5.89667 -4.99512 0
M  V30 9797 H 919.652 5.30753 -4.48694 0
M  V30 9798 H 922.843 3.75513 -2.79477 0
M  V30 9799 H 923.016 5.0435 -4.06859 0
M  V30 9800 N 916.422 0.810101 1.35185 0
M  V30 9801 C 917.352 0.237453 2.32289 0
M  V30 9802 C 918.333 -0.639032 1.5764 0
M  V30 9803 O 919.518 -0.568575 1.8569 0
M  V30 9804 C 916.648 -0.611964 3.41866 0
M  V30 9805 C 915.602 0.166318 4.27677 0
M  V30 9806 C 914.928 -0.805024 5.28605 0
M  V30 9807 C 916.228 1.36729 5.04086 0
M  V30 9808 H 917.922 1.04874 2.80432 0
M  V30 9809 H 915.468 0.505751 1.34826 0
M  V30 9810 H 917.421 -1.02267 4.08802 0
M  V30 9811 H 916.145 -1.45617 2.92341 0
M  V30 9812 H 914.804 0.558238 3.62325 0
M  V30 9813 H 914.452 -1.64483 4.75347 0
M  V30 9814 H 914.152 -0.288577 5.86891 0
M  V30 9815 H 915.676 -1.21386 5.98413 0
M  V30 9816 H 917.09 1.03128 5.63948 0
M  V30 9817 H 915.487 1.81848 5.71884 0
M  V30 9818 H 916.557 2.15214 4.34524 0
M  V30 9819 N 917.9 -1.47166 0.563914 0
M  V30 9820 C 918.847 -2.30097 -0.180013 0
M  V30 9821 C 919.817 -1.39473 -0.902019 0
M  V30 9822 O 921.002 -1.68432 -0.896396 0
M  V30 9823 C 918.142 -3.23573 -1.19978 0
M  V30 9824 C 917.255 -4.2929 -0.483149 0
M  V30 9825 C 916.39 -5.0991 -1.48879 0
M  V30 9826 C 915.429 -6.07395 -0.757513 0
M  V30 9827 N 914.566 -6.8095 -1.71031 0
M  V30 9828 H 919.406 -2.93189 0.53329 0
M  V30 9829 H 916.943 -1.4451 0.274814 0
M  V30 9830 H 918.901 -3.76196 -1.80368 0
M  V30 9831 H 917.531 -2.6233 -1.88103 0
M  V30 9832 H 916.583 -3.79671 0.235414 0
M  V30 9833 H 917.895 -4.9872 0.0894075 0
M  V30 9834 H 917.049 -5.66717 -2.16603 0
M  V30 9835 H 915.788 -4.40397 -2.09527 0
M  V30 9836 H 914.793 -5.4976 -0.0663841 0
M  V30 9837 H 916.018 -6.78919 -0.156685 0
M  V30 9838 H 913.964 -6.14162 -2.30524 0
M  V30 9839 H 913.881 -7.46574 -1.19007 0
M  V30 9840 H 915.149 -7.42326 -2.37849 0
M  V30 9841 N 919.378 -0.300708 -1.54705 0
M  V30 9842 C 920.31 0.609179 -2.20956 0
M  V30 9843 C 921.323 1.09776 -1.20221 0
M  V30 9844 O 922.512 1.01527 -1.46815 0
M  V30 9845 C 919.612 1.84595 -2.84214 0
M  V30 9846 C 918.785 1.49991 -4.10879 0
M  V30 9847 C 917.844 2.5918 -4.57943 0
M  V30 9848 O 916.87 2.24285 -5.23149 0
M  V30 9849 N 918.072 3.89714 -4.30236 0
M  V30 9850 H 920.837 0.0420111 -2.99671 0
M  V30 9851 H 918.398 -0.122896 -1.61433 0
M  V30 9852 H 920.39 2.56988 -3.12633 0
M  V30 9853 H 918.96 2.32152 -2.09342 0
M  V30 9854 H 918.18 0.608637 -3.89473 0
M  V30 9855 H 919.468 1.24409 -4.93356 0
M  V30 9856 H 918.866 4.20874 -3.77997 0
M  V30 9857 H 917.423 4.58406 -4.63365 0
M  V30 9858 N 920.856 1.57574 -0.0284266 0
M  V30 9859 C 922.081 1.96479 0.664137 0
M  V30 9860 C 922.506 0.904826 1.64908 0
M  V30 9861 O 921.864 -0.134339 1.80802 0
M  V30 9862 C 921.912 3.34479 1.34745 0
M  V30 9863 O 921.016 3.30794 2.46271 0
M  V30 9864 H 920.357 0.640654 0.174524 0
M  V30 9865 H 922.887 2.04402 -0.0900729 0
M  V30 9866 H 922.897 3.70694 1.7044 0
M  V30 9867 H 921.572 4.1117 0.625468 0
M  V30 9868 H 920.149 3.06294 2.12693 0
M  V30 9869 N 922.334 -0.244713 1.55689 0
M  V30 9870 C 923.266 -1.32595 1.86952 0
M  V30 9871 C 924.279 -1.44185 0.755948 0
M  V30 9872 O 925.468 -1.45496 1.03408 0
M  V30 9873 C 922.568 -2.70429 2.04258 0
M  V30 9874 C 921.741 -2.8108 3.35131 0
M  V30 9875 C 920.8 -3.99773 3.42152 0
M  V30 9876 O 919.826 -3.89197 4.15348 0
M  V30 9877 N 921.028 -5.13041 2.71604 0
M  V30 9878 H 923.793 -1.06111 2.80287 0
M  V30 9879 H 921.354 -0.434811 1.55952 0
M  V30 9880 H 923.346 -3.48173 2.06295 0
M  V30 9881 H 921.916 -2.89612 1.17658 0
M  V30 9882 H 921.136 -1.89994 3.45392 0
M  V30 9883 H 922.424 -2.85147 4.21389 0
M  V30 9884 H 921.822 -5.24525 2.11872 0
M  V30 9885 H 920.379 -5.88912 2.79331 0
M  V30 9886 N 923.813 -1.49104 -0.510467 0
M  V30 9887 C 924.723 -1.67792 -1.6396 0
M  V30 9888 C 925.739 -0.560454 -1.64727 0
M  V30 9889 O 926.915 -0.833985 -1.83321 0
M  V30 9890 C 923.98 -1.73154 -3.00364 0
M  V30 9891 C 923.041 -2.9667 -3.10299 0
M  V30 9892 C 922.274 -3.01767 -4.40196 0
M  V30 9893 O 922.497 -2.1472 -5.28443 0
M  V30 9894 O 921.431 -3.94137 -4.54906 0
M  V30 9895 H 925.257 -2.63428 -1.51126 0
M  V30 9896 H 922.842 -1.32734 -0.685719 0
M  V30 9897 H 924.724 -1.79089 -3.81451 0
M  V30 9898 H 923.399 -0.806952 -3.1348 0
M  V30 9899 H 922.306 -2.96257 -2.28435 0
M  V30 9900 H 923.639 -3.88578 -3.02106 0
M  V30 9901 N 925.291 0.760815 -1.38019 0
M  V30 9902 C 926.201 1.90526 -1.36884 0
M  V30 9903 C 927.217 1.71941 -0.266908 0
M  V30 9904 O 928.393 1.94988 -0.50413 0
M  V30 9905 C 925.458 3.25799 -1.18558 0
M  V30 9906 C 924.519 3.56961 -2.3849 0
M  V30 9907 C 923.752 4.8578 -2.21029 0
M  V30 9908 O 923.975 5.57629 -1.20023 0
M  V30 9909 O 922.909 5.16254 -3.0946 0
M  V30 9910 H 926.735 1.94437 -2.33298 0
M  V30 9911 H 924.32 0.905091 -1.18863 0
M  V30 9912 H 926.202 4.0669 -1.1037 0
M  V30 9913 H 924.877 3.22716 -0.252241 0
M  V30 9914 H 923.784 2.7626 -2.52252 0
M  V30 9915 H 925.117 3.64798 -3.30429 0
M  V30 9916 N 926.769 1.22769 0.988202 0
M  V30 9917 C 927.702 0.945196 2.07705 0
M  V30 9918 C 928.68 -0.11363 1.62202 0
M  V30 9919 O 929.864 0.0189624 1.8849 0
M  V30 9920 C 926.991 0.422474 3.36055 0
M  V30 9921 C 926.037 1.4667 4.00487 0
M  V30 9922 S 926.87 3.04158 4.40736 0
M  V30 9923 C 928.026 2.53536 5.7225 0
M  V30 9924 H 928.259 1.86723 2.31348 0
M  V30 9925 H 925.792 1.05928 1.12333 0
M  V30 9926 H 927.75 0.12748 4.10302 0
M  V30 9927 H 926.411 -0.478515 3.10434 0
M  V30 9928 H 925.604 1.05093 4.92921 0
M  V30 9929 H 925.206 1.71064 3.32585 0
M  V30 9930 H 927.498 1.95069 6.4881 0
M  V30 9931 H 928.441 3.44479 6.1866 0
M  V30 9932 H 928.849 1.94658 5.29876 0
M  V30 9933 N 928.247 -1.18576 1.03814 0
M  V30 9934 C 929.472 -1.92978 0.759873 0
M  V30 9935 C 929.897 -1.75514 -0.676486 0
M  V30 9936 O 929.255 -1.06359 -1.46824 0
M  V30 9937 C 929.303 -3.42507 1.12788 0
M  V30 9938 O 928.407 -4.1163 0.251886 0
M  V30 9939 H 927.748 -0.602129 0.279886 0
M  V30 9940 H 930.278 -1.50383 1.3873 0
M  V30 9941 H 930.288 -3.93206 1.08872 0
M  V30 9942 H 928.963 -3.5454 2.17427 0
M  V30 9943 H 927.54 -3.7125 0.350441 0
M  V30 9944 N 929.725 -0.817259 -1.34754 0
M  V30 9945 C 930.95 -0.414423 -2.03217 0
M  V30 9946 C 931.375 0.970037 -1.61158 0
M  V30 9947 O 930.733 1.63016 -0.793436 0
M  V30 9948 C 930.781 -0.518087 -3.56859 0
M  V30 9949 O 929.885 0.464314 -4.09778 0
M  V30 9950 H 929.226 -0.171454 -0.641482 0
M  V30 9951 H 931.756 -1.10611 -1.72123 0
M  V30 9952 H 931.766 -0.391779 -4.06115 0
M  V30 9953 H 930.441 -1.52786 -3.86819 0
M  V30 9954 H 929.018 0.297361 -3.71712 0
M  V30 9955 N 931.203 1.46865 -0.571711 0
M  V30 9956 C 932.428 2.07323 -0.0564655 0
M  V30 9957 C 932.853 1.41938 1.23431 0
M  V30 9958 O 932.211 0.499334 1.74288 0
M  V30 9959 C 932.259 3.6044 0.107339 0
M  V30 9960 O 931.363 3.95558 1.1665 0
M  V30 9961 H 930.704 0.661475 -0.0578465 0
M  V30 9962 H 933.234 1.88669 -0.791524 0
M  V30 9963 H 933.244 4.06767 0.316987 0
M  V30 9964 H 931.919 4.07425 -0.835348 0
M  V30 9965 H 930.496 3.60957 0.936189 0
M  V30 9966 N 932.681 0.308908 1.54543 0
M  V30 9967 C 933.929 -0.297447 1.99899 0
M  V30 9968 C 934.25 -1.53799 1.19878 0
M  V30 9969 O 933.52 -1.93639 0.29678 0
M  V30 9970 H 932.1 -0.112897 0.738419 0
M  V30 9971 H 934.762 0.422067 1.90275 0
M  V30 9972 H 933.858 -0.564016 3.06961 0
M  V30 9973 N 934.159 -1.57557 0.0367827 0
M  V30 9974 C 935.57 -1.79853 -0.500971 0
M  V30 9975 C 935.921 -0.947749 -1.71791 0
M  V30 9976 O 935.046 -0.160287 -2.15806 0
M  V30 9977 C 935.641 -3.26193 -0.915626 0
M  V30 9978 C 934.2 -3.49457 -1.39845 0
M  V30 9979 C 933.347 -2.74864 -0.366784 0
M  V30 9980 H 936.298 -1.56509 0.262768 0
M  V30 9981 H 936.319 -3.36324 -1.7795 0
M  V30 9982 H 935.831 -3.88089 -0.0297227 0
M  V30 9983 H 933.932 -2.92823 -2.30402 0
M  V30 9984 H 934.045 -4.58172 -1.40054 0
M  V30 9985 H 932.409 -2.4057 -0.836554 0
M  V30 9986 H 933.192 -3.39479 0.510785 0
M  V30 9987 N 935.637 0.236453 -1.55816 0
M  V30 9988 C 936.862 0.98449 -1.82545 0
M  V30 9989 C 937.287 1.77755 -0.615206 0
M  V30 9990 O 936.645 1.75982 0.435895 0
M  V30 9991 C 936.693 1.88973 -3.07118 0
M  V30 9992 O 935.797 2.98298 -2.84766 0
M  V30 9993 H 935.138 0.279577 -0.602273 0
M  V30 9994 H 937.668 0.254277 -2.03014 0
M  V30 9995 H 937.678 2.3024 -3.36829 0
M  V30 9996 H 936.353 1.30671 -3.94839 0
M  V30 9997 H 934.93 2.61085 -2.6625 0
M  V30 9998 N 937.115 1.49373 0.502552 0
M  V30 9999 C 938.361 1.59016 1.25864 0
M  V30 10000 C 938.694 0.27532 1.92238 0
M  V30 10001 O 937.969 -0.720988 1.80643 0
M  V30 10002 C 938.252 2.74828 2.32683 0
M  V30 10003 C 938.105 4.16102 1.7082 0
M  V30 10004 C 939.424 2.86288 3.34256 0
M  V30 10005 H 936.543 0.578798 0.456248 0
M  V30 10006 H 939.185 1.81651 0.557032 0
M  V30 10007 H 937.335 2.5566 2.92524 0
M  V30 10008 H 939.007 4.46782 1.14818 0
M  V30 10009 H 937.25 4.21822 1.01238 0
M  V30 10010 H 937.921 4.93006 2.48292 0
M  V30 10011 H 940.397 3.03733 2.84404 0
M  V30 10012 H 939.273 3.69001 4.06362 0
M  V30 10013 H 939.534 1.95576 3.96488 0
M  V30 10014 N 938.594 -0.753485 1.38421 0
M  V30 10015 C 940.01 -1.05656 1.1962 0
M  V30 10016 C 940.21 -2.0145 0.0449443 0
M  V30 10017 O 939.266 -2.45039 -0.609253 0
M  V30 10018 C 940.579 -1.63655 2.52265 0
M  V30 10019 C 942.127 -1.75825 2.58949 0
M  V30 10020 C 942.602 -2.37236 3.91769 0
M  V30 10021 N 944.093 -2.44666 3.9331 0
M  V30 10022 C 944.828 -2.93077 4.92842 0
M  V30 10023 N 944.324 -3.41523 6.02772 0
M  V30 10024 N 946.117 -2.92118 4.80232 0
M  V30 10025 H 938.268 -0.117799 2.12073 0
M  V30 10026 H 940.531 -0.114889 0.941012 0
M  V30 10027 H 940.237 -1.00734 3.36965 0
M  V30 10028 H 940.111 -2.62715 2.70667 0
M  V30 10029 H 942.498 -2.37873 1.74644 0
M  V30 10030 H 942.579 -0.754693 2.44414 0
M  V30 10031 H 942.223 -1.75822 4.76497 0
M  V30 10032 H 942.153 -3.38233 4.03616 0
M  V30 10033 H 944.644 -2.10403 3.1391 0
M  V30 10034 H 944.957 -3.76919 6.74649 0
M  V30 10035 H 943.302 -3.3958 6.06391 0
M  V30 10036 H 946.493 -2.53582 3.93464 0
M  V30 10037 H 946.666 -3.29535 5.57952 0
M  V30 10038 N 940.072 -1.23292 -0.981677 0
M  V30 10039 C 941.019 -1.01296 -2.07383 0
M  V30 10040 C 941.989 0.069139 -1.65956 0
M  V30 10041 O 943.174 -0.0827108 -1.90621 0
M  V30 10042 C 940.314 -0.608876 -3.39686 0
M  V30 10043 C 939.427 -1.76296 -3.9439 0
M  V30 10044 C 938.562 -1.30578 -5.14901 0
M  V30 10045 C 937.601 -2.4307 -5.61768 0
M  V30 10046 N 936.738 -1.98319 -6.73509 0
M  V30 10047 H 941.578 -1.9478 -2.25532 0
M  V30 10048 H 939.115 -0.970356 -1.10555 0
M  V30 10049 H 941.073 -0.355702 -4.15681 0
M  V30 10050 H 939.703 0.288961 -3.21504 0
M  V30 10051 H 938.755 -2.13017 -3.15163 0
M  V30 10052 H 940.067 -2.60871 -4.25145 0
M  V30 10053 H 939.221 -1.01066 -5.98223 0
M  V30 10054 H 937.96 -0.430386 -4.85797 0
M  V30 10055 H 936.965 -2.73358 -4.77028 0
M  V30 10056 H 938.19 -3.31144 -5.92892 0
M  V30 10057 H 936.136 -1.13157 -6.46167 0
M  V30 10058 H 936.053 -2.76454 -7.0364 0
M  V30 10059 H 937.321 -1.71907 -7.60308 0
M  V30 10060 N 941.55 1.18024 -1.04442 0
M  V30 10061 C 942.513 2.19992 -0.643136 0
M  V30 10062 C 943.513 1.57949 0.301444 0
M  V30 10063 O 944.703 1.73986 0.0863341 0
M  V30 10064 C 941.835 3.40853 0.0565208 0
M  V30 10065 H 943.028 2.57008 -1.54554 0
M  V30 10066 H 940.581 1.31974 -0.837408 0
M  V30 10067 H 941.316 3.09373 0.972553 0
M  V30 10068 H 941.101 3.87128 -0.622439 0
M  V30 10069 H 942.591 4.16344 0.323652 0
M  V30 10070 N 943.028 0.824394 1.34319 0
M  V30 10071 C 944.253 0.425194 2.02995 0
M  V30 10072 C 944.678 -0.961476 1.6167 0
M  V30 10073 O 944.036 -1.62593 0.80207 0
M  V30 10074 C 944.084 0.537004 3.56579 0
M  V30 10075 O 943.188 -0.442576 4.10018 0
M  V30 10076 H 942.529 0.174853 0.640564 0
M  V30 10077 H 945.059 1.11522 1.71534 0
M  V30 10078 H 945.069 0.413311 4.05901 0
M  V30 10079 H 943.744 1.54836 3.86004 0
M  V30 10080 H 942.321 -0.277644 3.71865 0
M  V30 10081 N 944.506 -1.46559 0.579492 0
M  V30 10082 C 945.436 -2.33059 -0.143437 0
M  V30 10083 C 946.417 -1.4515 -0.886868 0
M  V30 10084 O 947.602 -1.73973 -0.862961 0
M  V30 10085 C 944.732 -3.27364 -1.15973 0
M  V30 10086 C 943.686 -4.24689 -0.531348 0
M  V30 10087 C 943.012 -5.08479 -1.65388 0
M  V30 10088 C 944.312 -5.1961 0.529391 0
M  V30 10089 H 946.006 -2.93753 0.578762 0
M  V30 10090 H 943.552 -1.41256 0.279775 0
M  V30 10091 H 945.505 -3.86732 -1.67382 0
M  V30 10092 H 944.229 -2.64771 -1.91217 0
M  V30 10093 H 942.888 -3.6658 -0.0383749 0
M  V30 10094 H 942.536 -4.42273 -2.3959 0
M  V30 10095 H 942.236 -5.74387 -1.23909 0
M  V30 10096 H 943.76 -5.70709 -2.17079 0
M  V30 10097 H 945.174 -5.73212 0.100506 0
M  V30 10098 H 943.571 -5.93843 0.86432 0
M  V30 10099 H 944.641 -4.63737 1.4169 0
M  V30 10100 N 945.984 -0.3171 -1.54377 0
M  V30 10101 C 947.209 0.292311 -2.0533 0
M  V30 10102 C 947.634 1.45503 -1.19207 0
M  V30 10103 O 946.992 1.80197 -0.199721 0
M  V30 10104 C 947.04 0.710787 -3.53525 0
M  V30 10105 O 946.144 1.81387 -3.70368 0
M  V30 10106 H 945.485 0.0539976 -0.661801 0
M  V30 10107 H 948.015 -0.463629 -1.99278 0
M  V30 10108 H 948.025 0.995216 -3.95676 0
M  V30 10109 H 946.7 -0.139668 -4.15665 0
M  V30 10110 H 945.277 1.52875 -3.40123 0
M  V30 10111 N 947.462 1.57535 -0.0451378 0
M  V30 10112 C 948.708 1.92736 0.630921 0
M  V30 10113 C 949.041 0.923265 1.70849 0
M  V30 10114 O 948.316 -0.0516512 1.94431 0
M  V30 10115 C 948.599 3.38348 1.23259 0
M  V30 10116 C 948.452 4.49503 0.16349 0
M  V30 10117 C 949.771 3.84233 2.14599 0
M  V30 10118 H 946.89 0.700884 0.227883 0
M  V30 10119 H 949.532 1.89706 -0.10567 0
M  V30 10120 H 947.682 3.41061 1.86037 0
M  V30 10121 H 949.354 4.58919 -0.46808 0
M  V30 10122 H 947.597 4.30802 -0.509166 0
M  V30 10123 H 948.268 5.48457 0.624382 0
M  V30 10124 H 950.744 3.83358 1.6179 0
M  V30 10125 H 949.62 4.86781 2.53644 0
M  V30 10126 H 949.881 3.20646 3.04366 0
M  V30 10127 N 948.94 -0.228186 1.55939 0
M  V30 10128 C 949.903 -1.26621 1.91049 0
M  V30 10129 C 950.903 -1.40141 0.788491 0
M  V30 10130 O 952.093 -1.3852 1.05631 0
M  V30 10131 C 949.225 -2.64108 2.15545 0
M  V30 10132 H 950.418 -0.966978 2.83883 0
M  V30 10133 H 947.971 -0.468313 1.49119 0
M  V30 10134 H 948.706 -2.99141 1.25241 0
M  V30 10135 H 948.491 -2.55673 2.97277 0
M  V30 10136 H 949.981 -3.39025 2.43827 0
M  V30 10137 N 950.418 -1.49637 -0.494624 0
M  V30 10138 C 951.666 -1.5913 -1.24587 0
M  V30 10139 C 951.987 -0.282828 -1.92938 0
M  V30 10140 O 951.257 0.69825 -1.83034 0
M  V30 10141 H 949.837 -0.586329 -0.462847 0
M  V30 10142 H 952.499 -1.86296 -0.572696 0
M  V30 10143 H 951.595 -2.3906 -2.00641 0
M  V30 10144 N 951.896 0.746133 -1.38819 0
M  V30 10145 C 953.307 1.32384 -1.31648 0
M  V30 10146 C 953.658 1.96185 0.0243086 0
M  V30 10147 O 952.783 1.95567 0.92641 0
M  V30 10148 C 953.378 2.40712 -2.38418 0
M  V30 10149 C 951.937 2.94185 -2.34803 0
M  V30 10150 C 951.084 1.67639 -2.20891 0
M  V30 10151 H 954.035 0.544457 -1.49068 0
M  V30 10152 H 954.056 3.20833 -2.04564 0
M  V30 10153 H 953.568 1.94247 -3.3599 0
M  V30 10154 H 951.669 3.44959 -1.40834 0
M  V30 10155 H 951.782 3.48057 -3.29231 0
M  V30 10156 H 950.146 1.9155 -1.67871 0
M  V30 10157 H 950.929 1.23242 -3.20416 0
M  V30 10158 N 953.375 1.23811 0.975125 0
M  V30 10159 C 954.623 1.07124 1.71373 0
M  V30 10160 C 954.944 -0.391864 1.91022 0
M  V30 10161 O 954.214 -1.28041 1.48265 0
M  V30 10162 H 952.794 0.393415 0.635007 0
M  V30 10163 H 955.456 1.55612 1.17349 0
M  V30 10164 H 954.552 1.56338 2.7012 0
M  V30 10165 N 954.853 -1.17469 1.05066 0
M  V30 10166 C 955.8 -2.21443 0.650512 0
M  V30 10167 C 956.77 -1.62441 -0.346702 0
M  V30 10168 O 957.955 -1.89305 -0.238404 0
M  V30 10169 C 955.095 -3.45087 0.0301014 0
M  V30 10170 C 954.208 -4.18385 1.07599 0
M  V30 10171 C 953.343 -5.29513 0.423038 0
M  V30 10172 C 952.382 -5.94596 1.45333 0
M  V30 10173 N 951.519 -6.97241 0.824623 0
M  V30 10174 H 956.359 -2.55025 1.54163 0
M  V30 10175 H 953.896 -1.25274 0.771032 0
M  V30 10176 H 955.854 -4.15754 -0.347032 0
M  V30 10177 H 954.484 -3.12093 -0.824481 0
M  V30 10178 H 953.536 -3.46446 1.57097 0
M  V30 10179 H 954.848 -4.62899 1.85813 0
M  V30 10180 H 954.002 -6.067 -0.00774975 0
M  V30 10181 H 952.741 -4.86129 -0.391092 0
M  V30 10182 H 951.746 -5.16142 1.89415 0
M  V30 10183 H 952.971 -6.40061 2.26934 0
M  V30 10184 H 950.917 -6.55993 0.0309804 0
M  V30 10185 H 950.834 -7.40059 1.54432 0
M  V30 10186 H 952.102 -7.78375 0.418567 0
M  V30 10187 N 956.331 -0.831506 -1.3388 0
M  V30 10188 C 957.742 -0.481375 -1.80388 0
M  V30 10189 C 958.093 0.998993 -1.68863 0
M  V30 10190 O 957.218 1.77795 -1.2336 0
M  V30 10191 C 957.813 -0.86699 -3.27519 0
M  V30 10192 C 956.372 -0.569105 -3.72073 0
M  V30 10193 C 955.519 -1.07929 -2.55434 0
M  V30 10194 H 958.47 -1.02089 -1.21505 0
M  V30 10195 H 958.491 -0.174128 -3.80101 0
M  V30 10196 H 958.003 -1.94447 -3.35875 0
M  V30 10197 H 956.104 0.498607 -3.69249 0
M  V30 10198 H 956.217 -1.11918 -4.65845 0
M  V30 10199 H 954.581 -0.500465 -2.49735 0
M  V30 10200 H 955.364 -2.16339 -2.66556 0
M  V30 10201 N 957.809 1.4625 -0.587256 0
M  V30 10202 C 958.741 2.28482 0.181256 0
M  V30 10203 C 959.754 1.38777 0.851163 0
M  V30 10204 O 960.943 1.63336 0.719963 0
M  V30 10205 C 958.043 3.13944 1.27643 0
M  V30 10206 C 957.216 4.31802 0.697569 0
M  V30 10207 C 956.275 4.98626 1.68102 0
M  V30 10208 O 955.301 5.56075 1.21529 0
M  V30 10209 N 956.503 4.96051 3.0152 0
M  V30 10210 H 959.268 2.95079 -0.524267 0
M  V30 10211 H 956.829 1.56213 -0.425336 0
M  V30 10212 H 958.821 3.55513 1.93371 0
M  V30 10213 H 957.391 2.49391 1.88475 0
M  V30 10214 H 956.611 3.93961 -0.137293 0
M  V30 10215 H 957.899 5.07969 0.290696 0
M  V30 10216 H 957.297 4.5063 3.41978 0
M  V30 10217 H 955.854 5.41547 3.62725 0
M  V30 10218 N 959.287 0.325282 1.54207 0
M  V30 10219 C 960.197 -0.548778 2.28091 0
M  V30 10220 C 961.213 -1.12772 1.32508 0
M  V30 10221 O 962.389 -1.14732 1.65525 0
M  V30 10222 C 959.454 -1.69284 3.02562 0
M  V30 10223 C 958.515 -1.14553 4.13734 0
M  V30 10224 C 957.748 -2.23506 4.84645 0
M  V30 10225 O 957.971 -3.43884 4.55082 0
M  V30 10226 O 956.905 -1.88828 5.71513 0
M  V30 10227 H 960.731 0.0512974 3.03657 0
M  V30 10228 H 958.316 0.0909159 1.49123 0
M  V30 10229 H 960.198 -2.35887 3.49192 0
M  V30 10230 H 958.873 -2.27906 2.2987 0
M  V30 10231 H 957.78 -0.444532 3.71449 0
M  V30 10232 H 959.113 -0.60441 4.88475 0
M  V30 10233 N 960.765 -1.57509 0.0534917 0
M  V30 10234 C 961.675 -2.15152 -0.935249 0
M  V30 10235 C 962.691 -1.10991 -1.34003 0
M  V30 10236 O 963.867 -1.43171 -1.41648 0
M  V30 10237 C 960.932 -2.68699 -2.19093 0
M  V30 10238 C 959.993 -3.87666 -1.84428 0
M  V30 10239 C 959.226 -4.3865 -3.0401 0
M  V30 10240 O 959.449 -3.887 -4.17455 0
M  V30 10241 O 958.383 -5.30209 -2.84889 0
M  V30 10242 H 962.209 -2.99962 -0.475009 0
M  V30 10243 H 959.794 -1.48446 -0.16854 0
M  V30 10244 H 961.676 -3.03098 -2.92762 0
M  V30 10245 H 960.351 -1.86958 -2.6425 0
M  V30 10246 H 959.258 -3.58151 -1.08068 0
M  V30 10247 H 960.591 -4.70643 -1.44068 0
M  V30 10248 N 962.243 0.219913 -1.56058 0
M  V30 10249 C 963.52 0.968493 -1.6994 0
M  V30 10250 C 963.9 2.02358 -0.601219 0
M  V30 10251 O 963.248 2.25121 0.391534 0
M  V30 10252 C 963.458 1.57745 -3.11316 0
M  V30 10253 C 964.806 2.06908 -3.70775 0
M  V30 10254 O 965.83 1.67636 -3.14288 0
M  V30 10255 O 964.689 2.79096 -4.69859 0
M  V30 10256 H 961.783 0.452521 -0.692209 0
M  V30 10257 H 964.329 0.211566 -1.68376 0
M  V30 10258 H 963.101 0.815687 -3.82704 0
M  V30 10259 H 962.724 2.39987 -3.17005 0
M  V30 10260 N 963.721 1.49897 0.486681 0
M  V30 10261 C 964.653 1.63755 1.60365 0
M  V30 10262 C 965.666 0.519614 1.54285 0
M  V30 10263 O 966.855 0.792219 1.59957 0
M  V30 10264 C 963.955 1.59153 2.99205 0
M  V30 10265 C 963.128 2.8672 3.30319 0
M  V30 10266 C 962.187 2.74974 4.48638 0
M  V30 10267 O 961.213 3.48922 4.49714 0
M  V30 10268 N 962.415 1.87479 5.49392 0
M  V30 10269 H 965.18 2.60094 1.48899 0
M  V30 10270 H 962.741 1.47166 0.674825 0
M  V30 10271 H 964.733 1.4893 3.76301 0
M  V30 10272 H 963.303 0.706133 3.0452 0
M  V30 10273 H 962.523 3.11188 2.41983 0
M  V30 10274 H 963.811 3.71262 3.47911 0
M  V30 10275 H 963.209 1.26684 5.51333 0
M  V30 10276 H 961.766 1.83169 6.25534 0
M  V30 10277 N 965.199 -0.738761 1.39212 0
M  V30 10278 C 966.61 -1.31684 1.32348 0
M  V30 10279 C 966.961 -1.96195 -0.0139041 0
M  V30 10280 O 966.086 -1.96056 -0.916025 0
M  V30 10281 C 966.681 -2.39444 2.39691 0
M  V30 10282 C 965.24 -2.92935 2.36359 0
M  V30 10283 C 964.387 -1.66465 2.21776 0
M  V30 10284 H 967.338 -0.536543 1.49355 0
M  V30 10285 H 967.359 -3.19744 2.06262 0
M  V30 10286 H 966.871 -1.92463 3.37016 0
M  V30 10287 H 964.972 -3.44207 1.42662 0
M  V30 10288 H 965.085 -3.46306 3.31073 0
M  V30 10289 H 963.449 -1.90657 1.68884 0
M  V30 10290 H 964.232 -1.21541 3.21065 0
M  V30 10291 N 966.677 -1.24326 -0.968545 0
M  V30 10292 C 967.607 -1.05951 -2.08079 0
M  V30 10293 C 968.588 0.0272666 -1.70078 0
M  V30 10294 O 969.773 -0.139644 -1.93697 0
M  V30 10295 C 966.903 -0.662623 -3.4092 0
M  V30 10296 C 965.857 -1.69807 -3.92873 0
M  V30 10297 C 965.183 -1.15628 -5.22048 0
M  V30 10298 C 966.483 -3.09383 -4.20808 0
M  V30 10299 H 968.177 -1.98984 -2.23709 0
M  V30 10300 H 965.723 -0.958112 -1.075 0
M  V30 10301 H 967.676 -0.521071 -4.18166 0
M  V30 10302 H 966.4 0.303399 -3.25188 0
M  V30 10303 H 965.059 -1.82783 -3.17783 0
M  V30 10304 H 964.707 -0.180888 -5.02675 0
M  V30 10305 H 964.407 -1.84822 -5.57776 0
M  V30 10306 H 965.931 -1.02683 -6.01904 0
M  V30 10307 H 967.345 -2.99642 -4.88761 0
M  V30 10308 H 965.742 -3.75923 -4.67763 0
M  V30 10309 H 966.812 -3.57486 -3.27616 0
M  V30 10310 N 968.156 1.1691 -1.05688 0
M  V30 10311 C 969.567 1.68915 -0.795273 0
M  V30 10312 C 969.918 1.83968 0.681925 0
M  V30 10313 O 969.043 1.53083 1.52953 0
M  V30 10314 C 969.638 3.06814 -1.43703 0
M  V30 10315 C 968.197 3.55965 -1.22335 0
M  V30 10316 C 967.344 2.32099 -1.51741 0
M  V30 10317 H 970.295 1.01357 -1.22116 0
M  V30 10318 H 970.316 3.70907 -0.849016 0
M  V30 10319 H 969.828 2.95826 -2.51214 0
M  V30 10320 H 967.929 3.72222 -0.16771 0
M  V30 10321 H 968.042 4.38427 -1.9318 0
M  V30 10322 H 966.406 2.36811 -0.937696 0
M  V30 10323 H 967.189 2.23715 -2.60397 0
M  V30 10324 N 969.634 0.838594 1.33437 0
M  V30 10325 C 970.597 0.276843 2.27522 0
M  V30 10326 C 971.597 -0.554275 1.50945 0
M  V30 10327 O 972.787 -0.368107 1.70266 0
M  V30 10328 C 969.919 -0.610036 3.35397 0
M  V30 10329 H 971.112 1.10705 2.78719 0
M  V30 10330 H 968.665 0.611657 1.43835 0
M  V30 10331 H 969.4 -1.46269 2.89441 0
M  V30 10332 H 969.185 -0.0153615 3.92097 0
M  V30 10333 H 970.675 -0.996368 4.05539 0
M  V30 10334 N 971.112 -1.45937 0.595003 0
M  V30 10335 C 972.528 -1.57507 0.257641 0
M  V30 10336 C 972.728 -1.58829 -1.23998 0
M  V30 10337 O 971.784 -1.51183 -2.02237 0
M  V30 10338 C 973.097 -2.86354 0.917708 0
M  V30 10339 C 974.645 -3.00007 0.892446 0
M  V30 10340 C 975.12 -4.31607 1.53229 0
M  V30 10341 N 976.611 -4.38336 1.49719 0
M  V30 10342 C 977.346 -5.38805 1.96154 0
M  V30 10343 N 976.842 -6.45882 2.50617 0
M  V30 10344 N 978.635 -5.30084 1.86997 0
M  V30 10345 H 970.786 -1.43322 1.56756 0
M  V30 10346 H 973.049 -0.684436 0.655936 0
M  V30 10347 H 972.755 -2.91233 1.97171 0
M  V30 10348 H 972.629 -3.74703 0.433344 0
M  V30 10349 H 975.016 -2.94703 -0.152975 0
M  V30 10350 H 975.097 -2.13103 1.41495 0
M  V30 10351 H 974.741 -4.3767 2.57697 0
M  V30 10352 H 974.671 -5.17308 0.984903 0
M  V30 10353 H 977.162 -3.6156 1.09921 0
M  V30 10354 H 977.475 -7.18774 2.83874 0
M  V30 10355 H 975.82 -6.46668 2.54649 0
M  V30 10356 H 979.011 -4.45337 1.44196 0
M  V30 10357 H 979.184 -6.08237 2.23499 0
M  V30 10358 N 972.59 -0.333456 -1.54032 0
M  V30 10359 C 974.006 0.0188405 -1.59589 0
M  V30 10360 C 974.206 1.49615 -1.34972 0
M  V30 10361 O 973.262 2.2535 -1.13901 0
M  V30 10362 C 974.575 -0.408273 -2.97915 0
M  V30 10363 C 976.123 -0.359763 -3.10926 0
M  V30 10364 C 976.598 -0.76219 -4.51613 0
M  V30 10365 N 978.089 -0.715981 -4.57633 0
M  V30 10366 C 978.824 -0.999436 -5.64623 0
M  V30 10367 N 978.32 -1.35053 -6.79509 0
M  V30 10368 N 980.113 -0.924343 -5.54448 0
M  V30 10369 H 972.264 -1.29587 -1.68289 0
M  V30 10370 H 974.527 -0.527584 -0.787629 0
M  V30 10371 H 974.233 -1.43793 -3.20962 0
M  V30 10372 H 974.107 0.221685 -3.76548 0
M  V30 10373 H 976.494 0.660703 -2.87609 0
M  V30 10374 H 976.575 -1.02479 -2.34375 0
M  V30 10375 H 976.219 -1.78062 -4.75664 0
M  V30 10376 H 976.149 -0.0747478 -5.26547 0
M  V30 10377 H 978.64 -0.456875 -3.75128 0
M  V30 10378 H 978.953 -1.55194 -7.57057 0
M  V30 10379 H 977.298 -1.38889 -6.80981 0
M  V30 10380 H 980.489 -0.649469 -4.63573 0
M  V30 10381 H 980.662 -1.1486 -6.37739 0
M  V30 10382 N 974.068 1.57479 -0.061844 0
M  V30 10383 C 974.998 2.15181 0.9066 0
M  V30 10384 C 975.979 1.07624 1.31724 0
M  V30 10385 O 977.164 1.35614 1.39006 0
M  V30 10386 C 974.294 2.70542 2.17771 0
M  V30 10387 C 973.248 3.83178 1.9068 0
M  V30 10388 C 972.574 4.25099 3.24337 0
M  V30 10389 C 973.874 5.07853 1.21994 0
M  V30 10390 H 975.568 2.96355 0.42594 0
M  V30 10391 H 973.114 1.42556 0.203435 0
M  V30 10392 H 975.067 3.09552 2.85929 0
M  V30 10393 H 973.791 1.86575 2.68062 0
M  V30 10394 H 972.45 3.44656 1.24931 0
M  V30 10395 H 972.098 3.38069 3.72449 0
M  V30 10396 H 971.798 5.01021 3.07005 0
M  V30 10397 H 973.322 4.66718 3.93709 0
M  V30 10398 H 974.736 5.44242 1.80204 0
M  V30 10399 H 973.133 5.88987 1.14954 0
M  V30 10400 H 974.203 4.84497 0.197536 0
M  V30 10401 N 975.546 -0.211634 1.56173 0
M  V30 10402 C 976.771 -0.955324 1.84088 0
M  V30 10403 C 977.196 -1.76754 0.643407 0
M  V30 10404 O 976.554 -1.76653 -0.407842 0
M  V30 10405 C 976.602 -1.84063 3.10085 0
M  V30 10406 O 975.706 -2.9373 2.89476 0
M  V30 10407 H 975.047 -0.26996 0.606645 0
M  V30 10408 H 977.577 -0.221947 2.03393 0
M  V30 10409 H 977.587 -2.24852 3.40449 0
M  V30 10410 H 976.262 -1.24373 3.96868 0
M  V30 10411 H 974.839 -2.56816 2.7037 0
M  V30 10412 N 977.024 -1.50153 -0.478725 0
M  V30 10413 C 978.249 -1.64776 -1.2595 0
M  V30 10414 C 978.674 -0.327794 -1.85222 0
M  V30 10415 O 978.032 0.707418 -1.66929 0
M  V30 10416 C 978.08 -2.73551 -2.34952 0
M  V30 10417 O 977.184 -2.34273 -3.39397 0
M  V30 10418 H 976.525 -0.550769 -0.370877 0
M  V30 10419 H 979.055 -1.96482 -0.570605 0
M  V30 10420 H 979.065 -2.96397 -2.8038 0
M  V30 10421 H 977.74 -3.69354 -1.91181 0
M  V30 10422 H 976.317 -2.21844 -2.99733 0
M  V30 10423 N 978.502 0.731368 -1.39602 0
M  V30 10424 C 979.779 1.48308 -1.27531 0
M  V30 10425 C 980.159 2.10795 0.113482 0
M  V30 10426 O 979.507 1.98886 1.12501 0
M  V30 10427 C 979.717 2.53156 -2.40235 0
M  V30 10428 C 981.065 3.19436 -2.79725 0
M  V30 10429 O 982.089 2.6347 -2.39712 0
M  V30 10430 O 980.948 4.20714 -3.48801 0
M  V30 10431 H 978.042 0.658753 -0.499973 0
M  V30 10432 H 980.588 0.764884 -1.51485 0
M  V30 10433 H 979.36 2.05387 -3.33064 0
M  V30 10434 H 978.983 3.3253 -2.17966 0
M  V30 10435 N 979.98 1.24838 0.961938 0
M  V30 10436 C 981.22 1.10348 1.72054 0
M  V30 10437 C 981.584 -0.350775 1.88769 0
M  V30 10438 O 982.785 -0.617323 2.61615 0
M  V30 10439 C 981.056 1.82916 3.07045 0
M  V30 10440 S 982.615 1.84227 3.98253 0
M  V30 10441 H 979.433 0.394552 0.591481 0
M  V30 10442 H 982.035 1.58254 1.14786 0
M  V30 10443 H 980.739 2.87829 2.92545 0
M  V30 10444 H 980.27 1.35366 3.69377 0
M  V30 10445 H 982.285 0.914073 4.87708 0
M  V30 10446 N 981.458 -1.16348 1.06306 0
M  V30 10447 C 982.683 -1.91323 0.800636 0
M  V30 10448 C 983.108 -1.7691 -0.639105 0
M  V30 10449 O 982.466 -1.0945 -1.44535 0
M  V30 10450 C 982.514 -3.40038 1.20027 0
M  V30 10451 O 981.618 -4.11003 0.339142 0
M  V30 10452 H 980.959 -0.596057 0.292595 0
M  V30 10453 H 983.489 -1.47406 1.41889 0
M  V30 10454 H 983.499 -3.90808 1.17188 0
M  V30 10455 H 982.174 -3.49848 2.24898 0
M  V30 10456 H 980.751 -3.70423 0.42911 0
M  V30 10457 N 982.937 -0.845659 -1.3299 0
M  V30 10458 C 984.183 -0.445311 -1.9785 0
M  V30 10459 C 984.516 0.994476 -1.66805 0
M  V30 10460 O 983.791 1.69636 -0.95151 0
M  V30 10461 C 984.074 -0.674371 -3.53729 0
M  V30 10462 C 983.927 -2.16192 -3.94437 0
M  V30 10463 C 985.246 -0.124908 -4.39923 0
M  V30 10464 H 982.365 -0.163269 -0.718688 0
M  V30 10465 H 985.007 -1.06242 -1.5752 0
M  V30 10466 H 983.157 -0.149091 -3.88214 0
M  V30 10467 H 984.829 -2.75259 -3.70176 0
M  V30 10468 H 983.072 -2.64386 -3.43922 0
M  V30 10469 H 983.743 -2.27292 -5.03033 0
M  V30 10470 H 986.219 -0.573986 -4.12122 0
M  V30 10471 H 985.095 -0.314816 -5.47996 0
M  V30 10472 H 985.356 0.971758 -4.31288 0
M  V30 10473 N 984.415 1.45619 -0.602734 0
M  V30 10474 C 985.643 2.06647 -0.102253 0
M  V30 10475 C 986.058 1.4482 1.21131 0
M  V30 10476 O 985.415 0.560621 1.73676 0
M  V30 10477 C 985.466 3.61467 0.0490113 0
M  V30 10478 O 985.187 4.20985 -1.21257 0
M  V30 10479 C 986.688 4.39469 0.581517 0
M  V30 10480 H 983.908 0.667685 -0.0666155 0
M  V30 10481 H 986.452 1.86939 -0.829091 0
M  V30 10482 H 984.607 3.80534 0.726153 0
M  V30 10483 H 985.021 5.14103 -1.03915 0
M  V30 10484 H 986.495 5.48318 0.636462 0
M  V30 10485 H 986.972 4.0891 1.60277 0
M  V30 10486 H 987.578 4.25256 -0.061419 0
M  V30 10487 N 985.893 0.34162 1.53853 0
M  V30 10488 C 986.825 -0.550383 2.22494 0
M  V30 10489 C 987.838 -1.0655 1.23089 0
M  V30 10490 O 989.027 -0.975985 1.49455 0
M  V30 10491 C 986.127 -1.76995 2.89009 0
M  V30 10492 C 985.3 -1.39045 4.14711 0
M  V30 10493 C 984.359 -2.46947 4.64654 0
M  V30 10494 O 983.385 -2.10336 5.28912 0
M  V30 10495 N 984.587 -3.7817 4.40418 0
M  V30 10496 H 987.352 0.037456 2.99677 0
M  V30 10497 H 984.913 0.165654 1.6105 0
M  V30 10498 H 986.905 -2.48608 3.19337 0
M  V30 10499 H 985.475 -2.2652 2.15424 0
M  V30 10500 H 984.695 -0.505161 3.9095 0
M  V30 10501 H 985.983 -1.11284 4.96481 0
M  V30 10502 H 985.381 -4.10704 3.89023 0
M  V30 10503 H 983.938 -4.45959 4.75356 0
M  V30 10504 N 987.371 -1.57444 0.0701946 0
M  V30 10505 C 988.281 -2.16132 -0.912377 0
M  V30 10506 C 989.297 -1.12406 -1.32819 0
M  V30 10507 O 990.473 -1.44665 -1.40121 0
M  V30 10508 C 987.538 -2.71008 -2.16231 0
M  V30 10509 C 986.599 -3.896 -1.80306 0
M  V30 10510 C 985.832 -4.4185 -2.9934 0
M  V30 10511 O 986.055 -3.93106 -4.13309 0
M  V30 10512 O 984.989 -5.33201 -2.7925 0
M  V30 10513 H 988.815 -3.00449 -0.443167 0
M  V30 10514 H 986.4 -1.48617 -0.152786 0
M  V30 10515 H 988.282 -3.06186 -2.8953 0
M  V30 10516 H 986.957 -1.8975 -2.62253 0
M  V30 10517 H 985.864 -3.59277 -1.04264 0
M  V30 10518 H 987.197 -4.72145 -1.39068 0
M  V30 10519 N 988.849 0.203349 -1.56283 0
M  V30 10520 C 990.265 0.55384 -1.49682 0
M  V30 10521 C 990.465 1.86261 -0.768701 0
M  V30 10522 O 989.521 2.50517 -0.315824 0
M  V30 10523 C 990.834 0.616216 -2.94318 0
M  V30 10524 C 992.382 0.705611 -3.04943 0
M  V30 10525 C 992.857 0.79917 -4.50974 0
M  V30 10526 N 994.348 0.862916 -4.55091 0
M  V30 10527 C 995.083 0.955334 -5.65386 0
M  V30 10528 N 994.579 1.01057 -6.8539 0
M  V30 10529 N 996.372 0.991884 -5.53279 0
M  V30 10530 H 988.523 -0.655244 -2.0204 0
M  V30 10531 H 990.786 -0.232344 -0.919087 0
M  V30 10532 H 990.492 -0.27619 -3.50614 0
M  V30 10533 H 990.366 1.47371 -3.4722 0
M  V30 10534 H 992.753 1.58845 -2.48701 0
M  V30 10535 H 992.834 -0.177921 -2.5518 0
M  V30 10536 H 992.478 -0.0792841 -5.07838 0
M  V30 10537 H 992.408 1.69838 -4.9846 0
M  V30 10538 H 994.899 0.829812 -3.68677 0
M  V30 10539 H 995.212 1.08137 -7.65197 0
M  V30 10540 H 993.557 0.979384 -6.88065 0
M  V30 10541 H 996.748 0.945514 -4.58451 0
M  V30 10542 H 996.921 1.06045 -6.39264 0
M  V30 10543 N 990.327 1.50405 0.470755 0
M  V30 10544 C 991.274 1.69293 1.56871 0
M  V30 10545 C 992.244 0.534248 1.57274 0
M  V30 10546 O 993.429 0.764855 1.74799 0
M  V30 10547 C 990.569 1.79338 2.94842 0
M  V30 10548 C 989.682 3.06709 3.04226 0
M  V30 10549 C 988.817 3.07548 4.33114 0
M  V30 10550 C 987.856 4.29372 4.36241 0
M  V30 10551 N 986.993 4.27949 5.56601 0
M  V30 10552 H 991.833 2.63029 1.40071 0
M  V30 10553 H 989.37 1.30386 0.681016 0
M  V30 10554 H 991.328 1.83143 3.74853 0
M  V30 10555 H 989.958 0.890411 3.10277 0
M  V30 10556 H 989.01 3.12374 2.17086 0
M  V30 10557 H 990.322 3.96684 3.02396 0
M  V30 10558 H 989.476 3.10084 5.21472 0
M  V30 10559 H 988.215 2.15404 4.37553 0
M  V30 10560 H 987.22 4.27048 3.4628 0
M  V30 10561 H 988.445 5.22743 4.33493 0
M  V30 10562 H 986.391 3.38658 5.61824 0
M  V30 10563 H 986.308 5.11692 5.56513 0
M  V30 10564 H 987.576 4.34631 6.47083 0
M  V30 10565 N 991.805 -0.723954 1.39988 0
M  V30 10566 C 992.737 -1.84859 1.35498 0
M  V30 10567 C 993.75 -1.60681 0.261812 0
M  V30 10568 O 994.939 -1.7071 0.521566 0
M  V30 10569 C 992.039 -3.21103 1.08381 0
M  V30 10570 C 991.212 -3.72546 2.2919 0
M  V30 10571 C 990.271 -4.8738 1.9836 0
M  V30 10572 O 989.297 -5.00467 2.71149 0
M  V30 10573 N 990.499 -5.72566 0.956461 0
M  V30 10574 H 993.264 -1.89212 2.3242 0
M  V30 10575 H 990.825 -0.905152 1.34233 0
M  V30 10576 H 992.817 -3.9551 0.857564 0
M  V30 10577 H 991.387 -3.1195 0.201549 0
M  V30 10578 H 990.607 -2.89365 2.67697 0
M  V30 10579 H 991.895 -4.03652 3.09746 0
M  V30 10580 H 991.293 -5.64595 0.353444 0
M  V30 10581 H 989.85 -6.46993 0.790118 0
M  V30 10582 N 993.283 -1.25346 -0.955304 0
M  V30 10583 C 994.532 -1.0945 -1.69421 0
M  V30 10584 C 994.845 0.364459 -1.92175 0
M  V30 10585 O 996.051 0.643843 -2.63755 0
M  V30 10586 C 994.507 -1.91045 -3.05008 0
M  V30 10587 C 994.115 -3.41428 -2.90053 0
M  V30 10588 C 995.859 -1.83716 -3.82686 0
M  V30 10589 C 993.766 -4.1532 -4.21026 0
M  V30 10590 H 992.696 -0.405978 -0.635372 0
M  V30 10591 H 995.347 -1.49536 -1.06354 0
M  V30 10592 H 993.729 -1.43781 -3.68975 0
M  V30 10593 H 994.903 -3.9636 -2.35022 0
M  V30 10594 H 993.218 -3.49842 -2.25831 0
M  V30 10595 H 995.815 -2.36217 -4.79693 0
M  V30 10596 H 996.158 -0.804919 -4.08444 0
M  V30 10597 H 996.691 -2.28726 -3.25468 0
M  V30 10598 H 993.43 -5.18955 -4.00457 0
M  V30 10599 H 992.95 -3.65172 -4.75825 0
M  V30 10600 H 994.629 -4.22999 -4.89572 0
M  V30 10601 N 994.761 1.15782 -1.06922 0
M  V30 10602 C 995.711 2.18373 -0.655537 0
M  V30 10603 C 996.695 1.57745 0.317084 0
M  V30 10604 O 997.887 1.76511 0.131509 0
M  V30 10605 C 995.016 3.43263 -0.0502314 0
M  V30 10606 C 994.102 4.10954 -1.04773 0
M  V30 10607 N 994.493 4.542 -2.22567 0
M  V30 10608 C 992.791 4.3723 -0.880087 0
M  V30 10609 C 993.492 5.06641 -2.85815 0
M  V30 10610 N 992.468 4.99917 -2.13505 0
M  V30 10611 H 996.27 2.49533 -1.55276 0
M  V30 10612 H 993.784 1.32303 -0.941793 0
M  V30 10613 H 995.781 4.16063 0.264003 0
M  V30 10614 H 994.441 3.13588 0.842167 0
M  V30 10615 H 995.452 4.47727 -2.60309 0
M  V30 10616 H 992.129 4.17481 -0.0402148 0
M  V30 10617 H 993.519 5.50092 -3.85808 0
M  V30 10618 N 996.239 0.8527 1.3254 0
M  V30 10619 C 997.479 0.461385 1.99125 0
M  V30 10620 C 997.843 -0.964507 1.66016 0
M  V30 10621 O 999.044 -1.46027 2.25676 0
M  V30 10622 C 997.315 0.69143 3.50648 0
M  V30 10623 S 998.874 0.397397 4.36997 0
M  V30 10624 H 995.692 0.172933 0.689649 0
M  V30 10625 H 998.294 1.10499 1.61277 0
M  V30 10626 H 996.998 1.72831 3.72233 0
M  V30 10627 H 996.529 0.0341812 3.93385 0
M  V30 10628 H 998.544 -0.777363 4.90073 0
M  V30 10629 N 997.718 -1.45297 0.610449 0
M  V30 10630 C 998.648 -2.33311 -0.0939698 0
M  V30 10631 C 999.629 -1.46999 -0.85588 0
M  V30 10632 O 1000.81 -1.75764 -0.825865 0
M  V30 10633 C 997.944 -3.29751 -1.09003 0
M  V30 10634 C 996.898 -4.2572 -0.441146 0
M  V30 10635 C 996.224 -5.11873 -1.54566 0
M  V30 10636 C 997.524 -5.1837 0.639489 0
M  V30 10637 H 999.218 -2.92459 0.640941 0
M  V30 10638 H 996.764 -1.40631 0.309675 0
M  V30 10639 H 998.717 -3.90195 -1.59141 0
M  V30 10640 H 997.441 -2.68768 -1.85557 0
M  V30 10641 H 996.1 -3.66579 0.0393908 0
M  V30 10642 H 995.748 -4.47256 -2.30155 0
M  V30 10643 H 995.448 -5.76886 -1.11698 0
M  V30 10644 H 996.972 -5.75185 -2.04925 0
M  V30 10645 H 998.386 -5.7287 0.22207 0
M  V30 10646 H 996.783 -5.91876 0.990089 0
M  V30 10647 H 997.853 -4.60627 1.51495 0
M  V30 10648 N 999.196 -0.349774 -1.5367 0
M  V30 10649 C 1000.42 0.248692 -2.05904 0
M  V30 10650 C 1000.85 1.42942 -1.22267 0
M  V30 10651 O 1000.2 1.79732 -0.237899 0
M  V30 10652 C 1000.25 0.635639 -3.54953 0
M  V30 10653 O 999.356 1.7349 -3.74132 0
M  V30 10654 H 998.697 0.0399477 -0.662797 0
M  V30 10655 H 1001.23 -0.505795 -1.9825 0
M  V30 10656 H 1001.24 0.911064 -3.97698 0
M  V30 10657 H 999.912 -0.227805 -4.15276 0
M  V30 10658 H 998.489 1.45626 -3.43289 0
M  V30 10659 N 1000.67 1.57404 -0.0785433 0
M  V30 10660 C 1001.58 2.16612 0.900902 0
M  V30 10661 C 1002.6 1.13109 1.32221 0
M  V30 10662 O 1003.78 1.45406 1.39352 0
M  V30 10663 C 1000.84 2.7215 2.14791 0
M  V30 10664 C 999.902 3.90551 1.78237 0
M  V30 10665 C 999.135 4.43431 2.96993 0
M  V30 10666 O 999.358 3.95292 4.11218 0
M  V30 10667 O 998.292 5.34674 2.76418 0
M  V30 10668 H 1002.12 3.0068 0.427227 0
M  V30 10669 H 999.703 1.48696 0.144902 0
M  V30 10670 H 1001.58 3.07718 2.87902 0
M  V30 10671 H 1000.26 1.91139 2.61243 0
M  V30 10672 H 999.167 3.59825 1.02357 0
M  V30 10673 H 1000.5 4.72876 1.36562 0
M  V30 10674 N 1002.15 -0.195058 1.56388 0
M  V30 10675 C 1003.43 -0.941335 1.71459 0
M  V30 10676 C 1003.81 -2.01375 0.633336 0
M  V30 10677 O 1003.16 -2.25715 -0.35567 0
M  V30 10678 C 1003.37 -1.52772 3.13786 0
M  V30 10679 C 1004.71 -2.00983 3.7402 0
M  V30 10680 O 1005.74 -1.62614 3.16915 0
M  V30 10681 O 1004.6 -2.71586 4.7424 0
M  V30 10682 H 1001.69 -0.441451 0.699321 0
M  V30 10683 H 1004.24 -0.184752 1.68691 0
M  V30 10684 H 1003.01 -0.754699 3.83953 0
M  V30 10685 H 1002.63 -2.34914 3.20782 0
M  V30 10686 N 1003.63 -1.50653 -0.462772 0
M  V30 10687 C 1004.54 -1.72923 -1.58539 0
M  V30 10688 C 1005.56 -0.612577 -1.6286 0
M  V30 10689 O 1006.73 -0.891885 -1.80575 0
M  V30 10690 C 1003.8 -1.82623 -2.94703 0
M  V30 10691 C 1002.86 -3.06392 -3.00704 0
M  V30 10692 C 1002.09 -3.15618 -4.30373 0
M  V30 10693 O 1002.31 -2.31423 -5.21344 0
M  V30 10694 O 1001.25 -4.0841 -4.42136 0
M  V30 10695 H 1005.07 -2.68103 -1.42669 0
M  V30 10696 H 1002.66 -1.34848 -0.643144 0
M  V30 10697 H 1004.54 -1.91134 -3.7556 0
M  V30 10698 H 1003.22 -0.906275 -3.10754 0
M  V30 10699 H 1002.12 -3.03375 -2.18894 0
M  V30 10700 H 1003.46 -3.97992 -2.89591 0
M  V30 10701 N 1005.11 0.71652 -1.4037 0
M  V30 10702 C 1006.04 1.84345 -1.43315 0
M  V30 10703 C 1007.02 1.67537 -0.294186 0
M  V30 10704 O 1008.2 1.87582 -0.502671 0
M  V30 10705 C 1005.33 3.2229 -1.29408 0
M  V30 10706 C 1004.29 3.53769 -2.40897 0
M  V30 10707 C 1003.61 4.90847 -2.12068 0
M  V30 10708 C 1004.91 3.54862 -3.83237 0
M  V30 10709 H 1006.61 1.82138 -2.37626 0
M  V30 10710 H 1004.15 0.874873 -1.14376 0
M  V30 10711 H 1006.11 4.00819 -1.30085 0
M  V30 10712 H 1004.83 3.2507 -0.31573 0
M  V30 10713 H 1003.49 2.77579 -2.39469 0
M  V30 10714 H 1003.14 4.90229 -1.12626 0
M  V30 10715 H 1002.84 5.12875 -2.86762 0
M  V30 10716 H 1004.36 5.71711 -2.14426 0
M  V30 10717 H 1005.78 4.23432 -3.86494 0
M  V30 10718 H 1004.17 3.88416 -4.57442 0
M  V30 10719 H 1005.24 2.54266 -4.12888 0
M  V30 10720 N 1006.59 1.25851 0.948643 0
M  V30 10721 C 1007.81 1.13813 1.73382 0
M  V30 10722 C 1008.24 -0.303615 1.85633 0
M  V30 10723 O 1007.59 -1.21997 1.34114 0
M  V30 10724 C 1007.64 1.80388 3.12238 0
M  V30 10725 O 1006.75 1.08759 3.978 0
M  V30 10726 H 1006.09 0.397006 0.532243 0
M  V30 10727 H 1008.62 1.66529 1.18866 0
M  V30 10728 H 1008.63 1.86913 3.62667 0
M  V30 10729 H 1007.3 2.85278 3.02637 0
M  V30 10730 H 1005.88 1.10157 3.56258 0
M  V30 10731 N 1008.06 -1.15214 1.07534 0
M  V30 10732 C 1009.29 -1.90463 0.820883 0
M  V30 10733 C 1009.71 -1.77578 -0.620305 0
M  V30 10734 O 1009.07 -1.10976 -1.43366 0
M  V30 10735 C 1009.12 -3.38746 1.23627 0
M  V30 10736 O 1008.22 -4.1062 0.382715 0
M  V30 10737 H 1007.57 -0.59292 0.298901 0
M  V30 10738 H 1010.1 -1.45893 1.43445 0
M  V30 10739 H 1010.11 -3.89543 1.21327 0
M  V30 10740 H 1008.78 -3.47443 2.28596 0
M  V30 10741 H 1007.36 -3.69947 0.468374 0
M  V30 10742 N 1009.54 -0.859717 -1.32086 0
M  V30 10743 C 1010.77 -0.478865 -2.01796 0
M  V30 10744 C 1011.19 0.918274 -1.64163 0
M  V30 10745 O 1010.55 1.60409 -0.844896 0
M  V30 10746 C 1010.6 -0.631356 -3.5503 0
M  V30 10747 O 1009.7 0.333712 -4.11048 0
M  V30 10748 H 1009.04 -0.191775 -0.635703 0
M  V30 10749 H 1011.57 -1.16031 -1.68517 0
M  V30 10750 H 1011.58 -0.520783 -4.04663 0
M  V30 10751 H 1010.26 -1.65015 -3.81763 0
M  V30 10752 H 1008.84 0.178953 -3.7247 0
M  V30 10753 N 1011.02 1.44971 -0.618145 0
M  V30 10754 C 1012.25 2.06527 -0.124165 0
M  V30 10755 C 1012.66 1.46097 1.19588 0
M  V30 10756 O 1012.02 0.57901 1.73071 0
M  V30 10757 C 1012.07 3.61498 0.0106701 0
M  V30 10758 O 1011.79 4.19675 -1.25716 0
M  V30 10759 C 1013.29 4.40061 0.534872 0
M  V30 10760 H 1010.51 0.666941 -0.0736935 0
M  V30 10761 H 1013.06 1.8605 -0.848871 0
M  V30 10762 H 1011.21 3.81282 0.685752 0
M  V30 10763 H 1011.63 5.12972 -1.09362 0
M  V30 10764 H 1013.1 5.48963 0.57827 0
M  V30 10765 H 1013.58 4.10587 1.55931 0
M  V30 10766 H 1014.18 4.25167 -0.10652 0
M  V30 10767 N 1012.5 0.357919 1.53482 0
M  V30 10768 C 1013.72 -0.237769 2.06033 0
M  V30 10769 C 1014.15 -1.42292 1.23023 0
M  V30 10770 O 1013.51 -1.79604 0.247427 0
M  V30 10771 C 1013.55 -0.616806 3.55286 0
M  V30 10772 O 1012.66 -1.71503 3.75047 0
M  V30 10773 H 1012 -0.0364322 0.663 0
M  V30 10774 H 1014.53 0.516301 1.97979 0
M  V30 10775 H 1014.54 -0.88996 3.98175 0
M  V30 10776 H 1013.21 0.249825 4.15149 0
M  V30 10777 H 1011.79 -1.43803 3.44057 0
M  V30 10778 N 1013.98 -1.5736 0.0868897 0
M  V30 10779 C 1015.2 -1.98809 -0.590757 0
M  V30 10780 C 1015.63 -0.965407 -1.61436 0
M  V30 10781 O 1014.98 0.067143 -1.81176 0
M  V30 10782 C 1015.03 -3.39249 -1.22238 0
M  V30 10783 O 1014.14 -3.39706 -2.33824 0
M  V30 10784 H 1013.48 -0.64669 -0.150626 0
M  V30 10785 H 1016.01 -2.03927 0.165873 0
M  V30 10786 H 1016.02 -3.76765 -1.56564 0
M  V30 10787 H 1014.69 -4.13208 -0.472434 0
M  V30 10788 H 1013.27 -3.13977 -2.01178 0
M  V30 10789 N 1015.45 0.186762 -1.56489 0
M  V30 10790 C 1016.68 0.921832 -1.85229 0
M  V30 10791 C 1017.1 1.76496 -0.670416 0
M  V30 10792 O 1016.45 1.78899 0.360758 0
M  V30 10793 C 1016.51 1.81121 -3.12854 0
M  V30 10794 O 1016.23 1.00211 -4.26485 0
M  V30 10795 C 1017.73 2.65725 -3.54831 0
M  V30 10796 H 1014.95 0.268563 -0.61491 0
M  V30 10797 H 1017.49 0.191505 -2.03601 0
M  V30 10798 H 1015.65 2.49506 -2.96354 0
M  V30 10799 H 1016.06 1.60893 -4.99213 0
M  V30 10800 H 1017.53 3.23771 -4.47075 0
M  V30 10801 H 1018.01 3.39843 -2.78215 0
M  V30 10802 H 1018.62 2.02698 -3.7389 0
M  V30 10803 N 1016.93 1.50896 0.454776 0
M  V30 10804 C 1018.21 1.53227 1.21576 0
M  V30 10805 C 1018.59 0.286358 2.09149 0
M  V30 10806 O 1017.94 -0.729469 2.16543 0
M  V30 10807 C 1018.15 2.83693 2.03271 0
M  V30 10808 C 1019.5 3.34981 2.60908 0
M  V30 10809 O 1020.52 2.85126 2.13499 0
M  V30 10810 O 1019.38 4.21929 3.4733 0
M  V30 10811 H 1016.47 0.615306 0.552564 0
M  V30 10812 H 1019.02 1.63197 0.465266 0
M  V30 10813 H 1017.79 3.65839 1.38843 0
M  V30 10814 H 1017.41 2.76803 2.85422 0
M  V30 10815 N 1018.41 -0.709066 1.40748 0
M  V30 10816 C 1019.36 -1.82312 1.4153 0
M  V30 10817 C 1020.33 -1.63868 0.271392 0
M  V30 10818 O 1021.51 -1.8491 0.470431 0
M  V30 10819 C 1018.65 -3.2008 1.29006 0
M  V30 10820 C 1017.77 -3.50051 2.53156 0
M  V30 10821 C 1016.9 -4.7736 2.33025 0
M  V30 10822 C 1015.94 -5.00255 3.52719 0
M  V30 10823 N 1015.08 -6.18782 3.31743 0
M  V30 10824 H 1019.92 -1.80978 2.36751 0
M  V30 10825 H 1017.45 -0.883975 1.17577 0
M  V30 10826 H 1019.41 -3.99645 1.19749 0
M  V30 10827 H 1018.04 -3.20626 0.374014 0
M  V30 10828 H 1017.09 -2.64993 2.72916 0
M  V30 10829 H 1018.41 -3.62877 3.42231 0
M  V30 10830 H 1017.56 -5.64954 2.21159 0
M  V30 10831 H 1016.3 -4.66756 1.41386 0
M  V30 10832 H 1015.3 -4.11114 3.65055 0
M  V30 10833 H 1016.53 -5.12728 4.45295 0
M  V30 10834 H 1014.47 -6.09416 2.42791 0
M  V30 10835 H 1014.39 -6.32313 4.14386 0
M  V30 10836 H 1015.66 -7.09146 3.23623 0
M  V30 10837 N 1019.89 -1.26353 -0.941956 0
M  V30 10838 C 1021.11 -1.14731 -1.72776 0
M  V30 10839 C 1021.54 0.293766 -1.85792 0
M  V30 10840 O 1020.9 1.21284 -1.34759 0
M  V30 10841 C 1020.95 -1.82041 -3.11277 0
M  V30 10842 O 1020.05 -1.10867 -3.97218 0
M  V30 10843 H 1019.39 -0.399823 -0.53013 0
M  V30 10844 H 1021.92 -1.67157 -1.17981 0
M  V30 10845 H 1021.93 -1.88834 -3.61671 0
M  V30 10846 H 1020.61 -2.86879 -3.0112 0
M  V30 10847 H 1019.18 -1.12044 -3.55669 0
M  V30 10848 N 1021.37 1.14642 -1.08144 0
M  V30 10849 C 1022.64 1.81774 -0.72232 0
M  V30 10850 C 1023.02 1.95587 0.794294 0
M  V30 10851 O 1022.37 1.51361 1.71178 0
M  V30 10852 C 1022.58 3.1763 -1.44611 0
M  V30 10853 C 1023.93 3.93161 -1.60343 0
M  V30 10854 O 1024.95 3.2721 -1.40755 0
M  V30 10855 O 1023.81 5.11422 -1.9264 0
M  V30 10856 H 1020.91 0.785733 -0.257978 0
M  V30 10857 H 1023.45 1.21683 -1.18285 0
M  V30 10858 H 1022.23 3.02723 -2.4794 0
M  V30 10859 H 1021.85 3.85412 -0.976892 0
M  V30 10860 N 1022.85 0.866709 1.31628 0
M  V30 10861 C 1024.09 0.475086 1.96437 0
M  V30 10862 C 1024.41 -0.975179 1.68865 0
M  V30 10863 O 1023.68 -1.68317 1.0023 0
M  V30 10864 H 1022.26 0.172695 0.726764 0
M  V30 10865 H 1024.93 1.10578 1.60494 0
M  V30 10866 H 1024.02 0.630123 3.05673 0
M  V30 10867 N 1024.32 -1.44642 0.625825 0
M  V30 10868 C 1025.6 -1.9551 0.0593587 0
M  V30 10869 C 1025.98 -1.56792 -1.41349 0
M  V30 10870 O 1025.33 -0.839373 -2.12525 0
M  V30 10871 C 1025.54 -3.47902 0.276647 0
M  V30 10872 C 1026.89 -4.24271 0.167044 0
M  V30 10873 O 1027.91 -3.55594 0.207731 0
M  V30 10874 O 1026.77 -5.46458 0.0675 0
M  V30 10875 H 1023.86 -0.826612 -0.0253422 0
M  V30 10876 H 1026.41 -1.54718 0.697159 0
M  V30 10877 H 1025.18 -3.69115 1.29885 0
M  V30 10878 H 1024.8 -3.95628 -0.395547 0
M  V30 10879 N 1025.8 -0.366053 -1.5329 0
M  V30 10880 C 1027.03 0.22391 -2.05383 0
M  V30 10881 C 1027.44 1.42962 -1.23929 0
M  V30 10882 O 1026.78 1.81659 -0.273072 0
M  V30 10883 C 1026.84 0.681038 -3.5299 0
M  V30 10884 C 1026.51 -0.40805 -4.55175 0
M  V30 10885 C 1027.51 -1.25806 -5.04449 0
M  V30 10886 C 1025.19 -0.568428 -4.99073 0
M  V30 10887 C 1027.18 -2.25379 -5.96224 0
M  V30 10888 C 1024.87 -1.56752 -5.90654 0
M  V30 10889 C 1025.87 -2.40864 -6.39119 0
M  V30 10890 O 1025.56 -3.39069 -7.28895 0
M  V30 10891 H 1025.29 0.0429593 -0.674634 0
M  V30 10892 H 1027.84 -0.522897 -1.98633 0
M  V30 10893 H 1026.07 1.47945 -3.5728 0
M  V30 10894 H 1027.76 1.19406 -3.8794 0
M  V30 10895 H 1028.53 -1.14536 -4.71282 0
M  V30 10896 H 1024.41 0.0764858 -4.60937 0
M  V30 10897 H 1027.95 -2.91068 -6.33976 0
M  V30 10898 H 1023.85 -1.6807 -6.23236 0
M  V30 10899 H 1024.62 -3.34804 -7.46893 0
M  V30 10900 N 1027.28 1.57312 -0.0952337 0
M  V30 10901 C 1028.53 1.93974 0.567319 0
M  V30 10902 C 1028.85 0.977805 1.68713 0
M  V30 10903 O 1028.12 0.0298944 1.95877 0
M  V30 10904 H 1026.7 0.71612 0.212558 0
M  V30 10905 H 1029.36 1.94254 -0.158598 0
M  V30 10906 H 1028.46 2.964 0.977423 0
M  V30 10907 N 1028.76 -0.17846 1.56586 0
M  V30 10908 C 1029.67 -1.24115 1.9908 0
M  V30 10909 C 1030.68 -1.48854 0.901031 0
M  V30 10910 O 1031.86 -1.61142 1.2081 0
M  V30 10911 C 1028.92 -2.56187 2.33601 0
M  V30 10912 C 1027.99 -2.39373 3.56369 0
M  V30 10913 C 1027.22 -3.65147 3.89234 0
M  V30 10914 O 1027.44 -4.70024 3.23162 0
M  V30 10915 O 1026.38 -3.59683 4.82609 0
M  V30 10916 H 1030.2 -0.910482 2.89731 0
M  V30 10917 H 1027.79 -0.38477 1.4436 0
M  V30 10918 H 1029.67 -3.34109 2.56806 0
M  V30 10919 H 1028.34 -2.88847 1.46113 0
M  V30 10920 H 1027.25 -1.59506 3.38391 0
M  V30 10921 H 1028.58 -2.1164 4.44375 0
M  V30 10922 N 1030.24 -1.51135 -0.446768 0
M  V30 10923 C 1031.48 -1.63013 -1.19461 0
M  V30 10924 C 1031.8 -0.344067 -1.91941 0
M  V30 10925 O 1031.07 0.639666 -1.85162 0
M  V30 10926 H 1029.65 -0.600757 -0.443959 0
M  V30 10927 H 1032.32 -1.88024 -0.513137 0
M  V30 10928 H 1031.41 -2.45322 -1.92933 0
M  V30 10929 N 1031.71 0.701592 -1.41122 0
M  V30 10930 C 1032.66 1.81559 -1.42495 0
M  V30 10931 C 1033.63 1.63722 -0.280078 0
M  V30 10932 O 1034.82 1.84658 -0.480231 0
M  V30 10933 C 1031.96 3.19392 -1.30702 0
M  V30 10934 C 1031.07 3.48704 -2.55009 0
M  V30 10935 C 1030.2 4.76118 -2.35554 0
M  V30 10936 C 1029.24 4.98378 -3.55367 0
M  V30 10937 N 1028.38 6.17014 -3.3502 0
M  V30 10938 H 1033.22 1.7972 -2.37707 0
M  V30 10939 H 1030.76 0.877727 -1.18044 0
M  V30 10940 H 1032.71 3.99004 -1.21867 0
M  V30 10941 H 1031.34 3.20423 -0.391012 0
M  V30 10942 H 1030.4 2.63542 -2.74317 0
M  V30 10943 H 1031.71 3.61057 -3.44151 0
M  V30 10944 H 1030.86 5.63774 -2.24152 0
M  V30 10945 H 1029.6 4.66 -1.43859 0
M  V30 10946 H 1028.61 4.09172 -3.6723 0
M  V30 10947 H 1029.83 5.10359 -4.48007 0
M  V30 10948 H 1027.78 6.0812 -2.4602 0
M  V30 10949 H 1027.69 6.30107 -4.17733 0
M  V30 10950 H 1028.96 7.0742 -3.27379 0
M  V30 10951 N 1033.19 1.2685 0.935242 0
M  V30 10952 C 1034.44 1.12522 1.67878 0
M  V30 10953 C 1034.76 -0.330894 1.92172 0
M  V30 10954 O 1034.03 -1.23259 1.52263 0
M  V30 10955 H 1032.61 0.413418 0.622169 0
M  V30 10956 H 1035.27 1.59267 1.12339 0
M  V30 10957 H 1034.37 1.64853 2.65009 0
M  V30 10958 N 1034.67 -1.14067 1.0875 0
M  V30 10959 C 1035.6 -2.18926 0.67852 0
M  V30 10960 C 1036.62 -1.60441 -0.276163 0
M  V30 10961 O 1037.8 -1.78388 -0.0632788 0
M  V30 10962 C 1034.9 -3.38893 -0.0218852 0
M  V30 10963 C 1034.08 -4.26901 0.952582 0
M  V30 10964 C 1033.14 -5.25418 0.286859 0
M  V30 10965 O 1032.16 -5.61512 0.932354 0
M  V30 10966 N 1033.36 -5.72476 -0.961831 0
M  V30 10967 H 1036.13 -2.54629 1.58063 0
M  V30 10968 H 1033.69 -1.29321 0.974042 0
M  V30 10969 H 1035.68 -4.01864 -0.478278 0
M  V30 10970 H 1034.25 -3.01486 -0.826141 0
M  V30 10971 H 1033.47 -3.60812 1.58772 0
M  V30 10972 H 1034.76 -4.82563 1.61279 0
M  V30 10973 H 1034.16 -5.45287 -1.50594 0
M  V30 10974 H 1032.72 -6.37418 -1.36166 0
M  V30 10975 N 1036.15 -0.873678 -1.31166 0
M  V30 10976 C 1037.38 -0.501043 -2.00742 0
M  V30 10977 C 1037.79 0.907477 -1.65561 0
M  V30 10978 O 1037.15 1.59507 -0.886771 0
M  V30 10979 C 1037.2 -0.652877 -3.55556 0
M  V30 10980 O 1036.92 -2.00593 -3.89479 0
M  V30 10981 C 1038.42 -0.281742 -4.42404 0
M  V30 10982 H 1035.64 -0.194829 -0.642092 0
M  V30 10983 H 1038.19 -1.17587 -1.67313 0
M  V30 10984 H 1036.34 -0.0255627 -3.87392 0
M  V30 10985 H 1036.75 -2.01638 -4.84193 0
M  V30 10986 H 1038.23 -0.43892 -5.50252 0
M  V30 10987 H 1038.71 0.779389 -4.32229 0
M  V30 10988 H 1039.31 -0.88491 -4.15992 0
M  V30 10989 N 1037.63 1.44308 -0.633487 0
M  V30 10990 C 1038.57 2.32455 0.0821956 0
M  V30 10991 C 1039.57 1.47482 0.833388 0
M  V30 10992 O 1040.77 1.63812 0.746021 0
M  V30 10993 H 1037.15 0.750631 0.045352 0
M  V30 10994 H 1039.12 2.90566 -0.679282 0
M  V30 10995 C 1037.87 3.31512 1.04858 0
M  V30 10996 H 1037.19 3.96908 0.479979 0
M  V30 10997 H 1038.63 3.95865 1.51879 0
M  V30 10998 C 1037.09 2.60615 2.13498 0
M  V30 10999 O 1037.62 2.40682 3.21613 0
M  V30 11000 N 1035.83 2.20315 1.89499 0
M  V30 11001 H 1035.37 2.36726 1.01581 0
M  V30 11002 H 1035.33 1.73205 2.62388 0
M  V30 11003 N 1039.1 0.374177 1.53094 0
M  V30 11004 C 1040.01 -0.475935 2.29722 0
M  V30 11005 C 1041.03 -1.085 1.36029 0
M  V30 11006 O 1042.21 -1.09408 1.69091 0
M  V30 11007 C 1039.27 -1.59572 3.07795 0
M  V30 11008 C 1038.33 -1.01332 4.17169 0
M  V30 11009 C 1037.57 -2.07975 4.9151 0
M  V30 11010 O 1037.79 -3.29232 4.65793 0
M  V30 11011 O 1036.72 -1.7055 5.77232 0
M  V30 11012 H 1040.55 0.147877 3.0334 0
M  V30 11013 H 1038.13 0.138312 1.48758 0
M  V30 11014 H 1040.02 -2.24658 3.5652 0
M  V30 11015 H 1038.69 -2.20478 2.37005 0
M  V30 11016 H 1037.6 -0.326133 3.72676 0
M  V30 11017 H 1038.93 -0.4487 4.90151 0
M  V30 11018 N 1040.58 -1.57259 0.103575 0
M  V30 11019 C 1041.83 -1.93832 -0.55786 0
M  V30 11020 C 1042.14 -0.988087 -1.68808 0
M  V30 11021 O 1043.35 -1.24786 -2.41124 0
M  V30 11022 C 1041.81 -3.44433 -1.04373 0
M  V30 11023 C 1041.41 -4.47963 0.0571971 0
M  V30 11024 C 1043.16 -3.89953 -1.67742 0
M  V30 11025 C 1041.07 -5.89727 -0.444505 0
M  V30 11026 H 1040 -0.723536 -0.212161 0
M  V30 11027 H 1042.65 -1.82606 0.180944 0
M  V30 11028 H 1041.03 -3.50841 -1.83648 0
M  V30 11029 H 1042.2 -4.53209 0.83298 0
M  V30 11030 H 1040.52 -4.12104 0.596588 0
M  V30 11031 H 1043.11 -4.93272 -2.06365 0
M  V30 11032 H 1043.46 -3.2907 -2.54988 0
M  V30 11033 H 1043.99 -3.86281 -0.950342 0
M  V30 11034 H 1040.73 -6.5433 0.391543 0
M  V30 11035 H 1040.25 -5.87935 -1.18711 0
M  V30 11036 H 1041.93 -6.40558 -0.910739 0
M  V30 11037 N 1042.06 0.170153 -1.56679 0
M  V30 11038 C 1043.01 1.22997 -1.9742 0
M  V30 11039 C 1044 1.45762 -0.863117 0
M  V30 11040 O 1045.21 1.46328 -1.04824 0
M  V30 11041 H 1041.58 0.413482 -0.628122 0
M  V30 11042 H 1043.55 0.859502 -2.85754 0
M  V30 11043 C 1042.3 2.5615 -2.35122 0
M  V30 11044 H 1041.63 2.39456 -3.20158 0
M  V30 11045 H 1043.07 3.28991 -2.67471 0
M  V30 11046 C 1041.53 3.14992 -1.19507 0
M  V30 11047 O 1042.06 3.98781 -0.483357 0
M  V30 11048 N 1040.26 2.74098 -0.965332 0
M  V30 11049 H 1039.81 2.06062 -1.54585 0
M  V30 11050 H 1039.77 3.13803 -0.193611 0
M  V30 11051 N 1043.54 1.5137 0.438746 0
M  V30 11052 C 1044.5 1.71993 1.51496 0
M  V30 11053 C 1045.5 0.589978 1.49586 0
M  V30 11054 O 1046.69 0.857505 1.51633 0
M  V30 11055 C 1043.82 1.77508 2.91039 0
M  V30 11056 H 1045.02 2.68041 1.34514 0
M  V30 11057 H 1042.57 1.41338 0.667326 0
M  V30 11058 H 1043.3 0.832698 3.13427 0
M  V30 11059 H 1043.09 2.59627 2.9383 0
M  V30 11060 H 1044.58 1.95308 3.69113 0
M  V30 11061 N 1045.02 -0.694098 1.41492 0
M  V30 11062 C 1045.95 -1.82042 1.46229 0
M  V30 11063 C 1046.93 -1.67047 0.320803 0
M  V30 11064 O 1048.11 -1.86758 0.53245 0
M  V30 11065 C 1045.24 -3.2019 1.34519 0
M  V30 11066 C 1044.2 -3.49892 2.46495 0
M  V30 11067 C 1043.52 -4.87411 2.1985 0
M  V30 11068 C 1044.82 -3.4872 3.88834 0
M  V30 11069 H 1046.52 -1.78335 2.40493 0
M  V30 11070 H 1044.06 -0.856566 1.15754 0
M  V30 11071 H 1046.02 -3.98699 1.36445 0
M  V30 11072 H 1044.74 -3.24527 0.367406 0
M  V30 11073 H 1043.4 -2.73734 2.43854 0
M  V30 11074 H 1043.05 -4.88375 1.20411 0
M  V30 11075 H 1042.75 -5.08248 2.94885 0
M  V30 11076 H 1044.27 -5.68228 2.23494 0
M  V30 11077 H 1045.68 -4.1723 3.93182 0
M  V30 11078 H 1044.08 -3.81089 4.63564 0
M  V30 11079 H 1045.15 -2.47665 4.16881 0
M  V30 11080 N 1046.49 -1.27344 -0.928501 0
M  V30 11081 C 1047.74 -1.13804 -1.67859 0
M  V30 11082 C 1048.07 0.31555 -1.91619 0
M  V30 11083 O 1047.35 1.23087 -1.50599 0
M  V30 11084 C 1047.63 -1.9213 -3.04562 0
M  V30 11085 C 1047.48 -3.45468 -2.88048 0
M  V30 11086 C 1048.8 -1.72513 -4.04879 0
M  V30 11087 H 1045.92 -0.414796 -0.609191 0
M  V30 11088 H 1048.56 -1.5649 -1.07753 0
M  V30 11089 H 1046.71 -1.55853 -3.55868 0
M  V30 11090 H 1048.39 -3.9157 -2.43865 0
M  V30 11091 H 1046.63 -3.71849 -2.23407 0
M  V30 11092 H 1047.3 -3.95515 -3.85061 0
M  V30 11093 H 1049.78 -2.04143 -3.62581 0
M  V30 11094 H 1048.65 -2.29713 -4.98521 0
M  V30 11095 H 1048.91 -0.672856 -4.3695 0
M  V30 11096 N 1047.97 1.13488 -1.09353 0
M  V30 11097 C 1048.9 2.18563 -0.69012 0
M  V30 11098 C 1049.92 1.60585 0.267651 0
M  V30 11099 O 1051.11 1.78419 0.0538176 0
M  V30 11100 C 1048.21 3.389 0.00391255 0
M  V30 11101 C 1047.38 4.2639 -0.975209 0
M  V30 11102 C 1046.44 5.25258 -0.314719 0
M  V30 11103 O 1045.46 5.6101 -0.962119 0
M  V30 11104 N 1046.67 5.72978 0.931458 0
M  V30 11105 H 1049.43 2.53788 -1.59411 0
M  V30 11106 H 1046.99 1.28803 -0.980886 0
M  V30 11107 H 1048.98 4.02112 0.45696 0
M  V30 11108 H 1047.55 3.0192 0.81014 0
M  V30 11109 H 1046.77 3.59964 -1.60684 0
M  V30 11110 H 1048.06 4.817 -1.63836 0
M  V30 11111 H 1047.46 5.46078 1.477 0
M  V30 11112 H 1046.02 6.38131 1.32784 0
M  V30 11113 N 1049.45 0.880621 1.30701 0
M  V30 11114 C 1050.38 0.360251 2.30704 0
M  V30 11115 C 1051.36 -0.554572 1.60806 0
M  V30 11116 O 1052.55 -0.469345 1.88443 0
M  V30 11117 C 1049.68 -0.429888 3.44629 0
M  V30 11118 C 1048.63 0.392786 4.26194 0
M  V30 11119 C 1047.96 -0.52369 5.32129 0
M  V30 11120 C 1049.26 1.63258 4.96129 0
M  V30 11121 H 1050.95 1.19591 2.74478 0
M  V30 11122 H 1048.5 0.576508 1.31956 0
M  V30 11123 H 1050.45 -0.804532 4.13649 0
M  V30 11124 H 1049.17 -1.29916 2.99649 0
M  V30 11125 H 1047.83 0.749514 3.58856 0
M  V30 11126 H 1047.48 -1.39054 4.83397 0
M  V30 11127 H 1047.18 0.0229272 5.87596 0
M  V30 11128 H 1048.71 -0.894946 6.04006 0
M  V30 11129 H 1050.12 1.32877 5.57689 0
M  V30 11130 H 1048.52 2.11906 5.61441 0
M  V30 11131 H 1049.59 2.37944 4.22505 0
M  V30 11132 N 1050.93 -1.4397 0.641131 0
M  V30 11133 C 1051.86 -2.27948 -0.10731 0
M  V30 11134 C 1052.84 -1.39124 -0.841615 0
M  V30 11135 O 1054.02 -1.68566 -0.843662 0
M  V30 11136 C 1051.15 -3.18277 -1.15835 0
M  V30 11137 C 1050.2 -4.23276 -0.52345 0
M  V30 11138 S 1051.03 -5.30984 0.693969 0
M  V30 11139 C 1052.19 -6.24882 -0.356831 0
M  V30 11140 H 1052.42 -2.91077 0.605083 0
M  V30 11141 H 1049.95 -1.48303 0.429598 0
M  V30 11142 H 1051.91 -3.70867 -1.75977 0
M  V30 11143 H 1050.57 -2.54348 -1.84299 0
M  V30 11144 H 1049.76 -4.86533 -1.31536 0
M  V30 11145 H 1049.37 -3.74 0.00358355 0
M  V30 11146 H 1051.66 -6.66305 -1.22653 0
M  V30 11147 H 1052.6 -7.07692 0.240412 0
M  V30 11148 H 1053.01 -5.60301 -0.687217 0
M  V30 11149 N 1052.41 -0.382291 -1.52893 0
M  V30 11150 C 1053.64 0.202408 -2.05908 0
M  V30 11151 C 1054.05 1.4109 -1.25456 0
M  V30 11152 O 1053.41 1.80027 -0.29942 0
M  V30 11153 C 1053.46 0.579452 -3.56826 0
M  V30 11154 O 1053.18 -0.58102 -4.3423 0
M  V30 11155 C 1054.68 1.22076 -4.2616 0
M  V30 11156 H 1051.9 0.0321859 -0.670228 0
M  V30 11157 H 1054.44 -0.545494 -1.9709 0
M  V30 11158 H 1052.6 1.27726 -3.65739 0
M  V30 11159 H 1053.01 -0.272693 -5.23791 0
M  V30 11160 H 1054.49 1.435 -5.33021 0
M  V30 11161 H 1054.96 2.18605 -3.80931 0
M  V30 11162 H 1055.57 0.563922 -4.21545 0
M  V30 11163 N 1053.89 1.57202 -0.111913 0
M  V30 11164 C 1054.82 2.11995 0.871242 0
M  V30 11165 C 1055.83 1.06102 1.23475 0
M  V30 11166 O 1057.02 1.33497 1.18494 0
M  V30 11167 C 1054.12 2.59874 2.17528 0
M  V30 11168 C 1053.29 3.89788 1.98455 0
M  V30 11169 C 1052.35 4.23339 3.12523 0
M  V30 11170 O 1051.38 4.92277 2.85748 0
M  V30 11171 N 1052.58 3.80089 4.38762 0
M  V30 11172 H 1055.34 2.96976 0.403157 0
M  V30 11173 H 1052.91 1.61737 0.0727159 0
M  V30 11174 H 1054.9 2.79354 2.9282 0
M  V30 11175 H 1053.47 1.79812 2.55707 0
M  V30 11176 H 1052.69 3.79288 1.07396 0
M  V30 11177 H 1053.98 4.74748 1.83007 0
M  V30 11178 H 1053.37 3.24473 4.63394 0
M  V30 11179 H 1051.93 4.04691 5.10949 0
M  V30 11180 N 1055.36 -0.161842 1.56767 0
M  V30 11181 C 1056.59 -0.892247 1.86672 0
M  V30 11182 C 1057.01 -1.75407 0.69841 0
M  V30 11183 O 1056.36 -1.7945 -0.332251 0
M  V30 11184 C 1056.41 -1.7612 3.15696 0
M  V30 11185 O 1056.14 -0.934131 4.28025 0
M  V30 11186 C 1057.64 -2.60046 3.59014 0
M  V30 11187 H 1054.86 -0.258747 0.619105 0
M  V30 11188 H 1057.4 -0.159089 2.0388 0
M  V30 11189 H 1055.56 -2.44759 3.00286 0
M  V30 11190 H 1055.97 -1.52931 5.01709 0
M  V30 11191 H 1057.44 -3.16618 4.5217 0
M  V30 11192 H 1057.92 -3.35374 2.83586 0
M  V30 11193 H 1058.53 -1.96724 3.77067 0
M  V30 11194 N 1056.84 -1.516 -0.430713 0
M  V30 11195 C 1057.77 -1.76342 -1.53054 0
M  V30 11196 C 1058.75 -0.61349 -1.58652 0
M  V30 11197 O 1059.94 -0.856888 -1.74273 0
M  V30 11198 C 1057.07 -1.8945 -2.91077 0
M  V30 11199 C 1056.02 -3.04928 -3.00339 0
M  V30 11200 C 1055.35 -3.03228 -4.40405 0
M  V30 11201 C 1056.65 -4.44777 -2.73808 0
M  V30 11202 H 1058.34 -2.68435 -1.326 0
M  V30 11203 H 1055.89 -1.29171 -0.636466 0
M  V30 11204 H 1057.84 -2.05343 -3.67984 0
M  V30 11205 H 1056.56 -0.940114 -3.12777 0
M  V30 11206 H 1055.22 -2.88751 -2.25872 0
M  V30 11207 H 1054.87 -2.05553 -4.59083 0
M  V30 11208 H 1054.57 -3.80776 -4.47531 0
M  V30 11209 H 1056.1 -3.21222 -5.19277 0
M  V30 11210 H 1057.51 -4.6127 -3.40445 0
M  V30 11211 H 1055.91 -5.2408 -2.92335 0
M  V30 11212 H 1056.98 -4.54358 -1.69372 0
M  V30 11213 N 1058.32 0.686584 -1.41858 0
M  V30 11214 C 1059.27 1.80038 -1.44413 0
M  V30 11215 C 1060.24 1.63415 -0.297427 0
M  V30 11216 O 1061.42 1.84138 -0.499789 0
M  V30 11217 C 1058.56 3.17988 -1.34082 0
M  V30 11218 C 1057.67 3.45979 -2.58693 0
M  V30 11219 C 1056.81 4.73592 -2.4059 0
M  V30 11220 C 1055.85 4.94581 -3.60633 0
M  V30 11221 N 1054.99 6.13426 -3.41545 0
M  V30 11222 H 1059.83 1.77189 -2.396 0
M  V30 11223 H 1057.36 0.865158 -1.18968 0
M  V30 11224 H 1059.32 3.97689 -1.26092 0
M  V30 11225 H 1057.95 3.1999 -0.424975 0
M  V30 11226 H 1057 2.60617 -2.77097 0
M  V30 11227 H 1058.31 3.57386 -3.47961 0
M  V30 11228 H 1057.47 5.61364 -2.30119 0
M  V30 11229 H 1056.21 4.64448 -1.48794 0
M  V30 11230 H 1055.21 4.05254 -3.71549 0
M  V30 11231 H 1056.44 5.05578 -4.53395 0
M  V30 11232 H 1054.38 6.05477 -2.52456 0
M  V30 11233 H 1054.3 6.25641 -4.24393 0
M  V30 11234 H 1055.57 7.03908 -3.34864 0
M  V30 11235 N 1059.8 1.27835 0.921735 0
M  V30 11236 C 1060.73 1.136 2.04003 0
M  V30 11237 C 1061.71 0.0358756 1.70062 0
M  V30 11238 O 1062.89 0.211438 1.93046 0
M  V30 11239 C 1060.02 0.788697 3.38226 0
M  V30 11240 C 1058.98 1.84272 3.863 0
M  V30 11241 C 1058.3 1.34923 5.17397 0
M  V30 11242 C 1059.6 3.24788 4.09035 0
M  V30 11243 H 1061.3 2.07149 2.1617 0
M  V30 11244 H 1058.84 0.997349 1.0387 0
M  V30 11245 H 1060.8 0.675911 4.15944 0
M  V30 11246 H 1059.52 -0.182499 3.2609 0
M  V30 11247 H 1058.18 1.94451 3.1078 0
M  V30 11248 H 1057.83 0.367328 5.01657 0
M  V30 11249 H 1057.53 2.05397 5.50532 0
M  V30 11250 H 1059.05 1.24951 5.97678 0
M  V30 11251 H 1060.47 3.17575 4.77304 0
M  V30 11252 H 1058.86 3.93025 4.53488 0
M  V30 11253 H 1059.93 3.69398 3.14122 0
M  V30 11254 N 1061.28 -1.12907 1.09954 0
M  V30 11255 C 1062.55 -1.80602 0.751148 0
M  V30 11256 C 1062.93 -1.96826 -0.763077 0
M  V30 11257 O 1062.28 -1.54066 -1.68749 0
M  V30 11258 C 1062.49 -3.15289 1.49646 0
M  V30 11259 C 1063.84 -3.9056 1.66578 0
M  V30 11260 O 1064.86 -3.24929 1.45943 0
M  V30 11261 O 1063.72 -5.08292 2.00752 0
M  V30 11262 H 1060.82 -0.781529 0.270446 0
M  V30 11263 H 1063.36 -1.19786 1.20206 0
M  V30 11264 H 1062.13 -2.9874 2.52725 0
M  V30 11265 H 1061.76 -3.83809 1.03808 0
M  V30 11266 N 1062.75 -0.88754 -1.30232 0
M  V30 11267 C 1063.98 -0.521562 -2.00735 0
M  V30 11268 C 1064.4 0.883247 -1.66073 0
M  V30 11269 O 1063.76 1.58581 -0.878731 0
M  V30 11270 C 1063.81 -0.706521 -3.53611 0
M  V30 11271 O 1062.91 0.246447 -4.11663 0
M  V30 11272 H 1062.25 -0.205216 -0.631492 0
M  V30 11273 H 1064.78 -1.19579 -1.66018 0
M  V30 11274 H 1064.79 -0.606501 -4.03467 0
M  V30 11275 H 1063.47 -1.73076 -3.78177 0
M  V30 11276 H 1062.05 0.0999062 -3.72766 0
M  V30 11277 N 1064.23 1.43628 -0.648757 0
M  V30 11278 C 1065.18 2.30755 0.0455536 0
M  V30 11279 C 1066.15 1.44495 0.819168 0
M  V30 11280 O 1067.33 1.73372 0.79667 0
M  V30 11281 C 1064.47 3.30017 1.00908 0
M  V30 11282 C 1063.59 4.31376 0.232039 0
M  V30 11283 C 1062.72 5.17723 1.18897 0
M  V30 11284 C 1061.76 6.10778 0.402096 0
M  V30 11285 N 1060.9 6.89763 1.31038 0
M  V30 11286 H 1065.74 2.89581 -0.70332 0
M  V30 11287 H 1063.28 1.42662 -0.3586 0
M  V30 11288 H 1065.23 3.86072 1.58128 0
M  V30 11289 H 1063.86 2.72851 1.72488 0
M  V30 11290 H 1062.92 3.77652 -0.456373 0
M  V30 11291 H 1064.23 4.9735 -0.380023 0
M  V30 11292 H 1063.38 5.78381 1.83194 0
M  V30 11293 H 1062.12 4.51864 1.83494 0
M  V30 11294 H 1061.13 5.49212 -0.254255 0
M  V30 11295 H 1062.35 6.78678 -0.239411 0
M  V30 11296 H 1060.3 6.26557 1.94324 0
M  V30 11297 H 1060.21 7.52243 0.752774 0
M  V30 11298 H 1061.48 7.54931 1.94164 0
M  V30 11299 N 1065.71 0.390394 1.52688 0
M  V30 11300 C 1066.62 -0.451543 2.30213 0
M  V30 11301 C 1067.64 -1.07051 1.37172 0
M  V30 11302 O 1068.81 -1.07609 1.70242 0
M  V30 11303 C 1065.88 -1.56299 3.0947 0
M  V30 11304 C 1064.94 -0.969017 4.18221 0
M  V30 11305 C 1064.17 -2.0275 4.93688 0
M  V30 11306 O 1064.39 -3.24273 4.69258 0
M  V30 11307 O 1063.33 -1.64418 5.79008 0
M  V30 11308 H 1067.15 0.180042 3.03166 0
M  V30 11309 H 1064.74 0.154082 1.48603 0
M  V30 11310 H 1066.62 -2.20864 3.58883 0
M  V30 11311 H 1065.3 -2.17952 2.3933 0
M  V30 11312 H 1064.2 -0.286587 3.73001 0
M  V30 11313 H 1065.54 -0.396687 4.90599 0
M  V30 11314 N 1067.19 -1.57141 0.120249 0
M  V30 11315 C 1068.41 -2.00017 -0.548454 0
M  V30 11316 C 1068.84 -0.999433 -1.59352 0
M  V30 11317 O 1068.2 0.0286978 -1.81277 0
M  V30 11318 C 1068.24 -3.41766 -1.15015 0
M  V30 11319 O 1067.35 -3.44589 -2.26566 0
M  V30 11320 H 1066.69 -0.649739 -0.136875 0
M  V30 11321 H 1069.22 -2.03529 0.209092 0
M  V30 11322 H 1069.23 -3.80001 -1.48537 0
M  V30 11323 H 1067.9 -4.14117 -0.384681 0
M  V30 11324 H 1066.48 -3.18174 -1.94473 0
M  V30 11325 N 1068.67 0.153526 -1.5685 0
M  V30 11326 C 1069.91 0.873522 -1.84794 0
M  V30 11327 C 1070.27 1.78642 -0.703648 0
M  V30 11328 O 1071.47 2.54537 -0.863972 0
M  V30 11329 C 1069.74 1.63316 -3.17904 0
M  V30 11330 S 1071.3 2.39948 -3.67383 0
M  V30 11331 H 1068.12 0.292233 -0.648167 0
M  V30 11332 H 1070.72 0.133949 -1.95041 0
M  V30 11333 H 1069.43 0.95387 -3.99161 0
M  V30 11334 H 1068.96 2.41377 -3.10646 0
M  V30 11335 H 1070.97 3.65011 -3.36127 0
M  V30 11336 N 1070.14 1.51827 0.422667 0
M  V30 11337 C 1071.05 1.77066 1.53899 0
M  V30 11338 C 1072.07 0.655541 1.61179 0
M  V30 11339 O 1073.25 0.939448 1.78147 0
M  V30 11340 C 1070.31 1.90372 2.89758 0
M  V30 11341 C 1069.37 3.14256 2.92475 0
M  V30 11342 C 1068.61 3.26918 4.21853 0
M  V30 11343 O 1068.83 2.45164 5.15025 0
M  V30 11344 O 1067.76 4.19989 4.31153 0
M  V30 11345 H 1071.59 2.71791 1.35511 0
M  V30 11346 H 1069.17 1.36506 0.607165 0
M  V30 11347 H 1071.06 2.01024 3.70361 0
M  V30 11348 H 1069.73 0.988347 3.08242 0
M  V30 11349 H 1068.64 3.09072 2.10773 0
M  V30 11350 H 1069.97 4.0553 2.78937 0
M  V30 11351 N 1071.62 -0.679052 1.4222 0
M  V30 11352 C 1072.9 -1.43473 1.32947 0
M  V30 11353 C 1073.28 -2.11071 -0.0351689 0
M  V30 11354 O 1072.63 -2.02925 -1.05042 0
M  V30 11355 C 1072.84 -2.44065 2.49466 0
M  V30 11356 C 1074.19 -3.08834 2.91387 0
M  V30 11357 O 1075.21 -2.54392 2.49325 0
M  V30 11358 O 1074.07 -4.07478 3.64175 0
M  V30 11359 H 1071.16 -0.639743 0.524078 0
M  V30 11360 H 1073.71 -0.708134 1.54219 0
M  V30 11361 H 1072.48 -1.92884 3.40457 0
M  V30 11362 H 1072.1 -3.24212 2.30158 0
M  V30 11363 N 1073.1 -1.28322 -0.914942 0
M  V30 11364 C 1074.35 -1.15578 -1.66642 0
M  V30 11365 C 1074.68 0.295209 -1.91943 0
M  V30 11366 O 1073.95 1.21482 -1.51896 0
M  V30 11367 C 1074.24 -1.9535 -3.02507 0
M  V30 11368 C 1074.09 -3.48504 -2.84367 0
M  V30 11369 C 1075.41 -1.76798 -4.03027 0
M  V30 11370 H 1072.53 -0.421234 -0.604757 0
M  V30 11371 H 1075.17 -1.57625 -1.06087 0
M  V30 11372 H 1073.32 -1.59619 -3.54195 0
M  V30 11373 H 1074.99 -3.94135 -2.39699 0
M  V30 11374 H 1073.24 -3.74198 -2.1945 0
M  V30 11375 H 1073.91 -3.99576 -3.80845 0
M  V30 11376 H 1076.38 -2.07977 -3.60395 0
M  V30 11377 H 1075.26 -2.34987 -4.96057 0
M  V30 11378 H 1075.52 -0.719162 -4.36211 0
M  V30 11379 N 1074.58 1.12322 -1.10551 0
M  V30 11380 C 1075.99 1.6539 -0.8662 0
M  V30 11381 C 1076.34 1.86695 0.603284 0
M  V30 11382 O 1075.47 1.59432 1.46323 0
M  V30 11383 C 1076.06 3.00443 -1.56587 0
M  V30 11384 C 1074.62 3.50456 -1.37323 0
M  V30 11385 C 1073.77 2.25454 -1.61449 0
M  V30 11386 H 1076.72 0.960866 -1.26305 0
M  V30 11387 H 1076.74 3.66972 -1.00557 0
M  V30 11388 H 1076.25 2.84905 -2.63535 0
M  V30 11389 H 1074.35 3.71176 -0.325431 0
M  V30 11390 H 1074.46 4.29839 -2.11601 0
M  V30 11391 H 1072.83 2.32621 -1.03729 0
M  V30 11392 H 1073.61 2.12469 -2.69651 0
M  V30 11393 N 1076.06 0.894434 1.2976 0
M  V30 11394 C 1077.3 0.518435 1.96061 0
M  V30 11395 C 1077.64 -0.931882 1.70381 0
M  V30 11396 O 1076.91 -1.65988 1.01381 0
M  V30 11397 C 1077.19 0.80519 3.50982 0
M  V30 11398 C 1077.05 2.30683 3.86142 0
M  V30 11399 C 1078.37 0.288096 4.39156 0
M  V30 11400 H 1075.48 0.18983 0.712133 0
M  V30 11401 H 1078.13 1.12016 1.53468 0
M  V30 11402 H 1076.28 0.293071 3.87393 0
M  V30 11403 H 1077.95 2.88808 3.59705 0
M  V30 11404 H 1076.19 2.76968 3.33873 0
M  V30 11405 H 1076.86 2.45805 4.94251 0
M  V30 11406 H 1079.34 0.726547 4.09708 0
M  V30 11407 H 1078.21 0.517985 5.4645 0
M  V30 11408 H 1078.48 -0.811018 4.34597 0
M  V30 11409 N 1077.53 -1.43282 0.656365 0
M  V30 11410 C 1078.5 -2.29188 -0.0239173 0
M  V30 11411 C 1079.5 -1.42373 -0.747436 0
M  V30 11412 O 1080.69 -1.63969 -0.588213 0
M  V30 11413 C 1077.82 -3.24501 -1.0446 0
M  V30 11414 H 1079.01 -2.9083 0.731978 0
M  V30 11415 H 1076.57 -1.50614 0.417752 0
M  V30 11416 H 1077.3 -2.6776 -1.82962 0
M  V30 11417 H 1077.09 -3.88509 -0.52942 0
M  V30 11418 H 1078.58 -3.88971 -1.51958 0
M  V30 11419 N 1079.01 -0.398486 -1.52479 0
M  V30 11420 C 1079.96 0.447001 -2.28264 0
M  V30 11421 C 1080.96 1.05511 -1.32529 0
M  V30 11422 O 1082.16 0.994528 -1.5003 0
M  V30 11423 H 1078.54 0.162919 -0.73414 0
M  V30 11424 H 1080.51 -0.213534 -2.97635 0
M  V30 11425 C 1079.26 1.55724 -3.10879 0
M  V30 11426 H 1078.58 1.09864 -3.84409 0
M  V30 11427 H 1080.02 2.12286 -3.67029 0
M  V30 11428 C 1078.48 2.51853 -2.23768 0
M  V30 11429 O 1079.01 3.55483 -1.87069 0
M  V30 11430 N 1077.21 2.2181 -1.87746 0
M  V30 11431 H 1076.76 1.3757 -2.17789 0
M  V30 11432 H 1076.72 2.86376 -1.29753 0
M  V30 11433 N 1080.49 1.57075 -0.12858 0
M  V30 11434 C 1081.9 1.82468 0.39526 0
M  V30 11435 C 1082.25 1.0463 1.65973 0
M  V30 11436 O 1081.38 0.285835 2.14504 0
M  V30 11437 C 1081.97 3.30976 0.723889 0
M  V30 11438 C 1080.53 3.57016 1.19232 0
M  V30 11439 C 1079.68 2.76534 0.205907 0
M  V30 11440 H 1082.63 1.54711 -0.353571 0
M  V30 11441 H 1082.65 3.46127 1.58039 0
M  V30 11442 H 1082.16 3.87602 -0.196595 0
M  V30 11443 H 1080.26 3.05758 2.12938 0
M  V30 11444 H 1080.38 4.65558 1.13103 0
M  V30 11445 H 1078.74 2.45038 0.694872 0
M  V30 11446 H 1079.52 3.35923 -0.707842 0
M  V30 11447 N 1081.97 -0.145205 1.5693 0
M  V30 11448 C 1083.22 -0.858786 1.83719 0
M  V30 11449 C 1083.55 -1.80738 0.710452 0
M  V30 11450 O 1082.82 -1.92389 -0.285791 0
M  V30 11451 C 1083.11 -1.6317 3.2101 0
M  V30 11452 C 1082.96 -0.704472 4.44249 0
M  V30 11453 C 1084.28 -2.59377 3.55544 0
M  V30 11454 H 1081.4 -0.310757 0.66828 0
M  V30 11455 H 1084.04 -0.123918 1.89595 0
M  V30 11456 H 1082.19 -2.25816 3.16132 0
M  V30 11457 H 1083.86 -0.08887 4.61214 0
M  V30 11458 H 1082.1 -0.0141693 4.33798 0
M  V30 11459 H 1082.78 -1.28135 5.36922 0
M  V30 11460 H 1085.25 -2.06848 3.61044 0
M  V30 11461 H 1084.13 -3.10506 4.52634 0
M  V30 11462 H 1084.39 -3.40819 2.81594 0
M  V30 11463 N 1083.45 -1.52049 -0.414609 0
M  V30 11464 C 1084.67 -1.6997 -1.18848 0
M  V30 11465 C 1085.1 -0.406058 -1.83665 0
M  V30 11466 O 1084.46 0.635981 -1.69779 0
M  V30 11467 C 1084.5 -2.8327 -2.23138 0
M  V30 11468 O 1083.61 -2.48457 -3.29155 0
M  V30 11469 H 1082.95 -0.566003 -0.347183 0
M  V30 11470 H 1085.48 -1.98726 -0.486757 0
M  V30 11471 H 1085.49 -3.08022 -2.67557 0
M  V30 11472 H 1084.16 -3.7713 -1.75344 0
M  V30 11473 H 1082.74 -2.34357 -2.90054 0
M  V30 11474 N 1084.93 0.6715 -1.42579 0
M  V30 11475 C 1085.84 1.81435 -1.48723 0
M  V30 11476 C 1086.85 1.69895 -0.375716 0
M  V30 11477 O 1088.03 1.91388 -0.627115 0
M  V30 11478 C 1085.09 3.17599 -1.39038 0
M  V30 11479 C 1084.15 3.41071 -2.60709 0
M  V30 11480 C 1083.39 4.7074 -2.51476 0
M  V30 11481 O 1083.61 5.48868 -1.55243 0
M  V30 11482 O 1082.54 4.95528 -3.41666 0
M  V30 11483 H 1086.37 1.79206 -2.45191 0
M  V30 11484 H 1083.95 0.827666 -1.24379 0
M  V30 11485 H 1085.84 3.98847 -1.3601 0
M  V30 11486 H 1084.51 3.20458 -0.456966 0
M  V30 11487 H 1083.42 2.59659 -2.69311 0
M  V30 11488 H 1084.75 3.43045 -3.5296 0
M  V30 11489 N 1086.4 1.28806 0.908124 0
M  V30 11490 C 1087.65 1.16287 1.65781 0
M  V30 11491 C 1087.98 -0.287389 1.92365 0
M  V30 11492 O 1087.23 -1.22491 1.52625 0
M  V30 11493 C 1087.53 1.91267 3.01914 0
M  V30 11494 C 1087.2 3.41033 2.9497 0
M  V30 11495 C 1085.86 3.81879 2.92783 0
M  V30 11496 C 1088.21 4.36507 2.848 0
M  V30 11497 C 1085.54 5.16529 2.78235 0
M  V30 11498 C 1087.89 5.71237 2.71792 0
M  V30 11499 C 1086.56 6.11351 2.67967 0
M  V30 11500 H 1085.83 0.425526 0.606637 0
M  V30 11501 H 1088.47 1.59646 1.05762 0
M  V30 11502 H 1086.78 1.40474 3.65752 0
M  V30 11503 H 1088.48 1.78992 3.58835 0
M  V30 11504 H 1085.07 3.08561 2.97469 0
M  V30 11505 H 1089.25 4.05909 2.85573 0
M  V30 11506 H 1084.51 5.4673 2.73672 0
M  V30 11507 H 1088.68 6.44872 2.62892 0
M  V30 11508 H 1086.31 7.15637 2.56451 0
M  V30 11509 N 1087.88 -1.11734 1.11145 0
M  V30 11510 C 1088.83 -2.17683 0.766979 0
M  V30 11511 C 1089.8 -1.64051 -0.260108 0
M  V30 11512 O 1090.98 -1.90302 -0.137723 0
M  V30 11513 C 1088.12 -3.44442 0.212982 0
M  V30 11514 C 1087.24 -4.12094 1.29626 0
M  V30 11515 C 1086.37 -5.26526 0.703127 0
M  V30 11516 C 1085.41 -5.86057 1.76647 0
M  V30 11517 N 1084.55 -6.91889 1.19306 0
M  V30 11518 H 1089.39 -2.46495 1.67465 0
M  V30 11519 H 1086.92 -1.21011 0.836353 0
M  V30 11520 H 1088.88 -4.17009 -0.126162 0
M  V30 11521 H 1087.51 -3.16025 -0.657888 0
M  V30 11522 H 1086.56 -3.37631 1.75241 0
M  V30 11523 H 1087.88 -4.52398 2.10089 0
M  V30 11524 H 1087.03 -6.05888 0.313859 0
M  V30 11525 H 1085.77 -4.87519 -0.132856 0
M  V30 11526 H 1084.77 -5.05375 2.16508 0
M  V30 11527 H 1086 -6.27132 2.60543 0
M  V30 11528 H 1083.95 -6.54906 0.378664 0
M  V30 11529 H 1083.86 -7.30832 1.93443 0
M  V30 11530 H 1085.13 -7.75062 0.830578 0
M  V30 11531 N 1089.36 -0.901303 -1.29284 0
M  V30 11532 C 1090.29 -0.396909 -2.30102 0
M  V30 11533 C 1091.27 0.528919 -1.61668 0
M  V30 11534 O 1092.46 0.439306 -1.89166 0
M  V30 11535 C 1089.59 0.375006 -3.45269 0
M  V30 11536 C 1088.54 -0.46054 -4.25515 0
M  V30 11537 C 1087.87 0.438967 -5.32895 0
M  V30 11538 C 1089.17 -1.7113 -4.93469 0
M  V30 11539 H 1090.86 -1.23943 -2.72541 0
M  V30 11540 H 1088.41 -0.597428 -1.31022 0
M  V30 11541 H 1090.36 0.738622 -4.14876 0
M  V30 11542 H 1089.08 1.25132 -3.01678 0
M  V30 11543 H 1087.74 -0.80651 -3.57618 0
M  V30 11544 H 1087.39 1.31346 -4.85548 0
M  V30 11545 H 1087.09 -0.116406 -5.87485 0
M  V30 11546 H 1088.61 0.79874 -6.05353 0
M  V30 11547 H 1090.03 -1.41732 -5.55504 0
M  V30 11548 H 1088.42 -2.20811 -5.57999 0
M  V30 11549 H 1089.49 -2.44636 -4.18666 0
M  V30 11550 N 1090.84 1.42931 -0.663954 0
M  V30 11551 C 1091.79 2.27958 0.0436184 0
M  V30 11552 C 1092.77 1.40493 0.784258 0
M  V30 11553 O 1093.96 1.64035 0.664956 0
M  V30 11554 C 1091.09 3.28357 1.00183 0
M  V30 11555 C 1090.18 4.23308 0.259099 0
M  V30 11556 N 1090.57 5.00502 -0.730182 0
M  V30 11557 C 1088.87 4.43199 0.499061 0
M  V30 11558 C 1089.57 5.69771 -1.17201 0
M  V30 11559 N 1088.54 5.41258 -0.504105 0
M  V30 11560 H 1092.35 2.85061 -0.715348 0
M  V30 11561 H 1089.86 1.54764 -0.492117 0
M  V30 11562 H 1091.86 3.88061 1.52362 0
M  V30 11563 H 1090.52 2.72815 1.76074 0
M  V30 11564 H 1091.53 5.0588 -1.10932 0
M  V30 11565 H 1088.21 3.98713 1.23831 0
M  V30 11566 H 1089.6 6.41718 -1.99117 0
M  V30 11567 N 1092.32 0.406567 1.52266 0
M  V30 11568 C 1093.73 0.0573228 1.59497 0
M  V30 11569 C 1093.93 -1.43005 1.41957 0
M  V30 11570 O 1092.99 -2.19659 1.24523 0
M  V30 11571 C 1094.3 0.549947 2.95628 0
M  V30 11572 C 1095.85 0.5077 3.08855 0
M  V30 11573 C 1096.32 0.976792 4.47463 0
M  V30 11574 N 1097.81 0.933508 4.53696 0
M  V30 11575 C 1098.55 1.26769 5.59211 0
M  V30 11576 N 1098.05 1.6732 6.72292 0
M  V30 11577 N 1099.84 1.18782 5.49406 0
M  V30 11578 H 1091.99 1.37468 1.61914 0
M  V30 11579 H 1094.25 0.564562 0.76156 0
M  V30 11580 H 1093.96 1.58943 3.13736 0
M  V30 11581 H 1093.83 -0.0417767 3.77177 0
M  V30 11582 H 1096.22 -0.522728 2.90433 0
M  V30 11583 H 1096.3 1.13545 2.29219 0
M  V30 11584 H 1095.94 2.00554 4.66627 0
M  V30 11585 H 1095.87 0.325885 5.25591 0
M  V30 11586 H 1098.37 0.635333 3.72521 0
M  V30 11587 H 1098.68 1.91137 7.4879 0
M  V30 11588 H 1097.02 1.71221 6.73579 0
M  V30 11589 H 1100.21 0.869906 4.59946 0
M  V30 11590 H 1100.39 1.45157 6.31533 0
M  V30 11591 N 1093.79 -1.57004 0.136909 0
M  V30 11592 C 1094.74 -2.16246 -0.806607 0
M  V30 11593 C 1095.71 -1.09246 -1.25118 0
M  V30 11594 O 1096.9 -1.3724 -1.32551 0
M  V30 11595 C 1094.04 -2.78031 -2.04433 0
M  V30 11596 C 1093.15 -3.99393 -1.64649 0
M  V30 11597 C 1092.28 -4.49208 -2.83524 0
M  V30 11598 C 1091.32 -5.63059 -2.40064 0
M  V30 11599 N 1090.46 -6.07537 -3.51913 0
M  V30 11600 H 1095.3 -2.9654 -0.294596 0
M  V30 11601 H 1092.84 -1.46491 -0.133705 0
M  V30 11602 H 1094.8 -3.11992 -2.76978 0
M  V30 11603 H 1093.43 -2.00398 -2.53062 0
M  V30 11604 H 1092.48 -3.71477 -0.819077 0
M  V30 11605 H 1093.79 -4.81904 -1.28723 0
M  V30 11606 H 1092.94 -4.85171 -3.64271 0
M  V30 11607 H 1091.68 -3.65683 -3.22688 0
M  V30 11608 H 1090.69 -5.26682 -1.57754 0
M  V30 11609 H 1091.91 -6.48362 -2.01997 0
M  V30 11610 H 1089.86 -5.2695 -3.90717 0
M  V30 11611 H 1089.78 -6.84949 -3.1997 0
M  V30 11612 H 1091.04 -6.48143 -4.33048 0
M  V30 11613 N 1095.27 0.136881 -1.57004 0
M  V30 11614 C 1096.5 0.861186 -1.87796 0
M  V30 11615 C 1096.91 1.74788 -0.724272 0
M  V30 11616 O 1096.25 1.80984 0.31471 0
M  V30 11617 C 1096.32 1.76115 -3.13407 0
M  V30 11618 C 1095.98 1.05059 -4.4476 0
M  V30 11619 C 1096.98 0.399736 -5.18361 0
M  V30 11620 C 1094.66 1.03709 -4.91477 0
M  V30 11621 C 1096.66 -0.255127 -6.36889 0
M  V30 11622 C 1094.34 0.378414 -6.09927 0
M  V30 11623 C 1095.34 -0.266555 -6.8248 0
M  V30 11624 O 1095.03 -0.914757 -7.98679 0
M  V30 11625 H 1094.76 0.253855 -0.626525 0
M  V30 11626 H 1097.31 0.131291 -2.0498 0
M  V30 11627 H 1095.54 2.53224 -2.92257 0
M  V30 11628 H 1097.23 2.3583 -3.30362 0
M  V30 11629 H 1098 0.401909 -4.83332 0
M  V30 11630 H 1093.88 1.52852 -4.34922 0
M  V30 11631 H 1097.42 -0.759135 -6.93457 0
M  V30 11632 H 1093.32 0.373942 -6.44416 0
M  V30 11633 H 1094.09 -0.817437 -8.14408 0
M  V30 11634 N 1096.75 1.52266 0.40654 0
M  V30 11635 C 1098.17 1.41127 0.745348 0
M  V30 11636 C 1098.37 0.517802 1.94733 0
M  V30 11637 O 1097.42 -0.0154286 2.52495 0
M  V30 11638 C 1098.74 2.83696 0.996859 0
M  V30 11639 C 1100.28 2.93056 1.09942 0
M  V30 11640 C 1100.76 4.36599 1.38367 0
M  V30 11641 N 1102.25 4.39845 1.45226 0
M  V30 11642 C 1102.98 5.47975 1.68852 0
M  V30 11643 N 1102.48 6.66219 1.90065 0
M  V30 11644 N 1104.27 5.35494 1.70888 0
M  V30 11645 H 1096.42 2.08888 -0.384632 0
M  V30 11646 H 1098.69 0.941619 -0.109809 0
M  V30 11647 H 1098.39 3.51208 0.185986 0
M  V30 11648 H 1098.27 3.24895 1.91632 0
M  V30 11649 H 1100.65 2.25723 1.90088 0
M  V30 11650 H 1100.74 2.5531 0.158256 0
M  V30 11651 H 1100.38 5.04492 0.587373 0
M  V30 11652 H 1100.31 4.71883 2.33739 0
M  V30 11653 H 1102.8 3.54611 1.30612 0
M  V30 11654 H 1103.11 7.44408 2.0755 0
M  V30 11655 H 1101.46 6.69279 1.87325 0
M  V30 11656 H 1104.65 4.42093 1.53856 0
M  V30 11657 H 1104.82 6.19837 1.88962 0
M  V30 11658 N 1098.23 -0.663929 1.42933 0
M  V30 11659 C 1099.51 -1.42054 1.34462 0
M  V30 11660 C 1099.89 -2.11096 -0.0127801 0
M  V30 11661 O 1099.23 -2.04027 -1.02884 0
M  V30 11662 C 1099.44 -2.41406 2.5204 0
M  V30 11663 C 1100.79 -3.05726 2.94647 0
M  V30 11664 O 1101.82 -2.51733 2.52009 0
M  V30 11665 O 1100.67 -4.03593 3.68477 0
M  V30 11666 H 1097.77 -0.634149 0.530834 0
M  V30 11667 H 1100.31 -0.691738 1.54962 0
M  V30 11668 H 1099.09 -1.89263 3.42484 0
M  V30 11669 H 1098.71 -3.21752 2.33584 0
M  V30 11670 N 1099.71 -1.29285 -0.901281 0
M  V30 11671 C 1100.93 -1.20048 -1.68511 0
M  V30 11672 C 1101.35 0.239128 -1.8728 0
M  V30 11673 O 1100.71 1.16027 -1.40869 0
M  V30 11674 C 1100.76 -1.90798 -3.07048 0
M  V30 11675 O 1100.48 -3.29137 -2.89138 0
M  V30 11676 C 1101.98 -1.88017 -4.01453 0
M  V30 11677 H 1099.2 -0.416157 -0.52636 0
M  V30 11678 H 1101.74 -1.7063 -1.12719 0
M  V30 11679 H 1099.9 -1.44055 -3.5962 0
M  V30 11680 H 1100.31 -3.64747 -3.76908 0
M  V30 11681 H 1101.79 -2.42088 -4.96082 0
M  V30 11682 H 1102.26 -0.855341 -4.30791 0
M  V30 11683 H 1102.87 -2.34497 -3.54812 0
M  V30 11684 N 1101.18 1.11143 -1.11736 0
M  V30 11685 C 1102.11 2.19339 -0.800795 0
M  V30 11686 C 1103.1 1.68508 0.23221 0
M  V30 11687 O 1104.28 1.93967 0.0950063 0
M  V30 11688 C 1101.41 3.46424 -0.246579 0
M  V30 11689 C 1100.36 4.10487 -1.21181 0
M  V30 11690 C 1099.69 5.32183 -0.518158 0
M  V30 11691 C 1100.99 4.55052 -2.56368 0
M  V30 11692 H 1102.68 2.46077 -1.70548 0
M  V30 11693 H 1100.23 1.18271 -0.821454 0
M  V30 11694 H 1102.18 4.21398 -0.0128889 0
M  V30 11695 H 1100.91 3.19154 0.693415 0
M  V30 11696 H 1099.57 3.3751 -1.43118 0
M  V30 11697 H 1099.21 5.01187 0.426742 0
M  V30 11698 H 1098.91 5.75997 -1.16196 0
M  V30 11699 H 1100.44 6.09895 -0.293333 0
M  V30 11700 H 1101.85 5.21335 -2.38501 0
M  V30 11701 H 1100.25 5.0969 -3.16758 0
M  V30 11702 H 1101.32 3.68343 -3.1536 0
M  V30 11703 N 1102.66 0.908147 1.28804 0
M  V30 11704 C 1103.91 0.534332 1.94494 0
M  V30 11705 C 1104.22 -0.92552 1.72318 0
M  V30 11706 O 1105.43 -1.40724 2.32183 0
M  V30 11707 C 1103.89 0.904748 3.48342 0
M  V30 11708 C 1103.49 2.38394 3.79305 0
M  V30 11709 C 1105.24 0.601249 4.2022 0
M  V30 11710 C 1103.15 2.69478 5.26437 0
M  V30 11711 H 1102.08 0.196107 0.728051 0
M  V30 11712 H 1104.73 1.1063 1.46401 0
M  V30 11713 H 1103.11 0.261624 3.95135 0
M  V30 11714 H 1104.28 3.07333 3.43341 0
M  V30 11715 H 1102.6 2.65733 3.20586 0
M  V30 11716 H 1105.19 0.810225 5.28526 0
M  V30 11717 H 1105.54 -0.460669 4.13743 0
M  V30 11718 H 1106.07 1.20259 3.79187 0
M  V30 11719 H 1102.81 3.74501 5.37986 0
M  V30 11720 H 1102.33 2.05171 5.63618 0
M  V30 11721 H 1104.01 2.56187 5.94119 0
M  V30 11722 N 1104.14 -1.42577 0.671525 0
M  V30 11723 C 1105.07 -2.33499 0.00506984 0
M  V30 11724 C 1106.05 -1.50497 -0.792763 0
M  V30 11725 O 1107.24 -1.79109 -0.750574 0
M  V30 11726 C 1104.37 -3.34077 -0.949194 0
M  V30 11727 C 1103.32 -4.27208 -0.260187 0
M  V30 11728 C 1102.65 -5.17968 -1.32716 0
M  V30 11729 C 1103.95 -5.15192 0.858772 0
M  V30 11730 H 1105.64 -2.89477 0.764407 0
M  V30 11731 H 1103.19 -1.39191 0.369043 0
M  V30 11732 H 1105.14 -3.96594 -1.42448 0
M  V30 11733 H 1103.86 -2.76396 -1.73991 0
M  V30 11734 H 1102.52 -3.66082 0.194834 0
M  V30 11735 H 1102.17 -4.56615 -2.10979 0
M  V30 11736 H 1101.87 -5.81104 -0.871293 0
M  V30 11737 H 1103.39 -5.83359 -1.80345 0
M  V30 11738 H 1104.81 -5.71412 0.464844 0
M  V30 11739 H 1103.21 -5.87144 1.24023 0
M  V30 11740 H 1104.28 -4.53787 1.70895 0
M  V30 11741 N 1105.62 -0.414636 -1.52048 0
M  V30 11742 C 1106.57 0.42561 -2.23992 0
M  V30 11743 C 1107.55 1.00894 -1.25337 0
M  V30 11744 O 1108.74 0.930842 -1.50547 0
M  V30 11745 C 1105.87 1.53874 -3.06884 0
M  V30 11746 C 1104.96 0.965913 -4.12954 0
M  V30 11747 N 1105.35 0.12023 -5.05657 0
M  V30 11748 C 1103.65 1.23586 -4.28535 0
M  V30 11749 C 1104.35 -0.199063 -5.81359 0
M  V30 11750 N 1103.33 0.411505 -5.4204 0
M  V30 11751 H 1107.13 -0.226746 -2.93024 0
M  V30 11752 H 1104.64 -0.225376 -1.60829 0
M  V30 11753 H 1106.64 2.15334 -3.56983 0
M  V30 11754 H 1105.3 2.19366 -2.39392 0
M  V30 11755 H 1106.31 -0.244501 -5.17323 0
M  V30 11756 H 1102.99 1.88995 -3.72273 0
M  V30 11757 H 1104.38 -0.88585 -6.66035 0
M  V30 11758 N 1107.1 1.56929 -0.145233 0
M  V30 11759 C 1108.34 1.95681 0.50532 0
M  V30 11760 C 1108.67 1.03098 1.65516 0
M  V30 11761 O 1107.94 0.0921961 1.95683 0
M  V30 11762 H 1106.52 0.72252 0.189668 0
M  V30 11763 H 1109.18 1.93651 -0.220318 0
M  V30 11764 H 1108.27 2.99359 0.882631 0
M  V30 11765 N 1108.58 -0.128553 1.57075 0
M  V30 11766 C 1109.52 -1.15812 1.9964 0
M  V30 11767 C 1110.49 -1.41679 0.86696 0
M  V30 11768 O 1111.68 -1.53705 1.13046 0
M  V30 11769 C 1108.82 -2.48198 2.39774 0
M  V30 11770 C 1107.93 -2.29348 3.66092 0
M  V30 11771 C 1107.07 -3.54898 3.95248 0
M  V30 11772 C 1106.1 -3.31164 5.14779 0
M  V30 11773 N 1105.24 -4.48891 5.39853 0
M  V30 11774 H 1110.08 -0.788136 2.87389 0
M  V30 11775 H 1107.62 -0.377682 1.42169 0
M  V30 11776 H 1109.58 -3.25414 2.61077 0
M  V30 11777 H 1108.21 -2.83108 1.5508 0
M  V30 11778 H 1107.26 -1.43095 3.5246 0
M  V30 11779 H 1108.57 -2.07781 4.53463 0
M  V30 11780 H 1107.72 -4.40536 4.17148 0
M  V30 11781 H 1106.46 -3.79487 3.06335 0
M  V30 11782 H 1105.47 -2.43915 4.92733 0
M  V30 11783 H 1106.69 -3.07954 6.05261 0
M  V30 11784 H 1104.64 -4.73619 4.53895 0
M  V30 11785 H 1104.56 -4.30394 6.21528 0
M  V30 11786 H 1105.82 -5.35691 5.66265 0
M  V30 11787 N 1110.05 -1.5248 -0.398459 0
M  V30 11788 C 1111.3 -1.67309 -1.1461 0
M  V30 11789 C 1111.63 -0.407095 -1.89885 0
M  V30 11790 O 1110.91 0.594834 -1.85181 0
M  V30 11791 C 1111.19 -2.90204 -2.13198 0
M  V30 11792 C 1111.04 -4.26881 -1.4175 0
M  V30 11793 C 1112.36 -3.08634 -3.13741 0
M  V30 11794 H 1109.48 -0.608853 -0.415292 0
M  V30 11795 H 1112.12 -1.85057 -0.430573 0
M  V30 11796 H 1110.27 -2.75204 -2.74218 0
M  V30 11797 H 1111.95 -4.53631 -0.837676 0
M  V30 11798 H 1110.19 -4.27793 -0.719387 0
M  V30 11799 H 1110.86 -5.08939 -2.1374 0
M  V30 11800 H 1113.34 -3.22603 -2.62805 0
M  V30 11801 H 1112.21 -3.96117 -3.79977 0
M  V30 11802 H 1112.47 -2.22425 -3.82073 0
M  V30 11803 N 1111.53 0.65634 -1.43283 0
M  V30 11804 C 1112.49 1.75117 -1.47874 0
M  V30 11805 C 1113.49 1.56629 -0.363846 0
M  V30 11806 O 1114.68 1.62584 -0.625464 0
M  V30 11807 C 1111.82 3.13957 -1.32831 0
M  V30 11808 H 1113.01 1.72429 -2.45374 0
M  V30 11809 H 1110.56 0.867704 -1.30002 0
M  V30 11810 H 1111.3 3.22259 -0.36326 0
M  V30 11811 H 1111.08 3.28781 -2.13649 0
M  V30 11812 H 1112.57 3.93799 -1.38969 0
M  V30 11813 N 1113.01 1.29761 0.894412 0
M  V30 11814 C 1113.92 1.1724 2.03204 0
M  V30 11815 C 1114.94 0.0944452 1.73743 0
M  V30 11816 O 1116.11 0.307549 1.99038 0
M  V30 11817 C 1113.18 0.855416 3.35981 0
M  V30 11818 C 1112.24 2.01777 3.78926 0
M  V30 11819 C 1111.47 1.71581 5.05367 0
M  V30 11820 O 1111.69 0.639245 5.66807 0
M  V30 11821 O 1110.63 2.56539 5.44492 0
M  V30 11822 H 1114.45 2.12787 2.16692 0
M  V30 11823 H 1112.04 1.09264 1.0189 0
M  V30 11824 H 1113.92 0.693429 4.15656 0
M  V30 11825 H 1112.6 -0.0702195 3.23624 0
M  V30 11826 H 1111.5 2.23502 2.99996 0
M  V30 11827 H 1112.84 2.92479 3.95875 0
M  V30 11828 N 1114.49 -1.10549 1.12324 0
M  V30 11829 C 1115.4 -2.20428 0.803032 0
M  V30 11830 C 1116.41 -1.72756 -0.207674 0
M  V30 11831 O 1117.59 -2.01357 -0.0415623 0
M  V30 11832 C 1114.65 -3.45716 0.261032 0
M  V30 11833 C 1113.72 -4.08129 1.33152 0
M  V30 11834 C 1112.95 -5.27436 0.815288 0
M  V30 11835 O 1113.17 -5.69317 -0.351361 0
M  V30 11836 O 1112.11 -5.80674 1.58434 0
M  V30 11837 H 1115.93 -2.50249 1.72073 0
M  V30 11838 H 1113.52 -1.19263 0.899815 0
M  V30 11839 H 1115.4 -4.21384 -0.0364007 0
M  V30 11840 H 1114.07 -3.17525 -0.629249 0
M  V30 11841 H 1112.98 -3.3415 1.6821 0
M  V30 11842 H 1114.31 -4.4052 2.19552 0
M  V30 11843 N 1115.97 -0.914965 -1.28321 0
M  V30 11844 C 1116.93 -0.409024 -2.25521 0
M  V30 11845 C 1117.93 0.465327 -1.5392 0
M  V30 11846 O 1119.12 0.26821 -1.72123 0
M  V30 11847 C 1116.25 0.413452 -3.38383 0
M  V30 11848 H 1117.44 -1.26767 -2.71791 0
M  V30 11849 H 1115 -0.694477 -1.40024 0
M  V30 11850 H 1115.73 1.29145 -2.97476 0
M  V30 11851 H 1115.52 -0.213268 -3.9152 0
M  V30 11852 H 1117.01 0.758232 -4.10659 0
M  V30 11853 N 1117.44 1.42219 -0.679077 0
M  V30 11854 C 1118.35 2.346 -0.00345919 0
M  V30 11855 C 1119.37 1.55327 0.784181 0
M  V30 11856 O 1120.55 1.87878 0.725524 0
M  V30 11857 C 1117.61 3.33905 0.933194 0
M  V30 11858 C 1116.67 4.29073 0.139607 0
M  V30 11859 C 1115.9 5.23634 1.03165 0
M  V30 11860 O 1116.13 5.23234 2.27119 0
M  V30 11861 O 1115.06 5.99901 0.490159 0
M  V30 11862 H 1118.89 2.9392 -0.764525 0
M  V30 11863 H 1116.47 1.42794 -0.439329 0
M  V30 11864 H 1118.35 3.949 1.47077 0
M  V30 11865 H 1117.03 2.77052 1.67404 0
M  V30 11866 H 1115.94 3.71478 -0.442177 0
M  V30 11867 H 1117.27 4.88979 -0.562214 0
M  V30 11868 N 1118.92 0.422693 1.51826 0
M  V30 11869 C 1119.83 -0.40261 2.31119 0
M  V30 11870 C 1120.85 -1.04117 1.39412 0
M  V30 11871 O 1122.02 -1.03973 1.72486 0
M  V30 11872 C 1119.09 -1.49699 3.12716 0
M  V30 11873 C 1118.15 -0.880088 4.20182 0
M  V30 11874 C 1117.38 -1.92232 4.97878 0
M  V30 11875 O 1117.61 -3.14246 4.76031 0
M  V30 11876 O 1116.54 -1.521 5.82365 0
M  V30 11877 H 1120.37 0.244308 3.02716 0
M  V30 11878 H 1117.95 0.185569 1.48243 0
M  V30 11879 H 1119.83 -2.13202 3.63487 0
M  V30 11880 H 1118.51 -2.12826 2.43899 0
M  V30 11881 H 1117.41 -0.207404 3.73525 0
M  V30 11882 H 1118.75 -0.292535 4.9133 0
M  V30 11883 N 1120.4 -1.5685 0.153553 0
M  V30 11884 C 1121.65 -1.95509 -0.495911 0
M  V30 11885 C 1121.96 -1.04129 -1.65579 0
M  V30 11886 O 1123.17 -1.32394 -2.37032 0
M  V30 11887 C 1121.62 -3.47579 -0.933622 0
M  V30 11888 C 1121.23 -4.47555 0.199684 0
M  V30 11889 C 1122.98 -3.95092 -1.55251 0
M  V30 11890 C 1120.88 -5.90843 -0.256663 0
M  V30 11891 H 1119.81 -0.729919 -0.189035 0
M  V30 11892 H 1122.46 -1.81938 0.238947 0
M  V30 11893 H 1120.85 -3.56506 -1.72394 0
M  V30 11894 H 1122.02 -4.50329 0.976744 0
M  V30 11895 H 1120.33 -4.09997 0.727394 0
M  V30 11896 H 1122.93 -4.99588 -1.90567 0
M  V30 11897 H 1123.27 -3.37015 -2.4439 0
M  V30 11898 H 1123.81 -3.89109 -0.826969 0
M  V30 11899 H 1120.55 -6.52753 0.599515 0
M  V30 11900 H 1120.07 -5.91414 -0.999458 0
M  V30 11901 H 1121.75 -6.43131 -0.70649 0
M  V30 11902 N 1121.88 0.120221 -1.57141 0
M  V30 11903 C 1122.83 1.15332 -1.96679 0
M  V30 11904 C 1123.81 1.37134 -0.841607 0
M  V30 11905 O 1125 1.38247 -1.10529 0
M  V30 11906 C 1122.13 2.48021 -2.37361 0
M  V30 11907 C 1121.22 2.29699 -3.5651 0
M  V30 11908 N 1121.61 1.81186 -4.72234 0
M  V30 11909 C 1119.91 2.60359 -3.62118 0
M  V30 11910 C 1120.61 1.76542 -5.54263 0
M  V30 11911 N 1119.58 2.20843 -4.96719 0
M  V30 11912 H 1123.39 0.770763 -2.83613 0
M  V30 11913 H 1120.9 0.327979 -1.59054 0
M  V30 11914 H 1122.9 3.22739 -2.63903 0
M  V30 11915 H 1121.56 2.87036 -1.51791 0
M  V30 11916 H 1122.57 1.50751 -4.95474 0
M  V30 11917 H 1119.25 3.03067 -2.87152 0
M  V30 11918 H 1120.64 1.40298 -6.57089 0
M  V30 11919 N 1123.36 1.52689 0.390367 0
M  V30 11920 C 1124.6 1.67666 1.13553 0
M  V30 11921 C 1124.93 0.415903 1.90001 0
M  V30 11922 O 1124.19 -0.601664 1.86222 0
M  V30 11923 C 1124.49 2.86177 2.14096 0
M  V30 11924 C 1124.15 4.23671 1.54316 0
M  V30 11925 C 1122.81 4.61066 1.37739 0
M  V30 11926 C 1125.17 5.09278 1.1084 0
M  V30 11927 C 1122.49 5.81727 0.76231 0
M  V30 11928 C 1124.85 6.30562 0.507433 0
M  V30 11929 C 1123.51 6.66689 0.328945 0
M  V30 11930 H 1122.78 0.613533 0.415521 0
M  V30 11931 H 1125.43 1.8683 0.420339 0
M  V30 11932 H 1123.73 2.61424 2.9183 0
M  V30 11933 H 1125.43 2.9496 2.7166 0
M  V30 11934 H 1122.02 3.94214 1.68207 0
M  V30 11935 H 1126.2 4.80957 1.2245 0
M  V30 11936 H 1121.46 6.08327 0.612208 0
M  V30 11937 H 1125.63 6.96211 0.162248 0
M  V30 11938 H 1123.26 7.60052 -0.149748 0
M  V30 11939 N 1124.83 -0.648732 1.43629 0
M  V30 11940 C 1125.78 -1.76145 1.49136 0
M  V30 11941 C 1126.75 -1.62569 0.340649 0
M  V30 11942 O 1127.94 -1.82748 0.548435 0
M  V30 11943 C 1125.08 -3.14321 1.42466 0
M  V30 11944 C 1124.19 -3.38999 2.67776 0
M  V30 11945 C 1123.32 -4.67047 2.53062 0
M  V30 11946 C 1122.36 -4.84845 3.7362 0
M  V30 11947 N 1121.5 -6.04155 3.57689 0
M  V30 11948 H 1126.34 -1.70774 2.44213 0
M  V30 11949 H 1123.88 -0.833311 1.2122 0
M  V30 11950 H 1125.84 -3.94206 1.36592 0
M  V30 11951 H 1124.47 -3.18751 0.509666 0
M  V30 11952 H 1123.52 -2.53179 2.83909 0
M  V30 11953 H 1124.83 -3.48035 3.57314 0
M  V30 11954 H 1123.98 -5.55066 2.44922 0
M  V30 11955 H 1122.72 -4.60339 1.61056 0
M  V30 11956 H 1121.73 -3.95261 3.82163 0
M  V30 11957 H 1122.95 -4.9338 4.6664 0
M  V30 11958 H 1120.9 -5.9857 2.6842 0
M  V30 11959 H 1120.82 -6.14169 4.40832 0
M  V30 11960 H 1122.08 -6.94782 3.53409 0
M  V30 11961 N 1126.31 -1.30234 -0.887518 0
M  V30 11962 C 1127.22 -1.18316 -2.02579 0
M  V30 11963 C 1128.24 -0.103658 -1.73691 0
M  V30 11964 O 1129.41 -0.3181 -1.98872 0
M  V30 11965 C 1126.48 -0.873222 -3.35523 0
M  V30 11966 C 1125.54 -2.03783 -3.7785 0
M  V30 11967 C 1124.77 -1.74258 -5.0445 0
M  V30 11968 O 1125 -0.669295 -5.6646 0
M  V30 11969 O 1123.93 -2.59423 -5.43124 0
M  V30 11970 H 1127.76 -2.13933 -2.15561 0
M  V30 11971 H 1125.34 -1.09803 -1.0131 0
M  V30 11972 H 1127.22 -0.715463 -4.15282 0
M  V30 11973 H 1125.9 0.053056 -3.23657 0
M  V30 11974 H 1124.81 -2.2509 -2.98806 0
M  V30 11975 H 1126.14 -2.94574 -3.94318 0
M  V30 11976 N 1127.79 1.09952 -1.12909 0
M  V30 11977 C 1128.72 2.18477 -0.824014 0
M  V30 11978 C 1129.7 1.68744 0.214324 0
M  V30 11979 O 1130.89 1.94057 0.0744281 0
M  V30 11980 C 1128.02 3.46143 -0.283308 0
M  V30 11981 C 1126.97 4.09178 -1.25528 0
M  V30 11982 C 1126.3 5.31604 -0.574574 0
M  V30 11983 C 1127.6 4.52308 -2.6118 0
M  V30 11984 H 1129.29 2.44254 -1.73148 0
M  V30 11985 H 1126.84 1.17394 -0.833952 0
M  V30 11986 H 1128.79 4.21361 -0.057583 0
M  V30 11987 H 1127.51 3.19872 0.659525 0
M  V30 11988 H 1126.17 3.35973 -1.4669 0
M  V30 11989 H 1125.82 5.01611 0.37356 0
M  V30 11990 H 1125.52 5.74732 -1.22299 0
M  V30 11991 H 1127.04 6.0955 -0.358004 0
M  V30 11992 H 1128.46 5.18776 -2.44017 0
M  V30 11993 H 1126.86 5.06302 -3.22147 0
M  V30 11994 H 1127.93 3.64977 -3.19249 0
M  V30 11995 N 1129.27 0.921757 1.27833 0
M  V30 11996 C 1130.68 0.604496 1.76643 0
M  V30 11997 C 1131.03 -0.880294 1.75343 0
M  V30 11998 O 1130.16 -1.68875 1.35315 0
M  V30 11999 C 1130.75 1.09055 3.20768 0
M  V30 12000 C 1129.31 0.824066 3.67268 0
M  V30 12001 C 1128.46 1.25269 2.47392 0
M  V30 12002 H 1131.41 1.10217 1.14184 0
M  V30 12003 H 1131.43 0.435558 3.77999 0
M  V30 12004 H 1130.94 2.17122 3.21682 0
M  V30 12005 H 1129.04 -0.243055 3.71806 0
M  V30 12006 H 1129.15 1.43743 4.57028 0
M  V30 12007 H 1127.52 0.671313 2.45694 0
M  V30 12008 H 1128.3 2.34188 2.5102 0
M  V30 12009 N 1130.75 -1.41857 0.686609 0
M  V30 12010 C 1131.97 -2.06219 0.221037 0
M  V30 12011 C 1132.4 -1.51298 -1.11762 0
M  V30 12012 O 1131.75 -0.636253 -1.69769 0
M  V30 12013 C 1131.8 -3.60153 0.179425 0
M  V30 12014 O 1130.91 -4.03577 -0.848481 0
M  V30 12015 H 1130.25 -0.654787 0.110228 0
M  V30 12016 H 1132.78 -1.81783 0.938948 0
M  V30 12017 H 1132.79 -4.07999 0.00725332 0
M  V30 12018 H 1131.46 -3.99498 1.15647 0
M  V30 12019 H 1130.04 -3.67255 -0.646393 0
M  V30 12020 N 1132.22 -0.430739 -1.51599 0
M  V30 12021 C 1133.19 0.372319 -2.26156 0
M  V30 12022 C 1134.19 0.955338 -1.29344 0
M  V30 12023 O 1135.38 0.830823 -1.53111 0
M  V30 12024 C 1132.51 1.52613 -3.04831 0
M  V30 12025 H 1133.7 -0.280996 -2.98581 0
M  V30 12026 H 1131.26 -0.183749 -1.55216 0
M  V30 12027 H 1131.99 2.21569 -2.36807 0
M  V30 12028 H 1131.78 1.11433 -3.75932 0
M  V30 12029 H 1133.27 2.09366 -3.61325 0
M  V30 12030 N 1133.7 1.56767 -0.161869 0
M  V30 12031 C 1134.95 1.95769 0.485536 0
M  V30 12032 C 1135.26 1.05006 1.65025 0
M  V30 12033 O 1136.47 1.33649 2.36326 0
M  V30 12034 C 1134.93 3.4807 0.915176 0
M  V30 12035 C 1134.53 4.47443 -0.223416 0
M  V30 12036 C 1136.28 3.95909 1.53153 0
M  V30 12037 C 1134.19 5.90971 0.225325 0
M  V30 12038 H 1133.12 0.730911 0.185161 0
M  V30 12039 H 1135.77 1.81808 -0.248592 0
M  V30 12040 H 1134.15 3.57415 1.705 0
M  V30 12041 H 1135.32 4.49805 -1.00061 0
M  V30 12042 H 1133.64 4.09606 -0.749127 0
M  V30 12043 H 1136.23 5.00592 1.87915 0
M  V30 12044 H 1136.58 3.38307 2.42599 0
M  V30 12045 H 1137.11 3.89542 0.806322 0
M  V30 12046 H 1133.85 6.52426 -0.634124 0
M  V30 12047 H 1133.37 5.91936 0.96808 0
M  V30 12048 H 1135.05 6.43497 0.672373 0
M  V30 12049 N 1135.18 -0.111886 1.57202 0
M  V30 12050 C 1136.11 -1.16749 1.96074 0
M  V30 12051 C 1137.09 -1.39735 0.831438 0
M  V30 12052 O 1138.28 -1.53772 1.09025 0
M  V30 12053 C 1135.4 -2.51996 2.26308 0
M  V30 12054 C 1134.45 -2.45394 3.48832 0
M  V30 12055 S 1135.28 -1.8867 5.01163 0
M  V30 12056 C 1136.44 -3.25576 5.34557 0
M  V30 12057 H 1136.67 -0.836033 2.85303 0
M  V30 12058 H 1134.2 -0.318922 1.5107 0
M  V30 12059 H 1136.16 -3.29813 2.44405 0
M  V30 12060 H 1134.82 -2.82317 1.3768 0
M  V30 12061 H 1134.02 -3.45038 3.67376 0
M  V30 12062 H 1133.62 -1.75702 3.30159 0
M  V30 12063 H 1135.91 -4.21807 5.30174 0
M  V30 12064 H 1136.85 -3.11853 6.35731 0
M  V30 12065 H 1137.26 -3.24333 4.62026 0
M  V30 12066 N 1136.66 -1.52894 -0.382264 0
M  V30 12067 C 1138.07 -1.60135 -0.959887 0
M  V30 12068 C 1138.42 -0.458363 -1.90771 0
M  V30 12069 O 1137.55 0.417614 -2.12332 0
M  V30 12070 C 1138.14 -2.90243 -1.74769 0
M  V30 12071 C 1136.7 -2.99874 -2.27491 0
M  V30 12072 C 1135.85 -2.55302 -1.0824 0
M  V30 12073 H 1138.8 -1.57875 -0.161589 0
M  V30 12074 H 1138.82 -2.77108 -2.60751 0
M  V30 12075 H 1138.33 -3.73412 -1.0576 0
M  V30 12076 H 1136.43 -2.21258 -2.99793 0
M  V30 12077 H 1136.54 -4.04643 -2.56516 0
M  V30 12078 H 1134.91 -2.09781 -1.44444 0
M  V30 12079 H 1135.69 -3.40872 -0.407553 0
M  V30 12080 N 1138.14 0.641106 -1.43971 0
M  V30 12081 C 1139.39 1.39807 -1.4594 0
M  V30 12082 C 1139.71 1.94795 -0.0893874 0
M  V30 12083 O 1138.98 1.75175 0.876962 0
M  V30 12084 H 1137.56 0.518908 -0.537349 0
M  V30 12085 H 1140.22 0.755278 -1.79671 0
M  V30 12086 H 1139.31 2.23439 -2.17903 0
M  V30 12087 N 1139.62 1.30703 0.880598 0
M  V30 12088 C 1140.84 1.22843 1.67106 0
M  V30 12089 C 1141.27 -0.204788 1.86982 0
M  V30 12090 O 1140.62 -1.14716 1.40392 0
M  V30 12091 C 1140.67 1.96685 3.02237 0
M  V30 12092 O 1139.78 1.29693 3.91476 0
M  V30 12093 H 1139.12 0.424661 0.51045 0
M  V30 12094 H 1141.65 1.72596 1.09871 0
M  V30 12095 H 1141.66 2.05874 3.52249 0
M  V30 12096 H 1140.33 3.00919 2.8709 0
M  V30 12097 H 1138.91 1.28886 3.49918 0
M  V30 12098 N 1141.09 -1.09351 1.1349 0
M  V30 12099 C 1142 -2.19564 0.826366 0
M  V30 12100 C 1143.02 -1.72967 -0.189339 0
M  V30 12101 O 1144.2 -2.0139 -0.0202033 0
M  V30 12102 C 1141.26 -3.4542 0.297685 0
M  V30 12103 C 1140.32 -4.06694 1.37473 0
M  V30 12104 C 1139.55 -5.26542 0.871183 0
M  V30 12105 O 1139.78 -5.69657 -0.290958 0
M  V30 12106 O 1138.71 -5.78961 1.64584 0
M  V30 12107 H 1142.54 -2.4841 1.74718 0
M  V30 12108 H 1140.12 -1.18302 0.912414 0
M  V30 12109 H 1142 -4.21399 0.00829479 0
M  V30 12110 H 1140.68 -3.18175 -0.595536 0
M  V30 12111 H 1139.59 -3.32347 1.71745 0
M  V30 12112 H 1140.92 -4.38166 2.24212 0
M  V30 12113 N 1142.57 -0.928524 -1.27343 0
M  V30 12114 C 1143.52 -0.426873 -2.26818 0
M  V30 12115 C 1144.49 0.506663 -1.58184 0
M  V30 12116 O 1145.67 0.425641 -1.85992 0
M  V30 12117 C 1142.81 0.313523 -3.43673 0
M  V30 12118 C 1141.93 -0.65422 -4.27018 0
M  V30 12119 C 1141.06 0.106102 -5.31094 0
M  V30 12120 C 1140.1 -0.854293 -6.06109 0
M  V30 12121 N 1139.24 -0.126545 -7.01986 0
M  V30 12122 H 1144.08 -1.28014 -2.69103 0
M  V30 12123 H 1141.61 -0.642515 -1.32326 0
M  V30 12124 H 1143.57 0.75912 -4.10236 0
M  V30 12125 H 1142.2 1.13102 -3.02337 0
M  V30 12126 H 1141.25 -1.21834 -3.60362 0
M  V30 12127 H 1142.57 -1.38817 -4.79094 0
M  V30 12128 H 1141.72 0.611577 -6.0361 0
M  V30 12129 H 1140.46 0.873009 -4.79823 0
M  V30 12130 H 1139.46 -1.37101 -5.32432 0
M  V30 12131 H 1140.69 -1.621 -6.5947 0
M  V30 12132 H 1138.64 0.622102 -6.53044 0
M  V30 12133 H 1138.55 -0.800046 -7.51755 0
M  V30 12134 H 1139.82 0.358251 -7.78676 0
M  V30 12135 N 1144.05 1.41491 -0.694123 0
M  V30 12136 C 1145.3 2.00479 -0.221585 0
M  V30 12137 C 1145.61 1.55605 1.18518 0
M  V30 12138 O 1146.82 2.07143 1.7551 0
M  V30 12139 C 1145.27 3.5824 -0.345264 0
M  V30 12140 C 1144.88 4.12096 -1.7573 0
M  V30 12141 C 1146.63 4.24446 0.0675731 0
M  V30 12142 C 1144.53 5.62286 -1.83271 0
M  V30 12143 H 1143.46 0.749841 -0.0790854 0
M  V30 12144 H 1146.11 1.61987 -0.86211 0
M  V30 12145 H 1144.5 3.94328 0.363487 0
M  V30 12146 H 1145.67 3.8743 -2.49469 0
M  V30 12147 H 1143.98 3.58411 -2.11969 0
M  V30 12148 H 1146.58 5.34691 0.0316485 0
M  V30 12149 H 1146.92 4.01338 1.10606 0
M  V30 12150 H 1147.46 3.93388 -0.59085 0
M  V30 12151 H 1144.2 5.9022 -2.85168 0
M  V30 12152 H 1143.72 5.88883 -1.13914 0
M  V30 12153 H 1145.4 6.27033 -1.59494 0
M  V30 12154 N 1145.53 0.438773 1.51369 0
M  V30 12155 C 1146.94 0.0911416 1.5934 0
M  V30 12156 C 1147.14 -1.39962 1.44958 0
M  V30 12157 O 1146.2 -2.16968 1.29155 0
M  V30 12158 C 1147.51 0.612531 2.94395 0
M  V30 12159 C 1149.06 0.573098 3.07709 0
M  V30 12160 C 1149.54 1.07149 4.4529 0
M  V30 12161 N 1151.03 1.02953 4.51614 0
M  V30 12162 C 1151.76 1.38602 5.56397 0
M  V30 12163 N 1151.26 1.81543 6.68591 0
M  V30 12164 N 1153.05 1.30409 5.46763 0
M  V30 12165 H 1145.2 1.40872 1.58962 0
M  V30 12166 H 1147.46 0.580589 0.749414 0
M  V30 12167 H 1147.17 1.65562 3.10294 0
M  V30 12168 H 1147.04 0.0382375 3.77181 0
M  V30 12169 H 1149.43 -0.461006 2.91477 0
M  V30 12170 H 1149.51 1.18381 2.26759 0
M  V30 12171 H 1149.16 2.10406 4.62268 0
M  V30 12172 H 1149.09 0.437297 5.24781 0
M  V30 12173 H 1151.58 0.714208 3.7109 0
M  V30 12174 H 1151.89 2.06977 7.44567 0
M  V30 12175 H 1150.24 1.8547 6.69795 0
M  V30 12176 H 1153.43 0.967272 4.57997 0
M  V30 12177 H 1153.6 1.5852 6.28312 0
M  V30 12178 N 1147.01 -1.56678 0.170181 0
M  V30 12179 C 1148.42 -1.58512 -0.185999 0
M  V30 12180 C 1148.62 -1.18548 -1.62937 0
M  V30 12181 O 1147.68 -0.896554 -2.36047 0
M  V30 12182 C 1148.99 -3.00554 0.0937842 0
M  V30 12183 C 1150.54 -3.12984 0.0319057 0
M  V30 12184 C 1151.01 -4.57115 0.284664 0
M  V30 12185 N 1152.5 -4.62617 0.2324 0
M  V30 12186 C 1153.24 -5.71988 0.40216 0
M  V30 12187 N 1152.74 -6.89921 0.630915 0
M  V30 12188 N 1154.53 -5.61082 0.338144 0
M  V30 12189 H 1146.68 -1.80944 1.11235 0
M  V30 12190 H 1148.94 -0.838586 0.442128 0
M  V30 12191 H 1148.65 -3.34265 1.09362 0
M  V30 12192 H 1148.52 -3.72151 -0.615118 0
M  V30 12193 H 1150.91 -2.791 -0.958502 0
M  V30 12194 H 1150.99 -2.43825 0.773501 0
M  V30 12195 H 1150.63 -4.91707 1.27227 0
M  V30 12196 H 1150.56 -5.2443 -0.477529 0
M  V30 12197 H 1153.06 -3.7785 0.0611933 0
M  V30 12198 H 1153.37 -7.69153 0.749931 0
M  V30 12199 H 1151.71 -6.91787 0.667516 0
M  V30 12200 H 1154.9 -4.67826 0.16003 0
M  V30 12201 H 1155.08 -6.46265 0.473872 0
M  V30 12202 N 1148.48 0.103547 -1.57259 0
M  V30 12203 C 1149.41 1.12714 -2.04494 0
M  V30 12204 C 1150.39 1.42278 -0.932255 0
M  V30 12205 O 1151.58 1.52453 -1.20298 0
M  V30 12206 C 1148.71 2.44927 -2.46228 0
M  V30 12207 C 1147.66 2.2979 -3.61082 0
M  V30 12208 C 1146.99 3.67105 -3.88765 0
M  V30 12209 C 1148.29 1.7455 -4.9227 0
M  V30 12210 H 1149.98 0.734198 -2.90258 0
M  V30 12211 H 1147.53 0.351725 -1.39638 0
M  V30 12212 H 1149.48 3.16798 -2.77879 0
M  V30 12213 H 1148.21 2.8614 -1.57453 0
M  V30 12214 H 1146.87 1.60366 -3.29664 0
M  V30 12215 H 1146.51 4.05831 -2.97171 0
M  V30 12216 H 1146.21 3.57825 -4.66084 0
M  V30 12217 H 1147.74 4.40456 -4.22884 0
M  V30 12218 H 1149.15 2.36253 -5.22358 0
M  V30 12219 H 1147.55 1.76051 -5.73695 0
M  V30 12220 H 1148.62 0.704242 -4.79759 0
M  V30 12221 N 1149.96 1.53094 0.37415 0
M  V30 12222 C 1151.21 1.69111 1.11934 0
M  V30 12223 C 1151.54 0.437252 1.89213 0
M  V30 12224 O 1150.82 -0.565298 1.86104 0
M  V30 12225 C 1151.1 2.93559 2.08554 0
M  V30 12226 C 1150.95 4.29082 1.3494 0
M  V30 12227 C 1152.27 3.13586 3.08791 0
M  V30 12228 H 1149.39 0.615383 0.405553 0
M  V30 12229 H 1152.03 1.85719 0.401078 0
M  V30 12230 H 1150.18 2.79531 2.69805 0
M  V30 12231 H 1151.85 4.54906 0.765402 0
M  V30 12232 H 1150.1 4.28884 0.651238 0
M  V30 12233 H 1150.77 5.12275 2.05616 0
M  V30 12234 H 1153.24 3.26743 2.57639 0
M  V30 12235 H 1152.12 4.02112 3.73627 0
M  V30 12236 H 1152.38 2.28475 3.78486 0
M  V30 12237 N 1151.44 -0.633461 1.44309 0
M  V30 12238 C 1152.35 -1.77428 1.53481 0
M  V30 12239 C 1153.37 -1.68839 0.420628 0
M  V30 12240 O 1154.54 -1.89658 0.677638 0
M  V30 12241 C 1151.61 -3.13801 1.47409 0
M  V30 12242 C 1150.67 -3.34039 2.6966 0
M  V30 12243 C 1149.9 -4.63907 2.63868 0
M  V30 12244 O 1150.12 -5.44559 1.69741 0
M  V30 12245 O 1149.06 -4.86295 3.54684 0
M  V30 12246 H 1152.88 -1.72642 2.49857 0
M  V30 12247 H 1150.47 -0.794399 1.26529 0
M  V30 12248 H 1152.35 -3.95101 1.46537 0
M  V30 12249 H 1151.03 -3.19134 0.541769 0
M  V30 12250 H 1149.93 -2.52427 2.761 0
M  V30 12251 H 1151.27 -3.33566 3.61931 0
M  V30 12252 N 1152.92 -1.31168 -0.873655 0
M  V30 12253 C 1154.16 -1.20821 -1.62881 0
M  V30 12254 C 1154.5 0.233994 -1.92785 0
M  V30 12255 O 1153.77 1.16588 -1.55684 0
M  V30 12256 C 1154.06 -2.04875 -2.96139 0
M  V30 12257 C 1153.91 -3.57375 -2.73136 0
M  V30 12258 C 1155.23 -1.8953 -3.97198 0
M  V30 12259 H 1152.35 -0.44026 -0.59105 0
M  V30 12260 H 1154.99 -1.6092 -1.01019 0
M  V30 12261 H 1153.14 -1.70806 -3.48938 0
M  V30 12262 H 1154.81 -4.01561 -2.27038 0
M  V30 12263 H 1153.05 -3.8099 -2.07434 0
M  V30 12264 H 1153.72 -4.1149 -3.6794 0
M  V30 12265 H 1156.2 -2.19337 -3.53596 0
M  V30 12266 H 1155.08 -2.5065 -4.8833 0
M  V30 12267 H 1155.34 -0.857576 -4.33703 0
M  V30 12268 N 1154.4 1.08748 -1.14068 0
M  V30 12269 C 1155.33 2.17591 -0.84714 0
M  V30 12270 C 1156.31 1.68962 0.196415 0
M  V30 12271 O 1157.49 1.94125 0.0538415 0
M  V30 12272 C 1154.62 3.45823 -0.320005 0
M  V30 12273 C 1153.58 4.07824 -1.2986 0
M  V30 12274 C 1152.9 5.30965 -0.630925 0
M  V30 12275 C 1154.2 4.49512 -2.65963 0
M  V30 12276 H 1155.9 2.42404 -1.75729 0
M  V30 12277 H 1153.44 1.16502 -0.846356 0
M  V30 12278 H 1155.4 4.21276 -0.102271 0
M  V30 12279 H 1154.12 3.20553 0.625561 0
M  V30 12280 H 1152.78 3.34398 -1.50245 0
M  V30 12281 H 1152.43 5.01979 0.320337 0
M  V30 12282 H 1152.13 5.73402 -1.28388 0
M  V30 12283 H 1153.65 6.09136 -0.422635 0
M  V30 12284 H 1155.06 5.16159 -2.49506 0
M  V30 12285 H 1153.46 5.02857 -3.27498 0
M  V30 12286 H 1154.53 3.6157 -3.23102 0
M  V30 12287 N 1155.87 0.935264 1.26849 0
M  V30 12288 C 1157.29 0.636661 1.46352 0
M  V30 12289 C 1157.49 -0.811823 1.84423 0
M  V30 12290 O 1156.55 -1.58902 1.9623 0
M  V30 12291 C 1157.86 1.59301 2.55036 0
M  V30 12292 C 1159.41 1.60207 2.68892 0
M  V30 12293 C 1159.88 2.54558 3.80742 0
M  V30 12294 N 1161.37 2.52809 3.88126 0
M  V30 12295 C 1162.11 3.225 4.74111 0
M  V30 12296 N 1161.6 4.01598 5.64527 0
M  V30 12297 N 1163.4 3.11481 4.67906 0
M  V30 12298 H 1155.55 1.8716 1.00423 0
M  V30 12299 H 1157.81 0.803968 0.502334 0
M  V30 12300 H 1157.52 2.62671 2.33874 0
M  V30 12301 H 1157.39 1.34052 3.52576 0
M  V30 12302 H 1159.78 0.575649 2.89431 0
M  V30 12303 H 1159.86 1.89508 1.71815 0
M  V30 12304 H 1159.5 3.57314 3.60956 0
M  V30 12305 H 1159.43 2.22549 4.77263 0
M  V30 12306 H 1161.92 1.9537 3.2348 0
M  V30 12307 H 1162.24 4.51742 6.27016 0
M  V30 12308 H 1160.58 4.057 5.64298 0
M  V30 12309 H 1163.77 2.49175 3.9627 0
M  V30 12310 H 1163.95 3.66064 5.34697 0
M  V30 12311 N 1157.35 -1.41121 0.701616 0
M  V30 12312 C 1158.58 -2.05452 0.244365 0
M  V30 12313 C 1159 -1.5282 -1.10866 0
M  V30 12314 O 1158.35 -0.67893 -1.69401 0
M  V30 12315 C 1158.4 -3.60946 0.200112 0
M  V30 12316 O 1158.12 -4.11632 1.4997 0
M  V30 12317 C 1159.63 -4.42431 -0.277394 0
M  V30 12318 H 1156.85 -0.66151 0.112453 0
M  V30 12319 H 1159.39 -1.80784 0.9559 0
M  V30 12320 H 1157.54 -3.84632 -0.462287 0
M  V30 12321 H 1157.96 -5.05723 1.39084 0
M  V30 12322 H 1159.43 -5.514 -0.257225 0
M  V30 12323 H 1159.91 -4.1898 -1.31728 0
M  V30 12324 H 1160.52 -4.23822 0.354223 0
M  V30 12325 N 1158.83 -0.446794 -1.51134 0
M  V30 12326 C 1160.11 0.176892 -1.94798 0
M  V30 12327 C 1160.49 1.59229 -1.38598 0
M  V30 12328 O 1159.84 2.21097 -0.576905 0
M  V30 12329 C 1160.05 0.145 -3.48699 0
M  V30 12330 C 1161.39 0.345917 -4.23189 0
M  V30 12331 O 1162.42 0.222691 -3.55503 0
M  V30 12332 O 1161.28 0.592112 -5.43283 0
M  V30 12333 H 1158.37 0.12486 -0.81752 0
M  V30 12334 H 1160.92 -0.505453 -1.61998 0
M  V30 12335 H 1159.69 -0.844156 -3.82086 0
M  V30 12336 H 1159.31 0.869851 -3.87968 0
M  V30 12337 N 1160.31 1.56586 -0.178487 0
M  V30 12338 C 1161.55 1.9739 0.465306 0
M  V30 12339 C 1161.89 1.06474 1.6241 0
M  V30 12340 O 1161.16 0.113316 1.9417 0
M  V30 12341 C 1161.45 3.47577 0.941408 0
M  V30 12342 C 1161.3 4.49271 -0.218054 0
M  V30 12343 C 1162.62 4.01038 1.81263 0
M  V30 12344 H 1159.74 0.717676 0.167663 0
M  V30 12345 H 1162.38 1.88128 -0.266067 0
M  V30 12346 H 1160.53 3.556 1.56463 0
M  V30 12347 H 1162.2 4.53301 -0.855332 0
M  V30 12348 H 1160.44 4.24936 -0.872441 0
M  V30 12349 H 1161.11 5.51776 0.157315 0
M  V30 12350 H 1163.59 3.9569 1.28718 0
M  V30 12351 H 1162.47 5.06526 2.11476 0
M  V30 12352 H 1162.73 3.45288 2.76096 0
M  V30 12353 N 1161.79 -0.095206 1.57312 0
M  V30 12354 C 1163.04 -0.797417 1.85268 0
M  V30 12355 C 1163.35 -1.79903 0.767733 0
M  V30 12356 O 1164.55 -2.54914 0.934409 0
M  V30 12357 C 1163.01 -1.469 3.28555 0
M  V30 12358 C 1162.62 -0.507152 4.4512 0
M  V30 12359 C 1164.36 -2.15494 3.65735 0
M  V30 12360 C 1162.27 -1.18331 5.79441 0
M  V30 12361 H 1161.2 -0.301552 0.691074 0
M  V30 12362 H 1163.85 -0.0503584 1.83431 0
M  V30 12363 H 1162.23 -2.26351 3.24933 0
M  V30 12364 H 1163.41 0.255858 4.60089 0
M  V30 12365 H 1161.72 0.0730882 4.16336 0
M  V30 12366 H 1164.32 -2.66816 4.63371 0
M  V30 12367 H 1164.66 -2.94383 2.94354 0
M  V30 12368 H 1165.19 -1.42903 3.71246 0
M  V30 12369 H 1161.93 -0.435238 6.54053 0
M  V30 12370 H 1161.45 -1.91775 5.68315 0
M  V30 12371 H 1163.13 -1.70983 6.23998 0
M  V30 12372 N 1163.26 -1.53291 -0.366026 0
M  V30 12373 C 1164.68 -1.43053 -0.707669 0
M  V30 12374 C 1164.88 -0.56925 -1.93292 0
M  V30 12375 O 1163.94 -0.0515214 -2.52447 0
M  V30 12376 C 1165.25 -2.86239 -0.921292 0
M  V30 12377 C 1166.8 -2.95868 -1.02133 0
M  V30 12378 C 1167.27 -4.40114 -1.26743 0
M  V30 12379 N 1168.76 -4.43541 -1.33514 0
M  V30 12380 C 1169.5 -5.52259 -1.54264 0
M  V30 12381 N 1168.99 -6.71024 -1.72335 0
M  V30 12382 N 1170.79 -5.39836 -1.5663 0
M  V30 12383 H 1162.94 -2.07795 0.43988 0
M  V30 12384 H 1165.2 -0.938376 0.134736 0
M  V30 12385 H 1164.91 -3.51578 -0.0928042 0
M  V30 12386 H 1164.78 -3.29862 -1.82951 0
M  V30 12387 H 1167.17 -2.30683 -1.84036 0
M  V30 12388 H 1167.25 -2.5564 -0.0905097 0
M  V30 12389 H 1166.89 -5.05872 -0.453409 0
M  V30 12390 H 1166.82 -4.77914 -2.21146 0
M  V30 12391 H 1169.31 -3.57949 -1.21165 0
M  V30 12392 H 1169.63 -7.49649 -1.8774 0
M  V30 12393 H 1167.97 -6.7401 -1.69514 0
M  V30 12394 H 1171.16 -4.46017 -1.4208 0
M  V30 12395 H 1171.34 -6.24629 -1.72461 0
M  V30 12396 N 1164.74 0.6258 -1.44643 0
M  V30 12397 C 1165.99 1.38251 -1.47414 0
M  V30 12398 C 1166.31 1.94689 -0.110043 0
M  V30 12399 O 1165.58 1.76095 0.858333 0
M  V30 12400 H 1164.16 0.513179 -0.542823 0
M  V30 12401 H 1166.82 0.736179 -1.80462 0
M  V30 12402 H 1165.92 2.21115 -2.2026 0
M  V30 12403 N 1166.22 1.31629 0.866686 0
M  V30 12404 C 1167.15 1.22151 1.99001 0
M  V30 12405 C 1168.13 0.107972 1.69757 0
M  V30 12406 O 1169.32 0.293125 1.91975 0
M  V30 12407 C 1166.45 0.93144 3.34577 0
M  V30 12408 C 1165.4 2.0049 3.78137 0
M  V30 12409 C 1164.73 1.56747 5.11209 0
M  V30 12410 C 1166.03 3.41844 3.94892 0
M  V30 12411 H 1167.72 2.16132 2.0719 0
M  V30 12412 H 1165.27 1.04051 0.995463 0
M  V30 12413 H 1167.22 0.851719 4.12703 0
M  V30 12414 H 1165.94 -0.0440289 3.2657 0
M  V30 12415 H 1164.6 2.07457 3.02253 0
M  V30 12416 H 1164.25 0.579767 4.99648 0
M  V30 12417 H 1163.95 2.28562 5.41326 0
M  V30 12418 H 1165.47 1.50188 5.91841 0
M  V30 12419 H 1166.89 3.37534 4.63405 0
M  V30 12420 H 1165.29 4.11905 4.36411 0
M  V30 12421 H 1166.36 3.82389 2.98172 0
M  V30 12422 N 1167.7 -1.08142 1.14644 0
M  V30 12423 C 1168.95 -1.80225 0.914517 0
M  V30 12424 C 1169.27 -1.86778 -0.560269 0
M  V30 12425 O 1168.54 -1.36284 -1.40724 0
M  V30 12426 H 1167.12 -0.667492 0.335356 0
M  V30 12427 H 1169.78 -1.30729 1.44554 0
M  V30 12428 H 1168.88 -2.82958 1.31685 0
M  V30 12429 N 1169.18 -0.941978 -1.26351 0
M  V30 12430 C 1170.42 -0.590845 -1.94002 0
M  V30 12431 C 1170.76 0.868004 -1.73722 0
M  V30 12432 O 1170.03 1.62111 -1.07472 0
M  V30 12433 C 1170.31 -0.934901 -3.47752 0
M  V30 12434 C 1170.17 -2.44855 -3.77314 0
M  V30 12435 C 1171.49 -0.450888 -4.37784 0
M  V30 12436 H 1168.61 -0.21613 -0.704597 0
M  V30 12437 H 1171.25 -1.17634 -1.49205 0
M  V30 12438 H 1169.4 -0.436648 -3.86038 0
M  V30 12439 H 1171.07 -3.01959 -3.48738 0
M  V30 12440 H 1169.31 -2.89169 -3.23363 0
M  V30 12441 H 1169.98 -2.6398 -4.84787 0
M  V30 12442 H 1172.46 -0.878107 -4.06729 0
M  V30 12443 H 1171.34 -0.720439 -5.44152 0
M  V30 12444 H 1171.6 0.649162 -4.37308 0
M  V30 12445 N 1170.66 1.40747 -0.709091 0
M  V30 12446 C 1171.59 2.29196 -0.0130359 0
M  V30 12447 C 1172.6 1.45491 0.730487 0
M  V30 12448 O 1173.79 1.6885 0.578944 0
M  V30 12449 C 1170.89 3.23632 1.00577 0
M  V30 12450 C 1170.06 4.3616 0.329105 0
M  V30 12451 C 1169.12 5.11079 1.25239 0
M  V30 12452 O 1168.15 5.64374 0.739641 0
M  V30 12453 N 1169.35 5.1982 2.58394 0
M  V30 12454 H 1172.11 2.89574 -0.772462 0
M  V30 12455 H 1169.68 1.52046 -0.556197 0
M  V30 12456 H 1171.67 3.70622 1.62546 0
M  V30 12457 H 1170.24 2.64467 1.66661 0
M  V30 12458 H 1169.46 3.9138 -0.470683 0
M  V30 12459 H 1170.75 5.08605 -0.140856 0
M  V30 12460 H 1170.14 4.77992 3.02556 0
M  V30 12461 H 1168.7 5.7034 3.15524 0
M  V30 12462 N 1172.13 0.454803 1.50895 0
M  V30 12463 C 1173.06 -0.337982 2.31041 0
M  V30 12464 C 1174.04 -1.00523 1.37219 0
M  V30 12465 O 1175.23 -1.00553 1.66141 0
M  V30 12466 C 1172.36 -1.42964 3.1651 0
M  V30 12467 C 1171.31 -0.884907 4.18752 0
M  V30 12468 C 1170.64 -2.07363 4.92854 0
M  V30 12469 C 1171.94 0.0926716 5.22218 0
M  V30 12470 H 1173.63 0.33089 2.97566 0
M  V30 12471 H 1171.18 0.160577 1.43102 0
M  V30 12472 H 1173.13 -1.9916 3.71367 0
M  V30 12473 H 1171.86 -2.12705 2.47839 0
M  V30 12474 H 1170.52 -0.345031 3.64973 0
M  V30 12475 H 1170.16 -2.75764 4.2067 0
M  V30 12476 H 1169.86 -1.71545 5.62002 0
M  V30 12477 H 1171.39 -2.6408 5.5054 0
M  V30 12478 H 1172.8 -0.379568 5.72042 0
M  V30 12479 H 1171.2 0.3643 5.98993 0
M  V30 12480 H 1172.27 1.02383 4.73968 0
M  V30 12481 N 1173.61 -1.56489 0.186789 0
M  V30 12482 C 1174.54 -2.21705 -0.732739 0
M  V30 12483 C 1175.52 -1.17751 -1.22755 0
M  V30 12484 O 1176.71 -1.46231 -1.27789 0
M  V30 12485 C 1173.84 -2.86992 -1.95584 0
M  V30 12486 C 1172.79 -3.97118 -1.59628 0
M  V30 12487 C 1172.12 -4.49529 -2.89531 0
M  V30 12488 C 1173.42 -5.15941 -0.812518 0
M  V30 12489 H 1175.11 -2.98802 -0.189094 0
M  V30 12490 H 1172.66 -1.43722 -0.0895099 0
M  V30 12491 H 1174.61 -3.31295 -2.60426 0
M  V30 12492 H 1173.33 -2.07287 -2.52388 0
M  V30 12493 H 1171.99 -3.53494 -0.971475 0
M  V30 12494 H 1171.64 -3.66596 -3.44407 0
M  V30 12495 H 1171.34 -5.23832 -2.66221 0
M  V30 12496 H 1172.87 -4.96528 -3.55376 0
M  V30 12497 H 1174.28 -5.56841 -1.36386 0
M  V30 12498 H 1172.68 -5.96259 -0.677862 0
M  V30 12499 H 1173.75 -4.84535 0.188095 0
M  V30 12500 N 1175.09 0.086862 -1.5736 0
M  V30 12501 C 1176 1.12297 -2.05977 0
M  V30 12502 C 1177.02 1.43347 -0.986284 0
M  V30 12503 O 1178.19 1.53825 -1.3 0
M  V30 12504 C 1175.26 2.42131 -2.4814 0
M  V30 12505 C 1174.32 2.18189 -3.69719 0
M  V30 12506 C 1173.55 3.41833 -4.09861 0
M  V30 12507 O 1173.77 4.50383 -3.50016 0
M  V30 12508 O 1172.71 3.30934 -5.02759 0
M  V30 12509 H 1176.53 0.740012 -2.94546 0
M  V30 12510 H 1174.12 0.29995 -1.46358 0
M  V30 12511 H 1176 3.18568 -2.75848 0
M  V30 12512 H 1174.68 2.79837 -1.62705 0
M  V30 12513 H 1173.58 1.39506 -3.47115 0
M  V30 12514 H 1174.92 1.85372 -4.55959 0
M  V30 12515 N 1176.57 1.53483 0.357892 0
M  V30 12516 C 1177.5 1.76757 1.4591 0
M  V30 12517 C 1178.51 0.648502 1.49326 0
M  V30 12518 O 1179.7 0.924932 1.52667 0
M  V30 12519 C 1176.8 1.83938 2.8464 0
M  V30 12520 C 1175.97 3.13683 3.04831 0
M  V30 12521 C 1175.03 3.12007 4.23719 0
M  V30 12522 O 1174.06 3.8578 4.18524 0
M  V30 12523 N 1175.26 2.33366 5.31527 0
M  V30 12524 H 1178.03 2.71778 1.2632 0
M  V30 12525 H 1175.59 1.52355 0.547673 0
M  V30 12526 H 1177.58 1.80285 3.62325 0
M  V30 12527 H 1176.15 0.961675 2.9744 0
M  V30 12528 H 1175.37 3.30576 2.14739 0
M  V30 12529 H 1176.66 3.99412 3.15194 0
M  V30 12530 H 1176.06 1.72954 5.38613 0
M  V30 12531 H 1174.61 2.35524 6.07759 0
M  V30 12532 N 1178.05 -0.61812 1.44973 0
M  V30 12533 C 1179.29 -1.37944 1.48658 0
M  V30 12534 C 1179.62 -1.93805 0.123749 0
M  V30 12535 O 1178.9 -1.74434 -0.860401 0
M  V30 12536 C 1179.18 -2.53515 2.55739 0
M  V30 12537 C 1179.04 -2.02918 4.01428 0
M  V30 12538 C 1180.35 -3.55674 2.59199 0
M  V30 12539 H 1177.47 -0.500223 0.541244 0
M  V30 12540 H 1180.12 -0.69774 1.76725 0
M  V30 12541 H 1178.27 -3.11669 2.31937 0
M  V30 12542 H 1179.94 -1.49494 4.36405 0
M  V30 12543 H 1178.18 -1.33999 4.12586 0
M  V30 12544 H 1178.85 -2.86181 4.72021 0
M  V30 12545 H 1181.33 -3.07343 2.80499 0
M  V30 12546 H 1180.2 -4.34042 3.36004 0
M  V30 12547 H 1180.46 -4.10601 1.63888 0
M  V30 12548 N 1179.52 -1.32087 -0.859693 0
M  V30 12549 C 1180.75 -1.25167 -1.64368 0
M  V30 12550 C 1181.16 0.183572 -1.88307 0
M  V30 12551 O 1180.5 1.12945 -1.44876 0
M  V30 12552 C 1180.57 -1.93641 -3.02892 0
M  V30 12553 C 1180.23 -3.4298 -3.02017 0
M  V30 12554 C 1181.23 -4.38551 -2.79229 0
M  V30 12555 C 1178.91 -3.84835 -3.22812 0
M  V30 12556 C 1180.91 -5.73952 -2.77232 0
M  V30 12557 C 1178.59 -5.20346 -3.20442 0
M  V30 12558 C 1179.59 -6.14716 -2.97681 0
M  V30 12559 O 1179.28 -7.47748 -2.95175 0
M  V30 12560 H 1179.01 -0.433327 -0.518848 0
M  V30 12561 H 1181.57 -1.7468 -1.08055 0
M  V30 12562 H 1179.8 -1.3869 -3.60974 0
M  V30 12563 H 1181.48 -1.80497 -3.63559 0
M  V30 12564 H 1182.25 -4.07542 -2.62935 0
M  V30 12565 H 1178.13 -3.11806 -3.39555 0
M  V30 12566 H 1181.67 -6.47584 -2.59385 0
M  V30 12567 H 1177.57 -5.50987 -3.36279 0
M  V30 12568 H 1178.34 -7.57046 -3.11165 0
M  V30 12569 N 1181 1.07532 -1.15215 0
M  V30 12570 C 1182.28 1.76813 -0.83646 0
M  V30 12571 C 1182.66 2.00242 0.6683 0
M  V30 12572 O 1182.01 1.61941 1.61206 0
M  V30 12573 C 1182.22 3.0779 -1.64519 0
M  V30 12574 C 1183.56 3.82168 -1.85022 0
M  V30 12575 O 1184.59 3.17596 -1.61279 0
M  V30 12576 O 1183.45 4.98135 -2.24775 0
M  V30 12577 H 1180.54 0.767736 -0.307426 0
M  V30 12578 H 1183.09 1.13914 -1.25784 0
M  V30 12579 H 1181.86 2.86342 -2.6669 0
M  V30 12580 H 1181.48 3.78419 -1.22002 0
M  V30 12581 N 1182.48 0.948665 1.2585 0
M  V30 12582 C 1183.41 0.482036 2.2847 0
M  V30 12583 C 1184.39 -0.468553 1.63519 0
M  V30 12584 O 1185.58 -0.368796 1.90666 0
M  V30 12585 C 1182.71 -0.246603 3.46423 0
M  V30 12586 C 1181.66 0.61815 4.23513 0
M  V30 12587 C 1180.99 -0.240884 5.34157 0
M  V30 12588 C 1182.29 1.89327 4.86778 0
M  V30 12589 H 1183.98 1.33973 2.67753 0
M  V30 12590 H 1181.53 0.645645 1.28715 0
M  V30 12591 H 1183.48 -0.584135 4.17332 0
M  V30 12592 H 1182.2 -1.13849 3.06114 0
M  V30 12593 H 1180.86 0.938682 3.54379 0
M  V30 12594 H 1180.51 -1.13235 4.90089 0
M  V30 12595 H 1180.21 0.334367 5.86648 0
M  V30 12596 H 1181.73 -0.573517 6.07901 0
M  V30 12597 H 1183.15 1.62252 5.49861 0
M  V30 12598 H 1181.55 2.41369 5.49419 0
M  V30 12599 H 1182.62 2.60006 4.09298 0
M  V30 12600 N 1183.96 -1.40369 0.716545 0
M  V30 12601 C 1184.89 -2.33365 0.0793533 0
M  V30 12602 C 1185.87 -1.52943 -0.744482 0
M  V30 12603 O 1187.05 -1.81406 -0.693212 0
M  V30 12604 C 1184.18 -3.36928 -0.842429 0
M  V30 12605 C 1183.14 -4.2782 -0.124142 0
M  V30 12606 C 1182.46 -5.21928 -1.1617 0
M  V30 12607 C 1183.76 -5.12199 1.02224 0
M  V30 12608 H 1185.46 -2.86899 0.856115 0
M  V30 12609 H 1183 -1.37946 0.413138 0
M  V30 12610 H 1184.96 -4.00925 -1.29759 0
M  V30 12611 H 1183.68 -2.81791 -1.6511 0
M  V30 12612 H 1182.34 -3.65277 0.311201 0
M  V30 12613 H 1181.99 -4.63096 -1.96345 0
M  V30 12614 H 1181.69 -5.83582 -0.685978 0
M  V30 12615 H 1183.21 -5.88802 -1.61694 0
M  V30 12616 H 1184.63 -5.69644 0.646399 0
M  V30 12617 H 1183.02 -5.82901 1.4264 0
M  V30 12618 H 1184.09 -4.4812 1.85246 0
M  V30 12619 N 1185.44 -0.462799 -1.50652 0
M  V30 12620 C 1186.35 0.341191 -2.32106 0
M  V30 12621 C 1187.36 1.00384 -1.42123 0
M  V30 12622 O 1188.54 0.993635 -1.75182 0
M  V30 12623 C 1185.6 1.41356 -3.16575 0
M  V30 12624 C 1184.66 0.768375 -4.22368 0
M  V30 12625 C 1183.9 1.78964 -5.028 0
M  V30 12626 O 1184.12 3.01515 -4.84195 0
M  V30 12627 O 1183.05 1.36606 -5.86193 0
M  V30 12628 H 1186.88 -0.324482 -3.01962 0
M  V30 12629 H 1184.47 -0.224807 -1.47699 0
M  V30 12630 H 1186.35 2.0349 -3.69012 0
M  V30 12631 H 1185.02 2.06285 -2.49456 0
M  V30 12632 H 1183.93 0.108297 -3.73943 0
M  V30 12633 H 1185.26 0.162164 -4.91933 0
M  V30 12634 N 1186.91 1.56388 -0.195085 0
M  V30 12635 C 1187.82 2.22698 0.737743 0
M  V30 12636 C 1188.84 1.22605 1.23466 0
M  V30 12637 O 1190.02 1.55342 1.28183 0
M  V30 12638 C 1187.08 2.87333 1.94011 0
M  V30 12639 C 1186.14 4.02696 1.48776 0
M  V30 12640 C 1185.38 4.64239 2.63282 0
M  V30 12641 O 1185.6 4.24706 3.80763 0
M  V30 12642 O 1184.53 5.53705 2.35996 0
M  V30 12643 H 1188.36 3.03021 0.203013 0
M  V30 12644 H 1185.94 1.49361 0.0342044 0
M  V30 12645 H 1187.83 3.28226 2.64284 0
M  V30 12646 H 1186.5 2.0999 2.46345 0
M  V30 12647 H 1185.41 3.66426 0.753839 0
M  V30 12648 H 1186.74 4.81703 1.01109 0
M  V30 12649 N 1188.39 -0.0785156 1.57404 0
M  V30 12650 C 1189.3 -1.11203 2.0657 0
M  V30 12651 C 1190.32 -1.42822 0.993872 0
M  V30 12652 O 1191.49 -1.53133 1.30814 0
M  V30 12653 C 1188.56 -2.40812 2.4942 0
M  V30 12654 C 1187.62 -2.16225 3.70871 0
M  V30 12655 C 1186.85 -3.39654 4.11668 0
M  V30 12656 O 1187.08 -4.48521 3.524 0
M  V30 12657 O 1186.01 -3.28263 5.04507 0
M  V30 12658 H 1189.84 -0.724381 2.94935 0
M  V30 12659 H 1187.42 -0.292184 1.46515 0
M  V30 12660 H 1189.3 -3.17101 2.77534 0
M  V30 12661 H 1187.98 -2.7897 1.64187 0
M  V30 12662 H 1186.89 -1.37663 3.4785 0
M  V30 12663 H 1188.22 -1.82951 4.56935 0
M  V30 12664 N 1189.87 -1.5367 -0.349747 0
M  V30 12665 C 1191.15 -1.61238 -1.10732 0
M  V30 12666 C 1191.53 -0.429756 -2.06679 0
M  V30 12667 O 1190.88 0.578564 -2.21054 0
M  V30 12668 C 1191.09 -2.97022 -1.83245 0
M  V30 12669 C 1192.43 -3.52158 -2.37212 0
M  V30 12670 O 1193.46 -2.99156 -1.9335 0
M  V30 12671 O 1192.32 -4.44853 -3.1744 0
M  V30 12672 H 1189.41 -0.65191 -0.508864 0
M  V30 12673 H 1191.96 -1.66015 -0.351738 0
M  V30 12674 H 1190.73 -3.74535 -1.13311 0
M  V30 12675 H 1190.35 -2.95808 -2.65675 0
M  V30 12676 N 1191.35 0.610423 -1.45298 0
M  V30 12677 C 1192.26 1.74964 -1.56285 0
M  V30 12678 C 1193.27 1.68149 -0.447436 0
M  V30 12679 O 1194.45 1.88556 -0.707725 0
M  V30 12680 C 1191.52 3.11417 -1.52383 0
M  V30 12681 C 1190.58 3.29707 -2.7494 0
M  V30 12682 C 1189.81 4.5965 -2.71215 0
M  V30 12683 O 1190.03 5.41789 -1.78383 0
M  V30 12684 O 1188.97 4.80591 -3.62375 0
M  V30 12685 H 1192.79 1.68646 -2.52571 0
M  V30 12686 H 1190.38 0.774168 -1.27777 0
M  V30 12687 H 1192.26 3.9272 -1.52805 0
M  V30 12688 H 1190.93 3.18232 -0.592472 0
M  V30 12689 H 1189.84 2.48003 -2.80081 0
M  V30 12690 H 1191.17 3.27766 -3.67192 0
M  V30 12691 N 1192.83 1.32541 0.852676 0
M  V30 12692 C 1194.07 1.23214 1.607 0
M  V30 12693 C 1194.4 -0.205542 1.93411 0
M  V30 12694 O 1193.66 -1.15907 1.57683 0
M  V30 12695 C 1193.96 2.039 2.9353 0
M  V30 12696 C 1193.62 3.53237 2.8024 0
M  V30 12697 C 1192.28 3.93953 2.76323 0
M  V30 12698 C 1194.64 4.48194 2.6603 0
M  V30 12699 C 1191.96 5.27865 2.56077 0
M  V30 12700 C 1194.32 5.82251 2.47319 0
M  V30 12701 C 1192.98 6.22166 2.41796 0
M  V30 12702 H 1192.25 0.450873 0.588043 0
M  V30 12703 H 1194.9 1.63988 0.988954 0
M  V30 12704 H 1193.2 1.55861 3.59464 0
M  V30 12705 H 1194.9 1.94051 3.50921 0
M  V30 12706 H 1191.49 3.209 2.84114 0
M  V30 12707 H 1195.67 4.17656 2.681 0
M  V30 12708 H 1190.93 5.57845 2.50237 0
M  V30 12709 H 1195.1 6.55442 2.35305 0
M  V30 12710 H 1192.73 7.2587 2.25868 0
M  V30 12711 N 1194.3 -1.0692 1.15784 0
M  V30 12712 C 1195.58 -1.76367 0.845825 0
M  V30 12713 C 1195.96 -2.00594 -0.657672 0
M  V30 12714 O 1195.31 -1.62794 -1.60345 0
M  V30 12715 C 1195.52 -3.06913 1.66149 0
M  V30 12716 C 1196.87 -3.81181 1.87046 0
M  V30 12717 O 1197.89 -3.16737 1.62961 0
M  V30 12718 O 1196.75 -4.96936 2.27413 0
M  V30 12719 H 1193.84 -0.766095 0.311493 0
M  V30 12720 H 1196.39 -1.13246 1.26386 0
M  V30 12721 H 1195.16 -2.84924 2.68205 0
M  V30 12722 H 1194.79 -3.77767 1.24007 0
M  V30 12723 N 1195.78 -0.955326 -1.25345 0
M  V30 12724 C 1197.2 -0.659863 -1.4532 0
M  V30 12725 C 1197.4 0.78238 -1.85691 0
M  V30 12726 O 1196.45 1.5576 -1.98734 0
M  V30 12727 C 1197.77 -1.63339 -2.5247 0
M  V30 12728 C 1199.32 -1.64464 -2.66309 0
M  V30 12729 C 1199.79 -2.60583 -3.76644 0
M  V30 12730 N 1201.28 -2.58951 -3.84055 0
M  V30 12731 C 1202.02 -3.30002 -4.6892 0
M  V30 12732 N 1201.51 -4.10528 -5.58067 0
M  V30 12733 N 1203.31 -3.18886 -4.62891 0
M  V30 12734 H 1195.46 -1.88734 -0.97433 0
M  V30 12735 H 1197.72 -0.811858 -0.48948 0
M  V30 12736 H 1197.43 -2.66358 -2.29665 0
M  V30 12737 H 1197.3 -1.39644 -3.50399 0
M  V30 12738 H 1199.69 -0.621622 -2.88479 0
M  V30 12739 H 1199.77 -1.92218 -1.68778 0
M  V30 12740 H 1199.41 -3.63011 -3.55226 0
M  V30 12741 H 1199.34 -2.30113 -4.73662 0
M  V30 12742 H 1201.83 -2.00491 -3.20331 0
M  V30 12743 H 1202.15 -4.6166 -6.1975 0
M  V30 12744 H 1200.49 -4.14626 -5.57773 0
M  V30 12745 H 1203.68 -2.55447 -3.92255 0
M  V30 12746 H 1203.85 -3.74524 -5.28806 0
M  V30 12747 N 1197.26 1.39987 -0.723979 0
M  V30 12748 C 1198.17 2.3447 -0.0780936 0
M  V30 12749 C 1199.19 1.57744 0.734368 0
M  V30 12750 O 1200.36 1.90091 0.665385 0
M  V30 12751 C 1197.43 3.36705 0.826492 0
M  V30 12752 C 1196.49 4.293 0.00303036 0
M  V30 12753 C 1195.72 5.26651 0.864535 0
M  V30 12754 O 1195.95 5.30194 2.10357 0
M  V30 12755 O 1194.88 6.01157 0.299057 0
M  V30 12756 H 1198.71 2.91338 -0.857646 0
M  V30 12757 H 1196.29 1.41324 -0.484536 0
M  V30 12758 H 1198.17 3.9938 1.34439 0
M  V30 12759 H 1196.85 2.82237 1.58505 0
M  V30 12760 H 1195.75 3.69883 -0.560136 0
M  V30 12761 H 1197.09 4.86942 -0.717494 0
M  V30 12762 N 1198.74 0.470782 1.50404 0
M  V30 12763 C 1199.99 -0.0844409 2.02624 0
M  V30 12764 C 1200.32 -1.39398 1.3521 0
M  V30 12765 O 1199.59 -1.88542 0.477707 0
M  V30 12766 C 1199.88 -0.268563 3.59097 0
M  V30 12767 C 1199.73 1.06198 4.37084 0
M  V30 12768 C 1201.05 -1.02324 4.28039 0
M  V30 12769 H 1198.17 -0.0292141 0.736421 0
M  V30 12770 H 1200.81 0.616312 1.79726 0
M  V30 12771 H 1198.96 -0.865441 3.78738 0
M  V30 12772 H 1200.63 1.69541 4.29015 0
M  V30 12773 H 1198.87 1.65868 4.00837 0
M  V30 12774 H 1199.55 0.886795 5.4483 0
M  V30 12775 H 1202.02 -0.517325 4.12872 0
M  V30 12776 H 1200.9 -1.12087 5.37334 0
M  V30 12777 H 1201.16 -2.05974 3.91187 0
M  V30 12778 N 1200.22 -1.56282 0.203376 0
M  V30 12779 C 1201.63 -1.58871 -0.152335 0
M  V30 12780 C 1201.83 -1.21978 -1.60386 0
M  V30 12781 O 1200.89 -0.946422 -2.34092 0
M  V30 12782 C 1202.2 -3.00287 0.157515 0
M  V30 12783 C 1203.75 -3.12846 0.098287 0
M  V30 12784 C 1204.23 -4.56408 0.38156 0
M  V30 12785 N 1205.72 -4.6202 0.330475 0
M  V30 12786 C 1206.45 -5.71006 0.523397 0
M  V30 12787 N 1205.95 -6.88428 0.777115 0
M  V30 12788 N 1207.74 -5.60238 0.457082 0
M  V30 12789 H 1199.89 -1.78543 1.15048 0
M  V30 12790 H 1202.15 -0.829019 0.459816 0
M  V30 12791 H 1201.86 -3.3187 1.16427 0
M  V30 12792 H 1201.73 -3.73372 -0.536041 0
M  V30 12793 H 1204.12 -2.8107 -0.899085 0
M  V30 12794 H 1204.2 -2.42129 0.825045 0
M  V30 12795 H 1203.85 -4.88897 1.37629 0
M  V30 12796 H 1203.78 -5.25325 -0.366182 0
M  V30 12797 H 1206.27 -3.77636 0.141327 0
M  V30 12798 H 1206.58 -7.67389 0.912911 0
M  V30 12799 H 1204.93 -6.90215 0.814104 0
M  V30 12800 H 1208.12 -4.67382 0.259226 0
M  V30 12801 H 1208.29 -6.45114 0.610848 0
M  V30 12802 N 1201.7 0.070167 -1.57444 0
M  V30 12803 C 1202.63 1.08351 -2.06839 0
M  V30 12804 C 1203.61 1.40269 -0.962224 0
M  V30 12805 O 1204.79 1.49867 -1.23505 0
M  V30 12806 C 1201.92 2.39649 -2.51368 0
M  V30 12807 C 1200.88 2.22079 -3.65875 0
M  V30 12808 C 1200.2 3.58776 -3.96464 0
M  V30 12809 C 1201.5 1.64069 -4.95862 0
M  V30 12810 H 1203.2 0.672465 -2.9175 0
M  V30 12811 H 1200.74 0.322027 -1.40353 0
M  V30 12812 H 1202.69 3.10833 -2.84537 0
M  V30 12813 H 1201.42 2.82736 -1.63487 0
M  V30 12814 H 1200.08 1.53337 -3.32992 0
M  V30 12815 H 1199.73 3.99436 -3.05712 0
M  V30 12816 H 1199.43 3.47859 -4.7357 0
M  V30 12817 H 1200.95 4.31387 -4.32131 0
M  V30 12818 H 1202.36 2.2512 -5.27251 0
M  V30 12819 H 1200.76 1.63843 -5.773 0
M  V30 12820 H 1201.83 0.60232 -4.81145 0
M  V30 12821 N 1203.17 1.53854 0.341593 0
M  V30 12822 C 1204.59 1.44161 0.684821 0
M  V30 12823 C 1204.79 0.599929 1.92362 0
M  V30 12824 O 1203.85 0.0916771 2.52334 0
M  V30 12825 C 1205.16 2.87668 0.875637 0
M  V30 12826 C 1206.71 2.97455 0.974131 0
M  V30 12827 C 1207.18 4.42075 1.19725 0
M  V30 12828 N 1208.67 4.45609 1.2644 0
M  V30 12829 C 1209.41 5.54643 1.45459 0
M  V30 12830 N 1208.9 6.7368 1.61637 0
M  V30 12831 N 1210.7 5.4226 1.48022 0
M  V30 12832 H 1202.85 2.07069 -0.472883 0
M  V30 12833 H 1205.11 0.936114 -0.149648 0
M  V30 12834 H 1204.82 3.51681 0.0368595 0
M  V30 12835 H 1204.69 3.32731 1.7768 0
M  V30 12836 H 1207.08 2.33582 1.80343 0
M  V30 12837 H 1207.16 2.55751 0.0498282 0
M  V30 12838 H 1206.8 5.06529 0.372872 0
M  V30 12839 H 1206.73 4.81372 2.13515 0
M  V30 12840 H 1209.22 3.59831 1.15455 0
M  V30 12841 H 1209.54 7.52541 1.7579 0
M  V30 12842 H 1207.88 6.76622 1.5877 0
M  V30 12843 H 1211.07 4.48221 1.34966 0
M  V30 12844 H 1211.25 6.27293 1.62502 0
M  V30 12845 N 1204.65 -0.602709 1.4562 0
M  V30 12846 C 1205.56 -1.74132 1.5721 0
M  V30 12847 C 1206.58 -1.67909 0.456347 0
M  V30 12848 O 1207.75 -1.88178 0.717714 0
M  V30 12849 C 1204.82 -3.10604 1.54032 0
M  V30 12850 C 1203.88 -3.28244 2.76685 0
M  V30 12851 C 1203.11 -4.58205 2.73649 0
M  V30 12852 O 1203.34 -5.40836 1.81254 0
M  V30 12853 O 1202.27 -4.78663 3.64919 0
M  V30 12854 H 1206.1 -1.67304 2.53462 0
M  V30 12855 H 1203.68 -0.767381 1.28186 0
M  V30 12856 H 1205.56 -3.91904 1.54885 0
M  V30 12857 H 1204.24 -3.17913 0.60934 0
M  V30 12858 H 1203.14 -2.46514 2.81393 0
M  V30 12859 H 1204.48 -3.25814 3.68925 0
M  V30 12860 N 1206.13 -1.32992 -0.845635 0
M  V30 12861 C 1207.08 -1.19256 -1.94325 0
M  V30 12862 C 1208.06 -0.0971701 -1.60606 0
M  V30 12863 O 1209.26 -0.324591 -1.73998 0
M  V30 12864 C 1206.38 -0.927027 -3.30547 0
M  V30 12865 C 1205.47 -2.06454 -3.70456 0
M  V30 12866 N 1205.86 -3.31393 -3.82116 0
M  V30 12867 C 1204.16 -1.96972 -4.00147 0
M  V30 12868 C 1204.86 -4.05955 -4.16624 0
M  V30 12869 N 1203.84 -3.34332 -4.28629 0
M  V30 12870 H 1207.64 -2.13965 -2.01485 0
M  V30 12871 H 1205.15 -1.24901 -1.03795 0
M  V30 12872 H 1207.15 -0.809565 -4.08964 0
M  V30 12873 H 1205.81 0.011597 -3.24698 0
M  V30 12874 H 1206.82 -3.66222 -3.662 0
M  V30 12875 H 1203.5 -1.10728 -4.02549 0
M  V30 12876 H 1204.89 -5.13738 -4.33039 0
M  V30 12877 N 1207.61 1.06304 -1.1635 0
M  V30 12878 C 1208.54 2.13209 -0.81346 0
M  V30 12879 C 1209.52 1.61174 0.21484 0
M  V30 12880 O 1210.7 1.8824 0.0989458 0
M  V30 12881 C 1207.83 3.38039 -0.211498 0
M  V30 12882 C 1206.88 4.08875 -1.21339 0
M  V30 12883 S 1207.71 4.58894 -2.76001 0
M  V30 12884 C 1208.86 5.86985 -2.17254 0
M  V30 12885 H 1209.1 2.42572 -1.7189 0
M  V30 12886 H 1206.63 1.18737 -0.986957 0
M  V30 12887 H 1208.59 4.10296 0.129349 0
M  V30 12888 H 1207.25 3.06834 0.671705 0
M  V30 12889 H 1206.44 4.98528 -0.740631 0
M  V30 12890 H 1206.04 3.42632 -1.49932 0
M  V30 12891 H 1208.34 6.59738 -1.54115 0
M  V30 12892 H 1209.28 6.38991 -3.05117 0
M  V30 12893 H 1209.69 5.41012 -1.61141 0
M  V30 12894 N 1209.09 0.96196 1.24836 0
M  V30 12895 C 1210.33 0.619489 1.92371 0
M  V30 12896 C 1210.65 -0.847233 1.75633 0
M  V30 12897 O 1209.92 -1.60419 1.12439 0
M  V30 12898 H 1208.5 0.226129 0.711951 0
M  V30 12899 H 1211.17 1.22179 1.5185 0
M  V30 12900 H 1210.26 0.855128 3.00157 0
M  V30 12901 N 1210.56 -1.39601 0.731392 0
M  V30 12902 C 1211.47 -2.34425 0.090527 0
M  V30 12903 C 1212.49 -1.58131 -0.725992 0
M  V30 12904 O 1213.67 -1.90441 -0.655294 0
M  V30 12905 C 1210.73 -3.37138 -0.808624 0
M  V30 12906 C 1209.79 -4.29295 0.0197365 0
M  V30 12907 C 1209.02 -5.27102 -0.836593 0
M  V30 12908 O 1209.25 -5.31302 -2.07543 0
M  V30 12909 O 1208.18 -6.01307 -0.267172 0
M  V30 12910 H 1212.01 -2.9088 0.873084 0
M  V30 12911 H 1209.59 -1.41066 0.492024 0
M  V30 12912 H 1211.47 -4.00087 -1.32319 0
M  V30 12913 H 1210.15 -2.83074 -1.57006 0
M  V30 12914 H 1209.06 -3.69581 0.579744 0
M  V30 12915 H 1210.39 -4.86555 0.743308 0
M  V30 12916 N 1212.04 -0.478751 -1.50152 0
M  V30 12917 C 1212.99 0.311426 -2.28689 0
M  V30 12918 C 1213.96 0.980375 -1.34082 0
M  V30 12919 O 1215.14 0.991337 -1.63025 0
M  V30 12920 C 1212.28 1.38302 -3.16175 0
M  V30 12921 C 1211.4 0.728084 -4.2582 0
M  V30 12922 C 1210.53 1.77822 -5.00552 0
M  V30 12923 C 1209.57 1.10395 -6.02063 0
M  V30 12924 N 1208.71 2.09728 -6.70044 0
M  V30 12925 H 1213.55 -0.364592 -2.95761 0
M  V30 12926 H 1211.09 -0.191645 -1.45846 0
M  V30 12927 H 1213.04 2.01606 -3.65255 0
M  V30 12928 H 1211.67 2.0281 -2.51133 0
M  V30 12929 H 1210.73 -0.0177026 -3.80396 0
M  V30 12930 H 1212.04 0.196209 -4.98414 0
M  V30 12931 H 1211.19 2.48687 -5.53389 0
M  V30 12932 H 1209.93 2.34392 -4.27682 0
M  V30 12933 H 1208.94 0.38096 -5.48479 0
M  V30 12934 H 1210.16 0.545045 -6.76909 0
M  V30 12935 H 1208.11 2.65301 -5.9996 0
M  V30 12936 H 1208.02 1.61546 -7.38538 0
M  V30 12937 H 1209.29 2.7995 -7.27495 0
M  V30 12938 N 1213.52 1.56172 -0.211661 0
M  V30 12939 C 1214.75 2.02135 0.427222 0
M  V30 12940 C 1215.16 1.09084 1.54587 0
M  V30 12941 O 1214.5 0.090906 1.83475 0
M  V30 12942 C 1214.56 3.44459 1.029 0
M  V30 12943 C 1214.23 4.56976 0.0470243 0
M  V30 12944 C 1215.22 5.14466 -0.749724 0
M  V30 12945 C 1212.91 5.02253 -0.0688634 0
M  V30 12946 C 1214.9 6.15696 -1.64916 0
M  V30 12947 C 1212.59 6.03323 -0.971844 0
M  V30 12948 C 1213.59 6.5992 -1.76055 0
M  V30 12949 O 1213.28 7.59024 -2.64837 0
M  V30 12950 H 1213.01 0.667008 0.109894 0
M  V30 12951 H 1215.56 2.02851 -0.322595 0
M  V30 12952 H 1213.79 3.4078 1.82772 0
M  V30 12953 H 1215.48 3.74128 1.57425 0
M  V30 12954 H 1216.25 4.80342 -0.670588 0
M  V30 12955 H 1212.13 4.57886 0.534889 0
M  V30 12956 H 1215.67 6.59798 -2.26521 0
M  V30 12957 H 1211.57 6.36869 -1.05203 0
M  V30 12958 H 1212.34 7.76508 -2.58801 0
M  V30 12959 N 1215 -0.0618163 1.57479 0
M  V30 12960 C 1216.23 -0.771724 1.91969 0
M  V30 12961 C 1216.64 -1.7061 0.808549 0
M  V30 12962 O 1216 -1.812 -0.217455 0
M  V30 12963 C 1216.05 -1.55687 3.26257 0
M  V30 12964 O 1215.77 -0.660032 4.331 0
M  V30 12965 C 1217.27 -2.36688 3.74825 0
M  V30 12966 H 1214.49 -0.21885 0.634307 0
M  V30 12967 H 1217.04 -0.0291068 2.04479 0
M  V30 12968 H 1215.19 -2.25167 3.15244 0
M  V30 12969 H 1215.6 -1.20715 5.1042 0
M  V30 12970 H 1217.08 -2.8722 4.7139 0
M  V30 12971 H 1217.56 -3.1666 3.0434 0
M  V30 12972 H 1218.16 -1.72346 3.88815 0
M  V30 12973 N 1216.48 -1.54033 -0.333429 0
M  V30 12974 C 1217.7 -1.75716 -1.09232 0
M  V30 12975 C 1218.12 -0.501076 -1.82029 0
M  V30 12976 O 1217.48 0.527772 -1.74702 0
M  V30 12977 C 1217.53 -2.9439 -2.09802 0
M  V30 12978 O 1217.25 -4.15141 -1.39963 0
M  V30 12979 C 1218.75 -3.28206 -2.97987 0
M  V30 12980 H 1215.97 -0.586859 -0.325326 0
M  V30 12981 H 1218.51 -2.0089 -0.382555 0
M  V30 12982 H 1216.67 -2.71518 -2.76327 0
M  V30 12983 H 1217.08 -4.81826 -2.0723 0
M  V30 12984 H 1218.56 -4.14568 -3.64469 0
M  V30 12985 H 1219.03 -2.44944 -3.64553 0
M  V30 12986 H 1219.64 -3.5312 -2.37036 0
M  V30 12987 N 1217.95 0.594978 -1.45938 0
M  V30 12988 C 1219.18 1.37794 -1.53936 0
M  V30 12989 C 1219.59 1.88388 -0.175091 0
M  V30 12990 O 1218.94 1.63587 0.835757 0
M  V30 12991 C 1219 2.60906 -2.47322 0
M  V30 12992 C 1218.66 2.31865 -3.93812 0
M  V30 12993 C 1219.66 1.91451 -4.83366 0
M  V30 12994 C 1217.34 2.44387 -4.3884 0
M  V30 12995 C 1219.34 1.63938 -6.15957 0
M  V30 12996 C 1217.02 2.16487 -5.71469 0
M  V30 12997 C 1218.02 1.76326 -6.59847 0
M  V30 12998 O 1217.71 1.4876 -7.90016 0
M  V30 12999 H 1217.44 0.42775 -0.523456 0
M  V30 13000 H 1220 0.731487 -1.91933 0
M  V30 13001 H 1218.23 3.28315 -2.04319 0
M  V30 13002 H 1219.92 3.22964 -2.45863 0
M  V30 13003 H 1220.68 1.81301 -4.49839 0
M  V30 13004 H 1216.56 2.74612 -3.70283 0
M  V30 13005 H 1220.1 1.32516 -6.84898 0
M  V30 13006 H 1216 2.26257 -6.04548 0
M  V30 13007 H 1216.77 1.62708 -8.02165 0
M  V30 13008 N 1219.43 1.33438 0.838571 0
M  V30 13009 C 1220.66 1.28097 1.63113 0
M  V30 13010 C 1221.08 -0.145197 1.87539 0
M  V30 13011 O 1220.44 -1.10191 1.43971 0
M  V30 13012 C 1220.49 2.06201 2.95827 0
M  V30 13013 O 1219.59 1.42082 3.87152 0
M  V30 13014 H 1218.93 0.440685 0.496681 0
M  V30 13015 H 1221.46 1.76004 1.04325 0
M  V30 13016 H 1221.47 2.16977 3.45521 0
M  V30 13017 H 1220.15 3.099 2.77371 0
M  V30 13018 H 1218.73 1.39953 3.45641 0
M  V30 13019 N 1220.91 -1.05686 1.16912 0
M  V30 13020 C 1222.16 -1.78862 0.955839 0
M  V30 13021 C 1222.49 -1.87257 -0.514645 0
M  V30 13022 O 1221.76 -1.36869 -1.38193 0
M  V30 13023 C 1222.05 -3.23021 1.59152 0
M  V30 13024 C 1221.9 -3.22669 3.13376 0
M  V30 13025 C 1223.22 -4.2073 1.29128 0
M  V30 13026 H 1220.34 -0.64931 0.348663 0
M  V30 13027 H 1222.98 -1.23561 1.44335 0
M  V30 13028 H 1221.13 -3.70243 1.17697 0
M  V30 13029 H 1222.8 -2.83562 3.63855 0
M  V30 13030 H 1221.05 -2.61149 3.46386 0
M  V30 13031 H 1221.72 -4.24394 3.52979 0
M  V30 13032 H 1224.19 -3.8198 1.65017 0
M  V30 13033 H 1223.07 -5.19851 1.76198 0
M  V30 13034 H 1223.33 -4.41595 0.21119 0
M  V30 13035 N 1222.39 -0.968567 -1.24324 0
M  V30 13036 C 1223.34 -0.498817 -2.25345 0
M  V30 13037 C 1224.31 0.456082 -1.59716 0
M  V30 13038 O 1225.49 0.366254 -1.87252 0
M  V30 13039 C 1222.63 0.204027 -3.44496 0
M  V30 13040 C 1221.74 -0.789741 -4.2472 0
M  V30 13041 C 1220.88 -0.0629156 -5.31163 0
M  V30 13042 C 1219.92 -1.04669 -6.03084 0
M  V30 13043 N 1219.05 -0.349812 -7.01228 0
M  V30 13044 H 1223.89 -1.36511 -2.64894 0
M  V30 13045 H 1221.43 -0.684288 -1.30215 0
M  V30 13046 H 1223.39 0.628223 -4.12443 0
M  V30 13047 H 1222.02 1.03426 -3.05782 0
M  V30 13048 H 1221.07 -1.33237 -3.56303 0
M  V30 13049 H 1222.38 -1.53988 -4.74436 0
M  V30 13050 H 1221.54 0.419233 -6.0525 0
M  V30 13051 H 1220.28 0.719915 -4.82357 0
M  V30 13052 H 1219.28 -1.53971 -5.278 0
M  V30 13053 H 1220.51 -1.82998 -6.53979 0
M  V30 13054 H 1218.45 0.414026 -6.54692 0
M  V30 13055 H 1218.37 -1.03881 -7.48829 0
M  V30 13056 H 1219.64 0.11034 -7.79422 0
M  V30 13057 N 1223.87 1.39211 -0.738786 0
M  V30 13058 C 1224.83 2.28937 -0.109746 0
M  V30 13059 C 1225.83 1.46488 0.663157 0
M  V30 13060 O 1227.02 1.67119 0.491614 0
M  V30 13061 C 1224.15 3.30039 0.853633 0
M  V30 13062 H 1225.34 2.86068 -0.900295 0
M  V30 13063 H 1222.9 1.47922 -0.504853 0
M  V30 13064 H 1223.63 2.77971 1.6704 0
M  V30 13065 H 1223.42 3.90935 0.302007 0
M  V30 13066 H 1224.91 3.97169 1.29022 0
M  V30 13067 N 1225.34 0.486708 1.49896 0
M  V30 13068 C 1226.76 0.141788 1.58969 0
M  V30 13069 C 1226.96 -1.35279 1.49338 0
M  V30 13070 O 1226.02 -2.1275 1.35992 0
M  V30 13071 C 1227.33 0.70588 2.92297 0
M  V30 13072 C 1228.88 0.670704 3.0573 0
M  V30 13073 C 1229.35 1.21261 4.41656 0
M  V30 13074 N 1230.84 1.17269 4.4811 0
M  V30 13075 C 1231.58 1.56233 5.51705 0
M  V30 13076 N 1231.07 2.02721 6.62477 0
M  V30 13077 N 1232.87 1.47738 5.42337 0
M  V30 13078 H 1225.02 1.45858 1.544 0
M  V30 13079 H 1227.28 0.604137 0.730563 0
M  V30 13080 H 1226.99 1.7535 3.04869 0
M  V30 13081 H 1226.86 0.158215 3.76868 0
M  V30 13082 H 1229.25 -0.368041 2.92796 0
M  V30 13083 H 1229.33 1.25535 2.22878 0
M  V30 13084 H 1228.97 2.25006 4.5534 0
M  V30 13085 H 1228.9 0.604031 5.23124 0
M  V30 13086 H 1231.39 0.831905 3.6863 0
M  V30 13087 H 1231.71 2.3056 7.37606 0
M  V30 13088 H 1230.05 2.06686 6.63556 0
M  V30 13089 H 1233.24 1.11249 4.54688 0
M  V30 13090 H 1233.42 1.78429 6.2295 0
M  V30 13091 N 1226.82 -1.56058 0.219941 0
M  V30 13092 C 1227.76 -2.17494 -0.723133 0
M  V30 13093 C 1228.77 -1.14356 -1.15873 0
M  V30 13094 O 1229.96 -1.41343 -1.09016 0
M  V30 13095 C 1227.06 -2.74242 -1.99109 0
M  V30 13096 C 1226.23 -4.02533 -1.71132 0
M  V30 13097 C 1225.29 -4.43862 -2.82618 0
M  V30 13098 O 1224.32 -5.10792 -2.51157 0
M  V30 13099 N 1225.52 -4.09412 -4.11537 0
M  V30 13100 H 1228.28 -2.99048 -0.197619 0
M  V30 13101 H 1225.84 -1.61853 0.0388738 0
M  V30 13102 H 1227.84 -2.98862 -2.7288 0
M  V30 13103 H 1226.41 -1.97 -2.42713 0
M  V30 13104 H 1225.63 -3.85786 -0.810128 0
M  V30 13105 H 1226.91 -4.86227 -1.49868 0
M  V30 13106 H 1226.31 -3.55624 -4.39941 0
M  V30 13107 H 1224.87 -4.38928 -4.81857 0
M  V30 13108 N 1228.3 0.053464 -1.57509 0
M  V30 13109 C 1229.23 1.06151 -2.07977 0
M  V30 13110 C 1230.21 1.3924 -0.977047 0
M  V30 13111 O 1231.4 1.48549 -1.25087 0
M  V30 13112 C 1228.53 2.36969 -2.53895 0
M  V30 13113 C 1227.48 2.18186 -3.6821 0
M  V30 13114 C 1226.81 3.54551 -4.00247 0
M  V30 13115 C 1228.11 1.588 -4.97574 0
M  V30 13116 H 1229.8 0.641483 -2.92447 0
M  V30 13117 H 1227.35 0.307122 -1.40687 0
M  V30 13118 H 1229.3 3.07797 -2.87817 0
M  V30 13119 H 1228.02 2.80986 -1.66476 0
M  V30 13120 H 1226.68 1.49796 -3.34599 0
M  V30 13121 H 1226.33 3.96171 -3.09932 0
M  V30 13122 H 1226.03 3.42816 -4.77232 0
M  V30 13123 H 1227.56 4.2678 -4.36682 0
M  V30 13124 H 1228.97 2.19515 -5.29609 0
M  V30 13125 H 1227.37 1.57711 -5.79006 0
M  V30 13126 H 1228.44 0.551254 -4.81756 0
M  V30 13127 N 1229.78 1.54207 0.325255 0
M  V30 13128 C 1230.73 1.83474 1.40021 0
M  V30 13129 C 1231.7 0.681719 1.51466 0
M  V30 13130 O 1232.88 0.92798 1.66713 0
M  V30 13131 C 1230.02 2.06624 2.76407 0
M  V30 13132 C 1229.13 3.3431 2.73607 0
M  V30 13133 C 1228.27 3.4743 4.01828 0
M  V30 13134 C 1227.31 4.68997 3.93329 0
M  V30 13135 N 1226.45 4.79052 5.13277 0
M  V30 13136 H 1231.29 2.75182 1.14363 0
M  V30 13137 H 1228.82 1.36284 0.553639 0
M  V30 13138 H 1230.78 2.18037 3.5569 0
M  V30 13139 H 1229.41 1.18209 3.00377 0
M  V30 13140 H 1228.46 3.31643 1.86324 0
M  V30 13141 H 1229.77 4.237 2.6321 0
M  V30 13142 H 1228.93 3.58376 4.89542 0
M  V30 13143 H 1227.67 2.56128 4.1503 0
M  V30 13144 H 1226.67 4.58109 3.04 0
M  V30 13145 H 1227.9 5.61681 3.81695 0
M  V30 13146 H 1225.84 3.90666 5.26988 0
M  V30 13147 H 1225.76 5.62406 5.05208 0
M  V30 13148 H 1227.03 4.94328 6.02711 0
M  V30 13149 N 1231.26 -0.58723 1.46251 0
M  V30 13150 C 1232.5 -1.3456 1.51327 0
M  V30 13151 C 1232.83 -1.93815 0.163146 0
M  V30 13152 O 1232.09 -1.76723 -0.840677 0
M  V30 13153 C 1232.39 -2.49776 2.5563 0
M  V30 13154 C 1232.05 -2.08543 3.99776 0
M  V30 13155 C 1230.71 -1.97013 4.39021 0
M  V30 13156 C 1233.07 -1.76669 4.90344 0
M  V30 13157 C 1230.39 -1.5186 5.66706 0
M  V30 13158 C 1232.75 -1.32996 6.18462 0
M  V30 13159 C 1231.41 -1.20039 6.56618 0
M  V30 13160 H 1230.68 -0.492391 0.553744 0
M  V30 13161 H 1233.33 -0.661715 1.79704 0
M  V30 13162 H 1231.63 -3.23592 2.20897 0
M  V30 13163 H 1233.33 -3.07995 2.56788 0
M  V30 13164 H 1229.92 -2.18451 3.68751 0
M  V30 13165 H 1234.1 -1.84465 4.60746 0
M  V30 13166 H 1229.36 -1.40467 5.95045 0
M  V30 13167 H 1233.53 -1.07385 6.88071 0
M  V30 13168 H 1231.16 -0.848268 7.55452 0
M  V30 13169 N 1232.74 -1.33881 -0.831482 0
M  V30 13170 C 1233.98 -1.25755 -1.58719 0
M  V30 13171 C 1234.31 0.174746 -1.93713 0
M  V30 13172 O 1233.57 1.13384 -1.59507 0
M  V30 13173 C 1233.86 -2.08544 -2.90249 0
M  V30 13174 C 1233.53 -3.57651 -2.74585 0
M  V30 13175 C 1232.19 -3.983 -2.7002 0
M  V30 13176 C 1234.54 -4.52369 -2.58866 0
M  V30 13177 C 1231.87 -5.31872 -2.47647 0
M  V30 13178 C 1234.22 -5.86112 -2.38025 0
M  V30 13179 C 1232.89 -6.25934 -2.31867 0
M  V30 13180 H 1232.16 -0.460171 -0.580796 0
M  V30 13181 H 1234.81 -1.6554 -0.96274 0
M  V30 13182 H 1233.11 -1.6156 -3.56939 0
M  V30 13183 H 1234.81 -1.99609 -3.47789 0
M  V30 13184 H 1231.4 -3.2538 -2.78973 0
M  V30 13185 H 1235.58 -4.21868 -2.61421 0
M  V30 13186 H 1230.84 -5.61756 -2.41331 0
M  V30 13187 H 1235.01 -6.59103 -2.24847 0
M  V30 13188 H 1232.64 -7.29372 -2.14291 0
M  V30 13189 N 1234.21 1.05064 -1.1747 0
M  V30 13190 C 1235.12 2.16346 -0.907286 0
M  V30 13191 C 1236.14 1.7355 0.125013 0
M  V30 13192 O 1237.32 2.01326 -0.0545551 0
M  V30 13193 C 1234.38 3.44077 -0.425681 0
M  V30 13194 C 1233.44 4.01311 -1.52473 0
M  V30 13195 C 1232.67 5.22946 -1.06601 0
M  V30 13196 O 1232.9 5.70345 0.0793329 0
M  V30 13197 O 1231.83 5.72454 -1.85958 0
M  V30 13198 H 1235.66 2.41754 -1.83817 0
M  V30 13199 H 1233.24 1.14834 -0.955693 0
M  V30 13200 H 1235.12 4.21078 -0.164689 0
M  V30 13201 H 1233.8 3.20166 0.477037 0
M  V30 13202 H 1232.71 3.25744 -1.83961 0
M  V30 13203 H 1234.04 4.29543 -2.4032 0
M  V30 13204 N 1235.69 0.975146 1.23809 0
M  V30 13205 C 1236.6 0.51917 2.28783 0
M  V30 13206 C 1237.62 -0.423487 1.68768 0
M  V30 13207 O 1238.79 -0.294699 1.99232 0
M  V30 13208 C 1235.86 -0.176229 3.46252 0
M  V30 13209 C 1234.92 0.807177 4.21643 0
M  V30 13210 C 1234.15 0.144869 5.33503 0
M  V30 13211 O 1234.38 -1.06522 5.60365 0
M  V30 13212 O 1233.31 0.84079 5.95999 0
M  V30 13213 H 1237.14 1.39204 2.69919 0
M  V30 13214 H 1234.72 0.74253 1.29641 0
M  V30 13215 H 1236.6 -0.566547 4.17574 0
M  V30 13216 H 1235.28 -1.02394 3.07078 0
M  V30 13217 H 1234.18 1.2481 3.52666 0
M  V30 13218 H 1235.52 1.62354 4.64653 0
M  V30 13219 N 1237.17 -1.38817 0.746158 0
M  V30 13220 C 1238.12 -2.32373 0.102785 0
M  V30 13221 C 1239.11 -1.53638 -0.713556 0
M  V30 13222 O 1240.32 -1.69223 -0.613488 0
M  V30 13223 H 1236.69 -0.751861 0.0144405 0
M  V30 13224 H 1238.66 -2.84249 0.908032 0
M  V30 13225 C 1237.41 -3.38796 -0.781827 0
M  V30 13226 H 1236.74 -3.99467 -0.163057 0
M  V30 13227 H 1238.18 -4.06682 -1.19941 0
M  V30 13228 C 1236.63 -2.76756 -1.92113 0
M  V30 13229 O 1237.16 -2.65478 -3.0147 0
M  V30 13230 N 1235.37 -2.34676 -1.71392 0
M  V30 13231 H 1234.92 -2.44049 -0.824483 0
M  V30 13232 H 1234.88 -1.93508 -2.47794 0
M  V30 13233 N 1238.65 -0.49465 -1.49636 0
M  V30 13234 C 1239.58 0.33366 -2.25748 0
M  V30 13235 C 1240.56 0.97591 -1.30057 0
M  V30 13236 O 1241.74 1.00725 -1.59332 0
M  V30 13237 C 1238.87 1.46938 -3.05167 0
M  V30 13238 C 1237.92 0.942149 -4.15964 0
M  V30 13239 S 1238.75 -0.162019 -5.35255 0
M  V30 13240 C 1239.9 0.977022 -6.18227 0
M  V30 13241 H 1240.14 -0.312361 -2.95655 0
M  V30 13242 H 1237.67 -0.279854 -1.51843 0
M  V30 13243 H 1239.63 2.12017 -3.5151 0
M  V30 13244 H 1238.29 2.087 -2.34741 0
M  V30 13245 H 1237.48 1.79309 -4.71025 0
M  V30 13246 H 1237.08 0.368687 -3.72178 0
M  V30 13247 H 1239.38 1.88363 -6.50788 0
M  V30 13248 H 1240.32 0.465168 -7.0657 0
M  V30 13249 H 1240.73 1.24149 -5.50679 0
M  V30 13250 N 1240.13 1.55939 -0.228214 0
M  V30 13251 C 1241.07 2.21957 0.69556 0
M  V30 13252 C 1242.07 1.20109 1.19458 0
M  V30 13253 O 1243.27 1.38171 1.15364 0
M  V30 13254 H 1239.65 0.711744 0.242744 0
M  V30 13255 H 1241.62 2.98177 0.115403 0
M  V30 13256 C 1240.37 2.91847 1.88999 0
M  V30 13257 H 1239.69 3.69978 1.51512 0
M  V30 13258 H 1241.13 3.4143 2.51399 0
M  V30 13259 C 1239.59 1.94683 2.74954 0
M  V30 13260 O 1240.12 1.468 3.73915 0
M  V30 13261 N 1238.33 1.62188 2.41129 0
M  V30 13262 H 1237.87 2.01322 1.60709 0
M  V30 13263 H 1237.83 0.9744 2.98919 0
M  V30 13264 N 1241.6 -0.0451101 1.57535 0
M  V30 13265 C 1242.85 -0.739114 1.88529 0
M  V30 13266 C 1243.18 -1.76208 0.823468 0
M  V30 13267 O 1242.43 -1.94893 -0.177512 0
M  V30 13268 C 1242.73 -1.45938 3.26247 0
M  V30 13269 C 1242.4 -0.57391 4.47233 0
M  V30 13270 C 1241.06 -0.329974 4.80067 0
M  V30 13271 C 1243.41 0.0384272 5.21186 0
M  V30 13272 C 1240.74 0.535339 5.84253 0
M  V30 13273 C 1243.09 0.891349 6.26289 0
M  V30 13274 C 1241.76 1.1449 6.57608 0
M  V30 13275 H 1241.03 -0.270461 0.689878 0
M  V30 13276 H 1243.67 0.000714103 1.915 0
M  V30 13277 H 1241.98 -2.27212 3.1919 0
M  V30 13278 H 1243.68 -2.00162 3.47471 0
M  V30 13279 H 1240.27 -0.774181 4.2155 0
M  V30 13280 H 1244.45 -0.137096 4.96111 0
M  V30 13281 H 1239.71 0.740253 6.06902 0
M  V30 13282 H 1243.88 1.37243 6.82743 0
M  V30 13283 H 1241.51 1.81715 7.38162 0
M  V30 13284 O 1243.12 -1.60399 -0.188253 0
M  V30 13285 H 1243.81 -1.75182 -0.8265 0
M  V30 END ATOM
M  V30 BEGIN BOND
M  V30 END BOND
M  V30 END CTAB
M  END
$$$$
