drugbank_target|P20618 Proteasome subunit beta type-1 (DB00188; DB08515; DB08889)
 OpenBabel12092120093D

  0  0  0     0  0            999 V3000
M  V30 BEGIN CTAB
M  V30 COUNTS 3717 3752 0 0 0
M  V30 BEGIN ATOM
M  V30 1 H -0.908 1.98254 -0.117106 0
M  V30 2 N 0 1.576 0 0
M  V30 3 C 0.933 2.03868 1.02534 0
M  V30 4 C 1.911 0.928543 1.3348 0
M  V30 5 O 3.095 1.19667 1.45644 0
M  V30 6 C 0.222 2.43627 2.35294 0
M  V30 7 C -0.732 3.65373 2.2001 0
M  V30 8 S 0.101 5.13292 1.52614 0
M  V30 9 C 1.257 5.56322 2.86805 0
M  V30 10 H 1.49 2.90518 0.631377 0
M  V30 11 H -0.977 1.52953 0.210867 0
M  V30 12 H 0.981 2.67203 3.11629 0
M  V30 13 H -0.358 1.57376 2.7183 0
M  V30 14 H -1.165 3.90944 3.18086 0
M  V30 15 H -1.563 3.418 1.51819 0
M  V30 16 H 0.729 5.58782 3.83104 0
M  V30 17 H 1.672 6.56266 2.65933 0
M  V30 18 H 2.08 4.83886 2.90714 0
M  V30 19 N 1.4781 -0.272755 1.55222 0
M  V30 20 C 2.4081 -1.34136 1.91127 0
M  V30 21 C 3.3891 -1.51513 0.773168 0
M  V30 22 O 4.5741 -1.64552 1.03132 0
M  V30 23 C 1.7041 -2.70083 2.1834 0
M  V30 24 C 0.6581 -2.67437 3.34158 0
M  V30 25 C -0.0159 -4.06938 3.46851 0
M  V30 26 C 1.2841 -2.26686 4.70543 0
M  V30 27 H 2.9781 -1.04333 2.80633 0
M  V30 28 H 0.5241 -0.500454 1.35024 0
M  V30 29 H 2.4771 -3.44952 2.42046 0
M  V30 30 H 1.2011 -3.01469 1.25634 0
M  V30 31 H -0.1399 -1.95026 3.1042 0
M  V30 32 H -0.4919 -4.35547 2.51611 0
M  V30 33 H -0.7919 -4.06062 4.2472 0
M  V30 34 H 0.7321 -4.83545 3.72849 0
M  V30 35 H 2.1461 -2.91277 4.93792 0
M  V30 36 H 0.5431 -2.36971 5.5133 0
M  V30 37 H 1.6131 -1.21818 4.69349 0
M  V30 38 N 2.9562 -1.48159 -0.537278 0
M  V30 39 C 4.1812 -1.59707 -1.32319 0
M  V30 40 C 4.6062 -0.254859 -1.86365 0
M  V30 41 O 3.9642 0.772378 -1.64024 0
M  V30 42 C 4.0122 -2.6412 -2.45505 0
M  V30 43 O 3.1162 -2.20774 -3.48328 0
M  V30 44 H 2.4572 -0.535791 -0.392204 0
M  V30 45 H 4.9872 -1.94092 -0.647268 0
M  V30 46 H 4.9972 -2.85166 -2.91795 0
M  V30 47 H 3.6722 -3.61567 -2.05528 0
M  V30 48 H 2.2492 -2.09911 -3.08207 0
M  V30 49 N 4.4343 0.785586 -1.36625 0
M  V30 50 C 5.6593 1.57963 -1.34397 0
M  V30 51 C 6.0843 1.87964 0.071526 0
M  V30 52 O 5.4423 1.48182 1.0446 0
M  V30 53 C 5.4903 2.87511 -2.17646 0
M  V30 54 O 4.5943 3.81281 -1.57158 0
M  V30 55 H 3.9353 0.479014 -0.459828 0
M  V30 56 H 6.4653 0.973411 -1.79961 0
M  V30 57 H 6.4753 3.36745 -2.30362 0
M  V30 58 H 5.1503 2.65002 -3.20541 0
M  V30 59 H 3.7273 3.39885 -1.53403 0
M  V30 60 N 5.9124 1.20967 1.01018 0
M  V30 61 C 7.1404 1.04956 1.78303 0
M  V30 62 C 7.5554 -0.400915 1.84494 0
M  V30 63 O 6.9124 -1.27826 1.30257 0
M  V30 64 C 6.9634 1.63403 3.22462 0
M  V30 65 O 6.6844 3.02775 3.16637 0
M  V30 66 C 8.1854 1.52432 4.16268 0
M  V30 67 H 5.4054 0.368858 0.560522 0
M  V30 68 H 7.9494 1.60193 1.27116 0
M  V30 69 H 6.1044 1.1227 3.70775 0
M  V30 70 H 6.5184 3.30626 4.07169 0
M  V30 71 H 7.9924 1.98078 5.15237 0
M  V30 72 H 8.4694 0.477875 4.36592 0
M  V30 73 H 9.0754 2.02787 3.73841 0
M  V30 74 N 7.3905 -1.2043 1.01659 0
M  V30 75 C 8.3535 -2.21433 0.591616 0
M  V30 76 C 9.3535 -1.57203 -0.338226 0
M  V30 77 O 10.5435 -1.73737 -0.126918 0
M  V30 78 C 7.6755 -3.40628 -0.136058 0
M  V30 79 H 8.8685 -2.60545 1.48514 0
M  V30 80 H 6.4215 -1.33893 0.806379 0
M  V30 81 H 7.1565 -3.07019 -1.04449 0
M  V30 82 H 6.9415 -3.88475 0.531917 0
M  V30 83 H 8.4315 -4.15475 -0.420735 0
M  V30 84 N 8.8686 -0.792821 -1.36206 0
M  V30 85 C 9.8016 -0.139422 -2.27774 0
M  V30 86 C 10.7796 0.68649 -1.47398 0
M  V30 87 O 11.9636 0.656738 -1.7669 0
M  V30 88 C 9.0906 0.807947 -3.28922 0
M  V30 89 C 8.1366 0.0633999 -4.26453 0
M  V30 90 S 8.9696 -1.26319 -5.20388 0
M  V30 91 C 10.1256 -0.31991 -6.25082 0
M  V30 92 H 10.3586 -0.915809 -2.82843 0
M  V30 93 H 7.8916 -0.587203 -1.42798 0
M  V30 94 H 9.8496 1.34908 -3.87699 0
M  V30 95 H 8.5106 1.55761 -2.72759 0
M  V30 96 H 7.7036 0.782386 -4.9789 0
M  V30 97 H 7.3056 -0.407352 -3.71775 0
M  V30 98 H 9.5976 0.499985 -6.75653 0
M  V30 99 H 10.5406 -1.00307 -7.00959 0
M  V30 100 H 10.9486 0.0782694 -5.64446 0
M  V30 101 N 10.3467 1.47872 -0.545128 0
M  V30 102 C 11.5767 2.06589 -0.0210534 0
M  V30 103 C 11.9847 1.39997 1.27269 0
M  V30 104 O 11.3277 0.486421 1.77143 0
M  V30 105 C 11.3897 3.58574 0.257933 0
M  V30 106 C 11.0537 4.47132 -0.944573 0
M  V30 107 C 12.0507 4.85986 -1.84699 0
M  V30 108 C 9.7357 4.88821 -1.15584 0
M  V30 109 C 11.7297 5.65314 -2.94446 0
M  V30 110 C 9.4167 5.67916 -2.25642 0
M  V30 111 C 10.4147 6.06073 -3.14905 0
M  V30 112 O 10.1027 6.83578 -4.23057 0
M  V30 113 H 9.8347 0.674971 -0.0372899 0
M  V30 114 H 12.3887 1.91037 -0.754599 0
M  V30 115 H 10.6187 3.72295 1.04564 0
M  V30 116 H 12.3077 3.99356 0.72592 0
M  V30 117 H 13.0737 4.54388 -1.69577 0
M  V30 118 H 8.9527 4.58595 -0.470279 0
M  V30 119 H 12.4967 5.95016 -3.64145 0
M  V30 120 H 8.3937 5.98927 -2.40742 0
M  V30 121 H 9.1617 7.01954 -4.20954 0
M  V30 122 N 11.8248 0.280983 1.55075 0
M  V30 123 C 13.0498 -0.340154 2.04592 0
M  V30 124 C 13.4748 -1.48246 1.15779 0
M  V30 125 O 12.8328 -1.80614 0.15761 0
M  V30 126 C 12.8808 -0.793104 3.5177 0
M  V30 127 O 11.9848 -1.89981 3.66034 0
M  V30 128 H 11.3258 -0.0694289 0.66036 0
M  V30 129 H 13.8558 0.416993 2.00306 0
M  V30 130 H 13.8658 -1.08729 3.93245 0
M  V30 131 H 12.5408 0.0426163 4.15878 0
M  V30 132 H 11.1178 -1.60771 3.36463 0
M  V30 133 N 13.3029 -1.57598 0.00835791 0
M  V30 134 C 14.2659 -2.07884 -0.965242 0
M  V30 135 C 15.2659 -0.989825 -1.26725 0
M  V30 136 O 16.4559 -1.25218 -1.21104 0
M  V30 137 C 13.5879 -2.52731 -2.28779 0
M  V30 138 H 14.7809 -2.95178 -0.530112 0
M  V30 139 H 12.3339 -1.54458 -0.239283 0
M  V30 140 H 13.0689 -1.68705 -2.76964 0
M  V30 141 H 12.8539 -3.32272 -2.08177 0
M  V30 142 H 14.3439 -2.91933 -2.98605 0
M  V30 143 N 14.781 0.264519 -1.55364 0
M  V30 144 C 16.192 0.834936 -1.6699 0
M  V30 145 C 16.543 1.86718 -0.602552 0
M  V30 146 O 15.668 2.14899 0.254425 0
M  V30 147 C 16.263 1.5212 -3.02729 0
M  V30 148 C 14.822 2.03954 -3.16354 0
M  V30 149 C 13.969 0.884498 -2.62815 0
M  V30 150 H 16.92 0.0406869 -1.58648 0
M  V30 151 H 16.941 2.38853 -2.96191 0
M  V30 152 H 16.453 0.769668 -3.80392 0
M  V30 153 H 14.554 2.82041 -2.43482 0
M  V30 154 H 14.667 2.24902 -4.23032 0
M  V30 155 H 13.031 1.2802 -2.20188 0
M  V30 156 H 13.814 0.14634 -3.42988 0
M  V30 157 N 16.2591 1.48442 0.529413 0
M  V30 158 C 17.5071 1.56179 1.28267 0
M  V30 159 C 17.8281 0.237721 1.93546 0
M  V30 160 O 17.0981 -0.740779 1.81354 0
M  V30 161 H 15.6781 0.575367 0.476405 0
M  V30 162 H 18.3401 1.84909 0.61602 0
M  V30 163 H 17.4361 2.34312 2.06165 0
M  V30 164 N 17.7372 -0.778329 1.37039 0
M  V30 165 C 19.1532 -1.07796 1.17695 0
M  V30 166 C 19.3532 -2.01498 0.00860115 0
M  V30 167 O 18.4092 -2.43901 -0.653352 0
M  V30 168 C 19.7222 -1.68178 2.49272 0
M  V30 169 C 21.2702 -1.80467 2.55735 0
M  V30 170 C 21.7452 -2.44263 3.87427 0
M  V30 171 N 23.2362 -2.51721 3.88833 0
M  V30 172 C 23.9712 -3.01919 4.87476 0
M  V30 173 N 23.4672 -3.5234 5.96513 0
M  V30 174 N 25.2602 -3.00733 4.74885 0
M  V30 175 H 17.4112 -0.156032 2.11826 0
M  V30 176 H 19.6742 -0.131844 0.938787 0
M  V30 177 H 19.3802 -1.06796 3.35093 0
M  V30 178 H 19.2542 -2.67554 2.65885 0
M  V30 179 H 21.6412 -2.40984 1.70325 0
M  V30 180 H 21.7222 -0.798656 2.43013 0
M  V30 181 H 21.3662 -1.84388 4.73248 0
M  V30 182 H 21.2962 -3.45458 3.9745 0
M  V30 183 H 23.7872 -2.1603 3.10063 0
M  V30 184 H 24.1002 -3.89027 6.67741 0
M  V30 185 H 22.4452 -3.50462 6.00168 0
M  V30 186 H 25.6362 -2.60638 3.88826 0
M  V30 187 H 25.8092 -3.39545 5.51918 0
M  V30 188 N 19.2153 -1.21501 -1.00376 0
M  V30 189 C 20.4923 -0.941745 -1.71437 0
M  V30 190 C 20.8723 0.546114 -2.03914 0
M  V30 191 O 20.2203 1.51128 -1.71384 0
M  V30 192 C 20.4303 -1.82812 -2.97289 0
M  V30 193 C 21.7783 -2.07771 -3.70292 0
M  V30 194 O 22.8023 -1.80171 -3.07273 0
M  V30 195 O 21.6613 -2.54456 -4.83647 0
M  V30 196 H 18.7553 -0.353243 -0.747762 0
M  V30 197 H 21.3013 -1.32436 -1.06108 0
M  V30 198 H 20.0733 -2.83501 -2.69709 0
M  V30 199 H 19.6963 -1.4464 -3.70358 0
M  V30 200 N 20.6934 1.19889 -1.02296 0
M  V30 201 C 21.6234 2.25141 -0.619174 0
M  V30 202 C 22.6044 1.66051 0.368915 0
M  V30 203 O 23.7894 1.92546 0.252941 0
M  V30 204 C 20.9194 3.4728 0.0368783 0
M  V30 205 C 19.8734 4.19005 -0.872865 0
M  V30 206 C 19.1994 5.34637 -0.0822402 0
M  V30 207 C 20.4994 4.74452 -2.18387 0
M  V30 208 H 22.1934 2.59171 -1.49903 0
M  V30 209 H 19.7394 1.24579 -0.722222 0
M  V30 210 H 21.6924 4.20098 0.330958 0
M  V30 211 H 20.4164 3.12433 0.95149 0
M  V30 212 H 19.0754 3.48061 -1.15105 0
M  V30 213 H 18.7234 4.96034 0.83422 0
M  V30 214 H 18.4234 5.83557 -0.688149 0
M  V30 215 H 19.9474 6.10255 0.205238 0
M  V30 216 H 21.3614 5.39055 -1.95172 0
M  V30 217 H 19.7584 5.33834 -2.74119 0
M  V30 218 H 20.8284 3.92844 -2.84257 0
M  V30 219 N 22.1715 0.800033 1.35784 0
M  V30 220 C 23.4195 0.376597 1.9856 0
M  V30 221 C 23.7405 -1.05812 1.63795 0
M  V30 222 O 23.0105 -1.73103 0.917171 0
M  V30 223 H 21.5905 0.136261 0.734467 0
M  V30 224 H 24.2525 1.02442 1.65806 0
M  V30 225 H 23.3485 0.477002 3.08433 0
M  V30 226 N 23.6496 -1.47581 0.552962 0
M  V30 227 C 24.5826 -2.26883 -0.244857 0
M  V30 228 C 25.5606 -1.33784 -0.924147 0
M  V30 229 O 26.7446 -1.6316 -0.943981 0
M  V30 230 C 23.8716 -3.10695 -1.34856 0
M  V30 231 C 22.9176 -4.19339 -0.778268 0
M  V30 232 S 23.7506 -5.34207 0.37184 0
M  V30 233 C 24.9066 -6.21584 -0.733779 0
M  V30 234 H 25.1396 -2.94202 0.428087 0
M  V30 235 H 22.6726 -1.50628 0.339197 0
M  V30 236 H 24.6306 -3.59555 -1.98066 0
M  V30 237 H 23.2916 -2.42746 -1.99332 0
M  V30 238 H 22.4846 -4.77695 -1.60696 0
M  V30 239 H 22.0866 -3.73338 -0.222422 0
M  V30 240 H 24.3786 -6.57676 -1.62692 0
M  V30 241 H 25.3216 -7.07851 -0.187668 0
M  V30 242 H 25.7296 -5.55125 -1.02454 0
M  V30 243 N 25.1277 -0.289203 -1.54924 0
M  V30 244 C 26.0377 0.601863 -2.26748 0
M  V30 245 C 27.0537 1.15834 -1.2984 0
M  V30 246 O 28.2297 1.18564 -1.62802 0
M  V30 247 C 25.2947 1.76299 -2.98529 0
M  V30 248 C 24.3557 1.24178 -4.10948 0
M  V30 249 C 23.5887 2.34757 -4.79296 0
M  V30 250 O 23.8117 3.54411 -4.46933 0
M  V30 251 O 22.7457 2.02115 -5.66951 0
M  V30 252 H 26.5717 0.0195879 -3.03694 0
M  V30 253 H 24.1567 -0.0560868 -1.49295 0
M  V30 254 H 26.0387 2.43973 -3.43592 0
M  V30 255 H 24.7137 2.33209 -2.24488 0
M  V30 256 H 23.6207 0.531104 -3.70311 0
M  V30 257 H 24.9537 0.718252 -4.86931 0
M  V30 258 N 26.6058 1.57591 -0.0167156 0
M  V30 259 C 28.0168 1.79201 0.523834 0
M  V30 260 C 28.3678 0.925796 1.72984 0
M  V30 261 O 27.4928 0.132792 2.15992 0
M  V30 262 C 28.0878 3.25 0.957091 0
M  V30 263 C 26.6468 3.47648 1.44283 0
M  V30 264 C 25.7938 2.74374 0.401757 0
M  V30 265 H 28.7448 1.56831 -0.242816 0
M  V30 266 H 28.7658 3.34031 1.82219 0
M  V30 267 H 28.2778 3.88019 0.0791415 0
M  V30 268 H 26.3788 2.89866 2.34113 0
M  V30 269 H 26.4918 4.56352 1.45877 0
M  V30 270 H 24.8558 2.39485 0.867121 0
M  V30 271 H 25.6388 3.40102 -0.467513 0
M  V30 272 N 28.0839 -0.256276 1.55502 0
M  V30 273 C 29.0339 -1.31981 1.85916 0
M  V30 274 C 30.0179 -1.43927 0.719296 0
M  V30 275 O 31.2099 -1.47326 0.981019 0
M  V30 276 C 28.3389 -2.67703 2.14918 0
M  V30 277 C 27.4249 -2.59801 3.35208 0
M  V30 278 N 27.8159 -2.21524 4.54709 0
M  V30 279 C 26.1139 -2.90832 3.38131 0
M  V30 280 C 26.8149 -2.24024 5.36832 0
M  V30 281 N 25.7909 -2.63158 4.75656 0
M  V30 282 H 29.5929 -1.01423 2.75845 0
M  V30 283 H 27.1069 -0.464911 1.55603 0
M  V30 284 H 29.1039 -3.44445 2.34869 0
M  V30 285 H 27.7639 -2.99137 1.26282 0
M  V30 286 H 28.7749 -1.93223 4.80505 0
M  V30 287 H 25.4519 -3.26867 2.59739 0
M  V30 288 H 26.8419 -1.9685 6.42417 0
M  V30 289 N 29.562 -1.4872 -0.521534 0
M  V30 290 C 30.978 -1.35028 -0.850855 0
M  V30 291 C 31.178 -0.367712 -1.98116 0
M  V30 292 O 30.234 0.208037 -2.51642 0
M  V30 293 C 31.547 -2.75263 -1.21041 0
M  V30 294 C 33.095 -2.83813 -1.31981 0
M  V30 295 C 33.57 -4.24769 -1.71276 0
M  V30 296 N 35.061 -4.27482 -1.78363 0
M  V30 297 C 35.796 -5.33494 -2.1017 0
M  V30 298 N 35.292 -6.49775 -2.40343 0
M  V30 299 N 37.085 -5.20894 -2.11248 0
M  V30 300 H 29.236 -2.11214 0.22413 0
M  V30 301 H 31.499 -0.947252 0.0376439 0
M  V30 302 H 31.205 -3.48765 -0.453415 0
M  V30 303 H 31.079 -3.09327 -2.15863 0
M  V30 304 H 33.466 -2.10561 -2.06756 0
M  V30 305 H 33.547 -2.53358 -0.352596 0
M  V30 306 H 33.191 -4.9854 -0.970588 0
M  V30 307 H 33.121 -4.52673 -2.69062 0
M  V30 308 H 35.612 -3.43611 -1.57288 0
M  V30 309 H 35.925 -7.26402 -2.63743 0
M  V30 310 H 34.27 -6.53035 -2.37844 0
M  V30 311 H 37.461 -4.29065 -1.87139 0
M  V30 312 H 37.634 -6.03612 -2.35704 0
M  V30 313 N 31.0401 0.771051 -1.3745 0
M  V30 314 C 32.0031 1.86598 -1.33093 0
M  V30 315 C 33.0031 1.59076 -0.234845 0
M  V30 316 O 34.1931 1.67145 -0.490732 0
M  V30 317 C 31.3251 3.23747 -1.06773 0
M  V30 318 H 32.5181 1.91873 -2.30488 0
M  V30 319 H 30.0711 0.970876 -1.2249 0
M  V30 320 H 30.8061 3.24148 -0.099129 0
M  V30 321 H 30.5911 3.45115 -1.86112 0
M  V30 322 H 32.0811 4.03824 -1.06377 0
M  V30 323 N 32.5182 1.22032 0.997298 0
M  V30 324 C 33.4812 0.987909 2.06816 0
M  V30 325 C 34.4812 -0.0440084 1.6074 0
M  V30 326 O 35.6712 0.194053 1.73116 0
M  V30 327 C 32.8032 0.49132 3.37341 0
M  V30 328 H 33.9962 1.93803 2.28868 0
M  V30 329 H 31.5492 1.03838 1.16822 0
M  V30 330 H 32.2842 -0.463364 3.20973 0
M  V30 331 H 32.0692 1.23575 3.72118 0
M  V30 332 H 33.5592 0.348824 4.16141 0
M  V30 333 N 33.9963 -1.19345 1.0293 0
M  V30 334 C 35.2443 -1.88665 0.724574 0
M  V30 335 C 35.5653 -1.80036 -0.749144 0
M  V30 336 O 34.8353 -1.2111 -1.53978 0
M  V30 337 H 33.4153 -0.698406 0.265025 0
M  V30 338 H 36.0773 -1.44885 1.30362 0
M  V30 339 H 35.1733 -2.94987 1.01926 0
M  V30 340 N 35.4744 -0.807222 -1.35358 0
M  V30 341 C 36.8854 -0.44876 -1.81226 0
M  V30 342 C 37.2364 1.02929 -1.67033 0
M  V30 343 O 36.3614 1.79991 -1.20133 0
M  V30 344 C 36.9564 -0.807774 -3.2903 0
M  V30 345 C 35.5154 -0.501901 -3.73039 0
M  V30 346 C 34.6624 -1.03304 -2.57339 0
M  V30 347 H 37.6134 -0.998808 -1.23327 0
M  V30 348 H 37.6344 -0.10554 -3.80354 0
M  V30 349 H 37.1464 -1.88357 -3.39328 0
M  V30 350 H 35.2474 0.565128 -3.68289 0
M  V30 351 H 35.3604 -1.03497 -4.67787 0
M  V30 352 H 33.7244 -0.455339 -2.50597 0
M  V30 353 H 34.5074 -2.11496 -2.70415 0
M  V30 354 N 36.9525 1.47285 -0.560781 0
M  V30 355 C 37.8825 2.32857 0.173105 0
M  V30 356 C 38.8635 1.44009 0.905281 0
M  V30 357 O 40.0485 1.7286 0.885046 0
M  V30 358 C 37.1785 3.25861 1.20133 0
M  V30 359 C 36.1325 4.23978 0.585388 0
M  V30 360 C 35.4585 5.06332 1.7185 0
M  V30 361 C 36.7585 5.20242 -0.463178 0
M  V30 362 H 38.4525 2.94466 -0.541307 0
M  V30 363 H 35.9985 1.41601 -0.261764 0
M  V30 364 H 37.9515 3.84569 1.72293 0
M  V30 365 H 36.6755 2.62315 1.94573 0
M  V30 366 H 35.3345 3.66501 0.085054 0
M  V30 367 H 34.9825 4.39186 2.45203 0
M  V30 368 H 34.6825 5.72762 1.31213 0
M  V30 369 H 36.2065 5.67899 2.24329 0
M  V30 370 H 37.6205 5.73293 -0.027502 0
M  V30 371 H 36.0175 5.94896 -0.788627 0
M  V30 372 H 37.0875 4.65504 -1.35773 0
M  V30 373 N 38.4306 0.297415 1.54768 0
M  V30 374 C 39.3626 -0.613881 2.20826 0
M  V30 375 C 40.3756 -1.10032 1.19987 0
M  V30 376 O 41.5646 -1.01839 1.46598 0
M  V30 377 C 38.6646 -1.852 2.83821 0
M  V30 378 C 37.8376 -1.50865 4.10559 0
M  V30 379 C 36.8966 -2.60154 4.57391 0
M  V30 380 O 35.9226 -2.25398 5.2267 0
M  V30 381 N 37.1246 -3.90629 4.29406 0
M  V30 382 H 39.8896 -0.048389 2.99661 0
M  V30 383 H 37.4506 0.11946 1.61459 0
M  V30 384 H 39.4426 -2.57652 3.12086 0
M  V30 385 H 38.0126 -2.32597 2.08847 0
M  V30 386 H 37.2326 -0.616925 3.89343 0
M  V30 387 H 38.5206 -1.25458 4.9309 0
M  V30 388 H 37.9186 -4.21677 3.77101 0
M  V30 389 H 36.4756 -4.59391 4.62388 0
M  V30 390 N 39.9087 -1.5758 0.0250728 0
M  V30 391 C 40.8387 -2.13007 -0.956575 0
M  V30 392 C 41.8197 -1.0452 -1.342 0
M  V30 393 O 43.0047 -1.32332 -1.42133 0
M  V30 394 C 40.1347 -2.65386 -2.24026 0
M  V30 395 C 39.0887 -3.78623 -1.99571 0
M  V30 396 C 38.4147 -4.17414 -3.3417 0
M  V30 397 C 39.7147 -5.04867 -1.33814 0
M  V30 398 H 41.4087 -2.9528 -0.494991 0
M  V30 399 H 38.9547 -1.42042 -0.236651 0
M  V30 400 H 40.9077 -3.02794 -2.93076 0
M  V30 401 H 39.6317 -1.80268 -2.72343 0
M  V30 402 H 38.2907 -3.41646 -1.32941 0
M  V30 403 H 37.9387 -3.29284 -3.80238 0
M  V30 404 H 37.6387 -4.93719 -3.18615 0
M  V30 405 H 39.1627 -4.57402 -4.04495 0
M  V30 406 H 40.5767 -5.39888 -1.92857 0
M  V30 407 H 38.9737 -5.86144 -1.28669 0
M  V30 408 H 40.0437 -4.83904 -0.310561 0
M  V30 409 N 41.3868 0.248026 -1.55636 0
M  V30 410 C 42.8028 0.596483 -1.48035 0
M  V30 411 C 43.0028 1.88386 -0.715039 0
M  V30 412 O 42.0588 2.51319 -0.243944 0
M  V30 413 C 43.3718 0.700258 -2.92433 0
M  V30 414 C 44.9198 0.792659 -3.02797 0
M  V30 415 C 45.3948 0.928005 -4.485 0
M  V30 416 N 46.8858 0.992903 -4.52433 0
M  V30 417 C 47.6208 1.11687 -5.62418 0
M  V30 418 N 47.1168 1.20645 -6.82214 0
M  V30 419 N 48.9098 1.14994 -5.50212 0
M  V30 420 H 41.0608 -0.597109 -2.03834 0
M  V30 421 H 43.3238 -0.205925 -0.925364 0
M  V30 422 H 43.0298 -0.175658 -3.51261 0
M  V30 423 H 42.9038 1.57255 -3.42857 0
M  V30 424 H 45.2908 1.65903 -2.4405 0
M  V30 425 H 45.3718 -0.104762 -2.55585 0
M  V30 426 H 45.0158 0.0661971 -5.07857 0
M  V30 427 H 44.9458 1.84045 -4.93391 0
M  V30 428 H 47.4368 0.935064 -3.66149 0
M  V30 429 H 47.7498 1.30008 -7.61786 0
M  V30 430 H 46.0948 1.17605 -6.84977 0
M  V30 431 H 49.2858 1.07643 -4.55555 0
M  V30 432 H 49.4588 1.24311 -6.35965 0
M  V30 433 N 42.8649 1.48995 0.513639 0
M  V30 434 C 44.1119 1.57843 1.26854 0
M  V30 435 C 44.4399 0.259501 1.92761 0
M  V30 436 O 43.6949 -0.75159 1.80692 0
M  V30 437 C 43.9939 2.67756 2.36731 0
M  V30 438 C 43.6599 4.09669 1.88368 0
M  V30 439 C 42.3219 4.48291 1.74896 0
M  V30 440 C 44.6739 4.98537 1.52021 0
M  V30 441 C 42.0019 5.73568 1.23438 0
M  V30 442 C 44.3539 6.24319 1.0202 0
M  V30 443 C 43.0179 6.61783 0.871778 0
M  V30 444 H 42.2879 0.577587 0.464192 0
M  V30 445 H 44.9349 1.82778 0.571366 0
M  V30 446 H 43.2399 2.36743 3.12185 0
M  V30 447 H 44.9369 2.71813 2.9482 0
M  V30 448 H 41.5269 3.79176 1.99808 0
M  V30 449 H 45.7109 4.69363 1.61281 0
M  V30 450 H 40.9669 6.01304 1.10648 0
M  V30 451 H 45.1409 6.92566 0.729722 0
M  V30 452 H 42.7679 7.5874 0.470852 0
M  V30 453 N 44.343 -0.763751 1.37857 0
M  V30 454 C 45.568 -1.55805 1.36893 0
M  V30 455 C 45.993 -1.88054 -0.0416135 0
M  V30 456 O 45.351 -1.49825 -1.02089 0
M  V30 457 C 45.399 -2.84012 2.22192 0
M  V30 458 O 44.503 -3.78732 1.63204 0
M  V30 459 H 43.844 -0.471638 0.46739 0
M  V30 460 H 46.374 -0.944657 1.81487 0
M  V30 461 H 46.384 -3.33037 2.35691 0
M  V30 462 H 45.059 -2.59869 3.24716 0
M  V30 463 H 43.636 -3.37402 1.58791 0
M  V30 464 N 45.8211 -1.22559 -0.990812 0
M  V30 465 C 47.2321 -1.04791 -1.54518 0
M  V30 466 C 47.5831 0.387998 -1.92325 0
M  V30 467 O 46.7081 1.27328 -1.74976 0
M  V30 468 C 47.3031 -1.896 -2.80779 0
M  V30 469 C 45.8621 -1.76124 -3.32652 0
M  V30 470 C 45.0091 -1.8594 -2.05722 0
M  V30 471 H 47.9601 -1.36374 -0.811662 0
M  V30 472 H 47.9811 -1.41464 -3.53225 0
M  V30 473 H 47.4931 -2.94101 -2.53231 0
M  V30 474 H 45.5941 -0.743643 -3.65104 0
M  V30 475 H 45.7071 -2.58913 -4.03114 0
M  V30 476 H 44.0711 -1.29403 -2.19379 0
M  V30 477 H 44.8541 -2.91976 -1.80568 0
M  V30 478 N 47.2992 1.18797 -1.03562 0
M  V30 479 C 48.5292 1.92319 -0.754773 0
M  V30 480 C 48.9372 1.7612 0.691248 0
M  V30 481 O 48.2802 1.08491 1.48241 0
M  V30 482 C 48.3422 3.44284 -1.03484 0
M  V30 483 C 48.0062 3.84258 -2.47376 0
M  V30 484 C 49.0032 3.88459 -3.45537 0
M  V30 485 C 46.6882 4.15701 -2.81954 0
M  V30 486 C 48.6822 4.23545 -4.76328 0
M  V30 487 C 46.3692 4.50458 -4.12954 0
M  V30 488 C 47.3672 4.54356 -5.09951 0
M  V30 489 O 47.0552 4.88305 -6.38603 0
M  V30 490 H 46.7872 0.617527 -0.275021 0
M  V30 491 H 49.3412 1.51683 -1.38497 0
M  V30 492 H 47.5712 3.85135 -0.347513 0
M  V30 493 H 49.2602 3.99049 -0.7426 0
M  V30 494 H 50.0262 3.6431 -3.20162 0
M  V30 495 H 45.9052 4.11847 -2.0713 0
M  V30 496 H 49.4492 4.26502 -5.52035 0
M  V30 497 H 45.3462 4.74067 -4.38099 0
M  V30 498 H 46.1142 5.06227 -6.43177 0
M  V30 499 N 48.7773 0.814389 1.34928 0
M  V30 500 C 50.0233 0.399013 1.98836 0
M  V30 501 C 50.3563 -1.03314 1.64438 0
M  V30 502 O 49.6313 -1.71811 0.911659 0
M  V30 503 C 49.9143 0.591629 3.55207 0
M  V30 504 C 49.7673 2.06928 3.99376 0
M  V30 505 C 51.0863 0.022199 4.40094 0
M  V30 506 H 48.2053 0.146451 0.722303 0
M  V30 507 H 50.8473 1.02537 1.59957 0
M  V30 508 H 48.9973 0.0584441 3.88456 0
M  V30 509 H 50.6693 2.66544 3.76499 0
M  V30 510 H 48.9123 2.56287 3.49999 0
M  V30 511 H 49.5833 2.1549 5.08201 0
M  V30 512 H 52.0593 0.477643 4.13349 0
M  V30 513 H 50.9353 0.186832 5.48582 0
M  V30 514 H 51.1963 -1.07215 4.28902 0
M  V30 515 N 50.2554 -1.46986 0.568584 0
M  V30 516 C 51.5024 -2.02441 0.0487986 0
M  V30 517 C 51.8304 -1.44169 -1.30559 0
M  V30 518 O 51.0854 -0.591213 -1.86556 0
M  V30 519 C 51.3844 -3.57306 -0.081836 0
M  V30 520 C 51.0504 -4.34552 1.20313 0
M  V30 521 C 49.7124 -4.55376 1.5552 0
M  V30 522 C 52.0644 -4.79016 2.05411 0
M  V30 523 C 49.3924 -5.17913 2.7565 0
M  V30 524 C 51.7444 -5.42879 3.24754 0
M  V30 525 C 50.4084 -5.61933 3.60261 0
M  V30 526 H 49.6784 -0.740785 0.0178567 0
M  V30 527 H 52.3254 -1.76525 0.742384 0
M  V30 528 H 50.6304 -3.8228 -0.858463 0
M  V30 529 H 52.3274 -3.97876 -0.499546 0
M  V30 530 H 48.9174 -4.18631 0.919014 0
M  V30 531 H 53.1014 -4.62696 1.79516 0
M  V30 532 H 48.3574 -5.30858 3.03315 0
M  V30 533 H 52.5314 -5.76293 3.90973 0
M  V30 534 H 50.1584 -6.10161 4.53439 0
M  V30 535 N 51.7335 -0.305618 -1.54608 0
M  V30 536 C 52.6815 0.584119 -2.25146 0
M  V30 537 C 53.6755 1.13326 -1.25911 0
M  V30 538 O 54.8815 1.08337 -1.43747 0
M  V30 539 H 51.2565 0.206983 -0.722954 0
M  V30 540 H 53.2275 -0.033291 -2.98381 0
M  V30 541 C 51.9765 1.74225 -3.009 0
M  V30 542 H 51.2995 1.32892 -3.77067 0
M  V30 543 H 52.7395 2.34077 -3.53531 0
M  V30 544 C 51.1985 2.64914 -2.0814 0
M  V30 545 O 51.7285 3.66137 -1.65246 0
M  V30 546 N 49.9345 2.3275 -1.74 0
M  V30 547 H 49.4815 1.50479 -2.09078 0
M  V30 548 H 49.4395 2.93694 -1.12211 0
M  V30 549 N 53.2116 1.57565 -0.0334293 0
M  V30 550 C 54.4596 1.91598 0.642999 0
M  V30 551 C 54.7806 0.910847 1.7242 0
M  V30 552 O 54.0506 -0.0469931 1.95844 0
M  V30 553 H 52.6306 0.707228 0.240496 0
M  V30 554 H 55.2926 1.94726 -0.0822488 0
M  V30 555 H 54.3886 2.92336 1.09298 0
M  V30 556 N 54.6897 -0.239769 1.55765 0
M  V30 557 C 55.9377 -0.964892 1.77579 0
M  V30 558 C 56.2587 -1.85582 0.598699 0
M  V30 559 O 55.5287 -1.92075 -0.385226 0
M  V30 560 H 54.1087 -0.359265 0.654933 0
M  V30 561 H 56.7707 -0.256001 1.93211 0
M  V30 562 H 55.8667 -1.58243 2.69009 0
M  V30 563 N 56.1678 -1.49265 -0.50573 0
M  V30 564 C 57.3958 -1.62215 -1.28429 0
M  V30 565 C 57.8108 -0.291697 -1.86533 0
M  V30 566 O 57.1678 0.722233 -1.67601 0
M  V30 567 C 57.2188 -2.68735 -2.41793 0
M  V30 568 O 56.9398 -3.96619 -1.86078 0
M  V30 569 C 58.4408 -2.92346 -3.3324 0
M  V30 570 H 55.6608 -0.546239 -0.389697 0
M  V30 571 H 58.2048 -1.95265 -0.607609 0
M  V30 572 H 56.3598 -2.38476 -3.053 0
M  V30 573 H 56.7738 -4.55256 -2.60465 0
M  V30 574 H 58.2478 -3.70623 -4.09075 0
M  V30 575 H 58.7248 -2.02081 -3.89948 0
M  V30 576 H 59.3308 -3.24003 -2.75503 0
M  V30 577 N 57.6459 0.756429 -1.3826 0
M  V30 578 C 58.8949 1.51082 -1.3363 0
M  V30 579 C 59.2079 1.95467 0.0720068 0
M  V30 580 O 60.4139 2.7043 0.240834 0
M  V30 581 C 58.8699 2.72893 -2.34644 0
M  V30 582 C 58.4779 2.35544 -3.81081 0
M  V30 583 C 60.2219 3.50791 -2.39052 0
M  V30 584 C 58.1289 3.53948 -4.73787 0
M  V30 585 H 57.0589 0.56727 -0.49671 0
M  V30 586 H 59.7099 0.827147 -1.638 0
M  V30 587 H 58.0919 3.43227 -1.97513 0
M  V30 588 H 59.2659 1.72894 -4.27135 0
M  V30 589 H 57.5809 1.70786 -3.79764 0
M  V30 590 H 60.1779 4.38823 -3.05513 0
M  V30 591 H 60.5209 3.91745 -1.40861 0
M  V30 592 H 61.0539 2.87467 -2.74968 0
M  V30 593 H 57.7929 3.18064 -5.73163 0
M  V30 594 H 57.3129 4.15651 -4.32428 0
M  V30 595 H 58.9919 4.20566 -4.91663 0
M  V30 596 N 59.124 1.23083 0.984299 0
M  V30 597 C 60.054 1.03292 2.09411 0
M  V30 598 C 61.035 -0.048923 1.7003 0
M  V30 599 O 62.22 0.114967 1.93859 0
M  V30 600 C 59.35 0.619155 3.41736 0
M  V30 601 C 58.304 1.64791 3.95004 0
M  V30 602 C 57.63 1.0897 5.23478 0
M  V30 603 C 58.93 3.03999 4.24714 0
M  V30 604 H 60.624 1.96119 2.26225 0
M  V30 605 H 58.17 0.944344 1.08711 0
M  V30 606 H 60.123 0.467777 4.18796 0
M  V30 607 H 58.847 -0.344786 3.24775 0
M  V30 608 H 57.506 1.78721 3.20085 0
M  V30 609 H 57.154 0.11686 5.02864 0
M  V30 610 H 56.854 1.77704 5.60085 0
M  V30 611 H 58.378 0.950093 6.03163 0
M  V30 612 H 59.792 2.93393 4.92538 0
M  V30 613 H 58.189 3.69936 4.72512 0
M  V30 614 H 59.259 3.53285 3.32142 0
M  V30 615 N 60.6021 -1.18246 1.0419 0
M  V30 616 C 61.5651 -2.20128 0.638452 0
M  V30 617 C 62.5651 -1.57885 -0.304805 0
M  V30 618 O 63.7551 -1.73967 -0.0900369 0
M  V30 619 C 60.8871 -3.4084 -0.0637751 0
M  V30 620 H 62.0801 -2.57336 1.54007 0
M  V30 621 H 59.6331 -1.32152 0.834598 0
M  V30 622 H 60.3681 -3.09166 -0.979136 0
M  V30 623 H 60.1531 -3.8726 0.614198 0
M  V30 624 H 61.6431 -4.16274 -0.332512 0
M  V30 625 N 62.0802 -0.821533 -1.34494 0
M  V30 626 C 63.3292 -0.405355 -1.97585 0
M  V30 627 C 63.6422 1.03677 -1.65863 0
M  V30 628 O 64.8482 1.55679 -2.22433 0
M  V30 629 C 63.3042 -0.673861 -3.53535 0
M  V30 630 C 62.9122 -2.12951 -3.94152 0
M  V30 631 C 64.6562 -0.32378 -4.23263 0
M  V30 632 C 62.5632 -2.34298 -5.43009 0
M  V30 633 H 61.4932 -0.147836 -0.739365 0
M  V30 634 H 64.1442 -1.00769 -1.53355 0
M  V30 635 H 62.5262 -0.00137554 -3.96 0
M  V30 636 H 63.7002 -2.84104 -3.62797 0
M  V30 637 H 62.0152 -2.44089 -3.37356 0
M  V30 638 H 64.6122 -0.461126 -5.32708 0
M  V30 639 H 64.9552 0.731586 -4.09821 0
M  V30 640 H 65.4882 -0.950786 -3.8627 0
M  V30 641 H 62.2272 -3.38335 -5.61435 0
M  V30 642 H 61.7472 -1.67687 -5.75883 0
M  V30 643 H 63.4262 -2.16588 -6.09671 0
M  V30 644 N 63.5583 1.46682 -0.576371 0
M  V30 645 C 64.5213 2.28707 0.150239 0
M  V30 646 C 65.5213 1.38035 0.824794 0
M  V30 647 O 66.7113 1.60476 0.677719 0
M  V30 648 C 63.8433 3.18248 1.22192 0
M  V30 649 H 65.0363 2.94423 -0.570521 0
M  V30 650 H 62.5893 1.52688 -0.334078 0
M  V30 651 H 63.3243 2.57265 1.97447 0
M  V30 652 H 63.1093 3.85 0.742812 0
M  V30 653 H 64.5993 3.80001 1.73172 0
M  V30 654 N 65.0364 0.313813 1.54444 0
M  V30 655 C 66.2844 -0.291099 1.99993 0
M  V30 656 C 66.6054 -1.53418 1.20366 0
M  V30 657 O 65.8754 -1.93544 0.302927 0
M  V30 658 H 64.4554 -0.110552 0.738774 0
M  V30 659 H 67.1174 0.428106 1.9014 0
M  V30 660 H 66.2134 -0.554268 3.07139 0
M  V30 661 N 66.5145 -1.57545 0.0417849 0
M  V30 662 C 67.4245 -2.14451 -0.951213 0
M  V30 663 C 68.4405 -1.09992 -1.34825 0
M  V30 664 O 69.6165 -1.42114 -1.42708 0
M  V30 665 C 66.6815 -2.67063 -2.21084 0
M  V30 666 C 65.7425 -3.86284 -1.87304 0
M  V30 667 C 64.9755 -4.36378 -3.07261 0
M  V30 668 O 65.1985 -3.85587 -4.20332 0
M  V30 669 O 64.1325 -5.28077 -2.88822 0
M  V30 670 H 67.9585 -2.99601 -0.497287 0
M  V30 671 H 65.5435 -1.48317 -0.179567 0
M  V30 672 H 67.4255 -3.00914 -2.95006 0
M  V30 673 H 66.1005 -1.84989 -2.65633 0
M  V30 674 H 65.0075 -3.57338 -1.10727 0
M  V30 675 H 66.3405 -4.6956 -1.47562 0
M  V30 676 N 67.9926 0.231505 -1.5589 0
M  V30 677 C 69.2696 0.981096 -1.69215 0
M  V30 678 C 69.6496 2.02799 -0.586164 0
M  V30 679 O 68.9976 2.24823 0.408253 0
M  V30 680 C 69.2076 1.60054 -3.10135 0
M  V30 681 C 70.5556 2.09658 -3.69227 0
M  V30 682 O 71.5796 1.69967 -3.13033 0
M  V30 683 O 70.4386 2.8258 -4.67772 0
M  V30 684 H 67.5326 0.457653 -0.688827 0
M  V30 685 H 70.0786 0.224073 -1.68214 0
M  V30 686 H 68.8506 0.844105 -3.82087 0
M  V30 687 H 68.4736 2.42336 -3.15212 0
M  V30 688 N 69.4707 1.49531 0.497807 0
M  V30 689 C 70.7177 1.59179 1.25173 0
M  V30 690 C 71.0457 0.279932 1.92475 0
M  V30 691 O 70.3007 -0.732383 1.81479 0
M  V30 692 C 70.5997 2.70252 2.33878 0
M  V30 693 C 70.2657 4.11644 1.84012 0
M  V30 694 C 68.9277 4.50121 1.70132 0
M  V30 695 C 71.2797 5.00121 1.46725 0
M  V30 696 C 68.6077 5.74845 1.17348 0
M  V30 697 C 70.9597 6.25366 0.95392 0
M  V30 698 C 69.6237 6.6267 0.801538 0
M  V30 699 H 68.8937 0.582478 0.45804 0
M  V30 700 H 71.5407 1.83373 0.551948 0
M  V30 701 H 69.8457 2.40041 3.09657 0
M  V30 702 H 71.5427 2.74925 2.9192 0
M  V30 703 H 68.1327 3.81274 1.95775 0
M  V30 704 H 72.3167 4.71048 1.56294 0
M  V30 705 H 67.5727 6.02444 1.04264 0
M  V30 706 H 71.7467 6.93301 0.656225 0
M  V30 707 H 69.3737 7.59197 0.390351 0
M  V30 708 N 70.9488 -0.749086 1.3866 0
M  V30 709 C 71.9118 -1.84457 1.36045 0
M  V30 710 C 72.9118 -1.58682 0.260122 0
M  V30 711 O 74.1018 -1.66343 0.517261 0
M  V30 712 C 71.2338 -3.22008 1.11911 0
M  V30 713 H 72.4268 -1.88182 2.33512 0
M  V30 714 H 69.9798 -0.951266 1.24019 0
M  V30 715 H 70.7148 -3.2395 0.150686 0
M  V30 716 H 70.4998 -3.42111 1.91579 0
M  V30 717 H 71.9898 -4.0208 1.12788 0
M  V30 718 N 72.4269 -1.23603 -0.977757 0
M  V30 719 C 73.6759 -1.06377 -1.71368 0
M  V30 720 C 73.9889 0.399062 -1.91486 0
M  V30 721 O 75.1949 0.691312 -2.62551 0
M  V30 722 C 73.6509 -1.85512 -3.08404 0
M  V30 723 C 73.2589 -3.36141 -2.96164 0
M  V30 724 C 75.0029 -1.76783 -3.85938 0
M  V30 725 C 72.9099 -4.07659 -4.28449 0
M  V30 726 H 71.8399 -0.394452 -0.642591 0
M  V30 727 H 74.4909 -1.47594 -1.09034 0
M  V30 728 H 72.8729 -1.37103 -3.71509 0
M  V30 729 H 74.0469 -3.92056 -2.42133 0
M  V30 730 H 72.3619 -3.45712 -2.32104 0
M  V30 731 H 74.9589 -2.27526 -4.83876 0
M  V30 732 H 75.3019 -0.731116 -4.0983 0
M  V30 733 H 75.8349 -2.22818 -3.2954 0
M  V30 734 H 72.5739 -5.11648 -4.09752 0
M  V30 735 H 72.0939 -3.5653 -4.82334 0
M  V30 736 H 73.7729 -4.141 -4.97122 0
M  V30 737 N 73.905 1.17692 -1.04816 0
M  V30 738 C 75.151 1.88137 -0.75711 0
M  V30 739 C 75.484 1.80604 0.713841 0
M  V30 740 O 74.759 1.21146 1.52164 0
M  V30 741 C 75.042 3.38318 -1.2334 0
M  V30 742 C 74.895 3.54622 -2.76701 0
M  V30 743 C 76.214 4.32214 -0.829415 0
M  V30 744 H 73.333 0.683163 -0.27651 0
M  V30 745 H 75.975 1.38424 -1.30149 0
M  V30 746 H 74.125 3.80787 -0.770286 0
M  V30 747 H 75.797 3.21194 -3.31107 0
M  V30 748 H 74.04 2.97026 -3.16161 0
M  V30 749 H 74.711 4.60028 -3.05088 0
M  V30 750 H 77.187 3.97565 -1.22805 0
M  V30 751 H 76.063 5.35838 -1.19033 0
M  V30 752 H 76.324 4.41294 0.266891 0
M  V30 753 N 75.3831 0.828654 1.34056 0
M  V30 754 C 76.3461 0.259927 2.27721 0
M  V30 755 C 77.3461 -0.565478 1.50529 0
M  V30 756 O 78.5361 -0.38075 1.69988 0
M  V30 757 C 75.6681 -0.634944 3.34935 0
M  V30 758 H 76.8611 1.0863 2.79534 0
M  V30 759 H 74.4141 0.600951 1.44285 0
M  V30 760 H 75.1491 -1.48416 2.88346 0
M  V30 761 H 74.9341 -0.0444999 3.92075 0
M  V30 762 H 76.4241 -1.02648 4.04788 0
M  V30 763 N 76.8612 -1.46375 0.584142 0
M  V30 764 C 78.0862 -2.07268 0.0740405 0
M  V30 765 C 78.5112 -1.42979 -1.22223 0
M  V30 766 O 77.8692 -0.514092 -1.73859 0
M  V30 767 C 77.9172 -3.60518 -0.0767769 0
M  V30 768 O 77.0212 -3.96533 -1.13292 0
M  V30 769 H 76.3622 -0.660961 0.0634524 0
M  V30 770 H 78.8922 -1.87991 0.807492 0
M  V30 771 H 78.9022 -4.07021 -0.282489 0
M  V30 772 H 77.5772 -4.06702 0.86986 0
M  V30 773 H 76.1542 -3.61738 -0.905553 0
M  V30 774 N 78.3393 -0.321999 -1.54275 0
M  V30 775 C 79.6163 0.335232 -1.92706 0
M  V30 776 C 79.9963 1.70006 -1.25145 0
M  V30 777 O 79.3443 2.25067 -0.394596 0
M  V30 778 C 79.5543 0.429008 -3.46353 0
M  V30 779 C 80.9023 0.690029 -4.18956 0
M  V30 780 O 81.9263 0.511992 -3.52501 0
M  V30 781 O 80.7853 1.03338 -5.36641 0
M  V30 782 H 77.8793 0.191143 -0.804608 0
M  V30 783 H 80.4253 -0.3716 -1.65581 0
M  V30 784 H 79.1973 -0.529611 -3.87699 0
M  V30 785 H 78.8203 1.18348 -3.79578 0
M  V30 786 N 79.8174 1.5752 -0.0501392 0
M  V30 787 C 81.0454 1.96963 0.633492 0
M  V30 788 C 81.4604 0.927631 1.6444 0
M  V30 789 O 80.8174 -0.0882665 1.82286 0
M  V30 790 C 80.8684 3.36487 1.32132 0
M  V30 791 O 80.5894 4.36693 0.350894 0
M  V30 792 C 82.0904 3.90682 2.09481 0
M  V30 793 H 79.3104 0.648244 0.173266 0
M  V30 794 H 81.8544 2.0417 -0.116134 0
M  V30 795 H 80.0094 3.30434 2.02218 0
M  V30 796 H 80.4234 5.17702 0.841735 0
M  V30 797 H 81.8974 4.90591 2.5303 0
M  V30 798 H 82.3744 3.26053 2.94255 0
M  V30 799 H 82.9804 4.00069 1.44307 0
M  V30 800 N 81.2955 -0.223234 1.56011 0
M  V30 801 C 82.7115 -0.572856 1.48965 0
M  V30 802 C 82.9115 -1.87225 0.74492 0
M  V30 803 O 81.9675 -2.50899 0.283896 0
M  V30 804 C 83.2805 -0.653646 2.9351 0
M  V30 805 C 84.8285 -0.744386 3.0402 0
M  V30 806 C 85.3035 -0.856535 4.49919 0
M  V30 807 N 86.7945 -0.9208 4.53955 0
M  V30 808 C 87.5295 -1.02726 5.64123 0
M  V30 809 N 87.0255 -1.09777 6.84047 0
M  V30 810 N 88.8185 -1.06226 5.51971 0
M  V30 811 H 80.9695 0.629462 2.02858 0
M  V30 812 H 83.2325 0.220621 0.921971 0
M  V30 813 H 82.9385 0.231518 3.50937 0
M  V30 814 H 82.8125 -1.51781 3.45315 0
M  V30 815 H 85.1995 -1.61999 2.46658 0
M  V30 816 H 85.2805 0.14541 2.55386 0
M  V30 817 H 84.9245 0.0146069 5.07898 0
M  V30 818 H 84.8545 -1.76172 4.96257 0
M  V30 819 H 87.3455 -0.876694 3.6759 0
M  V30 820 H 87.6585 -1.17872 7.63758 0
M  V30 821 H 86.0035 -1.06693 6.86762 0
M  V30 822 H 89.1945 -1.00382 4.5721 0
M  V30 823 H 89.3675 -1.14177 6.37862 0
M  V30 824 N 82.7736 -1.49793 -0.48987 0
M  V30 825 C 83.7036 -1.70201 -1.59856 0
M  V30 826 C 84.6846 -0.55076 -1.60937 0
M  V30 827 O 85.8696 -0.787841 -1.77501 0
M  V30 828 C 82.9996 -1.77882 -2.98287 0
M  V30 829 C 81.9536 -2.92907 -3.12073 0
M  V30 830 C 81.2796 -2.85712 -4.51965 0
M  V30 831 C 82.5796 -4.3369 -2.91051 0
M  V30 832 H 84.2736 -2.63025 -1.43032 0
M  V30 833 H 81.8196 -1.26574 -0.686664 0
M  V30 834 H 83.7726 -1.90744 -3.75759 0
M  V30 835 H 82.4966 -0.816653 -3.16225 0
M  V30 836 H 81.1556 -2.79665 -2.37029 0
M  V30 837 H 80.8036 -1.8738 -4.66795 0
M  V30 838 H 80.5036 -3.62921 -4.62128 0
M  V30 839 H 82.0276 -3.00598 -5.31482 0
M  V30 840 H 83.4416 -4.47555 -3.58284 0
M  V30 841 H 81.8386 -5.12205 -3.12675 0
M  V30 842 H 82.9086 -4.47362 -1.87071 0
M  V30 843 N 84.2517 0.741722 -1.39055 0
M  V30 844 C 85.4767 1.53607 -1.39354 0
M  V30 845 C 85.9017 1.88096 0.0116905 0
M  V30 846 O 85.2597 1.5143 0.996924 0
M  V30 847 C 85.3077 2.80441 -2.26682 0
M  V30 848 O 84.4117 3.76088 -1.69208 0
M  V30 849 H 83.7527 0.464142 -0.474835 0
M  V30 850 H 86.2827 0.915665 -1.82967 0
M  V30 851 H 86.2927 3.29246 -2.40959 0
M  V30 852 H 84.9677 2.5467 -3.2881 0
M  V30 853 H 83.5447 3.34833 -1.64138 0
M  V30 854 N 85.7298 1.2412 0.971189 0
M  V30 855 C 86.6398 1.04747 2.09917 0
M  V30 856 C 87.6558 -0.0107162 1.73997 0
M  V30 857 O 88.8318 0.186714 2.00533 0
M  V30 858 C 85.8968 0.650828 3.40537 0
M  V30 859 C 84.9578 1.7851 3.90426 0
M  V30 860 C 84.1908 1.40729 5.14812 0
M  V30 861 O 84.4138 0.29557 5.69634 0
M  V30 862 O 83.3478 2.23168 5.58999 0
M  V30 863 H 87.1738 1.99304 2.29154 0
M  V30 864 H 84.7588 1.02908 1.08307 0
M  V30 865 H 86.6408 0.440992 4.19086 0
M  V30 866 H 85.3158 -0.265649 3.22608 0
M  V30 867 H 84.2228 2.04966 3.12953 0
M  V30 868 H 85.5558 2.68023 4.12825 0
M  V30 869 N 87.2079 -1.17134 1.05439 0
M  V30 870 C 88.4559 -1.87085 0.764429 0
M  V30 871 C 88.7769 -1.81584 -0.710787 0
M  V30 872 O 88.0469 -1.24349 -1.51374 0
M  V30 873 H 86.6269 -0.692627 0.279779 0
M  V30 874 H 89.2889 -1.42087 1.33406 0
M  V30 875 H 88.3849 -2.92759 1.0816 0
M  V30 876 N 88.686 -0.835752 -1.33615 0
M  V30 877 C 89.933 -0.429959 -1.97883 0
M  V30 878 C 90.261 1.01006 -1.66217 0
M  V30 879 O 89.516 1.72047 -0.93265 0
M  V30 880 C 89.815 -0.593925 -3.52431 0
M  V30 881 C 89.481 -2.00158 -4.04039 0
M  V30 882 C 88.143 -2.38662 -4.17844 0
M  V30 883 C 90.495 -2.92117 -4.31644 0
M  V30 884 C 87.823 -3.68435 -4.56588 0
M  V30 885 C 90.175 -4.21368 -4.71838 0
M  V30 886 C 88.839 -4.59833 -4.83849 0
M  V30 887 H 88.109 -0.157333 -0.724104 0
M  V30 888 H 90.756 -1.06217 -1.59343 0
M  V30 889 H 89.061 0.121619 -3.91611 0
M  V30 890 H 90.758 -0.260282 -4.00154 0
M  V30 891 H 87.348 -1.69252 -3.93766 0
M  V30 892 H 91.532 -2.63608 -4.20505 0
M  V30 893 H 86.788 -3.98046 -4.64079 0
M  V30 894 H 90.962 -4.92703 -4.92155 0
M  V30 895 H 88.589 -5.60438 -5.13627 0
M  V30 896 N 90.1641 1.46063 -0.591896 0
M  V30 897 C 91.3891 2.07226 -0.0850314 0
M  V30 898 C 91.8141 1.43625 1.21463 0
M  V30 899 O 91.1721 0.523305 1.73583 0
M  V30 900 C 91.2201 3.60554 0.0576567 0
M  V30 901 O 90.3241 3.97128 1.11188 0
M  V30 902 H 89.6651 0.660615 -0.0669568 0
M  V30 903 H 92.1951 1.8756 -0.81745 0
M  V30 904 H 92.2051 4.07165 0.2609 0
M  V30 905 H 90.8801 4.06235 -0.891416 0
M  V30 906 H 89.4571 3.62213 0.886356 0
M  V30 907 N 91.6422 0.330177 1.54103 0
M  V30 908 C 92.8912 -0.271336 1.99867 0
M  V30 909 C 93.2042 -1.52723 1.22209 0
M  V30 910 O 94.4102 -2.20515 1.58383 0
M  V30 911 C 92.8662 -0.534032 3.55916 0
M  V30 912 C 92.4742 0.705193 4.42415 0
M  V30 913 C 94.2182 -1.09514 4.1013 0
M  V30 914 C 92.1252 0.414035 5.89949 0
M  V30 915 H 91.0552 -0.105166 0.74663 0
M  V30 916 H 93.7062 0.443429 1.78062 0
M  V30 917 H 92.0882 -1.30915 3.73734 0
M  V30 918 H 93.2622 1.4804 4.36372 0
M  V30 919 H 91.5772 1.18698 3.99124 0
M  V30 920 H 94.1742 -1.3277 5.17954 0
M  V30 921 H 94.5172 -2.04656 3.62521 0
M  V30 922 H 95.0502 -0.381038 3.95971 0
M  V30 923 H 91.7892 1.33481 6.41766 0
M  V30 924 H 91.3092 -0.323336 5.98928 0
M  V30 925 H 92.9882 0.0263105 6.46995 0
M  V30 926 N 93.1203 -1.57491 0.0584922 0
M  V30 927 C 94.0703 -2.08474 -0.923188 0
M  V30 928 C 95.0543 -0.991479 -1.26722 0
M  V30 929 O 96.2463 -1.25473 -1.24842 0
M  V30 930 C 93.3753 -2.6392 -2.19548 0
M  V30 931 C 92.4613 -3.80227 -1.87852 0
M  V30 932 N 92.8523 -4.89714 -1.26546 0
M  V30 933 C 91.1503 -3.89271 -2.17679 0
M  V30 934 C 91.8513 -5.70689 -1.12644 0
M  V30 935 N 90.8273 -5.18531 -1.63176 0
M  V30 936 H 94.6293 -2.90517 -0.444653 0
M  V30 937 H 92.1433 -1.61745 -0.145764 0
M  V30 938 H 94.1403 -2.98752 -2.9078 0
M  V30 939 H 92.8003 -1.83318 -2.68001 0
M  V30 940 H 93.8113 -5.09358 -0.936757 0
M  V30 941 H 90.4883 -3.19623 -2.68602 0
M  V30 942 H 91.8783 -6.6875 -0.6499 0
M  V30 943 N 94.5984 0.214957 -1.56127 0
M  V30 944 C 95.8264 0.955092 -1.83536 0
M  V30 945 C 96.2414 1.77677 -0.638472 0
M  V30 946 O 95.5984 1.78219 0.392968 0
M  V30 947 C 95.6494 1.86734 -3.09536 0
M  V30 948 O 95.3704 1.07887 -4.24608 0
M  V30 949 C 96.8714 2.72082 -3.4998 0
M  V30 950 H 94.0914 0.279611 -0.609966 0
M  V30 951 H 96.6354 0.228197 -2.03223 0
M  V30 952 H 94.7904 2.5481 -2.91806 0
M  V30 953 H 95.2044 1.69872 -4.9623 0
M  V30 954 H 96.6784 3.31782 -4.41163 0
M  V30 955 H 97.1554 3.44806 -2.7204 0
M  V30 956 H 97.7614 2.09409 -3.70173 0
M  V30 957 N 96.0765 1.50051 0.48192 0
M  V30 958 C 97.4925 1.37237 0.814756 0
M  V30 959 C 97.6925 0.420109 1.97072 0
M  V30 960 O 96.7485 -0.141246 2.52105 0
M  V30 961 C 98.0615 2.78375 1.13701 0
M  V30 962 C 99.6095 2.87213 1.2441 0
M  V30 963 C 100.084 4.29161 1.59954 0
M  V30 964 N 101.575 4.32061 1.66967 0
M  V30 965 C 102.31 5.38879 1.95952 0
M  V30 966 N 101.806 6.55918 2.23031 0
M  V30 967 N 103.599 5.26312 1.97363 0
M  V30 968 H 95.7505 2.10546 -0.28005 0
M  V30 969 H 98.0135 0.945921 -0.0627454 0
M  V30 970 H 97.7195 3.49845 0.360787 0
M  V30 971 H 97.5935 3.14941 2.07586 0
M  V30 972 H 99.9805 2.15969 2.01101 0
M  V30 973 H 100.061 2.54204 0.285299 0
M  V30 974 H 99.7055 5.00938 0.838067 0
M  V30 975 H 99.6355 4.59648 2.56966 0
M  V30 976 H 102.126 3.47661 1.48123 0
M  V30 977 H 102.439 7.33139 2.44391 0
M  V30 978 H 100.784 6.59112 2.20447 0
M  V30 979 H 103.975 4.33876 1.75697 0
M  V30 980 H 104.148 6.09649 2.19618 0
M  V30 981 N 97.5546 -0.734337 1.39446 0
M  V30 982 C 98.8316 -1.48579 1.27215 0
M  V30 983 C 99.2116 -2.1077 -0.117968 0
M  V30 984 O 98.5596 -1.98646 -1.12924 0
M  V30 985 C 98.7696 -2.53667 2.39696 0
M  V30 986 C 100.118 -3.20031 2.79044 0
M  V30 987 O 101.142 -2.6398 2.39151 0
M  V30 988 O 100.001 -4.21455 3.47905 0
M  V30 989 H 97.0946 -0.659816 0.49857 0
M  V30 990 H 99.6406 -0.768106 1.51322 0
M  V30 991 H 98.4126 -2.06096 3.32626 0
M  V30 992 H 98.0356 -3.32994 2.17258 0
M  V30 993 N 99.0327 -1.24633 -0.964593 0
M  V30 994 C 100.258 -1.11596 -1.74818 0
M  V30 995 C 100.683 0.32723 -1.85232 0
M  V30 996 O 100.041 1.23695 -1.32549 0
M  V30 997 C 100.089 -1.76397 -3.1451 0
M  V30 998 O 99.1927 -1.03685 -3.99153 0
M  V30 999 H 98.5337 -0.390196 -0.537255 0
M  V30 1000 H 101.064 -1.65002 -1.20977 0
M  V30 1001 H 101.074 -1.8228 -3.65018 0
M  V30 1002 H 99.7487 -2.81401 -3.06246 0
M  V30 1003 H 98.3257 -1.05611 -3.57632 0
M  V30 1004 N 100.511 1.16574 -1.06058 0
M  V30 1005 C 101.922 1.68662 -0.800632 0
M  V30 1006 C 102.273 1.84184 0.67608 0
M  V30 1007 O 101.398 1.53568 1.52466 0
M  V30 1008 C 101.993 3.06356 -1.44676 0
M  V30 1009 C 100.552 3.55575 -1.23465 0
M  V30 1010 C 99.6988 2.31616 -1.52477 0
M  V30 1011 H 102.65 1.00969 -1.22438 0
M  V30 1012 H 102.671 3.70636 -0.860788 0
M  V30 1013 H 102.183 2.95027 -2.52152 0
M  V30 1014 H 100.284 3.72167 -0.179527 0
M  V30 1015 H 100.397 4.37812 -1.94571 0
M  V30 1016 H 98.7608 2.36512 -0.945209 0
M  V30 1017 H 99.5438 2.22887 -2.61106 0
M  V30 1018 N 101.989 0.842826 1.3317 0
M  V30 1019 C 102.936 0.276885 2.29133 0
M  V30 1020 C 103.906 -0.609527 1.54512 0
M  V30 1021 O 105.091 -0.546955 1.82792 0
M  V30 1022 C 102.231 -0.538707 3.40869 0
M  V30 1023 C 101.344 0.372169 4.30394 0
M  V30 1024 C 100.479 -0.454908 5.29249 0
M  V30 1025 C 99.5179 0.45411 6.10413 0
M  V30 1026 N 98.6549 -0.335075 7.013 0
M  V30 1027 H 103.495 1.10052 2.76934 0
M  V30 1028 H 101.032 0.554161 1.36262 0
M  V30 1029 H 102.99 -1.02709 4.0436 0
M  V30 1030 H 101.62 -1.32727 2.9425 0
M  V30 1031 H 100.672 0.97888 3.6759 0
M  V30 1032 H 101.984 1.0703 4.87182 0
M  V30 1033 H 101.138 -1.00695 5.98285 0
M  V30 1034 H 99.8769 -1.18646 4.73048 0
M  V30 1035 H 98.8819 1.01813 5.40291 0
M  V30 1036 H 100.107 1.18409 6.68697 0
M  V30 1037 H 98.0529 -1.04994 6.47543 0
M  V30 1038 H 97.9699 0.304262 7.55387 0
M  V30 1039 H 99.2379 -0.869224 7.74638 0
M  V30 1040 N 103.467 -1.45747 0.599634 0
M  V30 1041 C 104.707 -2.04181 0.0946309 0
M  V30 1042 C 105.071 -1.45895 -1.24815 0
M  V30 1043 O 106.272 -1.95633 -1.8434 0
M  V30 1044 C 104.543 -3.57368 0.047581 0
M  V30 1045 S 106.102 -4.36997 -0.397387 0
M  V30 1046 H 102.92 -0.70953 0.0456954 0
M  V30 1047 H 105.522 -1.78564 0.795946 0
M  V30 1048 H 104.226 -3.97303 1.02852 0
M  V30 1049 H 103.757 -3.87549 -0.675977 0
M  V30 1050 H 105.772 -4.68012 -1.64862 0
M  V30 1051 N 104.945 -0.338344 -1.53925 0
M  V30 1052 C 106.175 0.260919 -2.04946 0
M  V30 1053 C 106.583 1.45174 -1.2133 0
M  V30 1054 O 105.926 1.82122 -0.240262 0
M  V30 1055 C 105.988 0.744596 -3.51704 0
M  V30 1056 C 105.652 -0.325883 -4.55837 0
M  V30 1057 C 106.649 -1.16687 -5.06636 0
M  V30 1058 C 104.334 -0.478317 -5.00017 0
M  V30 1059 C 106.328 -2.14588 -6.00192 0
M  V30 1060 C 104.015 -1.46073 -5.93385 0
M  V30 1061 C 105.013 -2.29297 -6.4336 0
M  V30 1062 O 104.701 -3.25867 -7.34892 0
M  V30 1063 H 104.433 0.0551207 -0.673749 0
M  V30 1064 H 106.987 -0.486984 -1.99544 0
M  V30 1065 H 105.217 1.54366 -3.54553 0
M  V30 1066 H 106.906 1.26383 -3.85723 0
M  V30 1067 H 107.672 -1.06016 -4.73271 0
M  V30 1068 H 103.551 0.159613 -4.60724 0
M  V30 1069 H 107.095 -2.79585 -6.39123 0
M  V30 1070 H 102.992 -1.56802 -6.26166 0
M  V30 1071 H 103.76 -3.21278 -7.5281 0
M  V30 1072 N 106.423 1.57458 -0.0668435 0
M  V30 1073 C 107.37 2.12439 0.902122 0
M  V30 1074 C 108.34 1.03565 1.2986 0
M  V30 1075 O 109.525 1.312 1.38532 0
M  V30 1076 C 106.665 2.6865 2.16614 0
M  V30 1077 C 105.778 3.91663 1.82274 0
M  V30 1078 C 104.913 4.36134 3.0325 0
M  V30 1079 C 103.952 5.51808 2.64904 0
M  V30 1080 N 103.089 5.9126 3.78624 0
M  V30 1081 H 107.929 2.94934 0.426382 0
M  V30 1082 H 105.466 1.4575 0.198819 0
M  V30 1083 H 107.424 2.99346 2.90599 0
M  V30 1084 H 106.054 1.88928 2.61737 0
M  V30 1085 H 105.106 3.6746 0.983719 0
M  V30 1086 H 106.418 4.75693 1.50059 0
M  V30 1087 H 105.572 4.68465 3.85519 0
M  V30 1088 H 104.311 3.50948 3.38655 0
M  V30 1089 H 103.316 5.19133 1.81055 0
M  V30 1090 H 104.541 6.38722 2.30675 0
M  V30 1091 H 102.487 5.09024 4.138 0
M  V30 1092 H 102.404 6.70018 3.5016 0
M  V30 1093 H 103.672 6.28212 4.61486 0
M  V30 1094 N 107.901 -0.206675 1.56239 0
M  V30 1095 C 108.831 -1.25909 1.96645 0
M  V30 1096 C 109.812 -1.48097 0.836734 0
M  V30 1097 O 110.997 -1.6003 1.10019 0
M  V30 1098 C 108.127 -2.6058 2.29599 0
M  V30 1099 C 107.081 -2.53024 3.452 0
M  V30 1100 C 106.407 -3.91861 3.63798 0
M  V30 1101 C 107.707 -2.06524 4.79734 0
M  V30 1102 H 109.401 -0.923369 2.84806 0
M  V30 1103 H 106.947 -0.442735 1.37025 0
M  V30 1104 H 108.9 -3.34375 2.56459 0
M  V30 1105 H 107.624 -2.95869 1.38307 0
M  V30 1106 H 106.283 -1.81684 3.18412 0
M  V30 1107 H 105.931 -4.24483 2.69857 0
M  V30 1108 H 105.631 -3.87683 4.4156 0
M  V30 1109 H 107.155 -4.67296 3.93022 0
M  V30 1110 H 108.569 -2.70072 5.05702 0
M  V30 1111 H 106.966 -2.13374 5.60885 0
M  V30 1112 H 108.036 -1.01802 4.74093 0
M  V30 1113 N 109.379 -1.50304 -0.473955 0
M  V30 1114 C 110.607 -1.64902 -1.24959 0
M  V30 1115 C 111.022 -0.331198 -1.85872 0
M  V30 1116 O 110.379 0.68652 -1.69095 0
M  V30 1117 C 110.43 -2.73803 -2.36038 0
M  V30 1118 O 110.151 -4.00477 -1.77624 0
M  V30 1119 C 111.652 -2.99349 -3.26964 0
M  V30 1120 H 108.872 -0.554383 -0.378022 0
M  V30 1121 H 111.416 -1.9651 -0.566054 0
M  V30 1122 H 109.571 -2.44898 -3.00173 0
M  V30 1123 H 109.985 -4.60678 -2.5075 0
M  V30 1124 H 111.459 -3.79217 -4.01121 0
M  V30 1125 H 111.936 -2.10307 -3.85574 0
M  V30 1126 H 112.542 -3.29774 -2.68569 0
M  V30 1127 N 110.857 0.726932 -1.39834 0
M  V30 1128 C 112.134 1.47902 -1.28001 0
M  V30 1129 C 112.514 2.1083 0.106789 0
M  V30 1130 O 111.862 1.99242 1.11869 0
M  V30 1131 C 112.072 2.52392 -2.41038 0
M  V30 1132 C 113.42 3.18546 -2.80737 0
M  V30 1133 O 114.444 2.62708 -2.40547 0
M  V30 1134 O 113.303 4.19604 -3.50135 0
M  V30 1135 H 110.397 0.657163 -0.502062 0
M  V30 1136 H 112.943 0.760071 -1.51727 0
M  V30 1137 H 111.715 2.04329 -3.33715 0
M  V30 1138 H 111.338 3.31837 -2.19021 0
M  V30 1139 N 112.336 1.25143 0.95797 0
M  V30 1140 C 113.283 1.05235 2.05412 0
M  V30 1141 C 114.253 -0.0374561 1.66058 0
M  V30 1142 O 115.438 0.119073 1.90428 0
M  V30 1143 C 112.578 0.673589 3.38462 0
M  V30 1144 C 111.691 1.8379 3.90954 0
M  V30 1145 C 110.826 1.40381 5.12315 0
M  V30 1146 C 109.865 2.53746 5.57027 0
M  V30 1147 N 109.002 2.11136 6.69601 0
M  V30 1148 H 113.842 1.99048 2.21774 0
M  V30 1149 H 111.379 0.991277 1.08683 0
M  V30 1150 H 113.337 0.434964 4.14926 0
M  V30 1151 H 111.967 -0.227554 3.21997 0
M  V30 1152 H 111.019 2.18992 3.11041 0
M  V30 1153 H 112.331 2.68937 4.20089 0
M  V30 1154 H 111.485 1.12464 5.96185 0
M  V30 1155 H 110.224 0.523015 4.84887 0
M  V30 1156 H 109.229 2.82412 4.71724 0
M  V30 1157 H 110.454 3.42398 5.86464 0
M  V30 1158 H 108.4 1.25468 6.4389 0
M  V30 1159 H 108.317 2.89832 6.98236 0
M  V30 1160 H 109.585 1.86385 7.56889 0
M  V30 1161 N 113.814 -1.1601 1.06675 0
M  V30 1162 C 115.042 -1.90527 0.806667 0
M  V30 1163 C 115.457 -1.77643 -0.639396 0
M  V30 1164 O 114.814 -1.12369 -1.43803 0
M  V30 1165 C 114.865 -3.41106 1.19705 0
M  V30 1166 O 114.586 -3.53608 2.58636 0
M  V30 1167 C 116.087 -4.32663 0.965266 0
M  V30 1168 H 113.307 -0.604053 0.292166 0
M  V30 1169 H 115.851 -1.47026 1.4214 0
M  V30 1170 H 114.006 -3.82296 0.626774 0
M  V30 1171 H 114.42 -4.47011 2.74375 0
M  V30 1172 H 115.894 -5.36763 1.288 0
M  V30 1173 H 116.371 -4.39089 -0.0987936 0
M  V30 1174 H 116.977 -3.97206 1.52011 0
M  V30 1175 N 115.292 -0.849877 -1.32721 0
M  V30 1176 C 116.538 -0.451591 -1.97708 0
M  V30 1177 C 116.871 0.989175 -1.6712 0
M  V30 1178 O 116.146 1.69334 -0.956891 0
M  V30 1179 C 116.429 -0.685598 -3.53513 0
M  V30 1180 C 116.282 -2.17444 -3.93749 0
M  V30 1181 C 117.601 -0.138874 -4.39881 0
M  V30 1182 H 114.72 -0.16555 -0.718166 0
M  V30 1183 H 117.362 -1.06742 -1.57182 0
M  V30 1184 H 115.512 -0.161416 -3.88165 0
M  V30 1185 H 117.184 -2.76433 -3.693 0
M  V30 1186 H 115.427 -2.65476 -3.43081 0
M  V30 1187 H 116.098 -2.28888 -5.02309 0
M  V30 1188 H 118.574 -0.587068 -4.11938 0
M  V30 1189 H 117.45 -0.332213 -5.47894 0
M  V30 1190 H 117.711 0.95806 -4.31594 0
M  V30 1191 N 116.77 1.45427 -0.607355 0
M  V30 1192 C 118.019 2.01452 -0.100036 0
M  V30 1193 C 118.332 1.48159 1.27704 0
M  V30 1194 O 119.538 1.96159 1.87707 0
M  V30 1195 C 117.994 3.59672 -0.128158 0
M  V30 1196 C 117.602 4.21962 -1.50507 0
M  V30 1197 C 119.346 4.23262 0.323932 0
M  V30 1198 C 117.253 5.72333 -1.48959 0
M  V30 1199 H 116.183 0.75325 -0.0336299 0
M  V30 1200 H 118.834 1.66901 -0.76265 0
M  V30 1201 H 117.216 3.91411 0.601105 0
M  V30 1202 H 118.39 4.01796 -2.25602 0
M  V30 1203 H 116.705 3.70565 -1.89923 0
M  V30 1204 H 119.302 5.33522 0.354691 0
M  V30 1205 H 119.645 3.93921 1.34656 0
M  V30 1206 H 120.178 3.96239 -0.352056 0
M  V30 1207 H 116.917 6.06373 -2.48981 0
M  V30 1208 H 116.437 5.94691 -0.781214 0
M  V30 1209 H 118.116 6.35525 -1.21313 0
M  V30 1210 N 118.248 0.346503 1.53744 0
M  V30 1211 C 119.496 -0.248612 2.00565 0
M  V30 1212 C 119.817 -1.5083 1.23593 0
M  V30 1213 O 119.087 -1.92858 0.343912 0
M  V30 1214 H 117.667 -0.0948564 0.740953 0
M  V30 1215 H 120.329 0.468341 1.89189 0
M  V30 1216 H 119.425 -0.488994 3.08245 0
M  V30 1217 N 119.726 -1.57421 0.075193 0
M  V30 1218 C 120.966 -1.95495 -0.596757 0
M  V30 1219 C 121.33 -0.954886 -1.66571 0
M  V30 1220 O 122.531 -1.22341 -2.39345 0
M  V30 1221 C 120.802 -3.382 -1.15566 0
M  V30 1222 S 122.361 -3.98254 -1.84226 0
M  V30 1223 H 119.179 -0.683649 -0.195307 0
M  V30 1224 H 121.781 -1.94925 0.149859 0
M  V30 1225 H 120.485 -4.08766 -0.36588 0
M  V30 1226 H 120.016 -3.42321 -1.93856 0
M  V30 1227 H 122.031 -3.85435 -3.12497 0
M  V30 1228 N 121.204 0.198386 -1.56346 0
M  V30 1229 C 122.429 0.939682 -1.84891 0
M  V30 1230 C 122.854 1.76202 -0.658369 0
M  V30 1231 O 122.212 1.76993 0.392851 0
M  V30 1232 C 122.26 1.81428 -3.11635 0
M  V30 1233 O 121.364 2.91265 -2.91956 0
M  V30 1234 H 120.705 0.264807 -0.608912 0
M  V30 1235 H 123.235 0.204695 -2.03573 0
M  V30 1236 H 123.245 2.21958 -3.42343 0
M  V30 1237 H 121.92 1.21004 -3.97908 0
M  V30 1238 H 120.497 2.54514 -2.72538 0
M  V30 1239 N 122.682 1.50554 0.465978 0
M  V30 1240 C 123.93 1.61479 1.21528 0
M  V30 1241 C 124.251 0.319596 1.92363 0
M  V30 1242 O 123.521 -0.663194 1.84333 0
M  V30 1243 H 122.101 0.595055 0.451573 0
M  V30 1244 H 124.763 1.87355 0.53704 0
M  V30 1245 H 123.859 2.42846 1.96042 0
M  V30 1246 N 124.16 -0.719506 1.40217 0
M  V30 1247 C 125.407 -1.47933 1.38283 0
M  V30 1248 C 125.735 -1.94493 -0.0161536 0
M  V30 1249 O 124.99 -1.68224 -0.999956 0
M  V30 1250 C 125.289 -2.72271 2.31524 0
M  V30 1251 C 124.955 -2.44496 3.78857 0
M  V30 1252 C 123.617 -2.36631 4.18998 0
M  V30 1253 C 125.969 -2.21104 4.71977 0
M  V30 1254 C 123.297 -2.03437 5.503 0
M  V30 1255 C 125.649 -1.89423 6.03574 0
M  V30 1256 C 124.313 -1.80038 6.42762 0
M  V30 1257 H 123.583 -0.541325 0.506012 0
M  V30 1258 H 126.23 -0.824502 1.72842 0
M  V30 1259 H 124.535 -3.42572 1.90137 0
M  V30 1260 H 126.232 -3.30348 2.27313 0
M  V30 1261 H 122.822 -2.51503 3.47051 0
M  V30 1262 H 127.006 -2.26139 4.41786 0
M  V30 1263 H 122.262 -1.94705 5.79569 0
M  V30 1264 H 126.436 -1.70336 6.75247 0
M  V30 1265 H 124.063 -1.54083 7.44421 0
M  V30 1266 N 125.638 -1.25649 -0.95132 0
M  V30 1267 C 126.588 -1.03004 -2.03406 0
M  V30 1268 C 127.572 0.034187 -1.60864 0
M  V30 1269 O 128.764 -0.181549 -1.76066 0
M  V30 1270 C 125.893 -0.654255 -3.37008 0
M  V30 1271 C 124.979 -1.75542 -3.86065 0
M  V30 1272 N 125.37 -2.99113 -4.07879 0
M  V30 1273 C 123.668 -1.63669 -4.14884 0
M  V30 1274 C 124.369 -3.70611 -4.48356 0
M  V30 1275 N 123.345 -2.98247 -4.54477 0
M  V30 1276 H 127.147 -1.96813 -2.1827 0
M  V30 1277 H 124.661 -1.16017 -1.13639 0
M  V30 1278 H 126.658 -0.473206 -4.14206 0
M  V30 1279 H 125.318 0.276468 -3.23521 0
M  V30 1280 H 126.329 -3.35124 -3.94857 0
M  V30 1281 H 123.006 -0.775161 -4.10241 0
M  V30 1282 H 124.396 -4.76695 -4.73509 0
M  V30 1283 N 127.117 1.15442 -1.07289 0
M  V30 1284 C 128.365 1.85845 -0.794096 0
M  V30 1285 C 128.686 1.82692 0.681809 0
M  V30 1286 O 127.956 1.26741 1.49377 0
M  V30 1287 H 126.536 0.688089 -0.290763 0
M  V30 1288 H 129.198 1.39947 -1.3565 0
M  V30 1289 H 128.294 2.91001 -1.12804 0
M  V30 1290 N 128.595 0.856903 1.32268 0
M  V30 1291 C 129.872 0.382583 1.91822 0
M  V30 1292 C 130.252 -1.13407 1.78051 0
M  V30 1293 O 129.6 -1.95673 1.18001 0
M  V30 1294 C 129.81 0.849446 3.38505 0
M  V30 1295 C 131.158 0.867936 4.15634 0
M  V30 1296 O 132.182 0.794232 3.47232 0
M  V30 1297 O 131.041 0.972286 5.37781 0
M  V30 1298 H 128.135 0.112014 0.819379 0
M  V30 1299 H 130.681 0.943952 1.41024 0
M  V30 1300 H 129.453 1.89267 3.42482 0
M  V30 1301 H 129.076 0.265652 3.96712 0
M  V30 1302 N 130.073 -1.45103 0.615059 0
M  V30 1303 C 131.313 -2.04069 0.116282 0
M  V30 1304 C 131.677 -1.4721 -1.2326 0
M  V30 1305 O 132.878 -1.97577 -1.82255 0
M  V30 1306 C 131.149 -3.57298 0.085482 0
M  V30 1307 S 132.708 -4.37394 -0.351015 0
M  V30 1308 H 129.526 -0.709006 0.0532183 0
M  V30 1309 H 132.128 -1.77709 0.81484 0
M  V30 1310 H 130.832 -3.9619 1.0706 0
M  V30 1311 H 130.363 -3.88244 -0.634835 0
M  V30 1312 H 132.378 -4.69734 -1.59889 0
M  V30 1313 N 131.551 -0.354651 -1.53558 0
M  V30 1314 C 132.481 0.489091 -2.2832 0
M  V30 1315 C 133.462 1.09324 -1.30316 0
M  V30 1316 O 134.647 1.11255 -1.59173 0
M  V30 1317 C 131.777 1.63456 -3.0643 0
M  V30 1318 C 130.731 1.1582 -4.12031 0
M  V30 1319 C 130.057 2.39305 -4.7816 0
M  V30 1320 C 131.357 0.250731 -5.21698 0
M  V30 1321 H 133.051 -0.134614 -2.99097 0
M  V30 1322 H 130.597 -0.0661826 -1.43848 0
M  V30 1323 H 132.55 2.23136 -3.57475 0
M  V30 1324 H 131.274 2.28533 -2.33325 0
M  V30 1325 H 129.933 0.584146 -3.61916 0
M  V30 1326 H 129.581 3.02814 -4.01637 0
M  V30 1327 H 129.281 2.08109 -5.49513 0
M  V30 1328 H 130.805 2.99691 -5.31994 0
M  V30 1329 H 132.219 0.754695 -5.68311 0
M  V30 1330 H 130.616 0.0301468 -6.00092 0
M  V30 1331 H 131.686 -0.710125 -4.79672 0
M  V30 1332 N 133.029 1.57378 -0.0835403 0
M  V30 1333 C 134.257 1.98263 0.59157 0
M  V30 1334 C 134.672 0.962302 1.62435 0
M  V30 1335 O 134.029 -0.049581 1.82433 0
M  V30 1336 C 134.08 3.39214 1.24965 0
M  V30 1337 O 133.801 4.37339 0.258186 0
M  V30 1338 C 135.302 3.95038 2.01147 0
M  V30 1339 H 132.522 0.651773 0.159477 0
M  V30 1340 H 135.066 2.03878 -0.159415 0
M  V30 1341 H 133.221 3.34649 1.95164 0
M  V30 1342 H 133.635 5.19371 0.731734 0
M  V30 1343 H 135.109 4.95848 2.42567 0
M  V30 1344 H 135.586 3.32222 2.87272 0
M  V30 1345 H 136.192 4.0304 1.35789 0
M  V30 1346 N 134.507 -0.190092 1.56449 0
M  V30 1347 C 135.437 -1.23816 1.97969 0
M  V30 1348 C 136.418 -1.47201 0.852395 0
M  V30 1349 O 137.603 -1.58854 1.1171 0
M  V30 1350 C 134.733 -2.5813 2.3235 0
M  V30 1351 C 133.687 -2.49348 3.47864 0
M  V30 1352 C 133.013 -3.8798 3.67934 0
M  V30 1353 C 134.313 -2.01424 4.81898 0
M  V30 1354 H 136.007 -0.89311 2.85769 0
M  V30 1355 H 133.553 -0.428177 1.37487 0
M  V30 1356 H 135.506 -3.31637 2.59991 0
M  V30 1357 H 134.23 -2.94386 1.41438 0
M  V30 1358 H 132.889 -1.78297 3.20321 0
M  V30 1359 H 132.537 -4.21597 2.74344 0
M  V30 1360 H 132.237 -3.82978 4.45648 0
M  V30 1361 H 133.761 -4.63101 3.97957 0
M  V30 1362 H 135.175 -2.64693 5.08538 0
M  V30 1363 H 133.572 -2.07413 5.63116 0
M  V30 1364 H 134.642 -0.967677 4.75146 0
M  V30 1365 N 135.985 -1.50799 -0.457987 0
M  V30 1366 C 137.213 -1.66218 -1.23203 0
M  V30 1367 C 137.628 -0.350894 -1.85511 0
M  V30 1368 O 136.985 0.668546 -1.69814 0
M  V30 1369 C 137.036 -2.76291 -2.33121 0
M  V30 1370 O 136.757 -4.02338 -1.73366 0
M  V30 1371 C 138.258 -3.028 -3.2377 0
M  V30 1372 H 135.478 -0.558361 -0.372121 0
M  V30 1373 H 138.022 -1.97099 -0.545179 0
M  V30 1374 H 136.177 -2.48068 -2.97558 0
M  V30 1375 H 136.591 -4.63312 -2.4585 0
M  V30 1376 H 138.065 -3.8345 -3.97077 0
M  V30 1377 H 138.542 -2.14385 -3.83322 0
M  V30 1378 H 139.148 -3.32604 -2.65056 0
M  V30 1379 N 137.463 0.71206 -1.40597 0
M  V30 1380 C 138.41 1.82613 -1.41142 0
M  V30 1381 C 139.38 1.63925 -0.267903 0
M  V30 1382 O 140.565 1.85009 -0.466495 0
M  V30 1383 C 137.705 3.20354 -1.28324 0
M  V30 1384 C 136.818 3.50589 -2.52411 0
M  V30 1385 C 135.953 4.77855 -2.32009 0
M  V30 1386 C 134.992 5.01005 -3.51654 0
M  V30 1387 N 134.129 6.19487 -3.30425 0
M  V30 1388 H 138.969 1.81482 -2.36365 0
M  V30 1389 H 136.506 0.886475 -1.17388 0
M  V30 1390 H 138.464 3.99899 -1.18899 0
M  V30 1391 H 137.094 3.20705 -0.367189 0
M  V30 1392 H 136.146 2.65573 -2.72351 0
M  V30 1393 H 137.458 3.63604 -3.41458 0
M  V30 1394 H 136.612 5.65424 -2.19956 0
M  V30 1395 H 135.351 4.67056 -1.40392 0
M  V30 1396 H 134.356 4.1189 -3.64179 0
M  V30 1397 H 135.581 5.13674 -4.44202 0
M  V30 1398 H 133.527 6.09932 -2.41494 0
M  V30 1399 H 133.444 6.33194 -4.13039 0
M  V30 1400 H 134.712 7.09834 -3.22113 0
M  V30 1401 N 138.941 1.26152 0.944643 0
M  V30 1402 C 140.19 1.10883 1.68487 0
M  V30 1403 C 140.503 -0.348153 1.92477 0
M  V30 1404 O 141.709 -0.621459 2.64292 0
M  V30 1405 C 140.165 1.93624 3.03377 0
M  V30 1406 C 139.773 3.43875 2.87148 0
M  V30 1407 C 141.517 1.86954 3.81115 0
M  V30 1408 C 139.424 4.18875 4.1749 0
M  V30 1409 H 138.354 0.41135 0.631907 0
M  V30 1410 H 141.005 1.50433 1.05082 0
M  V30 1411 H 139.387 1.46904 3.67743 0
M  V30 1412 H 140.561 3.98338 2.31653 0
M  V30 1413 H 138.876 3.51744 2.22856 0
M  V30 1414 H 141.473 2.40275 4.77673 0
M  V30 1415 H 141.816 0.839518 4.07747 0
M  V30 1416 H 142.349 2.31477 3.23517 0
M  V30 1417 H 139.088 5.22332 3.96043 0
M  V30 1418 H 138.608 3.69193 4.72712 0
M  V30 1419 H 140.287 4.27134 4.85968 0
M  V30 1420 N 140.419 -1.14872 1.07899 0
M  V30 1421 C 141.668 -1.85135 0.800499 0
M  V30 1422 C 141.981 -1.83547 -0.676014 0
M  V30 1423 O 143.187 -2.49548 -1.06948 0
M  V30 1424 C 141.643 -3.3231 1.38197 0
M  V30 1425 C 141.251 -3.42329 2.8899 0
M  V30 1426 C 142.995 -4.0772 1.18174 0
M  V30 1427 C 140.902 -4.83684 3.403 0
M  V30 1428 H 139.832 -0.693563 0.29578 0
M  V30 1429 H 142.483 -1.29532 1.29976 0
M  V30 1430 H 140.865 -3.87618 0.810431 0
M  V30 1431 H 142.039 -2.97097 3.52236 0
M  V30 1432 H 140.354 -2.80369 3.07867 0
M  V30 1433 H 142.951 -5.12049 1.5398 0
M  V30 1434 H 143.294 -4.16124 0.12117 0
M  V30 1435 H 143.827 -3.58696 1.71994 0
M  V30 1436 H 140.566 -4.80465 4.45907 0
M  V30 1437 H 140.086 -5.29474 2.81811 0
M  V30 1438 H 141.765 -5.52558 3.36584 0
M  V30 1439 N 141.898 -0.863906 -1.31812 0
M  V30 1440 C 142.808 -0.318461 -2.32428 0
M  V30 1441 C 143.824 0.568496 -1.64451 0
M  V30 1442 O 145 0.46666 -1.95919 0
M  V30 1443 C 142.065 0.476355 -3.43412 0
M  V30 1444 C 141.126 -0.43784 -4.27061 0
M  V30 1445 C 140.359 0.319138 -5.32745 0
M  V30 1446 O 140.582 1.54799 -5.48993 0
M  V30 1447 O 139.516 -0.319861 -6.01049 0
M  V30 1448 H 143.342 -1.15229 -2.80991 0
M  V30 1449 H 140.927 -0.627103 -1.35602 0
M  V30 1450 H 142.809 0.927156 -4.11074 0
M  V30 1451 H 141.484 1.28683 -2.97022 0
M  V30 1452 H 140.391 -0.937013 -3.62175 0
M  V30 1453 H 141.724 -1.21375 -4.77 0
M  V30 1454 N 143.376 1.44774 -0.622745 0
M  V30 1455 C 144.339 2.29069 0.0774015 0
M  V30 1456 C 145.339 1.4059 0.780461 0
M  V30 1457 O 146.529 1.62551 0.626322 0
M  V30 1458 C 143.661 3.21974 1.12006 0
M  V30 1459 H 144.854 2.92459 -0.663901 0
M  V30 1460 H 142.407 1.51548 -0.382486 0
M  V30 1461 H 143.142 2.63417 1.89162 0
M  V30 1462 H 142.927 3.87168 0.619951 0
M  V30 1463 H 144.417 3.85318 1.60995 0
M  V30 1464 N 144.854 0.36279 1.53368 0
M  V30 1465 C 146.27 0.0116182 1.59596 0
M  V30 1466 C 146.47 -1.47012 1.37803 0
M  V30 1467 O 145.526 -2.23136 1.18181 0
M  V30 1468 C 146.839 0.465052 2.97082 0
M  V30 1469 C 148.387 0.419033 3.10182 0
M  V30 1470 C 148.862 0.848235 4.50077 0
M  V30 1471 N 150.353 0.803183 4.56183 0
M  V30 1472 C 151.088 1.107 5.62613 0
M  V30 1473 N 150.584 1.47996 6.76808 0
M  V30 1474 N 152.377 1.02998 5.52583 0
M  V30 1475 H 144.528 1.32775 1.65785 0
M  V30 1476 H 146.791 0.542518 0.777417 0
M  V30 1477 H 146.497 1.49892 3.18159 0
M  V30 1478 H 146.371 -0.149786 3.76902 0
M  V30 1479 H 148.758 -0.605696 2.88817 0
M  V30 1480 H 148.839 1.06933 2.32377 0
M  V30 1481 H 148.483 1.87107 4.7218 0
M  V30 1482 H 148.413 0.175218 5.26308 0
M  V30 1483 H 150.904 0.52838 3.74188 0
M  V30 1484 H 151.217 1.69613 7.53957 0
M  V30 1485 H 149.562 1.51859 6.78206 0
M  V30 1486 H 152.753 0.737817 4.62249 0
M  V30 1487 H 152.926 1.2701 6.35431 0
M  V30 1488 N 146.332 -1.57332 0.0918853 0
M  V30 1489 C 147.262 -2.16872 -0.865371 0
M  V30 1490 C 148.243 -1.10118 -1.29646 0
M  V30 1491 O 149.428 -1.38242 -1.36392 0
M  V30 1492 C 146.558 -2.74649 -2.12569 0
M  V30 1493 C 145.512 -3.86747 -1.83333 0
M  V30 1494 C 144.838 -4.31212 -3.16166 0
M  V30 1495 C 146.138 -5.10089 -1.1228 0
M  V30 1496 H 147.832 -2.97114 -0.369307 0
M  V30 1497 H 145.378 -1.42918 -0.176194 0
M  V30 1498 H 147.331 -3.14952 -2.7997 0
M  V30 1499 H 146.055 -1.91657 -2.64452 0
M  V30 1500 H 144.714 -3.46978 -1.18331 0
M  V30 1501 H 144.362 -3.45115 -3.6593 0
M  V30 1502 H 144.062 -5.06788 -2.97388 0
M  V30 1503 H 145.586 -4.74146 -3.84731 0
M  V30 1504 H 147 -5.47582 -1.69785 0
M  V30 1505 H 145.397 -5.91073 -1.03693 0
M  V30 1506 H 146.467 -4.84786 -0.105041 0
M  V30 1507 N 147.81 0.181792 -1.56548 0
M  V30 1508 C 148.757 1.22521 -1.95595 0
M  V30 1509 C 149.727 1.4454 -0.818373 0
M  V30 1510 O 150.912 1.57454 -1.07763 0
M  V30 1511 C 148.052 2.56193 -2.31212 0
M  V30 1512 C 147.165 2.41641 -3.58097 0
M  V30 1513 C 146.3 3.68108 -3.82975 0
M  V30 1514 C 145.339 3.48445 -5.03242 0
M  V30 1515 N 144.476 4.66956 -5.24306 0
M  V30 1516 H 149.316 0.885226 -2.84548 0
M  V30 1517 H 146.853 0.425718 -1.40805 0
M  V30 1518 H 148.811 3.34088 -2.49882 0
M  V30 1519 H 147.441 2.88208 -1.45382 0
M  V30 1520 H 146.493 1.54976 -3.474 0
M  V30 1521 H 147.805 2.23052 -4.46149 0
M  V30 1522 H 146.959 4.54441 -4.01956 0
M  V30 1523 H 145.698 3.89666 -2.93278 0
M  V30 1524 H 144.703 2.60499 -4.8417 0
M  V30 1525 H 145.928 3.2832 -5.9446 0
M  V30 1526 H 143.874 4.88752 -4.37559 0
M  V30 1527 H 143.791 4.51242 -6.06561 0
M  V30 1528 H 145.059 5.54602 -5.47756 0
M  V30 1529 N 149.288 1.51039 0.449983 0
M  V30 1530 C 150.221 1.66105 1.56474 0
M  V30 1531 C 151.199 0.508776 1.54435 0
M  V30 1532 O 152.383 0.731005 1.73749 0
M  V30 1533 C 149.51 1.66304 2.9506 0
M  V30 1534 C 148.556 2.87346 3.15174 0
M  V30 1535 S 149.389 4.4835 2.92818 0
M  V30 1536 C 150.545 4.51274 4.33708 0
M  V30 1537 H 150.778 2.60397 1.43459 0
M  V30 1538 H 148.311 1.40565 0.638805 0
M  V30 1539 H 150.269 1.67103 3.74949 0
M  V30 1540 H 148.93 0.732108 3.05449 0
M  V30 1541 H 148.123 2.83849 4.16468 0
M  V30 1542 H 147.725 2.84223 2.43091 0
M  V30 1543 H 150.017 4.26136 5.26701 0
M  V30 1544 H 150.96 5.53017 4.42242 0
M  V30 1545 H 151.368 3.80738 4.16772 0
M  V30 1546 N 150.766 -0.704594 1.40972 0
M  V30 1547 C 151.996 -1.49138 1.42974 0
M  V30 1548 C 152.404 -1.89175 0.0308406 0
M  V30 1549 O 151.747 -1.56734 -0.958138 0
M  V30 1550 C 151.809 -2.79016 2.26694 0
M  V30 1551 C 151.473 -2.61236 3.74973 0
M  V30 1552 C 152.47 -2.27773 4.67349 0
M  V30 1553 C 150.155 -2.77158 4.18914 0
M  V30 1554 C 152.149 -2.10457 6.01653 0
M  V30 1555 C 149.836 -2.59459 5.53285 0
M  V30 1556 C 150.834 -2.26158 6.4447 0
M  V30 1557 O 150.522 -2.08605 7.76363 0
M  V30 1558 H 150.254 -0.466443 0.489292 0
M  V30 1559 H 152.808 -0.8758 1.85793 0
M  V30 1560 H 151.038 -3.42947 1.78673 0
M  V30 1561 H 152.727 -3.40782 2.20504 0
M  V30 1562 H 153.493 -2.15095 4.34694 0
M  V30 1563 H 149.372 -3.02064 3.48251 0
M  V30 1564 H 152.916 -1.84387 6.72791 0
M  V30 1565 H 148.813 -2.71725 5.85522 0
M  V30 1566 H 149.581 -2.23439 7.87412 0
M  V30 1567 N 152.244 -1.26651 -0.937939 0
M  V30 1568 C 153.191 -1.0849 -2.03712 0
M  V30 1569 C 154.161 0.011033 -1.66096 0
M  V30 1570 O 155.346 -0.149353 -1.90215 0
M  V30 1571 C 152.486 -0.72735 -3.37348 0
M  V30 1572 C 151.599 -1.89986 -3.87981 0
M  V30 1573 C 150.734 -1.48513 -5.10017 0
M  V30 1574 C 149.773 -2.62575 -5.5292 0
M  V30 1575 N 148.91 -2.21762 -6.66158 0
M  V30 1576 H 153.75 -2.02551 -2.18579 0
M  V30 1577 H 151.287 -1.00844 -1.07093 0
M  V30 1578 H 153.245 -0.50092 -4.14182 0
M  V30 1579 H 151.875 0.176298 -3.22318 0
M  V30 1580 H 150.927 -2.23913 -3.07518 0
M  V30 1581 H 152.239 -2.75586 -4.15757 0
M  V30 1582 H 151.393 -1.21934 -5.94321 0
M  V30 1583 H 150.132 -0.60009 -4.83994 0
M  V30 1584 H 149.137 -2.8988 -4.67172 0
M  V30 1585 H 150.362 -3.51685 -5.80943 0
M  V30 1586 H 148.308 -1.35696 -6.41812 0
M  V30 1587 H 148.225 -3.00903 -6.93537 0
M  V30 1588 H 149.493 -1.98403 -7.53828 0
M  V30 1589 N 153.722 1.14298 -1.08507 0
M  V30 1590 C 154.672 2.17449 -0.685569 0
M  V30 1591 C 155.656 1.58167 0.295315 0
M  V30 1592 O 156.848 1.76675 0.107172 0
M  V30 1593 C 153.977 3.43161 -0.0975318 0
M  V30 1594 C 153.063 4.09471 -1.10426 0
M  V30 1595 N 153.454 4.51089 -2.28806 0
M  V30 1596 C 151.752 4.35976 -0.940258 0
M  V30 1597 C 152.453 5.02654 -2.9277 0
M  V30 1598 N 151.429 4.96927 -2.20374 0
M  V30 1599 H 155.231 2.47369 -1.587 0
M  V30 1600 H 152.745 1.30992 -0.959936 0
M  V30 1601 H 154.742 4.16388 0.20664 0
M  V30 1602 H 153.402 3.14719 0.798872 0
M  V30 1603 H 154.413 4.44097 -2.66455 0
M  V30 1604 H 151.09 4.17386 -0.0977441 0
M  V30 1605 H 152.48 5.44723 -3.93352 0
M  V30 1606 N 155.201 0.870884 1.31352 0
M  V30 1607 C 156.426 0.495957 2.01383 0
M  V30 1608 C 156.851 -0.904324 1.64935 0
M  V30 1609 O 156.209 -1.59687 0.858466 0
M  V30 1610 C 156.257 0.661433 3.54482 0
M  V30 1611 O 155.361 -0.298851 4.11316 0
M  V30 1612 H 154.702 0.197158 0.634054 0
M  V30 1613 H 157.232 1.17455 1.67527 0
M  V30 1614 H 157.242 0.555072 4.04207 0
M  V30 1615 H 155.917 1.68246 3.8035 0
M  V30 1616 H 154.494 -0.147368 3.72609 0
M  V30 1617 N 156.679 -1.44442 0.630414 0
M  V30 1618 C 157.627 -2.32437 -0.0871428 0
M  V30 1619 C 158.621 -1.47304 -0.836525 0
M  V30 1620 O 159.827 -1.63653 -0.749506 0
M  V30 1621 H 156.202 -0.750533 -0.0469495 0
M  V30 1622 H 158.173 -2.90709 0.673096 0
M  V30 1623 C 156.922 -3.31288 -1.05563 0
M  V30 1624 H 156.245 -3.96805 -0.488426 0
M  V30 1625 H 157.685 -3.9554 -1.52721 0
M  V30 1626 C 156.144 -2.6016 -2.14052 0
M  V30 1627 O 156.674 -2.39997 -3.22124 0
M  V30 1628 N 154.88 -2.19911 -1.89967 0
M  V30 1629 H 154.427 -2.36509 -1.02085 0
M  V30 1630 H 154.385 -1.72646 -2.62756 0
M  V30 1631 N 158.157 -0.370918 -1.53173 0
M  V30 1632 C 159.105 0.488101 -2.27421 0
M  V30 1633 C 160.099 1.07884 -1.30604 0
M  V30 1634 O 161.305 1.02143 -1.48212 0
M  V30 1635 H 157.68 0.176134 -0.731082 0
M  V30 1636 H 159.651 -0.159815 -2.97972 0
M  V30 1637 C 158.4 1.61306 -3.08019 0
M  V30 1638 H 157.723 1.1678 -3.82364 0
M  V30 1639 H 159.163 2.18872 -3.63141 0
M  V30 1640 C 157.622 2.55848 -2.19188 0
M  V30 1641 O 158.152 3.58799 -1.80626 0
M  V30 1642 N 156.358 2.2516 -1.83715 0
M  V30 1643 H 155.905 1.41476 -2.15273 0
M  V30 1644 H 155.863 2.8867 -1.24567 0
M  V30 1645 N 159.635 1.57281 -0.100228 0
M  V30 1646 C 160.582 2.14305 0.856858 0
M  V30 1647 C 161.552 1.06296 1.27634 0
M  V30 1648 O 162.737 1.34109 1.35718 0
M  V30 1649 C 159.877 2.73184 2.10866 0
M  V30 1650 C 158.99 3.95442 1.73925 0
M  V30 1651 C 158.125 4.42468 2.93931 0
M  V30 1652 C 157.164 5.57303 2.5314 0
M  V30 1653 N 156.301 5.99158 3.65997 0
M  V30 1654 H 161.141 2.95772 0.363726 0
M  V30 1655 H 158.678 1.46139 0.167858 0
M  V30 1656 H 160.636 3.05442 2.84185 0
M  V30 1657 H 159.266 1.94437 2.57671 0
M  V30 1658 H 158.318 3.69464 0.905554 0
M  V30 1659 H 159.63 4.78769 1.39935 0
M  V30 1660 H 158.784 4.76537 3.75496 0
M  V30 1661 H 157.523 3.58052 3.31134 0
M  V30 1662 H 156.528 5.22857 1.70003 0
M  V30 1663 H 157.753 6.43471 2.17075 0
M  V30 1664 H 155.699 5.17687 4.02909 0
M  V30 1665 H 155.616 6.77295 3.35869 0
M  V30 1666 H 156.884 6.3786 4.48057 0
M  V30 1667 N 161.113 -0.173488 1.56642 0
M  V30 1668 C 162.076 -1.19859 1.95362 0
M  V30 1669 C 163.076 -1.37296 0.83704 0
M  V30 1670 O 164.266 -1.34739 1.10413 0
M  V30 1671 C 161.398 -2.56405 2.24654 0
M  V30 1672 H 162.591 -0.867062 2.87092 0
M  V30 1673 H 160.144 -0.415853 1.50666 0
M  V30 1674 H 160.879 -2.94576 1.35631 0
M  V30 1675 H 160.664 -2.45115 3.06041 0
M  V30 1676 H 162.154 -3.30287 2.5554 0
M  V30 1677 N 162.591 -1.51276 -0.441967 0
M  V30 1678 C 163.524 -1.66933 -1.55591 0
M  V30 1679 C 164.502 -0.516958 -1.54163 0
M  V30 1680 O 165.686 -0.740209 -1.73358 0
M  V30 1681 C 162.813 -1.67866 -2.94174 0
M  V30 1682 C 161.859 -2.89013 -3.13646 0
M  V30 1683 S 162.692 -4.49897 -2.90436 0
M  V30 1684 C 163.848 -4.53568 -4.31308 0
M  V30 1685 H 164.081 -2.61155 -1.42076 0
M  V30 1686 H 161.614 -1.40902 -0.631341 0
M  V30 1687 H 163.572 -1.69089 -3.74058 0
M  V30 1688 H 162.233 -0.748296 -3.05056 0
M  V30 1689 H 161.426 -2.86054 -4.14957 0
M  V30 1690 H 161.028 -2.85509 -2.4158 0
M  V30 1691 H 163.32 -4.28924 -5.24434 0
M  V30 1692 H 164.263 -5.55355 -4.39303 0
M  V30 1693 H 164.671 -3.82943 -4.14747 0
M  V30 1694 N 164.069 0.697108 -1.41344 0
M  V30 1695 C 165.297 1.48593 -1.43972 0
M  V30 1696 C 165.712 1.88747 -0.0445612 0
M  V30 1697 O 165.069 1.56682 0.935785 0
M  V30 1698 C 165.12 2.74946 -2.34706 0
M  V30 1699 O 164.841 2.36484 -3.68791 0
M  V30 1700 C 166.342 3.687 -2.46121 0
M  V30 1701 H 163.562 0.457964 -0.490418 0
M  V30 1702 H 166.106 0.858429 -1.8561 0
M  V30 1703 H 164.261 3.33937 -1.9638 0
M  V30 1704 H 164.675 3.17918 -4.17167 0
M  V30 1705 H 166.149 4.54145 -3.13777 0
M  V30 1706 H 166.626 4.13081 -1.49199 0
M  V30 1707 H 167.232 3.15613 -2.85076 0
M  V30 1708 N 165.547 1.27147 0.931209 0
M  V30 1709 C 166.775 1.16082 1.71267 0
M  V30 1710 C 167.19 -0.282772 1.8667 0
M  V30 1711 O 166.547 -1.19283 1.38122 0
M  V30 1712 C 166.598 1.8358 3.11417 0
M  V30 1713 O 166.319 3.22299 2.96741 0
M  V30 1714 C 167.82 1.78597 4.05732 0
M  V30 1715 H 165.04 0.403758 0.535929 0
M  V30 1716 H 167.584 1.67953 1.16671 0
M  V30 1717 H 165.739 1.35623 3.62885 0
M  V30 1718 H 166.153 3.55851 3.85319 0
M  V30 1719 H 167.627 2.30444 5.01597 0
M  V30 1720 H 168.104 0.754564 4.3267 0
M  V30 1721 H 168.71 2.26152 3.60188 0
M  V30 1722 N 167.025 -1.13721 1.09112 0
M  V30 1723 C 168.273 -1.84559 0.823562 0
M  V30 1724 C 168.594 -1.83754 -0.652658 0
M  V30 1725 O 167.864 -1.29102 -1.47342 0
M  V30 1726 H 166.444 -0.683376 0.301673 0
M  V30 1727 H 169.106 -1.37771 1.37859 0
M  V30 1728 H 168.202 -2.8917 1.17419 0
M  V30 1729 N 168.503 -0.877838 -1.30888 0
M  V30 1730 C 169.466 -0.344265 -2.266 0
M  V30 1731 C 170.466 0.50922 -1.52524 0
M  V30 1732 O 171.656 0.317398 -1.71284 0
M  V30 1733 C 168.788 0.510198 -3.37061 0
M  V30 1734 H 169.981 -1.1893 -2.7531 0
M  V30 1735 H 167.534 -0.654088 -1.41956 0
M  V30 1736 H 168.269 1.37612 -2.93655 0
M  V30 1737 H 168.054 -0.101047 -3.9197 0
M  V30 1738 H 169.544 0.875537 -4.08319 0
M  V30 1739 N 169.982 1.44106 -0.638065 0
M  V30 1740 C 171.231 2.01194 -0.142744 0
M  V30 1741 C 171.544 1.50835 1.24532 0
M  V30 1742 O 172.75 2.00096 1.83504 0
M  V30 1743 C 171.206 3.59319 -0.20442 0
M  V30 1744 C 170.814 4.18674 -1.59423 0
M  V30 1745 C 172.558 4.23854 0.234079 0
M  V30 1746 C 170.465 5.69045 -1.61065 0
M  V30 1747 H 169.395 0.752367 -0.0495998 0
M  V30 1748 H 172.046 1.65246 -0.797881 0
M  V30 1749 H 170.428 3.92598 0.517946 0
M  V30 1750 H 171.602 3.96921 -2.34074 0
M  V30 1751 H 169.917 3.66453 -1.97741 0
M  V30 1752 H 172.514 5.34155 0.241443 0
M  V30 1753 H 172.857 3.96688 1.2627 0
M  V30 1754 H 173.39 3.95403 -0.436025 0
M  V30 1755 H 170.129 6.00956 -2.61787 0
M  V30 1756 H 169.649 5.929 -0.90718 0
M  V30 1757 H 171.328 6.32809 -1.34766 0
M  V30 1758 N 171.46 0.379036 1.52974 0
M  V30 1759 C 172.423 -0.448865 2.24762 0
M  V30 1760 C 173.423 -0.998689 1.26027 0
M  V30 1761 O 174.613 -0.882313 1.50203 0
M  V30 1762 C 171.745 -1.62872 2.99476 0
M  V30 1763 H 172.938 0.179491 2.99362 0
M  V30 1764 H 170.491 0.13096 1.5575 0
M  V30 1765 H 171.226 -2.29479 2.29151 0
M  V30 1766 H 171.011 -1.24128 3.71934 0
M  V30 1767 H 172.501 -2.2151 3.5401 0
M  V30 1768 N 172.938 -1.57226 0.108567 0
M  V30 1769 C 173.901 -2.13602 -0.831082 0
M  V30 1770 C 174.901 -1.06841 -1.20173 0
M  V30 1771 O 176.091 -1.32666 -1.12895 0
M  V30 1772 C 173.223 -2.66769 -2.12243 0
M  V30 1773 H 174.416 -2.97951 -0.341317 0
M  V30 1774 H 171.969 -1.55667 -0.14057 0
M  V30 1775 H 172.704 -1.85977 -2.65675 0
M  V30 1776 H 172.489 -3.44839 -1.86625 0
M  V30 1777 H 173.979 -3.10332 -2.79435 0
M  V30 1778 N 174.416 0.165178 -1.56732 0
M  V30 1779 C 175.349 1.23336 -1.91998 0
M  V30 1780 C 176.327 1.42476 -0.783531 0
M  V30 1781 O 177.511 1.57384 -1.03743 0
M  V30 1782 C 174.638 2.59533 -2.17625 0
M  V30 1783 C 173.684 2.57093 -3.40302 0
M  V30 1784 S 174.517 2.05571 -4.9447 0
M  V30 1785 C 175.673 3.43532 -5.23198 0
M  V30 1786 H 175.906 0.932387 -2.82301 0
M  V30 1787 H 173.439 0.370013 -1.49901 0
M  V30 1788 H 175.397 3.37918 -2.3307 0
M  V30 1789 H 174.058 2.86827 -1.28019 0
M  V30 1790 H 173.251 3.57308 -3.55453 0
M  V30 1791 H 172.853 1.86806 -3.24005 0
M  V30 1792 H 175.145 4.39559 -5.15552 0
M  V30 1793 H 176.088 3.33251 -6.2478 0
M  V30 1794 H 176.496 3.39828 -4.50752 0
M  V30 1795 N 175.894 1.51508 0.433938 0
M  V30 1796 C 176.824 1.76016 1.53429 0
M  V30 1797 C 177.805 0.610112 1.58782 0
M  V30 1798 O 178.99 0.853177 1.74455 0
M  V30 1799 C 176.12 1.88831 2.9148 0
M  V30 1800 C 175.074 3.04288 3.00987 0
M  V30 1801 C 174.4 3.0229 4.4105 0
M  V30 1802 C 175.7 4.44193 2.74754 0
M  V30 1803 H 177.394 2.68152 1.33171 0
M  V30 1804 H 174.94 1.29035 0.639214 0
M  V30 1805 H 176.893 2.04559 3.6842 0
M  V30 1806 H 175.617 0.933455 3.12976 0
M  V30 1807 H 174.276 2.8827 2.26486 0
M  V30 1808 H 173.924 2.04576 4.59519 0
M  V30 1809 H 173.624 3.79822 4.4834 0
M  V30 1810 H 175.148 3.20116 5.1996 0
M  V30 1811 H 176.562 4.60544 3.41426 0
M  V30 1812 H 174.959 5.23457 2.9345 0
M  V30 1813 H 176.029 4.53996 1.70339 0
M  V30 1814 N 177.372 -0.689602 1.41712 0
M  V30 1815 C 178.597 -1.48329 1.44959 0
M  V30 1816 C 179.022 -1.8801 0.0581283 0
M  V30 1817 O 178.38 -1.55026 -0.940035 0
M  V30 1818 C 178.428 -2.71835 2.36935 0
M  V30 1819 O 177.532 -3.69549 1.8305 0
M  V30 1820 H 176.873 -0.446199 0.491734 0
M  V30 1821 H 179.403 -0.847127 1.86239 0
M  V30 1822 H 179.413 -3.20076 2.53013 0
M  V30 1823 H 178.088 -2.42291 3.38035 0
M  V30 1824 H 176.665 -3.2851 1.76452 0
M  V30 1825 N 178.85 -1.27639 -0.924453 0
M  V30 1826 C 180.078 -1.16989 -1.70649 0
M  V30 1827 C 180.493 0.272869 -1.86818 0
M  V30 1828 O 179.85 1.18549 -1.38753 0
M  V30 1829 C 179.901 -1.85229 -3.10439 0
M  V30 1830 O 179.622 -3.23868 -2.95028 0
M  V30 1831 C 181.123 -1.80746 -4.04779 0
M  V30 1832 H 178.343 -0.406595 -0.53378 0
M  V30 1833 H 180.887 -1.68569 -1.15778 0
M  V30 1834 H 179.042 -1.37545 -3.6216 0
M  V30 1835 H 179.456 -3.57889 -3.83426 0
M  V30 1836 H 180.93 -2.33101 -5.00368 0
M  V30 1837 H 181.407 -0.777499 -4.32263 0
M  V30 1838 H 182.013 -2.28059 -3.58984 0
M  V30 1839 N 180.328 1.1314 -1.09713 0
M  V30 1840 C 181.577 1.83838 -0.829851 0
M  V30 1841 C 181.89 1.84599 0.646728 0
M  V30 1842 O 183.096 2.51218 1.02965 0
M  V30 1843 C 181.552 3.30069 -1.43466 0
M  V30 1844 C 181.16 3.37688 -2.94399 0
M  V30 1845 C 182.904 4.05788 -1.24645 0
M  V30 1846 C 180.811 4.78209 -3.47952 0
M  V30 1847 H 179.741 0.68877 -0.306777 0
M  V30 1848 H 182.392 1.27448 -1.3202 0
M  V30 1849 H 180.774 3.8628 -0.871996 0
M  V30 1850 H 181.948 2.91456 -3.56918 0
M  V30 1851 H 180.263 2.75436 -3.12289 0
M  V30 1852 H 182.86 5.09535 -1.62107 0
M  V30 1853 H 183.203 4.15878 -0.187357 0
M  V30 1854 H 183.736 3.55915 -1.77678 0
M  V30 1855 H 180.475 4.73311 -4.53495 0
M  V30 1856 H 179.995 5.24924 -2.90198 0
M  V30 1857 H 181.674 5.47133 -3.45332 0
M  V30 1858 N 181.806 0.884767 1.30421 0
M  V30 1859 C 182.736 0.367574 2.30589 0
M  V30 1860 C 183.717 -0.549464 1.60981 0
M  V30 1861 O 184.902 -0.46336 1.88591 0
M  V30 1862 C 182.032 -0.418944 3.44764 0
M  V30 1863 C 180.986 0.406316 4.26067 0
M  V30 1864 C 180.312 -0.506793 5.32293 0
M  V30 1865 C 181.612 1.64832 4.95608 0
M  V30 1866 H 183.306 1.20462 2.74097 0
M  V30 1867 H 180.852 0.580695 1.31772 0
M  V30 1868 H 182.805 -0.791395 4.13902 0
M  V30 1869 H 181.529 -1.28964 3.0006 0
M  V30 1870 H 180.188 0.760903 3.58617 0
M  V30 1871 H 179.836 -1.37519 4.83836 0
M  V30 1872 H 179.536 0.0415828 5.87585 0
M  V30 1873 H 181.06 -0.875764 6.04287 0
M  V30 1874 H 182.474 1.34646 5.57264 0
M  V30 1875 H 180.871 2.13688 5.60765 0
M  V30 1876 H 181.941 2.39284 4.21748 0
M  V30 1877 N 183.284 -1.43765 0.645699 0
M  V30 1878 C 184.514 -2.05953 0.163318 0
M  V30 1879 C 184.922 -1.48432 -1.17322 0
M  V30 1880 O 184.265 -0.607295 -1.73371 0
M  V30 1881 C 184.327 -3.59499 -0.0103065 0
M  V30 1882 C 183.991 -4.39563 1.25035 0
M  V30 1883 C 184.988 -4.72108 2.17739 0
M  V30 1884 C 182.673 -4.79697 1.48983 0
M  V30 1885 C 184.667 -5.43688 3.3269 0
M  V30 1886 C 182.354 -5.51023 2.64229 0
M  V30 1887 C 183.352 -5.8294 3.55908 0
M  V30 1888 O 183.04 -6.5281 4.69142 0
M  V30 1889 H 182.772 -0.670798 0.0836986 0
M  V30 1890 H 185.326 -1.85384 0.884407 0
M  V30 1891 H 183.556 -3.78613 -0.78669 0
M  V30 1892 H 185.245 -4.03408 -0.449087 0
M  V30 1893 H 186.011 -4.41627 2.00476 0
M  V30 1894 H 181.89 -4.54266 0.785078 0
M  V30 1895 H 185.434 -5.68517 4.04269 0
M  V30 1896 H 181.331 -5.8092 2.81429 0
M  V30 1897 H 182.099 -6.71288 4.6831 0
M  V30 1898 N 184.763 -0.387143 -1.52771 0
M  V30 1899 C 185.988 0.198407 -2.06449 0
M  V30 1900 C 186.413 1.39918 -1.25716 0
M  V30 1901 O 185.771 1.79099 -0.281657 0
M  V30 1902 C 185.819 0.548893 -3.56398 0
M  V30 1903 O 184.923 1.64315 -3.78252 0
M  V30 1904 H 184.264 0.0237731 -0.663574 0
M  V30 1905 H 186.794 -0.553989 -1.96957 0
M  V30 1906 H 186.804 0.813812 -3.99801 0
M  V30 1907 H 185.479 -0.329005 -4.14597 0
M  V30 1908 H 184.056 1.37211 -3.46738 0
M  V30 1909 N 186.241 1.57166 -0.116904 0
M  V30 1910 C 187.657 1.5779 0.239693 0
M  V30 1911 C 187.857 1.1295 1.66867 0
M  V30 1912 O 186.913 0.81592 2.38954 0
M  V30 1913 C 188.226 3.00699 0.00828202 0
M  V30 1914 C 189.774 3.12912 0.0743438 0
M  V30 1915 C 190.249 4.57817 -0.129348 0
M  V30 1916 N 191.74 4.63139 -0.075247 0
M  V30 1917 C 192.475 5.73023 -0.207788 0
M  V30 1918 N 191.971 6.91665 -0.396382 0
M  V30 1919 N 193.764 5.61906 -0.14751 0
M  V30 1920 H 185.915 1.84615 -1.05029 0
M  V30 1921 H 188.178 0.85311 -0.41341 0
M  V30 1922 H 187.884 3.37784 -0.979531 0
M  V30 1923 H 187.758 3.69848 0.741077 0
M  V30 1924 H 190.145 2.75686 1.05268 0
M  V30 1925 H 190.226 2.4631 -0.690297 0
M  V30 1926 H 189.87 4.95742 -1.10465 0
M  V30 1927 H 189.8 5.22507 0.655253 0
M  V30 1928 H 192.291 3.7784 0.0670898 0
M  V30 1929 H 192.604 7.71255 -0.488437 0
M  V30 1930 H 190.949 6.93654 -0.432329 0
M  V30 1931 H 194.14 4.681 -0.00115036 0
M  V30 1932 H 194.313 6.47501 -0.254247 0
M  V30 1933 N 187.719 -0.156864 1.56817 0
M  V30 1934 C 189.135 -0.50916 1.5126 0
M  V30 1935 C 189.335 -1.83897 0.823658 0
M  V30 1936 O 188.391 -2.49469 0.390055 0
M  V30 1937 C 189.704 -0.52857 2.96018 0
M  V30 1938 C 191.252 -0.614771 3.06903 0
M  V30 1939 C 191.727 -0.664938 4.53147 0
M  V30 1940 N 193.218 -0.727433 4.57452 0
M  V30 1941 C 193.953 -0.787067 5.67973 0
M  V30 1942 N 193.449 -0.806649 6.88088 0
M  V30 1943 N 195.242 -0.827195 5.5598 0
M  V30 1944 H 187.393 0.714935 2.00006 0
M  V30 1945 H 189.656 0.259526 0.911784 0
M  V30 1946 H 189.362 0.380154 3.49639 0
M  V30 1947 H 189.236 -1.36998 3.51442 0
M  V30 1948 H 191.623 -1.51392 2.53307 0
M  V30 1949 H 191.704 0.253597 2.5454 0
M  V30 1950 H 191.348 0.230011 5.07379 0
M  V30 1951 H 191.278 -1.54966 5.03282 0
M  V30 1952 H 193.769 -0.719998 3.70978 0
M  V30 1953 H 194.082 -0.853727 7.6807 0
M  V30 1954 H 192.427 -0.774687 6.90669 0
M  V30 1955 H 195.618 -0.808998 4.61056 0
M  V30 1956 H 195.791 -0.870206 6.4213 0
M  V30 1957 N 189.197 -1.51736 -0.425897 0
M  V30 1958 C 190.444 -1.6497 -1.17436 0
M  V30 1959 C 190.772 -0.371445 -1.9092 0
M  V30 1960 O 190.027 0.644963 -1.84767 0
M  V30 1961 C 190.326 -2.81103 -2.20717 0
M  V30 1962 C 189.992 -4.19954 -1.64162 0
M  V30 1963 C 188.654 -4.57725 -1.48462 0
M  V30 1964 C 191.006 -5.06552 -1.22696 0
M  V30 1965 C 188.334 -5.79789 -0.897873 0
M  V30 1966 C 190.686 -6.29205 -0.654464 0
M  V30 1967 C 189.35 -6.6574 -0.484456 0
M  V30 1968 H 188.62 -0.603668 -0.429727 0
M  V30 1969 H 191.267 -1.85798 -0.463829 0
M  V30 1970 H 189.572 -2.54542 -2.97852 0
M  V30 1971 H 191.269 -2.8854 -2.78471 0
M  V30 1972 H 187.859 -3.90181 -1.77361 0
M  V30 1973 H 192.043 -4.77968 -1.33642 0
M  V30 1974 H 187.299 -6.06733 -0.75402 0
M  V30 1975 H 191.473 -6.95643 -0.324694 0
M  V30 1976 H 189.1 -7.60195 -0.0276833 0
M  V30 1977 N 190.675 0.682077 -1.42076 0
M  V30 1978 C 191.922 1.44215 -1.42156 0
M  V30 1979 C 192.25 1.94468 -0.0354186 0
M  V30 1980 O 191.505 1.70816 0.955002 0
M  V30 1981 C 191.804 2.66036 -2.38662 0
M  V30 1982 C 191.47 2.34366 -3.85206 0
M  V30 1983 C 190.132 2.25439 -4.25124 0
M  V30 1984 C 192.484 2.08513 -4.77673 0
M  V30 1985 C 189.812 1.88775 -5.55501 0
M  V30 1986 C 192.164 1.73354 -6.08384 0
M  V30 1987 C 190.828 1.62933 -6.47309 0
M  V30 1988 H 190.098 0.527718 -0.520187 0
M  V30 1989 H 192.745 0.778387 -1.74967 0
M  V30 1990 H 191.05 3.3741 -1.99152 0
M  V30 1991 H 192.747 3.24205 -2.35991 0
M  V30 1992 H 189.337 2.42213 -3.53597 0
M  V30 1993 H 193.521 2.14346 -4.47626 0
M  V30 1994 H 188.777 1.7927 -5.84527 0
M  V30 1995 H 192.951 1.52373 -6.79526 0
M  V30 1996 H 190.578 1.34292 -7.48244 0
M  V30 1997 N 192.153 1.28127 0.917671 0
M  V30 1998 C 193.564 1.13622 1.48145 0
M  V30 1999 C 193.915 -0.275207 1.9426 0
M  V30 2000 O 193.04 -1.1691 1.82102 0
M  V30 2001 C 193.635 2.05648 2.69248 0
M  V30 2002 C 192.194 1.95219 3.21818 0
M  V30 2003 C 191.341 1.97618 1.94532 0
M  V30 2004 H 194.292 1.40874 0.730772 0
M  V30 2005 H 194.313 1.61818 3.44377 0
M  V30 2006 H 193.825 3.08365 2.35653 0
M  V30 2007 H 191.926 0.955244 3.60147 0
M  V30 2008 H 192.039 2.81976 3.87333 0
M  V30 2009 H 190.403 1.41973 2.11461 0
M  V30 2010 H 191.186 3.02007 1.63238 0
M  V30 2011 N 193.631 -1.12557 1.10312 0
M  V30 2012 C 194.861 -1.87592 0.865617 0
M  V30 2013 C 195.269 -1.79851 -0.587389 0
M  V30 2014 O 194.612 -1.16949 -1.41664 0
M  V30 2015 C 194.674 -3.37665 1.23381 0
M  V30 2016 C 194.338 -3.69181 2.69359 0
M  V30 2017 C 195.335 -3.67652 3.67597 0
M  V30 2018 C 193.02 -3.98555 3.05711 0
M  V30 2019 C 195.014 -3.95053 5.00212 0
M  V30 2020 C 192.701 -4.25616 4.38514 0
M  V30 2021 C 193.699 -4.23851 5.35574 0
M  V30 2022 O 193.387 -4.50242 6.65986 0
M  V30 2023 H 193.119 -0.600442 0.310557 0
M  V30 2024 H 195.673 -1.4335 1.47105 0
M  V30 2025 H 193.903 -3.82454 0.571467 0
M  V30 2026 H 195.592 -3.94041 0.973994 0
M  V30 2027 H 196.358 -3.45024 3.40857 0
M  V30 2028 H 192.237 -3.99071 2.30789 0
M  V30 2029 H 195.781 -3.93591 5.75962 0
M  V30 2030 H 191.678 -4.47718 4.64994 0
M  V30 2031 H 192.446 -4.67867 6.71597 0
M  V30 2032 N 195.109 -0.891671 -1.2995 0
M  V30 2033 C 196.339 -0.527893 -1.99742 0
M  V30 2034 C 196.747 0.88979 -1.66971 0
M  V30 2035 O 196.09 1.59766 -0.906667 0
M  V30 2036 C 196.152 -0.630804 -3.53922 0
M  V30 2037 C 195.816 -2.01401 -4.10228 0
M  V30 2038 C 196.813 -2.98422 -4.25724 0
M  V30 2039 C 194.498 -2.32121 -4.45449 0
M  V30 2040 C 196.492 -4.24293 -4.75662 0
M  V30 2041 C 194.179 -3.58237 -4.95086 0
M  V30 2042 C 195.177 -4.54137 -5.10146 0
M  V30 2043 O 194.865 -5.78014 -5.58708 0
M  V30 2044 H 194.597 -0.201953 -0.645129 0
M  V30 2045 H 197.151 -1.20076 -1.66646 0
M  V30 2046 H 195.381 0.0990616 -3.86573 0
M  V30 2047 H 197.07 -0.277338 -4.04951 0
M  V30 2048 H 197.836 -2.76001 -3.98809 0
M  V30 2049 H 193.715 -1.5824 -4.32991 0
M  V30 2050 H 197.259 -4.99153 -4.87332 0
M  V30 2051 H 193.156 -3.80491 -5.21437 0
M  V30 2052 H 193.924 -5.8049 -5.77039 0
M  V30 2053 N 196.587 1.43421 -0.653314 0
M  V30 2054 C 197.833 2.02111 -0.166992 0
M  V30 2055 C 198.166 1.51423 1.21592 0
M  V30 2056 O 197.441 0.707389 1.8118 0
M  V30 2057 C 197.724 3.5966 -0.177948 0
M  V30 2058 C 197.577 4.20579 -1.59478 0
M  V30 2059 C 198.896 4.37413 0.4856 0
M  V30 2060 H 196.015 0.734374 -0.0621557 0
M  V30 2061 H 198.657 1.70717 -0.834016 0
M  V30 2062 H 196.807 3.86537 0.390032 0
M  V30 2063 H 198.479 4.04732 -2.21336 0
M  V30 2064 H 196.722 3.77226 -2.14204 0
M  V30 2065 H 197.393 5.29665 -1.5543 0
M  V30 2066 H 199.869 4.161 0.00234528 0
M  V30 2067 H 198.745 5.47075 0.447207 0
M  V30 2068 H 199.006 4.13672 1.55974 0
M  V30 2069 N 198.065 0.39524 1.52563 0
M  V30 2070 C 199.295 -0.184675 2.05773 0
M  V30 2071 C 199.703 -1.40571 1.26635 0
M  V30 2072 O 199.046 -1.81105 0.30769 0
M  V30 2073 C 199.108 -0.613551 3.54226 0
M  V30 2074 C 198.772 0.49484 4.54313 0
M  V30 2075 C 199.769 1.3541 5.01956 0
M  V30 2076 C 197.454 0.663565 4.97898 0
M  V30 2077 C 199.448 2.36716 5.91814 0
M  V30 2078 C 197.135 1.67996 5.87555 0
M  V30 2079 C 198.133 2.53017 6.34406 0
M  V30 2080 O 197.821 3.52917 7.22291 0
M  V30 2081 H 197.553 -0.030077 0.675331 0
M  V30 2082 H 200.107 0.560708 1.97599 0
M  V30 2083 H 198.337 -1.411 3.60038 0
M  V30 2084 H 200.026 -1.11981 3.90148 0
M  V30 2085 H 200.792 1.23509 4.6901 0
M  V30 2086 H 196.671 0.0114913 4.60999 0
M  V30 2087 H 200.215 3.03113 6.28306 0
M  V30 2088 H 196.112 1.79933 6.19915 0
M  V30 2089 H 196.88 3.48996 7.40367 0
M  V30 2090 N 199.544 -1.57102 0.125237 0
M  V30 2091 C 200.492 -2.16905 -0.839927 0
M  V30 2092 C 201.486 -1.11998 -1.27094 0
M  V30 2093 O 202.692 -1.3029 -1.24195 0
M  V30 2094 H 199.067 -0.694252 -0.288995 0
M  V30 2095 H 201.038 -2.96774 -0.311115 0
M  V30 2096 C 199.787 -2.78795 -2.07771 0
M  V30 2097 H 199.11 -3.59221 -1.755 0
M  V30 2098 H 200.55 -3.2417 -2.73295 0
M  V30 2099 C 199.009 -1.76193 -2.87155 0
M  V30 2100 O 199.539 -1.21909 -3.82755 0
M  V30 2101 N 197.745 -1.45991 -2.51267 0
M  V30 2102 H 197.292 -1.90325 -1.73592 0
M  V30 2103 H 197.25 -0.775844 -3.04677 0
M  V30 2104 N 201.022 0.148545 -1.56898 0
M  V30 2105 C 202.271 0.85984 -1.82454 0
M  V30 2106 C 202.584 1.82406 -0.706229 0
M  V30 2107 O 203.79 2.57938 -0.847349 0
M  V30 2108 C 202.246 1.57967 -3.2338 0
M  V30 2109 C 201.854 0.65794 -4.43142 0
M  V30 2110 C 203.598 2.27784 -3.58211 0
M  V30 2111 C 201.505 1.3793 -5.75091 0
M  V30 2112 H 200.435 0.324834 -0.68044 0
M  V30 2113 H 203.086 0.112588 -1.83154 0
M  V30 2114 H 201.468 2.37249 -3.17063 0
M  V30 2115 H 202.642 -0.0995497 -4.60692 0
M  V30 2116 H 200.957 0.0682643 -4.16344 0
M  V30 2117 H 203.554 2.8239 -4.54048 0
M  V30 2118 H 203.897 3.04204 -2.84193 0
M  V30 2119 H 204.43 1.55421 -3.66182 0
M  V30 2120 H 201.169 0.656982 -6.52199 0
M  V30 2121 H 200.689 2.10954 -5.61479 0
M  V30 2122 H 202.368 1.92063 -6.17835 0
M  V30 2123 N 202.5 1.5196 0.417844 0
M  V30 2124 C 203.749 1.6482 1.16264 0
M  V30 2125 C 204.062 0.379886 1.91876 0
M  V30 2126 O 205.268 0.388154 2.68711 0
M  V30 2127 C 203.724 2.91161 2.1155 0
M  V30 2128 C 203.332 4.25068 1.41495 0
M  V30 2129 C 205.076 3.13383 2.86341 0
M  V30 2130 C 202.983 5.42541 2.35379 0
M  V30 2131 H 201.913 0.613954 0.437694 0
M  V30 2132 H 204.564 1.78442 0.427871 0
M  V30 2133 H 202.946 2.71218 2.88543 0
M  V30 2134 H 204.12 4.55463 0.699263 0
M  V30 2135 H 202.435 4.0888 0.787792 0
M  V30 2136 H 205.032 3.98324 3.5671 0
M  V30 2137 H 205.375 2.27256 3.48798 0
M  V30 2138 H 205.908 3.33757 2.1645 0
M  V30 2139 H 202.647 6.30987 1.77582 0
M  V30 2140 H 202.167 5.16497 3.04945 0
M  V30 2141 H 203.846 5.75272 2.96093 0
M  V30 2142 N 203.978 -0.674533 1.42435 0
M  V30 2143 C 205.226 -1.43175 1.42637 0
M  V30 2144 C 205.547 -1.94951 0.0438992 0
M  V30 2145 O 204.817 -1.7308 -0.917607 0
M  V30 2146 H 203.397 -0.531307 0.525092 0
M  V30 2147 H 206.059 -0.797006 1.77859 0
M  V30 2148 H 205.155 -2.28463 2.12629 0
M  V30 2149 N 205.456 -1.28612 -0.910864 0
M  V30 2150 C 206.704 -1.15705 -1.65701 0
M  V30 2151 C 207.025 0.29416 -1.92769 0
M  V30 2152 O 206.295 1.20331 -1.54588 0
M  V30 2153 H 204.875 -0.425216 -0.614167 0
M  V30 2154 H 207.537 -1.61381 -1.0928 0
M  V30 2155 H 206.633 -1.6988 -2.61815 0
M  V30 2156 N 206.934 1.1197 -1.10907 0
M  V30 2157 C 207.864 2.19928 -0.784473 0
M  V30 2158 C 208.845 1.6833 0.244726 0
M  V30 2159 O 210.03 1.93892 0.109418 0
M  V30 2160 C 207.16 3.46597 -0.220827 0
M  V30 2161 C 206.114 4.11376 -1.18127 0
M  V30 2162 C 205.44 5.32554 -0.478594 0
M  V30 2163 C 206.74 4.56945 -2.52979 0
M  V30 2164 H 208.434 2.47337 -1.68715 0
M  V30 2165 H 205.98 1.18879 -0.812642 0
M  V30 2166 H 207.933 4.21396 0.0184278 0
M  V30 2167 H 206.657 3.1863 0.717113 0
M  V30 2168 H 205.316 3.38564 -1.40606 0
M  V30 2169 H 204.964 5.00856 0.463976 0
M  V30 2170 H 204.664 5.76844 -1.11912 0
M  V30 2171 H 206.188 6.10096 -0.248 0
M  V30 2172 H 207.602 5.23093 -2.3462 0
M  V30 2173 H 205.999 5.1203 -3.12962 0
M  V30 2174 H 207.069 3.70676 -3.12614 0
M  V30 2175 N 208.412 0.89855 1.29475 0
M  V30 2176 C 209.689 0.443416 1.90508 0
M  V30 2177 C 210.069 -1.07685 1.81569 0
M  V30 2178 O 209.417 -1.9182 1.24166 0
M  V30 2179 C 209.627 0.956708 3.35631 0
M  V30 2180 C 210.975 0.999728 4.12663 0
M  V30 2181 O 211.999 0.904299 3.4453 0
M  V30 2182 O 210.858 1.14289 5.34416 0
M  V30 2183 H 207.952 0.138025 0.815401 0
M  V30 2184 H 210.498 0.98834 1.37949 0
M  V30 2185 H 209.27 2.00067 3.36287 0
M  V30 2186 H 208.893 0.391728 3.95666 0
M  V30 2187 N 209.89 -1.43072 0.660911 0
M  V30 2188 C 210.8 -2.34585 -0.0264163 0
M  V30 2189 C 211.816 -1.54316 -0.803898 0
M  V30 2190 O 212.992 -1.86939 -0.749391 0
M  V30 2191 C 210.057 -3.32689 -0.975639 0
M  V30 2192 C 209.118 -4.2886 -0.194236 0
M  V30 2193 C 208.351 -5.22278 -1.09825 0
M  V30 2194 O 208.574 -5.20299 -2.33763 0
M  V30 2195 O 207.508 -5.99228 -0.566513 0
M  V30 2196 H 211.334 -2.94869 0.727034 0
M  V30 2197 H 208.919 -1.43342 0.42111 0
M  V30 2198 H 210.801 -3.92995 -1.52094 0
M  V30 2199 H 209.476 -2.74898 -1.70918 0
M  V30 2200 H 208.383 -3.72011 0.394835 0
M  V30 2201 H 209.716 -4.89655 0.499899 0
M  V30 2202 N 211.368 -0.403325 -1.52352 0
M  V30 2203 C 212.278 0.432009 -2.30588 0
M  V30 2204 C 213.294 1.05884 -1.38075 0
M  V30 2205 O 214.47 1.06161 -1.71148 0
M  V30 2206 C 211.535 1.53669 -3.10784 0
M  V30 2207 C 210.596 0.933525 -4.19027 0
M  V30 2208 C 209.829 1.98557 -4.9539 0
M  V30 2209 O 210.052 3.20283 -4.71991 0
M  V30 2210 O 208.986 1.59504 -5.80381 0
M  V30 2211 H 212.812 -0.205739 -3.03002 0
M  V30 2212 H 210.397 -0.166675 -1.48467 0
M  V30 2213 H 212.279 2.17814 -3.60742 0
M  V30 2214 H 210.954 2.15915 -2.41169 0
M  V30 2215 H 209.861 0.254954 -3.7323 0
M  V30 2216 H 211.194 0.35508 -4.90918 0
M  V30 2217 N 212.846 1.57033 -0.133567 0
M  V30 2218 C 214.094 1.953 0.519848 0
M  V30 2219 C 214.415 1.01866 1.66278 0
M  V30 2220 O 213.685 0.0776513 1.95746 0
M  V30 2221 H 212.265 0.721091 0.195032 0
M  V30 2222 H 214.927 1.93809 -0.205921 0
M  V30 2223 H 214.023 2.98695 0.904854 0
M  V30 2224 N 214.325 -0.140222 1.56975 0
M  V30 2225 C 215.272 -1.17292 1.98774 0
M  V30 2226 C 216.242 -1.4232 0.856408 0
M  V30 2227 O 217.427 -1.54541 1.119 0
M  V30 2228 C 214.567 -2.49973 2.37923 0
M  V30 2229 C 213.68 -2.32062 3.64378 0
M  V30 2230 C 212.815 -3.57825 3.926 0
M  V30 2231 C 211.854 -3.3498 5.12303 0
M  V30 2232 N 210.991 -4.52891 5.36502 0
M  V30 2233 H 215.831 -0.809472 2.86795 0
M  V30 2234 H 213.368 -0.388237 1.41884 0
M  V30 2235 H 215.326 -3.27346 2.58652 0
M  V30 2236 H 213.956 -2.84252 1.52972 0
M  V30 2237 H 213.008 -1.45711 3.51387 0
M  V30 2238 H 214.32 -2.11145 4.51906 0
M  V30 2239 H 213.474 -4.43624 4.13863 0
M  V30 2240 H 212.213 -3.81753 3.03506 0
M  V30 2241 H 211.218 -2.4757 4.90906 0
M  V30 2242 H 212.443 -3.12444 6.02956 0
M  V30 2243 H 210.389 -4.76979 4.50363 0
M  V30 2244 H 210.306 -4.35001 6.18312 0
M  V30 2245 H 211.574 -5.39884 5.62268 0
M  V30 2246 N 215.803 -1.52179 -0.40978 0
M  V30 2247 C 217.051 -1.65878 -1.15451 0
M  V30 2248 C 217.372 -0.390771 -1.91044 0
M  V30 2249 O 216.642 0.594323 -1.86667 0
M  V30 2250 H 215.222 -0.611405 -0.429177 0
M  V30 2251 H 217.884 -1.89219 -0.467134 0
M  V30 2252 H 216.98 -2.49954 -1.86894 0
M  V30 2253 N 217.281 0.66697 -1.42791 0
M  V30 2254 C 218.244 1.76211 -1.46568 0
M  V30 2255 C 219.244 1.56896 -0.352196 0
M  V30 2256 O 220.434 1.63044 -0.613364 0
M  V30 2257 C 217.566 3.14935 -1.30494 0
M  V30 2258 H 218.759 1.74247 -2.44086 0
M  V30 2259 H 216.312 0.877342 -1.29354 0
M  V30 2260 H 217.047 3.2252 -0.339301 0
M  V30 2261 H 216.832 3.30359 -2.11199 0
M  V30 2262 H 218.322 3.94821 -1.36038 0
M  V30 2263 N 218.759 1.29093 0.90403 0
M  V30 2264 C 220.005 1.16986 1.65656 0
M  V30 2265 C 220.338 -0.278925 1.92186 0
M  V30 2266 O 219.613 -1.2019 1.5292 0
M  V30 2267 C 219.896 1.97908 3.0084 0
M  V30 2268 C 219.749 3.50903 2.81403 0
M  V30 2269 C 221.068 1.80208 4.01513 0
M  V30 2270 H 218.187 0.426346 0.601164 0
M  V30 2271 H 220.829 1.58518 1.04747 0
M  V30 2272 H 218.979 1.62616 3.52829 0
M  V30 2273 H 220.651 3.96153 2.36348 0
M  V30 2274 H 218.894 3.76045 2.1627 0
M  V30 2275 H 219.565 4.02791 3.77443 0
M  V30 2276 H 222.041 2.11025 3.58619 0
M  V30 2277 H 220.917 2.39184 4.94047 0
M  V30 2278 H 221.178 0.756119 4.35586 0
M  V30 2279 N 220.237 -1.11381 1.11499 0
M  V30 2280 C 221.467 -1.86663 0.885464 0
M  V30 2281 C 221.875 -1.80464 -0.568281 0
M  V30 2282 O 221.218 -1.18445 -1.40415 0
M  V30 2283 C 221.28 -3.36337 1.26956 0
M  V30 2284 C 220.944 -3.66304 2.73259 0
M  V30 2285 C 221.941 -3.63733 3.71476 0
M  V30 2286 C 219.626 -3.9529 3.09921 0
M  V30 2287 C 221.62 -3.89725 5.04374 0
M  V30 2288 C 219.307 -4.20941 4.43004 0
M  V30 2289 C 220.305 -4.18147 5.40039 0
M  V30 2290 O 219.993 -4.43153 6.70724 0
M  V30 2291 H 219.725 -0.597114 0.316908 0
M  V30 2292 H 222.279 -1.41782 1.48617 0
M  V30 2293 H 220.509 -3.81826 0.611999 0
M  V30 2294 H 222.198 -3.92986 1.01573 0
M  V30 2295 H 222.964 -3.41389 3.44498 0
M  V30 2296 H 218.843 -3.966 2.35009 0
M  V30 2297 H 222.387 -3.8746 5.80104 0
M  V30 2298 H 218.284 -4.42761 4.69716 0
M  V30 2299 H 219.052 -4.60717 6.76522 0
M  V30 2300 N 221.715 -0.905404 -1.28997 0
M  V30 2301 C 222.94 -0.549175 -1.99997 0
M  V30 2302 C 223.365 0.860276 -1.67275 0
M  V30 2303 O 222.723 1.57355 -0.900502 0
M  V30 2304 C 222.771 -0.755185 -3.52604 0
M  V30 2305 O 221.875 0.189692 -4.11964 0
M  V30 2306 H 221.216 -0.213899 -0.628604 0
M  V30 2307 H 223.746 -1.21856 -1.64354 0
M  V30 2308 H 223.756 -0.662045 -4.02593 0
M  V30 2309 H 222.431 -1.78271 -3.75755 0
M  V30 2310 H 221.008 0.0485257 -3.72868 0
M  V30 2311 N 223.193 1.4272 -0.668489 0
M  V30 2312 C 224.44 2.01624 -0.18814 0
M  V30 2313 C 224.768 1.5282 1.20317 0
M  V30 2314 O 224.023 0.718323 1.8204 0
M  V30 2315 C 224.322 3.57021 -0.164499 0
M  V30 2316 C 223.988 4.25232 -1.49962 0
M  V30 2317 C 222.65 4.4358 -1.8652 0
M  V30 2318 C 225.002 4.63727 -2.37921 0
M  V30 2319 C 222.33 4.97694 -3.10674 0
M  V30 2320 C 224.682 5.19218 -3.6138 0
M  V30 2321 C 223.346 5.3578 -3.98115 0
M  V30 2322 H 222.616 0.737795 -0.0688454 0
M  V30 2323 H 225.263 1.70991 -0.862225 0
M  V30 2324 H 223.568 3.87285 0.593079 0
M  V30 2325 H 225.265 4.00372 0.224271 0
M  V30 2326 H 221.855 4.11306 -1.20522 0
M  V30 2327 H 226.039 4.4923 -2.10964 0
M  V30 2328 H 221.295 5.08702 -3.39164 0
M  V30 2329 H 225.469 5.4799 -4.29743 0
M  V30 2330 H 223.096 5.77475 -4.94395 0
M  V30 2331 N 224.671 0.411399 1.52136 0
M  V30 2332 C 225.948 -0.222308 1.94333 0
M  V30 2333 C 226.328 -1.6242 1.34844 0
M  V30 2334 O 225.676 -2.22384 0.525145 0
M  V30 2335 C 225.886 -0.226345 3.48265 0
M  V30 2336 C 227.234 -0.444592 4.22266 0
M  V30 2337 O 228.258 -0.305602 3.54887 0
M  V30 2338 O 227.117 -0.718749 5.41753 0
M  V30 2339 H 224.211 -0.143907 0.814383 0
M  V30 2340 H 226.757 0.467506 1.63133 0
M  V30 2341 H 225.529 0.75475 3.83952 0
M  V30 2342 H 225.152 -0.960163 3.85832 0
M  V30 2343 N 226.149 -1.5696 0.141893 0
M  V30 2344 C 227.56 -1.82797 -0.379776 0
M  V30 2345 C 227.911 -1.06033 -1.6508 0
M  V30 2346 O 227.036 -0.304011 -2.14254 0
M  V30 2347 C 227.631 -3.31578 -0.695802 0
M  V30 2348 C 226.19 -3.58014 -1.16201 0
M  V30 2349 C 225.337 -2.76699 -0.182455 0
M  V30 2350 H 228.288 -1.54406 0.366675 0
M  V30 2351 H 228.309 -3.47454 -1.55099 0
M  V30 2352 H 227.821 -3.87421 0.229449 0
M  V30 2353 H 225.922 -3.07553 -2.10338 0
M  V30 2354 H 226.035 -4.66501 -1.09151 0
M  V30 2355 H 224.399 -2.45618 -0.674072 0
M  V30 2356 H 225.182 -3.35311 0.736297 0
M  V30 2357 N 227.627 0.131896 -1.57047 0
M  V30 2358 C 228.873 0.843179 -1.84441 0
M  V30 2359 C 229.206 1.80129 -0.725749 0
M  V30 2360 O 228.481 1.92624 0.269469 0
M  V30 2361 C 228.764 1.60442 -3.22382 0
M  V30 2362 C 228.617 0.666782 -4.4483 0
M  V30 2363 C 229.936 2.56354 -3.5773 0
M  V30 2364 H 227.055 0.305081 -0.670891 0
M  V30 2365 H 229.697 0.107839 -1.89694 0
M  V30 2366 H 227.847 2.23128 -3.18035 0
M  V30 2367 H 229.519 0.0497646 -4.61273 0
M  V30 2368 H 227.762 -0.022609 -4.33794 0
M  V30 2369 H 228.433 1.23579 -5.37989 0
M  V30 2370 H 230.909 2.0378 -3.62785 0
M  V30 2371 H 229.785 3.06657 -4.5525 0
M  V30 2372 H 230.046 3.38419 -2.84473 0
M  V30 2373 N 229.106 1.52395 0.401703 0
M  V30 2374 C 230.354 1.66488 1.14569 0
M  V30 2375 C 230.675 0.400897 1.90835 0
M  V30 2376 O 229.945 -0.584415 1.8698 0
M  V30 2377 H 228.525 0.613672 0.425929 0
M  V30 2378 H 231.187 1.89464 0.457093 0
M  V30 2379 H 230.283 2.50942 1.85566 0
M  V30 2380 N 230.584 -0.659388 1.43143 0
M  V30 2381 C 231.809 -1.45221 1.48073 0
M  V30 2382 C 232.234 -1.87845 0.097995 0
M  V30 2383 O 231.592 -1.56985 -0.90694 0
M  V30 2384 C 231.64 -2.66748 2.42647 0
M  V30 2385 O 230.744 -3.65583 1.90848 0
M  V30 2386 H 230.085 -0.435669 0.501088 0
M  V30 2387 H 232.615 -0.807432 1.87994 0
M  V30 2388 H 232.625 -3.14637 2.59745 0
M  V30 2389 H 231.3 -2.35067 3.43098 0
M  V30 2390 H 229.877 -3.24693 1.83381 0
M  V30 2391 N 232.062 -1.29571 -0.897171 0
M  V30 2392 C 233.292 -1.20408 -1.67886 0
M  V30 2393 C 233.7 0.237429 -1.87704 0
M  V30 2394 O 233.043 1.17048 -1.41582 0
M  V30 2395 C 233.105 -1.84887 -3.08314 0
M  V30 2396 C 232.769 -3.34189 -3.11716 0
M  V30 2397 C 233.766 -4.30374 -2.91675 0
M  V30 2398 C 231.451 -3.75431 -3.33701 0
M  V30 2399 C 233.445 -5.65776 -2.93557 0
M  V30 2400 C 231.132 -5.10955 -3.35214 0
M  V30 2401 C 232.13 -6.05938 -3.15164 0
M  V30 2402 O 231.818 -7.38987 -3.1647 0
M  V30 2403 H 231.55 -0.418289 -0.531046 0
M  V30 2404 H 234.104 -1.71514 -1.13014 0
M  V30 2405 H 232.334 -1.28295 -3.64798 0
M  V30 2406 H 234.023 -1.70011 -3.6858 0
M  V30 2407 H 234.789 -3.99844 -2.74499 0
M  V30 2408 H 230.668 -3.01953 -3.48347 0
M  V30 2409 H 234.212 -6.39889 -2.77826 0
M  V30 2410 H 230.109 -5.4113 -3.51922 0
M  V30 2411 H 230.877 -7.47823 -3.3272 0
M  V30 2412 N 233.54 1.10788 -1.12088 0
M  V30 2413 C 234.472 2.16816 -0.743213 0
M  V30 2414 C 235.485 1.6119 0.228412 0
M  V30 2415 O 236.674 1.78497 0.0102931 0
M  V30 2416 C 233.774 3.38809 -0.0787313 0
M  V30 2417 C 232.947 4.23885 -1.0789 0
M  V30 2418 C 232.006 5.24334 -0.442713 0
M  V30 2419 O 231.032 5.58497 -1.09864 0
M  V30 2420 N 232.234 5.75079 0.791457 0
M  V30 2421 H 234.999 2.49825 -1.65552 0
M  V30 2422 H 232.56 1.26373 -1.012 0
M  V30 2423 H 234.552 4.03107 0.358766 0
M  V30 2424 H 233.122 3.03805 0.736275 0
M  V30 2425 H 232.342 3.55939 -1.69414 0
M  V30 2426 H 233.63 4.77562 -1.75533 0
M  V30 2427 H 233.028 5.49517 1.3434 0
M  V30 2428 H 231.585 6.4118 1.17183 0
M  V30 2429 N 235.018 0.912232 1.28515 0
M  V30 2430 C 236.434 0.610159 1.47476 0
M  V30 2431 C 236.634 -0.844955 1.82928 0
M  V30 2432 O 235.69 -1.62416 1.93332 0
M  V30 2433 C 237.003 1.54675 2.57868 0
M  V30 2434 C 238.551 1.55331 2.71738 0
M  V30 2435 C 239.026 2.47649 3.85272 0
M  V30 2436 N 240.517 2.45767 3.92623 0
M  V30 2437 C 241.252 3.13896 4.79851 0
M  V30 2438 N 240.748 3.9135 5.71679 0
M  V30 2439 N 242.541 3.02991 4.73448 0
M  V30 2440 H 234.692 1.85318 1.03783 0
M  V30 2441 H 236.955 0.794777 0.516753 0
M  V30 2442 H 236.661 2.5841 2.38574 0
M  V30 2443 H 236.535 1.27671 3.54937 0
M  V30 2444 H 238.922 0.52335 2.90422 0
M  V30 2445 H 239.003 1.86378 1.75205 0
M  V30 2446 H 238.647 3.50745 3.67342 0
M  V30 2447 H 238.577 2.13904 4.81199 0
M  V30 2448 H 241.068 1.89503 3.26951 0
M  V30 2449 H 241.381 4.40359 6.35062 0
M  V30 2450 H 239.726 3.95455 5.71524 0
M  V30 2451 H 242.917 2.41987 4.007 0
M  V30 2452 H 243.09 3.5636 5.41213 0
M  V30 2453 N 236.496 -1.42363 0.676048 0
M  V30 2454 C 237.773 -1.95183 0.127726 0
M  V30 2455 C 238.153 -1.61641 -1.35777 0
M  V30 2456 O 237.501 -0.913216 -2.09458 0
M  V30 2457 C 237.711 -3.46721 0.398199 0
M  V30 2458 C 239.059 -4.23427 0.315383 0
M  V30 2459 O 240.083 -3.54649 0.332016 0
M  V30 2460 O 238.942 -5.45888 0.25865 0
M  V30 2461 H 236.036 -0.826992 0.00359427 0
M  V30 2462 H 238.582 -1.52184 0.750864 0
M  V30 2463 H 237.354 -3.64344 1.4272 0
M  V30 2464 H 236.977 -3.96769 -0.256885 0
M  V30 2465 N 237.974 -0.419461 -1.51915 0
M  V30 2466 C 239.199 0.154572 -2.06823 0
M  V30 2467 C 239.624 1.3722 -1.28656 0
M  V30 2468 O 238.982 1.78461 -0.319583 0
M  V30 2469 C 239.03 0.473172 -3.57482 0
M  V30 2470 O 238.134 1.56255 -3.81652 0
M  V30 2471 H 237.475 0.0096924 -0.663929 0
M  V30 2472 H 240.005 -0.595642 -1.95738 0
M  V30 2473 H 240.015 0.728825 -4.01438 0
M  V30 2474 H 238.69 -0.416873 -4.13805 0
M  V30 2475 H 237.267 1.29825 -3.49571 0
M  V30 2476 N 239.452 1.56882 -0.150215 0
M  V30 2477 C 240.699 1.96228 0.500093 0
M  V30 2478 C 241.027 1.03522 1.64661 0
M  V30 2479 O 240.282 0.0650683 1.95592 0
M  V30 2480 C 240.581 3.41801 1.04437 0
M  V30 2481 C 240.247 4.50897 0.0159671 0
M  V30 2482 C 238.909 4.8046 -0.266731 0
M  V30 2483 C 241.261 5.16703 -0.683192 0
M  V30 2484 C 238.589 5.73135 -1.25434 0
M  V30 2485 C 240.941 6.10441 -1.65964 0
M  V30 2486 C 239.605 6.38382 -1.95 0
M  V30 2487 H 238.875 0.718048 0.182997 0
M  V30 2488 H 241.522 1.90019 -0.237724 0
M  V30 2489 H 239.827 3.44857 1.85959 0
M  V30 2490 H 241.524 3.69573 1.55618 0
M  V30 2491 H 238.114 4.27891 0.246485 0
M  V30 2492 H 242.298 4.93993 -0.477983 0
M  V30 2493 H 237.554 5.93074 -1.48571 0
M  V30 2494 H 241.728 6.60507 -2.20689 0
M  V30 2495 H 239.355 7.09996 -2.71679 0
M  V30 2496 N 240.93 -0.123565 1.57115 0
M  V30 2497 C 241.877 -1.15177 2.00007 0
M  V30 2498 C 242.847 -1.41403 0.871454 0
M  V30 2499 O 244.032 -1.53346 1.13533 0
M  V30 2500 C 241.172 -2.47436 2.40561 0
M  V30 2501 C 240.285 -2.28184 3.66819 0
M  V30 2502 C 239.42 -3.53641 3.96373 0
M  V30 2503 C 238.459 -3.29528 5.15827 0
M  V30 2504 N 237.596 -4.47175 5.41275 0
M  V30 2505 H 242.436 -0.779008 2.87638 0
M  V30 2506 H 239.973 -0.373166 1.42288 0
M  V30 2507 H 241.931 -3.24584 2.62109 0
M  V30 2508 H 240.561 -2.82614 1.55978 0
M  V30 2509 H 239.613 -1.41976 3.52912 0
M  V30 2510 H 240.925 -2.0634 4.5412 0
M  V30 2511 H 240.079 -4.39209 4.18545 0
M  V30 2512 H 238.818 -3.78512 3.07538 0
M  V30 2513 H 237.823 -2.42349 4.93505 0
M  V30 2514 H 239.048 -3.06031 6.06236 0
M  V30 2515 H 236.994 -4.72175 4.55397 0
M  V30 2516 H 236.911 -4.28419 6.22891 0
M  V30 2517 H 238.179 -5.3389 5.67963 0
M  V30 2518 N 242.408 -1.52605 -0.393616 0
M  V30 2519 C 243.371 -1.76415 -1.46323 0
M  V30 2520 C 244.371 -0.634126 -1.47768 0
M  V30 2521 O 245.561 -0.902142 -1.4902 0
M  V30 2522 C 242.693 -1.8607 -2.85641 0
M  V30 2523 H 243.886 -2.71916 -1.26498 0
M  V30 2524 H 241.439 -1.43257 -0.625073 0
M  V30 2525 H 242.174 -0.925378 -3.10817 0
M  V30 2526 H 241.959 -2.68235 -2.85993 0
M  V30 2527 H 243.449 -2.06179 -3.63153 0
M  V30 2528 N 243.887 0.651787 -1.4349 0
M  V30 2529 C 245.135 1.40888 -1.44897 0
M  V30 2530 C 245.456 1.94856 -0.0749086 0
M  V30 2531 O 244.726 1.74518 0.889956 0
M  V30 2532 H 243.306 0.522887 -0.533478 0
M  V30 2533 H 245.968 0.768609 -1.79104 0
M  V30 2534 H 245.064 2.25052 -2.16236 0
M  V30 2535 N 245.365 1.30045 0.890287 0
M  V30 2536 C 246.613 1.18327 1.63839 0
M  V30 2537 C 246.934 -0.263455 1.93212 0
M  V30 2538 O 246.204 -1.17856 1.56482 0
M  V30 2539 H 244.784 0.434933 0.607324 0
M  V30 2540 H 247.446 1.631 1.06698 0
M  V30 2541 H 246.542 1.74024 2.59079 0
M  V30 2542 N 246.843 -1.10192 1.12674 0
M  V30 2543 C 248.068 -1.86523 0.906853 0
M  V30 2544 C 248.493 -1.80221 -0.538711 0
M  V30 2545 O 247.851 -1.17396 -1.38158 0
M  V30 2546 C 247.899 -3.32758 1.3894 0
M  V30 2547 O 247.003 -4.08449 0.5695 0
M  V30 2548 H 246.344 -0.578678 0.325619 0
M  V30 2549 H 248.874 -1.39203 1.49946 0
M  V30 2550 H 248.884 -3.83608 1.38958 0
M  V30 2551 H 247.559 -3.36661 2.44197 0
M  V30 2552 H 246.136 -3.67427 0.636528 0
M  V30 2553 N 248.321 -0.919034 -1.28029 0
M  V30 2554 C 249.284 -0.416182 -2.2539 0
M  V30 2555 C 250.284 0.460438 -1.54067 0
M  V30 2556 O 251.474 0.262744 -1.72207 0
M  V30 2557 C 248.606 0.402707 -3.38513 0
M  V30 2558 H 249.799 -1.27629 -2.71387 0
M  V30 2559 H 247.352 -0.698919 -1.39803 0
M  V30 2560 H 248.087 1.282 -2.97885 0
M  V30 2561 H 247.872 -0.225698 -3.9145 0
M  V30 2562 H 249.362 0.745191 -4.10897 0
M  V30 2563 N 249.799 1.42003 -0.683588 0
M  V30 2564 C 251.024 2.06265 -0.216647 0
M  V30 2565 C 251.449 1.51059 1.12083 0
M  V30 2566 O 250.807 0.632638 1.69904 0
M  V30 2567 C 250.855 3.60191 -0.171759 0
M  V30 2568 O 249.959 4.03396 0.857069 0
M  V30 2569 H 249.3 0.65502 -0.108834 0
M  V30 2570 H 251.83 1.81982 -0.935077 0
M  V30 2571 H 251.84 4.08 0.0014303 0
M  V30 2572 H 250.515 3.99743 -1.14796 0
M  V30 2573 H 249.092 3.67117 0.654208 0
M  V30 2574 N 251.277 0.427512 1.51691 0
M  V30 2575 C 252.24 -0.377132 2.26076 0
M  V30 2576 C 253.24 -0.958089 1.29141 0
M  V30 2577 O 254.43 -0.83408 1.52934 0
M  V30 2578 C 251.562 -1.53262 3.04506 0
M  V30 2579 H 252.755 0.27464 2.9864 0
M  V30 2580 H 250.308 0.180445 1.55255 0
M  V30 2581 H 251.043 -2.22072 2.36335 0
M  V30 2582 H 250.828 -1.12232 3.75694 0
M  V30 2583 H 252.318 -2.10135 3.60878 0
M  V30 2584 N 252.755 -1.56801 0.158532 0
M  V30 2585 C 253.688 -2.13148 -0.815065 0
M  V30 2586 C 254.666 -1.0581 -1.23462 0
M  V30 2587 O 255.85 -1.3371 -1.32868 0
M  V30 2588 C 252.977 -2.6606 -2.09594 0
M  V30 2589 C 252.023 -3.85651 -1.82141 0
M  V30 2590 S 252.856 -5.26041 -1.00207 0
M  V30 2591 C 254.012 -5.8235 -2.29389 0
M  V30 2592 H 254.245 -2.95396 -0.335937 0
M  V30 2593 H 251.778 -1.54299 -0.0559391 0
M  V30 2594 H 253.736 -2.97195 -2.8317 0
M  V30 2595 H 252.397 -1.83921 -2.54621 0
M  V30 2596 H 251.59 -4.20958 -2.77147 0
M  V30 2597 H 251.192 -3.55338 -1.16667 0
M  V30 2598 H 253.484 -5.94485 -3.24952 0
M  V30 2599 H 254.427 -6.79688 -1.9857 0
M  V30 2600 H 254.835 -5.10675 -2.40564 0
M  V30 2601 N 254.233 0.115231 -1.57178 0
M  V30 2602 C 255.163 1.1423 -2.03651 0
M  V30 2603 C 256.144 1.42967 -0.921655 0
M  V30 2604 O 257.329 1.53343 -1.19162 0
M  V30 2605 C 254.459 2.4675 -2.44401 0
M  V30 2606 C 253.413 2.32467 -3.59365 0
M  V30 2607 C 252.739 3.69984 -3.86026 0
M  V30 2608 C 254.039 1.78203 -4.90959 0
M  V30 2609 H 255.733 0.755749 -2.89705 0
M  V30 2610 H 253.279 0.362093 -1.39373 0
M  V30 2611 H 255.232 3.18854 -2.75517 0
M  V30 2612 H 253.956 2.87302 -1.55322 0
M  V30 2613 H 252.615 1.62811 -3.28463 0
M  V30 2614 H 252.263 4.08028 -2.94147 0
M  V30 2615 H 251.963 3.61279 -4.63412 0
M  V30 2616 H 253.487 4.43587 -4.19599 0
M  V30 2617 H 254.901 2.40128 -5.20587 0
M  V30 2618 H 253.298 1.8031 -5.72371 0
M  V30 2619 H 254.368 0.739876 -4.79222 0
M  V30 2620 N 255.711 1.52812 0.385517 0
M  V30 2621 C 256.643 1.74096 1.49074 0
M  V30 2622 C 257.656 0.621462 1.50472 0
M  V30 2623 O 258.845 0.897245 1.54311 0
M  V30 2624 C 255.945 1.78774 2.87911 0
M  V30 2625 C 255.118 3.08134 3.10439 0
M  V30 2626 C 254.177 3.04313 4.29278 0
M  V30 2627 O 253.203 3.78168 4.25415 0
M  V30 2628 N 254.405 2.23741 5.35649 0
M  V30 2629 H 257.17 2.69455 1.31202 0
M  V30 2630 H 254.731 1.51343 0.575065 0
M  V30 2631 H 256.723 1.73721 3.65518 0
M  V30 2632 H 255.293 0.907869 2.99126 0
M  V30 2633 H 254.513 3.26649 2.20667 0
M  V30 2634 H 255.801 3.93662 3.22347 0
M  V30 2635 H 255.199 1.63211 5.41645 0
M  V30 2636 H 253.756 2.24524 6.11909 0
M  V30 2637 N 257.189 -0.644168 1.43834 0
M  V30 2638 C 258.6 -1.22554 1.40845 0
M  V30 2639 C 258.951 -1.9585 0.117115 0
M  V30 2640 O 258.076 -2.01734 -0.783086 0
M  V30 2641 C 258.671 -2.22907 2.55143 0
M  V30 2642 C 257.23 -2.76501 2.5539 0
M  V30 2643 C 256.377 -1.51287 2.32396 0
M  V30 2644 H 259.328 -0.43563 1.52604 0
M  V30 2645 H 259.349 -3.05259 2.2715 0
M  V30 2646 H 258.861 -1.69533 3.49114 0
M  V30 2647 H 256.962 -3.33914 1.65324 0
M  V30 2648 H 257.075 -3.23429 3.53455 0
M  V30 2649 H 255.439 -1.78957 1.81236 0
M  V30 2650 H 256.222 -0.998336 3.28463 0
M  V30 2651 N 258.668 -1.30515 -0.883378 0
M  V30 2652 C 259.598 -1.19607 -2.00541 0
M  V30 2653 C 260.579 -0.086346 -1.69881 0
M  V30 2654 O 261.764 -0.268654 -1.92333 0
M  V30 2655 C 258.894 -0.888758 -3.35736 0
M  V30 2656 C 257.848 -1.95659 -3.8066 0
M  V30 2657 C 257.174 -1.50224 -5.13164 0
M  V30 2658 C 258.474 -3.36788 -3.99213 0
M  V30 2659 H 260.168 -2.13476 -2.09925 0
M  V30 2660 H 257.714 -1.02775 -1.00863 0
M  V30 2661 H 259.667 -0.799094 -4.13754 0
M  V30 2662 H 258.391 0.0856125 -3.26488 0
M  V30 2663 H 257.05 -2.03591 -3.04871 0
M  V30 2664 H 256.698 -0.516092 -5.00345 0
M  V30 2665 H 256.398 -2.2165 -5.44192 0
M  V30 2666 H 257.922 -1.42639 -5.93706 0
M  V30 2667 H 259.336 -3.31605 -4.67665 0
M  V30 2668 H 257.733 -4.06314 -4.41621 0
M  V30 2669 H 258.803 -3.78561 -3.03017 0
M  V30 2670 N 260.146 1.09593 -1.13257 0
M  V30 2671 C 261.076 2.18214 -0.830946 0
M  V30 2672 C 262.057 1.68812 0.208966 0
M  V30 2673 O 263.242 1.9408 0.0682666 0
M  V30 2674 C 260.372 3.46051 -0.294296 0
M  V30 2675 C 259.326 4.08778 -1.26826 0
M  V30 2676 C 258.652 5.31419 -0.591449 0
M  V30 2677 C 259.952 4.51476 -2.62615 0
M  V30 2678 H 261.646 2.43703 -1.73923 0
M  V30 2679 H 259.192 1.17128 -0.837675 0
M  V30 2680 H 261.145 4.2134 -0.0709606 0
M  V30 2681 H 259.869 3.20079 0.649366 0
M  V30 2682 H 258.528 3.35505 -1.47756 0
M  V30 2683 H 258.176 5.01727 0.357633 0
M  V30 2684 H 257.876 5.74341 -1.24123 0
M  V30 2685 H 259.4 6.09433 -0.377355 0
M  V30 2686 H 260.814 5.17999 -2.45663 0
M  V30 2687 H 259.211 5.05277 -3.23752 0
M  V30 2688 H 260.281 3.63962 -3.20406 0
M  V30 2689 N 261.624 0.925811 1.2754 0
M  V30 2690 C 262.901 0.483726 1.89524 0
M  V30 2691 C 263.281 -1.03809 1.83812 0
M  V30 2692 O 262.629 -1.89143 1.28207 0
M  V30 2693 C 262.839 1.02769 3.33526 0
M  V30 2694 C 264.187 1.08703 4.10449 0
M  V30 2695 O 265.211 0.977175 3.42534 0
M  V30 2696 O 264.07 1.25599 5.31871 0
M  V30 2697 H 261.164 0.15529 0.812289 0
M  V30 2698 H 263.71 1.01738 1.35822 0
M  V30 2699 H 262.482 2.07155 3.31967 0
M  V30 2700 H 262.105 0.475567 3.94746 0
M  V30 2701 N 263.102 -1.41638 0.69111 0
M  V30 2702 C 264.05 -2.32597 0.0115199 0
M  V30 2703 C 265.044 -1.5072 -0.773296 0
M  V30 2704 O 266.25 -1.66685 -0.67942 0
M  V30 2705 H 262.625 -0.751849 -0.0150746 0
M  V30 2706 H 264.596 -2.87593 0.795791 0
M  V30 2707 C 263.345 -3.35467 -0.914172 0
M  V30 2708 H 262.668 -3.9852 -0.319687 0
M  V30 2709 H 264.108 -4.01662 -1.35808 0
M  V30 2710 C 262.567 -2.69004 -2.02826 0
M  V30 2711 O 263.097 -2.53444 -3.11655 0
M  V30 2712 N 261.303 -2.2777 -1.80469 0
M  V30 2713 H 260.85 -2.40626 -0.919615 0
M  V30 2714 H 260.808 -1.83635 -2.55197 0
M  V30 2715 N 264.58 -0.43555 -1.51462 0
M  V30 2716 C 265.512 0.41257 -2.25456 0
M  V30 2717 C 266.525 0.987822 -1.29406 0
M  V30 2718 O 267.714 0.882266 -1.55172 0
M  V30 2719 C 264.814 1.58894 -2.99342 0
M  V30 2720 C 263.987 1.13288 -4.22474 0
M  V30 2721 C 263.046 2.17917 -4.78956 0
M  V30 2722 O 262.072 1.77425 -5.40841 0
M  V30 2723 N 263.274 3.50382 -4.62832 0
M  V30 2724 H 266.039 -0.221603 -2.9888 0
M  V30 2725 H 263.6 -0.264342 -1.59727 0
M  V30 2726 H 265.592 2.28508 -3.34015 0
M  V30 2727 H 264.162 2.12849 -2.28941 0
M  V30 2728 H 263.382 0.263881 -3.93316 0
M  V30 2729 H 264.67 0.805542 -5.02383 0
M  V30 2730 H 264.068 3.86013 -4.13534 0
M  V30 2731 H 262.625 4.15895 -5.01871 0
M  V30 2732 N 266.058 1.56714 -0.166846 0
M  V30 2733 C 267.304 1.97039 0.479962 0
M  V30 2734 C 267.637 1.05264 1.63197 0
M  V30 2735 O 266.912 0.0988833 1.94248 0
M  V30 2736 C 267.195 3.46867 0.967212 0
M  V30 2737 C 267.048 4.49421 -0.18466 0
M  V30 2738 C 268.367 3.9968 1.84238 0
M  V30 2739 H 265.486 0.71641 0.172992 0
M  V30 2740 H 268.128 1.8832 -0.252079 0
M  V30 2741 H 266.278 3.54428 1.59101 0
M  V30 2742 H 267.95 4.53924 -0.821621 0
M  V30 2743 H 266.193 4.25573 -0.840837 0
M  V30 2744 H 266.864 5.51644 0.198317 0
M  V30 2745 H 269.34 3.94723 1.31655 0
M  V30 2746 H 268.216 5.04941 2.15234 0
M  V30 2747 H 268.477 3.43226 2.78654 0
M  V30 2748 N 267.536 -0.106894 1.57237 0
M  V30 2749 C 268.784 -0.810921 1.85117 0
M  V30 2750 C 269.105 -1.7984 0.753827 0
M  V30 2751 O 268.375 -1.94649 -0.221056 0
M  V30 2752 H 266.955 -0.302466 0.683025 0
M  V30 2753 H 269.617 -0.0913324 1.94686 0
M  V30 2754 H 268.713 -1.34875 2.81452 0
M  V30 2755 N 269.014 -1.53014 -0.377408 0
M  V30 2756 C 270.261 -1.68623 -1.12128 0
M  V30 2757 C 270.589 -0.431997 -1.89642 0
M  V30 2758 O 269.844 0.585855 -1.86725 0
M  V30 2759 C 270.143 -2.87982 -2.11663 0
M  V30 2760 C 269.809 -4.24964 -1.50719 0
M  V30 2761 C 268.471 -4.62217 -1.33825 0
M  V30 2762 C 270.823 -5.10199 -1.06519 0
M  V30 2763 C 268.151 -5.82352 -0.712963 0
M  V30 2764 C 270.503 -6.30969 -0.453955 0
M  V30 2765 C 269.167 -6.66944 -0.272411 0
M  V30 2766 H 268.437 -0.617034 -0.410305 0
M  V30 2767 H 271.084 -1.8718 -0.404484 0
M  V30 2768 H 269.389 -2.63889 -2.89603 0
M  V30 2769 H 271.086 -2.97253 -2.6915 0
M  V30 2770 H 267.676 -3.95626 -1.64858 0
M  V30 2771 H 271.86 -4.81978 -1.18368 0
M  V30 2772 H 267.116 -6.08824 -0.560611 0
M  V30 2773 H 271.29 -6.96324 -0.103217 0
M  V30 2774 H 268.917 -7.59898 0.214181 0
M  V30 2775 N 270.492 0.636531 -1.44174 0
M  V30 2776 C 271.439 1.74875 -1.50624 0
M  V30 2777 C 272.409 1.62275 -0.35442 0
M  V30 2778 O 273.594 1.82276 -0.563908 0
M  V30 2779 C 270.734 3.13102 -1.45125 0
M  V30 2780 C 269.847 3.36717 -2.7064 0
M  V30 2781 C 268.982 4.64885 -2.57013 0
M  V30 2782 C 268.021 4.8166 -3.77717 0
M  V30 2783 N 267.158 6.01101 -3.62798 0
M  V30 2784 H 271.998 1.68697 -2.45653 0
M  V30 2785 H 269.535 0.823004 -1.21922 0
M  V30 2786 H 271.493 3.93034 -1.39929 0
M  V30 2787 H 270.123 3.18308 -0.536671 0
M  V30 2788 H 269.175 2.50763 -2.86046 0
M  V30 2789 H 270.487 3.44993 -3.60252 0
M  V30 2790 H 269.641 5.52969 -2.49619 0
M  V30 2791 H 268.38 4.58957 -1.64953 0
M  V30 2792 H 267.385 3.92007 -3.85501 0
M  V30 2793 H 268.61 4.89406 -4.70807 0
M  V30 2794 H 266.556 5.96273 -2.73486 0
M  V30 2795 H 266.473 6.10409 -4.46023 0
M  V30 2796 H 267.741 6.91761 -3.59286 0
M  V30 2797 N 271.97 1.30982 0.876444 0
M  V30 2798 C 272.918 1.18006 2.00443 0
M  V30 2799 C 273.912 0.0898871 1.69161 0
M  V30 2800 O 275.118 0.251333 1.78237 0
M  V30 2801 H 271.493 0.365196 0.65737 0
M  V30 2802 H 273.464 2.13453 2.0852 0
M  V30 2803 C 272.213 0.897521 3.35916 0
M  V30 2804 H 271.536 1.7285 3.60504 0
M  V30 2805 H 272.976 0.846874 4.15456 0
M  V30 2806 C 271.435 -0.399674 3.34521 0
M  V30 2807 O 271.965 -1.41852 3.7582 0
M  V30 2808 N 270.171 -0.413893 2.87637 0
M  V30 2809 H 269.718 0.41571 2.54224 0
M  V30 2810 H 269.676 -1.28175 2.87086 0
M  V30 2811 N 273.449 -1.08991 1.13837 0
M  V30 2812 C 274.382 -2.15049 0.763477 0
M  V30 2813 C 275.36 -1.60629 -0.252398 0
M  V30 2814 O 276.544 -1.87958 -0.142853 0
M  V30 2815 C 273.671 -3.38441 0.132545 0
M  V30 2816 C 272.717 -4.11596 1.11763 0
M  V30 2817 S 273.55 -4.6521 2.65216 0
M  V30 2818 C 274.706 -5.91896 2.03495 0
M  V30 2819 H 274.939 -2.46518 1.66182 0
M  V30 2820 H 272.472 -1.21008 0.958976 0
M  V30 2821 H 274.43 -4.09883 -0.225074 0
M  V30 2822 H 273.091 -3.05182 -0.743135 0
M  V30 2823 H 272.284 -5.00121 0.624076 0
M  V30 2824 H 271.886 -3.46038 1.41894 0
M  V30 2825 H 274.178 -6.63156 1.38675 0
M  V30 2826 H 275.121 -6.45938 2.9012 0
M  V30 2827 H 275.529 -5.44625 1.48471 0
M  V30 2828 N 274.927 -0.932562 -1.27047 0
M  V30 2829 C 275.859 -0.392734 -2.2581 0
M  V30 2830 C 276.872 0.479241 -1.55586 0
M  V30 2831 O 278.061 0.291078 -1.76111 0
M  V30 2832 C 275.161 0.455456 -3.35826 0
M  V30 2833 C 274.334 -0.398355 -4.35582 0
M  V30 2834 C 273.393 0.387985 -5.24768 0
M  V30 2835 O 272.419 -0.206003 -5.68827 0
M  V30 2836 N 273.621 1.68664 -5.55457 0
M  V30 2837 H 276.386 -1.24173 -2.72766 0
M  V30 2838 H 273.947 -0.800511 -1.40725 0
M  V30 2839 H 275.939 0.988692 -3.92437 0
M  V30 2840 H 274.509 1.20522 -2.88432 0
M  V30 2841 H 273.729 -1.11286 -3.78165 0
M  V30 2842 H 275.017 -0.981889 -4.99236 0
M  V30 2843 H 274.415 2.19147 -5.21528 0
M  V30 2844 H 272.972 2.1663 -6.14748 0
M  V30 2845 N 276.405 1.4127 -0.698611 0
M  V30 2846 C 277.353 2.32588 -0.023855 0
M  V30 2847 C 278.347 1.51128 0.765292 0
M  V30 2848 O 279.553 1.67043 0.670571 0
M  V30 2849 H 275.928 0.751918 0.0110871 0
M  V30 2850 H 277.899 2.87167 -0.811031 0
M  V30 2851 C 276.648 3.35947 0.896369 0
M  V30 2852 H 275.971 3.98684 0.298548 0
M  V30 2853 H 277.411 4.02376 1.33676 0
M  V30 2854 C 275.87 2.70076 2.01396 0
M  V30 2855 O 276.4 2.55093 3.10307 0
M  V30 2856 N 274.606 2.28724 1.79259 0
M  V30 2857 H 274.153 2.4111 0.906841 0
M  V30 2858 H 274.111 1.84986 2.54219 0
M  V30 2859 N 277.883 0.443576 1.51229 0
M  V30 2860 C 279.129 -0.120975 2.02439 0
M  V30 2861 C 279.462 -1.41815 1.32674 0
M  V30 2862 O 278.737 -1.89373 0.443622 0
M  V30 2863 C 279.02 -0.333291 3.58554 0
M  V30 2864 C 278.873 0.982968 4.38928 0
M  V30 2865 C 280.192 -1.10028 4.26124 0
M  V30 2866 H 277.311 -0.0424923 0.735774 0
M  V30 2867 H 279.953 0.583794 1.80809 0
M  V30 2868 H 278.103 -0.933614 3.77115 0
M  V30 2869 H 279.775 1.61775 4.32003 0
M  V30 2870 H 278.018 1.58611 4.03763 0
M  V30 2871 H 278.689 0.788379 5.46341 0
M  V30 2872 H 281.165 -0.591711 4.11871 0
M  V30 2873 H 280.041 -1.21761 5.35225 0
M  V30 2874 H 280.302 -2.12996 3.87408 0
M  V30 2875 N 279.361 -1.56624 0.175154 0
M  V30 2876 C 280.271 -2.21741 -0.766042 0
M  V30 2877 C 281.287 -1.21023 -1.25018 0
M  V30 2878 O 282.463 -1.53697 -1.3015 0
M  V30 2879 C 279.528 -2.84839 -1.97655 0
M  V30 2880 C 278.589 -4.00769 -1.53892 0
M  V30 2881 C 277.822 -4.60849 -2.69173 0
M  V30 2882 O 278.045 -4.19823 -3.86141 0
M  V30 2883 O 276.979 -5.50655 -2.43028 0
M  V30 2884 H 280.805 -3.02738 -0.241585 0
M  V30 2885 H 278.39 -1.49305 -0.053222 0
M  V30 2886 H 280.272 -3.24834 -2.68442 0
M  V30 2887 H 278.947 -2.06836 -2.48999 0
M  V30 2888 H 277.854 -3.65436 -0.80044 0
M  V30 2889 H 279.187 -4.80376 -1.07236 0
M  V30 2890 N 280.839 0.0985539 -1.57292 0
M  V30 2891 C 281.789 1.1261 -1.9825 0
M  V30 2892 C 282.773 1.35961 -0.860426 0
M  V30 2893 O 283.965 1.36711 -1.12424 0
M  V30 2894 C 281.094 2.44727 -2.40757 0
M  V30 2895 C 280.18 2.24764 -3.59642 0
M  V30 2896 N 280.571 1.74661 -4.74687 0
M  V30 2897 C 278.869 2.55344 -3.65672 0
M  V30 2898 C 279.57 1.68887 -5.56644 0
M  V30 2899 N 278.546 2.13976 -4.99715 0
M  V30 2900 H 282.348 0.731604 -2.84648 0
M  V30 2901 H 279.862 0.306029 -1.59491 0
M  V30 2902 H 281.859 3.19072 -2.68326 0
M  V30 2903 H 280.519 2.84917 -1.55733 0
M  V30 2904 H 281.53 1.43908 -4.97505 0
M  V30 2905 H 278.207 2.99081 -2.91302 0
M  V30 2906 H 279.597 1.3123 -6.5896 0
M  V30 2907 N 282.317 1.53212 0.369288 0
M  V30 2908 C 283.563 1.69466 1.11397 0
M  V30 2909 C 283.896 0.443257 1.89074 0
M  V30 2910 O 283.171 -0.559386 1.86282 0
M  V30 2911 C 283.454 2.9422 2.07621 0
M  V30 2912 C 283.307 4.29508 1.33577 0
M  V30 2913 C 284.626 3.14565 3.07794 0
M  V30 2914 H 281.745 0.616667 0.403597 0
M  V30 2915 H 284.387 1.85845 0.395179 0
M  V30 2916 H 282.537 2.80387 2.68916 0
M  V30 2917 H 284.209 4.55147 0.750955 0
M  V30 2918 H 282.452 4.29088 0.637618 0
M  V30 2919 H 283.123 5.12926 2.03989 0
M  V30 2920 H 285.599 3.2756 2.56601 0
M  V30 2921 H 284.475 4.03297 3.72348 0
M  V30 2922 H 284.736 2.29675 3.77759 0
M  V30 2923 N 283.795 -0.628877 1.44509 0
M  V30 2924 C 285.206 -1.21054 1.42137 0
M  V30 2925 C 285.557 -1.95715 0.137881 0
M  V30 2926 O 284.682 -2.02554 -0.761645 0
M  V30 2927 C 285.277 -2.20189 2.57493 0
M  V30 2928 C 283.836 -2.73777 2.58308 0
M  V30 2929 C 282.983 -1.48813 2.33987 0
M  V30 2930 H 285.934 -0.41942 1.53057 0
M  V30 2931 H 285.955 -3.02833 2.30375 0
M  V30 2932 H 285.467 -1.6582 3.50892 0
M  V30 2933 H 283.568 -3.32142 1.68856 0
M  V30 2934 H 283.681 -3.19662 3.56865 0
M  V30 2935 H 282.045 -1.77024 1.83124 0
M  V30 2936 H 282.828 -0.963442 3.29504 0
M  V30 2937 N 285.273 -1.31445 -0.869486 0
M  V30 2938 C 286.203 -1.21727 -1.99261 0
M  V30 2939 C 287.184 -0.104359 -1.6978 0
M  V30 2940 O 288.369 -0.289038 -1.92037 0
M  V30 2941 C 285.499 -0.924317 -3.34774 0
M  V30 2942 C 284.453 -1.99685 -3.78563 0
M  V30 2943 C 283.779 -1.55658 -5.11541 0
M  V30 2944 C 285.079 -3.41003 -3.95619 0
M  V30 2945 H 286.773 -2.1569 -2.07649 0
M  V30 2946 H 284.319 -1.03839 -0.997675 0
M  V30 2947 H 286.272 -0.842934 -4.12883 0
M  V30 2948 H 284.996 0.0509793 -3.2656 0
M  V30 2949 H 283.655 -2.06813 -3.02694 0
M  V30 2950 H 283.303 -0.569132 -4.9977 0
M  V30 2951 H 283.003 -2.27409 -5.41811 0
M  V30 2952 H 284.527 -1.48928 -5.92159 0
M  V30 2953 H 285.941 -3.36547 -4.64122 0
M  V30 2954 H 284.338 -4.10975 -4.37286 0
M  V30 2955 H 285.408 -3.81754 -2.98985 0
M  V30 2956 N 286.751 1.08385 -1.14413 0
M  V30 2957 C 287.976 1.85057 -0.936413 0
M  V30 2958 C 288.401 1.81055 0.509971 0
M  V30 2959 O 287.759 1.1958 1.36273 0
M  V30 2960 C 287.807 3.30505 -1.44217 0
M  V30 2961 O 286.911 4.07491 -0.634409 0
M  V30 2962 H 286.252 0.573425 -0.334784 0
M  V30 2963 H 288.782 1.36799 -1.52142 0
M  V30 2964 H 288.792 3.81348 -1.45043 0
M  V30 2965 H 287.467 3.32734 -2.49522 0
M  V30 2966 H 286.044 3.66368 -0.694902 0
M  V30 2967 N 288.23 0.939286 1.26551 0
M  V30 2968 C 289.16 0.465044 2.28822 0
M  V30 2969 C 290.141 -0.480692 1.63167 0
M  V30 2970 O 291.326 -0.382955 1.90387 0
M  V30 2971 C 288.456 -0.27234 3.46231 0
M  V30 2972 C 287.41 0.58666 4.2396 0
M  V30 2973 C 286.736 -0.280573 5.33963 0
M  V30 2974 C 288.036 1.85704 4.88171 0
M  V30 2975 H 289.73 1.31979 2.68741 0
M  V30 2976 H 287.276 0.636061 1.29191 0
M  V30 2977 H 289.229 -0.615133 4.16886 0
M  V30 2978 H 287.953 -1.16121 3.0526 0
M  V30 2979 H 286.612 0.91232 3.55067 0
M  V30 2980 H 286.26 -1.16874 4.89234 0
M  V30 2981 H 285.96 0.29076 5.8688 0
M  V30 2982 H 287.484 -0.618678 6.07458 0
M  V30 2983 H 288.898 1.58161 5.51052 0
M  V30 2984 H 287.295 2.37279 5.51197 0
M  V30 2985 H 288.365 2.56957 4.11219 0
M  V30 2986 N 289.708 -1.40897 0.706093 0
M  V30 2987 C 290.985 -1.94868 0.169099 0
M  V30 2988 C 291.365 -1.64485 -1.32318 0
M  V30 2989 O 290.713 -0.95744 -2.07474 0
M  V30 2990 C 290.923 -3.45798 0.471654 0
M  V30 2991 C 292.271 -4.22663 0.405127 0
M  V30 2992 O 293.295 -3.53865 0.407168 0
M  V30 2993 O 292.154 -5.45216 0.374383 0
M  V30 2994 H 289.248 -0.82673 0.0211352 0
M  V30 2995 H 291.794 -1.50558 0.782976 0
M  V30 2996 H 290.566 -3.61235 1.50416 0
M  V30 2997 H 290.189 -3.97225 -0.172666 0
M  V30 2998 N 291.186 -0.45159 -1.50991 0
M  V30 2999 C 292.602 -0.104647 -1.59257 0
M  V30 3000 C 292.802 1.38728 -1.4614 0
M  V30 3001 O 291.858 2.15866 -1.30989 0
M  V30 3002 C 293.171 -0.637468 -2.93865 0
M  V30 3003 C 294.719 -0.599166 -3.07212 0
M  V30 3004 C 295.194 -1.1092 -4.44366 0
M  V30 3005 N 296.685 -1.06778 -4.50725 0
M  V30 3006 C 297.42 -1.43314 -5.55201 0
M  V30 3007 N 296.916 -1.87204 -6.67028 0
M  V30 3008 N 298.709 -1.3504 -5.45638 0
M  V30 3009 H 290.86 -1.42214 -1.57762 0
M  V30 3010 H 293.123 -0.586921 -0.744465 0
M  V30 3011 H 292.829 -1.68187 -3.08879 0
M  V30 3012 H 292.703 -0.0702139 -3.77135 0
M  V30 3013 H 295.09 0.436277 -2.91857 0
M  V30 3014 H 295.171 -1.20299 -2.25747 0
M  V30 3015 H 294.815 -2.14318 -4.60467 0
M  V30 3016 H 294.745 -0.481773 -5.24392 0
M  V30 3017 H 297.236 -0.745643 -3.70471 0
M  V30 3018 H 297.549 -2.13282 -7.42786 0
M  V30 3019 H 295.894 -1.91142 -6.68199 0
M  V30 3020 H 299.085 -1.00607 -4.57161 0
M  V30 3021 H 299.258 -1.63841 -6.26945 0
M  V30 3022 N 292.664 1.56529 -0.183458 0
M  V30 3023 C 293.627 2.17324 0.728223 0
M  V30 3024 C 294.627 1.12453 1.14939 0
M  V30 3025 O 295.817 1.37902 1.06437 0
M  V30 3026 C 292.949 2.76591 1.99274 0
M  V30 3027 H 294.142 2.99241 0.198772 0
M  V30 3028 H 291.695 1.5616 0.0661391 0
M  V30 3029 H 292.43 1.98441 2.56499 0
M  V30 3030 H 292.215 3.5335 1.69959 0
M  V30 3031 H 293.705 3.23311 2.6431 0
M  V30 3032 N 294.142 -0.090211 1.57342 0
M  V30 3033 C 295.075 -1.14035 1.97664 0
M  V30 3034 C 296.053 -1.38576 0.850616 0
M  V30 3035 O 297.237 -1.52255 1.11134 0
M  V30 3036 C 294.364 -2.48854 2.2976 0
M  V30 3037 C 293.41 -2.40564 3.52181 0
M  V30 3038 S 294.243 -1.81745 5.03715 0
M  V30 3039 C 295.399 -3.18178 5.38993 0
M  V30 3040 H 295.632 -0.796636 2.86428 0
M  V30 3041 H 293.165 -0.298072 1.51496 0
M  V30 3042 H 295.123 -3.26413 2.48927 0
M  V30 3043 H 293.784 -2.80393 1.41558 0
M  V30 3044 H 292.977 -3.39942 3.72096 0
M  V30 3045 H 292.579 -1.71135 3.32549 0
M  V30 3046 H 294.871 -4.14461 5.35937 0
M  V30 3047 H 295.814 -3.03062 6.39968 0
M  V30 3048 H 296.222 -3.17935 4.66452 0
M  V30 3049 N 295.62 -1.53406 -0.361157 0
M  V30 3050 C 297.036 -1.43277 -0.703124 0
M  V30 3051 C 297.236 -0.575384 -1.9311 0
M  V30 3052 O 296.292 -0.0595362 -2.5243 0
M  V30 3053 C 297.605 -2.8653 -0.9122 0
M  V30 3054 C 299.153 -2.96191 -1.01193 0
M  V30 3055 C 299.628 -4.40514 -1.25345 0
M  V30 3056 N 301.119 -4.43962 -1.32105 0
M  V30 3057 C 301.854 -5.52746 -1.5251 0
M  V30 3058 N 301.35 -6.71567 -1.70203 0
M  V30 3059 N 303.143 -5.40331 -1.54916 0
M  V30 3060 H 295.294 -2.07654 0.446475 0
M  V30 3061 H 297.557 -0.937944 0.137715 0
M  V30 3062 H 297.263 -3.51605 -0.0816414 0
M  V30 3063 H 297.137 -3.30441 -1.81903 0
M  V30 3064 H 299.524 -2.31266 -1.83303 0
M  V30 3065 H 299.605 -2.55667 -0.0823929 0
M  V30 3066 H 299.249 -5.06014 -0.437346 0
M  V30 3067 H 299.179 -4.78614 -2.19627 0
M  V30 3068 H 301.67 -3.58332 -1.20028 0
M  V30 3069 H 301.983 -7.50241 -1.85359 0
M  V30 3070 H 300.328 -6.74545 -1.67373 0
M  V30 3071 H 303.519 -4.46465 -1.40663 0
M  V30 3072 H 303.692 -6.25173 -1.70477 0
M  V30 3073 N 297.098 0.621204 -1.44841 0
M  V30 3074 C 298.028 1.74366 -1.55303 0
M  V30 3075 C 299.009 1.65199 -0.405385 0
M  V30 3076 O 300.194 1.83807 -0.626787 0
M  V30 3077 C 297.324 3.12931 -1.50637 0
M  V30 3078 C 296.278 3.36896 -2.63979 0
M  V30 3079 C 295.604 4.75594 -2.44366 0
M  V30 3080 C 296.904 3.28483 -4.06074 0
M  V30 3081 H 298.598 1.65867 -2.49256 0
M  V30 3082 H 296.144 0.796558 -1.19962 0
M  V30 3083 H 298.097 3.9124 -1.56555 0
M  V30 3084 H 296.821 3.22237 -0.532057 0
M  V30 3085 H 295.48 2.60972 -2.57467 0
M  V30 3086 H 295.128 4.81616 -1.45105 0
M  V30 3087 H 294.828 4.92586 -3.20364 0
M  V30 3088 H 296.352 5.5612 -2.52117 0
M  V30 3089 H 297.766 3.96684 -4.13902 0
M  V30 3090 H 296.163 3.57008 -4.82354 0
M  V30 3091 H 297.233 2.26133 -4.28943 0
M  V30 3092 N 298.576 1.31904 0.862503 0
M  V30 3093 C 299.822 1.22197 1.61851 0
M  V30 3094 C 300.155 -0.217641 1.92977 0
M  V30 3095 O 299.43 -1.15264 1.56666 0
M  V30 3096 C 299.713 2.07378 2.94391 0
M  V30 3097 C 299.566 3.59678 2.70096 0
M  V30 3098 C 300.885 1.92891 3.95577 0
M  V30 3099 H 298.004 0.445255 0.587296 0
M  V30 3100 H 300.646 1.6177 0.99651 0
M  V30 3101 H 298.796 1.73758 3.47477 0
M  V30 3102 H 300.468 4.03472 2.23625 0
M  V30 3103 H 298.711 3.82735 2.04197 0
M  V30 3104 H 299.382 4.14595 3.64438 0
M  V30 3105 H 301.858 2.22327 3.51724 0
M  V30 3106 H 300.734 2.54781 4.86187 0
M  V30 3107 H 300.995 0.894315 4.3296 0
M  V30 3108 N 300.054 -1.07777 1.14986 0
M  V30 3109 C 301.001 -2.14867 0.842672 0
M  V30 3110 C 301.971 -1.6486 -0.202552 0
M  V30 3111 O 303.156 -1.90668 -0.0710568 0
M  V30 3112 C 300.296 -3.43486 0.333363 0
M  V30 3113 C 299.409 -4.07306 1.43965 0
M  V30 3114 C 298.544 -5.23744 0.886914 0
M  V30 3115 C 297.583 -5.79517 1.97043 0
M  V30 3116 N 296.72 -6.87291 1.4344 0
M  V30 3117 H 301.56 -2.40485 1.75986 0
M  V30 3118 H 299.097 -1.1801 0.878179 0
M  V30 3119 H 301.055 -4.17195 0.0198163 0
M  V30 3120 H 299.685 -3.18133 -0.546916 0
M  V30 3121 H 298.737 -3.31293 1.86946 0
M  V30 3122 H 300.049 -4.44771 2.25788 0
M  V30 3123 H 299.203 -6.04419 0.525651 0
M  V30 3124 H 297.942 -4.87685 0.0377957 0
M  V30 3125 H 296.947 -4.97491 2.34057 0
M  V30 3126 H 298.172 -6.17632 2.82325 0
M  V30 3127 H 296.118 -6.5318 0.607567 0
M  V30 3128 H 296.035 -7.23617 2.18895 0
M  V30 3129 H 297.303 -7.71682 1.10124 0
M  V30 3130 N 301.532 -0.945985 -1.26051 0
M  V30 3131 C 302.809 -0.513816 -1.88731 0
M  V30 3132 C 303.189 1.00872 -1.8544 0
M  V30 3133 O 302.537 1.8708 -1.312 0
M  V30 3134 C 302.747 -1.08062 -3.31849 0
M  V30 3135 C 304.095 -1.1522 -4.08668 0
M  V30 3136 O 305.119 -1.03155 -3.40936 0
M  V30 3137 O 303.978 -1.34044 -5.29806 0
M  V30 3138 H 301.072 -0.168193 -0.809716 0
M  V30 3139 H 303.618 -1.03886 -1.34186 0
M  V30 3140 H 302.39 -2.1241 -3.2863 0
M  V30 3141 H 302.013 -0.538307 -3.93939 0
M  V30 3142 N 303.011 1.40521 -0.713556 0
M  V30 3143 C 304.257 2.01221 -0.252564 0
M  V30 3144 C 304.59 1.56444 1.1506 0
M  V30 3145 O 303.865 0.783597 1.78017 0
M  V30 3146 C 304.148 3.58582 -0.330332 0
M  V30 3147 C 304.001 4.13437 -1.77173 0
M  V30 3148 C 305.32 4.39079 0.299641 0
M  V30 3149 H 302.439 0.731077 -0.0932471 0
M  V30 3150 H 305.081 1.67026 -0.905673 0
M  V30 3151 H 303.231 3.87844 0.225737 0
M  V30 3152 H 304.903 3.9498 -2.38303 0
M  V30 3153 H 303.146 3.67801 -2.3001 0
M  V30 3154 H 303.817 5.22597 -1.77755 0
M  V30 3155 H 306.293 4.15735 -0.174139 0
M  V30 3156 H 305.169 5.4848 0.214771 0
M  V30 3157 H 305.43 4.19915 1.38288 0
M  V30 3158 N 304.489 0.459591 1.5075 0
M  V30 3159 C 305.736 -0.0993495 2.02256 0
M  V30 3160 C 306.064 -1.40751 1.34237 0
M  V30 3161 O 305.319 -1.90379 0.453228 0
M  V30 3162 C 305.618 -0.342866 3.55752 0
M  V30 3163 C 305.284 0.88218 4.42186 0
M  V30 3164 C 303.946 1.21808 4.65528 0
M  V30 3165 C 306.298 1.69837 4.92752 0
M  V30 3166 C 303.626 2.37045 5.36681 0
M  V30 3167 C 305.978 2.84192 5.65171 0
M  V30 3168 C 304.642 3.1821 5.8677 0
M  V30 3169 H 303.912 -0.0363545 0.740108 0
M  V30 3170 H 306.559 0.611329 1.8148 0
M  V30 3171 H 304.864 -1.13567 3.7498 0
M  V30 3172 H 306.561 -0.789121 3.93159 0
M  V30 3173 H 303.151 0.610467 4.2423 0
M  V30 3174 H 307.335 1.45205 4.74583 0
M  V30 3175 H 302.591 2.63689 5.51614 0
M  V30 3176 H 306.765 3.4779 6.03337 0
M  V30 3177 H 304.392 4.07613 6.41682 0
M  V30 3178 N 305.967 -1.56429 0.191757 0
M  V30 3179 C 307.216 -1.9666 -0.448088 0
M  V30 3180 C 307.529 -1.08136 -1.62991 0
M  V30 3181 O 308.735 -1.38135 -2.33733 0
M  V30 3182 C 307.191 -3.49753 -0.848585 0
M  V30 3183 C 306.799 -4.46935 0.308764 0
M  V30 3184 C 308.543 -3.9876 -1.4557 0
M  V30 3185 C 306.45 -5.91293 -0.112506 0
M  V30 3186 H 305.38 -0.734312 -0.171179 0
M  V30 3187 H 308.031 -1.81301 0.283242 0
M  V30 3188 H 306.413 -3.60604 -1.63649 0
M  V30 3189 H 307.587 -4.47813 1.08627 0
M  V30 3190 H 305.902 -4.08102 0.827158 0
M  V30 3191 H 308.499 -5.04086 -1.78328 0
M  V30 3192 H 308.842 -3.42875 -2.36099 0
M  V30 3193 H 309.375 -3.9101 -0.731836 0
M  V30 3194 H 306.114 -6.51097 0.758514 0
M  V30 3195 H 305.634 -5.93676 -0.854941 0
M  V30 3196 H 307.313 -6.44663 -0.549448 0
M  V30 3197 N 307.445 0.0818655 -1.57387 0
M  V30 3198 C 308.67 0.799946 -1.91352 0
M  V30 3199 C 309.095 1.70833 -0.787258 0
M  V30 3200 O 308.453 1.79419 0.26048 0
M  V30 3201 C 308.501 1.57812 -3.24234 0
M  V30 3202 O 307.605 2.68806 -3.12757 0
M  V30 3203 H 306.946 0.21891 -0.626877 0
M  V30 3204 H 309.476 0.0531256 -2.04531 0
M  V30 3205 H 309.486 1.95952 -3.57864 0
M  V30 3206 H 308.161 0.911548 -4.05788 0
M  V30 3207 H 306.738 2.33597 -2.90666 0
M  V30 3208 N 308.923 1.53595 0.353017 0
M  V30 3209 C 309.886 1.80232 1.41594 0
M  V30 3210 C 310.886 0.673081 1.46035 0
M  V30 3211 O 312.076 0.941335 1.46576 0
M  V30 3212 C 309.208 1.93578 2.80607 0
M  V30 3213 H 310.401 2.75174 1.19244 0
M  V30 3214 H 307.954 1.44864 0.586872 0
M  V30 3215 H 308.689 1.00746 3.08254 0
M  V30 3216 H 308.474 2.75724 2.78781 0
M  V30 3217 H 309.964 2.15735 3.57558 0
M  V30 3218 N 310.401 -0.613514 1.45168 0
M  V30 3219 C 311.364 -1.7065 1.53007 0
M  V30 3220 C 312.364 -1.5548 0.410184 0
M  V30 3221 O 313.554 -1.60656 0.673455 0
M  V30 3222 C 310.686 -3.09875 1.42093 0
M  V30 3223 H 311.879 -1.65068 2.50385 0
M  V30 3224 H 309.432 -0.828728 1.32521 0
M  V30 3225 H 310.167 -3.21039 0.458769 0
M  V30 3226 H 309.952 -3.22293 2.23315 0
M  V30 3227 H 311.442 -3.895 1.50598 0
M  V30 3228 N 311.879 -1.3236 -0.855495 0
M  V30 3229 C 312.789 -1.23221 -1.99634 0
M  V30 3230 C 313.805 -0.145983 -1.73387 0
M  V30 3231 O 314.981 -0.366502 -1.98037 0
M  V30 3232 C 312.046 -0.954782 -3.33294 0
M  V30 3233 C 311.107 -2.12937 -3.72769 0
M  V30 3234 C 310.34 -1.86508 -5.00051 0
M  V30 3235 O 310.563 -0.807231 -5.64659 0
M  V30 3236 O 309.497 -2.72591 -5.36636 0
M  V30 3237 H 313.323 -2.19126 -2.1028 0
M  V30 3238 H 310.908 -1.12241 -0.986018 0
M  V30 3239 H 312.79 -0.816519 -4.13414 0
M  V30 3240 H 311.465 -0.0258854 -3.2369 0
M  V30 3241 H 310.372 -2.3231 -2.93228 0
M  V30 3242 H 311.705 -3.04102 -3.87018 0
M  V30 3243 N 313.357 1.07166 -1.15556 0
M  V30 3244 C 314.773 1.31899 -0.898603 0
M  V30 3245 C 314.973 1.96333 0.453383 0
M  V30 3246 O 314.029 2.22438 1.19489 0
M  V30 3247 C 315.342 2.20826 -2.04099 0
M  V30 3248 C 316.89 2.34269 -2.07574 0
M  V30 3249 C 317.365 3.26546 -3.21141 0
M  V30 3250 N 318.856 3.34127 -3.20801 0
M  V30 3251 C 319.591 4.05595 -4.05315 0
M  V30 3252 N 319.087 4.79661 -4.99897 0
M  V30 3253 N 320.88 4.01555 -3.93332 0
M  V30 3254 H 313.031 0.637302 -2.02613 0
M  V30 3255 H 315.294 0.343468 -0.883591 0
M  V30 3256 H 315 1.80744 -3.01703 0
M  V30 3257 H 314.874 3.21364 -1.97496 0
M  V30 3258 H 317.261 2.73603 -1.10568 0
M  V30 3259 H 317.342 1.33429 -2.18244 0
M  V30 3260 H 316.986 2.87931 -4.184 0
M  V30 3261 H 316.916 4.27345 -3.07708 0
M  V30 3262 H 319.407 2.81336 -2.52306 0
M  V30 3263 H 319.72 5.31694 -5.60822 0
M  V30 3264 H 318.065 4.78671 -5.03884 0
M  V30 3265 H 321.256 3.42806 -3.18751 0
M  V30 3266 H 321.429 4.56987 -4.5942 0
M  V30 3267 N 314.835 0.952656 1.25548 0
M  V30 3268 C 316.112 0.523818 1.88456 0
M  V30 3269 C 316.492 -0.998871 1.85973 0
M  V30 3270 O 315.84 -1.86381 1.3219 0
M  V30 3271 C 316.05 1.0982 3.31271 0
M  V30 3272 C 317.398 1.17385 4.08051 0
M  V30 3273 O 318.422 1.04961 3.40384 0
M  V30 3274 O 317.281 1.36852 5.29088 0
M  V30 3275 H 314.375 0.172485 0.808813 0
M  V30 3276 H 316.921 1.04596 1.33633 0
M  V30 3277 H 315.693 2.1415 3.27499 0
M  V30 3278 H 315.316 0.559191 3.93648 0
M  V30 3279 N 316.313 -1.40141 0.720998 0
M  V30 3280 C 317.559 -2.01084 0.263231 0
M  V30 3281 C 317.892 -1.57052 -1.14229 0
M  V30 3282 O 317.167 -0.793027 -1.77599 0
M  V30 3283 C 317.45 -3.58401 0.349344 0
M  V30 3284 C 317.303 -4.12491 1.79363 0
M  V30 3285 C 318.622 -4.39231 -0.276351 0
M  V30 3286 H 315.741 -0.730572 0.0971228 0
M  V30 3287 H 318.383 -1.66543 0.914518 0
M  V30 3288 H 316.533 -3.87958 -0.205165 0
M  V30 3289 H 318.205 -3.93711 2.40394 0
M  V30 3290 H 316.448 -3.66576 2.31958 0
M  V30 3291 H 317.119 -5.21646 1.80524 0
M  V30 3292 H 319.595 -4.15637 0.196184 0
M  V30 3293 H 318.471 -5.48586 -0.185681 0
M  V30 3294 H 318.732 -4.20643 -1.36059 0
M  V30 3295 N 317.792 -0.46758 -1.50504 0
M  V30 3296 C 319.022 0.086288 -2.0642 0
M  V30 3297 C 319.43 1.34369 -1.33197 0
M  V30 3298 O 318.773 1.79431 -0.393747 0
M  V30 3299 C 318.835 0.443846 -3.5675 0
M  V30 3300 C 318.499 -0.711035 -4.51435 0
M  V30 3301 C 319.496 -1.59205 -4.94924 0
M  V30 3302 C 317.181 -0.900363 -4.94165 0
M  V30 3303 C 319.175 -2.64683 -5.79846 0
M  V30 3304 C 316.862 -1.95837 -5.7887 0
M  V30 3305 C 317.86 -2.82997 -6.21612 0
M  V30 3306 O 317.548 -3.86977 -7.0463 0
M  V30 3307 H 317.28 -0.00217814 -0.675996 0
M  V30 3308 H 319.834 -0.654346 -1.94698 0
M  V30 3309 H 318.064 1.23762 -3.6636 0
M  V30 3310 H 319.753 0.932386 -3.95046 0
M  V30 3311 H 320.519 -1.45745 -4.62583 0
M  V30 3312 H 316.398 -0.231427 -4.60419 0
M  V30 3313 H 319.942 -3.32745 -6.13128 0
M  V30 3314 H 315.839 -2.09305 -6.10624 0
M  V30 3315 H 316.607 -3.83923 -7.22873 0
M  V30 3316 N 319.27 1.56325 -0.20005 0
M  V30 3317 C 320.498 2.02105 0.442874 0
M  V30 3318 C 320.913 1.08014 1.5485 0
M  V30 3319 O 320.27 0.0858797 1.82298 0
M  V30 3320 C 320.321 3.47549 0.994583 0
M  V30 3321 O 320.042 4.38049 -0.0669322 0
M  V30 3322 C 321.543 4.0887 1.7129 0
M  V30 3323 H 318.763 0.661807 0.110691 0
M  V30 3324 H 321.307 2.02134 -0.310207 0
M  V30 3325 H 319.462 3.48204 1.69803 0
M  V30 3326 H 319.876 5.23368 0.344462 0
M  V30 3327 H 321.35 5.12475 2.05118 0
M  V30 3328 H 321.827 3.52615 2.61838 0
M  V30 3329 H 322.433 4.12002 1.05518 0
M  V30 3330 N 320.748 -0.0735177 1.57428 0
M  V30 3331 C 321.996 -0.771472 1.86796 0
M  V30 3332 C 322.317 -1.78201 0.791804 0
M  V30 3333 O 321.587 -1.95074 -0.179718 0
M  V30 3334 H 320.167 -0.28791 0.689287 0
M  V30 3335 H 322.829 -0.0500161 1.94836 0
M  V30 3336 H 321.925 -1.28874 2.8425 0
M  V30 3337 N 322.226 -1.5378 -0.344866 0
M  V30 3338 C 323.503 -1.61589 -1.10219 0
M  V30 3339 C 323.883 -0.436316 -2.06542 0
M  V30 3340 O 323.231 0.571543 -2.21237 0
M  V30 3341 C 323.441 -2.97602 -1.82301 0
M  V30 3342 C 324.789 -3.5291 -2.36093 0
M  V30 3343 O 325.813 -2.99768 -1.924 0
M  V30 3344 O 324.672 -4.45859 -3.16026 0
M  V30 3345 H 321.766 -0.653522 -0.506792 0
M  V30 3346 H 324.312 -1.66126 -0.346465 0
M  V30 3347 H 323.084 -3.74893 -1.12121 0
M  V30 3348 H 322.707 -2.9665 -2.64735 0
M  V30 3349 N 323.704 0.605807 -1.45491 0
M  V30 3350 C 324.667 1.69836 -1.5391 0
M  V30 3351 C 325.667 1.55261 -0.418424 0
M  V30 3352 O 326.857 1.60296 -0.681965 0
M  V30 3353 C 323.989 3.09117 -1.43734 0
M  V30 3354 H 325.182 1.63738 -2.51257 0
M  V30 3355 H 322.735 0.821689 -1.32959 0
M  V30 3356 H 323.47 3.20791 -0.475788 0
M  V30 3357 H 323.255 3.21104 -2.25021 0
M  V30 3358 H 324.745 3.88696 -1.52661 0
M  V30 3359 N 325.182 1.32811 0.848464 0
M  V30 3360 C 326.112 1.24882 1.97299 0
M  V30 3361 C 327.093 0.131357 1.69592 0
M  V30 3362 O 328.278 0.319553 1.91553 0
M  V30 3363 C 325.408 0.97746 3.33261 0
M  V30 3364 C 324.362 2.05682 3.75338 0
M  V30 3365 C 323.688 1.63777 5.09 0
M  V30 3366 C 324.988 3.47254 3.90144 0
M  V30 3367 H 326.682 2.18966 2.04191 0
M  V30 3368 H 324.228 1.05413 0.981029 0
M  V30 3369 H 326.181 0.908513 4.1149 0
M  V30 3370 H 324.905 0.000980011 3.266 0
M  V30 3371 H 323.564 2.11603 2.99366 0
M  V30 3372 H 323.212 0.648569 4.98801 0
M  V30 3373 H 322.912 2.36 5.38124 0
M  V30 3374 H 324.436 1.5833 5.89715 0
M  V30 3375 H 325.85 3.43888 4.58709 0
M  V30 3376 H 324.247 4.1788 4.30693 0
M  V30 3377 H 325.317 3.86462 2.92874 0
M  V30 3378 N 326.66 -1.06551 1.16123 0
M  V30 3379 C 328.076 -1.3142 0.905585 0
M  V30 3380 C 328.276 -1.96571 -0.442964 0
M  V30 3381 O 327.332 -2.23068 -1.18308 0
M  V30 3382 C 328.645 -2.19741 2.05267 0
M  V30 3383 C 330.193 -2.33165 2.08813 0
M  V30 3384 C 330.668 -3.24838 3.22868 0
M  V30 3385 N 332.159 -3.32421 3.22568 0
M  V30 3386 C 332.894 -4.0344 4.0746 0
M  V30 3387 N 332.39 -4.77003 5.02434 0
M  V30 3388 N 334.183 -3.99464 3.95456 0
M  V30 3389 H 326.334 -0.626548 2.02949 0
M  V30 3390 H 328.597 -0.338777 0.8854 0
M  V30 3391 H 328.303 -1.79142 3.02657 0
M  V30 3392 H 328.177 -3.20313 1.99198 0
M  V30 3393 H 330.564 -2.73013 1.12018 0
M  V30 3394 H 330.645 -1.3227 2.18948 0
M  V30 3395 H 330.289 -2.85708 4.19921 0
M  V30 3396 H 330.219 -4.25707 3.0997 0
M  V30 3397 H 332.71 -2.79994 2.53795 0
M  V30 3398 H 333.023 -5.28712 5.63634 0
M  V30 3399 H 331.368 -4.75992 5.06415 0
M  V30 3400 H 334.559 -3.4111 3.20564 0
M  V30 3401 H 334.732 -4.54544 4.61837 0
M  V30 3402 N 328.138 -0.959301 -1.25041 0
M  V30 3403 C 329.387 -0.612254 -1.92183 0
M  V30 3404 C 329.7 0.855347 -1.75907 0
M  V30 3405 O 330.906 1.31256 -2.37664 0
M  V30 3406 C 329.362 -1.04435 -3.44414 0
M  V30 3407 C 328.97 -2.53482 -3.69393 0
M  V30 3408 C 330.714 -0.770055 -4.17457 0
M  V30 3409 C 328.621 -2.90468 -5.15153 0
M  V30 3410 H 327.551 -0.225279 -0.719559 0
M  V30 3411 H 330.202 -1.16438 -1.41825 0
M  V30 3412 H 328.584 -0.4206 -3.9376 0
M  V30 3413 H 329.758 -3.20916 -3.30681 0
M  V30 3414 H 328.073 -2.78432 -3.0962 0
M  V30 3415 H 330.67 -1.02249 -5.24832 0
M  V30 3416 H 331.013 0.293611 -4.15263 0
M  V30 3417 H 331.546 -1.35437 -3.74034 0
M  V30 3418 H 328.285 -3.95871 -5.22462 0
M  V30 3419 H 327.805 -2.27711 -5.54894 0
M  V30 3420 H 329.484 -2.79914 -5.83315 0
M  V30 3421 N 329.616 1.39756 -0.72842 0
M  V30 3422 C 330.856 2.025 -0.278078 0
M  V30 3423 C 331.22 1.5654 1.11173 0
M  V30 3424 O 332.421 2.11435 1.65978 0
M  V30 3425 C 330.692 3.55489 -0.369139 0
M  V30 3426 S 332.251 4.388 0.00232983 0
M  V30 3427 H 329.069 0.702534 -0.109391 0
M  V30 3428 H 331.671 1.70672 -0.95348 0
M  V30 3429 H 330.375 3.86429 -1.38204 0
M  V30 3430 H 329.906 3.92061 0.324308 0
M  V30 3431 H 331.921 4.80954 1.22055 0
M  V30 3432 N 331.094 0.475555 1.50254 0
M  V30 3433 C 332.343 -0.0795996 2.01543 0
M  V30 3434 C 332.656 -1.4038 1.36209 0
M  V30 3435 O 333.862 -2.04415 1.7868 0
M  V30 3436 C 332.318 -0.192363 3.59386 0
M  V30 3437 C 331.926 1.12367 4.33679 0
M  V30 3438 C 333.67 -0.699238 4.18701 0
M  V30 3439 C 331.577 0.974453 5.83317 0
M  V30 3440 H 330.507 -0.0335228 0.753254 0
M  V30 3441 H 333.158 0.611128 1.73025 0
M  V30 3442 H 331.54 -0.946974 3.84511 0
M  V30 3443 H 332.714 1.88958 4.20276 0
M  V30 3444 H 331.029 1.562 3.85993 0
M  V30 3445 H 333.626 -0.827978 5.28251 0
M  V30 3446 H 333.969 -1.69171 3.80377 0
M  V30 3447 H 334.502 -0.00188807 3.978 0
M  V30 3448 H 331.241 1.94042 6.26121 0
M  V30 3449 H 330.761 0.248998 5.99283 0
M  V30 3450 H 332.44 0.642867 6.43798 0
M  V30 3451 N 332.573 -1.56217 0.208337 0
M  V30 3452 C 333.819 -1.98242 -0.427552 0
M  V30 3453 C 334.152 -1.09554 -1.60348 0
M  V30 3454 O 333.427 -0.15035 -1.93918 0
M  V30 3455 C 333.71 -3.4931 -0.874907 0
M  V30 3456 C 333.563 -4.48773 0.303751 0
M  V30 3457 C 334.882 -4.04424 -1.73577 0
M  V30 3458 H 332.001 -0.720744 -0.153936 0
M  V30 3459 H 334.643 -1.87586 0.30192 0
M  V30 3460 H 332.793 -3.58522 -1.49648 0
M  V30 3461 H 334.465 -4.51586 0.941682 0
M  V30 3462 H 332.708 -4.23194 0.953375 0
M  V30 3463 H 333.379 -5.51976 -0.0519883 0
M  V30 3464 H 335.855 -3.98075 -1.21143 0
M  V30 3465 H 334.731 -5.1047 -2.01771 0
M  V30 3466 H 334.992 -3.50494 -2.69456 0
M  V30 3467 N 334.051 0.0651679 -1.57465 0
M  V30 3468 C 335.279 0.775808 -1.91804 0
M  V30 3469 C 335.694 1.70782 -0.804916 0
M  V30 3470 O 335.051 1.81153 0.221311 0
M  V30 3471 C 335.102 1.56381 -3.25925 0
M  V30 3472 O 334.823 0.669248 -4.32958 0
M  V30 3473 C 336.324 2.37485 -3.7432 0
M  V30 3474 H 333.544 0.2202 -0.63384 0
M  V30 3475 H 336.088 0.0334587 -2.04473 0
M  V30 3476 H 334.243 2.25837 -3.14764 0
M  V30 3477 H 334.657 1.21801 -5.10162 0
M  V30 3478 H 336.131 2.88223 -4.70778 0
M  V30 3479 H 336.608 3.17307 -3.03666 0
M  V30 3480 H 337.214 1.73173 -3.88447 0
M  V30 3481 N 335.529 1.53961 0.336706 0
M  V30 3482 C 336.476 1.82428 1.41381 0
M  V30 3483 C 337.446 0.670444 1.51968 0
M  V30 3484 O 338.631 0.915565 1.67398 0
M  V30 3485 C 335.771 2.04564 2.77934 0
M  V30 3486 C 334.884 3.32267 2.76084 0
M  V30 3487 C 334.019 3.44434 4.04399 0
M  V30 3488 C 333.058 4.66061 3.96804 0
M  V30 3489 N 332.195 4.75224 5.16823 0
M  V30 3490 H 337.035 2.74324 1.16405 0
M  V30 3491 H 334.572 1.35869 0.563752 0
M  V30 3492 H 336.53 2.15388 3.57301 0
M  V30 3493 H 335.16 1.15974 3.01247 0
M  V30 3494 H 334.212 3.3025 1.88784 0
M  V30 3495 H 335.524 4.21733 2.66351 0
M  V30 3496 H 334.678 3.54728 4.92192 0
M  V30 3497 H 333.417 2.53037 4.16921 0
M  V30 3498 H 332.422 4.55838 3.07396 0
M  V30 3499 H 333.647 5.58829 3.85858 0
M  V30 3500 H 331.593 3.86739 5.29876 0
M  V30 3501 H 331.51 5.58636 5.09374 0
M  V30 3502 H 332.778 4.89835 6.06367 0
M  V30 3503 N 337.007 -0.598083 1.45811 0
M  V30 3504 C 337.917 -1.73632 1.57763 0
M  V30 3505 C 338.933 -1.67763 0.461676 0
M  V30 3506 O 340.109 -1.87949 0.723685 0
M  V30 3507 C 337.174 -3.10114 1.55018 0
M  V30 3508 C 336.235 -3.27364 2.77726 0
M  V30 3509 C 335.468 -4.57334 2.75102 0
M  V30 3510 O 335.691 -5.40258 1.8297 0
M  V30 3511 O 334.625 -4.77502 3.66437 0
M  V30 3512 H 338.451 -1.66498 2.53992 0
M  V30 3513 H 336.036 -0.763308 1.28429 0
M  V30 3514 H 337.918 -3.9141 1.56129 0
M  V30 3515 H 336.593 -3.17718 0.619431 0
M  V30 3516 H 335.5 -2.45619 2.82174 0
M  V30 3517 H 336.833 -3.24641 3.69958 0
M  V30 3518 N 338.485 -1.33259 -0.841409 0
M  V30 3519 C 339.733 -1.24326 -1.59334 0
M  V30 3520 C 340.054 0.191564 -1.94057 0
M  V30 3521 O 339.324 1.11967 -1.60749 0
M  V30 3522 H 337.904 -0.457174 -0.590763 0
M  V30 3523 H 340.566 -1.66947 -1.00571 0
M  V30 3524 H 339.662 -1.8352 -2.52442 0
M  V30 3525 N 339.963 1.05934 -1.16686 0
M  V30 3526 C 341.212 1.78188 -0.945085 0
M  V30 3527 C 341.525 1.88338 0.528021 0
M  V30 3528 O 342.731 2.57258 0.867799 0
M  V30 3529 C 341.187 3.20277 -1.64167 0
M  V30 3530 C 340.795 3.18281 -3.15279 0
M  V30 3531 C 342.539 3.97039 -1.502 0
M  V30 3532 C 340.446 4.55112 -3.7766 0
M  V30 3533 H 339.376 0.667866 -0.349959 0
M  V30 3534 H 342.027 1.18794 -1.39858 0
M  V30 3535 H 340.409 3.79952 -1.11589 0
M  V30 3536 H 341.583 2.68167 -3.74731 0
M  V30 3537 H 339.898 2.55018 -3.29173 0
M  V30 3538 H 342.495 4.98194 -1.94183 0
M  V30 3539 H 342.838 4.13845 -0.451461 0
M  V30 3540 H 343.371 3.43894 -1.99954 0
M  V30 3541 H 340.11 4.43512 -4.82677 0
M  V30 3542 H 339.63 5.05406 -3.22994 0
M  V30 3543 H 341.309 5.24064 -3.79428 0
M  V30 3544 N 341.441 0.965919 1.2453 0
M  V30 3545 C 342.857 0.67216 1.44756 0
M  V30 3546 C 343.057 -0.766609 1.86347 0
M  V30 3547 O 342.113 -1.5407 2.00047 0
M  V30 3548 C 343.426 1.65473 2.51076 0
M  V30 3549 C 344.974 1.66716 2.64905 0
M  V30 3550 C 345.449 2.63766 3.74421 0
M  V30 3551 N 346.94 2.62198 3.81846 0
M  V30 3552 C 347.675 3.33966 4.66106 0
M  V30 3553 N 347.171 4.15245 5.54566 0
M  V30 3554 N 348.964 3.22799 4.60171 0
M  V30 3555 H 341.115 1.89553 0.958293 0
M  V30 3556 H 343.378 0.815979 0.482579 0
M  V30 3557 H 343.084 2.68296 2.27399 0
M  V30 3558 H 342.958 1.4261 3.49202 0
M  V30 3559 H 345.345 0.646057 2.87941 0
M  V30 3560 H 345.426 1.93642 1.67142 0
M  V30 3561 H 345.07 3.6601 3.52135 0
M  V30 3562 H 345 2.34121 4.71694 0
M  V30 3563 H 347.491 2.032 3.18619 0
M  V30 3564 H 347.804 4.66898 6.15814 0
M  V30 3565 H 346.149 4.1934 5.54237 0
M  V30 3566 H 349.34 2.58764 3.90075 0
M  V30 3567 H 349.513 3.78994 5.25612 0
M  V30 3568 N 342.919 -1.39368 0.735821 0
M  V30 3569 C 343.829 -2.34395 0.0979693 0
M  V30 3570 C 344.845 -1.58361 -0.720968 0
M  V30 3571 O 346.021 -1.90648 -0.649245 0
M  V30 3572 C 343.086 -3.37393 -0.797916 0
M  V30 3573 C 342.147 -4.29287 0.0333662 0
M  V30 3574 C 341.38 -5.27365 -0.819854 0
M  V30 3575 O 341.603 -5.31959 -2.05855 0
M  V30 3576 O 340.537 -6.01389 -0.248079 0
M  V30 3577 H 344.363 -2.90601 0.882315 0
M  V30 3578 H 341.948 -1.40909 0.4965 0
M  V30 3579 H 343.83 -4.00505 -1.31048 0
M  V30 3580 H 342.505 -2.83571 -1.56106 0
M  V30 3581 H 341.412 -3.69395 0.591475 0
M  V30 3582 H 342.745 -4.86317 0.758752 0
M  V30 3583 N 344.397 -0.483516 -1.5 0
M  V30 3584 C 345.307 0.309172 -2.32554 0
M  V30 3585 C 346.323 0.984159 -1.43493 0
M  V30 3586 O 347.499 0.969399 -1.76535 0
M  V30 3587 C 344.564 1.36979 -3.18493 0
M  V30 3588 C 343.625 0.710095 -4.23387 0
M  V30 3589 C 342.858 1.72018 -5.05218 0
M  V30 3590 O 343.081 2.94813 -4.88305 0
M  V30 3591 O 342.015 1.28515 -5.8802 0
M  V30 3592 H 345.841 -0.366064 -3.01486 0
M  V30 3593 H 343.426 -0.24514 -1.47375 0
M  V30 3594 H 345.308 1.98385 -3.71781 0
M  V30 3595 H 343.983 2.02828 -2.52275 0
M  V30 3596 H 342.89 0.0567539 -3.74057 0
M  V30 3597 H 344.223 0.0943557 -4.9211 0
M  V30 3598 N 345.875 1.56104 -0.216619 0
M  V30 3599 C 347.103 2.02563 0.421413 0
M  V30 3600 C 347.518 1.0965 1.53695 0
M  V30 3601 O 346.875 0.10521 1.82196 0
M  V30 3602 C 346.926 3.48584 0.957665 0
M  V30 3603 O 346.647 4.37953 -0.113389 0
M  V30 3604 C 348.148 4.10664 1.66943 0
M  V30 3605 H 345.368 0.662944 0.103665 0
M  V30 3606 H 347.912 2.01793 -0.331629 0
M  V30 3607 H 346.067 3.49985 1.661 0
M  V30 3608 H 346.481 5.23704 0.288932 0
M  V30 3609 H 347.955 5.14622 1.99671 0
M  V30 3610 H 348.432 3.55373 2.58083 0
M  V30 3611 H 349.038 4.13098 1.01142 0
M  V30 3612 N 347.353 -0.0568162 1.57498 0
M  V30 3613 C 348.599 -0.75422 1.88253 0
M  V30 3614 C 348.932 -1.76461 0.810865 0
M  V30 3615 O 348.207 -1.93691 -0.177259 0
M  V30 3616 C 348.49 -1.44878 3.2967 0
M  V30 3617 C 348.343 -0.453789 4.47505 0
M  V30 3618 C 349.662 -2.38994 3.69554 0
M  V30 3619 H 346.781 -0.272724 0.684683 0
M  V30 3620 H 349.423 -0.0172113 1.89992 0
M  V30 3621 H 347.573 -2.077 3.28318 0
M  V30 3622 H 349.245 0.170371 4.60985 0
M  V30 3623 H 347.488 0.229552 4.33192 0
M  V30 3624 H 348.159 -0.977699 5.43273 0
M  V30 3625 H 350.635 -1.86239 3.72095 0
M  V30 3626 H 349.511 -2.84587 4.69363 0
M  V30 3627 H 349.772 -3.24461 3.00296 0
M  V30 3628 N 348.832 -1.54138 -0.328536 0
M  V30 3629 C 350.057 -1.76378 -1.09112 0
M  V30 3630 C 350.482 -0.508596 -1.81094 0
M  V30 3631 O 349.84 0.539598 -1.73084 0
M  V30 3632 C 349.888 -2.95358 -2.06872 0
M  V30 3633 O 348.992 -2.66556 -3.14677 0
M  V30 3634 H 348.333 -0.584614 -0.314838 0
M  V30 3635 H 350.863 -2.01146 -0.374348 0
M  V30 3636 H 350.873 -3.22566 -2.4983 0
M  V30 3637 H 349.548 -3.86385 -1.5388 0
M  V30 3638 H 348.125 -2.50282 -2.7643 0
M  V30 3639 N 350.31 0.590341 -1.46126 0
M  V30 3640 C 351.24 1.71032 -1.58966 0
M  V30 3641 C 352.221 1.64302 -0.440335 0
M  V30 3642 O 353.406 1.82436 -0.665634 0
M  V30 3643 C 350.536 3.09665 -1.57241 0
M  V30 3644 C 349.49 3.31221 -2.71066 0
M  V30 3645 C 348.816 4.70303 -2.54399 0
M  V30 3646 C 350.116 3.19796 -4.1295 0
M  V30 3647 H 351.81 1.60543 -2.52718 0
M  V30 3648 H 349.356 0.770933 -1.21625 0
M  V30 3649 H 351.309 3.87831 -1.64819 0
M  V30 3650 H 350.033 3.21036 -0.600289 0
M  V30 3651 H 348.692 2.55452 -2.62944 0
M  V30 3652 H 348.34 4.78429 -1.55288 0
M  V30 3653 H 348.04 4.85679 -3.30741 0
M  V30 3654 H 349.564 5.50647 -2.63857 0
M  V30 3655 H 350.978 3.87815 -4.22223 0
M  V30 3656 H 349.375 3.46696 -4.89818 0
M  V30 3657 H 350.445 2.16983 -4.33643 0
M  V30 3658 N 351.788 1.33704 0.83433 0
M  V30 3659 C 353.204 1.13137 1.12571 0
M  V30 3660 C 353.404 -0.0747261 2.01361 0
M  V30 3661 O 352.46 -0.753647 2.4099 0
M  V30 3662 C 353.773 2.42105 1.78342 0
M  V30 3663 C 355.321 2.48054 1.90888 0
M  V30 3664 C 355.796 3.76995 2.60075 0
M  V30 3665 N 357.287 3.78092 2.67584 0
M  V30 3666 C 358.022 4.74574 3.21818 0
M  V30 3667 N 357.518 5.81434 3.76705 0
M  V30 3668 N 359.311 4.62044 3.20112 0
M  V30 3669 H 351.462 2.11 0.243489 0
M  V30 3670 H 353.725 0.932532 0.17055 0
M  V30 3671 H 353.431 3.30391 1.20561 0
M  V30 3672 H 353.305 2.54594 2.7832 0
M  V30 3673 H 355.692 1.60215 2.47821 0
M  V30 3674 H 355.773 2.39502 0.898459 0
M  V30 3675 H 355.417 4.65219 2.03799 0
M  V30 3676 H 355.347 3.82825 3.61597 0
M  V30 3677 H 357.838 3.00865 2.28667 0
M  V30 3678 H 358.151 6.51084 4.16305 0
M  V30 3679 H 356.496 5.85163 3.7498 0
M  V30 3680 H 359.687 3.77716 2.76493 0
M  V30 3681 H 359.86 5.37406 3.62076 0
M  V30 3682 N 353.266 -1.05314 1.17247 0
M  V30 3683 C 354.213 -2.13031 0.888058 0
M  V30 3684 C 355.183 -1.65253 -0.167537 0
M  V30 3685 O 356.368 -1.90775 -0.0305974 0
M  V30 3686 C 353.508 -3.42702 0.406147 0
M  V30 3687 C 352.621 -4.04161 1.52572 0
M  V30 3688 C 351.756 -5.21744 0.997808 0
M  V30 3689 C 350.795 -5.75207 2.09291 0
M  V30 3690 N 349.932 -6.84094 1.57986 0
M  V30 3691 H 354.772 -2.36698 1.81048 0
M  V30 3692 H 352.309 -1.16121 0.903013 0
M  V30 3693 H 354.267 -4.17059 0.108305 0
M  V30 3694 H 352.897 -3.19222 -0.479313 0
M  V30 3695 H 351.949 -3.27253 1.93931 0
M  V30 3696 H 353.261 -4.39881 2.35172 0
M  V30 3697 H 352.415 -6.03168 0.653739 0
M  V30 3698 H 351.154 -4.87495 0.141232 0
M  V30 3699 H 350.159 -4.92414 2.44557 0
M  V30 3700 H 351.384 -6.11505 2.95362 0
M  V30 3701 H 349.33 -6.51745 0.74598 0
M  V30 3702 H 349.247 -7.18811 2.34195 0
M  V30 3703 H 350.515 -7.69172 1.26468 0
M  V30 3704 N 354.744 -0.972509 -1.24016 0
M  V30 3705 C 356.021 -0.553733 -1.87598 0
M  V30 3706 C 356.401 0.969158 -1.87538 0
M  V30 3707 O 355.749 1.84255 -1.35139 0
M  V30 3708 C 355.959 -1.15076 -3.29482 0
M  V30 3709 C 357.307 -1.23862 -4.06132 0
M  V30 3710 O 358.331 -1.10363 -3.38672 0
M  V30 3711 O 357.19 -1.45252 -5.26844 0
M  V30 3712 H 354.284 -0.185331 -0.805966 0
M  V30 3713 H 356.83 -1.06709 -1.31952 0
M  V30 3714 H 355.602 -2.19333 -3.2405 0
M  V30 3715 H 355.225 -0.621746 -3.92709 0
M  V30 3716 O 356.261 1.3537 -0.880752 0
M  V30 3717 H 356.952 1.87543 -0.484504 0
M  V30 END ATOM
M  V30 BEGIN BOND
M  V30 END BOND
M  V30 END CTAB
M  END
$$$$
