drugbank_target|P48507 Glutamate--cysteine ligase regulatory subunit (DB00142; DB00151)
 OpenBabel12092119353D

  0  0  0     0  0            999 V3000
M  V30 BEGIN CTAB
M  V30 COUNTS 4328 4368 0 0 0
M  V30 BEGIN ATOM
M  V30 1 H -0.908 1.98254 -0.117106 0
M  V30 2 N 0 1.576 0 0
M  V30 3 C 0.933 2.03868 1.02534 0
M  V30 4 C 1.911 0.928543 1.3348 0
M  V30 5 O 3.095 1.19667 1.45644 0
M  V30 6 C 0.222 2.43627 2.35294 0
M  V30 7 C -0.732 3.65373 2.2001 0
M  V30 8 S 0.101 5.13292 1.52614 0
M  V30 9 C 1.257 5.56322 2.86805 0
M  V30 10 H 1.49 2.90518 0.631377 0
M  V30 11 H -0.977 1.52953 0.210867 0
M  V30 12 H 0.981 2.67203 3.11629 0
M  V30 13 H -0.358 1.57376 2.7183 0
M  V30 14 H -1.165 3.90944 3.18086 0
M  V30 15 H -1.563 3.418 1.51819 0
M  V30 16 H 0.729 5.58782 3.83104 0
M  V30 17 H 1.672 6.56266 2.65933 0
M  V30 18 H 2.08 4.83886 2.90714 0
M  V30 19 N 1.4781 -0.272755 1.55222 0
M  V30 20 C 2.7261 -1.00234 1.75492 0
M  V30 21 C 3.0471 -1.8681 0.5592 0
M  V30 22 O 2.3171 -1.91215 -0.425882 0
M  V30 23 H 0.8971 -0.373076 0.647166 0
M  V30 24 H 3.5591 -0.296926 1.92625 0
M  V30 25 H 2.6551 -1.63913 2.65592 0
M  V30 26 N 2.9562 -1.48159 -0.537278 0
M  V30 27 C 4.1842 -1.59454 -1.31841 0
M  V30 28 C 4.5992 -0.252065 -1.8711 0
M  V30 29 O 3.9562 0.757621 -1.66031 0
M  V30 30 C 4.0072 -2.63546 -2.47439 0
M  V30 31 O 3.7282 -3.92583 -1.94449 0
M  V30 32 C 5.2292 -2.85212 -3.39366 0
M  V30 33 H 2.4492 -0.53785 -0.401196 0
M  V30 34 H 4.9932 -1.93932 -0.648891 0
M  V30 35 H 3.1482 -2.31946 -3.1029 0
M  V30 36 H 3.5622 -4.49629 -2.70063 0
M  V30 37 H 5.0362 -3.61863 -4.16844 0
M  V30 38 H 5.5132 -1.93765 -3.94147 0
M  V30 39 H 6.1192 -3.18086 -2.82314 0
M  V30 40 N 4.4343 0.785586 -1.36625 0
M  V30 41 C 5.7113 1.53198 -1.21613 0
M  V30 42 C 6.0913 2.10187 0.196113 0
M  V30 43 O 5.4393 1.94318 1.20219 0
M  V30 44 C 5.6493 2.62388 -2.30116 0
M  V30 45 C 6.9973 3.30167 -2.66974 0
M  V30 46 O 8.0213 2.72674 -2.29188 0
M  V30 47 O 6.8803 4.34077 -3.32023 0
M  V30 48 H 3.9743 0.677865 -0.473738 0
M  V30 49 H 6.5203 0.823739 -1.48367 0
M  V30 50 H 5.2923 2.18299 -3.24748 0
M  V30 51 H 4.9153 3.40827 -2.0475 0
M  V30 52 N 5.9124 1.20967 1.01018 0
M  V30 53 C 7.1374 1.0503 1.78839 0
M  V30 54 C 7.5624 -0.395752 1.8389 0
M  V30 55 O 6.9204 -1.28529 1.27867 0
M  V30 56 C 6.9684 1.64602 3.2084 0
M  V30 57 O 6.0724 0.887988 4.02726 0
M  V30 58 H 5.4134 0.369987 0.551367 0
M  V30 59 H 7.9434 1.60399 1.27018 0
M  V30 60 H 7.9534 1.68607 3.71532 0
M  V30 61 H 6.6284 2.69841 3.16479 0
M  V30 62 H 5.2054 0.922648 3.61305 0
M  V30 63 N 7.3905 -1.2043 1.01659 0
M  V30 64 C 8.8065 -1.41852 0.731442 0
M  V30 65 C 9.0065 -1.89358 -0.688898 0
M  V30 66 O 8.0625 -2.06247 -1.45666 0
M  V30 67 C 9.3755 -2.44019 1.75714 0
M  V30 68 C 10.9235 -2.57785 1.77527 0
M  V30 69 C 11.3985 -3.63194 2.79023 0
M  V30 70 N 12.8895 -3.70678 2.77763 0
M  V30 71 C 13.6245 -4.51897 3.52954 0
M  V30 72 N 13.1205 -5.36921 4.37821 0
M  V30 73 N 14.9135 -4.4643 3.41551 0
M  V30 74 H 7.0645 -0.879093 1.93354 0
M  V30 75 H 9.3275 -0.448425 0.835236 0
M  V30 76 H 9.0335 -2.1611 2.77469 0
M  V30 77 H 8.9075 -3.43007 1.56927 0
M  V30 78 H 11.2945 -2.85023 0.764569 0
M  V30 79 H 11.3755 -1.58992 2.00387 0
M  V30 80 H 11.0195 -3.36699 3.80258 0
M  V30 81 H 10.9495 -4.61609 2.53425 0
M  V30 82 H 13.4405 -3.09944 2.16201 0
M  V30 83 H 13.7535 -5.95981 4.91962 0
M  V30 84 H 12.0985 -5.36424 4.41899 0
M  V30 85 H 15.2895 -3.79042 2.74672 0
M  V30 86 H 15.4625 -5.09491 4.00404 0
M  V30 87 N 8.8686 -0.792821 -1.36206 0
M  V30 88 C 9.8316 -0.199459 -2.2833 0
M  V30 89 C 10.8316 0.605189 -1.48977 0
M  V30 90 O 12.0216 0.425685 -1.68919 0
M  V30 91 C 9.1536 0.723523 -3.33134 0
M  V30 92 H 10.3466 -1.01181 -2.82316 0
M  V30 93 H 7.8996 -0.562485 -1.45828 0
M  V30 94 H 8.6346 1.56008 -2.84309 0
M  V30 95 H 8.4196 0.148436 -3.91819 0
M  V30 96 H 9.9096 1.13344 -4.01924 0
M  V30 97 N 10.3467 1.47872 -0.545128 0
M  V30 98 C 11.3097 2.28337 0.198717 0
M  V30 99 C 12.3097 1.36255 0.853888 0
M  V30 100 O 13.4997 1.59003 0.711606 0
M  V30 101 C 10.6317 3.15585 1.28915 0
M  V30 102 H 11.8247 2.95567 -0.507941 0
M  V30 103 H 9.3777 1.53362 -0.301616 0
M  V30 104 H 10.1127 2.53019 2.02859 0
M  V30 105 H 9.8977 3.83337 0.824309 0
M  V30 106 H 11.3877 3.76243 1.81194 0
M  V30 107 N 11.8248 0.280983 1.55075 0
M  V30 108 C 12.7718 -0.603937 2.22758 0
M  V30 109 C 13.7418 -1.1452 1.20309 0
M  V30 110 O 14.9268 -1.19343 1.48869 0
M  V30 111 C 12.0668 -1.77947 2.95684 0
M  V30 112 C 11.1798 -1.2715 4.12864 0
M  V30 113 C 10.3148 -2.4093 4.7342 0
M  V30 114 C 9.3538 -1.87165 5.82783 0
M  V30 115 N 8.4908 -2.94441 6.37377 0
M  V30 116 H 13.3308 -0.020124 2.97993 0
M  V30 117 H 10.8678 0.00183425 1.471 0
M  V30 118 H 12.8258 -2.47055 3.36184 0
M  V30 119 H 11.4558 -2.33522 2.22861 0
M  V30 120 H 10.5078 -0.473331 3.77444 0
M  V30 121 H 11.8198 -0.837751 4.91715 0
M  V30 122 H 10.9738 -3.18021 5.1667 0
M  V30 123 H 9.7128 -2.87623 3.93859 0
M  V30 124 H 8.7178 -1.08556 5.38976 0
M  V30 125 H 9.9428 -1.41401 6.64216 0
M  V30 126 H 7.8888 -3.40505 5.60707 0
M  V30 127 H 7.8058 -2.55501 7.11516 0
M  V30 128 H 9.0738 -3.71489 6.85285 0
M  V30 129 N 13.3029 -1.57598 0.00835791 0
M  V30 130 C 14.2659 -2.07884 -0.965242 0
M  V30 131 C 15.2659 -0.989825 -1.26725 0
M  V30 132 O 16.4559 -1.25218 -1.21104 0
M  V30 133 C 13.5879 -2.52731 -2.28779 0
M  V30 134 H 14.7809 -2.95178 -0.530112 0
M  V30 135 H 12.3339 -1.54458 -0.239283 0
M  V30 136 H 13.0689 -1.68705 -2.76964 0
M  V30 137 H 12.8539 -3.32272 -2.08177 0
M  V30 138 H 14.3439 -2.91933 -2.98605 0
M  V30 139 N 14.781 0.264519 -1.55364 0
M  V30 140 C 15.711 1.33121 -1.91836 0
M  V30 141 C 16.692 1.51101 -0.781192 0
M  V30 142 O 17.877 1.64003 -1.04003 0
M  V30 143 C 15.007 2.68921 -2.19769 0
M  V30 144 C 13.961 2.65661 -3.35571 0
M  V30 145 C 13.287 4.05093 -3.49004 0
M  V30 146 C 14.587 2.24187 -4.71739 0
M  V30 147 H 16.281 1.02844 -2.81182 0
M  V30 148 H 13.827 0.493286 -1.35287 0
M  V30 149 H 15.78 3.43663 -2.43872 0
M  V30 150 H 14.504 3.00799 -1.27231 0
M  V30 151 H 13.163 1.93377 -3.1145 0
M  V30 152 H 12.811 4.34206 -2.53917 0
M  V30 153 H 12.511 4.03804 -4.26868 0
M  V30 154 H 14.035 4.81561 -3.75408 0
M  V30 155 H 15.449 2.88654 -4.9533 0
M  V30 156 H 13.846 2.34044 -5.52579 0
M  V30 157 H 14.916 1.19327 -4.69988 0
M  V30 158 N 16.2591 1.48442 0.529413 0
M  V30 159 C 17.1891 1.65902 1.64313 0
M  V30 160 C 18.1701 0.507897 1.6234 0
M  V30 161 O 19.3551 0.740503 1.79528 0
M  V30 162 C 16.4851 1.69911 3.02898 0
M  V30 163 C 15.4391 2.8453 3.19729 0
M  V30 164 C 14.7651 2.73629 4.59381 0
M  V30 165 C 16.0651 4.25821 3.02447 0
M  V30 166 H 17.7591 2.5914 1.49955 0
M  V30 167 H 15.3051 1.24709 0.719982 0
M  V30 168 H 17.2581 1.80715 3.80684 0
M  V30 169 H 15.9821 0.732524 3.18279 0
M  V30 170 H 14.6411 2.73283 2.44361 0
M  V30 171 H 14.2891 1.74938 4.71599 0
M  V30 172 H 13.9891 3.50541 4.71588 0
M  V30 173 H 15.5131 2.86401 5.39265 0
M  V30 174 H 16.9271 4.37898 3.70024 0
M  V30 175 H 15.3241 5.03735 3.26146 0
M  V30 176 H 16.3941 4.42244 1.98867 0
M  V30 177 N 17.7372 -0.778329 1.37039 0
M  V30 178 C 18.7002 -1.87301 1.32102 0
M  V30 179 C 19.7002 -1.59198 0.226405 0
M  V30 180 O 20.8902 -1.67403 0.481861 0
M  V30 181 C 18.0222 -3.24309 1.05055 0
M  V30 182 H 19.2152 -1.93093 2.29467 0
M  V30 183 H 16.7682 -0.977358 1.21973 0
M  V30 184 H 17.5032 -3.24196 0.0819373 0
M  V30 185 H 17.2882 -3.46098 1.84279 0
M  V30 186 H 18.7782 -4.04382 1.04234 0
M  V30 187 N 19.2153 -1.21501 -1.00376 0
M  V30 188 C 20.6313 -0.972629 -1.26539 0
M  V30 189 C 20.8313 0.340257 -1.98606 0
M  V30 190 O 19.8873 1.06561 -2.28913 0
M  V30 191 C 21.2003 -2.16404 -2.08781 0
M  V30 192 C 22.7483 -2.20643 -2.22004 0
M  V30 193 C 23.2233 -3.39306 -3.07629 0
M  V30 194 N 24.7143 -3.39401 -3.15217 0
M  V30 195 C 25.4493 -4.27867 -3.81729 0
M  V30 196 N 24.9453 -5.26533 -4.5026 0
M  V30 197 N 26.7383 -4.15672 -3.78382 0
M  V30 198 H 18.8893 -2.05929 -0.520281 0
M  V30 199 H 21.1523 -0.901803 -0.292328 0
M  V30 200 H 20.8583 -3.11554 -1.63178 0
M  V30 201 H 20.7323 -2.15567 -3.09533 0
M  V30 202 H 23.1193 -1.26048 -2.66825 0
M  V30 203 H 23.2003 -2.25523 -1.20718 0
M  V30 204 H 22.8443 -4.34195 -2.63509 0
M  V30 205 H 22.7743 -3.31665 -4.09031 0
M  V30 206 H 25.2653 -2.67997 -2.66432 0
M  V30 207 H 25.5783 -5.90337 -4.98721 0
M  V30 208 H 23.9233 -5.30457 -4.49044 0
M  V30 209 H 27.1143 -3.3785 -3.23998 0
M  V30 210 H 27.2873 -4.84825 -4.2994 0
M  V30 211 N 20.6934 1.19889 -1.02296 0
M  V30 212 C 21.6564 2.21116 -0.603351 0
M  V30 213 C 22.6564 1.5738 0.329884 0
M  V30 214 O 23.8464 1.73802 0.117702 0
M  V30 215 C 20.9784 3.40696 0.117992 0
M  V30 216 H 22.1714 2.59754 -1.49893 0
M  V30 217 H 19.7244 1.33463 -0.813468 0
M  V30 218 H 20.4594 3.07569 1.0282 0
M  V30 219 H 20.2444 3.88188 -0.552511 0
M  V30 220 H 21.7344 4.15692 0.398696 0
M  V30 221 N 22.1715 0.800033 1.35784 0
M  V30 222 C 23.5875 0.482977 1.52117 0
M  V30 223 C 23.7875 -0.996948 1.75109 0
M  V30 224 O 22.8435 -1.78216 1.78872 0
M  V30 225 C 24.1565 1.32264 2.70049 0
M  V30 226 C 25.7045 1.31742 2.83924 0
M  V30 227 C 26.1795 2.14106 4.04874 0
M  V30 228 N 27.6705 2.11607 4.12039 0
M  V30 229 C 28.4055 2.72099 5.04727 0
M  V30 230 N 27.9015 3.41492 6.02789 0
M  V30 231 N 29.6945 2.61776 4.97423 0
M  V30 232 H 21.8455 1.75856 1.19115 0
M  V30 233 H 24.1085 0.748122 0.582252 0
M  V30 234 H 23.8145 2.37261 2.59616 0
M  V30 235 H 23.6885 0.971303 3.6448 0
M  V30 236 H 26.0755 0.275333 2.93813 0
M  V30 237 H 26.1565 1.70859 1.9037 0
M  V30 238 H 25.8005 3.18351 3.95746 0
M  V30 239 H 25.7305 1.72353 4.97596 0
M  V30 240 H 28.2215 1.61112 3.41835 0
M  V30 241 H 28.5345 3.84953 6.70098 0
M  V30 242 H 26.8795 3.45596 6.02983 0
M  V30 243 H 30.0705 2.07157 4.19766 0
M  V30 244 H 30.2435 3.0921 5.69468 0
M  V30 245 N 23.6496 -1.47581 0.552962 0
M  V30 246 C 24.8776 -2.06875 0.0320556 0
M  V30 247 C 25.2926 -1.40625 -1.25976 0
M  V30 248 O 24.6496 -0.501349 -1.75479 0
M  V30 249 C 24.7006 -3.61092 -0.17167 0
M  V30 250 O 24.4216 -4.24858 1.06899 0
M  V30 251 C 25.9226 -4.37242 -0.730344 0
M  V30 252 H 23.1426 -0.669561 0.043915 0
M  V30 253 H 25.6866 -1.89646 0.765163 0
M  V30 254 H 23.8416 -3.7785 -0.854894 0
M  V30 255 H 24.2556 -5.17334 0.864059 0
M  V30 256 H 25.7296 -5.45842 -0.822203 0
M  V30 257 H 26.2066 -4.03235 -1.74064 0
M  V30 258 H 26.8126 -4.25219 -0.0829543 0
M  V30 259 N 25.1277 -0.289203 -1.54924 0
M  V30 260 C 26.0577 0.58549 -2.2604 0
M  V30 261 C 27.0387 1.14753 -1.25562 0
M  V30 262 O 28.2237 1.17906 -1.54311 0
M  V30 263 C 25.3537 1.76305 -2.99222 0
M  V30 264 C 24.3077 1.33191 -4.06748 0
M  V30 265 C 23.6337 2.5937 -4.6758 0
M  V30 266 C 24.9337 0.471775 -5.20165 0
M  V30 267 H 26.6277 -0.00763532 -2.99399 0
M  V30 268 H 24.1737 -0.00511229 -1.43999 0
M  V30 269 H 26.1267 2.38097 -3.47689 0
M  V30 270 H 24.8507 2.38223 -2.23422 0
M  V30 271 H 23.5097 0.737121 -3.59113 0
M  V30 272 H 23.1577 3.19576 -3.88433 0
M  V30 273 H 22.8577 2.31228 -5.40192 0
M  V30 274 H 24.3817 3.21985 -5.18804 0
M  V30 275 H 25.7957 0.995056 -5.64599 0
M  V30 276 H 24.1927 0.284639 -5.99425 0
M  V30 277 H 25.2627 -0.506041 -4.82252 0
M  V30 278 N 26.6058 1.57591 -0.0167156 0
M  V30 279 C 27.5558 2.05953 0.978137 0
M  V30 280 C 28.5398 0.957532 1.29306 0
M  V30 281 O 29.7318 1.22119 1.28125 0
M  V30 282 C 26.8608 2.58006 2.26468 0
M  V30 283 C 25.9468 3.75113 1.97867 0
M  V30 284 N 26.3378 4.86187 1.39486 0
M  V30 285 C 24.6358 3.83363 2.27924 0
M  V30 286 C 25.3368 5.67502 1.27735 0
M  V30 287 N 24.3128 5.14023 1.76866 0
M  V30 288 H 28.1148 2.89236 0.521522 0
M  V30 289 H 25.6288 1.61301 0.188596 0
M  V30 290 H 27.6258 2.90937 2.98599 0
M  V30 291 H 26.2858 1.76148 2.72767 0
M  V30 292 H 27.2968 5.06695 1.07147 0
M  V30 293 H 23.9738 3.1239 2.76982 0
M  V30 294 H 25.3638 6.66791 0.826978 0
M  V30 295 N 28.0839 -0.256276 1.55502 0
M  V30 296 C 29.0139 -1.32102 1.92539 0
M  V30 297 C 29.9949 -1.50684 0.789194 0
M  V30 298 O 31.1799 -1.63449 1.04872 0
M  V30 299 C 28.3099 -2.67752 2.21192 0
M  V30 300 C 27.2639 -2.63878 3.36975 0
M  V30 301 C 26.5899 -4.03236 3.51147 0
M  V30 302 C 27.8899 -2.21682 4.72921 0
M  V30 303 H 29.5839 -1.01351 2.81724 0
M  V30 304 H 27.1299 -0.486105 1.35547 0
M  V30 305 H 29.0829 -3.42365 2.45691 0
M  V30 306 H 27.8069 -3.0012 1.28824 0
M  V30 307 H 26.4659 -1.91722 3.12471 0
M  V30 308 H 26.1139 -4.32854 2.56216 0
M  V30 309 H 25.8139 -4.01535 4.29003 0
M  V30 310 H 27.3379 -4.79563 3.77957 0
M  V30 311 H 28.7519 -2.86023 4.96854 0
M  V30 312 H 27.1489 -2.3111 5.53812 0
M  V30 313 H 28.2189 -1.16833 4.70615 0
M  V30 314 N 29.562 -1.4872 -0.521534 0
M  V30 315 C 30.494 -1.59968 -1.64143 0
M  V30 316 C 31.507 -0.483463 -1.55456 0
M  V30 317 O 32.696 -0.75467 -1.61762 0
M  V30 318 C 29.796 -1.52127 -3.02838 0
M  V30 319 C 28.969 -2.78932 -3.36921 0
M  V30 320 C 28.028 -2.64428 -4.54933 0
M  V30 321 O 27.054 -3.38331 -4.57735 0
M  V30 322 N 28.256 -1.74606 -5.53618 0
M  V30 323 H 31.021 -2.56548 -1.54929 0
M  V30 324 H 28.582 -1.45551 -0.708988 0
M  V30 325 H 30.574 -1.40106 -3.79674 0
M  V30 326 H 29.144 -0.634868 -3.06085 0
M  V30 327 H 28.364 -3.05455 -2.4918 0
M  V30 328 H 29.652 -3.63041 -3.56481 0
M  V30 329 H 29.05 -1.13782 -5.54139 0
M  V30 330 H 27.607 -1.6852 -6.29638 0
M  V30 331 N 31.0401 0.771051 -1.3745 0
M  V30 332 C 32.2681 1.56015 -1.35893 0
M  V30 333 C 32.6831 1.88718 0.0555523 0
M  V30 334 O 32.0401 1.51502 1.01752 0
M  V30 335 C 32.0911 2.87001 -2.19801 0
M  V30 336 O 31.8121 2.557 -3.55738 0
M  V30 337 C 33.3131 3.81228 -2.26231 0
M  V30 338 H 30.5331 0.483317 -0.465453 0
M  V30 339 H 33.0771 0.955611 -1.80799 0
M  V30 340 H 31.2321 3.43877 -1.78402 0
M  V30 341 H 31.6461 3.39584 -3.99729 0
M  V30 342 H 33.1201 4.70139 -2.89263 0
M  V30 343 H 33.5971 4.20409 -1.27093 0
M  V30 344 H 34.2031 3.30281 -2.67945 0
M  V30 345 N 32.5182 1.22032 0.997298 0
M  V30 346 C 33.7662 1.04016 1.73278 0
M  V30 347 C 34.0872 -0.426255 1.90284 0
M  V30 348 O 33.3572 -1.30694 1.45931 0
M  V30 349 H 31.9372 0.381897 0.642 0
M  V30 350 H 34.5992 1.5347 1.20137 0
M  V30 351 H 33.6952 1.51441 2.72896 0
M  V30 352 N 33.9963 -1.19345 1.0293 0
M  V30 353 C 34.9443 -2.24621 0.604001 0
M  V30 354 C 35.9383 -1.65452 -0.363587 0
M  V30 355 O 37.1443 -1.78497 -0.23212 0
M  V30 356 H 33.5193 -0.730858 0.177061 0
M  V30 357 H 35.4903 -2.5781 1.50255 0
M  V30 358 C 34.2393 -3.47688 -0.0289127 0
M  V30 359 H 33.5623 -3.93505 0.706651 0
M  V30 360 H 35.0023 -4.23011 -0.289432 0
M  V30 361 C 33.4613 -3.11817 -1.2756 0
M  V30 362 O 33.9913 -3.2451 -2.36762 0
M  V30 363 N 32.1973 -2.66246 -1.16453 0
M  V30 364 H 31.7443 -2.56118 -0.275914 0
M  V30 365 H 31.7023 -2.42617 -1.99961 0
M  V30 366 N 35.4744 -0.807222 -1.35358 0
M  V30 367 C 36.4044 -0.232509 -2.3234 0
M  V30 368 C 37.3854 0.642386 -1.57504 0
M  V30 369 O 38.5704 0.572526 -1.85569 0
M  V30 370 C 35.7004 0.619238 -3.41735 0
M  V30 371 C 34.6544 -0.157215 -4.27711 0
M  V30 372 C 33.9804 0.816273 -5.28433 0
M  V30 373 C 35.2804 -1.35656 -5.04376 0
M  V30 374 H 36.9744 -1.04276 -2.80654 0
M  V30 375 H 34.5204 -0.50288 -1.34934 0
M  V30 376 H 36.4734 1.03137 -4.08584 0
M  V30 377 H 35.1974 1.46239 -2.92031 0
M  V30 378 H 33.8564 -0.550525 -3.62443 0
M  V30 379 H 33.5044 1.65494 -4.74996 0
M  V30 380 H 33.2044 0.301067 -5.86828 0
M  V30 381 H 34.7284 1.22659 -5.98153 0
M  V30 382 H 36.1424 -1.01927 -5.64166 0
M  V30 383 H 34.5394 -1.8063 -5.7227 0
M  V30 384 H 35.6094 -2.14288 -4.34981 0
M  V30 385 N 36.9525 1.47285 -0.560781 0
M  V30 386 C 37.8825 2.32857 0.173105 0
M  V30 387 C 38.8635 1.44009 0.905281 0
M  V30 388 O 40.0485 1.7286 0.885046 0
M  V30 389 C 37.1785 3.25861 1.20133 0
M  V30 390 C 36.1325 4.23978 0.585388 0
M  V30 391 C 35.4585 5.06332 1.7185 0
M  V30 392 C 36.7585 5.20242 -0.463178 0
M  V30 393 H 38.4525 2.94466 -0.541307 0
M  V30 394 H 35.9985 1.41601 -0.261764 0
M  V30 395 H 37.9515 3.84569 1.72293 0
M  V30 396 H 36.6755 2.62315 1.94573 0
M  V30 397 H 35.3345 3.66501 0.085054 0
M  V30 398 H 34.9825 4.39186 2.45203 0
M  V30 399 H 34.6825 5.72762 1.31213 0
M  V30 400 H 36.2065 5.67899 2.24329 0
M  V30 401 H 37.6205 5.73293 -0.027502 0
M  V30 402 H 36.0175 5.94896 -0.788627 0
M  V30 403 H 37.0875 4.65504 -1.35773 0
M  V30 404 N 38.4306 0.297415 1.54768 0
M  V30 405 C 39.3786 -0.596051 2.24833 0
M  V30 406 C 40.3726 -1.13992 1.25308 0
M  V30 407 O 41.5786 -1.09098 1.4317 0
M  V30 408 H 37.9536 -0.210814 0.721846 0
M  V30 409 H 39.9246 0.0174667 2.98395 0
M  V30 410 C 38.6736 -1.75818 2.99972 0
M  V30 411 H 37.9966 -1.3489 3.76357 0
M  V30 412 H 39.4366 -2.35949 3.52284 0
M  V30 413 C 37.8956 -2.66014 2.06732 0
M  V30 414 O 38.4256 -3.67009 1.63302 0
M  V30 415 N 36.6316 -2.33669 1.72763 0
M  V30 416 H 36.1786 -1.51586 2.08277 0
M  V30 417 H 36.1366 -2.94285 1.10652 0
M  V30 418 N 39.9087 -1.5758 0.0250728 0
M  V30 419 C 41.1547 -1.92746 -0.649648 0
M  V30 420 C 41.5097 -0.901588 -1.69968 0
M  V30 421 O 40.8027 0.0829251 -1.9142 0
M  V30 422 C 40.9967 -3.32421 -1.31268 0
M  V30 423 C 40.8257 -4.48499 -0.328394 0
M  V30 424 C 39.5957 -5.05251 0.070284 0
M  V30 425 C 41.7937 -5.12618 0.415665 0
M  V30 426 N 39.7757 -6.04851 1.05016 0
M  V30 427 C 41.1467 -6.0728 1.24943 0
M  V30 428 C 43.2017 -4.95612 0.476803 0
M  V30 429 C 41.9047 -6.86766 2.1388 0
M  V30 430 C 43.9307 -5.75703 1.3535 0
M  V30 431 C 43.2927 -6.69978 2.17504 0
M  V30 432 H 39.3917 -0.753231 -0.210159 0
M  V30 433 H 41.9757 -1.94486 0.0912999 0
M  V30 434 H 40.1467 -3.31508 -2.02379 0
M  V30 435 H 41.8787 -3.54946 -1.94411 0
M  V30 436 H 38.6337 -4.72628 -0.303323 0
M  V30 437 H 39.0577 -6.5934 1.53622 0
M  V30 438 H 43.6997 -4.22554 -0.144105 0
M  V30 439 H 41.4177 -7.59132 2.77027 0
M  V30 440 H 45.0037 -5.64579 1.40504 0
M  V30 441 H 43.8837 -7.30873 2.84244 0
M  V30 442 N 41.3868 0.248026 -1.55636 0
M  V30 443 C 42.6348 0.974295 -1.77065 0
M  V30 444 C 42.9558 1.85897 -0.588849 0
M  V30 445 O 42.2258 1.91868 0.395407 0
M  V30 446 H 40.8058 0.362733 -0.653019 0
M  V30 447 H 43.4678 0.266244 -1.93073 0
M  V30 448 H 42.5638 1.59667 -2.68166 0
M  V30 449 N 42.8649 1.48995 0.513639 0
M  V30 450 C 44.2809 1.35478 0.843682 0
M  V30 451 C 44.4809 0.378213 1.97919 0
M  V30 452 O 43.5369 -0.194689 2.51748 0
M  V30 453 C 44.8499 2.75901 1.1958 0
M  V30 454 C 46.3979 2.84509 1.30474 0
M  V30 455 C 46.8729 4.25671 1.69021 0
M  V30 456 N 48.3639 4.28422 1.76094 0
M  V30 457 C 49.0989 5.34601 2.07338 0
M  V30 458 N 48.5949 6.5104 2.36894 0
M  V30 459 N 50.3879 5.22007 2.08483 0
M  V30 460 H 42.5389 2.11092 -0.235328 0
M  V30 461 H 44.8019 0.947039 -0.0426669 0
M  V30 462 H 44.5079 3.49001 0.434913 0
M  V30 463 H 44.3819 3.10467 2.1422 0
M  V30 464 H 46.7689 2.11655 2.05637 0
M  V30 465 H 46.8499 2.53542 0.339155 0
M  V30 466 H 46.4939 4.99048 0.944135 0
M  V30 467 H 46.4239 4.54094 2.66658 0
M  V30 468 H 48.9149 3.44441 1.55464 0
M  V30 469 H 49.2279 7.2779 2.59887 0
M  V30 470 H 47.5729 6.54287 2.34378 0
M  V30 471 H 50.7639 4.30051 1.84861 0
M  V30 472 H 50.9369 6.04854 2.325 0
M  V30 473 N 44.343 -0.763751 1.37857 0
M  V30 474 C 45.273 -1.89103 1.36975 0
M  V30 475 C 46.254 -1.68439 0.237152 0
M  V30 476 O 47.439 -1.8918 0.438713 0
M  V30 477 C 44.569 -3.26496 1.18395 0
M  V30 478 C 43.523 -3.61741 2.28751 0
M  V30 479 C 42.849 -4.97762 1.95286 0
M  V30 480 C 44.149 -3.67665 3.70972 0
M  V30 481 H 45.843 -1.90099 2.31307 0
M  V30 482 H 43.389 -0.91319 1.11341 0
M  V30 483 H 45.342 -4.05003 1.16406 0
M  V30 484 H 44.066 -3.25955 0.205215 0
M  V30 485 H 42.725 -2.85547 2.29909 0
M  V30 486 H 42.373 -4.93769 0.959221 0
M  V30 487 H 42.073 -5.22313 2.69189 0
M  V30 488 H 43.597 -5.7866 1.94898 0
M  V30 489 H 45.011 -4.36307 3.719 0
M  V30 490 H 43.408 -4.03718 4.43995 0
M  V30 491 H 44.478 -2.68134 4.0402 0
M  V30 492 N 45.8211 -1.22559 -0.990812 0
M  V30 493 C 47.2371 -0.985996 -1.255 0
M  V30 494 C 47.4371 0.319173 -1.98956 0
M  V30 495 O 46.4931 1.04127 -2.3003 0
M  V30 496 C 47.8061 -2.18607 -2.06474 0
M  V30 497 C 49.3541 -2.22985 -2.19651 0
M  V30 498 C 49.8291 -3.4255 -3.04012 0
M  V30 499 N 51.3201 -3.42725 -3.11599 0
M  V30 500 C 52.0551 -4.31892 -3.7717 0
M  V30 501 N 51.5511 -5.31279 -4.44651 0
M  V30 502 N 53.3441 -4.19662 -3.73952 0
M  V30 503 H 45.4951 -2.06469 -0.49841 0
M  V30 504 H 47.7581 -0.904853 -0.282747 0
M  V30 505 H 47.4641 -3.13267 -1.59865 0
M  V30 506 H 47.3381 -2.18838 -3.07229 0
M  V30 507 H 49.7251 -1.28871 -2.65474 0
M  V30 508 H 49.8061 -2.26791 -1.18319 0
M  V30 509 H 49.4501 -4.36965 -2.58889 0
M  V30 510 H 49.3801 -3.35984 -4.0549 0
M  V30 511 H 51.8711 -2.70807 -2.63575 0
M  V30 512 H 52.1841 -5.95593 -4.92431 0
M  V30 513 H 50.5291 -5.3519 -4.43392 0
M  V30 514 H 53.7201 -3.41268 -3.20396 0
M  V30 515 H 53.8931 -4.89358 -4.24774 0
M  V30 516 N 47.2992 1.18797 -1.03562 0
M  V30 517 C 48.2462 2.22253 -0.622259 0
M  V30 518 C 49.2162 1.61987 0.36736 0
M  V30 519 O 50.4012 1.88986 0.262492 0
M  V30 520 C 47.5412 3.45097 0.0138462 0
M  V30 521 C 46.6542 4.19722 -1.02263 0
M  V30 522 C 45.7892 5.30009 -0.355573 0
M  V30 523 C 44.8282 5.96399 -1.37749 0
M  V30 524 N 43.9652 6.98234 -0.735766 0
M  V30 525 H 48.8052 2.56968 -1.50903 0
M  V30 526 H 46.3422 1.26245 -0.755017 0
M  V30 527 H 48.3002 4.15279 0.399948 0
M  V30 528 H 46.9302 3.11018 0.864158 0
M  V30 529 H 45.9822 3.48418 -1.52673 0
M  V30 530 H 47.2942 4.65227 -1.79903 0
M  V30 531 H 46.4482 6.0664 0.0850095 0
M  V30 532 H 45.1872 4.85592 0.452967 0
M  V30 533 H 44.1922 5.18512 -1.82826 0
M  V30 534 H 45.4172 6.42899 -2.18764 0
M  V30 535 H 43.3632 6.55979 0.0525597 0
M  V30 536 H 43.2802 7.41965 -1.44995 0
M  V30 537 H 44.5482 7.78845 -0.31941 0
M  V30 538 N 48.7773 0.814389 1.34928 0
M  V30 539 C 49.7243 0.22822 2.29669 0
M  V30 540 C 50.6943 -0.642164 1.53184 0
M  V30 541 O 51.8793 -0.585605 1.81591 0
M  V30 542 C 49.0193 -0.61089 3.3965 0
M  V30 543 C 48.1323 0.280792 4.31086 0
M  V30 544 C 47.2673 -0.567067 5.28165 0
M  V30 545 C 46.3063 0.324531 6.11239 0
M  V30 546 N 45.4433 -0.483756 7.00431 0
M  V30 547 H 50.2833 1.04153 2.79206 0
M  V30 548 H 47.8203 0.525133 1.37407 0
M  V30 549 H 49.7783 -1.11263 4.0209 0
M  V30 550 H 48.4083 -1.38939 2.91369 0
M  V30 551 H 47.4603 0.900688 3.69583 0
M  V30 552 H 48.7723 0.966723 4.89342 0
M  V30 553 H 47.9263 -1.13363 5.96015 0
M  V30 554 H 46.6653 -1.28654 4.70425 0
M  V30 555 H 45.6703 0.903298 5.42329 0
M  V30 556 H 46.8953 1.04198 6.71059 0
M  V30 557 H 44.8413 -1.18706 6.45171 0
M  V30 558 H 44.7583 0.143965 7.55863 0
M  V30 559 H 46.0263 -1.03334 7.7262 0
M  V30 560 N 50.2554 -1.46986 0.568584 0
M  V30 561 C 51.4954 -2.04336 0.0512999 0
M  V30 562 C 51.8594 -1.43214 -1.27881 0
M  V30 563 O 53.0604 -1.91679 -1.88448 0
M  V30 564 C 51.3314 -3.57389 -0.0282328 0
M  V30 565 S 52.8904 -4.36056 -0.489991 0
M  V30 566 H 49.7084 -0.71034 0.0306349 0
M  V30 567 H 52.3104 -1.80212 0.757891 0
M  V30 568 H 51.0144 -3.99395 0.944011 0
M  V30 569 H 50.5454 -3.86028 -0.75803 0
M  V30 570 H 52.5604 -4.6441 -1.74752 0
M  V30 571 N 51.7335 -0.305618 -1.54608 0
M  V30 572 C 53.1445 0.186098 -1.8577 0
M  V30 573 C 53.4955 1.53058 -1.22751 0
M  V30 574 O 52.6205 2.09888 -0.526893 0
M  V30 575 C 53.2155 0.344449 -3.37044 0
M  V30 576 C 51.7745 0.780384 -3.68221 0
M  V30 577 C 50.9215 -0.108554 -2.77087 0
M  V30 578 H 53.8725 -0.526485 -1.49712 0
M  V30 579 H 53.8935 1.17828 -3.61796 0
M  V30 580 H 53.4055 -0.634235 -3.82883 0
M  V30 581 H 51.5065 1.76945 -3.27904 0
M  V30 582 H 51.6195 0.596572 -4.75371 0
M  V30 583 H 49.9835 0.412931 -2.5133 0
M  V30 584 H 50.7665 -1.08368 -3.25747 0
M  V30 585 N 53.2116 1.57565 -0.0334293 0
M  V30 586 C 54.4366 1.96689 0.657895 0
M  V30 587 C 54.8616 0.910057 1.64619 0
M  V30 588 O 54.2196 -0.128598 1.80843 0
M  V30 589 C 54.2676 3.34905 1.33683 0
M  V30 590 O 53.3716 3.31574 2.45219 0
M  V30 591 H 52.7126 0.641205 0.172489 0
M  V30 592 H 55.2426 2.04372 -0.0965621 0
M  V30 593 H 55.2526 3.71234 1.69262 0
M  V30 594 H 53.9276 4.11366 0.612411 0
M  V30 595 H 52.5046 3.06968 2.11719 0
M  V30 596 N 54.6897 -0.239769 1.55765 0
M  V30 597 C 55.9177 -0.98417 1.81994 0
M  V30 598 C 56.3327 -1.7867 0.610124 0
M  V30 599 O 55.6897 -1.77571 -0.421271 0
M  V30 600 C 55.7407 -1.91635 3.06526 0
M  V30 601 O 55.4617 -1.14629 4.22838 0
M  V30 602 C 56.9627 -2.77616 3.45607 0
M  V30 603 H 54.1827 -0.28928 0.605441 0
M  V30 604 H 56.7267 -0.260499 2.02834 0
M  V30 605 H 54.8817 -2.5942 2.87715 0
M  V30 606 H 55.2957 -1.77745 4.93464 0
M  V30 607 H 56.7697 -3.38759 4.35828 0
M  V30 608 H 57.2467 -3.4909 2.6652 0
M  V30 609 H 57.8527 -2.15271 3.66795 0
M  V30 610 N 56.1678 -1.49265 -0.50573 0
M  V30 611 C 57.1178 -1.6198 -1.60457 0
M  V30 612 C 58.1018 -0.47568 -1.53708 0
M  V30 613 O 59.2938 -0.728392 -1.61318 0
M  V30 614 C 56.4228 -1.68526 -2.99089 0
M  V30 615 C 55.5088 -2.885 -3.10852 0
M  V30 616 N 55.8998 -4.12635 -2.92517 0
M  V30 617 C 54.1978 -2.86338 -3.41945 0
M  V30 618 C 54.8988 -4.93258 -3.08337 0
M  V30 619 N 53.8748 -4.26533 -3.37003 0
M  V30 620 H 57.6768 -2.55681 -1.44928 0
M  V30 621 H 55.1908 -1.45972 -0.711752 0
M  V30 622 H 57.1878 -1.75732 -3.78053 0
M  V30 623 H 55.8478 -0.759584 -3.1569 0
M  V30 624 H 56.8588 -4.42689 -2.68787 0
M  V30 625 H 53.5358 -2.03129 -3.64753 0
M  V30 626 H 54.9258 -6.01856 -2.98695 0
M  V30 627 N 57.6459 0.756429 -1.3826 0
M  V30 628 C 58.8709 1.55077 -1.37717 0
M  V30 629 C 59.2959 1.88073 0.03164 0
M  V30 630 O 58.6539 1.50364 1.01293 0
M  V30 631 C 58.7019 2.8283 -2.23695 0
M  V30 632 O 57.8059 3.77862 -1.6521 0
M  V30 633 H 57.1469 0.469152 -0.469885 0
M  V30 634 H 59.6769 0.935019 -1.81985 0
M  V30 635 H 59.6869 3.31783 -2.37453 0
M  V30 636 H 58.3619 2.58144 -3.2609 0
M  V30 637 H 56.9389 3.36555 -1.60578 0
M  V30 638 N 59.124 1.23083 0.984299 0
M  V30 639 C 60.034 1.02515 2.11016 0
M  V30 640 C 61.05 -0.0291702 1.73976 0
M  V30 641 O 62.226 0.165434 2.00719 0
M  V30 642 C 59.291 0.614673 3.41208 0
M  V30 643 C 58.352 1.74359 3.92297 0
M  V30 644 C 57.585 1.35261 5.16275 0
M  V30 645 O 57.808 0.235136 5.69915 0
M  V30 646 O 56.742 2.17227 5.61334 0
M  V30 647 H 60.568 1.96862 2.31255 0
M  V30 648 H 58.153 1.01753 1.09392 0
M  V30 649 H 60.035 0.396518 4.1953 0
M  V30 650 H 58.71 -0.299851 3.22308 0
M  V30 651 H 57.617 2.01635 3.1511 0
M  V30 652 H 58.95 2.63629 4.15645 0
M  V30 653 N 60.6021 -1.18246 1.0419 0
M  V30 654 C 61.5121 -2.25574 0.644476 0
M  V30 655 C 62.5281 -1.70845 -0.329826 0
M  V30 656 O 63.7041 -2.00554 -0.184443 0
M  V30 657 C 60.7691 -3.46697 0.014877 0
M  V30 658 C 59.8301 -4.16554 1.03834 0
M  V30 659 C 59.0631 -5.31894 0.438692 0
M  V30 660 O 59.2861 -5.65385 -0.754752 0
M  V30 661 O 58.2201 -5.90459 1.168 0
M  V30 662 H 62.0461 -2.61836 1.53869 0
M  V30 663 H 59.6311 -1.25352 0.812854 0
M  V30 664 H 61.5131 -4.20062 -0.335538 0
M  V30 665 H 60.1881 -3.12255 -0.853138 0
M  V30 666 H 59.0951 -3.45251 1.44057 0
M  V30 667 H 60.4281 -4.54998 1.87716 0
M  V30 668 N 62.0802 -0.821533 -1.34494 0
M  V30 669 C 63.0102 -0.257138 -2.3208 0
M  V30 670 C 63.9912 0.625645 -1.58176 0
M  V30 671 O 65.1762 0.552811 -1.86166 0
M  V30 672 C 62.3062 0.582958 -3.42372 0
M  V30 673 C 61.2602 -0.202571 -4.2752 0
M  V30 674 C 60.5862 0.760179 -5.29269 0
M  V30 675 C 61.8862 -1.40998 -5.02908 0
M  V30 676 H 63.5802 -1.07247 -2.79532 0
M  V30 677 H 61.1262 -0.517163 -1.34393 0
M  V30 678 H 63.0792 0.987972 -4.09655 0
M  V30 679 H 61.8032 1.43133 -2.93565 0
M  V30 680 H 60.4622 -0.588936 -3.61838 0
M  V30 681 H 60.1102 1.60447 -4.76724 0
M  V30 682 H 59.8102 0.238809 -5.87115 0
M  V30 683 H 61.3342 1.16308 -5.9942 0
M  V30 684 H 62.7482 -1.07905 -5.63054 0
M  V30 685 H 61.1452 -1.86689 -5.70322 0
M  V30 686 H 62.2152 -2.1889 -4.32684 0
M  V30 687 N 63.5583 1.46682 -0.576371 0
M  V30 688 C 64.5083 2.27278 0.181288 0
M  V30 689 C 65.4923 1.35497 0.867721 0
M  V30 690 O 66.6843 1.59717 0.762863 0
M  V30 691 C 63.8133 3.21703 1.19841 0
M  V30 692 C 62.8993 4.20969 0.51442 0
M  V30 693 N 63.2903 5.03999 -0.426407 0
M  V30 694 C 61.5883 4.39373 0.765963 0
M  V30 695 C 62.2893 5.75812 -0.825565 0
M  V30 696 N 61.2653 5.43315 -0.176116 0
M  V30 697 H 65.0673 2.88863 -0.541785 0
M  V30 698 H 62.5813 1.57455 -0.397697 0
M  V30 699 H 64.5783 3.78145 1.75533 0
M  V30 700 H 63.2383 2.61677 1.92238 0
M  V30 701 H 64.2493 5.11659 -0.8016 0
M  V30 702 H 60.9263 3.90502 1.47698 0
M  V30 703 H 62.3163 6.52577 -1.59976 0
M  V30 704 N 65.0364 0.313813 1.54444 0
M  V30 705 C 66.3134 -0.345447 1.92525 0
M  V30 706 C 66.6934 -1.70667 1.24242 0
M  V30 707 O 66.0414 -2.25273 0.382654 0
M  V30 708 C 66.2514 -0.44737 3.46121 0
M  V30 709 C 67.5994 -0.712238 4.18584 0
M  V30 710 O 68.6234 -0.530678 3.52225 0
M  V30 711 O 67.4824 -1.06183 5.36085 0
M  V30 712 H 64.5764 -0.195407 0.803583 0
M  V30 713 H 67.1224 0.362813 1.65776 0
M  V30 714 H 65.8944 0.509043 3.87975 0
M  V30 715 H 65.5174 -1.20359 3.78945 0
M  V30 716 N 66.5145 -1.57545 0.0417849 0
M  V30 717 C 67.7545 -1.94185 -0.63809 0
M  V30 718 C 68.1185 -0.919339 -1.68559 0
M  V30 719 O 69.3195 -1.17236 -2.41886 0
M  V30 720 C 67.5905 -3.35672 -1.22714 0
M  V30 721 S 69.1495 -3.94256 -1.92633 0
M  V30 722 H 65.9675 -0.679353 -0.209764 0
M  V30 723 H 68.5695 -1.95199 0.108479 0
M  V30 724 H 67.2735 -4.07898 -0.452503 0
M  V30 725 H 66.8045 -3.38132 -2.01073 0
M  V30 726 H 68.8195 -3.7872 -3.20602 0
M  V30 727 N 67.9926 0.231505 -1.5589 0
M  V30 728 C 69.2416 0.955346 -1.7764 0
M  V30 729 C 69.5546 1.85893 -0.608546 0
M  V30 730 O 70.7606 2.62067 -0.70943 0
M  V30 731 C 69.2166 1.74886 -3.14552 0
M  V30 732 C 68.8246 0.891915 -4.39032 0
M  V30 733 C 70.5686 2.46452 -3.45633 0
M  V30 734 C 68.4756 1.68221 -5.66971 0
M  V30 735 H 67.4056 0.360446 -0.662265 0
M  V30 736 H 70.0566 0.209516 -1.823 0
M  V30 737 H 68.4386 2.53723 -3.04041 0
M  V30 738 H 69.6126 0.144793 -4.60572 0
M  V30 739 H 67.9276 0.288863 -4.15397 0
M  V30 740 H 70.5246 3.06061 -4.38441 0
M  V30 741 H 70.8676 3.18841 -2.67668 0
M  V30 742 H 71.4006 1.74613 -3.57428 0
M  V30 743 H 68.1396 1.00178 -6.478 0
M  V30 744 H 67.6596 2.4042 -5.49507 0
M  V30 745 H 69.3386 2.24544 -6.06786 0
M  V30 746 N 69.4707 1.49531 0.497807 0
M  V30 747 C 70.4027 1.62559 1.61578 0
M  V30 748 C 71.4157 0.508134 1.54667 0
M  V30 749 O 72.6047 0.780309 1.60541 0
M  V30 750 C 69.7047 1.56925 3.00379 0
M  V30 751 C 68.8777 2.84257 3.3244 0
M  V30 752 C 67.9367 2.71632 4.50669 0
M  V30 753 O 66.9627 3.4557 4.52294 0
M  V30 754 N 68.1647 1.83391 5.5077 0
M  V30 755 H 70.9297 2.58981 1.50828 0
M  V30 756 H 68.4907 1.4666 0.685743 0
M  V30 757 H 70.4827 1.46129 3.77397 0
M  V30 758 H 69.0527 0.683483 3.05037 0
M  V30 759 H 68.2727 3.09381 2.44289 0
M  V30 760 H 69.5607 3.68666 3.5066 0
M  V30 761 H 68.9587 1.22583 5.52259 0
M  V30 762 H 67.5157 1.78515 6.26878 0
M  V30 763 N 70.9488 -0.749086 1.3866 0
M  V30 764 C 71.8958 -1.86291 1.36251 0
M  V30 765 C 72.8658 -1.64578 0.224347 0
M  V30 766 O 74.0508 -1.86181 0.417279 0
M  V30 767 C 71.1908 -3.23644 1.19786 0
M  V30 768 C 70.3038 -3.57158 2.43027 0
M  V30 769 C 69.4388 -4.83838 2.19258 0
M  V30 770 C 68.4778 -5.10152 3.38247 0
M  V30 771 N 67.6148 -6.28029 3.13884 0
M  V30 772 H 72.4548 -1.87685 2.3147 0
M  V30 773 H 69.9918 -0.917287 1.14997 0
M  V30 774 H 71.9498 -4.0291 1.08254 0
M  V30 775 H 70.5798 -3.21566 0.282031 0
M  V30 776 H 69.6318 -2.72701 2.65214 0
M  V30 777 H 70.9438 -3.7253 3.31697 0
M  V30 778 H 70.0978 -5.71057 2.04888 0
M  V30 779 H 68.8368 -4.70614 1.2796 0
M  V30 780 H 67.8418 -4.21401 3.53131 0
M  V30 781 H 69.0668 -5.25271 4.30427 0
M  V30 782 H 67.0128 -6.1612 2.25238 0
M  V30 783 H 66.9298 -6.43922 3.96106 0
M  V30 784 H 68.1978 -7.18124 3.03179 0
M  V30 785 N 72.4269 -1.23603 -0.977757 0
M  V30 786 C 73.6549 -1.09646 -1.75458 0
M  V30 787 C 74.0699 0.351859 -1.85492 0
M  V30 788 O 73.4269 1.24327 -1.336 0
M  V30 789 C 73.4779 -1.71895 -3.18016 0
M  V30 790 O 73.1989 -3.11063 -3.08498 0
M  V30 791 C 74.6999 -1.63415 -4.12081 0
M  V30 792 H 71.9199 -0.38359 -0.550545 0
M  V30 793 H 74.4639 -1.63507 -1.22824 0
M  V30 794 H 72.6189 -1.22061 -3.67668 0
M  V30 795 H 73.0329 -3.41305 -3.9826 0
M  V30 796 H 74.5069 -2.11669 -5.09804 0
M  V30 797 H 74.9839 -0.593462 -4.35172 0
M  V30 798 H 75.5899 -2.12628 -3.68334 0
M  V30 799 N 73.905 1.17692 -1.04816 0
M  V30 800 C 74.835 2.23777 -0.666791 0
M  V30 801 C 75.816 1.66796 0.33361 0
M  V30 802 O 77.001 1.93039 0.212042 0
M  V30 803 C 74.131 3.47281 -0.0367933 0
M  V30 804 C 73.085 4.17059 -0.961546 0
M  V30 805 C 72.411 5.34342 -0.195626 0
M  V30 806 C 73.711 4.69713 -2.28402 0
M  V30 807 H 75.405 2.55933 -1.55367 0
M  V30 808 H 72.951 1.23019 -0.748484 0
M  V30 809 H 74.904 4.20706 0.241775 0
M  V30 810 H 73.628 3.14381 0.885004 0
M  V30 811 H 72.287 3.45541 -1.22462 0
M  V30 812 H 71.935 4.97692 0.728816 0
M  V30 813 H 71.635 5.81966 -0.811775 0
M  V30 814 H 73.159 6.10553 0.0757473 0
M  V30 815 H 74.573 5.34794 -2.06563 0
M  V30 816 H 72.97 5.279 -2.8538 0
M  V30 817 H 74.04 3.86726 -2.92525 0
M  V30 818 N 75.3831 0.828654 1.34056 0
M  V30 819 C 76.3311 0.242973 2.31327 0
M  V30 820 C 77.3251 -0.61944 1.57668 0
M  V30 821 O 78.5311 -0.51014 1.7262 0
M  V30 822 H 74.9061 0.059834 0.749616 0
M  V30 823 H 76.8771 1.07809 2.78244 0
M  V30 824 C 75.6261 -0.575733 3.429 0
M  V30 825 H 74.9491 0.0785582 3.99723 0
M  V30 826 H 76.3891 -0.951547 4.13185 0
M  V30 827 C 74.8481 -1.75044 2.87856 0
M  V30 828 O 75.3781 -2.84882 2.83205 0
M  V30 829 N 73.5841 -1.56903 2.44602 0
M  V30 830 H 73.1311 -0.675547 2.48584 0
M  V30 831 H 73.0891 -2.35652 2.08124 0
M  V30 832 N 76.8612 -1.46375 0.584142 0
M  V30 833 C 77.7712 -2.34115 -0.150728 0
M  V30 834 C 78.7872 -1.49838 -0.884567 0
M  V30 835 O 79.9632 -1.82704 -0.847429 0
M  V30 836 C 77.0282 -3.2705 -1.15062 0
M  V30 837 C 76.0892 -4.27228 -0.421293 0
M  V30 838 C 75.3222 -5.15722 -1.37355 0
M  V30 839 O 75.5452 -5.07176 -2.61014 0
M  V30 840 O 74.4792 -5.95383 -0.883355 0
M  V30 841 H 78.3052 -2.98309 0.569708 0
M  V30 842 H 75.8902 -1.45373 0.344535 0
M  V30 843 H 77.7722 -3.84381 -1.72712 0
M  V30 844 H 76.4472 -2.65451 -1.8525 0
M  V30 845 H 75.3542 -3.7358 0.197085 0
M  V30 846 H 76.6872 -4.91616 0.239641 0
M  V30 847 N 78.3393 -0.321999 -1.54275 0
M  V30 848 C 79.5853 0.274234 -2.01543 0
M  V30 849 C 79.9403 1.499 -1.20614 0
M  V30 850 O 79.2333 1.89546 -0.279804 0
M  V30 851 C 79.4273 0.661769 -3.5122 0
M  V30 852 C 79.2563 -0.523892 -4.46638 0
M  V30 853 C 78.0263 -1.02251 -4.94846 0
M  V30 854 C 80.2243 -1.37558 -4.95563 0
M  V30 855 N 78.2063 -2.17274 -5.74165 0
M  V30 856 C 79.5773 -2.37301 -5.7279 0
M  V30 857 C 81.6323 -1.40353 -4.77709 0
M  V30 858 C 80.3353 -3.3964 -6.34064 0
M  V30 859 C 82.3613 -2.41562 -5.39817 0
M  V30 860 C 81.7233 -3.40031 -6.16894 0
M  V30 861 H 77.8223 0.0642367 -0.779357 0
M  V30 862 H 80.4063 -0.456683 -1.89268 0
M  V30 863 H 78.5773 1.36182 -3.63743 0
M  V30 864 H 80.3093 1.23934 -3.85256 0
M  V30 865 H 77.0643 -0.594046 -4.6986 0
M  V30 866 H 77.4883 -2.75289 -6.18502 0
M  V30 867 H 82.1303 -0.655907 -4.17681 0
M  V30 868 H 79.8483 -4.15309 -6.93213 0
M  V30 869 H 83.4343 -2.44524 -5.2792 0
M  V30 870 H 82.3143 -4.17063 -6.64099 0
M  V30 871 N 79.8174 1.5752 -0.0501392 0
M  V30 872 C 81.0424 1.97376 0.636997 0
M  V30 873 C 81.4674 0.927466 1.63645 0
M  V30 874 O 80.8254 -0.10941 1.8097 0
M  V30 875 C 80.8734 3.36304 1.30123 0
M  V30 876 O 79.9774 3.34156 2.41689 0
M  V30 877 H 79.3184 0.642998 0.165679 0
M  V30 878 H 81.8484 2.04258 -0.118233 0
M  V30 879 H 81.8584 3.73008 1.65315 0
M  V30 880 H 80.5334 4.11993 0.568746 0
M  V30 881 H 79.1104 3.09196 2.08451 0
M  V30 882 N 81.2955 -0.223234 1.56011 0
M  V30 883 C 82.5205 -0.968978 1.83373 0
M  V30 884 C 82.9455 -1.77227 0.630254 0
M  V30 885 O 82.3035 -1.76345 -0.420959 0
M  V30 886 C 82.3515 -1.86363 3.08709 0
M  V30 887 O 81.4555 -2.95873 2.87285 0
M  V30 888 H 80.7965 -0.274461 0.604622 0
M  V30 889 H 83.3265 -0.237056 2.03222 0
M  V30 890 H 83.3365 -2.27376 3.38768 0
M  V30 891 H 82.0115 -1.27319 3.95933 0
M  V30 892 H 80.5885 -2.58818 2.68454 0
M  V30 893 N 82.7736 -1.49793 -0.48987 0
M  V30 894 C 83.7056 -1.63413 -1.60713 0
M  V30 895 C 84.7186 -0.516329 -1.54395 0
M  V30 896 O 85.9076 -0.788812 -1.60125 0
M  V30 897 C 83.0076 -1.58516 -2.99543 0
M  V30 898 C 82.1806 -2.86016 -3.30928 0
M  V30 899 C 81.2396 -2.74018 -4.49222 0
M  V30 900 O 80.2656 -3.47964 -4.50455 0
M  V30 901 N 81.4676 -1.86309 -5.4979 0
M  V30 902 H 84.2326 -2.59777 -1.49452 0
M  V30 903 H 81.7936 -1.47022 -0.677955 0
M  V30 904 H 83.7856 -1.48128 -3.76617 0
M  V30 905 H 82.3556 -0.69965 -3.0467 0
M  V30 906 H 81.5756 -3.10672 -2.42645 0
M  V30 907 H 82.8636 -3.70521 -3.487 0
M  V30 908 H 82.2616 -1.2551 -5.51601 0
M  V30 909 H 80.8186 -1.81837 -6.25922 0
M  V30 910 N 84.2517 0.741722 -1.39055 0
M  V30 911 C 85.5007 1.49656 -1.35225 0
M  V30 912 C 85.8137 1.95533 0.0512708 0
M  V30 913 O 87.0197 2.7067 0.212138 0
M  V30 914 C 85.4757 2.70389 -2.37525 0
M  V30 915 C 85.0837 2.31489 -3.83558 0
M  V30 916 C 86.8277 3.48236 -2.42759 0
M  V30 917 C 84.7347 3.48903 -4.77515 0
M  V30 918 H 83.6647 0.56197 -0.502699 0
M  V30 919 H 86.3157 0.809727 -1.64668 0
M  V30 920 H 84.6977 3.41113 -2.01142 0
M  V30 921 H 85.8717 1.68354 -4.28945 0
M  V30 922 H 84.1867 1.66749 -3.81554 0
M  V30 923 H 86.7837 4.35558 -3.1015 0
M  V30 924 H 87.1267 3.90229 -1.45008 0
M  V30 925 H 87.6597 2.84535 -2.78002 0
M  V30 926 H 84.3987 3.11966 -5.76504 0
M  V30 927 H 83.9187 4.11041 -4.36813 0
M  V30 928 H 85.5977 4.15328 -4.96096 0
M  V30 929 N 85.7298 1.2412 0.971189 0
M  V30 930 C 86.6778 1.02812 2.08644 0
M  V30 931 C 87.6718 -0.0358403 1.69362 0
M  V30 932 O 88.8778 0.118429 1.7961 0
M  V30 933 H 85.2528 0.315428 0.682649 0
M  V30 934 H 87.2238 1.97397 2.23779 0
M  V30 935 C 85.9728 0.645874 3.41649 0
M  V30 936 H 85.2958 1.45632 3.72332 0
M  V30 937 H 86.7358 0.536366 4.20594 0
M  V30 938 C 85.1948 -0.646713 3.30635 0
M  V30 939 O 85.7248 -1.69338 3.64263 0
M  V30 940 N 83.9308 -0.626115 2.83775 0
M  V30 941 H 83.4778 0.225988 2.56607 0
M  V30 942 H 83.4358 -1.49117 2.76788 0
M  V30 943 N 87.2079 -1.17134 1.05439 0
M  V30 944 C 88.6189 -1.69084 0.791676 0
M  V30 945 C 88.9699 -1.83822 -0.685839 0
M  V30 946 O 88.0949 -1.52757 -1.53278 0
M  V30 947 C 88.6899 -3.07119 1.4305 0
M  V30 948 C 87.2489 -3.56225 1.21577 0
M  V30 949 C 86.3959 -2.32421 1.51247 0
M  V30 950 H 89.3469 -1.01617 1.219 0
M  V30 951 H 89.3679 -3.71087 0.84112 0
M  V30 952 H 88.8799 -2.9636 2.50584 0
M  V30 953 H 86.9809 -3.72257 0.159787 0
M  V30 954 H 87.0939 -4.38837 1.92246 0
M  V30 955 H 85.4579 -2.3701 0.932653 0
M  V30 956 H 86.2409 -2.24268 2.5992 0
M  V30 957 N 88.686 -0.835752 -1.33615 0
M  V30 958 C 89.963 -0.352017 -1.92406 0
M  V30 959 C 90.343 1.16225 -1.76224 0
M  V30 960 O 89.691 1.97526 -1.14873 0
M  V30 961 C 89.901 -0.795485 -3.39813 0
M  V30 962 C 91.249 -0.801703 -4.16963 0
M  V30 963 O 92.273 -0.738889 -3.48452 0
M  V30 964 O 91.132 -0.886607 -5.3926 0
M  V30 965 H 88.226 -0.0989641 -0.821057 0
M  V30 966 H 90.772 -0.921397 -1.42507 0
M  V30 967 H 89.544 -1.83795 -3.45449 0
M  V30 968 H 89.167 -0.202505 -3.97084 0
M  V30 969 N 90.1641 1.46063 -0.591896 0
M  V30 970 C 91.0941 2.33172 0.123673 0
M  V30 971 C 92.0751 1.45897 0.87453 0
M  V30 972 O 93.2601 1.74698 0.848181 0
M  V30 973 C 90.3901 3.28336 1.13194 0
M  V30 974 C 89.3441 4.25124 0.495324 0
M  V30 975 C 88.6701 5.09863 1.61071 0
M  V30 976 C 89.9701 5.19143 -0.573425 0
M  V30 977 H 91.6641 2.93252 -0.603646 0
M  V30 978 H 89.2101 1.41014 -0.291741 0
M  V30 979 H 91.1631 3.88137 1.64097 0
M  V30 980 H 89.8871 2.66383 1.88965 0
M  V30 981 H 88.5461 3.66599 0.00729452 0
M  V30 982 H 88.1941 4.44288 2.35832 0
M  V30 983 H 87.8941 5.75417 1.19035 0
M  V30 984 H 89.4181 5.72529 2.12233 0
M  V30 985 H 90.8321 5.73106 -0.1491 0
M  V30 986 H 89.2291 5.93089 -0.914636 0
M  V30 987 H 90.2991 4.62519 -1.45617 0
M  V30 988 N 91.6422 0.330177 1.54103 0
M  V30 989 C 92.8882 -0.270806 2.00984 0
M  V30 990 C 93.2212 -1.51265 1.21789 0
M  V30 991 O 92.4962 -1.92142 0.301927 0
M  V30 992 C 92.7792 -0.598339 3.55094 0
M  V30 993 C 92.6322 0.654674 4.4501 0
M  V30 994 C 93.9512 -1.41334 4.16789 0
M  V30 995 H 91.0702 -0.0969531 0.730595 0
M  V30 996 H 93.7122 0.448066 1.84641 0
M  V30 997 H 91.8622 -1.21078 3.69151 0
M  V30 998 H 93.5342 1.29285 4.42813 0
M  V30 999 H 91.7772 1.28224 4.14416 0
M  V30 1000 H 92.4482 0.380944 5.50684 0
M  V30 1001 H 94.9242 -0.895597 4.06347 0
M  V30 1002 H 93.8002 -1.61127 5.24718 0
M  V30 1003 H 94.0612 -2.41146 3.70541 0
M  V30 1004 N 93.1203 -1.57491 0.0584922 0
M  V30 1005 C 94.5363 -1.56792 -0.298091 0
M  V30 1006 C 94.7363 -1.06679 -1.70944 0
M  V30 1007 O 93.7923 -0.726672 -2.41818 0
M  V30 1008 C 95.1053 -3.00461 -0.119879 0
M  V30 1009 C 96.6533 -3.1242 -0.190428 0
M  V30 1010 C 97.1283 -4.57982 -0.0406567 0
M  V30 1011 N 98.6193 -4.63099 -0.0966958 0
M  V30 1012 C 99.3543 -5.734 -0.00502943 0
M  V30 1013 N 98.8503 -6.9266 0.139402 0
M  V30 1014 N 100.643 -5.62067 -0.0611391 0
M  V30 1015 H 92.7943 -1.88386 0.98105 0
M  V30 1016 H 95.0573 -0.867865 0.381463 0
M  V30 1017 H 94.7633 -3.41187 0.85349 0
M  V30 1018 H 94.6373 -3.66843 -0.877833 0
M  V30 1019 H 97.0243 -2.71589 -1.15427 0
M  V30 1020 H 97.1053 -2.48702 0.598405 0
M  V30 1021 H 96.7493 -4.995 0.919897 0
M  V30 1022 H 96.6793 -5.19715 -0.848727 0
M  V30 1023 H 99.1703 -3.77331 -0.207277 0
M  V30 1024 H 99.4833 -7.72536 0.201855 0
M  V30 1025 H 97.8283 -6.94781 0.174586 0
M  V30 1026 H 101.019 -4.67782 -0.172583 0
M  V30 1027 H 101.192 -6.47999 0.0137562 0
M  V30 1028 N 94.5984 0.214957 -1.56127 0
M  V30 1029 C 95.5084 1.28727 -1.96129 0
M  V30 1030 C 96.5244 1.50916 -0.866044 0
M  V30 1031 O 97.7004 1.63918 -1.17016 0
M  V30 1032 C 94.7654 2.61569 -2.27558 0
M  V30 1033 C 93.8264 2.47625 -3.50685 0
M  V30 1034 C 93.0594 3.74132 -3.80606 0
M  V30 1035 O 93.2824 4.77438 -3.12104 0
M  V30 1036 O 92.2164 3.70849 -4.74083 0
M  V30 1037 H 96.0424 0.977855 -2.87527 0
M  V30 1038 H 93.6274 0.418358 -1.43423 0
M  V30 1039 H 95.5094 3.40012 -2.48938 0
M  V30 1040 H 94.1844 2.92178 -1.39332 0
M  V30 1041 H 93.0914 1.67361 -3.34576 0
M  V30 1042 H 94.4244 2.21954 -4.39315 0
M  V30 1043 N 96.0765 1.50051 0.48192 0
M  V30 1044 C 97.3235 1.60498 1.23477 0
M  V30 1045 C 97.6515 0.300331 1.92167 0
M  V30 1046 O 96.9065 -0.713094 1.82246 0
M  V30 1047 C 97.2055 2.72717 2.30998 0
M  V30 1048 C 96.8715 4.13572 1.79636 0
M  V30 1049 C 95.5335 4.519 1.65348 0
M  V30 1050 C 97.8855 5.01649 1.41412 0
M  V30 1051 C 95.2135 5.76057 1.11244 0
M  V30 1052 C 97.5655 6.26343 0.887538 0
M  V30 1053 C 96.2295 6.63483 0.731207 0
M  V30 1054 H 95.4995 0.587303 0.451836 0
M  V30 1055 H 98.1465 1.83948 0.532468 0
M  V30 1056 H 96.4515 2.43312 3.07094 0
M  V30 1057 H 98.1485 2.78006 2.88988 0
M  V30 1058 H 94.7385 3.83329 1.91721 0
M  V30 1059 H 98.9225 4.72679 1.51289 0
M  V30 1060 H 94.1785 6.03516 0.978686 0
M  V30 1061 H 98.3525 6.93958 0.582654 0
M  V30 1062 H 95.9795 7.59568 0.309806 0
M  V30 1063 N 97.5546 -0.734337 1.39446 0
M  V30 1064 C 98.9656 -1.31264 1.32766 0
M  V30 1065 C 99.3166 -1.96198 -0.00767497 0
M  V30 1066 O 98.4416 -1.96346 -0.909796 0
M  V30 1067 C 99.0366 -2.38682 2.4045 0
M  V30 1068 C 97.5956 -2.92184 2.37288 0
M  V30 1069 C 96.7426 -1.6576 2.22304 0
M  V30 1070 H 99.6936 -0.531799 1.49525 0
M  V30 1071 H 99.7146 -3.19087 2.07276 0
M  V30 1072 H 99.2266 -1.91392 3.37625 0
M  V30 1073 H 97.3276 -3.43752 1.43754 0
M  V30 1074 H 97.4406 -3.45253 3.3217 0
M  V30 1075 H 95.8046 -1.9012 1.69489 0
M  V30 1076 H 96.5876 -1.20521 3.21449 0
M  V30 1077 N 99.0327 -1.24633 -0.964593 0
M  V30 1078 C 100.31 -0.995809 -1.68354 0
M  V30 1079 C 100.69 0.480964 -2.05548 0
M  V30 1080 O 100.038 1.45599 -1.76105 0
M  V30 1081 C 100.248 -1.92177 -2.91323 0
M  V30 1082 C 101.596 -2.19446 -3.63495 0
M  V30 1083 O 102.62 -1.89855 -3.01386 0
M  V30 1084 O 101.479 -2.69714 -4.75307 0
M  V30 1085 H 98.5727 -0.376854 -0.736146 0
M  V30 1086 H 101.119 -1.35745 -1.0184 0
M  V30 1087 H 99.8907 -2.91938 -2.60553 0
M  V30 1088 H 99.5137 -1.56349 -3.65569 0
M  V30 1089 N 100.511 1.16574 -1.06058 0
M  V30 1090 C 101.757 1.87324 -0.777022 0
M  V30 1091 C 102.09 1.81351 0.694645 0
M  V30 1092 O 101.365 1.22753 1.50871 0
M  V30 1093 C 101.648 3.36991 -1.26922 0
M  V30 1094 C 101.501 3.51667 -2.80447 0
M  V30 1095 C 102.82 4.3131 -0.87521 0
M  V30 1096 H 99.9388 0.680191 -0.28374 0
M  V30 1097 H 102.581 1.37036 -1.3161 0
M  V30 1098 H 100.731 3.79949 -0.81063 0
M  V30 1099 H 102.403 3.17664 -3.34495 0
M  V30 1100 H 100.646 2.93656 -3.19294 0
M  V30 1101 H 101.317 4.56766 -3.0995 0
M  V30 1102 H 103.793 3.9624 -1.27014 0
M  V30 1103 H 102.669 5.34545 -1.2471 0
M  V30 1104 H 102.93 4.41552 0.220071 0
M  V30 1105 N 101.989 0.842826 1.3317 0
M  V30 1106 C 102.919 0.294028 2.31641 0
M  V30 1107 C 103.9 -0.600401 1.59151 0
M  V30 1108 O 105.085 -0.523124 1.87022 0
M  V30 1109 C 102.215 -0.528416 3.43257 0
M  V30 1110 C 101.169 0.27056 4.27144 0
M  V30 1111 C 100.495 -0.675881 5.30411 0
M  V30 1112 C 101.795 1.48981 5.00602 0
M  V30 1113 H 103.489 1.11681 2.77791 0
M  V30 1114 H 101.035 0.538478 1.33553 0
M  V30 1115 H 102.988 -0.922674 4.11175 0
M  V30 1116 H 101.712 -1.38445 2.95805 0
M  V30 1117 H 100.371 0.646427 3.60856 0
M  V30 1118 H 100.019 -1.52842 4.79216 0
M  V30 1119 H 99.7189 -0.145374 5.8742 0
M  V30 1120 H 101.243 -1.06757 6.01195 0
M  V30 1121 H 102.657 1.16849 5.61266 0
M  V30 1122 H 101.054 1.95739 5.6728 0
M  V30 1123 H 102.124 2.25746 4.29147 0
M  V30 1124 N 103.467 -1.45747 0.599634 0
M  V30 1125 C 104.377 -2.34262 -0.125888 0
M  V30 1126 C 105.393 -1.50768 -0.868625 0
M  V30 1127 O 106.569 -1.83592 -0.828003 0
M  V30 1128 C 103.634 -3.28252 -1.11587 0
M  V30 1129 C 102.695 -4.27651 -0.375956 0
M  V30 1130 C 101.928 -5.1715 -1.31877 0
M  V30 1131 O 102.151 -5.09916 -2.55621 0
M  V30 1132 O 101.085 -5.96286 -0.820157 0
M  V30 1133 H 104.911 -2.97688 0.601315 0
M  V30 1134 H 102.496 -1.44999 0.359934 0
M  V30 1135 H 104.378 -3.86191 -1.68626 0
M  V30 1136 H 103.053 -2.67401 -1.82424 0
M  V30 1137 H 101.96 -3.7335 0.236698 0
M  V30 1138 H 103.293 -4.91334 0.29177 0
M  V30 1139 N 104.945 -0.338344 -1.53925 0
M  V30 1140 C 106.185 0.260168 -2.02737 0
M  V30 1141 C 106.549 1.48181 -1.22092 0
M  V30 1142 O 107.75 2.15416 -1.60777 0
M  V30 1143 C 106.021 0.571627 -3.52799 0
M  V30 1144 S 107.58 1.14769 -4.23525 0
M  V30 1145 H 104.398 0.077791 -0.706732 0
M  V30 1146 H 107 -0.474899 -1.89644 0
M  V30 1147 H 105.704 -0.325392 -4.09108 0
M  V30 1148 H 105.235 1.3365 -3.70002 0
M  V30 1149 H 107.25 2.43372 -4.32417 0
M  V30 1150 N 106.423 1.57458 -0.0668435 0
M  V30 1151 C 107.651 1.97624 0.612565 0
M  V30 1152 C 108.066 0.94502 1.63447 0
M  V30 1153 O 107.423 -0.0689276 1.8237 0
M  V30 1154 C 107.474 3.37869 1.28555 0
M  V30 1155 O 107.195 4.3704 0.304557 0
M  V30 1156 C 108.696 3.92882 2.05325 0
M  V30 1157 H 105.916 0.650045 0.166381 0
M  V30 1158 H 108.46 2.04035 -0.137782 0
M  V30 1159 H 106.615 3.3256 1.98702 0
M  V30 1160 H 107.029 5.18565 0.786779 0
M  V30 1161 H 108.503 4.93247 2.47812 0
M  V30 1162 H 108.98 3.29156 2.9078 0
M  V30 1163 H 109.586 4.01577 1.40056 0
M  V30 1164 N 107.901 -0.206675 1.56239 0
M  V30 1165 C 109.147 -0.930218 1.80208 0
M  V30 1166 C 109.48 -1.83387 0.638981 0
M  V30 1167 O 108.755 -1.91119 -0.361066 0
M  V30 1168 C 109.038 -1.75641 3.1436 0
M  V30 1169 C 108.891 -0.878257 4.41142 0
M  V30 1170 C 110.21 -2.73129 3.45092 0
M  V30 1171 H 107.329 -0.336742 0.655571 0
M  V30 1172 H 109.971 -0.198222 1.88963 0
M  V30 1173 H 108.121 -2.38048 3.07027 0
M  V30 1174 H 109.793 -0.269787 4.6051 0
M  V30 1175 H 108.036 -0.184385 4.33408 0
M  V30 1176 H 108.707 -1.49106 5.3148 0
M  V30 1177 H 111.183 -2.20856 3.52649 0
M  V30 1178 H 110.059 -3.28028 4.40101 0
M  V30 1179 H 110.32 -3.51606 2.68003 0
M  V30 1180 N 109.379 -1.50304 -0.473955 0
M  V30 1181 C 110.604 -1.65175 -1.25427 0
M  V30 1182 C 111.029 -0.333673 -1.85117 0
M  V30 1183 O 110.387 0.702114 -1.67153 0
M  V30 1184 C 110.435 -2.74295 -2.34082 0
M  V30 1185 O 109.539 -2.35349 -3.38651 0
M  V30 1186 H 108.88 -0.551944 -0.369126 0
M  V30 1187 H 111.41 -1.96662 -0.564364 0
M  V30 1188 H 111.42 -2.97285 -2.79438 0
M  V30 1189 H 110.095 -3.69959 -1.90008 0
M  V30 1190 H 108.672 -2.22794 -2.99027 0
M  V30 1191 N 110.857 0.726932 -1.39834 0
M  V30 1192 C 111.807 1.83232 -1.35683 0
M  V30 1193 C 112.791 1.59155 -0.236295 0
M  V30 1194 O 113.983 1.70522 -0.474488 0
M  V30 1195 C 111.112 3.21246 -1.21062 0
M  V30 1196 C 110.198 3.51125 -2.37849 0
M  V30 1197 N 110.589 3.51889 -3.63329 0
M  V30 1198 C 108.887 3.81527 -2.30982 0
M  V30 1199 C 109.588 3.79791 -4.40606 0
M  V30 1200 N 108.564 3.97971 -3.70297 0
M  V30 1201 H 112.366 1.8214 -2.30656 0
M  V30 1202 H 109.88 0.925545 -1.33444 0
M  V30 1203 H 111.877 4.00387 -1.16171 0
M  V30 1204 H 110.537 3.23572 -0.270458 0
M  V30 1205 H 111.548 3.33008 -3.96643 0
M  V30 1206 H 108.225 3.91411 -1.45272 0
M  V30 1207 H 109.615 3.86783 -5.49408 0
M  V30 1208 N 112.336 1.25143 0.95797 0
M  V30 1209 C 113.299 1.05321 2.03569 0
M  V30 1210 C 114.299 0.007152 1.60798 0
M  V30 1211 O 115.489 0.24903 1.72411 0
M  V30 1212 C 112.621 0.598394 3.35607 0
M  V30 1213 H 113.814 2.00986 2.22586 0
M  V30 1214 H 111.367 1.07502 1.13459 0
M  V30 1215 H 112.102 -0.361014 3.22284 0
M  V30 1216 H 111.887 1.35351 3.67998 0
M  V30 1217 H 113.377 0.48104 4.1482 0
M  V30 1218 N 113.814 -1.1601 1.06675 0
M  V30 1219 C 115.06 -1.86909 0.786945 0
M  V30 1220 C 115.393 -1.81717 -0.685018 0
M  V30 1221 O 114.668 -1.23551 -1.50218 0
M  V30 1222 C 114.951 -3.36313 1.28707 0
M  V30 1223 C 114.804 -3.50175 2.82308 0
M  V30 1224 C 116.123 -4.3084 0.898071 0
M  V30 1225 H 113.242 -0.678677 0.287343 0
M  V30 1226 H 115.884 -1.36336 1.32334 0
M  V30 1227 H 114.034 -3.79513 0.830768 0
M  V30 1228 H 115.706 -3.15886 3.36175 0
M  V30 1229 H 113.949 -2.91959 3.20847 0
M  V30 1230 H 114.62 -4.55116 3.12368 0
M  V30 1231 H 117.096 -3.95561 1.29114 0
M  V30 1232 H 115.972 -5.33876 1.27543 0
M  V30 1233 H 116.233 -4.41662 -0.196651 0
M  V30 1234 N 115.292 -0.849877 -1.32721 0
M  V30 1235 C 116.202 -0.293791 -2.32753 0
M  V30 1236 C 117.218 0.585906 -1.63839 0
M  V30 1237 O 118.394 0.487413 -1.95413 0
M  V30 1238 C 115.459 0.512752 -3.42887 0
M  V30 1239 C 114.52 -0.39252 -4.27502 0
M  V30 1240 C 113.753 0.375625 -5.32377 0
M  V30 1241 O 113.976 1.60613 -5.4732 0
M  V30 1242 O 112.91 -0.256094 -6.01355 0
M  V30 1243 H 116.736 -1.12242 -2.82197 0
M  V30 1244 H 114.321 -0.612685 -1.36259 0
M  V30 1245 H 116.203 0.970704 -4.10067 0
M  V30 1246 H 114.878 1.31826 -2.95641 0
M  V30 1247 H 113.785 -0.898547 -3.63149 0
M  V30 1248 H 115.118 -1.16309 -4.7826 0
M  V30 1249 N 116.77 1.45427 -0.607355 0
M  V30 1250 C 117.717 2.3053 0.111625 0
M  V30 1251 C 118.687 1.4209 0.860216 0
M  V30 1252 O 119.872 1.71019 0.845998 0
M  V30 1253 C 117.012 3.26992 1.10319 0
M  V30 1254 C 116.125 4.30535 0.355493 0
M  V30 1255 C 115.26 5.14105 1.33676 0
M  V30 1256 C 114.299 6.09376 0.576862 0
M  V30 1257 N 113.436 6.85727 1.5074 0
M  V30 1258 H 118.276 2.91477 -0.620093 0
M  V30 1259 H 115.813 1.43631 -0.317594 0
M  V30 1260 H 117.771 3.81385 1.6912 0
M  V30 1261 H 116.401 2.67799 1.80232 0
M  V30 1262 H 115.453 3.78805 -0.348023 0
M  V30 1263 H 116.765 4.98235 -0.237423 0
M  V30 1264 H 115.919 5.72897 1.99684 0
M  V30 1265 H 114.658 4.46423 1.9636 0
M  V30 1266 H 113.663 5.49715 -0.0968519 0
M  V30 1267 H 114.888 6.79085 -0.0449341 0
M  V30 1268 H 112.834 6.20735 2.12189 0
M  V30 1269 H 112.751 7.49778 0.967913 0
M  V30 1270 H 114.019 7.4906 2.15706 0
M  V30 1271 N 118.248 0.346503 1.53744 0
M  V30 1272 C 119.497 -0.250122 2.00143 0
M  V30 1273 C 119.81 -1.51418 1.23822 0
M  V30 1274 O 121.016 -2.18823 1.60713 0
M  V30 1275 C 119.472 -0.496252 3.56462 0
M  V30 1276 C 119.08 0.752077 4.41642 0
M  V30 1277 C 120.824 -1.05157 4.11269 0
M  V30 1278 C 118.731 0.476583 5.89477 0
M  V30 1279 H 117.661 -0.0972409 0.747703 0
M  V30 1280 H 120.312 0.46229 1.77581 0
M  V30 1281 H 118.694 -1.26944 3.75102 0
M  V30 1282 H 119.868 1.5266 4.34778 0
M  V30 1283 H 118.183 1.22925 3.97842 0
M  V30 1284 H 120.78 -1.27269 5.19333 0
M  V30 1285 H 121.123 -2.00799 3.64672 0
M  V30 1286 H 121.656 -0.339019 3.96353 0
M  V30 1287 H 118.395 1.4028 6.40314 0
M  V30 1288 H 117.915 -0.259794 5.99237 0
M  V30 1289 H 119.594 0.0949315 6.4693 0
M  V30 1290 N 119.726 -1.57421 0.075193 0
M  V30 1291 C 120.674 -2.14124 -0.908508 0
M  V30 1292 C 121.668 -1.07898 -1.30592 0
M  V30 1293 O 122.874 -1.26273 -1.28277 0
M  V30 1294 H 119.249 -0.684707 -0.310935 0
M  V30 1295 H 121.22 -2.95634 -0.405374 0
M  V30 1296 C 119.969 -2.72044 -2.16535 0
M  V30 1297 H 119.292 -3.53456 -1.86839 0
M  V30 1298 H 120.732 -3.15311 -2.83469 0
M  V30 1299 C 119.191 -1.66968 -2.92615 0
M  V30 1300 O 119.721 -1.0967 -3.86439 0
M  V30 1301 N 117.927 -1.37923 -2.55784 0
M  V30 1302 H 117.474 -1.84706 -1.79559 0
M  V30 1303 H 117.432 -0.67852 -3.06991 0
M  V30 1304 N 121.204 0.198386 -1.56346 0
M  V30 1305 C 122.615 0.763358 -1.70381 0
M  V30 1306 C 122.966 1.83995 -0.681203 0
M  V30 1307 O 122.091 2.15785 0.16305 0
M  V30 1308 C 122.686 1.39143 -3.08909 0
M  V30 1309 C 121.245 1.90352 -3.2472 0
M  V30 1310 C 120.392 0.772233 -2.6633 0
M  V30 1311 H 123.343 -0.0266377 -1.58678 0
M  V30 1312 H 123.364 2.26076 -3.06055 0
M  V30 1313 H 122.876 0.607638 -3.83314 0
M  V30 1314 H 120.977 2.71461 -2.55225 0
M  V30 1315 H 121.09 2.06757 -4.3219 0
M  V30 1316 H 119.454 1.18566 -2.2542 0
M  V30 1317 H 120.237 0.00073556 -3.433 0
M  V30 1318 N 122.682 1.50554 0.465978 0
M  V30 1319 C 123.959 1.5232 1.22712 0
M  V30 1320 C 124.339 0.270807 2.09356 0
M  V30 1321 O 123.687 -0.745541 2.15995 0
M  V30 1322 C 123.897 2.82175 2.05374 0
M  V30 1323 C 125.245 3.33033 2.6339 0
M  V30 1324 O 126.269 2.83531 2.15612 0
M  V30 1325 O 125.128 4.19336 3.50456 0
M  V30 1326 H 122.222 0.611183 0.557122 0
M  V30 1327 H 124.768 1.62847 0.477381 0
M  V30 1328 H 123.54 3.64797 1.41558 0
M  V30 1329 H 123.163 2.74675 2.87471 0
M  V30 1330 N 124.16 -0.719506 1.40217 0
M  V30 1331 C 125.07 -1.86378 1.42479 0
M  V30 1332 C 126.086 -1.71073 0.317834 0
M  V30 1333 O 127.262 -1.93406 0.561794 0
M  V30 1334 C 124.327 -3.22136 1.28178 0
M  V30 1335 C 123.388 -3.49723 2.48982 0
M  V30 1336 C 122.621 -4.79004 2.35353 0
M  V30 1337 O 122.844 -5.53821 1.36524 0
M  V30 1338 O 121.778 -5.06839 3.2465 0
M  V30 1339 H 125.604 -1.87425 2.38968 0
M  V30 1340 H 123.189 -0.869405 1.21498 0
M  V30 1341 H 125.071 -4.03234 1.22395 0
M  V30 1342 H 123.746 -3.21825 0.347934 0
M  V30 1343 H 122.653 -2.6865 2.60342 0
M  V30 1344 H 123.986 -3.54828 3.41113 0
M  V30 1345 N 125.638 -1.25649 -0.95132 0
M  V30 1346 C 127.054 -1.02542 -1.223 0
M  V30 1347 C 127.254 0.255715 -1.99871 0
M  V30 1348 O 126.31 0.967558 -2.33226 0
M  V30 1349 C 127.623 -2.25065 -1.99415 0
M  V30 1350 C 129.171 -2.29861 -2.12446 0
M  V30 1351 C 129.646 -3.52048 -2.92961 0
M  V30 1352 N 131.137 -3.52465 -3.00538 0
M  V30 1353 C 131.872 -4.43672 -3.63239 0
M  V30 1354 N 131.368 -5.45157 -4.27523 0
M  V30 1355 N 133.161 -4.31346 -3.60412 0
M  V30 1356 H 125.312 -2.07951 -0.432471 0
M  V30 1357 H 127.575 -0.91339 -0.253816 0
M  V30 1358 H 127.281 -3.18194 -1.49817 0
M  V30 1359 H 127.155 -2.28502 -3.00111 0
M  V30 1360 H 129.542 -1.37252 -2.61239 0
M  V30 1361 H 129.623 -2.3044 -1.11044 0
M  V30 1362 H 129.267 -4.44981 -2.44856 0
M  V30 1363 H 129.197 -3.48715 -3.94596 0
M  V30 1364 H 131.688 -2.79056 -2.54826 0
M  V30 1365 H 132.001 -6.10958 -4.73234 0
M  V30 1366 H 130.346 -5.49025 -4.26141 0
M  V30 1367 H 133.537 -3.51288 -3.09377 0
M  V30 1368 H 133.71 -5.02624 -4.0899 0
M  V30 1369 N 127.117 1.15442 -1.07289 0
M  V30 1370 C 128.027 2.23786 -0.704057 0
M  V30 1371 C 129.043 1.7166 0.284413 0
M  V30 1372 O 130.219 2.00972 0.131205 0
M  V30 1373 C 127.284 3.46535 -0.106792 0
M  V30 1374 C 126.345 4.13654 -1.14842 0
M  V30 1375 C 125.578 5.30544 -0.57956 0
M  V30 1376 O 125.801 5.67187 0.604585 0
M  V30 1377 O 124.735 5.87154 -1.32414 0
M  V30 1378 H 128.561 2.57664 -1.60757 0
M  V30 1379 H 126.146 1.23152 -0.845803 0
M  V30 1380 H 128.028 4.20804 0.224048 0
M  V30 1381 H 126.703 3.14407 0.770049 0
M  V30 1382 H 125.61 3.4131 -1.5316 0
M  V30 1383 H 126.943 4.49861 -1.99714 0
M  V30 1384 N 128.595 0.856903 1.32268 0
M  V30 1385 C 129.505 0.306131 2.32594 0
M  V30 1386 C 130.521 -0.577209 1.64147 0
M  V30 1387 O 131.697 -0.477043 1.95669 0
M  V30 1388 C 128.762 -0.494561 3.43154 0
M  V30 1389 C 127.823 0.415186 4.27288 0
M  V30 1390 C 127.056 -0.347387 5.32568 0
M  V30 1391 O 127.279 -1.57708 5.48165 0
M  V30 1392 O 126.213 0.287982 6.01211 0
M  V30 1393 H 130.039 1.13737 2.81598 0
M  V30 1394 H 127.624 0.619902 1.35932 0
M  V30 1395 H 129.506 -0.948944 4.10576 0
M  V30 1396 H 128.181 -1.30257 2.96336 0
M  V30 1397 H 127.088 0.917793 3.62667 0
M  V30 1398 H 128.421 1.18844 4.77637 0
M  V30 1399 N 130.073 -1.45103 0.615059 0
M  V30 1400 C 131.006 -2.27717 -0.148408 0
M  V30 1401 C 131.984 -1.37584 -0.866572 0
M  V30 1402 O 133.168 -1.67017 -0.87393 0
M  V30 1403 C 130.295 -3.16136 -1.21557 0
M  V30 1404 C 129.341 -4.22263 -0.599712 0
M  V30 1405 S 130.174 -5.3215 0.598081 0
M  V30 1406 C 131.33 -6.24137 -0.469484 0
M  V30 1407 H 131.563 -2.92121 0.552483 0
M  V30 1408 H 129.096 -1.49054 0.402778 0
M  V30 1409 H 131.054 -3.67633 -1.82638 0
M  V30 1410 H 129.715 -2.50982 -1.88857 0
M  V30 1411 H 128.908 -4.84081 -1.4029 0
M  V30 1412 H 128.51 -3.73945 -0.063876 0
M  V30 1413 H 130.802 -6.63984 -1.34652 0
M  V30 1414 H 131.745 -7.0801 0.112725 0
M  V30 1415 H 132.153 -5.58971 -0.788168 0
M  V30 1416 N 131.551 -0.354651 -1.53558 0
M  V30 1417 C 132.498 0.496968 -2.25386 0
M  V30 1418 C 133.468 1.0865 -1.25636 0
M  V30 1419 O 134.653 1.12104 -1.54394 0
M  V30 1420 C 131.793 1.63637 -3.03837 0
M  V30 1421 C 130.906 1.07307 -4.18461 0
M  V30 1422 C 130.041 2.18068 -4.84376 0
M  V30 1423 C 129.08 1.59147 -5.91049 0
M  V30 1424 N 128.217 2.63695 -6.50699 0
M  V30 1425 H 133.057 -0.122075 -2.9775 0
M  V30 1426 H 130.594 -0.0720154 -1.46924 0
M  V30 1427 H 132.552 2.30734 -3.47589 0
M  V30 1428 H 131.182 2.22623 -2.33749 0
M  V30 1429 H 130.234 0.292708 -3.79272 0
M  V30 1430 H 131.546 0.602193 -4.95152 0
M  V30 1431 H 130.7 2.93007 -5.31255 0
M  V30 1432 H 129.439 2.68504 -4.07133 0
M  V30 1433 H 128.444 0.827175 -5.43542 0
M  V30 1434 H 129.669 1.09549 -6.70206 0
M  V30 1435 H 127.615 3.13365 -5.76315 0
M  V30 1436 H 127.532 2.21263 -7.22896 0
M  V30 1437 H 128.8 3.3837 -7.02229 0
M  V30 1438 N 133.029 1.57378 -0.0835403 0
M  V30 1439 C 134.275 1.94217 0.583733 0
M  V30 1440 C 134.608 0.964653 1.68547 0
M  V30 1441 O 133.883 -0.00422258 1.945 0
M  V30 1442 C 134.166 3.41253 1.14972 0
M  V30 1443 C 134.019 4.49768 0.0538277 0
M  V30 1444 C 135.338 3.89352 2.05166 0
M  V30 1445 H 132.457 0.706233 0.210724 0
M  V30 1446 H 135.099 1.89392 -0.1519 0
M  V30 1447 H 133.249 3.45496 1.77665 0
M  V30 1448 H 134.921 4.57641 -0.579851 0
M  V30 1449 H 133.164 4.29432 -0.614068 0
M  V30 1450 H 133.835 5.49817 0.490452 0
M  V30 1451 H 136.311 3.87189 1.52393 0
M  V30 1452 H 135.187 4.92822 2.41698 0
M  V30 1453 H 135.448 3.27973 2.96456 0
M  V30 1454 N 134.507 -0.190092 1.56449 0
M  V30 1455 C 135.732 -0.929864 1.85387 0
M  V30 1456 C 136.157 -1.7585 0.667704 0
M  V30 1457 O 135.515 -1.77198 -0.383459 0
M  V30 1458 C 135.563 -1.79773 3.12593 0
M  V30 1459 O 134.667 -2.89713 2.93496 0
M  V30 1460 H 134.008 -0.261574 0.610307 0
M  V30 1461 H 136.538 -0.193896 2.03679 0
M  V30 1462 H 136.548 -2.20139 3.43515 0
M  V30 1463 H 135.223 -1.18892 3.98544 0
M  V30 1464 H 133.8 -2.53065 2.73884 0
M  V30 1465 N 135.985 -1.50799 -0.457987 0
M  V30 1466 C 136.948 -1.7005 -1.53674 0
M  V30 1467 C 137.948 -0.570881 -1.50325 0
M  V30 1468 O 139.138 -0.838126 -1.52712 0
M  V30 1469 C 136.27 -1.73788 -2.93276 0
M  V30 1470 H 137.463 -2.66306 -1.37917 0
M  V30 1471 H 135.016 -1.40477 -0.685271 0
M  V30 1472 H 135.751 -0.792717 -3.14462 0
M  V30 1473 H 135.536 -2.55864 -2.97113 0
M  V30 1474 H 137.026 -1.90591 -3.71571 0
M  V30 1475 N 137.463 0.71206 -1.40597 0
M  V30 1476 C 138.41 1.82613 -1.41142 0
M  V30 1477 C 139.38 1.63925 -0.267903 0
M  V30 1478 O 140.565 1.85009 -0.466495 0
M  V30 1479 C 137.705 3.20354 -1.28324 0
M  V30 1480 C 136.818 3.50589 -2.52411 0
M  V30 1481 C 135.953 4.77855 -2.32009 0
M  V30 1482 C 134.992 5.01005 -3.51654 0
M  V30 1483 N 134.129 6.19487 -3.30425 0
M  V30 1484 H 138.969 1.81482 -2.36365 0
M  V30 1485 H 136.506 0.886475 -1.17388 0
M  V30 1486 H 138.464 3.99899 -1.18899 0
M  V30 1487 H 137.094 3.20705 -0.367189 0
M  V30 1488 H 136.146 2.65573 -2.72351 0
M  V30 1489 H 137.458 3.63604 -3.41458 0
M  V30 1490 H 136.612 5.65424 -2.19956 0
M  V30 1491 H 135.351 4.67056 -1.40392 0
M  V30 1492 H 134.356 4.1189 -3.64179 0
M  V30 1493 H 135.581 5.13674 -4.44202 0
M  V30 1494 H 133.527 6.09932 -2.41494 0
M  V30 1495 H 133.444 6.33194 -4.13039 0
M  V30 1496 H 134.712 7.09834 -3.22113 0
M  V30 1497 N 138.941 1.26152 0.944643 0
M  V30 1498 C 139.871 1.09902 2.06019 0
M  V30 1499 C 140.852 0.00519538 1.70099 0
M  V30 1500 O 142.037 0.176583 1.93396 0
M  V30 1501 C 139.167 0.727562 3.39594 0
M  V30 1502 C 138.121 1.77274 3.89561 0
M  V30 1503 C 137.447 1.25569 5.19747 0
M  V30 1504 C 138.747 3.17357 4.14827 0
M  V30 1505 H 140.441 2.03217 2.19871 0
M  V30 1506 H 137.987 0.978452 1.05652 0
M  V30 1507 H 139.94 0.600777 4.17095 0
M  V30 1508 H 138.664 -0.241287 3.25707 0
M  V30 1509 H 137.323 1.88814 3.14237 0
M  V30 1510 H 136.971 0.276783 5.02238 0
M  V30 1511 H 136.671 1.95433 5.54148 0
M  V30 1512 H 138.195 1.1415 5.99835 0
M  V30 1513 H 139.609 3.08914 4.82954 0
M  V30 1514 H 138.006 3.84781 4.60504 0
M  V30 1515 H 139.076 3.63673 3.20734 0
M  V30 1516 N 140.419 -1.14872 1.07899 0
M  V30 1517 C 141.666 -1.85789 0.805532 0
M  V30 1518 C 141.994 -1.82649 -0.668561 0
M  V30 1519 O 141.249 -1.24858 -1.50695 0
M  V30 1520 C 141.548 -3.34223 1.26609 0
M  V30 1521 C 141.214 -3.57555 2.74709 0
M  V30 1522 C 139.876 -3.63631 3.1516 0
M  V30 1523 C 142.228 -3.66803 3.70277 0
M  V30 1524 C 139.556 -3.76473 4.49983 0
M  V30 1525 C 141.908 -3.8117 5.04869 0
M  V30 1526 C 140.572 -3.85494 5.44932 0
M  V30 1527 H 139.842 -0.679849 0.294765 0
M  V30 1528 H 142.489 -1.3572 1.35101 0
M  V30 1529 H 140.794 -3.86536 0.640103 0
M  V30 1530 H 142.491 -3.87511 1.03132 0
M  V30 1531 H 139.081 -3.5347 2.42398 0
M  V30 1532 H 143.265 -3.61404 3.40149 0
M  V30 1533 H 138.521 -3.7808 4.80484 0
M  V30 1534 H 142.695 -3.87268 5.78789 0
M  V30 1535 H 140.322 -3.95197 6.49403 0
M  V30 1536 N 141.898 -0.863906 -1.31812 0
M  V30 1537 C 143.147 -0.46801 -1.96195 0
M  V30 1538 C 143.46 0.983474 -1.69077 0
M  V30 1539 O 144.666 1.48523 -2.27273 0
M  V30 1540 C 143.122 -0.785995 -3.51212 0
M  V30 1541 C 142.73 -2.25383 -3.87178 0
M  V30 1542 C 144.474 -0.458274 -4.22019 0
M  V30 1543 C 142.381 -2.51455 -5.3528 0
M  V30 1544 H 141.311 -0.171283 -0.734287 0
M  V30 1545 H 143.962 -1.05597 -1.50072 0
M  V30 1546 H 142.344 -0.127359 -3.95795 0
M  V30 1547 H 143.518 -2.95502 -3.53575 0
M  V30 1548 H 141.833 -2.54698 -3.2942 0
M  V30 1549 H 144.43 -0.630369 -5.30971 0
M  V30 1550 H 144.773 0.600834 -4.11941 0
M  V30 1551 H 145.306 -1.07319 -3.8305 0
M  V30 1552 H 142.045 -3.56025 -5.50387 0
M  V30 1553 H 141.565 -1.85923 -5.70257 0
M  V30 1554 H 143.244 -2.35874 -6.02472 0
M  V30 1555 N 143.376 1.44774 -0.622745 0
M  V30 1556 C 144.622 2.0242 -0.124083 0
M  V30 1557 C 144.955 1.4881 1.24777 0
M  V30 1558 O 144.23 0.668799 1.8264 0
M  V30 1559 C 144.513 3.59957 -0.101619 0
M  V30 1560 C 144.366 4.23867 -1.50521 0
M  V30 1561 C 145.685 4.36284 0.578272 0
M  V30 1562 H 142.804 0.735528 -0.0465645 0
M  V30 1563 H 145.446 1.72447 -0.797617 0
M  V30 1564 H 143.596 3.85623 0.471934 0
M  V30 1565 H 145.268 4.09336 -2.12701 0
M  V30 1566 H 143.511 3.81684 -2.06154 0
M  V30 1567 H 144.182 5.32843 -1.4416 0
M  V30 1568 H 146.658 4.16001 0.0906057 0
M  V30 1569 H 145.534 5.46004 0.563149 0
M  V30 1570 H 145.795 4.10271 1.64713 0
M  V30 1571 N 144.854 0.36279 1.53368 0
M  V30 1572 C 145.764 -0.492994 2.29362 0
M  V30 1573 C 146.78 -1.09507 1.35219 0
M  V30 1574 O 147.956 -1.10662 1.68273 0
M  V30 1575 C 145.021 -1.61855 3.066 0
M  V30 1576 C 144.082 -1.04429 4.16405 0
M  V30 1577 C 143.315 -2.11621 4.89951 0
M  V30 1578 O 143.538 -3.32684 4.63333 0
M  V30 1579 O 142.472 -1.74835 5.75948 0
M  V30 1580 H 146.298 0.125331 3.03441 0
M  V30 1581 H 143.883 0.127253 1.48857 0
M  V30 1582 H 145.765 -2.27302 3.54841 0
M  V30 1583 H 144.44 -2.22233 2.3536 0
M  V30 1584 H 143.347 -0.353819 3.72423 0
M  V30 1585 H 144.68 -0.485113 4.89804 0
M  V30 1586 N 146.332 -1.57332 0.0918853 0
M  V30 1587 C 147.557 -1.98995 -0.584442 0
M  V30 1588 C 147.982 -0.970528 -1.61128 0
M  V30 1589 O 147.34 0.0613904 -1.81196 0
M  V30 1590 C 147.388 -3.39636 -1.21161 0
M  V30 1591 O 146.492 -3.40447 -2.32744 0
M  V30 1592 H 145.833 -0.647165 -0.148572 0
M  V30 1593 H 148.363 -2.03873 0.172347 0
M  V30 1594 H 148.373 -3.7726 -1.55367 0
M  V30 1595 H 147.048 -4.13356 -0.459313 0
M  V30 1596 H 145.625 -3.14614 -2.0018 0
M  V30 1597 N 147.81 0.181792 -1.56548 0
M  V30 1598 C 148.758 1.24461 -1.965 0
M  V30 1599 C 149.752 1.464 -0.852261 0
M  V30 1600 O 150.958 1.47103 -1.03733 0
M  V30 1601 H 147.333 0.418138 -0.625031 0
M  V30 1602 H 149.304 0.880714 -2.85107 0
M  V30 1603 C 148.053 2.57891 -2.33212 0
M  V30 1604 H 147.376 2.41829 -3.18369 0
M  V30 1605 H 148.816 3.3097 -2.65019 0
M  V30 1606 C 147.275 3.15871 -1.17163 0
M  V30 1607 O 147.805 3.9913 -0.453708 0
M  V30 1608 N 146.011 2.74808 -0.944936 0
M  V30 1609 H 145.558 2.07205 -1.53049 0
M  V30 1610 H 145.516 3.13939 -0.170286 0
M  V30 1611 N 149.288 1.51039 0.449983 0
M  V30 1612 C 150.513 1.6715 1.22783 0
M  V30 1613 C 150.938 0.363081 1.84563 0
M  V30 1614 O 150.296 -0.675433 1.68249 0
M  V30 1615 C 150.344 2.77985 2.29689 0
M  V30 1616 O 149.448 2.40707 3.34864 0
M  V30 1617 H 148.789 0.557746 0.360299 0
M  V30 1618 H 151.319 1.97535 0.533005 0
M  V30 1619 H 151.329 3.01693 2.74673 0
M  V30 1620 H 150.004 3.72935 1.84098 0
M  V30 1621 H 148.581 2.27523 2.95445 0
M  V30 1622 N 150.766 -0.704594 1.40972 0
M  V30 1623 C 151.991 -1.49858 1.43378 0
M  V30 1624 C 152.416 -1.88061 0.038184 0
M  V30 1625 O 151.774 -1.5402 -0.956425 0
M  V30 1626 C 151.822 -2.74333 2.34038 0
M  V30 1627 O 150.926 -3.7147 1.7912 0
M  V30 1628 H 150.267 -0.45139 0.486974 0
M  V30 1629 H 152.797 -0.866832 1.8533 0
M  V30 1630 H 152.807 -3.22741 2.49604 0
M  V30 1631 H 151.482 -2.45863 3.35446 0
M  V30 1632 H 150.059 -3.30363 1.72958 0
M  V30 1633 N 152.244 -1.26651 -0.937939 0
M  V30 1634 C 153.469 -1.15279 -1.72411 0
M  V30 1635 C 153.894 0.287866 -1.85884 0
M  V30 1636 O 153.252 1.20855 -1.35143 0
M  V30 1637 C 153.3 -1.83028 -3.10698 0
M  V30 1638 O 152.404 -1.12128 -3.96864 0
M  V30 1639 H 151.745 -0.401504 -0.528858 0
M  V30 1640 H 154.275 -1.67531 -1.1745 0
M  V30 1641 H 154.285 -1.89981 -3.6107 0
M  V30 1642 H 152.96 -2.87833 -3.00208 0
M  V30 1643 H 151.537 -1.13173 -3.55312 0
M  V30 1644 N 153.722 1.14298 -1.08507 0
M  V30 1645 C 154.947 1.8976 -0.837001 0
M  V30 1646 C 155.372 1.78097 0.605228 0
M  V30 1647 O 154.73 1.12188 1.4242 0
M  V30 1648 C 154.778 3.37685 -1.26495 0
M  V30 1649 O 153.882 4.10281 -0.417514 0
M  V30 1650 H 153.223 0.590365 -0.303917 0
M  V30 1651 H 155.753 1.44672 -1.44676 0
M  V30 1652 H 155.763 3.88501 -1.24625 0
M  V30 1653 H 154.438 3.45492 -2.31534 0
M  V30 1654 H 153.015 3.69536 -0.499722 0
M  V30 1655 N 155.201 0.870884 1.31352 0
M  V30 1656 C 156.429 0.49677 2.00848 0
M  V30 1657 C 156.844 -0.910998 1.65367 0
M  V30 1658 O 156.201 -1.59696 0.883374 0
M  V30 1659 C 156.252 0.645308 3.55694 0
M  V30 1660 O 155.973 1.99764 3.89905 0
M  V30 1661 C 157.474 0.272326 4.42463 0
M  V30 1662 H 154.694 0.193462 0.642506 0
M  V30 1663 H 157.238 1.1723 1.67563 0
M  V30 1664 H 155.393 0.0173176 3.87396 0
M  V30 1665 H 155.807 2.00607 4.84621 0
M  V30 1666 H 157.281 0.427208 5.50344 0
M  V30 1667 H 157.758 -0.788587 4.32062 0
M  V30 1668 H 158.364 0.876054 4.1618 0
M  V30 1669 N 156.679 -1.44442 0.630414 0
M  V30 1670 C 158.095 -1.56832 0.295973 0
M  V30 1671 C 158.295 -1.61806 -1.20088 0
M  V30 1672 O 157.351 -1.5607 -1.9849 0
M  V30 1673 C 158.664 -2.84031 0.987264 0
M  V30 1674 C 160.212 -2.97742 0.96534 0
M  V30 1675 C 160.687 -4.27743 1.63708 0
M  V30 1676 N 162.178 -4.34555 1.60364 0
M  V30 1677 C 162.913 -5.33862 2.09234 0
M  V30 1678 N 162.409 -6.39578 2.66292 0
M  V30 1679 N 164.202 -5.25366 1.99867 0
M  V30 1680 H 156.353 -1.39457 1.60205 0
M  V30 1681 H 158.616 -0.668237 0.672431 0
M  V30 1682 H 158.322 -2.86338 2.04215 0
M  V30 1683 H 158.196 -3.73534 0.524588 0
M  V30 1684 H 160.583 -2.94989 -0.0810639 0
M  V30 1685 H 160.664 -2.09589 1.4665 0
M  V30 1686 H 160.308 -4.31255 2.68293 0
M  V30 1687 H 160.238 -5.14752 1.11076 0
M  V30 1688 H 162.729 -3.58772 1.18705 0
M  V30 1689 H 163.042 -7.11637 3.01317 0
M  V30 1690 H 161.387 -6.40265 2.70343 0
M  V30 1691 H 164.578 -4.41688 1.55013 0
M  V30 1692 H 164.751 -6.02606 2.38265 0
M  V30 1693 N 158.157 -0.370918 -1.53173 0
M  V30 1694 C 159.382 0.220293 -2.06227 0
M  V30 1695 C 159.807 1.41243 -1.24225 0
M  V30 1696 O 159.165 1.79387 -0.262645 0
M  V30 1697 C 159.213 0.586663 -3.55796 0
M  V30 1698 O 158.317 1.68317 -3.76488 0
M  V30 1699 H 157.658 0.0308099 -0.663285 0
M  V30 1700 H 160.188 -0.533068 -1.97534 0
M  V30 1701 H 160.198 0.85617 -3.98916 0
M  V30 1702 H 158.873 -0.285013 -4.14922 0
M  V30 1703 H 157.45 1.40881 -3.45264 0
M  V30 1704 N 159.635 1.57281 -0.100228 0
M  V30 1705 C 160.598 2.13158 0.842398 0
M  V30 1706 C 161.598 1.06202 1.20738 0
M  V30 1707 O 162.788 1.32066 1.13597 0
M  V30 1708 C 159.92 2.65639 2.13655 0
M  V30 1709 H 161.113 2.97766 0.357114 0
M  V30 1710 H 158.666 1.5559 0.148823 0
M  V30 1711 H 159.401 1.84566 2.66657 0
M  V30 1712 H 159.186 3.43844 1.88451 0
M  V30 1713 H 160.676 3.08846 2.81077 0
M  V30 1714 N 161.113 -0.173488 1.56642 0
M  V30 1715 C 162.359 -0.891784 1.8214 0
M  V30 1716 C 162.692 -1.8199 0.677736 0
M  V30 1717 O 161.967 -1.91842 -0.320446 0
M  V30 1718 C 162.25 -1.68933 3.18015 0
M  V30 1719 C 162.103 -0.784487 4.42906 0
M  V30 1720 C 163.422 -2.65748 3.50808 0
M  V30 1721 H 160.541 -0.322761 0.662567 0
M  V30 1722 H 163.183 -0.158095 1.89341 0
M  V30 1723 H 161.333 -2.31482 3.12007 0
M  V30 1724 H 163.005 -0.172046 4.60979 0
M  V30 1725 H 161.248 -0.0924117 4.33702 0
M  V30 1726 H 161.919 -1.37799 5.34524 0
M  V30 1727 H 164.395 -2.13327 3.57255 0
M  V30 1728 H 163.271 -3.18619 4.4696 0
M  V30 1729 H 163.532 -3.45842 2.75401 0
M  V30 1730 N 162.591 -1.51276 -0.441967 0
M  V30 1731 C 163.868 -1.54252 -1.20273 0
M  V30 1732 C 164.248 -0.30408 -2.08898 0
M  V30 1733 O 163.596 0.711084 -2.17154 0
M  V30 1734 C 163.806 -2.85406 -2.00859 0
M  V30 1735 C 165.154 -3.37181 -2.58059 0
M  V30 1736 O 166.178 -2.86925 -2.11074 0
M  V30 1737 O 165.037 -4.24858 -3.43741 0
M  V30 1738 H 162.131 -0.619969 -0.547328 0
M  V30 1739 H 164.677 -1.63586 -0.451413 0
M  V30 1740 H 163.449 -3.67003 -1.35736 0
M  V30 1741 H 163.072 -2.79213 -2.83065 0
M  V30 1742 N 164.069 0.697108 -1.41344 0
M  V30 1743 C 165.002 1.82134 -1.37486 0
M  V30 1744 C 165.98 1.60784 -0.242351 0
M  V30 1745 O 167.164 1.83553 -0.429012 0
M  V30 1746 C 164.291 3.18788 -1.14421 0
M  V30 1747 C 163.337 3.58932 -2.3037 0
M  V30 1748 S 164.17 3.63916 -3.92843 0
M  V30 1749 C 165.326 5.03298 -3.72078 0
M  V30 1750 H 165.559 1.85129 -2.32625 0
M  V30 1751 H 163.092 0.865671 -1.2785 0
M  V30 1752 H 165.05 3.97677 -1.018 0
M  V30 1753 H 163.711 3.13404 -0.20905 0
M  V30 1754 H 162.904 4.58202 -2.09922 0
M  V30 1755 H 162.506 2.87347 -2.39391 0
M  V30 1756 H 164.798 5.90753 -3.31688 0
M  V30 1757 H 165.741 5.28788 -4.70945 0
M  V30 1758 H 166.149 4.74764 -3.05384 0
M  V30 1759 N 165.547 1.27147 0.931209 0
M  V30 1760 C 166.51 1.09615 2.01289 0
M  V30 1761 C 167.51 0.0412581 1.60747 0
M  V30 1762 O 168.7 0.285545 1.71844 0
M  V30 1763 C 165.832 0.669447 3.34262 0
M  V30 1764 H 167.025 2.05662 2.18273 0
M  V30 1765 H 164.578 1.09885 1.11153 0
M  V30 1766 H 165.313 -0.292572 3.22978 0
M  V30 1767 H 165.098 1.43127 3.65044 0
M  V30 1768 H 166.588 0.568921 4.13706 0
M  V30 1769 N 167.025 -1.13721 1.09112 0
M  V30 1770 C 168.265 -1.86576 0.834801 0
M  V30 1771 C 168.629 -1.81435 -0.628122 0
M  V30 1772 O 169.83 -2.49497 -1.00024 0
M  V30 1773 C 168.101 -3.30872 1.35124 0
M  V30 1774 S 169.66 -4.21257 1.22832 0
M  V30 1775 H 166.478 -0.643666 0.302017 0
M  V30 1776 H 169.08 -1.37085 1.39385 0
M  V30 1777 H 167.784 -3.32166 2.41027 0
M  V30 1778 H 167.315 -3.85423 0.788185 0
M  V30 1779 H 169.33 -4.95884 0.177191 0
M  V30 1780 N 168.503 -0.877838 -1.30888 0
M  V30 1781 C 169.728 -0.506629 -2.01117 0
M  V30 1782 C 170.153 0.895564 -1.65412 0
M  V30 1783 O 169.511 1.5923 -0.866922 0
M  V30 1784 C 169.559 -0.680223 -3.54126 0
M  V30 1785 O 168.663 0.277033 -4.11468 0
M  V30 1786 H 168.004 -0.200518 -0.633 0
M  V30 1787 H 170.534 -1.18342 -1.66902 0
M  V30 1788 H 170.544 -0.5765 -4.03907 0
M  V30 1789 H 169.219 -1.70261 -3.79452 0
M  V30 1790 H 167.796 0.127606 -3.72682 0
M  V30 1791 N 169.982 1.44106 -0.638065 0
M  V30 1792 C 171.228 2.02277 -0.145546 0
M  V30 1793 C 171.561 1.50125 1.23191 0
M  V30 1794 O 170.836 0.688133 1.8192 0
M  V30 1795 C 171.119 3.59829 -0.139791 0
M  V30 1796 C 170.972 4.22247 -1.55008 0
M  V30 1797 C 172.291 4.36873 0.531966 0
M  V30 1798 H 169.41 0.734992 -0.0543632 0
M  V30 1799 H 172.052 1.71592 -0.815863 0
M  V30 1800 H 170.202 3.86102 0.431007 0
M  V30 1801 H 171.874 4.07057 -2.1703 0
M  V30 1802 H 170.117 3.79476 -2.10191 0
M  V30 1803 H 170.788 5.31284 -1.49804 0
M  V30 1804 H 173.264 4.16074 0.0464781 0
M  V30 1805 H 172.14 5.4657 0.505206 0
M  V30 1806 H 172.401 4.11995 1.60352 0
M  V30 1807 N 171.46 0.379036 1.52974 0
M  V30 1808 C 172.39 -0.452706 2.29069 0
M  V30 1809 C 173.371 -1.07237 1.32039 0
M  V30 1810 O 174.556 -1.08708 1.60923 0
M  V30 1811 C 171.686 -1.5856 3.08992 0
M  V30 1812 C 170.64 -1.0925 4.13822 0
M  V30 1813 C 169.966 -2.31668 4.81907 0
M  V30 1814 C 171.266 -0.167702 5.22031 0
M  V30 1815 H 172.96 0.182181 2.98845 0
M  V30 1816 H 170.506 0.0890592 1.43724 0
M  V30 1817 H 172.459 -2.1742 3.6098 0
M  V30 1818 H 171.183 -2.24792 2.36931 0
M  V30 1819 H 169.842 -0.526494 3.628 0
M  V30 1820 H 169.49 -2.96386 4.06404 0
M  V30 1821 H 169.19 -1.9934 5.52754 0
M  V30 1822 H 170.714 -2.91189 5.36695 0
M  V30 1823 H 172.128 -0.664186 5.6944 0
M  V30 1824 H 170.525 0.0653265 6.00064 0
M  V30 1825 H 171.595 0.786347 4.78482 0
M  V30 1826 N 172.938 -1.57226 0.108567 0
M  V30 1827 C 174.186 -1.94448 -0.550853 0
M  V30 1828 C 174.507 -0.992074 -1.67878 0
M  V30 1829 O 173.777 -0.0465 -1.95845 0
M  V30 1830 H 172.357 -0.717897 -0.206479 0
M  V30 1831 H 175.019 -1.94112 0.175062 0
M  V30 1832 H 174.115 -2.97218 -0.952259 0
M  V30 1833 N 174.416 0.165178 -1.56732 0
M  V30 1834 C 175.662 0.882112 -1.82611 0
M  V30 1835 C 175.995 1.81628 -0.687378 0
M  V30 1836 O 175.27 1.92009 0.310267 0
M  V30 1837 C 175.553 1.67245 -3.18906 0
M  V30 1838 C 175.406 0.760987 -4.43316 0
M  V30 1839 C 176.725 2.63884 -3.52212 0
M  V30 1840 H 173.844 0.319242 -0.664269 0
M  V30 1841 H 176.486 0.148052 -1.89422 0
M  V30 1842 H 174.636 2.29824 -3.1323 0
M  V30 1843 H 176.308 0.147596 -4.61064 0
M  V30 1844 H 174.551 0.0694102 -4.33744 0
M  V30 1845 H 175.222 1.34962 -5.35247 0
M  V30 1846 H 177.698 2.11429 -3.58381 0
M  V30 1847 H 176.574 3.16245 -4.48643 0
M  V30 1848 H 176.835 3.44377 -2.77231 0
M  V30 1849 N 175.894 1.51508 0.433938 0
M  V30 1850 C 176.857 1.72473 1.50949 0
M  V30 1851 C 177.857 0.594725 1.49398 0
M  V30 1852 O 179.047 0.862315 1.5136 0
M  V30 1853 C 176.179 1.78431 2.90474 0
M  V30 1854 H 177.372 2.68467 1.33662 0
M  V30 1855 H 174.925 1.41549 0.662836 0
M  V30 1856 H 175.66 0.842645 3.13161 0
M  V30 1857 H 175.445 2.60558 2.93005 0
M  V30 1858 H 176.935 1.96479 3.68491 0
M  V30 1859 N 177.372 -0.689602 1.41712 0
M  V30 1860 C 178.304 -1.815 1.39966 0
M  V30 1861 C 179.317 -1.59995 0.300917 0
M  V30 1862 O 180.506 -1.69387 0.563039 0
M  V30 1863 C 177.606 -3.18364 1.16179 0
M  V30 1864 C 176.779 -3.66847 2.38206 0
M  V30 1865 C 175.838 -4.82398 2.10186 0
M  V30 1866 O 174.864 -4.93706 2.83272 0
M  V30 1867 N 176.066 -5.70064 1.0958 0
M  V30 1868 H 178.831 -1.83488 2.36965 0
M  V30 1869 H 176.392 -0.872149 1.36401 0
M  V30 1870 H 178.384 -3.93301 0.953756 0
M  V30 1871 H 176.954 -3.11365 0.27756 0
M  V30 1872 H 176.174 -2.82751 2.74673 0
M  V30 1873 H 177.462 -3.95978 3.19498 0
M  V30 1874 H 176.86 -5.63565 0.491019 0
M  V30 1875 H 175.417 -6.44874 0.947656 0
M  V30 1876 N 178.85 -1.27639 -0.924453 0
M  V30 1877 C 179.78 -1.13166 -2.04244 0
M  V30 1878 C 180.761 -0.032256 -1.70069 0
M  V30 1879 O 181.946 -0.207328 -1.9309 0
M  V30 1880 C 179.076 -0.781496 -3.38393 0
M  V30 1881 C 178.03 -1.83449 -3.86692 0
M  V30 1882 C 177.356 -1.33822 -5.17683 0
M  V30 1883 C 178.656 -3.23917 -4.09726 0
M  V30 1884 H 180.35 -2.06689 -2.1661 0
M  V30 1885 H 177.896 -0.995136 -1.04082 0
M  V30 1886 H 179.849 -0.667057 -4.16087 0
M  V30 1887 H 178.573 0.189439 -3.2605 0
M  V30 1888 H 177.232 -1.93789 -3.11193 0
M  V30 1889 H 176.88 -0.35665 -5.01734 0
M  V30 1890 H 176.58 -2.04224 -5.50968 0
M  V30 1891 H 178.104 -1.23679 -5.97943 0
M  V30 1892 H 179.518 -3.16559 -4.77978 0
M  V30 1893 H 177.915 -3.92059 -4.54324 0
M  V30 1894 H 178.985 -3.68729 -3.14908 0
M  V30 1895 N 180.328 1.1314 -1.09713 0
M  V30 1896 C 181.605 1.80762 -0.747302 0
M  V30 1897 C 181.985 1.96663 0.767265 0
M  V30 1898 O 181.333 1.53706 1.69076 0
M  V30 1899 C 181.543 3.15606 -1.48975 0
M  V30 1900 C 182.891 3.90914 -1.65746 0
M  V30 1901 O 183.915 3.25239 -1.45251 0
M  V30 1902 O 182.774 5.08718 -1.9967 0
M  V30 1903 H 179.868 0.782103 -0.268782 0
M  V30 1904 H 182.414 1.20041 -1.19951 0
M  V30 1905 H 181.186 2.99278 -2.52088 0
M  V30 1906 H 180.809 3.84029 -1.02991 0
M  V30 1907 N 181.806 0.884767 1.30421 0
M  V30 1908 C 183.031 0.517288 2.00845 0
M  V30 1909 C 183.456 -0.886779 1.65885 0
M  V30 1910 O 182.814 -1.58768 0.875354 0
M  V30 1911 C 182.862 0.698994 3.5376 0
M  V30 1912 O 181.966 -0.255208 4.1161 0
M  V30 1913 H 181.307 0.203872 0.631927 0
M  V30 1914 H 183.837 1.19225 1.66272 0
M  V30 1915 H 183.847 0.597912 4.03595 0
M  V30 1916 H 182.522 1.72271 3.78544 0
M  V30 1917 H 181.099 -0.10784 3.72744 0
M  V30 1918 N 183.284 -1.43765 0.645699 0
M  V30 1919 C 184.53 -2.02197 0.156271 0
M  V30 1920 C 184.863 -1.50776 -1.22393 0
M  V30 1921 O 184.138 -0.697771 -1.81553 0
M  V30 1922 C 184.421 -3.59749 0.158872 0
M  V30 1923 C 184.274 -4.21419 1.57245 0
M  V30 1924 C 185.593 -4.37149 -0.50879 0
M  V30 1925 H 182.712 -0.734694 0.0582602 0
M  V30 1926 H 185.354 -1.71157 0.824951 0
M  V30 1927 H 183.504 -3.86325 -0.410525 0
M  V30 1928 H 185.176 -4.059 2.19186 0
M  V30 1929 H 183.419 -3.78356 2.122 0
M  V30 1930 H 184.09 -5.30482 1.52619 0
M  V30 1931 H 186.566 -4.16093 -0.024412 0
M  V30 1932 H 185.442 -5.4683 -0.476213 0
M  V30 1933 H 185.703 -4.12839 -1.58165 0
M  V30 1934 N 184.763 -0.387143 -1.52771 0
M  V30 1935 C 186.012 0.19697 -2.00736 0
M  V30 1936 C 186.325 1.48082 -1.27793 0
M  V30 1937 O 187.531 2.14485 -1.66458 0
M  V30 1938 C 185.987 0.401568 -3.57653 0
M  V30 1939 C 185.595 -0.868907 -4.39493 0
M  V30 1940 C 187.339 0.942164 -4.13912 0
M  V30 1941 C 185.246 -0.632705 -5.88006 0
M  V30 1942 H 184.176 0.0773827 -0.750019 0
M  V30 1943 H 186.827 -0.50921 -1.76293 0
M  V30 1944 H 185.209 1.16954 -3.78335 0
M  V30 1945 H 186.383 -1.64133 -4.30577 0
M  V30 1946 H 184.698 -1.33429 -3.94443 0
M  V30 1947 H 187.295 1.13455 -5.22525 0
M  V30 1948 H 187.638 1.9106 -3.69867 0
M  V30 1949 H 188.171 0.233814 -3.97112 0
M  V30 1950 H 184.91 -1.57208 -6.36369 0
M  V30 1951 H 184.43 0.100825 -5.99715 0
M  V30 1952 H 186.109 -0.26642 -6.46451 0
M  V30 1953 N 186.241 1.57166 -0.116904 0
M  V30 1954 C 187.49 1.94298 0.541407 0
M  V30 1955 C 187.803 1.00236 1.67964 0
M  V30 1956 O 189.009 1.26826 2.40057 0
M  V30 1957 C 187.465 3.45306 1.01449 0
M  V30 1958 C 187.073 4.47899 -0.0951738 0
M  V30 1959 C 188.817 3.91361 1.6443 0
M  V30 1960 C 186.724 5.90083 0.394491 0
M  V30 1961 H 185.654 0.725308 0.206019 0
M  V30 1962 H 188.305 1.82446 -0.196419 0
M  V30 1963 H 186.687 3.52385 1.80667 0
M  V30 1964 H 187.861 4.52486 -0.871374 0
M  V30 1965 H 186.176 4.11583 -0.631505 0
M  V30 1966 H 188.773 4.95004 2.02176 0
M  V30 1967 H 189.116 3.3122 2.52189 0
M  V30 1968 H 189.649 3.87073 0.917559 0
M  V30 1969 H 186.388 6.53974 -0.447004 0
M  V30 1970 H 185.908 5.88921 1.13722 0
M  V30 1971 H 187.587 6.41307 0.856399 0
M  V30 1972 N 187.719 -0.156864 1.56817 0
M  V30 1973 C 188.682 -1.17781 1.96622 0
M  V30 1974 C 189.682 -1.36401 0.851555 0
M  V30 1975 O 190.872 -1.33561 1.11836 0
M  V30 1976 C 188.004 -2.54008 2.27361 0
M  V30 1977 H 189.197 -0.836564 2.87996 0
M  V30 1978 H 186.75 -0.39985 1.51099 0
M  V30 1979 H 187.485 -2.9312 1.38748 0
M  V30 1980 H 187.27 -2.41856 3.08623 0
M  V30 1981 H 188.76 -3.27558 2.59029 0
M  V30 1982 N 189.197 -1.51736 -0.425897 0
M  V30 1983 C 190.422 -1.69082 -1.20108 0
M  V30 1984 C 190.847 -0.392398 -1.83962 0
M  V30 1985 O 190.205 0.64858 -1.69302 0
M  V30 1986 C 190.253 -2.81604 -2.25237 0
M  V30 1987 O 189.357 -2.46004 -3.30992 0
M  V30 1988 H 188.698 -0.563408 -0.35138 0
M  V30 1989 H 191.228 -1.98358 -0.501512 0
M  V30 1990 H 191.238 -3.06025 -2.69838 0
M  V30 1991 H 189.913 -3.75817 -1.78142 0
M  V30 1992 H 188.49 -2.32195 -2.91787 0
M  V30 1993 N 190.675 0.682077 -1.42076 0
M  V30 1994 C 192.086 1.26246 -1.37546 0
M  V30 1995 C 192.437 1.96092 -0.0651481 0
M  V30 1996 O 191.562 1.99587 0.836297 0
M  V30 1997 C 192.157 2.29594 -2.49143 0
M  V30 1998 C 190.716 2.83175 -2.47969 0
M  V30 1999 C 189.863 1.57395 -2.28303 0
M  V30 2000 H 192.814 0.475937 -1.51395 0
M  V30 2001 H 192.835 3.11175 -2.18976 0
M  V30 2002 H 192.347 1.78729 -3.44496 0
M  V30 2003 H 190.448 3.3818 -1.56413 0
M  V30 2004 H 190.561 3.32687 -3.44755 0
M  V30 2005 H 188.925 1.83699 -1.76428 0
M  V30 2006 H 189.708 1.08507 -3.25701 0
M  V30 2007 N 192.153 1.28127 0.917671 0
M  V30 2008 C 193.564 1.13622 1.48145 0
M  V30 2009 C 193.915 -0.275207 1.9426 0
M  V30 2010 O 193.04 -1.1691 1.82102 0
M  V30 2011 C 193.635 2.05648 2.69248 0
M  V30 2012 C 192.194 1.95219 3.21818 0
M  V30 2013 C 191.341 1.97618 1.94532 0
M  V30 2014 H 194.292 1.40874 0.730772 0
M  V30 2015 H 194.313 1.61818 3.44377 0
M  V30 2016 H 193.825 3.08365 2.35653 0
M  V30 2017 H 191.926 0.955244 3.60147 0
M  V30 2018 H 192.039 2.81976 3.87333 0
M  V30 2019 H 190.403 1.41973 2.11461 0
M  V30 2020 H 191.186 3.02007 1.63238 0
M  V30 2021 N 193.631 -1.12557 1.10312 0
M  V30 2022 C 194.88 -1.83395 0.839588 0
M  V30 2023 C 195.193 -1.84939 -0.636929 0
M  V30 2024 O 196.399 -2.51761 -1.01631 0
M  V30 2025 C 194.855 -3.29303 1.45215 0
M  V30 2026 C 194.463 -3.36122 2.96186 0
M  V30 2027 C 196.207 -4.05121 1.26796 0
M  V30 2028 C 194.114 -4.76357 3.50483 0
M  V30 2029 H 193.044 -0.687133 0.310425 0
M  V30 2030 H 195.695 -1.26746 1.32694 0
M  V30 2031 H 194.077 -3.85812 0.892469 0
M  V30 2032 H 195.251 -2.89559 3.58458 0
M  V30 2033 H 193.566 -2.73776 3.13745 0
M  V30 2034 H 196.163 -5.08668 1.64806 0
M  V30 2035 H 196.506 -4.15773 0.209409 0
M  V30 2036 H 197.039 -3.54967 1.79563 0
M  V30 2037 H 193.778 -4.70899 4.55998 0
M  V30 2038 H 193.298 -5.23377 2.92978 0
M  V30 2039 H 194.977 -5.45294 3.48228 0
M  V30 2040 N 195.109 -0.891671 -1.2995 0
M  V30 2041 C 196.019 -0.367691 -2.31701 0
M  V30 2042 C 197.035 0.533486 -1.6562 0
M  V30 2043 O 198.211 0.424997 -1.96865 0
M  V30 2044 C 195.276 0.403406 -3.44345 0
M  V30 2045 C 194.337 -0.528328 -4.26037 0
M  V30 2046 C 193.57 0.206063 -5.33302 0
M  V30 2047 O 193.793 1.43119 -5.52153 0
M  V30 2048 O 192.727 -0.447281 -6.00236 0
M  V30 2049 H 196.553 -1.21163 -2.78484 0
M  V30 2050 H 194.138 -0.655725 -1.34241 0
M  V30 2051 H 196.02 0.839753 -4.12948 0
M  V30 2052 H 194.695 1.22354 -2.99685 0
M  V30 2053 H 193.602 -1.01362 -3.60106 0
M  V30 2054 H 194.935 -1.31465 -4.74318 0
M  V30 2055 N 196.587 1.43421 -0.653314 0
M  V30 2056 C 197.864 1.95361 -0.0966581 0
M  V30 2057 C 198.244 1.59461 1.38331 0
M  V30 2058 O 197.592 0.879777 2.10884 0
M  V30 2059 C 197.802 3.47311 -0.342988 0
M  V30 2060 C 199.15 4.23875 -0.24798 0
M  V30 2061 O 200.174 3.55133 -0.275553 0
M  V30 2062 O 199.033 5.4623 -0.171771 0
M  V30 2063 H 196.127 0.826945 0.00956291 0
M  V30 2064 H 198.673 1.5336 -0.726558 0
M  V30 2065 H 197.445 3.66569 -1.36906 0
M  V30 2066 H 197.068 3.9631 0.319975 0
M  V30 2067 N 198.065 0.39524 1.52563 0
M  V30 2068 C 199.313 -0.184678 2.01254 0
M  V30 2069 C 199.634 -1.46822 1.28329 0
M  V30 2070 O 198.904 -1.91666 0.405094 0
M  V30 2071 H 197.484 -0.0712355 0.743596 0
M  V30 2072 H 200.146 0.528293 1.87603 0
M  V30 2073 H 199.242 -0.390681 3.09645 0
M  V30 2074 N 199.544 -1.57102 0.125237 0
M  V30 2075 C 200.79 -1.95697 -0.532035 0
M  V30 2076 C 201.123 -1.009 -1.6593 0
M  V30 2077 O 200.398 -0.047347 -1.94442 0
M  V30 2078 C 200.681 -3.44181 -1.05884 0
M  V30 2079 C 200.534 -4.49752 0.0654392 0
M  V30 2080 C 201.853 -3.94655 -1.9477 0
M  V30 2081 H 198.972 -0.711571 -0.191925 0
M  V30 2082 H 201.614 -1.88923 0.20206 0
M  V30 2083 H 199.764 -3.50085 -1.68442 0
M  V30 2084 H 201.436 -4.55943 0.700982 0
M  V30 2085 H 199.679 -4.27653 0.727709 0
M  V30 2086 H 200.35 -5.50924 -0.344505 0
M  V30 2087 H 202.826 -3.91094 -1.42074 0
M  V30 2088 H 201.702 -4.99057 -2.28546 0
M  V30 2089 H 201.963 -3.35718 -2.87656 0
M  V30 2090 N 201.022 0.148545 -1.56898 0
M  V30 2091 C 201.97 1.20265 -1.99096 0
M  V30 2092 C 202.964 1.44559 -0.883123 0
M  V30 2093 O 204.17 1.4487 -1.0683 0
M  V30 2094 H 200.545 0.404786 -0.63376 0
M  V30 2095 H 202.516 0.82004 -2.86911 0
M  V30 2096 C 201.265 2.52886 -2.3863 0
M  V30 2097 H 200.588 2.35021 -3.23427 0
M  V30 2098 H 202.028 3.25274 -2.7198 0
M  V30 2099 C 200.487 3.13315 -1.23837 0
M  V30 2100 O 201.017 3.98077 -0.538268 0
M  V30 2101 N 199.223 2.72742 -1.00301 0
M  V30 2102 H 198.77 2.03912 -1.5741 0
M  V30 2103 H 198.728 3.13507 -0.236838 0
M  V30 2104 N 202.5 1.5196 0.417844 0
M  V30 2105 C 203.43 1.77634 1.51554 0
M  V30 2106 C 204.411 0.626918 1.58126 0
M  V30 2107 O 205.596 0.871632 1.7354 0
M  V30 2108 C 202.726 1.91911 2.8946 0
M  V30 2109 C 201.68 3.07463 2.97743 0
M  V30 2110 C 201.006 3.06951 4.37819 0
M  V30 2111 C 202.306 4.47082 2.70027 0
M  V30 2112 H 204 2.6955 1.3032 0
M  V30 2113 H 201.546 1.29706 0.625492 0
M  V30 2114 H 203.499 2.08455 3.6623 0
M  V30 2115 H 202.223 0.966598 3.11969 0
M  V30 2116 H 200.882 2.90656 2.23416 0
M  V30 2117 H 200.53 2.09438 4.57323 0
M  V30 2118 H 200.23 3.84556 4.44286 0
M  V30 2119 H 201.754 3.25613 5.16535 0
M  V30 2120 H 203.168 4.6414 3.36522 0
M  V30 2121 H 201.565 5.2654 2.87881 0
M  V30 2122 H 202.635 4.55777 1.65514 0
M  V30 2123 N 203.978 -0.674533 1.42435 0
M  V30 2124 C 205.203 -1.46784 1.46524 0
M  V30 2125 C 205.628 -1.87938 0.078066 0
M  V30 2126 O 204.986 -1.56014 -0.92354 0
M  V30 2127 C 205.034 -2.69307 2.39805 0
M  V30 2128 O 204.138 -3.67587 1.86959 0
M  V30 2129 H 203.479 -0.440959 0.496439 0
M  V30 2130 H 206.009 -0.827326 1.87127 0
M  V30 2131 H 206.019 -3.17374 2.56393 0
M  V30 2132 H 204.694 -2.38692 3.40586 0
M  V30 2133 H 203.271 -3.2662 1.79927 0
M  V30 2134 N 205.456 -1.28612 -0.910864 0
M  V30 2135 C 206.386 -1.15326 -2.03032 0
M  V30 2136 C 207.367 -0.0502924 -1.70026 0
M  V30 2137 O 208.552 -0.227797 -1.92859 0
M  V30 2138 C 205.682 -0.817343 -3.37545 0
M  V30 2139 C 204.636 -1.8754 -3.84724 0
M  V30 2140 C 203.962 -1.39305 -5.16235 0
M  V30 2141 C 205.262 -3.28244 -4.06267 0
M  V30 2142 H 206.956 -2.08975 -2.14406 0
M  V30 2143 H 204.502 -1.00612 -1.03021 0
M  V30 2144 H 206.455 -0.711151 -4.15356 0
M  V30 2145 H 205.179 0.154846 -3.26233 0
M  V30 2146 H 203.838 -1.97079 -3.09121 0
M  V30 2147 H 203.486 -0.409846 -5.01328 0
M  V30 2148 H 203.186 -2.10057 -5.48771 0
M  V30 2149 H 204.71 -1.30014 -5.96598 0
M  V30 2150 H 206.124 -3.21611 -4.74594 0
M  V30 2151 H 204.521 -3.96855 -4.5014 0
M  V30 2152 H 205.591 -3.72048 -3.10979 0
M  V30 2153 N 206.934 1.1197 -1.10907 0
M  V30 2154 C 207.844 2.21433 -0.774896 0
M  V30 2155 C 208.86 1.72478 0.229657 0
M  V30 2156 O 210.036 2.01288 0.0672008 0
M  V30 2157 C 207.101 3.4602 -0.216986 0
M  V30 2158 C 206.162 4.09791 -1.27944 0
M  V30 2159 C 205.395 5.28431 -0.748055 0
M  V30 2160 O 205.618 5.68823 0.423833 0
M  V30 2161 O 204.552 5.82644 -1.51027 0
M  V30 2162 H 208.378 2.5242 -1.68873 0
M  V30 2163 H 205.963 1.20399 -0.884555 0
M  V30 2164 H 207.845 4.21304 0.090059 0
M  V30 2165 H 206.52 3.16698 0.669633 0
M  V30 2166 H 205.427 3.36265 -1.63941 0
M  V30 2167 H 206.76 4.4328 -2.13925 0
M  V30 2168 N 208.412 0.89855 1.29475 0
M  V30 2169 C 209.362 0.346767 2.25348 0
M  V30 2170 C 210.346 -0.532509 1.51833 0
M  V30 2171 O 211.538 -0.374714 1.72988 0
M  V30 2172 C 208.667 -0.425681 3.40651 0
M  V30 2173 C 207.753 0.46845 4.21505 0
M  V30 2174 N 208.144 1.57514 4.80648 0
M  V30 2175 C 206.442 0.26603 4.45206 0
M  V30 2176 C 207.143 2.12889 5.41344 0
M  V30 2177 N 206.119 1.42208 5.24669 0
M  V30 2178 H 209.921 1.19219 2.68634 0
M  V30 2179 H 207.435 0.749473 1.44072 0
M  V30 2180 H 209.432 -0.837716 4.08397 0
M  V30 2181 H 208.092 -1.26838 2.98902 0
M  V30 2182 H 209.103 1.95789 4.79465 0
M  V30 2183 H 205.78 -0.538394 4.14014 0
M  V30 2184 H 207.17 3.05901 5.98226 0
M  V30 2185 N 209.89 -1.43072 0.660911 0
M  V30 2186 C 210.82 -2.33497 -0.0122829 0
M  V30 2187 C 211.801 -1.49903 -0.803925 0
M  V30 2188 O 212.986 -1.78546 -0.763864 0
M  V30 2189 C 210.116 -3.33363 -0.973994 0
M  V30 2190 C 209.07 -4.27003 -0.291928 0
M  V30 2191 C 208.396 -5.16967 -1.36562 0
M  V30 2192 C 209.696 -5.15816 0.820462 0
M  V30 2193 H 211.39 -2.90038 0.742873 0
M  V30 2194 H 208.936 -1.39461 0.358688 0
M  V30 2195 H 210.889 -3.95524 -1.45392 0
M  V30 2196 H 209.613 -2.75095 -1.7604 0
M  V30 2197 H 208.272 -3.66217 0.167623 0
M  V30 2198 H 207.92 -4.55034 -2.14366 0
M  V30 2199 H 207.62 -5.80441 -0.914454 0
M  V30 2200 H 209.144 -5.82003 -1.84675 0
M  V30 2201 H 210.558 -5.71742 0.422366 0
M  V30 2202 H 208.955 -5.8805 1.19656 0
M  V30 2203 H 210.025 -4.55045 1.67518 0
M  V30 2204 N 211.368 -0.403325 -1.52352 0
M  V30 2205 C 212.3 0.4603 -2.2453 0
M  V30 2206 C 213.313 1.01505 -1.27282 0
M  V30 2207 O 214.502 0.914982 -1.53266 0
M  V30 2208 C 211.602 1.65208 -2.95905 0
M  V30 2209 C 210.775 1.22224 -4.19976 0
M  V30 2210 C 209.834 2.28028 -4.74226 0
M  V30 2211 O 208.86 1.88857 -5.36956 0
M  V30 2212 N 210.062 3.6012 -4.55295 0
M  V30 2213 H 212.827 -0.158156 -2.99282 0
M  V30 2214 H 210.388 -0.230402 -1.60252 0
M  V30 2215 H 212.38 2.35541 -3.29093 0
M  V30 2216 H 210.95 2.17658 -2.24374 0
M  V30 2217 H 210.17 0.34725 -3.92668 0
M  V30 2218 H 211.458 0.911924 -5.00561 0
M  V30 2219 H 210.856 3.94698 -4.05253 0
M  V30 2220 H 209.413 4.26447 -4.92936 0
M  V30 2221 N 212.846 1.57033 -0.133567 0
M  V30 2222 C 214.257 1.82593 0.389464 0
M  V30 2223 C 214.608 1.05156 1.6564 0
M  V30 2224 O 213.733 0.292644 2.14412 0
M  V30 2225 C 214.328 3.31204 0.713377 0
M  V30 2226 C 212.887 3.57393 1.18098 0
M  V30 2227 C 212.034 2.76598 0.197126 0
M  V30 2228 H 214.985 1.54598 -0.358481 0
M  V30 2229 H 215.006 3.46627 1.56939 0
M  V30 2230 H 214.518 3.87537 -0.2089 0
M  V30 2231 H 212.619 3.06433 2.11966 0
M  V30 2232 H 212.732 4.65915 1.11624 0
M  V30 2233 H 211.096 2.45257 0.687088 0
M  V30 2234 H 211.879 3.35697 -0.718504 0
M  V30 2235 N 214.325 -0.140222 1.56975 0
M  V30 2236 C 215.555 -0.865181 1.87612 0
M  V30 2237 C 215.963 -1.74942 0.72055 0
M  V30 2238 O 215.306 -1.80917 -0.318561 0
M  V30 2239 C 215.368 -1.76782 3.13031 0
M  V30 2240 C 215.032 -1.06005 4.44536 0
M  V30 2241 C 216.029 -0.410768 5.18275 0
M  V30 2242 C 213.714 -1.04754 4.91255 0
M  V30 2243 C 215.708 0.241572 6.36942 0
M  V30 2244 C 213.395 -0.391394 6.09845 0
M  V30 2245 C 214.393 0.252029 6.82535 0
M  V30 2246 O 214.081 0.897757 7.98871 0
M  V30 2247 H 213.813 -0.255188 0.625983 0
M  V30 2248 H 216.367 -0.135653 2.04952 0
M  V30 2249 H 214.597 -2.53846 2.91718 0
M  V30 2250 H 216.286 -2.36533 3.29859 0
M  V30 2251 H 217.052 -0.412195 4.83245 0
M  V30 2252 H 212.931 -1.53777 4.34596 0
M  V30 2253 H 216.475 0.744375 6.93617 0
M  V30 2254 H 212.372 -0.387656 6.44335 0
M  V30 2255 H 213.14 0.800102 8.1458 0
M  V30 2256 N 215.803 -1.52179 -0.40978 0
M  V30 2257 C 217.049 -1.67408 -1.15525 0
M  V30 2258 C 217.404 -0.398746 -1.88223 0
M  V30 2259 O 216.697 0.60678 -1.81738 0
M  V30 2260 C 216.891 -2.83428 -2.17723 0
M  V30 2261 C 216.72 -4.22121 -1.55061 0
M  V30 2262 C 215.49 -4.87657 -1.3236 0
M  V30 2263 C 217.688 -5.04248 -1.01185 0
M  V30 2264 N 215.67 -6.10387 -0.655834 0
M  V30 2265 C 217.041 -6.18209 -0.470963 0
M  V30 2266 C 219.096 -4.89583 -0.906252 0
M  V30 2267 C 217.799 -7.1911 0.165172 0
M  V30 2268 C 219.825 -5.90718 -0.28397 0
M  V30 2269 C 219.187 -7.03969 0.246243 0
M  V30 2270 H 215.286 -0.666251 -0.409431 0
M  V30 2271 H 217.87 -1.89482 -0.447729 0
M  V30 2272 H 216.041 -2.6297 -2.85834 0
M  V30 2273 H 217.773 -2.87697 -2.84627 0
M  V30 2274 H 214.528 -4.46007 -1.59294 0
M  V30 2275 H 214.952 -6.76153 -0.338596 0
M  V30 2276 H 219.594 -4.02253 -1.302 0
M  V30 2277 H 217.312 -8.06066 0.572986 0
M  V30 2278 H 220.898 -5.81443 -0.203792 0
M  V30 2279 H 219.778 -7.80886 0.720173 0
M  V30 2280 N 217.281 0.66697 -1.42791 0
M  V30 2281 C 218.191 1.80962 -1.49299 0
M  V30 2282 C 219.207 1.69775 -0.381108 0
M  V30 2283 O 220.383 1.91188 -0.633188 0
M  V30 2284 C 217.448 3.17156 -1.40045 0
M  V30 2285 C 216.509 3.40242 -2.6179 0
M  V30 2286 C 215.742 4.69939 -2.52969 0
M  V30 2287 O 215.965 5.48372 -1.56985 0
M  V30 2288 O 214.899 4.94441 -3.43237 0
M  V30 2289 H 218.725 1.78427 -2.45759 0
M  V30 2290 H 216.31 0.823713 -1.24641 0
M  V30 2291 H 218.192 3.98413 -1.37276 0
M  V30 2292 H 216.867 3.20312 -0.467138 0
M  V30 2293 H 215.774 2.58802 -2.70134 0
M  V30 2294 H 217.107 3.41923 -3.54047 0
M  V30 2295 N 218.759 1.29093 0.90403 0
M  V30 2296 C 219.669 1.15727 2.0407 0
M  V30 2297 C 220.685 0.0815308 1.73809 0
M  V30 2298 O 221.861 0.292749 1.99261 0
M  V30 2299 C 218.926 0.830424 3.36608 0
M  V30 2300 C 217.987 1.98955 3.80415 0
M  V30 2301 C 217.22 1.6782 5.06628 0
M  V30 2302 O 217.443 0.597105 5.67266 0
M  V30 2303 O 216.377 2.52486 5.46383 0
M  V30 2304 H 220.203 2.11171 2.18267 0
M  V30 2305 H 217.788 1.08504 1.027 0
M  V30 2306 H 219.67 0.662521 4.16159 0
M  V30 2307 H 218.345 -0.0942678 3.23563 0
M  V30 2308 H 217.252 2.21267 3.01648 0
M  V30 2309 H 218.585 2.89529 3.98037 0
M  V30 2310 N 220.237 -1.11381 1.11499 0
M  V30 2311 C 221.167 -2.19509 0.796125 0
M  V30 2312 C 222.148 -1.68458 -0.235796 0
M  V30 2313 O 223.333 -1.93947 -0.0991344 0
M  V30 2314 C 220.463 -3.46475 0.239205 0
M  V30 2315 C 219.417 -4.10744 1.20307 0
M  V30 2316 C 218.743 -5.32293 0.50683 0
M  V30 2317 C 220.043 -4.55597 2.55399 0
M  V30 2318 H 221.737 -2.46439 1.70024 0
M  V30 2319 H 219.283 -1.18446 0.818935 0
M  V30 2320 H 221.236 -4.214 0.00392006 0
M  V30 2321 H 219.96 -3.19006 -0.700206 0
M  V30 2322 H 218.619 -3.37813 1.42399 0
M  V30 2323 H 218.267 -5.01095 -0.437408 0
M  V30 2324 H 217.967 -5.76243 1.1497 0
M  V30 2325 H 219.491 -6.09956 0.280351 0
M  V30 2326 H 220.905 -5.21841 2.37391 0
M  V30 2327 H 219.302 -5.10363 3.15673 0
M  V30 2328 H 220.372 -3.69013 3.14575 0
M  V30 2329 N 221.715 -0.905404 -1.28997 0
M  V30 2330 C 222.625 -0.392246 -2.31298 0
M  V30 2331 C 223.641 0.515889 -1.66176 0
M  V30 2332 O 224.817 0.404093 -1.97304 0
M  V30 2333 C 221.882 0.36686 -3.44754 0
M  V30 2334 C 220.943 -0.573485 -4.25452 0
M  V30 2335 C 220.176 0.149488 -5.33491 0
M  V30 2336 O 220.399 1.37255 -5.5364 0
M  V30 2337 O 219.333 -0.510919 -5.99728 0
M  V30 2338 H 223.159 -1.2411 -2.77183 0
M  V30 2339 H 220.744 -0.669926 -1.33538 0
M  V30 2340 H 222.626 0.795907 -4.13816 0
M  V30 2341 H 221.301 1.19169 -3.00966 0
M  V30 2342 H 220.208 -1.05176 -3.59011 0
M  V30 2343 H 221.541 -1.36489 -4.72897 0
M  V30 2344 N 223.193 1.4272 -0.668489 0
M  V30 2345 C 224.141 2.32586 0.0254857 0
M  V30 2346 C 225.135 1.49471 0.797176 0
M  V30 2347 O 226.341 1.65583 0.705853 0
M  V30 2348 H 222.716 0.751514 0.0270339 0
M  V30 2349 H 224.687 2.88823 -0.749936 0
M  V30 2350 C 223.436 3.3397 0.967427 0
M  V30 2351 H 222.759 3.97961 0.383048 0
M  V30 2352 H 224.199 3.9945 1.42181 0
M  V30 2353 C 222.658 2.65744 2.0708 0
M  V30 2354 O 223.188 2.48454 3.15648 0
M  V30 2355 N 221.394 2.2487 1.8407 0
M  V30 2356 H 220.941 2.39132 0.95778 0
M  V30 2357 H 220.899 1.79552 2.58086 0
M  V30 2358 N 224.671 0.411399 1.52136 0
M  V30 2359 C 225.601 -0.404015 2.29978 0
M  V30 2360 C 226.582 -1.04412 1.34284 0
M  V30 2361 O 227.767 -1.0527 1.63192 0
M  V30 2362 C 224.897 -1.5197 3.12286 0
M  V30 2363 C 223.851 -1.00448 4.16046 0
M  V30 2364 C 223.177 -2.21393 4.86712 0
M  V30 2365 C 224.477 -0.0569336 5.22269 0
M  V30 2366 H 226.171 0.245529 2.98392 0
M  V30 2367 H 223.717 0.119525 1.43503 0
M  V30 2368 H 225.67 -2.09715 3.6551 0
M  V30 2369 H 224.394 -2.19716 2.41646 0
M  V30 2370 H 223.053 -0.449421 3.63835 0
M  V30 2371 H 222.701 -2.87699 4.12599 0
M  V30 2372 H 222.401 -1.87571 5.56858 0
M  V30 2373 H 223.925 -2.7974 5.4275 0
M  V30 2374 H 225.339 -0.54325 5.7072 0
M  V30 2375 H 223.736 0.192594 5.99791 0
M  V30 2376 H 224.806 0.887663 4.76706 0
M  V30 2377 N 226.149 -1.5696 0.141893 0
M  V30 2378 C 227.395 -1.9625 -0.511248 0
M  V30 2379 C 227.728 -1.02654 -1.64851 0
M  V30 2380 O 227.003 -0.0679676 -1.94381 0
M  V30 2381 C 227.286 -3.45285 -1.02227 0
M  V30 2382 C 227.139 -4.49658 0.113138 0
M  V30 2383 C 228.458 -3.96698 -1.90574 0
M  V30 2384 H 225.577 -0.713567 -0.184367 0
M  V30 2385 H 228.219 -1.88698 0.222087 0
M  V30 2386 H 226.369 -3.51852 -1.64719 0
M  V30 2387 H 228.041 -4.55174 0.749302 0
M  V30 2388 H 226.284 -4.26857 0.773026 0
M  V30 2389 H 226.955 -5.51258 -0.286053 0
M  V30 2390 H 229.431 -3.92578 -1.37918 0
M  V30 2391 H 228.307 -5.01453 -2.2324 0
M  V30 2392 H 228.568 -3.3875 -2.84079 0
M  V30 2393 N 227.627 0.131896 -1.57047 0
M  V30 2394 C 228.559 1.1878 -1.9602 0
M  V30 2395 C 229.572 1.38363 -0.857875 0
M  V30 2396 O 230.761 1.37666 -1.13623 0
M  V30 2397 C 227.861 2.55008 -2.23213 0
M  V30 2398 C 227.034 2.56201 -3.54513 0
M  V30 2399 C 226.093 3.7408 -3.70069 0
M  V30 2400 O 225.119 3.58258 -4.42312 0
M  V30 2401 N 226.321 4.92137 -3.07866 0
M  V30 2402 H 229.086 0.85639 -2.87204 0
M  V30 2403 H 226.647 0.321309 -1.5868 0
M  V30 2404 H 228.639 3.32404 -2.30846 0
M  V30 2405 H 227.209 2.80382 -1.3822 0
M  V30 2406 H 226.429 1.64613 -3.58185 0
M  V30 2407 H 227.717 2.54043 -4.4084 0
M  V30 2408 H 227.115 5.07895 -2.49116 0
M  V30 2409 H 225.672 5.67254 -3.21039 0
M  V30 2410 N 229.106 1.52395 0.401703 0
M  V30 2411 C 230.331 1.70972 1.17403 0
M  V30 2412 C 230.756 0.421615 1.83314 0
M  V30 2413 O 230.114 -0.621564 1.70312 0
M  V30 2414 C 230.162 2.85151 2.20728 0
M  V30 2415 O 229.266 2.51238 3.27037 0
M  V30 2416 H 228.607 0.568927 0.342372 0
M  V30 2417 H 231.137 1.99131 0.469891 0
M  V30 2418 H 231.147 3.10279 2.64936 0
M  V30 2419 H 229.822 3.78603 1.7214 0
M  V30 2420 H 228.399 2.36808 2.88057 0
M  V30 2421 N 230.584 -0.659388 1.43143 0
M  V30 2422 C 231.531 -1.77249 1.47822 0
M  V30 2423 C 232.501 -1.62818 0.328558 0
M  V30 2424 O 233.686 -1.83151 0.534838 0
M  V30 2425 C 230.826 -3.15371 1.40126 0
M  V30 2426 C 229.939 -3.4098 2.65249 0
M  V30 2427 C 229.074 -4.68915 2.49584 0
M  V30 2428 C 228.113 -4.87608 3.70006 0
M  V30 2429 N 227.25 -6.06796 3.53189 0
M  V30 2430 H 232.09 -1.72584 2.42938 0
M  V30 2431 H 229.627 -0.842297 1.20598 0
M  V30 2432 H 231.585 -3.9521 1.33659 0
M  V30 2433 H 230.215 -3.19121 0.485964 0
M  V30 2434 H 229.267 -2.55282 2.8202 0
M  V30 2435 H 230.579 -3.50681 3.54717 0
M  V30 2436 H 229.733 -5.56871 2.4079 0
M  V30 2437 H 228.472 -4.61524 1.5763 0
M  V30 2438 H 227.477 -3.9809 3.79215 0
M  V30 2439 H 228.702 -4.96834 4.62961 0
M  V30 2440 H 226.648 -6.00549 2.63965 0
M  V30 2441 H 226.565 -6.17428 4.36255 0
M  V30 2442 H 227.833 -6.9739 3.48236 0
M  V30 2443 N 232.062 -1.29571 -0.897171 0
M  V30 2444 C 233.009 -1.14916 -2.00158 0
M  V30 2445 C 233.979 -0.0418149 -1.66047 0
M  V30 2446 O 235.164 -0.209793 -1.89643 0
M  V30 2447 C 232.304 -0.834307 -3.34863 0
M  V30 2448 C 231.417 -2.02234 -3.8174 0
M  V30 2449 C 230.552 -1.64664 -5.05034 0
M  V30 2450 C 229.591 -2.80033 -5.44286 0
M  V30 2451 N 228.728 -2.42843 -6.58765 0
M  V30 2452 H 233.568 -2.09403 -2.12025 0
M  V30 2453 H 231.105 -1.042 -1.0383 0
M  V30 2454 H 233.063 -0.632436 -4.12379 0
M  V30 2455 H 231.693 0.0736656 -3.22716 0
M  V30 2456 H 230.745 -2.33583 -3.00238 0
M  V30 2457 H 232.057 -2.88673 -4.06779 0
M  V30 2458 H 231.211 -1.4078 -5.9014 0
M  V30 2459 H 229.95 -0.753766 -4.8184 0
M  V30 2460 H 228.955 -3.04596 -4.57713 0
M  V30 2461 H 230.18 -3.69989 -5.6946 0
M  V30 2462 H 228.126 -1.56046 -6.3717 0
M  V30 2463 H 228.043 -3.22815 -6.83613 0
M  V30 2464 H 229.311 -2.22285 -7.47134 0
M  V30 2465 N 233.54 1.10788 -1.12088 0
M  V30 2466 C 234.789 1.82036 -0.868659 0
M  V30 2467 C 235.102 1.85929 0.607426 0
M  V30 2468 O 236.308 2.53346 0.97613 0
M  V30 2469 C 234.764 3.26951 -1.50435 0
M  V30 2470 C 234.372 3.31367 -3.01496 0
M  V30 2471 C 236.116 4.03053 -1.33225 0
M  V30 2472 C 234.023 4.7072 -3.58017 0
M  V30 2473 H 232.953 0.682108 -0.321318 0
M  V30 2474 H 235.604 1.24618 -1.34694 0
M  V30 2475 H 233.986 3.84343 -0.953735 0
M  V30 2476 H 235.16 2.83819 -3.6302 0
M  V30 2477 H 233.475 2.6875 -3.18061 0
M  V30 2478 H 236.072 5.05981 -1.72878 0
M  V30 2479 H 236.415 4.15387 -0.275529 0
M  V30 2480 H 236.948 3.52066 -1.85188 0
M  V30 2481 H 233.687 4.63585 -4.63432 0
M  V30 2482 H 233.207 5.1865 -3.01268 0
M  V30 2483 H 234.886 5.39685 -3.56859 0
M  V30 2484 N 235.018 0.912232 1.28515 0
M  V30 2485 C 236.264 0.545405 1.95328 0
M  V30 2486 C 236.597 -0.908313 1.71649 0
M  V30 2487 O 235.872 -1.64575 1.03659 0
M  V30 2488 C 236.155 0.853483 3.4984 0
M  V30 2489 C 236.008 2.35982 3.82926 0
M  V30 2490 C 237.327 0.348589 4.38717 0
M  V30 2491 H 234.446 0.199626 0.709449 0
M  V30 2492 H 237.088 1.1412 1.5191 0
M  V30 2493 H 235.238 0.34643 3.86952 0
M  V30 2494 H 236.91 2.93738 3.55691 0
M  V30 2495 H 235.153 2.81543 3.30024 0
M  V30 2496 H 235.824 2.52593 4.90816 0
M  V30 2497 H 238.3 0.78294 4.08668 0
M  V30 2498 H 237.176 0.593242 5.45685 0
M  V30 2499 H 237.437 -0.751049 4.35674 0
M  V30 2500 N 236.496 -1.42363 0.676048 0
M  V30 2501 C 237.459 -2.29199 0.00766941 0
M  V30 2502 C 238.459 -1.43389 -0.727745 0
M  V30 2503 O 239.649 -1.64764 -0.56556 0
M  V30 2504 C 236.781 -3.2591 -0.999785 0
M  V30 2505 H 237.974 -2.89794 0.771988 0
M  V30 2506 H 235.527 -1.50024 0.438468 0
M  V30 2507 H 236.262 -2.70256 -1.79255 0
M  V30 2508 H 236.047 -3.89202 -0.475829 0
M  V30 2509 H 237.537 -3.91028 -1.46583 0
M  V30 2510 N 237.974 -0.419461 -1.51915 0
M  V30 2511 C 239.223 0.154346 -2.01109 0
M  V30 2512 C 239.536 1.45338 -1.30905 0
M  V30 2513 O 240.742 2.10906 -1.7097 0
M  V30 2514 C 239.198 0.325615 -3.58424 0
M  V30 2515 C 238.806 -0.961934 -4.37551 0
M  V30 2516 C 240.55 0.854155 -4.15818 0
M  V30 2517 C 238.457 -0.757287 -5.86531 0
M  V30 2518 H 237.387 0.0614563 -0.751491 0
M  V30 2519 H 240.038 -0.54649 -1.75173 0
M  V30 2520 H 238.42 1.08903 -3.80731 0
M  V30 2521 H 239.594 -1.7323 -4.26999 0
M  V30 2522 H 237.909 -1.41766 -3.91524 0
M  V30 2523 H 240.506 1.02346 -5.24814 0
M  V30 2524 H 240.849 1.83172 -3.73837 0
M  V30 2525 H 241.382 0.149528 -3.97519 0
M  V30 2526 H 238.121 -1.70671 -6.32892 0
M  V30 2527 H 237.641 -0.0264061 -5.99794 0
M  V30 2528 H 239.32 -0.403482 -6.45741 0
M  V30 2529 N 239.452 1.56882 -0.150215 0
M  V30 2530 C 240.7 1.9584 0.499105 0
M  V30 2531 C 241.021 1.03623 1.65188 0
M  V30 2532 O 240.291 0.0984084 1.95653 0
M  V30 2533 H 238.871 0.723119 0.187373 0
M  V30 2534 H 241.533 1.9358 -0.226466 0
M  V30 2535 H 240.629 2.99638 0.873122 0
M  V30 2536 N 240.93 -0.123565 1.57115 0
M  V30 2537 C 242.158 -0.846461 1.88793 0
M  V30 2538 C 242.573 -1.73652 0.740976 0
M  V30 2539 O 241.93 -1.80207 -0.288393 0
M  V30 2540 C 241.981 -1.6837 3.19897 0
M  V30 2541 O 241.702 -0.829477 4.30176 0
M  V30 2542 C 243.203 -2.51214 3.65248 0
M  V30 2543 H 240.423 -0.243573 0.625231 0
M  V30 2544 H 242.967 -0.109324 2.04208 0
M  V30 2545 H 241.122 -2.37364 3.06165 0
M  V30 2546 H 241.536 -1.40651 5.0529 0
M  V30 2547 H 243.01 -3.05497 4.59756 0
M  V30 2548 H 243.487 -3.28359 2.9168 0
M  V30 2549 H 244.093 -1.8747 3.81752 0
M  V30 2550 N 242.408 -1.52605 -0.393616 0
M  V30 2551 C 243.633 -1.71592 -1.16495 0
M  V30 2552 C 244.058 -0.43133 -1.83088 0
M  V30 2553 O 243.416 0.612523 -1.7064 0
M  V30 2554 C 243.464 -2.86318 -2.19213 0
M  V30 2555 O 242.568 -2.52969 -3.257 0
M  V30 2556 H 241.909 -0.570734 -0.33935 0
M  V30 2557 H 244.439 -1.99377 -0.459324 0
M  V30 2558 H 244.449 -3.1168 -2.63286 0
M  V30 2559 H 243.124 -3.79511 -1.7013 0
M  V30 2560 H 241.701 -2.38332 -2.86797 0
M  V30 2561 N 243.887 0.651787 -1.4349 0
M  V30 2562 C 245.164 1.40909 -1.35661 0
M  V30 2563 C 245.544 2.11099 -0.00511733 0
M  V30 2564 O 244.892 2.04892 1.0115 0
M  V30 2565 C 245.102 2.3926 -2.54078 0
M  V30 2566 C 246.45 3.03217 -2.97228 0
M  V30 2567 O 247.474 2.49588 -2.54135 0
M  V30 2568 O 246.333 4.00455 -3.71885 0
M  V30 2569 H 243.427 0.629625 -0.536191 0
M  V30 2570 H 245.973 0.678575 -1.55542 0
M  V30 2571 H 244.745 1.86352 -3.44076 0
M  V30 2572 H 244.368 3.1976 -2.36303 0
M  V30 2573 N 245.365 1.30045 0.890287 0
M  V30 2574 C 246.295 1.18541 2.01172 0
M  V30 2575 C 247.276 0.0773356 1.69924 0
M  V30 2576 O 248.461 0.25845 1.92473 0
M  V30 2577 C 245.591 0.870941 3.36202 0
M  V30 2578 C 244.545 1.93637 3.81692 0
M  V30 2579 C 243.871 1.475 5.13953 0
M  V30 2580 C 245.171 3.34666 4.00994 0
M  V30 2581 H 246.865 2.12359 2.11054 0
M  V30 2582 H 244.411 1.02238 1.01407 0
M  V30 2583 H 246.364 0.777141 4.14172 0
M  V30 2584 H 245.088 -0.102926 3.26438 0
M  V30 2585 H 243.747 2.01972 3.05946 0
M  V30 2586 H 243.395 0.489551 5.00612 0
M  V30 2587 H 243.095 2.1876 5.4536 0
M  V30 2588 H 244.619 1.39489 5.94454 0
M  V30 2589 H 246.033 3.2912 4.69417 0
M  V30 2590 H 244.43 4.03966 4.43769 0
M  V30 2591 H 245.5 3.76949 3.05021 0
M  V30 2592 N 246.843 -1.10192 1.12674 0
M  V30 2593 C 248.12 -1.78717 0.794965 0
M  V30 2594 C 248.5 -1.98628 -0.714853 0
M  V30 2595 O 247.848 -1.58135 -1.64941 0
M  V30 2596 C 248.058 -3.11546 1.5729 0
M  V30 2597 C 249.406 -3.86382 1.76052 0
M  V30 2598 O 250.43 -3.21274 1.53823 0
M  V30 2599 O 249.289 -5.03246 2.13087 0
M  V30 2600 H 246.383 -0.774702 0.289423 0
M  V30 2601 H 248.929 -1.16819 1.23091 0
M  V30 2602 H 247.701 -2.92489 2.59935 0
M  V30 2603 H 247.324 -3.81164 1.13137 0
M  V30 2604 N 248.321 -0.919034 -1.28029 0
M  V30 2605 C 249.268 -0.410005 -2.27129 0
M  V30 2606 C 250.238 0.518405 -1.57803 0
M  V30 2607 O 251.423 0.439451 -1.8567 0
M  V30 2608 C 248.563 0.339054 -3.4343 0
M  V30 2609 C 247.676 -0.622468 -4.27492 0
M  V30 2610 C 246.811 0.145567 -5.31001 0
M  V30 2611 C 245.85 -0.809226 -6.06727 0
M  V30 2612 N 244.987 -0.0743728 -7.02061 0
M  V30 2613 H 249.827 -1.26011 -2.70047 0
M  V30 2614 H 247.364 -0.632663 -1.328 0
M  V30 2615 H 249.322 0.789586 -4.0966 0
M  V30 2616 H 247.952 1.15346 -3.01488 0
M  V30 2617 H 247.004 -1.19153 -3.61257 0
M  V30 2618 H 248.316 -1.35252 -4.80113 0
M  V30 2619 H 247.47 0.656417 -6.03139 0
M  V30 2620 H 246.209 0.908643 -4.79161 0
M  V30 2621 H 245.214 -1.3314 -5.33436 0
M  V30 2622 H 246.439 -1.57194 -6.60656 0
M  V30 2623 H 244.385 0.670616 -6.52563 0
M  V30 2624 H 244.302 -0.744157 -7.52329 0
M  V30 2625 H 245.57 0.416109 -7.78389 0
M  V30 2626 N 249.799 1.42003 -0.683588 0
M  V30 2627 C 251.027 2.05746 -0.218182 0
M  V30 2628 C 251.442 1.51396 1.12804 0
M  V30 2629 O 250.799 0.657303 1.70252 0
M  V30 2630 C 250.85 3.61171 -0.154131 0
M  V30 2631 O 250.571 4.13508 -1.44716 0
M  V30 2632 C 252.072 4.42042 0.333713 0
M  V30 2633 H 249.292 0.662888 -0.10402 0
M  V30 2634 H 251.836 1.81987 -0.9328 0
M  V30 2635 H 249.991 3.84012 0.511231 0
M  V30 2636 H 250.405 5.07453 -1.32632 0
M  V30 2637 H 251.879 5.51028 0.327423 0
M  V30 2638 H 252.356 4.17269 1.37053 0
M  V30 2639 H 252.962 4.24239 -0.300222 0
M  V30 2640 N 251.277 0.427512 1.51691 0
M  V30 2641 C 252.209 -0.424521 2.25234 0
M  V30 2642 C 253.222 -0.994671 1.2888 0
M  V30 2643 O 254.411 -0.890483 1.54702 0
M  V30 2644 C 251.511 -1.60479 2.98496 0
M  V30 2645 C 250.684 -1.15527 4.21868 0
M  V30 2646 C 249.743 -2.20454 4.77793 0
M  V30 2647 O 248.769 -1.8029 5.39893 0
M  V30 2648 N 249.971 -3.52831 4.60967 0
M  V30 2649 H 252.736 0.205749 2.98993 0
M  V30 2650 H 250.297 0.255867 1.59865 0
M  V30 2651 H 252.289 -2.30276 3.32799 0
M  V30 2652 H 250.859 -2.14061 2.27809 0
M  V30 2653 H 250.079 -0.284736 3.9317 0
M  V30 2654 H 251.367 -0.832173 5.01949 0
M  V30 2655 H 250.765 -3.88201 4.11481 0
M  V30 2656 H 249.322 -4.18551 4.99658 0
M  V30 2657 N 252.755 -1.56801 0.158532 0
M  V30 2658 C 253.685 -2.20347 -0.772609 0
M  V30 2659 C 254.666 -1.15518 -1.24859 0
M  V30 2660 O 255.851 -1.43902 -1.30406 0
M  V30 2661 C 252.981 -2.83417 -2.00729 0
M  V30 2662 C 251.935 -3.94174 -1.66765 0
M  V30 2663 C 251.261 -4.44233 -2.97592 0
M  V30 2664 C 252.561 -5.14392 -0.905447 0
M  V30 2665 H 254.255 -2.98413 -0.242959 0
M  V30 2666 H 251.801 -1.43537 -0.115419 0
M  V30 2667 H 253.754 -3.26543 -2.6636 0
M  V30 2668 H 252.478 -2.02701 -2.56086 0
M  V30 2669 H 251.137 -3.51684 -1.03508 0
M  V30 2670 H 250.785 -3.60325 -3.50963 0
M  V30 2671 H 250.485 -5.18945 -2.75626 0
M  V30 2672 H 252.009 -4.90037 -3.64274 0
M  V30 2673 H 253.423 -5.5429 -1.46408 0
M  V30 2674 H 251.82 -5.9494 -0.7853 0
M  V30 2675 H 252.89 -4.84795 0.100668 0
M  V30 2676 N 254.233 0.115231 -1.57178 0
M  V30 2677 C 255.143 1.15994 -2.03918 0
M  V30 2678 C 256.159 1.45103 -0.960268 0
M  V30 2679 O 257.335 1.56144 -1.27204 0
M  V30 2680 C 254.4 2.46568 -2.43732 0
M  V30 2681 C 253.461 2.24822 -3.65723 0
M  V30 2682 C 252.694 3.4917 -4.03629 0
M  V30 2683 O 252.917 4.56623 -3.41835 0
M  V30 2684 O 251.851 3.39949 -4.96708 0
M  V30 2685 H 255.677 0.793019 -2.93164 0
M  V30 2686 H 253.262 0.3263 -1.45793 0
M  V30 2687 H 255.144 3.23492 -2.70057 0
M  V30 2688 H 253.819 2.82726 -1.57631 0
M  V30 2689 H 252.726 1.45744 -3.44542 0
M  V30 2690 H 254.059 1.93566 -4.52541 0
M  V30 2691 N 255.711 1.52812 0.385517 0
M  V30 2692 C 256.643 1.74096 1.49074 0
M  V30 2693 C 257.656 0.621462 1.50472 0
M  V30 2694 O 258.845 0.897245 1.54311 0
M  V30 2695 C 255.945 1.78774 2.87911 0
M  V30 2696 C 255.118 3.08134 3.10439 0
M  V30 2697 C 254.177 3.04313 4.29278 0
M  V30 2698 O 253.203 3.78168 4.25415 0
M  V30 2699 N 254.405 2.23741 5.35649 0
M  V30 2700 H 257.17 2.69455 1.31202 0
M  V30 2701 H 254.731 1.51343 0.575065 0
M  V30 2702 H 256.723 1.73721 3.65518 0
M  V30 2703 H 255.293 0.907869 2.99126 0
M  V30 2704 H 254.513 3.26649 2.20667 0
M  V30 2705 H 255.801 3.93662 3.22347 0
M  V30 2706 H 255.199 1.63211 5.41645 0
M  V30 2707 H 253.756 2.24524 6.11909 0
M  V30 2708 N 257.189 -0.644168 1.43834 0
M  V30 2709 C 258.119 -1.76814 1.52509 0
M  V30 2710 C 259.1 -1.65823 0.379052 0
M  V30 2711 O 260.285 -1.84781 0.597466 0
M  V30 2712 C 257.415 -3.15288 1.4564 0
M  V30 2713 C 256.369 -3.41053 2.58586 0
M  V30 2714 C 255.695 -4.79421 2.36769 0
M  V30 2715 C 256.995 -3.34902 4.00797 0
M  V30 2716 H 258.689 -1.69812 2.46586 0
M  V30 2717 H 256.235 -0.815542 1.1868 0
M  V30 2718 H 258.188 -3.93681 1.50311 0
M  V30 2719 H 256.912 -3.23043 0.480725 0
M  V30 2720 H 255.571 -2.65035 2.53282 0
M  V30 2721 H 255.219 -4.83863 1.37424 0
M  V30 2722 H 254.919 -4.9762 3.12487 0
M  V30 2723 H 256.443 -5.6006 2.43238 0
M  V30 2724 H 257.857 -4.03218 4.07539 0
M  V30 2725 H 256.254 -3.64637 4.76613 0
M  V30 2726 H 257.324 -2.32928 4.25291 0
M  V30 2727 N 258.668 -1.30515 -0.883378 0
M  V30 2728 C 259.898 -1.22182 -1.66599 0
M  V30 2729 C 260.306 0.217507 -1.87946 0
M  V30 2730 O 259.649 1.1554 -1.42815 0
M  V30 2731 C 259.711 -1.88146 -3.06335 0
M  V30 2732 C 259.375 -3.37476 -3.08154 0
M  V30 2733 C 260.372 -4.33443 -2.87094 0
M  V30 2734 C 258.057 -3.7895 -3.29701 0
M  V30 2735 C 260.051 -5.68858 -2.8754 0
M  V30 2736 C 257.738 -5.14482 -3.29776 0
M  V30 2737 C 258.736 -6.09246 -3.0872 0
M  V30 2738 O 258.424 -7.42302 -3.08615 0
M  V30 2739 H 258.156 -0.423898 -0.52658 0
M  V30 2740 H 260.71 -1.72703 -1.11188 0
M  V30 2741 H 258.94 -1.32157 -3.63416 0
M  V30 2742 H 260.629 -1.7391 -3.66756 0
M  V30 2743 H 261.395 -4.02733 -2.70243 0
M  V30 2744 H 257.274 -3.05631 -3.45124 0
M  V30 2745 H 260.818 -6.428 -2.71024 0
M  V30 2746 H 256.715 -5.44832 -3.46163 0
M  V30 2747 H 257.483 -7.5131 -3.24769 0
M  V30 2748 N 260.146 1.09593 -1.13257 0
M  V30 2749 C 261.078 2.16015 -0.766167 0
M  V30 2750 C 262.091 1.61423 0.211303 0
M  V30 2751 O 263.28 1.78498 -0.00863946 0
M  V30 2752 C 260.38 3.38706 -0.114662 0
M  V30 2753 C 259.553 4.22717 -1.12379 0
M  V30 2754 C 258.612 5.23835 -0.498301 0
M  V30 2755 O 257.638 5.573 -1.15781 0
M  V30 2756 N 258.84 5.75886 0.730417 0
M  V30 2757 H 261.605 2.48055 -1.68193 0
M  V30 2758 H 259.166 1.25292 -1.02535 0
M  V30 2759 H 261.158 4.03464 0.315991 0
M  V30 2760 H 259.728 3.04569 0.704011 0
M  V30 2761 H 258.948 3.54122 -1.73179 0
M  V30 2762 H 260.236 4.75673 -1.80589 0
M  V30 2763 H 259.634 5.50911 1.28504 0
M  V30 2764 H 258.191 6.42387 1.10376 0
M  V30 2765 N 261.624 0.925811 1.2754 0
M  V30 2766 C 262.87 0.575575 1.95086 0
M  V30 2767 C 263.225 -0.873246 1.71441 0
M  V30 2768 O 262.518 -1.61443 1.03183 0
M  V30 2769 C 262.712 0.835296 3.47502 0
M  V30 2770 C 262.541 2.30781 3.85967 0
M  V30 2771 C 261.311 2.96017 4.09514 0
M  V30 2772 C 263.509 3.28519 3.95702 0
M  V30 2773 N 261.491 4.3344 4.34744 0
M  V30 2774 C 262.862 4.51146 4.25285 0
M  V30 2775 C 264.917 3.23753 3.7827 0
M  V30 2776 C 263.62 5.69606 4.39251 0
M  V30 2777 C 265.646 4.41523 3.9346 0
M  V30 2778 C 265.008 5.62928 4.23428 0
M  V30 2779 H 261.107 0.260711 0.737261 0
M  V30 2780 H 263.691 1.19204 1.53943 0
M  V30 2781 H 261.862 0.248005 3.87607 0
M  V30 2782 H 263.594 0.447878 4.02214 0
M  V30 2783 H 260.349 2.46695 4.04275 0
M  V30 2784 H 260.773 5.04528 4.5142 0
M  V30 2785 H 265.415 2.3096 3.54143 0
M  V30 2786 H 263.133 6.62866 4.62205 0
M  V30 2787 H 266.719 4.39351 3.81394 0
M  V30 2788 H 265.599 6.52538 4.34929 0
M  V30 2789 N 263.102 -1.41638 0.69111 0
M  V30 2790 C 264.065 -2.29178 0.0319786 0
M  V30 2791 C 265.065 -1.44153 -0.712496 0
M  V30 2792 O 266.255 -1.65354 -0.548053 0
M  V30 2793 C 263.387 -3.26952 -0.965161 0
M  V30 2794 H 264.58 -2.88959 0.802681 0
M  V30 2795 H 262.133 -1.4955 0.454356 0
M  V30 2796 H 262.868 -2.72142 -1.76378 0
M  V30 2797 H 262.653 -3.89685 -0.434522 0
M  V30 2798 H 264.143 -3.92561 -1.42428 0
M  V30 2799 N 264.58 -0.43555 -1.51462 0
M  V30 2800 C 265.512 0.41257 -2.25456 0
M  V30 2801 C 266.525 0.987822 -1.29406 0
M  V30 2802 O 267.714 0.882266 -1.55172 0
M  V30 2803 C 264.814 1.58894 -2.99342 0
M  V30 2804 C 263.987 1.13288 -4.22474 0
M  V30 2805 C 263.046 2.17917 -4.78956 0
M  V30 2806 O 262.072 1.77425 -5.40841 0
M  V30 2807 N 263.274 3.50382 -4.62832 0
M  V30 2808 H 266.039 -0.221603 -2.9888 0
M  V30 2809 H 263.6 -0.264342 -1.59727 0
M  V30 2810 H 265.592 2.28508 -3.34015 0
M  V30 2811 H 264.162 2.12849 -2.28941 0
M  V30 2812 H 263.382 0.263881 -3.93316 0
M  V30 2813 H 264.67 0.805542 -5.02383 0
M  V30 2814 H 264.068 3.86013 -4.13534 0
M  V30 2815 H 262.625 4.15895 -5.01871 0
M  V30 2816 N 266.058 1.56714 -0.166846 0
M  V30 2817 C 267.304 1.97039 0.479962 0
M  V30 2818 C 267.637 1.05264 1.63197 0
M  V30 2819 O 266.912 0.0988833 1.94248 0
M  V30 2820 C 267.195 3.46867 0.967212 0
M  V30 2821 C 267.048 4.49421 -0.18466 0
M  V30 2822 C 268.367 3.9968 1.84238 0
M  V30 2823 H 265.486 0.71641 0.172992 0
M  V30 2824 H 268.128 1.8832 -0.252079 0
M  V30 2825 H 266.278 3.54428 1.59101 0
M  V30 2826 H 267.95 4.53924 -0.821621 0
M  V30 2827 H 266.193 4.25573 -0.840837 0
M  V30 2828 H 266.864 5.51644 0.198317 0
M  V30 2829 H 269.34 3.94723 1.31655 0
M  V30 2830 H 268.216 5.04941 2.15234 0
M  V30 2831 H 268.477 3.43226 2.78654 0
M  V30 2832 N 267.536 -0.106894 1.57237 0
M  V30 2833 C 268.483 -1.13049 2.01217 0
M  V30 2834 C 269.453 -1.40471 0.886403 0
M  V30 2835 O 270.638 -1.52133 1.15153 0
M  V30 2836 C 267.778 -2.4487 2.43172 0
M  V30 2837 C 266.891 -2.24281 3.69218 0
M  V30 2838 C 266.026 -3.49417 4.00101 0
M  V30 2839 C 265.065 -3.24038 5.19294 0
M  V30 2840 N 264.202 -4.41409 5.45988 0
M  V30 2841 H 269.042 -0.748456 2.88448 0
M  V30 2842 H 266.579 -0.358054 1.42676 0
M  V30 2843 H 268.537 -3.21786 2.65537 0
M  V30 2844 H 267.167 -2.80944 1.58967 0
M  V30 2845 H 266.219 -1.38224 3.54398 0
M  V30 2846 H 267.531 -2.01512 4.56283 0
M  V30 2847 H 266.685 -4.34746 4.2318 0
M  V30 2848 H 265.424 -3.75229 3.11535 0
M  V30 2849 H 264.429 -2.37102 4.96047 0
M  V30 2850 H 265.654 -2.99584 6.09447 0
M  V30 2851 H 263.6 -4.67319 4.60379 0
M  V30 2852 H 263.517 -4.21788 6.274 0
M  V30 2853 H 264.785 -5.27836 5.73593 0
M  V30 2854 N 269.014 -1.53014 -0.377408 0
M  V30 2855 C 270.425 -1.60438 -0.954798 0
M  V30 2856 C 270.776 -0.464418 -1.90624 0
M  V30 2857 O 269.901 0.41087 -2.12464 0
M  V30 2858 C 270.496 -2.90797 -1.73847 0
M  V30 2859 C 269.055 -3.00595 -2.26538 0
M  V30 2860 C 268.202 -2.55645 -1.07429 0
M  V30 2861 H 271.153 -1.57926 -0.156575 0
M  V30 2862 H 271.174 -2.77935 -2.5987 0
M  V30 2863 H 270.686 -3.73746 -1.04574 0
M  V30 2864 H 268.787 -2.22208 -2.99089 0
M  V30 2865 H 268.9 -4.05456 -2.5523 0
M  V30 2866 H 267.264 -2.10239 -1.43777 0
M  V30 2867 H 268.047 -3.41 -0.396728 0
M  V30 2868 N 270.492 0.636531 -1.44174 0
M  V30 2869 C 271.44 1.76995 -1.50915 0
M  V30 2870 C 272.434 1.65053 -0.381295 0
M  V30 2871 O 273.64 1.71197 -0.55601 0
M  V30 2872 H 270.015 0.584247 -0.473455 0
M  V30 2873 H 271.986 1.68432 -2.4632 0
M  V30 2874 C 270.735 3.15314 -1.46534 0
M  V30 2875 H 270.058 3.25149 -2.32633 0
M  V30 2876 H 271.498 3.9453 -1.55312 0
M  V30 2877 C 269.957 3.3639 -0.185305 0
M  V30 2878 O 270.487 3.94699 0.746688 0
M  V30 2879 N 268.693 2.9046 -0.0901606 0
M  V30 2880 H 268.24 2.43193 -0.849416 0
M  V30 2881 H 268.198 3.04937 0.765553 0
M  V30 2882 N 271.97 1.30982 0.876444 0
M  V30 2883 C 273.195 1.23373 1.66715 0
M  V30 2884 C 273.62 -0.19885 1.87046 0
M  V30 2885 O 272.978 -1.1427 1.40756 0
M  V30 2886 C 273.026 1.97644 3.01611 0
M  V30 2887 O 272.13 1.30935 3.91062 0
M  V30 2888 H 271.471 0.426279 0.509099 0
M  V30 2889 H 274.001 1.72944 1.09323 0
M  V30 2890 H 274.011 2.06992 3.51594 0
M  V30 2891 H 272.686 3.01829 2.86133 0
M  V30 2892 H 271.263 1.29996 3.49507 0
M  V30 2893 N 273.449 -1.08991 1.13837 0
M  V30 2894 C 274.397 -2.17841 0.815347 0
M  V30 2895 C 275.391 -1.68164 -0.204233 0
M  V30 2896 O 276.597 -1.79897 -0.0609304 0
M  V30 2897 H 272.972 -0.710654 0.245915 0
M  V30 2898 H 274.943 -2.42315 1.74143 0
M  V30 2899 C 273.692 -3.46381 0.302614 0
M  V30 2900 H 273.015 -3.84979 1.0785 0
M  V30 2901 H 274.455 -4.23844 0.115074 0
M  V30 2902 C 272.914 -3.22556 -0.972591 0
M  V30 2903 O 273.444 -3.45599 -2.04754 0
M  V30 2904 N 271.65 -2.76134 -0.905455 0
M  V30 2905 H 271.197 -2.57582 -0.0305421 0
M  V30 2906 H 271.155 -2.60571 -1.75926 0
M  V30 2907 N 274.927 -0.932562 -1.27047 0
M  V30 2908 C 275.859 -0.392734 -2.2581 0
M  V30 2909 C 276.872 0.479241 -1.55586 0
M  V30 2910 O 278.061 0.291078 -1.76111 0
M  V30 2911 C 275.161 0.455456 -3.35826 0
M  V30 2912 C 274.334 -0.398355 -4.35582 0
M  V30 2913 C 273.393 0.387985 -5.24768 0
M  V30 2914 O 272.419 -0.206003 -5.68827 0
M  V30 2915 N 273.621 1.68664 -5.55457 0
M  V30 2916 H 276.386 -1.24173 -2.72766 0
M  V30 2917 H 273.947 -0.800511 -1.40725 0
M  V30 2918 H 275.939 0.988692 -3.92437 0
M  V30 2919 H 274.509 1.20522 -2.88432 0
M  V30 2920 H 273.729 -1.11286 -3.78165 0
M  V30 2921 H 275.017 -0.981889 -4.99236 0
M  V30 2922 H 274.415 2.19147 -5.21528 0
M  V30 2923 H 272.972 2.1663 -6.14748 0
M  V30 2924 N 276.405 1.4127 -0.698611 0
M  V30 2925 C 277.651 2.01478 -0.231207 0
M  V30 2926 C 277.984 1.55215 1.16713 0
M  V30 2927 O 277.259 0.764672 1.78838 0
M  V30 2928 C 277.542 3.58912 -0.292281 0
M  V30 2929 C 277.395 4.15293 -1.72778 0
M  V30 2930 C 278.714 4.38736 0.346194 0
M  V30 2931 H 275.833 0.732025 -0.0854878 0
M  V30 2932 H 278.475 1.67977 -0.887906 0
M  V30 2933 H 276.625 3.87582 0.26686 0
M  V30 2934 H 278.297 3.97486 -2.341 0
M  V30 2935 H 276.54 3.7022 -2.26096 0
M  V30 2936 H 277.211 5.24452 -1.72202 0
M  V30 2937 H 279.687 4.15897 -0.130035 0
M  V30 2938 H 278.563 5.48221 0.272932 0
M  V30 2939 H 278.824 4.18425 1.42734 0
M  V30 2940 N 277.883 0.443576 1.51229 0
M  V30 2941 C 278.831 -0.37904 2.29491 0
M  V30 2942 C 279.825 -1.0153 1.35603 0
M  V30 2943 O 281.031 -0.94955 1.52917 0
M  V30 2944 H 277.406 -0.141053 0.738653 0
M  V30 2945 H 279.377 0.301799 2.9687 0
M  V30 2946 C 278.126 -1.46426 3.15364 0
M  V30 2947 H 277.449 -0.984037 3.87501 0
M  V30 2948 H 278.889 -2.01297 3.7317 0
M  V30 2949 C 277.348 -2.45099 2.31146 0
M  V30 2950 O 277.878 -3.49773 1.9754 0
M  V30 2951 N 276.084 -2.16139 1.94249 0
M  V30 2952 H 275.631 -1.31044 2.21777 0
M  V30 2953 H 275.589 -2.82398 1.38198 0
M  V30 2954 N 279.361 -1.56624 0.175154 0
M  V30 2955 C 280.291 -2.21155 -0.749195 0
M  V30 2956 C 281.272 -1.16836 -1.23626 0
M  V30 2957 O 282.457 -1.45277 -1.28873 0
M  V30 2958 C 279.587 -2.8553 -1.97711 0
M  V30 2959 C 278.541 -3.95921 -1.62575 0
M  V30 2960 C 277.867 -4.47365 -2.92864 0
M  V30 2961 C 279.167 -5.15323 -0.850838 0
M  V30 2962 H 280.861 -2.98653 -0.211295 0
M  V30 2963 H 278.407 -1.43651 -0.100188 0
M  V30 2964 H 280.36 -3.2935 -2.62881 0
M  V30 2965 H 279.084 -2.05406 -2.53921 0
M  V30 2966 H 277.743 -3.52762 -0.997719 0
M  V30 2967 H 277.391 -3.64027 -3.47122 0
M  V30 2968 H 277.091 -5.21839 -2.70106 0
M  V30 2969 H 278.615 -4.93873 -3.59056 0
M  V30 2970 H 280.029 -5.55812 -1.40521 0
M  V30 2971 H 278.426 -5.95739 -0.722154 0
M  V30 2972 H 279.496 -4.84661 0.152082 0
M  V30 2973 N 280.839 0.0985539 -1.57292 0
M  V30 2974 C 281.802 1.10402 -2.00858 0
M  V30 2975 C 282.802 1.33146 -0.901593 0
M  V30 2976 O 283.992 1.29318 -1.16716 0
M  V30 2977 C 281.124 2.45394 -2.36632 0
M  V30 2978 H 282.317 0.729099 -2.90902 0
M  V30 2979 H 279.87 0.343495 -1.52479 0
M  V30 2980 H 280.605 2.87769 -1.49531 0
M  V30 2981 H 280.39 2.30235 -3.17387 0
M  V30 2982 H 281.88 3.17718 -2.71007 0
M  V30 2983 N 282.317 1.53212 0.369288 0
M  V30 2984 C 283.542 1.73423 1.1375 0
M  V30 2985 C 283.967 0.460404 1.82378 0
M  V30 2986 O 283.325 -0.585298 1.71592 0
M  V30 2987 C 283.373 2.89769 2.1463 0
M  V30 2988 O 282.477 2.58119 3.21634 0
M  V30 2989 H 281.818 0.576061 0.330227 0
M  V30 2990 H 284.348 2.00083 0.427547 0
M  V30 2991 H 284.358 3.15829 2.58294 0
M  V30 2992 H 283.033 3.8217 1.64071 0
M  V30 2993 H 281.61 2.42864 2.82969 0
M  V30 2994 N 283.795 -0.628877 1.44509 0
M  V30 2995 C 285.035 -1.39993 1.48934 0
M  V30 2996 C 285.399 -1.91627 0.119604 0
M  V30 2997 O 286.6 -2.68772 0.0385283 0
M  V30 2998 C 284.871 -2.53241 2.52198 0
M  V30 2999 S 286.43 -3.41383 2.75687 0
M  V30 3000 H 283.248 -0.477558 0.526744 0
M  V30 3001 H 285.85 -0.727804 1.81448 0
M  V30 3002 H 284.554 -2.13622 3.50419 0
M  V30 3003 H 284.085 -3.25278 2.21264 0
M  V30 3004 H 286.1 -4.50752 2.07453 0
M  V30 3005 N 285.273 -1.31445 -0.869486 0
M  V30 3006 C 286.513 -1.22458 -1.63656 0
M  V30 3007 C 286.877 0.213846 -1.90805 0
M  V30 3008 O 288.078 0.427212 -2.65383 0
M  V30 3009 C 286.349 -2.04564 -2.93067 0
M  V30 3010 S 287.908 -2.12445 -3.83944 0
M  V30 3011 H 284.726 -0.436145 -0.561514 0
M  V30 3012 H 287.328 -1.66114 -1.03085 0
M  V30 3013 H 286.032 -3.0816 -2.71045 0
M  V30 3014 H 285.563 -1.6163 -3.58663 0
M  V30 3015 H 287.578 -1.26312 -4.79854 0
M  V30 3016 N 286.751 1.08385 -1.14413 0
M  V30 3017 C 287.997 1.81044 -0.913834 0
M  V30 3018 C 288.33 1.86004 0.558209 0
M  V30 3019 O 287.605 1.33606 1.4135 0
M  V30 3020 C 287.888 3.26648 -1.51569 0
M  V30 3021 C 287.741 3.29895 -3.0576 0
M  V30 3022 C 289.06 4.23629 -1.19273 0
M  V30 3023 H 286.179 0.65727 -0.333414 0
M  V30 3024 H 288.821 1.26896 -1.41412 0
M  V30 3025 H 286.971 3.72889 -1.09023 0
M  V30 3026 H 288.643 2.91977 -3.57137 0
M  V30 3027 H 286.886 2.69163 -3.40197 0
M  V30 3028 H 287.557 4.32516 -3.42977 0
M  V30 3029 H 290.033 3.85727 -1.56057 0
M  V30 3030 H 288.909 5.23822 -1.64017 0
M  V30 3031 H 289.17 4.41968 -0.108068 0
M  V30 3032 N 288.23 0.939286 1.26551 0
M  V30 3033 C 289.163 0.391702 2.24813 0
M  V30 3034 C 290.141 -0.518421 1.54114 0
M  V30 3035 O 291.325 -0.456299 1.82894 0
M  V30 3036 C 288.452 -0.437382 3.35864 0
M  V30 3037 C 287.498 0.410946 4.24516 0
M  V30 3038 S 288.331 1.83372 5.03125 0
M  V30 3039 C 289.487 1.01264 6.17654 0
M  V30 3040 H 289.72 1.22448 2.70913 0
M  V30 3041 H 287.253 0.742269 1.35387 0
M  V30 3042 H 289.211 -0.909837 4.0029 0
M  V30 3043 H 287.872 -1.24482 2.8838 0
M  V30 3044 H 287.065 -0.224191 5.03501 0
M  V30 3045 H 286.667 0.818014 3.64945 0
M  V30 3046 H 288.959 0.254023 6.77024 0
M  V30 3047 H 289.902 1.77589 6.85469 0
M  V30 3048 H 290.31 0.549532 5.61819 0
M  V30 3049 N 289.708 -1.40897 0.706093 0
M  V30 3050 C 291.119 -1.84023 0.315052 0
M  V30 3051 C 291.47 -1.5906 -1.14866 0
M  V30 3052 O 290.595 -1.06651 -1.88293 0
M  V30 3053 C 291.19 -3.34055 0.565038 0
M  V30 3054 C 289.749 -3.7571 0.227806 0
M  V30 3055 C 288.896 -2.64204 0.842122 0
M  V30 3056 H 291.847 -1.303 0.905963 0
M  V30 3057 H 291.868 -3.80107 -0.172843 0
M  V30 3058 H 291.38 -3.52192 1.63042 0
M  V30 3059 H 289.481 -3.63172 -0.832895 0
M  V30 3060 H 289.594 -4.74103 0.690174 0
M  V30 3061 H 287.958 -2.53255 0.270893 0
M  V30 3062 H 288.741 -2.85155 1.91158 0
M  V30 3063 N 291.186 -0.45159 -1.50991 0
M  V30 3064 C 292.597 0.00818571 -1.86698 0
M  V30 3065 C 292.948 1.40661 -1.3678 0
M  V30 3066 O 292.073 2.0391 -0.724546 0
M  V30 3067 C 292.668 0.0216303 -3.38793 0
M  V30 3068 C 291.227 0.425865 -3.73983 0
M  V30 3069 C 290.374 -0.372163 -2.74791 0
M  V30 3070 H 293.325 -0.666785 -1.44013 0
M  V30 3071 H 293.346 0.828078 -3.7138 0
M  V30 3072 H 292.858 -0.996288 -3.75094 0
M  V30 3073 H 290.959 1.44886 -3.43277 0
M  V30 3074 H 291.072 0.140761 -4.78893 0
M  V30 3075 H 289.436 0.171498 -2.54122 0
M  V30 3076 H 290.219 -1.38922 -3.13935 0
M  V30 3077 N 292.664 1.56529 -0.183458 0
M  V30 3078 C 293.941 1.88959 0.50536 0
M  V30 3079 C 294.321 1.09523 1.80466 0
M  V30 3080 O 293.669 0.19278 2.27685 0
M  V30 3081 C 293.879 3.41162 0.73547 0
M  V30 3082 C 295.227 4.11155 1.06005 0
M  V30 3083 O 296.251 3.46548 0.823594 0
M  V30 3084 O 295.11 5.25318 1.50675 0
M  V30 3085 H 292.204 0.78441 0.261973 0
M  V30 3086 H 294.75 1.68231 -0.222802 0
M  V30 3087 H 293.522 3.90874 -0.182561 0
M  V30 3088 H 293.145 3.67543 1.51651 0
M  V30 3089 N 294.142 -0.090211 1.57342 0
M  V30 3090 C 295.072 -1.10976 2.05443 0
M  V30 3091 C 296.053 -1.41482 0.944284 0
M  V30 3092 O 297.238 -1.51428 1.21586 0
M  V30 3093 C 294.368 -2.42831 2.48295 0
M  V30 3094 C 293.322 -2.26721 3.63018 0
M  V30 3095 C 292.648 -3.63796 3.91863 0
M  V30 3096 C 293.948 -1.7037 4.93732 0
M  V30 3097 H 295.642 -0.709564 2.9087 0
M  V30 3098 H 293.188 -0.339874 1.39932 0
M  V30 3099 H 295.141 -3.14431 2.80555 0
M  V30 3100 H 293.865 -2.84795 1.59873 0
M  V30 3101 H 292.524 -1.57565 3.31012 0
M  V30 3102 H 292.172 -4.03297 3.00601 0
M  V30 3103 H 291.872 -3.53861 4.69101 0
M  V30 3104 H 293.396 -4.36855 4.26603 0
M  V30 3105 H 294.81 -2.31816 5.24342 0
M  V30 3106 H 293.207 -1.71181 5.75167 0
M  V30 3107 H 294.277 -0.663542 4.80339 0
M  V30 3108 N 295.62 -1.53406 -0.361157 0
M  V30 3109 C 296.848 -1.73717 -1.12383 0
M  V30 3110 C 297.263 -0.468161 -1.82904 0
M  V30 3111 O 296.62 0.559198 -1.73722 0
M  V30 3112 C 296.671 -2.90558 -2.15078 0
M  V30 3113 O 296.392 -4.12549 -1.47428 0
M  V30 3114 C 297.893 -3.22777 -3.03858 0
M  V30 3115 H 295.113 -0.580896 -0.335858 0
M  V30 3116 H 297.657 -2.00167 -0.418728 0
M  V30 3117 H 295.812 -2.66489 -2.8118 0
M  V30 3118 H 296.226 -4.78009 -2.15887 0
M  V30 3119 H 297.7 -4.07927 -3.71887 0
M  V30 3120 H 298.177 -2.38329 -3.68912 0
M  V30 3121 H 298.783 -3.48787 -2.43367 0
M  V30 3122 N 297.098 0.621204 -1.44841 0
M  V30 3123 C 298.061 1.71459 -1.521 0
M  V30 3124 C 299.061 1.55696 -0.401933 0
M  V30 3125 O 300.251 1.61011 -0.664925 0
M  V30 3126 C 297.383 3.10624 -1.40447 0
M  V30 3127 H 298.576 1.66394 -2.49506 0
M  V30 3128 H 296.129 0.835745 -1.3208 0
M  V30 3129 H 296.864 3.21277 -0.441737 0
M  V30 3130 H 296.649 3.23473 -2.21602 0
M  V30 3131 H 298.139 3.90293 -1.4853 0
M  V30 3132 N 298.576 1.31904 0.862503 0
M  V30 3133 C 299.823 1.22017 1.61611 0
M  V30 3134 C 300.151 -0.21991 1.93253 0
M  V30 3135 O 299.406 -1.17076 1.56817 0
M  V30 3136 C 299.705 2.01713 2.95037 0
M  V30 3137 C 299.371 3.51145 2.82857 0
M  V30 3138 C 298.033 3.91889 2.79243 0
M  V30 3139 C 300.385 4.46204 2.69353 0
M  V30 3140 C 297.713 5.25947 2.59993 0
M  V30 3141 C 300.065 5.80397 2.5164 0
M  V30 3142 C 298.729 6.20352 2.46413 0
M  V30 3143 H 297.999 0.44649 0.591378 0
M  V30 3144 H 300.646 1.63248 1.00111 0
M  V30 3145 H 298.951 1.53185 3.60613 0
M  V30 3146 H 300.648 1.91437 3.52353 0
M  V30 3147 H 297.238 3.1878 2.86491 0
M  V30 3148 H 301.422 4.15652 2.71196 0
M  V30 3149 H 296.678 5.5597 2.54376 0
M  V30 3150 H 300.852 6.53676 2.40169 0
M  V30 3151 H 298.479 7.24172 2.31256 0
M  V30 3152 N 300.054 -1.07777 1.14986 0
M  V30 3153 C 301.017 -2.13041 0.845358 0
M  V30 3154 C 302.017 -1.60071 -0.152931 0
M  V30 3155 O 303.207 -1.74033 0.0761879 0
M  V30 3156 C 300.339 -3.39896 0.261383 0
M  V30 3157 H 301.532 -2.41485 1.77834 0
M  V30 3158 H 299.085 -1.23595 0.956757 0
M  V30 3159 H 299.82 -3.17091 -0.68 0
M  V30 3160 H 299.605 -3.79642 0.980514 0
M  V30 3161 H 301.095 -4.17548 0.0657687 0
M  V30 3162 N 301.532 -0.945985 -1.26051 0
M  V30 3163 C 302.479 -0.45809 -2.26208 0
M  V30 3164 C 303.449 0.484816 -1.58867 0
M  V30 3165 O 304.634 0.399969 -1.86561 0
M  V30 3166 C 301.774 0.266131 -3.44072 0
M  V30 3167 C 300.887 -0.713005 -4.26075 0
M  V30 3168 C 300.022 0.0329013 -5.3119 0
M  V30 3169 C 299.061 -0.93774 -6.04874 0
M  V30 3170 N 298.198 -0.223274 -7.01745 0
M  V30 3171 H 303.038 -1.3171 -2.67313 0
M  V30 3172 H 300.575 -0.66069 -1.31428 0
M  V30 3173 H 302.533 0.702514 -4.11243 0
M  V30 3174 H 301.163 1.08925 -3.03867 0
M  V30 3175 H 300.215 -1.26789 -3.58648 0
M  V30 3176 H 301.527 -1.45406 -4.77136 0
M  V30 3177 H 300.681 0.528335 -6.04395 0
M  V30 3178 H 299.42 0.806801 -4.8098 0
M  V30 3179 H 298.425 -1.44425 -5.30492 0
M  V30 3180 H 299.65 -1.71172 -6.57173 0
M  V30 3181 H 297.596 0.532046 -6.53839 0
M  V30 3182 H 297.513 -0.90357 -7.50581 0
M  V30 3183 H 298.781 0.250907 -7.79096 0
M  V30 3184 N 303.011 1.40521 -0.713556 0
M  V30 3185 C 303.943 2.29191 -0.0203126 0
M  V30 3186 C 304.956 1.45723 0.725864 0
M  V30 3187 O 306.145 1.69033 0.573581 0
M  V30 3188 C 303.245 3.2395 0.995486 0
M  V30 3189 C 302.418 4.36262 0.315256 0
M  V30 3190 C 301.477 5.11474 1.23616 0
M  V30 3191 O 300.503 5.64606 0.721719 0
M  V30 3192 N 301.705 5.20638 2.56743 0
M  V30 3193 H 304.47 2.89327 -0.781652 0
M  V30 3194 H 302.031 1.51869 -0.561022 0
M  V30 3195 H 304.023 3.71137 1.61368 0
M  V30 3196 H 302.593 2.64995 1.6582 0
M  V30 3197 H 301.813 3.91228 -0.483106 0
M  V30 3198 H 303.101 5.08558 -0.157004 0
M  V30 3199 H 302.499 4.7895 3.01037 0
M  V30 3200 H 301.056 5.71339 3.13712 0
M  V30 3201 N 304.489 0.459591 1.5075 0
M  V30 3202 C 305.736 -0.0993495 2.02256 0
M  V30 3203 C 306.064 -1.40751 1.34237 0
M  V30 3204 O 305.319 -1.90379 0.453228 0
M  V30 3205 C 305.618 -0.342866 3.55752 0
M  V30 3206 C 305.284 0.88218 4.42186 0
M  V30 3207 C 303.946 1.21808 4.65528 0
M  V30 3208 C 306.298 1.69837 4.92752 0
M  V30 3209 C 303.626 2.37045 5.36681 0
M  V30 3210 C 305.978 2.84192 5.65171 0
M  V30 3211 C 304.642 3.1821 5.8677 0
M  V30 3212 H 303.912 -0.0363545 0.740108 0
M  V30 3213 H 306.559 0.611329 1.8148 0
M  V30 3214 H 304.864 -1.13567 3.7498 0
M  V30 3215 H 306.561 -0.789121 3.93159 0
M  V30 3216 H 303.151 0.610467 4.2423 0
M  V30 3217 H 307.335 1.45205 4.74583 0
M  V30 3218 H 302.591 2.63689 5.51614 0
M  V30 3219 H 306.765 3.4779 6.03337 0
M  V30 3220 H 304.392 4.07613 6.41682 0
M  V30 3221 N 305.967 -1.56429 0.191757 0
M  V30 3222 C 307.244 -1.89224 -0.495332 0
M  V30 3223 C 307.624 -1.10478 -1.79883 0
M  V30 3224 O 306.972 -0.204852 -2.2758 0
M  V30 3225 C 307.182 -3.41548 -0.717367 0
M  V30 3226 C 308.53 -4.11711 -1.03823 0
M  V30 3227 O 309.554 -3.4698 -0.805204 0
M  V30 3228 O 308.413 -5.2611 -1.47887 0
M  V30 3229 H 305.507 -0.785788 -0.25781 0
M  V30 3230 H 308.053 -1.68111 0.231721 0
M  V30 3231 H 306.825 -3.90772 0.203287 0
M  V30 3232 H 306.448 -3.68342 -1.497 0
M  V30 3233 N 307.445 0.0818655 -1.57387 0
M  V30 3234 C 308.694 0.781681 -1.85937 0
M  V30 3235 C 309.007 1.79246 -0.782957 0
M  V30 3236 O 310.213 2.54112 -0.955987 0
M  V30 3237 C 308.669 1.44109 -3.29789 0
M  V30 3238 C 308.277 0.469396 -4.45534 0
M  V30 3239 C 310.021 2.12386 -3.67549 0
M  V30 3240 C 307.928 1.13415 -5.80423 0
M  V30 3241 H 306.858 0.295682 -0.693605 0
M  V30 3242 H 309.509 0.0348051 -1.83467 0
M  V30 3243 H 307.891 2.23588 -3.2684 0
M  V30 3244 H 309.065 -0.294856 -4.59856 0
M  V30 3245 H 307.38 -0.108383 -4.16259 0
M  V30 3246 H 309.977 2.62878 -4.65617 0
M  V30 3247 H 310.32 2.91877 -2.96839 0
M  V30 3248 H 310.853 1.39751 -3.72444 0
M  V30 3249 H 307.592 0.379771 -6.54399 0
M  V30 3250 H 307.112 1.8695 -5.69921 0
M  V30 3251 H 308.791 1.65686 -6.25426 0
M  V30 3252 N 308.923 1.53595 0.353017 0
M  V30 3253 C 309.855 1.77219 1.45348 0
M  V30 3254 C 310.868 0.65324 1.49119 0
M  V30 3255 O 312.057 0.929775 1.52373 0
M  V30 3256 C 309.157 1.84841 2.84055 0
M  V30 3257 C 308.33 3.14649 3.03833 0
M  V30 3258 C 307.389 3.13351 4.22727 0
M  V30 3259 O 306.415 3.87107 4.17297 0
M  V30 3260 N 307.617 2.35052 5.30783 0
M  V30 3261 H 310.382 2.72178 1.25457 0
M  V30 3262 H 307.943 1.52528 0.542833 0
M  V30 3263 H 309.935 1.81435 3.61751 0
M  V30 3264 H 308.505 0.971114 2.97133 0
M  V30 3265 H 307.725 3.31256 2.13689 0
M  V30 3266 H 309.013 4.00411 3.13925 0
M  V30 3267 H 308.411 1.74663 5.38061 0
M  V30 3268 H 306.968 2.37453 6.07009 0
M  V30 3269 N 310.401 -0.613514 1.45168 0
M  V30 3270 C 311.331 -1.7354 1.56225 0
M  V30 3271 C 312.312 -1.64981 0.41414 0
M  V30 3272 O 313.497 -1.83472 0.636526 0
M  V30 3273 C 310.627 -3.12128 1.52295 0
M  V30 3274 C 309.581 -3.35491 2.65762 0
M  V30 3275 C 308.907 -4.74291 2.46885 0
M  V30 3276 C 310.207 -3.26325 4.0781 0
M  V30 3277 H 311.901 -1.64543 2.50132 0
M  V30 3278 H 309.447 -0.790185 1.20383 0
M  V30 3279 H 311.4 -3.90404 1.58628 0
M  V30 3280 H 310.124 -3.2195 0.549139 0
M  V30 3281 H 308.783 -2.59603 2.58847 0
M  V30 3282 H 308.431 -4.80839 1.47657 0
M  V30 3283 H 308.131 -4.9088 3.22972 0
M  V30 3284 H 309.655 -5.54775 2.55063 0
M  V30 3285 H 311.069 -3.94483 4.16 0
M  V30 3286 H 309.466 -3.54445 4.8424 0
M  V30 3287 H 310.536 -2.23855 4.30136 0
M  V30 3288 N 311.879 -1.3236 -0.855495 0
M  V30 3289 C 312.809 -1.23833 -1.97958 0
M  V30 3290 C 313.79 -0.122361 -1.69659 0
M  V30 3291 O 314.975 -0.30939 -1.9172 0
M  V30 3292 C 312.105 -0.959772 -3.33775 0
M  V30 3293 C 311.059 -2.03689 -3.76424 0
M  V30 3294 C 310.385 -1.61075 -5.09862 0
M  V30 3295 C 311.685 -3.4518 -3.9198 0
M  V30 3296 H 313.379 -2.1788 -2.0535 0
M  V30 3297 H 310.925 -1.04891 -0.986605 0
M  V30 3298 H 312.878 -0.886678 -4.11966 0
M  V30 3299 H 311.602 0.0163404 -3.26596 0
M  V30 3300 H 310.261 -2.10012 -3.00484 0
M  V30 3301 H 309.909 -0.622107 -4.99138 0
M  V30 3302 H 309.609 -2.33143 -5.39368 0
M  V30 3303 H 311.133 -1.55201 -5.90546 0
M  V30 3304 H 312.547 -3.4145 -4.60526 0
M  V30 3305 H 310.944 -4.1559 -4.32903 0
M  V30 3306 H 312.014 -3.84903 -2.94919 0
M  V30 3307 N 313.357 1.07166 -1.15556 0
M  V30 3308 C 314.585 1.83514 -0.955519 0
M  V30 3309 C 315 1.82163 0.49621 0
M  V30 3310 O 314.357 1.23441 1.34419 0
M  V30 3311 C 314.408 3.30515 -1.46432 0
M  V30 3312 O 314.129 3.31937 -2.85918 0
M  V30 3313 C 315.63 4.23625 -1.30603 0
M  V30 3314 H 312.85 0.578926 -0.339244 0
M  V30 3315 H 315.394 1.35265 -1.53374 0
M  V30 3316 H 313.549 3.76106 -0.928584 0
M  V30 3317 H 313.963 4.23794 -3.09029 0
M  V30 3318 H 315.437 5.24831 -1.71047 0
M  V30 3319 H 315.914 4.38485 -0.250441 0
M  V30 3320 H 316.52 3.83871 -1.83094 0
M  V30 3321 N 314.835 0.952656 1.25548 0
M  V30 3322 C 315.785 0.442033 2.23674 0
M  V30 3323 C 316.769 -0.467632 1.53955 0
M  V30 3324 O 317.961 -0.301006 1.74422 0
M  V30 3325 C 315.09 -0.280816 3.4215 0
M  V30 3326 C 314.176 0.646803 4.19139 0
M  V30 3327 N 314.567 1.77759 4.73535 0
M  V30 3328 C 312.865 0.454617 4.43677 0
M  V30 3329 C 313.566 2.35658 5.31827 0
M  V30 3330 N 312.542 1.64333 5.18166 0
M  V30 3331 H 316.344 1.30505 2.63336 0
M  V30 3332 H 313.858 0.809904 1.40763 0
M  V30 3333 H 315.855 -0.663747 4.11582 0
M  V30 3334 H 314.515 -1.14046 3.04012 0
M  V30 3335 H 315.526 2.15949 4.7073 0
M  V30 3336 H 312.203 -0.362312 4.15925 0
M  V30 3337 H 313.593 3.30998 5.84713 0
M  V30 3338 N 316.313 -1.40141 0.720998 0
M  V30 3339 C 317.261 -2.3252 0.0608547 0
M  V30 3340 C 318.255 -1.52326 -0.741152 0
M  V30 3341 O 319.461 -1.68089 -0.643911 0
M  V30 3342 H 315.836 -0.751999 0.000876664 0
M  V30 3343 H 317.807 -2.8584 0.856614 0
M  V30 3344 C 316.556 -3.37331 -0.842809 0
M  V30 3345 H 315.879 -3.99108 -0.235084 0
M  V30 3346 H 317.319 -4.04452 -1.27257 0
M  V30 3347 C 315.778 -2.73246 -1.97074 0
M  V30 3348 O 316.308 -2.59998 -3.06209 0
M  V30 3349 N 314.514 -2.31547 -1.75597 0
M  V30 3350 H 314.061 -2.42522 -0.868368 0
M  V30 3351 H 314.019 -1.89007 -2.51244 0
M  V30 3352 N 317.792 -0.46758 -1.50504 0
M  V30 3353 C 319.069 0.15003 -1.95024 0
M  V30 3354 C 319.449 1.57304 -1.40779 0
M  V30 3355 O 318.797 2.20281 -0.607319 0
M  V30 3356 C 319.007 0.0969324 -3.48865 0
M  V30 3357 C 320.355 0.287565 -4.23625 0
M  V30 3358 O 321.379 0.173678 -3.55776 0
M  V30 3359 O 320.238 0.517186 -5.44047 0
M  V30 3360 H 317.332 0.113582 -0.819163 0
M  V30 3361 H 319.878 -0.52773 -1.61286 0
M  V30 3362 H 318.65 -0.896732 -3.80886 0
M  V30 3363 H 318.273 0.816303 -3.8913 0
M  V30 3364 N 319.27 1.56325 -0.20005 0
M  V30 3365 C 320.681 1.8408 0.31167 0
M  V30 3366 C 321.032 1.12087 1.61031 0
M  V30 3367 O 320.157 0.38332 2.12978 0
M  V30 3368 C 320.752 3.33932 0.57226 0
M  V30 3369 C 319.311 3.6208 1.02834 0
M  V30 3370 C 318.458 2.77186 0.079634 0
M  V30 3371 H 321.409 1.52939 -0.423729 0
M  V30 3372 H 321.43 3.52971 1.42096 0
M  V30 3373 H 320.942 3.86303 -0.37308 0
M  V30 3374 H 319.043 3.15147 1.98778 0
M  V30 3375 H 319.156 4.7023 0.917624 0
M  V30 3376 H 317.52 2.47951 0.582448 0
M  V30 3377 H 318.303 3.32347 -0.860238 0
M  V30 3378 N 320.748 -0.0735177 1.57428 0
M  V30 3379 C 321.695 -1.08756 2.0357 0
M  V30 3380 C 322.665 -1.38559 0.916 0
M  V30 3381 O 323.85 -1.49656 1.18354 0
M  V30 3382 C 320.99 -2.39657 2.48311 0
M  V30 3383 C 320.103 -2.16399 3.73892 0
M  V30 3384 C 319.238 -3.40852 4.07423 0
M  V30 3385 C 318.277 -3.1295 5.2605 0
M  V30 3386 N 317.414 -4.29729 5.55228 0
M  V30 3387 H 322.254 -0.687104 2.8997 0
M  V30 3388 H 319.791 -0.327709 1.43403 0
M  V30 3389 H 321.749 -3.16081 2.72303 0
M  V30 3390 H 320.379 -2.77508 1.64891 0
M  V30 3391 H 319.431 -1.30676 3.57251 0
M  V30 3392 H 320.743 -1.91788 4.60455 0
M  V30 3393 H 319.897 -4.25671 4.32306 0
M  V30 3394 H 318.636 -3.68537 3.19425 0
M  V30 3395 H 317.641 -2.26526 5.00965 0
M  V30 3396 H 318.866 -2.86589 6.15665 0
M  V30 3397 H 316.812 -4.57448 4.70188 0
M  V30 3398 H 316.729 -4.08385 6.36206 0
M  V30 3399 H 317.997 -5.1555 5.84661 0
M  V30 3400 N 322.226 -1.5378 -0.344866 0
M  V30 3401 C 323.136 -1.84667 -1.4469 0
M  V30 3402 C 324.152 -0.736704 -1.57635 0
M  V30 3403 O 325.328 -1.02888 -1.73136 0
M  V30 3404 C 322.393 -2.04869 -2.79696 0
M  V30 3405 C 321.454 -3.28731 -2.76106 0
M  V30 3406 C 320.687 -3.4796 -4.04673 0
M  V30 3407 O 320.91 -2.71052 -5.01883 0
M  V30 3408 O 319.844 -4.41383 -4.09224 0
M  V30 3409 H 323.67 -2.78334 -1.21506 0
M  V30 3410 H 321.255 -1.39418 -0.536921 0
M  V30 3411 H 323.137 -2.19609 -3.59652 0
M  V30 3412 H 321.812 -1.14391 -3.02814 0
M  V30 3413 H 320.719 -3.19396 -1.94774 0
M  V30 3414 H 322.052 -4.19198 -2.57941 0
M  V30 3415 N 323.704 0.605807 -1.45491 0
M  V30 3416 C 324.634 1.72709 -1.57143 0
M  V30 3417 C 325.615 1.6476 -0.422884 0
M  V30 3418 O 326.8 1.83132 -0.646247 0
M  V30 3419 C 323.93 3.11316 -1.53948 0
M  V30 3420 C 322.884 3.34077 -2.67537 0
M  V30 3421 C 322.21 4.72975 -2.49397 0
M  V30 3422 C 323.51 3.24158 -4.09535 0
M  V30 3423 H 325.204 1.63214 -2.51001 0
M  V30 3424 H 322.75 0.78379 -1.208 0
M  V30 3425 H 324.703 3.89557 -1.60696 0
M  V30 3426 H 323.427 3.21655 -0.566205 0
M  V30 3427 H 322.086 2.58227 -2.6022 0
M  V30 3428 H 321.734 4.8005 -1.50205 0
M  V30 3429 H 321.434 4.8916 -3.25571 0
M  V30 3430 H 322.958 5.53414 -2.58002 0
M  V30 3431 H 324.372 3.92271 -4.18086 0
M  V30 3432 H 322.769 3.51872 -4.86113 0
M  V30 3433 H 323.839 2.2157 -4.31317 0
M  V30 3434 N 325.182 1.32811 0.848464 0
M  V30 3435 C 326.112 1.24882 1.97299 0
M  V30 3436 C 327.093 0.131357 1.69592 0
M  V30 3437 O 328.278 0.319553 1.91553 0
M  V30 3438 C 325.408 0.97746 3.33261 0
M  V30 3439 C 324.362 2.05682 3.75338 0
M  V30 3440 C 323.688 1.63777 5.09 0
M  V30 3441 C 324.988 3.47254 3.90144 0
M  V30 3442 H 326.682 2.18966 2.04191 0
M  V30 3443 H 324.228 1.05413 0.981029 0
M  V30 3444 H 326.181 0.908513 4.1149 0
M  V30 3445 H 324.905 0.000980011 3.266 0
M  V30 3446 H 323.564 2.11603 2.99366 0
M  V30 3447 H 323.212 0.648569 4.98801 0
M  V30 3448 H 322.912 2.36 5.38124 0
M  V30 3449 H 324.436 1.5833 5.89715 0
M  V30 3450 H 325.85 3.43888 4.58709 0
M  V30 3451 H 324.247 4.1788 4.30693 0
M  V30 3452 H 325.317 3.86462 2.92874 0
M  V30 3453 N 326.66 -1.06551 1.16123 0
M  V30 3454 C 327.885 -1.83544 0.965735 0
M  V30 3455 C 328.31 -1.81843 -0.481102 0
M  V30 3456 O 327.668 -1.21732 -1.34354 0
M  V30 3457 C 327.716 -3.28169 1.49457 0
M  V30 3458 O 326.82 -4.0643 0.699157 0
M  V30 3459 H 326.161 -0.568026 0.343864 0
M  V30 3460 H 328.691 -1.34362 1.54299 0
M  V30 3461 H 328.701 -3.78992 1.51092 0
M  V30 3462 H 327.376 -3.28722 2.54784 0
M  V30 3463 H 325.953 -3.65216 0.7531 0
M  V30 3464 N 328.138 -0.959301 -1.25041 0
M  V30 3465 C 329.048 -0.489994 -2.29426 0
M  V30 3466 C 330.064 0.444944 -1.68215 0
M  V30 3467 O 331.24 0.320046 -1.98841 0
M  V30 3468 C 328.305 0.220309 -3.45999 0
M  V30 3469 C 327.366 -0.753418 -4.22637 0
M  V30 3470 C 326.599 -0.076918 -5.33645 0
M  V30 3471 O 326.822 1.13649 -5.58963 0
M  V30 3472 O 325.756 -0.764824 -5.97021 0
M  V30 3473 H 329.582 -1.35755 -2.71669 0
M  V30 3474 H 327.167 -0.725961 -1.30576 0
M  V30 3475 H 329.049 0.619677 -4.16819 0
M  V30 3476 H 327.724 1.06296 -3.0575 0
M  V30 3477 H 326.631 -1.20308 -3.54227 0
M  V30 3478 H 327.964 -1.56423 -4.66683 0
M  V30 3479 N 329.616 1.39756 -0.72842 0
M  V30 3480 C 330.579 2.29012 -0.0927297 0
M  V30 3481 C 331.579 1.45992 0.674025 0
M  V30 3482 O 332.769 1.66749 0.50402 0
M  V30 3483 C 329.901 3.29396 0.878137 0
M  V30 3484 H 331.094 2.86729 -0.879011 0
M  V30 3485 H 328.647 1.48293 -0.493847 0
M  V30 3486 H 329.382 2.76722 1.69101 0
M  V30 3487 H 329.167 3.907 0.331051 0
M  V30 3488 H 330.657 3.96199 1.3197 0
M  V30 3489 N 331.094 0.475555 1.50254 0
M  V30 3490 C 332.319 -0.0777042 2.07254 0
M  V30 3491 C 332.744 -1.3235 1.3366 0
M  V30 3492 O 332.102 -1.77152 0.385597 0
M  V30 3493 C 332.15 -0.340169 3.58992 0
M  V30 3494 O 331.254 -1.41982 3.87188 0
M  V30 3495 H 330.595 0.0149556 0.663832 0
M  V30 3496 H 333.125 0.667878 1.93392 0
M  V30 3497 H 333.135 -0.579332 4.03866 0
M  V30 3498 H 331.81 0.570167 4.11973 0
M  V30 3499 H 330.387 -1.16762 3.54148 0
M  V30 3500 N 332.573 -1.56217 0.208337 0
M  V30 3501 C 333.82 -1.97949 -0.42692 0
M  V30 3502 C 334.148 -1.09562 -1.60706 0
M  V30 3503 O 333.403 -0.137616 -1.95216 0
M  V30 3504 C 333.702 -3.45441 -0.916797 0
M  V30 3505 C 333.368 -4.50646 0.151391 0
M  V30 3506 C 332.03 -4.79139 0.444867 0
M  V30 3507 C 334.382 -5.13811 0.874492 0
M  V30 3508 C 331.71 -5.68084 1.46619 0
M  V30 3509 C 334.062 -6.03861 1.88506 0
M  V30 3510 C 332.726 -6.30704 2.18559 0
M  V30 3511 H 331.996 -0.724345 -0.156221 0
M  V30 3512 H 334.643 -1.89006 0.308084 0
M  V30 3513 H 332.948 -3.51521 -1.73032 0
M  V30 3514 H 334.645 -3.75094 -1.41794 0
M  V30 3515 H 331.235 -4.28511 -0.0875068 0
M  V30 3516 H 335.419 -4.91879 0.660996 0
M  V30 3517 H 330.675 -5.87151 1.7048 0
M  V30 3518 H 334.849 -6.51861 2.45051 0
M  V30 3519 H 332.476 -6.99424 2.97843 0
M  V30 3520 N 334.051 0.0651679 -1.57465 0
M  V30 3521 C 334.983 1.10359 -2.00882 0
M  V30 3522 C 335.996 1.346 -0.915788 0
M  V30 3523 O 337.185 1.32723 -1.1936 0
M  V30 3524 C 334.285 2.45312 -2.33828 0
M  V30 3525 C 333.458 2.40934 -3.65061 0
M  V30 3526 C 332.517 3.58047 -3.85602 0
M  V30 3527 O 331.543 3.39175 -4.57109 0
M  V30 3528 N 332.745 4.78637 -3.28462 0
M  V30 3529 H 335.51 0.733807 -2.90578 0
M  V30 3530 H 333.071 0.253719 -1.599 0
M  V30 3531 H 335.063 3.22314 -2.44737 0
M  V30 3532 H 333.633 2.74267 -1.49988 0
M  V30 3533 H 332.853 1.49273 -3.64844 0
M  V30 3534 H 334.141 2.35117 -4.51218 0
M  V30 3535 H 333.539 4.96872 -2.70433 0
M  V30 3536 H 332.096 5.53127 -3.44809 0
M  V30 3537 N 335.529 1.53961 0.336706 0
M  V30 3538 C 336.439 1.85432 1.43708 0
M  V30 3539 C 337.455 0.745053 1.57242 0
M  V30 3540 O 338.631 1.03804 1.72588 0
M  V30 3541 C 335.696 2.06349 2.78605 0
M  V30 3542 C 334.757 3.30191 2.74358 0
M  V30 3543 C 333.99 3.50101 4.02822 0
M  V30 3544 O 334.213 2.7371 5.00439 0
M  V30 3545 O 333.147 4.43547 4.06878 0
M  V30 3546 H 336.973 2.78975 1.20028 0
M  V30 3547 H 334.558 1.39701 0.52952 0
M  V30 3548 H 336.44 2.21513 3.58483 0
M  V30 3549 H 335.115 1.15995 3.02203 0
M  V30 3550 H 334.022 3.20425 1.93078 0
M  V30 3551 H 335.355 4.2056 2.55715 0
M  V30 3552 N 337.007 -0.598083 1.45811 0
M  V30 3553 C 337.97 -1.69018 1.54808 0
M  V30 3554 C 338.97 -1.55037 0.426652 0
M  V30 3555 O 340.16 -1.59932 0.690456 0
M  V30 3556 C 337.292 -3.0835 1.45371 0
M  V30 3557 H 338.485 -1.62403 2.52121 0
M  V30 3558 H 336.038 -0.814626 1.33392 0
M  V30 3559 H 336.773 -3.20534 0.492793 0
M  V30 3560 H 336.558 -3.19907 2.26721 0
M  V30 3561 H 338.048 -3.8788 1.54721 0
M  V30 3562 N 338.485 -1.33259 -0.841409 0
M  V30 3563 C 339.415 -1.25926 -1.96634 0
M  V30 3564 C 340.396 -0.140349 -1.6952 0
M  V30 3565 O 341.581 -0.329707 -1.91381 0
M  V30 3566 C 338.711 -0.99512 -3.32738 0
M  V30 3567 C 337.665 -2.0767 -3.74242 0
M  V30 3568 C 336.991 -1.66474 -5.08125 0
M  V30 3569 C 338.291 -3.49318 -3.88297 0
M  V30 3570 H 339.985 -2.20046 -2.03027 0
M  V30 3571 H 337.531 -1.05931 -0.975425 0
M  V30 3572 H 339.484 -0.930323 -4.11002 0
M  V30 3573 H 338.208 -0.0183004 -3.26595 0
M  V30 3574 H 336.867 -2.13187 -2.98239 0
M  V30 3575 H 336.515 -0.675012 -4.9845 0
M  V30 3576 H 336.215 -2.3885 -5.36865 0
M  V30 3577 H 337.739 -1.61455 -5.88867 0
M  V30 3578 H 339.153 -3.46316 -4.56879 0
M  V30 3579 H 337.55 -4.20158 -4.28471 0
M  V30 3580 H 338.62 -3.8801 -2.9082 0
M  V30 3581 N 339.963 1.05934 -1.16686 0
M  V30 3582 C 340.895 2.13468 -0.834503 0
M  V30 3583 C 341.908 1.62013 0.15984 0
M  V30 3584 O 343.097 1.7838 -0.0654228 0
M  V30 3585 C 340.197 3.3817 -0.222361 0
M  V30 3586 C 339.37 4.18928 -1.25771 0
M  V30 3587 C 338.429 5.21985 -0.664703 0
M  V30 3588 O 337.455 5.53334 -1.33453 0
M  V30 3589 N 338.657 5.77919 0.546834 0
M  V30 3590 H 341.422 2.42578 -1.75999 0
M  V30 3591 H 338.983 1.21967 -1.06469 0
M  V30 3592 H 340.975 4.04266 0.187472 0
M  V30 3593 H 339.545 3.06655 0.606758 0
M  V30 3594 H 338.765 3.48433 -1.84358 0
M  V30 3595 H 340.053 4.69687 -1.95631 0
M  V30 3596 H 339.451 5.54721 1.10912 0
M  V30 3597 H 338.008 6.45573 0.898829 0
M  V30 3598 N 341.441 0.965919 1.2453 0
M  V30 3599 C 342.351 0.502154 2.29163 0
M  V30 3600 C 343.367 -0.436017 1.68448 0
M  V30 3601 O 344.543 -0.309497 1.99008 0
M  V30 3602 C 341.608 -0.201956 3.46111 0
M  V30 3603 C 340.669 0.775821 4.22232 0
M  V30 3604 C 339.902 0.105217 5.33596 0
M  V30 3605 O 340.125 -1.10683 5.59558 0
M  V30 3606 O 339.059 0.796475 5.96607 0
M  V30 3607 H 342.885 1.37194 2.70946 0
M  V30 3608 H 340.47 0.732875 1.30189 0
M  V30 3609 H 342.352 -0.597564 4.17142 0
M  V30 3610 H 341.027 -1.04673 3.06309 0
M  V30 3611 H 339.934 1.22185 3.53584 0
M  V30 3612 H 341.267 1.58896 4.65846 0
M  V30 3613 N 342.919 -1.39368 0.735821 0
M  V30 3614 C 344.144 -2.05319 0.293052 0
M  V30 3615 C 344.569 -1.55115 -1.064 0
M  V30 3616 O 343.927 -0.695261 -1.67439 0
M  V30 3617 C 343.975 -3.59305 0.305323 0
M  V30 3618 O 343.079 -4.06299 -0.706761 0
M  V30 3619 H 342.42 -0.650529 0.13307 0
M  V30 3620 H 344.95 -1.78386 1.00197 0
M  V30 3621 H 344.96 -4.07724 0.149997 0
M  V30 3622 H 343.635 -3.95207 1.29553 0
M  V30 3623 H 342.212 -3.69292 -0.517504 0
M  V30 3624 N 344.397 -0.483516 -1.5 0
M  V30 3625 C 345.646 0.0689102 -2.01582 0
M  V30 3626 C 345.959 1.39655 -1.36952 0
M  V30 3627 O 347.165 2.03465 -1.79762 0
M  V30 3628 C 345.621 0.173302 -3.59483 0
M  V30 3629 C 345.229 -1.14665 -4.33077 0
M  V30 3630 C 346.973 0.677024 -4.19066 0
M  V30 3631 C 344.88 -1.00537 -5.82792 0
M  V30 3632 H 343.81 0.0295277 -0.753422 0
M  V30 3633 H 346.461 -0.620295 -1.72698 0
M  V30 3634 H 344.843 0.926569 -3.85007 0
M  V30 3635 H 346.017 -1.91184 -4.19268 0
M  V30 3636 H 344.332 -1.58244 -3.85159 0
M  V30 3637 H 346.929 0.799952 -5.28682 0
M  V30 3638 H 347.272 1.67151 -3.81269 0
M  V30 3639 H 347.805 -0.0192083 -3.97795 0
M  V30 3640 H 344.544 -1.9736 -6.25083 0
M  V30 3641 H 344.064 -0.280776 -5.99142 0
M  V30 3642 H 345.743 -0.677 -6.43448 0
M  V30 3643 N 345.875 1.56104 -0.216619 0
M  V30 3644 C 347.286 1.844 0.292128 0
M  V30 3645 C 347.637 1.13788 1.59833 0
M  V30 3646 O 346.762 0.405888 2.12559 0
M  V30 3647 C 347.357 3.3452 0.53681 0
M  V30 3648 C 345.916 3.63151 0.989876 0
M  V30 3649 C 345.063 2.77255 0.0502302 0
M  V30 3650 H 348.014 1.52481 -0.439926 0
M  V30 3651 H 348.035 3.54459 1.38345 0
M  V30 3652 H 347.547 3.85885 -0.414031 0
M  V30 3653 H 345.648 3.17238 1.95425 0
M  V30 3654 H 345.761 4.71177 0.867698 0
M  V30 3655 H 344.125 2.48555 0.556117 0
M  V30 3656 H 344.908 3.31416 -0.89544 0
M  V30 3657 N 347.353 -0.0568162 1.57498 0
M  V30 3658 C 348.63 -0.786954 1.79071 0
M  V30 3659 C 349.01 -1.95028 0.80792 0
M  V30 3660 O 348.358 -2.27968 -0.155858 0
M  V30 3661 C 348.568 -1.24594 3.26002 0
M  V30 3662 C 349.916 -1.67323 3.90241 0
M  V30 3663 O 350.94 -1.34124 3.29984 0
M  V30 3664 O 349.799 -2.28842 4.9628 0
M  V30 3665 H 346.893 -0.378262 0.735423 0
M  V30 3666 H 349.439 -0.035734 1.69662 0
M  V30 3667 H 348.211 -0.41423 3.89101 0
M  V30 3668 H 347.834 -2.05803 3.40192 0
M  V30 3669 N 348.832 -1.54138 -0.328536 0
M  V30 3670 C 350.081 -1.71318 -1.06456 0
M  V30 3671 C 350.394 -0.491109 -1.89334 0
M  V30 3672 O 351.6 -0.54416 -2.65991 0
M  V30 3673 C 350.056 -3.03 -1.94214 0
M  V30 3674 C 349.664 -4.32595 -1.16471 0
M  V30 3675 C 351.408 -3.29544 -2.67583 0
M  V30 3676 C 349.315 -5.55341 -2.03347 0
M  V30 3677 H 348.245 -0.638429 -0.401155 0
M  V30 3678 H 350.896 -1.80633 -0.323106 0
M  V30 3679 H 349.278 -2.87579 -2.72239 0
M  V30 3680 H 350.452 -4.58766 -0.432525 0
M  V30 3681 H 348.767 -4.12777 -0.548063 0
M  V30 3682 H 351.364 -4.18444 -3.3288 0
M  V30 3683 H 351.707 -2.47206 -3.34955 0
M  V30 3684 H 352.24 -3.45809 -1.96623 0
M  V30 3685 H 348.979 -6.40268 -1.40491 0
M  V30 3686 H 348.499 -5.33397 -2.74313 0
M  V30 3687 H 350.178 -5.91557 -2.62049 0
M  V30 3688 N 350.31 0.590341 -1.46126 0
M  V30 3689 C 351.242 1.71427 -1.52136 0
M  V30 3690 C 352.255 1.57542 -0.41042 0
M  V30 3691 O 353.444 1.65106 -0.678389 0
M  V30 3692 C 350.544 3.09605 -1.37834 0
M  V30 3693 C 349.717 3.49566 -2.62912 0
M  V30 3694 C 348.776 4.66773 -2.42918 0
M  V30 3695 O 347.802 4.73019 -3.1661 0
M  V30 3696 N 349.004 5.61161 -1.4859 0
M  V30 3697 H 351.769 1.66728 -2.49042 0
M  V30 3698 H 349.33 0.776113 -1.42085 0
M  V30 3699 H 351.322 3.85796 -1.22243 0
M  V30 3700 H 349.892 3.08714 -0.491393 0
M  V30 3701 H 349.112 2.63158 -2.93499 0
M  V30 3702 H 350.4 3.73028 -3.46017 0
M  V30 3703 H 349.798 5.58844 -0.87808 0
M  V30 3704 H 348.355 6.36814 -1.38965 0
M  V30 3705 N 351.788 1.33704 0.83433 0
M  V30 3706 C 352.751 1.24244 1.92603 0
M  V30 3707 C 353.751 0.160383 1.59998 0
M  V30 3708 O 354.941 0.412228 1.69252 0
M  V30 3709 C 352.073 0.91555 3.28376 0
M  V30 3710 H 353.266 2.21287 2.02416 0
M  V30 3711 H 350.819 1.17827 1.02696 0
M  V30 3712 H 351.554 -0.0521886 3.24258 0
M  V30 3713 H 351.339 1.69811 3.53422 0
M  V30 3714 H 352.829 0.874231 4.08347 0
M  V30 3715 N 353.266 -1.05314 1.17247 0
M  V30 3716 C 354.216 -2.11313 0.856196 0
M  V30 3717 C 355.2 -1.60013 -0.168694 0
M  V30 3718 O 356.392 -1.76968 0.0335624 0
M  V30 3719 C 353.521 -3.41301 0.369917 0
M  V30 3720 C 352.607 -3.99401 1.42616 0
M  V30 3721 N 352.998 -4.31481 2.63928 0
M  V30 3722 C 351.296 -4.27126 1.28373 0
M  V30 3723 C 351.997 -4.77799 3.31787 0
M  V30 3724 N 350.973 -4.77843 2.59166 0
M  V30 3725 H 354.775 -2.33976 1.77856 0
M  V30 3726 H 352.289 -1.2295 1.06099 0
M  V30 3727 H 354.286 -4.16713 0.124897 0
M  V30 3728 H 352.946 -3.20072 -0.546253 0
M  V30 3729 H 353.957 -4.21519 3.00902 0
M  V30 3730 H 350.634 -4.15289 0.429111 0
M  V30 3731 H 352.024 -5.11743 4.35395 0
M  V30 3732 N 354.744 -0.972509 -1.24016 0
M  V30 3733 C 355.654 -0.5143 -2.28893 0
M  V30 3734 C 356.67 0.427078 -1.68677 0
M  V30 3735 O 357.846 0.298939 -1.99169 0
M  V30 3736 C 354.911 0.183598 -3.46214 0
M  V30 3737 C 353.972 -0.798202 -4.21814 0
M  V30 3738 C 353.205 -0.133514 -5.33533 0
M  V30 3739 O 353.428 1.07714 -5.60137 0
M  V30 3740 O 352.362 -0.828103 -5.96176 0
M  V30 3741 H 356.188 -1.38629 -2.70214 0
M  V30 3742 H 353.773 -0.739769 -1.29799 0
M  V30 3743 H 355.655 0.575433 -4.17453 0
M  V30 3744 H 354.33 1.03048 -3.0686 0
M  V30 3745 H 353.237 -1.24059 -3.52931 0
M  V30 3746 H 354.57 -1.61364 -4.64997 0
M  V30 3747 N 356.222 1.38976 -0.743202 0
M  V30 3748 C 357.468 2.01114 -0.304109 0
M  V30 3749 C 357.823 1.57929 1.09892 0
M  V30 3750 O 357.116 0.801983 1.74008 0
M  V30 3751 C 357.31 3.55647 -0.353517 0
M  V30 3752 C 357.139 4.13837 -1.75981 0
M  V30 3753 C 355.909 4.46062 -2.37395 0
M  V30 3754 C 358.107 4.36812 -2.71477 0
M  V30 3755 N 356.089 4.898 -3.70093 0
M  V30 3756 C 357.46 4.82844 -3.88923 0
M  V30 3757 C 359.515 4.18893 -2.69134 0
M  V30 3758 C 358.218 5.12837 -5.04371 0
M  V30 3759 C 360.244 4.50005 -3.83731 0
M  V30 3760 C 359.606 4.96251 -4.99914 0
M  V30 3761 H 355.705 0.765931 -0.157716 0
M  V30 3762 H 358.289 1.68763 -0.970931 0
M  V30 3763 H 356.46 3.87368 0.282987 0
M  V30 3764 H 358.192 4.04564 0.104904 0
M  V30 3765 H 354.947 4.34145 -1.89248 0
M  V30 3766 H 355.371 5.16016 -4.38242 0
M  V30 3767 H 360.013 3.82335 -1.80499 0
M  V30 3768 H 357.731 5.48297 -5.9363 0
M  V30 3769 H 361.317 4.37755 -3.83225 0
M  V30 3770 H 360.197 5.19867 -5.87118 0
M  V30 3771 N 357.7 0.491464 1.49741 0
M  V30 3772 C 358.946 -0.0565092 2.02721 0
M  V30 3773 C 359.279 -1.37522 1.37118 0
M  V30 3774 O 358.554 -1.87866 0.503645 0
M  V30 3775 C 358.837 -0.219051 3.59433 0
M  V30 3776 C 358.69 1.12211 4.35579 0
M  V30 3777 C 360.009 -0.964157 4.29409 0
M  V30 3778 H 357.128 -0.0190627 0.736753 0
M  V30 3779 H 359.77 0.641021 1.7886 0
M  V30 3780 H 357.92 -0.813165 3.79895 0
M  V30 3781 H 359.592 1.75437 4.26637 0
M  V30 3782 H 357.835 1.71377 3.98513 0
M  V30 3783 H 358.506 0.961794 5.43556 0
M  V30 3784 H 360.982 -0.460378 4.13545 0
M  V30 3785 H 359.858 -1.04671 5.38828 0
M  V30 3786 H 360.119 -2.00563 3.93988 0
M  V30 3787 N 359.178 -1.55987 0.224894 0
M  V30 3788 C 360.589 -1.84553 -0.282345 0
M  V30 3789 C 360.94 -1.14634 -1.59227 0
M  V30 3790 O 360.065 -0.417155 -2.12341 0
M  V30 3791 C 360.66 -3.348 -0.519062 0
M  V30 3792 C 359.219 -3.63671 -0.970604 0
M  V30 3793 C 358.366 -2.77277 -0.0355261 0
M  V30 3794 H 361.317 -1.52245 0.448006 0
M  V30 3795 H 361.338 -3.55187 -1.36463 0
M  V30 3796 H 360.85 -3.8566 0.43449 0
M  V30 3797 H 358.951 -3.1827 -1.9374 0
M  V30 3798 H 359.064 -4.71631 -0.842698 0
M  V30 3799 H 357.428 -2.48846 -0.542927 0
M  V30 3800 H 358.211 -3.30937 0.913003 0
M  V30 3801 N 360.656 0.0484629 -1.57525 0
M  V30 3802 C 361.586 1.0549 -2.08313 0
M  V30 3803 C 362.567 1.38929 -0.981463 0
M  V30 3804 O 363.752 1.48151 -1.25558 0
M  V30 3805 C 360.882 2.36162 -2.54646 0
M  V30 3806 C 359.836 2.17016 -3.68901 0
M  V30 3807 C 359.162 3.53278 -4.01371 0
M  V30 3808 C 360.462 1.57219 -4.98076 0
M  V30 3809 H 362.156 0.632195 -2.92649 0
M  V30 3810 H 359.702 0.302654 -1.40784 0
M  V30 3811 H 361.655 3.06882 -2.88793 0
M  V30 3812 H 360.379 2.80456 -1.67368 0
M  V30 3813 H 359.038 1.48733 -3.35073 0
M  V30 3814 H 358.686 3.95185 -3.11188 0
M  V30 3815 H 358.386 3.41299 -4.78318 0
M  V30 3816 H 359.91 4.25391 -4.38035 0
M  V30 3817 H 361.324 2.17832 -5.30304 0
M  V30 3818 H 359.721 1.55871 -5.79503 0
M  V30 3819 H 360.791 0.535956 -4.81929 0
M  V30 3820 N 362.134 1.5431 0.320358 0
M  V30 3821 C 363.38 1.73859 1.05568 0
M  V30 3822 C 363.735 0.507807 1.85578 0
M  V30 3823 O 363.028 -0.499789 1.84967 0
M  V30 3824 C 363.222 2.95639 2.00828 0
M  V30 3825 C 363.051 4.30444 1.30186 0
M  V30 3826 C 361.821 4.94544 1.03703 0
M  V30 3827 C 364.019 5.0929 0.716138 0
M  V30 3828 N 362.001 6.13172 0.298846 0
M  V30 3829 C 363.372 6.19903 0.109729 0
M  V30 3830 C 365.427 4.94034 0.619269 0
M  V30 3831 C 364.13 7.16924 -0.584153 0
M  V30 3832 C 366.156 5.91369 -0.0609184 0
M  V30 3833 C 365.518 7.01336 -0.656258 0
M  V30 3834 H 361.617 0.688988 0.36989 0
M  V30 3835 H 364.201 1.9177 0.336494 0
M  V30 3836 H 362.372 2.79188 2.70016 0
M  V30 3837 H 364.104 3.03802 2.6737 0
M  V30 3838 H 360.859 4.54536 1.33019 0
M  V30 3839 H 361.283 6.76977 -0.0561964 0
M  V30 3840 H 365.925 4.0916 1.06526 0
M  V30 3841 H 363.643 8.01354 -1.04197 0
M  V30 3842 H 367.229 5.81642 -0.135552 0
M  V30 3843 H 366.109 7.75359 -1.17423 0
M  V30 3844 N 363.613 -0.582584 1.46437 0
M  V30 3845 C 364.543 -1.70187 1.59871 0
M  V30 3846 C 365.524 -1.64066 0.449042 0
M  V30 3847 O 366.709 -1.82081 0.6753 0
M  V30 3848 C 363.839 -3.08827 1.58881 0
M  V30 3849 C 362.793 -3.29779 2.72819 0
M  V30 3850 C 362.119 -4.68947 2.5689 0
M  V30 3851 C 363.419 -3.17601 4.1464 0
M  V30 3852 H 365.113 -1.592 2.53566 0
M  V30 3853 H 362.659 -0.764472 1.22032 0
M  V30 3854 H 364.612 -3.86951 1.66873 0
M  V30 3855 H 363.336 -3.20713 0.617306 0
M  V30 3856 H 361.995 -2.54054 2.64296 0
M  V30 3857 H 361.643 -4.77599 1.57823 0
M  V30 3858 H 361.343 -4.83919 3.33312 0
M  V30 3859 H 362.867 -5.4924 2.66773 0
M  V30 3860 H 364.281 -3.8557 4.24274 0
M  V30 3861 H 362.678 -3.44094 4.9165 0
M  V30 3862 H 363.748 -2.14681 4.34788 0
M  V30 3863 N 365.091 -1.34144 -0.827227 0
M  V30 3864 C 366.021 -1.28005 -1.95287 0
M  V30 3865 C 367.002 -0.158321 -1.69362 0
M  V30 3866 O 368.187 -0.349987 -1.9102 0
M  V30 3867 C 365.317 -1.03036 -3.31664 0
M  V30 3868 C 364.271 -2.11628 -3.72019 0
M  V30 3869 C 363.597 -1.71854 -5.0633 0
M  V30 3870 C 364.897 -3.53417 -3.8457 0
M  V30 3871 H 366.591 -2.22187 -2.00682 0
M  V30 3872 H 364.137 -1.0696 -0.964135 0
M  V30 3873 H 366.09 -0.973863 -4.09993 0
M  V30 3874 H 364.814 -0.0529391 -3.26557 0
M  V30 3875 H 363.473 -2.16339 -2.95961 0
M  V30 3876 H 363.121 -0.727841 -4.97706 0
M  V30 3877 H 362.821 -2.44531 -5.34302 0
M  V30 3878 H 364.345 -1.67692 -5.87122 0
M  V30 3879 H 365.759 -3.51142 -4.5318 0
M  V30 3880 H 364.156 -4.24679 -4.2399 0
M  V30 3881 H 365.226 -3.91072 -2.86689 0
M  V30 3882 N 366.569 1.04691 -1.17803 0
M  V30 3883 C 367.985 1.29963 -0.926379 0
M  V30 3884 C 368.185 1.97251 0.411635 0
M  V30 3885 O 367.241 2.24922 1.14744 0
M  V30 3886 C 368.554 2.16447 -2.08737 0
M  V30 3887 C 370.102 2.29814 -2.12496 0
M  V30 3888 C 370.577 3.19661 -3.27995 0
M  V30 3889 N 372.068 3.27247 -3.27816 0
M  V30 3890 C 372.803 3.96906 -4.13827 0
M  V30 3891 N 372.299 4.6895 -5.09959 0
M  V30 3892 N 374.092 3.93122 -4.01761 0
M  V30 3893 H 366.243 0.594182 -2.0392 0
M  V30 3894 H 368.506 0.324649 -0.890678 0
M  V30 3895 H 368.212 1.74304 -3.05469 0
M  V30 3896 H 368.086 3.17103 -2.04268 0
M  V30 3897 H 370.473 2.71196 -1.16347 0
M  V30 3898 H 370.554 1.2877 -2.21025 0
M  V30 3899 H 370.198 2.78991 -4.24413 0
M  V30 3900 H 370.128 4.20722 -3.16703 0
M  V30 3901 H 372.619 2.75921 -2.58217 0
M  V30 3902 H 372.932 5.19679 -5.71974 0
M  V30 3903 H 371.277 4.67875 -5.13924 0
M  V30 3904 H 374.468 3.35967 -3.2595 0
M  V30 3905 H 374.641 4.47139 -4.6901 0
M  V30 3906 N 368.047 0.979072 1.23499 0
M  V30 3907 C 369.277 0.664237 1.95631 0
M  V30 3908 C 369.685 -0.772653 1.72704 0
M  V30 3909 O 369.028 -1.53141 1.01457 0
M  V30 3910 C 369.09 0.873115 3.48736 0
M  V30 3911 C 368.754 2.29182 3.95379 0
M  V30 3912 C 369.751 3.2704 4.04155 0
M  V30 3913 C 367.436 2.62256 4.28401 0
M  V30 3914 C 369.43 4.56052 4.45304 0
M  V30 3915 C 367.117 3.91491 4.69231 0
M  V30 3916 C 368.115 4.88201 4.77649 0
M  V30 3917 O 367.803 6.15129 5.17563 0
M  V30 3918 H 367.535 0.245915 0.629684 0
M  V30 3919 H 370.089 1.3127 1.57979 0
M  V30 3920 H 368.319 0.167476 3.86337 0
M  V30 3921 H 370.008 0.555642 4.02079 0
M  V30 3922 H 370.774 3.02819 3.78848 0
M  V30 3923 H 366.653 1.87692 4.21061 0
M  V30 3924 H 370.197 5.31538 4.51789 0
M  V30 3925 H 366.094 4.15508 4.93987 0
M  V30 3926 H 366.862 6.18862 5.35679 0
M  V30 3927 N 369.525 -1.3858 0.750561 0
M  V30 3928 C 370.75 -2.04997 0.314812 0
M  V30 3929 C 371.175 -1.56235 -1.04749 0
M  V30 3930 O 370.533 -0.712981 -1.66692 0
M  V30 3931 C 370.581 -3.58961 0.343415 0
M  V30 3932 O 369.685 -4.07025 -0.663628 0
M  V30 3933 H 369.026 -0.649081 0.139962 0
M  V30 3934 H 371.556 -1.77313 1.02084 0
M  V30 3935 H 371.566 -4.07542 0.193233 0
M  V30 3936 H 370.241 -3.93811 1.33738 0
M  V30 3937 H 368.818 -3.6982 -0.478307 0
M  V30 3938 N 371.003 -0.499398 -1.49478 0
M  V30 3939 C 372.249 0.0457576 -2.02748 0
M  V30 3940 C 372.582 1.36793 -1.37846 0
M  V30 3941 O 371.857 1.87596 -0.513601 0
M  V30 3942 C 372.14 0.199986 -3.59544 0
M  V30 3943 C 371.993 -1.1452 -4.34977 0
M  V30 3944 C 373.312 0.94137 -4.29914 0
M  V30 3945 H 370.431 0.0151552 -0.736844 0
M  V30 3946 H 373.073 -0.650498 -1.78518 0
M  V30 3947 H 371.223 0.793007 -3.8032 0
M  V30 3948 H 372.895 -1.77697 -4.25701 0
M  V30 3949 H 371.138 -1.73488 -3.97598 0
M  V30 3950 H 371.809 -0.990607 -5.43039 0
M  V30 3951 H 374.285 0.43844 -4.13784 0
M  V30 3952 H 373.161 1.01812 -5.39375 0
M  V30 3953 H 373.422 1.98471 -3.95046 0
M  V30 3954 N 372.481 1.55866 -0.233164 0
M  V30 3955 C 373.73 1.97779 0.39579 0
M  V30 3956 C 374.043 1.12419 1.60066 0
M  V30 3957 O 375.249 1.44283 2.29988 0
M  V30 3958 C 373.705 3.5188 0.755556 0
M  V30 3959 C 373.313 4.45959 -0.427152 0
M  V30 3960 C 375.057 4.02479 1.34946 0
M  V30 3961 C 372.964 5.91383 -0.0443043 0
M  V30 3962 H 371.894 0.738592 0.15165 0
M  V30 3963 H 374.545 1.80486 -0.331212 0
M  V30 3964 H 372.927 3.64816 1.5403 0
M  V30 3965 H 374.101 4.44776 -1.20462 0
M  V30 3966 H 372.416 4.05765 -0.935068 0
M  V30 3967 H 375.013 5.08637 1.649 0
M  V30 3968 H 375.356 3.49014 2.26925 0
M  V30 3969 H 375.889 3.92813 0.62791 0
M  V30 3970 H 372.628 6.48857 -0.930874 0
M  V30 3971 H 372.148 5.95734 0.697238 0
M  V30 3972 H 373.827 6.45893 0.378334 0
M  V30 3973 N 373.959 -0.0401083 1.57549 0
M  V30 3974 C 375.205 -0.734211 1.89043 0
M  V30 3975 C 375.538 -1.75591 0.829535 0
M  V30 3976 O 374.813 -1.93868 -0.156706 0
M  V30 3977 C 375.096 -1.41374 3.31188 0
M  V30 3978 C 374.949 -0.406299 4.47961 0
M  V30 3979 C 376.268 -2.35061 3.72068 0
M  V30 3980 H 373.387 -0.265447 0.687537 0
M  V30 3981 H 376.029 0.00294087 1.9 0
M  V30 3982 H 374.179 -2.04206 3.30503 0
M  V30 3983 H 375.851 0.219255 4.60779 0
M  V30 3984 H 374.094 0.275485 4.32924 0
M  V30 3985 H 374.765 -0.920022 5.44279 0
M  V30 3986 H 377.241 -1.82282 3.74049 0
M  V30 3987 H 376.117 -2.79593 4.72355 0
M  V30 3988 H 376.378 -3.21258 3.0372 0
M  V30 3989 N 375.437 -1.54477 -0.31217 0
M  V30 3990 C 376.384 -1.84655 -1.38461 0
M  V30 3991 C 377.354 -0.694536 -1.50882 0
M  V30 3992 O 378.539 -0.942081 -1.6592 0
M  V30 3993 C 375.679 -2.0896 -2.74645 0
M  V30 3994 C 374.792 -3.36618 -2.70763 0
M  V30 3995 C 373.927 -3.50824 -3.98868 0
M  V30 3996 C 372.966 -4.72315 -3.89339 0
M  V30 3997 N 372.103 -4.83387 -5.09197 0
M  V30 3998 H 376.943 -2.76142 -1.12026 0
M  V30 3999 H 374.48 -1.36748 -0.542065 0
M  V30 4000 H 376.438 -2.21045 -3.53829 0
M  V30 4001 H 375.068 -1.20752 -2.99364 0
M  V30 4002 H 374.12 -3.33211 -1.83506 0
M  V30 4003 H 375.432 -4.25917 -2.59608 0
M  V30 4004 H 374.586 -3.62513 -4.86486 0
M  V30 4005 H 373.325 -2.59638 -4.12843 0
M  V30 4006 H 372.33 -4.6067 -3.00105 0
M  V30 4007 H 373.555 -5.64897 -3.76919 0
M  V30 4008 H 371.501 -3.9512 -5.23657 0
M  V30 4009 H 371.418 -5.66669 -5.00422 0
M  V30 4010 H 372.686 -4.9942 -5.98498 0
M  V30 4011 N 376.915 0.57481 -1.46744 0
M  V30 4012 C 378.14 1.36341 -1.56288 0
M  V30 4013 C 378.565 1.86954 -0.207347 0
M  V30 4014 O 377.923 1.62006 0.813871 0
M  V30 4015 C 377.971 2.52147 -2.57787 0
M  V30 4016 O 377.075 3.53834 -2.11838 0
M  V30 4017 H 376.416 0.405713 -0.525636 0
M  V30 4018 H 378.946 0.696453 -1.92382 0
M  V30 4019 H 378.956 2.98958 -2.77648 0
M  V30 4020 H 377.631 2.14663 -3.5622 0
M  V30 4021 H 376.208 3.1345 -2.01999 0
M  V30 4022 N 378.394 1.34581 0.820102 0
M  V30 4023 C 379.81 1.14325 1.11364 0
M  V30 4024 C 380.01 -0.0533648 2.01429 0
M  V30 4025 O 379.066 -0.728044 2.41776 0
M  V30 4026 C 380.379 2.43983 1.75764 0
M  V30 4027 C 381.927 2.50065 1.88246 0
M  V30 4028 C 382.402 3.79732 2.56061 0
M  V30 4029 N 383.893 3.80908 2.63558 0
M  V30 4030 C 384.628 4.77961 3.16766 0
M  V30 4031 N 384.124 5.85397 3.70517 0
M  V30 4032 N 385.917 4.65413 3.15194 0
M  V30 4033 H 378.068 2.11246 0.221096 0
M  V30 4034 H 380.331 0.934289 0.160649 0
M  V30 4035 H 380.037 3.31651 1.1705 0
M  V30 4036 H 379.911 2.57531 2.75604 0
M  V30 4037 H 382.298 1.62834 2.46108 0
M  V30 4038 H 382.379 2.40442 0.873006 0
M  V30 4039 H 382.023 4.67354 1.98853 0
M  V30 4040 H 381.953 3.86639 3.57516 0
M  V30 4041 H 384.444 3.03274 2.25463 0
M  V30 4042 H 384.757 6.55463 4.09376 0
M  V30 4043 H 383.102 5.89107 3.68752 0
M  V30 4044 H 386.293 3.80627 2.72471 0
M  V30 4045 H 386.466 5.41216 3.56356 0
M  V30 4046 N 379.872 -1.04064 1.18357 0
M  V30 4047 C 381.12 -1.76915 0.977013 0
M  V30 4048 C 381.441 -1.88624 -0.494577 0
M  V30 4049 O 380.711 -1.41125 -1.3587 0
M  V30 4050 H 379.291 -0.65535 0.358504 0
M  V30 4051 H 381.953 -1.25592 1.49039 0
M  V30 4052 H 381.049 -2.78178 1.41504 0
M  V30 4053 N 381.35 -0.985608 -1.22978 0
M  V30 4054 C 382.599 -0.652881 -1.90841 0
M  V30 4055 C 382.912 0.817842 -1.77681 0
M  V30 4056 O 384.118 1.26185 -2.40395 0
M  V30 4057 C 382.574 -1.11717 -3.42122 0
M  V30 4058 C 382.182 -2.6126 -3.63933 0
M  V30 4059 C 383.926 -0.85843 -4.1573 0
M  V30 4060 C 381.833 -3.0133 -5.08876 0
M  V30 4061 H 380.763 -0.240491 -0.714619 0
M  V30 4062 H 383.414 -1.1942 -1.39324 0
M  V30 4063 H 381.796 -0.504027 -3.92779 0
M  V30 4064 H 382.97 -3.27858 -3.23799 0
M  V30 4065 H 381.285 -2.84937 -3.03644 0
M  V30 4066 H 383.882 -1.13359 -5.22546 0
M  V30 4067 H 384.225 0.205461 -4.15793 0
M  V30 4068 H 384.758 -1.43341 -3.71077 0
M  V30 4069 H 381.497 -4.06864 -5.13947 0
M  V30 4070 H 381.017 -2.3943 -5.49939 0
M  V30 4071 H 382.696 -2.92224 -5.77247 0
M  V30 4072 N 382.828 1.3818 -0.7579 0
M  V30 4073 C 384.077 1.99261 -0.312744 0
M  V30 4074 C 384.39 1.60846 1.11301 0
M  V30 4075 O 385.596 2.14929 1.65885 0
M  V30 4076 C 384.052 3.56294 -0.50821 0
M  V30 4077 C 383.66 4.03657 -1.94333 0
M  V30 4078 C 385.404 4.24313 -0.125982 0
M  V30 4079 C 383.311 5.53347 -2.08712 0
M  V30 4080 H 382.241 0.745456 -0.113185 0
M  V30 4081 H 384.892 1.57889 -0.935056 0
M  V30 4082 H 383.274 3.95575 0.183353 0
M  V30 4083 H 384.448 3.75655 -2.66871 0
M  V30 4084 H 382.763 3.48376 -2.28086 0
M  V30 4085 H 385.36 5.34279 -0.212125 0
M  V30 4086 H 385.703 4.05962 0.921964 0
M  V30 4087 H 386.236 3.90285 -0.769563 0
M  V30 4088 H 382.975 5.76607 -3.11777 0
M  V30 4089 H 382.495 5.83078 -1.4064 0
M  V30 4090 H 384.174 6.19111 -1.87912 0
M  V30 4091 N 384.306 0.507319 1.49211 0
M  V30 4092 C 385.253 -0.267728 2.29242 0
M  V30 4093 C 386.223 -0.954609 1.35928 0
M  V30 4094 O 387.408 -0.960046 1.64887 0
M  V30 4095 C 384.548 -1.32243 3.18756 0
M  V30 4096 C 383.661 -0.64669 4.27132 0
M  V30 4097 C 382.796 -1.68238 5.03855 0
M  V30 4098 C 381.835 -0.98885 6.0406 0
M  V30 4099 N 380.972 -1.96903 6.73924 0
M  V30 4100 H 385.812 0.420968 2.95012 0
M  V30 4101 H 383.349 0.219443 1.45454 0
M  V30 4102 H 385.307 -1.94599 3.69036 0
M  V30 4103 H 383.937 -1.97981 2.54958 0
M  V30 4104 H 382.989 0.0902926 3.80293 0
M  V30 4105 H 384.301 -0.101058 4.98698 0
M  V30 4106 H 383.455 -2.38081 5.58034 0
M  V30 4107 H 382.194 -2.26187 4.32077 0
M  V30 4108 H 381.199 -0.276222 5.49106 0
M  V30 4109 H 382.424 -0.415767 6.77826 0
M  V30 4110 H 380.37 -2.53803 6.04913 0
M  V30 4111 H 380.287 -1.47423 7.41487 0
M  V30 4112 H 381.555 -2.66015 7.32705 0
M  V30 4113 N 385.784 -1.5574 0.241426 0
M  V30 4114 C 387.009 -2.0366 -0.392111 0
M  V30 4115 C 387.434 -1.11969 -1.51144 0
M  V30 4116 O 386.792 -0.111594 -1.80956 0
M  V30 4117 C 386.84 -3.49638 -0.882371 0
M  V30 4118 O 385.944 -3.6108 -1.99235 0
M  V30 4119 H 385.285 -0.658379 -0.0862122 0
M  V30 4120 H 387.815 -2.01302 0.365881 0
M  V30 4121 H 387.825 -3.90351 -1.18702 0
M  V30 4122 H 386.5 -4.15852 -0.0632361 0
M  V30 4123 H 385.077 -3.32262 -1.69282 0
M  V30 4124 N 387.262 0.0317525 -1.57568 0
M  V30 4125 C 388.209 1.0332 -2.06382 0
M  V30 4126 C 389.179 1.36082 -0.952414 0
M  V30 4127 O 390.364 1.46466 -1.2228 0
M  V30 4128 C 387.504 2.32989 -2.54578 0
M  V30 4129 C 386.617 2.0641 -3.79498 0
M  V30 4130 C 385.752 3.2993 -4.16317 0
M  V30 4131 C 384.791 2.98893 -5.34162 0
M  V30 4132 N 383.928 4.14857 -5.66426 0
M  V30 4133 H 388.768 0.609982 -2.9169 0
M  V30 4134 H 386.305 0.289573 -1.44222 0
M  V30 4135 H 388.263 3.0875 -2.80587 0
M  V30 4136 H 386.893 2.73039 -1.7219 0
M  V30 4137 H 385.945 1.21158 -3.6059 0
M  V30 4138 H 387.257 1.79513 -4.65378 0
M  V30 4139 H 386.411 4.1406 -4.4344 0
M  V30 4140 H 385.15 3.59938 -3.29083 0
M  V30 4141 H 384.155 2.13164 -5.06795 0
M  V30 4142 H 385.38 2.70165 -6.23047 0
M  V30 4143 H 383.326 4.44821 -4.82151 0
M  V30 4144 H 383.243 3.91374 -6.4681 0
M  V30 4145 H 384.511 4.99868 -5.98124 0
M  V30 4146 N 388.74 1.54641 0.303973 0
M  V30 4147 C 389.988 1.73437 1.0375 0
M  V30 4148 C 390.309 0.521449 1.87899 0
M  V30 4149 O 389.579 -0.46432 1.90318 0
M  V30 4150 H 388.159 0.639518 0.386039 0
M  V30 4151 H 390.821 1.91988 0.335675 0
M  V30 4152 H 389.917 2.62235 1.69231 0
M  V30 4153 N 390.218 -0.567019 1.47046 0
M  V30 4154 C 391.448 -1.34831 1.56538 0
M  V30 4155 C 391.856 -1.8802 0.21101 0
M  V30 4156 O 391.199 -1.65152 -0.804387 0
M  V30 4157 C 391.261 -2.56139 2.52256 0
M  V30 4158 C 390.925 -2.24307 3.98165 0
M  V30 4159 C 391.922 -1.82192 4.86931 0
M  V30 4160 C 389.607 -2.35968 4.43423 0
M  V30 4161 C 391.601 -1.52153 6.18973 0
M  V30 4162 C 389.288 -2.05542 5.75496 0
M  V30 4163 C 390.286 -1.63701 6.63092 0
M  V30 4164 O 389.974 -1.33657 7.92711 0
M  V30 4165 H 389.706 -0.417683 0.531523 0
M  V30 4166 H 392.26 -0.694726 1.93294 0
M  V30 4167 H 390.49 -3.24356 2.10548 0
M  V30 4168 H 392.179 -3.18214 2.51982 0
M  V30 4169 H 392.945 -1.72684 4.53217 0
M  V30 4170 H 388.824 -2.67495 3.75456 0
M  V30 4171 H 392.368 -1.19421 6.87302 0
M  V30 4172 H 388.265 -2.14679 6.08755 0
M  V30 4173 H 389.033 -1.4737 8.05124 0
M  V30 4174 N 391.696 -1.35014 -0.812953 0
M  V30 4175 C 392.945 -1.27269 -1.56479 0
M  V30 4176 C 393.258 0.152771 -1.95002 0
M  V30 4177 O 394.464 0.352451 -2.69203 0
M  V30 4178 C 392.92 -2.23159 -2.82362 0
M  V30 4179 C 392.528 -3.71016 -2.511 0
M  V30 4180 C 394.272 -2.24342 -3.60376 0
M  V30 4181 C 392.179 -4.58746 -3.73237 0
M  V30 4182 H 391.109 -0.472829 -0.587324 0
M  V30 4183 H 393.76 -1.6024 -0.894171 0
M  V30 4184 H 392.142 -1.83151 -3.51101 0
M  V30 4185 H 393.316 -4.1962 -1.90409 0
M  V30 4186 H 391.631 -3.72378 -1.86343 0
M  V30 4187 H 394.228 -2.87107 -4.51081 0
M  V30 4188 H 394.571 -1.24542 -3.97234 0
M  V30 4189 H 395.104 -2.62846 -2.98591 0
M  V30 4190 H 391.843 -5.59521 -3.41492 0
M  V30 4191 H 391.363 -4.14871 -4.33176 0
M  V30 4192 H 393.042 -4.73852 -4.40537 0
M  V30 4193 N 393.175 1.03435 -1.18907 0
M  V30 4194 C 394.105 2.13503 -0.945448 0
M  V30 4195 C 395.086 1.69682 0.119189 0
M  V30 4196 O 396.271 1.94169 -0.034707 0
M  V30 4197 C 393.401 3.44004 -0.477316 0
M  V30 4198 C 392.355 4.0148 -1.48316 0
M  V30 4199 C 391.681 5.27537 -0.872311 0
M  V30 4200 C 392.981 4.36921 -2.86177 0
M  V30 4201 H 394.675 2.34141 -1.86597 0
M  V30 4202 H 392.221 1.12523 -0.898584 0
M  V30 4203 H 394.174 4.20372 -0.294204 0
M  V30 4204 H 392.898 3.23072 0.478786 0
M  V30 4205 H 391.557 3.27201 -1.65332 0
M  V30 4206 H 391.205 5.02917 0.0911752 0
M  V30 4207 H 390.905 5.66954 -1.54393 0
M  V30 4208 H 392.429 6.06576 -0.699871 0
M  V30 4209 H 393.843 5.04248 -2.72776 0
M  V30 4210 H 392.24 4.87405 -3.50081 0
M  V30 4211 H 393.31 3.46466 -3.39248 0
M  V30 4212 N 394.653 0.992116 1.22453 0
M  V30 4213 C 395.585 0.500024 2.23679 0
M  V30 4214 C 396.598 -0.404463 1.57696 0
M  V30 4215 O 397.787 -0.206722 1.77299 0
M  V30 4216 C 394.887 -0.294711 3.37616 0
M  V30 4217 C 394.06 0.605723 4.33186 0
M  V30 4218 C 393.119 -0.13717 5.26021 0
M  V30 4219 O 392.145 0.477164 5.67196 0
M  V30 4220 N 393.347 -1.4197 5.62872 0
M  V30 4221 H 396.112 1.37045 2.66531 0
M  V30 4222 H 393.673 0.866741 1.36745 0
M  V30 4223 H 395.665 -0.800329 3.96707 0
M  V30 4224 H 394.235 -1.06623 2.93854 0
M  V30 4225 H 393.455 1.29202 3.72425 0
M  V30 4226 H 394.743 1.21896 4.93983 0
M  V30 4227 H 394.141 -1.94015 5.31389 0
M  V30 4228 H 392.698 -1.87052 6.24383 0
M  V30 4229 N 396.131 -1.37776 0.765217 0
M  V30 4230 C 397.094 -2.28686 0.153416 0
M  V30 4231 C 398.094 -1.47727 -0.635081 0
M  V30 4232 O 399.284 -1.68027 -0.459632 0
M  V30 4233 C 396.416 -3.31608 -0.790495 0
M  V30 4234 H 397.609 -2.84297 0.954723 0
M  V30 4235 H 395.162 -1.46932 0.53299 0
M  V30 4236 H 395.897 -2.81109 -1.61705 0
M  V30 4237 H 395.682 -3.9144 -0.227348 0
M  V30 4238 H 397.172 -3.99559 -1.21419 0
M  V30 4239 N 397.609 -0.515225 -1.4894 0
M  V30 4240 C 398.556 0.255567 -2.29381 0
M  V30 4241 C 399.526 0.947387 -1.36432 0
M  V30 4242 O 400.711 0.951288 -1.65394 0
M  V30 4243 C 397.851 1.30551 -3.19453 0
M  V30 4244 C 396.964 0.624029 -4.27469 0
M  V30 4245 C 396.099 1.65563 -5.0474 0
M  V30 4246 C 395.138 0.956802 -6.04576 0
M  V30 4247 N 394.275 1.93326 -6.74959 0
M  V30 4248 H 399.115 -0.436607 -2.94784 0
M  V30 4249 H 396.652 -0.227154 -1.45336 0
M  V30 4250 H 398.61 1.92639 -3.70062 0
M  V30 4251 H 397.24 1.96626 -2.56004 0
M  V30 4252 H 396.292 -0.110459 -3.8024 0
M  V30 4253 H 397.604 0.0746092 -4.98744 0
M  V30 4254 H 396.758 2.35119 -5.59289 0
M  V30 4255 H 395.497 2.23893 -4.3327 0
M  V30 4256 H 394.502 0.247097 -5.49244 0
M  V30 4257 H 395.727 0.379814 -6.78037 0
M  V30 4258 H 393.673 2.50591 -6.06251 0
M  V30 4259 H 393.59 1.43489 -7.42258 0
M  V30 4260 H 394.858 2.62126 -7.34105 0
M  V30 4261 N 399.087 1.5561 -0.249682 0
M  V30 4262 C 400.503 1.59254 0.105103 0
M  V30 4263 C 400.703 1.26685 1.56694 0
M  V30 4264 O 399.759 1.0155 2.31179 0
M  V30 4265 C 401.072 2.99687 -0.246592 0
M  V30 4266 C 402.62 3.12416 -0.191118 0
M  V30 4267 C 403.095 4.55074 -0.516885 0
M  V30 4268 N 404.586 4.60835 -0.467489 0
M  V30 4269 C 405.321 5.69201 -0.69268 0
M  V30 4270 N 404.817 6.85817 -0.981146 0
M  V30 4271 N 406.61 5.58635 -0.623198 0
M  V30 4272 H 398.761 1.75049 -1.20298 0
M  V30 4273 H 401.024 0.815003 -0.484225 0
M  V30 4274 H 400.73 3.28267 -1.26228 0
M  V30 4275 H 400.604 3.74798 0.424962 0
M  V30 4276 H 402.991 2.83615 0.815247 0
M  V30 4277 H 403.072 2.39573 -0.896563 0
M  V30 4278 H 402.716 4.84596 -1.52082 0
M  V30 4279 H 402.646 5.26181 0.210068 0
M  V30 4280 H 405.137 3.7705 -0.253373 0
M  V30 4281 H 405.45 7.64341 -1.14032 0
M  V30 4282 H 403.795 6.87494 -1.01865 0
M  V30 4283 H 406.986 4.66406 -0.397863 0
M  V30 4284 H 407.159 6.43017 -0.802093 0
M  V30 4285 N 400.565 -0.0233959 1.57583 0
M  V30 4286 C 401.981 -0.379134 1.55031 0
M  V30 4287 C 402.181 -1.76255 0.976548 0
M  V30 4288 O 401.237 -2.45266 0.600078 0
M  V30 4289 C 402.55 -0.275792 2.99433 0
M  V30 4290 C 404.098 -0.352458 3.11009 0
M  V30 4291 C 404.573 -0.278501 4.57152 0
M  V30 4292 N 406.064 -0.337123 4.61972 0
M  V30 4293 C 406.799 -0.302876 5.726 0
M  V30 4294 N 406.295 -0.220589 6.92449 0
M  V30 4295 N 408.088 -0.353023 5.6099 0
M  V30 4296 H 400.239 0.881869 1.93227 0
M  V30 4297 H 402.502 0.335867 0.886509 0
M  V30 4298 H 402.208 0.675108 3.4516 0
M  V30 4299 H 402.082 -1.06721 3.61788 0
M  V30 4300 H 404.469 -1.29379 2.65226 0
M  V30 4301 H 404.55 0.468409 2.51475 0
M  V30 4302 H 404.194 0.659189 5.03604 0
M  V30 4303 H 404.124 -1.11755 5.14605 0
M  V30 4304 H 406.615 -0.403002 3.75745 0
M  V30 4305 H 406.928 -0.199713 7.72542 0
M  V30 4306 H 405.273 -0.186555 6.9475 0
M  V30 4307 H 408.464 -0.415339 4.66254 0
M  V30 4308 H 408.637 -0.322866 6.47195 0
M  V30 4309 N 402.043 -1.548 -0.295768 0
M  V30 4310 C 403.291 -1.73985 -1.02828 0
M  V30 4311 C 403.612 -0.531406 -1.87619 0
M  V30 4312 O 402.882 0.454221 -1.90561 0
M  V30 4313 H 401.462 -0.641556 -0.382642 0
M  V30 4314 H 404.124 -1.92163 -0.325489 0
M  V30 4315 H 403.22 -2.63129 -1.67838 0
M  V30 4316 N 403.521 0.559213 -1.47345 0
M  V30 4317 C 404.746 1.34676 -1.57725 0
M  V30 4318 C 405.171 1.86723 -0.227164 0
M  V30 4319 O 404.529 1.6286 0.796642 0
M  V30 4320 C 404.577 2.49399 -2.60447 0
M  V30 4321 O 403.681 3.51567 -2.15578 0
M  V30 4322 H 403.022 0.400115 -0.52991 0
M  V30 4323 H 405.552 0.676009 -1.93109 0
M  V30 4324 H 405.562 2.95996 -2.80803 0
M  V30 4325 H 404.237 2.10873 -3.58477 0
M  V30 4326 H 402.814 3.11289 -2.05313 0
M  V30 4327 O 405.038 1.45356 0.703831 0
M  V30 4328 H 405.729 1.38392 1.35526 0
M  V30 END ATOM
M  V30 BEGIN BOND
M  V30 END BOND
M  V30 END CTAB
M  END
$$$$
