drugbank_target|P55038 Ferredoxin-dependent glutamate synthase 2 (DB03247)
 OpenBabel12092120253D

  0  0  0     0  0            999 V3000
M  V30 BEGIN CTAB
M  V30 COUNTS 23766 24002 0 0 0
M  V30 BEGIN ATOM
M  V30 1 H -0.908 1.98254 -0.117106 0
M  V30 2 N 0 1.576 0 0
M  V30 3 C 0.933 2.03868 1.02534 0
M  V30 4 C 1.911 0.928543 1.3348 0
M  V30 5 O 3.095 1.19667 1.45644 0
M  V30 6 C 0.222 2.43627 2.35294 0
M  V30 7 C -0.732 3.65373 2.2001 0
M  V30 8 S 0.101 5.13292 1.52614 0
M  V30 9 C 1.257 5.56322 2.86805 0
M  V30 10 H 1.49 2.90518 0.631377 0
M  V30 11 H -0.977 1.52953 0.210867 0
M  V30 12 H 0.981 2.67203 3.11629 0
M  V30 13 H -0.358 1.57376 2.7183 0
M  V30 14 H -1.165 3.90944 3.18086 0
M  V30 15 H -1.563 3.418 1.51819 0
M  V30 16 H 0.729 5.58782 3.83104 0
M  V30 17 H 1.672 6.56266 2.65933 0
M  V30 18 H 2.08 4.83886 2.90714 0
M  V30 19 N 1.4781 -0.272755 1.55222 0
M  V30 20 C 2.7031 -1.02683 1.80197 0
M  V30 21 C 3.1281 -1.79142 0.573551 0
M  V30 22 O 2.4861 -1.74917 -0.476849 0
M  V30 23 C 2.5341 -1.9609 3.02624 0
M  V30 24 O 1.6381 -3.04863 2.77727 0
M  V30 25 H 0.9791 -0.293557 0.595584 0
M  V30 26 H 3.5091 -0.30159 2.02365 0
M  V30 27 H 3.5191 -2.38039 3.31363 0
M  V30 28 H 2.1941 -1.39851 3.91682 0
M  V30 29 H 0.7711 -2.67228 2.60084 0
M  V30 30 N 2.9562 -1.48159 -0.537278 0
M  V30 31 C 4.2032 -1.55804 -1.29349 0
M  V30 32 C 4.5312 -0.228802 -1.9315 0
M  V30 33 O 3.7862 0.780242 -1.79473 0
M  V30 34 C 4.0852 -2.63956 -2.40961 0
M  V30 35 C 3.7512 -4.0662 -1.94861 0
M  V30 36 C 2.4132 -4.45452 -1.82006 0
M  V30 37 C 4.7652 -4.96055 -1.59933 0
M  V30 38 C 2.0932 -5.71531 -1.32547 0
M  V30 39 C 4.4452 -6.22617 -1.11939 0
M  V30 40 C 3.1092 -6.60312 -0.976951 0
M  V30 41 H 2.3792 -0.570129 -0.473322 0
M  V30 42 H 5.0262 -1.81845 -0.600372 0
M  V30 43 H 3.3312 -2.31747 -3.15912 0
M  V30 44 H 5.0282 -2.67089 -2.99107 0
M  V30 45 H 1.6182 -3.75949 -2.05815 0
M  V30 46 H 5.8022 -4.66738 -1.68728 0
M  V30 47 H 1.0582 -5.99468 -1.202 0
M  V30 48 H 5.2322 -6.91318 -0.839811 0
M  V30 49 H 2.8592 -7.57895 -0.591501 0
M  V30 50 N 4.4343 0.785586 -1.36625 0
M  V30 51 C 5.3663 1.90711 -1.2713 0
M  V30 52 C 6.3793 1.61688 -0.189986 0
M  V30 53 O 7.5683 1.72864 -0.445014 0
M  V30 54 C 4.6683 3.25611 -0.939713 0
M  V30 55 C 3.8413 3.82385 -2.12369 0
M  V30 56 C 2.9003 4.95732 -1.76456 0
M  V30 57 O 1.9263 5.12047 -2.48589 0
M  V30 58 N 3.1283 5.76258 -0.700492 0
M  V30 59 H 5.8933 1.99376 -2.23762 0
M  V30 60 H 3.4543 0.964041 -1.30069 0
M  V30 61 H 5.4463 3.98937 -0.680554 0
M  V30 62 H 4.0163 3.12538 -0.0624074 0
M  V30 63 H 3.2363 3.01001 -2.54543 0
M  V30 64 H 4.5243 4.17047 -2.9146 0
M  V30 65 H 3.9223 5.65609 -0.101624 0
M  V30 66 H 2.4793 6.4987 -0.501165 0
M  V30 67 N 5.9124 1.20967 1.01018 0
M  V30 68 C 7.1424 1.04803 1.78044 0
M  V30 69 C 7.5504 -0.405462 1.84804 0
M  V30 70 O 6.8934 -1.2932 1.30468 0
M  V30 71 C 6.9554 1.56377 3.23707 0
M  V30 72 C 6.6194 3.04767 3.40538 0
M  V30 73 C 7.6164 4.02366 3.29239 0
M  V30 74 C 5.3014 3.43862 3.66147 0
M  V30 75 C 7.2954 5.37049 3.43304 0
M  V30 76 C 4.9824 4.78699 3.79855 0
M  V30 77 C 5.9804 5.75101 3.68439 0
M  V30 78 O 5.6684 7.07493 3.81719 0
M  V30 79 H 5.4004 0.368778 0.56655 0
M  V30 80 H 7.9544 1.60642 1.27997 0
M  V30 81 H 6.1844 0.949297 3.74867 0
M  V30 82 H 7.8734 1.36136 3.8239 0
M  V30 83 H 8.6394 3.73506 3.09384 0
M  V30 84 H 4.5184 2.69364 3.74118 0
M  V30 85 H 8.0624 6.12277 3.34309 0
M  V30 86 H 3.9594 5.07247 3.99213 0
M  V30 87 H 4.7274 7.1483 3.98697 0
M  V30 88 N 7.3905 -1.2043 1.01659 0
M  V30 89 C 8.8015 -1.71517 0.737482 0
M  V30 90 C 9.1525 -1.81547 -0.743973 0
M  V30 91 O 8.2775 -1.47803 -1.58061 0
M  V30 92 C 8.8725 -3.11515 1.33206 0
M  V30 93 C 7.4315 -3.59912 1.10183 0
M  V30 94 C 6.5785 -2.37116 1.43776 0
M  V30 95 H 9.5295 -1.05444 1.18606 0
M  V30 96 H 9.5505 -3.73575 0.722636 0
M  V30 97 H 9.0625 -3.04182 2.41028 0
M  V30 98 H 7.1635 -3.72577 0.0412756 0
M  V30 99 H 7.2765 -4.44731 1.78188 0
M  V30 100 H 5.6405 -2.39857 0.856778 0
M  V30 101 H 6.4235 -2.32424 2.52654 0
M  V30 102 N 8.8686 -0.792821 -1.36206 0
M  V30 103 C 9.7986 -0.207853 -2.32573 0
M  V30 104 C 10.7796 0.659055 -1.56813 0
M  V30 105 O 11.9646 0.592176 -1.84951 0
M  V30 106 C 9.0946 0.655449 -3.41059 0
M  V30 107 C 8.0486 -0.111842 -4.27854 0
M  V30 108 C 7.3746 0.872274 -5.27537 0
M  V30 109 C 8.6746 -1.30299 -5.05786 0
M  V30 110 H 10.3686 -1.01294 -2.81744 0
M  V30 111 H 7.9146 -0.48854 -1.3546 0
M  V30 112 H 9.8676 1.07464 -4.07467 0
M  V30 113 H 8.5916 1.49328 -2.90463 0
M  V30 114 H 7.2506 -0.512053 -3.63006 0
M  V30 115 H 6.8986 1.70523 -4.73214 0
M  V30 116 H 6.5986 0.363291 -5.86476 0
M  V30 117 H 8.1226 1.28996 -5.96818 0
M  V30 118 H 9.5366 -0.959379 -5.65216 0
M  V30 119 H 7.9336 -1.7455 -5.74154 0
M  V30 120 H 9.0036 -2.09663 -4.37229 0
M  V30 121 N 10.3467 1.47872 -0.545128 0
M  V30 122 C 11.2767 2.32661 0.197793 0
M  V30 123 C 12.2577 1.43041 0.920504 0
M  V30 124 O 13.4427 1.71912 0.90333 0
M  V30 125 C 10.5727 3.24569 1.23582 0
M  V30 126 C 9.5267 4.23333 0.630323 0
M  V30 127 C 8.8527 5.0448 1.77211 0
M  V30 128 C 10.1527 5.20704 -0.407974 0
M  V30 129 H 11.8467 2.95024 -0.510045 0
M  V30 130 H 9.3927 1.4187 -0.246731 0
M  V30 131 H 11.3457 3.8272 1.76362 0
M  V30 132 H 10.0697 2.60236 1.97344 0
M  V30 133 H 8.7287 3.6639 0.123922 0
M  V30 134 H 8.3767 4.36561 2.49847 0
M  V30 135 H 8.0767 5.71339 1.37281 0
M  V30 136 H 9.6007 5.65487 2.3034 0
M  V30 137 H 11.0147 5.7329 0.033305 0
M  V30 138 H 9.4117 5.95699 -0.725486 0
M  V30 139 H 10.4817 4.66917 -1.30828 0
M  V30 140 N 11.8248 0.280983 1.55075 0
M  V30 141 C 12.7878 -0.590896 2.21452 0
M  V30 142 C 13.7878 -1.07682 1.19421 0
M  V30 143 O 14.9778 -0.97605 1.44288 0
M  V30 144 C 12.1098 -1.81587 2.88511 0
M  V30 145 H 13.3028 -0.0112554 2.99898 0
M  V30 146 H 10.8558 0.0316438 1.56268 0
M  V30 147 H 11.5908 -2.43587 2.14093 0
M  V30 148 H 11.3758 -1.4753 3.63287 0
M  V30 149 H 12.8658 -2.43575 3.39206 0
M  V30 150 N 13.3029 -1.57598 0.00835791 0
M  V30 151 C 14.7139 -1.7892 -0.53333 0
M  V30 152 C 15.0649 -0.916609 -1.73473 0
M  V30 153 O 14.1899 -0.121336 -2.1606 0
M  V30 154 C 14.7849 -3.24488 -0.974313 0
M  V30 155 C 13.3439 -3.46878 -1.46125 0
M  V30 156 C 12.4909 -2.74157 -0.416302 0
M  V30 157 H 15.4419 -1.56958 0.234495 0
M  V30 158 H 15.4629 -3.3306 -1.83988 0
M  V30 159 H 14.9749 -3.87972 -0.099718 0
M  V30 160 H 13.0759 -2.8862 -2.35646 0
M  V30 161 H 13.1889 -4.55572 -1.48295 0
M  V30 162 H 11.5529 -2.39022 -0.87981 0
M  V30 163 H 12.3359 -3.40345 0.44947 0
M  V30 164 N 14.781 0.264519 -1.55364 0
M  V30 165 C 15.714 1.35297 -1.83766 0
M  V30 166 C 16.692 1.47171 -0.691336 0
M  V30 167 O 17.876 1.63663 -0.935238 0
M  V30 168 C 15.003 2.72847 -2.00679 0
M  V30 169 C 14.049 2.78214 -3.23263 0
M  V30 170 S 14.882 2.36601 -4.80396 0
M  V30 171 C 16.038 3.7611 -5.00292 0
M  V30 172 H 16.271 1.11003 -2.758 0
M  V30 173 H 13.804 0.464596 -1.47244 0
M  V30 174 H 15.762 3.52057 -2.11108 0
M  V30 175 H 14.423 2.94388 -1.09518 0
M  V30 176 H 13.616 3.7919 -3.3201 0
M  V30 177 H 13.218 2.07034 -3.11469 0
M  V30 178 H 15.51 4.71457 -4.86554 0
M  V30 179 H 16.453 3.7231 -6.02321 0
M  V30 180 H 16.861 3.67806 -4.28228 0
M  V30 181 N 16.2591 1.48442 0.529413 0
M  V30 182 C 17.4871 1.60151 1.30994 0
M  V30 183 C 17.9021 0.261985 1.86973 0
M  V30 184 O 17.2591 -0.748805 1.66431 0
M  V30 185 C 17.3101 2.64854 2.46038 0
M  V30 186 O 17.0311 3.93608 1.92365 0
M  V30 187 C 18.5321 2.87007 3.37849 0
M  V30 188 H 15.7521 0.539971 0.398338 0
M  V30 189 H 18.2961 1.94273 0.638597 0
M  V30 190 H 16.4511 2.33589 3.09055 0
M  V30 191 H 16.8651 4.51055 2.67675 0
M  V30 192 H 18.3391 3.64068 4.14919 0
M  V30 193 H 18.8161 1.95852 3.93114 0
M  V30 194 H 19.4221 3.19579 2.80623 0
M  V30 195 N 17.7372 -0.778329 1.37039 0
M  V30 196 C 18.6852 -1.91278 1.32345 0
M  V30 197 C 19.6792 -1.68051 0.213331 0
M  V30 198 O 20.8852 -1.75922 0.38098 0
M  V30 199 H 17.2602 -0.628909 0.412283 0
M  V30 200 H 19.2312 -1.92355 2.28127 0
M  V30 201 C 17.9802 -3.28455 1.14073 0
M  V30 202 H 17.3032 -3.46901 1.98746 0
M  V30 203 H 18.7432 -4.08152 1.14837 0
M  V30 204 C 17.2022 -3.36548 -0.154015 0
M  V30 205 O 17.7322 -3.85186 -1.13993 0
M  V30 206 N 15.9382 -2.89894 -0.202475 0
M  V30 207 H 15.4852 -2.50504 0.600476 0
M  V30 208 H 15.4432 -2.9569 -1.06841 0
M  V30 209 N 19.2153 -1.21501 -1.00376 0
M  V30 210 C 20.4403 -1.05977 -1.78279 0
M  V30 211 C 20.8653 0.385994 -1.84097 0
M  V30 212 O 20.2233 1.27849 -1.28547 0
M  V30 213 C 20.2713 -1.66302 -3.19963 0
M  V30 214 O 19.3753 -0.909333 -4.0225 0
M  V30 215 H 18.7163 -0.372906 -0.549397 0
M  V30 216 H 21.2463 -1.6107 -1.26165 0
M  V30 217 H 21.2563 -1.70574 -3.70632 0
M  V30 218 H 19.9313 -2.71515 -3.15043 0
M  V30 219 H 18.5083 -0.941795 -3.60811 0
M  V30 220 N 20.6934 1.19889 -1.02296 0
M  V30 221 C 21.9184 1.9393 -0.735237 0
M  V30 222 C 22.3434 1.74639 0.698782 0
M  V30 223 O 21.7014 1.04481 1.48167 0
M  V30 224 C 21.7494 3.43916 -1.08417 0
M  V30 225 O 20.8534 4.11917 -0.199446 0
M  V30 226 H 20.1944 0.605645 -0.272196 0
M  V30 227 H 22.7244 1.52137 -1.36804 0
M  V30 228 H 22.7344 3.9456 -1.03856 0
M  V30 229 H 21.4094 3.5728 -2.12894 0
M  V30 230 H 19.9864 3.71666 -0.303136 0
M  V30 231 N 22.1715 0.800033 1.35784 0
M  V30 232 C 23.4175 0.377901 1.99248 0
M  V30 233 C 23.7505 -1.05052 1.63333 0
M  V30 234 O 23.0255 -1.72768 0.893385 0
M  V30 235 C 23.3085 0.553922 3.55814 0
M  V30 236 C 23.1615 2.0268 4.01548 0
M  V30 237 C 24.4805 -0.0244802 4.40093 0
M  V30 238 H 21.5995 0.138782 0.723815 0
M  V30 239 H 24.2415 1.00835 1.61035 0
M  V30 240 H 22.3915 0.0172398 3.88496 0
M  V30 241 H 24.0635 2.62536 3.79305 0
M  V30 242 H 22.3065 2.5256 3.52698 0
M  V30 243 H 22.9775 2.10087 5.10458 0
M  V30 244 H 25.4535 0.433775 4.13833 0
M  V30 245 H 24.3295 0.128637 5.48749 0
M  V30 246 H 24.5905 -1.11758 4.27741 0
M  V30 247 N 23.6496 -1.47581 0.552962 0
M  V30 248 C 24.6126 -2.28439 -0.186605 0
M  V30 249 C 25.6126 -1.36706 -0.84665 0
M  V30 250 O 26.8026 -1.59378 -0.703164 0
M  V30 251 C 23.9346 -3.16264 -1.2724 0
M  V30 252 H 25.1276 -2.95294 0.523609 0
M  V30 253 H 22.6806 -1.532 0.309745 0
M  V30 254 H 23.4156 -2.54091 -2.01514 0
M  V30 255 H 23.2006 -3.83769 -0.803968 0
M  V30 256 H 24.6906 -3.77198 -1.79196 0
M  V30 257 N 25.1277 -0.289203 -1.54924 0
M  V30 258 C 26.3557 0.326463 -2.04308 0
M  V30 259 C 26.7707 1.48413 -1.16701 0
M  V30 260 O 26.1277 1.81507 -0.190087 0
M  V30 261 C 26.1787 0.794014 -3.52672 0
M  V30 262 O 25.8997 -0.317564 -4.36948 0
M  V30 263 C 27.4007 1.47605 -4.18004 0
M  V30 264 H 24.6207 0.0726272 -0.667058 0
M  V30 265 H 27.1647 -0.425401 -2.00026 0
M  V30 266 H 25.3197 1.49593 -3.57352 0
M  V30 267 H 25.7337 0.0443186 -5.24481 0
M  V30 268 H 27.2077 1.75447 -5.23376 0
M  V30 269 H 27.6847 2.41224 -3.67025 0
M  V30 270 H 28.2907 0.81762 -4.17367 0
M  V30 271 N 26.6058 1.57591 -0.0167156 0
M  V30 272 C 27.5538 2.10604 0.987353 0
M  V30 273 C 28.5478 1.02977 1.34507 0
M  V30 274 O 29.7538 1.21425 1.32875 0
M  V30 275 H 26.1288 0.672695 0.336134 0
M  V30 276 H 28.0998 2.93925 0.514817 0
M  V30 277 C 26.8488 2.6382 2.26483 0
M  V30 278 H 26.1718 3.46278 1.99829 0
M  V30 279 H 27.6118 3.04573 2.94977 0
M  V30 280 C 26.0708 1.55992 2.9861 0
M  V30 281 O 26.6008 0.952521 3.90243 0
M  V30 282 N 24.8068 1.28335 2.60727 0
M  V30 283 H 24.3538 1.77914 1.86291 0
M  V30 284 H 24.3118 0.564115 3.09298 0
M  V30 285 N 28.0839 -0.256276 1.55502 0
M  V30 286 C 29.3089 -1.00766 1.81276 0
M  V30 287 C 29.7339 -1.78524 0.59252 0
M  V30 288 O 29.0919 -1.75413 -0.45827 0
M  V30 289 C 29.1399 -1.92869 3.04687 0
M  V30 290 O 28.2439 -3.019 2.80945 0
M  V30 291 H 27.5849 -0.287224 0.598664 0
M  V30 292 H 30.1149 -0.280109 2.02674 0
M  V30 293 H 30.1249 -2.34511 3.33869 0
M  V30 294 H 28.7999 -1.35689 3.93143 0
M  V30 295 H 27.3769 -2.64454 2.62904 0
M  V30 296 N 29.562 -1.4872 -0.521534 0
M  V30 297 C 30.51 -1.64328 -1.64618 0
M  V30 298 C 31.504 -0.50953 -1.61555 0
M  V30 299 O 32.71 -0.688525 -1.66311 0
M  V30 300 H 29.085 -0.517805 -0.545328 0
M  V30 301 H 31.056 -2.58767 -1.48601 0
M  V30 302 C 29.805 -1.70805 -3.02855 0
M  V30 303 H 29.128 -2.5741 -3.05909 0
M  V30 304 H 30.568 -1.85766 -3.81139 0
M  V30 305 C 29.027 -0.448479 -3.33902 0
M  V30 306 O 29.557 0.434928 -3.99339 0
M  V30 307 N 27.763 -0.317616 -2.88859 0
M  V30 308 H 27.31 -1.03748 -2.35784 0
M  V30 309 H 27.268 0.524113 -3.10001 0
M  V30 310 N 31.0401 0.771051 -1.3745 0
M  V30 311 C 31.9721 1.89352 -1.29146 0
M  V30 312 C 32.9851 1.61477 -0.207124 0
M  V30 313 O 34.1741 1.72382 -0.463324 0
M  V30 314 C 31.2741 3.24596 -0.974195 0
M  V30 315 C 30.4471 3.80111 -2.16413 0
M  V30 316 C 29.5061 4.93832 -1.81703 0
M  V30 317 O 28.5321 5.09382 -2.54006 0
M  V30 318 N 29.7341 5.75483 -0.761573 0
M  V30 319 H 32.4991 1.96991 -2.25864 0
M  V30 320 H 30.0601 0.950191 -1.31084 0
M  V30 321 H 32.0521 3.98193 -0.722828 0
M  V30 322 H 30.6221 3.12454 -0.0955527 0
M  V30 323 H 29.8421 2.98284 -2.57721 0
M  V30 324 H 31.1301 4.13932 -2.95867 0
M  V30 325 H 30.5281 5.65469 -0.161609 0
M  V30 326 H 29.0851 6.49302 -0.570064 0
M  V30 327 N 32.5182 1.22032 0.997298 0
M  V30 328 C 33.9292 1.0397 1.55071 0
M  V30 329 C 34.2802 -0.398192 1.92117 0
M  V30 330 O 33.4052 -1.28254 1.74298 0
M  V30 331 C 34.0002 1.88109 2.81781 0
M  V30 332 C 32.5592 1.74357 3.33581 0
M  V30 333 C 31.7062 1.84846 2.06706 0
M  V30 334 H 34.6572 1.35941 0.818883 0
M  V30 335 H 34.6782 1.39589 3.53971 0
M  V30 336 H 34.1902 2.92754 2.54787 0
M  V30 337 H 32.2912 0.72427 3.65493 0
M  V30 338 H 32.4042 2.56772 4.04481 0
M  V30 339 H 30.7682 1.28238 2.20062 0
M  V30 340 H 31.5512 2.91014 1.82114 0
M  V30 341 N 33.9963 -1.19345 1.0293 0
M  V30 342 C 35.2433 -1.89038 0.726008 0
M  V30 343 C 35.5713 -1.79649 -0.745427 0
M  V30 344 O 34.8263 -1.18354 -1.55855 0
M  V30 345 C 35.1253 -3.39292 1.12319 0
M  V30 346 C 34.7913 -3.68885 2.59297 0
M  V30 347 C 33.4533 -3.76671 2.99453 0
M  V30 348 C 35.8053 -3.82178 3.54386 0
M  V30 349 C 33.1333 -3.9522 4.33611 0
M  V30 350 C 35.4853 -4.0224 4.88248 0
M  V30 351 C 34.1493 -4.08259 5.28092 0
M  V30 352 H 33.4193 -0.691739 0.265665 0
M  V30 353 H 36.0663 -1.41328 1.29223 0
M  V30 354 H 34.3713 -3.88903 0.475584 0
M  V30 355 H 36.0683 -3.91536 0.866037 0
M  V30 356 H 32.6583 -3.63433 2.27189 0
M  V30 357 H 36.8423 -3.75505 3.24514 0
M  V30 358 H 32.0983 -3.98119 4.64016 0
M  V30 359 H 36.2723 -4.11468 5.61843 0
M  V30 360 H 33.8993 -4.22384 6.32057 0
M  V30 361 N 35.4744 -0.807222 -1.35358 0
M  V30 362 C 36.4044 -0.232509 -2.3234 0
M  V30 363 C 37.3854 0.642386 -1.57504 0
M  V30 364 O 38.5704 0.572526 -1.85569 0
M  V30 365 C 35.7004 0.619238 -3.41735 0
M  V30 366 C 34.6544 -0.157215 -4.27711 0
M  V30 367 C 33.9804 0.816273 -5.28433 0
M  V30 368 C 35.2804 -1.35656 -5.04376 0
M  V30 369 H 36.9744 -1.04276 -2.80654 0
M  V30 370 H 34.5204 -0.50288 -1.34934 0
M  V30 371 H 36.4734 1.03137 -4.08584 0
M  V30 372 H 35.1974 1.46239 -2.92031 0
M  V30 373 H 33.8564 -0.550525 -3.62443 0
M  V30 374 H 33.5044 1.65494 -4.74996 0
M  V30 375 H 33.2044 0.301067 -5.86828 0
M  V30 376 H 34.7284 1.22659 -5.98153 0
M  V30 377 H 36.1424 -1.01927 -5.64166 0
M  V30 378 H 34.5394 -1.8063 -5.7227 0
M  V30 379 H 35.6094 -2.14288 -4.34981 0
M  V30 380 N 36.9525 1.47285 -0.560781 0
M  V30 381 C 38.2005 2.02064 -0.0379868 0
M  V30 382 C 38.5215 1.43711 1.31803 0
M  V30 383 O 37.7915 0.61362 1.86042 0
M  V30 384 H 36.3715 0.746918 -0.0110531 0
M  V30 385 H 39.0335 1.80648 -0.731598 0
M  V30 386 H 38.1295 3.12064 0.0474463 0
M  V30 387 N 38.4306 0.297415 1.54768 0
M  V30 388 C 39.3626 -0.613881 2.20826 0
M  V30 389 C 40.3756 -1.10032 1.19987 0
M  V30 390 O 41.5646 -1.01839 1.46598 0
M  V30 391 C 38.6646 -1.852 2.83821 0
M  V30 392 C 37.8376 -1.50865 4.10559 0
M  V30 393 C 36.8966 -2.60154 4.57391 0
M  V30 394 O 35.9226 -2.25398 5.2267 0
M  V30 395 N 37.1246 -3.90629 4.29406 0
M  V30 396 H 39.8896 -0.048389 2.99661 0
M  V30 397 H 37.4506 0.11946 1.61459 0
M  V30 398 H 39.4426 -2.57652 3.12086 0
M  V30 399 H 38.0126 -2.32597 2.08847 0
M  V30 400 H 37.2326 -0.616925 3.89343 0
M  V30 401 H 38.5206 -1.25458 4.9309 0
M  V30 402 H 37.9186 -4.21677 3.77101 0
M  V30 403 H 36.4756 -4.59391 4.62388 0
M  V30 404 N 39.9087 -1.5758 0.0250728 0
M  V30 405 C 41.3197 -1.79476 -0.514323 0
M  V30 406 C 41.6707 -0.934956 -1.72491 0
M  V30 407 O 40.7957 -0.144245 -2.15919 0
M  V30 408 C 41.3907 -3.25503 -0.939842 0
M  V30 409 C 39.9497 -3.48408 -1.42438 0
M  V30 410 C 39.0967 -2.74583 -0.387201 0
M  V30 411 H 42.0477 -1.567 0.25113 0
M  V30 412 H 42.0687 -3.34992 -1.80445 0
M  V30 413 H 41.5807 -3.88056 -0.0585628 0
M  V30 414 H 39.6817 -2.91103 -2.32572 0
M  V30 415 H 39.7947 -4.57119 -1.43455 0
M  V30 416 H 38.1587 -2.39942 -0.854409 0
M  V30 417 H 38.9417 -3.39849 0.485543 0
M  V30 418 N 41.3868 0.248026 -1.55636 0
M  V30 419 C 42.6328 0.973427 -1.78594 0
M  V30 420 C 42.9878 1.83007 -0.593823 0
M  V30 421 O 42.2808 1.87097 0.412961 0
M  V30 422 C 42.4748 1.86819 -3.04686 0
M  V30 423 C 42.3038 1.09965 -4.36048 0
M  V30 424 C 41.0738 0.805204 -4.98843 0
M  V30 425 C 43.2718 0.477783 -5.12076 0
M  V30 426 N 41.2538 0.0124859 -6.13899 0
M  V30 427 C 42.6248 -0.179565 -6.1974 0
M  V30 428 C 44.6798 0.388136 -4.96385 0
M  V30 429 C 43.3828 -0.91795 -7.13419 0
M  V30 430 C 45.4088 -0.336716 -5.90441 0
M  V30 431 C 44.7708 -0.982705 -6.97511 0
M  V30 432 H 40.8698 0.337348 -0.705493 0
M  V30 433 H 43.4538 0.24667 -1.93131 0
M  V30 434 H 41.6248 2.56698 -2.9148 0
M  V30 435 H 43.3568 2.52907 -3.15944 0
M  V30 436 H 40.1118 1.11671 -4.60246 0
M  V30 437 H 40.5358 -0.371933 -6.75978 0
M  V30 438 H 45.1778 0.873237 -4.13684 0
M  V30 439 H 42.8958 -1.41466 -7.95621 0
M  V30 440 H 46.4818 -0.406731 -5.80377 0
M  V30 441 H 45.3618 -1.53464 -7.69037 0
M  V30 442 N 42.8649 1.48995 0.513639 0
M  V30 443 C 43.7949 1.67636 1.62544 0
M  V30 444 C 44.7759 0.525087 1.61793 0
M  V30 445 O 45.9609 0.759502 1.78732 0
M  V30 446 C 43.0909 1.73114 3.01079 0
M  V30 447 C 42.0449 2.87905 3.16693 0
M  V30 448 C 41.3709 2.78486 4.56453 0
M  V30 449 C 42.6709 4.29005 2.97913 0
M  V30 450 H 44.3649 2.60716 1.47198 0
M  V30 451 H 41.9109 1.25465 0.706714 0
M  V30 452 H 43.8639 1.84742 3.78746 0
M  V30 453 H 42.5879 0.766241 3.17484 0
M  V30 454 H 41.2469 2.75859 2.41448 0
M  V30 455 H 40.8949 1.7993 4.69717 0
M  V30 456 H 40.5949 3.55523 4.67843 0
M  V30 457 H 42.1189 2.92104 5.36197 0
M  V30 458 H 43.5329 4.41798 3.65359 0
M  V30 459 H 41.9299 5.07166 3.20785 0
M  V30 460 H 42.9999 4.44329 1.94165 0
M  V30 461 N 44.343 -0.763751 1.37857 0
M  V30 462 C 45.589 -1.52483 1.33704 0
M  V30 463 C 45.922 -1.94051 -0.0759612 0
M  V30 464 O 45.197 -1.64675 -1.03501 0
M  V30 465 C 45.48 -2.78441 2.28348 0
M  V30 466 C 45.333 -2.43075 3.78463 0
M  V30 467 C 46.652 -3.80415 2.21298 0
M  V30 468 H 43.771 -0.553169 0.487005 0
M  V30 469 H 46.413 -0.875562 1.68624 0
M  V30 470 H 44.563 -3.33842 1.987 0
M  V30 471 H 46.235 -1.93527 4.18742 0
M  V30 472 H 44.478 -1.75666 3.96641 0
M  V30 473 H 45.149 -3.33149 4.40132 0
M  V30 474 H 47.625 -3.34527 2.47449 0
M  V30 475 H 46.501 -4.66257 2.89647 0
M  V30 476 H 46.762 -4.25262 1.20849 0
M  V30 477 N 45.8211 -1.22559 -0.990812 0
M  V30 478 C 46.7311 -1.01394 -2.11557 0
M  V30 479 C 47.7471 0.0383962 -1.73958 0
M  V30 480 O 48.9231 -0.154787 -2.00804 0
M  V30 481 C 45.9881 -0.596569 -3.41529 0
M  V30 482 C 45.0491 -1.72276 -3.93217 0
M  V30 483 C 44.2821 -1.32521 -5.16985 0
M  V30 484 O 44.5051 -0.204909 -5.70032 0
M  V30 485 O 43.4391 -2.14247 -5.62478 0
M  V30 486 H 47.2651 -1.95633 -2.32296 0
M  V30 487 H 44.8501 -1.01172 -1.0993 0
M  V30 488 H 46.7321 -0.374263 -4.19735 0
M  V30 489 H 45.4071 0.316939 -3.22145 0
M  V30 490 H 44.3141 -1.99961 -3.16174 0
M  V30 491 H 45.6471 -2.61421 -4.17037 0
M  V30 492 N 47.2992 1.18797 -1.03562 0
M  V30 493 C 48.2092 2.25913 -0.632505 0
M  V30 494 C 49.2252 1.70668 0.338882 0
M  V30 495 O 50.4012 2.00453 0.195076 0
M  V30 496 C 47.4662 3.467 0.00350942 0
M  V30 497 C 46.5272 4.17098 -1.01624 0
M  V30 498 C 45.7602 5.32119 -0.410478 0
M  V30 499 O 45.9832 5.64976 0.784725 0
M  V30 500 O 44.9172 5.9107 -1.13667 0
M  V30 501 H 48.7432 2.62648 -1.52478 0
M  V30 502 H 46.3282 1.25781 -0.806195 0
M  V30 503 H 48.2102 4.19878 0.35781 0
M  V30 504 H 46.8852 3.11798 0.869686 0
M  V30 505 H 45.7922 3.4601 -1.42224 0
M  V30 506 H 47.1252 4.55987 -1.85301 0
M  V30 507 N 48.7773 0.814389 1.34928 0
M  V30 508 C 50.1933 0.499084 1.51596 0
M  V30 509 C 50.3933 -0.978319 1.76157 0
M  V30 510 O 49.4493 -1.76309 1.80752 0
M  V30 511 C 50.7623 1.35121 2.68631 0
M  V30 512 C 52.3103 1.34746 2.82511 0
M  V30 513 C 52.7853 2.18388 4.0258 0
M  V30 514 N 54.2763 2.15966 4.09772 0
M  V30 515 C 55.0113 2.77437 5.01813 0
M  V30 516 N 54.5073 3.47866 5.99134 0
M  V30 517 N 56.3003 2.67037 4.94619 0
M  V30 518 H 48.4513 1.7711 1.17243 0
M  V30 519 H 50.7143 0.754256 0.574284 0
M  V30 520 H 50.4203 2.40001 2.57085 0
M  V30 521 H 50.2943 1.00991 3.63429 0
M  V30 522 H 52.6813 0.30648 2.93504 0
M  V30 523 H 52.7623 1.72869 1.88547 0
M  V30 524 H 52.4063 3.2253 3.92347 0
M  V30 525 H 52.3363 1.77621 4.9574 0
M  V30 526 H 54.8273 1.64729 3.40107 0
M  V30 527 H 55.1403 3.92038 6.65977 0
M  V30 528 H 53.4853 3.51972 5.99284 0
M  V30 529 H 56.6763 2.11597 4.17546 0
M  V30 530 H 56.8493 3.15232 5.66156 0
M  V30 531 N 50.2554 -1.46986 0.568584 0
M  V30 532 C 51.5324 -1.95592 -0.0174074 0
M  V30 533 C 51.9124 -1.51124 -1.47393 0
M  V30 534 O 51.2604 -0.755329 -2.15655 0
M  V30 535 C 51.4704 -3.48719 0.139913 0
M  V30 536 C 52.8184 -4.246 0.000426376 0
M  V30 537 O 53.8424 -3.56135 0.0680316 0
M  V30 538 O 52.7014 -5.46302 -0.146988 0
M  V30 539 H 49.7954 -0.82498 -0.0577599 0
M  V30 540 H 52.3414 -1.57335 0.635909 0
M  V30 541 H 51.1134 -3.73927 1.15301 0
M  V30 542 H 50.7364 -3.93771 -0.550491 0
M  V30 543 N 51.7335 -0.305618 -1.54608 0
M  V30 544 C 52.6965 0.555591 -2.22364 0
M  V30 545 C 53.6965 1.05768 -1.21119 0
M  V30 546 O 54.8865 0.952972 -1.45822 0
M  V30 547 C 52.0185 1.76974 -2.91364 0
M  V30 548 H 53.2115 -0.0364572 -2.99878 0
M  V30 549 H 50.7645 -0.0565007 -1.56198 0
M  V30 550 H 51.4995 2.40151 -2.17941 0
M  V30 551 H 51.2845 1.41732 -3.65588 0
M  V30 552 H 52.7745 2.38148 -3.43038 0
M  V30 553 N 53.2116 1.57565 -0.0334293 0
M  V30 554 C 54.4516 1.93844 0.648379 0
M  V30 555 C 54.8156 0.910387 1.69044 0
M  V30 556 O 56.0166 1.15952 2.42505 0
M  V30 557 C 54.2876 3.35017 1.24492 0
M  V30 558 S 55.8466 3.93229 1.94721 0
M  V30 559 H 52.6646 0.678231 0.213364 0
M  V30 560 H 55.2666 1.95254 -0.0981253 0
M  V30 561 H 53.9706 4.07652 0.474128 0
M  V30 562 H 53.5016 3.37061 2.02864 0
M  V30 563 H 55.5166 3.77014 3.22606 0
M  V30 564 N 54.6897 -0.239769 1.55765 0
M  V30 565 C 55.9377 -0.964892 1.77579 0
M  V30 566 C 56.2587 -1.85582 0.598699 0
M  V30 567 O 55.5287 -1.92075 -0.385226 0
M  V30 568 H 54.1087 -0.359265 0.654933 0
M  V30 569 H 56.7707 -0.256001 1.93211 0
M  V30 570 H 55.8667 -1.58243 2.69009 0
M  V30 571 N 56.1678 -1.49265 -0.50573 0
M  V30 572 C 57.4138 -1.58748 -1.26202 0
M  V30 573 C 57.7468 -0.271227 -1.92297 0
M  V30 574 O 57.0218 0.724831 -1.80489 0
M  V30 575 C 57.3048 -2.74332 -2.33268 0
M  V30 576 C 57.1578 -4.15737 -1.71705 0
M  V30 577 C 58.4768 -2.85576 -3.34865 0
M  V30 578 H 55.5958 -0.577826 -0.457478 0
M  V30 579 H 58.2378 -1.81532 -0.560897 0
M  V30 580 H 56.3878 -2.55036 -2.93068 0
M  V30 581 H 58.0598 -4.46537 -1.15769 0
M  V30 582 H 56.3028 -4.21605 -1.02135 0
M  V30 583 H 56.9738 -4.92477 -2.49341 0
M  V30 584 H 59.4498 -3.03127 -2.8505 0
M  V30 585 H 58.3258 -3.68135 -4.07146 0
M  V30 586 H 58.5868 -1.94732 -3.96903 0
M  V30 587 N 57.6459 0.756429 -1.3826 0
M  V30 588 C 58.8939 1.51248 -1.34047 0
M  V30 589 C 59.2149 1.94875 0.0698372 0
M  V30 590 O 58.4849 1.67436 1.01696 0
M  V30 591 H 57.0649 0.561018 -0.493222 0
M  V30 592 H 59.7269 0.899347 -1.7291 0
M  V30 593 H 58.8229 2.40472 -1.98947 0
M  V30 594 N 59.124 1.23083 0.984299 0
M  V30 595 C 60.371 1.06057 1.72505 0
M  V30 596 C 60.699 -0.403105 1.90277 0
M  V30 597 O 59.954 -1.3149 1.44944 0
M  V30 598 C 60.253 1.72673 3.1292 0
M  V30 599 C 59.919 3.22586 3.15038 0
M  V30 600 C 58.581 3.63489 3.15324 0
M  V30 601 C 60.933 4.185 3.10657 0
M  V30 602 C 58.261 4.98772 3.08939 0
M  V30 603 C 60.613 5.53769 3.05814 0
M  V30 604 C 59.277 5.94041 3.04419 0
M  V30 605 H 58.547 0.388091 0.631242 0
M  V30 606 H 61.194 1.52963 1.15215 0
M  V30 607 H 59.499 1.18116 3.73572 0
M  V30 608 H 61.196 1.56982 3.68996 0
M  V30 609 H 57.786 2.90022 3.15571 0
M  V30 610 H 61.97 3.87911 3.09579 0
M  V30 611 H 57.226 5.29193 3.0621 0
M  V30 612 H 61.4 6.27808 3.0138 0
M  V30 613 H 59.027 6.98833 2.99227 0
M  V30 614 N 60.6021 -1.18246 1.0419 0
M  V30 615 C 61.8511 -1.87588 0.741194 0
M  V30 616 C 62.1641 -1.81303 -0.734066 0
M  V30 617 O 63.3701 -2.46019 -1.14834 0
M  V30 618 C 61.8261 -3.36538 1.27555 0
M  V30 619 C 61.4341 -3.51349 2.77953 0
M  V30 620 C 63.1781 -4.11273 1.05143 0
M  V30 621 C 61.0851 -4.94265 3.2474 0
M  V30 622 H 60.0151 -0.702622 0.273565 0
M  V30 623 H 62.6661 -1.33601 1.25789 0
M  V30 624 H 61.0481 -3.9 0.686703 0
M  V30 625 H 62.2221 -3.08153 3.42605 0
M  V30 626 H 60.5371 -2.90022 2.98791 0
M  V30 627 H 63.1341 -5.16689 1.37611 0
M  V30 628 H 63.4771 -4.16298 -0.0112774 0
M  V30 629 H 64.0101 -3.63987 1.60495 0
M  V30 630 H 60.7491 -4.94408 4.30396 0
M  V30 631 H 60.2691 -5.38172 2.64823 0
M  V30 632 H 61.9481 -5.62987 3.18834 0
M  V30 633 N 62.0802 -0.821533 -1.34494 0
M  V30 634 C 63.0432 -0.247847 -2.27856 0
M  V30 635 C 64.0432 0.573453 -1.50227 0
M  V30 636 O 65.2332 0.389759 -1.69784 0
M  V30 637 C 62.3652 0.652698 -3.34593 0
M  V30 638 H 63.5582 -1.07146 -2.80107 0
M  V30 639 H 61.1112 -0.593291 -1.44602 0
M  V30 640 H 61.8462 1.49943 -2.87555 0
M  V30 641 H 61.6312 0.065292 -3.92046 0
M  V30 642 H 63.1212 1.04793 -4.04238 0
M  V30 643 N 63.5583 1.46682 -0.576371 0
M  V30 644 C 64.5063 2.31953 0.17335 0
M  V30 645 C 65.5003 1.44098 0.89062 0
M  V30 646 O 66.7063 1.60759 0.809728 0
M  V30 647 H 63.0813 0.748273 0.0747727 0
M  V30 648 H 65.0523 2.93007 -0.564738 0
M  V30 649 C 63.8013 3.27142 1.17786 0
M  V30 650 H 63.1243 3.94719 0.635361 0
M  V30 651 H 64.5643 3.896 1.67296 0
M  V30 652 C 63.0233 2.52036 2.23561 0
M  V30 653 O 63.5533 2.27877 3.3081 0
M  V30 654 N 61.7593 2.12709 1.97998 0
M  V30 655 H 61.3063 2.32557 1.10792 0
M  V30 656 H 61.2643 1.62776 2.68982 0
M  V30 657 N 65.0364 0.313813 1.54444 0
M  V30 658 C 65.9664 -0.549454 2.26943 0
M  V30 659 C 66.9474 -1.12741 1.27372 0
M  V30 660 O 68.1324 -1.15436 1.56167 0
M  V30 661 C 65.2624 -1.71523 3.01989 0
M  V30 662 C 64.2164 -1.26703 4.08816 0
M  V30 663 C 63.5424 -2.51898 4.71647 0
M  V30 664 C 64.8424 -0.388962 5.2085 0
M  V30 665 H 66.5364 0.0552661 2.99349 0
M  V30 666 H 64.0824 0.0280207 1.43973 0
M  V30 667 H 66.0354 -2.32535 3.51433 0
M  V30 668 H 64.7594 -2.34639 2.27183 0
M  V30 669 H 63.4184 -0.679896 3.6024 0
M  V30 670 H 63.0664 -3.13356 3.93468 0
M  V30 671 H 62.7664 -2.22605 5.43802 0
M  V30 672 H 64.2904 -3.1369 5.23861 0
M  V30 673 H 65.7044 -0.905107 5.6611 0
M  V30 674 H 64.1014 -0.18924 5.99802 0
M  V30 675 H 65.1714 0.582699 4.81386 0
M  V30 676 N 66.5145 -1.57545 0.0417849 0
M  V30 677 C 67.9305 -1.56467 -0.314704 0
M  V30 678 C 68.1305 -1.04859 -1.72066 0
M  V30 679 O 67.1865 -0.700983 -2.42575 0
M  V30 680 C 68.4995 -3.00317 -0.15174 0
M  V30 681 C 70.0475 -3.12201 -0.223553 0
M  V30 682 C 70.5225 -4.57913 -0.0892295 0
M  V30 683 N 72.0135 -4.6297 -0.145808 0
M  V30 684 C 72.7485 -5.73362 -0.0658459 0
M  V30 685 N 72.2445 -6.92769 0.0659282 0
M  V30 686 N 74.0375 -5.6197 -0.12075 0
M  V30 687 H 66.1885 -1.89416 0.961014 0
M  V30 688 H 68.4515 -0.871862 0.372237 0
M  V30 689 H 68.1575 -3.42073 0.817254 0
M  V30 690 H 68.0315 -3.65892 -0.916692 0
M  V30 691 H 70.4185 -2.70349 -1.18301 0
M  V30 692 H 70.4995 -2.49323 0.571994 0
M  V30 693 H 70.1435 -5.00448 0.866867 0
M  V30 694 H 70.0735 -5.18786 -0.903802 0
M  V30 695 H 72.5645 -3.7709 -0.247286 0
M  V30 696 H 72.8775 -7.72707 0.119905 0
M  V30 697 H 71.2225 -6.94927 0.100885 0
M  V30 698 H 74.4135 -4.67572 -0.222187 0
M  V30 699 H 74.5865 -6.47977 -0.0549735 0
M  V30 700 N 67.9926 0.231505 -1.5589 0
M  V30 701 C 69.2406 0.955461 -1.78088 0
M  V30 702 C 69.5616 1.85262 -0.608533 0
M  V30 703 O 68.8316 1.92277 0.375035 0
M  V30 704 H 67.4116 0.355787 -0.656829 0
M  V30 705 H 70.0736 0.245751 -1.93344 0
M  V30 706 H 69.1696 1.56814 -2.69844 0
M  V30 707 N 69.4707 1.49531 0.497807 0
M  V30 708 C 70.4177 1.66436 1.59899 0
M  V30 709 C 71.3877 0.505793 1.58212 0
M  V30 710 O 72.5727 0.733202 1.7615 0
M  V30 711 C 69.7127 1.7399 2.98029 0
M  V30 712 C 68.8257 3.01172 3.09708 0
M  V30 713 C 67.9607 2.99686 4.38591 0
M  V30 714 C 66.9997 4.21434 4.43914 0
M  V30 715 N 66.1367 4.1784 5.64229 0
M  V30 716 H 70.9767 2.60459 1.44793 0
M  V30 717 H 68.5137 1.29137 0.704423 0
M  V30 718 H 70.4717 1.76352 3.78095 0
M  V30 719 H 69.1017 0.834301 3.11832 0
M  V30 720 H 68.1537 3.08408 2.22685 0
M  V30 721 H 69.4657 3.91165 3.09502 0
M  V30 722 H 68.6197 3.00628 5.2698 0
M  V30 723 H 67.3587 2.07477 4.41367 0
M  V30 724 H 66.3637 4.20733 3.53926 0
M  V30 725 H 67.5887 5.14839 4.42851 0
M  V30 726 H 65.5347 3.28469 5.67841 0
M  V30 727 H 65.4517 5.01571 5.65652 0
M  V30 728 H 66.7197 4.22889 6.54817 0
M  V30 729 N 70.9488 -0.749086 1.3866 0
M  V30 730 C 72.3598 -1.32664 1.31366 0
M  V30 731 C 72.7108 -1.96179 -0.028484 0
M  V30 732 O 71.8358 -1.9537 -0.93057 0
M  V30 733 C 72.4308 -2.41219 2.37905 0
M  V30 734 C 70.9898 -2.94684 2.34176 0
M  V30 735 C 70.1368 -1.68108 2.20533 0
M  V30 736 H 73.0878 -0.547628 1.48952 0
M  V30 737 H 73.1088 -3.21268 2.0388 0
M  V30 738 H 72.6208 -1.94962 3.35576 0
M  V30 739 H 70.7218 -3.45258 1.401 0
M  V30 740 H 70.8348 -3.48757 3.2849 0
M  V30 741 H 69.1988 -1.91907 1.67463 0
M  V30 742 H 69.9818 -1.23923 3.20153 0
M  V30 743 N 72.4269 -1.23603 -0.977757 0
M  V30 744 C 73.7039 -0.977897 -1.69401 0
M  V30 745 C 74.0839 0.502738 -2.05026 0
M  V30 746 O 73.4319 1.47459 -1.74551 0
M  V30 747 C 73.6419 -1.89077 -2.93345 0
M  V30 748 C 74.9899 -2.15579 -3.65802 0
M  V30 749 O 76.0139 -1.86648 -3.03383 0
M  V30 750 O 74.8729 -2.64658 -4.78141 0
M  V30 751 H 71.9669 -0.369025 -0.740101 0
M  V30 752 H 74.5129 -1.34657 -1.03274 0
M  V30 753 H 73.2849 -2.89158 -2.63634 0
M  V30 754 H 72.9079 -1.52463 -3.67207 0
M  V30 755 N 73.905 1.17692 -1.04816 0
M  V30 756 C 74.855 2.1952 -0.616042 0
M  V30 757 C 75.839 1.57147 0.345485 0
M  V30 758 O 77.031 1.76245 0.163325 0
M  V30 759 C 74.16 3.43298 0.0116917 0
M  V30 760 C 73.246 4.12777 -0.973435 0
M  V30 761 N 73.637 4.5814 -2.14339 0
M  V30 762 C 71.935 4.38747 -0.80108 0
M  V30 763 C 72.636 5.11713 -2.7663 0
M  V30 764 N 71.612 5.03686 -2.04453 0
M  V30 765 H 75.414 2.52293 -1.5075 0
M  V30 766 H 72.928 1.3398 -0.917776 0
M  V30 767 H 74.925 4.15519 0.339006 0
M  V30 768 H 73.585 3.12018 0.898593 0
M  V30 769 H 74.596 4.52349 -2.52191 0
M  V30 770 H 71.273 4.17485 0.0350934 0
M  V30 771 H 72.663 5.56962 -3.75823 0
M  V30 772 N 75.3831 0.828654 1.34056 0
M  V30 773 C 76.6111 0.43262 2.02326 0
M  V30 774 C 77.0261 -0.963147 1.62385 0
M  V30 775 O 76.3831 -1.62425 0.832121 0
M  V30 776 C 76.4341 0.53182 3.57567 0
M  V30 777 O 76.1551 1.87258 3.96063 0
M  V30 778 C 77.6561 0.131422 4.43105 0
M  V30 779 H 74.8761 0.172923 0.648335 0
M  V30 780 H 77.4201 1.1184 1.71208 0
M  V30 781 H 75.5751 -0.105938 3.87255 0
M  V30 782 H 75.9891 1.85087 4.90758 0
M  V30 783 H 77.4631 0.251904 5.51425 0
M  V30 784 H 77.9401 -0.925645 4.29335 0
M  V30 785 H 78.5461 0.743207 4.18756 0
M  V30 786 N 76.8612 -1.46375 0.584142 0
M  V30 787 C 77.7912 -2.33103 -0.136037 0
M  V30 788 C 78.7722 -1.45431 -0.882255 0
M  V30 789 O 79.9572 -1.74246 -0.857434 0
M  V30 790 C 77.0872 -3.27731 -1.14933 0
M  V30 791 C 76.0412 -4.24855 -0.517862 0
M  V30 792 C 75.3672 -5.09001 -1.63773 0
M  V30 793 C 76.6672 -5.19439 0.545886 0
M  V30 794 H 78.3612 -2.93568 0.588086 0
M  V30 795 H 75.9072 -1.41166 0.284259 0
M  V30 796 H 77.8602 -3.87261 -1.66153 0
M  V30 797 H 76.5842 -2.65377 -1.90375 0
M  V30 798 H 75.2432 -3.6659 -0.0267361 0
M  V30 799 H 74.8912 -4.43031 -2.38185 0
M  V30 800 H 74.5912 -5.74777 -1.22085 0
M  V30 801 H 76.1152 -5.71396 -2.15266 0
M  V30 802 H 77.5292 -5.73177 0.118704 0
M  V30 803 H 75.9262 -5.93566 0.88317 0
M  V30 804 H 76.9962 -4.63285 1.43162 0
M  V30 805 N 78.3393 -0.321999 -1.54275 0
M  V30 806 C 79.5853 0.281461 -2.00837 0
M  V30 807 C 79.9183 1.51909 -1.20985 0
M  V30 808 O 79.1933 1.923 -0.291733 0
M  V30 809 C 79.4763 0.617162 -3.54772 0
M  V30 810 C 79.3293 -0.631064 -4.45351 0
M  V30 811 C 80.6483 1.43542 -4.16033 0
M  V30 812 H 77.7673 0.100826 -0.730071 0
M  V30 813 H 80.4093 -0.438268 -1.84876 0
M  V30 814 H 78.5593 1.23034 -3.68504 0
M  V30 815 H 80.2313 -1.26934 -4.43492 0
M  V30 816 H 78.4743 -1.26025 -4.15091 0
M  V30 817 H 79.1453 -0.351735 -5.50878 0
M  V30 818 H 81.6213 0.917134 -4.05867 0
M  V30 819 H 80.4973 1.63907 -5.23856 0
M  V30 820 H 80.7583 2.43108 -3.69257 0
M  V30 821 N 79.8174 1.5752 -0.0501392 0
M  V30 822 C 80.7274 2.14952 0.939827 0
M  V30 823 C 81.7434 1.10706 1.34239 0
M  V30 824 O 82.9194 1.42869 1.41952 0
M  V30 825 C 79.9844 2.68232 2.19665 0
M  V30 826 C 79.0454 3.87272 1.85253 0
M  V30 827 C 78.2784 4.38002 3.04943 0
M  V30 828 O 78.5014 3.87811 4.18281 0
M  V30 829 O 77.4354 5.29602 2.86017 0
M  V30 830 H 81.2614 2.9986 0.481392 0
M  V30 831 H 78.8464 1.4841 0.171699 0
M  V30 832 H 80.7284 3.02475 2.93406 0
M  V30 833 H 79.4034 1.86395 2.64648 0
M  V30 834 H 78.3104 3.5792 1.0883 0
M  V30 835 H 79.6434 4.70336 1.4507 0
M  V30 836 N 81.2955 -0.223234 1.56011 0
M  V30 837 C 82.2275 -1.30006 1.88762 0
M  V30 838 C 83.2405 -1.43129 0.775746 0
M  V30 839 O 84.4295 -1.44057 1.05403 0
M  V30 840 C 81.5295 -2.67589 2.07965 0
M  V30 841 C 80.7025 -2.76434 3.38973 0
M  V30 842 C 79.7615 -3.95019 3.47629 0
M  V30 843 O 78.7875 -3.83436 4.20672 0
M  V30 844 N 79.9895 -5.09249 2.78649 0
M  V30 845 H 82.7545 -1.02238 2.81722 0
M  V30 846 H 80.3155 -0.413278 1.56536 0
M  V30 847 H 82.3075 -3.45297 2.11073 0
M  V30 848 H 80.8775 -2.87964 1.21638 0
M  V30 849 H 80.0975 -1.85216 3.47978 0
M  V30 850 H 81.3855 -2.79313 4.25278 0
M  V30 851 H 80.7835 -5.21556 2.19081 0
M  V30 852 H 79.3405 -5.85007 2.8742 0
M  V30 853 N 82.7736 -1.49793 -0.48987 0
M  V30 854 C 83.7366 -1.66752 -1.57246 0
M  V30 855 C 84.7366 -0.538867 -1.51502 0
M  V30 856 O 85.9266 -0.805545 -1.54456 0
M  V30 857 C 83.0586 -1.67528 -2.96896 0
M  V30 858 H 84.2516 -2.63321 -1.43534 0
M  V30 859 H 81.8046 -1.38992 -0.714914 0
M  V30 860 H 82.5396 -0.725837 -3.16073 0
M  V30 861 H 82.3246 -2.49504 -3.02473 0
M  V30 862 H 83.8146 -1.82667 -3.7553 0
M  V30 863 N 84.2517 0.741722 -1.39055 0
M  V30 864 C 85.1817 1.869 -1.39966 0
M  V30 865 C 86.1627 1.6804 -0.26392 0
M  V30 866 O 87.3477 1.88458 -0.468755 0
M  V30 867 C 84.4777 3.24572 -1.23574 0
M  V30 868 C 83.4317 3.58056 -2.34477 0
M  V30 869 C 82.7577 4.94593 -2.0318 0
M  V30 870 C 84.0577 3.61716 -3.76774 0
M  V30 871 H 85.7517 1.86395 -2.34302 0
M  V30 872 H 83.2977 0.895361 -1.1278 0
M  V30 873 H 85.2507 4.031 -1.22834 0
M  V30 874 H 83.9747 3.25587 -0.257045 0
M  V30 875 H 82.6337 2.81854 -2.34423 0
M  V30 876 H 82.2817 4.92181 -1.03765 0
M  V30 877 H 81.9817 5.17964 -2.77465 0
M  V30 878 H 83.5057 5.75486 -2.04079 0
M  V30 879 H 84.9197 4.30335 -3.78794 0
M  V30 880 H 83.3167 3.96603 -4.50362 0
M  V30 881 H 84.3867 2.61672 -4.08235 0
M  V30 882 N 85.7298 1.2412 0.971189 0
M  V30 883 C 86.6768 1.0305 2.06517 0
M  V30 884 C 87.6468 -0.0550666 1.66009 0
M  V30 885 O 88.8318 0.0988688 1.90544 0
M  V30 886 C 85.9718 0.637653 3.39158 0
M  V30 887 C 85.0848 1.79633 3.92882 0
M  V30 888 C 84.2198 1.34939 5.13775 0
M  V30 889 C 83.2588 2.47823 5.59687 0
M  V30 890 N 82.3958 2.04022 6.71803 0
M  V30 891 H 87.2358 1.96685 2.23873 0
M  V30 892 H 84.7728 0.979694 1.09729 0
M  V30 893 H 86.7308 0.390931 4.15364 0
M  V30 894 H 85.3608 -0.261693 3.21737 0
M  V30 895 H 84.4128 2.15681 3.13346 0
M  V30 896 H 85.7248 2.64466 4.22918 0
M  V30 897 H 84.8788 1.06134 5.97345 0
M  V30 898 H 83.6178 0.471557 4.85415 0
M  V30 899 H 82.6228 2.77392 4.74693 0
M  V30 900 H 83.8478 3.36158 5.90063 0
M  V30 901 H 81.7938 1.18632 6.45184 0
M  V30 902 H 81.7108 2.82409 7.01271 0
M  V30 903 H 82.9788 1.78347 7.58823 0
M  V30 904 N 87.2079 -1.17134 1.05439 0
M  V30 905 C 88.1709 -2.19439 0.661764 0
M  V30 906 C 89.1709 -1.58199 -0.288042 0
M  V30 907 O 90.3609 -1.74053 -0.0715803 0
M  V30 908 C 87.4929 -3.40889 -0.0276209 0
M  V30 909 H 88.6859 -2.55688 1.56728 0
M  V30 910 H 86.2389 -1.31259 0.848567 0
M  V30 911 H 86.9739 -3.10187 -0.94629 0
M  V30 912 H 86.7589 -3.86586 0.655238 0
M  V30 913 H 88.2489 -4.16603 -0.288342 0
M  V30 914 N 88.686 -0.835752 -1.33615 0
M  V30 915 C 89.616 -0.281739 -2.31794 0
M  V30 916 C 90.597 0.608833 -1.58831 0
M  V30 917 O 91.782 0.533035 -1.86741 0
M  V30 918 C 88.912 0.546612 -3.42971 0
M  V30 919 C 87.866 -0.247904 -4.27281 0
M  V30 920 C 87.192 0.704001 -5.30045 0
M  V30 921 C 88.492 -1.46324 -5.01385 0
M  V30 922 H 90.186 -1.10206 -2.78379 0
M  V30 923 H 87.732 -0.531388 -1.33837 0
M  V30 924 H 89.685 0.944467 -4.1068 0
M  V30 925 H 88.409 1.40011 -2.95067 0
M  V30 926 H 87.068 -0.627281 -3.61194 0
M  V30 927 H 86.716 1.55381 -4.78399 0
M  V30 928 H 86.416 0.176524 -5.87335 0
M  V30 929 H 87.94 1.09944 -6.0062 0
M  V30 930 H 89.354 -1.13871 -5.61877 0
M  V30 931 H 87.751 -1.92728 -5.6831 0
M  V30 932 H 88.821 -2.23467 -4.30338 0
M  V30 933 N 90.1641 1.46063 -0.591896 0
M  V30 934 C 91.4121 2.01938 -0.0808391 0
M  V30 935 C 91.7331 1.46475 1.28725 0
M  V30 936 O 91.0031 0.652944 1.84698 0
M  V30 937 H 89.5831 0.746516 -0.0268938 0
M  V30 938 H 92.2451 1.79055 -0.769752 0
M  V30 939 H 91.3411 3.12094 -0.0187578 0
M  V30 940 N 91.6422 0.330177 1.54103 0
M  V30 941 C 92.8822 -0.270916 2.02597 0
M  V30 942 C 93.2462 -1.48826 1.21304 0
M  V30 943 O 94.4472 -2.16266 1.59633 0
M  V30 944 C 92.7182 -0.590328 3.52491 0
M  V30 945 S 94.2772 -1.17014 4.2291 0
M  V30 946 H 91.0952 -0.0815379 0.706309 0
M  V30 947 H 93.6972 0.464835 1.89893 0
M  V30 948 H 92.4012 0.303691 4.09275 0
M  V30 949 H 91.9322 -1.3561 3.69288 0
M  V30 950 H 93.9472 -2.45662 4.3112 0
M  V30 951 N 93.1203 -1.57491 0.0584922 0
M  V30 952 C 94.0533 -2.07533 -0.948969 0
M  V30 953 C 95.0313 -0.977444 -1.29942 0
M  V30 954 O 96.2153 -1.2499 -1.41102 0
M  V30 955 C 93.3423 -2.52192 -2.2609 0
M  V30 956 C 92.3883 -3.73287 -2.06298 0
M  V30 957 S 93.2213 -5.18603 -1.33459 0
M  V30 958 C 94.3773 -5.66583 -2.65959 0
M  V30 959 H 94.6103 -2.92662 -0.523118 0
M  V30 960 H 92.1433 -1.53631 -0.153954 0
M  V30 961 H 94.1013 -2.78585 -3.01498 0
M  V30 962 H 92.7623 -1.67356 -2.65802 0
M  V30 963 H 91.9553 -4.0248 -3.03357 0
M  V30 964 H 91.5573 -3.47199 -1.39029 0
M  V30 965 H 93.8493 -5.72616 -3.62101 0
M  V30 966 H 94.7923 -6.65684 -2.41393 0
M  V30 967 H 95.2003 -4.94342 -2.72554 0
M  V30 968 N 94.5984 0.214957 -1.56127 0
M  V30 969 C 95.5084 1.28727 -1.96129 0
M  V30 970 C 96.5244 1.50916 -0.866044 0
M  V30 971 O 97.7004 1.63918 -1.17016 0
M  V30 972 C 94.7654 2.61569 -2.27558 0
M  V30 973 C 93.8264 2.47625 -3.50685 0
M  V30 974 C 93.0594 3.74132 -3.80606 0
M  V30 975 O 93.2824 4.77438 -3.12104 0
M  V30 976 O 92.2164 3.70849 -4.74083 0
M  V30 977 H 96.0424 0.977855 -2.87527 0
M  V30 978 H 93.6274 0.418358 -1.43423 0
M  V30 979 H 95.5094 3.40012 -2.48938 0
M  V30 980 H 94.1844 2.92178 -1.39332 0
M  V30 981 H 93.0914 1.67361 -3.34576 0
M  V30 982 H 94.4244 2.21954 -4.39315 0
M  V30 983 N 96.0765 1.50051 0.48192 0
M  V30 984 C 97.0265 1.64512 1.5786 0
M  V30 985 C 98.0105 0.500073 1.52932 0
M  V30 986 O 99.2025 0.753964 1.60139 0
M  V30 987 C 96.3315 1.73263 2.9637 0
M  V30 988 C 95.4175 2.93409 3.06222 0
M  V30 989 N 95.8085 4.17236 2.85915 0
M  V30 990 C 94.1065 2.91742 3.37346 0
M  V30 991 C 94.8075 4.981 3.00451 0
M  V30 992 N 93.7835 4.3184 3.30174 0
M  V30 993 H 97.5855 2.57955 1.40842 0
M  V30 994 H 95.0995 1.47086 0.688439 0
M  V30 995 H 97.0965 1.81724 3.75209 0
M  V30 996 H 95.7565 0.809711 3.14442 0
M  V30 997 H 96.7675 4.46909 2.6171 0
M  V30 998 H 93.4445 2.08907 3.61475 0
M  V30 999 H 94.8345 6.06532 2.89082 0
M  V30 1000 N 97.5546 -0.734337 1.39446 0
M  V30 1001 C 98.9706 -1.03997 1.21065 0
M  V30 1002 C 99.1706 -2.01369 0.0727019 0
M  V30 1003 O 98.2266 -2.45856 -0.575426 0
M  V30 1004 C 99.5396 -1.60163 2.54496 0
M  V30 1005 C 101.088 -1.7224 2.61347 0
M  V30 1006 C 101.563 -2.31814 3.95002 0
M  V30 1007 N 103.054 -2.39223 3.96644 0
M  V30 1008 C 103.789 -2.86258 4.96834 0
M  V30 1009 N 103.285 -3.33184 6.07421 0
M  V30 1010 N 105.078 -2.85473 4.84213 0
M  V30 1011 H 97.2286 -0.0885624 2.12215 0
M  V30 1012 H 99.4916 -0.10191 0.942506 0
M  V30 1013 H 99.1976 -0.960811 3.38321 0
M  V30 1014 H 99.0716 -2.5896 2.74262 0
M  V30 1015 H 101.459 -2.35443 1.77906 0
M  V30 1016 H 101.54 -0.720939 2.4543 0
M  V30 1017 H 101.184 -1.69238 4.78875 0
M  V30 1018 H 101.114 -3.32638 4.08239 0
M  V30 1019 H 103.605 -2.06057 3.16779 0
M  V30 1020 H 103.918 -3.67586 6.7978 0
M  V30 1021 H 102.263 -3.31191 6.11013 0
M  V30 1022 H 105.454 -2.48136 3.96921 0
M  V30 1023 H 105.627 -3.21814 5.62441 0
M  V30 1024 N 99.0327 -1.24633 -0.964593 0
M  V30 1025 C 100.281 -1.08573 -1.70459 0
M  V30 1026 C 100.602 0.375655 -1.91347 0
M  V30 1027 O 99.8717 1.26779 -1.49345 0
M  V30 1028 H 98.4517 -0.398784 -0.631649 0
M  V30 1029 H 101.114 -1.56601 -1.16026 0
M  V30 1030 H 100.21 -1.58623 -2.68785 0
M  V30 1031 N 100.511 1.16574 -1.06058 0
M  V30 1032 C 101.759 1.86677 -0.77434 0
M  V30 1033 C 102.08 1.81959 0.701147 0
M  V30 1034 O 101.35 1.2515 1.50713 0
M  V30 1035 H 99.9298 0.691134 -0.283449 0
M  V30 1036 H 102.592 1.41378 -1.34158 0
M  V30 1037 H 101.688 2.92181 -1.09711 0
M  V30 1038 N 101.989 0.842826 1.3317 0
M  V30 1039 C 103.229 0.446574 1.99462 0
M  V30 1040 C 103.593 -0.976818 1.65295 0
M  V30 1041 O 104.794 -1.477 2.24584 0
M  V30 1042 C 103.065 0.665353 3.51152 0
M  V30 1043 S 104.624 0.364911 4.3728 0
M  V30 1044 H 101.442 0.167803 0.690915 0
M  V30 1045 H 104.044 1.09297 1.62094 0
M  V30 1046 H 102.748 1.7006 3.73507 0
M  V30 1047 H 102.279 0.00494568 3.934 0
M  V30 1048 H 104.294 -0.813761 4.89482 0
M  V30 1049 N 103.467 -1.45747 0.599634 0
M  V30 1050 C 104.692 -2.07178 0.0960198 0
M  V30 1051 C 105.117 -1.44268 -1.207 0
M  V30 1052 O 104.475 -0.532503 -1.73303 0
M  V30 1053 C 104.523 -3.60579 -0.0385348 0
M  V30 1054 O 103.627 -3.97713 -1.0908 0
M  V30 1055 H 102.968 -0.660251 0.0704593 0
M  V30 1056 H 105.498 -1.87124 0.827385 0
M  V30 1057 H 105.508 -4.07298 -0.239304 0
M  V30 1058 H 104.183 -4.05756 0.912947 0
M  V30 1059 H 102.76 -3.62678 -0.867135 0
M  V30 1060 N 104.945 -0.338344 -1.53925 0
M  V30 1061 C 105.908 0.508299 -2.23493 0
M  V30 1062 C 106.908 1.03175 -1.23335 0
M  V30 1063 O 108.098 0.921826 -1.47811 0
M  V30 1064 C 105.23 1.70754 -2.95052 0
M  V30 1065 H 106.423 -0.100058 -2.99733 0
M  V30 1066 H 103.976 -0.0896198 -1.56043 0
M  V30 1067 H 104.711 2.35474 -2.22986 0
M  V30 1068 H 104.496 1.33946 -3.68512 0
M  V30 1069 H 105.986 2.30818 -3.48013 0
M  V30 1070 N 106.423 1.57458 -0.0668435 0
M  V30 1071 C 107.7 1.8469 0.644132 0
M  V30 1072 C 108.08 0.958343 1.88093 0
M  V30 1073 O 107.428 0.0233579 2.28488 0
M  V30 1074 C 107.638 3.34767 0.986509 0
M  V30 1075 C 108.986 4.02159 1.36212 0
M  V30 1076 O 110.01 3.39484 1.07839 0
M  V30 1077 O 108.869 5.12694 1.89227 0
M  V30 1078 H 105.963 0.762816 0.319437 0
M  V30 1079 H 108.509 1.6942 -0.0973986 0
M  V30 1080 H 107.281 3.91151 0.107883 0
M  V30 1081 H 106.904 3.55281 1.78497 0
M  V30 1082 N 107.901 -0.206675 1.56239 0
M  V30 1083 C 108.849 -1.27571 1.94495 0
M  V30 1084 C 109.843 -1.47737 0.828862 0
M  V30 1085 O 111.049 -1.48735 1.0138 0
M  V30 1086 H 107.424 -0.428029 0.6183 0
M  V30 1087 H 109.395 -0.925961 2.8367 0
M  V30 1088 C 108.144 -2.61568 2.29079 0
M  V30 1089 H 107.467 -2.46863 3.14482 0
M  V30 1090 H 108.907 -3.35144 2.5972 0
M  V30 1091 C 107.366 -3.17695 1.12123 0
M  V30 1092 O 107.896 -3.99801 0.390153 0
M  V30 1093 N 106.102 -2.76276 0.901097 0
M  V30 1094 H 105.649 -2.09613 1.49733 0
M  V30 1095 H 105.607 -3.1417 0.120319 0
M  V30 1096 N 109.379 -1.50304 -0.473955 0
M  V30 1097 C 110.656 -1.51667 -1.23518 0
M  V30 1098 C 111.036 -0.259701 -2.09496 0
M  V30 1099 O 110.384 0.756986 -2.15597 0
M  V30 1100 C 110.594 -2.81082 -2.06868 0
M  V30 1101 C 111.942 -3.31631 -2.65153 0
M  V30 1102 O 112.966 -2.82384 -2.17113 0
M  V30 1103 O 111.825 -4.17471 -3.52675 0
M  V30 1104 H 108.919 -0.60822 -0.560355 0
M  V30 1105 H 111.465 -1.62592 -0.486011 0
M  V30 1106 H 110.237 -3.64041 -1.4349 0
M  V30 1107 H 109.86 -2.73146 -2.88924 0
M  V30 1108 N 110.857 0.726932 -1.39834 0
M  V30 1109 C 112.082 1.52121 -1.40976 0
M  V30 1110 C 112.507 1.88098 -0.00826029 0
M  V30 1111 O 111.865 1.52479 0.980807 0
M  V30 1112 C 111.913 2.78021 -2.29644 0
M  V30 1113 O 111.017 3.74272 -1.73188 0
M  V30 1114 H 110.358 0.45908 -0.479731 0
M  V30 1115 H 112.888 0.896207 -1.83927 0
M  V30 1116 H 112.898 3.26671 -2.44438 0
M  V30 1117 H 111.573 2.51169 -3.31492 0
M  V30 1118 H 110.15 3.33073 -1.6768 0
M  V30 1119 N 112.336 1.25143 0.95797 0
M  V30 1120 C 113.584 1.09476 1.69881 0
M  V30 1121 C 113.905 -0.365502 1.91544 0
M  V30 1122 O 113.175 -1.25985 1.50015 0
M  V30 1123 H 111.755 0.402128 0.629525 0
M  V30 1124 H 114.417 1.57214 1.15194 0
M  V30 1125 H 113.513 1.60046 2.6794 0
M  V30 1126 N 113.814 -1.1601 1.06675 0
M  V30 1127 C 115.091 -1.82679 0.699114 0
M  V30 1128 C 115.471 -1.94559 -0.819137 0
M  V30 1129 O 114.819 -1.49169 -1.73092 0
M  V30 1130 C 115.029 -3.19445 1.40555 0
M  V30 1131 C 116.377 -3.95171 1.55323 0
M  V30 1132 O 117.401 -3.28976 1.36577 0
M  V30 1133 O 116.26 -5.13833 1.86112 0
M  V30 1134 H 113.354 -0.788954 0.247951 0
M  V30 1135 H 115.9 -1.23179 1.16726 0
M  V30 1136 H 114.672 -3.05856 2.44065 0
M  V30 1137 H 114.295 -3.86625 0.927733 0
M  V30 1138 N 115.292 -0.849877 -1.32721 0
M  V30 1139 C 116.54 -0.450032 -1.97026 0
M  V30 1140 C 116.861 0.996604 -1.67609 0
M  V30 1141 O 116.131 1.6958 -0.980786 0
M  V30 1142 H 114.711 -0.163426 -0.728904 0
M  V30 1143 H 117.373 -1.08526 -1.6189 0
M  V30 1144 H 116.469 -0.591146 -3.0645 0
M  V30 1145 N 116.77 1.45427 -0.607355 0
M  V30 1146 C 117.733 2.28974 0.101693 0
M  V30 1147 C 118.733 1.39754 0.795329 0
M  V30 1148 O 119.923 1.61878 0.643527 0
M  V30 1149 C 117.055 3.20768 1.15414 0
M  V30 1150 H 118.248 2.93147 -0.632844 0
M  V30 1151 H 115.801 1.51945 -0.366391 0
M  V30 1152 H 116.536 2.61395 1.91945 0
M  V30 1153 H 116.321 3.86489 0.66098 0
M  V30 1154 H 117.811 3.83589 1.65073 0
M  V30 1155 N 118.248 0.346503 1.53744 0
M  V30 1156 C 119.496 -0.248612 2.00565 0
M  V30 1157 C 119.817 -1.5083 1.23593 0
M  V30 1158 O 119.087 -1.92858 0.343912 0
M  V30 1159 H 117.667 -0.0948564 0.740953 0
M  V30 1160 H 120.329 0.468341 1.89189 0
M  V30 1161 H 119.425 -0.488994 3.08245 0
M  V30 1162 N 119.726 -1.57421 0.075193 0
M  V30 1163 C 120.972 -1.93905 -0.594025 0
M  V30 1164 C 121.305 -0.955701 -1.69056 0
M  V30 1165 O 120.58 0.0145373 -1.94495 0
M  V30 1166 C 120.863 -3.40638 -1.1678 0
M  V30 1167 C 120.716 -4.49733 -0.0776792 0
M  V30 1168 C 122.035 -3.88259 -2.07228 0
M  V30 1169 H 119.154 -0.705105 -0.214466 0
M  V30 1170 H 121.796 -1.8947 0.141854 0
M  V30 1171 H 119.946 -3.44549 -1.79494 0
M  V30 1172 H 121.618 -4.57942 0.555573 0
M  V30 1173 H 119.861 -4.29751 0.591286 0
M  V30 1174 H 120.532 -5.49549 -0.519603 0
M  V30 1175 H 123.008 -3.86376 -1.54445 0
M  V30 1176 H 121.884 -4.91533 -2.44308 0
M  V30 1177 H 122.145 -3.26396 -2.98191 0
M  V30 1178 N 121.204 0.198386 -1.56346 0
M  V30 1179 C 122.137 1.27381 -1.89339 0
M  V30 1180 C 123.115 1.44106 -0.753134 0
M  V30 1181 O 124.299 1.59549 -1.00381 0
M  V30 1182 C 121.426 2.6409 -2.12071 0
M  V30 1183 C 120.472 2.64253 -3.34772 0
M  V30 1184 S 121.305 2.16013 -4.89999 0
M  V30 1185 C 122.461 3.54553 -5.15794 0
M  V30 1186 H 122.694 0.992058 -2.8026 0
M  V30 1187 H 120.227 0.401726 -1.49082 0
M  V30 1188 H 122.185 3.42786 -2.2585 0
M  V30 1189 H 120.846 2.89478 -1.21906 0
M  V30 1190 H 120.039 3.64768 -3.47794 0
M  V30 1191 H 119.641 1.93637 -3.1997 0
M  V30 1192 H 121.933 4.50396 -5.06112 0
M  V30 1193 H 122.876 3.46428 -6.1757 0
M  V30 1194 H 123.284 3.49313 -4.43442 0
M  V30 1195 N 122.682 1.50554 0.465978 0
M  V30 1196 C 123.91 1.65563 1.24083 0
M  V30 1197 C 124.325 0.341051 1.85694 0
M  V30 1198 O 123.682 -0.677543 1.69457 0
M  V30 1199 C 123.733 2.75051 2.34583 0
M  V30 1200 O 123.454 4.01413 1.75497 0
M  V30 1201 C 124.955 3.01078 3.25372 0
M  V30 1202 H 122.175 0.55638 0.375077 0
M  V30 1203 H 124.719 1.96807 0.555624 0
M  V30 1204 H 122.874 2.46486 2.9887 0
M  V30 1205 H 123.288 4.62002 2.48303 0
M  V30 1206 H 124.762 3.81339 3.99105 0
M  V30 1207 H 125.239 2.12349 3.84453 0
M  V30 1208 H 125.845 3.31194 2.66816 0
M  V30 1209 N 124.16 -0.719506 1.40217 0
M  V30 1210 C 125.123 -1.8153 1.39927 0
M  V30 1211 C 126.123 -1.58095 0.293723 0
M  V30 1212 O 127.313 -1.65209 0.552429 0
M  V30 1213 C 124.445 -3.19561 1.18716 0
M  V30 1214 H 125.638 -1.83186 2.37451 0
M  V30 1215 H 123.191 -0.924746 1.26008 0
M  V30 1216 H 123.926 -3.23557 0.219366 0
M  V30 1217 H 123.711 -3.3797 1.98793 0
M  V30 1218 H 125.201 -3.99598 1.21291 0
M  V30 1219 N 125.638 -1.25649 -0.95132 0
M  V30 1220 C 126.887 -1.09988 -1.69073 0
M  V30 1221 C 127.2 0.358355 -1.92289 0
M  V30 1222 O 128.406 0.635466 -2.63958 0
M  V30 1223 C 126.862 -1.92012 -3.044 0
M  V30 1224 C 126.47 -3.42347 -2.88968 0
M  V30 1225 C 128.214 -1.8493 -3.82101 0
M  V30 1226 C 126.121 -4.16655 -4.19705 0
M  V30 1227 H 125.051 -0.407993 -0.63408 0
M  V30 1228 H 127.702 -1.49873 -1.05879 0
M  V30 1229 H 126.084 -1.44952 -3.68517 0
M  V30 1230 H 127.258 -3.97104 -2.33762 0
M  V30 1231 H 125.573 -3.50557 -2.24719 0
M  V30 1232 H 128.17 -2.37739 -4.78941 0
M  V30 1233 H 128.513 -0.817883 -4.08187 0
M  V30 1234 H 129.046 -2.29758 -3.2474 0
M  V30 1235 H 125.785 -5.20224 -3.98807 0
M  V30 1236 H 125.305 -3.66681 -4.74663 0
M  V30 1237 H 126.984 -4.24551 -4.88227 0
M  V30 1238 N 127.117 1.15442 -1.07289 0
M  V30 1239 C 128.528 1.67803 -0.818475 0
M  V30 1240 C 128.879 1.8489 0.656507 0
M  V30 1241 O 128.004 1.55176 1.50829 0
M  V30 1242 C 128.599 3.04805 -1.47917 0
M  V30 1243 C 127.158 3.54245 -1.27229 0
M  V30 1244 C 126.305 2.29986 -1.54925 0
M  V30 1245 H 129.256 0.996646 -1.23502 0
M  V30 1246 H 129.277 3.69702 -0.90005 0
M  V30 1247 H 128.789 2.92336 -2.55267 0
M  V30 1248 H 126.89 3.71956 -0.21899 0
M  V30 1249 H 127.003 4.35723 -1.99203 0
M  V30 1250 H 125.367 2.35496 -0.970242 0
M  V30 1251 H 126.15 2.20105 -2.63455 0
M  V30 1252 N 128.595 0.856903 1.32268 0
M  V30 1253 C 130.011 0.547061 1.49931 0
M  V30 1254 C 130.211 -0.921781 1.7918 0
M  V30 1255 O 129.267 -1.70469 1.8627 0
M  V30 1256 C 130.58 1.43599 2.64196 0
M  V30 1257 C 132.128 1.43665 2.78081 0
M  V30 1258 C 132.603 2.31085 3.95428 0
M  V30 1259 N 134.094 2.28893 4.02694 0
M  V30 1260 C 134.829 2.93262 4.92732 0
M  V30 1261 N 134.325 3.66751 5.87763 0
M  V30 1262 N 136.118 2.82638 4.85873 0
M  V30 1263 H 128.269 1.8075 1.11549 0
M  V30 1264 H 130.532 0.772144 0.549997 0
M  V30 1265 H 130.238 2.48058 2.49319 0
M  V30 1266 H 130.112 1.12502 3.60032 0
M  V30 1267 H 132.499 0.399701 2.92381 0
M  V30 1268 H 132.58 1.7878 1.82952 0
M  V30 1269 H 132.224 3.34849 3.81888 0
M  V30 1270 H 132.154 1.93302 4.89839 0
M  V30 1271 H 134.645 1.75466 3.34694 0
M  V30 1272 H 134.958 4.13027 6.53168 0
M  V30 1273 H 133.303 3.70859 5.87783 0
M  V30 1274 H 136.494 2.24774 4.10602 0
M  V30 1275 H 136.667 3.33084 5.55841 0
M  V30 1276 N 130.073 -1.45103 0.615059 0
M  V30 1277 C 130.983 -2.34382 -0.101034 0
M  V30 1278 C 131.999 -1.51681 -0.852585 0
M  V30 1279 O 133.175 -1.8446 -0.808484 0
M  V30 1280 C 130.24 -3.29417 -1.08099 0
M  V30 1281 C 129.301 -4.28025 -0.330577 0
M  V30 1282 C 128.534 -5.1852 -1.26385 0
M  V30 1283 O 128.757 -5.12598 -2.50198 0
M  V30 1284 O 127.691 -5.97122 -0.756866 0
M  V30 1285 H 131.517 -2.97033 0.632855 0
M  V30 1286 H 129.102 -1.4461 0.375293 0
M  V30 1287 H 130.984 -3.87958 -1.6452 0
M  V30 1288 H 129.659 -2.69321 -1.79577 0
M  V30 1289 H 128.566 -3.73078 0.276283 0
M  V30 1290 H 129.899 -4.90997 0.343866 0
M  V30 1291 N 131.551 -0.354651 -1.53558 0
M  V30 1292 C 132.481 0.489091 -2.2832 0
M  V30 1293 C 133.462 1.09324 -1.30316 0
M  V30 1294 O 134.647 1.11255 -1.59173 0
M  V30 1295 C 131.777 1.63456 -3.0643 0
M  V30 1296 C 130.731 1.1582 -4.12031 0
M  V30 1297 C 130.057 2.39305 -4.7816 0
M  V30 1298 C 131.357 0.250731 -5.21698 0
M  V30 1299 H 133.051 -0.134614 -2.99097 0
M  V30 1300 H 130.597 -0.0661826 -1.43848 0
M  V30 1301 H 132.55 2.23136 -3.57475 0
M  V30 1302 H 131.274 2.28533 -2.33325 0
M  V30 1303 H 129.933 0.584146 -3.61916 0
M  V30 1304 H 129.581 3.02814 -4.01637 0
M  V30 1305 H 129.281 2.08109 -5.49513 0
M  V30 1306 H 130.805 2.99691 -5.31994 0
M  V30 1307 H 132.219 0.754695 -5.68311 0
M  V30 1308 H 130.616 0.0301468 -6.00092 0
M  V30 1309 H 131.686 -0.710125 -4.79672 0
M  V30 1310 N 133.029 1.57378 -0.0835403 0
M  V30 1311 C 133.959 2.1641 0.87686 0
M  V30 1312 C 134.94 1.09429 1.30228 0
M  V30 1313 O 136.125 1.37516 1.37124 0
M  V30 1314 C 133.255 2.73517 2.14022 0
M  V30 1315 C 132.209 3.85769 1.85381 0
M  V30 1316 C 131.535 4.29529 3.18448 0
M  V30 1317 C 132.835 5.09486 1.14984 0
M  V30 1318 H 134.529 2.96914 0.385059 0
M  V30 1319 H 132.075 1.42823 0.18377 0
M  V30 1320 H 134.028 3.13463 2.81636 0
M  V30 1321 H 132.752 1.90252 2.65465 0
M  V30 1322 H 131.411 3.46345 1.20169 0
M  V30 1323 H 131.059 3.43169 3.67755 0
M  V30 1324 H 130.759 5.05204 3.00071 0
M  V30 1325 H 132.283 4.72099 3.8724 0
M  V30 1326 H 133.697 5.46674 1.72687 0
M  V30 1327 H 132.094 5.90515 1.06826 0
M  V30 1328 H 133.164 4.84724 0.130749 0
M  V30 1329 N 134.507 -0.190092 1.56449 0
M  V30 1330 C 135.47 -1.21925 1.9408 0
M  V30 1331 C 136.47 -1.38176 0.822431 0
M  V30 1332 O 137.66 -1.35903 1.08977 0
M  V30 1333 C 134.792 -2.58773 2.21922 0
M  V30 1334 H 135.985 -0.897464 2.86157 0
M  V30 1335 H 133.538 -0.43181 1.50217 0
M  V30 1336 H 134.273 -2.95998 1.32499 0
M  V30 1337 H 134.058 -2.48348 3.03424 0
M  V30 1338 H 135.548 -3.32978 2.52022 0
M  V30 1339 N 135.985 -1.50799 -0.457987 0
M  V30 1340 C 136.917 -1.66786 -1.57211 0
M  V30 1341 C 137.93 -0.548962 -1.53265 0
M  V30 1342 O 139.119 -0.8226 -1.58416 0
M  V30 1343 C 136.219 -1.64834 -2.96113 0
M  V30 1344 C 135.392 -2.92971 -3.24787 0
M  V30 1345 C 134.451 -2.83485 -4.43309 0
M  V30 1346 O 133.477 -3.5744 -4.42973 0
M  V30 1347 N 134.679 -1.97929 -5.45714 0
M  V30 1348 H 137.444 -2.62889 -1.43909 0
M  V30 1349 H 135.005 -1.48427 -0.646617 0
M  V30 1350 H 136.997 -1.56084 -3.7339 0
M  V30 1351 H 135.567 -0.764118 -3.03117 0
M  V30 1352 H 134.787 -3.15749 -2.36 0
M  V30 1353 H 136.075 -3.77834 -3.40762 0
M  V30 1354 H 135.473 -1.37182 -5.48815 0
M  V30 1355 H 134.03 -1.95073 -6.21924 0
M  V30 1356 N 137.463 0.71206 -1.40597 0
M  V30 1357 C 138.709 1.47292 -1.40274 0
M  V30 1358 C 139.064 1.92399 -0.00576812 0
M  V30 1359 O 138.357 1.65507 0.965297 0
M  V30 1360 C 138.551 2.71039 -2.32965 0
M  V30 1361 C 138.38 2.38035 -3.81536 0
M  V30 1362 C 137.15 2.29203 -4.50327 0
M  V30 1363 C 139.348 2.02076 -4.72938 0
M  V30 1364 N 137.33 1.88911 -5.84111 0
M  V30 1365 C 138.701 1.72412 -5.95545 0
M  V30 1366 C 140.756 1.88742 -4.60739 0
M  V30 1367 C 139.459 1.30756 -7.07316 0
M  V30 1368 C 141.485 1.4849 -5.72455 0
M  V30 1369 C 140.847 1.19726 -6.94151 0
M  V30 1370 H 136.946 0.536919 -0.568544 0
M  V30 1371 H 139.53 0.825424 -1.76337 0
M  V30 1372 H 137.701 3.33533 -1.99023 0
M  V30 1373 H 139.433 3.37404 -2.23474 0
M  V30 1374 H 136.188 2.47059 -4.04053 0
M  V30 1375 H 136.612 1.71293 -6.54972 0
M  V30 1376 H 141.254 2.0964 -3.67166 0
M  V30 1377 H 138.972 1.08601 -8.00769 0
M  V30 1378 H 142.558 1.38747 -5.65014 0
M  V30 1379 H 141.438 0.890482 -7.79128 0
M  V30 1380 N 138.941 1.26152 0.944643 0
M  V30 1381 C 140.188 1.11492 1.69044 0
M  V30 1382 C 140.516 -0.342366 1.91463 0
M  V30 1383 O 139.771 -1.26812 1.49054 0
M  V30 1384 C 140.07 1.82541 3.07268 0
M  V30 1385 C 139.736 3.32445 3.04616 0
M  V30 1386 C 138.398 3.73337 3.036 0
M  V30 1387 C 140.75 4.28171 2.97185 0
M  V30 1388 C 138.078 5.08348 2.92915 0
M  V30 1389 C 140.43 5.63218 2.88041 0
M  V30 1390 C 139.094 6.03426 2.85366 0
M  V30 1391 H 138.364 0.407977 0.618576 0
M  V30 1392 H 141.011 1.56551 1.10291 0
M  V30 1393 H 139.316 1.29941 3.69625 0
M  V30 1394 H 141.013 1.68642 3.63815 0
M  V30 1395 H 137.603 2.99915 3.06185 0
M  V30 1396 H 141.787 3.97563 2.97081 0
M  V30 1397 H 137.043 5.38667 2.89219 0
M  V30 1398 H 141.217 6.37078 2.81254 0
M  V30 1399 H 138.844 7.07999 2.76842 0
M  V30 1400 N 140.419 -1.14872 1.07899 0
M  V30 1401 C 141.367 -2.21857 0.698727 0
M  V30 1402 C 142.361 -1.66845 -0.293086 0
M  V30 1403 O 143.567 -1.79321 -0.156204 0
M  V30 1404 H 139.942 -0.722691 0.207899 0
M  V30 1405 H 141.913 -2.51205 1.61054 0
M  V30 1406 C 140.662 -3.47498 0.11858 0
M  V30 1407 H 139.985 -3.90154 0.872914 0
M  V30 1408 H 141.425 -4.23858 -0.109759 0
M  V30 1409 C 139.884 -3.16947 -1.1422 0
M  V30 1410 O 140.414 -3.3426 -2.22785 0
M  V30 1411 N 138.62 -2.70946 -1.05055 0
M  V30 1412 H 138.167 -2.57058 -0.167038 0
M  V30 1413 H 138.125 -2.50879 -1.89491 0
M  V30 1414 N 141.898 -0.863906 -1.31812 0
M  V30 1415 C 143.126 -0.486111 -2.01108 0
M  V30 1416 C 143.541 0.919755 -1.64882 0
M  V30 1417 O 142.898 1.60162 -0.874893 0
M  V30 1418 C 142.949 -0.626435 -3.56031 0
M  V30 1419 O 142.67 -1.97693 -3.90959 0
M  V30 1420 C 144.171 -0.248857 -4.42601 0
M  V30 1421 H 141.391 -0.190052 -0.643523 0
M  V30 1422 H 143.935 -1.1634 -1.68182 0
M  V30 1423 H 142.09 0.00322717 -3.874 0
M  V30 1424 H 142.504 -1.98034 -4.85678 0
M  V30 1425 H 143.978 -0.398016 -5.50563 0
M  V30 1426 H 144.455 0.811489 -4.31638 0
M  V30 1427 H 145.061 -0.853971 -4.16638 0
M  V30 1428 N 143.376 1.44774 -0.622745 0
M  V30 1429 C 144.792 1.56986 -0.287652 0
M  V30 1430 C 144.992 1.61167 1.20944 0
M  V30 1431 O 144.048 1.55015 1.99315 0
M  V30 1432 C 145.361 2.84551 -0.972188 0
M  V30 1433 C 146.909 2.9825 -0.949536 0
M  V30 1434 C 147.384 4.28605 -1.61437 0
M  V30 1435 N 148.875 4.35399 -1.58057 0
M  V30 1436 C 149.61 5.34964 -2.064 0
M  V30 1437 N 149.106 6.40981 -2.62897 0
M  V30 1438 N 150.899 5.26419 -1.97078 0
M  V30 1439 H 143.05 1.40304 -1.59463 0
M  V30 1440 H 145.313 0.671794 -0.668878 0
M  V30 1441 H 145.019 2.87417 -2.02693 0
M  V30 1442 H 144.893 3.73807 -0.504771 0
M  V30 1443 H 147.28 2.94941 0.0967067 0
M  V30 1444 H 147.361 2.10364 -1.45536 0
M  V30 1445 H 147.005 4.32672 -2.66002 0
M  V30 1446 H 146.935 5.15334 -1.08344 0
M  V30 1447 H 149.426 3.59397 -1.16801 0
M  V30 1448 H 149.739 7.13225 -2.97539 0
M  V30 1449 H 148.084 6.4169 -2.66943 0
M  V30 1450 H 151.275 4.42504 -1.52669 0
M  V30 1451 H 151.448 6.03861 -2.35066 0
M  V30 1452 N 144.854 0.36279 1.53368 0
M  V30 1453 C 145.802 -0.500155 2.27159 0
M  V30 1454 C 146.796 -1.08575 1.3003 0
M  V30 1455 O 148.002 -1.02927 1.47668 0
M  V30 1456 H 144.377 -0.180009 0.730138 0
M  V30 1457 H 146.348 0.14401 2.98052 0
M  V30 1458 C 145.097 -1.62937 3.07159 0
M  V30 1459 H 144.42 -1.18806 3.8174 0
M  V30 1460 H 145.86 -2.20795 3.61975 0
M  V30 1461 C 144.319 -2.57007 2.17829 0
M  V30 1462 O 144.849 -3.59752 1.78721 0
M  V30 1463 N 143.055 -2.26131 1.82518 0
M  V30 1464 H 142.602 -1.42616 2.14519 0
M  V30 1465 H 142.56 -2.89327 1.23034 0
M  V30 1466 N 146.332 -1.57332 0.0918853 0
M  V30 1467 C 147.262 -2.16872 -0.865371 0
M  V30 1468 C 148.243 -1.10118 -1.29646 0
M  V30 1469 O 149.428 -1.38242 -1.36392 0
M  V30 1470 C 146.558 -2.74649 -2.12569 0
M  V30 1471 C 145.512 -3.86747 -1.83333 0
M  V30 1472 C 144.838 -4.31212 -3.16166 0
M  V30 1473 C 146.138 -5.10089 -1.1228 0
M  V30 1474 H 147.832 -2.97114 -0.369307 0
M  V30 1475 H 145.378 -1.42918 -0.176194 0
M  V30 1476 H 147.331 -3.14952 -2.7997 0
M  V30 1477 H 146.055 -1.91657 -2.64452 0
M  V30 1478 H 144.714 -3.46978 -1.18331 0
M  V30 1479 H 144.362 -3.45115 -3.6593 0
M  V30 1480 H 144.062 -5.06788 -2.97388 0
M  V30 1481 H 145.586 -4.74146 -3.84731 0
M  V30 1482 H 147 -5.47582 -1.69785 0
M  V30 1483 H 145.397 -5.91073 -1.03693 0
M  V30 1484 H 146.467 -4.84786 -0.105041 0
M  V30 1485 N 147.81 0.181792 -1.56548 0
M  V30 1486 C 149.221 0.745244 -1.71181 0
M  V30 1487 C 149.572 1.83262 -0.70068 0
M  V30 1488 O 148.697 2.15946 0.140154 0
M  V30 1489 C 149.292 1.35859 -3.10367 0
M  V30 1490 C 147.851 1.86898 -3.2672 0
M  V30 1491 C 146.998 0.743942 -2.67134 0
M  V30 1492 H 149.949 -0.0434661 -1.5864 0
M  V30 1493 H 149.97 2.22817 -3.08436 0
M  V30 1494 H 149.482 0.566948 -3.83937 0
M  V30 1495 H 147.583 2.68738 -2.5809 0
M  V30 1496 H 147.696 2.02162 -4.34359 0
M  V30 1497 H 146.06 1.16169 -2.26665 0
M  V30 1498 H 146.843 -0.035676 -3.43281 0
M  V30 1499 N 149.288 1.51039 0.449983 0
M  V30 1500 C 150.221 1.66105 1.56474 0
M  V30 1501 C 151.199 0.508776 1.54435 0
M  V30 1502 O 152.383 0.731005 1.73749 0
M  V30 1503 C 149.51 1.66304 2.9506 0
M  V30 1504 C 148.556 2.87346 3.15174 0
M  V30 1505 S 149.389 4.4835 2.92818 0
M  V30 1506 C 150.545 4.51274 4.33708 0
M  V30 1507 H 150.778 2.60397 1.43459 0
M  V30 1508 H 148.311 1.40565 0.638805 0
M  V30 1509 H 150.269 1.67103 3.74949 0
M  V30 1510 H 148.93 0.732108 3.05449 0
M  V30 1511 H 148.123 2.83849 4.16468 0
M  V30 1512 H 147.725 2.84223 2.43091 0
M  V30 1513 H 150.017 4.26136 5.26701 0
M  V30 1514 H 150.96 5.53017 4.42242 0
M  V30 1515 H 151.368 3.80738 4.16772 0
M  V30 1516 N 150.766 -0.704594 1.40972 0
M  V30 1517 C 152.177 -1.28418 1.3552 0
M  V30 1518 C 152.528 -1.96171 0.0339434 0
M  V30 1519 O 151.653 -1.98231 -0.867944 0
M  V30 1520 C 152.248 -2.33528 2.45459 0
M  V30 1521 C 150.807 -2.87085 2.43433 0
M  V30 1522 C 149.954 -1.61007 2.2577 0
M  V30 1523 H 152.905 -0.499963 1.50619 0
M  V30 1524 H 152.926 -3.14619 2.13998 0
M  V30 1525 H 152.438 -1.84187 3.41609 0
M  V30 1526 H 150.539 -3.40626 1.51013 0
M  V30 1527 H 150.652 -3.3813 3.39419 0
M  V30 1528 H 149.016 -1.86482 1.73483 0
M  V30 1529 H 149.799 -1.13675 3.23933 0
M  V30 1530 N 152.244 -1.26651 -0.937939 0
M  V30 1531 C 153.521 -1.0313 -1.66204 0
M  V30 1532 C 153.901 0.437256 -2.06522 0
M  V30 1533 O 153.249 1.41831 -1.79154 0
M  V30 1534 C 153.459 -1.98314 -2.87181 0
M  V30 1535 C 154.807 -2.27107 -3.58758 0
M  V30 1536 O 155.831 -1.96205 -2.97291 0
M  V30 1537 O 154.69 -2.79736 -4.69479 0
M  V30 1538 H 151.784 -0.392384 -0.727986 0
M  V30 1539 H 154.33 -1.37874 -0.989382 0
M  V30 1540 H 153.102 -2.97399 -2.54302 0
M  V30 1541 H 152.725 -1.64068 -3.6217 0
M  V30 1542 N 153.722 1.14298 -1.08507 0
M  V30 1543 C 154.97 1.84993 -0.813763 0
M  V30 1544 C 155.291 1.83405 0.662393 0
M  V30 1545 O 154.561 1.28319 1.48024 0
M  V30 1546 H 153.141 0.684966 -0.298045 0
M  V30 1547 H 155.803 1.385 -1.37126 0
M  V30 1548 H 154.899 2.89788 -1.15884 0
M  V30 1549 N 155.201 0.870884 1.31352 0
M  V30 1550 C 156.478 0.402907 1.91405 0
M  V30 1551 C 156.858 -1.11512 1.79244 0
M  V30 1552 O 156.206 -1.94411 1.2007 0
M  V30 1553 C 156.416 0.885301 3.37585 0
M  V30 1554 C 157.764 0.911971 4.14691 0
M  V30 1555 O 158.788 0.831016 3.46371 0
M  V30 1556 O 157.647 1.02927 5.3672 0
M  V30 1557 H 154.741 0.120698 0.818145 0
M  V30 1558 H 157.287 0.958857 1.40014 0
M  V30 1559 H 156.059 1.92889 3.40455 0
M  V30 1560 H 155.682 0.307714 3.96407 0
M  V30 1561 N 156.679 -1.44442 0.630414 0
M  V30 1562 C 158.095 -1.56832 0.295973 0
M  V30 1563 C 158.295 -1.61806 -1.20088 0
M  V30 1564 O 157.351 -1.5607 -1.9849 0
M  V30 1565 C 158.664 -2.84031 0.987264 0
M  V30 1566 C 160.212 -2.97742 0.96534 0
M  V30 1567 C 160.687 -4.27743 1.63708 0
M  V30 1568 N 162.178 -4.34555 1.60364 0
M  V30 1569 C 162.913 -5.33862 2.09234 0
M  V30 1570 N 162.409 -6.39578 2.66292 0
M  V30 1571 N 164.202 -5.25366 1.99867 0
M  V30 1572 H 156.353 -1.39457 1.60205 0
M  V30 1573 H 158.616 -0.668237 0.672431 0
M  V30 1574 H 158.322 -2.86338 2.04215 0
M  V30 1575 H 158.196 -3.73534 0.524588 0
M  V30 1576 H 160.583 -2.94989 -0.0810639 0
M  V30 1577 H 160.664 -2.09589 1.4665 0
M  V30 1578 H 160.308 -4.31255 2.68293 0
M  V30 1579 H 160.238 -5.14752 1.11076 0
M  V30 1580 H 162.729 -3.58772 1.18705 0
M  V30 1581 H 163.042 -7.11637 3.01317 0
M  V30 1582 H 161.387 -6.40265 2.70343 0
M  V30 1583 H 164.578 -4.41688 1.55013 0
M  V30 1584 H 164.751 -6.02606 2.38265 0
M  V30 1585 N 158.157 -0.370918 -1.53173 0
M  V30 1586 C 159.087 0.464847 -2.28826 0
M  V30 1587 C 160.068 1.07936 -1.31468 0
M  V30 1588 O 161.253 1.0956 -1.60344 0
M  V30 1589 C 158.383 1.60196 -3.08147 0
M  V30 1590 C 157.337 1.11443 -4.13237 0
M  V30 1591 C 156.663 2.3422 -4.80672 0
M  V30 1592 C 157.963 0.195384 -5.21934 0
M  V30 1593 H 159.657 -0.166329 -2.98938 0
M  V30 1594 H 157.203 -0.0814359 -1.4377 0
M  V30 1595 H 159.156 2.19332 -3.59822 0
M  V30 1596 H 157.88 2.26045 -2.35735 0
M  V30 1597 H 156.539 0.545727 -3.62515 0
M  V30 1598 H 156.187 2.98537 -4.04827 0
M  V30 1599 H 155.887 2.02269 -5.51689 0
M  V30 1600 H 157.411 2.94032 -5.35143 0
M  V30 1601 H 158.825 0.694375 -5.69079 0
M  V30 1602 H 157.222 -0.0335027 -6.00091 0
M  V30 1603 H 158.292 -0.760961 -4.78892 0
M  V30 1604 N 159.635 1.57281 -0.100228 0
M  V30 1605 C 160.883 1.94153 0.561157 0
M  V30 1606 C 161.204 0.983157 1.68401 0
M  V30 1607 O 160.474 0.0361132 1.95867 0
M  V30 1608 H 159.054 0.716791 0.210283 0
M  V30 1609 H 161.716 1.94202 -0.164765 0
M  V30 1610 H 160.812 2.96709 0.968008 0
M  V30 1611 N 161.113 -0.173488 1.56642 0
M  V30 1612 C 162.359 -0.891784 1.8214 0
M  V30 1613 C 162.692 -1.8199 0.677736 0
M  V30 1614 O 161.967 -1.91842 -0.320446 0
M  V30 1615 C 162.25 -1.68933 3.18015 0
M  V30 1616 C 162.103 -0.784487 4.42906 0
M  V30 1617 C 163.422 -2.65748 3.50808 0
M  V30 1618 H 160.541 -0.322761 0.662567 0
M  V30 1619 H 163.183 -0.158095 1.89341 0
M  V30 1620 H 161.333 -2.31482 3.12007 0
M  V30 1621 H 163.005 -0.172046 4.60979 0
M  V30 1622 H 161.248 -0.0924117 4.33702 0
M  V30 1623 H 161.919 -1.37799 5.34524 0
M  V30 1624 H 164.395 -2.13327 3.57255 0
M  V30 1625 H 163.271 -3.18619 4.4696 0
M  V30 1626 H 163.532 -3.45842 2.75401 0
M  V30 1627 N 162.591 -1.51276 -0.441967 0
M  V30 1628 C 163.839 -1.63392 -1.18943 0
M  V30 1629 C 164.16 -0.350159 -1.9183 0
M  V30 1630 O 163.43 0.633784 -1.85364 0
M  V30 1631 H 162.01 -0.602164 -0.442049 0
M  V30 1632 H 164.672 -1.88186 -0.507165 0
M  V30 1633 H 163.768 -2.45934 -1.92154 0
M  V30 1634 N 164.069 0.697108 -1.41344 0
M  V30 1635 C 165.002 1.82134 -1.37486 0
M  V30 1636 C 165.98 1.60784 -0.242351 0
M  V30 1637 O 167.164 1.83553 -0.429012 0
M  V30 1638 C 164.291 3.18788 -1.14421 0
M  V30 1639 C 163.337 3.58932 -2.3037 0
M  V30 1640 S 164.17 3.63916 -3.92843 0
M  V30 1641 C 165.326 5.03298 -3.72078 0
M  V30 1642 H 165.559 1.85129 -2.32625 0
M  V30 1643 H 163.092 0.865671 -1.2785 0
M  V30 1644 H 165.05 3.97677 -1.018 0
M  V30 1645 H 163.711 3.13404 -0.20905 0
M  V30 1646 H 162.904 4.58202 -2.09922 0
M  V30 1647 H 162.506 2.87347 -2.39391 0
M  V30 1648 H 164.798 5.90753 -3.31688 0
M  V30 1649 H 165.741 5.28788 -4.70945 0
M  V30 1650 H 166.149 4.74764 -3.05384 0
M  V30 1651 N 165.547 1.27147 0.931209 0
M  V30 1652 C 166.793 1.13446 1.68101 0
M  V30 1653 C 167.126 -0.319628 1.91552 0
M  V30 1654 O 166.401 -1.23407 1.50336 0
M  V30 1655 C 166.684 1.91482 3.0497 0
M  V30 1656 C 166.537 3.44855 2.88782 0
M  V30 1657 C 167.856 1.71651 4.05246 0
M  V30 1658 H 164.975 0.413498 0.610072 0
M  V30 1659 H 167.617 1.56261 1.08086 0
M  V30 1660 H 165.767 1.55095 3.56199 0
M  V30 1661 H 167.439 3.9105 2.44698 0
M  V30 1662 H 165.682 3.71373 2.24198 0
M  V30 1663 H 166.353 3.94694 3.85902 0
M  V30 1664 H 168.829 2.0337 3.63015 0
M  V30 1665 H 167.705 2.28651 4.99009 0
M  V30 1666 H 167.966 0.663555 4.37092 0
M  V30 1667 N 167.025 -1.13721 1.09112 0
M  V30 1668 C 168.272 -1.84924 0.825192 0
M  V30 1669 C 168.6 -1.83347 -0.649151 0
M  V30 1670 O 167.855 -1.26449 -1.49362 0
M  V30 1671 C 168.154 -3.32861 1.30146 0
M  V30 1672 C 167.82 -3.54621 2.78486 0
M  V30 1673 C 166.482 -3.60268 3.18999 0
M  V30 1674 C 168.834 -3.62855 3.74146 0
M  V30 1675 C 166.162 -3.71679 4.53951 0
M  V30 1676 C 168.514 -3.75793 5.08883 0
M  V30 1677 C 167.178 -3.79692 5.4899 0
M  V30 1678 H 166.448 -0.676684 0.301959 0
M  V30 1679 H 169.095 -1.3428 1.36533 0
M  V30 1680 H 167.4 -3.85835 0.681064 0
M  V30 1681 H 169.097 -3.86395 1.07236 0
M  V30 1682 H 165.687 -3.50879 2.46134 0
M  V30 1683 H 169.871 -3.57775 3.43963 0
M  V30 1684 H 165.127 -3.72963 4.84467 0
M  V30 1685 H 169.301 -3.81107 5.82864 0
M  V30 1686 H 166.928 -3.88287 6.53558 0
M  V30 1687 N 168.503 -0.877838 -1.30888 0
M  V30 1688 C 169.433 -0.35534 -2.3078 0
M  V30 1689 C 170.414 0.557994 -1.60687 0
M  V30 1690 O 171.599 0.473355 -1.88343 0
M  V30 1691 C 168.729 0.437221 -3.44537 0
M  V30 1692 C 167.683 -0.383715 -4.26276 0
M  V30 1693 C 167.009 0.535014 -5.32017 0
M  V30 1694 C 168.309 -1.62201 -4.96476 0
M  V30 1695 H 170.003 -1.19007 -2.74732 0
M  V30 1696 H 167.549 -0.573698 -1.32078 0
M  V30 1697 H 169.502 0.813334 -4.13477 0
M  V30 1698 H 168.226 1.30553 -2.99372 0
M  V30 1699 H 166.885 -0.741874 -3.59015 0
M  V30 1700 H 166.533 1.40083 -4.831 0
M  V30 1701 H 166.233 -0.0104211 -5.87599 0
M  V30 1702 H 167.757 0.907799 -6.03814 0
M  V30 1703 H 169.171 -1.31689 -5.5797 0
M  V30 1704 H 167.568 -2.10711 -5.61891 0
M  V30 1705 H 168.638 -2.37044 -4.23011 0
M  V30 1706 N 169.982 1.44106 -0.638065 0
M  V30 1707 C 171.393 1.85316 -0.226894 0
M  V30 1708 C 171.744 1.53399 1.22324 0
M  V30 1709 O 170.869 0.975463 1.93167 0
M  V30 1710 C 171.464 3.3637 -0.405013 0
M  V30 1711 C 170.023 3.76369 -0.0482902 0
M  V30 1712 C 169.17 2.67921 -0.715108 0
M  V30 1713 H 172.121 1.34474 -0.842764 0
M  V30 1714 H 172.142 3.7885 0.354 0
M  V30 1715 H 171.654 3.59569 -1.46053 0
M  V30 1716 H 169.755 3.58784 1.00522 0
M  V30 1717 H 169.868 4.76856 -0.463187 0
M  V30 1718 H 168.232 2.54259 -0.149753 0
M  V30 1719 H 169.015 2.93951 -1.77335 0
M  V30 1720 N 171.46 0.379036 1.52974 0
M  V30 1721 C 172.392 -0.495963 2.2377 0
M  V30 1722 C 173.405 -1.03517 1.25651 0
M  V30 1723 O 174.594 -0.939249 1.51791 0
M  V30 1724 C 171.694 -1.69894 2.93239 0
M  V30 1725 C 170.867 -1.2889 4.17979 0
M  V30 1726 C 169.926 -2.35543 4.70538 0
M  V30 1727 O 168.952 -1.97375 5.33883 0
M  V30 1728 N 170.154 -3.67318 4.49508 0
M  V30 1729 H 172.919 0.110523 2.99496 0
M  V30 1730 H 170.48 0.204878 1.60598 0
M  V30 1731 H 172.472 -2.40747 3.25304 0
M  V30 1732 H 171.042 -2.212 2.20883 0
M  V30 1733 H 170.262 -0.409676 3.92065 0
M  V30 1734 H 171.55 -0.991443 4.99047 0
M  V30 1735 H 170.948 -4.01095 3.98923 0
M  V30 1736 H 169.505 -4.34235 4.8609 0
M  V30 1737 N 172.938 -1.57226 0.108567 0
M  V30 1738 C 173.848 -2.18292 -0.859401 0
M  V30 1739 C 174.864 -1.15612 -1.30038 0
M  V30 1740 O 176.04 -1.48039 -1.36552 0
M  V30 1741 C 173.105 -2.762 -2.09558 0
M  V30 1742 C 172.166 -3.93881 -1.70752 0
M  V30 1743 C 171.399 -4.49018 -2.88477 0
M  V30 1744 O 171.622 -4.03068 -4.036 0
M  V30 1745 O 170.556 -5.39852 -2.66164 0
M  V30 1746 H 174.382 -3.01441 -0.369769 0
M  V30 1747 H 171.967 -1.48945 -0.1165 0
M  V30 1748 H 173.849 -3.13156 -2.81978 0
M  V30 1749 H 172.524 -1.96089 -2.57548 0
M  V30 1750 H 171.431 -3.61713 -0.954714 0
M  V30 1751 H 172.764 -4.75396 -1.27513 0
M  V30 1752 N 174.416 0.165178 -1.56732 0
M  V30 1753 C 175.827 0.727046 -1.71962 0
M  V30 1754 C 176.178 1.82508 -0.720078 0
M  V30 1755 O 175.303 2.16082 0.117242 0
M  V30 1756 C 175.898 1.32559 -3.11791 0
M  V30 1757 C 174.457 1.83422 -3.28684 0
M  V30 1758 C 173.604 0.715567 -2.67908 0
M  V30 1759 H 176.555 -0.0602896 -1.58585 0
M  V30 1760 H 176.576 2.19533 -3.10782 0
M  V30 1761 H 176.088 0.526195 -3.84516 0
M  V30 1762 H 174.189 2.65986 -2.60926 0
M  V30 1763 H 174.302 1.97543 -4.36478 0
M  V30 1764 H 172.666 1.13758 -2.27884 0
M  V30 1765 H 173.449 -0.0720836 -3.43224 0
M  V30 1766 N 175.894 1.51508 0.433938 0
M  V30 1767 C 177.119 1.68443 1.21003 0
M  V30 1768 C 177.544 0.382636 1.84167 0
M  V30 1769 O 176.902 -0.65755 1.68956 0
M  V30 1770 C 176.95 2.80405 2.26727 0
M  V30 1771 O 176.054 2.44245 3.32292 0
M  V30 1772 H 175.395 0.561536 0.354363 0
M  V30 1773 H 177.925 1.9809 0.512024 0
M  V30 1774 H 177.935 3.0459 2.71457 0
M  V30 1775 H 176.61 3.74867 1.80132 0
M  V30 1776 H 175.187 2.30644 2.93015 0
M  V30 1777 N 177.372 -0.689602 1.41712 0
M  V30 1778 C 178.335 -1.78521 1.43746 0
M  V30 1779 C 179.335 -1.57436 0.327191 0
M  V30 1780 O 180.525 -1.64 0.587348 0
M  V30 1781 C 177.657 -3.16971 1.25467 0
M  V30 1782 H 178.85 -1.78108 2.41283 0
M  V30 1783 H 176.403 -0.89781 1.27942 0
M  V30 1784 H 177.138 -3.23019 0.287948 0
M  V30 1785 H 176.923 -3.33678 2.05917 0
M  V30 1786 H 178.413 -3.96935 1.2974 0
M  V30 1787 N 178.85 -1.27639 -0.924453 0
M  V30 1788 C 180.266 -1.05113 -1.20097 0
M  V30 1789 C 180.466 0.213262 -2.00368 0
M  V30 1790 O 179.522 0.91787 -2.35226 0
M  V30 1791 C 180.835 -2.29244 -1.94596 0
M  V30 1792 C 182.383 -2.34315 -2.07522 0
M  V30 1793 C 182.858 -3.58183 -2.85427 0
M  V30 1794 N 184.349 -3.5876 -2.92994 0
M  V30 1795 C 185.084 -4.51277 -3.53746 0
M  V30 1796 N 184.58 -5.54102 -4.15863 0
M  V30 1797 N 186.373 -4.38894 -3.51181 0
M  V30 1798 H 178.524 -2.08821 -0.388264 0
M  V30 1799 H 180.787 -0.918568 -0.234385 0
M  V30 1800 H 180.493 -3.21301 -1.43034 0
M  V30 1801 H 180.367 -2.34816 -2.95197 0
M  V30 1802 H 182.754 -1.42762 -2.58269 0
M  V30 1803 H 182.835 -2.32744 -1.06131 0
M  V30 1804 H 182.479 -4.50074 -2.35363 0
M  V30 1805 H 182.409 -3.57006 -3.8711 0
M  V30 1806 H 184.9 -2.84398 -2.4885 0
M  V30 1807 H 185.213 -6.20859 -4.60168 0
M  V30 1808 H 183.558 -5.57941 -4.144 0
M  V30 1809 H 186.749 -3.57772 -3.01856 0
M  V30 1810 H 186.922 -5.11186 -3.98237 0
M  V30 1811 N 180.328 1.1314 -1.09713 0
M  V30 1812 C 181.238 2.22242 -0.751367 0
M  V30 1813 C 182.254 1.72224 0.247938 0
M  V30 1814 O 183.43 2.01205 0.0885463 0
M  V30 1815 C 180.495 3.46231 -0.180274 0
M  V30 1816 C 179.556 4.11125 -1.2359 0
M  V30 1817 C 178.789 5.29195 -0.691966 0
M  V30 1818 O 179.012 5.68342 0.48414 0
M  V30 1819 O 177.946 5.84214 -1.44838 0
M  V30 1820 H 181.772 2.54197 -1.66186 0
M  V30 1821 H 179.357 1.21331 -0.871735 0
M  V30 1822 H 181.239 4.21185 0.134739 0
M  V30 1823 H 179.914 3.1597 0.703185 0
M  V30 1824 H 178.821 3.37985 -1.60366 0
M  V30 1825 H 180.154 4.45524 -2.09211 0
M  V30 1826 N 181.806 0.884767 1.30421 0
M  V30 1827 C 183.052 0.503851 1.96441 0
M  V30 1828 C 183.385 -0.944518 1.69684 0
M  V30 1829 O 182.66 -1.66737 1.00145 0
M  V30 1830 C 182.943 0.779085 3.51571 0
M  V30 1831 C 182.796 2.27807 3.87846 0
M  V30 1832 C 184.115 0.255452 4.39358 0
M  V30 1833 H 181.234 0.184533 0.713524 0
M  V30 1834 H 183.876 1.10872 1.54297 0
M  V30 1835 H 182.026 0.264274 3.876 0
M  V30 1836 H 183.698 2.86127 3.61841 0
M  V30 1837 H 181.941 2.74479 3.35922 0
M  V30 1838 H 182.612 2.42125 4.96064 0
M  V30 1839 H 185.088 0.696079 4.10236 0
M  V30 1840 H 183.964 0.477361 5.4682 0
M  V30 1841 H 184.225 -0.843293 4.33983 0
M  V30 1842 N 183.284 -1.43765 0.645699 0
M  V30 1843 C 184.247 -2.29163 -0.0409488 0
M  V30 1844 C 185.247 -1.41813 -0.757996 0
M  V30 1845 O 186.437 -1.63527 -0.600382 0
M  V30 1846 C 183.569 -3.23716 -1.06869 0
M  V30 1847 H 184.762 -2.91366 0.710345 0
M  V30 1848 H 182.315 -1.5092 0.406547 0
M  V30 1849 H 183.05 -2.66393 -1.84947 0
M  V30 1850 H 182.835 -3.88105 -0.558277 0
M  V30 1851 H 184.325 -3.87831 -1.54845 0
M  V30 1852 N 184.763 -0.387143 -1.52771 0
M  V30 1853 C 186.179 -0.037007 -1.59557 0
M  V30 1854 C 186.379 1.44801 -1.40124 0
M  V30 1855 O 185.435 2.21227 -1.21716 0
M  V30 1856 C 186.748 -0.512256 -2.96305 0
M  V30 1857 C 188.296 -0.468328 -3.09476 0
M  V30 1858 C 188.771 -0.919731 -4.4867 0
M  V30 1859 N 190.262 -0.875656 -4.54848 0
M  V30 1860 C 190.997 -1.19637 -5.6078 0
M  V30 1861 N 190.493 -1.58745 -6.74368 0
M  V30 1862 N 192.286 -1.11776 -5.50874 0
M  V30 1863 H 184.437 -1.35395 -1.63652 0
M  V30 1864 H 186.7 -0.554818 -0.768688 0
M  V30 1865 H 186.406 -1.54935 -3.15734 0
M  V30 1866 H 186.28 0.089805 -3.77093 0
M  V30 1867 H 188.667 0.559671 -2.89744 0
M  V30 1868 H 188.748 -1.10616 -2.30646 0
M  V30 1869 H 188.392 -1.94595 -4.69143 0
M  V30 1870 H 188.322 -0.258927 -5.25963 0
M  V30 1871 H 190.813 -0.587843 -3.733 0
M  V30 1872 H 191.126 -1.81586 -7.51163 0
M  V30 1873 H 189.471 -1.6263 -6.75705 0
M  V30 1874 H 192.662 -0.811264 -4.61016 0
M  V30 1875 H 192.835 -1.37103 -6.3333 0
M  V30 1876 N 186.241 1.57166 -0.116904 0
M  V30 1877 C 187.204 2.14039 0.819742 0
M  V30 1878 C 188.204 1.07477 1.19605 0
M  V30 1879 O 189.394 1.33263 1.1219 0
M  V30 1880 C 186.526 2.67891 2.10826 0
M  V30 1881 H 187.719 2.98128 0.325511 0
M  V30 1882 H 185.272 1.55739 0.132312 0
M  V30 1883 H 186.007 1.87384 2.64685 0
M  V30 1884 H 185.792 3.45823 1.84793 0
M  V30 1885 H 187.282 3.11809 2.77785 0
M  V30 1886 N 187.719 -0.156864 1.56817 0
M  V30 1887 C 188.949 -0.885031 1.86684 0
M  V30 1888 C 189.357 -1.75696 0.701954 0
M  V30 1889 O 188.7 -1.80569 -0.337732 0
M  V30 1890 C 188.762 -1.80092 3.11138 0
M  V30 1891 C 188.426 -1.10714 4.43386 0
M  V30 1892 C 189.423 -0.465714 5.1781 0
M  V30 1893 C 187.108 -1.09959 4.90117 0
M  V30 1894 C 189.102 0.174002 6.37162 0
M  V30 1895 C 186.789 -0.456055 6.09396 0
M  V30 1896 C 187.787 0.179622 6.82764 0
M  V30 1897 O 187.475 0.812975 7.99779 0
M  V30 1898 H 187.207 -0.261813 0.623242 0
M  V30 1899 H 189.761 -0.157383 2.04796 0
M  V30 1900 H 187.991 -2.56926 2.89009 0
M  V30 1901 H 189.68 -2.40018 3.27332 0
M  V30 1902 H 190.446 -0.463427 4.82781 0
M  V30 1903 H 186.325 -1.58378 4.3294 0
M  V30 1904 H 189.869 0.670765 6.94368 0
M  V30 1905 H 185.766 -0.455975 6.43888 0
M  V30 1906 H 186.534 0.71366 8.15383 0
M  V30 1907 N 189.197 -1.51736 -0.425897 0
M  V30 1908 C 190.443 -1.65214 -1.1761 0
M  V30 1909 C 190.776 -0.372778 -1.90589 0
M  V30 1910 O 190.051 0.628139 -1.84078 0
M  V30 1911 C 190.334 -2.86312 -2.18398 0
M  V30 1912 C 190.187 -4.24254 -1.49426 0
M  V30 1913 C 191.506 -3.02925 -3.19256 0
M  V30 1914 H 188.625 -0.601263 -0.426206 0
M  V30 1915 H 191.267 -1.8425 -0.463882 0
M  V30 1916 H 189.417 -2.70213 -2.79137 0
M  V30 1917 H 191.089 -4.52046 -0.919362 0
M  V30 1918 H 189.332 -4.26426 -0.796432 0
M  V30 1919 H 190.003 -5.05001 -2.22885 0
M  V30 1920 H 192.479 -3.1781 -2.68581 0
M  V30 1921 H 191.355 -3.89199 -3.8706 0
M  V30 1922 H 191.616 -2.15497 -3.86023 0
M  V30 1923 N 190.675 0.682077 -1.42076 0
M  V30 1924 C 191.585 1.82535 -1.47371 0
M  V30 1925 C 192.601 1.7017 -0.363079 0
M  V30 1926 O 193.777 1.91848 -0.612875 0
M  V30 1927 C 190.842 3.18624 -1.36674 0
M  V30 1928 C 189.903 3.42999 -2.58167 0
M  V30 1929 C 189.136 4.72595 -2.4797 0
M  V30 1930 O 189.359 5.50006 -1.5116 0
M  V30 1931 O 188.293 4.98054 -3.37974 0
M  V30 1932 H 192.119 1.81023 -2.43853 0
M  V30 1933 H 189.704 0.836887 -1.2376 0
M  V30 1934 H 191.586 3.99847 -1.33043 0
M  V30 1935 H 190.261 3.20789 -0.433138 0
M  V30 1936 H 189.168 2.61653 -2.67373 0
M  V30 1937 H 190.501 3.45659 -3.50401 0
M  V30 1938 N 192.153 1.28127 0.917671 0
M  V30 1939 C 193.063 1.13556 2.05286 0
M  V30 1940 C 194.079 0.0630914 1.73886 0
M  V30 1941 O 195.255 0.271598 1.9956 0
M  V30 1942 C 192.32 0.794676 3.3747 0
M  V30 1943 C 191.381 1.94909 3.82504 0
M  V30 1944 C 190.614 1.62437 5.0838 0
M  V30 1945 O 190.837 0.536905 5.67867 0
M  V30 1946 O 189.771 2.46677 5.4903 0
M  V30 1947 H 193.597 2.08844 2.20495 0
M  V30 1948 H 191.182 1.07409 1.03845 0
M  V30 1949 H 193.064 0.618344 4.16839 0
M  V30 1950 H 191.739 -0.128581 3.23445 0
M  V30 1951 H 190.646 2.18055 3.03978 0
M  V30 1952 H 191.979 2.85291 4.01086 0
M  V30 1953 N 193.631 -1.12557 1.10312 0
M  V30 1954 C 194.877 -1.84311 0.846011 0
M  V30 1955 C 195.21 -1.83805 -0.626859 0
M  V30 1956 O 194.485 -1.28268 -1.46211 0
M  V30 1957 C 194.768 -3.32048 1.39341 0
M  V30 1958 C 194.621 -3.41016 2.93305 0
M  V30 1959 C 195.94 -4.27764 1.03468 0
M  V30 1960 H 193.059 -0.669192 0.30879 0
M  V30 1961 H 195.701 -1.32057 1.36605 0
M  V30 1962 H 193.851 -3.76678 0.951087 0
M  V30 1963 H 195.523 -3.05031 3.46055 0
M  V30 1964 H 193.766 -2.81603 3.29973 0
M  V30 1965 H 194.437 -4.44948 3.26689 0
M  V30 1966 H 196.913 -3.91253 1.41633 0
M  V30 1967 H 195.789 -5.29549 1.44463 0
M  V30 1968 H 196.05 -4.42064 -0.0560404 0
M  V30 1969 N 195.109 -0.891671 -1.2995 0
M  V30 1970 C 196.355 -0.514261 -1.96171 0
M  V30 1971 C 196.688 0.935506 -1.70182 0
M  V30 1972 O 195.963 1.66204 -1.01028 0
M  V30 1973 C 196.246 -0.797719 -3.51153 0
M  V30 1974 C 196.099 -2.2986 -3.86632 0
M  V30 1975 C 197.418 -0.278749 -4.39216 0
M  V30 1976 H 194.537 -0.188314 -0.712535 0
M  V30 1977 H 197.179 -1.11689 -1.53706 0
M  V30 1978 H 195.329 -0.284826 -3.87455 0
M  V30 1979 H 197.001 -2.88042 -3.60319 0
M  V30 1980 H 195.244 -2.76257 -3.34462 0
M  V30 1981 H 195.915 -2.44753 -4.94773 0
M  V30 1982 H 198.391 -0.717825 -4.09862 0
M  V30 1983 H 197.267 -0.506353 -5.46559 0
M  V30 1984 H 197.528 0.820266 -4.34424 0
M  V30 1985 N 196.587 1.43421 -0.653314 0
M  V30 1986 C 198.003 1.56341 -0.320886 0
M  V30 1987 C 198.203 1.63696 1.17499 0
M  V30 1988 O 197.259 1.59208 1.95982 0
M  V30 1989 C 198.572 2.82424 -1.03233 0
M  V30 1990 C 200.12 2.96168 -1.01259 0
M  V30 1991 C 200.595 4.25084 -1.70492 0
M  V30 1992 N 202.086 4.31948 -1.67257 0
M  V30 1993 C 202.821 5.30466 -2.17701 0
M  V30 1994 N 202.317 6.35261 -2.76434 0
M  V30 1995 N 204.11 5.2212 -2.082 0
M  V30 1996 H 196.261 1.3689 -1.62403 0
M  V30 1997 H 198.524 0.657455 -0.682977 0
M  V30 1998 H 198.23 2.83053 -2.08744 0
M  V30 1999 H 198.104 3.72653 -0.583948 0
M  V30 2000 H 200.491 2.9508 0.0341235 0
M  V30 2001 H 200.572 2.07229 -1.49966 0
M  V30 2002 H 200.216 4.26932 -2.7512 0
M  V30 2003 H 200.146 5.1292 -1.19251 0
M  V30 2004 H 202.637 3.56838 -1.24398 0
M  V30 2005 H 202.95 7.06754 -3.12601 0
M  V30 2006 H 201.295 6.35884 -2.80495 0
M  V30 2007 H 204.486 4.39166 -1.62021 0
M  V30 2008 H 204.659 5.98739 -2.47822 0
M  V30 2009 N 198.065 0.39524 1.52563 0
M  V30 2010 C 198.995 -0.428384 2.29537 0
M  V30 2011 C 199.976 -1.05831 1.33169 0
M  V30 2012 O 201.161 -1.06995 1.62067 0
M  V30 2013 C 198.291 -1.55274 3.10656 0
M  V30 2014 C 197.245 -1.04855 4.14957 0
M  V30 2015 C 196.571 -2.26543 4.84337 0
M  V30 2016 C 197.871 -0.112324 5.22179 0
M  V30 2017 H 199.565 0.213867 2.98635 0
M  V30 2018 H 197.111 0.104298 1.43622 0
M  V30 2019 H 199.064 -2.1358 3.63265 0
M  V30 2020 H 197.788 -2.22266 2.39302 0
M  V30 2021 H 196.447 -0.487985 3.63338 0
M  V30 2022 H 196.095 -2.92059 4.09525 0
M  V30 2023 H 195.795 -1.93466 5.54837 0
M  V30 2024 H 197.319 -2.85481 5.39753 0
M  V30 2025 H 198.733 -0.603752 5.70112 0
M  V30 2026 H 197.13 0.128968 5.99961 0
M  V30 2027 H 198.2 0.837052 4.77621 0
M  V30 2028 N 199.544 -1.57102 0.125237 0
M  V30 2029 C 200.454 -2.19191 -0.8362 0
M  V30 2030 C 201.47 -1.16985 -1.28805 0
M  V30 2031 O 202.646 -1.49479 -1.34974 0
M  V30 2032 C 199.711 -2.78407 -2.06617 0
M  V30 2033 C 198.772 -3.9567 -1.66565 0
M  V30 2034 C 198.005 -4.52052 -2.83698 0
M  V30 2035 O 198.228 -4.07326 -3.99302 0
M  V30 2036 O 197.162 -5.42645 -2.60423 0
M  V30 2037 H 200.988 -3.01816 -0.337776 0
M  V30 2038 H 198.573 -1.4906 -0.100695 0
M  V30 2039 H 200.455 -3.16129 -2.7864 0
M  V30 2040 H 199.13 -1.9881 -2.55453 0
M  V30 2041 H 198.037 -3.62705 -0.916296 0
M  V30 2042 H 199.37 -4.76722 -1.22464 0
M  V30 2043 N 201.022 0.148545 -1.56898 0
M  V30 2044 C 201.969 1.18345 -1.98149 0
M  V30 2045 C 202.939 1.42772 -0.848848 0
M  V30 2046 O 204.124 1.55132 -1.11079 0
M  V30 2047 C 201.264 2.51231 -2.36594 0
M  V30 2048 C 200.377 2.33991 -3.63142 0
M  V30 2049 C 199.512 3.59902 -3.90697 0
M  V30 2050 C 198.551 3.37692 -5.1052 0
M  V30 2051 N 197.688 4.5573 -5.34092 0
M  V30 2052 H 202.528 0.82467 -2.86362 0
M  V30 2053 H 200.065 0.395756 -1.41676 0
M  V30 2054 H 202.023 3.28713 -2.56912 0
M  V30 2055 H 200.653 2.85059 -1.51463 0
M  V30 2056 H 199.705 1.47572 -3.50609 0
M  V30 2057 H 201.017 2.13539 -4.5078 0
M  V30 2058 H 200.171 4.45813 -4.11505 0
M  V30 2059 H 198.91 3.83357 -3.01477 0
M  V30 2060 H 197.915 2.5017 -4.89587 0
M  V30 2061 H 199.14 3.15637 -6.0129 0
M  V30 2062 H 197.086 4.79361 -4.47827 0
M  V30 2063 H 197.003 4.38274 -6.15996 0
M  V30 2064 H 198.271 5.42858 -5.59397 0
M  V30 2065 N 202.5 1.5196 0.417844 0
M  V30 2066 C 203.43 1.77634 1.51554 0
M  V30 2067 C 204.411 0.626918 1.58126 0
M  V30 2068 O 205.596 0.871632 1.7354 0
M  V30 2069 C 202.726 1.91911 2.8946 0
M  V30 2070 C 201.68 3.07463 2.97743 0
M  V30 2071 C 201.006 3.06951 4.37819 0
M  V30 2072 C 202.306 4.47082 2.70027 0
M  V30 2073 H 204 2.6955 1.3032 0
M  V30 2074 H 201.546 1.29706 0.625492 0
M  V30 2075 H 203.499 2.08455 3.6623 0
M  V30 2076 H 202.223 0.966598 3.11969 0
M  V30 2077 H 200.882 2.90656 2.23416 0
M  V30 2078 H 200.53 2.09438 4.57323 0
M  V30 2079 H 200.23 3.84556 4.44286 0
M  V30 2080 H 201.754 3.25613 5.16535 0
M  V30 2081 H 203.168 4.6414 3.36522 0
M  V30 2082 H 201.565 5.2654 2.87881 0
M  V30 2083 H 202.635 4.55777 1.65514 0
M  V30 2084 N 203.978 -0.674533 1.42435 0
M  V30 2085 C 205.206 -1.46283 1.46317 0
M  V30 2086 C 205.621 -1.88653 0.0745836 0
M  V30 2087 O 204.978 -1.58151 -0.91074 0
M  V30 2088 C 205.029 -2.71178 2.3905 0
M  V30 2089 O 204.75 -2.30586 3.72507 0
M  V30 2090 C 206.251 -3.64738 2.51955 0
M  V30 2091 H 203.471 -0.450104 0.497642 0
M  V30 2092 H 206.015 -0.828792 1.86953 0
M  V30 2093 H 204.17 -3.3077 2.01667 0
M  V30 2094 H 204.584 -3.11241 4.22172 0
M  V30 2095 H 206.058 -4.49096 3.20962 0
M  V30 2096 H 206.535 -4.10656 1.55752 0
M  V30 2097 H 207.141 -3.11038 2.90061 0
M  V30 2098 N 205.456 -1.28612 -0.910864 0
M  V30 2099 C 206.702 -1.16106 -1.66274 0
M  V30 2100 C 207.035 0.289113 -1.92036 0
M  V30 2101 O 206.31 1.21 -1.52281 0
M  V30 2102 C 206.593 -1.96309 -3.01885 0
M  V30 2103 C 206.446 -3.49405 -2.8326 0
M  V30 2104 C 207.765 -1.78076 -4.02463 0
M  V30 2105 H 204.884 -0.423152 -0.603417 0
M  V30 2106 H 207.526 -1.57961 -1.05586 0
M  V30 2107 H 205.676 -1.60742 -3.53687 0
M  V30 2108 H 207.348 -3.94894 -2.38446 0
M  V30 2109 H 205.591 -3.74893 -2.18261 0
M  V30 2110 H 206.262 -4.00784 -3.79574 0
M  V30 2111 H 208.738 -2.0912 -3.59733 0
M  V30 2112 H 207.614 -2.36561 -4.95308 0
M  V30 2113 H 207.875 -0.733008 -4.35981 0
M  V30 2114 N 206.934 1.1197 -1.10907 0
M  V30 2115 C 207.864 2.19928 -0.784473 0
M  V30 2116 C 208.845 1.6833 0.244726 0
M  V30 2117 O 210.03 1.93892 0.109418 0
M  V30 2118 C 207.16 3.46597 -0.220827 0
M  V30 2119 C 206.114 4.11376 -1.18127 0
M  V30 2120 C 205.44 5.32554 -0.478594 0
M  V30 2121 C 206.74 4.56945 -2.52979 0
M  V30 2122 H 208.434 2.47337 -1.68715 0
M  V30 2123 H 205.98 1.18879 -0.812642 0
M  V30 2124 H 207.933 4.21396 0.0184278 0
M  V30 2125 H 206.657 3.1863 0.717113 0
M  V30 2126 H 205.316 3.38564 -1.40606 0
M  V30 2127 H 204.964 5.00856 0.463976 0
M  V30 2128 H 204.664 5.76844 -1.11912 0
M  V30 2129 H 206.188 6.10096 -0.248 0
M  V30 2130 H 207.602 5.23093 -2.3462 0
M  V30 2131 H 205.999 5.1203 -3.12962 0
M  V30 2132 H 207.069 3.70676 -3.12614 0
M  V30 2133 N 208.412 0.89855 1.29475 0
M  V30 2134 C 209.66 0.522847 1.9522 0
M  V30 2135 C 209.981 -0.93371 1.71192 0
M  V30 2136 O 209.251 -1.65823 1.04305 0
M  V30 2137 H 207.831 0.190366 0.722336 0
M  V30 2138 H 210.493 1.14459 1.5775 0
M  V30 2139 H 209.589 0.704476 3.04045 0
M  V30 2140 N 209.89 -1.43072 0.660911 0
M  V30 2141 C 211.136 -2.02545 0.186337 0
M  V30 2142 C 211.491 -1.51253 -1.18913 0
M  V30 2143 O 210.784 -0.699167 -1.78388 0
M  V30 2144 C 210.978 -3.57103 0.145563 0
M  V30 2145 C 210.807 -4.23393 1.51554 0
M  V30 2146 C 209.577 -4.59144 2.10984 0
M  V30 2147 C 211.775 -4.51897 2.45548 0
M  V30 2148 N 209.757 -5.10545 3.40907 0
M  V30 2149 C 211.128 -5.04698 3.6011 0
M  V30 2150 C 213.183 -4.33872 2.44253 0
M  V30 2151 C 211.886 -5.41371 4.73613 0
M  V30 2152 C 213.912 -4.71612 3.56842 0
M  V30 2153 C 213.274 -5.24553 4.70131 0
M  V30 2154 H 209.373 -0.773823 0.112792 0
M  V30 2155 H 211.957 -1.74137 0.870885 0
M  V30 2156 H 210.128 -3.85059 -0.508353 0
M  V30 2157 H 211.86 -4.03264 -0.340598 0
M  V30 2158 H 208.615 -4.4444 1.63615 0
M  V30 2159 H 209.039 -5.40689 4.07411 0
M  V30 2160 H 213.681 -3.92208 1.579 0
M  V30 2161 H 211.399 -5.81975 5.60652 0
M  V30 2162 H 214.985 -4.59354 3.57051 0
M  V30 2163 H 213.865 -5.53213 5.5581 0
M  V30 2164 N 211.368 -0.403325 -1.52352 0
M  V30 2165 C 212.784 -0.0539281 -1.59509 0
M  V30 2166 C 212.984 1.43307 -1.41652 0
M  V30 2167 O 212.04 2.19924 -1.24056 0
M  V30 2168 C 213.353 -0.543654 -2.95745 0
M  V30 2169 C 214.901 -0.501125 -3.08962 0
M  V30 2170 C 215.376 -0.967267 -4.47669 0
M  V30 2171 N 216.867 -0.923849 -4.53893 0
M  V30 2172 C 217.602 -1.25578 -5.5948 0
M  V30 2173 N 217.098 -1.65889 -6.72646 0
M  V30 2174 N 218.891 -1.17613 -5.49658 0
M  V30 2175 H 211.042 -1.37123 -1.62206 0
M  V30 2176 H 213.305 -0.56294 -0.76276 0
M  V30 2177 H 213.011 -1.58275 -3.14073 0
M  V30 2178 H 212.885 0.0498042 -3.77167 0
M  V30 2179 H 215.272 0.528909 -2.90321 0
M  V30 2180 H 215.353 -1.13056 -2.2946 0
M  V30 2181 H 214.997 -1.9956 -4.67053 0
M  V30 2182 H 214.927 -0.314698 -5.25659 0
M  V30 2183 H 217.418 -0.627403 -3.72655 0
M  V30 2184 H 217.731 -1.89543 -7.49195 0
M  V30 2185 H 216.076 -1.69787 -6.73942 0
M  V30 2186 H 219.267 -0.860115 -4.6013 0
M  V30 2187 H 219.44 -1.43812 -6.3184 0
M  V30 2188 N 212.846 1.57033 -0.133567 0
M  V30 2189 C 213.756 2.19632 0.824564 0
M  V30 2190 C 214.772 1.17666 1.28182 0
M  V30 2191 O 215.948 1.50193 1.3418 0
M  V30 2192 C 213.013 2.79499 2.05137 0
M  V30 2193 C 212.074 3.96548 1.64464 0
M  V30 2194 C 211.307 4.5355 2.81297 0
M  V30 2195 O 211.53 4.09438 3.97136 0
M  V30 2196 O 210.464 5.44018 2.57542 0
M  V30 2197 H 214.29 3.01991 0.321766 0
M  V30 2198 H 211.875 1.49112 0.0927889 0
M  V30 2199 H 213.757 3.17602 2.7696 0
M  V30 2200 H 212.432 2.00162 2.54395 0
M  V30 2201 H 211.339 3.63186 0.897048 0
M  V30 2202 H 212.672 4.77364 1.19934 0
M  V30 2203 N 214.325 -0.140222 1.56975 0
M  V30 2204 C 215.571 -0.852949 1.83991 0
M  V30 2205 C 215.904 -1.80512 0.716187 0
M  V30 2206 O 215.179 -1.92479 -0.279681 0
M  V30 2207 C 215.462 -1.6215 3.21527 0
M  V30 2208 C 215.315 -0.690363 4.4447 0
M  V30 2209 C 216.634 -2.58247 3.56366 0
M  V30 2210 H 213.753 -0.308634 0.669264 0
M  V30 2211 H 216.395 -0.117898 1.89634 0
M  V30 2212 H 214.545 -2.24812 3.16847 0
M  V30 2213 H 216.217 -0.0742264 4.6124 0
M  V30 2214 H 214.46 -0.000396433 4.338 0
M  V30 2215 H 215.131 -1.2643 5.37326 0
M  V30 2216 H 217.607 -2.05701 3.61699 0
M  V30 2217 H 216.483 -3.09067 4.53617 0
M  V30 2218 H 216.744 -3.39923 2.82674 0
M  V30 2219 N 215.803 -1.52179 -0.40978 0
M  V30 2220 C 217.214 -1.58377 -0.988615 0
M  V30 2221 C 217.565 -0.423879 -1.91566 0
M  V30 2222 O 216.69 0.455844 -2.11544 0
M  V30 2223 C 217.285 -2.87044 -1.79976 0
M  V30 2224 C 215.844 -2.95722 -2.32863 0
M  V30 2225 C 214.991 -2.53309 -1.12828 0
M  V30 2226 H 217.942 -1.57558 -0.190039 0
M  V30 2227 H 217.963 -2.7236 -2.65707 0
M  V30 2228 H 217.475 -3.71444 -1.12478 0
M  V30 2229 H 215.576 -2.15814 -3.03735 0
M  V30 2230 H 215.689 -3.99951 -2.63773 0
M  V30 2231 H 214.053 -2.07142 -1.48204 0
M  V30 2232 H 214.836 -3.40082 -0.46897 0
M  V30 2233 N 217.281 0.66697 -1.42791 0
M  V30 2234 C 218.527 1.4291 -1.43891 0
M  V30 2235 C 218.86 1.94114 -0.0578972 0
M  V30 2236 O 218.135 1.71414 0.91911 0
M  V30 2237 C 218.418 2.62049 -2.46987 0
M  V30 2238 C 218.271 2.16426 -3.94309 0
M  V30 2239 C 219.59 3.64266 -2.46978 0
M  V30 2240 H 216.709 0.518306 -0.523954 0
M  V30 2241 H 219.351 0.757321 -1.74255 0
M  V30 2242 H 217.501 3.19361 -2.21225 0
M  V30 2243 H 219.173 1.64221 -4.31079 0
M  V30 2244 H 217.416 1.47925 -4.078 0
M  V30 2245 H 218.087 3.02038 -4.62036 0
M  V30 2246 H 220.563 3.16686 -2.69906 0
M  V30 2247 H 219.439 4.45196 -3.21079 0
M  V30 2248 H 219.7 4.15927 -1.49857 0
M  V30 2249 N 218.759 1.29093 0.90403 0
M  V30 2250 C 219.707 1.13727 2.02901 0
M  V30 2251 C 220.701 0.0539853 1.69314 0
M  V30 2252 O 221.907 0.213469 1.7873 0
M  V30 2253 H 218.282 0.35117 0.664969 0
M  V30 2254 H 220.253 2.08982 2.13001 0
M  V30 2255 C 219.002 0.826066 3.37745 0
M  V30 2256 H 218.325 1.65164 3.64089 0
M  V30 2257 H 219.765 0.758559 4.17159 0
M  V30 2258 C 218.224 -0.470541 3.33598 0
M  V30 2259 O 218.754 -1.49792 3.72727 0
M  V30 2260 N 216.96 -0.474812 2.86695 0
M  V30 2261 H 216.507 0.361692 2.55048 0
M  V30 2262 H 216.465 -1.34236 2.84303 0
M  V30 2263 N 220.237 -1.11381 1.11499 0
M  V30 2264 C 221.462 -1.87475 0.887019 0
M  V30 2265 C 221.887 -1.79639 -0.557796 0
M  V30 2266 O 221.245 -1.15924 -1.39396 0
M  V30 2267 C 221.293 -3.34213 1.35403 0
M  V30 2268 O 220.397 -4.0903 0.526146 0
M  V30 2269 H 219.738 -0.582099 0.319463 0
M  V30 2270 H 222.268 -1.40785 1.48461 0
M  V30 2271 H 222.278 -3.8506 1.34881 0
M  V30 2272 H 220.953 -3.39232 2.40612 0
M  V30 2273 H 219.53 -3.68082 0.597522 0
M  V30 2274 N 221.715 -0.905404 -1.28997 0
M  V30 2275 C 222.992 -0.453513 -1.9027 0
M  V30 2276 C 223.372 1.06721 -1.82137 0
M  V30 2277 O 222.72 1.91159 -1.25182 0
M  V30 2278 C 222.93 -0.974494 -3.35119 0
M  V30 2279 C 224.278 -1.0216 -4.12127 0
M  V30 2280 O 225.302 -0.922557 -3.44046 0
M  V30 2281 O 224.161 -1.17121 -5.33802 0
M  V30 2282 H 221.255 -0.142347 -0.814657 0
M  V30 2283 H 223.801 -0.995642 -1.37423 0
M  V30 2284 H 222.573 -2.01848 -3.35221 0
M  V30 2285 H 222.196 -0.412706 -3.95452 0
M  V30 2286 N 223.193 1.4272 -0.668489 0
M  V30 2287 C 224.439 2.01923 -0.188419 0
M  V30 2288 C 224.772 1.52704 1.19979 0
M  V30 2289 O 224.047 0.726566 1.8042 0
M  V30 2290 C 224.33 3.59451 -0.216085 0
M  V30 2291 C 224.183 4.18864 -1.6393 0
M  V30 2292 C 225.502 4.37903 0.439179 0
M  V30 2293 H 222.621 0.733674 -0.0699412 0
M  V30 2294 H 225.263 1.69822 -0.852076 0
M  V30 2295 H 223.413 3.86929 0.349012 0
M  V30 2296 H 225.085 4.02362 -2.25616 0
M  V30 2297 H 223.328 3.74933 -2.18193 0
M  V30 2298 H 223.999 5.27987 -1.61039 0
M  V30 2299 H 226.475 4.16079 -0.0417878 0
M  V30 2300 H 225.351 5.47519 0.389157 0
M  V30 2301 H 225.612 4.15303 1.51577 0
M  V30 2302 N 224.671 0.411399 1.52136 0
M  V30 2303 C 225.601 -0.404015 2.29978 0
M  V30 2304 C 226.582 -1.04412 1.34284 0
M  V30 2305 O 227.767 -1.0527 1.63192 0
M  V30 2306 C 224.897 -1.5197 3.12286 0
M  V30 2307 C 223.851 -1.00448 4.16046 0
M  V30 2308 C 223.177 -2.21393 4.86712 0
M  V30 2309 C 224.477 -0.0569336 5.22269 0
M  V30 2310 H 226.171 0.245529 2.98392 0
M  V30 2311 H 223.717 0.119525 1.43503 0
M  V30 2312 H 225.67 -2.09715 3.6551 0
M  V30 2313 H 224.394 -2.19716 2.41646 0
M  V30 2314 H 223.053 -0.449421 3.63835 0
M  V30 2315 H 222.701 -2.87699 4.12599 0
M  V30 2316 H 222.401 -1.87571 5.56858 0
M  V30 2317 H 223.925 -2.7974 5.4275 0
M  V30 2318 H 225.339 -0.54325 5.7072 0
M  V30 2319 H 223.736 0.192594 5.99791 0
M  V30 2320 H 224.806 0.887663 4.76706 0
M  V30 2321 N 226.149 -1.5696 0.141893 0
M  V30 2322 C 227.397 -1.95573 -0.509484 0
M  V30 2323 C 227.718 -1.02746 -1.65736 0
M  V30 2324 O 226.988 -0.0880311 -1.95702 0
M  V30 2325 H 225.568 -0.722115 -0.191205 0
M  V30 2326 H 228.23 -1.93697 0.216196 0
M  V30 2327 H 227.326 -2.99171 -0.889 0
M  V30 2328 N 227.627 0.131896 -1.57047 0
M  V30 2329 C 228.876 0.84044 -1.83356 0
M  V30 2330 C 229.189 1.81646 -0.725535 0
M  V30 2331 O 230.395 2.57025 -0.874659 0
M  V30 2332 C 228.851 1.54528 -3.25037 0
M  V30 2333 C 228.459 0.610902 -4.43815 0
M  V30 2334 C 230.203 2.23972 -3.60606 0
M  V30 2335 C 228.11 1.31823 -5.76521 0
M  V30 2336 H 227.04 0.317599 -0.683847 0
M  V30 2337 H 229.691 0.0931561 -1.83263 0
M  V30 2338 H 228.073 2.33873 -3.19561 0
M  V30 2339 H 229.247 -0.148407 -4.60561 0
M  V30 2340 H 227.562 0.0241016 -4.16393 0
M  V30 2341 H 230.159 2.77558 -4.57018 0
M  V30 2342 H 230.502 3.01173 -2.87403 0
M  V30 2343 H 231.035 1.51529 -3.6781 0
M  V30 2344 H 227.774 0.587771 -6.52859 0
M  V30 2345 H 227.294 2.04987 -5.63685 0
M  V30 2346 H 228.973 1.855 -6.19838 0
M  V30 2347 N 229.106 1.52395 0.401703 0
M  V30 2348 C 230.038 1.72505 1.50912 0
M  V30 2349 C 231.051 0.605468 1.51122 0
M  V30 2350 O 232.24 0.880828 1.55254 0
M  V30 2351 C 229.34 1.75711 2.89791 0
M  V30 2352 C 228.513 3.04824 3.1369 0
M  V30 2353 C 227.572 2.99743 4.32482 0
M  V30 2354 O 226.598 3.73635 4.29402 0
M  V30 2355 N 227.8 2.18047 5.37992 0
M  V30 2356 H 230.565 2.68049 1.34052 0
M  V30 2357 H 228.126 1.50724 0.591084 0
M  V30 2358 H 230.118 1.69834 3.6734 0
M  V30 2359 H 228.688 0.876092 3.00072 0
M  V30 2360 H 227.908 3.2429 2.24119 0
M  V30 2361 H 229.196 3.90221 3.26504 0
M  V30 2362 H 228.594 1.57456 5.43345 0
M  V30 2363 H 227.151 2.18021 6.14256 0
M  V30 2364 N 230.584 -0.659388 1.43143 0
M  V30 2365 C 231.547 -1.75432 1.47501 0
M  V30 2366 C 232.547 -1.56707 0.360512 0
M  V30 2367 O 233.737 -1.62717 0.622002 0
M  V30 2368 C 230.869 -3.14239 1.32162 0
M  V30 2369 H 232.062 -1.7295 2.45006 0
M  V30 2370 H 229.615 -0.870469 1.29817 0
M  V30 2371 H 230.35 -3.22336 0.356401 0
M  V30 2372 H 230.135 -3.29235 2.12948 0
M  V30 2373 H 231.625 -3.94094 1.3813 0
M  V30 2374 N 232.062 -1.29571 -0.897171 0
M  V30 2375 C 233.009 -1.14916 -2.00158 0
M  V30 2376 C 233.979 -0.0418149 -1.66047 0
M  V30 2377 O 235.164 -0.209793 -1.89643 0
M  V30 2378 C 232.304 -0.834307 -3.34863 0
M  V30 2379 C 231.417 -2.02234 -3.8174 0
M  V30 2380 C 230.552 -1.64664 -5.05034 0
M  V30 2381 C 229.591 -2.80033 -5.44286 0
M  V30 2382 N 228.728 -2.42843 -6.58765 0
M  V30 2383 H 233.568 -2.09403 -2.12025 0
M  V30 2384 H 231.105 -1.042 -1.0383 0
M  V30 2385 H 233.063 -0.632436 -4.12379 0
M  V30 2386 H 231.693 0.0736656 -3.22716 0
M  V30 2387 H 230.745 -2.33583 -3.00238 0
M  V30 2388 H 232.057 -2.88673 -4.06779 0
M  V30 2389 H 231.211 -1.4078 -5.9014 0
M  V30 2390 H 229.95 -0.753766 -4.8184 0
M  V30 2391 H 228.955 -3.04596 -4.57713 0
M  V30 2392 H 230.18 -3.69989 -5.6946 0
M  V30 2393 H 228.126 -1.56046 -6.3717 0
M  V30 2394 H 228.043 -3.22815 -6.83613 0
M  V30 2395 H 229.311 -2.22285 -7.47134 0
M  V30 2396 N 233.54 1.10788 -1.12088 0
M  V30 2397 C 234.488 2.19111 -0.780587 0
M  V30 2398 C 235.482 1.67818 0.230961 0
M  V30 2399 O 236.688 1.79777 0.0895427 0
M  V30 2400 H 233.063 0.714477 -0.234578 0
M  V30 2401 H 235.034 2.45055 -1.70266 0
M  V30 2402 C 233.783 3.46818 -0.24747 0
M  V30 2403 H 233.106 3.86646 -1.01712 0
M  V30 2404 H 234.546 4.23973 -0.0476291 0
M  V30 2405 C 233.005 3.20968 1.02378 0
M  V30 2406 O 233.535 3.42298 2.10226 0
M  V30 2407 N 231.741 2.74658 0.949271 0
M  V30 2408 H 231.288 2.57501 0.0715173 0
M  V30 2409 H 231.246 2.57739 1.80049 0
M  V30 2410 N 235.018 0.912232 1.28515 0
M  V30 2411 C 235.966 0.389597 2.29314 0
M  V30 2412 C 236.96 -0.517915 1.61289 0
M  V30 2413 O 238.166 -0.399328 1.75515 0
M  V30 2414 H 234.541 0.107386 0.744293 0
M  V30 2415 H 236.512 1.25286 2.70825 0
M  V30 2416 C 235.261 -0.356496 3.45868 0
M  V30 2417 H 234.584 0.332608 3.98414 0
M  V30 2418 H 236.024 -0.686851 4.184 0
M  V30 2419 C 234.483 -1.56383 2.98406 0
M  V30 2420 O 235.013 -2.66294 3.00749 0
M  V30 2421 N 233.219 -1.41029 2.54085 0
M  V30 2422 H 232.766 -0.516089 2.52377 0
M  V30 2423 H 232.724 -2.21939 2.22689 0
M  V30 2424 N 236.496 -1.42363 0.676048 0
M  V30 2425 C 237.428 -2.29164 -0.0404605 0
M  V30 2426 C 238.441 -1.43747 -0.764245 0
M  V30 2427 O 239.63 -1.67453 -0.618195 0
M  V30 2428 C 236.73 -3.21196 -1.08103 0
M  V30 2429 C 235.903 -4.35273 -0.430812 0
M  V30 2430 C 234.962 -5.08017 -1.37133 0
M  V30 2431 O 233.988 -5.62494 -0.87116 0
M  V30 2432 N 235.19 -5.13647 -2.70456 0
M  V30 2433 H 237.955 -2.91298 0.704667 0
M  V30 2434 H 235.516 -1.53303 0.520559 0
M  V30 2435 H 237.508 -3.66728 -1.71152 0
M  V30 2436 H 236.078 -2.60505 -1.72788 0
M  V30 2437 H 235.298 -3.92372 0.379209 0
M  V30 2438 H 236.586 -5.08795 0.0221132 0
M  V30 2439 H 235.984 -4.708 -3.1363 0
M  V30 2440 H 234.541 -5.62821 -3.28749 0
M  V30 2441 N 237.974 -0.419461 -1.51915 0
M  V30 2442 C 239.385 0.0477853 -1.86639 0
M  V30 2443 C 239.736 1.43531 -1.33766 0
M  V30 2444 O 238.861 2.05401 -0.68113 0
M  V30 2445 C 239.456 0.0934885 -3.38671 0
M  V30 2446 C 238.015 0.505097 -3.72996 0
M  V30 2447 C 237.162 -0.313792 -2.75519 0
M  V30 2448 H 240.113 -0.636088 -1.45395 0
M  V30 2449 H 240.134 0.906667 -3.6954 0
M  V30 2450 H 239.646 -0.916501 -3.77123 0
M  V30 2451 H 237.747 1.52135 -3.40126 0
M  V30 2452 H 237.86 0.242309 -4.78487 0
M  V30 2453 H 236.224 0.225363 -2.53701 0
M  V30 2454 H 237.007 -1.32232 -3.16812 0
M  V30 2455 N 239.452 1.56882 -0.150215 0
M  V30 2456 C 240.402 2.13501 0.800071 0
M  V30 2457 C 241.386 1.06368 1.20726 0
M  V30 2458 O 242.578 1.32538 1.17314 0
M  V30 2459 C 239.707 2.76271 2.03787 0
M  V30 2460 C 238.793 3.90533 1.65364 0
M  V30 2461 N 239.184 4.96259 0.977794 0
M  V30 2462 C 237.482 4.013 1.94613 0
M  V30 2463 C 238.183 5.76286 0.791794 0
M  V30 2464 N 237.159 5.27163 1.32666 0
M  V30 2465 H 240.961 2.92615 0.274517 0
M  V30 2466 H 238.475 1.62319 0.0512144 0
M  V30 2467 H 240.472 3.15197 2.72867 0
M  V30 2468 H 239.132 1.98631 2.56857 0
M  V30 2469 H 240.143 5.13953 0.638193 0
M  V30 2470 H 236.82 3.3474 2.4951 0
M  V30 2471 H 238.21 6.71401 0.258894 0
M  V30 2472 N 240.93 -0.123565 1.57115 0
M  V30 2473 C 242.179 -0.830704 1.83799 0
M  V30 2474 C 242.492 -1.81259 0.735158 0
M  V30 2475 O 243.698 -2.56558 0.888278 0
M  V30 2476 C 242.154 -1.52802 3.25852 0
M  V30 2477 C 241.762 -0.587356 4.44133 0
M  V30 2478 C 243.506 -2.22056 3.61789 0
M  V30 2479 C 241.413 -1.28764 5.77212 0
M  V30 2480 H 240.343 -0.313967 0.685522 0
M  V30 2481 H 242.994 -0.0834359 1.8331 0
M  V30 2482 H 241.376 -2.32175 3.20797 0
M  V30 2483 H 242.55 0.172829 4.60476 0
M  V30 2484 H 240.865 -0.00201892 4.164 0
M  V30 2485 H 243.462 -2.75131 4.58483 0
M  V30 2486 H 243.805 -2.99644 2.88997 0
M  V30 2487 H 244.338 -1.49576 3.68608 0
M  V30 2488 H 241.077 -0.55314 6.53162 0
M  V30 2489 H 240.597 -2.01995 5.64764 0
M  V30 2490 H 242.276 -1.8221 6.20813 0
M  V30 2491 N 242.408 -1.52605 -0.393616 0
M  V30 2492 C 243.318 -1.79971 -1.50492 0
M  V30 2493 C 244.334 -0.686181 -1.59899 0
M  V30 2494 O 245.51 -0.973274 -1.76322 0
M  V30 2495 C 242.575 -1.95867 -2.86072 0
M  V30 2496 C 241.636 -3.19781 -2.86424 0
M  V30 2497 C 240.869 -3.34909 -4.15538 0
M  V30 2498 O 241.092 -2.54948 -5.10253 0
M  V30 2499 O 240.026 -4.28141 -4.23059 0
M  V30 2500 H 243.852 -2.74328 -1.30299 0
M  V30 2501 H 241.437 -1.3764 -0.581005 0
M  V30 2502 H 243.319 -2.08056 -3.66457 0
M  V30 2503 H 241.994 -1.04699 -3.063 0
M  V30 2504 H 240.901 -3.13038 -2.04837 0
M  V30 2505 H 242.234 -4.1078 -2.71147 0
M  V30 2506 N 243.887 0.651787 -1.4349 0
M  V30 2507 C 244.819 1.77725 -1.44729 0
M  V30 2508 C 245.832 1.59141 -0.343231 0
M  V30 2509 O 247.021 1.67835 -0.607751 0
M  V30 2510 C 244.121 3.15172 -1.24579 0
M  V30 2511 C 243.294 3.60402 -2.47849 0
M  V30 2512 C 242.353 4.76656 -2.22902 0
M  V30 2513 O 241.379 4.86022 -2.96263 0
M  V30 2514 N 242.581 5.66958 -1.24656 0
M  V30 2515 H 245.346 1.77141 -2.41746 0
M  V30 2516 H 242.907 0.835678 -1.38665 0
M  V30 2517 H 244.899 3.90634 -1.0577 0
M  V30 2518 H 243.469 3.1052 -0.360015 0
M  V30 2519 H 242.689 2.75369 -2.82073 0
M  V30 2520 H 243.977 3.87368 -3.29884 0
M  V30 2521 H 243.375 5.62065 -0.640265 0
M  V30 2522 H 241.932 6.42135 -1.1183 0
M  V30 2523 N 245.365 1.30045 0.890287 0
M  V30 2524 C 246.614 1.17929 1.63633 0
M  V30 2525 C 246.927 -0.266204 1.9378 0
M  V30 2526 O 248.133 -0.508804 2.6669 0
M  V30 2527 C 246.589 2.06317 2.94892 0
M  V30 2528 C 246.197 3.55745 2.72305 0
M  V30 2529 C 247.941 2.0295 3.72843 0
M  V30 2530 C 245.848 4.36205 3.99348 0
M  V30 2531 H 244.778 0.437782 0.613892 0
M  V30 2532 H 247.429 1.54754 0.986075 0
M  V30 2533 H 245.811 1.6237 3.61182 0
M  V30 2534 H 246.985 4.07805 2.1455 0
M  V30 2535 H 245.3 3.6088 2.07737 0
M  V30 2536 H 247.897 2.60319 4.67053 0
M  V30 2537 H 248.24 1.0117 4.0382 0
M  V30 2538 H 248.773 2.4499 3.13408 0
M  V30 2539 H 245.512 5.38659 3.73533 0
M  V30 2540 H 245.032 3.8891 4.56628 0
M  V30 2541 H 246.711 4.47362 4.67415 0
M  V30 2542 N 246.843 -1.10192 1.12674 0
M  V30 2543 C 247.773 -2.18652 0.819362 0
M  V30 2544 C 248.754 -1.68698 -0.217915 0
M  V30 2545 O 249.939 -1.94041 -0.0785581 0
M  V30 2546 C 247.069 -3.46202 0.27594 0
M  V30 2547 C 246.023 -4.09444 1.24656 0
M  V30 2548 C 245.349 -5.31725 0.563258 0
M  V30 2549 C 246.649 -4.52863 2.60217 0
M  V30 2550 H 248.343 -2.44622 1.72628 0
M  V30 2551 H 245.889 -1.17571 0.831451 0
M  V30 2552 H 247.842 -4.21372 0.0486149 0
M  V30 2553 H 246.566 -3.1973 -0.666331 0
M  V30 2554 H 245.225 -3.36284 1.45974 0
M  V30 2555 H 244.873 -5.0153 -0.384235 0
M  V30 2556 H 244.573 -5.74991 1.21075 0
M  V30 2557 H 246.097 -6.09624 0.34503 0
M  V30 2558 H 247.511 -5.19294 2.42913 0
M  V30 2559 H 245.908 -5.06986 3.21068 0
M  V30 2560 H 246.978 -3.65656 3.18471 0
M  V30 2561 N 248.321 -0.919034 -1.28029 0
M  V30 2562 C 249.567 -0.555757 -1.95036 0
M  V30 2563 C 249.9 0.899198 -1.72128 0
M  V30 2564 O 249.175 1.64023 -1.04531 0
M  V30 2565 C 249.458 -0.872024 -3.49382 0
M  V30 2566 C 249.311 -2.3801 -3.81669 0
M  V30 2567 C 250.63 -0.37185 -4.38526 0
M  V30 2568 H 247.749 -0.203386 -0.708381 0
M  V30 2569 H 250.391 -1.14924 -1.51303 0
M  V30 2570 H 248.541 -0.366946 -3.86763 0
M  V30 2571 H 250.213 -2.9562 -3.54128 0
M  V30 2572 H 248.456 -2.83289 -3.28526 0
M  V30 2573 H 249.127 -2.55192 -4.8947 0
M  V30 2574 H 251.603 -0.804602 -4.08247 0
M  V30 2575 H 250.479 -0.622173 -5.45362 0
M  V30 2576 H 250.74 0.727934 -4.36066 0
M  V30 2577 N 249.799 1.42003 -0.683588 0
M  V30 2578 C 251.027 2.05746 -0.218182 0
M  V30 2579 C 251.442 1.51396 1.12804 0
M  V30 2580 O 250.799 0.657303 1.70252 0
M  V30 2581 C 250.85 3.61171 -0.154131 0
M  V30 2582 O 250.571 4.13508 -1.44716 0
M  V30 2583 C 252.072 4.42042 0.333713 0
M  V30 2584 H 249.292 0.662888 -0.10402 0
M  V30 2585 H 251.836 1.81987 -0.9328 0
M  V30 2586 H 249.991 3.84012 0.511231 0
M  V30 2587 H 250.405 5.07453 -1.32632 0
M  V30 2588 H 251.879 5.51028 0.327423 0
M  V30 2589 H 252.356 4.17269 1.37053 0
M  V30 2590 H 252.962 4.24239 -0.300222 0
M  V30 2591 N 251.277 0.427512 1.51691 0
M  V30 2592 C 252.517 -0.141524 2.03909 0
M  V30 2593 C 252.881 -1.40811 1.30523 0
M  V30 2594 O 254.082 -2.05676 1.73063 0
M  V30 2595 C 252.353 -0.364962 3.55532 0
M  V30 2596 S 253.912 -0.898812 4.29496 0
M  V30 2597 H 250.73 -0.0364542 0.710065 0
M  V30 2598 H 253.332 0.584659 1.86553 0
M  V30 2599 H 252.036 0.56336 4.06515 0
M  V30 2600 H 251.567 -1.1185 3.77164 0
M  V30 2601 H 253.582 -2.17747 4.45871 0
M  V30 2602 N 252.755 -1.56801 0.158532 0
M  V30 2603 C 254.166 -1.83189 -0.360366 0
M  V30 2604 C 254.517 -1.07778 -1.63946 0
M  V30 2605 O 253.642 -0.326718 -2.13919 0
M  V30 2606 C 254.237 -3.32297 -0.660595 0
M  V30 2607 C 252.796 -3.59227 -1.12398 0
M  V30 2608 C 251.943 -2.76877 -0.153097 0
M  V30 2609 H 254.894 -1.54008 0.383031 0
M  V30 2610 H 254.915 -3.4908 -1.51405 0
M  V30 2611 H 254.427 -3.87156 0.270527 0
M  V30 2612 H 252.528 -3.09766 -2.07064 0
M  V30 2613 H 252.641 -4.67632 -1.04197 0
M  V30 2614 H 251.005 -2.46319 -0.647983 0
M  V30 2615 H 251.788 -3.34511 0.77182 0
M  V30 2616 N 254.233 0.115231 -1.57178 0
M  V30 2617 C 255.143 1.15994 -2.03918 0
M  V30 2618 C 256.159 1.45103 -0.960268 0
M  V30 2619 O 257.335 1.56144 -1.27204 0
M  V30 2620 C 254.4 2.46568 -2.43732 0
M  V30 2621 C 253.461 2.24822 -3.65723 0
M  V30 2622 C 252.694 3.4917 -4.03629 0
M  V30 2623 O 252.917 4.56623 -3.41835 0
M  V30 2624 O 251.851 3.39949 -4.96708 0
M  V30 2625 H 255.677 0.793019 -2.93164 0
M  V30 2626 H 253.262 0.3263 -1.45793 0
M  V30 2627 H 255.144 3.23492 -2.70057 0
M  V30 2628 H 253.819 2.82726 -1.57631 0
M  V30 2629 H 252.726 1.45744 -3.44542 0
M  V30 2630 H 254.059 1.93566 -4.52541 0
M  V30 2631 N 255.711 1.52812 0.385517 0
M  V30 2632 C 256.959 1.67694 1.12797 0
M  V30 2633 C 257.28 0.421115 1.90399 0
M  V30 2634 O 256.55 -0.564551 1.87589 0
M  V30 2635 H 255.13 0.618155 0.419396 0
M  V30 2636 H 257.792 1.89938 0.436972 0
M  V30 2637 H 256.888 2.52896 1.82894 0
M  V30 2638 N 257.189 -0.644168 1.43834 0
M  V30 2639 C 258.429 -1.41565 1.47441 0
M  V30 2640 C 258.793 -1.91743 0.0992723 0
M  V30 2641 O 259.994 -2.68798 0.0100192 0
M  V30 2642 C 258.265 -2.55902 2.49498 0
M  V30 2643 S 259.824 -3.44287 2.72051 0
M  V30 2644 H 256.642 -0.483118 0.521649 0
M  V30 2645 H 259.244 -0.747008 1.80666 0
M  V30 2646 H 257.948 -2.17327 3.48134 0
M  V30 2647 H 257.479 -3.27607 2.17801 0
M  V30 2648 H 259.494 -4.52927 2.0266 0
M  V30 2649 N 258.668 -1.30515 -0.883378 0
M  V30 2650 C 259.631 -1.1701 -1.97082 0
M  V30 2651 C 260.631 -0.10089 -1.60483 0
M  V30 2652 O 261.821 -0.349127 -1.70666 0
M  V30 2653 C 258.953 -0.793045 -3.31547 0
M  V30 2654 H 260.146 -2.13622 -2.10489 0
M  V30 2655 H 257.699 -1.13935 -1.06998 0
M  V30 2656 H 258.434 0.172499 -3.23841 0
M  V30 2657 H 258.219 -1.56576 -3.5948 0
M  V30 2658 H 259.709 -0.722073 -4.1131 0
M  V30 2659 N 260.146 1.09593 -1.13257 0
M  V30 2660 C 261.394 1.81375 -0.891492 0
M  V30 2661 C 261.715 1.86049 0.584009 0
M  V30 2662 O 260.985 1.34481 1.42449 0
M  V30 2663 H 259.565 0.671708 -0.326828 0
M  V30 2664 H 262.227 1.3256 -1.42877 0
M  V30 2665 H 261.323 2.84612 -1.28071 0
M  V30 2666 N 261.624 0.925811 1.2754 0
M  V30 2667 C 262.901 0.483726 1.89524 0
M  V30 2668 C 263.281 -1.03809 1.83812 0
M  V30 2669 O 262.629 -1.89143 1.28207 0
M  V30 2670 C 262.839 1.02769 3.33526 0
M  V30 2671 C 264.187 1.08703 4.10449 0
M  V30 2672 O 265.211 0.977175 3.42534 0
M  V30 2673 O 264.07 1.25599 5.31871 0
M  V30 2674 H 261.164 0.15529 0.812289 0
M  V30 2675 H 263.71 1.01738 1.35822 0
M  V30 2676 H 262.482 2.07155 3.31967 0
M  V30 2677 H 262.105 0.475567 3.94746 0
M  V30 2678 N 263.102 -1.41638 0.69111 0
M  V30 2679 C 264.012 -2.34588 0.0233487 0
M  V30 2680 C 265.028 -1.55987 -0.770984 0
M  V30 2681 O 266.204 -1.88486 -0.709569 0
M  V30 2682 C 263.269 -3.34684 -0.904851 0
M  V30 2683 C 262.33 -4.29176 -0.103225 0
M  V30 2684 C 261.563 -5.2449 -0.987216 0
M  V30 2685 O 261.786 -5.2514 -2.22674 0
M  V30 2686 O 260.72 -6.00295 -0.439281 0
M  V30 2687 H 264.546 -2.93261 0.789416 0
M  V30 2688 H 262.131 -1.42417 0.45142 0
M  V30 2689 H 264.013 -3.96133 -1.43724 0
M  V30 2690 H 262.688 -2.78461 -1.65049 0
M  V30 2691 H 261.595 -3.71089 0.473655 0
M  V30 2692 H 262.928 -4.88484 0.60365 0
M  V30 2693 N 264.58 -0.43555 -1.51462 0
M  V30 2694 C 265.51 0.367376 -2.30592 0
M  V30 2695 C 266.491 1.02263 -1.35928 0
M  V30 2696 O 267.676 1.02661 -1.64847 0
M  V30 2697 C 264.806 1.46983 -3.14664 0
M  V30 2698 C 263.76 0.938161 -4.17591 0
M  V30 2699 C 263.086 2.13622 -4.90173 0
M  V30 2700 C 264.386 -0.0261621 -5.22293 0
M  V30 2701 H 266.08 -0.292969 -2.97963 0
M  V30 2702 H 263.626 -0.14234 -1.43295 0
M  V30 2703 H 265.579 2.03873 -3.688 0
M  V30 2704 H 264.303 2.15843 -2.4511 0
M  V30 2705 H 262.962 0.391481 -3.64504 0
M  V30 2706 H 262.61 2.81098 -4.17124 0
M  V30 2707 H 262.31 1.78688 -5.59772 0
M  V30 2708 H 263.834 2.7107 -5.47132 0
M  V30 2709 H 265.248 0.452384 -5.71512 0
M  V30 2710 H 263.645 -0.287992 -5.99409 0
M  V30 2711 H 264.715 -0.963391 -4.75233 0
M  V30 2712 N 266.058 1.56714 -0.166846 0
M  V30 2713 C 267.335 1.88412 0.525373 0
M  V30 2714 C 267.715 1.07602 1.81618 0
M  V30 2715 O 267.063 0.168621 2.27877 0
M  V30 2716 C 267.273 3.40363 0.771613 0
M  V30 2717 C 268.621 4.10007 1.1036 0
M  V30 2718 O 269.645 3.45655 0.860304 0
M  V30 2719 O 268.504 5.2369 1.56239 0
M  V30 2720 H 265.598 0.781587 0.270278 0
M  V30 2721 H 268.144 1.68458 -0.204946 0
M  V30 2722 H 266.916 3.91046 -0.141093 0
M  V30 2723 H 266.539 3.65914 1.55541 0
M  V30 2724 N 267.536 -0.106894 1.57237 0
M  V30 2725 C 268.952 -0.46078 1.52804 0
M  V30 2726 C 269.152 -1.81184 0.881746 0
M  V30 2727 O 268.208 -2.48102 0.469224 0
M  V30 2728 C 269.521 -0.434127 2.9755 0
M  V30 2729 C 271.069 -0.516821 3.08704 0
M  V30 2730 C 271.544 -0.520436 4.55033 0
M  V30 2731 N 273.035 -0.58153 4.59535 0
M  V30 2732 C 273.77 -0.605973 5.70189 0
M  V30 2733 N 273.266 -0.587331 6.90306 0
M  V30 2734 N 275.059 -0.649895 5.5833 0
M  V30 2735 H 267.21 0.778203 1.9763 0
M  V30 2736 H 269.473 0.288403 0.903066 0
M  V30 2737 H 269.179 0.491197 3.48253 0
M  V30 2738 H 269.053 -1.25748 3.55622 0
M  V30 2739 H 271.44 -1.43256 2.57995 0
M  V30 2740 H 271.521 0.334449 2.53604 0
M  V30 2741 H 271.165 0.391313 5.0639 0
M  V30 2742 H 271.095 -1.38876 5.07958 0
M  V30 2743 H 273.586 -0.60161 3.73081 0
M  V30 2744 H 273.899 -0.60894 7.70397 0
M  V30 2745 H 272.244 -0.554564 6.92784 0
M  V30 2746 H 275.435 -0.661907 4.63397 0
M  V30 2747 H 275.608 -0.665476 6.44574 0
M  V30 2748 N 269.014 -1.53014 -0.377408 0
M  V30 2749 C 270.43 -1.42523 -0.718281 0
M  V30 2750 C 270.63 -0.55487 -1.9371 0
M  V30 2751 O 269.686 -0.0327593 -2.52479 0
M  V30 2752 C 270.999 -2.85546 -0.942539 0
M  V30 2753 C 272.547 -2.95101 -1.04329 0
M  V30 2754 C 273.022 -4.3916 -1.3001 0
M  V30 2755 N 274.513 -4.42536 -1.36806 0
M  V30 2756 C 275.248 -5.51097 -1.58364 0
M  V30 2757 N 274.744 -6.69724 -1.77317 0
M  V30 2758 N 276.537 -5.38657 -1.60638 0
M  V30 2759 H 268.688 -2.08116 0.424426 0
M  V30 2760 H 270.951 -0.939352 0.127759 0
M  V30 2761 H 270.657 -3.51499 -0.118929 0
M  V30 2762 H 270.531 -3.28493 -1.85397 0
M  V30 2763 H 272.918 -2.29309 -1.85745 0
M  V30 2764 H 272.999 -2.55566 -0.109505 0
M  V30 2765 H 272.643 -5.05521 -0.490991 0
M  V30 2766 H 272.573 -4.76258 -2.24691 0
M  V30 2767 H 275.064 -3.57039 -1.23821 0
M  V30 2768 H 275.377 -7.48233 -1.93306 0
M  V30 2769 H 273.722 -6.72732 -1.74518 0
M  V30 2770 H 276.913 -4.44948 -1.45391 0
M  V30 2771 H 277.086 -6.2333 -1.77098 0
M  V30 2772 N 270.492 0.636531 -1.44174 0
M  V30 2773 C 271.422 1.76003 -1.53444 0
M  V30 2774 C 272.403 1.65619 -0.387841 0
M  V30 2775 O 273.588 1.84461 -0.607257 0
M  V30 2776 C 270.718 3.14511 -1.4731 0
M  V30 2777 C 269.672 3.39677 -2.60391 0
M  V30 2778 C 268.998 4.78159 -2.39308 0
M  V30 2779 C 270.298 3.32772 -4.02567 0
M  V30 2780 H 271.992 1.68501 -2.47483 0
M  V30 2781 H 269.538 0.809237 -1.19111 0
M  V30 2782 H 271.491 3.92878 -1.52397 0
M  V30 2783 H 270.215 3.22783 -0.49785 0
M  V30 2784 H 268.874 2.63688 -2.54684 0
M  V30 2785 H 268.522 4.83128 -1.39988 0
M  V30 2786 H 268.222 4.95956 -3.15122 0
M  V30 2787 H 269.746 5.58762 -2.46205 0
M  V30 2788 H 271.16 4.01051 -4.09672 0
M  V30 2789 H 269.557 3.62104 -4.7854 0
M  V30 2790 H 270.627 2.30669 -4.2652 0
M  V30 2791 N 271.97 1.30982 0.876444 0
M  V30 2792 C 273.2 1.23063 1.65949 0
M  V30 2793 C 273.608 -0.207537 1.88058 0
M  V30 2794 O 272.951 -1.14781 1.43426 0
M  V30 2795 C 273.013 1.89768 3.05333 0
M  V30 2796 C 272.677 3.39106 3.0636 0
M  V30 2797 C 273.674 4.3496 2.84791 0
M  V30 2798 C 271.359 3.80693 3.27686 0
M  V30 2799 C 273.353 5.70375 2.84519 0
M  V30 2800 C 271.04 5.16223 3.27043 0
M  V30 2801 C 272.038 6.10875 3.05485 0
M  V30 2802 O 271.726 7.43928 3.04674 0
M  V30 2803 H 271.458 0.426685 0.524324 0
M  V30 2804 H 274.012 1.7329 1.10271 0
M  V30 2805 H 272.242 1.34082 3.6271 0
M  V30 2806 H 273.931 1.75853 3.65829 0
M  V30 2807 H 274.697 4.0416 2.68103 0
M  V30 2808 H 270.576 3.07457 3.43499 0
M  V30 2809 H 274.12 6.44228 2.67611 0
M  V30 2810 H 270.017 5.4666 3.43269 0
M  V30 2811 H 270.785 7.53022 3.2078 0
M  V30 2812 N 273.449 -1.08991 1.13837 0
M  V30 2813 C 274.698 -1.80631 0.897509 0
M  V30 2814 C 275.011 -1.86872 -0.57777 0
M  V30 2815 O 276.217 -2.54866 -0.935701 0
M  V30 2816 C 274.673 -3.24517 1.55618 0
M  V30 2817 C 274.281 -3.26529 3.0673 0
M  V30 2818 C 276.025 -4.00882 1.3962 0
M  V30 2819 C 273.932 -4.64965 3.65461 0
M  V30 2820 H 272.862 -0.67691 0.332129 0
M  V30 2821 H 275.513 -1.2246 1.3666 0
M  V30 2822 H 273.895 -3.82778 1.01476 0
M  V30 2823 H 275.069 -2.78008 3.67489 0
M  V30 2824 H 273.384 -2.63656 3.22296 0
M  V30 2825 H 275.981 -5.03167 1.80906 0
M  V30 2826 H 276.324 -4.14896 0.341578 0
M  V30 2827 H 276.857 -3.49075 1.90766 0
M  V30 2828 H 273.596 -4.56153 4.70749 0
M  V30 2829 H 273.116 -5.13792 3.09481 0
M  V30 2830 H 274.795 -5.3394 3.654 0
M  V30 2831 N 274.927 -0.932562 -1.27047 0
M  V30 2832 C 275.89 -0.440064 -2.24936 0
M  V30 2833 C 276.89 0.444071 -1.54547 0
M  V30 2834 O 278.08 0.244465 -1.72476 0
M  V30 2835 C 275.212 0.36678 -3.38921 0
M  V30 2836 H 276.405 -1.305 -2.70018 0
M  V30 2837 H 273.958 -0.713707 -1.39054 0
M  V30 2838 H 274.693 1.25033 -2.99228 0
M  V30 2839 H 274.478 -0.267204 -3.91188 0
M  V30 2840 H 275.968 0.701567 -4.11665 0
M  V30 2841 N 276.405 1.4127 -0.698611 0
M  V30 2842 C 277.821 1.55241 -0.370462 0
M  V30 2843 C 278.021 1.67351 1.12231 0
M  V30 2844 O 277.077 1.65363 1.90818 0
M  V30 2845 C 278.39 2.78997 -1.12165 0
M  V30 2846 C 279.938 2.92797 -1.1063 0
M  V30 2847 C 280.413 4.19445 -1.8393 0
M  V30 2848 N 281.904 4.26409 -1.80914 0
M  V30 2849 C 282.639 5.23271 -2.34467 0
M  V30 2850 N 282.135 6.26145 -2.96504 0
M  V30 2851 N 283.928 5.15232 -2.24706 0
M  V30 2852 H 276.079 1.31654 -1.66676 0
M  V30 2853 H 278.342 0.635393 -0.703548 0
M  V30 2854 H 278.048 2.76268 -2.17644 0
M  V30 2855 H 277.922 3.70606 -0.702209 0
M  V30 2856 H 280.309 2.95039 -0.0597713 0
M  V30 2857 H 280.39 2.02353 -1.56483 0
M  V30 2858 H 280.034 4.17964 -2.88563 0
M  V30 2859 H 279.964 5.08866 -1.35509 0
M  V30 2860 H 282.455 3.527 -1.35687 0
M  V30 2861 H 282.768 6.96451 -3.34927 0
M  V30 2862 H 281.113 6.26638 -3.00583 0
M  V30 2863 H 284.304 4.33789 -1.7591 0
M  V30 2864 H 284.477 5.90552 -2.66745 0
M  V30 2865 N 277.883 0.443576 1.51229 0
M  V30 2866 C 279.108 -0.121648 2.07043 0
M  V30 2867 C 279.533 -1.35156 1.30823 0
M  V30 2868 O 278.891 -1.7793 0.347934 0
M  V30 2869 C 278.939 -0.41624 3.5819 0
M  V30 2870 O 278.043 -1.50163 3.8409 0
M  V30 2871 H 277.384 0.000871367 0.663999 0
M  V30 2872 H 279.914 0.626706 1.94765 0
M  V30 2873 H 279.924 -0.664867 4.02546 0
M  V30 2874 H 278.599 0.482653 4.1309 0
M  V30 2875 H 277.176 -1.24248 3.51592 0
M  V30 2876 N 279.361 -1.56624 0.175154 0
M  V30 2877 C 280.61 -1.96173 -0.468921 0
M  V30 2878 C 280.923 -1.06401 -1.64128 0
M  V30 2879 O 282.129 -1.35648 -2.35185 0
M  V30 2880 C 280.585 -3.48833 -0.885633 0
M  V30 2881 C 280.193 -4.47237 0.261343 0
M  V30 2882 C 281.937 -3.97194 -1.49791 0
M  V30 2883 C 279.844 -5.9114 -0.175214 0
M  V30 2884 H 278.774 -0.732455 -0.178958 0
M  V30 2885 H 281.425 -1.81591 0.263997 0
M  V30 2886 H 279.807 -3.58848 -1.67464 0
M  V30 2887 H 280.981 -4.4894 1.03871 0
M  V30 2888 H 279.296 -4.08956 0.783827 0
M  V30 2889 H 281.893 -5.02167 -1.83665 0
M  V30 2890 H 282.236 -3.40351 -2.39722 0
M  V30 2891 H 282.769 -3.90212 -0.773267 0
M  V30 2892 H 279.508 -6.51865 0.689414 0
M  V30 2893 H 279.028 -5.92735 -0.91786 0
M  V30 2894 H 280.707 -6.44044 -0.617792 0
M  V30 2895 N 280.839 0.0985539 -1.57292 0
M  V30 2896 C 282.088 0.801358 -1.85098 0
M  V30 2897 C 282.401 1.80066 -0.763902 0
M  V30 2898 O 283.607 2.55112 -0.928981 0
M  V30 2899 C 282.063 1.47599 -3.28242 0
M  V30 2900 C 281.671 0.516624 -4.45011 0
M  V30 2901 C 283.415 2.16272 -3.65276 0
M  V30 2902 C 281.322 1.19564 -5.79188 0
M  V30 2903 H 280.252 0.303022 -0.69043 0
M  V30 2904 H 282.903 0.0542623 -1.8342 0
M  V30 2905 H 281.285 2.27042 -3.2445 0
M  V30 2906 H 282.459 -0.246065 -4.60143 0
M  V30 2907 H 280.774 -0.064227 -4.1635 0
M  V30 2908 H 283.371 2.67802 -4.62803 0
M  V30 2909 H 283.714 2.95009 -2.93727 0
M  V30 2910 H 284.247 1.43693 -3.70941 0
M  V30 2911 H 280.986 0.449157 -6.53959 0
M  V30 2912 H 280.506 1.92984 -5.67906 0
M  V30 2913 H 282.185 1.7231 -6.23633 0
M  V30 2914 N 282.317 1.53212 0.369288 0
M  V30 2915 C 283.565 1.68881 1.11012 0
M  V30 2916 C 283.886 0.441285 1.89941 0
M  V30 2917 O 283.156 -0.544623 1.88177 0
M  V30 2918 H 281.736 0.622569 0.412816 0
M  V30 2919 H 284.398 1.90391 0.416802 0
M  V30 2920 H 283.494 2.54822 1.80201 0
M  V30 2921 N 283.795 -0.628877 1.44509 0
M  V30 2922 C 284.742 -1.74074 1.51549 0
M  V30 2923 C 285.712 -1.62084 0.363021 0
M  V30 2924 O 286.897 -1.81975 0.573567 0
M  V30 2925 C 284.037 -3.12328 1.46784 0
M  V30 2926 C 283.15 -3.35277 2.72422 0
M  V30 2927 C 282.285 -4.63515 2.59475 0
M  V30 2928 C 281.324 -4.7965 3.80266 0
M  V30 2929 N 280.461 -5.99168 3.65981 0
M  V30 2930 H 285.301 -1.67392 2.46544 0
M  V30 2931 H 282.838 -0.816527 1.22357 0
M  V30 2932 H 284.796 -3.92286 1.42012 0
M  V30 2933 H 283.426 -3.18018 0.553544 0
M  V30 2934 H 282.478 -2.49242 2.87372 0
M  V30 2935 H 283.79 -3.43078 3.62076 0
M  V30 2936 H 282.944 -5.51638 2.52548 0
M  V30 2937 H 281.683 -4.58076 1.67384 0
M  V30 2938 H 280.688 -3.89957 3.87574 0
M  V30 2939 H 281.913 -4.86902 4.73395 0
M  V30 2940 H 279.859 -5.94814 2.76644 0
M  V30 2941 H 279.776 -6.08035 4.49254 0
M  V30 2942 H 281.044 -6.89846 3.6295 0
M  V30 2943 N 285.273 -1.31445 -0.869486 0
M  V30 2944 C 286.22 -1.19135 -1.97675 0
M  V30 2945 C 287.19 -0.0770266 -1.65921 0
M  V30 2946 O 288.375 -0.249972 -1.89155 0
M  V30 2947 C 285.515 -0.905149 -3.33018 0
M  V30 2948 C 284.628 -2.10285 -3.77365 0
M  V30 2949 C 283.763 -1.75339 -5.01427 0
M  V30 2950 C 282.802 -2.91515 -5.38224 0
M  V30 2951 N 281.939 -2.56762 -6.53466 0
M  V30 2952 H 286.779 -2.13853 -2.07535 0
M  V30 2953 H 284.316 -1.06379 -1.01597 0
M  V30 2954 H 286.274 -0.719765 -4.10944 0
M  V30 2955 H 284.904 0.00519624 -3.228 0
M  V30 2956 H 283.956 -2.39899 -2.95216 0
M  V30 2957 H 285.268 -2.97237 -4.00564 0
M  V30 2958 H 284.422 -1.53266 -5.87022 0
M  V30 2959 H 283.161 -0.855801 -4.80133 0
M  V30 2960 H 282.166 -3.14237 -4.51149 0
M  V30 2961 H 283.391 -3.81985 -5.61484 0
M  V30 2962 H 281.337 -1.69526 -6.33717 0
M  V30 2963 H 281.254 -3.37243 -6.76612 0
M  V30 2964 H 282.522 -2.38083 -7.42251 0
M  V30 2965 N 286.751 1.08385 -1.14413 0
M  V30 2966 C 287.681 2.17321 -0.854044 0
M  V30 2967 C 288.662 1.69024 0.191049 0
M  V30 2968 O 289.847 1.94141 0.0476779 0
M  V30 2969 C 286.977 3.45719 -0.330983 0
M  V30 2970 C 285.931 4.07409 -1.31155 0
M  V30 2971 C 285.257 5.30762 -0.64778 0
M  V30 2972 C 286.557 4.48665 -2.67388 0
M  V30 2973 H 288.251 2.41845 -1.76498 0
M  V30 2974 H 285.797 1.16233 -0.850051 0
M  V30 2975 H 287.75 4.21241 -0.115645 0
M  V30 2976 H 286.474 3.2075 0.615381 0
M  V30 2977 H 285.133 3.33919 -1.51306 0
M  V30 2978 H 284.781 5.02078 0.304398 0
M  V30 2979 H 284.481 5.72992 -1.30207 0
M  V30 2980 H 286.005 6.08998 -0.441972 0
M  V30 2981 H 287.419 5.15364 -2.51143 0
M  V30 2982 H 285.816 5.01814 -3.29093 0
M  V30 2983 H 286.886 3.60543 -3.24248 0
M  V30 2984 N 288.23 0.939286 1.26551 0
M  V30 2985 C 289.193 0.451987 2.24699 0
M  V30 2986 C 290.193 -0.435869 1.5478 0
M  V30 2987 O 291.383 -0.235314 1.72603 0
M  V30 2988 C 288.515 -0.348801 3.39111 0
M  V30 2989 H 289.708 1.3193 2.69322 0
M  V30 2990 H 287.261 0.721072 1.38673 0
M  V30 2991 H 287.996 -1.23444 2.99887 0
M  V30 2992 H 287.781 0.287945 3.91041 0
M  V30 2993 H 289.271 -0.679726 4.12031 0
M  V30 2994 N 289.708 -1.40897 0.706093 0
M  V30 2995 C 290.618 -2.3455 0.0482286 0
M  V30 2996 C 291.634 -1.56796 -0.754396 0
M  V30 2997 O 292.81 -1.89228 -0.689538 0
M  V30 2998 C 289.875 -3.35625 -0.869303 0
M  V30 2999 C 288.936 -4.29261 -0.0576994 0
M  V30 3000 C 288.169 -5.25508 -0.931531 0
M  V30 3001 O 288.392 -5.27472 -2.17092 0
M  V30 3002 O 287.326 -6.00727 -0.375587 0
M  V30 3003 H 291.152 -2.92407 0.820476 0
M  V30 3004 H 288.737 -1.4193 0.4665 0
M  V30 3005 H 290.619 -3.97635 -1.39514 0
M  V30 3006 H 289.294 -2.80196 -1.62086 0
M  V30 3007 H 288.201 -3.70566 0.512988 0
M  V30 3008 H 289.534 -4.87817 0.655426 0
M  V30 3009 N 291.186 -0.45159 -1.50991 0
M  V30 3010 C 292.463 0.170707 -1.94854 0
M  V30 3011 C 292.843 1.58788 -1.39103 0
M  V30 3012 O 292.191 2.20913 -0.583921 0
M  V30 3013 C 292.401 0.133929 -3.48743 0
M  V30 3014 C 293.749 0.33248 -4.23296 0
M  V30 3015 O 294.773 0.211403 -3.55572 0
M  V30 3016 O 293.632 0.57486 -5.43468 0
M  V30 3017 H 290.726 0.122264 -0.817912 0
M  V30 3018 H 293.272 -0.510594 -1.61836 0
M  V30 3019 H 292.044 -0.856283 -3.81816 0
M  V30 3020 H 291.667 0.857529 -3.88242 0
M  V30 3021 N 292.664 1.56529 -0.183458 0
M  V30 3022 C 293.911 1.97244 0.458357 0
M  V30 3023 C 294.239 1.06992 1.62428 0
M  V30 3024 O 293.494 0.106542 1.9541 0
M  V30 3025 C 293.793 3.43939 0.971637 0
M  V30 3026 C 293.459 4.5083 -0.0796784 0
M  V30 3027 C 292.121 4.79786 -0.368584 0
M  V30 3028 C 294.473 5.15138 -0.792638 0
M  V30 3029 C 291.801 5.70345 -1.37563 0
M  V30 3030 C 294.153 6.06784 -1.78875 0
M  V30 3031 C 292.817 6.34102 -2.08497 0
M  V30 3032 H 292.087 0.721768 0.167725 0
M  V30 3033 H 294.734 1.89472 -0.277976 0
M  V30 3034 H 293.039 3.48724 1.78602 0
M  V30 3035 H 294.736 3.72791 1.47744 0
M  V30 3036 H 291.326 4.28317 0.155668 0
M  V30 3037 H 295.51 4.92868 -0.582659 0
M  V30 3038 H 290.766 5.89789 -1.61118 0
M  V30 3039 H 294.94 6.55677 -2.3465 0
M  V30 3040 H 292.567 7.04074 -2.86678 0
M  V30 3041 N 294.142 -0.090211 1.57342 0
M  V30 3042 C 295.372 -0.805055 1.90269 0
M  V30 3043 C 295.78 -1.72561 0.775842 0
M  V30 3044 O 295.123 -1.81839 -0.260843 0
M  V30 3045 C 295.185 -1.66734 3.18497 0
M  V30 3046 C 294.849 -0.918092 4.47683 0
M  V30 3047 C 295.846 -0.245674 5.19319 0
M  V30 3048 C 293.531 -0.890724 4.94339 0
M  V30 3049 C 295.525 0.444088 6.35851 0
M  V30 3050 C 293.212 -0.197179 6.10782 0
M  V30 3051 C 294.21 0.469044 6.81388 0
M  V30 3052 O 293.898 1.15146 7.95611 0
M  V30 3053 H 293.63 -0.235143 0.633785 0
M  V30 3054 H 296.184 -0.0703805 2.05279 0
M  V30 3055 H 294.414 -2.44437 2.99646 0
M  V30 3056 H 296.103 -2.25919 3.37217 0
M  V30 3057 H 296.869 -0.258246 4.84312 0
M  V30 3058 H 292.748 -1.39873 4.39268 0
M  V30 3059 H 296.292 0.964667 6.90898 0
M  V30 3060 H 292.189 -0.18247 6.45242 0
M  V30 3061 H 292.957 1.05885 8.11622 0
M  V30 3062 N 295.62 -1.53406 -0.361157 0
M  V30 3063 C 296.866 -1.70054 -1.10496 0
M  V30 3064 C 297.199 -0.453278 -1.88836 0
M  V30 3065 O 296.474 0.5495 -1.86576 0
M  V30 3066 C 296.757 -2.95317 -2.06058 0
M  V30 3067 C 296.61 -4.3021 -1.31298 0
M  V30 3068 C 297.929 -3.16193 -3.06121 0
M  V30 3069 H 295.048 -0.618799 -0.400321 0
M  V30 3070 H 297.69 -1.86052 -0.385318 0
M  V30 3071 H 295.84 -2.81809 -2.67425 0
M  V30 3072 H 297.512 -4.55538 -0.726807 0
M  V30 3073 H 295.755 -4.29421 -0.614853 0
M  V30 3074 H 296.426 -5.14 -2.01265 0
M  V30 3075 H 298.902 -3.28916 -2.5486 0
M  V30 3076 H 297.778 -4.05266 -3.70204 0
M  V30 3077 H 298.039 -2.31676 -3.76535 0
M  V30 3078 N 297.098 0.621204 -1.44841 0
M  V30 3079 C 298.338 1.39201 -1.49674 0
M  V30 3080 C 298.702 1.91561 -0.129764 0
M  V30 3081 O 299.903 2.68748 -0.0527814 0
M  V30 3082 C 298.174 2.519 -2.53537 0
M  V30 3083 S 299.733 3.39916 -2.77494 0
M  V30 3084 H 296.551 0.474758 -0.529269 0
M  V30 3085 H 299.153 0.718171 -1.81831 0
M  V30 3086 H 297.857 2.11761 -3.51547 0
M  V30 3087 H 297.388 3.241 -2.22986 0
M  V30 3088 H 299.403 4.49646 -2.0984 0
M  V30 3089 N 298.576 1.31904 0.862503 0
M  V30 3090 C 299.801 1.25135 1.65397 0
M  V30 3091 C 300.226 -0.179 1.87246 0
M  V30 3092 O 299.584 -1.1277 1.4196 0
M  V30 3093 C 299.632 2.00832 2.99498 0
M  V30 3094 O 298.736 1.35075 3.89652 0
M  V30 3095 H 298.077 0.431655 0.504549 0
M  V30 3096 H 300.607 1.74094 1.07483 0
M  V30 3097 H 300.617 2.10709 3.49379 0
M  V30 3098 H 299.292 3.04847 2.82916 0
M  V30 3099 H 297.869 1.33696 3.48109 0
M  V30 3100 N 300.054 -1.07777 1.14986 0
M  V30 3101 C 301.301 -1.8029 0.922056 0
M  V30 3102 C 301.629 -1.86531 -0.55105 0
M  V30 3103 O 300.884 -1.34189 -1.42449 0
M  V30 3104 C 301.183 -3.25495 1.47608 0
M  V30 3105 C 300.849 -3.39361 2.96893 0
M  V30 3106 C 299.511 -3.42852 3.37647 0
M  V30 3107 C 301.863 -3.42512 3.92854 0
M  V30 3108 C 299.191 -3.47094 4.73015 0
M  V30 3109 C 301.543 -3.4829 5.28088 0
M  V30 3110 C 300.207 -3.50058 5.68345 0
M  V30 3111 H 299.477 -0.659727 0.337404 0
M  V30 3112 H 302.124 -1.26854 1.43459 0
M  V30 3113 H 300.429 -3.81683 0.88463 0
M  V30 3114 H 302.126 -3.80168 1.27568 0
M  V30 3115 H 298.716 -3.37339 2.64387 0
M  V30 3116 H 302.9 -3.3904 3.62444 0
M  V30 3117 H 298.156 -3.46758 5.03556 0
M  V30 3118 H 302.33 -3.49675 6.02246 0
M  V30 3119 H 299.957 -3.53097 6.73221 0
M  V30 3120 N 301.532 -0.945985 -1.26051 0
M  V30 3121 C 302.757 -0.612525 -1.98149 0
M  V30 3122 C 303.182 0.806623 -1.69927 0
M  V30 3123 O 302.54 1.54411 -0.950108 0
M  V30 3124 C 302.588 -0.866981 -3.50023 0
M  V30 3125 O 301.692 0.0585333 -4.12358 0
M  V30 3126 H 301.033 -0.23379 -0.621481 0
M  V30 3127 H 303.563 -1.27023 -1.60395 0
M  V30 3128 H 303.573 -0.789792 -4.00283 0
M  V30 3129 H 302.248 -1.90135 -3.69894 0
M  V30 3130 H 300.825 -0.0701241 -3.72834 0
M  V30 3131 N 303.011 1.40521 -0.713556 0
M  V30 3132 C 304.251 2.02783 -0.256584 0
M  V30 3133 C 304.615 1.55352 1.12827 0
M  V30 3134 O 305.816 2.09663 1.68211 0
M  V30 3135 C 304.087 3.5586 -0.331414 0
M  V30 3136 S 305.646 4.38773 0.0488703 0
M  V30 3137 H 302.464 0.703655 -0.101934 0
M  V30 3138 H 305.066 1.71674 -0.935325 0
M  V30 3139 H 303.77 3.87874 -1.34098 0
M  V30 3140 H 303.301 3.91695 0.365873 0
M  V30 3141 H 305.316 4.79633 1.2715 0
M  V30 3142 N 304.489 0.459591 1.5075 0
M  V30 3143 C 305.905 0.113092 1.59199 0
M  V30 3144 C 306.105 -1.37951 1.46874 0
M  V30 3145 O 305.161 -2.15168 1.32132 0
M  V30 3146 C 306.474 0.653043 2.93523 0
M  V30 3147 C 308.022 0.615449 3.0689 0
M  V30 3148 C 308.497 1.13275 4.43771 0
M  V30 3149 N 309.988 1.09167 4.50152 0
M  V30 3150 C 310.723 1.46256 5.54434 0
M  V30 3151 N 310.219 1.90739 6.66026 0
M  V30 3152 N 312.012 1.37932 5.44914 0
M  V30 3153 H 304.163 1.43049 1.57005 0
M  V30 3154 H 306.426 0.590861 0.741341 0
M  V30 3155 H 306.132 1.69822 3.07983 0
M  V30 3156 H 306.006 0.0902132 3.77092 0
M  V30 3157 H 308.393 -0.420793 2.92084 0
M  V30 3158 H 308.474 1.21495 2.25106 0
M  V30 3159 H 308.118 2.16757 4.59324 0
M  V30 3160 H 308.048 0.509576 5.24129 0
M  V30 3161 H 310.539 0.76528 3.7007 0
M  V30 3162 H 310.852 2.17218 7.41644 0
M  V30 3163 H 309.197 1.94683 6.67176 0
M  V30 3164 H 312.388 1.0303 4.56621 0
M  V30 3165 H 312.561 1.67164 6.26067 0
M  V30 3166 N 305.967 -1.56429 0.191757 0
M  V30 3167 C 307.195 -2.01867 -0.453586 0
M  V30 3168 C 307.61 -1.07191 -1.5542 0
M  V30 3169 O 306.967 -0.0762108 -1.82341 0
M  V30 3170 C 307.018 -3.47017 -1.013 0
M  V30 3171 O 306.739 -4.38078 0.0437005 0
M  V30 3172 C 308.24 -4.07956 -1.73456 0
M  V30 3173 H 305.46 -0.661211 -0.114199 0
M  V30 3174 H 308.004 -2.02295 0.299483 0
M  V30 3175 H 306.159 -3.47298 -1.71647 0
M  V30 3176 H 306.573 -5.23178 -0.372212 0
M  V30 3177 H 308.047 -5.1138 -2.07833 0
M  V30 3178 H 308.524 -3.51222 -2.63704 0
M  V30 3179 H 309.13 -4.11437 -1.07702 0
M  V30 3180 N 307.445 0.0818655 -1.57387 0
M  V30 3181 C 308.694 0.781681 -1.85937 0
M  V30 3182 C 309.007 1.79246 -0.782957 0
M  V30 3183 O 310.213 2.54112 -0.955987 0
M  V30 3184 C 308.669 1.44109 -3.29789 0
M  V30 3185 C 308.277 0.469396 -4.45534 0
M  V30 3186 C 310.021 2.12386 -3.67549 0
M  V30 3187 C 307.928 1.13415 -5.80423 0
M  V30 3188 H 306.858 0.295682 -0.693605 0
M  V30 3189 H 309.509 0.0348051 -1.83467 0
M  V30 3190 H 307.891 2.23588 -3.2684 0
M  V30 3191 H 309.065 -0.294856 -4.59856 0
M  V30 3192 H 307.38 -0.108383 -4.16259 0
M  V30 3193 H 309.977 2.62878 -4.65617 0
M  V30 3194 H 310.32 2.91877 -2.96839 0
M  V30 3195 H 310.853 1.39751 -3.72444 0
M  V30 3196 H 307.592 0.379771 -6.54399 0
M  V30 3197 H 307.112 1.8695 -5.69921 0
M  V30 3198 H 308.791 1.65686 -6.25426 0
M  V30 3199 N 308.923 1.53595 0.353017 0
M  V30 3200 C 310.169 1.70638 1.09593 0
M  V30 3201 C 310.502 0.463286 1.88593 0
M  V30 3202 O 309.777 -0.539597 1.86865 0
M  V30 3203 C 310.06 2.96406 2.04489 0
M  V30 3204 C 309.913 4.30901 1.29014 0
M  V30 3205 C 311.232 3.17812 3.0444 0
M  V30 3206 H 308.351 0.620913 0.397034 0
M  V30 3207 H 310.993 1.86254 0.375446 0
M  V30 3208 H 309.143 2.83223 2.65927 0
M  V30 3209 H 310.815 4.55917 0.702638 0
M  V30 3210 H 309.058 4.29741 0.592071 0
M  V30 3211 H 309.729 5.1506 1.98537 0
M  V30 3212 H 312.205 3.30263 2.53112 0
M  V30 3213 H 311.081 4.07223 3.6805 0
M  V30 3214 H 311.342 2.33669 3.75301 0
M  V30 3215 N 310.401 -0.613514 1.45168 0
M  V30 3216 C 311.631 -1.39743 1.52169 0
M  V30 3217 C 312.039 -1.88596 0.151086 0
M  V30 3218 O 311.382 -1.6251 -0.856521 0
M  V30 3219 C 311.444 -2.64035 2.43979 0
M  V30 3220 C 311.108 -2.36861 3.90827 0
M  V30 3221 C 312.105 -1.97591 4.80889 0
M  V30 3222 C 309.79 -2.49956 4.35692 0
M  V30 3223 C 311.784 -1.71768 6.1382 0
M  V30 3224 C 309.471 -2.23747 5.68665 0
M  V30 3225 C 310.469 -1.84714 6.57548 0
M  V30 3226 O 310.157 -1.58809 7.88058 0
M  V30 3227 H 309.889 -0.434382 0.517966 0
M  V30 3228 H 312.443 -0.75587 1.90986 0
M  V30 3229 H 310.673 -3.3089 2.00122 0
M  V30 3230 H 312.362 -3.26069 2.41731 0
M  V30 3231 H 313.128 -1.87015 4.47493 0
M  V30 3232 H 309.007 -2.79305 3.66756 0
M  V30 3233 H 312.551 -1.41227 6.83155 0
M  V30 3234 H 308.448 -2.33938 6.01617 0
M  V30 3235 H 309.216 -1.7291 8.00028 0
M  V30 3236 N 311.879 -1.3236 -0.855495 0
M  V30 3237 C 312.826 -1.21225 -1.964 0
M  V30 3238 C 313.796 -0.0946204 -1.6583 0
M  V30 3239 O 314.981 -0.27002 -1.8888 0
M  V30 3240 C 312.121 -0.940419 -3.32039 0
M  V30 3241 C 311.234 -2.14276 -3.75113 0
M  V30 3242 C 310.369 -1.80648 -4.9954 0
M  V30 3243 C 309.408 -2.97208 -5.35102 0
M  V30 3244 N 308.545 -2.63678 -6.50706 0
M  V30 3245 H 313.385 -2.16042 -2.05255 0
M  V30 3246 H 310.922 -1.07451 -1.00463 0
M  V30 3247 H 312.88 -0.763311 -4.10158 0
M  V30 3248 H 311.51 -0.0290413 -3.22787 0
M  V30 3249 H 310.562 -2.43017 -2.92655 0
M  V30 3250 H 311.874 -3.01468 -3.97389 0
M  V30 3251 H 311.028 -1.59484 -5.85363 0
M  V30 3252 H 309.767 -0.906678 -4.79198 0
M  V30 3253 H 308.772 -3.19004 -4.47791 0
M  V30 3254 H 309.997 -3.87918 -5.57401 0
M  V30 3255 H 307.943 -1.76238 -6.31883 0
M  V30 3256 H 307.86 -3.444 -6.72997 0
M  V30 3257 H 309.128 -2.45942 -7.39684 0
M  V30 3258 N 313.357 1.07166 -1.15556 0
M  V30 3259 C 314.605 1.79443 -0.929764 0
M  V30 3260 C 314.926 1.87246 0.544414 0
M  V30 3261 O 314.196 1.37473 1.39564 0
M  V30 3262 H 312.776 0.664625 -0.341003 0
M  V30 3263 H 315.438 1.29499 -1.45657 0
M  V30 3264 H 314.534 2.81832 -1.34079 0
M  V30 3265 N 314.835 0.952656 1.25548 0
M  V30 3266 C 315.768 0.415525 2.24385 0
M  V30 3267 C 316.746 -0.502046 1.54655 0
M  V30 3268 O 317.93 -0.436875 1.83368 0
M  V30 3269 C 315.057 -0.401734 3.36309 0
M  V30 3270 C 314.103 0.455949 4.24056 0
M  V30 3271 S 314.936 1.88698 5.01152 0
M  V30 3272 C 316.092 1.07809 6.16545 0
M  V30 3273 H 316.325 1.25315 2.69599 0
M  V30 3274 H 313.858 0.756587 1.34592 0
M  V30 3275 H 315.816 -0.867329 4.01233 0
M  V30 3276 H 314.477 -1.21416 2.89684 0
M  V30 3277 H 313.67 -0.170776 5.03711 0
M  V30 3278 H 313.272 0.856675 3.64056 0
M  V30 3279 H 315.564 0.325816 6.76716 0
M  V30 3280 H 316.507 1.84849 6.83547 0
M  V30 3281 H 316.915 0.60909 5.61204 0
M  V30 3282 N 316.313 -1.40141 0.720998 0
M  V30 3283 C 317.559 -2.01084 0.263231 0
M  V30 3284 C 317.892 -1.57052 -1.14229 0
M  V30 3285 O 317.167 -0.793027 -1.77599 0
M  V30 3286 C 317.45 -3.58401 0.349344 0
M  V30 3287 C 317.303 -4.12491 1.79363 0
M  V30 3288 C 318.622 -4.39231 -0.276351 0
M  V30 3289 H 315.741 -0.730572 0.0971228 0
M  V30 3290 H 318.383 -1.66543 0.914518 0
M  V30 3291 H 316.533 -3.87958 -0.205165 0
M  V30 3292 H 318.205 -3.93711 2.40394 0
M  V30 3293 H 316.448 -3.66576 2.31958 0
M  V30 3294 H 317.119 -5.21646 1.80524 0
M  V30 3295 H 319.595 -4.15637 0.196184 0
M  V30 3296 H 318.471 -5.48586 -0.185681 0
M  V30 3297 H 318.732 -4.20643 -1.36059 0
M  V30 3298 N 317.792 -0.46758 -1.50504 0
M  V30 3299 C 319.208 -0.121533 -1.59137 0
M  V30 3300 C 319.408 1.3717 -1.47603 0
M  V30 3301 O 318.464 2.14464 -1.33272 0
M  V30 3302 C 319.777 -0.6686 -2.93173 0
M  V30 3303 C 321.325 -0.631716 -3.06559 0
M  V30 3304 C 321.8 -1.15627 -4.43164 0
M  V30 3305 N 323.291 -1.11553 -4.49567 0
M  V30 3306 C 324.026 -1.49195 -5.5365 0
M  V30 3307 N 323.522 -1.94269 -6.65005 0
M  V30 3308 N 325.315 -1.4082 -5.44175 0
M  V30 3309 H 317.466 -1.4388 -1.56245 0
M  V30 3310 H 319.729 -0.594784 -0.738198 0
M  V30 3311 H 319.435 -1.71453 -3.07078 0
M  V30 3312 H 319.309 -0.11021 -3.77039 0
M  V30 3313 H 321.696 0.405297 -2.92304 0
M  V30 3314 H 321.777 -1.22687 -2.24458 0
M  V30 3315 H 321.421 -2.1919 -4.58168 0
M  V30 3316 H 321.351 -0.537365 -5.23851 0
M  V30 3317 H 323.842 -0.784895 -3.69659 0
M  V30 3318 H 324.155 -2.21148 -7.40482 0
M  V30 3319 H 322.5 -1.98219 -6.66134 0
M  V30 3320 H 325.691 -1.0545 -4.56068 0
M  V30 3321 H 325.864 -1.70481 -6.25172 0
M  V30 3322 N 319.27 1.56325 -0.20005 0
M  V30 3323 C 320.495 2.02548 0.44597 0
M  V30 3324 C 320.92 1.07922 1.5406 0
M  V30 3325 O 320.278 0.0635775 1.81188 0
M  V30 3326 C 320.326 3.47175 0.974761 0
M  V30 3327 O 319.43 3.55671 2.08739 0
M  V30 3328 H 318.771 0.655862 0.103638 0
M  V30 3329 H 321.301 2.02201 -0.312381 0
M  V30 3330 H 321.311 3.87067 1.2901 0
M  V30 3331 H 319.986 4.15538 0.17347 0
M  V30 3332 H 318.563 3.27657 1.78032 0
M  V30 3333 N 320.748 -0.0735177 1.57428 0
M  V30 3334 C 321.997 -0.771809 1.86349 0
M  V30 3335 C 322.31 -1.78828 0.792452 0
M  V30 3336 O 323.516 -2.53602 0.96945 0
M  V30 3337 C 321.972 -1.42358 3.30548 0
M  V30 3338 C 321.58 -0.445761 4.45777 0
M  V30 3339 C 323.324 -2.10434 3.6867 0
M  V30 3340 C 321.231 -1.10335 5.81016 0
M  V30 3341 H 320.161 -0.291999 0.695164 0
M  V30 3342 H 322.812 -0.0250749 1.83483 0
M  V30 3343 H 321.194 -2.21852 3.28021 0
M  V30 3344 H 322.368 0.319239 4.59693 0
M  V30 3345 H 320.683 0.130457 4.16196 0
M  V30 3346 H 323.28 -2.60405 4.67004 0
M  V30 3347 H 323.623 -2.90298 2.98383 0
M  V30 3348 H 324.156 -1.37773 3.7318 0
M  V30 3349 H 320.895 -0.345061 6.54591 0
M  V30 3350 H 320.415 -1.83925 5.70904 0
M  V30 3351 H 322.094 -1.62367 6.26295 0
M  V30 3352 N 322.226 -1.5378 -0.344866 0
M  V30 3353 C 323.475 -1.7018 -1.08267 0
M  V30 3354 C 323.788 -0.471 -1.89845 0
M  V30 3355 O 324.994 -0.515917 -2.66553 0
M  V30 3356 C 323.45 -3.00923 -1.97417 0
M  V30 3357 C 323.058 -4.31335 -1.21053 0
M  V30 3358 C 324.802 -3.26688 -2.71063 0
M  V30 3359 C 322.709 -5.53153 -2.09225 0
M  V30 3360 H 321.639 -0.634138 -0.407903 0
M  V30 3361 H 324.29 -1.8028 -0.342246 0
M  V30 3362 H 322.672 -2.84676 -2.75274 0
M  V30 3363 H 323.846 -4.58281 -0.481159 0
M  V30 3364 H 322.161 -4.12173 -0.591813 0
M  V30 3365 H 324.758 -4.1489 -3.37299 0
M  V30 3366 H 325.101 -2.43639 -3.37558 0
M  V30 3367 H 325.634 -3.43705 -2.0028 0
M  V30 3368 H 322.373 -6.38741 -1.47274 0
M  V30 3369 H 321.893 -5.30458 -2.79955 0
M  V30 3370 H 323.572 -5.88744 -2.68308 0
M  V30 3371 N 323.704 0.605807 -1.45491 0
M  V30 3372 C 324.634 1.72709 -1.57143 0
M  V30 3373 C 325.615 1.6476 -0.422884 0
M  V30 3374 O 326.8 1.83132 -0.646247 0
M  V30 3375 C 323.93 3.11316 -1.53948 0
M  V30 3376 C 322.884 3.34077 -2.67537 0
M  V30 3377 C 322.21 4.72975 -2.49397 0
M  V30 3378 C 323.51 3.24158 -4.09535 0
M  V30 3379 H 325.204 1.63214 -2.51001 0
M  V30 3380 H 322.75 0.78379 -1.208 0
M  V30 3381 H 324.703 3.89557 -1.60696 0
M  V30 3382 H 323.427 3.21655 -0.566205 0
M  V30 3383 H 322.086 2.58227 -2.6022 0
M  V30 3384 H 321.734 4.8005 -1.50205 0
M  V30 3385 H 321.434 4.8916 -3.25571 0
M  V30 3386 H 322.958 5.53414 -2.58002 0
M  V30 3387 H 324.372 3.92271 -4.18086 0
M  V30 3388 H 322.769 3.51872 -4.86113 0
M  V30 3389 H 323.839 2.2157 -4.31317 0
M  V30 3390 N 325.182 1.32811 0.848464 0
M  V30 3391 C 326.43 1.23479 1.59991 0
M  V30 3392 C 326.751 -0.201853 1.93952 0
M  V30 3393 O 326.021 -1.12818 1.60153 0
M  V30 3394 H 324.601 0.454034 0.593179 0
M  V30 3395 H 327.263 1.66412 1.01455 0
M  V30 3396 H 326.359 1.82178 2.53412 0
M  V30 3397 N 326.66 -1.06551 1.16123 0
M  V30 3398 C 327.57 -2.17484 0.879662 0
M  V30 3399 C 328.586 -1.73377 -0.147104 0
M  V30 3400 O 329.762 -2.01379 0.0289128 0
M  V30 3401 C 326.827 -3.44591 0.381829 0
M  V30 3402 C 325.888 -4.0322 1.4735 0
M  V30 3403 C 325.121 -5.24261 0.999324 0
M  V30 3404 O 325.344 -5.70198 -0.151957 0
M  V30 3405 O 324.278 -5.74775 1.78653 0
M  V30 3406 H 328.104 -2.44075 1.80724 0
M  V30 3407 H 325.689 -1.16042 0.940992 0
M  V30 3408 H 327.571 -4.21254 0.111053 0
M  V30 3409 H 326.246 -3.19532 -0.51777 0
M  V30 3410 H 325.153 -3.2806 1.79798 0
M  V30 3411 H 326.486 -4.32568 2.34831 0
M  V30 3412 N 328.138 -0.959301 -1.25041 0
M  V30 3413 C 329.385 -0.616611 -1.92884 0
M  V30 3414 C 329.713 0.847036 -1.75087 0
M  V30 3415 O 328.968 1.62374 -1.09239 0
M  V30 3416 C 329.267 -0.927136 -3.45165 0
M  V30 3417 C 328.933 -2.37757 -3.83122 0
M  V30 3418 C 327.595 -2.77402 -3.93194 0
M  V30 3419 C 329.947 -3.31929 -4.01836 0
M  V30 3420 C 327.275 -4.10277 -4.19392 0
M  V30 3421 C 329.627 -4.64423 -4.29528 0
M  V30 3422 C 328.291 -5.03857 -4.37818 0
M  V30 3423 H 327.561 -0.225634 -0.705812 0
M  V30 3424 H 330.208 -1.20921 -1.48493 0
M  V30 3425 H 328.513 -0.252195 -3.90987 0
M  V30 3426 H 330.21 -0.6405 -3.95852 0
M  V30 3427 H 326.8 -2.06013 -3.75841 0
M  V30 3428 H 330.984 -3.02488 -3.93465 0
M  V30 3429 H 326.24 -4.40467 -4.24027 0
M  V30 3430 H 330.414 -5.37369 -4.42953 0
M  V30 3431 H 328.041 -6.06843 -4.57871 0
M  V30 3432 N 329.616 1.39756 -0.72842 0
M  V30 3433 C 330.846 2.04651 -0.283117 0
M  V30 3434 C 331.254 1.5502 1.08469 0
M  V30 3435 O 330.597 0.707343 1.69536 0
M  V30 3436 C 330.659 3.58947 -0.199309 0
M  V30 3437 C 330.323 4.31525 -1.5045 0
M  V30 3438 C 331.32 4.5861 -2.44894 0
M  V30 3439 C 329.005 4.70195 -1.76698 0
M  V30 3440 C 330.999 5.23366 -3.63822 0
M  V30 3441 C 328.686 5.3468 -2.95906 0
M  V30 3442 C 329.684 5.61198 -3.89289 0
M  V30 3443 O 329.372 6.24347 -5.06404 0
M  V30 3444 H 329.104 0.664777 -0.122666 0
M  V30 3445 H 331.658 1.79913 -0.990987 0
M  V30 3446 H 329.888 3.82556 0.56461 0
M  V30 3447 H 331.577 4.0534 0.213125 0
M  V30 3448 H 332.343 4.29187 -2.25883 0
M  V30 3449 H 328.222 4.48916 -1.04859 0
M  V30 3450 H 331.766 5.4398 -4.36728 0
M  V30 3451 H 327.663 5.63524 -3.14819 0
M  V30 3452 H 328.431 6.42842 -5.06652 0
M  V30 3453 N 331.094 0.475555 1.50254 0
M  V30 3454 C 332.024 -0.30611 2.31485 0
M  V30 3455 C 333.005 -0.986228 1.38591 0
M  V30 3456 O 334.19 -0.982541 1.67511 0
M  V30 3457 C 331.32 -1.38588 3.1845 0
M  V30 3458 C 330.274 -0.827115 4.19932 0
M  V30 3459 C 329.6 -2.00551 4.95665 0
M  V30 3460 C 330.9 0.16463 5.2204 0
M  V30 3461 H 332.594 0.371866 2.97082 0
M  V30 3462 H 330.14 0.180282 1.42867 0
M  V30 3463 H 332.093 -1.94023 3.74076 0
M  V30 3464 H 330.817 -2.09269 2.50747 0
M  V30 3465 H 329.476 -0.294702 3.65414 0
M  V30 3466 H 329.124 -2.6994 4.2443 0
M  V30 3467 H 328.824 -1.63784 5.64313 0
M  V30 3468 H 330.348 -2.56468 5.54127 0
M  V30 3469 H 331.762 -0.300699 5.72511 0
M  V30 3470 H 330.159 0.446813 5.98434 0
M  V30 3471 H 331.229 1.08905 4.72512 0
M  V30 3472 N 332.573 -1.56217 0.208337 0
M  V30 3473 C 333.85 -1.89739 -0.475234 0
M  V30 3474 C 334.23 -1.1238 -1.78701 0
M  V30 3475 O 333.578 -0.228979 -2.2735 0
M  V30 3476 C 333.788 -3.42289 -0.681101 0
M  V30 3477 C 335.136 -4.12789 -0.994507 0
M  V30 3478 O 336.16 -3.47814 -0.768357 0
M  V30 3479 O 335.019 -5.27649 -1.42299 0
M  V30 3480 H 332.113 -0.788478 -0.249461 0
M  V30 3481 H 334.659 -1.67855 0.249538 0
M  V30 3482 H 333.431 -3.90534 0.244722 0
M  V30 3483 H 333.054 -3.69909 -1.45785 0
M  V30 3484 N 334.051 0.0651679 -1.57465 0
M  V30 3485 C 334.981 1.07693 -2.07182 0
M  V30 3486 C 335.962 1.39962 -0.966673 0
M  V30 3487 O 337.147 1.49475 -1.2398 0
M  V30 3488 C 334.277 2.3885 -2.52127 0
M  V30 3489 C 333.231 2.20917 -3.66579 0
M  V30 3490 C 332.557 3.57515 -3.97601 0
M  V30 3491 C 333.857 1.62493 -4.9638 0
M  V30 3492 H 335.551 0.663199 -2.91962 0
M  V30 3493 H 333.097 0.317569 -1.40455 0
M  V30 3494 H 335.05 3.09928 -2.85522 0
M  V30 3495 H 333.774 2.82215 -1.64384 0
M  V30 3496 H 332.433 1.52279 -3.33477 0
M  V30 3497 H 332.081 3.98463 -3.06979 0
M  V30 3498 H 331.781 3.46353 -4.74672 0
M  V30 3499 H 333.305 4.30013 -4.33499 0
M  V30 3500 H 334.719 2.23445 -5.27963 0
M  V30 3501 H 333.116 1.62009 -5.77818 0
M  V30 3502 H 334.186 0.587041 -4.81333 0
M  V30 3503 N 335.529 1.53961 0.336706 0
M  V30 3504 C 336.476 1.82428 1.41381 0
M  V30 3505 C 337.446 0.670444 1.51968 0
M  V30 3506 O 338.631 0.915565 1.67398 0
M  V30 3507 C 335.771 2.04564 2.77934 0
M  V30 3508 C 334.884 3.32267 2.76084 0
M  V30 3509 C 334.019 3.44434 4.04399 0
M  V30 3510 C 333.058 4.66061 3.96804 0
M  V30 3511 N 332.195 4.75224 5.16823 0
M  V30 3512 H 337.035 2.74324 1.16405 0
M  V30 3513 H 334.572 1.35869 0.563752 0
M  V30 3514 H 336.53 2.15388 3.57301 0
M  V30 3515 H 335.16 1.15974 3.01247 0
M  V30 3516 H 334.212 3.3025 1.88784 0
M  V30 3517 H 335.524 4.21733 2.66351 0
M  V30 3518 H 334.678 3.54728 4.92192 0
M  V30 3519 H 333.417 2.53037 4.16921 0
M  V30 3520 H 332.422 4.55838 3.07396 0
M  V30 3521 H 333.647 5.58829 3.85858 0
M  V30 3522 H 331.593 3.86739 5.29876 0
M  V30 3523 H 331.51 5.58636 5.09374 0
M  V30 3524 H 332.778 4.89835 6.06367 0
M  V30 3525 N 337.007 -0.598083 1.45811 0
M  V30 3526 C 337.955 -1.72932 1.55555 0
M  V30 3527 C 338.949 -1.63984 0.424921 0
M  V30 3528 O 340.155 -1.69663 0.601205 0
M  V30 3529 H 336.53 -0.571489 0.488779 0
M  V30 3530 H 338.501 -1.61842 2.50699 0
M  V30 3531 C 337.25 -3.11318 1.54843 0
M  V30 3532 H 336.573 -3.18867 2.41172 0
M  V30 3533 H 338.013 -3.90274 1.65717 0
M  V30 3534 C 336.472 -3.3578 0.274427 0
M  V30 3535 O 337.002 -3.9654 -0.641778 0
M  V30 3536 N 335.208 -2.90119 0.167139 0
M  V30 3537 H 334.755 -2.40855 0.913596 0
M  V30 3538 H 334.713 -3.0686 -0.684435 0
M  V30 3539 N 338.485 -1.33259 -0.841409 0
M  V30 3540 C 339.896 -1.22066 -1.41269 0
M  V30 3541 C 340.247 0.161479 -1.95534 0
M  V30 3542 O 339.372 1.06094 -1.88608 0
M  V30 3543 C 339.967 -2.20996 -2.568 0
M  V30 3544 C 338.526 -2.13649 -3.09888 0
M  V30 3545 C 337.673 -2.08623 -1.82679 0
M  V30 3546 H 340.624 -1.44895 -0.647395 0
M  V30 3547 H 340.645 -1.81621 -3.34356 0
M  V30 3548 H 340.157 -3.2158 -2.17274 0
M  V30 3549 H 338.258 -1.16359 -3.53965 0
M  V30 3550 H 338.371 -3.04079 -3.70234 0
M  V30 3551 H 336.735 -1.54061 -2.02824 0
M  V30 3552 H 337.518 -3.1101 -1.45353 0
M  V30 3553 N 339.963 1.05934 -1.16686 0
M  V30 3554 C 341.211 1.78447 -0.948744 0
M  V30 3555 C 341.532 1.87813 0.524523 0
M  V30 3556 O 340.802 1.38945 1.38098 0
M  V30 3557 H 339.382 0.660971 -0.348033 0
M  V30 3558 H 342.044 1.27947 -1.47022 0
M  V30 3559 H 341.14 2.80394 -1.37061 0
M  V30 3560 N 341.441 0.965919 1.2453 0
M  V30 3561 C 342.671 0.643451 1.96324 0
M  V30 3562 C 343.079 -0.790927 1.71875 0
M  V30 3563 O 342.422 -1.54208 0.998273 0
M  V30 3564 C 342.484 0.836078 3.49643 0
M  V30 3565 C 342.148 2.24975 3.97788 0
M  V30 3566 C 343.145 3.22735 4.07601 0
M  V30 3567 C 340.83 2.57697 4.31158 0
M  V30 3568 C 342.824 4.51303 4.50116 0
M  V30 3569 C 340.511 3.86492 4.73357 0
M  V30 3570 C 341.509 4.83107 4.828 0
M  V30 3571 O 341.197 6.09605 5.24058 0
M  V30 3572 H 340.929 0.239223 0.632257 0
M  V30 3573 H 343.483 1.29587 1.59362 0
M  V30 3574 H 341.713 0.12649 3.86493 0
M  V30 3575 H 343.402 0.512965 4.02646 0
M  V30 3576 H 344.168 2.98783 3.82039 0
M  V30 3577 H 340.047 1.83216 4.23028 0
M  V30 3578 H 343.591 5.26716 4.57401 0
M  V30 3579 H 339.488 4.10245 4.98366 0
M  V30 3580 H 340.256 6.13146 5.42213 0
M  V30 3581 N 342.919 -1.39368 0.735821 0
M  V30 3582 C 344.147 -2.04795 0.294393 0
M  V30 3583 C 344.562 -1.55478 -1.07107 0
M  V30 3584 O 343.919 -0.720038 -1.67695 0
M  V30 3585 C 343.97 -3.6035 0.288071 0
M  V30 3586 O 343.691 -4.07852 1.59963 0
M  V30 3587 C 345.192 -4.42976 -0.169422 0
M  V30 3588 H 342.412 -0.658571 0.128551 0
M  V30 3589 H 344.956 -1.78399 0.999701 0
M  V30 3590 H 343.111 -3.85645 -0.368355 0
M  V30 3591 H 343.525 -5.02181 1.51375 0
M  V30 3592 H 344.999 -5.51864 -0.122687 0
M  V30 3593 H 345.476 -4.22068 -1.21472 0
M  V30 3594 H 346.082 -4.22832 0.457469 0
M  V30 3595 N 344.397 -0.483516 -1.5 0
M  V30 3596 C 345.622 0.0667119 -2.07293 0
M  V30 3597 C 346.047 1.3164 -1.3436 0
M  V30 3598 O 345.405 1.76945 -0.394987 0
M  V30 3599 C 345.453 0.321126 -3.59167 0
M  V30 3600 O 344.557 1.39927 -3.87936 0
M  V30 3601 H 343.898 -0.0184758 -0.663743 0
M  V30 3602 H 346.428 -0.678125 -1.93035 0
M  V30 3603 H 346.438 0.557906 -4.04168 0
M  V30 3604 H 345.113 -0.592007 -4.11665 0
M  V30 3605 H 343.69 1.14882 -3.54763 0
M  V30 3606 N 345.875 1.56104 -0.216619 0
M  V30 3607 C 346.823 2.21434 0.712036 0
M  V30 3608 C 347.817 1.19218 1.20348 0
M  V30 3609 O 349.023 1.3731 1.16387 0
M  V30 3610 H 345.398 0.70992 0.248026 0
M  V30 3611 H 347.369 2.98083 0.137558 0
M  V30 3612 C 346.118 2.90434 1.91163 0
M  V30 3613 H 345.441 3.68842 1.54258 0
M  V30 3614 H 346.881 3.39552 2.5393 0
M  V30 3615 C 345.34 1.92635 2.76394 0
M  V30 3616 O 345.87 1.44017 3.74996 0
M  V30 3617 N 344.076 1.60392 2.42328 0
M  V30 3618 H 343.623 2.00122 1.622 0
M  V30 3619 H 343.581 0.952159 2.99635 0
M  V30 3620 N 347.353 -0.0568162 1.57498 0
M  V30 3621 C 348.6 -0.753104 1.87975 0
M  V30 3622 C 348.928 -1.76815 0.81035 0
M  V30 3623 O 348.183 -1.94756 -0.19199 0
M  V30 3624 C 348.482 -1.48359 3.25153 0
M  V30 3625 C 348.148 -0.60713 4.46794 0
M  V30 3626 C 346.81 -0.365642 4.79809 0
M  V30 3627 C 349.162 -0.000305978 5.212 0
M  V30 3628 C 346.49 0.491905 5.84634 0
M  V30 3629 C 348.842 0.844781 6.26934 0
M  V30 3630 C 347.506 1.096 6.58441 0
M  V30 3631 H 346.776 -0.27558 0.687849 0
M  V30 3632 H 349.423 -0.0135173 1.91495 0
M  V30 3633 H 347.728 -2.29577 3.17492 0
M  V30 3634 H 349.425 -2.02739 3.45974 0
M  V30 3635 H 346.015 -0.805487 4.20963 0
M  V30 3636 H 350.199 -0.173961 4.95995 0
M  V30 3637 H 345.455 0.695131 6.07436 0
M  V30 3638 H 349.629 1.32165 6.83744 0
M  V30 3639 H 347.256 1.76224 7.39492 0
M  V30 3640 N 348.832 -1.54138 -0.328536 0
M  V30 3641 C 349.795 -1.82462 -1.38709 0
M  V30 3642 C 350.795 -0.696229 -1.44946 0
M  V30 3643 O 351.985 -0.964535 -1.4506 0
M  V30 3644 C 349.117 -1.98018 -2.77492 0
M  V30 3645 H 350.31 -2.77037 -1.14851 0
M  V30 3646 H 347.863 -1.45779 -0.563751 0
M  V30 3647 H 348.598 -1.05637 -3.06613 0
M  V30 3648 H 348.383 -2.80124 -2.74359 0
M  V30 3649 H 349.873 -2.21396 -3.54081 0
M  V30 3650 N 350.31 0.590341 -1.46126 0
M  V30 3651 C 351.556 1.35082 -1.51264 0
M  V30 3652 C 351.889 1.93534 -0.160711 0
M  V30 3653 O 351.164 1.76045 0.826956 0
M  V30 3654 C 351.447 2.48588 -2.6053 0
M  V30 3655 C 351.3 1.95221 -4.05227 0
M  V30 3656 C 352.619 3.50662 -2.6594 0
M  V30 3657 H 349.738 0.489803 -0.550692 0
M  V30 3658 H 352.38 0.663887 -1.78024 0
M  V30 3659 H 350.53 3.07186 -2.37843 0
M  V30 3660 H 352.202 1.41139 -4.39178 0
M  V30 3661 H 350.445 1.26101 -4.15068 0
M  V30 3662 H 351.116 2.77121 -4.77397 0
M  V30 3663 H 353.592 3.01934 -2.86313 0
M  V30 3664 H 352.468 4.27551 -3.44226 0
M  V30 3665 H 352.729 4.07399 -1.71694 0
M  V30 3666 N 351.788 1.33704 0.83433 0
M  V30 3667 C 353.018 1.28281 1.6195 0
M  V30 3668 C 353.426 -0.147603 1.88623 0
M  V30 3669 O 352.769 -1.1016 1.47005 0
M  V30 3670 C 352.831 1.99386 2.99141 0
M  V30 3671 C 352.495 3.48681 2.95416 0
M  V30 3672 C 353.492 4.438 2.70809 0
M  V30 3673 C 351.177 3.90925 3.15409 0
M  V30 3674 C 353.171 5.79138 2.66229 0
M  V30 3675 C 350.858 5.26366 3.10454 0
M  V30 3676 C 351.856 6.20284 2.85895 0
M  V30 3677 O 351.544 7.53245 2.80852 0
M  V30 3678 H 351.276 0.44315 0.510484 0
M  V30 3679 H 353.83 1.76711 1.04702 0
M  V30 3680 H 352.06 1.45554 3.58261 0
M  V30 3681 H 353.749 1.87403 3.60049 0
M  V30 3682 H 354.515 4.12485 2.5511 0
M  V30 3683 H 350.394 3.18229 3.33543 0
M  V30 3684 H 353.938 6.52416 2.4698 0
M  V30 3685 H 349.835 5.57304 3.25703 0
M  V30 3686 H 350.603 7.62846 2.96661 0
M  V30 3687 N 353.266 -1.05314 1.17247 0
M  V30 3688 C 354.216 -2.11313 0.856196 0
M  V30 3689 C 355.2 -1.60013 -0.168694 0
M  V30 3690 O 356.392 -1.76968 0.0335624 0
M  V30 3691 C 353.521 -3.41301 0.369917 0
M  V30 3692 C 352.607 -3.99401 1.42616 0
M  V30 3693 N 352.998 -4.31481 2.63928 0
M  V30 3694 C 351.296 -4.27126 1.28373 0
M  V30 3695 C 351.997 -4.77799 3.31787 0
M  V30 3696 N 350.973 -4.77843 2.59166 0
M  V30 3697 H 354.775 -2.33976 1.77856 0
M  V30 3698 H 352.289 -1.2295 1.06099 0
M  V30 3699 H 354.286 -4.16713 0.124897 0
M  V30 3700 H 352.946 -3.20072 -0.546253 0
M  V30 3701 H 353.957 -4.21519 3.00902 0
M  V30 3702 H 350.634 -4.15289 0.429111 0
M  V30 3703 H 352.024 -5.11743 4.35395 0
M  V30 3704 N 354.744 -0.972509 -1.24016 0
M  V30 3705 C 356.16 -0.679827 -1.44397 0
M  V30 3706 C 356.36 0.756716 -1.86751 0
M  V30 3707 O 355.416 1.53007 -2.00861 0
M  V30 3708 C 356.729 -1.66803 -2.50195 0
M  V30 3709 C 358.277 -1.68119 -2.64017 0
M  V30 3710 C 358.752 -2.65748 -3.73017 0
M  V30 3711 N 360.243 -2.64219 -3.8045 0
M  V30 3712 C 360.978 -3.36433 -4.64328 0
M  V30 3713 N 360.474 -4.1818 -5.52356 0
M  V30 3714 N 362.267 -3.25235 -4.58453 0
M  V30 3715 H 354.418 -1.90059 -0.948228 0
M  V30 3716 H 356.681 -0.818527 -0.478245 0
M  V30 3717 H 356.387 -2.69498 -2.25973 0
M  V30 3718 H 356.261 -1.4446 -3.48441 0
M  V30 3719 H 358.648 -0.661319 -2.87594 0
M  V30 3720 H 358.729 -1.94525 -1.66113 0
M  V30 3721 H 358.373 -3.67872 -3.50189 0
M  V30 3722 H 358.303 -2.36619 -4.70446 0
M  V30 3723 H 360.794 -2.04887 -3.17537 0
M  V30 3724 H 361.107 -4.70157 -6.13329 0
M  V30 3725 H 359.452 -4.22273 -5.52006 0
M  V30 3726 H 362.643 -2.60829 -3.88698 0
M  V30 3727 H 362.816 -3.81776 -5.23594 0
M  V30 3728 N 356.222 1.38976 -0.743202 0
M  V30 3729 C 357.638 1.53984 -0.419664 0
M  V30 3730 C 357.838 1.70837 1.0685 0
M  V30 3731 O 356.894 1.7135 1.8546 0
M  V30 3732 C 358.207 2.75287 -1.20985 0
M  V30 3733 C 359.755 2.89129 -1.19889 0
M  V30 3734 C 360.23 4.13381 -1.97181 0
M  V30 3735 N 361.721 4.20437 -1.94389 0
M  V30 3736 C 362.456 5.15547 -2.50996 0
M  V30 3737 N 361.952 6.16395 -3.16274 0
M  V30 3738 N 363.745 5.07822 -2.40984 0
M  V30 3739 H 355.896 1.26285 -1.7078 0
M  V30 3740 H 358.159 0.612689 -0.723406 0
M  V30 3741 H 357.865 2.69204 -2.26323 0
M  V30 3742 H 357.739 3.68184 -0.819759 0
M  V30 3743 H 360.126 2.947 -0.153606 0
M  V30 3744 H 360.207 1.97272 -1.62841 0
M  V30 3745 H 359.851 4.08572 -3.01714 0
M  V30 3746 H 359.781 5.04298 -1.51629 0
M  V30 3747 H 362.272 3.48205 -1.46839 0
M  V30 3748 H 362.585 6.85443 -3.56915 0
M  V30 3749 H 360.93 6.16758 -3.20367 0
M  V30 3750 H 364.121 4.27973 -1.89622 0
M  V30 3751 H 364.294 5.81767 -2.85397 0
M  V30 3752 N 357.7 0.491464 1.49741 0
M  V30 3753 C 358.947 -0.0564256 2.02421 0
M  V30 3754 C 359.275 -1.37872 1.37192 0
M  V30 3755 O 358.53 -1.89375 0.493508 0
M  V30 3756 C 358.829 -0.267329 3.56399 0
M  V30 3757 C 358.495 0.975775 4.40215 0
M  V30 3758 C 357.157 1.31655 4.62839 0
M  V30 3759 C 359.509 1.80251 4.89039 0
M  V30 3760 C 356.837 2.48375 5.31532 0
M  V30 3761 C 359.189 2.96116 5.59015 0
M  V30 3762 C 357.853 3.30585 5.79888 0
M  V30 3763 H 357.123 -0.0206476 0.740712 0
M  V30 3764 H 359.77 0.649686 1.80143 0
M  V30 3765 H 358.075 -1.05588 3.77304 0
M  V30 3766 H 359.772 -0.705549 3.94744 0
M  V30 3767 H 356.362 0.700315 4.2284 0
M  V30 3768 H 360.546 1.55239 4.71396 0
M  V30 3769 H 355.802 2.7533 5.45897 0
M  V30 3770 H 359.976 3.60509 5.95824 0
M  V30 3771 H 357.603 4.21132 6.32892 0
M  V30 3772 N 359.178 -1.55987 0.224894 0
M  V30 3773 C 360.403 -2.03232 -0.41369 0
M  V30 3774 C 360.828 -1.10359 -1.52323 0
M  V30 3775 O 360.186 -0.092395 -1.81064 0
M  V30 3776 C 360.234 -3.48682 -0.919405 0
M  V30 3777 O 359.338 -3.58947 -2.03054 0
M  V30 3778 H 358.679 -0.657428 -0.0931903 0
M  V30 3779 H 361.209 -2.01679 0.34451 0
M  V30 3780 H 361.219 -3.8907 -1.22835 0
M  V30 3781 H 359.894 -4.15761 -0.107339 0
M  V30 3782 H 358.471 -3.30448 -1.72796 0
M  V30 3783 N 360.656 0.0484629 -1.57525 0
M  V30 3784 C 361.884 0.755421 -1.92616 0
M  V30 3785 C 362.299 1.69919 -0.822984 0
M  V30 3786 O 361.656 1.81378 0.202085 0
M  V30 3787 C 361.707 1.52915 -3.27566 0
M  V30 3788 O 361.428 0.62329 -4.33644 0
M  V30 3789 C 362.929 2.33502 -3.76818 0
M  V30 3790 H 360.149 0.213465 -0.63614 0
M  V30 3791 H 362.693 0.0117698 -2.04497 0
M  V30 3792 H 360.848 2.22486 -3.17142 0
M  V30 3793 H 361.262 1.16383 -5.11425 0
M  V30 3794 H 362.736 2.83214 -4.73808 0
M  V30 3795 H 363.213 3.14068 -3.07014 0
M  V30 3796 H 363.819 1.69043 -3.90262 0
M  V30 3797 N 362.134 1.5431 0.320358 0
M  V30 3798 C 363.082 1.84647 1.4145 0
M  V30 3799 C 364.076 0.718624 1.53402 0
M  V30 3800 O 365.282 0.902335 1.5575 0
M  V30 3801 H 361.657 0.585349 0.472091 0
M  V30 3802 H 363.628 2.7614 1.13089 0
M  V30 3803 C 362.377 2.09341 2.77617 0
M  V30 3804 H 361.7 2.9559 2.69196 0
M  V30 3805 H 363.14 2.3452 3.53237 0
M  V30 3806 C 361.599 0.885939 3.25043 0
M  V30 3807 O 362.129 0.0967891 4.01583 0
M  V30 3808 N 360.335 0.696682 2.82125 0
M  V30 3809 H 359.882 1.34006 2.2 0
M  V30 3810 H 359.84 -0.109712 3.14209 0
M  V30 3811 N 363.613 -0.582584 1.46437 0
M  V30 3812 C 364.841 -1.36682 1.55324 0
M  V30 3813 C 365.256 -1.87796 0.194409 0
M  V30 3814 O 364.613 -1.63623 -0.808318 0
M  V30 3815 C 364.664 -2.55426 2.55812 0
M  V30 3816 O 364.385 -2.0643 3.86417 0
M  V30 3817 C 365.886 -3.47976 2.74641 0
M  V30 3818 H 363.106 -0.417545 0.525259 0
M  V30 3819 H 365.65 -0.708219 1.91845 0
M  V30 3820 H 363.805 -3.17275 2.22295 0
M  V30 3821 H 364.219 -2.83762 4.41111 0
M  V30 3822 H 365.693 -4.27775 3.48874 0
M  V30 3823 H 366.17 -3.99919 1.81553 0
M  V30 3824 H 366.776 -2.91962 3.09255 0
M  V30 3825 N 365.091 -1.34144 -0.827227 0
M  V30 3826 C 366.024 -1.19707 -1.94282 0
M  V30 3827 C 367.002 -0.0897256 -1.62352 0
M  V30 3828 O 368.186 -0.254095 -1.8678 0
M  V30 3829 C 365.313 -0.838646 -3.28153 0
M  V30 3830 C 364.359 -1.95514 -3.79047 0
M  V30 3831 S 365.192 -3.56793 -3.99323 0
M  V30 3832 C 366.348 -3.22983 -5.36127 0
M  V30 3833 H 366.581 -2.1414 -2.06231 0
M  V30 3834 H 364.114 -1.19121 -0.982321 0
M  V30 3835 H 366.072 -0.638637 -4.05502 0
M  V30 3836 H 364.733 0.0872776 -3.13979 0
M  V30 3837 H 363.926 -1.658 -4.75948 0
M  V30 3838 H 363.528 -2.11241 -3.08631 0
M  V30 3839 H 365.82 -2.74531 -6.19386 0
M  V30 3840 H 366.763 -4.19008 -5.70822 0
M  V30 3841 H 367.171 -2.59276 -5.01434 0
M  V30 3842 N 366.569 1.04691 -1.17803 0
M  V30 3843 C 367.98 1.59238 -0.974689 0
M  V30 3844 C 368.331 1.90306 0.477292 0
M  V30 3845 O 367.456 1.68846 1.35352 0
M  V30 3846 C 368.051 2.89318 -1.76296 0
M  V30 3847 C 366.61 3.40506 -1.60414 0
M  V30 3848 C 365.757 2.14172 -1.76141 0
M  V30 3849 H 368.708 0.874395 -1.32439 0
M  V30 3850 H 368.729 3.5944 -1.24833 0
M  V30 3851 H 368.241 2.66675 -2.81968 0
M  V30 3852 H 366.342 3.68175 -0.572519 0
M  V30 3853 H 366.455 4.14753 -2.39827 0
M  V30 3854 H 364.819 2.25176 -1.19028 0
M  V30 3855 H 365.602 1.93992 -2.83235 0
M  V30 3856 N 368.047 0.979072 1.23499 0
M  V30 3857 C 368.994 0.517904 2.24914 0
M  V30 3858 C 369.964 -0.442525 1.60097 0
M  V30 3859 O 371.149 -0.350365 1.87556 0
M  V30 3860 C 368.289 -0.174813 3.44657 0
M  V30 3861 C 367.402 0.825721 4.24035 0
M  V30 3862 C 366.537 0.107946 5.3109 0
M  V30 3863 C 365.576 1.09778 6.02175 0
M  V30 3864 N 364.713 0.40925 7.00906 0
M  V30 3865 H 369.553 1.38751 2.63727 0
M  V30 3866 H 367.09 0.695303 1.2963 0
M  V30 3867 H 369.048 -0.593233 4.12961 0
M  V30 3868 H 367.678 -1.0083 3.06648 0
M  V30 3869 H 366.73 1.36253 3.55161 0
M  V30 3870 H 368.042 1.58005 4.73113 0
M  V30 3871 H 367.196 -0.367904 6.05583 0
M  V30 3872 H 365.935 -0.678994 4.8295 0
M  V30 3873 H 364.94 1.5844 5.26476 0
M  V30 3874 H 366.165 1.88536 6.52404 0
M  V30 3875 H 364.111 -0.358506 6.5502 0
M  V30 3876 H 364.028 1.10226 7.47921 0
M  V30 3877 H 365.296 -0.0442557 7.79487 0
M  V30 3878 N 369.525 -1.3858 0.750561 0
M  V30 3879 C 370.771 -2.0095 0.31477 0
M  V30 3880 C 371.126 -1.58509 -1.09053 0
M  V30 3881 O 370.419 -0.8112 -1.7358 0
M  V30 3882 C 370.613 -3.55455 0.372373 0
M  V30 3883 C 370.442 -4.12898 1.78173 0
M  V30 3884 C 369.212 -4.44797 2.39757 0
M  V30 3885 C 371.41 -4.35366 2.7379 0
M  V30 3886 N 369.392 -4.87831 3.72685 0
M  V30 3887 C 370.763 -4.80775 3.91478 0
M  V30 3888 C 372.818 -4.1746 2.71351 0
M  V30 3889 C 371.521 -5.10155 5.07084 0
M  V30 3890 C 373.547 -4.47963 3.86113 0
M  V30 3891 C 372.909 -4.93593 5.02539 0
M  V30 3892 H 369.008 -0.765083 0.161776 0
M  V30 3893 H 371.592 -1.68246 0.979867 0
M  V30 3894 H 369.763 -3.87512 -0.26244 0
M  V30 3895 H 371.495 -4.04614 -0.0834479 0
M  V30 3896 H 368.25 -4.33135 1.91548 0
M  V30 3897 H 368.674 -5.13685 4.40972 0
M  V30 3898 H 373.316 -3.81372 1.82524 0
M  V30 3899 H 371.034 -5.45141 5.96529 0
M  V30 3900 H 374.62 -4.35717 3.85542 0
M  V30 3901 H 373.5 -5.16746 5.89867 0
M  V30 3902 N 371.003 -0.499398 -1.49478 0
M  V30 3903 C 372.414 -0.051215 -1.8663 0
M  V30 3904 C 372.765 1.36238 -1.41186 0
M  V30 3905 O 371.89 2.01502 -0.789051 0
M  V30 3906 C 372.485 -0.0861651 -3.3869 0
M  V30 3907 C 371.044 0.30667 -3.75149 0
M  V30 3908 C 370.191 -0.459397 -2.73468 0
M  V30 3909 H 373.142 -0.712264 -1.41818 0
M  V30 3910 H 373.163 0.709507 -3.73826 0
M  V30 3911 H 372.675 -1.11512 -3.71735 0
M  V30 3912 H 370.776 1.33892 -3.47712 0
M  V30 3913 H 370.889 -0.0116669 -4.79099 0
M  V30 3914 H 369.253 0.0905645 -2.54539 0
M  V30 3915 H 370.036 -1.4884 -3.09357 0
M  V30 3916 N 372.481 1.55866 -0.233164 0
M  V30 3917 C 373.411 2.23783 0.666599 0
M  V30 3918 C 374.392 1.21343 1.19205 0
M  V30 3919 O 375.577 1.4996 1.23392 0
M  V30 3920 C 372.707 2.92671 1.86978 0
M  V30 3921 C 371.661 4.01682 1.47768 0
M  V30 3922 C 370.987 4.57926 2.76058 0
M  V30 3923 C 372.287 5.18126 0.658993 0
M  V30 3924 H 373.981 2.99232 0.100306 0
M  V30 3925 H 371.527 1.43924 0.046804 0
M  V30 3926 H 373.48 3.3888 2.50476 0
M  V30 3927 H 372.204 2.14688 2.46123 0
M  V30 3928 H 370.863 3.56222 0.866106 0
M  V30 3929 H 370.511 3.76659 3.33372 0
M  V30 3930 H 370.211 5.31505 2.50552 0
M  V30 3931 H 371.735 5.06859 3.40479 0
M  V30 3932 H 373.149 5.60644 1.19795 0
M  V30 3933 H 371.546 5.98009 0.500552 0
M  V30 3934 H 372.616 4.83763 -0.331856 0
M  V30 3935 N 373.959 -0.0401083 1.57549 0
M  V30 3936 C 374.922 -1.02871 2.04817 0
M  V30 3937 C 375.922 -1.29708 0.950388 0
M  V30 3938 O 377.112 -1.24897 1.21435 0
M  V30 3939 C 374.244 -2.36443 2.45576 0
M  V30 3940 H 375.437 -0.620631 2.93408 0
M  V30 3941 H 372.99 -0.286667 1.53649 0
M  V30 3942 H 373.725 -2.82021 1.60108 0
M  V30 3943 H 373.51 -2.18296 3.25713 0
M  V30 3944 H 375 -3.07441 2.82612 0
M  V30 3945 N 375.437 -1.54477 -0.31217 0
M  V30 3946 C 376.369 -1.81011 -1.40598 0
M  V30 3947 C 377.382 -0.692546 -1.47335 0
M  V30 3948 O 378.571 -0.969847 -1.49854 0
M  V30 3949 C 375.671 -1.92307 -2.79054 0
M  V30 3950 C 374.844 -3.22594 -2.95384 0
M  V30 3951 C 373.903 -3.24448 -4.1427 0
M  V30 3952 O 372.929 -3.98035 -4.06887 0
M  V30 3953 N 374.131 -2.49042 -5.24365 0
M  V30 3954 H 376.896 -2.75408 -1.18196 0
M  V30 3955 H 374.457 -1.53914 -0.502202 0
M  V30 3956 H 376.449 -1.90962 -3.56813 0
M  V30 3957 H 375.019 -1.04955 -2.94454 0
M  V30 3958 H 374.239 -3.36806 -2.04831 0
M  V30 3959 H 375.527 -4.08593 -3.03198 0
M  V30 3960 H 374.925 -1.88867 -5.33241 0
M  V30 3961 H 373.482 -2.53463 -6.005 0
M  V30 3962 N 376.915 0.57481 -1.46744 0
M  V30 3963 C 378.326 1.15695 -1.46532 0
M  V30 3964 C 378.677 1.95068 -0.210425 0
M  V30 3965 O 377.802 2.05241 0.685944 0
M  V30 3966 C 378.397 2.1048 -2.65487 0
M  V30 3967 C 376.956 2.64002 -2.68291 0
M  V30 3968 C 376.103 1.40026 -2.39349 0
M  V30 3969 H 379.054 0.362325 -1.54509 0
M  V30 3970 H 379.075 2.94074 -2.41455 0
M  V30 3971 H 378.587 1.52683 -3.56805 0
M  V30 3972 H 376.688 3.25646 -1.81067 0
M  V30 3973 H 376.801 3.06197 -3.68483 0
M  V30 3974 H 375.165 1.70106 -1.89568 0
M  V30 3975 H 375.948 0.840485 -3.32852 0
M  V30 3976 N 378.394 1.34581 0.820102 0
M  V30 3977 C 379.327 1.20735 1.93644 0
M  V30 3978 C 380.305 0.0983343 1.62302 0
M  V30 3979 O 381.489 0.263997 1.86642 0
M  V30 3980 C 378.616 0.856037 3.27704 0
M  V30 3981 C 377.662 1.97521 3.78005 0
M  V30 3982 S 378.495 3.58906 3.97425 0
M  V30 3983 C 379.651 3.25822 5.34407 0
M  V30 3984 H 379.884 2.15231 2.05093 0
M  V30 3985 H 377.417 1.1964 0.97599 0
M  V30 3986 H 379.375 0.660133 4.05157 0
M  V30 3987 H 378.036 -0.0706253 3.14021 0
M  V30 3988 H 377.229 1.68321 4.75062 0
M  V30 3989 H 376.831 2.12875 3.07507 0
M  V30 3990 H 379.123 2.77812 6.17922 0
M  V30 3991 H 380.066 4.22029 5.68592 0
M  V30 3992 H 380.474 2.61932 5.00052 0
M  V30 3993 N 379.872 -1.04064 1.18357 0
M  V30 3994 C 381.288 -1.2947 0.933258 0
M  V30 3995 C 381.488 -1.97466 -0.401169 0
M  V30 3996 O 380.544 -2.25528 -1.13549 0
M  V30 3997 C 381.857 -2.15337 2.09882 0
M  V30 3998 C 383.405 -2.28683 2.13712 0
M  V30 3999 C 383.88 -3.17917 3.29686 0
M  V30 4000 N 385.371 -3.25504 3.29547 0
M  V30 4001 C 386.106 -3.94706 4.15926 0
M  V30 4002 N 385.602 -4.66239 5.12439 0
M  V30 4003 N 387.395 -3.90986 4.0384 0
M  V30 4004 H 379.546 -0.583359 2.04232 0
M  V30 4005 H 381.809 -0.319921 0.892387 0
M  V30 4006 H 381.515 -1.72682 3.06389 0
M  V30 4007 H 381.389 -3.16015 2.05947 0
M  V30 4008 H 383.776 -2.70575 1.17784 0
M  V30 4009 H 383.857 -1.27596 2.21705 0
M  V30 4010 H 383.501 -2.76736 4.25887 0
M  V30 4011 H 383.431 -4.19036 3.1893 0
M  V30 4012 H 385.922 -2.74547 2.59677 0
M  V30 4013 H 386.235 -5.16638 5.74722 0
M  V30 4014 H 384.58 -4.65143 5.16398 0
M  V30 4015 H 387.771 -3.34234 3.27727 0
M  V30 4016 H 387.944 -4.44646 4.71375 0
M  V30 4017 N 381.35 -0.985608 -1.22978 0
M  V30 4018 C 382.28 -0.549649 -2.26939 0
M  V30 4019 C 383.261 0.419803 -1.64838 0
M  V30 4020 O 384.446 0.31203 -1.91677 0
M  V30 4021 C 381.576 0.143652 -3.47003 0
M  V30 4022 C 380.53 -0.743606 -4.21491 0
M  V30 4023 C 379.856 0.0822027 -5.34637 0
M  V30 4024 C 381.156 -2.03694 -4.80943 0
M  V30 4025 H 382.85 -1.41862 -2.63658 0
M  V30 4026 H 380.396 -0.683571 -1.26741 0
M  V30 4027 H 382.349 0.459985 -4.18882 0
M  V30 4028 H 381.073 1.04711 -3.09359 0
M  V30 4029 H 379.732 -1.04347 -3.51436 0
M  V30 4030 H 379.38 0.986359 -4.93234 0
M  V30 4031 H 379.08 -0.508377 -5.85397 0
M  V30 4032 H 380.604 0.392797 -6.09335 0
M  V30 4033 H 382.018 -1.78504 -5.44802 0
M  V30 4034 H 380.415 -2.57573 -5.42011 0
M  V30 4035 H 381.485 -2.72042 -4.01399 0
M  V30 4036 N 382.828 1.3818 -0.7579 0
M  V30 4037 C 383.758 2.33027 -0.148597 0
M  V30 4038 C 384.739 1.55085 0.69875 0
M  V30 4039 O 385.924 1.83384 0.639053 0
M  V30 4040 C 383.054 3.3928 0.742034 0
M  V30 4041 C 382.008 4.28 -0.00291946 0
M  V30 4042 C 381.334 5.25146 1.00625 0
M  V30 4043 C 382.634 5.08938 -1.17385 0
M  V30 4044 H 384.328 2.84231 -0.940909 0
M  V30 4045 H 381.874 1.36659 -0.453908 0
M  V30 4046 H 383.827 4.046 1.17799 0
M  V30 4047 H 382.551 2.86569 1.56671 0
M  V30 4048 H 381.21 3.64192 -0.419504 0
M  V30 4049 H 380.858 4.68721 1.8251 0
M  V30 4050 H 380.558 5.85361 0.512428 0
M  V30 4051 H 382.082 5.93342 1.44143 0
M  V30 4052 H 383.496 5.67474 -0.815224 0
M  V30 4053 H 381.893 5.7841 -1.59882 0
M  V30 4054 H 382.963 4.42424 -1.98468 0
M  V30 4055 N 384.306 0.507319 1.49211 0
M  V30 4056 C 385.554 -0.0348839 2.0207 0
M  V30 4057 C 385.875 -1.36898 1.38866 0
M  V30 4058 O 385.145 -1.88133 0.546151 0
M  V30 4059 H 383.725 -0.0158812 0.746831 0
M  V30 4060 H 386.387 0.665998 1.83168 0
M  V30 4061 H 385.483 -0.159917 3.1169 0
M  V30 4062 N 385.784 -1.5574 0.241426 0
M  V30 4063 C 386.734 -2.17803 -0.674233 0
M  V30 4064 C 387.718 -1.13225 -1.14319 0
M  V30 4065 O 388.91 -1.39153 -1.09387 0
M  V30 4066 C 386.039 -2.87682 -1.87333 0
M  V30 4067 C 385.125 -3.99509 -1.42313 0
M  V30 4068 N 385.516 -5.01115 -0.686798 0
M  V30 4069 C 383.814 -4.11964 -1.70885 0
M  V30 4070 C 384.515 -5.79922 -0.454456 0
M  V30 4071 N 383.491 -5.34001 -1.01705 0
M  V30 4072 H 387.293 -2.93718 -0.103447 0
M  V30 4073 H 384.807 -1.62342 0.0435095 0
M  V30 4074 H 386.804 -3.3057 -2.54026 0
M  V30 4075 H 385.464 -2.13269 -2.4484 0
M  V30 4076 H 386.475 -5.16799 -0.337459 0
M  V30 4077 H 383.152 -3.48718 -2.2957 0
M  V30 4078 H 384.542 -6.71768 0.132992 0
M  V30 4079 N 387.262 0.0317525 -1.57568 0
M  V30 4080 C 388.21 1.05165 -2.07468 0
M  V30 4081 C 389.204 1.3761 -0.98792 0
M  V30 4082 O 390.41 1.36546 -1.17282 0
M  V30 4083 H 386.785 0.35666 -0.66204 0
M  V30 4084 H 388.756 0.604958 -2.92203 0
M  V30 4085 C 387.505 2.34488 -2.56731 0
M  V30 4086 H 386.828 2.10383 -3.39969 0
M  V30 4087 H 388.268 3.04203 -2.95358 0
M  V30 4088 C 386.727 3.03266 -1.46736 0
M  V30 4089 O 387.257 3.92988 -0.832069 0
M  V30 4090 N 385.463 2.6455 -1.20256 0
M  V30 4091 H 385.01 1.91674 -1.72102 0
M  V30 4092 H 384.968 3.10886 -0.468737 0
M  V30 4093 N 388.74 1.54641 0.303973 0
M  V30 4094 C 389.988 1.73437 1.0375 0
M  V30 4095 C 390.309 0.521449 1.87899 0
M  V30 4096 O 389.579 -0.46432 1.90318 0
M  V30 4097 H 388.159 0.639518 0.386039 0
M  V30 4098 H 390.821 1.91988 0.335675 0
M  V30 4099 H 389.917 2.62235 1.69231 0
M  V30 4100 N 390.218 -0.567019 1.47046 0
M  V30 4101 C 391.128 -1.70247 1.6141 0
M  V30 4102 C 392.144 -1.66746 0.497157 0
M  V30 4103 O 393.32 -1.86371 0.763389 0
M  V30 4104 C 390.385 -3.06756 1.61561 0
M  V30 4105 C 389.446 -3.21399 2.84607 0
M  V30 4106 C 388.679 -4.51396 2.84741 0
M  V30 4107 O 388.902 -5.36255 1.94388 0
M  V30 4108 O 387.836 -4.69621 3.76483 0
M  V30 4109 H 391.662 -1.61073 2.57467 0
M  V30 4110 H 389.247 -0.735894 1.30019 0
M  V30 4111 H 391.129 -3.8801 1.64396 0
M  V30 4112 H 389.804 -3.16333 0.686684 0
M  V30 4113 H 388.711 -2.39579 2.8732 0
M  V30 4114 H 390.044 -3.16721 3.76761 0
M  V30 4115 N 391.696 -1.35014 -0.812953 0
M  V30 4116 C 392.945 -1.27269 -1.56479 0
M  V30 4117 C 393.258 0.152771 -1.95002 0
M  V30 4118 O 394.464 0.352451 -2.69203 0
M  V30 4119 C 392.92 -2.23159 -2.82362 0
M  V30 4120 C 392.528 -3.71016 -2.511 0
M  V30 4121 C 394.272 -2.24342 -3.60376 0
M  V30 4122 C 392.179 -4.58746 -3.73237 0
M  V30 4123 H 391.109 -0.472829 -0.587324 0
M  V30 4124 H 393.76 -1.6024 -0.894171 0
M  V30 4125 H 392.142 -1.83151 -3.51101 0
M  V30 4126 H 393.316 -4.1962 -1.90409 0
M  V30 4127 H 391.631 -3.72378 -1.86343 0
M  V30 4128 H 394.228 -2.87107 -4.51081 0
M  V30 4129 H 394.571 -1.24542 -3.97234 0
M  V30 4130 H 395.104 -2.62846 -2.98591 0
M  V30 4131 H 391.843 -5.59521 -3.41492 0
M  V30 4132 H 391.363 -4.14871 -4.33176 0
M  V30 4133 H 393.042 -4.73852 -4.40537 0
M  V30 4134 N 393.175 1.03435 -1.18907 0
M  V30 4135 C 394.123 2.13703 -0.918353 0
M  V30 4136 C 395.117 1.68947 0.123767 0
M  V30 4137 O 396.323 1.79983 -0.0249701 0
M  V30 4138 H 392.698 0.698112 -0.279542 0
M  V30 4139 H 394.669 2.33731 -1.85506 0
M  V30 4140 C 393.418 3.44542 -0.467532 0
M  V30 4141 H 392.741 3.79394 -1.26095 0
M  V30 4142 H 394.181 4.22812 -0.317164 0
M  V30 4143 C 392.64 3.26829 0.817588 0
M  V30 4144 O 393.17 3.54975 1.88031 0
M  V30 4145 N 391.376 2.80139 0.772677 0
M  V30 4146 H 390.923 2.57434 -0.0923883 0
M  V30 4147 H 390.881 2.68668 1.63294 0
M  V30 4148 N 394.653 0.992116 1.22453 0
M  V30 4149 C 395.881 0.685944 1.95198 0
M  V30 4150 C 396.296 -0.749233 1.73297 0
M  V30 4151 O 395.653 -1.50549 1.03156 0
M  V30 4152 C 395.704 0.981395 3.47924 0
M  V30 4153 O 395.425 2.36018 3.6909 0
M  V30 4154 C 396.926 0.692815 4.37853 0
M  V30 4155 H 394.146 0.253821 0.621141 0
M  V30 4156 H 396.69 1.32668 1.55626 0
M  V30 4157 H 394.845 0.386481 3.85467 0
M  V30 4158 H 395.259 2.45884 4.63294 0
M  V30 4159 H 396.733 0.949818 5.43767 0
M  V30 4160 H 397.21 -0.373181 4.37612 0
M  V30 4161 H 397.816 1.26874 4.05935 0
M  V30 4162 N 396.131 -1.37776 0.765217 0
M  V30 4163 C 397.061 -2.32945 0.160953 0
M  V30 4164 C 398.042 -1.55454 -0.690516 0
M  V30 4165 O 399.227 -1.83721 -0.629318 0
M  V30 4166 C 396.357 -3.39669 -0.724031 0
M  V30 4167 C 395.311 -4.27992 0.0256173 0
M  V30 4168 C 394.637 -5.25673 -0.978383 0
M  V30 4169 C 395.937 -5.08309 1.20082 0
M  V30 4170 H 397.631 -2.83728 0.955969 0
M  V30 4171 H 395.177 -1.36416 0.461149 0
M  V30 4172 H 397.13 -4.05219 -1.15652 0
M  V30 4173 H 395.854 -2.87396 -1.5515 0
M  V30 4174 H 394.513 -3.63964 0.438812 0
M  V30 4175 H 394.161 -4.69682 -1.80022 0
M  V30 4176 H 393.861 -5.85625 -0.481378 0
M  V30 4177 H 395.385 -5.94098 -1.40995 0
M  V30 4178 H 396.799 -5.67034 0.845307 0
M  V30 4179 H 395.196 -5.77554 1.62947 0
M  V30 4180 H 396.266 -4.41365 2.00811 0
M  V30 4181 N 397.609 -0.515225 -1.4894 0
M  V30 4182 C 398.539 0.244628 -2.32215 0
M  V30 4183 C 399.52 0.949136 -1.41157 0
M  V30 4184 O 400.705 0.937783 -1.70057 0
M  V30 4185 C 397.835 1.30096 -3.22013 0
M  V30 4186 C 396.789 0.715486 -4.21977 0
M  V30 4187 C 396.115 1.87339 -5.00808 0
M  V30 4188 C 397.415 -0.302982 -5.2142 0
M  V30 4189 H 399.109 -0.450501 -2.95991 0
M  V30 4190 H 396.655 -0.218098 -1.42339 0
M  V30 4191 H 398.608 1.84037 -3.79089 0
M  V30 4192 H 397.332 2.02547 -2.56207 0
M  V30 4193 H 395.991 0.197715 -3.66066 0
M  V30 4194 H 395.639 2.58592 -4.31438 0
M  V30 4195 H 395.339 1.48764 -5.68457 0
M  V30 4196 H 396.863 2.41686 -5.60732 0
M  V30 4197 H 398.277 0.148802 -5.73107 0
M  V30 4198 H 396.674 -0.60532 -5.97039 0
M  V30 4199 H 397.744 -1.21395 -4.69459 0
M  V30 4200 N 399.087 1.5561 -0.249682 0
M  V30 4201 C 400.335 1.98618 0.373548 0
M  V30 4202 C 400.656 1.13919 1.58264 0
M  V30 4203 O 399.926 0.222637 1.94631 0
M  V30 4204 H 398.506 0.733571 0.141006 0
M  V30 4205 H 401.168 1.91748 -0.349117 0
M  V30 4206 H 400.264 3.04584 0.680796 0
M  V30 4207 N 400.565 -0.0233959 1.57583 0
M  V30 4208 C 401.513 -1.04063 2.08023 0
M  V30 4209 C 402.507 -1.37084 0.995204 0
M  V30 4210 O 403.713 -1.35923 1.18004 0
M  V30 4211 H 400.088 -0.353144 0.663922 0
M  V30 4212 H 402.059 -0.589453 2.9252 0
M  V30 4213 C 400.808 -2.33123 2.57971 0
M  V30 4214 H 400.131 -2.08577 3.4108 0
M  V30 4215 H 401.571 -3.02632 2.96967 0
M  V30 4216 C 400.03 -3.02483 1.48342 0
M  V30 4217 O 400.56 -3.92541 0.852898 0
M  V30 4218 N 398.766 -2.63909 1.21658 0
M  V30 4219 H 398.313 -1.90758 1.73116 0
M  V30 4220 H 398.271 -3.10633 0.485218 0
M  V30 4221 N 402.043 -1.548 -0.295768 0
M  V30 4222 C 403.292 -1.73538 -1.02798 0
M  V30 4223 C 403.605 -0.531159 -1.8825 0
M  V30 4224 O 404.811 -0.600458 -2.64777 0
M  V30 4225 C 403.267 -3.07051 -1.87744 0
M  V30 4226 C 402.875 -4.34968 -1.07269 0
M  V30 4227 C 404.619 -3.35146 -2.60533 0
M  V30 4228 C 402.526 -5.5953 -1.91521 0
M  V30 4229 H 401.456 -0.646794 -0.387522 0
M  V30 4230 H 404.107 -1.81278 -0.284718 0
M  V30 4231 H 402.489 -2.93289 -2.66078 0
M  V30 4232 H 403.663 -4.5958 -0.335117 0
M  V30 4233 H 401.978 -4.13847 -0.460384 0
M  V30 4234 H 404.575 -4.2541 -3.23929 0
M  V30 4235 H 404.918 -2.54255 -3.29636 0
M  V30 4236 H 405.451 -3.49902 -1.89244 0
M  V30 4237 H 402.19 -6.43103 -1.26878 0
M  V30 4238 H 401.71 -5.39096 -2.62937 0
M  V30 4239 H 403.389 -5.96982 -2.49442 0
M  V30 4240 N 403.521 0.559213 -1.47345 0
M  V30 4241 C 404.469 1.68747 -1.60085 0
M  V30 4242 C 405.463 1.628 -0.46825 0
M  V30 4243 O 406.669 1.68009 -0.645977 0
M  V30 4244 H 403.044 0.558329 -0.503759 0
M  V30 4245 H 405.015 1.55138 -2.54902 0
M  V30 4246 C 403.764 3.07103 -1.63042 0
M  V30 4247 H 403.087 3.12361 -2.49541 0
M  V30 4248 H 404.527 3.85743 -1.76006 0
M  V30 4249 C 402.986 3.34935 -0.363357 0
M  V30 4250 O 403.516 3.98102 0.536416 0
M  V30 4251 N 401.722 2.89574 -0.244 0
M  V30 4252 H 401.269 2.38348 -0.977133 0
M  V30 4253 H 401.227 3.08566 0.602836 0
M  V30 4254 N 404.999 1.35443 0.805782 0
M  V30 4255 C 406.245 1.2996 1.56467 0
M  V30 4256 C 406.6 -0.124742 1.91995 0
M  V30 4257 O 405.893 -1.07533 1.58579 0
M  V30 4258 C 406.087 2.14045 2.86216 0
M  V30 4259 C 405.916 3.64512 2.63365 0
M  V30 4260 C 404.686 4.33744 2.59219 0
M  V30 4261 C 406.884 4.58142 2.33688 0
M  V30 4262 N 404.866 5.69953 2.28094 0
M  V30 4263 C 406.237 5.8248 2.12408 0
M  V30 4264 C 408.292 4.46877 2.19558 0
M  V30 4265 C 406.995 6.96818 1.78429 0
M  V30 4266 C 409.021 5.61065 1.86976 0
M  V30 4267 C 408.383 6.84431 1.66532 0
M  V30 4268 H 404.482 0.530817 0.574245 0
M  V30 4269 H 407.066 1.70333 0.943126 0
M  V30 4270 H 405.237 1.75942 3.46264 0
M  V30 4271 H 406.969 2.00075 3.51784 0
M  V30 4272 H 403.724 3.86365 2.73896 0
M  V30 4273 H 404.148 6.41845 2.15323 0
M  V30 4274 H 408.79 3.52102 2.34061 0
M  V30 4275 H 406.508 7.91559 1.62664 0
M  V30 4276 H 410.094 5.54302 1.7675 0
M  V30 4277 H 408.974 7.71294 1.41688 0
M  V30 4278 N 406.477 -1.02803 1.19454 0
M  V30 4279 C 407.41 -2.107 0.876396 0
M  V30 4280 C 408.388 -1.61741 -0.166897 0
M  V30 4281 O 409.572 -1.88451 -0.0430195 0
M  V30 4282 C 406.699 -3.37262 0.311758 0
M  V30 4283 C 405.745 -4.05093 1.33424 0
M  V30 4284 S 406.578 -4.50498 2.89503 0
M  V30 4285 C 407.734 -5.80277 2.34584 0
M  V30 4286 H 407.967 -2.37362 1.79016 0
M  V30 4287 H 405.5 -1.15755 1.02177 0
M  V30 4288 H 407.458 -4.10499 -0.00748752 0
M  V30 4289 H 406.119 -3.08693 -0.58032 0
M  V30 4290 H 405.312 -4.9611 0.888302 0
M  V30 4291 H 404.914 -3.3803 1.60037 0
M  V30 4292 H 407.206 -6.54873 1.73633 0
M  V30 4293 H 408.149 -6.29651 3.23952 0
M  V30 4294 H 408.557 -5.3599 1.77131 0
M  V30 4295 N 407.956 -0.998596 -1.21925 0
M  V30 4296 C 408.919 -0.558679 -2.22287 0
M  V30 4297 C 409.919 0.361525 -1.56683 0
M  V30 4298 O 411.109 0.152695 -1.73529 0
M  V30 4299 C 408.241 0.18661 -3.40389 0
M  V30 4300 H 409.434 -1.4463 -2.62721 0
M  V30 4301 H 406.987 -0.786413 -1.35075 0
M  V30 4302 H 407.722 1.08996 -3.05435 0
M  V30 4303 H 407.507 -0.474188 -3.89222 0
M  V30 4304 H 408.997 0.482367 -4.14805 0
M  V30 4305 N 409.434 1.37368 -0.772513 0
M  V30 4306 C 410.397 2.28601 -0.165541 0
M  V30 4307 C 411.397 1.48062 0.627238 0
M  V30 4308 O 412.587 1.68268 0.450715 0
M  V30 4309 C 409.719 3.32023 0.772897 0
M  V30 4310 H 410.912 2.83787 -0.969787 0
M  V30 4311 H 408.465 1.46647 -0.540775 0
M  V30 4312 H 409.2 2.81962 1.60212 0
M  V30 4313 H 408.985 3.91555 0.206585 0
M  V30 4314 H 410.475 4.00197 1.19298 0
M  V30 4315 N 410.912 0.523116 1.48665 0
M  V30 4316 C 412.328 0.180511 1.58576 0
M  V30 4317 C 412.528 -1.31597 1.52592 0
M  V30 4318 O 411.584 -2.0937 1.4114 0
M  V30 4319 C 412.897 0.776949 2.90489 0
M  V30 4320 C 414.445 0.745058 3.04003 0
M  V30 4321 C 414.92 1.31995 4.38567 0
M  V30 4322 N 416.411 1.28162 4.45117 0
M  V30 4323 C 417.146 1.6964 5.47731 0
M  V30 4324 N 416.642 2.18816 6.57337 0
M  V30 4325 N 418.435 1.6092 5.38573 0
M  V30 4326 H 410.586 1.4958 1.50797 0
M  V30 4327 H 412.849 0.621772 0.715614 0
M  V30 4328 H 412.555 1.82732 3.00503 0
M  V30 4329 H 412.429 0.25007 3.7637 0
M  V30 4330 H 414.816 -0.296532 2.93606 0
M  V30 4331 H 414.897 1.30933 2.1975 0
M  V30 4332 H 414.541 2.36043 4.49718 0
M  V30 4333 H 414.471 0.731418 5.21496 0
M  V30 4334 H 416.962 0.92155 3.66491 0
M  V30 4335 H 417.275 2.48478 7.31764 0
M  V30 4336 H 415.62 2.22805 6.58318 0
M  V30 4337 H 418.811 1.22304 4.5184 0
M  V30 4338 H 418.984 1.93567 6.18414 0
M  V30 4339 N 412.39 -1.55475 0.257931 0
M  V30 4340 C 413.3 -2.2549 -0.647425 0
M  V30 4341 C 414.316 -1.2748 -1.18427 0
M  V30 4342 O 415.492 -1.6038 -1.2182 0
M  V30 4343 C 412.557 -2.94916 -1.82278 0
M  V30 4344 C 411.618 -4.08363 -1.32432 0
M  V30 4345 C 410.851 -4.74469 -2.44366 0
M  V30 4346 O 411.074 -4.39701 -3.63344 0
M  V30 4347 O 410.008 -5.62763 -2.13497 0
M  V30 4348 H 413.834 -3.03593 -0.0807707 0
M  V30 4349 H 411.419 -1.49377 0.0259962 0
M  V30 4350 H 413.301 -3.38606 -2.50846 0
M  V30 4351 H 411.976 -2.19744 -2.37685 0
M  V30 4352 H 410.883 -3.69166 -0.605605 0
M  V30 4353 H 412.216 -4.85385 -0.816211 0
M  V30 4354 N 413.868 0.0150385 -1.57593 0
M  V30 4355 C 414.815 1.01126 -2.07466 0
M  V30 4356 C 415.785 1.35064 -0.966794 0
M  V30 4357 O 416.97 1.4516 -1.23827 0
M  V30 4358 C 414.11 2.30276 -2.57035 0
M  V30 4359 C 413.223 2.02373 -3.81666 0
M  V30 4360 C 412.358 3.25496 -4.19793 0
M  V30 4361 C 411.397 2.93211 -5.37303 0
M  V30 4362 N 410.534 4.08826 -5.70794 0
M  V30 4363 H 415.374 0.57901 -2.92321 0
M  V30 4364 H 412.911 0.27426 -1.44521 0
M  V30 4365 H 414.869 3.05757 -2.83846 0
M  V30 4366 H 413.499 2.71197 -1.75077 0
M  V30 4367 H 412.551 1.17327 -3.61854 0
M  V30 4368 H 413.863 1.74567 -4.67256 0
M  V30 4369 H 413.017 4.09333 -4.47807 0
M  V30 4370 H 411.756 3.56428 -3.32882 0
M  V30 4371 H 410.761 2.07777 -5.09027 0
M  V30 4372 H 411.986 2.63542 -6.25877 0
M  V30 4373 H 409.932 4.39682 -4.86842 0
M  V30 4374 H 409.849 3.84491 -6.50924 0
M  V30 4375 H 411.117 4.93496 -6.03392 0
M  V30 4376 N 415.346 1.54954 0.287554 0
M  V30 4377 C 416.256 1.8991 1.37736 0
M  V30 4378 C 417.272 0.794701 1.54792 0
M  V30 4379 O 418.448 1.09243 1.69198 0
M  V30 4380 C 415.513 2.15108 2.71899 0
M  V30 4381 C 414.574 3.38752 2.63715 0
M  V30 4382 C 413.807 3.62739 3.91479 0
M  V30 4383 O 414.03 2.89492 4.91478 0
M  V30 4384 O 412.964 4.56267 3.92561 0
M  V30 4385 H 416.79 2.82652 1.11092 0
M  V30 4386 H 414.375 1.41315 0.484807 0
M  V30 4387 H 416.257 2.32806 3.51254 0
M  V30 4388 H 414.932 1.25551 2.9836 0
M  V30 4389 H 413.839 3.26405 1.82786 0
M  V30 4390 H 415.172 4.28483 2.42205 0
M  V30 4391 N 416.824 -0.551391 1.4764 0
M  V30 4392 C 417.754 -1.66757 1.63445 0
M  V30 4393 C 418.735 -1.63077 0.483742 0
M  V30 4394 O 419.92 -1.80607 0.71377 0
M  V30 4395 C 417.05 -3.05387 1.65396 0
M  V30 4396 C 416.004 -3.23918 2.79752 0
M  V30 4397 C 415.33 -4.63393 2.66779 0
M  V30 4398 C 416.63 -3.08735 4.21284 0
M  V30 4399 H 418.324 -1.53786 2.56886 0
M  V30 4400 H 415.87 -0.738415 1.23626 0
M  V30 4401 H 417.823 -3.83325 1.75043 0
M  V30 4402 H 416.547 -3.19332 0.685195 0
M  V30 4403 H 415.206 -2.48391 2.69625 0
M  V30 4404 H 414.854 -4.74144 1.67918 0
M  V30 4405 H 414.554 -4.7674 3.43501 0
M  V30 4406 H 416.078 -5.43458 2.78364 0
M  V30 4407 H 417.492 -3.76484 4.32357 0
M  V30 4408 H 415.889 -3.33588 4.98838 0
M  V30 4409 H 416.959 -2.0541 4.39243 0
M  V30 4410 N 418.302 -1.35869 -0.798587 0
M  V30 4411 C 419.212 -1.31578 -1.94228 0
M  V30 4412 C 420.228 -0.21939 -1.72611 0
M  V30 4413 O 421.404 -0.450167 -1.96305 0
M  V30 4414 C 418.469 -1.09528 -3.28944 0
M  V30 4415 C 417.53 -2.28556 -3.63402 0
M  V30 4416 C 416.763 -2.07549 -4.9169 0
M  V30 4417 O 416.986 -1.046 -5.60727 0
M  V30 4418 O 415.92 -2.95106 -5.24591 0
M  V30 4419 H 419.746 -2.27847 -2.00796 0
M  V30 4420 H 417.331 -1.16322 -0.937526 0
M  V30 4421 H 419.213 -0.991127 -4.09579 0
M  V30 4422 H 417.888 -0.16315 -3.23289 0
M  V30 4423 H 416.795 -2.44538 -2.83112 0
M  V30 4424 H 418.128 -3.20244 -3.73771 0
M  V30 4425 N 419.78 1.02168 -1.19998 0
M  V30 4426 C 421.026 1.75945 -1.00852 0
M  V30 4427 C 421.359 1.88702 0.458828 0
M  V30 4428 O 420.634 1.40911 1.34069 0
M  V30 4429 C 420.917 3.18154 -1.68671 0
M  V30 4430 C 420.77 3.13224 -3.22817 0
M  V30 4431 C 422.089 4.16711 -1.41561 0
M  V30 4432 H 419.208 0.638673 -0.367785 0
M  V30 4433 H 421.85 1.19222 -1.4794 0
M  V30 4434 H 420 3.66586 -1.28636 0
M  V30 4435 H 421.672 2.72635 -3.72112 0
M  V30 4436 H 419.915 2.50751 -3.53986 0
M  V30 4437 H 420.586 4.13728 -3.65422 0
M  V30 4438 H 423.062 3.76913 -1.76284 0
M  V30 4439 H 421.938 5.14391 -1.91553 0
M  V30 4440 H 422.199 4.40774 -0.342193 0
M  V30 4441 N 421.258 1.00505 1.21394 0
M  V30 4442 C 422.483 0.706367 1.95001 0
M  V30 4443 C 422.908 -0.72463 1.73582 0
M  V30 4444 O 422.266 -1.49702 1.0227 0
M  V30 4445 C 422.314 1.03299 3.45487 0
M  V30 4446 O 421.418 0.138275 4.12168 0
M  V30 4447 H 420.759 0.263175 0.609619 0
M  V30 4448 H 423.289 1.34531 1.54151 0
M  V30 4449 H 423.299 0.979872 3.96059 0
M  V30 4450 H 421.974 2.07567 3.60401 0
M  V30 4451 H 420.551 0.247928 3.72075 0
M  V30 4452 N 422.737 -1.36956 0.779787 0
M  V30 4453 C 423.985 -1.99097 0.347079 0
M  V30 4454 C 424.306 -1.62206 -1.08232 0
M  V30 4455 O 423.576 -0.891373 -1.74446 0
M  V30 4456 H 422.156 -0.736409 0.125342 0
M  V30 4457 H 424.818 -1.67308 0.999696 0
M  V30 4458 H 423.914 -3.09107 0.431162 0
M  V30 4459 N 424.215 -0.530993 -1.48385 0
M  V30 4460 C 425.461 -0.00538653 -2.03399 0
M  V30 4461 C 425.816 1.31899 -1.40073 0
M  V30 4462 O 425.109 1.83901 -0.537676 0
M  V30 4463 C 425.303 0.172742 -3.56982 0
M  V30 4464 C 425.132 -1.13282 -4.35198 0
M  V30 4465 C 423.902 -1.69296 -4.76096 0
M  V30 4466 C 426.1 -2.04367 -4.71952 0
M  V30 4467 N 424.082 -2.9413 -5.38851 0
M  V30 4468 C 425.453 -3.13777 -5.34737 0
M  V30 4469 C 427.508 -2.04681 -4.53883 0
M  V30 4470 C 426.211 -4.23567 -5.81363 0
M  V30 4471 C 428.237 -3.13466 -5.01491 0
M  V30 4472 C 427.599 -4.21595 -5.64302 0
M  V30 4473 H 423.698 -0.0434945 -0.780789 0
M  V30 4474 H 426.282 -0.712495 -1.81195 0
M  V30 4475 H 424.453 0.848937 -3.79009 0
M  V30 4476 H 426.185 0.698046 -3.98634 0
M  V30 4477 H 422.94 -1.23422 -4.57235 0
M  V30 4478 H 423.364 -3.57689 -5.74794 0
M  V30 4479 H 428.006 -1.22378 -4.04702 0
M  V30 4480 H 425.724 -5.06648 -6.2955 0
M  V30 4481 H 429.31 -3.14765 -4.893 0
M  V30 4482 H 428.19 -5.04384 -6.00472 0
M  V30 4483 N 425.693 1.55336 -0.266172 0
M  V30 4484 C 426.921 2.03801 0.356756 0
M  V30 4485 C 427.336 1.14485 1.50129 0
M  V30 4486 O 426.693 0.163121 1.8177 0
M  V30 4487 C 426.744 3.51455 0.846281 0
M  V30 4488 O 426.465 4.37371 -0.252663 0
M  V30 4489 C 427.966 4.15767 1.53794 0
M  V30 4490 H 425.186 0.665906 0.0825218 0
M  V30 4491 H 427.73 2.00636 -0.39566 0
M  V30 4492 H 425.885 3.55092 1.54881 0
M  V30 4493 H 426.299 5.24358 0.122173 0
M  V30 4494 H 427.773 5.20714 1.83198 0
M  V30 4495 H 428.25 3.63404 2.46646 0
M  V30 4496 H 428.856 4.16107 0.879488 0
M  V30 4497 N 427.171 -0.0066808 1.57599 0
M  V30 4498 C 428.118 -1.00024 2.08 0
M  V30 4499 C 429.088 -1.34549 0.973943 0
M  V30 4500 O 430.273 -1.44502 1.24595 0
M  V30 4501 C 427.413 -2.2891 2.58252 0
M  V30 4502 C 426.526 -2.00346 3.82734 0
M  V30 4503 C 425.661 -3.23265 4.21513 0
M  V30 4504 C 424.7 -2.90357 5.3885 0
M  V30 4505 N 423.837 -4.05793 5.72954 0
M  V30 4506 H 428.677 -0.563499 2.92624 0
M  V30 4507 H 426.214 -0.266592 1.44664 0
M  V30 4508 H 428.172 -3.04247 2.85464 0
M  V30 4509 H 426.802 -2.70265 1.76512 0
M  V30 4510 H 425.854 -1.15406 3.62471 0
M  V30 4511 H 427.166 -1.72086 4.68175 0
M  V30 4512 H 426.32 -4.06953 4.49971 0
M  V30 4513 H 425.059 -3.54657 3.34768 0
M  V30 4514 H 424.064 -2.05075 5.10122 0
M  V30 4515 H 425.289 -2.60219 6.27266 0
M  V30 4516 H 423.235 -4.37094 4.89167 0
M  V30 4517 H 423.152 -3.81034 6.52954 0
M  V30 4518 H 424.42 -4.90289 6.06001 0
M  V30 4519 N 428.649 -1.55105 -0.279332 0
M  V30 4520 C 429.612 -1.86783 -1.32834 0
M  V30 4521 C 430.612 -0.74199 -1.42657 0
M  V30 4522 O 431.802 -1.0102 -1.41918 0
M  V30 4523 C 428.934 -2.06746 -2.71052 0
M  V30 4524 H 430.127 -2.8055 -1.05979 0
M  V30 4525 H 427.68 -1.47499 -0.517087 0
M  V30 4526 H 428.415 -1.15339 -3.03097 0
M  V30 4527 H 428.2 -2.88711 -2.65309 0
M  V30 4528 H 429.69 -2.32549 -3.46858 0
M  V30 4529 N 430.127 0.543554 -1.4793 0
M  V30 4530 C 431.037 1.67657 -1.64098 0
M  V30 4531 C 432.053 1.65934 -0.523622 0
M  V30 4532 O 433.229 1.85133 -0.792943 0
M  V30 4533 C 430.294 3.04146 -1.66421 0
M  V30 4534 C 429.355 3.16831 -2.89684 0
M  V30 4535 C 428.588 4.46809 -2.91886 0
M  V30 4536 O 428.811 5.33095 -2.02895 0
M  V30 4537 O 427.745 4.63573 -3.83906 0
M  V30 4538 H 431.571 1.56957 -2.59997 0
M  V30 4539 H 429.156 0.715116 -1.31173 0
M  V30 4540 H 431.038 3.85346 -1.70548 0
M  V30 4541 H 429.713 3.152 -0.736923 0
M  V30 4542 H 428.62 2.34977 -2.91095 0
M  V30 4543 H 429.953 3.10687 -3.81752 0
M  V30 4544 N 431.605 1.3629 0.791371 0
M  V30 4545 C 432.535 1.33137 1.91825 0
M  V30 4546 C 433.516 0.203168 1.68882 0
M  V30 4547 O 434.701 0.400509 1.90025 0
M  V30 4548 C 431.831 1.11793 3.28816 0
M  V30 4549 C 430.785 2.21417 3.66277 0
M  V30 4550 C 430.111 1.85218 5.01596 0
M  V30 4551 C 431.411 3.63489 3.75064 0
M  V30 4552 H 433.105 2.2743 1.9472 0
M  V30 4553 H 430.651 1.09479 0.935437 0
M  V30 4554 H 432.604 1.08222 4.07266 0
M  V30 4555 H 431.328 0.139501 3.26302 0
M  V30 4556 H 429.987 2.2411 2.90121 0
M  V30 4557 H 429.635 0.859544 4.95602 0
M  V30 4558 H 429.335 2.58611 5.27631 0
M  V30 4559 H 430.859 1.832 5.82469 0
M  V30 4560 H 432.273 3.63034 4.43711 0
M  V30 4561 H 430.67 4.35771 4.12582 0
M  V30 4562 H 431.74 3.98536 2.76219 0
M  V30 4563 N 433.083 -1.0153 1.20538 0
M  V30 4564 C 433.993 -2.13557 0.971113 0
M  V30 4565 C 435.009 -1.73845 -0.0734366 0
M  V30 4566 O 436.185 -2.01075 0.114299 0
M  V30 4567 C 433.25 -3.42661 0.527639 0
M  V30 4568 C 432.311 -3.96608 1.64319 0
M  V30 4569 C 431.544 -5.1955 1.22078 0
M  V30 4570 O 431.767 -5.70329 0.0900198 0
M  V30 4571 O 430.701 -5.66681 2.02871 0
M  V30 4572 H 434.527 -2.3619 1.90913 0
M  V30 4573 H 432.112 -1.11946 0.989362 0
M  V30 4574 H 433.994 -4.20404 0.289621 0
M  V30 4575 H 432.669 -3.21441 -0.381779 0
M  V30 4576 H 431.576 -3.20139 1.93551 0
M  V30 4577 H 432.909 -4.22219 2.52966 0
M  V30 4578 N 434.561 -1.01147 -1.20859 0
M  V30 4579 C 435.524 -0.582224 -2.21682 0
M  V30 4580 C 436.524 0.344887 -1.57058 0
M  V30 4581 O 437.714 0.134281 -1.73682 0
M  V30 4582 C 434.846 0.150496 -3.40568 0
M  V30 4583 H 436.039 -1.47408 -2.61172 0
M  V30 4584 H 433.592 -0.800695 -1.34233 0
M  V30 4585 H 434.327 1.0575 -3.06574 0
M  V30 4586 H 434.112 -0.515444 -3.88697 0
M  V30 4587 H 435.602 0.438344 -4.15293 0
M  V30 4588 N 436.039 1.36541 -0.78704 0
M  V30 4589 C 436.969 2.32659 -0.197992 0
M  V30 4590 C 437.95 1.56533 0.665697 0
M  V30 4591 O 439.135 1.84698 0.60001 0
M  V30 4592 C 436.265 3.40778 0.669901 0
M  V30 4593 C 435.219 4.27897 -0.0937039 0
M  V30 4594 C 434.545 5.27163 0.894629 0
M  V30 4595 C 435.845 5.06334 -1.28154 0
M  V30 4596 H 437.539 2.82171 -1.00099 0
M  V30 4597 H 435.085 1.35665 -0.482793 0
M  V30 4598 H 437.038 4.07008 1.09191 0
M  V30 4599 H 435.762 2.89827 1.50558 0
M  V30 4600 H 434.421 3.6322 -0.49666 0
M  V30 4601 H 434.069 4.72486 1.72527 0
M  V30 4602 H 433.769 5.86317 0.388149 0
M  V30 4603 H 435.293 5.96266 1.31525 0
M  V30 4604 H 436.707 5.65617 -0.93541 0
M  V30 4605 H 435.104 5.74888 -1.72115 0
M  V30 4606 H 436.174 4.38114 -2.07807 0
M  V30 4607 N 437.518 0.538854 1.48102 0
M  V30 4608 C 438.746 0.0123136 2.06896 0
M  V30 4609 C 439.161 -1.27312 1.39417 0
M  V30 4610 O 438.518 -1.75949 0.484582 0
M  V30 4611 C 438.569 -0.206118 3.60912 0
M  V30 4612 O 438.29 1.0284 4.25859 0
M  V30 4613 C 439.791 -0.772033 4.36526 0
M  V30 4614 H 437.011 0.0375239 0.66995 0
M  V30 4615 H 439.555 0.747032 1.90367 0
M  V30 4616 H 437.71 -0.89091 3.77017 0
M  V30 4617 H 438.124 0.814654 5.18135 0
M  V30 4618 H 439.598 -0.874251 5.45033 0
M  V30 4619 H 440.075 -1.77904 4.01555 0
M  V30 4620 H 440.681 -0.123526 4.25121 0
M  V30 4621 N 438.996 -1.55193 0.274407 0
M  V30 4622 C 440.407 -1.85358 -0.223488 0
M  V30 4623 C 440.758 -1.19642 -1.555 0
M  V30 4624 O 439.883 -0.484498 -2.10907 0
M  V30 4625 C 440.478 -3.36282 -0.412285 0
M  V30 4626 C 439.037 -3.66574 -0.854413 0
M  V30 4627 C 438.184 -2.7725 0.0527056 0
M  V30 4628 H 441.135 -1.50743 0.496215 0
M  V30 4629 H 441.156 -3.59349 -1.25094 0
M  V30 4630 H 440.668 -3.84083 0.556965 0
M  V30 4631 H 438.769 -3.24273 -1.83516 0
M  V30 4632 H 438.882 -4.74073 -0.692226 0
M  V30 4633 H 437.246 -2.50447 -0.463484 0
M  V30 4634 H 438.029 -3.27865 1.01783 0
M  V30 4635 N 440.474 -0.00167713 -1.576 0
M  V30 4636 C 441.723 0.682021 -1.89819 0
M  V30 4637 C 442.036 1.74844 -0.876871 0
M  V30 4638 O 443.242 2.48688 -1.08934 0
M  V30 4639 C 441.698 1.26425 -3.36964 0
M  V30 4640 C 441.306 0.232568 -4.47396 0
M  V30 4641 C 443.05 1.92604 -3.78291 0
M  V30 4642 C 440.957 0.824882 -5.85619 0
M  V30 4643 H 439.887 0.258499 -0.708304 0
M  V30 4644 H 442.538 -0.0624957 -1.83394 0
M  V30 4645 H 440.92 2.05949 -3.38232 0
M  V30 4646 H 442.094 -0.5382 -4.57646 0
M  V30 4647 H 440.409 -0.32888 -4.15099 0
M  V30 4648 H 443.006 2.37827 -4.78897 0
M  V30 4649 H 443.349 2.75732 -3.11894 0
M  V30 4650 H 443.882 1.19812 -3.79328 0
M  V30 4651 H 440.621 0.0323542 -6.55492 0
M  V30 4652 H 440.141 1.56477 -5.79029 0
M  V30 4653 H 441.82 1.32301 -6.33329 0
M  V30 4654 N 441.952 1.55251 0.271103 0
M  V30 4655 C 443.198 1.76207 1.00394 0
M  V30 4656 C 443.531 0.562604 1.85872 0
M  V30 4657 O 442.806 -0.439785 1.89463 0
M  V30 4658 C 443.089 3.06828 1.8849 0
M  V30 4659 C 442.942 4.37134 1.05992 0
M  V30 4660 C 444.261 3.33503 2.87165 0
M  V30 4661 H 441.38 0.641086 0.363562 0
M  V30 4662 H 444.022 1.87982 0.276189 0
M  V30 4663 H 442.172 2.96921 2.5054 0
M  V30 4664 H 443.844 4.59001 0.459978 0
M  V30 4665 H 442.087 4.32275 0.363443 0
M  V30 4666 H 442.758 5.2486 1.70955 0
M  V30 4667 H 445.234 3.43215 2.3525 0
M  V30 4668 H 444.11 4.2616 3.45946 0
M  V30 4669 H 444.371 2.53235 3.62387 0
M  V30 4670 N 443.43 -0.535701 1.48216 0
M  V30 4671 C 444.378 -1.66179 1.62749 0
M  V30 4672 C 445.372 -1.62034 0.49409 0
M  V30 4673 O 446.578 -1.6696 0.672624 0
M  V30 4674 H 442.953 -0.550244 0.512578 0
M  V30 4675 H 444.924 -1.51063 2.57337 0
M  V30 4676 C 443.673 -3.04471 1.67907 0
M  V30 4677 H 442.996 -3.08351 2.54479 0
M  V30 4678 H 444.436 -3.82894 1.82121 0
M  V30 4679 C 442.895 -3.34314 0.416596 0
M  V30 4680 O 443.425 -3.98905 -0.473014 0
M  V30 4681 N 441.631 -2.89149 0.290038 0
M  V30 4682 H 441.178 -2.36764 1.01493 0
M  V30 4683 H 441.136 -3.09486 -0.55367 0
M  V30 4684 N 444.908 -1.36708 -0.784132 0
M  V30 4685 C 445.84 -1.27333 -1.90575 0
M  V30 4686 C 446.853 -0.191706 -1.61667 0
M  V30 4687 O 448.042 -0.446854 -1.72816 0
M  V30 4688 C 445.142 -0.943177 -3.25511 0
M  V30 4689 C 444.315 -2.12776 -3.82158 0
M  V30 4690 C 443.374 -1.76983 -4.95544 0
M  V30 4691 O 442.4 -2.49134 -5.11782 0
M  V30 4692 N 443.602 -0.706624 -5.76183 0
M  V30 4693 H 446.367 -2.23974 -1.99138 0
M  V30 4694 H 443.928 -1.30171 -0.962656 0
M  V30 4695 H 445.92 -0.684799 -3.98864 0
M  V30 4696 H 444.49 -0.0657333 -3.12531 0
M  V30 4697 H 443.71 -2.54863 -3.0073 0
M  V30 4698 H 444.998 -2.91904 -4.16737 0
M  V30 4699 H 444.396 -0.107643 -5.65598 0
M  V30 4700 H 442.953 -0.50808 -6.49817 0
M  V30 4701 N 446.386 1.0089 -1.21074 0
M  V30 4702 C 447.349 2.0775 -0.968129 0
M  V30 4703 C 448.349 1.6069 0.0593445 0
M  V30 4704 O 449.539 1.73293 -0.177525 0
M  V30 4705 C 446.671 3.37794 -0.459108 0
M  V30 4706 H 447.864 2.30707 -1.9161 0
M  V30 4707 H 445.417 1.17807 -1.02719 0
M  V30 4708 H 446.152 3.20516 0.49397 0
M  V30 4709 H 445.937 3.7328 -1.20019 0
M  V30 4710 H 447.427 4.16454 -0.309099 0
M  V30 4711 N 447.864 1.01787 1.20321 0
M  V30 4712 C 448.812 0.58254 2.25187 0
M  V30 4713 C 449.806 -0.379359 1.65098 0
M  V30 4714 O 451.012 -0.249142 1.78267 0
M  V30 4715 H 447.387 0.170078 0.732514 0
M  V30 4716 H 449.358 1.47788 2.59232 0
M  V30 4717 C 448.107 -0.0620885 3.47645 0
M  V30 4718 H 447.43 0.669069 3.94162 0
M  V30 4719 H 448.87 -0.329784 4.22716 0
M  V30 4720 C 447.329 -1.3053 3.10586 0
M  V30 4721 O 447.859 -2.39848 3.22236 0
M  V30 4722 N 446.065 -1.18988 2.65123 0
M  V30 4723 H 445.612 -0.300341 2.55843 0
M  V30 4724 H 445.57 -2.02267 2.40698 0
M  V30 4725 N 449.342 -1.36122 0.79427 0
M  V30 4726 C 450.567 -2.03891 0.379871 0
M  V30 4727 C 450.992 -1.59488 -0.997251 0
M  V30 4728 O 450.35 -0.765652 -1.64339 0
M  V30 4729 C 450.398 -3.57687 0.457442 0
M  V30 4730 O 449.502 -4.08931 -0.5338 0
M  V30 4731 H 448.843 -0.6443 0.160541 0
M  V30 4732 H 451.373 -1.73976 1.07673 0
M  V30 4733 H 451.383 -4.06721 0.322792 0
M  V30 4734 H 450.058 -3.89357 1.46199 0
M  V30 4735 H 448.635 -3.71154 -0.360409 0
M  V30 4736 N 450.82 -0.546701 -1.47814 0
M  V30 4737 C 452.097 0.0464413 -1.95545 0
M  V30 4738 C 452.477 1.4962 -1.48919 0
M  V30 4739 O 451.825 2.16752 -0.723232 0
M  V30 4740 C 452.035 -0.0881298 -3.48889 0
M  V30 4741 C 453.383 0.0626059 -4.24554 0
M  V30 4742 O 454.407 -0.0151555 -3.56197 0
M  V30 4743 O 453.266 0.228071 -5.46024 0
M  V30 4744 H 450.36 0.0700004 -0.824032 0
M  V30 4745 H 452.906 -0.612482 -1.58262 0
M  V30 4746 H 451.678 -1.09737 -3.75597 0
M  V30 4747 H 451.301 0.608886 -3.9291 0
M  V30 4748 N 452.299 1.55045 -0.282633 0
M  V30 4749 C 453.524 2.04628 0.337977 0
M  V30 4750 C 453.949 1.15937 1.48123 0
M  V30 4751 O 453.307 0.159532 1.80597 0
M  V30 4752 C 453.355 3.51854 0.78936 0
M  V30 4753 O 452.459 3.66236 1.89592 0
M  V30 4754 H 451.8 0.660434 0.0687261 0
M  V30 4755 H 454.33 2.00261 -0.419124 0
M  V30 4756 H 454.34 3.93361 1.08311 0
M  V30 4757 H 453.015 4.15873 -0.0470419 0
M  V30 4758 H 451.592 3.36633 1.60413 0
M  V30 4759 N 453.777 0.010035 1.57597 0
M  V30 4760 C 455.007 -0.682422 1.95004 0
M  V30 4761 C 455.415 -1.67278 0.884014 0
M  V30 4762 O 454.758 -1.83129 -0.144672 0
M  V30 4763 C 454.82 -1.46141 3.28456 0
M  V30 4764 C 454.484 -0.631523 4.52615 0
M  V30 4765 C 455.481 0.0850905 5.1983 0
M  V30 4766 C 453.166 -0.574539 4.99003 0
M  V30 4767 C 455.16 0.847566 6.3174 0
M  V30 4768 C 452.847 0.191655 6.10799 0
M  V30 4769 C 453.845 0.901432 6.77025 0
M  V30 4770 O 453.533 1.65511 7.86677 0
M  V30 4771 H 453.265 -0.194361 0.647456 0
M  V30 4772 H 455.819 0.060312 2.05311 0
M  V30 4773 H 454.049 -2.24885 3.14585 0
M  V30 4774 H 455.738 -2.04016 3.50902 0
M  V30 4775 H 456.504 0.0502812 4.84974 0
M  V30 4776 H 452.383 -1.11654 4.47274 0
M  V30 4777 H 455.927 1.4021 6.83364 0
M  V30 4778 H 451.824 0.228249 6.45096 0
M  V30 4779 H 452.592 1.57287 8.03245 0
M  V30 4780 N 455.255 -1.55392 -0.262866 0
M  V30 4781 C 456.203 -1.8977 -1.345 0
M  V30 4782 C 457.197 -0.775063 -1.50629 0
M  V30 4783 O 458.403 -0.959519 -1.52293 0
M  V30 4784 H 454.778 -0.602467 -0.450041 0
M  V30 4785 H 456.749 -2.80147 -1.02762 0
M  V30 4786 C 455.498 -2.19501 -2.69657 0
M  V30 4787 H 454.821 -3.05378 -2.5804 0
M  V30 4788 H 456.261 -2.47469 -3.44289 0
M  V30 4789 C 454.72 -1.00597 -3.21531 0
M  V30 4790 O 455.25 -0.245768 -4.00947 0
M  V30 4791 N 453.456 -0.800911 -2.79345 0
M  V30 4792 H 453.003 -1.42079 -2.14875 0
M  V30 4793 H 452.961 -0.00697996 -3.14399 0
M  V30 4794 N 456.733 0.527833 -1.48498 0
M  V30 4795 C 457.663 1.64136 -1.66077 0
M  V30 4796 C 458.644 1.62286 -0.509625 0
M  V30 4797 O 459.829 1.79449 -0.742413 0
M  V30 4798 C 456.959 3.02717 -1.70234 0
M  V30 4799 C 455.913 3.19426 -2.8487 0
M  V30 4800 C 455.239 4.5909 -2.74118 0
M  V30 4801 C 456.539 3.01993 -4.26142 0
M  V30 4802 H 458.233 1.4968 -2.593 0
M  V30 4803 H 455.779 0.718654 -1.24785 0
M  V30 4804 H 457.732 3.80491 -1.8112 0
M  V30 4805 H 456.456 3.18201 -0.735911 0
M  V30 4806 H 455.115 2.4407 -2.73542 0
M  V30 4807 H 454.763 4.71413 -1.7544 0
M  V30 4808 H 454.463 4.71214 -3.51042 0
M  V30 4809 H 455.987 5.3896 -2.86974 0
M  V30 4810 H 457.401 3.69558 -4.38292 0
M  V30 4811 H 455.798 3.2561 -5.04082 0
M  V30 4812 H 456.868 1.98396 -4.42456 0
M  V30 4813 N 458.211 1.37122 0.776871 0
M  V30 4814 C 459.488 1.22586 1.52421 0
M  V30 4815 C 459.868 -0.182726 2.10308 0
M  V30 4816 O 459.216 -1.18979 1.9508 0
M  V30 4817 C 459.426 2.31782 2.60918 0
M  V30 4818 C 460.774 2.69071 3.2846 0
M  V30 4819 O 461.798 2.3092 2.71209 0
M  V30 4820 O 460.657 3.3478 4.31954 0
M  V30 4821 H 457.751 0.478045 0.674835 0
M  V30 4822 H 460.297 1.48888 0.814275 0
M  V30 4823 H 459.069 3.26131 2.16227 0
M  V30 4824 H 458.692 2.06916 3.39517 0
M  V30 4825 N 459.689 -1.00246 1.21608 0
M  V30 4826 C 460.914 -1.78167 1.06167 0
M  V30 4827 C 461.339 -1.84138 -0.384035 0
M  V30 4828 O 460.697 -1.28683 -1.27712 0
M  V30 4829 C 460.745 -3.19786 1.66642 0
M  V30 4830 O 459.849 -4.02153 0.913613 0
M  V30 4831 H 459.19 -0.549 0.37349 0
M  V30 4832 H 461.72 -1.25994 1.61204 0
M  V30 4833 H 461.73 -3.70451 1.70969 0
M  V30 4834 H 460.405 -3.14754 2.7185 0
M  V30 4835 H 458.982 -3.60711 0.945635 0
M  V30 4836 N 461.167 -1.02423 -1.1978 0
M  V30 4837 C 462.13 -0.605703 -2.21052 0
M  V30 4838 C 463.13 0.328209 -1.57415 0
M  V30 4839 O 464.32 0.115853 -1.73814 0
M  V30 4840 C 461.452 0.114366 -3.40708 0
M  V30 4841 H 462.645 -1.5017 -2.59594 0
M  V30 4842 H 460.198 -0.814888 -1.33376 0
M  V30 4843 H 460.933 1.02492 -3.07678 0
M  V30 4844 H 460.718 -0.556641 -3.88129 0
M  V30 4845 H 462.208 0.394272 -4.15735 0
M  V30 4846 N 462.645 1.35699 -0.801477 0
M  V30 4847 C 463.575 2.32436 -0.222658 0
M  V30 4848 C 464.556 1.5723 0.649057 0
M  V30 4849 O 465.741 1.85324 0.580387 0
M  V30 4850 C 462.871 3.41469 0.633719 0
M  V30 4851 C 461.825 4.27774 -0.139083 0
M  V30 4852 C 461.151 5.28082 0.838666 0
M  V30 4853 C 462.451 5.04946 -1.33517 0
M  V30 4854 H 464.145 2.81094 -1.03086 0
M  V30 4855 H 461.691 1.35146 -0.497155 0
M  V30 4856 H 463.644 4.08143 1.04868 0
M  V30 4857 H 462.368 2.91408 1.47475 0
M  V30 4858 H 461.027 3.62673 -0.535156 0
M  V30 4859 H 460.675 4.7429 1.67506 0
M  V30 4860 H 460.375 5.86695 0.32594 0
M  V30 4861 H 461.899 5.97628 1.25194 0
M  V30 4862 H 463.313 5.64593 -0.995349 0
M  V30 4863 H 461.71 5.7303 -1.78202 0
M  V30 4864 H 462.78 4.35886 -2.12442 0
M  V30 4865 N 464.123 0.554532 1.47522 0
M  V30 4866 C 465.033 -0.197865 2.33764 0
M  V30 4867 C 466.049 -0.914576 1.48025 0
M  V30 4868 O 467.225 -0.884067 1.80959 0
M  V30 4869 C 464.29 -1.21628 3.24665 0
M  V30 4870 C 463.351 -0.507283 4.26292 0
M  V30 4871 C 462.584 -1.47718 5.1285 0
M  V30 4872 O 462.807 -2.7118 5.01814 0
M  V30 4873 O 461.741 -1.00313 5.93482 0
M  V30 4874 H 465.567 0.50949 2.99396 0
M  V30 4875 H 463.152 0.315176 1.46038 0
M  V30 4876 H 465.034 -1.80421 3.80823 0
M  V30 4877 H 463.709 -1.9056 2.61665 0
M  V30 4878 H 462.616 0.121778 3.73902 0
M  V30 4879 H 463.949 0.140544 4.91999 0
M  V30 4880 N 465.601 -1.54893 0.290851 0
M  V30 4881 C 466.531 -2.26103 -0.583084 0
M  V30 4882 C 467.512 -1.25684 -1.14619 0
M  V30 4883 O 468.697 -1.54436 -1.17741 0
M  V30 4884 C 465.827 -2.99409 -1.75987 0
M  V30 4885 C 464.781 -4.0689 -1.32758 0
M  V30 4886 C 464.107 -4.67856 -2.58872 0
M  V30 4887 C 465.407 -5.20215 -0.46624 0
M  V30 4888 H 467.101 -2.99398 0.0108214 0
M  V30 4889 H 464.647 -1.43998 0.00664468 0
M  V30 4890 H 466.6 -3.47943 -2.37727 0
M  V30 4891 H 465.324 -2.23675 -2.37985 0
M  V30 4892 H 463.983 -3.59191 -0.733299 0
M  V30 4893 H 463.631 -3.88772 -3.19163 0
M  V30 4894 H 463.331 -5.40438 -2.30653 0
M  V30 4895 H 464.855 -5.19147 -3.21433 0
M  V30 4896 H 466.269 -5.64704 -0.989047 0
M  V30 4897 H 464.666 -5.99455 -0.27826 0
M  V30 4898 H 465.736 -4.82198 0.511173 0
M  V30 4899 N 467.08 -0.0183926 -1.57589 0
M  V30 4900 C 468.01 0.965596 -2.12599 0
M  V30 4901 C 468.991 1.34641 -1.0395 0
M  V30 4902 O 470.176 1.42693 -1.31729 0
M  V30 4903 C 467.306 2.25149 -2.64434 0
M  V30 4904 C 466.26 2.01175 -3.77773 0
M  V30 4905 C 465.586 3.35937 -4.15994 0
M  V30 4906 C 466.886 1.35953 -5.04296 0
M  V30 4907 H 468.58 0.507504 -2.95067 0
M  V30 4908 H 466.126 0.242671 -1.41941 0
M  V30 4909 H 468.079 2.94357 -3.01549 0
M  V30 4910 H 466.803 2.73105 -1.79112 0
M  V30 4911 H 465.462 1.34388 -3.4108 0
M  V30 4912 H 465.11 3.81631 -3.27669 0
M  V30 4913 H 464.81 3.20705 -4.92364 0
M  V30 4914 H 466.334 4.0643 -4.55683 0
M  V30 4915 H 467.748 1.95144 -5.39065 0
M  V30 4916 H 466.145 1.31152 -5.85593 0
M  V30 4917 H 467.215 0.331071 -4.83768 0
M  V30 4918 N 468.558 1.5553 0.254621 0
M  V30 4919 C 469.804 1.77262 0.985193 0
M  V30 4920 C 470.137 0.582286 1.85265 0
M  V30 4921 O 469.412 -0.419666 1.89919 0
M  V30 4922 C 469.695 3.0881 1.85225 0
M  V30 4923 C 469.548 4.38233 1.0135 0
M  V30 4924 C 470.867 3.3653 2.83612 0
M  V30 4925 H 467.986 0.644906 0.356742 0
M  V30 4926 H 470.628 1.88264 0.256236 0
M  V30 4927 H 468.778 2.99562 2.47376 0
M  V30 4928 H 470.45 4.59463 0.411269 0
M  V30 4929 H 468.693 4.32636 0.317574 0
M  V30 4930 H 469.364 5.26644 1.65379 0
M  V30 4931 H 471.84 3.45691 2.31596 0
M  V30 4932 H 470.716 4.29805 3.41407 0
M  V30 4933 H 470.977 2.57064 3.59681 0
M  V30 4934 N 470.036 -0.519951 1.48776 0
M  V30 4935 C 471.452 -0.849418 1.35119 0
M  V30 4936 C 471.652 -1.98077 0.36982 0
M  V30 4937 O 470.708 -2.51664 -0.205359 0
M  V30 4938 C 472.021 -1.20748 2.75391 0
M  V30 4939 C 473.569 -1.31679 2.83954 0
M  V30 4940 C 474.044 -1.70824 4.24951 0
M  V30 4941 N 475.535 -1.77908 4.27672 0
M  V30 4942 C 476.27 -2.09603 5.33717 0
M  V30 4943 N 475.766 -2.39652 6.5003 0
M  V30 4944 N 477.559 -2.10694 5.21119 0
M  V30 4945 H 469.71 0.226377 2.1119 0
M  V30 4946 H 471.973 0.0386519 0.947212 0
M  V30 4947 H 471.679 -0.449703 3.48813 0
M  V30 4948 H 471.553 -2.15534 3.09556 0
M  V30 4949 H 473.94 -2.06532 2.10781 0
M  V30 4950 H 474.021 -0.3499 2.53396 0
M  V30 4951 H 473.665 -0.965282 4.98643 0
M  V30 4952 H 473.595 -2.6858 4.52959 0
M  V30 4953 H 476.086 -1.56923 3.43779 0
M  V30 4954 H 476.399 -2.6297 7.26682 0
M  V30 4955 H 474.744 -2.37149 6.53288 0
M  V30 4956 H 477.935 -1.86682 4.29264 0
M  V30 4957 H 478.108 -2.35062 6.03863 0
M  V30 4958 N 471.514 -1.37532 -0.769588 0
M  V30 4959 C 472.742 -1.36059 -1.55871 0
M  V30 4960 C 473.157 0.053544 -1.88724 0
M  V30 4961 O 472.514 1.01591 -1.5161 0
M  V30 4962 C 472.565 -2.20107 -2.86767 0
M  V30 4963 O 472.286 -3.56009 -2.55321 0
M  V30 4964 C 473.787 -2.26636 -3.80987 0
M  V30 4965 H 471.007 -0.465967 -0.482821 0
M  V30 4966 H 473.551 -1.80901 -0.953686 0
M  V30 4967 H 471.706 -1.78768 -3.43687 0
M  V30 4968 H 472.12 -4.0009 -3.39158 0
M  V30 4969 H 473.594 -2.89763 -4.69831 0
M  V30 4970 H 474.071 -1.2754 -4.20274 0
M  V30 4971 H 474.677 -2.68296 -3.29996 0
M  V30 4972 N 472.992 0.995999 -1.22138 0
M  V30 4973 C 474.24 1.73167 -1.042 0
M  V30 4974 C 474.561 1.90329 0.42423 0
M  V30 4975 O 473.831 1.4607 1.30539 0
M  V30 4976 H 472.411 0.641593 -0.38258 0
M  V30 4977 H 475.073 1.19974 -1.53598 0
M  V30 4978 H 474.169 2.72734 -1.51731 0
M  V30 4979 N 474.47 1.03057 1.19235 0
M  V30 4980 C 475.886 0.747947 1.40989 0
M  V30 4981 C 476.086 -0.666752 1.90149 0
M  V30 4982 O 475.142 -1.43249 2.07933 0
M  V30 4983 C 476.455 1.7855 2.41951 0
M  V30 4984 C 478.003 1.80524 2.55695 0
M  V30 4985 C 478.478 2.83243 3.59913 0
M  V30 4986 N 479.969 2.8207 3.67411 0
M  V30 4987 C 480.704 3.58204 4.47747 0
M  V30 4988 N 480.2 4.44057 5.31775 0
M  V30 4989 N 481.993 3.46738 4.42413 0
M  V30 4990 H 474.144 1.94367 0.856468 0
M  V30 4991 H 476.407 0.840412 0.438647 0
M  V30 4992 H 476.113 2.79973 2.12857 0
M  V30 4993 H 475.987 1.6092 3.41152 0
M  V30 4994 H 478.374 0.79778 2.84112 0
M  V30 4995 H 478.455 2.02229 1.56643 0
M  V30 4996 H 478.099 3.84161 3.32239 0
M  V30 4997 H 478.029 2.58795 4.5862 0
M  V30 4998 H 480.52 2.19803 3.074 0
M  V30 4999 H 480.833 4.98884 5.90199 0
M  V30 5000 H 479.178 4.48129 5.3123 0
M  V30 5001 H 482.369 2.79077 3.75811 0
M  V30 5002 H 482.542 4.06322 5.04783 0
M  V30 5003 N 475.948 -1.35272 0.808662 0
M  V30 5004 C 477.173 -2.03477 0.401475 0
M  V30 5005 C 477.598 -1.60537 -0.980279 0
M  V30 5006 O 476.956 -0.78304 -1.63518 0
M  V30 5007 C 477.004 -3.57181 0.495354 0
M  V30 5008 O 476.108 -4.09474 -0.490397 0
M  V30 5009 H 475.449 -0.642561 0.167366 0
M  V30 5010 H 477.979 -1.72824 1.09512 0
M  V30 5011 H 477.989 -4.06356 0.365912 0
M  V30 5012 H 476.664 -3.87784 1.5032 0
M  V30 5013 H 475.241 -3.71516 -0.321023 0
M  V30 5014 N 477.426 -0.562348 -1.47226 0
M  V30 5015 C 478.837 -0.130325 -1.86245 0
M  V30 5016 C 479.188 1.30128 -1.46838 0
M  V30 5017 O 478.313 1.97974 -0.873805 0
M  V30 5018 C 478.908 -0.229738 -3.3802 0
M  V30 5019 C 477.467 0.14728 -3.76112 0
M  V30 5020 C 476.614 -0.574971 -2.71274 0
M  V30 5021 H 479.565 -0.771773 -1.3867 0
M  V30 5022 H 479.586 0.550316 -3.76499 0
M  V30 5023 H 479.098 -1.27178 -3.66671 0
M  V30 5024 H 477.199 1.19023 -3.53078 0
M  V30 5025 H 477.312 -0.214858 -4.78618 0
M  V30 5026 H 475.676 -0.0174756 -2.54694 0
M  V30 5027 H 476.459 -1.61827 -3.02766 0
M  V30 5028 N 478.904 1.54736 -0.299062 0
M  V30 5029 C 479.834 2.26409 0.571085 0
M  V30 5030 C 480.815 1.2629 1.13951 0
M  V30 5031 O 482 1.55059 1.16921 0
M  V30 5032 C 479.13 3.00338 1.74396 0
M  V30 5033 C 478.084 4.07588 1.30599 0
M  V30 5034 C 477.41 4.69222 2.56387 0
M  V30 5035 C 478.71 5.20455 0.438645 0
M  V30 5036 H 480.404 2.99388 -0.0266991 0
M  V30 5037 H 477.95 1.43993 -0.0142812 0
M  V30 5038 H 479.903 3.49198 2.35878 0
M  V30 5039 H 478.627 2.24934 2.36796 0
M  V30 5040 H 477.286 3.59575 0.71424 0
M  V30 5041 H 476.934 3.9046 3.17097 0
M  V30 5042 H 476.634 5.41653 2.27784 0
M  V30 5043 H 478.158 5.20844 3.18675 0
M  V30 5044 H 479.572 5.65221 0.959085 0
M  V30 5045 H 477.969 5.99594 0.246466 0
M  V30 5046 H 479.039 4.8192 -0.536738 0
M  V30 5047 N 480.382 0.0267497 1.57577 0
M  V30 5048 C 481.292 -0.971633 2.13533 0
M  V30 5049 C 482.308 -1.35868 1.08701 0
M  V30 5050 O 483.484 -1.44058 1.40746 0
M  V30 5051 C 480.549 -2.23622 2.64941 0
M  V30 5052 C 479.61 -1.90982 3.8448 0
M  V30 5053 C 478.843 -3.11411 4.33427 0
M  V30 5054 O 479.066 -4.23992 3.81558 0
M  V30 5055 O 478 -2.93848 5.25297 0
M  V30 5056 H 481.826 -0.525853 2.99113 0
M  V30 5057 H 479.411 -0.193712 1.48139 0
M  V30 5058 H 481.293 -2.97864 2.98086 0
M  V30 5059 H 479.968 -2.67386 1.82446 0
M  V30 5060 H 478.875 -1.14132 3.56265 0
M  V30 5061 H 480.208 -1.52036 4.6813 0
M  V30 5062 N 481.861 -1.55662 -0.24637 0
M  V30 5063 C 482.824 -1.89558 -1.28842 0
M  V30 5064 C 483.824 -0.772082 -1.41052 0
M  V30 5065 O 485.014 -1.04007 -1.39743 0
M  V30 5066 C 482.146 -2.12449 -2.66605 0
M  V30 5067 H 483.339 -2.82735 -1.00004 0
M  V30 5068 H 480.892 -1.48562 -0.485684 0
M  V30 5069 H 481.627 -1.21742 -3.00582 0
M  V30 5070 H 481.412 -2.94273 -2.59125 0
M  V30 5071 H 482.902 -2.39854 -3.41847 0
M  V30 5072 N 483.339 0.512053 -1.4905 0
M  V30 5073 C 484.302 1.59704 -1.64399 0
M  V30 5074 C 485.302 1.52285 -0.516317 0
M  V30 5075 O 486.492 1.55635 -0.782527 0
M  V30 5076 C 483.624 2.9935 -1.63102 0
M  V30 5077 H 484.817 1.47428 -2.61161 0
M  V30 5078 H 482.37 0.735469 -1.37915 0
M  V30 5079 H 483.105 3.17116 -0.678836 0
M  V30 5080 H 482.89 3.06144 -2.44986 0
M  V30 5081 H 484.38 3.782 -1.77072 0
M  V30 5082 N 484.817 1.37938 0.762283 0
M  V30 5083 C 485.75 1.2884 1.88349 0
M  V30 5084 C 486.728 0.167084 1.61739 0
M  V30 5085 O 487.912 0.34292 1.85355 0
M  V30 5086 C 485.039 0.994257 3.23778 0
M  V30 5087 C 484.085 2.13376 3.69287 0
M  V30 5088 S 484.918 3.75439 3.81845 0
M  V30 5089 C 486.074 3.48195 5.20107 0
M  V30 5090 H 486.307 2.23736 1.95779 0
M  V30 5091 H 483.84 1.23672 0.924368 0
M  V30 5092 H 485.798 0.83138 4.01993 0
M  V30 5093 H 484.459 0.0626251 3.14038 0
M  V30 5094 H 483.652 1.88319 4.67495 0
M  V30 5095 H 483.254 2.25726 2.98201 0
M  V30 5096 H 485.546 3.0377 6.05583 0
M  V30 5097 H 486.489 4.45765 5.50181 0
M  V30 5098 H 486.897 2.82905 4.88493 0
M  V30 5099 N 486.295 -0.989507 1.22664 0
M  V30 5100 C 487.544 -1.72375 1.04737 0
M  V30 5101 C 487.857 -1.91096 -0.417316 0
M  V30 5102 O 489.063 -2.6188 -0.716334 0
M  V30 5103 C 487.519 -3.10161 1.82561 0
M  V30 5104 C 487.127 -2.99358 3.333 0
M  V30 5105 C 488.871 -3.87607 1.73093 0
M  V30 5106 C 486.778 -4.32319 4.03552 0
M  V30 5107 H 485.708 -0.646326 0.388302 0
M  V30 5108 H 488.359 -1.10437 1.46546 0
M  V30 5109 H 486.741 -3.728 1.33552 0
M  V30 5110 H 487.915 -2.45863 3.89728 0
M  V30 5111 H 486.23 -2.35392 3.43481 0
M  V30 5112 H 488.827 -4.86025 2.22899 0
M  V30 5113 H 489.17 -4.10509 0.691976 0
M  V30 5114 H 489.703 -3.31652 2.19663 0
M  V30 5115 H 486.442 -4.14616 5.07714 0
M  V30 5116 H 485.962 -4.85714 3.51911 0
M  V30 5117 H 487.641 -5.01051 4.09337 0
M  V30 5118 N 487.773 -1.03688 -1.18687 0
M  V30 5119 C 488.703 -0.645407 -2.24403 0
M  V30 5120 C 489.684 0.349511 -1.66471 0
M  V30 5121 O 490.869 0.230453 -1.92828 0
M  V30 5122 C 487.999 -0.00365337 -3.473 0
M  V30 5123 C 486.953 -0.921705 -4.17958 0
M  V30 5124 C 486.279 -0.144629 -5.34504 0
M  V30 5125 C 487.579 -2.23909 -4.71871 0
M  V30 5126 H 489.273 -1.52917 -2.57404 0
M  V30 5127 H 486.819 -0.736711 -1.23728 0
M  V30 5128 H 488.772 0.281908 -4.20456 0
M  V30 5129 H 487.496 0.914963 -3.13522 0
M  V30 5130 H 486.155 -1.19159 -3.46694 0
M  V30 5131 H 485.803 0.776274 -4.96974 0
M  V30 5132 H 485.503 -0.756206 -5.82714 0
M  V30 5133 H 487.027 0.134004 -6.10453 0
M  V30 5134 H 488.441 -2.0145 -5.36741 0
M  V30 5135 H 486.838 -2.8033 -5.30599 0
M  V30 5136 H 487.908 -2.88822 -3.895 0
M  V30 5137 N 489.251 1.34841 -0.815825 0
M  V30 5138 C 490.497 1.98793 -0.401129 0
M  V30 5139 C 490.83 1.64548 1.03139 0
M  V30 5140 O 490.105 0.913487 1.71714 0
M  V30 5141 C 490.388 3.55143 -0.595409 0
M  V30 5142 C 490.241 3.99155 -2.07352 0
M  V30 5143 C 491.56 4.40092 -0.0268823 0
M  V30 5144 H 488.679 0.722146 -0.14722 0
M  V30 5145 H 491.321 1.59847 -1.02707 0
M  V30 5146 H 489.471 3.8845 -0.0625779 0
M  V30 5147 H 491.143 3.76216 -2.66945 0
M  V30 5148 H 489.386 3.49726 -2.56659 0
M  V30 5149 H 490.057 5.07971 -2.1603 0
M  V30 5150 H 492.533 4.13298 -0.482042 0
M  V30 5151 H 491.409 5.48562 -0.19267 0
M  V30 5152 H 491.67 4.29016 1.06759 0
M  V30 5153 N 490.729 0.570148 1.46925 0
M  V30 5154 C 492.14 0.1402 1.86173 0
M  V30 5155 C 492.491 -1.29347 1.47526 0
M  V30 5156 O 491.616 -1.97508 0.884292 0
M  V30 5157 C 492.211 0.247661 3.37894 0
M  V30 5158 C 490.77 -0.127332 3.76185 0
M  V30 5159 C 489.917 0.589349 2.70965 0
M  V30 5160 H 492.868 0.779117 1.38259 0
M  V30 5161 H 492.889 -0.530341 3.76786 0
M  V30 5162 H 492.401 1.29121 3.65991 0
M  V30 5163 H 490.502 -1.17149 3.53704 0
M  V30 5164 H 490.615 0.240238 4.78497 0
M  V30 5165 H 488.979 0.0309824 2.54681 0
M  V30 5166 H 489.762 1.6343 3.01903 0
M  V30 5167 N 492.207 -1.54576 0.307264 0
M  V30 5168 C 493.117 -2.27435 -0.57536 0
M  V30 5169 C 494.133 -1.31183 -1.14311 0
M  V30 5170 O 495.309 -1.64175 -1.16656 0
M  V30 5171 C 492.374 -3.00566 -1.72803 0
M  V30 5172 C 491.435 -4.12369 -1.19373 0
M  V30 5173 C 490.668 -4.82003 -2.29147 0
M  V30 5174 O 490.891 -4.51038 -3.49171 0
M  V30 5175 O 489.825 -5.69271 -1.95485 0
M  V30 5176 H 493.651 -3.03696 0.0158558 0
M  V30 5177 H 491.236 -1.49219 0.0735064 0
M  V30 5178 H 493.118 -3.46416 -2.39946 0
M  V30 5179 H 491.793 -2.27195 -2.30574 0
M  V30 5180 H 490.7 -3.70905 -0.487851 0
M  V30 5181 H 492.033 -4.87736 -0.661376 0
M  V30 5182 N 493.685 -0.035106 -1.57561 0
M  V30 5183 C 494.648 0.929819 -2.09492 0
M  V30 5184 C 495.648 1.25026 -1.01119 0
M  V30 5185 O 496.838 1.18961 -1.27255 0
M  V30 5186 C 493.97 2.24457 -2.56577 0
M  V30 5187 H 495.163 0.479935 -2.96035 0
M  V30 5188 H 492.716 0.213033 -1.54841 0
M  V30 5189 H 493.451 2.74061 -1.73382 0
M  V30 5190 H 493.236 2.02508 -3.35757 0
M  V30 5191 H 494.726 2.93607 -2.96959 0
M  V30 5192 N 495.163 1.55791 0.238111 0
M  V30 5193 C 496.393 1.81834 0.980809 0
M  V30 5194 C 496.801 0.609741 1.79106 0
M  V30 5195 O 496.144 -0.431073 1.78571 0
M  V30 5196 C 496.206 3.01363 1.96011 0
M  V30 5197 C 495.87 4.37037 1.33597 0
M  V30 5198 C 496.867 5.14692 0.734063 0
M  V30 5199 C 494.552 4.83743 1.3527 0
M  V30 5200 C 496.546 6.37206 0.157208 0
M  V30 5201 C 494.233 6.06204 0.77199 0
M  V30 5202 C 495.231 6.82775 0.175282 0
M  V30 5203 O 494.919 8.02922 -0.396432 0
M  V30 5204 H 494.651 0.6088 0.293834 0
M  V30 5205 H 497.205 2.03702 0.263552 0
M  V30 5206 H 495.435 2.75273 2.71591 0
M  V30 5207 H 497.124 3.14422 2.56697 0
M  V30 5208 H 497.89 4.79722 0.713582 0
M  V30 5209 H 493.769 4.24129 1.80653 0
M  V30 5210 H 497.313 6.96915 -0.30917 0
M  V30 5211 H 493.21 6.4065 0.789828 0
M  V30 5212 H 493.978 8.17989 -0.289145 0
M  V30 5213 N 496.642 -0.504142 1.49319 0
M  V30 5214 C 497.589 -1.60603 1.65756 0
M  V30 5215 C 498.559 -1.58425 0.499082 0
M  V30 5216 O 499.744 -1.76459 0.725728 0
M  V30 5217 C 496.884 -2.98764 1.72726 0
M  V30 5218 C 495.997 -3.10982 2.99857 0
M  V30 5219 C 495.132 -4.39857 2.97824 0
M  V30 5220 C 494.171 -4.45697 4.19548 0
M  V30 5221 N 493.308 -5.65995 4.15444 0
M  V30 5222 H 498.148 -1.45895 2.59843 0
M  V30 5223 H 495.685 -0.709891 1.28837 0
M  V30 5224 H 497.643 -3.78839 1.74747 0
M  V30 5225 H 496.273 -3.12183 0.821075 0
M  V30 5226 H 495.325 -2.23991 3.07461 0
M  V30 5227 H 496.637 -3.11157 3.89849 0
M  V30 5228 H 495.791 -5.2825 2.98391 0
M  V30 5229 H 494.53 -4.42242 2.05604 0
M  V30 5230 H 493.535 -3.55707 4.19229 0
M  V30 5231 H 494.76 -4.4503 5.12957 0
M  V30 5232 H 492.706 -5.69229 3.26059 0
M  V30 5233 H 492.623 -5.67773 4.99169 0
M  V30 5234 H 493.891 -6.56604 4.20109 0
M  V30 5235 N 498.12 -1.38341 -0.754957 0
M  V30 5236 C 499.068 -1.35573 -1.89005 0
M  V30 5237 C 500.062 -0.241824 -1.67665 0
M  V30 5238 O 501.268 -0.410785 -1.7525 0
M  V30 5239 H 497.643 -0.422898 -0.621821 0
M  V30 5240 H 499.614 -2.31359 -1.88455 0
M  V30 5241 C 498.363 -1.19631 -3.26471 0
M  V30 5242 H 497.686 -2.04605 -3.43477 0
M  V30 5243 H 499.126 -1.21748 -4.06144 0
M  V30 5244 C 497.585 0.0968705 -3.36761 0
M  V30 5245 O 498.115 1.07439 -3.87066 0
M  V30 5246 N 496.321 0.153242 -2.90196 0
M  V30 5247 H 495.868 -0.642908 -2.49448 0
M  V30 5248 H 495.826 1.01807 -2.9746 0
M  V30 5249 N 499.598 0.982988 -1.23187 0
M  V30 5250 C 500.53 2.07729 -0.968572 0
M  V30 5251 C 501.543 1.62702 0.0564821 0
M  V30 5252 O 502.732 1.77603 -0.178733 0
M  V30 5253 C 499.832 3.36071 -0.436974 0
M  V30 5254 C 499.005 4.10081 -1.52159 0
M  V30 5255 C 498.064 5.16701 -0.99532 0
M  V30 5256 O 497.09 5.43727 -1.68373 0
M  V30 5257 N 498.292 5.80226 0.178192 0
M  V30 5258 H 501.057 2.30894 -1.9107 0
M  V30 5259 H 498.618 1.14949 -1.1401 0
M  V30 5260 H 500.61 4.04639 -0.0700051 0
M  V30 5261 H 499.18 3.09893 0.410509 0
M  V30 5262 H 498.4 3.36004 -2.06144 0
M  V30 5263 H 499.688 4.56295 -2.25105 0
M  V30 5264 H 499.086 5.60651 0.754096 0
M  V30 5265 H 497.643 6.49982 0.486449 0
M  V30 5266 N 501.076 1.04316 1.18135 0
M  V30 5267 C 502.487 0.775505 1.69832 0
M  V30 5268 C 502.838 -0.703348 1.8316 0
M  V30 5269 O 501.963 -1.54729 1.51287 0
M  V30 5270 C 502.558 1.40112 3.0847 0
M  V30 5271 C 501.117 1.18172 3.57368 0
M  V30 5272 C 500.264 1.49022 2.33854 0
M  V30 5273 H 503.215 1.20925 1.02775 0
M  V30 5274 H 503.236 0.805672 3.71873 0
M  V30 5275 H 502.748 2.47744 2.98738 0
M  V30 5276 H 500.849 0.124258 3.72393 0
M  V30 5277 H 500.962 1.8805 4.40652 0
M  V30 5278 H 499.326 0.909995 2.37889 0
M  V30 5279 H 500.109 2.57768 2.26738 0
M  V30 5280 N 502.554 -1.34406 0.822964 0
M  V30 5281 C 503.517 -2.2783 0.250271 0
M  V30 5282 C 504.517 -1.50288 -0.571854 0
M  V30 5283 O 505.707 -1.69825 -0.387952 0
M  V30 5284 C 502.839 -3.34663 -0.649137 0
M  V30 5285 H 504.032 -2.79992 1.07444 0
M  V30 5286 H 501.585 -1.44539 0.594829 0
M  V30 5287 H 502.32 -2.87714 -1.49637 0
M  V30 5288 H 502.105 -3.92052 -0.0611199 0
M  V30 5289 H 503.595 -4.04349 -1.04363 0
M  V30 5290 N 504.032 -0.577932 -1.46621 0
M  V30 5291 C 504.962 0.145917 -2.33044 0
M  V30 5292 C 505.943 0.888412 -1.45056 0
M  V30 5293 O 507.128 0.864812 -1.73881 0
M  V30 5294 C 504.258 1.16322 -3.27241 0
M  V30 5295 C 503.212 0.535868 -4.24632 0
M  V30 5296 C 502.538 1.65929 -5.08303 0
M  V30 5297 C 503.838 -0.523861 -5.19666 0
M  V30 5298 H 505.532 -0.575636 -2.93814 0
M  V30 5299 H 503.078 -0.278272 -1.41286 0
M  V30 5300 H 505.031 1.67793 -3.86553 0
M  V30 5301 H 503.755 1.91498 -2.64567 0
M  V30 5302 H 502.414 0.0422759 -3.66576 0
M  V30 5303 H 502.062 2.40061 -4.42018 0
M  V30 5304 H 501.762 1.2452 -5.74255 0
M  V30 5305 H 503.286 2.17686 -5.70478 0
M  V30 5306 H 504.7 -0.0944059 -5.73222 0
M  V30 5307 H 503.097 -0.858 -5.93935 0
M  V30 5308 H 504.167 -1.41197 -4.63887 0
M  V30 5309 N 505.51 1.54411 -0.315457 0
M  V30 5310 C 506.457 2.24048 0.554166 0
M  V30 5311 C 507.427 1.2283 1.11812 0
M  V30 5312 O 508.612 1.51491 1.15997 0
M  V30 5313 C 505.752 2.99574 1.71316 0
M  V30 5314 C 504.865 4.15594 1.17922 0
M  V30 5315 C 504 4.78669 2.30324 0
M  V30 5316 C 503.039 5.86807 1.74137 0
M  V30 5317 N 502.176 6.43777 2.8017 0
M  V30 5318 H 507.016 2.97964 -0.0462602 0
M  V30 5319 H 504.553 1.47059 -0.0346009 0
M  V30 5320 H 506.511 3.41604 2.39505 0
M  V30 5321 H 505.141 2.28008 2.285 0
M  V30 5322 H 504.193 3.78404 0.389136 0
M  V30 5323 H 505.505 4.93459 0.728012 0
M  V30 5324 H 504.659 5.23626 3.06433 0
M  V30 5325 H 503.398 4.00168 2.78778 0
M  V30 5326 H 502.403 5.41261 0.965236 0
M  V30 5327 H 503.628 6.67201 1.2657 0
M  V30 5328 H 501.574 5.68153 3.2793 0
M  V30 5329 H 501.491 7.17031 2.39588 0
M  V30 5330 H 502.759 6.9339 3.56132 0
M  V30 5331 N 506.988 0.0434614 1.5754 0
M  V30 5332 C 508.265 -0.671479 1.83713 0
M  V30 5333 C 508.645 -1.89495 0.930315 0
M  V30 5334 O 507.993 -2.28498 -0.0105639 0
M  V30 5335 C 508.203 -1.0361 3.33266 0
M  V30 5336 C 509.551 -1.42167 4.00092 0
M  V30 5337 O 510.575 -1.12866 3.37846 0
M  V30 5338 O 509.434 -1.96817 5.09829 0
M  V30 5339 H 506.528 -0.330726 0.75799 0
M  V30 5340 H 509.074 0.0722373 1.69546 0
M  V30 5341 H 507.846 -0.165938 3.90948 0
M  V30 5342 H 507.469 -1.83751 3.52592 0
M  V30 5343 N 508.466 -1.55915 -0.229846 0
M  V30 5344 C 509.696 -1.82352 -0.971152 0
M  V30 5345 C 510.104 -0.619231 -1.7878 0
M  V30 5346 O 509.447 0.421597 -1.78797 0
M  V30 5347 C 509.509 -3.02399 -1.9441 0
M  V30 5348 C 509.173 -4.37739 -1.31277 0
M  V30 5349 C 510.17 -5.15074 -0.706757 0
M  V30 5350 C 507.855 -4.84454 -1.32702 0
M  V30 5351 C 509.849 -6.37281 -0.123413 0
M  V30 5352 C 507.536 -6.06605 -0.739831 0
M  V30 5353 C 508.534 -6.82858 -0.139071 0
M  V30 5354 O 508.222 -8.027 0.439007 0
M  V30 5355 H 507.954 -0.61035 -0.290601 0
M  V30 5356 H 510.508 -2.03839 -0.252746 0
M  V30 5357 H 508.738 -2.76709 -2.70128 0
M  V30 5358 H 510.427 -3.15779 -2.55026 0
M  V30 5359 H 511.193 -4.80093 -0.688131 0
M  V30 5360 H 507.072 -4.25081 -1.78402 0
M  V30 5361 H 510.616 -6.96741 0.346124 0
M  V30 5362 H 506.513 -6.4106 -0.755841 0
M  V30 5363 H 507.281 -8.17824 0.332521 0
M  V30 5364 N 509.944 0.496216 -1.49584 0
M  V30 5365 C 511.355 1.07765 -1.52459 0
M  V30 5366 C 511.706 1.93679 -0.31353 0
M  V30 5367 O 510.831 2.08588 0.576186 0
M  V30 5368 C 511.426 1.96111 -2.76271 0
M  V30 5369 C 509.985 2.49409 -2.81908 0
M  V30 5370 C 509.132 1.27142 -2.46435 0
M  V30 5371 H 512.083 0.279914 -1.56212 0
M  V30 5372 H 512.104 2.80862 -2.56704 0
M  V30 5373 H 511.616 1.33555 -3.64396 0
M  V30 5374 H 509.717 3.1559 -1.98074 0
M  V30 5375 H 509.83 2.86234 -3.84196 0
M  V30 5376 H 508.194 1.59818 -1.98319 0
M  V30 5377 H 508.977 0.662866 -3.3684 0
M  V30 5378 N 511.423 1.38739 0.74761 0
M  V30 5379 C 512.333 1.38696 1.89211 0
M  V30 5380 C 513.349 0.283303 1.71678 0
M  V30 5381 O 514.525 0.522713 1.94498 0
M  V30 5382 C 511.59 1.21662 3.24653 0
M  V30 5383 C 510.651 2.41886 3.54669 0
M  V30 5384 C 509.884 2.25655 4.83648 0
M  V30 5385 O 510.107 1.25339 5.56459 0
M  V30 5386 O 509.041 3.14372 5.13277 0
M  V30 5387 H 512.867 2.35143 1.92202 0
M  V30 5388 H 510.452 1.19721 0.893708 0
M  V30 5389 H 512.334 1.14246 4.05618 0
M  V30 5390 H 511.009 0.283024 3.2246 0
M  V30 5391 H 509.916 2.54877 2.73841 0
M  V30 5392 H 511.249 3.33895 3.61628 0
M  V30 5393 N 512.901 -0.976442 1.23707 0
M  V30 5394 C 514.15 -1.71254 1.06559 0
M  V30 5395 C 514.463 -1.91528 -0.397024 0
M  V30 5396 O 515.669 -2.62625 -0.688518 0
M  V30 5397 C 514.125 -3.08207 1.8584 0
M  V30 5398 C 513.733 -2.95806 3.36456 0
M  V30 5399 C 515.477 -3.85749 1.77194 0
M  V30 5400 C 513.384 -4.28015 4.08114 0
M  V30 5401 H 512.314 -0.642171 0.395136 0
M  V30 5402 H 514.965 -1.08877 1.4771 0
M  V30 5403 H 513.347 -3.71363 1.37498 0
M  V30 5404 H 514.521 -2.41716 3.92314 0
M  V30 5405 H 512.836 -2.31736 3.45959 0
M  V30 5406 H 515.433 -4.83633 2.28041 0
M  V30 5407 H 515.776 -4.09752 0.735477 0
M  V30 5408 H 516.309 -3.29303 2.23169 0
M  V30 5409 H 513.048 -4.09208 5.12083 0
M  V30 5410 H 512.568 -4.81955 3.57043 0
M  V30 5411 H 514.247 -4.96681 4.14629 0
M  V30 5412 N 514.379 -1.04941 -1.1758 0
M  V30 5413 C 515.604 -0.778253 -1.92245 0
M  V30 5414 C 516.029 0.659707 -1.76152 0
M  V30 5415 O 515.387 1.45803 -1.07755 0
M  V30 5416 C 515.435 -1.16051 -3.41416 0
M  V30 5417 O 514.539 -0.291153 -4.11371 0
M  V30 5418 H 513.88 -0.285619 -0.599431 0
M  V30 5419 H 516.41 -1.40159 -1.49052 0
M  V30 5420 H 516.42 -1.12619 -3.92149 0
M  V30 5421 H 515.095 -2.208 -3.52449 0
M  V30 5422 H 513.672 -0.385851 -3.70898 0
M  V30 5423 N 515.857 1.33968 -0.830081 0
M  V30 5424 C 517.134 1.92554 -0.343858 0
M  V30 5425 C 517.514 1.7573 1.16971 0
M  V30 5426 O 516.862 1.14035 1.98011 0
M  V30 5427 C 517.072 3.40147 -0.781073 0
M  V30 5428 C 518.42 4.17299 -0.78402 0
M  V30 5429 O 519.444 3.48762 -0.724112 0
M  V30 5430 O 518.303 5.39631 -0.863739 0
M  V30 5431 H 515.397 0.821469 -0.0954827 0
M  V30 5432 H 517.943 1.42897 -0.915348 0
M  V30 5433 H 516.715 3.46225 -1.82329 0
M  V30 5434 H 516.338 3.97166 -0.18567 0
M  V30 5435 N 517.335 0.585699 1.46312 0
M  V30 5436 C 518.582 0.0724211 2.0237 0
M  V30 5437 C 518.91 -1.28868 1.45683 0
M  V30 5438 O 518.165 -1.85853 0.612945 0
M  V30 5439 C 518.464 -0.0401312 3.57377 0
M  V30 5440 C 518.13 1.25376 4.33119 0
M  V30 5441 C 516.792 1.60824 4.5353 0
M  V30 5442 C 519.144 2.10987 4.76586 0
M  V30 5443 C 516.472 2.81676 5.14661 0
M  V30 5444 C 518.824 3.31068 5.39052 0
M  V30 5445 C 517.488 3.66794 5.5769 0
M  V30 5446 H 516.758 0.0265007 0.740526 0
M  V30 5447 H 519.405 0.762935 1.75646 0
M  V30 5448 H 517.71 -0.813791 3.83255 0
M  V30 5449 H 519.407 -0.453078 3.98432 0
M  V30 5450 H 515.997 0.967808 4.1753 0
M  V30 5451 H 520.181 1.84904 4.60569 0
M  V30 5452 H 515.437 3.0949 5.27282 0
M  V30 5453 H 519.611 3.97672 5.71691 0
M  V30 5454 H 517.238 4.60529 6.04828 0
M  V30 5455 N 518.813 -1.54241 0.323641 0
M  V30 5456 C 519.763 -2.21071 -0.557833 0
M  V30 5457 C 520.747 -1.19126 -1.08157 0
M  V30 5458 O 521.939 -1.44755 -1.01857 0
M  V30 5459 C 519.068 -2.97208 -1.71821 0
M  V30 5460 C 518.154 -4.06491 -1.20936 0
M  V30 5461 N 518.545 -5.04052 -0.420202 0
M  V30 5462 C 516.843 -4.20443 -1.48808 0
M  V30 5463 C 517.544 -5.81516 -0.146413 0
M  V30 5464 N 516.52 -5.38641 -0.732562 0
M  V30 5465 H 520.322 -2.93853 0.0523921 0
M  V30 5466 H 517.836 -1.61883 0.129502 0
M  V30 5467 H 519.833 -3.4357 -2.36146 0
M  V30 5468 H 518.493 -2.25947 -2.33191 0
M  V30 5469 H 519.504 -5.17862 -0.0630401 0
M  V30 5470 H 516.181 -3.60396 -2.10762 0
M  V30 5471 H 517.571 -6.70119 0.488895 0
M  V30 5472 N 520.291 -0.0518155 -1.57515 0
M  V30 5473 C 521.568 0.661727 -1.84067 0
M  V30 5474 C 521.948 1.88999 -0.940351 0
M  V30 5475 O 521.296 2.285 -0.00155404 0
M  V30 5476 C 521.506 1.01841 -3.3381 0
M  V30 5477 C 522.854 1.40043 -4.00841 0
M  V30 5478 O 523.878 1.11073 -3.38439 0
M  V30 5479 O 522.737 1.94111 -5.10865 0
M  V30 5480 H 519.831 0.326702 -0.759733 0
M  V30 5481 H 522.377 -0.0812277 -1.69505 0
M  V30 5482 H 521.149 0.145202 -3.91031 0
M  V30 5483 H 520.772 1.81879 -3.53562 0
M  V30 5484 N 521.769 1.56035 0.221574 0
M  V30 5485 C 522.999 1.82864 0.961468 0
M  V30 5486 C 523.407 0.628703 1.78449 0
M  V30 5487 O 522.75 -0.412109 1.79018 0
M  V30 5488 C 522.812 3.03425 1.92804 0
M  V30 5489 C 522.476 4.38429 1.28954 0
M  V30 5490 C 523.473 5.15441 0.679431 0
M  V30 5491 C 521.158 4.85151 1.30131 0
M  V30 5492 C 523.152 6.37337 0.0896148 0
M  V30 5493 C 520.839 6.06989 0.707651 0
M  V30 5494 C 521.837 6.82923 0.102855 0
M  V30 5495 O 521.525 8.02456 -0.48157 0
M  V30 5496 H 521.257 0.611883 0.28736 0
M  V30 5497 H 523.811 2.0397 0.241932 0
M  V30 5498 H 522.041 2.78138 2.68656 0
M  V30 5499 H 523.73 3.17127 2.53348 0
M  V30 5500 H 524.496 4.80452 0.662661 0
M  V30 5501 H 520.375 4.26021 1.76145 0
M  V30 5502 H 523.919 6.96547 -0.383069 0
M  V30 5503 H 519.816 6.41451 0.721834 0
M  V30 5504 H 520.584 8.17636 -0.375887 0
M  V30 5505 N 523.247 -0.488276 1.49845 0
M  V30 5506 C 524.477 -1.26344 1.63465 0
M  V30 5507 C 524.885 -1.86637 0.310379 0
M  V30 5508 O 524.228 -1.69184 -0.715712 0
M  V30 5509 C 524.29 -2.42407 2.65479 0
M  V30 5510 C 523.954 -2.02886 4.09495 0
M  V30 5511 C 524.951 -1.56124 4.95904 0
M  V30 5512 C 522.636 -2.12131 4.55308 0
M  V30 5513 C 524.63 -1.19129 6.26169 0
M  V30 5514 C 522.317 -1.74747 5.85582 0
M  V30 5515 C 523.315 -1.28322 6.70837 0
M  V30 5516 O 523.003 -0.914491 7.98682 0
M  V30 5517 H 522.735 -0.388921 0.552916 0
M  V30 5518 H 525.289 -0.591288 1.96705 0
M  V30 5519 H 523.519 -3.12739 2.27445 0
M  V30 5520 H 525.208 -3.04409 2.68495 0
M  V30 5521 H 525.974 -1.48417 4.61733 0
M  V30 5522 H 521.853 -2.47217 3.89107 0
M  V30 5523 H 525.397 -0.828211 6.92666 0
M  V30 5524 H 521.294 -1.82109 6.19279 0
M  V30 5525 H 522.062 -1.04485 8.11804 0
M  V30 5526 N 524.725 -1.39134 -0.740242 0
M  V30 5527 C 525.95 -1.39518 -1.53459 0
M  V30 5528 C 526.375 0.00968883 -1.88098 0
M  V30 5529 O 525.733 0.995312 -1.51536 0
M  V30 5530 C 525.781 -2.26981 -2.802 0
M  V30 5531 O 524.885 -1.69609 -3.75908 0
M  V30 5532 H 524.226 -0.475328 -0.463637 0
M  V30 5533 H 526.756 -1.83064 -0.913717 0
M  V30 5534 H 526.766 -2.41309 -3.28989 0
M  V30 5535 H 525.441 -3.29081 -2.5432 0
M  V30 5536 H 524.018 -1.64495 -3.34658 0
M  V30 5537 N 526.204 0.969867 -1.24223 0
M  V30 5538 C 527.452 1.70918 -1.0785 0
M  V30 5539 C 527.773 1.91186 0.383763 0
M  V30 5540 O 527.043 1.48806 1.27411 0
M  V30 5541 H 525.623 0.633334 -0.396103 0
M  V30 5542 H 528.285 1.16689 -1.56108 0
M  V30 5543 H 527.381 2.69455 -1.57482 0
M  V30 5544 N 527.682 1.05563 1.17022 0
M  V30 5545 C 528.612 0.681026 2.23348 0
M  V30 5546 C 529.593 -0.322983 1.67005 0
M  V30 5547 O 530.778 -0.199746 1.9317 0
M  V30 5548 C 527.908 0.0589053 3.4725 0
M  V30 5549 C 526.862 0.988082 4.16438 0
M  V30 5550 C 526.188 0.229646 5.34207 0
M  V30 5551 C 527.488 2.31388 4.68249 0
M  V30 5552 H 529.182 1.56993 2.54938 0
M  V30 5553 H 526.728 0.756302 1.2254 0
M  V30 5554 H 528.681 -0.214982 4.20851 0
M  V30 5555 H 527.405 -0.864968 3.14938 0
M  V30 5556 H 526.064 1.24659 3.44754 0
M  V30 5557 H 525.712 -0.697111 4.98146 0
M  V30 5558 H 525.412 0.848815 5.81437 0
M  V30 5559 H 526.936 -0.0368694 6.10589 0
M  V30 5560 H 528.35 2.09964 5.33468 0
M  V30 5561 H 526.747 2.88736 5.26072 0
M  V30 5562 H 527.817 2.94982 3.84855 0
M  V30 5563 N 529.16 -1.33526 0.837174 0
M  V30 5564 C 530.092 -2.28077 0.226579 0
M  V30 5565 C 531.105 -1.51666 -0.591717 0
M  V30 5566 O 532.294 -1.73511 -0.419064 0
M  V30 5567 C 529.394 -3.31597 -0.69978 0
M  V30 5568 C 528.567 -4.37329 0.0788067 0
M  V30 5569 C 527.626 -5.20526 -0.770637 0
M  V30 5570 O 526.652 -5.68811 -0.210453 0
M  V30 5571 N 527.854 -5.41639 -2.08825 0
M  V30 5572 H 530.619 -2.81115 1.03897 0
M  V30 5573 H 528.18 -1.46201 0.695476 0
M  V30 5574 H 530.172 -3.84158 -1.27298 0
M  V30 5575 H 528.742 -2.78848 -1.41288 0
M  V30 5576 H 527.962 -3.8529 0.833381 0
M  V30 5577 H 529.25 -5.05079 0.614238 0
M  V30 5578 H 528.648 -5.04108 -2.56693 0
M  V30 5579 H 527.205 -5.97263 -2.60998 0
M  V30 5580 N 530.638 -0.59345 -1.46 0
M  V30 5581 C 531.548 0.135817 -2.34207 0
M  V30 5582 C 532.564 0.875008 -1.50398 0
M  V30 5583 O 533.74 0.835778 -1.83239 0
M  V30 5584 C 530.805 1.12977 -3.27776 0
M  V30 5585 C 529.866 0.394081 -4.27487 0
M  V30 5586 C 529.099 1.34068 -5.16586 0
M  V30 5587 O 529.322 2.5778 -5.08828 0
M  V30 5588 O 528.256 0.845426 -5.95933 0
M  V30 5589 H 532.082 -0.588691 -2.9794 0
M  V30 5590 H 529.667 -0.353784 -1.45151 0
M  V30 5591 H 531.549 1.70261 -3.85473 0
M  V30 5592 H 530.224 1.83556 -2.66625 0
M  V30 5593 H 529.131 -0.220869 -3.73447 0
M  V30 5594 H 530.464 -0.270939 -4.91454 0
M  V30 5595 N 532.116 1.54067 -0.331816 0
M  V30 5596 C 533.527 1.86059 0.15454 0
M  V30 5597 C 533.878 1.25331 1.50952 0
M  V30 5598 O 533.003 0.562441 2.08963 0
M  V30 5599 C 533.598 3.37581 0.287192 0
M  V30 5600 C 532.157 3.69493 0.717773 0
M  V30 5601 C 531.304 2.76863 -0.155569 0
M  V30 5602 H 534.255 1.48797 -0.55182 0
M  V30 5603 H 534.276 3.63744 1.11671 0
M  V30 5604 H 533.788 3.81751 -0.699131 0
M  V30 5605 H 531.889 3.3086 1.71354 0
M  V30 5606 H 532.002 4.76315 0.5158 0
M  V30 5607 H 530.366 2.51995 0.370213 0
M  V30 5608 H 531.149 3.23861 -1.13881 0
M  V30 5609 N 533.594 0.0601682 1.57485 0
M  V30 5610 C 534.84 -0.606552 1.94146 0
M  V30 5611 C 535.195 -1.67918 0.939225 0
M  V30 5612 O 534.488 -1.91558 -0.0402649 0
M  V30 5613 C 534.682 -1.23831 3.35262 0
M  V30 5614 C 534.511 -0.228408 4.4912 0
M  V30 5615 C 533.281 0.182813 5.04969 0
M  V30 5616 C 535.479 0.52975 5.11564 0
M  V30 5617 N 533.461 1.18464 6.02362 0
M  V30 5618 C 534.832 1.38439 6.04346 0
M  V30 5619 C 536.887 0.587084 4.94427 0
M  V30 5620 C 535.59 2.29125 6.81832 0
M  V30 5621 C 537.616 1.4814 5.72546 0
M  V30 5622 C 536.978 2.32375 6.64967 0
M  V30 5623 H 533.077 -0.193328 0.757726 0
M  V30 5624 H 535.661 0.1346 1.94234 0
M  V30 5625 H 533.832 -1.94944 3.35933 0
M  V30 5626 H 535.564 -1.86456 3.59188 0
M  V30 5627 H 532.319 -0.197968 4.73186 0
M  V30 5628 H 532.743 1.68271 6.55754 0
M  V30 5629 H 537.385 -0.049944 4.22771 0
M  V30 5630 H 535.103 2.93868 7.52773 0
M  V30 5631 H 538.689 1.53045 5.6131 0
M  V30 5632 H 537.569 3.00454 7.2436 0
M  V30 5633 N 535.072 -1.5615 -0.213296 0
M  V30 5634 C 536.349 -1.70349 -0.961281 0
M  V30 5635 C 536.729 -0.609791 -2.02101 0
M  V30 5636 O 536.077 0.381987 -2.25285 0
M  V30 5637 C 536.287 -3.11982 -1.56424 0
M  V30 5638 C 537.635 -3.71649 -2.05334 0
M  V30 5639 O 538.659 -3.14995 -1.66302 0
M  V30 5640 O 537.518 -4.71038 -2.77102 0
M  V30 5641 H 534.612 -0.694121 -0.449582 0
M  V30 5642 H 537.158 -1.68464 -0.204426 0
M  V30 5643 H 535.93 -3.83046 -0.799457 0
M  V30 5644 H 535.553 -3.18019 -2.38641 0
M  V30 5645 N 536.55 0.480323 -1.50102 0
M  V30 5646 C 537.798 1.23063 -1.60312 0
M  V30 5647 C 538.119 1.92659 -0.301226 0
M  V30 5648 O 537.389 1.83691 0.680753 0
M  V30 5649 H 535.969 0.457231 -0.590719 0
M  V30 5650 H 538.631 0.554893 -1.86834 0
M  V30 5651 H 537.727 1.9835 -2.40964 0
M  V30 5652 N 538.028 1.39524 0.732853 0
M  V30 5653 C 539.439 1.32905 1.31122 0
M  V30 5654 C 539.79 -0.00558708 1.96199 0
M  V30 5655 O 538.915 -0.907706 1.96443 0
M  V30 5656 C 539.51 2.40704 2.38426 0
M  V30 5657 C 538.069 2.37599 2.91931 0
M  V30 5658 C 537.216 2.2248 1.65523 0
M  V30 5659 H 540.167 1.49581 0.530207 0
M  V30 5660 H 540.188 2.07616 3.18867 0
M  V30 5661 H 539.7 3.37829 1.91033 0
M  V30 5662 H 537.801 1.44119 3.43599 0
M  V30 5663 H 537.914 3.32538 3.44899 0
M  V30 5664 H 536.278 1.69691 1.8994 0
M  V30 5665 H 537.061 3.21577 1.20178 0
M  V30 5666 N 539.506 -0.963266 1.24736 0
M  V30 5667 C 540.469 -2.04013 1.04457 0
M  V30 5668 C 541.469 -1.608 0.000335555 0
M  V30 5669 O 542.659 -1.72515 0.241719 0
M  V30 5670 C 539.791 -3.35858 0.584162 0
M  V30 5671 H 540.984 -2.23436 2.00041 0
M  V30 5672 H 538.537 -1.13914 1.07021 0
M  V30 5673 H 539.272 -3.22128 -0.374673 0
M  V30 5674 H 539.057 -3.68568 1.3379 0
M  V30 5675 H 540.547 -4.1502 0.463451 0
M  V30 5676 N 540.985 -1.06182 -1.16461 0
M  V30 5677 C 541.915 -0.692861 -2.22984 0
M  V30 5678 C 542.896 0.314122 -1.67174 0
M  V30 5679 O 544.081 0.189499 -1.93273 0
M  V30 5680 C 541.211 -0.07732 -3.47214 0
M  V30 5681 C 540.165 -1.01015 -4.15909 0
M  V30 5682 C 539.491 -0.257973 -5.34077 0
M  V30 5683 C 540.791 -2.33868 -4.67015 0
M  V30 5684 H 542.485 -1.58343 -2.54102 0
M  V30 5685 H 540.031 -0.76279 -1.22137 0
M  V30 5686 H 541.984 0.19266 -4.20959 0
M  V30 5687 H 540.708 0.848254 -3.15392 0
M  V30 5688 H 539.367 -1.26486 -3.44088 0
M  V30 5689 H 539.015 0.670684 -4.98509 0
M  V30 5690 H 538.715 -0.879638 -5.80979 0
M  V30 5691 H 540.239 0.00448788 -6.106 0
M  V30 5692 H 541.653 -2.1279 -5.32347 0
M  V30 5693 H 540.05 -2.91522 -5.24533 0
M  V30 5694 H 541.12 -2.97019 -3.83286 0
M  V30 5695 N 542.463 1.3308 -0.844243 0
M  V30 5696 C 543.393 2.3161 -0.296493 0
M  V30 5697 C 544.374 1.59215 0.598707 0
M  V30 5698 O 545.559 1.87077 0.521134 0
M  V30 5699 C 542.689 3.43313 0.524762 0
M  V30 5700 C 541.643 4.27115 -0.275106 0
M  V30 5701 C 540.969 5.30483 0.670236 0
M  V30 5702 C 542.269 5.00443 -1.49514 0
M  V30 5703 H 543.963 2.77672 -1.11976 0
M  V30 5704 H 541.509 1.33496 -0.539899 0
M  V30 5705 H 543.462 4.11273 0.918298 0
M  V30 5706 H 542.186 2.95952 1.3813 0
M  V30 5707 H 540.845 3.60787 -0.650267 0
M  V30 5708 H 540.493 4.79379 1.52332 0
M  V30 5709 H 540.193 5.87435 0.139123 0
M  V30 5710 H 541.717 6.01308 1.06117 0
M  V30 5711 H 543.131 5.61141 -1.17447 0
M  V30 5712 H 541.528 5.67071 -1.96343 0
M  V30 5713 H 542.598 4.28906 -2.26202 0
M  V30 5714 N 543.941 0.601185 1.45683 0
M  V30 5715 C 545.187 0.0940202 2.02582 0
M  V30 5716 C 545.52 -1.26972 1.46941 0
M  V30 5717 O 544.795 -1.83613 0.641612 0
M  V30 5718 C 545.078 0.0481715 3.60068 0
M  V30 5719 C 544.931 1.44212 4.26055 0
M  V30 5720 C 546.25 -0.642975 4.35378 0
M  V30 5721 H 543.369 0.0356404 0.736138 0
M  V30 5722 H 546.011 0.771929 1.73612 0
M  V30 5723 H 544.161 -0.529128 3.8488 0
M  V30 5724 H 545.833 2.06601 4.12449 0
M  V30 5725 H 544.076 2.00465 3.84703 0
M  V30 5726 H 544.747 1.36234 5.34925 0
M  V30 5727 H 547.223 -0.152351 4.15821 0
M  V30 5728 H 546.099 -0.644141 5.45107 0
M  V30 5729 H 546.36 -1.70785 4.0778 0
M  V30 5730 N 545.419 -1.53889 0.339982 0
M  V30 5731 C 546.666 -2.00855 -0.257621 0
M  V30 5732 C 546.994 -1.22788 -1.50842 0
M  V30 5733 O 546.249 -0.302567 -1.93347 0
M  V30 5734 C 546.548 -3.51968 -0.620735 0
M  V30 5735 C 546.214 -4.47741 0.532771 0
M  V30 5736 C 544.876 -4.73645 0.849339 0
M  V30 5737 C 547.228 -5.04551 1.3068 0
M  V30 5738 C 544.556 -5.53614 1.94237 0
M  V30 5739 C 546.908 -5.85713 2.39005 0
M  V30 5740 C 545.572 -6.09912 2.71225 0
M  V30 5741 H 544.842 -0.734979 -0.0942703 0
M  V30 5742 H 547.489 -1.85714 0.467159 0
M  V30 5743 H 545.794 -3.64921 -1.42618 0
M  V30 5744 H 547.491 -3.85762 -1.09495 0
M  V30 5745 H 544.081 -4.27711 0.275973 0
M  V30 5746 H 548.265 -4.84507 1.07549 0
M  V30 5747 H 543.521 -5.7059 2.19628 0
M  V30 5748 H 547.695 -6.28748 2.99415 0
M  V30 5749 H 545.322 -6.71665 3.56047 0
M  V30 5750 N 546.897 -0.0685191 -1.57451 0
M  V30 5751 C 548.122 0.613919 -1.98106 0
M  V30 5752 C 548.547 1.62551 -0.946501 0
M  V30 5753 O 547.905 1.81085 0.0882824 0
M  V30 5754 C 547.953 1.26189 -3.378 0
M  V30 5755 O 547.057 2.37773 -3.36954 0
M  V30 5756 H 546.398 0.158163 -0.644888 0
M  V30 5757 H 548.928 -0.142063 -2.04106 0
M  V30 5758 H 548.938 1.60951 -3.74912 0
M  V30 5759 H 547.613 0.520625 -4.12629 0
M  V30 5760 H 546.19 2.04829 -3.11608 0
M  V30 5761 N 548.375 1.56261 0.205012 0
M  V30 5762 C 549.652 1.70856 0.952233 0
M  V30 5763 C 550.032 0.620501 2.01775 0
M  V30 5764 O 549.38 -0.370035 2.25484 0
M  V30 5765 C 549.59 3.12807 1.54767 0
M  V30 5766 C 550.938 3.72733 2.0336 0
M  V30 5767 O 551.962 3.15873 1.64629 0
M  V30 5768 O 550.821 4.72501 2.746 0
M  V30 5769 H 547.915 0.696496 0.445895 0
M  V30 5770 H 550.461 1.6857 0.195489 0
M  V30 5771 H 549.233 3.83465 0.779132 0
M  V30 5772 H 548.856 3.1928 2.36951 0
M  V30 5773 N 549.853 -0.472356 1.50355 0
M  V30 5774 C 551.101 -1.22211 1.60962 0
M  V30 5775 C 551.422 -1.92497 0.311439 0
M  V30 5776 O 550.692 -1.8405 -0.671002 0
M  V30 5777 H 549.272 -0.454092 0.593135 0
M  V30 5778 H 551.934 -0.544977 1.87126 0
M  V30 5779 H 551.03 -1.9707 2.42012 0
M  V30 5780 N 551.331 -1.39911 -0.725443 0
M  V30 5781 C 552.278 -1.39393 -1.83952 0
M  V30 5782 C 553.248 -0.252249 -1.64173 0
M  V30 5783 O 554.433 -0.44882 -1.85446 0
M  V30 5784 C 551.573 -1.25262 -3.21564 0
M  V30 5785 C 550.686 -2.49054 -3.52982 0
M  V30 5786 C 549.821 -2.27439 -4.80047 0
M  V30 5787 C 548.86 -3.46857 -5.04338 0
M  V30 5788 N 547.997 -3.24499 -6.22611 0
M  V30 5789 H 552.837 -2.34622 -1.83729 0
M  V30 5790 H 550.374 -1.16537 -0.897636 0
M  V30 5791 H 552.332 -1.15077 -4.01015 0
M  V30 5792 H 550.962 -0.33657 -3.21041 0
M  V30 5793 H 550.014 -2.69805 -2.6816 0
M  V30 5794 H 551.326 -3.37973 -3.66846 0
M  V30 5795 H 550.48 -2.14551 -5.67497 0
M  V30 5796 H 549.219 -1.35929 -4.68374 0
M  V30 5797 H 548.224 -3.60232 -4.15346 0
M  V30 5798 H 549.449 -4.3928 -5.17889 0
M  V30 5799 H 547.395 -2.35663 -6.12208 0
M  V30 5800 H 547.312 -4.06978 -6.37106 0
M  V30 5801 H 548.58 -3.15325 -7.12875 0
M  V30 5802 N 552.809 0.956637 -1.25245 0
M  V30 5803 C 554.058 1.69537 -1.0927 0
M  V30 5804 C 554.371 1.92136 0.366503 0
M  V30 5805 O 555.577 2.63687 0.64665 0
M  V30 5806 C 554.033 3.05211 -1.9072 0
M  V30 5807 C 553.641 2.90416 -3.41119 0
M  V30 5808 C 555.385 3.82882 -1.83308 0
M  V30 5809 C 553.292 4.21468 -4.14872 0
M  V30 5810 H 552.222 0.635804 -0.405302 0
M  V30 5811 H 554.873 1.06513 -1.49423 0
M  V30 5812 H 553.255 3.69128 -1.43389 0
M  V30 5813 H 554.429 2.35444 -3.9611 0
M  V30 5814 H 552.744 2.26203 -3.49602 0
M  V30 5815 H 555.341 4.79944 -2.35706 0
M  V30 5816 H 555.684 4.0853 -0.800572 0
M  V30 5817 H 556.217 3.25711 -2.28379 0
M  V30 5818 H 552.956 4.01009 -5.18529 0
M  V30 5819 H 552.476 4.76213 -3.64665 0
M  V30 5820 H 554.155 4.90022 -4.22478 0
M  V30 5821 N 554.287 1.06798 1.15896 0
M  V30 5822 C 555.533 0.788934 1.86825 0
M  V30 5823 C 555.866 -0.683084 1.8179 0
M  V30 5824 O 555.141 -1.50086 1.23711 0
M  V30 5825 C 555.424 1.29065 3.36176 0
M  V30 5826 C 555.277 2.8268 3.49874 0
M  V30 5827 C 556.596 0.902655 4.30744 0
M  V30 5828 H 553.715 0.288066 0.678371 0
M  V30 5829 H 556.357 1.32479 1.36195 0
M  V30 5830 H 554.507 0.834806 3.79425 0
M  V30 5831 H 556.179 3.36511 3.15528 0
M  V30 5832 H 554.422 3.21157 2.91617 0
M  V30 5833 H 555.093 3.12852 4.54783 0
M  V30 5834 H 557.569 1.29535 3.95424 0
M  V30 5835 H 556.445 1.28111 5.3374 0
M  V30 5836 H 556.706 -0.191951 4.41683 0
M  V30 5837 N 555.766 -1.3263 0.851289 0
M  V30 5838 C 557.014 -1.96978 0.452128 0
M  V30 5839 C 557.335 -1.67715 -0.99482 0
M  V30 5840 O 556.605 -0.98259 -1.69476 0
M  V30 5841 H 555.185 -0.72873 0.164202 0
M  V30 5842 H 557.847 -1.61774 1.08698 0
M  V30 5843 H 556.943 -3.06387 0.594407 0
M  V30 5844 N 557.244 -0.608902 -1.45362 0
M  V30 5845 C 558.207 0.0992563 -2.28985 0
M  V30 5846 C 559.207 0.793841 -1.39838 0
M  V30 5847 O 560.397 0.641804 -1.61946 0
M  V30 5848 C 557.529 1.15073 -3.20891 0
M  V30 5849 H 558.722 -0.635964 -2.93079 0
M  V30 5850 H 556.275 -0.368007 -1.51906 0
M  V30 5851 H 557.01 1.91667 -2.616 0
M  V30 5852 H 556.795 0.656867 -3.86559 0
M  V30 5853 H 558.285 1.64665 -3.83765 0
M  V30 5854 N 558.722 1.53707 -0.348139 0
M  V30 5855 C 559.97 2.00591 0.246478 0
M  V30 5856 C 560.291 1.23753 1.50699 0
M  V30 5857 O 559.561 0.345964 1.92821 0
M  V30 5858 H 558.141 0.741053 0.0940679 0
M  V30 5859 H 560.803 1.89139 -0.470354 0
M  V30 5860 H 559.899 3.08297 0.485714 0
M  V30 5861 N 560.2 0.0768682 1.57412 0
M  V30 5862 C 561.13 -0.886026 2.16037 0
M  V30 5863 C 562.111 -1.30691 1.08876 0
M  V30 5864 O 563.296 -1.37705 1.36934 0
M  V30 5865 C 560.426 -2.1518 2.72608 0
M  V30 5866 C 559.38 -1.87015 3.8498 0
M  V30 5867 C 558.706 -3.20266 4.28175 0
M  V30 5868 C 560.006 -1.17143 5.08994 0
M  V30 5869 H 561.7 -0.397642 2.96748 0
M  V30 5870 H 559.246 -0.189823 1.42743 0
M  V30 5871 H 561.199 -2.82962 3.12266 0
M  V30 5872 H 559.923 -2.66269 1.89125 0
M  V30 5873 H 558.582 -1.21636 3.45833 0
M  V30 5874 H 558.23 -3.69207 3.41607 0
M  V30 5875 H 557.93 -3.0221 5.03927 0
M  V30 5876 H 559.454 -3.89237 4.70454 0
M  V30 5877 H 560.868 -1.75003 5.45937 0
M  V30 5878 H 559.265 -1.09328 5.90057 0
M  V30 5879 H 560.335 -0.151295 4.84664 0
M  V30 5880 N 561.678 -1.56367 -0.196722 0
M  V30 5881 C 562.955 -1.71359 -0.943159 0
M  V30 5882 C 563.335 -0.631192 -2.01443 0
M  V30 5883 O 562.683 0.358071 -2.25677 0
M  V30 5884 C 562.893 -3.13623 -1.53106 0
M  V30 5885 C 564.241 -3.73806 -2.01381 0
M  V30 5886 O 565.265 -3.16742 -1.62951 0
M  V30 5887 O 564.124 -4.73951 -2.7209 0
M  V30 5888 H 561.218 -0.698851 -0.442195 0
M  V30 5889 H 563.764 -1.68672 -0.186547 0
M  V30 5890 H 562.536 -3.83873 -0.758785 0
M  V30 5891 H 562.159 -3.20532 -2.35255 0
M  V30 5892 N 563.156 0.464375 -1.50603 0
M  V30 5893 C 564.572 0.798684 -1.38178 0
M  V30 5894 C 564.772 1.96568 -0.44308 0
M  V30 5895 O 563.828 2.52252 0.111814 0
M  V30 5896 C 565.141 1.10444 -2.79683 0
M  V30 5897 C 566.689 1.2105 -2.88645 0
M  V30 5898 C 567.164 1.54934 -4.30998 0
M  V30 5899 N 568.655 1.61913 -4.3398 0
M  V30 5900 C 569.39 1.8965 -5.41129 0
M  V30 5901 N 568.886 2.15361 -6.58477 0
M  V30 5902 N 570.679 1.91207 -5.28579 0
M  V30 5903 H 562.83 -0.304603 -2.10204 0
M  V30 5904 H 565.093 -0.0737804 -0.945125 0
M  V30 5905 H 564.799 0.319934 -3.50242 0
M  V30 5906 H 564.673 2.03896 -3.17342 0
M  V30 5907 H 567.06 1.98567 -2.18301 0
M  V30 5908 H 567.141 0.255613 -2.5452 0
M  V30 5909 H 566.785 0.779549 -5.01882 0
M  V30 5910 H 566.715 2.51584 -4.62615 0
M  V30 5911 H 569.206 1.44055 -3.49366 0
M  V30 5912 H 569.519 2.35818 -7.35941 0
M  V30 5913 H 567.864 2.1274 -6.6164 0
M  V30 5914 H 571.055 1.70622 -4.35897 0
M  V30 5915 H 571.228 2.12488 -6.12171 0
M  V30 5916 N 564.634 1.40294 0.718013 0
M  V30 5917 C 565.582 1.40536 1.85344 0
M  V30 5918 C 566.576 0.286192 1.66965 0
M  V30 5919 O 567.782 0.457105 1.74099 0
M  V30 5920 H 564.157 0.439236 0.61039 0
M  V30 5921 H 566.128 2.36275 1.82255 0
M  V30 5922 C 564.877 1.28245 3.23185 0
M  V30 5923 H 564.2 2.1364 3.37932 0
M  V30 5924 H 565.64 1.32474 4.02774 0
M  V30 5925 C 564.099 -0.0075503 3.36899 0
M  V30 5926 O 564.629 -0.971391 3.89778 0
M  V30 5927 N 562.835 -0.0762479 2.905 0
M  V30 5928 H 562.382 0.708819 2.47656 0
M  V30 5929 H 562.34 -0.938846 3.00055 0
M  V30 5930 N 566.112 -0.949982 1.2575 0
M  V30 5931 C 567.36 -1.6918 1.10555 0
M  V30 5932 C 567.681 -1.91773 -0.353298 0
M  V30 5933 O 566.951 -1.50814 -1.25027 0
M  V30 5934 H 565.531 -0.626952 0.406129 0
M  V30 5935 H 568.193 -1.1419 1.57945 0
M  V30 5936 H 567.289 -2.66915 1.61749 0
M  V30 5937 N 567.59 -1.07411 -1.15328 0
M  V30 5938 C 568.52 -0.716472 -2.22236 0
M  V30 5939 C 569.501 0.296373 -1.67498 0
M  V30 5940 O 570.686 0.168989 -1.93463 0
M  V30 5941 C 567.816 -0.114142 -3.47112 0
M  V30 5942 C 566.77 -1.05421 -4.14814 0
M  V30 5943 C 566.096 -0.314604 -5.33774 0
M  V30 5944 C 567.396 -2.38808 -4.64508 0
M  V30 5945 H 569.09 -1.61029 -2.52408 0
M  V30 5946 H 566.636 -0.775702 -1.21321 0
M  V30 5947 H 568.589 0.148001 -4.2114 0
M  V30 5948 H 567.313 0.814755 -3.16274 0
M  V30 5949 H 565.972 -1.30128 -3.42728 0
M  V30 5950 H 565.62 0.617772 -4.99192 0
M  V30 5951 H 565.32 -0.941209 -5.80013 0
M  V30 5952 H 566.844 -0.0602747 -6.1057 0
M  V30 5953 H 568.258 -2.18424 -5.3006 0
M  V30 5954 H 566.655 -2.97069 -5.21412 0
M  V30 5955 H 567.725 -3.01067 -3.80114 0
M  V30 5956 N 569.068 1.32177 -0.85831 0
M  V30 5957 C 570.484 1.49873 -0.548656 0
M  V30 5958 C 570.684 1.79278 0.919874 0
M  V30 5959 O 569.74 1.86451 1.70271 0
M  V30 5960 C 571.053 2.64043 -1.4388 0
M  V30 5961 C 572.601 2.77928 -1.43961 0
M  V30 5962 C 573.076 3.95182 -2.31506 0
M  V30 5963 N 574.567 4.0245 -2.29321 0
M  V30 5964 C 575.302 4.9242 -2.93786 0
M  V30 5965 N 574.798 5.87373 -3.67376 0
M  V30 5966 N 576.591 4.85572 -2.83155 0
M  V30 5967 H 568.742 1.11357 -1.80868 0
M  V30 5968 H 571.005 0.549175 -0.772729 0
M  V30 5969 H 570.711 2.49055 -2.48324 0
M  V30 5970 H 570.585 3.59912 -1.12885 0
M  V30 5971 H 572.972 2.92338 -0.402813 0
M  V30 5972 H 573.053 1.82762 -1.78974 0
M  V30 5973 H 572.697 3.81531 -3.35256 0
M  V30 5974 H 572.627 4.89633 -1.93823 0
M  V30 5975 H 575.118 3.34507 -1.75822 0
M  V30 5976 H 575.431 6.52728 -4.13722 0
M  V30 5977 H 573.776 5.87388 -3.71484 0
M  V30 5978 H 576.967 4.10363 -2.25211 0
M  V30 5979 H 577.14 5.55486 -3.33676 0
M  V30 5980 N 570.547 0.616602 1.45037 0
M  V30 5981 C 571.958 0.199359 1.85633 0
M  V30 5982 C 572.309 -1.24588 1.51566 0
M  V30 5983 O 571.434 -1.94594 0.94668 0
M  V30 5984 C 572.029 0.355033 3.36935 0
M  V30 5985 C 570.588 -0.00758748 3.76399 0
M  V30 5986 C 569.735 0.675256 2.68953 0
M  V30 5987 H 572.686 0.822708 1.3571 0
M  V30 5988 H 572.707 -0.410201 3.78282 0
M  V30 5989 H 572.219 1.40699 3.61698 0
M  V30 5990 H 570.32 -1.05837 3.57252 0
M  V30 5991 H 570.433 0.392346 4.77491 0
M  V30 5992 H 568.797 0.111992 2.54454 0
M  V30 5993 H 569.58 1.72952 2.96551 0
M  V30 5994 N 572.025 -1.5352 0.356285 0
M  V30 5995 C 572.988 -2.24071 -0.482182 0
M  V30 5996 C 573.988 -1.24531 -1.01729 0
M  V30 5997 O 575.178 -1.48876 -0.904513 0
M  V30 5998 C 572.31 -2.97025 -1.67299 0
M  V30 5999 H 573.503 -2.99596 0.135031 0
M  V30 6000 H 571.056 -1.55928 0.107825 0
M  V30 6001 H 571.791 -2.25719 -2.32855 0
M  V30 6002 H 571.576 -3.7005 -1.29636 0
M  V30 6003 H 573.066 -3.50683 -2.26741 0
M  V30 6004 N 573.503 -0.0852151 -1.57369 0
M  V30 6005 C 574.919 0.271436 -1.57275 0
M  V30 6006 C 575.119 1.69109 -1.09565 0
M  V30 6007 O 574.175 2.40549 -0.767611 0
M  V30 6008 C 575.488 0.0688638 -3.00621 0
M  V30 6009 C 577.036 0.137373 -3.12698 0
M  V30 6010 C 577.511 -0.0370832 -4.57985 0
M  V30 6011 N 579.002 0.0180794 -4.63196 0
M  V30 6012 C 579.737 -0.0922953 -5.73326 0
M  V30 6013 N 579.233 -0.256948 -6.92323 0
M  V30 6014 N 581.026 -0.0342702 -5.6209 0
M  V30 6015 H 573.177 -1.01288 -1.86693 0
M  V30 6016 H 575.44 -0.396138 -0.861266 0
M  V30 6017 H 575.146 -0.911277 -3.39689 0
M  V30 6018 H 575.02 0.815442 -3.6828 0
M  V30 6019 H 577.407 1.10801 -2.73509 0
M  V30 6020 H 577.488 -0.640532 -2.47651 0
M  V30 6021 H 577.132 -1.00455 -4.97867 0
M  V30 6022 H 577.062 0.760392 -5.21081 0
M  V30 6023 H 579.553 0.143202 -3.77629 0
M  V30 6024 H 579.866 -0.332949 -7.72082 0
M  V30 6025 H 578.211 -0.292487 -6.94384 0
M  V30 6026 H 581.402 0.0931605 -4.68007 0
M  V30 6027 H 581.575 -0.12374 -6.47882 0
M  V30 6028 N 574.981 1.5647 0.188427 0
M  V30 6029 C 576.211 1.84863 0.922463 0
M  V30 6030 C 576.619 0.666413 1.77075 0
M  V30 6031 O 575.962 -0.374044 1.79852 0
M  V30 6032 C 576.024 3.07447 1.86324 0
M  V30 6033 C 575.688 4.41066 1.19625 0
M  V30 6034 C 576.685 5.16767 0.569946 0
M  V30 6035 C 574.37 4.87802 1.19811 0
M  V30 6036 C 576.364 6.37384 -0.045594 0
M  V30 6037 C 574.051 6.08353 0.57874 0
M  V30 6038 C 575.049 6.82987 -0.0420259 0
M  V30 6039 O 574.737 8.01254 -0.651675 0
M  V30 6040 H 574.469 0.61784 0.274316 0
M  V30 6041 H 577.023 2.04437 0.198613 0
M  V30 6042 H 575.253 2.83774 2.62696 0
M  V30 6043 H 576.942 3.2243 2.46564 0
M  V30 6044 H 577.708 4.81749 0.560601 0
M  V30 6045 H 573.587 4.29662 1.67069 0
M  V30 6046 H 577.131 6.95578 -0.530731 0
M  V30 6047 H 573.028 6.42838 0.58561 0
M  V30 6048 H 573.796 8.16655 -0.549236 0
M  V30 6049 N 576.459 -0.456382 1.50847 0
M  V30 6050 C 577.699 -1.21704 1.64218 0
M  V30 6051 C 578.063 -1.88932 0.341859 0
M  V30 6052 O 579.264 -2.66497 0.351137 0
M  V30 6053 C 577.535 -2.22162 2.79962 0
M  V30 6054 S 579.094 -3.0697 3.13552 0
M  V30 6055 H 575.912 -0.412995 0.578754 0
M  V30 6056 H 578.514 -0.511637 1.88686 0
M  V30 6057 H 577.218 -1.71379 3.72904 0
M  V30 6058 H 576.749 -2.9731 2.57624 0
M  V30 6059 H 578.764 -4.23539 2.58513 0
M  V30 6060 N 577.937 -1.40673 -0.710563 0
M  V30 6061 C 579.186 -1.38525 -1.46607 0
M  V30 6062 C 579.499 0.0077024 -1.95598 0
M  V30 6063 O 580.705 0.151792 -2.71075 0
M  V30 6064 C 579.161 -2.43489 -2.6503 0
M  V30 6065 C 578.769 -3.88619 -2.22888 0
M  V30 6066 C 580.513 -2.50456 -3.42742 0
M  V30 6067 C 578.42 -4.85168 -3.3818 0
M  V30 6068 H 577.35 -0.515092 -0.550632 0
M  V30 6069 H 580.001 -1.66431 -0.772846 0
M  V30 6070 H 578.383 -2.0869 -3.36548 0
M  V30 6071 H 579.557 -4.32588 -1.58758 0
M  V30 6072 H 577.872 -3.85174 -1.58208 0
M  V30 6073 H 580.469 -3.19776 -4.28541 0
M  V30 6074 H 580.812 -1.53665 -3.86902 0
M  V30 6075 H 581.345 -2.84271 -2.78271 0
M  V30 6076 H 578.084 -5.8331 -2.99047 0
M  V30 6077 H 577.604 -4.4586 -4.01209 0
M  V30 6078 H 579.283 -5.05225 -4.04174 0
M  V30 6079 N 579.415 0.9433 -1.26252 0
M  V30 6080 C 580.643 1.72367 -1.14443 0
M  V30 6081 C 581.058 1.86392 0.300572 0
M  V30 6082 O 580.415 1.36978 1.20596 0
M  V30 6083 C 580.466 3.13155 -1.806 0
M  V30 6084 O 580.187 2.99803 -3.19452 0
M  V30 6085 C 581.688 4.07417 -1.74717 0
M  V30 6086 H 578.908 0.539758 -0.398626 0
M  V30 6087 H 581.452 1.18268 -1.66832 0
M  V30 6088 H 579.607 3.64162 -1.32154 0
M  V30 6089 H 580.021 3.88697 -3.52158 0
M  V30 6090 H 581.495 5.03773 -2.25647 0
M  V30 6091 H 581.972 4.3337 -0.713244 0
M  V30 6092 H 582.578 3.6233 -2.22704 0
M  V30 6093 N 580.893 1.08022 1.14757 0
M  V30 6094 C 581.84 0.706657 2.19716 0
M  V30 6095 C 582.81 -0.30525 1.63271 0
M  V30 6096 O 583.995 -0.19015 1.8985 0
M  V30 6097 C 581.135 0.117914 3.44898 0
M  V30 6098 C 580.248 1.18212 4.15512 0
M  V30 6099 C 579.383 0.557659 5.28265 0
M  V30 6100 C 578.422 1.60418 5.90705 0
M  V30 6101 N 577.559 1.0018 6.94916 0
M  V30 6102 H 582.399 1.60603 2.51019 0
M  V30 6103 H 579.936 0.802664 1.23271 0
M  V30 6104 H 581.894 -0.241112 4.16503 0
M  V30 6105 H 580.524 -0.744788 3.1409 0
M  V30 6106 H 579.576 1.65863 3.42335 0
M  V30 6107 H 580.888 1.97533 4.5802 0
M  V30 6108 H 580.042 0.146654 6.06523 0
M  V30 6109 H 578.781 -0.267249 4.86967 0
M  V30 6110 H 577.786 2.02489 5.11154 0
M  V30 6111 H 579.011 2.43149 6.34078 0
M  V30 6112 H 576.957 0.197917 6.55701 0
M  V30 6113 H 576.874 1.73216 7.35889 0
M  V30 6114 H 578.142 0.616523 7.77058 0
M  V30 6115 N 582.371 -1.3172 0.865308 0
M  V30 6116 C 583.648 -1.91574 0.394789 0
M  V30 6117 C 584.028 -1.78769 -1.12271 0
M  V30 6118 O 583.376 -1.19245 -1.94918 0
M  V30 6119 C 583.586 -3.37957 0.870982 0
M  V30 6120 C 584.934 -4.15073 0.894384 0
M  V30 6121 O 585.958 -3.4672 0.816325 0
M  V30 6122 O 584.817 -5.37151 1.00651 0
M  V30 6123 H 581.911 -0.818649 0.117229 0
M  V30 6124 H 584.457 -1.4042 0.952913 0
M  V30 6125 H 583.229 -3.41269 1.91444 0
M  V30 6126 H 582.852 -3.96534 0.290907 0
M  V30 6127 N 583.85 -0.624285 -1.44708 0
M  V30 6128 C 585.127 -0.0572781 -1.95516 0
M  V30 6129 C 585.507 1.41516 -1.56641 0
M  V30 6130 O 584.855 2.12614 -0.837111 0
M  V30 6131 C 585.065 -0.272944 -3.47931 0
M  V30 6132 C 586.413 -0.162529 -4.24289 0
M  V30 6133 O 587.437 -0.203946 -3.55616 0
M  V30 6134 O 586.296 -0.0616847 -5.46465 0
M  V30 6135 H 583.389 0.0262219 -0.826584 0
M  V30 6136 H 585.936 -0.695512 -1.54793 0
M  V30 6137 H 584.707 -1.29492 -3.69253 0
M  V30 6138 H 584.331 0.399756 -3.95585 0
M  V30 6139 N 585.328 1.53329 -0.364422 0
M  V30 6140 C 586.558 2.05359 0.226096 0
M  V30 6141 C 586.966 1.23777 1.43094 0
M  V30 6142 O 586.309 0.271139 1.81688 0
M  V30 6143 C 586.371 3.52918 0.684794 0
M  V30 6144 C 586.035 4.55218 -0.403206 0
M  V30 6145 C 587.032 5.04583 -1.2527 0
M  V30 6146 C 584.717 4.99134 -0.563117 0
M  V30 6147 C 586.711 5.96463 -2.24745 0
M  V30 6148 C 584.398 5.9082 -1.56124 0
M  V30 6149 C 585.396 6.39375 -2.40184 0
M  V30 6150 O 585.084 7.29255 -3.38293 0
M  V30 6151 H 584.816 0.674588 0.0436772 0
M  V30 6152 H 587.37 1.98688 -0.520782 0
M  V30 6153 H 585.6 3.57122 1.48326 0
M  V30 6154 H 587.289 3.87812 1.19818 0
M  V30 6155 H 588.055 4.71403 -1.14034 0
M  V30 6156 H 583.934 4.60928 0.0813909 0
M  V30 6157 H 587.478 6.34285 -2.90393 0
M  V30 6158 H 583.375 6.23414 -1.67407 0
M  V30 6159 H 584.143 7.47249 -3.34009 0
M  V30 6160 N 586.806 0.0935595 1.57322 0
M  V30 6161 C 588.055 -0.570191 1.93473 0
M  V30 6162 C 588.368 -1.69434 0.977318 0
M  V30 6163 O 589.574 -2.41914 1.23248 0
M  V30 6164 C 588.03 -1.06564 3.43762 0
M  V30 6165 C 587.638 0.0286723 4.47991 0
M  V30 6166 C 589.382 -1.70221 3.88877 0
M  V30 6167 C 587.289 -0.482046 5.89432 0
M  V30 6168 H 586.219 -0.216764 0.72217 0
M  V30 6169 H 588.87 0.169313 1.82717 0
M  V30 6170 H 587.252 -1.85878 3.49664 0
M  V30 6171 H 588.426 0.804106 4.5373 0
M  V30 6172 H 586.741 0.570336 4.12476 0
M  V30 6173 H 589.338 -2.09502 4.91948 0
M  V30 6174 H 589.681 -2.57078 3.27439 0
M  V30 6175 H 590.214 -0.974919 3.85668 0
M  V30 6176 H 586.953 0.349871 6.54566 0
M  V30 6177 H 586.473 -1.22452 5.87167 0
M  V30 6178 H 588.152 -0.951508 6.39965 0
M  V30 6179 N 588.284 -1.56567 -0.180126 0
M  V30 6180 C 589.53 -1.81761 -0.899497 0
M  V30 6181 C 589.863 -0.670015 -1.82276 0
M  V30 6182 O 589.138 0.328575 -1.91705 0
M  V30 6183 C 589.421 -3.17296 -1.7028 0
M  V30 6184 C 589.274 -4.4257 -0.803255 0
M  V30 6185 C 590.593 -3.49678 -2.67233 0
M  V30 6186 H 587.712 -0.661192 -0.325567 0
M  V30 6187 H 590.354 -1.89272 -0.16612 0
M  V30 6188 H 588.504 -3.11023 -2.32802 0
M  V30 6189 H 590.176 -4.60902 -0.191585 0
M  V30 6190 H 588.419 -4.33658 -0.110796 0
M  V30 6191 H 589.09 -5.33935 -1.40064 0
M  V30 6192 H 591.566 -3.56347 -2.14839 0
M  V30 6193 H 590.442 -4.45605 -3.20511 0
M  V30 6194 H 590.703 -2.73932 -3.47007 0
M  V30 6195 N 589.762 0.448376 -1.51087 0
M  V30 6196 C 590.692 1.55102 -1.74544 0
M  V30 6197 C 591.673 1.59357 -0.594932 0
M  V30 6198 O 592.858 1.75261 -0.836491 0
M  V30 6199 C 589.988 2.93268 -1.86041 0
M  V30 6200 C 588.942 3.03877 -3.01402 0
M  V30 6201 C 588.268 4.43914 -2.98068 0
M  V30 6202 C 589.568 2.7898 -4.41551 0
M  V30 6203 H 591.262 1.35724 -2.66869 0
M  V30 6204 H 588.808 0.651498 -1.28419 0
M  V30 6205 H 590.761 3.70356 -2.01034 0
M  V30 6206 H 589.485 3.13853 -0.903548 0
M  V30 6207 H 588.144 2.29227 -2.86096 0
M  V30 6208 H 587.792 4.6145 -2.00182 0
M  V30 6209 H 587.492 4.51944 -3.75527 0
M  V30 6210 H 589.016 5.22991 -3.1514 0
M  V30 6211 H 590.43 3.45805 -4.57265 0
M  V30 6212 H 588.827 2.98431 -5.20633 0
M  V30 6213 H 589.897 1.74663 -4.5235 0
M  V30 6214 N 591.24 1.41047 0.703093 0
M  V30 6215 C 592.488 1.39723 1.4602 0
M  V30 6216 C 592.809 0.00461257 1.94999 0
M  V30 6217 O 592.079 -0.952292 1.71196 0
M  V30 6218 H 590.659 0.514281 0.541779 0
M  V30 6219 H 593.321 1.76217 0.832678 0
M  V30 6220 H 592.417 2.07982 2.32701 0
M  V30 6221 N 592.718 -0.936591 1.26751 0
M  V30 6222 C 593.943 -1.72288 1.15462 0
M  V30 6223 C 594.368 -1.85915 -0.285887 0
M  V30 6224 O 593.726 -1.35272 -1.20711 0
M  V30 6225 C 593.774 -3.10503 1.83359 0
M  V30 6226 O 592.878 -3.96745 1.1255 0
M  V30 6227 H 592.219 -0.52843 0.402067 0
M  V30 6228 H 594.749 -1.17271 1.67656 0
M  V30 6229 H 594.759 -3.60867 1.90365 0
M  V30 6230 H 593.434 -2.99901 2.88153 0
M  V30 6231 H 592.011 -3.55191 1.13551 0
M  V30 6232 N 594.196 -1.08629 -1.14182 0
M  V30 6233 C 595.106 -0.730126 -2.22949 0
M  V30 6234 C 596.122 0.26436 -1.7198 0
M  V30 6235 O 597.298 0.107742 -2.01112 0
M  V30 6236 C 594.363 -0.147227 -3.46387 0
M  V30 6237 C 593.424 -1.19662 -4.12286 0
M  V30 6238 C 592.657 -0.641437 -5.29831 0
M  V30 6239 O 592.88 0.538351 -5.67854 0
M  V30 6240 O 591.814 -1.39257 -5.85569 0
M  V30 6241 H 595.64 -1.63753 -2.55771 0
M  V30 6242 H 593.225 -0.860118 -1.22157 0
M  V30 6243 H 595.107 0.174923 -4.21037 0
M  V30 6244 H 593.782 0.733304 -3.15285 0
M  V30 6245 H 592.689 -1.57133 -3.395 0
M  V30 6246 H 594.022 -2.0495 -4.475 0
M  V30 6247 N 595.674 1.31259 -0.872281 0
M  V30 6248 C 596.637 2.26744 -0.334656 0
M  V30 6249 C 597.637 1.52307 0.515681 0
M  V30 6250 O 598.827 1.71148 0.324656 0
M  V30 6251 C 595.959 3.36841 0.524482 0
M  V30 6252 H 597.152 2.75812 -1.17762 0
M  V30 6253 H 594.705 1.42232 -0.648064 0
M  V30 6254 H 595.44 2.93069 1.38855 0
M  V30 6255 H 595.225 3.92009 -0.0844299 0
M  V30 6256 H 596.715 4.07944 0.892838 0
M  V30 6257 N 597.152 0.631951 1.44375 0
M  V30 6258 C 598.4 0.136497 2.01639 0
M  V30 6259 C 598.721 -1.24637 1.49969 0
M  V30 6260 O 597.991 -1.82827 0.70363 0
M  V30 6261 H 596.571 0.0474703 0.74549 0
M  V30 6262 H 599.233 0.818837 1.76865 0
M  V30 6263 H 598.329 0.104817 3.11924 0
M  V30 6264 N 598.631 -1.53133 0.372548 0
M  V30 6265 C 599.877 -2.01654 -0.215277 0
M  V30 6266 C 600.21 -1.25914 -1.47849 0
M  V30 6267 O 599.485 -0.3548 -1.91237 0
M  V30 6268 C 599.768 -3.56609 -0.500187 0
M  V30 6269 C 599.621 -4.43036 0.777145 0
M  V30 6270 C 600.94 -4.20528 -1.29786 0
M  V30 6271 H 598.059 -0.732991 -0.0767686 0
M  V30 6272 H 600.701 -1.83335 0.498814 0
M  V30 6273 H 598.851 -3.7235 -1.10852 0
M  V30 6274 H 600.523 -4.39079 1.41447 0
M  V30 6275 H 598.766 -4.10723 1.39604 0
M  V30 6276 H 599.437 -5.49424 0.532662 0
M  V30 6277 H 601.913 -4.08663 -0.783198 0
M  V30 6278 H 600.789 -5.28962 -1.46596 0
M  V30 6279 H 601.05 -3.77051 -2.30836 0
M  V30 6280 N 600.109 -0.101901 -1.5727 0
M  V30 6281 C 601.355 0.561027 -1.94885 0
M  V30 6282 C 601.688 1.6741 -0.984258 0
M  V30 6283 O 600.963 1.94491 -0.0184767 0
M  V30 6284 C 601.246 1.10982 -3.42571 0
M  V30 6285 C 601.099 0.00133418 -4.498 0
M  V30 6286 C 602.418 2.00608 -3.9172 0
M  V30 6287 H 599.537 0.202467 -0.708644 0
M  V30 6288 H 602.179 -0.173992 -1.89202 0
M  V30 6289 H 600.329 1.73621 -3.47546 0
M  V30 6290 H 602.001 -0.63322 -4.56933 0
M  V30 6291 H 600.244 -0.664143 -4.28686 0
M  V30 6292 H 600.915 0.426253 -5.50352 0
M  V30 6293 H 603.391 1.47864 -3.88941 0
M  V30 6294 H 602.267 2.3593 -4.95609 0
M  V30 6295 H 602.528 2.92608 -3.3141 0
M  V30 6296 N 601.587 1.56661 0.17182 0
M  V30 6297 C 602.864 1.72838 0.915778 0
M  V30 6298 C 603.244 0.66316 2.00413 0
M  V30 6299 O 602.592 -0.322123 2.26218 0
M  V30 6300 C 602.802 3.16019 1.48097 0
M  V30 6301 C 604.15 3.76962 1.95408 0
M  V30 6302 O 605.174 3.19294 1.57892 0
M  V30 6303 O 604.033 4.78219 2.64516 0
M  V30 6304 H 601.127 0.705797 0.431021 0
M  V30 6305 H 603.673 1.68947 0.159689 0
M  V30 6306 H 602.445 3.85031 0.697618 0
M  V30 6307 H 602.068 3.24234 2.30126 0
M  V30 6308 N 603.065 -0.440357 1.51323 0
M  V30 6309 C 603.995 -1.54174 1.75364 0
M  V30 6310 C 604.976 -1.59039 0.603375 0
M  V30 6311 O 606.161 -1.74815 0.845774 0
M  V30 6312 C 603.291 -2.92277 1.87593 0
M  V30 6313 C 602.245 -3.02274 3.03009 0
M  V30 6314 C 601.571 -4.42327 3.00418 0
M  V30 6315 C 602.871 -2.76634 4.43024 0
M  V30 6316 H 604.565 -1.34307 2.67585 0
M  V30 6317 H 602.111 -0.644678 1.28763 0
M  V30 6318 H 604.064 -3.69284 2.02995 0
M  V30 6319 H 602.788 -3.13369 0.920179 0
M  V30 6320 H 601.447 -2.27706 2.87307 0
M  V30 6321 H 601.095 -4.60382 2.02626 0
M  V30 6322 H 600.795 -4.49946 3.77918 0
M  V30 6323 H 602.319 -5.21312 3.17909 0
M  V30 6324 H 603.733 -3.43376 4.59093 0
M  V30 6325 H 602.13 -2.95666 5.22208 0
M  V30 6326 H 603.2 -1.72262 4.5327 0
M  V30 6327 N 604.543 -1.41418 -0.695603 0
M  V30 6328 C 605.954 -1.36335 -1.27552 0
M  V30 6329 C 606.305 -0.0464336 -1.96145 0
M  V30 6330 O 605.43 0.855304 -1.9878 0
M  V30 6331 C 606.025 -2.46941 -2.3196 0
M  V30 6332 C 604.584 -2.45256 -2.85529 0
M  V30 6333 C 603.731 -2.2679 -1.59566 0
M  V30 6334 H 606.682 -1.50934 -0.490362 0
M  V30 6335 H 606.703 -2.15997 -3.1325 0
M  V30 6336 H 606.215 -3.42775 -1.82008 0
M  V30 6337 H 604.316 -1.53179 -3.39657 0
M  V30 6338 H 604.429 -3.41565 -3.35961 0
M  V30 6339 H 602.793 -1.74667 -1.85374 0
M  V30 6340 H 603.576 -3.24651 -1.1161 0
M  V30 6341 N 606.021 0.929856 -1.27246 0
M  V30 6342 C 606.931 2.0636 -1.11592 0
M  V30 6343 C 607.947 1.73938 -0.046496 0
M  V30 6344 O 609.123 1.9981 -0.252544 0
M  V30 6345 C 606.188 3.38213 -0.762437 0
M  V30 6346 C 605.249 3.84346 -1.9125 0
M  V30 6347 C 604.482 5.09906 -1.57579 0
M  V30 6348 O 604.705 5.68354 -0.482694 0
M  V30 6349 O 603.639 5.51359 -2.41426 0
M  V30 6350 H 607.465 2.22478 -2.0673 0
M  V30 6351 H 605.05 1.04865 -1.06413 0
M  V30 6352 H 606.932 4.1741 -0.57854 0
M  V30 6353 H 605.607 3.23307 0.159439 0
M  V30 6354 H 604.514 3.06045 -2.15144 0
M  V30 6355 H 605.847 4.0379 -2.81451 0
M  V30 6356 N 607.499 1.09233 1.13605 0
M  V30 6357 C 608.745 0.828385 1.8511 0
M  V30 6358 C 609.078 -0.64437 1.83198 0
M  V30 6359 O 608.353 -1.47428 1.26867 0
M  V30 6360 C 608.636 1.36167 3.33363 0
M  V30 6361 C 608.489 2.90038 3.438 0
M  V30 6362 C 609.808 0.993819 4.28732 0
M  V30 6363 H 606.927 0.30239 0.672108 0
M  V30 6364 H 609.569 1.35339 1.33355 0
M  V30 6365 H 607.719 0.9151 3.77569 0
M  V30 6366 H 609.391 3.43128 3.08319 0
M  V30 6367 H 607.634 3.27271 2.84739 0
M  V30 6368 H 608.305 3.22428 4.48045 0
M  V30 6369 H 610.781 1.37893 3.92587 0
M  V30 6370 H 609.657 1.39403 5.30903 0
M  V30 6371 H 609.918 -0.0982206 4.41991 0
M  V30 6372 N 608.977 -1.30795 0.87923 0
M  V30 6373 C 610.254 -1.91145 0.415086 0
M  V30 6374 C 610.634 -1.7995 -1.10368 0
M  V30 6375 O 609.982 -1.21305 -1.93642 0
M  V30 6376 C 610.192 -3.37014 0.906778 0
M  V30 6377 C 611.54 -4.14101 0.938358 0
M  V30 6378 O 612.564 -3.45834 0.853053 0
M  V30 6379 O 611.423 -5.36054 1.06342 0
M  V30 6380 H 608.517 -0.81736 0.125905 0
M  V30 6381 H 611.063 -1.39401 0.967753 0
M  V30 6382 H 609.835 -3.3922 1.95053 0
M  V30 6383 H 609.458 -3.96204 0.332948 0
M  V30 6384 N 610.455 -0.639598 -1.44038 0
M  V30 6385 C 611.704 -0.144885 -2.01179 0
M  V30 6386 C 612.017 1.24372 -1.50967 0
M  V30 6387 O 613.223 1.83291 -2.00292 0
M  V30 6388 C 611.679 -0.208244 -3.59297 0
M  V30 6389 C 611.287 -1.59869 -4.18504 0
M  V30 6390 C 613.031 0.229568 -4.23879 0
M  V30 6391 C 610.938 -1.61671 -5.68873 0
M  V30 6392 H 609.868 -0.0504005 -0.752314 0
M  V30 6393 H 612.519 -0.799639 -1.65161 0
M  V30 6394 H 610.901 0.513767 -3.92653 0
M  V30 6395 H 612.075 -2.34496 -3.96671 0
M  V30 6396 H 610.39 -1.98131 -3.66242 0
M  V30 6397 H 612.987 0.235758 -5.3418 0
M  V30 6398 H 613.33 1.25848 -3.96822 0
M  V30 6399 H 613.863 -0.440233 -3.95357 0
M  V30 6400 H 610.602 -2.62427 -6.00677 0
M  V30 6401 H 610.122 -0.913489 -5.92803 0
M  V30 6402 H 611.801 -1.35439 -6.32665 0
M  V30 6403 N 611.933 1.52934 -0.380664 0
M  V30 6404 C 613.179 2.01765 0.20458 0
M  V30 6405 C 613.512 1.26696 1.47179 0
M  V30 6406 O 612.787 0.364936 1.91046 0
M  V30 6407 C 613.07 3.56869 0.481269 0
M  V30 6408 C 612.923 4.42617 -0.800629 0
M  V30 6409 C 614.242 4.2121 1.27554 0
M  V30 6410 H 611.361 0.733388 0.0728803 0
M  V30 6411 H 614.003 1.83068 -0.50853 0
M  V30 6412 H 612.153 3.72932 1.08875 0
M  V30 6413 H 613.825 4.38323 -1.43773 0
M  V30 6414 H 612.068 4.09977 -1.4178 0
M  V30 6415 H 612.739 5.49134 -0.561791 0
M  V30 6416 H 615.215 4.09072 0.761514 0
M  V30 6417 H 614.091 5.29732 1.43788 0
M  V30 6418 H 614.352 3.78269 2.28833 0
M  V30 6419 N 613.412 0.11024 1.57214 0
M  V30 6420 C 614.322 -0.857077 2.18383 0
M  V30 6421 C 615.338 -1.29915 1.1575 0
M  V30 6422 O 616.514 -1.36394 1.48184 0
M  V30 6423 C 613.579 -2.09264 2.76423 0
M  V30 6424 C 612.64 -1.70333 3.94063 0
M  V30 6425 C 611.873 -2.87999 4.49324 0
M  V30 6426 O 612.096 -4.0317 4.03497 0
M  V30 6427 O 611.03 -2.6559 5.40135 0
M  V30 6428 H 614.856 -0.366561 3.0148 0
M  V30 6429 H 612.441 -0.114914 1.48957 0
M  V30 6430 H 614.323 -2.81644 3.13456 0
M  V30 6431 H 612.998 -2.57339 1.96363 0
M  V30 6432 H 611.905 -0.950864 3.61814 0
M  V30 6433 H 613.238 -1.27007 4.75531 0
M  V30 6434 N 614.89 -1.56749 -0.16351 0
M  V30 6435 C 615.837 -1.97011 -1.2023 0
M  V30 6436 C 616.807 -0.835186 -1.43575 0
M  V30 6437 O 617.992 -1.09594 -1.56185 0
M  V30 6438 C 615.132 -2.34186 -2.53478 0
M  V30 6439 C 614.245 -3.60893 -2.37446 0
M  V30 6440 C 613.38 -3.87245 -3.63614 0
M  V30 6441 C 612.419 -5.07274 -3.42548 0
M  V30 6442 N 611.556 -5.29719 -4.60806 0
M  V30 6443 H 616.396 -2.85562 -0.851958 0
M  V30 6444 H 613.933 -1.41292 -0.409257 0
M  V30 6445 H 615.891 -2.53764 -3.31149 0
M  V30 6446 H 614.521 -1.48736 -2.86492 0
M  V30 6447 H 613.573 -3.49185 -1.50911 0
M  V30 6448 H 614.885 -4.48722 -2.1783 0
M  V30 6449 H 614.039 -4.07232 -4.49719 0
M  V30 6450 H 612.778 -2.97806 -3.86216 0
M  V30 6451 H 611.783 -4.87177 -2.5483 0
M  V30 6452 H 613.008 -5.98251 -3.2136 0
M  V30 6453 H 610.954 -4.43233 -4.83612 0
M  V30 6454 H 610.871 -6.11786 -4.44132 0
M  V30 6455 H 612.139 -5.54192 -5.48171 0
M  V30 6456 N 616.368 0.432326 -1.51554 0
M  V30 6457 C 617.616 1.17901 -1.64146 0
M  V30 6458 C 617.937 1.91604 -0.362367 0
M  V30 6459 O 617.207 1.85764 0.621968 0
M  V30 6460 H 615.787 0.438206 -0.604966 0
M  V30 6461 H 618.449 0.495172 -1.88505 0
M  V30 6462 H 617.545 1.90584 -2.47152 0
M  V30 6463 N 617.846 1.41785 0.688094 0
M  V30 6464 C 619.262 1.24419 0.999608 0
M  V30 6465 C 619.462 0.138868 2.01021 0
M  V30 6466 O 618.518 -0.494283 2.47615 0
M  V30 6467 C 619.831 2.59625 1.51709 0
M  V30 6468 C 621.379 2.66869 1.63554 0
M  V30 6469 C 621.854 4.0241 2.18702 0
M  V30 6470 N 623.345 4.04295 2.26053 0
M  V30 6471 C 624.08 5.05977 2.69768 0
M  V30 6472 N 623.576 6.18047 3.13033 0
M  V30 6473 N 625.369 4.93336 2.69398 0
M  V30 6474 H 617.52 2.12392 0.0187427 0
M  V30 6475 H 619.783 0.945347 0.0708673 0
M  V30 6476 H 619.489 3.41297 0.849059 0
M  V30 6477 H 619.363 2.82628 2.49803 0
M  V30 6478 H 621.75 1.8555 2.29467 0
M  V30 6479 H 621.831 2.47668 0.639857 0
M  V30 6480 H 621.475 4.8418 1.53402 0
M  V30 6481 H 621.405 4.18955 3.19037 0
M  V30 6482 H 623.896 3.23383 1.9553 0
M  V30 6483 H 624.209 6.91498 3.45038 0
M  V30 6484 H 622.554 6.21572 3.10923 0
M  V30 6485 H 625.745 4.04865 2.34952 0
M  V30 6486 H 625.918 5.72717 3.03148 0
M  V30 6487 N 619.324 -0.923095 1.27737 0
M  V30 6488 C 620.254 -2.04124 1.13383 0
M  V30 6489 C 621.235 -1.70066 0.0340658 0
M  V30 6490 O 622.42 -1.93068 0.209383 0
M  V30 6491 C 619.55 -3.3831 0.785097 0
M  V30 6492 C 618.504 -3.86496 1.8386 0
M  V30 6493 C 617.83 -5.1754 1.34373 0
M  V30 6494 C 619.13 -4.09381 3.24353 0
M  V30 6495 H 620.824 -2.1639 2.06919 0
M  V30 6496 H 618.37 -1.03976 0.996243 0
M  V30 6497 H 620.323 -4.16016 0.671485 0
M  V30 6498 H 619.047 -3.2607 -0.185969 0
M  V30 6499 H 617.706 -3.10987 1.9412 0
M  V30 6500 H 617.354 -5.01696 0.361989 0
M  V30 6501 H 617.054 -5.50751 2.04811 0
M  V30 6502 H 618.578 -5.97811 1.24315 0
M  V30 6503 H 619.992 -4.77641 3.17067 0
M  V30 6504 H 618.389 -4.53906 3.92542 0
M  V30 6505 H 619.459 -3.14515 3.69064 0
M  V30 6506 N 620.802 -1.09834 -1.13024 0
M  V30 6507 C 621.765 -0.745058 -2.16752 0
M  V30 6508 C 622.765 0.227435 -1.59183 0
M  V30 6509 O 623.955 0.0050786 -1.74199 0
M  V30 6510 C 621.087 -0.102543 -3.40746 0
M  V30 6511 H 622.28 -1.66375 -2.49518 0
M  V30 6512 H 619.833 -0.898061 -1.27924 0
M  V30 6513 H 620.568 0.827177 -3.13573 0
M  V30 6514 H 620.353 -0.80235 -3.83803 0
M  V30 6515 H 621.843 0.129082 -4.174 0
M  V30 6516 N 622.28 1.30327 -0.886154 0
M  V30 6517 C 623.691 1.78243 -0.555554 0
M  V30 6518 C 624.042 1.72849 0.928314 0
M  V30 6519 O 623.167 1.30607 1.72542 0
M  V30 6520 C 623.762 3.23654 -1.00168 0
M  V30 6521 C 622.321 3.69401 -0.722471 0
M  V30 6522 C 621.468 2.50753 -1.18399 0
M  V30 6523 H 624.419 1.1718 -1.07026 0
M  V30 6524 H 624.44 3.79056 -0.331152 0
M  V30 6525 H 623.952 3.27548 -2.08169 0
M  V30 6526 H 622.053 3.70995 0.345496 0
M  V30 6527 H 622.166 4.60818 -1.31085 0
M  V30 6528 H 620.53 2.47452 -0.603303 0
M  V30 6529 H 621.313 2.57383 -2.27176 0
M  V30 6530 N 623.758 0.647228 1.43697 0
M  V30 6531 C 625.006 0.157876 2.01482 0
M  V30 6532 C 625.327 -1.23039 1.51282 0
M  V30 6533 O 624.597 -1.82071 0.722982 0
M  V30 6534 H 623.177 0.0553745 0.744945 0
M  V30 6535 H 625.839 0.83755 1.75986 0
M  V30 6536 H 624.935 0.137895 3.11795 0
M  V30 6537 N 625.236 -1.5273 0.388769 0
M  V30 6538 C 626.168 -2.24081 -0.481704 0
M  V30 6539 C 627.181 -1.26307 -1.02715 0
M  V30 6540 O 628.37 -1.52386 -0.929565 0
M  V30 6541 C 625.47 -2.94315 -1.68024 0
M  V30 6542 C 624.643 -4.18791 -1.26226 0
M  V30 6543 C 623.702 -4.72028 -2.32542 0
M  V30 6544 O 622.728 -5.35129 -1.93972 0
M  V30 6545 N 623.93 -4.51838 -3.64448 0
M  V30 6546 H 626.695 -2.9942 0.129591 0
M  V30 6547 H 624.256 -1.60465 0.2151 0
M  V30 6548 H 626.248 -3.26831 -2.38671 0
M  V30 6549 H 624.818 -2.22287 -2.19789 0
M  V30 6550 H 624.038 -3.92318 -0.384703 0
M  V30 6551 H 625.326 -4.99668 -0.959647 0
M  V30 6552 H 624.724 -4.01468 -3.98547 0
M  V30 6553 H 623.281 -4.88845 -4.31131 0
M  V30 6554 N 626.714 -0.118576 -1.57153 0
M  V30 6555 C 627.647 0.869046 -2.11004 0
M  V30 6556 C 628.625 1.26115 -1.02634 0
M  V30 6557 O 629.809 1.36228 -1.30285 0
M  V30 6558 C 626.936 2.16297 -2.6064 0
M  V30 6559 C 625.982 1.91896 -3.80891 0
M  V30 6560 S 626.815 1.13562 -5.2332 0
M  V30 6561 C 627.971 2.44135 -5.76324 0
M  V30 6562 H 628.204 0.411005 -2.94445 0
M  V30 6563 H 625.737 0.0951891 -1.54106 0
M  V30 6564 H 627.695 2.90642 -2.89892 0
M  V30 6565 H 626.356 2.59219 -1.77382 0
M  V30 6566 H 625.549 2.8777 -4.13768 0
M  V30 6567 H 625.151 1.25672 -3.52253 0
M  V30 6568 H 627.443 3.39976 -5.86022 0
M  V30 6569 H 628.386 2.15803 -6.74414 0
M  V30 6570 H 628.794 2.53483 -5.04387 0
M  V30 6571 N 628.193 1.56834 0.155195 0
M  V30 6572 C 629.442 1.82088 0.867567 0
M  V30 6573 C 629.755 0.69849 1.82703 0
M  V30 6574 O 630.961 0.836407 2.58295 0
M  V30 6575 C 629.417 3.22707 1.59336 0
M  V30 6576 C 629.025 4.42859 0.676719 0
M  V30 6577 C 630.769 3.57242 2.293 0
M  V30 6578 C 628.676 5.74501 1.40367 0
M  V30 6579 H 627.606 0.679057 0.327715 0
M  V30 6580 H 630.257 1.83105 0.120351 0
M  V30 6581 H 628.639 3.16054 2.38591 0
M  V30 6582 H 629.813 4.60731 -0.0800196 0
M  V30 6583 H 628.128 4.16311 0.0859129 0
M  V30 6584 H 630.725 4.52847 2.84312 0
M  V30 6585 H 631.068 2.82901 3.05406 0
M  V30 6586 H 631.601 3.6552 1.56972 0
M  V30 6587 H 628.34 6.51915 0.684623 0
M  V30 6588 H 627.86 5.60579 2.13332 0
M  V30 6589 H 629.539 6.17016 1.94681 0
M  V30 6590 N 629.671 -0.424282 1.51781 0
M  V30 6591 C 630.634 -1.49848 1.73431 0
M  V30 6592 C 631.634 -1.49016 0.604225 0
M  V30 6593 O 632.824 -1.50808 0.871935 0
M  V30 6594 C 629.956 -2.89332 1.80277 0
M  V30 6595 H 631.149 -1.3195 2.69312 0
M  V30 6596 H 628.702 -0.653809 1.41968 0
M  V30 6597 H 629.437 -3.12618 0.862568 0
M  V30 6598 H 629.222 -2.9134 2.62419 0
M  V30 6599 H 630.712 -3.67233 1.98821 0
M  V30 6600 N 631.149 -1.42148 -0.680565 0
M  V30 6601 C 632.395 -1.42521 -1.44277 0
M  V30 6602 C 632.728 -0.0393718 -1.9416 0
M  V30 6603 O 632.003 0.935425 -1.70529 0
M  V30 6604 C 632.286 -2.44475 -2.64394 0
M  V30 6605 C 632.139 -3.92226 -2.20179 0
M  V30 6606 C 633.458 -2.43491 -3.66606 0
M  V30 6607 H 630.577 -0.518985 -0.523282 0
M  V30 6608 H 633.219 -1.73524 -0.773914 0
M  V30 6609 H 631.369 -2.18168 -3.21458 0
M  V30 6610 H 633.041 -4.29493 -1.68327 0
M  V30 6611 H 631.284 -4.0637 -1.5181 0
M  V30 6612 H 631.955 -4.59133 -3.06433 0
M  V30 6613 H 634.431 -2.66872 -3.19247 0
M  V30 6614 H 633.307 -3.16816 -4.4824 0
M  V30 6615 H 633.568 -1.45881 -4.17338 0
M  V30 6616 N 632.627 0.916307 -1.28225 0
M  V30 6617 C 633.904 1.64429 -1.05936 0
M  V30 6618 C 634.284 2.07234 0.402139 0
M  V30 6619 O 633.632 1.81535 1.3877 0
M  V30 6620 C 633.842 2.83773 -2.03159 0
M  V30 6621 C 635.19 3.54852 -2.33164 0
M  V30 6622 O 636.214 2.93918 -2.01223 0
M  V30 6623 O 635.073 4.64663 -2.87664 0
M  V30 6624 H 632.167 0.721221 -0.404683 0
M  V30 6625 H 634.713 0.965838 -1.39534 0
M  V30 6626 H 633.485 2.49217 -3.01673 0
M  V30 6627 H 633.108 3.59333 -1.70192 0
M  V30 6628 N 634.105 1.10431 1.1244 0
M  V30 6629 C 635.035 0.775143 2.20258 0
M  V30 6630 C 636.016 -0.25186 1.68225 0
M  V30 6631 O 637.201 -0.117637 1.93843 0
M  V30 6632 C 634.331 0.206133 3.46688 0
M  V30 6633 C 633.285 1.16382 4.11873 0
M  V30 6634 C 632.611 0.456014 5.32752 0
M  V30 6635 C 633.911 2.5104 4.58013 0
M  V30 6636 H 635.605 1.67665 2.4805 0
M  V30 6637 H 633.151 0.807595 1.19222 0
M  V30 6638 H 635.104 -0.036291 4.21384 0
M  V30 6639 H 633.828 -0.730614 3.18323 0
M  V30 6640 H 632.487 1.39169 3.39157 0
M  V30 6641 H 632.135 -0.485203 5.00654 0
M  V30 6642 H 631.835 1.09466 5.77314 0
M  V30 6643 H 633.359 0.222135 6.10196 0
M  V30 6644 H 634.773 2.32401 5.24083 0
M  V30 6645 H 633.17 3.10789 5.13352 0
M  V30 6646 H 634.24 3.11039 3.71998 0
M  V30 6647 N 635.583 -1.29855 0.893053 0
M  V30 6648 C 636.546 -2.26183 0.370687 0
M  V30 6649 C 637.546 -1.53108 -0.491385 0
M  V30 6650 O 638.736 -1.71643 -0.297386 0
M  V30 6651 C 635.868 -3.37633 -0.470827 0
M  V30 6652 H 637.061 -2.73903 1.22135 0
M  V30 6653 H 634.614 -1.41183 0.67061 0
M  V30 6654 H 635.349 -2.95241 -1.34175 0
M  V30 6655 H 635.134 -3.91825 0.146784 0
M  V30 6656 H 636.624 -4.09313 -0.827825 0
M  V30 6657 N 637.061 -0.65484 -1.43351 0
M  V30 6658 C 637.971 0.0363603 -2.34572 0
M  V30 6659 C 638.987 0.810432 -1.53974 0
M  V30 6660 O 640.163 0.757308 -1.86619 0
M  V30 6661 C 637.228 0.989733 -3.32273 0
M  V30 6662 C 636.289 0.212414 -4.28774 0
M  V30 6663 C 635.522 1.12038 -5.21808 0
M  V30 6664 O 635.745 2.35967 -5.19303 0
M  V30 6665 O 634.679 0.59191 -5.98982 0
M  V30 6666 H 638.505 -0.714527 -2.95175 0
M  V30 6667 H 636.09 -0.415029 -1.4352 0
M  V30 6668 H 637.972 1.53759 -3.92347 0
M  V30 6669 H 636.647 1.72082 -2.74171 0
M  V30 6670 H 635.554 -0.379062 -3.72175 0
M  V30 6671 H 636.887 -0.479138 -4.89862 0
M  V30 6672 N 638.539 1.52521 -0.396863 0
M  V30 6673 C 639.471 2.24333 0.469814 0
M  V30 6674 C 640.484 1.2685 1.02043 0
M  V30 6675 O 641.673 1.52876 0.92147 0
M  V30 6676 C 638.773 2.95202 1.66461 0
M  V30 6677 C 637.946 4.19454 1.24003 0
M  V30 6678 C 637.005 4.73255 2.30036 0
M  V30 6679 O 636.031 5.36151 1.91131 0
M  V30 6680 N 637.233 4.53765 3.62047 0
M  V30 6681 H 639.998 2.99347 -0.145468 0
M  V30 6682 H 637.559 1.60348 -0.223606 0
M  V30 6683 H 639.551 3.28092 2.36934 0
M  V30 6684 H 638.121 2.2345 2.18607 0
M  V30 6685 H 637.341 3.92517 0.363892 0
M  V30 6686 H 638.629 5.0017 0.933135 0
M  V30 6687 H 638.027 4.03576 3.96412 0
M  V30 6688 H 636.584 4.91124 4.28533 0
M  V30 6689 N 640.017 0.126909 1.57088 0
M  V30 6690 C 640.964 -0.82036 2.15728 0
M  V30 6691 C 641.934 -1.25811 1.08447 0
M  V30 6692 O 643.119 -1.33422 1.36393 0
M  V30 6693 C 640.259 -2.06199 2.76724 0
M  V30 6694 C 639.372 -1.67188 3.98337 0
M  V30 6695 C 638.507 -2.86378 4.47393 0
M  V30 6696 C 637.546 -2.43644 5.61519 0
M  V30 6697 N 636.683 -3.55775 6.05284 0
M  V30 6698 H 641.523 -0.313472 2.96347 0
M  V30 6699 H 639.06 -0.14303 1.46403 0
M  V30 6700 H 641.018 -2.78959 3.10222 0
M  V30 6701 H 639.648 -2.54333 1.98782 0
M  V30 6702 H 638.7 -0.842714 3.70948 0
M  V30 6703 H 640.012 -1.31789 4.81075 0
M  V30 6704 H 639.166 -3.67353 4.82842 0
M  V30 6705 H 637.905 -3.25009 3.63621 0
M  V30 6706 H 636.91 -1.61104 5.25667 0
M  V30 6707 H 638.135 -2.06122 6.47063 0
M  V30 6708 H 636.081 -3.94065 5.24451 0
M  V30 6709 H 635.998 -3.24325 6.82898 0
M  V30 6710 H 637.266 -4.37166 6.45373 0
M  V30 6711 N 641.495 -1.56914 -0.146875 0
M  V30 6712 C 642.744 -1.82546 -0.857898 0
M  V30 6713 C 643.057 -0.708169 -1.8233 0
M  V30 6714 O 644.263 -0.850093 -2.57848 0
M  V30 6715 C 642.719 -3.23548 -1.57623 0
M  V30 6716 C 642.327 -4.43212 -0.653224 0
M  V30 6717 C 644.071 -3.58453 -2.27402 0
M  V30 6718 C 641.978 -5.75237 -1.37318 0
M  V30 6719 H 640.908 -0.680786 -0.32411 0
M  V30 6720 H 643.559 -1.83166 -0.110639 0
M  V30 6721 H 641.941 -3.17315 -2.36912 0
M  V30 6722 H 643.115 -4.60682 0.104452 0
M  V30 6723 H 641.43 -4.16351 -0.0638336 0
M  V30 6724 H 644.027 -4.54349 -2.81907 0
M  V30 6725 H 644.37 -2.84516 -3.03901 0
M  V30 6726 H 644.903 -3.66347 -1.55032 0
M  V30 6727 H 641.642 -6.52269 -0.650041 0
M  V30 6728 H 641.162 -5.61703 -2.10357 0
M  V30 6729 H 642.841 -6.18039 -1.91406 0
M  V30 6730 N 642.974 0.416227 -1.52004 0
M  V30 6731 C 643.904 1.51365 -1.77795 0
M  V30 6732 C 644.885 1.58059 -0.628601 0
M  V30 6733 O 646.07 1.73447 -0.873478 0
M  V30 6734 C 643.2 2.89256 -1.92219 0
M  V30 6735 C 642.154 2.97415 -3.0778 0
M  V30 6736 C 641.48 4.37492 -3.07417 0
M  V30 6737 C 642.78 2.69551 -4.47369 0
M  V30 6738 H 644.474 1.30033 -2.69688 0
M  V30 6739 H 642.02 0.624112 -1.29772 0
M  V30 6740 H 643.973 3.66008 -2.08845 0
M  V30 6741 H 642.697 3.11866 -0.969917 0
M  V30 6742 H 641.356 2.23107 -2.90893 0
M  V30 6743 H 641.004 4.571 -2.09925 0
M  V30 6744 H 640.704 4.43877 -3.85029 0
M  V30 6745 H 642.228 5.16188 -3.26162 0
M  V30 6746 H 643.642 3.36028 -4.64497 0
M  V30 6747 H 642.039 2.87321 -5.26846 0
M  V30 6748 H 643.109 1.65029 -4.55953 0
M  V30 6749 N 644.452 1.42507 0.673017 0
M  V30 6750 C 645.399 1.46124 1.78651 0
M  V30 6751 C 646.369 0.313007 1.63124 0
M  V30 6752 O 647.554 0.517337 1.83653 0
M  V30 6753 C 644.694 1.3711 3.16694 0
M  V30 6754 C 643.807 2.61983 3.43495 0
M  V30 6755 C 642.942 2.45098 4.71275 0
M  V30 6756 C 641.981 3.65336 4.91117 0
M  V30 6757 N 641.118 3.47383 6.10139 0
M  V30 6758 H 645.958 2.4128 1.74895 0
M  V30 6759 H 643.495 1.19788 0.853766 0
M  V30 6760 H 645.453 1.29881 3.96468 0
M  V30 6761 H 644.083 0.45549 3.1957 0
M  V30 6762 H 643.135 2.79571 2.57961 0
M  V30 6763 H 644.447 3.51355 3.5405 0
M  V30 6764 H 643.601 2.35466 5.59143 0
M  V30 6765 H 642.34 1.53219 4.63007 0
M  V30 6766 H 641.345 3.754 4.0169 0
M  V30 6767 H 642.57 4.58199 5.01229 0
M  V30 6768 H 640.516 2.58222 6.0304 0
M  V30 6769 H 640.433 4.30344 6.21563 0
M  V30 6770 H 641.701 3.41565 7.00681 0
M  V30 6771 N 645.93 -0.909495 1.28709 0
M  V30 6772 C 646.878 -2.03381 1.12866 0
M  V30 6773 C 647.872 -1.69335 0.0468074 0
M  V30 6774 O 649.078 -1.78819 0.205891 0
M  V30 6775 H 645.453 -0.666452 0.348348 0
M  V30 6776 H 647.424 -2.13885 2.08077 0
M  V30 6777 C 646.173 -3.38092 0.811742 0
M  V30 6778 H 645.496 -3.64786 1.63619 0
M  V30 6779 H 646.936 -4.17477 0.740869 0
M  V30 6780 C 645.395 -3.33395 -0.484679 0
M  V30 6781 O 645.925 -3.72089 -1.5137 0
M  V30 6782 N 644.131 -2.86491 -0.486961 0
M  V30 6783 H 643.678 -2.55199 0.350877 0
M  V30 6784 H 643.636 -2.83731 -1.3544 0
M  V30 6785 N 647.408 -1.11026 -1.11852 0
M  V30 6786 C 648.638 -0.877544 -1.87037 0
M  V30 6787 C 649.046 0.575925 -1.80221 0
M  V30 6788 O 648.389 1.40916 -1.17849 0
M  V30 6789 C 648.451 -1.25529 -3.36872 0
M  V30 6790 C 648.115 -2.71704 -3.67459 0
M  V30 6791 C 649.112 -3.69931 -3.65304 0
M  V30 6792 C 646.797 -3.08243 -3.966 0
M  V30 6793 C 648.791 -5.02717 -3.9186 0
M  V30 6794 C 646.478 -4.41215 -4.22815 0
M  V30 6795 C 647.476 -5.38262 -4.20432 0
M  V30 6796 O 647.164 -6.68839 -4.45992 0
M  V30 6797 H 646.896 -0.314374 -0.598452 0
M  V30 6798 H 649.45 -1.48015 -1.42411 0
M  V30 6799 H 647.68 -0.595808 -3.82082 0
M  V30 6800 H 649.369 -0.999064 -3.93413 0
M  V30 6801 H 650.135 -3.43047 -3.42846 0
M  V30 6802 H 646.014 -2.33326 -3.97593 0
M  V30 6803 H 649.558 -5.78456 -3.89916 0
M  V30 6804 H 645.455 -4.67835 -4.44748 0
M  V30 6805 H 646.223 -6.74563 -4.63581 0
M  V30 6806 N 648.886 1.2938 -0.899927 0
M  V30 6807 C 649.818 2.26737 -0.335139 0
M  V30 6808 C 650.831 1.54316 0.518681 0
M  V30 6809 O 652.02 1.75313 0.335803 0
M  V30 6810 C 649.12 3.34558 0.540774 0
M  V30 6811 C 648.293 4.36455 -0.287372 0
M  V30 6812 C 647.352 5.2361 0.52141 0
M  V30 6813 O 646.378 5.69167 -0.0611735 0
M  V30 6814 N 647.58 5.50985 1.82745 0
M  V30 6815 H 650.345 2.75838 -1.17191 0
M  V30 6816 H 647.906 1.42716 -0.764438 0
M  V30 6817 H 649.898 3.89794 1.08825 0
M  V30 6818 H 648.468 2.85272 1.27823 0
M  V30 6819 H 647.688 3.80875 -1.01626 0
M  V30 6820 H 648.976 5.01573 -0.854518 0
M  V30 6821 H 648.374 5.15781 2.32349 0
M  V30 6822 H 646.931 6.09036 2.32204 0
M  V30 6823 N 650.364 0.662433 1.43002 0
M  V30 6824 C 651.613 0.176873 2.00923 0
M  V30 6825 C 651.926 -1.21954 1.52927 0
M  V30 6826 O 653.132 -1.80081 2.03182 0
M  V30 6827 C 651.588 0.265379 3.5892 0
M  V30 6828 C 651.196 1.66507 4.15908 0
M  V30 6829 C 652.94 -0.162103 4.2419 0
M  V30 6830 C 650.847 1.707 5.66229 0
M  V30 6831 H 649.777 0.0623627 0.751417 0
M  V30 6832 H 652.428 0.825813 1.63868 0
M  V30 6833 H 650.81 -0.451235 3.93421 0
M  V30 6834 H 651.984 2.40777 3.92891 0
M  V30 6835 H 650.299 2.03932 3.63044 0
M  V30 6836 H 652.896 -0.150745 5.34487 0
M  V30 6837 H 653.239 -1.19519 3.98774 0
M  V30 6838 H 653.772 0.503075 3.94606 0
M  V30 6839 H 650.511 2.7195 5.96426 0
M  V30 6840 H 650.031 1.00768 5.91275 0
M  V30 6841 H 651.71 1.45487 6.3043 0
M  V30 6842 N 651.842 -1.52309 0.404946 0
M  V30 6843 C 652.789 -2.26898 -0.422597 0
M  V30 6844 C 653.759 -1.2914 -1.04461 0
M  V30 6845 O 654.944 -1.57996 -1.06967 0
M  V30 6846 C 652.084 -3.09053 -1.53559 0
M  V30 6847 C 651.197 -4.21762 -0.934908 0
M  V30 6848 C 650.332 -4.91283 -2.02025 0
M  V30 6849 C 649.371 -5.95962 -1.39628 0
M  V30 6850 N 648.508 -6.59017 -2.42159 0
M  V30 6851 H 653.348 -2.97188 0.219903 0
M  V30 6852 H 650.885 -1.46607 0.120282 0
M  V30 6853 H 652.843 -3.54987 -2.19181 0
M  V30 6854 H 651.473 -2.40942 -2.14818 0
M  V30 6855 H 650.525 -3.80029 -0.167854 0
M  V30 6856 H 651.837 -4.96864 -0.439073 0
M  V30 6857 H 650.991 -5.40601 -2.75383 0
M  V30 6858 H 649.73 -4.15741 -2.54973 0
M  V30 6859 H 648.735 -5.45968 -0.648023 0
M  V30 6860 H 649.96 -6.73445 -0.874553 0
M  V30 6861 H 647.906 -5.86306 -2.94247 0
M  V30 6862 H 647.823 -7.2978 -1.97376 0
M  V30 6863 H 649.091 -7.12974 -3.15099 0
M  V30 6864 N 653.32 -0.135238 -1.57019 0
M  V30 6865 C 654.252 0.839675 -2.13265 0
M  V30 6866 C 655.265 1.21887 -1.07923 0
M  V30 6867 O 656.454 1.16499 -1.35241 0
M  V30 6868 C 653.554 2.13647 -2.63075 0
M  V30 6869 C 652.727 1.92646 -3.92691 0
M  V30 6870 C 651.786 3.06205 -4.27931 0
M  V30 6871 O 650.812 2.78409 -4.96465 0
M  V30 6872 N 652.014 4.33072 -3.86561 0
M  V30 6873 H 654.779 0.359026 -2.97542 0
M  V30 6874 H 652.34 0.0486979 -1.61827 0
M  V30 6875 H 654.332 2.88641 -2.8367 0
M  V30 6876 H 652.902 2.5301 -1.83588 0
M  V30 6877 H 652.122 1.01754 -3.80841 0
M  V30 6878 H 653.41 1.75939 -4.77413 0
M  V30 6879 H 652.808 4.58526 -3.31316 0
M  V30 6880 H 651.365 5.04885 -4.12231 0
M  V30 6881 N 654.798 1.5699 0.138552 0
M  V30 6882 C 655.73 1.95515 1.1961 0
M  V30 6883 C 656.743 0.852002 1.38726 0
M  V30 6884 O 657.932 1.13038 1.38147 0
M  V30 6885 C 655.032 2.2213 2.55952 0
M  V30 6886 C 654.205 3.53424 2.57702 0
M  V30 6887 C 653.264 3.6848 3.75645 0
M  V30 6888 O 652.29 4.4079 3.60129 0
M  V30 6889 N 653.492 3.05777 4.93438 0
M  V30 6890 H 656.257 2.86838 0.868557 0
M  V30 6891 H 653.818 1.58542 0.328033 0
M  V30 6892 H 655.81 2.29435 3.33379 0
M  V30 6893 H 654.38 1.3703 2.80965 0
M  V30 6894 H 653.6 3.57484 1.6613 0
M  V30 6895 H 654.888 4.39759 2.55909 0
M  V30 6896 H 654.286 2.46961 5.08947 0
M  V30 6897 H 652.843 3.18631 5.6861 0
M  V30 6898 N 656.276 -0.40816 1.52223 0
M  V30 6899 C 657.239 -1.48 1.7501 0
M  V30 6900 C 658.239 -1.48367 0.619996 0
M  V30 6901 O 659.429 -1.49874 0.887881 0
M  V30 6902 C 656.561 -2.87403 1.83336 0
M  V30 6903 H 657.754 -1.29086 2.70697 0
M  V30 6904 H 655.307 -0.638715 1.42654 0
M  V30 6905 H 656.042 -3.11686 0.895677 0
M  V30 6906 H 655.827 -2.8854 2.65494 0
M  V30 6907 H 657.317 -3.65103 2.02705 0
M  V30 6908 N 657.755 -1.42862 -0.66545 0
M  V30 6909 C 658.718 -1.46756 -1.76055 0
M  V30 6910 C 659.718 -0.353866 -1.56858 0
M  V30 6911 O 660.908 -0.615099 -1.62979 0
M  V30 6912 C 658.04 -1.30829 -3.14796 0
M  V30 6913 H 659.233 -2.44271 -1.73987 0
M  V30 6914 H 656.786 -1.29447 -0.875965 0
M  V30 6915 H 657.521 -0.342733 -3.22484 0
M  V30 6916 H 657.306 -2.11551 -3.30134 0
M  V30 6917 H 658.796 -1.36458 -3.94676 0
M  V30 6918 N 659.233 0.902656 -1.29189 0
M  V30 6919 C 660.165 2.01149 -1.09872 0
M  V30 6920 C 661.178 1.62732 -0.0471046 0
M  V30 6921 O 662.367 1.76107 -0.29132 0
M  V30 6922 C 659.467 3.32612 -0.649818 0
M  V30 6923 C 658.64 3.99574 -1.7793 0
M  V30 6924 C 657.699 5.09325 -1.32191 0
M  V30 6925 O 656.725 5.31919 -2.02611 0
M  V30 6926 N 657.927 5.80185 -0.191171 0
M  V30 6927 H 660.692 2.18276 -2.05368 0
M  V30 6928 H 658.253 1.07466 -1.2109 0
M  V30 6929 H 660.245 4.03375 -0.327199 0
M  V30 6930 H 658.815 3.11876 0.212597 0
M  V30 6931 H 658.035 3.22213 -2.27095 0
M  V30 6932 H 659.323 4.41056 -2.53668 0
M  V30 6933 H 658.721 5.64312 0.396016 0
M  V30 6934 H 657.278 6.5176 0.0721001 0
M  V30 6935 N 660.711 1.11618 1.11262 0
M  V30 6936 C 661.658 0.7762 2.17356 0
M  V30 6937 C 662.628 -0.253152 1.6416 0
M  V30 6938 O 663.813 -0.129655 1.90359 0
M  V30 6939 C 660.953 0.227581 3.44349 0
M  V30 6940 C 660.066 1.31372 4.1154 0
M  V30 6941 C 659.201 0.72544 5.26223 0
M  V30 6942 C 658.24 1.7913 5.85302 0
M  V30 6943 N 657.377 1.22237 6.91377 0
M  V30 6944 H 662.217 1.68508 2.45783 0
M  V30 6945 H 659.754 0.841475 1.20655 0
M  V30 6946 H 661.712 -0.108483 4.17059 0
M  V30 6947 H 660.342 -0.644486 3.16301 0
M  V30 6948 H 659.394 1.7667 3.36885 0
M  V30 6949 H 660.706 2.12005 4.51504 0
M  V30 6950 H 659.86 0.339541 6.05749 0
M  V30 6951 H 658.599 -0.112188 4.87571 0
M  V30 6952 H 657.604 2.18648 5.04453 0
M  V30 6953 H 658.829 2.63199 6.26022 0
M  V30 6954 H 656.775 0.406423 6.5474 0
M  V30 6955 H 656.692 1.9654 7.30006 0
M  V30 6956 H 657.96 0.863426 7.74703 0
M  V30 6957 N 662.189 -1.289 0.906776 0
M  V30 6958 C 663.419 -1.99112 0.551168 0
M  V30 6959 C 663.827 -1.67998 -0.870243 0
M  V30 6960 O 663.17 -0.92525 -1.58697 0
M  V30 6961 C 663.232 -3.53162 0.672065 0
M  V30 6962 C 662.896 -4.07849 2.06174 0
M  V30 6963 C 663.893 -4.22212 3.0337 0
M  V30 6964 C 661.578 -4.4271 2.37304 0
M  V30 6965 C 663.572 -4.70678 4.29815 0
M  V30 6966 C 661.259 -4.90871 3.6399 0
M  V30 6967 C 662.257 -5.04811 4.6006 0
M  V30 6968 O 661.945 -5.51925 5.84495 0
M  V30 6969 H 661.677 -0.642728 0.209469 0
M  V30 6970 H 664.231 -1.65234 1.22012 0
M  V30 6971 H 662.461 -3.86662 -0.05394 0
M  V30 6972 H 664.15 -4.046 0.324579 0
M  V30 6973 H 664.916 -3.9556 2.80637 0
M  V30 6974 H 660.795 -4.31114 1.63283 0
M  V30 6975 H 664.339 -4.81474 5.04806 0
M  V30 6976 H 660.236 -5.16961 3.86551 0
M  V30 6977 H 661.004 -5.70225 5.87185 0
M  V30 6978 N 663.667 -0.670007 -1.42649 0
M  V30 6979 C 665.078 -0.268118 -1.84765 0
M  V30 6980 C 665.429 1.18877 -1.56086 0
M  V30 6981 O 664.554 1.90947 -1.01825 0
M  V30 6982 C 665.149 -0.47984 -3.35385 0
M  V30 6983 C 663.708 -0.132116 -3.76168 0
M  V30 6984 C 662.855 -0.774611 -2.66261 0
M  V30 6985 H 665.806 -0.872509 -1.32563 0
M  V30 6986 H 665.827 0.269522 -3.79544 0
M  V30 6987 H 665.339 -1.54026 -3.56227 0
M  V30 6988 H 663.44 0.92505 -3.60934 0
M  V30 6989 H 663.553 -0.569294 -4.75706 0
M  V30 6990 H 661.917 -0.206353 -2.53863 0
M  V30 6991 H 662.7 -1.83839 -2.89928 0
M  V30 6992 N 665.145 1.52092 -0.413018 0
M  V30 6993 C 666.375 2.05974 0.160648 0
M  V30 6994 C 666.783 1.28267 1.39084 0
M  V30 6995 O 666.126 0.328805 1.80733 0
M  V30 6996 C 666.188 3.54918 0.572169 0
M  V30 6997 C 665.852 4.53705 -0.547826 0
M  V30 6998 C 666.849 5.00342 -1.41259 0
M  V30 6999 C 664.534 4.97089 -0.721627 0
M  V30 7000 C 666.528 5.89011 -2.43607 0
M  V30 7001 C 664.215 5.85554 -1.74841 0
M  V30 7002 C 665.213 6.3141 -2.60403 0
M  V30 7003 O 664.901 7.18123 -3.61323 0
M  V30 7004 H 664.633 0.675636 0.0221936 0
M  V30 7005 H 667.187 1.96931 -0.58373 0
M  V30 7006 H 665.417 3.61661 1.36889 0
M  V30 7007 H 667.106 3.91428 1.0742 0
M  V30 7008 H 667.872 4.67537 -1.28974 0
M  V30 7009 H 663.751 4.60954 -0.0652911 0
M  V30 7010 H 667.295 6.24725 -3.10425 0
M  V30 7011 H 663.192 6.17773 -1.87156 0
M  V30 7012 H 663.96 7.36244 -3.57613 0
M  V30 7013 N 666.623 0.143563 1.56945 0
M  V30 7014 C 667.871 -0.507402 1.95627 0
M  V30 7015 C 668.192 -1.65626 1.02922 0
M  V30 7016 O 667.462 -1.95693 0.0901136 0
M  V30 7017 H 666.042 -0.190436 0.722318 0
M  V30 7018 H 668.704 0.218257 1.93674 0
M  V30 7019 H 667.8 -0.885816 2.99265 0
M  V30 7020 N 668.101 -1.57061 -0.130224 0
M  V30 7021 C 669.011 -2.02802 -1.17934 0
M  V30 7022 C 670.027 -0.946378 -1.46013 0
M  V30 7023 O 671.203 -1.25708 -1.57351 0
M  V30 7024 C 668.268 -2.41368 -2.48882 0
M  V30 7025 C 667.329 -3.63561 -2.28301 0
M  V30 7026 C 666.562 -4.00279 -3.53005 0
M  V30 7027 O 666.785 -3.37463 -4.59864 0
M  V30 7028 O 665.719 -4.93441 -3.44673 0
M  V30 7029 H 669.545 -2.92394 -0.820958 0
M  V30 7030 H 667.13 -1.45475 -0.340197 0
M  V30 7031 H 669.012 -2.66958 -3.26054 0
M  V30 7032 H 667.687 -1.54926 -2.84217 0
M  V30 7033 H 666.594 -3.43136 -1.49025 0
M  V30 7034 H 667.927 -4.50673 -1.97875 0
M  V30 7035 N 669.579 0.400081 -1.52437 0
M  V30 7036 C 670.825 1.14456 -1.68141 0
M  V30 7037 C 671.18 1.87965 -0.410722 0
M  V30 7038 O 670.473 1.82121 0.595195 0
M  V30 7039 C 670.667 2.15914 -2.84808 0
M  V30 7040 C 670.496 1.5237 -4.231 0
M  V30 7041 C 669.266 1.29252 -4.8849 0
M  V30 7042 C 671.464 0.979722 -5.04882 0
M  V30 7043 N 669.446 0.616955 -6.10792 0
M  V30 7044 C 670.817 0.43159 -6.18496 0
M  V30 7045 C 672.872 0.875059 -4.9015 0
M  V30 7046 C 671.575 -0.210958 -7.18991 0
M  V30 7047 C 673.601 0.246351 -5.90887 0
M  V30 7048 C 672.963 -0.291062 -7.03798 0
M  V30 7049 H 669.062 0.405181 -0.668844 0
M  V30 7050 H 671.646 0.435655 -1.89763 0
M  V30 7051 H 669.817 2.84154 -2.64785 0
M  V30 7052 H 671.549 2.8279 -2.89503 0
M  V30 7053 H 668.304 1.56451 -4.47012 0
M  V30 7054 H 668.728 0.295536 -6.76355 0
M  V30 7055 H 673.37 1.27636 -4.03074 0
M  V30 7056 H 671.088 -0.6243 -8.05685 0
M  V30 7057 H 674.674 0.166765 -5.81561 0
M  V30 7058 H 673.554 -0.76988 -7.80412 0
M  V30 7059 N 671.057 1.43213 0.657864 0
M  V30 7060 C 672.306 1.43871 1.41365 0
M  V30 7061 C 672.619 0.064898 1.95492 0
M  V30 7062 O 673.825 -0.0510796 2.71452 0
M  V30 7063 C 672.281 2.53158 2.55811 0
M  V30 7064 C 671.889 3.96624 2.08311 0
M  V30 7065 C 673.633 2.63004 3.3321 0
M  V30 7066 C 671.54 4.97385 3.1994 0
M  V30 7067 H 670.47 0.535174 0.531136 0
M  V30 7068 H 673.121 1.69185 0.710543 0
M  V30 7069 H 671.503 2.21037 3.2857 0
M  V30 7070 H 672.677 4.38182 1.42593 0
M  V30 7071 H 670.992 3.90781 1.43804 0
M  V30 7072 H 673.589 3.3546 4.16378 0
M  V30 7073 H 673.932 1.67918 3.80932 0
M  V30 7074 H 674.465 2.94403 2.67529 0
M  V30 7075 H 671.204 5.94007 2.77192 0
M  V30 7076 H 670.724 4.60444 3.84385 0
M  V30 7077 H 672.403 5.19877 3.85145 0
M  V30 7078 N 672.536 -0.895792 1.29666 0
M  V30 7079 C 673.483 -2.00035 1.15129 0
M  V30 7080 C 674.453 -1.66043 0.0435819 0
M  V30 7081 O 675.638 -1.89621 0.211811 0
M  V30 7082 C 672.778 -3.34774 0.83787 0
M  V30 7083 C 671.891 -3.81525 2.0264 0
M  V30 7084 C 671.026 -5.04858 1.65201 0
M  V30 7085 C 670.065 -5.43988 2.80612 0
M  V30 7086 N 669.202 -6.58507 2.43544 0
M  V30 7087 H 674.042 -2.11802 2.09628 0
M  V30 7088 H 671.579 -1.03719 1.04311 0
M  V30 7089 H 673.537 -4.12311 0.636824 0
M  V30 7090 H 672.167 -3.22724 -0.0702314 0
M  V30 7091 H 671.219 -2.9999 2.33903 0
M  V30 7092 H 672.531 -4.06472 2.89106 0
M  V30 7093 H 671.685 -5.8999 1.41408 0
M  V30 7094 H 670.424 -4.81759 0.758893 0
M  V30 7095 H 669.429 -4.57388 3.05083 0
M  V30 7096 H 670.654 -5.69066 3.70595 0
M  V30 7097 H 668.6 -6.37004 1.56724 0
M  V30 7098 H 668.517 -6.83269 3.23542 0
M  V30 7099 H 669.785 -7.46897 2.2308 0
M  V30 7100 N 674.014 -1.12206 -1.10668 0
M  V30 7101 C 675.263 -0.870595 -1.81944 0
M  V30 7102 C 675.576 0.605447 -1.85994 0
M  V30 7103 O 676.782 0.973433 -2.53449 0
M  V30 7104 C 675.238 -1.50783 -3.26791 0
M  V30 7105 C 674.846 -3.01849 -3.31046 0
M  V30 7106 C 676.59 -1.33653 -4.02911 0
M  V30 7107 C 674.497 -3.58518 -4.70339 0
M  V30 7108 H 673.427 -0.322043 -0.681765 0
M  V30 7109 H 676.078 -1.34827 -1.24475 0
M  V30 7110 H 674.46 -0.957825 -3.84242 0
M  V30 7111 H 675.634 -3.63321 -2.83433 0
M  V30 7112 H 673.949 -3.18346 -2.68411 0
M  V30 7113 H 676.546 -1.73416 -5.05797 0
M  V30 7114 H 676.889 -0.279949 -4.15358 0
M  V30 7115 H 677.422 -1.85562 -3.51868 0
M  V30 7116 H 674.161 -4.63925 -4.63091 0
M  V30 7117 H 673.681 -3.01819 -5.18329 0
M  V30 7118 H 675.36 -3.57434 -5.39305 0
M  V30 7119 N 675.492 1.28418 -0.913599 0
M  V30 7120 C 676.424 2.26368 -0.359169 0
M  V30 7121 C 677.437 1.54858 0.502285 0
M  V30 7122 O 678.626 1.75659 0.31719 0
M  V30 7123 C 675.726 3.35112 0.50526 0
M  V30 7124 C 674.899 4.36126 -0.333648 0
M  V30 7125 C 673.958 5.24134 0.465845 0
M  V30 7126 O 672.984 5.6907 -0.121538 0
M  V30 7127 N 674.186 5.52892 1.76891 0
M  V30 7128 H 676.951 2.74579 -1.2011 0
M  V30 7129 H 674.512 1.41898 -0.779532 0
M  V30 7130 H 676.504 3.90926 1.04684 0
M  V30 7131 H 675.074 2.86611 1.2479 0
M  V30 7132 H 674.294 3.79776 -1.0566 0
M  V30 7133 H 675.582 5.00638 -0.907669 0
M  V30 7134 H 674.98 5.18217 2.26865 0
M  V30 7135 H 673.537 6.11464 2.25732 0
M  V30 7136 N 676.97 0.677563 1.42291 0
M  V30 7137 C 678.386 0.347376 1.55774 0
M  V30 7138 C 678.586 -1.14703 1.65667 0
M  V30 7139 O 677.642 -1.93252 1.62512 0
M  V30 7140 C 678.955 1.08011 2.80631 0
M  V30 7141 C 680.503 1.06271 2.94407 0
M  V30 7142 C 680.978 1.77683 4.22129 0
M  V30 7143 N 682.469 1.74564 4.29047 0
M  V30 7144 C 683.204 2.26673 5.26694 0
M  V30 7145 N 682.7 2.87176 6.30477 0
M  V30 7146 N 684.493 2.17032 5.18511 0
M  V30 7147 H 676.644 1.64703 1.34114 0
M  V30 7148 H 678.907 0.694038 0.645768 0
M  V30 7149 H 678.613 2.13518 2.79469 0
M  V30 7150 H 678.487 0.647115 3.71608 0
M  V30 7151 H 680.874 0.0159658 2.95096 0
M  V30 7152 H 680.955 1.53461 2.04654 0
M  V30 7153 H 680.599 2.82327 4.22201 0
M  V30 7154 H 680.529 1.2794 5.10822 0
M  V30 7155 H 683.02 1.30436 3.54676 0
M  V30 7156 H 683.333 3.24551 7.01346 0
M  V30 7157 H 681.678 2.91247 6.31031 0
M  V30 7158 H 684.869 1.69451 4.36353 0
M  V30 7159 H 685.042 2.57948 5.94446 0
M  V30 7160 N 678.448 -1.51871 0.421078 0
M  V30 7161 C 679.38 -2.25052 -0.434065 0
M  V30 7162 C 680.393 -1.28458 -1.00013 0
M  V30 7163 O 681.582 -1.54323 -0.897033 0
M  V30 7164 C 678.682 -2.97813 -1.61743 0
M  V30 7165 C 677.855 -4.21374 -1.17315 0
M  V30 7166 C 676.914 -4.76854 -2.22478 0
M  V30 7167 O 675.94 -5.39123 -1.82577 0
M  V30 7168 N 677.142 -4.59467 -3.54782 0
M  V30 7169 H 679.907 -2.99077 0.193073 0
M  V30 7170 H 677.468 -1.59972 0.249088 0
M  V30 7171 H 679.46 -3.3182 -2.31685 0
M  V30 7172 H 678.03 -2.26899 -2.15024 0
M  V30 7173 H 677.25 -3.93046 -0.3014 0
M  V30 7174 H 678.538 -5.01591 -0.853444 0
M  V30 7175 H 677.936 -4.09832 -3.89941 0
M  V30 7176 H 676.493 -4.9788 -4.20665 0
M  V30 7177 N 679.926 -0.151884 -1.56866 0
M  V30 7178 C 681.154 0.504813 -2.00647 0
M  V30 7179 C 681.569 1.58098 -1.03201 0
M  V30 7180 O 680.926 1.82476 -0.0297814 0
M  V30 7181 C 680.977 1.10099 -3.44326 0
M  V30 7182 O 680.698 0.0678021 -4.38048 0
M  V30 7183 C 682.199 1.83782 -4.03409 0
M  V30 7184 H 679.419 0.130989 -0.65809 0
M  V30 7185 H 681.963 -0.247903 -2.02992 0
M  V30 7186 H 680.118 1.8043 -3.42817 0
M  V30 7187 H 680.532 0.505237 -5.22061 0
M  V30 7188 H 682.006 2.2078 -5.05925 0
M  V30 7189 H 682.483 2.72557 -3.44397 0
M  V30 7190 H 683.089 1.18138 -4.08563 0
M  V30 7191 N 681.404 1.57128 0.121893 0
M  V30 7192 C 682.65 1.84974 0.831418 0
M  V30 7193 C 682.983 0.737204 1.79663 0
M  V30 7194 O 682.258 -0.257199 1.92792 0
M  V30 7195 C 682.541 3.23397 1.58386 0
M  V30 7196 C 682.394 4.45246 0.638445 0
M  V30 7197 C 683.713 3.59355 2.54071 0
M  V30 7198 H 680.832 0.67282 0.300803 0
M  V30 7199 H 683.474 1.89759 0.0957587 0
M  V30 7200 H 681.624 3.19449 2.21098 0
M  V30 7201 H 683.296 4.61295 0.0203925 0
M  V30 7202 H 681.539 4.33771 -0.05023 0
M  V30 7203 H 682.21 5.38765 1.20151 0
M  V30 7204 H 684.686 3.64075 2.01465 0
M  V30 7205 H 683.562 4.57193 3.03752 0
M  V30 7206 H 683.823 2.86622 3.36601 0
M  V30 7207 N 682.882 -0.391992 1.52647 0
M  V30 7208 C 683.845 -1.46135 1.7657 0
M  V30 7209 C 684.845 -1.47701 0.635698 0
M  V30 7210 O 686.035 -1.48924 0.903728 0
M  V30 7211 C 683.167 -2.85443 1.86374 0
M  V30 7212 H 684.36 -1.26208 2.72051 0
M  V30 7213 H 681.913 -0.623549 1.43323 0
M  V30 7214 H 682.648 -3.10718 0.928685 0
M  V30 7215 H 682.433 -2.85708 2.68539 0
M  V30 7216 H 683.923 -3.62933 2.06566 0
M  V30 7217 N 684.36 -1.4356 -0.65026 0
M  V30 7218 C 685.585 -1.48995 -1.44275 0
M  V30 7219 C 686.01 -0.109954 -1.87778 0
M  V30 7220 O 685.368 0.896926 -1.57559 0
M  V30 7221 C 685.416 -2.44341 -2.65198 0
M  V30 7222 O 684.52 -1.93172 -3.6436 0
M  V30 7223 H 683.861 -0.503852 -0.432469 0
M  V30 7224 H 686.391 -1.88504 -0.795446 0
M  V30 7225 H 686.401 -2.61743 -3.12977 0
M  V30 7226 H 685.076 -3.44588 -2.32877 0
M  V30 7227 H 683.653 -1.85445 -3.23519 0
M  V30 7228 N 685.838 0.888903 -1.30139 0
M  V30 7229 C 687.115 1.62145 -1.094 0
M  V30 7230 C 687.495 2.08041 0.358091 0
M  V30 7231 O 686.843 1.84438 1.34888 0
M  V30 7232 C 687.053 2.794 -2.09133 0
M  V30 7233 C 688.401 3.49826 -2.40638 0
M  V30 7234 O 689.425 2.89583 -2.07412 0
M  V30 7235 O 688.284 4.58457 -2.97455 0
M  V30 7236 H 685.378 0.712475 -0.41989 0
M  V30 7237 H 687.924 0.936023 -1.41551 0
M  V30 7238 H 686.696 2.42762 -3.06891 0
M  V30 7239 H 686.319 3.55643 -1.77776 0
M  V30 7240 N 687.317 1.12792 1.10072 0
M  V30 7241 C 688.542 0.908838 1.86427 0
M  V30 7242 C 688.967 -0.536793 1.80278 0
M  V30 7243 O 688.325 -1.38033 1.17543 0
M  V30 7244 C 688.373 1.39295 3.3261 0
M  V30 7245 O 687.477 0.573846 4.08388 0
M  V30 7246 H 686.818 0.326234 0.578331 0
M  V30 7247 H 689.348 1.50094 1.39043 0
M  V30 7248 H 689.358 1.39366 3.83459 0
M  V30 7249 H 688.033 2.44555 3.36401 0
M  V30 7250 H 686.61 0.640438 3.67359 0
M  V30 7251 N 688.795 -1.27931 0.920396 0
M  V30 7252 C 690.042 -1.94689 0.557007 0
M  V30 7253 C 690.37 -1.724 -0.900476 0
M  V30 7254 O 689.625 -1.04194 -1.65657 0
M  V30 7255 C 689.924 -3.47853 0.820558 0
M  V30 7256 C 689.59 -3.90252 2.25863 0
M  V30 7257 C 688.252 -4.01539 2.65179 0
M  V30 7258 C 690.604 -4.11853 3.19415 0
M  V30 7259 C 687.932 -4.3181 3.97187 0
M  V30 7260 C 690.284 -4.43606 4.50995 0
M  V30 7261 C 688.948 -4.53105 4.90155 0
M  V30 7262 H 688.218 -0.712416 0.203823 0
M  V30 7263 H 690.865 -1.52142 1.16298 0
M  V30 7264 H 689.17 -3.91578 0.131844 0
M  V30 7265 H 690.867 -3.97634 0.51847 0
M  V30 7266 H 687.457 -3.81999 1.94358 0
M  V30 7267 H 691.641 -4.0258 2.90246 0
M  V30 7268 H 686.897 -4.37371 4.2722 0
M  V30 7269 H 691.071 -4.59268 5.23494 0
M  V30 7270 H 688.698 -4.76315 5.92476 0
M  V30 7271 N 690.273 -0.685099 -1.4193 0
M  V30 7272 C 691.236 -0.0222632 -2.29189 0
M  V30 7273 C 692.236 0.7186 -1.4385 0
M  V30 7274 O 693.426 0.555058 -1.6512 0
M  V30 7275 C 690.558 0.979013 -3.2654 0
M  V30 7276 H 691.751 -0.790424 -2.89296 0
M  V30 7277 H 689.304 -0.448012 -1.49742 0
M  V30 7278 H 690.039 1.77531 -2.71392 0
M  V30 7279 H 689.824 0.451037 -3.89497 0
M  V30 7280 H 691.314 1.44091 -3.91954 0
M  V30 7281 N 691.751 1.51645 -0.429126 0
M  V30 7282 C 692.661 2.31288 0.392809 0
M  V30 7283 C 693.677 1.39852 1.03525 0
M  V30 7284 O 694.853 1.72926 1.03241 0
M  V30 7285 C 691.918 3.13347 1.48372 0
M  V30 7286 C 690.979 4.20551 0.862268 0
M  V30 7287 C 690.212 4.98688 1.9012 0
M  V30 7288 O 690.435 4.77359 3.12225 0
M  V30 7289 O 689.369 5.83005 1.4963 0
M  V30 7290 H 693.195 3.02609 -0.257138 0
M  V30 7291 H 690.78 1.48163 -0.191851 0
M  V30 7292 H 692.662 3.64387 2.1166 0
M  V30 7293 H 691.337 2.44799 2.1179 0
M  V30 7294 H 690.244 3.73609 0.191568 0
M  V30 7295 H 691.577 4.91449 0.271704 0
M  V30 7296 N 693.229 0.160201 1.56784 0
M  V30 7297 C 694.176 -0.774416 2.1742 0
M  V30 7298 C 695.146 -1.23483 1.11091 0
M  V30 7299 O 696.331 -1.30499 1.39193 0
M  V30 7300 C 693.471 -2.00283 2.81035 0
M  V30 7301 C 692.584 -1.58701 4.01793 0
M  V30 7302 C 691.719 -2.76824 4.53367 0
M  V30 7303 C 690.758 -2.31679 5.66561 0
M  V30 7304 N 689.895 -3.42856 6.12694 0
M  V30 7305 H 694.735 -0.250542 2.96945 0
M  V30 7306 H 692.272 -0.111943 1.46673 0
M  V30 7307 H 694.23 -2.72316 3.16069 0
M  V30 7308 H 692.86 -2.5006 2.04132 0
M  V30 7309 H 691.912 -0.76384 3.72652 0
M  V30 7310 H 693.224 -1.21555 4.83762 0
M  V30 7311 H 692.378 -3.57029 4.90525 0
M  V30 7312 H 691.117 -3.17223 3.70433 0
M  V30 7313 H 690.122 -1.49917 5.28966 0
M  V30 7314 H 691.347 -1.9235 6.5129 0
M  V30 7315 H 689.293 -3.82852 5.32692 0
M  V30 7316 H 689.21 -3.09767 6.89624 0
M  V30 7317 H 690.478 -4.23379 6.545 0
M  V30 7318 N 694.707 -1.5719 -0.113559 0
M  V30 7319 C 695.935 -1.89328 -0.834422 0
M  V30 7320 C 696.35 -0.752018 -1.73177 0
M  V30 7321 O 695.707 0.276912 -1.80387 0
M  V30 7322 C 695.758 -3.20962 -1.66329 0
M  V30 7323 O 695.479 -4.30695 -0.802069 0
M  V30 7324 C 696.98 -3.6684 -2.48884 0
M  V30 7325 H 694.2 -0.626769 -0.239587 0
M  V30 7326 H 696.744 -2.04273 -0.0963195 0
M  V30 7327 H 694.899 -3.0767 -2.35409 0
M  V30 7328 H 695.313 -5.06175 -1.37431 0
M  V30 7329 H 696.787 -4.61692 -3.02563 0
M  V30 7330 H 697.264 -2.93765 -3.26495 0
M  V30 7331 H 697.87 -3.82938 -1.85036 0
M  V30 7332 N 696.185 0.383891 -1.52853 0
M  V30 7333 C 697.115 1.47559 -1.80965 0
M  V30 7334 C 698.096 1.5669 -0.661986 0
M  V30 7335 O 699.281 1.71556 -0.910072 0
M  V30 7336 C 696.411 2.85114 -1.98312 0
M  V30 7337 C 695.365 2.9082 -3.14019 0
M  V30 7338 C 694.691 4.30873 -3.16627 0
M  V30 7339 C 695.991 2.60001 -4.52986 0
M  V30 7340 H 697.685 1.24283 -2.72386 0
M  V30 7341 H 695.231 0.596445 -1.31067 0
M  V30 7342 H 697.184 3.61496 -2.16561 0
M  V30 7343 H 695.908 3.09738 -1.03585 0
M  V30 7344 H 694.567 2.16886 -2.9556 0
M  V30 7345 H 694.215 4.52545 -2.19573 0
M  V30 7346 H 693.915 4.3561 -3.94357 0
M  V30 7347 H 695.439 5.09154 -3.37038 0
M  V30 7348 H 696.853 3.261 -4.71521 0
M  V30 7349 H 695.25 2.76081 -5.32822 0
M  V30 7350 H 696.32 1.5532 -4.59351 0
M  V30 7351 N 697.663 1.43903 0.642637 0
M  V30 7352 C 698.91 1.46079 1.40239 0
M  V30 7353 C 699.238 0.0890335 1.94296 0
M  V30 7354 O 698.493 -0.907533 1.73385 0
M  V30 7355 C 698.792 2.45907 2.59354 0
M  V30 7356 C 698.458 3.91522 2.23654 0
M  V30 7357 C 697.12 4.31179 2.1363 0
M  V30 7358 C 699.472 4.83242 1.95261 0
M  V30 7359 C 696.8 5.60495 1.73384 0
M  V30 7360 C 699.152 6.12933 1.56511 0
M  V30 7361 C 697.816 6.51556 1.4502 0
M  V30 7362 H 697.086 0.534542 0.513172 0
M  V30 7363 H 699.733 1.77047 0.72984 0
M  V30 7364 H 698.038 2.08381 3.3179 0
M  V30 7365 H 699.735 2.44842 3.17574 0
M  V30 7366 H 696.325 3.60142 2.32369 0
M  V30 7367 H 700.509 4.53367 2.0192 0
M  V30 7368 H 695.765 5.89249 1.63082 0
M  V30 7369 H 699.939 6.83469 1.33576 0
M  V30 7370 H 697.566 7.51663 1.13606 0
M  V30 7371 N 699.141 -0.881989 1.30609 0
M  V30 7372 C 700.089 -2.00942 1.17155 0
M  V30 7373 C 701.083 -1.69198 0.0827154 0
M  V30 7374 O 702.289 -1.78342 0.243775 0
M  V30 7375 H 698.664 -0.658913 0.362406 0
M  V30 7376 H 700.635 -2.09423 2.12567 0
M  V30 7377 C 699.384 -3.36294 0.883273 0
M  V30 7378 H 698.707 -3.61233 1.7132 0
M  V30 7379 H 700.147 -4.15812 0.829255 0
M  V30 7380 C 698.606 -3.34348 -0.413851 0
M  V30 7381 O 699.136 -3.75216 -1.43444 0
M  V30 7382 N 697.342 -2.87459 -0.426082 0
M  V30 7383 H 696.889 -2.54397 0.40493 0
M  V30 7384 H 696.847 -2.8654 -1.29391 0
M  V30 7385 N 700.619 -1.13374 -1.09472 0
M  V30 7386 C 701.896 -0.806329 -1.78207 0
M  V30 7387 C 702.276 0.702191 -1.99079 0
M  V30 7388 O 701.624 1.63931 -1.59182 0
M  V30 7389 C 701.834 -1.59271 -3.10538 0
M  V30 7390 C 703.182 -1.78509 -3.85253 0
M  V30 7391 O 704.206 -1.55866 -3.20288 0
M  V30 7392 O 703.065 -2.16287 -5.01879 0
M  V30 7393 H 700.159 -0.29435 -0.772843 0
M  V30 7394 H 702.705 -1.23833 -1.16033 0
M  V30 7395 H 701.477 -2.61792 -2.90828 0
M  V30 7396 H 701.1 -1.15562 -3.80436 0
M  V30 7397 N 702.098 1.27442 -0.927168 0
M  V30 7398 C 703.061 2.2512 -0.430525 0
M  V30 7399 C 704.061 1.54357 0.450619 0
M  V30 7400 O 705.251 1.72371 0.251774 0
M  V30 7401 C 702.383 3.38763 0.381144 0
M  V30 7402 H 703.576 2.70569 -1.29354 0
M  V30 7403 H 701.129 1.39355 -0.707806 0
M  V30 7404 H 701.864 2.98695 1.263 0
M  V30 7405 H 701.649 3.91298 -0.250618 0
M  V30 7406 H 703.139 4.11364 0.719012 0
M  V30 7407 N 703.576 0.692616 1.41565 0
M  V30 7408 C 704.508 -0.0137132 2.29196 0
M  V30 7409 C 705.521 -0.747417 1.44629 0
M  V30 7410 O 706.71 -0.598611 1.68163 0
M  V30 7411 C 703.81 -1.04347 3.22436 0
M  V30 7412 C 702.983 -0.379985 4.35746 0
M  V30 7413 C 702.042 -1.31195 5.09583 0
M  V30 7414 O 701.068 -0.805455 5.63472 0
M  V30 7415 N 702.27 -2.64443 5.16769 0
M  V30 7416 H 705.035 0.738614 2.90456 0
M  V30 7417 H 702.596 0.538415 1.52685 0
M  V30 7418 H 704.588 -1.6686 3.687 0
M  V30 7419 H 703.158 -1.69736 2.62504 0
M  V30 7420 H 702.378 0.424975 3.91903 0
M  V30 7421 H 703.666 0.0814904 5.08735 0
M  V30 7422 H 703.064 -3.08114 4.74428 0
M  V30 7423 H 701.621 -3.22159 5.66619 0
M  V30 7424 N 705.054 -1.51416 0.437162 0
M  V30 7425 C 706.282 -2.06503 -0.128045 0
M  V30 7426 C 706.697 -1.30461 -1.36475 0
M  V30 7427 O 706.054 -0.364127 -1.78831 0
M  V30 7428 C 706.105 -3.58683 -0.450437 0
M  V30 7429 O 705.826 -4.31853 0.737186 0
M  V30 7430 C 707.327 -4.30284 -1.06633 0
M  V30 7431 H 704.547 -0.670952 -0.00800269 0
M  V30 7432 H 707.091 -1.94996 0.616193 0
M  V30 7433 H 705.246 -3.70106 -1.14457 0
M  V30 7434 H 705.66 -5.22467 0.461347 0
M  V30 7435 H 707.134 -5.37848 -1.24191 0
M  V30 7436 H 707.611 -3.88564 -2.0473 0
M  V30 7437 H 708.217 -4.23304 -0.411585 0
M  V30 7438 N 706.532 -0.168513 -1.56696 0
M  V30 7439 C 707.778 0.477865 -1.9709 0
M  V30 7440 C 708.111 1.63084 -1.05438 0
M  V30 7441 O 707.386 1.94238 -0.10095 0
M  V30 7442 C 707.669 0.963521 -3.4697 0
M  V30 7443 C 707.522 -0.189443 -4.49401 0
M  V30 7444 C 708.841 1.83813 -3.99876 0
M  V30 7445 H 705.96 0.172229 -0.716593 0
M  V30 7446 H 708.602 -0.254083 -1.88293 0
M  V30 7447 H 706.752 1.58724 -3.54597 0
M  V30 7448 H 708.424 -0.826451 -4.53836 0
M  V30 7449 H 706.667 -0.845366 -4.25483 0
M  V30 7450 H 707.338 0.192446 -5.51664 0
M  V30 7451 H 709.814 1.31235 -3.94863 0
M  V30 7452 H 708.69 2.14697 -5.0517 0
M  V30 7453 H 708.951 2.78289 -3.43523 0
M  V30 7454 N 708.01 1.57248 0.105221 0
M  V30 7455 C 708.94 2.04374 1.12931 0
M  V30 7456 C 709.921 0.93074 1.42377 0
M  V30 7457 O 711.106 1.20136 1.52581 0
M  V30 7458 C 708.236 2.45967 2.45189 0
M  V30 7459 C 707.19 3.60838 2.30174 0
M  V30 7460 C 706.516 3.88374 3.67518 0
M  V30 7461 C 707.816 4.92084 1.75073 0
M  V30 7462 H 709.51 2.9018 0.737287 0
M  V30 7463 H 707.056 1.39601 0.353211 0
M  V30 7464 H 709.009 2.77542 3.17094 0
M  V30 7465 H 707.733 1.57148 2.86308 0
M  V30 7466 H 706.392 3.29493 1.60716 0
M  V30 7467 H 706.04 2.96739 4.06147 0
M  V30 7468 H 705.74 4.65703 3.58321 0
M  V30 7469 H 707.264 4.22415 4.40906 0
M  V30 7470 H 708.678 5.22106 2.36809 0
M  V30 7471 H 707.075 5.73507 1.76662 0
M  V30 7472 H 708.145 4.79684 0.709347 0
M  V30 7473 N 709.488 -0.375779 1.53054 0
M  V30 7474 C 710.42 -1.47963 1.75042 0
M  V30 7475 C 711.433 -1.50073 0.631031 0
M  V30 7476 O 712.622 -1.53736 0.907052 0
M  V30 7477 C 709.722 -2.86767 1.80604 0
M  V30 7478 C 708.895 -3.08471 3.10104 0
M  V30 7479 C 707.954 -4.27332 3.07041 0
M  V30 7480 O 706.98 -4.22998 3.80869 0
M  V30 7481 N 708.182 -5.34214 2.27147 0
M  V30 7482 H 710.947 -1.29484 2.70285 0
M  V30 7483 H 708.508 -0.565416 1.51706 0
M  V30 7484 H 710.5 -3.64404 1.76045 0
M  V30 7485 H 709.07 -2.98542 0.926897 0
M  V30 7486 H 708.29 -2.18583 3.28048 0
M  V30 7487 H 709.578 -3.19834 3.95706 0
M  V30 7488 H 708.976 -5.40594 1.66656 0
M  V30 7489 H 707.533 -6.10467 2.28415 0
M  V30 7490 N 710.966 -1.44241 -0.634997 0
M  V30 7491 C 711.898 -1.46793 -1.76024 0
M  V30 7492 C 712.911 -0.361781 -1.58729 0
M  V30 7493 O 714.1 -0.627297 -1.67114 0
M  V30 7494 C 711.2 -1.28248 -3.13697 0
M  V30 7495 C 710.373 -2.52038 -3.57485 0
M  V30 7496 C 709.432 -2.2845 -4.74022 0
M  V30 7497 O 708.458 -3.01915 -4.82531 0
M  V30 7498 N 709.66 -1.31264 -5.65464 0
M  V30 7499 H 712.425 -2.43797 -1.74307 0
M  V30 7500 H 709.986 -1.39631 -0.819438 0
M  V30 7501 H 711.978 -1.10321 -3.89373 0
M  V30 7502 H 710.548 -0.39623 -3.10079 0
M  V30 7503 H 709.768 -2.85268 -2.72059 0
M  V30 7504 H 711.056 -3.34382 -3.83492 0
M  V30 7505 H 710.454 -0.705817 -5.6128 0
M  V30 7506 H 709.011 -1.19316 -6.40786 0
M  V30 7507 N 712.444 0.87505 -1.31075 0
M  V30 7508 C 713.376 1.98773 -1.14114 0
M  V30 7509 C 714.389 1.62595 -0.0816119 0
M  V30 7510 O 715.578 1.75449 -0.32861 0
M  V30 7511 C 712.678 3.31159 -0.720224 0
M  V30 7512 C 711.851 3.9571 -1.86366 0
M  V30 7513 C 710.91 5.06407 -1.42965 0
M  V30 7514 O 709.936 5.27501 -2.13848 0
M  V30 7515 N 711.138 5.79649 -0.314194 0
M  V30 7516 H 713.903 2.1387 -2.09951 0
M  V30 7517 H 711.464 1.04873 -1.23342 0
M  V30 7518 H 713.456 4.0259 -0.412687 0
M  V30 7519 H 712.026 3.12257 0.146396 0
M  V30 7520 H 711.246 3.17324 -2.33879 0
M  V30 7521 H 712.534 4.35576 -2.62966 0
M  V30 7522 H 711.932 5.65025 0.276228 0
M  V30 7523 H 710.489 6.51766 -0.0661641 0
M  V30 7524 N 713.922 1.13953 1.08869 0
M  V30 7525 C 714.885 0.824991 2.13838 0
M  V30 7526 C 715.885 -0.168198 1.59918 0
M  V30 7527 O 717.075 0.0595778 1.74098 0
M  V30 7528 C 714.207 0.228938 3.4013 0
M  V30 7529 H 715.4 1.75521 2.43171 0
M  V30 7530 H 712.953 0.94492 1.24503 0
M  V30 7531 H 713.688 -0.710227 3.16427 0
M  V30 7532 H 713.473 0.944243 3.80561 0
M  V30 7533 H 714.963 0.0259223 4.17592 0
M  V30 7534 N 715.4 -1.26948 0.933913 0
M  V30 7535 C 716.363 -2.24889 0.442457 0
M  V30 7536 C 717.363 -1.54594 -0.442426 0
M  V30 7537 O 718.553 -1.72502 -0.242629 0
M  V30 7538 C 715.685 -3.3896 -0.363173 0
M  V30 7539 H 716.878 -2.69879 1.30787 0
M  V30 7540 H 714.431 -1.38978 0.715187 0
M  V30 7541 H 715.166 -2.99361 -1.24714 0
M  V30 7542 H 714.951 -3.9116 0.271366 0
M  V30 7543 H 716.441 -4.11739 -0.697186 0
M  V30 7544 N 716.879 -0.700114 -1.41195 0
M  V30 7545 C 718.126 -0.233006 -2.01155 0
M  V30 7546 C 718.454 1.16883 -1.55462 0
M  V30 7547 O 717.709 1.80395 -0.758695 0
M  V30 7548 C 718.008 -0.243986 -3.56566 0
M  V30 7549 C 717.674 -1.59397 -4.21786 0
M  V30 7550 C 716.336 -1.96355 -4.39316 0
M  V30 7551 C 718.688 -2.48192 -4.58312 0
M  V30 7552 C 716.016 -3.21683 -4.9065 0
M  V30 7553 C 718.368 -3.72857 -5.11039 0
M  V30 7554 C 717.032 -4.09951 -5.26779 0
M  V30 7555 H 716.302 -0.085263 -0.736078 0
M  V30 7556 H 718.949 -0.9001 -1.69028 0
M  V30 7557 H 717.254 0.506663 -3.8851 0
M  V30 7558 H 718.951 0.135031 -4.00773 0
M  V30 7559 H 715.541 -1.29654 -4.08519 0
M  V30 7560 H 719.725 -2.20918 -4.4442 0
M  V30 7561 H 714.981 -3.50412 -5.01021 0
M  V30 7562 H 719.155 -4.41844 -5.38282 0
M  V30 7563 H 716.782 -5.07136 -5.66319 0
M  V30 7564 N 718.357 1.51182 -0.445186 0
M  V30 7565 C 719.605 2.01753 0.11841 0
M  V30 7566 C 719.926 1.33087 1.42523 0
M  V30 7567 O 719.196 0.467891 1.9023 0
M  V30 7568 H 717.776 0.745536 0.0467492 0
M  V30 7569 H 720.438 1.85765 -0.589688 0
M  V30 7570 H 719.534 3.10762 0.288665 0
M  V30 7571 N 719.835 0.176821 1.56605 0
M  V30 7572 C 721.065 -0.472142 2.01133 0
M  V30 7573 C 721.473 -1.56979 1.05614 0
M  V30 7574 O 720.816 -1.83632 0.0500137 0
M  V30 7575 C 720.878 -1.10547 3.42081 0
M  V30 7576 C 720.542 -0.148806 4.56758 0
M  V30 7577 C 721.539 0.634939 5.16008 0
M  V30 7578 C 719.224 -0.0430325 5.02282 0
M  V30 7579 C 721.218 1.5116 6.19217 0
M  V30 7580 C 718.905 0.83721 6.05338 0
M  V30 7581 C 719.903 1.61311 6.63677 0
M  V30 7582 O 719.591 2.47863 7.64735 0
M  V30 7583 H 719.323 -0.124725 0.664394 0
M  V30 7584 H 721.877 0.277329 2.03519 0
M  V30 7585 H 720.107 -1.90318 3.36625 0
M  V30 7586 H 721.796 -1.6572 3.70529 0
M  V30 7587 H 722.562 0.563424 4.81716 0
M  V30 7588 H 718.441 -0.636753 4.56581 0
M  V30 7589 H 721.985 2.11767 6.64681 0
M  V30 7590 H 717.882 0.909908 6.39055 0
M  V30 7591 H 718.65 2.4144 7.8208 0
M  V30 7592 N 721.313 -1.57302 -0.09688 0
M  V30 7593 C 722.541 -1.90202 -0.814295 0
M  V30 7594 C 722.956 -0.770344 -1.72369 0
M  V30 7595 O 722.313 0.257764 -1.8067 0
M  V30 7596 C 722.364 -3.22708 -1.62916 0
M  V30 7597 O 722.085 -4.31522 -0.756343 0
M  V30 7598 C 723.586 -3.69459 -2.44979 0
M  V30 7599 H 720.806 -0.629275 -0.232925 0
M  V30 7600 H 723.35 -2.04364 -0.0746482 0
M  V30 7601 H 721.505 -3.1015 -2.32133 0
M  V30 7602 H 721.919 -5.07604 -1.32054 0
M  V30 7603 H 723.393 -4.64875 -2.9765 0
M  V30 7604 H 723.87 -2.97211 -3.23361 0
M  V30 7605 H 724.476 -3.84879 -1.80964 0
M  V30 7606 N 722.791 0.367657 -1.53252 0
M  V30 7607 C 723.754 1.43308 -1.78873 0
M  V30 7608 C 724.754 1.46671 -0.659115 0
M  V30 7609 O 725.944 1.47468 -0.927306 0
M  V30 7610 C 723.076 2.82442 -1.90892 0
M  V30 7611 H 724.269 1.21864 -2.74024 0
M  V30 7612 H 721.822 0.600668 -1.44297 0
M  V30 7613 H 722.557 3.09202 -0.978 0
M  V30 7614 H 722.342 2.81399 -2.73051 0
M  V30 7615 H 723.832 3.59601 -2.12314 0
M  V30 7616 N 724.269 1.44576 0.627338 0
M  V30 7617 C 725.179 1.54232 1.76776 0
M  V30 7618 C 726.195 0.427782 1.6866 0
M  V30 7619 O 727.371 0.685671 1.89369 0
M  V30 7620 C 724.436 1.48738 3.13174 0
M  V30 7621 C 723.497 2.71074 3.32893 0
M  V30 7622 C 722.73 2.65832 4.62784 0
M  V30 7623 O 722.953 1.72048 5.43834 0
M  V30 7624 O 721.887 3.56742 4.84787 0
M  V30 7625 H 725.713 2.50586 1.71582 0
M  V30 7626 H 723.298 1.26865 0.789028 0
M  V30 7627 H 725.18 1.48211 3.94476 0
M  V30 7628 H 723.855 0.555292 3.18902 0
M  V30 7629 H 722.762 2.77168 2.51254 0
M  V30 7630 H 724.095 3.63342 3.32029 0
M  V30 7631 N 725.747 -0.868086 1.31537 0
M  V30 7632 C 727.024 -1.60384 1.11965 0
M  V30 7633 C 727.404 -2.08584 -0.324949 0
M  V30 7634 O 726.752 -1.86561 -1.31937 0
M  V30 7635 C 726.962 -2.76038 2.13551 0
M  V30 7636 C 728.31 -3.45954 2.46173 0
M  V30 7637 O 729.334 -2.86247 2.11993 0
M  V30 7638 O 728.193 -4.53666 3.04711 0
M  V30 7639 H 725.287 -0.705705 0.431172 0
M  V30 7640 H 727.833 -0.913385 1.43022 0
M  V30 7641 H 726.605 -2.37849 3.10714 0
M  V30 7642 H 726.228 -3.52769 1.83411 0
M  V30 7643 N 727.225 -1.14528 -1.08264 0
M  V30 7644 C 728.471 -0.91576 -1.80947 0
M  V30 7645 C 728.804 0.55623 -1.86064 0
M  V30 7646 O 728.079 1.41207 -1.33756 0
M  V30 7647 C 728.362 -1.51917 -3.26486 0
M  V30 7648 C 728.215 -3.06111 -3.2957 0
M  V30 7649 C 729.534 -1.19724 -4.23502 0
M  V30 7650 H 726.653 -0.334113 -0.656915 0
M  V30 7651 H 729.295 -1.41547 -1.26746 0
M  V30 7652 H 727.445 -1.0942 -3.72773 0
M  V30 7653 H 729.117 -3.57448 -2.91597 0
M  V30 7654 H 727.36 -3.40483 -2.688 0
M  V30 7655 H 728.031 -3.43438 -4.32151 0
M  V30 7656 H 730.507 -1.56467 -3.85561 0
M  V30 7657 H 729.383 -1.64575 -5.23647 0
M  V30 7658 H 729.644 -0.112771 -4.41956 0
M  V30 7659 N 728.703 1.26451 -0.940633 0
M  V30 7660 C 729.613 2.30128 -0.455881 0
M  V30 7661 C 730.629 1.67536 0.469867 0
M  V30 7662 O 731.805 1.98344 0.349529 0
M  V30 7663 C 728.87 3.45634 0.271648 0
M  V30 7664 C 727.931 4.23709 -0.690594 0
M  V30 7665 C 727.164 5.337 0.00231047 0
M  V30 7666 O 727.387 5.57215 1.21935 0
M  V30 7667 O 726.321 5.98091 -0.676111 0
M  V30 7668 H 730.147 2.73655 -1.31707 0
M  V30 7669 H 727.732 1.3164 -0.706497 0
M  V30 7670 H 729.614 4.15853 0.681486 0
M  V30 7671 H 728.289 3.04138 1.10824 0
M  V30 7672 H 727.196 3.55974 -1.15037 0
M  V30 7673 H 728.529 4.68953 -1.49478 0
M  V30 7674 N 730.181 0.707592 1.40822 0
M  V30 7675 C 731.114 -0.000859377 2.282 0
M  V30 7676 C 732.092 -0.7758 1.42899 0
M  V30 7677 O 733.276 -0.76411 1.72318 0
M  V30 7678 C 730.403 -1.00861 3.23334 0
M  V30 7679 C 729.449 -0.32543 4.25257 0
M  V30 7680 S 730.282 0.940908 5.27169 0
M  V30 7681 C 731.438 -0.0649459 6.25866 0
M  V30 7682 H 731.671 0.740207 2.87938 0
M  V30 7683 H 729.204 0.498311 1.46138 0
M  V30 7684 H 731.162 -1.58485 3.78672 0
M  V30 7685 H 729.823 -1.72233 2.62668 0
M  V30 7686 H 729.016 -1.08697 4.92139 0
M  V30 7687 H 728.618 0.178044 3.73576 0
M  V30 7688 H 730.91 -0.914377 6.71301 0
M  V30 7689 H 731.853 0.570276 7.058 0
M  V30 7690 H 732.261 -0.425098 5.62897 0
M  V30 7691 N 731.66 -1.50943 0.453197 0
M  V30 7692 C 732.906 -2.02512 -0.108082 0
M  V30 7693 C 733.239 -1.33574 -1.40967 0
M  V30 7694 O 732.514 -0.455671 -1.89087 0
M  V30 7695 C 732.797 -3.58759 -0.310453 0
M  V30 7696 C 732.65 -4.38293 1.0109 0
M  V30 7697 C 733.969 -4.26816 -1.07313 0
M  V30 7698 H 731.088 -0.73603 -0.0378064 0
M  V30 7699 H 733.73 -1.80433 0.595295 0
M  V30 7700 H 731.88 -3.77702 -0.909582 0
M  V30 7701 H 733.552 -4.30964 1.64523 0
M  V30 7702 H 731.795 -4.02745 1.61179 0
M  V30 7703 H 732.466 -5.45828 0.82315 0
M  V30 7704 H 734.942 -4.1224 -0.565473 0
M  V30 7705 H 733.818 -5.35989 -1.1835 0
M  V30 7706 H 734.079 -3.88757 -2.10525 0
M  V30 7707 N 733.138 -0.185124 -1.56509 0
M  V30 7708 C 734.384 0.456934 -1.97585 0
M  V30 7709 C 734.717 1.61957 -1.07161 0
M  V30 7710 O 733.992 1.9412 -0.121546 0
M  V30 7711 C 734.275 0.926666 -3.47973 0
M  V30 7712 C 734.128 -0.237097 -4.49175 0
M  V30 7713 C 735.447 1.79561 -4.01803 0
M  V30 7714 H 732.566 0.164619 -0.71838 0
M  V30 7715 H 735.208 -0.274039 -1.88013 0
M  V30 7716 H 733.358 1.54954 -3.56261 0
M  V30 7717 H 735.03 -0.87454 -4.52934 0
M  V30 7718 H 733.273 -0.890446 -4.24563 0
M  V30 7719 H 733.944 0.133924 -5.51838 0
M  V30 7720 H 736.42 1.27039 -3.96232 0
M  V30 7721 H 735.296 2.09327 -5.07418 0
M  V30 7722 H 735.557 2.74629 -3.46455 0
M  V30 7723 N 734.616 1.57351 0.0885366 0
M  V30 7724 C 735.862 1.86696 0.791996 0
M  V30 7725 C 736.195 0.775148 1.78059 0
M  V30 7726 O 735.47 -0.216247 1.93294 0
M  V30 7727 C 735.753 3.26684 1.51491 0
M  V30 7728 C 735.606 4.465 0.543858 0
M  V30 7729 C 736.925 3.64664 2.46391 0
M  V30 7730 H 734.044 0.679049 0.286463 0
M  V30 7731 H 736.686 1.89919 0.0554866 0
M  V30 7732 H 734.836 3.24067 2.14273 0
M  V30 7733 H 736.508 4.61235 -0.0774597 0
M  V30 7734 H 734.751 4.33567 -0.142228 0
M  V30 7735 H 735.422 5.41192 1.08696 0
M  V30 7736 H 737.898 3.68267 1.93698 0
M  V30 7737 H 736.774 4.63534 2.93986 0
M  V30 7738 H 737.035 2.93698 3.30445 0
M  V30 7739 N 736.094 -0.359525 1.53444 0
M  V30 7740 C 737.505 -0.936009 1.61542 0
M  V30 7741 C 737.856 -1.90069 0.486633 0
M  V30 7742 O 736.981 -2.12929 -0.386047 0
M  V30 7743 C 737.576 -1.70441 2.92806 0
M  V30 7744 C 736.135 -2.23015 3.03218 0
M  V30 7745 C 735.282 -1.04438 2.56881 0
M  V30 7746 H 738.233 -0.138134 1.58098 0
M  V30 7747 H 738.254 -2.56609 2.80948 0
M  V30 7748 H 737.766 -1.00205 3.74941 0
M  V30 7749 H 735.867 -2.96475 2.25684 0
M  V30 7750 H 735.98 -2.50481 4.08407 0
M  V30 7751 H 734.344 -1.41314 2.11902 0
M  V30 7752 H 735.127 -0.356905 3.4144 0
M  V30 7753 N 737.572 -1.44907 -0.619662 0
M  V30 7754 C 738.505 -1.47133 -1.74434 0
M  V30 7755 C 739.483 -0.328933 -1.59238 0
M  V30 7756 O 740.667 -0.527632 -1.80965 0
M  V30 7757 C 737.794 -1.31491 -3.12134 0
M  V30 7758 C 736.84 -2.49441 -3.4595 0
M  V30 7759 S 737.673 -4.11945 -3.42142 0
M  V30 7760 C 738.829 -3.98747 -4.82443 0
M  V30 7761 H 739.062 -2.42295 -1.7228 0
M  V30 7762 H 736.595 -1.32343 -0.795276 0
M  V30 7763 H 738.553 -1.23153 -3.91591 0
M  V30 7764 H 737.214 -0.378203 -3.11815 0
M  V30 7765 H 736.407 -2.3439 -4.46181 0
M  V30 7766 H 736.009 -2.54577 -2.73982 0
M  V30 7767 H 738.301 -3.63145 -5.71954 0
M  V30 7768 H 739.244 -4.98848 -5.0255 0
M  V30 7769 H 739.652 -3.30608 -4.57557 0
M  V30 7770 N 739.05 0.861098 -1.31996 0
M  V30 7771 C 740.013 1.95068 -1.20338 0
M  V30 7772 C 741.013 1.60289 -0.128114 0
M  V30 7773 O 742.203 1.70048 -0.378044 0
M  V30 7774 C 739.335 3.30153 -0.849205 0
M  V30 7775 H 740.528 2.06833 -2.17164 0
M  V30 7776 H 738.081 1.05049 -1.15734 0
M  V30 7777 H 738.816 3.24087 0.117508 0
M  V30 7778 H 738.601 3.56771 -1.62655 0
M  V30 7779 H 740.091 4.10025 -0.791782 0
M  V30 7780 N 740.528 1.15101 1.07655 0
M  V30 7781 C 741.753 0.948177 1.84457 0
M  V30 7782 C 742.178 -0.498432 1.81376 0
M  V30 7783 O 741.536 -1.35509 1.20445 0
M  V30 7784 C 741.584 1.46318 3.29581 0
M  V30 7785 O 740.688 0.660342 4.07079 0
M  V30 7786 H 740.029 0.338428 0.571281 0
M  V30 7787 H 742.559 1.5301 1.35828 0
M  V30 7788 H 742.569 1.47468 3.80417 0
M  V30 7789 H 741.244 2.51635 3.31138 0
M  V30 7790 H 739.821 0.718216 3.65918 0
M  V30 7791 N 742.006 -1.2595 0.947325 0
M  V30 7792 C 742.938 -2.25336 0.41906 0
M  V30 7793 C 743.951 -1.56135 -0.461051 0
M  V30 7794 O 745.14 -1.76438 -0.270505 0
M  V30 7795 C 742.24 -3.36334 -0.416233 0
M  V30 7796 C 741.413 -4.35088 0.449162 0
M  V30 7797 C 740.472 -5.25185 -0.326716 0
M  V30 7798 O 739.498 -5.68548 0.272374 0
M  V30 7799 N 740.7 -5.57388 -1.6217 0
M  V30 7800 H 743.465 -2.71298 1.27348 0
M  V30 7801 H 741.026 -1.39781 0.81688 0
M  V30 7802 H 743.018 -3.93564 -0.942826 0
M  V30 7803 H 741.588 -2.89819 -1.17148 0
M  V30 7804 H 740.808 -3.76841 1.15692 0
M  V30 7805 H 742.096 -4.98056 1.04008 0
M  V30 7806 H 741.494 -5.2405 -2.13046 0
M  V30 7807 H 740.051 -6.17234 -2.0944 0
M  V30 7808 N 743.484 -0.715051 -1.40445 0
M  V30 7809 C 744.732 -0.253826 -2.005 0
M  V30 7810 C 745.053 1.15681 -1.5698 0
M  V30 7811 O 744.323 1.78414 -0.809027 0
M  V30 7812 H 742.903 -0.0908537 -0.741454 0
M  V30 7813 H 745.565 -0.920561 -1.7179 0
M  V30 7814 H 744.661 -0.286499 -3.10782 0
M  V30 7815 N 744.962 1.50701 -0.461195 0
M  V30 7816 C 745.909 2.2831 0.338094 0
M  V30 7817 C 746.879 1.32928 0.995957 0
M  V30 7818 O 748.064 1.61857 1.0103 0
M  V30 7819 C 745.204 3.14539 1.41983 0
M  V30 7820 C 744.317 4.24942 0.77773 0
M  V30 7821 C 743.452 4.98443 1.83652 0
M  V30 7822 C 742.491 6.00733 1.17413 0
M  V30 7823 N 741.628 6.6755 2.17533 0
M  V30 7824 H 746.468 2.96167 -0.330051 0
M  V30 7825 H 744.005 1.4606 -0.174611 0
M  V30 7826 H 745.963 3.62877 2.05855 0
M  V30 7827 H 744.593 2.48749 2.05727 0
M  V30 7828 H 743.645 3.80391 0.0266924 0
M  V30 7829 H 744.957 4.98151 0.254362 0
M  V30 7830 H 744.111 5.50449 2.55129 0
M  V30 7831 H 742.85 4.24917 2.39367 0
M  V30 7832 H 741.855 5.47997 0.444944 0
M  V30 7833 H 743.08 6.76227 0.624006 0
M  V30 7834 H 741.026 5.96823 2.72284 0
M  V30 7835 H 740.943 7.36603 1.70154 0
M  V30 7836 H 742.211 7.24178 2.88421 0
M  V30 7837 N 746.441 0.193421 1.56409 0
M  V30 7838 C 747.351 -0.740112 2.2262 0
M  V30 7839 C 748.367 -1.23597 1.22474 0
M  V30 7840 O 749.543 -1.28348 1.55206 0
M  V30 7841 C 746.608 -1.94317 2.87127 0
M  V30 7842 C 745.669 -1.49205 4.02538 0
M  V30 7843 C 744.902 -2.63776 4.63959 0
M  V30 7844 O 745.125 -3.81215 4.24301 0
M  V30 7845 O 744.059 -2.36585 5.53454 0
M  V30 7846 H 747.885 -0.206238 3.02999 0
M  V30 7847 H 745.47 -0.0357938 1.49357 0
M  V30 7848 H 747.352 -2.64633 3.27944 0
M  V30 7849 H 746.027 -2.46568 2.09728 0
M  V30 7850 H 744.934 -0.757738 3.66346 0
M  V30 7851 H 746.267 -1.01622 4.81595 0
M  V30 7852 N 747.919 -1.57396 -0.0801906 0
M  V30 7853 C 749.33 -1.75642 -0.633002 0
M  V30 7854 C 749.681 -0.817708 -1.78348 0
M  V30 7855 O 748.806 0.000233743 -2.164 0
M  V30 7856 C 749.401 -3.18502 -1.15507 0
M  V30 7857 C 747.96 -3.38121 -1.65381 0
M  V30 7858 C 747.107 -2.71386 -0.569661 0
M  V30 7859 H 750.058 -1.58027 0.145949 0
M  V30 7860 H 750.079 -3.22198 -2.02408 0
M  V30 7861 H 749.591 -3.86799 -0.317515 0
M  V30 7862 H 747.692 -2.74926 -2.51488 0
M  V30 7863 H 747.805 -4.46521 -1.73654 0
M  V30 7864 H 746.169 -2.33702 -1.0127 0
M  V30 7865 H 746.952 -3.42332 0.257561 0
M  V30 7866 N 749.397 0.351382 -1.53633 0
M  V30 7867 C 750.625 1.11275 -1.74429 0
M  V30 7868 C 751.04 1.82602 -0.479798 0
M  V30 7869 O 750.397 1.74074 0.548125 0
M  V30 7870 C 750.448 2.13223 -2.91921 0
M  V30 7871 O 750.169 1.44798 -4.13479 0
M  V30 7872 C 751.67 3.01797 -3.24706 0
M  V30 7873 H 748.89 0.332153 -0.583023 0
M  V30 7874 H 751.434 0.405974 -2.0043 0
M  V30 7875 H 749.589 2.79477 -2.68274 0
M  V30 7876 H 750.003 2.12839 -4.79374 0
M  V30 7877 H 751.477 3.69282 -4.10286 0
M  V30 7878 H 751.954 3.67387 -2.40673 0
M  V30 7879 H 752.56 2.41141 -3.5033 0
M  V30 7880 N 750.875 1.45233 0.611969 0
M  V30 7881 C 752.122 1.49021 1.37109 0
M  V30 7882 C 752.45 0.130227 1.94064 0
M  V30 7883 O 751.705 -0.870551 1.75271 0
M  V30 7884 C 752.004 2.51353 2.54079 0
M  V30 7885 C 751.67 3.96178 2.15299 0
M  V30 7886 C 750.332 4.35614 2.04436 0
M  V30 7887 C 752.684 4.87275 1.84966 0
M  V30 7888 C 750.012 5.64047 1.61456 0
M  V30 7889 C 752.364 6.16115 1.43474 0
M  V30 7890 C 751.028 6.54486 1.31167 0
M  V30 7891 H 750.298 0.545307 0.501719 0
M  V30 7892 H 752.945 1.78555 0.692122 0
M  V30 7893 H 751.25 2.15372 3.27295 0
M  V30 7894 H 752.947 2.51523 3.12309 0
M  V30 7895 H 749.537 3.6499 2.24678 0
M  V30 7896 H 753.721 4.57548 1.92258 0
M  V30 7897 H 748.977 5.92575 1.50547 0
M  V30 7898 H 753.151 6.86149 1.19048 0
M  V30 7899 H 750.778 7.53904 0.97637 0
M  V30 7900 N 752.353 -0.854086 1.3245 0
M  V30 7901 C 753.593 -1.62216 1.2436 0
M  V30 7902 C 753.957 -1.91042 -0.191564 0
M  V30 7903 O 755.158 -2.65864 -0.396211 0
M  V30 7904 C 753.429 -2.9066 2.0797 0
M  V30 7905 S 754.988 -3.81438 2.16911 0
M  V30 7906 H 751.806 -0.556386 0.442669 0
M  V30 7907 H 754.408 -1.01139 1.67305 0
M  V30 7908 H 753.112 -2.6743 3.11302 0
M  V30 7909 H 752.643 -3.56753 1.65805 0
M  V30 7910 H 754.658 -4.78347 1.31903 0
M  V30 7911 N 753.831 -1.1567 -1.07043 0
M  V30 7912 C 754.764 -0.799867 -2.13723 0
M  V30 7913 C 755.742 0.225098 -1.61034 0
M  V30 7914 O 756.926 0.11093 -1.88173 0
M  V30 7915 C 754.053 -0.18997 -3.38167 0
M  V30 7916 C 753.099 -1.18733 -4.0964 0
M  V30 7917 S 753.932 -2.73074 -4.60642 0
M  V30 7918 C 755.088 -2.13512 -5.88356 0
M  V30 7919 H 755.321 -1.70342 -2.43661 0
M  V30 7920 H 752.854 -0.979377 -1.19363 0
M  V30 7921 H 754.812 0.155471 -4.10205 0
M  V30 7922 H 753.473 0.691229 -3.064 0
M  V30 7923 H 752.666 -0.708873 -4.9899 0
M  V30 7924 H 752.268 -1.47747 -3.43579 0
M  V30 7925 H 754.56 -1.49911 -6.60706 0
M  V30 7926 H 755.503 -3.01042 -6.40921 0
M  V30 7927 H 755.911 -1.57693 -5.42027 0
M  V30 7928 N 755.309 1.25446 -0.953992 0
M  V30 7929 C 756.557 1.92762 -0.607227 0
M  V30 7930 C 756.878 1.7509 0.858399 0
M  V30 7931 O 756.148 1.11416 1.61132 0
M  V30 7932 H 754.728 0.713377 -0.221591 0
M  V30 7933 H 757.39 1.52625 -1.21209 0
M  V30 7934 H 756.486 3.00695 -0.835998 0
M  V30 7935 N 756.787 0.722489 1.40064 0
M  V30 7936 C 758.064 0.191829 1.94657 0
M  V30 7937 C 758.444 -1.30389 1.66018 0
M  V30 7938 O 757.792 -2.06342 0.981588 0
M  V30 7939 C 758.002 0.511978 3.45224 0
M  V30 7940 C 759.35 0.454426 4.22161 0
M  V30 7941 O 760.374 0.448438 3.53366 0
M  V30 7942 O 759.233 0.437986 5.44742 0
M  V30 7943 H 756.327 0.0307821 0.826427 0
M  V30 7944 H 758.873 0.800493 1.49634 0
M  V30 7945 H 757.645 1.54622 3.59455 0
M  V30 7946 H 757.268 -0.126296 3.97399 0
M  V30 7947 N 758.265 -1.50454 0.469181 0
M  V30 7948 C 759.542 -1.9504 -0.147955 0
M  V30 7949 C 759.922 -1.40946 -1.57154 0
M  V30 7950 O 759.27 -0.609663 -2.20217 0
M  V30 7951 C 759.48 -3.48875 -0.0932198 0
M  V30 7952 C 760.828 -4.23655 -0.283056 0
M  V30 7953 O 761.852 -3.55795 -0.169892 0
M  V30 7954 O 760.711 -5.44102 -0.511396 0
M  V30 7955 H 757.805 -0.819283 -0.11271 0
M  V30 7956 H 760.351 -1.6123 0.529446 0
M  V30 7957 H 759.123 -3.80791 0.900784 0
M  V30 7958 H 758.746 -3.89217 -0.812161 0
M  V30 7959 N 759.743 -0.201713 -1.56304 0
M  V30 7960 C 760.971 0.440723 -2.02152 0
M  V30 7961 C 761.386 1.54735 -1.08179 0
M  V30 7962 O 760.743 1.82289 -0.0878196 0
M  V30 7963 C 760.794 0.990884 -3.47655 0
M  V30 7964 O 760.515 -0.0715937 -4.38041 0
M  V30 7965 C 762.016 1.70854 -4.09052 0
M  V30 7966 H 759.236 0.109987 -0.661924 0
M  V30 7967 H 761.78 -0.312358 -2.021 0
M  V30 7968 H 759.935 1.69432 -3.48384 0
M  V30 7969 H 760.349 0.338892 -5.23404 0
M  V30 7970 H 761.823 2.04572 -5.12693 0
M  V30 7971 H 762.3 2.61462 -3.52894 0
M  V30 7972 H 762.906 1.0508 -4.12114 0
M  V30 7973 N 761.222 1.57436 0.0718424 0
M  V30 7974 C 762.633 1.75975 0.623678 0
M  V30 7975 C 762.984 0.827155 1.77912 0
M  V30 7976 O 762.109 0.0112425 2.16397 0
M  V30 7977 C 762.704 3.1911 1.13816 0
M  V30 7978 C 761.263 3.38994 1.63586 0
M  V30 7979 C 760.41 2.71684 0.555261 0
M  V30 7980 H 763.361 1.57948 -0.154328 0
M  V30 7981 H 763.382 3.23267 2.00696 0
M  V30 7982 H 762.894 3.86962 0.296998 0
M  V30 7983 H 760.995 2.76256 2.50027 0
M  V30 7984 H 761.108 4.47436 1.71283 0
M  V30 7985 H 759.472 2.34236 1.00029 0
M  V30 7986 H 760.255 3.42191 -0.275712 0
M  V30 7987 N 762.7 -0.34323 1.53817 0
M  V30 7988 C 763.63 -1.42709 1.84814 0
M  V30 7989 C 764.611 -1.5488 0.703297 0
M  V30 7990 O 765.796 -1.69082 0.955237 0
M  V30 7991 C 762.926 -2.79756 2.05801 0
M  V30 7992 C 761.88 -2.82392 3.21619 0
M  V30 7993 C 761.206 -4.22326 3.2794 0
M  V30 7994 C 762.506 -2.479 4.59721 0
M  V30 7995 H 764.2 -1.17018 2.75585 0
M  V30 7996 H 761.746 -0.561485 1.32602 0
M  V30 7997 H 763.699 -3.55627 2.26069 0
M  V30 7998 H 762.423 -3.06883 1.11761 0
M  V30 7999 H 761.082 -2.08974 3.01207 0
M  V30 8000 H 760.73 -4.46564 2.31494 0
M  V30 8001 H 760.43 -4.25001 4.05768 0
M  V30 8002 H 761.954 -5.00039 3.50419 0
M  V30 8003 H 763.368 -3.13484 4.80001 0
M  V30 8004 H 761.765 -2.61857 5.39954 0
M  V30 8005 H 762.835 -1.43087 4.63308 0
M  V30 8006 N 764.178 -1.45556 -0.604258 0
M  V30 8007 C 765.141 -1.54091 -1.69672 0
M  V30 8008 C 766.141 -0.420076 -1.55216 0
M  V30 8009 O 767.331 -0.683671 -1.60224 0
M  V30 8010 C 764.463 -1.44063 -3.08964 0
M  V30 8011 H 765.656 -2.51431 -1.6347 0
M  V30 8012 H 763.209 -1.33046 -0.820273 0
M  V30 8013 H 763.944 -0.479201 -3.2074 0
M  V30 8014 H 763.729 -2.25362 -3.20865 0
M  V30 8015 H 765.219 -1.53075 -3.88533 0
M  V30 8016 N 765.656 0.84705 -1.32902 0
M  V30 8017 C 766.902 1.60414 -1.24078 0
M  V30 8018 C 767.235 1.93217 0.195105 0
M  V30 8019 O 766.51 1.58001 1.13428 0
M  V30 8020 C 766.793 2.91951 -2.108 0
M  V30 8021 C 766.646 2.6588 -3.62805 0
M  V30 8022 C 767.965 3.93299 -1.97494 0
M  V30 8023 H 765.084 0.58206 -0.452079 0
M  V30 8024 H 767.726 0.977562 -1.62922 0
M  V30 8025 H 765.876 3.45425 -1.77802 0
M  V30 8026 H 767.548 2.18902 -4.06054 0
M  V30 8027 H 765.791 1.99716 -3.85092 0
M  V30 8028 H 766.462 3.59574 -4.1882 0
M  V30 8029 H 768.938 3.49105 -2.26417 0
M  V30 8030 H 767.814 4.8318 -2.60438 0
M  V30 8031 H 768.075 4.31887 -0.944782 0
M  V30 8032 N 767.134 1.16236 1.06428 0
M  V30 8033 C 768.064 0.890807 2.1584 0
M  V30 8034 C 769.045 -0.162333 1.69324 0
M  V30 8035 O 770.23 -0.0147191 1.94194 0
M  V30 8036 C 767.36 0.389615 3.45108 0
M  V30 8037 C 766.314 1.38051 4.05125 0
M  V30 8038 C 765.64 0.737773 5.29586 0
M  V30 8039 C 766.94 2.74965 4.44062 0
M  V30 8040 H 768.634 1.80577 2.38814 0
M  V30 8041 H 766.18 0.869657 1.14774 0
M  V30 8042 H 768.133 0.187127 4.20984 0
M  V30 8043 H 766.857 -0.560851 3.21748 0
M  V30 8044 H 765.516 1.56952 3.31303 0
M  V30 8045 H 765.164 -0.219135 5.02522 0
M  V30 8046 H 764.864 1.39914 5.70699 0
M  V30 8047 H 766.388 0.545275 6.0816 0
M  V30 8048 H 767.802 2.59855 5.11027 0
M  V30 8049 H 766.199 3.37563 4.96156 0
M  V30 8050 H 767.269 3.30321 3.54987 0
M  V30 8051 N 768.612 -1.24939 0.960631 0
M  V30 8052 C 769.837 -1.9742 0.635608 0
M  V30 8053 C 770.262 -1.70857 -0.786737 0
M  V30 8054 O 769.62 -0.968063 -1.53291 0
M  V30 8055 C 769.668 -3.48987 0.907771 0
M  V30 8056 O 768.772 -4.12399 -0.0104053 0
M  V30 8057 H 768.113 -0.61871 0.241027 0
M  V30 8058 H 770.643 -1.58901 1.28886 0
M  V30 8059 H 770.653 -3.99334 0.836453 0
M  V30 8060 H 769.328 -3.6765 1.94439 0
M  V30 8061 H 767.905 -3.72727 0.113631 0
M  V30 8062 N 770.09 -0.729906 -1.39679 0
M  V30 8063 C 771.04 -0.0627678 -2.27914 0
M  V30 8064 C 772.024 0.717867 -1.43998 0
M  V30 8065 O 773.216 0.587713 -1.66958 0
M  V30 8066 C 770.345 0.847564 -3.32673 0
M  V30 8067 C 769.431 0.0613515 -4.24056 0
M  V30 8068 N 769.822 -0.962863 -4.96551 0
M  V30 8069 C 768.12 0.291773 -4.45045 0
M  V30 8070 C 768.821 -1.43652 -5.63683 0
M  V30 8071 N 767.797 -0.756044 -5.38317 0
M  V30 8072 H 771.599 -0.847545 -2.81414 0
M  V30 8073 H 769.113 -0.563776 -1.523 0
M  V30 8074 H 771.11 1.34094 -3.94746 0
M  V30 8075 H 769.77 1.63156 -2.80732 0
M  V30 8076 H 770.781 -1.34409 -5.00154 0
M  V30 8077 H 767.458 1.05097 -4.04056 0
M  V30 8078 H 768.848 -2.28835 -6.31731 0
M  V30 8079 N 771.568 1.50203 -0.477153 0
M  V30 8080 C 772.515 2.28656 0.31386 0
M  V30 8081 C 773.485 1.33977 0.981802 0
M  V30 8082 O 774.67 1.62919 0.993072 0
M  V30 8083 C 771.81 3.16027 1.38639 0
M  V30 8084 C 770.923 4.25743 0.732615 0
M  V30 8085 C 770.058 5.00363 1.78355 0
M  V30 8086 C 769.097 6.01945 1.11035 0
M  V30 8087 N 768.234 6.6982 2.10441 0
M  V30 8088 H 773.074 2.958 -0.361445 0
M  V30 8089 H 770.611 1.45867 -0.190093 0
M  V30 8090 H 772.569 3.6504 2.01994 0
M  V30 8091 H 771.199 2.50917 2.03077 0
M  V30 8092 H 770.251 3.80398 -0.0136546 0
M  V30 8093 H 771.563 4.98393 0.201513 0
M  V30 8094 H 770.717 5.53124 2.49276 0
M  V30 8095 H 769.456 4.27432 2.34847 0
M  V30 8096 H 768.461 5.48438 0.386797 0
M  V30 8097 H 769.686 6.76851 0.552248 0
M  V30 8098 H 767.632 5.99677 2.65939 0
M  V30 8099 H 767.549 7.38366 1.62332 0
M  V30 8100 H 768.817 7.27196 2.80724 0
M  V30 8101 N 773.046 0.209999 1.56195 0
M  V30 8102 C 774.457 -0.299943 1.84275 0
M  V30 8103 C 774.808 -1.60314 1.1311 0
M  V30 8104 O 773.933 -2.1273 0.396874 0
M  V30 8105 C 774.528 -0.550986 3.3429 0
M  V30 8106 C 773.087 -1.00526 3.62728 0
M  V30 8107 C 772.234 -0.0619828 2.77231 0
M  V30 8108 H 775.185 0.433458 1.52666 0
M  V30 8109 H 775.206 -1.39846 3.53869 0
M  V30 8110 H 774.718 0.397669 3.86057 0
M  V30 8111 H 772.819 -1.96768 3.16407 0
M  V30 8112 H 772.932 -0.887664 4.70805 0
M  V30 8113 H 771.296 -0.566648 2.48317 0
M  V30 8114 H 772.079 0.881383 3.31793 0
M  V30 8115 N 774.524 -1.57472 -0.0634922 0
M  V30 8116 C 775.94 -1.54016 -0.418466 0
M  V30 8117 C 776.14 -0.931376 -1.78683 0
M  V30 8118 O 775.196 -0.537465 -2.46714 0
M  V30 8119 C 776.509 -2.98634 -0.351906 0
M  V30 8120 C 778.057 -3.10012 -0.431494 0
M  V30 8121 C 778.532 -4.56296 -0.394754 0
M  V30 8122 N 780.023 -4.60964 -0.454583 0
M  V30 8123 C 780.758 -5.71643 -0.448501 0
M  V30 8124 N 780.254 -6.91663 -0.396742 0
M  V30 8125 N 782.047 -5.5991 -0.495677 0
M  V30 8126 H 774.198 -1.95409 0.832408 0
M  V30 8127 H 776.461 -0.894769 0.313197 0
M  V30 8128 H 776.167 -3.46766 0.587048 0
M  V30 8129 H 776.041 -3.58955 -1.15893 0
M  V30 8130 H 778.428 -2.61848 -1.36087 0
M  V30 8131 H 778.509 -2.52585 0.404258 0
M  V30 8132 H 778.153 -5.05119 0.530811 0
M  V30 8133 H 778.083 -5.11594 -1.24815 0
M  V30 8134 H 780.574 -3.74598 -0.498496 0
M  V30 8135 H 780.887 -7.71783 -0.396256 0
M  V30 8136 H 779.232 -6.9405 -0.363304 0
M  V30 8137 H 782.423 -4.65046 -0.533864 0
M  V30 8138 H 782.596 -6.46164 -0.487469 0
M  V30 8139 N 776.003 0.335068 -1.53997 0
M  V30 8140 C 776.933 1.41727 -1.85568 0
M  V30 8141 C 777.914 1.54505 -0.7115 0
M  V30 8142 O 779.099 1.68573 -0.964191 0
M  V30 8143 C 776.229 2.7866 -2.07282 0
M  V30 8144 C 775.183 2.80682 -3.23112 0
M  V30 8145 C 774.509 4.20581 -3.30175 0
M  V30 8146 C 775.809 2.45458 -4.61029 0
M  V30 8147 H 777.503 1.15555 -2.76202 0
M  V30 8148 H 775.049 0.554445 -1.32898 0
M  V30 8149 H 777.002 3.54423 -2.27952 0
M  V30 8150 H 775.726 3.06286 -1.13387 0
M  V30 8151 H 774.385 2.07373 -3.02311 0
M  V30 8152 H 774.033 4.4533 -2.33859 0
M  V30 8153 H 773.733 4.22843 -4.08016 0
M  V30 8154 H 775.257 4.98174 -3.53066 0
M  V30 8155 H 776.671 3.10934 -4.81656 0
M  V30 8156 H 775.068 2.5899 -5.41336 0
M  V30 8157 H 776.138 1.40628 -4.6406 0
M  V30 8158 N 777.481 1.45874 0.596531 0
M  V30 8159 C 778.411 1.5824 1.71705 0
M  V30 8160 C 779.392 0.433366 1.64487 0
M  V30 8161 O 780.577 0.657895 1.82717 0
M  V30 8162 C 777.707 1.55927 3.10329 0
M  V30 8163 C 776.661 2.69659 3.32367 0
M  V30 8164 C 775.987 2.52403 4.71377 0
M  V30 8165 C 777.287 4.11591 3.21544 0
M  V30 8166 H 778.981 2.52035 1.61613 0
M  V30 8167 H 776.527 1.21297 0.776082 0
M  V30 8168 H 778.48 1.63173 3.88526 0
M  V30 8169 H 777.204 0.586674 3.21288 0
M  V30 8170 H 775.863 2.61859 2.56564 0
M  V30 8171 H 775.511 1.53258 4.79083 0
M  V30 8172 H 775.211 3.28679 4.87077 0
M  V30 8173 H 776.735 2.6152 5.5176 0
M  V30 8174 H 778.149 4.20576 3.89601 0
M  V30 8175 H 776.546 4.88344 3.4877 0
M  V30 8176 H 777.616 4.32719 2.1882 0
M  V30 8177 N 778.959 -0.83999 1.33349 0
M  V30 8178 C 780.189 -1.62492 1.27593 0
M  V30 8179 C 780.597 -1.88559 -0.155597 0
M  V30 8180 O 779.94 -1.46537 -1.10782 0
M  V30 8181 C 780.002 -2.99984 1.98116 0
M  V30 8182 C 779.666 -2.96892 3.47425 0
M  V30 8183 C 780.663 -2.72688 4.42648 0
M  V30 8184 C 778.348 -3.17063 3.89585 0
M  V30 8185 C 780.342 -2.68681 5.78004 0
M  V30 8186 C 778.029 -3.12682 5.25046 0
M  V30 8187 C 779.027 -2.88522 6.19067 0
M  V30 8188 O 778.715 -2.84042 7.52047 0
M  V30 8189 H 778.447 -0.512358 0.440982 0
M  V30 8190 H 781.001 -1.0545 1.76265 0
M  V30 8191 H 779.231 -3.58875 1.44034 0
M  V30 8192 H 780.92 -3.6084 1.85875 0
M  V30 8193 H 781.686 -2.56856 4.114 0
M  V30 8194 H 777.565 -3.34889 3.16813 0
M  V30 8195 H 781.109 -2.49743 6.51363 0
M  V30 8196 H 777.006 -3.28063 5.55918 0
M  V30 8197 H 777.774 -2.99892 7.61582 0
M  V30 8198 N 780.437 -1.16799 -1.0581 0
M  V30 8199 C 781.714 -0.862616 -1.75551 0
M  V30 8200 C 782.094 0.6385 -2.01212 0
M  V30 8201 O 781.442 1.58784 -1.64317 0
M  V30 8202 C 781.652 -1.6907 -3.05314 0
M  V30 8203 C 783 -1.90675 -3.79379 0
M  V30 8204 O 784.024 -1.65976 -3.15167 0
M  V30 8205 O 782.883 -2.32145 -4.94743 0
M  V30 8206 H 779.977 -0.318789 -0.763088 0
M  V30 8207 H 782.523 -1.27461 -1.12034 0
M  V30 8208 H 781.295 -2.70912 -2.82352 0
M  V30 8209 H 780.918 -1.27606 -3.76567 0
M  V30 8210 N 781.915 1.24427 -0.967243 0
M  V30 8211 C 783.145 1.96256 -0.64554 0
M  V30 8212 C 783.553 1.71959 0.789098 0
M  V30 8213 O 782.896 0.999913 1.54102 0
M  V30 8214 C 782.958 3.49553 -0.839798 0
M  V30 8215 C 782.622 3.97548 -2.25399 0
M  V30 8216 C 783.619 4.07257 -3.23168 0
M  V30 8217 C 781.304 4.30884 -2.58156 0
M  V30 8218 C 783.298 4.49635 -4.51782 0
M  V30 8219 C 780.985 4.72946 -3.86996 0
M  V30 8220 C 781.983 4.82286 -4.83621 0
M  V30 8221 O 781.671 5.23409 -6.10162 0
M  V30 8222 H 781.403 0.632002 -0.239895 0
M  V30 8223 H 783.957 1.59224 -1.29757 0
M  V30 8224 H 782.187 3.86479 -0.130603 0
M  V30 8225 H 783.876 4.02591 -0.517249 0
M  V30 8226 H 784.642 3.8172 -2.9919 0
M  V30 8227 H 780.521 4.22833 -1.83666 0
M  V30 8228 H 784.065 4.5684 -5.27203 0
M  V30 8229 H 779.962 4.9793 -4.10775 0
M  V30 8230 H 780.73 5.4156 -6.13722 0
M  V30 8231 N 783.393 0.737304 1.3929 0
M  V30 8232 C 784.64 0.286257 2.00467 0
M  V30 8233 C 784.968 -1.1272 1.58507 0
M  V30 8234 O 784.223 -1.7832 0.806257 0
M  V30 8235 C 784.522 0.338438 3.55794 0
M  V30 8236 C 784.188 1.70524 4.17411 0
M  V30 8237 C 782.85 2.07934 4.33955 0
M  V30 8238 C 785.202 2.60256 4.51571 0
M  V30 8239 C 782.53 3.34578 4.81948 0
M  V30 8240 C 784.882 3.86275 5.00974 0
M  V30 8241 C 783.546 4.23774 5.15725 0
M  V30 8242 H 782.816 0.104749 0.733559 0
M  V30 8243 H 785.463 0.944598 1.66582 0
M  V30 8244 H 783.768 -0.403478 3.89717 0
M  V30 8245 H 785.465 -0.0287255 4.0099 0
M  V30 8246 H 782.055 1.40439 4.04938 0
M  V30 8247 H 786.239 2.32624 4.38406 0
M  V30 8248 H 781.495 3.63572 4.91554 0
M  V30 8249 H 785.669 4.5596 5.26378 0
M  V30 8250 H 783.296 5.21972 5.52674 0
M  V30 8251 N 784.871 -1.49948 0.485112 0
M  V30 8252 C 785.818 -2.28819 -0.301729 0
M  V30 8253 C 786.788 -1.34496 -0.974683 0
M  V30 8254 O 787.973 -1.63444 -0.984418 0
M  V30 8255 C 785.113 -3.16758 -1.36961 0
M  V30 8256 C 784.226 -4.26125 -0.710027 0
M  V30 8257 C 783.361 -5.01302 -1.75699 0
M  V30 8258 C 782.4 -6.02525 -1.07841 0
M  V30 8259 N 781.537 -6.70927 -2.06886 0
M  V30 8260 H 786.377 -2.95604 0.377127 0
M  V30 8261 H 783.914 -1.45764 0.197826 0
M  V30 8262 H 785.872 -3.66106 -2.00056 0
M  V30 8263 H 784.502 -2.51991 -2.01744 0
M  V30 8264 H 783.554 -3.80385 0.0338278 0
M  V30 8265 H 784.866 -4.98493 -0.175079 0
M  V30 8266 H 784.02 -5.54438 -2.46339 0
M  V30 8267 H 782.759 -4.28672 -2.32577 0
M  V30 8268 H 781.764 -5.48635 -0.357706 0
M  V30 8269 H 782.989 -6.77134 -0.516345 0
M  V30 8270 H 780.935 -6.01079 -2.62755 0
M  V30 8271 H 780.852 -7.39216 -1.58414 0
M  V30 8272 H 782.12 -7.28675 -2.76863 0
M  V30 8273 N 786.349 -0.21828 -1.56081 0
M  V30 8274 C 787.281 0.725447 -2.17416 0
M  V30 8275 C 788.294 1.15995 -1.14233 0
M  V30 8276 O 789.483 1.09166 -1.41227 0
M  V30 8277 C 786.583 1.99401 -2.7403 0
M  V30 8278 C 785.756 1.7156 -4.02351 0
M  V30 8279 C 784.815 2.8309 -4.43561 0
M  V30 8280 O 783.841 2.51701 -5.10525 0
M  V30 8281 N 785.043 4.11972 -4.08973 0
M  V30 8282 H 787.808 0.200801 -2.99027 0
M  V30 8283 H 785.369 -0.0371514 -1.61857 0
M  V30 8284 H 787.361 2.73198 -2.98571 0
M  V30 8285 H 785.931 2.42923 -1.96742 0
M  V30 8286 H 785.151 0.814233 -3.85699 0
M  V30 8287 H 786.439 1.50385 -4.86068 0
M  V30 8288 H 785.837 4.40319 -3.55156 0
M  V30 8289 H 784.394 4.82323 -4.38415 0
M  V30 8290 N 787.827 1.57504 0.0551401 0
M  V30 8291 C 789.243 1.54236 0.410292 0
M  V30 8292 C 789.443 0.940839 1.78187 0
M  V30 8293 O 788.499 0.550541 2.46425 0
M  V30 8294 C 789.812 2.98816 0.336064 0
M  V30 8295 C 791.36 3.10236 0.415047 0
M  V30 8296 C 791.835 4.56499 0.37055 0
M  V30 8297 N 793.326 4.61199 0.43013 0
M  V30 8298 C 794.061 5.71873 0.418179 0
M  V30 8299 N 793.557 6.91864 0.360056 0
M  V30 8300 N 795.35 5.60165 0.465977 0
M  V30 8301 H 787.501 1.94965 -0.842759 0
M  V30 8302 H 789.764 0.893096 -0.317937 0
M  V30 8303 H 789.47 3.4645 -0.605429 0
M  V30 8304 H 789.344 3.59564 1.13988 0
M  V30 8305 H 791.731 2.62566 1.34697 0
M  V30 8306 H 791.812 2.52367 -0.417648 0
M  V30 8307 H 791.456 5.0483 -0.557592 0
M  V30 8308 H 791.386 5.12249 1.221 0
M  V30 8309 H 793.877 3.74857 0.478623 0
M  V30 8310 H 794.19 7.71983 0.35532 0
M  V30 8311 H 792.535 6.94233 0.326492 0
M  V30 8312 H 795.726 4.65322 0.509194 0
M  V30 8313 H 795.899 6.46413 0.453194 0
M  V30 8314 N 789.305 -0.326896 1.54172 0
M  V30 8315 C 790.552 -1.06523 1.72218 0
M  V30 8316 C 790.88 -1.88119 0.494114 0
M  V30 8317 O 790.135 -1.8855 -0.524147 0
M  V30 8318 C 790.434 -2.0208 2.94785 0
M  V30 8319 C 790.1 -1.36665 4.2969 0
M  V30 8320 C 788.762 -1.18556 4.66367 0
M  V30 8321 C 791.114 -0.896868 5.13425 0
M  V30 8322 C 788.442 -0.521113 5.84381 0
M  V30 8323 C 790.794 -0.246261 6.3212 0
M  V30 8324 C 789.458 -0.052987 6.67479 0
M  V30 8325 H 788.728 -0.389796 0.63019 0
M  V30 8326 H 791.375 -0.342725 1.88408 0
M  V30 8327 H 789.68 -2.8077 2.73268 0
M  V30 8328 H 791.377 -2.59231 3.05941 0
M  V30 8329 H 787.967 -1.51762 4.00832 0
M  V30 8330 H 792.151 -1.02458 4.85609 0
M  V30 8331 H 787.407 -0.36014 6.10338 0
M  V30 8332 H 791.581 0.125775 6.96286 0
M  V30 8333 H 789.208 0.463903 7.58783 0
M  V30 8334 N 790.784 -1.46188 -0.588786 0
M  V30 8335 C 791.747 -1.55882 -1.68029 0
M  V30 8336 C 792.747 -0.436515 -1.54762 0
M  V30 8337 O 793.937 -0.700626 -1.59489 0
M  V30 8338 C 791.069 -1.47332 -3.07418 0
M  V30 8339 H 792.262 -2.5315 -1.60795 0
M  V30 8340 H 789.815 -1.33908 -0.806116 0
M  V30 8341 H 790.55 -0.513193 -3.20214 0
M  V30 8342 H 790.335 -2.28753 -3.18456 0
M  V30 8343 H 791.825 -1.57187 -3.86887 0
M  V30 8344 N 792.262 0.832906 -1.33792 0
M  V30 8345 C 793.194 1.95042 -1.2038 0
M  V30 8346 C 794.207 1.62253 -0.133299 0
M  V30 8347 O 795.396 1.74315 -0.384261 0
M  V30 8348 C 792.496 3.287 -0.825215 0
M  V30 8349 C 791.669 3.89581 -1.98861 0
M  V30 8350 C 790.728 5.01602 -1.59003 0
M  V30 8351 O 789.754 5.20431 -2.30522 0
M  V30 8352 N 790.956 5.78356 -0.498446 0
M  V30 8353 H 793.721 2.07083 -2.16649 0
M  V30 8354 H 791.282 1.00896 -1.26616 0
M  V30 8355 H 793.274 4.01074 -0.540559 0
M  V30 8356 H 791.844 3.12565 0.0469796 0
M  V30 8357 H 791.064 3.09723 -2.43856 0
M  V30 8358 H 792.352 4.26989 -2.76691 0
M  V30 8359 H 791.75 5.65618 0.0963297 0
M  V30 8360 H 790.307 6.51226 -0.273485 0
M  V30 8361 N 793.74 1.17359 1.05189 0
M  V30 8362 C 794.986 0.963413 1.78455 0
M  V30 8363 C 795.319 -0.506703 1.87473 0
M  V30 8364 O 794.594 -1.37611 1.37453 0
M  V30 8365 C 794.877 1.60519 3.22344 0
M  V30 8366 C 794.73 3.14741 3.21338 0
M  V30 8367 C 796.049 1.3091 4.20179 0
M  V30 8368 H 793.168 0.351412 0.647826 0
M  V30 8369 H 795.81 1.44858 1.22948 0
M  V30 8370 H 793.96 1.19265 3.69741 0
M  V30 8371 H 795.632 3.65053 2.82017 0
M  V30 8372 H 793.875 3.4749 2.59679 0
M  V30 8373 H 794.546 3.54775 4.22894 0
M  V30 8374 H 797.022 1.66635 3.81277 0
M  V30 8375 H 795.898 1.784 5.191 0
M  V30 8376 H 796.159 0.229908 4.41502 0
M  V30 8377 N 795.218 -1.23913 0.973828 0
M  V30 8378 C 796.446 -1.96195 0.656891 0
M  V30 8379 C 796.861 -1.72166 -0.774876 0
M  V30 8380 O 796.218 -1.0091 -1.52064 0
M  V30 8381 C 796.269 -3.49342 0.929638 0
M  V30 8382 O 795.99 -3.72553 2.30512 0
M  V30 8383 C 797.491 -4.38833 0.627739 0
M  V30 8384 H 794.711 -0.624841 0.244572 0
M  V30 8385 H 797.255 -1.57579 1.30343 0
M  V30 8386 H 795.41 -3.85999 0.329216 0
M  V30 8387 H 795.824 -4.66893 2.3898 0
M  V30 8388 H 797.298 -5.45117 0.868991 0
M  V30 8389 H 797.775 -4.37009 -0.438104 0
M  V30 8390 H 798.381 -4.07773 1.20834 0
M  V30 8391 N 796.696 -0.74468 -1.38897 0
M  V30 8392 C 797.644 -0.100312 -2.32384 0
M  V30 8393 C 798.638 0.715191 -1.53562 0
M  V30 8394 O 799.844 0.615288 -1.69157 0
M  V30 8395 H 796.219 -0.0136403 -0.751876 0
M  V30 8396 H 798.19 -0.905007 -2.84345 0
M  V30 8397 C 796.939 0.785432 -3.38713 0
M  V30 8398 H 796.262 0.167308 -3.9945 0
M  V30 8399 H 797.702 1.20374 -4.06554 0
M  V30 8400 C 796.161 1.92408 -2.76552 0
M  V30 8401 O 796.691 3.01752 -2.65157 0
M  V30 8402 N 794.897 1.71642 -2.34494 0
M  V30 8403 H 794.444 0.827079 -2.43961 0
M  V30 8404 H 794.402 2.48 -1.93244 0
M  V30 8405 N 798.174 1.49689 -0.493057 0
M  V30 8406 C 799.585 1.8665 -0.0433032 0
M  V30 8407 C 799.936 1.40607 1.36836 0
M  V30 8408 O 799.061 0.780503 2.01834 0
M  V30 8409 C 799.656 3.38724 -0.0718069 0
M  V30 8410 C 798.215 3.75015 0.32257 0
M  V30 8411 C 797.362 2.7366 -0.4478 0
M  V30 8412 H 800.313 1.42119 -0.706246 0
M  V30 8413 H 800.334 3.73522 0.725347 0
M  V30 8414 H 799.846 3.72204 -1.09935 0
M  V30 8415 H 797.947 3.47142 1.35364 0
M  V30 8416 H 798.06 4.79099 0.00864259 0
M  V30 8417 H 796.424 2.54498 0.101354 0
M  V30 8418 H 797.207 3.09985 -1.47527 0
M  V30 8419 N 799.652 0.226554 1.55963 0
M  V30 8420 C 801.063 -0.280381 1.84583 0
M  V30 8421 C 801.414 -1.59105 1.14804 0
M  V30 8422 O 800.539 -2.12297 0.419414 0
M  V30 8423 C 801.134 -0.515499 3.34855 0
M  V30 8424 C 799.693 -0.966733 3.63774 0
M  V30 8425 C 798.84 -0.0325753 2.77281 0
M  V30 8426 H 801.791 0.449626 1.52197 0
M  V30 8427 H 801.812 -1.36085 3.55332 0
M  V30 8428 H 801.324 0.438594 3.85614 0
M  V30 8429 H 799.425 -1.93401 3.18476 0
M  V30 8430 H 799.538 -0.837679 4.7172 0
M  V30 8431 H 797.902 -0.540279 2.48904 0
M  V30 8432 H 798.685 0.916524 3.30839 0
M  V30 8433 N 801.13 -1.57531 -0.0467866 0
M  V30 8434 C 802.379 -1.87632 -0.740069 0
M  V30 8435 C 802.692 -0.822691 -1.77457 0
M  V30 8436 O 803.898 -1.01235 -2.5192 0
M  V30 8437 C 802.354 -3.32917 -1.36727 0
M  V30 8438 C 801.962 -4.46469 -0.370035 0
M  V30 8439 C 803.706 -3.72189 -2.04146 0
M  V30 8440 C 801.613 -5.82806 -1.00457 0
M  V30 8441 H 800.543 -0.70002 -0.280158 0
M  V30 8442 H 803.194 -1.83499 0.00607151 0
M  V30 8443 H 801.576 -3.31739 -2.16252 0
M  V30 8444 H 802.75 -4.59085 0.397217 0
M  V30 8445 H 801.065 -4.15914 0.201079 0
M  V30 8446 H 803.662 -4.71357 -2.52441 0
M  V30 8447 H 804.005 -3.03268 -2.85192 0
M  V30 8448 H 804.538 -3.75465 -1.3142 0
M  V30 8449 H 801.277 -6.55083 -0.233907 0
M  V30 8450 H 800.797 -5.73944 -1.74209 0
M  V30 8451 H 802.476 -6.28961 -1.51713 0
M  V30 8452 N 802.608 0.318715 -1.54344 0
M  V30 8453 C 803.885 1.07461 -1.63437 0
M  V30 8454 C 804.265 2.05771 -0.47131 0
M  V30 8455 O 803.613 2.22175 0.53391 0
M  V30 8456 C 803.823 1.77224 -3.00654 0
M  V30 8457 C 805.171 2.30069 -3.56866 0
M  V30 8458 O 806.195 1.87284 -3.0299 0
M  V30 8459 O 805.054 3.08412 -4.51159 0
M  V30 8460 H 802.148 0.495627 -0.66203 0
M  V30 8461 H 804.694 0.318218 -1.6669 0
M  V30 8462 H 803.466 1.05742 -3.76742 0
M  V30 8463 H 803.089 2.59662 -3.01101 0
M  V30 8464 N 804.086 1.46499 0.581025 0
M  V30 8465 C 805.497 1.4604 1.16315 0
M  V30 8466 C 805.848 0.202154 1.95156 0
M  V30 8467 O 804.973 -0.694638 2.04948 0
M  V30 8468 C 805.568 2.64593 2.11604 0
M  V30 8469 C 804.127 2.6717 2.65136 0
M  V30 8470 C 803.274 2.38753 1.4104 0
M  V30 8471 H 806.225 1.54354 0.368871 0
M  V30 8472 H 806.246 2.40207 2.95095 0
M  V30 8473 H 805.758 3.56154 1.54194 0
M  V30 8474 H 803.859 1.79685 3.26411 0
M  V30 8475 H 803.972 3.67182 3.07757 0
M  V30 8476 H 802.336 1.88845 1.70908 0
M  V30 8477 H 803.119 3.32493 0.854588 0
M  V30 8478 N 805.565 -0.825799 1.34232 0
M  V30 8479 C 806.495 -1.95151 1.28212 0
M  V30 8480 C 807.476 -1.69345 0.160123 0
M  V30 8481 O 808.661 -1.90983 0.352019 0
M  V30 8482 C 805.791 -3.31554 1.03388 0
M  V30 8483 C 804.745 -3.71793 2.12023 0
M  V30 8484 C 804.071 -5.06147 1.72392 0
M  V30 8485 C 805.371 -3.84193 3.53826 0
M  V30 8486 H 807.065 -2.00445 2.22401 0
M  V30 8487 H 804.611 -0.962996 1.07063 0
M  V30 8488 H 806.564 -4.09889 0.978225 0
M  V30 8489 H 805.288 -3.26551 0.0564142 0
M  V30 8490 H 803.947 -2.95731 2.16654 0
M  V30 8491 H 803.595 -4.97628 0.733137 0
M  V30 8492 H 803.295 -5.34041 2.451 0
M  V30 8493 H 804.819 -5.86943 1.68317 0
M  V30 8494 H 806.233 -4.52806 3.51624 0
M  V30 8495 H 804.63 -4.23538 4.2513 0
M  V30 8496 H 805.7 -2.86272 3.91377 0
M  V30 8497 N 807.043 -1.17915 -1.04565 0
M  V30 8498 C 808.459 -0.927761 -1.29864 0
M  V30 8499 C 808.659 0.409536 -1.97294 0
M  V30 8500 O 807.715 1.14505 -2.25044 0
M  V30 8501 C 809.028 -2.08967 -2.16225 0
M  V30 8502 C 810.576 -2.12741 -2.29587 0
M  V30 8503 C 811.051 -3.28335 -3.19312 0
M  V30 8504 N 812.542 -3.28164 -3.26898 0
M  V30 8505 C 813.277 -4.14249 -3.96466 0
M  V30 8506 N 812.773 -5.10457 -4.68407 0
M  V30 8507 N 814.566 -4.02179 -3.92694 0
M  V30 8508 H 806.717 -2.03983 -0.592011 0
M  V30 8509 H 808.98 -0.891023 -0.323701 0
M  V30 8510 H 808.686 -3.05654 -1.73979 0
M  V30 8511 H 808.56 -2.04606 -3.16885 0
M  V30 8512 H 810.947 -1.16636 -2.71072 0
M  V30 8513 H 811.028 -2.21162 -1.28535 0
M  V30 8514 H 810.672 -4.2471 -2.78539 0
M  V30 8515 H 810.602 -3.17151 -4.20384 0
M  V30 8516 H 813.093 -2.58511 -2.75646 0
M  V30 8517 H 813.406 -5.72526 -5.1907 0
M  V30 8518 H 811.751 -5.14422 -4.67328 0
M  V30 8519 H 814.942 -3.26308 -3.3562 0
M  V30 8520 H 815.115 -4.69486 -4.4664 0
M  V30 8521 N 808.521 1.23394 -0.980386 0
M  V30 8522 C 809.431 2.28561 -0.528864 0
M  V30 8523 C 810.447 1.68946 0.416329 0
M  V30 8524 O 811.623 1.99355 0.286251 0
M  V30 8525 C 808.688 3.46323 0.16155 0
M  V30 8526 C 807.749 4.21297 -0.825044 0
M  V30 8527 C 806.982 5.33437 -0.167483 0
M  V30 8528 O 807.205 5.60812 1.04146 0
M  V30 8529 O 806.139 5.95637 -0.866047 0
M  V30 8530 H 809.965 2.69326 -1.40346 0
M  V30 8531 H 807.55 1.29325 -0.748019 0
M  V30 8532 H 809.432 4.17811 0.548841 0
M  V30 8533 H 808.107 3.0751 1.01092 0
M  V30 8534 H 807.014 3.52134 -1.26303 0
M  V30 8535 H 808.347 4.6396 -1.64322 0
M  V30 8536 N 809.999 0.752036 1.385 0
M  V30 8537 C 810.947 0.112634 2.32327 0
M  V30 8538 C 811.941 -0.707037 1.53939 0
M  V30 8539 O 813.147 -0.606309 1.69481 0
M  V30 8540 H 809.522 0.0176275 0.751793 0
M  V30 8541 H 811.493 0.920074 2.83861 0
M  V30 8542 C 810.242 -0.767458 3.39124 0
M  V30 8543 H 809.565 -0.146122 3.99533 0
M  V30 8544 H 811.005 -1.18216 4.07187 0
M  V30 8545 C 809.464 -1.90938 2.77568 0
M  V30 8546 O 809.994 -3.00342 2.66754 0
M  V30 8547 N 808.2 -1.70396 2.35401 0
M  V30 8548 H 807.747 -0.81413 2.44397 0
M  V30 8549 H 807.705 -2.46972 1.94557 0
M  V30 8550 N 811.477 -1.49425 0.500989 0
M  V30 8551 C 812.407 -2.31971 -0.266775 0
M  V30 8552 C 813.388 -1.40245 -0.962563 0
M  V30 8553 O 814.573 -1.69154 -0.953968 0
M  V30 8554 C 811.703 -3.20757 -1.33163 0
M  V30 8555 C 810.657 -4.21275 -0.75572 0
M  V30 8556 C 809.983 -4.98997 -1.92109 0
M  V30 8557 C 811.283 -5.21686 0.253213 0
M  V30 8558 H 812.977 -2.96408 0.422237 0
M  V30 8559 H 810.523 -1.4254 0.204505 0
M  V30 8560 H 812.476 -3.77315 -1.87646 0
M  V30 8561 H 811.2 -2.54263 -2.04983 0
M  V30 8562 H 809.859 -3.65861 -0.232637 0
M  V30 8563 H 809.507 -4.28951 -2.62698 0
M  V30 8564 H 809.207 -5.67011 -1.54182 0
M  V30 8565 H 810.731 -5.584 -2.47026 0
M  V30 8566 H 812.145 -5.72939 -0.203483 0
M  V30 8567 H 810.542 -5.9759 0.548322 0
M  V30 8568 H 811.612 -4.70596 1.16909 0
M  V30 8569 N 812.955 -0.234822 -1.55841 0
M  V30 8570 C 814.201 0.393843 -1.98939 0
M  V30 8571 C 814.534 1.58466 -1.1226 0
M  V30 8572 O 813.809 1.93635 -0.183242 0
M  V30 8573 C 814.092 0.815492 -3.50745 0
M  V30 8574 C 813.945 -0.379878 -4.48193 0
M  V30 8575 C 815.264 1.66687 -4.07312 0
M  V30 8576 H 812.383 0.141681 -0.723253 0
M  V30 8577 H 815.025 -0.333716 -1.87046 0
M  V30 8578 H 813.175 1.43541 -3.6101 0
M  V30 8579 H 814.847 -1.0182 -4.49923 0
M  V30 8580 H 813.09 -1.02507 -4.21515 0
M  V30 8581 H 813.761 -0.0417069 -5.51984 0
M  V30 8582 H 816.237 1.14369 -4.00074 0
M  V30 8583 H 815.113 1.93078 -5.13821 0
M  V30 8584 H 815.374 2.63468 -3.55017 0
M  V30 8585 N 814.433 1.57553 0.0384317 0
M  V30 8586 C 815.366 2.01307 1.07475 0
M  V30 8587 C 816.344 0.895717 1.35704 0
M  V30 8588 O 817.528 1.16079 1.48519 0
M  V30 8589 C 814.655 2.37817 2.41165 0
M  V30 8590 C 813.701 3.599 2.28855 0
M  V30 8591 S 814.534 5.09418 1.65086 0
M  V30 8592 C 815.69 5.49162 3.00286 0
M  V30 8593 H 815.923 2.88892 0.702034 0
M  V30 8594 H 813.456 1.52394 0.248103 0
M  V30 8595 H 815.414 2.59524 3.18053 0
M  V30 8596 H 814.075 1.507 2.75587 0
M  V30 8597 H 813.268 3.83071 3.27525 0
M  V30 8598 H 812.87 3.37996 1.60109 0
M  V30 8599 H 815.162 5.49274 3.96617 0
M  V30 8600 H 816.105 6.49586 2.81858 0
M  V30 8601 H 816.513 4.76653 3.02427 0
M  V30 8602 N 815.911 -0.310526 1.54511 0
M  V30 8603 C 817.136 -1.07046 1.7764 0
M  V30 8604 C 817.561 -1.80488 0.529696 0
M  V30 8605 O 816.919 -1.73702 -0.519361 0
M  V30 8606 C 816.967 -2.03411 2.97752 0
M  V30 8607 O 816.071 -3.11545 2.7021 0
M  V30 8608 H 815.412 -0.307994 0.588248 0
M  V30 8609 H 817.942 -0.350848 2.01569 0
M  V30 8610 H 817.952 -2.46048 3.2546 0
M  V30 8611 H 816.627 -1.49361 3.88155 0
M  V30 8612 H 815.204 -2.7349 2.53491 0
M  V30 8613 N 817.389 -1.46805 -0.573248 0
M  V30 8614 C 818.319 -1.60951 -1.69165 0
M  V30 8615 C 819.3 -0.45948 -1.63777 0
M  V30 8616 O 820.485 -0.68688 -1.81647 0
M  V30 8617 C 817.615 -1.60844 -3.07809 0
M  V30 8618 C 816.569 -2.74913 -3.28035 0
M  V30 8619 C 815.895 -2.59871 -4.67302 0
M  V30 8620 C 817.195 -4.16654 -3.14955 0
M  V30 8621 H 818.889 -2.54574 -1.57582 0
M  V30 8622 H 816.435 -1.22516 -0.756686 0
M  V30 8623 H 818.388 -1.69334 -3.85881 0
M  V30 8624 H 817.112 -0.637714 -3.20314 0
M  V30 8625 H 815.771 -2.65908 -2.52366 0
M  V30 8626 H 815.419 -1.60861 -4.76585 0
M  V30 8627 H 815.119 -3.36386 -4.81786 0
M  V30 8628 H 816.643 -2.70265 -5.4753 0
M  V30 8629 H 818.057 -4.26721 -3.82861 0
M  V30 8630 H 816.454 -4.93831 -3.40956 0
M  V30 8631 H 817.524 -4.36146 -2.11908 0
M  V30 8632 N 818.867 0.818669 -1.34668 0
M  V30 8633 C 819.83 1.9114 -1.26483 0
M  V30 8634 C 820.83 1.598 -0.179044 0
M  V30 8635 O 822.02 1.6876 -0.431952 0
M  V30 8636 C 819.152 3.27285 -0.95381 0
M  V30 8637 H 820.345 1.9982 -2.23634 0
M  V30 8638 H 817.898 1.01314 -1.19018 0
M  V30 8639 H 818.633 3.24297 0.0143428 0
M  V30 8640 H 818.418 3.51416 -1.73924 0
M  V30 8641 H 819.908 4.07299 -0.921827 0
M  V30 8642 N 820.346 1.18468 1.03938 0
M  V30 8643 C 821.279 0.856251 2.11527 0
M  V30 8644 C 822.257 -0.182323 1.61575 0
M  V30 8645 O 823.441 -0.061 1.88401 0
M  V30 8646 C 820.568 0.279562 3.37544 0
M  V30 8647 C 819.614 1.29552 4.06348 0
M  V30 8648 S 820.447 2.85191 4.5324 0
M  V30 8649 C 821.603 2.29037 5.82489 0
M  V30 8650 H 821.836 1.76742 2.39059 0
M  V30 8651 H 819.369 1.01068 1.16725 0
M  V30 8652 H 821.327 -0.0466579 4.10473 0
M  V30 8653 H 819.988 -0.60975 3.08125 0
M  V30 8654 H 819.181 0.840922 4.96935 0
M  V30 8655 H 818.783 1.56804 3.39541 0
M  V30 8656 H 821.075 1.67376 6.565 0
M  V30 8657 H 822.018 3.17929 6.32714 0
M  V30 8658 H 822.426 1.72009 5.37655 0
M  V30 8659 N 821.824 -1.22873 0.986916 0
M  V30 8660 C 823.071 -1.91462 0.659424 0
M  V30 8661 C 823.399 -1.76931 -0.807825 0
M  V30 8662 O 822.654 -1.12829 -1.59901 0
M  V30 8663 C 822.953 -3.43014 1.00379 0
M  V30 8664 C 822.619 -3.77731 2.46232 0
M  V30 8665 C 821.281 -3.86918 2.86091 0
M  V30 8666 C 823.633 -3.94343 3.40798 0
M  V30 8667 C 820.961 -4.10149 4.19518 0
M  V30 8668 C 823.313 -4.19076 4.73875 0
M  V30 8669 C 821.977 -4.26486 5.13484 0
M  V30 8670 H 821.247 -0.700611 0.2413 0
M  V30 8671 H 823.894 -1.45763 1.24199 0
M  V30 8672 H 822.199 -3.90329 0.339226 0
M  V30 8673 H 823.896 -3.94327 0.728518 0
M  V30 8674 H 820.486 -3.71159 2.14334 0
M  V30 8675 H 824.67 -3.86629 3.11178 0
M  V30 8676 H 819.926 -4.1411 4.49803 0
M  V30 8677 H 824.1 -4.30873 5.47102 0
M  V30 8678 H 821.727 -4.4424 6.16891 0
M  V30 8679 N 823.302 -0.75937 -1.38099 0
M  V30 8680 C 824.232 -0.151077 -2.33011 0
M  V30 8681 C 825.213 0.697099 -1.5516 0
M  V30 8682 O 826.398 0.637101 -1.83452 0
M  V30 8683 C 823.528 0.738423 -3.39359 0
M  V30 8684 C 822.482 -0.0074741 -4.27999 0
M  V30 8685 C 821.808 1.00066 -5.25253 0
M  V30 8686 C 823.108 -1.17926 -5.08813 0
M  V30 8687 H 824.802 -0.943933 -2.84131 0
M  V30 8688 H 822.348 -0.455362 -1.36611 0
M  V30 8689 H 824.301 1.17369 -4.04725 0
M  V30 8690 H 823.025 1.56366 -2.86735 0
M  V30 8691 H 821.684 -0.423379 -3.64147 0
M  V30 8692 H 821.332 1.82012 -4.68914 0
M  V30 8693 H 821.032 0.506199 -5.85416 0
M  V30 8694 H 822.556 1.43512 -5.93495 0
M  V30 8695 H 823.97 -0.821262 -5.67387 0
M  V30 8696 H 822.367 -1.60497 -5.78239 0
M  V30 8697 H 823.437 -1.98938 -4.42212 0
M  V30 8698 N 824.78 1.49157 -0.508906 0
M  V30 8699 C 826.028 2.02073 0.0327335 0
M  V30 8700 C 826.349 1.39012 1.3675 0
M  V30 8701 O 825.619 0.548153 1.88075 0
M  V30 8702 H 824.199 0.746848 0.0150864 0
M  V30 8703 H 826.861 1.83097 -0.667946 0
M  V30 8704 H 825.957 3.11707 0.1566 0
M  V30 8705 N 826.258 0.243083 1.55714 0
M  V30 8706 C 827.205 -0.658078 2.21219 0
M  V30 8707 C 828.175 -1.1742 1.17481 0
M  V30 8708 O 829.36 -1.22937 1.45915 0
M  V30 8709 C 826.5 -1.85104 2.91257 0
M  V30 8710 C 825.613 -1.3718 4.09641 0
M  V30 8711 C 824.748 -2.52403 4.67404 0
M  V30 8712 C 823.787 -2.01321 5.78045 0
M  V30 8713 N 822.924 -3.09896 6.30007 0
M  V30 8714 H 827.764 -0.0927854 2.97856 0
M  V30 8715 H 825.301 -0.0340375 1.47061 0
M  V30 8716 H 827.259 -2.55179 3.3006 0
M  V30 8717 H 825.889 -2.38887 2.17101 0
M  V30 8718 H 824.941 -0.565232 3.76177 0
M  V30 8719 H 826.253 -0.957409 4.89525 0
M  V30 8720 H 825.407 -3.30525 5.08761 0
M  V30 8721 H 824.146 -2.97142 3.86728 0
M  V30 8722 H 823.151 -1.21667 5.36169 0
M  V30 8723 H 824.376 -1.57556 6.6057 0
M  V30 8724 H 822.322 -3.54077 5.52237 0
M  V30 8725 H 822.239 -2.72776 7.05074 0
M  V30 8726 H 823.507 -3.8809 6.76023 0
M  V30 8727 N 827.736 -1.57571 -0.0300757 0
M  V30 8728 C 829.152 -1.54869 -0.385703 0
M  V30 8729 C 829.352 -0.969068 -1.76667 0
M  V30 8730 O 828.408 -0.589676 -2.45518 0
M  V30 8731 C 829.721 -2.99313 -0.288482 0
M  V30 8732 C 831.269 -3.10857 -0.365638 0
M  V30 8733 C 831.744 -4.5703 -0.297878 0
M  V30 8734 N 833.235 -4.61825 -0.356703 0
M  V30 8735 C 833.97 -5.72466 -0.327146 0
M  V30 8736 N 833.466 -6.92349 -0.249941 0
M  V30 8737 N 835.259 -5.60836 -0.376801 0
M  V30 8738 H 827.41 -1.936 0.87367 0
M  V30 8739 H 829.673 -0.887924 0.332106 0
M  V30 8740 H 829.379 -3.45443 0.66047 0
M  V30 8741 H 829.253 -3.61332 -1.08253 0
M  V30 8742 H 831.64 -2.64676 -1.30502 0
M  V30 8743 H 831.721 -2.51671 0.457744 0
M  V30 8744 H 831.365 -5.03879 0.637835 0
M  V30 8745 H 831.295 -5.14127 -1.13935 0
M  V30 8746 H 833.786 -3.75571 -0.418926 0
M  V30 8747 H 834.099 -7.7245 -0.23246 0
M  V30 8748 H 832.444 -6.94664 -0.216004 0
M  V30 8749 H 835.635 -4.66073 -0.435101 0
M  V30 8750 H 835.808 -6.47052 -0.350298 0
M  V30 8751 N 829.214 0.302327 -1.54673 0
M  V30 8752 C 830.462 1.03565 -1.73547 0
M  V30 8753 C 830.783 1.87843 -0.523448 0
M  V30 8754 O 830.053 1.90367 0.462295 0
M  V30 8755 H 828.633 0.385358 -0.639928 0
M  V30 8756 H 831.295 0.333632 -1.92023 0
M  V30 8757 H 830.391 1.68952 -2.62415 0
M  V30 8758 N 830.692 1.47107 0.565454 0
M  V30 8759 C 831.64 1.59368 1.69424 0
M  V30 8760 C 832.634 0.461344 1.62997 0
M  V30 8761 O 833.84 0.638849 1.68282 0
M  V30 8762 H 830.215 0.501387 0.560459 0
M  V30 8763 H 832.186 2.54242 1.56217 0
M  V30 8764 C 830.935 1.61739 3.07792 0
M  V30 8765 H 830.258 2.48215 3.13416 0
M  V30 8766 H 831.698 1.7437 3.86486 0
M  V30 8767 C 830.157 0.349156 3.35086 0
M  V30 8768 O 830.687 -0.553287 3.97871 0
M  V30 8769 N 828.893 0.231723 2.89675 0
M  V30 8770 H 828.44 0.967021 2.3876 0
M  V30 8771 H 828.398 -0.615911 3.08308 0
M  V30 8772 N 832.17 -0.811516 1.35101 0
M  V30 8773 C 833.1 -1.9378 1.30275 0
M  V30 8774 C 834.081 -1.69165 0.178075 0
M  V30 8775 O 835.266 -1.90599 0.372256 0
M  V30 8776 C 832.396 -3.30439 1.06899 0
M  V30 8777 C 831.35 -3.69523 2.15955 0
M  V30 8778 C 830.676 -5.0429 1.77751 0
M  V30 8779 C 831.976 -3.80419 3.57881 0
M  V30 8780 H 833.67 -1.98075 2.24514 0
M  V30 8781 H 831.216 -0.951586 1.08078 0
M  V30 8782 H 833.169 -4.08828 1.02164 0
M  V30 8783 H 831.893 -3.26473 0.0910462 0
M  V30 8784 H 830.552 -2.93416 2.19778 0
M  V30 8785 H 830.2 -4.96823 0.785876 0
M  V30 8786 H 829.9 -5.31411 2.5075 0
M  V30 8787 H 831.424 -5.85125 1.74533 0
M  V30 8788 H 832.838 -4.49051 3.56407 0
M  V30 8789 H 831.235 -4.19005 4.29598 0
M  V30 8790 H 832.305 -2.82105 3.94391 0
M  V30 8791 N 833.648 -1.19017 -1.03309 0
M  V30 8792 C 834.578 -0.94772 -2.13402 0
M  V30 8793 C 835.559 0.117383 -1.69694 0
M  V30 8794 O 836.744 -0.0367733 -1.94165 0
M  V30 8795 C 833.874 -0.480977 -3.43953 0
M  V30 8796 C 832.828 -1.48743 -4.01322 0
M  V30 8797 C 832.154 -0.877924 -5.27443 0
M  V30 8798 C 833.454 -2.86642 -4.36616 0
M  V30 8799 H 835.148 -1.86846 -2.33942 0
M  V30 8800 H 832.694 -0.899781 -1.12427 0
M  V30 8801 H 834.647 -0.298677 -4.2034 0
M  V30 8802 H 833.371 0.475348 -3.23122 0
M  V30 8803 H 832.03 -1.65681 -3.27025 0
M  V30 8804 H 831.678 0.0858232 -5.02927 0
M  V30 8805 H 831.378 -1.54996 -5.66789 0
M  V30 8806 H 832.902 -0.706326 -6.06501 0
M  V30 8807 H 834.316 -2.73312 -5.03958 0
M  V30 8808 H 832.713 -3.50599 -4.87032 0
M  V30 8809 H 833.783 -3.39617 -3.46105 0
M  V30 8810 N 835.127 1.22348 -0.993418 0
M  V30 8811 C 836.037 2.27987 -0.553076 0
M  V30 8812 C 837.053 1.69378 0.398386 0
M  V30 8813 O 838.229 1.99648 0.26509 0
M  V30 8814 C 835.294 3.46475 0.124809 0
M  V30 8815 C 834.355 4.20399 -0.869682 0
M  V30 8816 C 833.588 5.33229 -0.224052 0
M  V30 8817 O 833.811 5.61885 0.981915 0
M  V30 8818 O 832.745 5.94685 -0.929174 0
M  V30 8819 H 836.571 2.67822 -1.43195 0
M  V30 8820 H 834.156 1.28525 -0.761694 0
M  V30 8821 H 836.038 4.18369 0.504496 0
M  V30 8822 H 834.713 3.08565 0.978243 0
M  V30 8823 H 833.62 3.50774 -1.30031 0
M  V30 8824 H 834.953 4.62191 -1.69233 0
M  V30 8825 N 836.605 0.766683 1.37694 0
M  V30 8826 C 838.016 0.394761 1.82479 0
M  V30 8827 C 838.367 -1.07842 1.63904 0
M  V30 8828 O 837.492 -1.83479 1.14737 0
M  V30 8829 C 838.087 0.70974 3.31283 0
M  V30 8830 C 836.646 0.390936 3.74364 0
M  V30 8831 C 835.793 0.956192 2.60293 0
M  V30 8832 H 838.744 0.961756 1.26238 0
M  V30 8833 H 838.765 -0.00742144 3.80499 0
M  V30 8834 H 838.277 1.782 3.4477 0
M  V30 8835 H 836.378 -0.674213 3.66449 0
M  V30 8836 H 836.491 0.895645 4.70654 0
M  V30 8837 H 834.855 0.380744 2.51838 0
M  V30 8838 H 835.638 2.03375 2.76575 0
M  V30 8839 N 838.083 -1.48885 0.516809 0
M  V30 8840 C 839.03 -2.29408 -0.253125 0
M  V30 8841 C 840 -1.36533 -0.945935 0
M  V30 8842 O 841.185 -1.65495 -0.949527 0
M  V30 8843 C 838.325 -3.19592 -1.30211 0
M  V30 8844 C 837.438 -4.27535 -0.61948 0
M  V30 8845 C 836.573 -5.04916 -1.65026 0
M  V30 8846 C 835.612 -6.04677 -0.950368 0
M  V30 8847 N 834.749 -6.75164 -1.92608 0
M  V30 8848 H 839.589 -2.94738 0.439744 0
M  V30 8849 H 837.126 -1.45311 0.2287 0
M  V30 8850 H 839.084 -3.70267 -1.92245 0
M  V30 8851 H 837.714 -2.56213 -1.96353 0
M  V30 8852 H 836.766 -3.80228 0.114505 0
M  V30 8853 H 838.078 -4.98752 -0.0693016 0
M  V30 8854 H 837.232 -5.59539 -2.34523 0
M  V30 8855 H 835.971 -4.33508 -2.23432 0
M  V30 8856 H 834.976 -5.4927 -0.241252 0
M  V30 8857 H 836.201 -6.78077 -0.372599 0
M  V30 8858 H 834.147 -6.06517 -2.49946 0
M  V30 8859 H 834.064 -7.4241 -1.42699 0
M  V30 8860 H 835.332 -7.34384 -2.61345 0
M  V30 8861 N 839.561 -0.251338 -1.55583 0
M  V30 8862 C 840.524 0.63305 -2.20284 0
M  V30 8863 C 841.524 1.09941 -1.17344 0
M  V30 8864 O 842.714 1.00341 -1.42399 0
M  V30 8865 C 839.846 1.8706 -2.84993 0
M  V30 8866 H 841.039 0.0684846 -2.99822 0
M  V30 8867 H 838.592 -0.00181653 -1.563 0
M  V30 8868 H 839.327 2.47629 -2.09405 0
M  V30 8869 H 839.112 1.54436 -3.60405 0
M  V30 8870 H 840.602 2.50004 -3.34496 0
M  V30 8871 N 841.039 1.57585 0.0217189 0
M  V30 8872 C 841.949 2.10444 1.03684 0
M  V30 8873 C 842.965 1.04472 1.39146 0
M  V30 8874 O 844.141 1.36249 1.48317 0
M  V30 8875 C 841.206 2.5794 2.31664 0
M  V30 8876 C 840.267 3.78425 2.02714 0
M  V30 8877 C 839.5 4.23646 3.24592 0
M  V30 8878 O 839.723 3.6834 4.35525 0
M  V30 8879 O 838.657 5.16013 3.09862 0
M  V30 8880 H 842.483 2.97354 0.617584 0
M  V30 8881 H 840.068 1.47473 0.239174 0
M  V30 8882 H 841.95 2.88785 3.06889 0
M  V30 8883 H 840.625 1.74138 2.7287 0
M  V30 8884 H 839.532 3.52587 1.25033 0
M  V30 8885 H 840.865 4.63234 1.66359 0
M  V30 8886 N 842.517 -0.29412 1.54831 0
M  V30 8887 C 843.742 -1.05156 1.78765 0
M  V30 8888 C 844.167 -1.79916 0.548809 0
M  V30 8889 O 843.525 -1.74243 -0.500909 0
M  V30 8890 C 843.573 -2.00242 2.99893 0
M  V30 8891 O 842.677 -3.08662 2.73499 0
M  V30 8892 H 842.018 -0.301737 0.591482 0
M  V30 8893 H 844.548 -0.329449 2.0193 0
M  V30 8894 H 844.558 -2.42583 3.28051 0
M  V30 8895 H 843.233 -1.45235 3.89717 0
M  V30 8896 H 841.81 -2.70786 2.56377 0
M  V30 8897 N 843.995 -1.47404 -0.557645 0
M  V30 8898 C 844.958 -1.59411 -1.64684 0
M  V30 8899 C 845.958 -0.469244 -1.53801 0
M  V30 8900 O 847.148 -0.734298 -1.57967 0
M  V30 8901 C 844.28 -1.5382 -3.04224 0
M  V30 8902 H 845.473 -2.56504 -1.55389 0
M  V30 8903 H 843.026 -1.35588 -0.777531 0
M  V30 8904 H 843.761 -0.581 -3.19053 0
M  V30 8905 H 843.546 -2.35456 -3.13533 0
M  V30 8906 H 845.036 -1.65358 -3.83466 0
M  V30 8907 N 845.473 0.80434 -1.35529 0
M  V30 8908 C 846.889 1.10023 -1.15616 0
M  V30 8909 C 847.089 2.01478 0.0298535 0
M  V30 8910 O 846.145 2.42609 0.699778 0
M  V30 8911 C 847.458 1.72905 -2.46017 0
M  V30 8912 C 849.006 1.85315 -2.52245 0
M  V30 8913 C 849.481 2.51612 -3.82695 0
M  V30 8914 N 850.972 2.59095 -3.83958 0
M  V30 8915 C 851.707 3.11167 -4.81625 0
M  V30 8916 N 851.203 3.63659 -5.89681 0
M  V30 8917 N 852.996 3.09741 -4.6906 0
M  V30 8918 H 845.147 0.196428 -2.1149 0
M  V30 8919 H 847.41 0.149735 -0.9361 0
M  V30 8920 H 847.116 1.13171 -3.32994 0
M  V30 8921 H 846.99 2.72579 -2.6073 0
M  V30 8922 H 849.377 2.44191 -1.65695 0
M  V30 8923 H 849.458 0.844886 -2.41444 0
M  V30 8924 H 849.102 1.93385 -4.69643 0
M  V30 8925 H 849.032 3.5298 -3.90785 0
M  V30 8926 H 851.523 2.21908 -3.05884 0
M  V30 8927 H 851.836 4.01699 -6.60195 0
M  V30 8928 H 850.181 3.61852 -5.9337 0
M  V30 8929 H 853.372 2.68011 -3.83781 0
M  V30 8930 H 853.545 3.50016 -5.45338 0
M  V30 8931 N 846.951 1.19563 1.02676 0
M  V30 8932 C 848.179 1.02488 1.79732 0
M  V30 8933 C 848.594 -0.426302 1.83924 0
M  V30 8934 O 847.951 -1.29609 1.28483 0
M  V30 8935 C 848.002 1.58944 3.24683 0
M  V30 8936 O 847.723 2.98382 3.2078 0
M  V30 8937 C 849.224 1.46681 4.1833 0
M  V30 8938 H 846.444 0.361098 0.565552 0
M  V30 8939 H 848.988 1.58426 1.29311 0
M  V30 8940 H 847.143 1.0715 3.72287 0
M  V30 8941 H 847.557 3.24983 4.11687 0
M  V30 8942 H 849.031 1.90959 5.17918 0
M  V30 8943 H 849.508 0.417663 4.3721 0
M  V30 8944 H 850.114 1.97616 3.76601 0
M  V30 8945 N 848.429 -1.21819 0.999893 0
M  V30 8946 C 849.678 -1.90066 0.675108 0
M  V30 8947 C 849.991 -1.78624 -0.79705 0
M  V30 8948 O 851.197 -2.41851 -1.23371 0
M  V30 8949 C 849.653 -3.40795 1.15702 0
M  V30 8950 C 849.261 -3.60859 2.6549 0
M  V30 8951 C 851.005 -4.147 0.906889 0
M  V30 8952 C 848.912 -5.05324 3.07248 0
M  V30 8953 H 847.842 -0.711763 0.248815 0
M  V30 8954 H 850.493 -1.3792 1.21038 0
M  V30 8955 H 848.875 -3.92164 0.549832 0
M  V30 8956 H 850.049 -3.19951 3.31614 0
M  V30 8957 H 848.364 -3.00298 2.88461 0
M  V30 8958 H 850.961 -5.21187 1.1945 0
M  V30 8959 H 851.304 -4.16004 -0.156923 0
M  V30 8960 H 851.837 -3.69379 1.47662 0
M  V30 8961 H 848.576 -5.09164 4.12834 0
M  V30 8962 H 848.096 -5.47108 2.45832 0
M  V30 8963 H 849.775 -5.73797 2.98941 0
M  V30 8964 N 849.908 -0.773975 -1.37286 0
M  V30 8965 C 850.855 -0.159938 -2.30245 0
M  V30 8966 C 851.825 0.687356 -1.51211 0
M  V30 8967 O 853.01 0.639255 -1.79773 0
M  V30 8968 C 850.15 0.711452 -3.37687 0
M  V30 8969 C 849.263 -0.152692 -4.3173 0
M  V30 8970 C 848.398 0.723613 -5.26248 0
M  V30 8971 C 847.437 -0.14293 -6.11933 0
M  V30 8972 N 846.574 0.691479 -6.98687 0
M  V30 8973 H 851.414 -0.958182 -2.82175 0
M  V30 8974 H 848.951 -0.48411 -1.38906 0
M  V30 8975 H 850.909 1.2315 -3.9861 0
M  V30 8976 H 849.539 1.47528 -2.87116 0
M  V30 8977 H 848.591 -0.790574 -3.72094 0
M  V30 8978 H 849.903 -0.821027 -4.91997 0
M  V30 8979 H 849.057 1.31006 -5.92387 0
M  V30 8980 H 847.796 1.42562 -4.66398 0
M  V30 8981 H 846.801 -0.7419 -5.44771 0
M  V30 8982 H 848.026 -0.842305 -6.73856 0
M  V30 8983 H 845.972 1.37806 -6.41362 0
M  V30 8984 H 845.889 0.0804911 -7.55957 0
M  V30 8985 H 847.157 1.26225 -7.69212 0
M  V30 8986 N 851.386 1.48609 -0.524698 0
M  V30 8987 C 852.316 2.32366 0.229837 0
M  V30 8988 C 853.297 1.41759 0.940129 0
M  V30 8989 O 854.482 1.7065 0.926936 0
M  V30 8990 C 851.612 3.22835 1.28043 0
M  V30 8991 C 850.566 4.22424 0.688603 0
M  V30 8992 C 849.892 5.0199 1.84146 0
M  V30 8993 C 851.192 5.21217 -0.336176 0
M  V30 8994 H 852.886 2.95698 -0.469339 0
M  V30 8995 H 850.432 1.42197 -0.227156 0
M  V30 8996 H 852.385 3.80253 1.8162 0
M  V30 8997 H 851.109 2.57492 2.00912 0
M  V30 8998 H 849.768 3.66185 0.174402 0
M  V30 8999 H 849.416 4.33076 2.5584 0
M  V30 9000 H 849.116 5.69392 1.45142 0
M  V30 9001 H 850.64 5.62259 2.38111 0
M  V30 9002 H 852.054 5.7319 0.112307 0
M  V30 9003 H 850.451 5.96642 -0.643324 0
M  V30 9004 H 851.521 4.68676 -1.24381 0
M  V30 9005 N 852.864 0.259585 1.55447 0
M  V30 9006 C 854.28 -0.094961 1.59317 0
M  V30 9007 C 854.48 -1.55884 1.2768 0
M  V30 9008 O 853.536 -2.30528 1.0302 0
M  V30 9009 C 854.849 0.265669 2.99524 0
M  V30 9010 C 856.397 0.211007 3.12288 0
M  V30 9011 C 856.872 0.545851 4.54736 0
M  V30 9012 N 858.363 0.496823 4.60528 0
M  V30 9013 C 859.098 0.728909 5.68748 0
M  V30 9014 N 858.594 1.02479 6.85179 0
M  V30 9015 N 860.387 0.658756 5.58226 0
M  V30 9016 H 852.538 1.2141 1.7428 0
M  V30 9017 H 854.801 0.489404 0.811904 0
M  V30 9018 H 854.507 1.28316 3.27457 0
M  V30 9019 H 854.381 -0.401089 3.75061 0
M  V30 9020 H 856.768 -0.797172 2.84129 0
M  V30 9021 H 856.849 0.911799 2.38998 0
M  V30 9022 H 856.493 1.55164 4.83618 0
M  V30 9023 H 856.423 -0.17656 5.26304 0
M  V30 9024 H 858.914 0.277376 3.76881 0
M  V30 9025 H 859.227 1.18897 7.63599 0
M  V30 9026 H 857.572 1.0624 6.86832 0
M  V30 9027 H 860.763 0.427553 4.66143 0
M  V30 9028 H 860.936 0.84302 6.42493 0
M  V30 9029 N 854.342 -1.57594 -0.0133615 0
M  V30 9030 C 855.567 -1.94649 -0.715996 0
M  V30 9031 C 855.992 -0.860786 -1.67249 0
M  V30 9032 O 855.35 0.182228 -1.80382 0
M  V30 9033 C 855.398 -3.30789 -1.43566 0
M  V30 9034 O 854.502 -3.24148 -2.54955 0
M  V30 9035 H 853.843 -0.635801 -0.191449 0
M  V30 9036 H 856.373 -2.04569 0.0358478 0
M  V30 9037 H 856.383 -3.66045 -1.80208 0
M  V30 9038 H 855.058 -4.09367 -0.734263 0
M  V30 9039 H 853.635 -3.00548 -2.20739 0
M  V30 9040 N 855.82 0.285905 -1.54985 0
M  V30 9041 C 857.231 0.857869 -1.65824 0
M  V30 9042 C 857.582 1.87531 -0.576763 0
M  V30 9043 O 856.707 2.14528 0.284016 0
M  V30 9044 C 857.302 1.56277 -3.00604 0
M  V30 9045 C 855.861 2.08294 -3.13513 0
M  V30 9046 C 855.008 0.920633 -2.61571 0
M  V30 9047 H 857.959 0.0625463 -1.58577 0
M  V30 9048 H 857.98 2.42912 -2.92872 0
M  V30 9049 H 857.492 0.822017 -3.79295 0
M  V30 9050 H 855.593 2.8537 -2.39572 0
M  V30 9051 H 855.706 2.3071 -4.19892 0
M  V30 9052 H 854.07 1.31043 -2.18403 0
M  V30 9053 H 854.853 0.193594 -3.42754 0
M  V30 9054 N 857.298 1.47698 0.54982 0
M  V30 9055 C 858.228 1.63622 1.66583 0
M  V30 9056 C 859.209 0.485477 1.63025 0
M  V30 9057 O 860.394 0.715692 1.80531 0
M  V30 9058 C 857.524 1.65721 3.05211 0
M  V30 9059 C 856.478 2.80097 3.2362 0
M  V30 9060 C 855.804 2.67272 4.63109 0
M  V30 9061 C 857.104 4.21612 3.08286 0
M  V30 9062 H 858.798 2.57049 1.53512 0
M  V30 9063 H 856.344 1.23705 0.737099 0
M  V30 9064 H 858.297 1.75451 3.83138 0
M  V30 9065 H 857.021 0.688593 3.19258 0
M  V30 9066 H 855.68 2.69889 2.48104 0
M  V30 9067 H 855.328 1.68422 4.73965 0
M  V30 9068 H 855.028 3.44008 4.76374 0
M  V30 9069 H 856.552 2.78942 5.43161 0
M  V30 9070 H 857.966 4.32758 3.76024 0
M  V30 9071 H 856.363 4.99193 3.33057 0
M  V30 9072 H 857.433 4.39462 2.04942 0
M  V30 9073 N 858.776 -0.797141 1.35954 0
M  V30 9074 C 860.022 -1.55698 1.29946 0
M  V30 9075 C 860.355 -1.93808 -0.123259 0
M  V30 9076 O 859.63 -1.62102 -1.07486 0
M  V30 9077 C 859.913 -2.83926 2.2149 0
M  V30 9078 C 859.766 -2.52232 3.72423 0
M  V30 9079 C 861.085 -3.85698 2.11955 0
M  V30 9080 H 858.204 -0.56488 0.47337 0
M  V30 9081 H 860.846 -0.916421 1.66438 0
M  V30 9082 H 858.996 -3.38588 1.905 0
M  V30 9083 H 860.668 -2.0368 4.13899 0
M  V30 9084 H 858.911 -1.85286 3.92239 0
M  V30 9085 H 859.582 -3.43782 4.31877 0
M  V30 9086 H 862.058 -3.40462 2.39218 0
M  V30 9087 H 860.934 -4.73182 2.78191 0
M  V30 9088 H 861.195 -4.28083 1.10442 0
M  V30 9089 N 860.254 -1.20106 -1.0204 0
M  V30 9090 C 861.202 -0.943231 -2.12617 0
M  V30 9091 C 862.196 0.104042 -1.6908 0
M  V30 9092 O 863.402 -0.0459732 -1.79941 0
M  V30 9093 H 859.777 -0.28767 -0.694802 0
M  V30 9094 H 861.748 -1.88221 -2.3155 0
M  V30 9095 C 860.497 -0.50771 -3.43973 0
M  V30 9096 H 859.82 -1.30514 -3.77897 0
M  V30 9097 H 861.26 -0.366486 -4.22413 0
M  V30 9098 C 859.719 0.77939 -3.27761 0
M  V30 9099 O 860.249 1.83876 -3.57145 0
M  V30 9100 N 858.455 0.739931 -2.81022 0
M  V30 9101 H 858.002 -0.122426 -2.57309 0
M  V30 9102 H 857.96 1.60147 -2.70556 0
M  V30 9103 N 861.732 1.21287 -1.00634 0
M  V30 9104 C 862.642 2.27388 -0.577226 0
M  V30 9105 C 863.658 1.69791 0.380399 0
M  V30 9106 O 864.834 1.99918 0.2439 0
M  V30 9107 C 861.899 3.46588 0.0880532 0
M  V30 9108 C 860.96 4.19453 -0.914222 0
M  V30 9109 C 860.193 5.32962 -0.280596 0
M  V30 9110 O 860.416 5.62895 0.922265 0
M  V30 9111 O 859.35 5.93666 -0.992196 0
M  V30 9112 H 863.176 2.66289 -1.46028 0
M  V30 9113 H 860.761 1.2771 -0.775283 0
M  V30 9114 H 862.643 4.18881 0.460094 0
M  V30 9115 H 861.318 3.09585 0.945461 0
M  V30 9116 H 860.225 3.49376 -1.33744 0
M  V30 9117 H 861.558 4.6037 -1.74126 0
M  V30 9118 N 863.21 0.781244 1.36873 0
M  V30 9119 C 864.456 0.350407 1.9975 0
M  V30 9120 C 864.789 -1.07293 1.6187 0
M  V30 9121 O 864.064 -1.73983 0.869491 0
M  V30 9122 C 864.347 0.504834 3.56544 0
M  V30 9123 C 864.2 1.97127 4.04303 0
M  V30 9124 C 865.519 -0.0851272 4.40018 0
M  V30 9125 H 862.638 0.128794 0.725659 0
M  V30 9126 H 865.28 0.98606 1.6241 0
M  V30 9127 H 863.43 -0.0363006 3.88483 0
M  V30 9128 H 865.102 2.57284 3.82887 0
M  V30 9129 H 863.345 2.47676 3.56145 0
M  V30 9130 H 864.016 2.03033 5.13305 0
M  V30 9131 H 866.492 0.376704 4.14391 0
M  V30 9132 H 865.368 0.0530015 5.48874 0
M  V30 9133 H 865.629 -1.17642 4.2616 0
M  V30 9134 N 864.689 -1.48329 0.532571 0
M  V30 9135 C 865.599 -2.33445 -0.232546 0
M  V30 9136 C 866.615 -1.46651 -0.93645 0
M  V30 9137 O 867.791 -1.79627 -0.910834 0
M  V30 9138 C 864.856 -3.22824 -1.26434 0
M  V30 9139 C 863.917 -4.25492 -0.570511 0
M  V30 9140 C 863.15 -5.10601 -1.55315 0
M  V30 9141 O 863.373 -4.97733 -2.78599 0
M  V30 9142 O 862.307 -5.91927 -1.09112 0
M  V30 9143 H 866.133 -3.00119 0.464988 0
M  V30 9144 H 863.718 -1.46489 0.293462 0
M  V30 9145 H 865.6 -3.78103 -1.86055 0
M  V30 9146 H 864.275 -2.58807 -1.94424 0
M  V30 9147 H 863.182 -3.74041 0.0662587 0
M  V30 9148 H 864.515 -4.92154 0.0674904 0
M  V30 9149 N 866.167 -0.267825 -1.55308 0
M  V30 9150 C 867.097 0.616585 -2.25212 0
M  V30 9151 C 868.078 1.16472 -1.23969 0
M  V30 9152 O 869.263 1.20021 -1.52672 0
M  V30 9153 C 866.393 1.80412 -2.96764 0
M  V30 9154 C 865.347 1.38784 -4.04874 0
M  V30 9155 C 864.673 2.65789 -4.63961 0
M  V30 9156 C 865.973 0.543415 -5.19465 0
M  V30 9157 H 867.667 0.0336257 -2.99381 0
M  V30 9158 H 865.213 0.0147328 -1.43992 0
M  V30 9159 H 867.166 2.42866 -3.44375 0
M  V30 9160 H 865.89 2.4128 -2.20118 0
M  V30 9161 H 864.549 0.786541 -3.58063 0
M  V30 9162 H 864.197 3.24899 -3.83992 0
M  V30 9163 H 863.897 2.38651 -5.36954 0
M  V30 9164 H 865.421 3.29104 -5.14318 0
M  V30 9165 H 866.835 1.07277 -5.63174 0
M  V30 9166 H 865.232 0.367219 -5.98975 0
M  V30 9167 H 866.302 -0.439534 -4.82904 0
M  V30 9168 N 867.645 1.57599 0.00500368 0
M  V30 9169 C 868.577 2.04949 1.02609 0
M  V30 9170 C 869.59 0.966507 1.31006 0
M  V30 9171 O 870.779 1.2434 1.2807 0
M  V30 9172 C 867.879 2.43023 2.36206 0
M  V30 9173 C 867.052 3.73993 2.26821 0
M  V30 9174 C 866.111 3.9899 3.43065 0
M  V30 9175 O 865.137 4.69725 3.21477 0
M  V30 9176 N 866.339 3.46496 4.65748 0
M  V30 9177 H 869.104 2.93167 0.622336 0
M  V30 9178 H 866.665 1.60752 0.192488 0
M  V30 9179 H 868.657 2.56863 3.12735 0
M  V30 9180 H 867.227 1.60349 2.68341 0
M  V30 9181 H 866.447 3.70277 1.35235 0
M  V30 9182 H 867.735 4.59865 2.17719 0
M  V30 9183 H 867.133 2.89206 4.86186 0
M  V30 9184 H 865.69 3.65675 5.3956 0
M  V30 9185 N 869.123 -0.277682 1.55134 0
M  V30 9186 C 870.086 -1.32635 1.86924 0
M  V30 9187 C 871.086 -1.42578 0.743507 0
M  V30 9188 O 872.276 -1.4181 1.01171 0
M  V30 9189 C 869.408 -2.70832 2.07034 0
M  V30 9190 H 870.601 -1.0568 2.80663 0
M  V30 9191 H 868.154 -0.515517 1.47554 0
M  V30 9192 H 868.889 -3.02974 1.15661 0
M  V30 9193 H 868.674 -2.65001 2.88993 0
M  V30 9194 H 870.164 -3.46611 2.32918 0
M  V30 9195 N 870.601 -1.47988 -0.541979 0
M  V30 9196 C 871.85 -1.5465 -1.29485 0
M  V30 9197 C 872.163 -0.220041 -1.94358 0
M  V30 9198 O 873.369 -0.164792 -2.70999 0
M  V30 9199 C 871.825 -2.72685 -2.34885 0
M  V30 9200 C 871.433 -4.11923 -1.76134 0
M  V30 9201 C 873.177 -2.88651 -3.11257 0
M  V30 9202 C 871.084 -5.21237 -2.79404 0
M  V30 9203 H 870.014 -0.575688 -0.486928 0
M  V30 9204 H 872.665 -1.74296 -0.573853 0
M  V30 9205 H 871.047 -2.46448 -3.09966 0
M  V30 9206 H 872.221 -4.48128 -1.07322 0
M  V30 9207 H 870.536 -4.00972 -1.12295 0
M  V30 9208 H 873.133 -3.67487 -3.88404 0
M  V30 9209 H 873.476 -1.97658 -3.66384 0
M  V30 9210 H 874.009 -3.14731 -2.43288 0
M  V30 9211 H 870.748 -6.14156 -2.29113 0
M  V30 9212 H 870.268 -4.89533 -3.4658 0
M  V30 9213 H 871.947 -5.48839 -3.42615 0
M  V30 9214 N 872.079 0.78992 -1.36375 0
M  V30 9215 C 873.026 1.90254 -1.3066 0
M  V30 9216 C 873.996 1.65171 -0.17539 0
M  V30 9217 O 875.181 1.87338 -0.361824 0
M  V30 9218 C 872.321 3.27057 -1.10125 0
M  V30 9219 C 871.434 3.64215 -2.32317 0
M  V30 9220 C 870.569 4.90134 -2.04798 0
M  V30 9221 C 869.608 5.19969 -3.22953 0
M  V30 9222 N 868.745 6.37071 -2.95102 0
M  V30 9223 H 873.585 1.94474 -2.25796 0
M  V30 9224 H 871.122 0.951022 -1.12223 0
M  V30 9225 H 873.08 4.05947 -0.962453 0
M  V30 9226 H 871.71 3.22261 -0.186444 0
M  V30 9227 H 870.762 2.80454 -2.57002 0
M  V30 9228 H 872.074 3.82212 -3.20492 0
M  V30 9229 H 871.228 5.76888 -1.87845 0
M  V30 9230 H 869.967 4.74205 -1.13932 0
M  V30 9231 H 868.972 4.31699 -3.40465 0
M  V30 9232 H 870.197 5.37817 -4.14644 0
M  V30 9233 H 868.143 6.22535 -2.06848 0
M  V30 9234 H 868.06 6.55398 -3.76815 0
M  V30 9235 H 869.328 7.26808 -2.81727 0
M  V30 9236 N 873.557 1.20646 1.01402 0
M  V30 9237 C 874.785 1.04389 1.78635 0
M  V30 9238 C 875.2 -0.406771 1.84366 0
M  V30 9239 O 874.557 -1.28239 1.2985 0
M  V30 9240 C 874.608 1.62378 3.22979 0
M  V30 9241 O 874.329 3.01768 3.17597 0
M  V30 9242 C 875.83 1.5111 4.1675 0
M  V30 9243 H 873.05 0.367077 0.56169 0
M  V30 9244 H 875.594 1.59789 1.27624 0
M  V30 9245 H 873.749 1.11092 3.7113 0
M  V30 9246 H 874.163 3.29331 4.08217 0
M  V30 9247 H 875.637 1.96441 5.15863 0
M  V30 9248 H 876.114 0.464011 4.36742 0
M  V30 9249 H 876.72 2.01599 3.74483 0
M  V30 9250 N 875.035 -1.20752 1.01276 0
M  V30 9251 C 876.283 -1.89645 0.698505 0
M  V30 9252 C 876.604 -1.78986 -0.773883 0
M  V30 9253 O 875.874 -1.18977 -1.55632 0
M  V30 9254 H 874.454 -0.701992 0.255375 0
M  V30 9255 H 877.116 -1.46668 1.28353 0
M  V30 9256 H 876.212 -2.96364 0.978512 0
M  V30 9257 N 876.513 -0.788492 -1.36457 0
M  V30 9258 C 877.445 -0.144208 -2.28746 0
M  V30 9259 C 878.458 0.646009 -1.49434 0
M  V30 9260 O 879.647 0.481344 -1.71888 0
M  V30 9261 C 876.747 0.818869 -3.28858 0
M  V30 9262 C 875.92 0.0789055 -4.37329 0
M  V30 9263 C 874.979 0.957791 -5.1741 0
M  V30 9264 O 874.005 0.415378 -5.67682 0
M  V30 9265 N 875.207 2.28216 -5.33758 0
M  V30 9266 H 877.972 -0.936949 -2.84678 0
M  V30 9267 H 875.533 -0.642317 -1.48613 0
M  V30 9268 H 877.525 1.41065 -3.79319 0
M  V30 9269 H 876.095 1.51249 -2.73573 0
M  V30 9270 H 875.315 -0.693939 -3.88044 0
M  V30 9271 H 876.603 -0.431753 -5.06965 0
M  V30 9272 H 876.001 2.747 -4.94527 0
M  V30 9273 H 874.558 2.8236 -5.87466 0
M  V30 9274 N 877.991 1.48044 -0.54043 0
M  V30 9275 C 878.921 2.32597 0.205178 0
M  V30 9276 C 879.902 1.42748 0.925041 0
M  V30 9277 O 881.087 1.71624 0.908784 0
M  V30 9278 C 878.217 3.24175 1.24612 0
M  V30 9279 C 877.171 4.23131 0.64376 0
M  V30 9280 C 876.497 5.03915 1.78812 0
M  V30 9281 C 877.797 5.20831 -0.39144 0
M  V30 9282 H 879.491 2.95184 -0.500676 0
M  V30 9283 H 877.037 1.41948 -0.242225 0
M  V30 9284 H 878.99 3.82158 1.77576 0
M  V30 9285 H 877.714 2.59608 1.98169 0
M  V30 9286 H 876.373 3.66349 0.135554 0
M  V30 9287 H 876.021 4.35765 2.51232 0
M  V30 9288 H 875.721 5.709 1.39094 0
M  V30 9289 H 877.245 5.64753 2.32134 0
M  V30 9290 H 878.659 5.73277 0.0515064 0
M  V30 9291 H 877.056 5.95926 -0.706569 0
M  V30 9292 H 878.126 4.6733 -1.29345 0
M  V30 9293 N 879.47 0.276058 1.55163 0
M  V30 9294 C 880.402 -0.644254 2.19959 0
M  V30 9295 C 881.415 -1.11675 1.18459 0
M  V30 9296 O 882.604 -1.0385 1.45181 0
M  V30 9297 C 879.704 -1.89093 2.81242 0
M  V30 9298 C 878.877 -1.56509 4.08441 0
M  V30 9299 C 877.936 -2.66433 4.53762 0
M  V30 9300 O 876.962 -2.32579 5.19515 0
M  V30 9301 N 878.164 -3.96509 4.23982 0
M  V30 9302 H 880.929 -0.0896808 2.99566 0
M  V30 9303 H 878.49 0.0971981 1.61608 0
M  V30 9304 H 880.482 -2.61929 3.08505 0
M  V30 9305 H 879.052 -2.35453 2.05622 0
M  V30 9306 H 878.272 -0.670522 3.88455 0
M  V30 9307 H 879.56 -1.32242 4.91314 0
M  V30 9308 H 878.958 -4.26834 3.71254 0
M  V30 9309 H 877.515 -4.6572 4.56014 0
M  V30 9310 N 880.948 -1.576 0.00335426 0
M  V30 9311 C 882.194 -1.90996 -0.681799 0
M  V30 9312 C 882.527 -0.877643 -1.73237 0
M  V30 9313 O 881.802 0.103183 -1.94226 0
M  V30 9314 C 882.085 -3.34961 -1.32187 0
M  V30 9315 C 881.938 -4.48911 -0.28261 0
M  V30 9316 C 883.257 -3.78408 -2.24711 0
M  V30 9317 H 880.376 -0.694596 -0.246386 0
M  V30 9318 H 883.018 -1.89919 0.055336 0
M  V30 9319 H 881.168 -3.36008 -1.95014 0
M  V30 9320 H 882.84 -4.59999 0.346241 0
M  V30 9321 H 881.083 -4.32 0.394768 0
M  V30 9322 H 881.754 -5.46609 -0.769576 0
M  V30 9323 H 884.23 -3.78934 -1.71897 0
M  V30 9324 H 883.106 -4.79885 -2.66461 0
M  V30 9325 H 883.367 -3.12464 -3.1276 0
M  V30 9326 N 882.426 0.269451 -1.5528 0
M  V30 9327 C 883.389 1.31642 -1.87625 0
M  V30 9328 C 884.389 1.42182 -0.751058 0
M  V30 9329 O 885.579 1.41272 -1.01921 0
M  V30 9330 C 882.711 2.6973 -2.08467 0
M  V30 9331 H 883.904 1.0419 -2.81219 0
M  V30 9332 H 881.457 0.507685 -1.47825 0
M  V30 9333 H 882.192 3.02356 -1.17266 0
M  V30 9334 H 881.977 2.63465 -2.90394 0
M  V30 9335 H 883.467 3.4537 -2.34753 0
M  V30 9336 N 883.904 1.48273 0.534124 0
M  V30 9337 C 884.814 1.65162 1.66609 0
M  V30 9338 C 885.83 0.534177 1.65598 0
M  V30 9339 O 887.006 0.804715 1.84625 0
M  V30 9340 C 884.071 1.68354 3.03081 0
M  V30 9341 C 883.132 2.91696 3.1498 0
M  V30 9342 C 882.365 2.94725 4.44941 0
M  V30 9343 O 882.588 2.06285 5.31792 0
M  V30 9344 O 881.522 3.8685 4.61119 0
M  V30 9345 H 885.348 2.60991 1.55298 0
M  V30 9346 H 882.933 1.31626 0.706749 0
M  V30 9347 H 884.815 1.72998 3.84252 0
M  V30 9348 H 883.49 0.756978 3.14725 0
M  V30 9349 H 882.397 2.92586 2.33119 0
M  V30 9350 H 883.73 3.83722 3.0825 0
M  V30 9351 N 885.382 -0.782676 1.36792 0
M  V30 9352 C 886.628 -1.54311 1.3159 0
M  V30 9353 C 886.961 -1.93928 -0.102696 0
M  V30 9354 O 886.236 -1.63233 -1.05761 0
M  V30 9355 C 886.519 -2.81561 2.24489 0
M  V30 9356 C 886.372 -2.48268 3.75078 0
M  V30 9357 C 887.691 -3.83428 2.16034 0
M  V30 9358 H 884.81 -0.559828 0.479335 0
M  V30 9359 H 887.452 -0.898717 1.67401 0
M  V30 9360 H 885.602 -3.36549 1.9408 0
M  V30 9361 H 887.274 -1.99279 4.16036 0
M  V30 9362 H 885.517 -1.81116 3.94182 0
M  V30 9363 H 886.188 -3.39183 4.35499 0
M  V30 9364 H 888.664 -3.37905 2.42815 0
M  V30 9365 H 887.54 -4.70204 2.83194 0
M  V30 9366 H 887.801 -4.26887 1.14976 0
M  V30 9367 N 886.86 -1.21182 -1.00761 0
M  V30 9368 C 888.085 -1.05411 -1.78615 0
M  V30 9369 C 888.51 0.391837 -1.83973 0
M  V30 9370 O 887.868 1.28256 -1.28141 0
M  V30 9371 C 887.916 -1.65285 -3.20489 0
M  V30 9372 O 887.02 -0.896558 -4.02536 0
M  V30 9373 H 886.361 -0.37116 -0.550578 0
M  V30 9374 H 888.891 -1.60669 -1.26676 0
M  V30 9375 H 888.901 -1.69397 -3.71172 0
M  V30 9376 H 887.576 -2.70514 -3.15904 0
M  V30 9377 H 886.153 -0.930335 -3.61108 0
M  V30 9378 N 888.338 1.20213 -1.01915 0
M  V30 9379 C 889.566 1.93622 -0.729255 0
M  V30 9380 C 889.981 1.74923 0.710444 0
M  V30 9381 O 889.338 1.06484 1.48214 0
M  V30 9382 C 889.389 3.45651 -1.05865 0
M  V30 9383 O 889.11 3.63741 -2.44181 0
M  V30 9384 C 890.611 4.36201 -0.790176 0
M  V30 9385 H 887.831 0.615333 -0.267594 0
M  V30 9386 H 890.375 1.52633 -1.36101 0
M  V30 9387 H 888.53 3.84511 -0.47225 0
M  V30 9388 H 888.944 4.57702 -2.56143 0
M  V30 9389 H 890.418 5.41516 -1.07071 0
M  V30 9390 H 890.895 4.38334 0.275609 0
M  V30 9391 H 891.501 4.03008 -1.35885 0
M  V30 9392 N 889.816 0.795718 1.36037 0
M  V30 9393 C 890.746 0.212803 2.32528 0
M  V30 9394 C 891.727 -0.655716 1.56953 0
M  V30 9395 O 892.912 -0.588238 1.85077 0
M  V30 9396 C 890.042 -0.648189 3.41198 0
M  V30 9397 C 888.996 0.120948 4.27829 0
M  V30 9398 C 888.322 -0.861044 5.27722 0
M  V30 9399 C 889.622 1.31375 5.05508 0
M  V30 9400 H 891.316 1.01893 2.81528 0
M  V30 9401 H 888.862 0.491422 1.35355 0
M  V30 9402 H 890.815 -1.06597 4.07695 0
M  V30 9403 H 889.539 -1.48709 2.9078 0
M  V30 9404 H 888.198 0.519777 3.62897 0
M  V30 9405 H 887.846 -1.69515 4.73575 0
M  V30 9406 H 887.546 -0.350808 5.86552 0
M  V30 9407 H 889.07 -1.27726 5.97092 0
M  V30 9408 H 890.484 0.971406 5.6501 0
M  V30 9409 H 888.881 1.75772 5.73781 0
M  V30 9410 H 889.951 2.10593 4.36782 0
M  V30 9411 N 891.294 -1.47756 0.548274 0
M  V30 9412 C 892.524 -2.06584 0.0254503 0
M  V30 9413 C 892.932 -1.40268 -1.26971 0
M  V30 9414 O 892.275 -0.49019 -1.77039 0
M  V30 9415 C 892.337 -3.58628 -0.250301 0
M  V30 9416 C 892.001 -4.4693 0.954087 0
M  V30 9417 C 892.998 -4.85592 1.85733 0
M  V30 9418 C 890.683 -4.88573 1.16624 0
M  V30 9419 C 892.677 -5.64686 2.95648 0
M  V30 9420 C 890.364 -5.67435 2.2685 0
M  V30 9421 C 891.362 -6.05401 3.16194 0
M  V30 9422 O 891.05 -6.82676 4.24511 0
M  V30 9423 H 890.782 -0.67489 0.0387264 0
M  V30 9424 H 893.336 -1.90876 0.758663 0
M  V30 9425 H 891.566 -3.72516 -1.03771 0
M  V30 9426 H 893.255 -3.9951 -0.717419 0
M  V30 9427 H 894.021 -4.54026 1.70544 0
M  V30 9428 H 889.9 -4.58494 0.480039 0
M  V30 9429 H 893.444 -5.9424 3.65411 0
M  V30 9430 H 889.341 -5.98413 2.42016 0
M  V30 9431 H 890.109 -7.01057 4.22447 0
M  V30 9432 N 892.772 -0.284283 -1.55015 0
M  V30 9433 C 894.049 0.382125 -1.91831 0
M  V30 9434 C 894.429 1.73007 -1.20962 0
M  V30 9435 O 893.777 2.25962 -0.339594 0
M  V30 9436 C 893.987 0.513341 -3.45204 0
M  V30 9437 C 895.335 0.791989 -4.17148 0
M  V30 9438 O 896.359 0.597799 -3.51148 0
M  V30 9439 O 895.218 1.16394 -5.33961 0
M  V30 9440 H 892.312 0.210707 -0.799707 0
M  V30 9441 H 894.858 -0.331111 -1.66438 0
M  V30 9442 H 893.63 -0.434911 -3.88876 0
M  V30 9443 H 893.253 1.27569 -3.76579 0
M  V30 9444 N 894.251 1.57596 -0.0117121 0
M  V30 9445 C 895.181 2.12188 0.9746 0
M  V30 9446 C 896.162 1.03379 1.35081 0
M  V30 9447 O 897.347 1.31123 1.4325 0
M  V30 9448 C 894.477 2.63477 2.26268 0
M  V30 9449 C 893.431 3.76917 2.02774 0
M  V30 9450 C 892.757 4.14566 3.37697 0
M  V30 9451 C 894.057 5.03715 1.38089 0
M  V30 9452 H 895.751 2.9485 0.520007 0
M  V30 9453 H 893.297 1.41836 0.248685 0
M  V30 9454 H 895.25 3.00299 2.95633 0
M  V30 9455 H 893.974 1.77953 2.73862 0
M  V30 9456 H 892.633 3.40507 1.35832 0
M  V30 9457 H 892.281 3.26048 3.83016 0
M  V30 9458 H 891.981 4.91 3.22789 0
M  V30 9459 H 893.505 4.53956 4.08358 0
M  V30 9460 H 894.919 5.38233 1.97428 0
M  V30 9461 H 893.316 5.85032 1.33634 0
M  V30 9462 H 894.386 4.83624 0.351575 0
M  V30 9463 N 895.729 -0.261212 1.5542 0
M  V30 9464 C 897.006 -1.01321 1.67312 0
M  V30 9465 C 897.386 -2.0388 0.547356 0
M  V30 9466 O 896.734 -2.24003 -0.451083 0
M  V30 9467 C 896.944 -1.65943 3.07024 0
M  V30 9468 C 898.292 -2.16666 3.65159 0
M  V30 9469 O 899.316 -1.75909 3.09733 0
M  V30 9470 O 898.175 -2.91455 4.62294 0
M  V30 9471 H 895.269 -0.470714 0.679968 0
M  V30 9472 H 897.815 -0.256133 1.67756 0
M  V30 9473 H 896.587 -0.916868 3.80407 0
M  V30 9474 H 896.21 -2.48308 3.1053 0
M  V30 9475 N 897.207 -1.48554 -0.526253 0
M  V30 9476 C 898.455 -1.56452 -1.27935 0
M  V30 9477 C 898.776 -0.24184 -1.93495 0
M  V30 9478 O 898.046 0.736917 -1.81511 0
M  V30 9479 H 896.626 -0.576379 -0.47518 0
M  V30 9480 H 899.288 -1.85039 -0.612083 0
M  V30 9481 H 898.384 -2.34751 -2.05666 0
M  V30 9482 N 898.685 0.775411 -1.37205 0
M  V30 9483 C 899.931 1.53611 -1.32407 0
M  V30 9484 C 900.264 1.9398 0.0924103 0
M  V30 9485 O 899.539 1.63791 1.04893 0
M  V30 9486 C 899.822 2.80367 -2.25979 0
M  V30 9487 C 899.675 2.46275 -3.76389 0
M  V30 9488 C 900.994 3.82277 -2.18064 0
M  V30 9489 H 898.113 0.557278 -0.482297 0
M  V30 9490 H 900.755 0.889826 -1.67875 0
M  V30 9491 H 898.905 3.35515 -1.95862 0
M  V30 9492 H 900.577 1.9707 -4.17087 0
M  V30 9493 H 898.82 1.79023 -3.95137 0
M  V30 9494 H 899.491 3.36868 -4.37291 0
M  V30 9495 H 901.967 3.36613 -2.44604 0
M  V30 9496 H 900.843 4.68696 -2.85684 0
M  V30 9497 H 901.104 4.26272 -1.17239 0
M  V30 9498 N 900.163 1.21714 1.00117 0
M  V30 9499 C 901.111 0.976937 2.11089 0
M  V30 9500 C 902.105 -0.0771295 1.69224 0
M  V30 9501 O 903.311 0.0745945 1.79845 0
M  V30 9502 H 899.686 0.298687 0.690138 0
M  V30 9503 H 901.657 1.91881 2.28526 0
M  V30 9504 C 900.406 0.562369 3.43122 0
M  V30 9505 H 899.729 1.36509 3.75773 0
M  V30 9506 H 901.169 0.433642 4.21777 0
M  V30 9507 C 899.628 -0.727148 3.28959 0
M  V30 9508 O 900.158 -1.78171 3.60025 0
M  V30 9509 N 898.364 -0.695129 2.82164 0
M  V30 9510 H 897.911 0.163346 2.57082 0
M  V30 9511 H 897.869 -1.55822 2.73069 0
M  V30 9512 N 901.641 -1.19671 1.02551 0
M  V30 9513 C 902.866 -1.93774 0.739363 0
M  V30 9514 C 903.291 -1.74787 -0.695064 0
M  V30 9515 O 902.649 -1.04796 -1.47944 0
M  V30 9516 C 902.697 -3.43684 1.09149 0
M  V30 9517 O 901.801 -4.11874 0.208213 0
M  V30 9518 H 901.142 -0.605064 0.273484 0
M  V30 9519 H 903.672 -1.51846 1.37128 0
M  V30 9520 H 903.682 -3.94339 1.04695 0
M  V30 9521 H 902.357 -3.56826 2.13654 0
M  V30 9522 H 900.934 -3.716 0.311045 0
M  V30 9523 N 903.119 -0.802921 -1.35613 0
M  V30 9524 C 904.049 -0.225131 -2.32412 0
M  V30 9525 C 905.03 0.647383 -1.57299 0
M  V30 9526 O 906.215 0.578414 -1.85386 0
M  V30 9527 C 903.345 0.630085 -3.41537 0
M  V30 9528 C 902.299 -0.143635 -4.27759 0
M  V30 9529 C 901.625 0.833046 -5.28171 0
M  V30 9530 C 902.925 -1.34054 -5.04804 0
M  V30 9531 H 904.619 -1.03385 -2.80984 0
M  V30 9532 H 902.165 -0.498593 -1.35093 0
M  V30 9533 H 904.118 1.04433 -4.08254 0
M  V30 9534 H 902.842 1.47165 -2.91565 0
M  V30 9535 H 901.501 -0.539015 -3.62616 0
M  V30 9536 H 901.149 1.67001 -4.74468 0
M  V30 9537 H 900.849 0.319697 -5.8673 0
M  V30 9538 H 902.373 1.24558 -5.97761 0
M  V30 9539 H 903.787 -1.00136 -5.64487 0
M  V30 9540 H 902.184 -1.78812 -5.72841 0
M  V30 9541 H 903.254 -2.12906 -4.35659 0
M  V30 9542 N 904.597 1.47463 -0.556102 0
M  V30 9543 C 905.507 2.33785 0.195378 0
M  V30 9544 C 906.523 1.48123 0.913 0
M  V30 9545 O 907.699 1.81053 0.882141 0
M  V30 9546 C 904.764 3.24795 1.21282 0
M  V30 9547 C 903.825 4.26346 0.502747 0
M  V30 9548 C 903.058 5.13007 1.47172 0
M  V30 9549 O 903.281 5.02103 2.70646 0
M  V30 9550 O 902.215 5.93588 0.996814 0
M  V30 9551 H 906.041 2.99341 -0.512676 0
M  V30 9552 H 903.626 1.46004 -0.31673 0
M  V30 9553 H 905.508 3.81015 1.80016 0
M  V30 9554 H 904.183 2.61868 1.90282 0
M  V30 9555 H 903.09 3.73889 -0.125757 0
M  V30 9556 H 904.423 4.91984 -0.145779 0
M  V30 9557 N 906.075 0.2925 1.54862 0
M  V30 9558 C 907.303 -0.322113 2.04377 0
M  V30 9559 C 907.718 -1.48164 1.17016 0
M  V30 9560 O 907.075 -1.81466 0.19395 0
M  V30 9561 C 907.126 -0.786506 3.5284 0
M  V30 9562 O 906.847 0.326863 4.36879 0
M  V30 9563 C 908.348 -1.46715 4.18318 0
M  V30 9564 H 905.568 -0.0712074 0.667211 0
M  V30 9565 H 908.112 0.429657 1.99935 0
M  V30 9566 H 906.267 -1.48832 3.5767 0
M  V30 9567 H 906.681 -0.0331558 5.2449 0
M  V30 9568 H 908.155 -1.74333 5.23748 0
M  V30 9569 H 908.632 -2.40443 3.67538 0
M  V30 9570 H 909.238 -0.808735 4.1754 0
M  V30 9571 N 907.553 -1.57587 0.0200696 0
M  V30 9572 C 908.516 -2.08595 -0.949767 0
M  V30 9573 C 909.516 -0.999215 -1.25985 0
M  V30 9574 O 910.706 -1.26115 -1.2017 0
M  V30 9575 C 907.838 -2.54424 -2.26895 0
M  V30 9576 H 909.031 -2.95563 -0.508161 0
M  V30 9577 H 906.584 -1.54631 -0.227798 0
M  V30 9578 H 907.319 -1.70758 -2.75703 0
M  V30 9579 H 907.104 -3.3381 -2.05702 0
M  V30 9580 H 908.594 -2.94144 -2.96427 0
M  V30 9581 N 909.032 0.252966 -1.55557 0
M  V30 9582 C 909.962 1.31691 -1.9282 0
M  V30 9583 C 910.943 1.50516 -0.7924 0
M  V30 9584 O 912.128 1.63225 -1.05219 0
M  V30 9585 C 909.258 2.67281 -2.21762 0
M  V30 9586 C 908.212 2.6316 -3.37536 0
M  V30 9587 C 907.538 4.02488 -3.52005 0
M  V30 9588 C 908.838 2.20675 -4.73392 0
M  V30 9589 H 910.532 1.00751 -2.81939 0
M  V30 9590 H 908.078 0.483219 -1.3565 0
M  V30 9591 H 910.031 3.41842 -2.46419 0
M  V30 9592 H 908.755 2.99845 -1.29463 0
M  V30 9593 H 907.414 1.91057 -3.12878 0
M  V30 9594 H 907.062 4.32307 -2.57137 0
M  V30 9595 H 906.762 4.00621 -4.29857 0
M  V30 9596 H 908.286 4.78758 -3.78977 0
M  V30 9597 H 909.7 2.84965 -4.97461 0
M  V30 9598 H 908.097 2.29931 -5.54303 0
M  V30 9599 H 909.167 1.15831 -4.70862 0
M  V30 9600 N 910.51 1.48831 0.518367 0
M  V30 9601 C 911.787 1.47933 1.27966 0
M  V30 9602 C 912.167 0.197393 2.10175 0
M  V30 9603 O 911.515 -0.820656 2.13255 0
M  V30 9604 C 911.725 2.74816 2.15121 0
M  V30 9605 C 913.073 3.23613 2.74881 0
M  V30 9606 O 914.097 2.75814 2.254 0
M  V30 9607 O 912.956 4.06818 3.64913 0
M  V30 9608 H 910.05 0.591316 0.578164 0
M  V30 9609 H 912.596 1.61077 0.534065 0
M  V30 9610 H 911.368 3.59621 1.54234 0
M  V30 9611 H 910.991 2.64449 2.96905 0
M  V30 9612 N 911.988 -0.768124 1.37614 0
M  V30 9613 C 912.936 -1.9029 1.33763 0
M  V30 9614 C 913.93 -1.67888 0.225814 0
M  V30 9615 O 915.136 -1.75634 0.394043 0
M  V30 9616 H 911.511 -0.625828 0.416945 0
M  V30 9617 H 913.482 -1.90654 2.29551 0
M  V30 9618 C 912.231 -3.27598 1.16511 0
M  V30 9619 H 911.554 -3.45414 2.01318 0
M  V30 9620 H 912.994 -4.07288 1.17867 0
M  V30 9621 C 911.453 -3.36653 -0.129001 0
M  V30 9622 O 911.983 -3.86023 -1.11128 0
M  V30 9623 N 910.189 -2.90036 -0.180926 0
M  V30 9624 H 909.736 -2.5005 0.619076 0
M  V30 9625 H 909.694 -2.96475 -1.04641 0
M  V30 9626 N 913.466 -1.22244 -0.994698 0
M  V30 9627 C 914.396 -1.01513 -2.10279 0
M  V30 9628 C 915.377 0.0633365 -1.69982 0
M  V30 9629 O 916.562 -0.0985268 -1.9395 0
M  V30 9630 C 913.692 -0.59016 -3.42249 0
M  V30 9631 C 912.646 -1.61436 -3.96387 0
M  V30 9632 C 911.972 -1.04528 -5.24383 0
M  V30 9633 C 913.272 -3.00388 -4.27276 0
M  V30 9634 H 914.966 -1.94194 -2.2788 0
M  V30 9635 H 912.512 -0.935094 -1.09508 0
M  V30 9636 H 914.465 -0.432254 -4.19177 0
M  V30 9637 H 913.189 0.372308 -3.24471 0
M  V30 9638 H 911.848 -1.76001 -3.21589 0
M  V30 9639 H 911.496 -0.0742225 -5.02945 0
M  V30 9640 H 911.196 -1.72949 -5.61571 0
M  V30 9641 H 912.72 -0.898922 -6.03947 0
M  V30 9642 H 914.134 -2.89207 -4.95007 0
M  V30 9643 H 912.531 -3.65916 -4.75631 0
M  V30 9644 H 913.601 -3.50456 -3.35125 0
M  V30 9645 N 914.944 1.19125 -1.03184 0
M  V30 9646 C 916.19 1.89163 -0.731111 0
M  V30 9647 C 916.523 1.79604 0.738662 0
M  V30 9648 O 915.798 1.19037 1.53819 0
M  V30 9649 C 916.081 3.39986 -1.18666 0
M  V30 9650 C 915.934 3.58401 -2.71788 0
M  V30 9651 C 917.253 4.33316 -0.769772 0
M  V30 9652 H 914.372 0.686908 -0.267069 0
M  V30 9653 H 917.014 1.40205 -1.28229 0
M  V30 9654 H 915.164 3.81813 -0.717736 0
M  V30 9655 H 916.836 3.25727 -3.26649 0
M  V30 9656 H 915.079 3.01355 -3.12038 0
M  V30 9657 H 915.75 4.64189 -2.98719 0
M  V30 9658 H 918.226 3.9922 -1.17314 0
M  V30 9659 H 917.102 5.37427 -1.11637 0
M  V30 9660 H 917.363 4.40884 0.327681 0
M  V30 9661 N 916.422 0.810101 1.35185 0
M  V30 9662 C 917.369 0.220927 2.2974 0
M  V30 9663 C 918.339 -0.647024 1.5298 0
M  V30 9664 O 919.524 -0.591367 1.81404 0
M  V30 9665 C 916.664 -0.62167 3.39454 0
M  V30 9666 C 915.777 0.267104 4.31173 0
M  V30 9667 C 914.912 -0.583833 5.27982 0
M  V30 9668 C 913.951 0.305123 6.11339 0
M  V30 9669 N 913.088 -0.505992 7.00274 0
M  V30 9670 H 917.928 1.03266 2.79536 0
M  V30 9671 H 915.465 0.520768 1.37573 0
M  V30 9672 H 917.423 -1.12539 4.01735 0
M  V30 9673 H 916.053 -1.39863 2.90926 0
M  V30 9674 H 915.105 0.88895 3.69867 0
M  V30 9675 H 916.417 0.951182 4.89647 0
M  V30 9676 H 915.571 -1.15254 5.95652 0
M  V30 9677 H 914.31 -1.30146 4.70014 0
M  V30 9678 H 913.315 0.886075 5.42613 0
M  V30 9679 H 914.54 1.02067 6.71386 0
M  V30 9680 H 912.486 -1.20753 6.4479 0
M  V30 9681 H 912.403 0.119966 7.55905 0
M  V30 9682 H 913.671 -1.05787 7.72288 0
M  V30 9683 N 917.9 -1.47166 0.563914 0
M  V30 9684 C 919.128 -2.06846 0.0474287 0
M  V30 9685 C 919.543 -1.41557 -1.24928 0
M  V30 9686 O 918.9 -0.514376 -1.75101 0
M  V30 9687 C 918.951 -3.6121 -0.144831 0
M  V30 9688 O 918.672 -4.24052 1.10053 0
M  V30 9689 C 920.173 -4.37773 -0.69783 0
M  V30 9690 H 917.393 -0.669217 0.0488896 0
M  V30 9691 H 919.937 -1.89072 0.779235 0
M  V30 9692 H 918.092 -3.78474 -0.82679 0
M  V30 9693 H 918.506 -5.16677 0.902481 0
M  V30 9694 H 919.98 -5.46438 -0.781616 0
M  V30 9695 H 920.457 -4.04517 -1.71063 0
M  V30 9696 H 921.063 -4.25269 -0.0513516 0
M  V30 9697 N 919.378 -0.300708 -1.54705 0
M  V30 9698 C 920.341 0.562648 -2.22187 0
M  V30 9699 C 921.341 1.06152 -1.20782 0
M  V30 9700 O 922.531 0.957596 -1.45519 0
M  V30 9701 C 919.663 1.77899 -2.908 0
M  V30 9702 H 920.856 -0.0269361 -2.99888 0
M  V30 9703 H 918.409 -0.0515412 -1.56215 0
M  V30 9704 H 919.144 2.40841 -2.17177 0
M  V30 9705 H 918.929 1.42892 -3.65136 0
M  V30 9706 H 920.419 2.39236 -3.42281 0
M  V30 9707 N 920.856 1.57574 -0.0284266 0
M  V30 9708 C 922.105 1.9095 0.649704 0
M  V30 9709 C 922.418 0.906421 1.7333 0
M  V30 9710 O 923.624 1.1314 2.46803 0
M  V30 9711 C 922.08 3.39061 1.20687 0
M  V30 9712 C 921.688 4.47726 0.156597 0
M  V30 9713 C 923.432 3.81505 1.86156 0
M  V30 9714 C 921.339 5.86935 0.725365 0
M  V30 9715 H 920.269 0.712589 0.24644 0
M  V30 9716 H 922.92 1.83261 -0.0936143 0
M  V30 9717 H 921.302 3.41679 2.00178 0
M  V30 9718 H 922.476 4.56667 -0.6158 0
M  V30 9719 H 920.791 4.14481 -0.399288 0
M  V30 9720 H 923.388 4.82865 2.29665 0
M  V30 9721 H 923.731 3.16529 2.70398 0
M  V30 9722 H 924.264 3.81307 1.13356 0
M  V30 9723 H 921.003 6.55453 -0.0789081 0
M  V30 9724 H 920.523 5.81602 1.46627 0
M  V30 9725 H 922.202 6.35483 1.21532 0
M  V30 9726 N 922.334 -0.244713 1.55689 0
M  V30 9727 C 923.297 -1.2864 1.89695 0
M  V30 9728 C 924.297 -1.40969 0.773583 0
M  V30 9729 O 925.487 -1.39632 1.04156 0
M  V30 9730 C 922.619 -2.66379 2.12732 0
M  V30 9731 H 923.812 -0.997033 2.82841 0
M  V30 9732 H 921.365 -0.484103 1.48614 0
M  V30 9733 H 922.1 -3.00452 1.22062 0
M  V30 9734 H 921.885 -2.58812 2.94549 0
M  V30 9735 H 923.375 -3.41592 2.40218 0
M  V30 9736 N 923.813 -1.49104 -0.510467 0
M  V30 9737 C 925.041 -1.61806 -1.28944 0
M  V30 9738 C 925.456 -0.285774 -1.86625 0
M  V30 9739 O 924.813 0.727551 -1.67371 0
M  V30 9740 C 924.864 -2.67966 -2.42645 0
M  V30 9741 O 924.585 -3.96026 -1.87337 0
M  V30 9742 C 926.086 -2.91286 -3.34166 0
M  V30 9743 H 923.306 -0.544999 -0.391429 0
M  V30 9744 H 925.85 -1.95071 -0.613805 0
M  V30 9745 H 924.005 -2.37505 -3.06056 0
M  V30 9746 H 924.419 -4.54427 -2.61909 0
M  V30 9747 H 925.893 -3.69323 -4.1025 0
M  V30 9748 H 926.37 -2.00842 -3.90588 0
M  V30 9749 H 926.976 -3.23127 -2.76531 0
M  V30 9750 N 925.291 0.760815 -1.38019 0
M  V30 9751 C 926.537 1.52198 -1.34028 0
M  V30 9752 C 926.87 1.94067 0.0718309 0
M  V30 9753 O 926.145 1.64895 1.0315 0
M  V30 9754 C 926.428 2.77954 -2.2894 0
M  V30 9755 C 926.281 2.42269 -3.7898 0
M  V30 9756 C 927.6 3.79943 -2.22107 0
M  V30 9757 H 924.719 0.552131 -0.488181 0
M  V30 9758 H 927.361 0.871971 -1.6881 0
M  V30 9759 H 925.511 3.33419 -1.9941 0
M  V30 9760 H 927.183 1.92635 -4.19153 0
M  V30 9761 H 925.426 1.74822 -3.97014 0
M  V30 9762 H 926.097 3.32211 -4.4084 0
M  V30 9763 H 928.573 3.34 -2.4816 0
M  V30 9764 H 927.449 4.6564 -2.90639 0
M  V30 9765 H 927.71 4.25004 -1.21753 0
M  V30 9766 N 926.769 1.22769 0.988202 0
M  V30 9767 C 927.701 0.959757 2.08138 0
M  V30 9768 C 928.714 -0.0633787 1.62677 0
M  V30 9769 O 929.903 0.171203 1.77677 0
M  V30 9770 C 927.003 0.422724 3.36253 0
M  V30 9771 C 926.176 1.50419 4.10722 0
M  V30 9772 C 925.235 0.973407 5.17118 0
M  V30 9773 O 924.261 1.66066 5.44436 0
M  V30 9774 N 925.463 -0.202787 5.80146 0
M  V30 9775 H 928.228 1.9009 2.31702 0
M  V30 9776 H 925.789 1.13522 1.15431 0
M  V30 9777 H 927.781 0.0528514 4.04665 0
M  V30 9778 H 926.351 -0.423642 3.09716 0
M  V30 9779 H 925.571 2.04718 3.36874 0
M  V30 9780 H 926.859 2.23169 4.57245 0
M  V30 9781 H 926.257 -0.777856 5.60327 0
M  V30 9782 H 924.814 -0.513998 6.4977 0
M  V30 9783 N 928.247 -1.18576 1.03814 0
M  V30 9784 C 929.21 -2.2033 0.63146 0
M  V30 9785 C 930.21 -1.57787 -0.309816 0
M  V30 9786 O 931.4 -1.73938 -0.0955598 0
M  V30 9787 C 928.532 -3.40818 -0.0745963 0
M  V30 9788 H 929.725 -2.57824 1.53189 0
M  V30 9789 H 927.278 -1.32416 0.830398 0
M  V30 9790 H 928.013 -3.08853 -0.988947 0
M  V30 9791 H 927.798 -3.87453 0.6019 0
M  V30 9792 H 929.288 -4.16166 -0.345727 0
M  V30 9793 N 929.725 -0.817259 -1.34754 0
M  V30 9794 C 930.973 -0.401852 -1.98065 0
M  V30 9795 C 931.294 1.03718 -1.65129 0
M  V30 9796 O 930.564 1.71921 -0.939141 0
M  V30 9797 H 929.144 -0.145603 -0.732672 0
M  V30 9798 H 931.806 -1.04545 -1.64488 0
M  V30 9799 H 930.902 -0.516241 -3.07801 0
M  V30 9800 N 931.203 1.46865 -0.571711 0
M  V30 9801 C 932.166 2.28658 0.157499 0
M  V30 9802 C 933.166 1.37773 0.829172 0
M  V30 9803 O 934.356 1.6026 0.682811 0
M  V30 9804 C 931.488 3.17859 1.23202 0
M  V30 9805 H 932.681 2.94603 -0.561171 0
M  V30 9806 H 930.234 1.52793 -0.329229 0
M  V30 9807 H 930.969 2.56637 1.98262 0
M  V30 9808 H 930.754 3.84762 0.755031 0
M  V30 9809 H 932.244 3.7945 1.74378 0
M  V30 9810 N 932.681 0.308908 1.54543 0
M  V30 9811 C 933.591 -0.572939 2.27496 0
M  V30 9812 C 934.607 -1.14171 1.31305 0
M  V30 9813 O 935.783 -1.16481 1.64299 0
M  V30 9814 C 932.848 -1.72483 3.0075 0
M  V30 9815 C 931.909 -1.18934 4.12496 0
M  V30 9816 C 931.142 -2.28634 4.82247 0
M  V30 9817 O 931.365 -3.48691 4.5141 0
M  V30 9818 O 930.299 -1.94879 5.69478 0
M  V30 9819 H 934.125 0.0190877 3.03694 0
M  V30 9820 H 931.71 0.0750943 1.49211 0
M  V30 9821 H 933.592 -2.39578 3.46671 0
M  V30 9822 H 932.267 -2.30332 2.2744 0
M  V30 9823 H 931.174 -0.483904 3.70957 0
M  V30 9824 H 932.507 -0.656185 4.87806 0
M  V30 9825 N 934.159 -1.57557 0.0367827 0
M  V30 9826 C 935.408 -1.91291 -0.639569 0
M  V30 9827 C 935.721 -0.915601 -1.72847 0
M  V30 9828 O 936.927 -1.14447 -2.46199 0
M  V30 9829 C 935.383 -3.39697 -1.18888 0
M  V30 9830 C 934.991 -4.47803 -0.132851 0
M  V30 9831 C 936.735 -3.82487 -1.8413 0
M  V30 9832 C 934.642 -5.87311 -0.694229 0
M  V30 9833 H 933.572 -0.713886 -0.242658 0
M  V30 9834 H 936.223 -1.83209 0.103332 0
M  V30 9835 H 934.605 -3.42736 -1.98363 0
M  V30 9836 H 935.779 -4.56334 0.640009 0
M  V30 9837 H 934.094 -4.14264 0.421264 0
M  V30 9838 H 936.691 -4.84076 -2.27101 0
M  V30 9839 H 937.034 -3.17959 -2.68716 0
M  V30 9840 H 937.567 -3.81903 -1.11332 0
M  V30 9841 H 934.306 -6.55401 0.113667 0
M  V30 9842 H 933.826 -5.82371 -1.4354 0
M  V30 9843 H 935.505 -6.36119 -1.1816 0
M  V30 9844 N 935.637 0.236453 -1.55816 0
M  V30 9845 C 936.567 1.29639 -1.94206 0
M  V30 9846 C 937.548 1.49667 -0.808319 0
M  V30 9847 O 938.733 1.621 -1.06945 0
M  V30 9848 C 935.863 2.64914 -2.24584 0
M  V30 9849 C 934.817 2.59565 -3.40308 0
M  V30 9850 C 934.143 3.98732 -3.56254 0
M  V30 9851 C 935.443 2.15642 -4.75706 0
M  V30 9852 H 937.137 0.977552 -2.82992 0
M  V30 9853 H 934.683 0.468804 -1.36155 0
M  V30 9854 H 936.636 3.39209 -2.50031 0
M  V30 9855 H 935.36 2.98455 -1.32636 0
M  V30 9856 H 934.019 1.87728 -3.14887 0
M  V30 9857 H 933.667 4.29556 -2.61707 0
M  V30 9858 H 933.367 3.96039 -4.34082 0
M  V30 9859 H 934.891 4.74711 -3.84033 0
M  V30 9860 H 936.305 2.79673 -5.00456 0
M  V30 9861 H 934.702 2.24039 -5.56711 0
M  V30 9862 H 935.772 1.10831 -4.72064 0
M  V30 9863 N 937.115 1.49373 0.502552 0
M  V30 9864 C 938.361 1.59016 1.25864 0
M  V30 9865 C 938.694 0.27532 1.92238 0
M  V30 9866 O 937.969 -0.720988 1.80643 0
M  V30 9867 C 938.252 2.74828 2.32683 0
M  V30 9868 C 938.105 4.16102 1.7082 0
M  V30 9869 C 939.424 2.86288 3.34256 0
M  V30 9870 H 936.543 0.578798 0.456248 0
M  V30 9871 H 939.185 1.81651 0.557032 0
M  V30 9872 H 937.335 2.5566 2.92524 0
M  V30 9873 H 939.007 4.46782 1.14818 0
M  V30 9874 H 937.25 4.21822 1.01238 0
M  V30 9875 H 937.921 4.93006 2.48292 0
M  V30 9876 H 940.397 3.03733 2.84404 0
M  V30 9877 H 939.273 3.69001 4.06362 0
M  V30 9878 H 939.534 1.95576 3.96488 0
M  V30 9879 N 938.594 -0.753485 1.38421 0
M  V30 9880 C 939.524 -1.8808 1.38377 0
M  V30 9881 C 940.505 -1.68258 0.249664 0
M  V30 9882 O 941.69 -1.88848 0.45276 0
M  V30 9883 C 938.82 -3.25608 1.20818 0
M  V30 9884 C 937.774 -3.60032 2.31433 0
M  V30 9885 C 937.1 -4.96297 1.9898 0
M  V30 9886 C 938.4 -3.64898 3.73694 0
M  V30 9887 H 940.094 -1.88375 2.32713 0
M  V30 9888 H 937.64 -0.90489 1.12017 0
M  V30 9889 H 939.593 -4.04127 1.19412 0
M  V30 9890 H 938.317 -3.25793 0.229433 0
M  V30 9891 H 936.976 -2.83831 2.32025 0
M  V30 9892 H 936.624 -4.93043 0.995889 0
M  V30 9893 H 936.324 -5.20298 2.73063 0
M  V30 9894 H 937.848 -5.77196 1.99193 0
M  V30 9895 H 939.262 -4.33531 3.75132 0
M  V30 9896 H 937.659 -4.00407 4.46983 0
M  V30 9897 H 938.729 -2.65124 4.06002 0
M  V30 9898 N 940.072 -1.23292 -0.981677 0
M  V30 9899 C 941.3 -1.09088 -1.75805 0
M  V30 9900 C 941.715 0.357746 -1.8538 0
M  V30 9901 O 941.072 1.24751 -1.33205 0
M  V30 9902 C 941.123 -1.70885 -3.1856 0
M  V30 9903 O 940.844 -3.10082 -3.09484 0
M  V30 9904 C 942.345 -1.62106 -4.12597 0
M  V30 9905 H 939.565 -0.38184 -0.55176 0
M  V30 9906 H 942.109 -1.63116 -1.23342 0
M  V30 9907 H 940.264 -1.20893 -3.68054 0
M  V30 9908 H 940.678 -3.40039 -3.99342 0
M  V30 9909 H 942.152 -2.10049 -5.10474 0
M  V30 9910 H 942.629 -0.579642 -4.35358 0
M  V30 9911 H 943.235 -2.11457 -3.69007 0
M  V30 9912 N 941.55 1.18024 -1.04442 0
M  V30 9913 C 942.827 1.8398 -0.664125 0
M  V30 9914 C 943.207 1.92961 0.856116 0
M  V30 9915 O 942.555 1.45839 1.75907 0
M  V30 9916 C 942.765 3.22069 -1.34433 0
M  V30 9917 C 944.113 3.98063 -1.47754 0
M  V30 9918 O 945.137 3.31523 -1.30274 0
M  V30 9919 O 943.996 5.17291 -1.76272 0
M  V30 9920 H 941.09 0.793543 -0.23285 0
M  V30 9921 H 943.636 1.25385 -1.14354 0
M  V30 9922 H 942.408 3.10458 -2.38184 0
M  V30 9923 H 942.031 3.88325 -0.853782 0
M  V30 9924 N 943.028 0.824394 1.34319 0
M  V30 9925 C 944.444 0.510336 1.51221 0
M  V30 9926 C 944.644 -0.965201 1.76879 0
M  V30 9927 O 943.7 -1.74961 1.82057 0
M  V30 9928 C 945.013 1.37114 2.6762 0
M  V30 9929 C 946.561 1.36842 2.81502 0
M  V30 9930 C 947.036 2.21374 4.00946 0
M  V30 9931 N 948.527 2.19005 4.08156 0
M  V30 9932 C 949.262 2.81159 4.99737 0
M  V30 9933 N 948.758 3.52309 5.96532 0
M  V30 9934 N 950.551 2.70706 4.9262 0
M  V30 9935 H 942.702 1.77976 1.15924 0
M  V30 9936 H 944.965 0.758503 0.568663 0
M  V30 9937 H 944.671 2.41905 2.55294 0
M  V30 9938 H 944.545 1.03689 3.62669 0
M  V30 9939 H 946.932 0.328284 2.93268 0
M  V30 9940 H 947.013 1.74265 1.87257 0
M  V30 9941 H 946.657 3.25437 3.8994 0
M  V30 9942 H 946.587 1.813 4.94407 0
M  V30 9943 H 949.078 1.67252 3.38874 0
M  V30 9944 H 949.391 3.96977 6.63045 0
M  V30 9945 H 947.736 3.56415 5.96652 0
M  V30 9946 H 950.927 2.14694 4.15962 0
M  V30 9947 H 951.1 3.19431 5.63798 0
M  V30 9948 N 944.506 -1.46559 0.579492 0
M  V30 9949 C 945.917 -1.8608 0.152052 0
M  V30 9950 C 946.268 -1.48346 -1.28405 0
M  V30 9951 O 945.393 -0.89685 -1.9694 0
M  V30 9952 C 945.988 -3.37729 0.269171 0
M  V30 9953 C 944.547 -3.76258 -0.103376 0
M  V30 9954 C 943.694 -2.70584 0.60659 0
M  V30 9955 H 946.645 -1.3776 0.787904 0
M  V30 9956 H 946.666 -3.77116 -0.506339 0
M  V30 9957 H 946.178 -3.65162 1.31448 0
M  V30 9958 H 944.279 -3.54443 -1.14895 0
M  V30 9959 H 944.392 -4.78335 0.270701 0
M  V30 9960 H 942.756 -2.54656 0.0471984 0
M  V30 9961 H 943.539 -3.00856 1.65349 0
M  V30 9962 N 945.984 -0.3171 -1.54377 0
M  V30 9963 C 946.932 0.567371 -2.25574 0
M  V30 9964 C 947.926 1.12387 -1.2675 0
M  V30 9965 O 949.132 1.07266 -1.44548 0
M  V30 9966 H 945.507 0.201605 -0.724472 0
M  V30 9967 H 947.478 -0.0554644 -2.98348 0
M  V30 9968 C 946.227 1.71984 -3.02187 0
M  V30 9969 H 945.55 1.30086 -3.78044 0
M  V30 9970 H 946.99 2.31443 -3.5526 0
M  V30 9971 C 945.449 2.6336 -2.10103 0
M  V30 9972 O 945.979 3.64899 -1.67962 0
M  V30 9973 N 944.185 2.3145 -1.75725 0
M  V30 9974 H 943.732 1.48921 -2.10191 0
M  V30 9975 H 943.69 2.92852 -1.14391 0
M  V30 9976 N 947.462 1.57535 -0.0451378 0
M  V30 9977 C 948.71 1.92071 0.628743 0
M  V30 9978 C 949.031 0.923635 1.71738 0
M  V30 9979 O 948.301 -0.0324376 1.95873 0
M  V30 9980 H 946.881 0.708995 0.235233 0
M  V30 9981 H 949.543 1.9466 -0.0967177 0
M  V30 9982 H 948.639 2.9314 1.07123 0
M  V30 9983 N 948.94 -0.228186 1.55939 0
M  V30 9984 C 949.903 -1.26621 1.91049 0
M  V30 9985 C 950.903 -1.40141 0.788491 0
M  V30 9986 O 952.093 -1.3852 1.05631 0
M  V30 9987 C 949.225 -2.64108 2.15545 0
M  V30 9988 H 950.418 -0.966978 2.83883 0
M  V30 9989 H 947.971 -0.468313 1.49119 0
M  V30 9990 H 948.706 -2.99141 1.25241 0
M  V30 9991 H 948.491 -2.55673 2.97277 0
M  V30 9992 H 949.981 -3.39025 2.43827 0
M  V30 9993 N 950.418 -1.49637 -0.494624 0
M  V30 9994 C 951.667 -1.58691 -1.24499 0
M  V30 9995 C 951.98 -0.281763 -1.9356 0
M  V30 9996 O 953.186 -0.250925 -2.70338 0
M  V30 9997 C 951.642 -2.8002 -2.26091 0
M  V30 9998 C 951.25 -4.17318 -1.6294 0
M  V30 9999 C 952.994 -2.98407 -3.01916 0
M  V30 10000 C 950.901 -5.29862 -2.62679 0
M  V30 10001 H 949.831 -0.590888 -0.468367 0
M  V30 10002 H 952.482 -1.76034 -0.518112 0
M  V30 10003 H 950.864 -2.56185 -3.01969 0
M  V30 10004 H 952.038 -4.51315 -0.930108 0
M  V30 10005 H 950.353 -4.04342 -0.994819 0
M  V30 10006 H 952.95 -3.79658 -3.76516 0
M  V30 10007 H 953.293 -2.09214 -3.5991 0
M  V30 10008 H 953.826 -3.22312 -2.33152 0
M  V30 10009 H 950.565 -6.21134 -2.09458 0
M  V30 10010 H 950.085 -5.00311 -3.3083 0
M  V30 10011 H 951.764 -5.59461 -3.2498 0
M  V30 10012 N 951.896 0.746133 -1.38819 0
M  V30 10013 C 952.826 1.87344 -1.39372 0
M  V30 10014 C 953.807 1.68123 -0.258583 0
M  V30 10015 O 954.992 1.88606 -0.462769 0
M  V30 10016 C 952.122 3.24962 -1.22543 0
M  V30 10017 C 951.076 3.58799 -2.33339 0
M  V30 10018 C 950.402 4.95235 -2.01609 0
M  V30 10019 C 951.702 3.62911 -3.75624 0
M  V30 10020 H 953.396 1.87138 -2.33709 0
M  V30 10021 H 950.942 0.898937 -1.12495 0
M  V30 10022 H 952.895 4.03488 -1.21554 0
M  V30 10023 H 951.619 3.25667 -0.246707 0
M  V30 10024 H 950.278 2.82596 -2.33527 0
M  V30 10025 H 949.926 4.92508 -1.02202 0
M  V30 10026 H 949.626 5.18843 -2.75819 0
M  V30 10027 H 951.15 5.76131 -2.02251 0
M  V30 10028 H 952.564 4.31535 -3.77426 0
M  V30 10029 H 950.961 3.98031 -4.491 0
M  V30 10030 H 952.031 2.62967 -4.07402 0
M  V30 10031 N 953.375 1.23811 0.975125 0
M  V30 10032 C 954.603 1.10019 1.75224 0
M  V30 10033 C 955.018 -0.34791 1.85567 0
M  V30 10034 O 954.375 -1.24043 1.33864 0
M  V30 10035 C 954.426 1.72572 3.1765 0
M  V30 10036 O 954.147 3.11719 3.07836 0
M  V30 10037 C 955.648 1.64292 4.11732 0
M  V30 10038 H 952.868 0.38476 0.549728 0
M  V30 10039 H 955.412 1.63768 1.22476 0
M  V30 10040 H 953.567 1.22843 3.67408 0
M  V30 10041 H 953.981 3.42152 3.97533 0
M  V30 10042 H 955.455 2.12754 5.09352 0
M  V30 10043 H 955.932 0.602722 4.35045 0
M  V30 10044 H 956.538 2.13411 3.6788 0
M  V30 10045 N 954.853 -1.17469 1.05066 0
M  V30 10046 C 955.763 -2.25089 0.661222 0
M  V30 10047 C 956.779 -1.71086 -0.31712 0
M  V30 10048 O 957.955 -2.00685 -0.169534 0
M  V30 10049 C 955.02 -3.46676 0.0406415 0
M  V30 10050 C 954.081 -4.15771 1.06927 0
M  V30 10051 C 953.314 -5.31553 0.478208 0
M  V30 10052 O 953.537 -5.6593 -0.712714 0
M  V30 10053 O 952.471 -5.89574 1.21185 0
M  V30 10054 H 956.297 -2.60685 1.5581 0
M  V30 10055 H 953.882 -1.24744 0.822147 0
M  V30 10056 H 955.764 -4.203 -0.304312 0
M  V30 10057 H 954.439 -3.1288 -0.829909 0
M  V30 10058 H 953.346 -3.44171 1.46619 0
M  V30 10059 H 954.679 -4.53591 1.91092 0
M  V30 10060 N 956.331 -0.831506 -1.3388 0
M  V30 10061 C 957.279 -0.247896 -2.31275 0
M  V30 10062 C 958.273 0.616083 -1.578 0
M  V30 10063 O 959.479 0.506465 -1.72728 0
M  V30 10064 H 955.854 -0.0614293 -0.749487 0
M  V30 10065 H 957.825 -1.08401 -2.78014 0
M  V30 10066 C 956.574 0.568434 -3.43022 0
M  V30 10067 H 955.897 -0.0870654 -3.99705 0
M  V30 10068 H 957.337 0.942751 -4.13386 0
M  V30 10069 C 955.796 1.74431 -2.88228 0
M  V30 10070 O 956.326 2.84278 -2.83811 0
M  V30 10071 N 954.532 1.56382 -2.44935 0
M  V30 10072 H 954.079 0.670255 -2.48727 0
M  V30 10073 H 954.037 2.35208 -2.08625 0
M  V30 10074 N 957.809 1.4625 -0.587256 0
M  V30 10075 C 958.741 2.28482 0.181256 0
M  V30 10076 C 959.754 1.38777 0.851163 0
M  V30 10077 O 960.943 1.63336 0.719963 0
M  V30 10078 C 958.043 3.13944 1.27643 0
M  V30 10079 C 957.216 4.31802 0.697569 0
M  V30 10080 C 956.275 4.98626 1.68102 0
M  V30 10081 O 955.301 5.56075 1.21529 0
M  V30 10082 N 956.503 4.96051 3.0152 0
M  V30 10083 H 959.268 2.95079 -0.524267 0
M  V30 10084 H 956.829 1.56213 -0.425336 0
M  V30 10085 H 958.821 3.55513 1.93371 0
M  V30 10086 H 957.391 2.49391 1.88475 0
M  V30 10087 H 956.611 3.93961 -0.137293 0
M  V30 10088 H 957.899 5.07969 0.290696 0
M  V30 10089 H 957.297 4.5063 3.41978 0
M  V30 10090 H 955.854 5.41547 3.62725 0
M  V30 10091 N 959.287 0.325282 1.54207 0
M  V30 10092 C 960.512 -0.281418 2.05482 0
M  V30 10093 C 960.937 -1.44869 1.19977 0
M  V30 10094 O 960.295 -1.80088 0.209275 0
M  V30 10095 C 960.343 -0.692029 3.53897 0
M  V30 10096 O 959.447 -1.7942 3.71325 0
M  V30 10097 H 958.788 -0.0504872 0.662078 0
M  V30 10098 H 961.318 0.474191 1.99029 0
M  V30 10099 H 961.328 -0.974219 3.96198 0
M  V30 10100 H 960.003 0.161709 4.15586 0
M  V30 10101 H 958.58 -1.51069 3.40929 0
M  V30 10102 N 960.765 -1.57509 0.0534917 0
M  V30 10103 C 962.012 -1.92782 -0.619772 0
M  V30 10104 C 962.34 -0.932046 -1.70714 0
M  V30 10105 O 961.595 0.0552891 -1.95622 0
M  V30 10106 C 961.894 -3.34734 -1.25251 0
M  V30 10107 C 961.56 -4.49946 -0.293113 0
M  V30 10108 C 960.222 -4.81191 -0.0291223 0
M  V30 10109 C 962.574 -5.19925 0.364271 0
M  V30 10110 C 959.902 -5.79761 0.899649 0
M  V30 10111 C 962.254 -6.19489 1.28125 0
M  V30 10112 C 960.918 -6.49161 1.55389 0
M  V30 10113 H 960.188 -0.705441 -0.226791 0
M  V30 10114 H 962.835 -1.91121 0.120466 0
M  V30 10115 H 961.14 -3.32774 -2.06807 0
M  V30 10116 H 962.837 -3.59308 -1.78042 0
M  V30 10117 H 959.427 -4.25566 -0.509053 0
M  V30 10118 H 963.611 -4.95997 0.173411 0
M  V30 10119 H 958.867 -6.01085 1.11833 0
M  V30 10120 H 963.041 -6.72824 1.79669 0
M  V30 10121 H 960.668 -7.25354 2.2752 0
M  V30 10122 N 962.243 0.219913 -1.56058 0
M  V30 10123 C 963.492 0.942119 -1.78345 0
M  V30 10124 C 963.805 1.85435 -0.622344 0
M  V30 10125 O 965.011 2.61533 -0.728886 0
M  V30 10126 C 963.467 1.72544 -3.15843 0
M  V30 10127 C 963.075 0.859263 -4.39682 0
M  V30 10128 C 964.819 2.43876 -3.47455 0
M  V30 10129 C 962.726 1.64003 -5.68205 0
M  V30 10130 H 961.656 0.355514 -0.664925 0
M  V30 10131 H 964.307 0.195963 -1.82451 0
M  V30 10132 H 962.689 2.51456 -3.05918 0
M  V30 10133 H 963.863 0.110562 -4.60667 0
M  V30 10134 H 962.178 0.257985 -4.156 0
M  V30 10135 H 964.775 3.02794 -4.40704 0
M  V30 10136 H 965.118 3.16843 -2.7003 0
M  V30 10137 H 965.651 1.71952 -3.58716 0
M  V30 10138 H 962.39 0.953606 -6.48526 0
M  V30 10139 H 961.91 2.3633 -5.51279 0
M  V30 10140 H 963.589 2.20028 -6.08438 0
M  V30 10141 N 963.721 1.49897 0.486681 0
M  V30 10142 C 965.132 1.53142 1.06792 0
M  V30 10143 C 965.483 0.325856 1.93475 0
M  V30 10144 O 964.608 -0.562893 2.08951 0
M  V30 10145 C 965.203 2.77514 1.94348 0
M  V30 10146 C 963.762 2.83491 2.47609 0
M  V30 10147 C 962.909 2.47239 1.2557 0
M  V30 10148 H 965.86 1.56387 0.269962 0
M  V30 10149 H 965.881 2.58487 2.79221 0
M  V30 10150 H 965.393 3.65239 1.31232 0
M  V30 10151 H 963.494 2.0008 3.14323 0
M  V30 10152 H 963.607 3.86011 2.83782 0
M  V30 10153 H 961.971 1.99332 1.58552 0
M  V30 10154 H 962.754 3.37255 0.641404 0
M  V30 10155 N 965.199 -0.738761 1.39212 0
M  V30 10156 C 966.61 -1.31684 1.32348 0
M  V30 10157 C 966.961 -1.96195 -0.0139041 0
M  V30 10158 O 966.086 -1.96056 -0.916025 0
M  V30 10159 C 966.681 -2.39444 2.39691 0
M  V30 10160 C 965.24 -2.92935 2.36359 0
M  V30 10161 C 964.387 -1.66465 2.21776 0
M  V30 10162 H 967.338 -0.536543 1.49355 0
M  V30 10163 H 967.359 -3.19744 2.06262 0
M  V30 10164 H 966.871 -1.92463 3.37016 0
M  V30 10165 H 964.972 -3.44207 1.42662 0
M  V30 10166 H 965.085 -3.46306 3.31073 0
M  V30 10167 H 963.449 -1.90657 1.68884 0
M  V30 10168 H 964.232 -1.21541 3.21065 0
M  V30 10169 N 966.677 -1.24326 -0.968545 0
M  V30 10170 C 967.607 -1.05951 -2.08079 0
M  V30 10171 C 968.588 0.0272666 -1.70078 0
M  V30 10172 O 969.773 -0.139644 -1.93697 0
M  V30 10173 C 966.903 -0.662623 -3.4092 0
M  V30 10174 C 965.857 -1.69807 -3.92873 0
M  V30 10175 C 965.183 -1.15628 -5.22048 0
M  V30 10176 C 966.483 -3.09383 -4.20808 0
M  V30 10177 H 968.177 -1.98984 -2.23709 0
M  V30 10178 H 965.723 -0.958112 -1.075 0
M  V30 10179 H 967.676 -0.521071 -4.18166 0
M  V30 10180 H 966.4 0.303399 -3.25188 0
M  V30 10181 H 965.059 -1.82783 -3.17783 0
M  V30 10182 H 964.707 -0.180888 -5.02675 0
M  V30 10183 H 964.407 -1.84822 -5.57776 0
M  V30 10184 H 965.931 -1.02683 -6.01904 0
M  V30 10185 H 967.345 -2.99642 -4.88761 0
M  V30 10186 H 965.742 -3.75923 -4.67763 0
M  V30 10187 H 966.812 -3.57486 -3.27616 0
M  V30 10188 N 968.156 1.1691 -1.05688 0
M  V30 10189 C 969.086 2.23275 -0.683402 0
M  V30 10190 C 970.067 1.6704 0.321206 0
M  V30 10191 O 971.252 1.93191 0.197691 0
M  V30 10192 C 968.382 3.47244 -0.0626006 0
M  V30 10193 C 967.336 4.16333 -0.992513 0
M  V30 10194 C 966.662 5.34182 -0.23533 0
M  V30 10195 C 967.962 4.68002 -2.31886 0
M  V30 10196 H 969.656 2.54771 -1.57264 0
M  V30 10197 H 967.202 1.2246 -0.757606 0
M  V30 10198 H 969.155 4.20874 0.210503 0
M  V30 10199 H 967.879 3.1503 0.861616 0
M  V30 10200 H 966.538 3.44622 -1.25026 0
M  V30 10201 H 966.186 4.9822 0.69181 0
M  V30 10202 H 965.886 5.81346 -0.855002 0
M  V30 10203 H 967.41 6.10592 0.0303717 0
M  V30 10204 H 968.824 5.33244 -2.10531 0
M  V30 10205 H 967.221 5.25764 -2.89296 0
M  V30 10206 H 968.291 3.84541 -2.95391 0
M  V30 10207 N 969.634 0.838594 1.33437 0
M  V30 10208 C 970.597 0.276843 2.27522 0
M  V30 10209 C 971.597 -0.554275 1.50945 0
M  V30 10210 O 972.787 -0.368107 1.70266 0
M  V30 10211 C 969.919 -0.610036 3.35397 0
M  V30 10212 H 971.112 1.10705 2.78719 0
M  V30 10213 H 968.665 0.611657 1.43835 0
M  V30 10214 H 969.4 -1.46269 2.89441 0
M  V30 10215 H 969.185 -0.0153615 3.92097 0
M  V30 10216 H 970.675 -0.996368 4.05539 0
M  V30 10217 N 971.112 -1.45937 0.595003 0
M  V30 10218 C 972.358 -2.0262 0.0854317 0
M  V30 10219 C 972.691 -1.46402 -1.27594 0
M  V30 10220 O 971.966 -0.633823 -1.83883 0
M  V30 10221 C 972.249 -3.60085 0.0329075 0
M  V30 10222 C 972.102 -4.26663 1.42405 0
M  V30 10223 C 973.421 -4.35101 -0.661426 0
M  V30 10224 H 970.54 -0.736282 0.0325196 0
M  V30 10225 H 973.182 -1.73938 0.764563 0
M  V30 10226 H 971.332 -3.84652 -0.545439 0
M  V30 10227 H 973.004 -4.13321 2.04851 0
M  V30 10228 H 971.247 -3.85549 1.98833 0
M  V30 10229 H 971.918 -5.35497 1.33965 0
M  V30 10230 H 974.394 -4.15753 -0.169977 0
M  V30 10231 H 973.27 -5.44829 -0.667243 0
M  V30 10232 H 973.531 -4.07053 -1.72513 0
M  V30 10233 N 972.59 -0.333456 -1.54032 0
M  V30 10234 C 973.838 0.265608 -2.00347 0
M  V30 10235 C 974.159 1.51873 -1.2231 0
M  V30 10236 O 973.429 1.93142 -0.327549 0
M  V30 10237 H 972.009 0.101135 -0.740122 0
M  V30 10238 H 974.671 -0.452285 -1.8958 0
M  V30 10239 H 973.767 0.51511 -3.0782 0
M  V30 10240 N 974.068 1.57479 -0.061844 0
M  V30 10241 C 975.031 2.1104 0.894127 0
M  V30 10242 C 976.031 1.03227 1.23292 0
M  V30 10243 O 977.221 1.29256 1.16784 0
M  V30 10244 C 974.353 2.6035 2.20069 0
M  V30 10245 H 975.546 2.96807 0.429619 0
M  V30 10246 H 973.099 1.55181 0.18672 0
M  V30 10247 H 973.834 1.78008 2.71079 0
M  V30 10248 H 973.619 3.39146 1.9678 0
M  V30 10249 H 975.109 3.019 2.88525 0
M  V30 10250 N 975.546 -0.211634 1.56173 0
M  V30 10251 C 976.792 -0.935935 1.79911 0
M  V30 10252 C 977.125 -1.83589 0.633155 0
M  V30 10253 O 976.4 -1.91004 -0.367132 0
M  V30 10254 C 976.683 -1.76638 3.13801 0
M  V30 10255 C 976.536 -0.892259 4.40861 0
M  V30 10256 C 977.855 -2.74224 3.44223 0
M  V30 10257 H 974.974 -0.338822 0.654499 0
M  V30 10258 H 977.616 -0.20422 1.88899 0
M  V30 10259 H 975.766 -2.39021 3.0627 0
M  V30 10260 H 977.438 -0.284407 4.60422 0
M  V30 10261 H 975.681 -0.198145 4.33347 0
M  V30 10262 H 976.352 -1.50793 5.31004 0
M  V30 10263 H 978.828 -2.21975 3.51946 0
M  V30 10264 H 977.704 -3.29424 4.39057 0
M  V30 10265 H 977.965 -3.52455 2.66885 0
M  V30 10266 N 977.024 -1.50153 -0.478725 0
M  V30 10267 C 977.974 -1.64848 -1.57509 0
M  V30 10268 C 978.958 -0.503327 -1.52825 0
M  V30 10269 O 980.15 -0.75737 -1.59978 0
M  V30 10270 C 977.279 -1.73893 -2.96 0
M  V30 10271 C 976.365 -2.9406 -3.05597 0
M  V30 10272 N 976.756 -4.17844 -2.85027 0
M  V30 10273 C 975.054 -2.92459 -3.36725 0
M  V30 10274 C 975.755 -4.98739 -2.9939 0
M  V30 10275 N 974.731 -4.32542 -3.29255 0
M  V30 10276 H 978.533 -2.58254 -1.40293 0
M  V30 10277 H 976.047 -1.47232 -0.685307 0
M  V30 10278 H 978.044 -1.82523 -3.74821 0
M  V30 10279 H 976.704 -0.816402 -3.14269 0
M  V30 10280 H 977.715 -4.47465 -2.60759 0
M  V30 10281 H 974.392 -2.09675 -3.6103 0
M  V30 10282 H 975.782 -6.07146 -2.8779 0
M  V30 10283 N 978.502 0.731368 -1.39602 0
M  V30 10284 C 979.452 1.83662 -1.35101 0
M  V30 10285 C 980.436 1.5923 -0.231241 0
M  V30 10286 O 981.628 1.70671 -0.469072 0
M  V30 10287 C 978.757 3.21629 -1.20041 0
M  V30 10288 C 977.843 3.51878 -2.36733 0
M  V30 10289 N 978.234 3.53041 -3.6221 0
M  V30 10290 C 976.532 3.82259 -2.2977 0
M  V30 10291 C 977.233 3.81188 -4.39398 0
M  V30 10292 N 976.209 3.99145 -3.69031 0
M  V30 10293 H 980.011 1.82871 -2.30077 0
M  V30 10294 H 977.525 0.929777 -1.3315 0
M  V30 10295 H 979.522 4.00754 -1.14899 0
M  V30 10296 H 978.182 3.23656 -0.260184 0
M  V30 10297 H 979.193 3.34266 -3.95584 0
M  V30 10298 H 975.87 3.9187 -1.44029 0
M  V30 10299 H 977.26 3.88525 -5.48177 0
M  V30 10300 N 979.98 1.24838 0.961938 0
M  V30 10301 C 980.93 1.01276 2.04272 0
M  V30 10302 C 981.914 -0.0478239 1.60829 0
M  V30 10303 O 983.106 0.166616 1.76214 0
M  V30 10304 C 980.235 0.625659 3.37551 0
M  V30 10305 C 979.321 1.72262 3.87539 0
M  V30 10306 N 979.712 2.95644 4.104 0
M  V30 10307 C 978.01 1.60146 4.16256 0
M  V30 10308 C 978.711 3.66796 4.51482 0
M  V30 10309 N 977.687 2.94383 4.56989 0
M  V30 10310 H 981.489 1.94956 2.19931 0
M  V30 10311 H 979.003 1.15049 1.14619 0
M  V30 10312 H 981 0.438072 4.14592 0
M  V30 10313 H 979.66 -0.303887 3.23275 0
M  V30 10314 H 980.671 3.31764 3.97685 0
M  V30 10315 H 977.348 0.740353 4.10883 0
M  V30 10316 H 978.738 4.72664 4.77534 0
M  V30 10317 N 981.458 -1.16348 1.06306 0
M  V30 10318 C 982.388 -2.2291 0.695234 0
M  V30 10319 C 983.369 -1.67208 -0.312343 0
M  V30 10320 O 984.554 -1.93293 -0.187442 0
M  V30 10321 C 981.684 -3.47205 0.0810149 0
M  V30 10322 C 980.638 -4.15801 1.01458 0
M  V30 10323 C 979.964 -5.3405 0.263656 0
M  V30 10324 C 981.264 -4.66766 2.34365 0
M  V30 10325 H 982.958 -2.53934 1.58613 0
M  V30 10326 H 980.504 -1.22056 0.76409 0
M  V30 10327 H 982.457 -4.2098 -0.18818 0
M  V30 10328 H 981.181 -3.15482 -0.844897 0
M  V30 10329 H 979.84 -3.43954 1.26852 0
M  V30 10330 H 979.488 -4.9858 -0.665378 0
M  V30 10331 H 979.188 -5.80885 0.88582 0
M  V30 10332 H 980.712 -6.106 0.00200994 0
M  V30 10333 H 982.126 -5.3212 2.13356 0
M  V30 10334 H 980.523 -5.24223 2.9208 0
M  V30 10335 H 981.593 -3.82969 2.97426 0
M  V30 10336 N 982.937 -0.845659 -1.3299 0
M  V30 10337 C 984.186 -0.440928 -1.96822 0
M  V30 10338 C 984.499 1.00668 -1.67706 0
M  V30 10339 O 985.705 1.51641 -2.25205 0
M  V30 10340 C 984.161 -0.73752 -3.52262 0
M  V30 10341 C 983.769 -2.20026 -3.90247 0
M  V30 10342 C 985.513 -0.400072 -4.22611 0
M  V30 10343 C 983.42 -2.44054 -5.38694 0
M  V30 10344 H 982.35 -0.161148 -0.736578 0
M  V30 10345 H 985.001 -1.03519 -1.51513 0
M  V30 10346 H 983.383 -0.0728025 -3.95933 0
M  V30 10347 H 984.557 -2.90602 -3.57613 0
M  V30 10348 H 982.872 -2.50135 -3.32899 0
M  V30 10349 H 985.469 -0.557136 -5.3179 0
M  V30 10350 H 985.812 0.657547 -4.11074 0
M  V30 10351 H 986.345 -1.0203 -3.84493 0
M  V30 10352 H 983.084 -3.48407 -5.55241 0
M  V30 10353 H 982.604 -1.78047 -5.72765 0
M  V30 10354 H 984.283 -2.27549 -6.05665 0
M  V30 10355 N 984.415 1.45619 -0.602734 0
M  V30 10356 C 985.831 1.57368 -0.26599 0
M  V30 10357 C 986.031 1.59485 1.23154 0
M  V30 10358 O 985.087 1.52254 2.01432 0
M  V30 10359 C 986.4 2.85863 -0.932881 0
M  V30 10360 C 987.948 2.9953 -0.908344 0
M  V30 10361 C 988.423 4.30789 -1.55515 0
M  V30 10362 N 989.914 4.37536 -1.52042 0
M  V30 10363 C 990.649 5.37758 -1.99008 0
M  V30 10364 N 990.145 6.44544 -2.54038 0
M  V30 10365 N 991.938 5.29085 -1.89805 0
M  V30 10366 H 984.089 1.42489 -1.57514 0
M  V30 10367 H 986.352 0.680948 -0.659556 0
M  V30 10368 H 986.058 2.90183 -1.98713 0
M  V30 10369 H 985.932 3.74467 -0.453209 0
M  V30 10370 H 988.319 2.9478 0.137344 0
M  V30 10371 H 988.4 2.12349 -1.42623 0
M  V30 10372 H 988.044 4.36297 -2.60014 0
M  V30 10373 H 987.974 5.16778 -1.01232 0
M  V30 10374 H 990.465 3.60972 -1.11837 0
M  V30 10375 H 990.778 7.17258 -2.87682 0
M  V30 10376 H 989.123 6.45308 -2.58075 0
M  V30 10377 H 992.314 4.44566 -1.46556 0
M  V30 10378 H 992.487 6.07043 -2.26722 0
M  V30 10379 N 985.893 0.34162 1.53853 0
M  V30 10380 C 986.856 -0.503541 2.236 0
M  V30 10381 C 987.856 -1.02912 1.23554 0
M  V30 10382 O 989.046 -0.918678 1.48007 0
M  V30 10383 C 986.178 -1.70126 2.95415 0
M  V30 10384 H 987.371 0.106437 2.99711 0
M  V30 10385 H 984.924 0.0929408 1.56023 0
M  V30 10386 H 985.659 -2.34999 2.23486 0
M  V30 10387 H 985.444 -1.33161 3.68796 0
M  V30 10388 H 986.934 -2.30077 3.48503 0
M  V30 10389 N 987.371 -1.57444 0.0701946 0
M  V30 10390 C 988.619 -1.93047 -0.598106 0
M  V30 10391 C 988.94 -0.950841 -1.70247 0
M  V30 10392 O 988.21 0.00127177 -1.959 0
M  V30 10393 H 986.79 -0.712648 -0.223924 0
M  V30 10394 H 989.452 -1.94481 0.127674 0
M  V30 10395 H 988.548 -2.94807 -1.02445 0
M  V30 10396 N 988.849 0.203349 -1.56283 0
M  V30 10397 C 989.779 1.2549 -1.96912 0
M  V30 10398 C 990.76 1.47919 -0.839884 0
M  V30 10399 O 991.945 1.59795 -1.10359 0
M  V30 10400 C 989.075 2.6009 -2.30153 0
M  V30 10401 C 988.029 2.52289 -3.45738 0
M  V30 10402 C 987.355 3.91086 -3.64632 0
M  V30 10403 C 988.655 2.05503 -4.80173 0
M  V30 10404 H 990.349 0.917306 -2.85002 0
M  V30 10405 H 987.895 0.439818 -1.37119 0
M  V30 10406 H 989.848 3.33829 -2.5717 0
M  V30 10407 H 988.572 2.95574 -1.38937 0
M  V30 10408 H 987.231 1.81006 -3.18798 0
M  V30 10409 H 986.879 4.23908 -2.7076 0
M  V30 10410 H 986.579 3.86742 -4.42385 0
M  V30 10411 H 988.103 4.66459 -3.94016 0
M  V30 10412 H 989.517 2.68995 -5.06275 0
M  V30 10413 H 987.914 2.1218 -5.61337 0
M  V30 10414 H 988.984 1.00793 -4.74309 0
M  V30 10415 N 990.327 1.50405 0.470755 0
M  V30 10416 C 991.743 1.37838 0.804534 0
M  V30 10417 C 991.943 0.434743 1.96754 0
M  V30 10418 O 990.999 -0.122507 2.52203 0
M  V30 10419 C 992.312 2.79212 1.11629 0
M  V30 10420 C 993.86 2.88129 1.22272 0
M  V30 10421 C 994.335 4.30337 1.5676 0
M  V30 10422 N 995.826 4.3329 1.63751 0
M  V30 10423 C 996.561 5.4032 1.91942 0
M  V30 10424 N 996.057 6.57558 2.18151 0
M  V30 10425 N 997.85 5.27764 1.93446 0
M  V30 10426 H 990.001 2.10332 -0.295689 0
M  V30 10427 H 992.264 0.945429 -0.0697733 0
M  V30 10428 H 991.97 3.50103 0.334778 0
M  V30 10429 H 991.844 3.16475 2.0524 0
M  V30 10430 H 994.231 2.17457 1.9949 0
M  V30 10431 H 994.312 2.54409 0.2664 0
M  V30 10432 H 993.956 5.01547 0.800817 0
M  V30 10433 H 993.886 4.61545 2.53543 0
M  V30 10434 H 996.377 3.48752 1.45535 0
M  V30 10435 H 996.69 7.34935 2.38936 0
M  V30 10436 H 995.035 6.60732 2.15542 0
M  V30 10437 H 998.226 4.35169 1.72468 0
M  V30 10438 H 998.399 6.11264 2.15081 0
M  V30 10439 N 991.805 -0.723954 1.39988 0
M  V30 10440 C 992.735 -1.85103 1.42335 0
M  V30 10441 C 993.716 -1.6769 0.285297 0
M  V30 10442 O 994.901 -1.87846 0.492716 0
M  V30 10443 C 992.031 -3.22972 1.27697 0
M  V30 10444 C 990.985 -3.55041 2.39018 0
M  V30 10445 C 990.311 -4.91965 2.09462 0
M  V30 10446 C 991.611 -3.56889 3.8135 0
M  V30 10447 H 993.305 -1.83396 2.36656 0
M  V30 10448 H 990.851 -0.880926 1.13911 0
M  V30 10449 H 992.804 -4.01503 1.27958 0
M  V30 10450 H 991.528 -3.25233 0.298487 0
M  V30 10451 H 990.187 -2.78845 2.37993 0
M  V30 10452 H 989.835 -4.90819 1.10025 0
M  V30 10453 H 989.535 -5.14389 2.84038 0
M  V30 10454 H 991.059 -5.7284 2.11391 0
M  V30 10455 H 992.473 -4.25476 3.84243 0
M  V30 10456 H 990.87 -3.90836 4.55376 0
M  V30 10457 H 991.94 -2.56452 4.11534 0
M  V30 10458 N 993.283 -1.25346 -0.955304 0
M  V30 10459 C 994.23 -1.05672 -2.05188 0
M  V30 10460 C 995.2 0.0339217 -1.66065 0
M  V30 10461 O 996.385 -0.123126 -1.90402 0
M  V30 10462 C 993.525 -0.680791 -3.38318 0
M  V30 10463 C 992.638 -1.84622 -3.90562 0
M  V30 10464 C 991.773 -1.41471 -5.12015 0
M  V30 10465 C 990.812 -2.54931 -5.56486 0
M  V30 10466 N 989.949 -2.1256 -6.69151 0
M  V30 10467 H 994.789 -1.9952 -2.2135 0
M  V30 10468 H 992.326 -0.993588 -1.08472 0
M  V30 10469 H 994.284 -0.443794 -4.14833 0
M  V30 10470 H 992.914 0.2207 -3.22045 0
M  V30 10471 H 991.966 -2.19654 -3.10574 0
M  V30 10472 H 993.278 -2.6983 -4.19515 0
M  V30 10473 H 992.432 -1.13732 -5.95945 0
M  V30 10474 H 991.171 -0.533334 -4.84775 0
M  V30 10475 H 990.176 -2.83415 -4.71122 0
M  V30 10476 H 991.401 -3.43645 -5.85734 0
M  V30 10477 H 989.347 -1.26838 -6.43621 0
M  V30 10478 H 989.264 -2.91317 -6.97618 0
M  V30 10479 H 990.532 -1.87996 -7.5649 0
M  V30 10480 N 994.761 1.15782 -1.06922 0
M  V30 10481 C 995.724 2.18578 -0.689654 0
M  V30 10482 C 996.724 1.58553 0.267872 0
M  V30 10483 O 997.914 1.7413 0.0494097 0
M  V30 10484 C 995.046 3.40896 -0.0157919 0
M  V30 10485 H 996.239 2.53672 -1.59971 0
M  V30 10486 H 993.792 1.30168 -0.865214 0
M  V30 10487 H 994.527 3.11367 0.906712 0
M  V30 10488 H 994.312 3.85721 -0.704415 0
M  V30 10489 H 995.802 4.16937 0.235266 0
M  V30 10490 N 996.239 0.8527 1.3254 0
M  V30 10491 C 997.464 0.468157 2.02047 0
M  V30 10492 C 997.889 -0.926967 1.63673 0
M  V30 10493 O 997.247 -1.60855 0.836378 0
M  V30 10494 C 997.295 0.612519 3.5536 0
M  V30 10495 O 996.399 -0.355506 4.10865 0
M  V30 10496 H 995.74 0.188401 0.636711 0
M  V30 10497 H 998.27 1.15135 1.6913 0
M  V30 10498 H 998.28 0.499315 4.04933 0
M  V30 10499 H 996.955 1.62988 3.82632 0
M  V30 10500 H 995.532 -0.198703 3.7237 0
M  V30 10501 N 997.718 -1.45297 0.610449 0
M  V30 10502 C 998.648 -2.33311 -0.0939698 0
M  V30 10503 C 999.629 -1.46999 -0.85588 0
M  V30 10504 O 1000.81 -1.75764 -0.825865 0
M  V30 10505 C 997.944 -3.29751 -1.09003 0
M  V30 10506 C 996.898 -4.2572 -0.441146 0
M  V30 10507 C 996.224 -5.11873 -1.54566 0
M  V30 10508 C 997.524 -5.1837 0.639489 0
M  V30 10509 H 999.218 -2.92459 0.640941 0
M  V30 10510 H 996.764 -1.40631 0.309675 0
M  V30 10511 H 998.717 -3.90195 -1.59141 0
M  V30 10512 H 997.441 -2.68768 -1.85557 0
M  V30 10513 H 996.1 -3.66579 0.0393908 0
M  V30 10514 H 995.748 -4.47256 -2.30155 0
M  V30 10515 H 995.448 -5.76886 -1.11698 0
M  V30 10516 H 996.972 -5.75185 -2.04925 0
M  V30 10517 H 998.386 -5.7287 0.22207 0
M  V30 10518 H 996.783 -5.91876 0.990089 0
M  V30 10519 H 997.853 -4.60627 1.51495 0
M  V30 10520 N 999.196 -0.349774 -1.5367 0
M  V30 10521 C 1000.44 0.245862 -2.00196 0
M  V30 10522 C 1000.76 1.51154 -1.24144 0
M  V30 10523 O 1001.96 2.18481 -1.61178 0
M  V30 10524 C 1000.42 0.488665 -3.56567 0
M  V30 10525 C 1000.03 -0.761475 -4.41481 0
M  V30 10526 C 1001.77 1.04282 -4.11492 0
M  V30 10527 C 999.679 -0.489128 -5.89374 0
M  V30 10528 H 998.609 0.0956493 -0.747909 0
M  V30 10529 H 1001.26 -0.466068 -1.77483 0
M  V30 10530 H 999.642 1.26145 -3.75371 0
M  V30 10531 H 1000.82 -1.53585 -4.34452 0
M  V30 10532 H 999.131 -1.23771 -3.9758 0
M  V30 10533 H 1001.73 1.26164 -5.19603 0
M  V30 10534 H 1002.07 2.00023 -3.65098 0
M  V30 10535 H 1002.6 0.330582 -3.96424 0
M  V30 10536 H 999.343 -1.41643 -6.40014 0
M  V30 10537 H 998.863 0.247039 -5.99291 0
M  V30 10538 H 1000.54 -0.1087 -6.46909 0
M  V30 10539 N 1000.67 1.57404 -0.0785433 0
M  V30 10540 C 1001.92 1.94031 0.589896 0
M  V30 10541 C 1002.25 0.959297 1.68852 0
M  V30 10542 O 1001.53 -0.0103978 1.94497 0
M  V30 10543 C 1001.81 3.40886 1.16055 0
M  V30 10544 C 1001.66 4.49748 0.0681072 0
M  V30 10545 C 1002.98 3.88699 2.06401 0
M  V30 10546 H 1000.1 0.70556 0.212965 0
M  V30 10547 H 1002.74 1.89439 -0.145886 0
M  V30 10548 H 1000.89 3.4493 1.78761 0
M  V30 10549 H 1002.57 4.57823 -0.565318 0
M  V30 10550 H 1000.81 4.29625 -0.600431 0
M  V30 10551 H 1001.48 5.49658 0.507906 0
M  V30 10552 H 1003.96 3.86703 1.53622 0
M  V30 10553 H 1002.83 4.92052 2.43261 0
M  V30 10554 H 1003.09 3.2703 2.97496 0
M  V30 10555 N 1002.15 -0.195058 1.56388 0
M  V30 10556 C 1003.43 -0.941335 1.71459 0
M  V30 10557 C 1003.81 -2.01375 0.633336 0
M  V30 10558 O 1003.16 -2.25715 -0.35567 0
M  V30 10559 C 1003.37 -1.52772 3.13786 0
M  V30 10560 C 1004.71 -2.00983 3.7402 0
M  V30 10561 O 1005.74 -1.62614 3.16915 0
M  V30 10562 O 1004.6 -2.71586 4.7424 0
M  V30 10563 H 1001.69 -0.441451 0.699321 0
M  V30 10564 H 1004.24 -0.184752 1.68691 0
M  V30 10565 H 1003.01 -0.754699 3.83953 0
M  V30 10566 H 1002.63 -2.34914 3.20782 0
M  V30 10567 N 1003.63 -1.50653 -0.462772 0
M  V30 10568 C 1004.86 -1.65826 -1.23731 0
M  V30 10569 C 1005.27 -0.345002 -1.85621 0
M  V30 10570 O 1004.63 0.673935 -1.69601 0
M  V30 10571 C 1004.68 -2.7555 -2.33997 0
M  V30 10572 O 1004.4 -4.01785 -1.74643 0
M  V30 10573 C 1005.9 -3.0177 -3.2473 0
M  V30 10574 H 1003.12 -0.557177 -0.373892 0
M  V30 10575 H 1005.67 -1.96925 -0.551434 0
M  V30 10576 H 1003.82 -2.47122 -2.98345 0
M  V30 10577 H 1004.24 -4.62529 -2.4732 0
M  V30 10578 H 1005.71 -3.82188 -3.98292 0
M  V30 10579 H 1006.19 -2.13167 -3.84001 0
M  V30 10580 H 1006.79 -3.31761 -2.66111 0
M  V30 10581 N 1005.11 0.71652 -1.4037 0
M  V30 10582 C 1006.07 1.81231 -1.40313 0
M  V30 10583 C 1007.07 1.58032 -0.297087 0
M  V30 10584 O 1008.26 1.65091 -0.555944 0
M  V30 10585 C 1005.39 3.19308 -1.19395 0
M  V30 10586 H 1006.59 1.8268 -2.3784 0
M  V30 10587 H 1004.14 0.922062 -1.26205 0
M  V30 10588 H 1004.87 3.2351 -0.226252 0
M  V30 10589 H 1004.66 3.37546 -1.99512 0
M  V30 10590 H 1006.15 3.99339 -1.22141 0
M  V30 10591 N 1006.59 1.25851 0.948643 0
M  V30 10592 C 1007.52 1.02549 2.04979 0
M  V30 10593 C 1008.53 -0.0115923 1.62796 0
M  V30 10594 O 1009.72 0.227643 1.77042 0
M  V30 10595 C 1006.82 0.529486 3.34738 0
M  V30 10596 C 1005.99 1.6341 4.05729 0
M  V30 10597 C 1005.05 1.13743 5.1376 0
M  V30 10598 O 1004.08 1.83303 5.38877 0
M  V30 10599 N 1005.28 -0.0181151 5.80497 0
M  V30 10600 H 1008.05 1.97365 2.25537 0
M  V30 10601 H 1005.61 1.17137 1.11761 0
M  V30 10602 H 1007.6 0.181566 4.04293 0
M  V30 10603 H 1006.17 -0.324893 3.10907 0
M  V30 10604 H 1005.39 2.15331 3.30191 0
M  V30 10605 H 1006.68 2.37603 4.49914 0
M  V30 10606 H 1006.07 -0.599198 5.62518 0
M  V30 10607 H 1004.63 -0.307019 6.51077 0
M  V30 10608 N 1008.06 -1.15214 1.07534 0
M  V30 10609 C 1009.3 -1.87708 0.809009 0
M  V30 10610 C 1009.67 -1.80552 -0.653066 0
M  V30 10611 O 1010.87 -2.48095 -1.03452 0
M  V30 10612 C 1009.14 -3.32703 1.30552 0
M  V30 10613 S 1010.7 -4.2291 1.17015 0
M  V30 10614 H 1007.52 -0.647767 0.293118 0
M  V30 10615 H 1010.12 -1.38992 1.37482 0
M  V30 10616 H 1008.82 -3.35456 2.36427 0
M  V30 10617 H 1008.35 -3.86473 0.734995 0
M  V30 10618 H 1010.37 -4.96081 0.108836 0
M  V30 10619 N 1009.54 -0.859717 -1.32086 0
M  V30 10620 C 1010.79 -0.475565 -1.97762 0
M  V30 10621 C 1011.14 0.959348 -1.66776 0
M  V30 10622 O 1010.44 1.66484 -0.948343 0
M  V30 10623 C 1010.63 -0.657397 -3.51302 0
M  V30 10624 C 1010.46 -2.10843 -3.97209 0
M  V30 10625 C 1009.23 -2.74796 -4.24046 0
M  V30 10626 C 1011.43 -3.07959 -4.11905 0
M  V30 10627 N 1009.41 -4.10758 -4.56236 0
M  V30 10628 C 1010.78 -4.28922 -4.4769 0
M  V30 10629 C 1012.84 -3.04086 -3.94254 0
M  V30 10630 C 1011.54 -5.46518 -4.67665 0
M  V30 10631 C 1013.56 -4.20931 -4.15416 0
M  V30 10632 C 1012.93 -5.40654 -4.51522 0
M  V30 10633 H 1009.03 -0.222859 -0.749572 0
M  V30 10634 H 1011.61 -1.11217 -1.59809 0
M  V30 10635 H 1009.78 -0.0504597 -3.88367 0
M  V30 10636 H 1011.51 -0.242642 -4.03972 0
M  V30 10637 H 1008.27 -2.25805 -4.16304 0
M  V30 10638 H 1008.69 -4.80905 -4.76507 0
M  V30 10639 H 1013.33 -2.12641 -3.65436 0
M  V30 10640 H 1011.05 -6.3849 -4.95335 0
M  V30 10641 H 1014.64 -4.19376 -4.03255 0
M  V30 10642 H 1013.52 -6.29563 -4.67568 0
M  V30 10643 N 1011.02 1.44971 -0.618145 0
M  V30 10644 C 1012.25 2.07039 -0.122395 0
M  V30 10645 C 1012.67 1.45793 1.18853 0
M  V30 10646 O 1012.03 0.55453 1.72611 0
M  V30 10647 C 1012.08 3.60599 -0.0073864 0
M  V30 10648 O 1011.18 3.99069 1.04007 0
M  V30 10649 H 1010.52 0.6593 -0.0788615 0
M  V30 10650 H 1013.05 1.86055 -0.851147 0
M  V30 10651 H 1013.06 4.07569 0.187417 0
M  V30 10652 H 1011.74 4.04561 -0.964544 0
M  V30 10653 H 1010.31 3.63753 0.820879 0
M  V30 10654 N 1012.5 0.357919 1.53482 0
M  V30 10655 C 1013.73 -0.23514 2.05559 0
M  V30 10656 C 1014.14 -1.43068 1.23195 0
M  V30 10657 O 1013.5 -1.80481 0.270741 0
M  V30 10658 C 1013.55 -0.636147 3.55859 0
M  V30 10659 O 1013.27 0.511864 4.35099 0
M  V30 10660 C 1014.77 -1.28841 4.24164 0
M  V30 10661 H 1011.99 -0.0428446 0.669631 0
M  V30 10662 H 1014.54 0.51407 1.97933 0
M  V30 10663 H 1012.69 -1.33528 3.63661 0
M  V30 10664 H 1013.1 0.189328 5.24158 0
M  V30 10665 H 1014.58 -1.51962 5.30671 0
M  V30 10666 H 1015.06 -2.24638 3.77405 0
M  V30 10667 H 1015.66 -0.630914 4.20594 0
M  V30 10668 N 1013.98 -1.5736 0.0868897 0
M  V30 10669 C 1014.93 -2.10105 -0.885435 0
M  V30 10670 C 1015.91 -1.01417 -1.24913 0
M  V30 10671 O 1017.1 -1.27704 -1.22558 0
M  V30 10672 C 1014.23 -2.67837 -2.14752 0
M  V30 10673 C 1013.32 -3.83553 -1.80963 0
M  V30 10674 N 1013.71 -4.91917 -1.17693 0
M  V30 10675 C 1012.01 -3.93134 -2.10622 0
M  V30 10676 C 1012.71 -5.72628 -1.02332 0
M  V30 10677 N 1011.68 -5.2139 -1.53796 0
M  V30 10678 H 1015.49 -2.91272 -0.392179 0
M  V30 10679 H 1013 -1.61981 -0.116566 0
M  V30 10680 H 1015 -3.03948 -2.85344 0
M  V30 10681 H 1013.66 -1.88122 -2.64651 0
M  V30 10682 H 1014.67 -5.10964 -0.844731 0
M  V30 10683 H 1011.34 -3.24416 -2.62793 0
M  V30 10684 H 1012.73 -6.69813 -0.529171 0
M  V30 10685 N 1015.45 0.186762 -1.56489 0
M  V30 10686 C 1016.4 1.2357 -1.9161 0
M  V30 10687 C 1017.39 1.4058 -0.782686 0
M  V30 10688 O 1018.58 1.42811 -1.04566 0
M  V30 10689 C 1015.71 2.57865 -2.26628 0
M  V30 10690 C 1014.8 2.44613 -3.46447 0
M  V30 10691 N 1015.19 2.01052 -4.64125 0
M  V30 10692 C 1013.48 2.75483 -3.50749 0
M  V30 10693 C 1014.19 1.99891 -5.46277 0
M  V30 10694 N 1013.16 2.41711 -4.86905 0
M  V30 10695 H 1016.96 0.890359 -2.80089 0
M  V30 10696 H 1014.48 0.395144 -1.57519 0
M  V30 10697 H 1016.47 3.33642 -2.49977 0
M  V30 10698 H 1015.13 2.93215 -1.39481 0
M  V30 10699 H 1016.15 1.7163 -4.88634 0
M  V30 10700 H 1012.82 3.14974 -2.7404 0
M  V30 10701 H 1014.21 1.68042 -6.50547 0
M  V30 10702 N 1016.93 1.50896 0.454776 0
M  V30 10703 C 1018.18 1.62699 1.20562 0
M  V30 10704 C 1018.51 0.334943 1.91594 0
M  V30 10705 O 1017.76 -0.680106 1.83502 0
M  V30 10706 C 1018.06 2.76839 2.26042 0
M  V30 10707 C 1017.73 4.16745 1.72147 0
M  V30 10708 C 1016.39 4.54809 1.5717 0
M  V30 10709 C 1018.74 5.04118 1.32341 0
M  V30 10710 C 1016.07 5.7797 1.00835 0
M  V30 10711 C 1018.42 6.27842 0.774419 0
M  V30 10712 C 1017.09 6.64694 0.611415 0
M  V30 10713 H 1016.36 0.595358 0.441169 0
M  V30 10714 H 1019 1.84879 0.499202 0
M  V30 10715 H 1017.31 2.48812 3.02655 0
M  V30 10716 H 1019 2.83173 2.83926 0
M  V30 10717 H 1015.59 3.86725 1.84775 0
M  V30 10718 H 1019.78 4.75331 1.42739 0
M  V30 10719 H 1015.03 6.05183 0.869669 0
M  V30 10720 H 1019.21 6.94896 0.457389 0
M  V30 10721 H 1016.84 7.60004 0.172751 0
M  V30 10722 N 1018.41 -0.709066 1.40748 0
M  V30 10723 C 1019.37 -1.80485 1.41272 0
M  V30 10724 C 1020.37 -1.57872 0.305463 0
M  V30 10725 O 1021.56 -1.64793 0.564691 0
M  V30 10726 C 1018.7 -3.1867 1.21087 0
M  V30 10727 H 1019.89 -1.81417 2.38805 0
M  V30 10728 H 1017.44 -0.915356 1.26692 0
M  V30 10729 H 1018.18 -3.23385 0.243406 0
M  V30 10730 H 1017.96 -3.36484 2.01299 0
M  V30 10731 H 1019.45 -3.98685 1.24257 0
M  V30 10732 N 1019.89 -1.26353 -0.941956 0
M  V30 10733 C 1021.13 -1.13071 -1.70277 0
M  V30 10734 C 1021.49 0.320699 -1.89303 0
M  V30 10735 O 1022.69 0.575624 -2.62564 0
M  V30 10736 C 1020.97 -1.87777 -3.04096 0
M  V30 10737 S 1022.52 -1.9054 -3.95272 0
M  V30 10738 H 1019.34 -0.403912 -0.585129 0
M  V30 10739 H 1021.94 -1.6006 -1.12254 0
M  V30 10740 H 1020.65 -2.92447 -2.87929 0
M  V30 10741 H 1020.18 -1.41226 -3.67177 0
M  V30 10742 H 1022.19 -0.991548 -4.86192 0
M  V30 10743 N 1021.37 1.14642 -1.08144 0
M  V30 10744 C 1022.3 2.21775 -0.730609 0
M  V30 10745 C 1023.28 1.67683 0.285702 0
M  V30 10746 O 1024.46 1.93567 0.156667 0
M  V30 10747 C 1021.59 3.47033 -0.136242 0
M  V30 10748 C 1020.55 4.14134 -1.0806 0
M  V30 10749 C 1019.87 5.33563 -0.348585 0
M  V30 10750 C 1021.17 4.62978 -2.41761 0
M  V30 10751 H 1022.87 2.51378 -1.62633 0
M  V30 10752 H 1020.41 1.20825 -0.783411 0
M  V30 10753 H 1022.37 4.21226 0.121182 0
M  V30 10754 H 1021.09 3.16786 0.7946 0
M  V30 10755 H 1019.75 3.41892 -1.32308 0
M  V30 10756 H 1019.4 4.99575 0.585974 0
M  V30 10757 H 1019.1 5.79402 -0.978122 0
M  V30 10758 H 1020.62 6.10519 -0.0991508 0
M  V30 10759 H 1022.04 5.28659 -2.21795 0
M  V30 10760 H 1020.43 5.1951 -3.00383 0
M  V30 10761 H 1021.5 3.78189 -3.03482 0
M  V30 10762 N 1022.85 0.866709 1.31628 0
M  V30 10763 C 1024.09 0.476731 1.97117 0
M  V30 10764 C 1024.42 -0.967813 1.68366 0
M  V30 10765 O 1023.7 -1.68101 0.978377 0
M  V30 10766 C 1023.98 0.730561 3.52611 0
M  V30 10767 C 1023.84 2.2244 3.90948 0
M  V30 10768 C 1025.15 0.19488 4.39668 0
M  V30 10769 H 1022.27 0.174682 0.715999 0
M  V30 10770 H 1024.92 1.08735 1.5581 0
M  V30 10771 H 1023.07 0.210834 3.87927 0
M  V30 10772 H 1024.74 2.81113 3.6575 0
M  V30 10773 H 1022.98 2.69824 3.39673 0
M  V30 10774 H 1023.65 2.35266 4.99353 0
M  V30 10775 H 1026.13 0.639478 4.11157 0
M  V30 10776 H 1025 0.401958 5.47426 0
M  V30 10777 H 1025.26 -0.90302 4.32779 0
M  V30 10778 N 1024.32 -1.44642 0.625825 0
M  V30 10779 C 1025.57 -2.01695 0.127948 0
M  V30 10780 C 1025.89 -1.49439 -1.25271 0
M  V30 10781 O 1025.16 -0.695873 -1.83124 0
M  V30 10782 H 1023.74 -0.745685 0.0443096 0
M  V30 10783 H 1026.4 -1.7721 0.811332 0
M  V30 10784 H 1025.5 -3.11966 0.0915933 0
M  V30 10785 N 1025.8 -0.366053 -1.5329 0
M  V30 10786 C 1027.03 0.22391 -2.05383 0
M  V30 10787 C 1027.44 1.42962 -1.23929 0
M  V30 10788 O 1026.78 1.81659 -0.273072 0
M  V30 10789 C 1026.84 0.681038 -3.5299 0
M  V30 10790 C 1026.51 -0.40805 -4.55175 0
M  V30 10791 C 1027.51 -1.25806 -5.04449 0
M  V30 10792 C 1025.19 -0.568428 -4.99073 0
M  V30 10793 C 1027.18 -2.25379 -5.96224 0
M  V30 10794 C 1024.87 -1.56752 -5.90654 0
M  V30 10795 C 1025.87 -2.40864 -6.39119 0
M  V30 10796 O 1025.56 -3.39069 -7.28895 0
M  V30 10797 H 1025.29 0.0429593 -0.674634 0
M  V30 10798 H 1027.84 -0.522897 -1.98633 0
M  V30 10799 H 1026.07 1.47945 -3.5728 0
M  V30 10800 H 1027.76 1.19406 -3.8794 0
M  V30 10801 H 1028.53 -1.14536 -4.71282 0
M  V30 10802 H 1024.41 0.0764858 -4.60937 0
M  V30 10803 H 1027.95 -2.91068 -6.33976 0
M  V30 10804 H 1023.85 -1.6807 -6.23236 0
M  V30 10805 H 1024.62 -3.34804 -7.46893 0
M  V30 10806 N 1027.28 1.57312 -0.0952337 0
M  V30 10807 C 1028.53 1.93974 0.567319 0
M  V30 10808 C 1028.85 0.977805 1.68713 0
M  V30 10809 O 1028.12 0.0298944 1.95877 0
M  V30 10810 H 1026.7 0.71612 0.212558 0
M  V30 10811 H 1029.36 1.94254 -0.158598 0
M  V30 10812 H 1028.46 2.964 0.977423 0
M  V30 10813 N 1028.76 -0.17846 1.56586 0
M  V30 10814 C 1029.72 -1.20479 1.94981 0
M  V30 10815 C 1030.72 -1.37561 0.832677 0
M  V30 10816 O 1031.91 -1.35089 1.09984 0
M  V30 10817 C 1029.04 -2.57117 2.23839 0
M  V30 10818 H 1030.24 -0.876173 2.86816 0
M  V30 10819 H 1027.79 -0.420635 1.50534 0
M  V30 10820 H 1028.52 -2.95005 1.34695 0
M  V30 10821 H 1028.31 -2.46086 3.05261 0
M  V30 10822 H 1029.8 -3.31096 2.5449 0
M  V30 10823 N 1030.24 -1.51135 -0.446768 0
M  V30 10824 C 1031.46 -1.67411 -1.22427 0
M  V30 10825 C 1031.89 -0.367009 -1.84485 0
M  V30 10826 O 1031.24 0.67185 -1.68392 0
M  V30 10827 C 1031.29 -2.78473 -2.29096 0
M  V30 10828 O 1030.4 -2.41419 -3.34351 0
M  V30 10829 H 1029.74 -0.558512 -0.359111 0
M  V30 10830 H 1032.27 -1.97648 -0.5288 0
M  V30 10831 H 1032.28 -3.02277 -2.7403 0
M  V30 10832 H 1030.95 -3.73326 -1.83304 0
M  V30 10833 H 1029.53 -2.28152 -2.9496 0
M  V30 10834 N 1031.71 0.701592 -1.41122 0
M  V30 10835 C 1032.68 1.79733 -1.42227 0
M  V30 10836 C 1033.68 1.57708 -0.313831 0
M  V30 10837 O 1034.87 1.64492 -0.573423 0
M  V30 10838 C 1032 3.18024 -1.22775 0
M  V30 10839 H 1033.19 1.80148 -2.39764 0
M  V30 10840 H 1030.74 0.908624 -1.27176 0
M  V30 10841 H 1031.48 3.23252 -0.260552 0
M  V30 10842 H 1031.26 3.35411 -2.0308 0
M  V30 10843 H 1032.75 3.98021 -1.2637 0
M  V30 10844 N 1033.19 1.2685 0.935242 0
M  V30 10845 C 1034.44 1.12132 1.67658 0
M  V30 10846 C 1034.75 -0.333839 1.9273 0
M  V30 10847 O 1035.96 -0.601801 2.64746 0
M  V30 10848 C 1034.42 1.95873 3.0193 0
M  V30 10849 C 1034.02 3.46 2.84584 0
M  V30 10850 C 1035.77 1.89781 3.79715 0
M  V30 10851 C 1033.67 4.21966 4.14365 0
M  V30 10852 H 1032.6 0.416035 0.628833 0
M  V30 10853 H 1035.26 1.51209 1.03962 0
M  V30 10854 H 1033.64 1.49633 3.66641 0
M  V30 10855 H 1034.81 4.00049 2.28687 0
M  V30 10856 H 1033.13 3.53391 2.20236 0
M  V30 10857 H 1035.72 2.43819 4.75875 0
M  V30 10858 H 1036.07 0.869797 4.07112 0
M  V30 10859 H 1036.6 2.33875 3.21788 0
M  V30 10860 H 1033.34 5.2526 3.9215 0
M  V30 10861 H 1032.86 3.72696 4.69955 0
M  V30 10862 H 1034.54 4.30734 4.82781 0
M  V30 10863 N 1034.67 -1.14067 1.0875 0
M  V30 10864 C 1035.91 -1.8684 0.828873 0
M  V30 10865 C 1036.27 -1.81235 -0.633879 0
M  V30 10866 O 1037.48 -2.49178 -1.00815 0
M  V30 10867 C 1035.75 -3.31299 1.34073 0
M  V30 10868 S 1037.31 -4.21645 1.21494 0
M  V30 10869 H 1034.12 -0.644622 0.299972 0
M  V30 10870 H 1036.73 -1.37526 1.38949 0
M  V30 10871 H 1035.43 -3.32929 2.39972 0
M  V30 10872 H 1034.96 -3.85672 0.775944 0
M  V30 10873 H 1036.98 -4.95937 0.161446 0
M  V30 10874 N 1036.15 -0.873678 -1.31166 0
M  V30 10875 C 1037.56 -0.53852 -1.78765 0
M  V30 10876 C 1037.91 0.944765 -1.71955 0
M  V30 10877 O 1037.04 1.73781 -1.28954 0
M  V30 10878 C 1037.63 -0.970749 -3.24595 0
M  V30 10879 C 1036.19 -0.687189 -3.70074 0
M  V30 10880 C 1035.34 -1.16001 -2.51871 0
M  V30 10881 H 1038.29 -1.05903 -1.18196 0
M  V30 10882 H 1038.31 -0.294966 -3.79355 0
M  V30 10883 H 1037.82 -2.05034 -3.29519 0
M  V30 10884 H 1035.92 0.380881 -3.70648 0
M  V30 10885 H 1036.03 -1.26682 -4.62048 0
M  V30 10886 H 1034.4 -0.579663 -2.48016 0
M  V30 10887 H 1035.18 -2.2471 -2.59539 0
M  V30 10888 N 1037.63 1.44308 -0.633487 0
M  V30 10889 C 1038.86 2.06085 -0.145852 0
M  V30 10890 C 1039.26 1.47432 1.18577 0
M  V30 10891 O 1038.61 0.592575 1.7388 0
M  V30 10892 C 1038.67 3.59477 0.0407848 0
M  V30 10893 C 1038.33 4.40607 -1.21304 0
M  V30 10894 C 1039.33 4.73937 -2.13728 0
M  V30 10895 C 1037.02 4.80943 -1.44911 0
M  V30 10896 C 1039.01 5.46489 -3.28068 0
M  V30 10897 C 1036.7 5.53243 -2.59548 0
M  V30 10898 C 1037.69 5.85936 -3.50953 0
M  V30 10899 O 1037.38 6.56764 -4.6359 0
M  V30 10900 H 1037.11 0.671484 -0.0780085 0
M  V30 10901 H 1039.67 1.86128 -0.868658 0
M  V30 10902 H 1037.9 3.77933 0.818761 0
M  V30 10903 H 1039.59 4.03013 0.483273 0
M  V30 10904 H 1040.35 4.43311 -1.96725 0
M  V30 10905 H 1036.23 4.54915 -0.746537 0
M  V30 10906 H 1039.78 5.71924 -3.99435 0
M  V30 10907 H 1035.67 5.83285 -2.76493 0
M  V30 10908 H 1036.44 6.75234 -4.62602 0
M  V30 10909 N 1039.1 0.374177 1.53094 0
M  V30 10910 C 1040.03 -0.459976 2.28925 0
M  V30 10911 C 1041.02 -1.07656 1.31698 0
M  V30 10912 O 1042.2 -1.09219 1.60577 0
M  V30 10913 C 1039.33 -1.5954 3.08487 0
M  V30 10914 C 1038.28 -1.10563 4.13473 0
M  V30 10915 C 1037.61 -2.33196 4.81169 0
M  V30 10916 C 1038.91 -0.184275 5.21975 0
M  V30 10917 H 1040.6 0.172692 2.98902 0
M  V30 10918 H 1038.15 0.0844956 1.43752 0
M  V30 10919 H 1040.1 -2.18565 3.60288 0
M  V30 10920 H 1038.83 -2.25543 2.36216 0
M  V30 10921 H 1037.49 -0.53801 3.62631 0
M  V30 10922 H 1037.13 -2.97675 4.05461 0
M  V30 10923 H 1036.83 -2.01094 5.52119 0
M  V30 10924 H 1038.36 -2.92892 5.35767 0
M  V30 10925 H 1039.77 -0.682262 5.69226 0
M  V30 10926 H 1038.17 0.0462746 6.00082 0
M  V30 10927 H 1039.24 0.771152 4.78729 0
M  V30 10928 N 1040.58 -1.57259 0.103575 0
M  V30 10929 C 1041.55 -2.13337 -0.837859 0
M  V30 10930 C 1042.55 -1.06459 -1.20512 0
M  V30 10931 O 1043.74 -1.32307 -1.13316 0
M  V30 10932 C 1040.87 -2.66093 -2.13089 0
M  V30 10933 H 1042.06 -2.97842 -0.350775 0
M  V30 10934 H 1039.61 -1.55621 -0.145511 0
M  V30 10935 H 1040.35 -1.85133 -2.66264 0
M  V30 10936 H 1040.13 -3.44244 -1.87719 0
M  V30 10937 H 1041.62 -3.09443 -2.80419 0
M  V30 10938 N 1042.06 0.170153 -1.56679 0
M  V30 10939 C 1042.99 1.21285 -1.9953 0
M  V30 10940 C 1043.97 1.46104 -0.871071 0
M  V30 10941 O 1045.16 1.57419 -1.13724 0
M  V30 10942 C 1042.29 2.5515 -2.35618 0
M  V30 10943 C 1041.24 2.44898 -3.51011 0
M  V30 10944 C 1040.57 3.83263 -3.72845 0
M  V30 10945 C 1041.87 1.95271 -4.84424 0
M  V30 10946 H 1043.56 0.856646 -2.86883 0
M  V30 10947 H 1041.11 0.410634 -1.38021 0
M  V30 10948 H 1043.06 3.28299 -2.64193 0
M  V30 10949 H 1041.78 2.92561 -1.45175 0
M  V30 10950 H 1040.44 1.74203 -3.22566 0
M  V30 10951 H 1040.09 4.18069 -2.79691 0
M  V30 10952 H 1039.79 3.77272 -4.50488 0
M  V30 10953 H 1041.31 4.57996 -4.03822 0
M  V30 10954 H 1042.73 2.58195 -5.11867 0
M  V30 10955 H 1041.13 2.00225 -5.65712 0
M  V30 10956 H 1042.2 0.90709 -4.7634 0
M  V30 10957 N 1043.54 1.5137 0.438746 0
M  V30 10958 C 1044.45 1.75424 1.55768 0
M  V30 10959 C 1045.46 0.638409 1.61865 0
M  V30 10960 O 1046.64 0.9205 1.79133 0
M  V30 10961 C 1043.71 1.87288 2.9176 0
M  V30 10962 C 1042.77 3.11137 2.95791 0
M  V30 10963 C 1042 3.22425 4.25297 0
M  V30 10964 O 1042.22 2.39688 5.17596 0
M  V30 10965 O 1041.16 4.15393 4.35583 0
M  V30 10966 H 1044.98 2.70339 1.38386 0
M  V30 10967 H 1042.57 1.35854 0.621609 0
M  V30 10968 H 1044.45 1.97085 3.72472 0
M  V30 10969 H 1043.12 0.955599 3.09273 0
M  V30 10970 H 1042.03 3.06819 2.1404 0
M  V30 10971 H 1043.36 4.02549 2.83223 0
M  V30 10972 N 1045.02 -0.694098 1.41492 0
M  V30 10973 C 1046.24 -1.48789 1.44488 0
M  V30 10974 C 1046.67 -1.88028 0.0521588 0
M  V30 10975 O 1046.02 -1.54727 -0.944952 0
M  V30 10976 C 1046.07 -2.72586 2.3607 0
M  V30 10977 O 1045.18 -3.70128 1.81876 0
M  V30 10978 H 1044.52 -0.447758 0.490315 0
M  V30 10979 H 1047.05 -0.853036 1.85969 0
M  V30 10980 H 1047.06 -3.20877 2.51995 0
M  V30 10981 H 1045.73 -2.43363 3.37264 0
M  V30 10982 H 1044.31 -3.29069 1.75408 0
M  V30 10983 N 1046.49 -1.27344 -0.928501 0
M  V30 10984 C 1047.74 -1.13804 -1.67859 0
M  V30 10985 C 1048.07 0.31555 -1.91619 0
M  V30 10986 O 1047.35 1.23087 -1.50599 0
M  V30 10987 C 1047.63 -1.9213 -3.04562 0
M  V30 10988 C 1047.48 -3.45468 -2.88048 0
M  V30 10989 C 1048.8 -1.72513 -4.04879 0
M  V30 10990 H 1045.92 -0.414796 -0.609191 0
M  V30 10991 H 1048.56 -1.5649 -1.07753 0
M  V30 10992 H 1046.71 -1.55853 -3.55868 0
M  V30 10993 H 1048.39 -3.9157 -2.43865 0
M  V30 10994 H 1046.63 -3.71849 -2.23407 0
M  V30 10995 H 1047.3 -3.95515 -3.85061 0
M  V30 10996 H 1049.78 -2.04143 -3.62581 0
M  V30 10997 H 1048.65 -2.29713 -4.98521 0
M  V30 10998 H 1048.91 -0.672856 -4.3695 0
M  V30 10999 N 1047.97 1.13488 -1.09353 0
M  V30 11000 C 1049.39 1.36739 -0.823086 0
M  V30 11001 C 1049.59 1.93476 0.562963 0
M  V30 11002 O 1048.64 2.15374 1.31796 0
M  V30 11003 C 1049.96 2.31943 -1.91371 0
M  V30 11004 C 1051.51 2.4556 -1.94085 0
M  V30 11005 C 1051.98 3.44072 -3.02289 0
M  V30 11006 N 1053.47 3.51622 -3.01524 0
M  V30 11007 C 1054.21 4.27724 -3.8189 0
M  V30 11008 N 1053.7 5.06987 -4.72161 0
M  V30 11009 N 1055.5 4.23018 -3.70152 0
M  V30 11010 H 1047.65 0.75012 -1.98713 0
M  V30 11011 H 1049.91 0.392564 -0.862901 0
M  V30 11012 H 1049.62 1.97408 -2.91072 0
M  V30 11013 H 1049.49 3.31952 -1.79131 0
M  V30 11014 H 1051.88 2.79382 -0.950234 0
M  V30 11015 H 1051.96 1.45479 -2.10403 0
M  V30 11016 H 1051.6 3.10981 -4.01564 0
M  V30 11017 H 1051.53 4.43956 -2.83214 0
M  V30 11018 H 1054.02 2.95066 -2.36103 0
M  V30 11019 H 1054.34 5.6236 -5.30067 0
M  V30 11020 H 1052.68 5.06222 -4.76197 0
M  V30 11021 H 1055.87 3.60171 -2.98989 0
M  V30 11022 H 1056.04 4.82075 -4.33022 0
M  V30 11023 N 1049.45 0.880621 1.30701 0
M  V30 11024 C 1050.38 0.301443 2.27209 0
M  V30 11025 C 1051.4 -0.541533 1.53529 0
M  V30 11026 O 1052.59 -0.361791 1.74795 0
M  V30 11027 C 1049.69 -0.59038 3.33718 0
M  V30 11028 C 1048.86 0.222549 4.36833 0
M  V30 11029 C 1047.92 -0.599083 5.22779 0
M  V30 11030 O 1046.94 -0.0233267 5.69195 0
M  V30 11031 N 1048.15 -1.90904 5.48211 0
M  V30 11032 H 1050.91 1.13083 2.77547 0
M  V30 11033 H 1048.47 0.743168 1.43835 0
M  V30 11034 H 1050.46 -1.14599 3.88135 0
M  V30 11035 H 1049.03 -1.32044 2.83343 0
M  V30 11036 H 1048.25 0.959606 3.82342 0
M  V30 11037 H 1049.54 0.779965 5.02786 0
M  V30 11038 H 1048.94 -2.3998 5.12275 0
M  V30 11039 H 1047.5 -2.4122 6.05521 0
M  V30 11040 N 1050.93 -1.4397 0.641131 0
M  V30 11041 C 1052.18 -2.02782 0.158406 0
M  V30 11042 C 1052.53 -1.496 -1.20986 0
M  V30 11043 O 1051.82 -0.674517 -1.79334 0
M  V30 11044 C 1052.02 -3.5727 0.0963368 0
M  V30 11045 C 1051.85 -4.25441 1.45704 0
M  V30 11046 C 1050.62 -4.62008 2.04637 0
M  V30 11047 C 1052.81 -4.55238 2.39297 0
M  V30 11048 N 1050.8 -5.15194 3.33839 0
M  V30 11049 C 1052.17 -5.09613 3.53121 0
M  V30 11050 C 1054.22 -4.37197 2.38251 0
M  V30 11051 C 1052.93 -5.47847 4.66108 0
M  V30 11052 C 1054.95 -4.76485 3.50309 0
M  V30 11053 C 1054.31 -5.30982 4.62858 0
M  V30 11054 H 1050.41 -0.775304 0.102117 0
M  V30 11055 H 1053 -1.75321 0.846805 0
M  V30 11056 H 1051.17 -3.84322 -0.561369 0
M  V30 11057 H 1052.9 -4.02757 -0.39614 0
M  V30 11058 H 1049.65 -4.46653 1.57474 0
M  V30 11059 H 1050.08 -5.46253 3.99921 0
M  V30 11060 H 1054.72 -3.94347 1.5248 0
M  V30 11061 H 1052.44 -5.89646 5.52579 0
M  V30 11062 H 1056.02 -4.6423 3.50687 0
M  V30 11063 H 1054.9 -5.6082 5.48133 0
M  V30 11064 N 1052.41 -0.382291 -1.52893 0
M  V30 11065 C 1053.65 0.194935 -2.02464 0
M  V30 11066 C 1054.01 1.45051 -1.26404 0
M  V30 11067 O 1053.3 1.88302 -0.353968 0
M  V30 11068 C 1053.5 0.523437 -3.53546 0
M  V30 11069 C 1053.32 -0.698754 -4.44238 0
M  V30 11070 C 1052.09 -1.2159 -4.90453 0
M  V30 11071 C 1054.29 -1.56899 -4.89783 0
M  V30 11072 N 1052.27 -2.39637 -5.65197 0
M  V30 11073 C 1053.65 -2.59595 -5.63037 0
M  V30 11074 C 1055.7 -1.58991 -4.71833 0
M  V30 11075 C 1054.4 -3.6426 -6.20248 0
M  V30 11076 C 1056.43 -2.62559 -5.29922 0
M  V30 11077 C 1055.79 -3.63977 -6.03076 0
M  V30 11078 H 1051.89 0.0336043 -0.781278 0
M  V30 11079 H 1054.47 -0.530603 -1.8733 0
M  V30 11080 H 1052.65 1.21804 -3.68807 0
M  V30 11081 H 1054.38 1.0872 -3.89823 0
M  V30 11082 H 1051.13 -0.777967 -4.67167 0
M  V30 11083 H 1051.56 -2.99348 -6.07223 0
M  V30 11084 H 1056.2 -0.819305 -4.14786 0
M  V30 11085 H 1053.92 -4.42192 -6.76382 0
M  V30 11086 H 1057.5 -2.65052 -5.17918 0
M  V30 11087 H 1056.38 -4.42802 -6.47222 0
M  V30 11088 N 1053.89 1.57202 -0.111913 0
M  V30 11089 C 1054.82 2.17957 0.837683 0
M  V30 11090 C 1055.8 1.1176 1.28233 0
M  V30 11091 O 1056.98 1.39967 1.34621 0
M  V30 11092 C 1054.11 2.77333 2.09054 0
M  V30 11093 C 1053.07 3.8905 1.78393 0
M  V30 11094 C 1052.39 4.35203 3.10649 0
M  V30 11095 C 1053.69 5.11477 1.05775 0
M  V30 11096 H 1055.39 2.9756 0.331441 0
M  V30 11097 H 1052.93 1.43131 0.157979 0
M  V30 11098 H 1054.88 3.18492 2.75936 0
M  V30 11099 H 1053.61 1.95009 2.6199 0
M  V30 11100 H 1052.27 3.48456 1.13903 0
M  V30 11101 H 1051.92 3.49747 3.61506 0
M  V30 11102 H 1051.62 5.10534 2.9091 0
M  V30 11103 H 1053.14 4.79007 3.78661 0
M  V30 11104 H 1054.55 5.497 1.62798 0
M  V30 11105 H 1052.95 5.92346 0.961573 0
M  V30 11106 H 1054.02 4.84881 0.043297 0
M  V30 11107 N 1055.36 -0.161842 1.56767 0
M  V30 11108 C 1056.64 -0.904754 1.73417 0
M  V30 11109 C 1057.02 -1.99987 0.675908 0
M  V30 11110 O 1056.37 -2.26419 -0.307712 0
M  V30 11111 C 1056.58 -1.46082 3.16956 0
M  V30 11112 C 1057.93 -1.93004 3.78199 0
M  V30 11113 O 1058.95 -1.55856 3.20293 0
M  V30 11114 O 1057.81 -2.61465 4.79894 0
M  V30 11115 H 1054.9 -0.426518 0.708528 0
M  V30 11116 H 1057.45 -0.148928 1.69045 0
M  V30 11117 H 1056.22 -0.673087 3.85468 0
M  V30 11118 H 1055.84 -2.28056 3.25693 0
M  V30 11119 N 1056.84 -1.516 -0.430713 0
M  V30 11120 C 1057.75 -1.76247 -1.54836 0
M  V30 11121 C 1058.77 -0.646985 -1.61524 0
M  V30 11122 O 1059.94 -0.929987 -1.78643 0
M  V30 11123 C 1057.01 -1.88833 -2.90763 0
M  V30 11124 C 1056.07 -3.12701 -2.94137 0
M  V30 11125 C 1055.3 -3.24676 -4.23581 0
M  V30 11126 O 1055.53 -2.42429 -5.16318 0
M  V30 11127 O 1054.46 -4.17697 -4.33374 0
M  V30 11128 H 1058.29 -2.71069 -1.3695 0
M  V30 11129 H 1055.87 -1.36182 -0.614396 0
M  V30 11130 H 1057.75 -1.99057 -3.71422 0
M  V30 11131 H 1056.43 -0.971987 -3.08762 0
M  V30 11132 H 1055.33 -3.0795 -2.1241 0
M  V30 11133 H 1056.67 -4.04045 -2.81084 0
M  V30 11134 N 1058.32 0.686584 -1.41858 0
M  V30 11135 C 1059.27 1.80038 -1.44413 0
M  V30 11136 C 1060.24 1.63415 -0.297427 0
M  V30 11137 O 1061.42 1.84138 -0.499789 0
M  V30 11138 C 1058.56 3.17988 -1.34082 0
M  V30 11139 C 1057.67 3.45979 -2.58693 0
M  V30 11140 C 1056.81 4.73592 -2.4059 0
M  V30 11141 C 1055.85 4.94581 -3.60633 0
M  V30 11142 N 1054.99 6.13426 -3.41545 0
M  V30 11143 H 1059.83 1.77189 -2.396 0
M  V30 11144 H 1057.36 0.865158 -1.18968 0
M  V30 11145 H 1059.32 3.97689 -1.26092 0
M  V30 11146 H 1057.95 3.1999 -0.424975 0
M  V30 11147 H 1057 2.60617 -2.77097 0
M  V30 11148 H 1058.31 3.57386 -3.47961 0
M  V30 11149 H 1057.47 5.61364 -2.30119 0
M  V30 11150 H 1056.21 4.64448 -1.48794 0
M  V30 11151 H 1055.21 4.05254 -3.71549 0
M  V30 11152 H 1056.44 5.05578 -4.53395 0
M  V30 11153 H 1054.38 6.05477 -2.52456 0
M  V30 11154 H 1054.3 6.25641 -4.24393 0
M  V30 11155 H 1055.57 7.03908 -3.34864 0
M  V30 11156 N 1059.8 1.27835 0.921735 0
M  V30 11157 C 1061.03 1.17352 1.704 0
M  V30 11158 C 1061.44 -0.268892 1.86875 0
M  V30 11159 O 1060.8 -1.18253 1.39005 0
M  V30 11160 C 1060.85 1.85889 3.10045 0
M  V30 11161 O 1060.57 3.24495 2.94338 0
M  V30 11162 C 1062.07 1.81607 4.04393 0
M  V30 11163 H 1059.29 0.40773 0.532914 0
M  V30 11164 H 1061.83 1.68815 1.15419 0
M  V30 11165 H 1059.99 1.38316 3.61867 0
M  V30 11166 H 1060.4 3.58705 3.82663 0
M  V30 11167 H 1061.88 2.34165 4.99871 0
M  V30 11168 H 1062.35 0.786697 4.32097 0
M  V30 11169 H 1062.96 2.28822 3.58498 0
M  V30 11170 N 1061.28 -1.12907 1.09954 0
M  V30 11171 C 1062.21 -2.18194 0.701701 0
M  V30 11172 C 1063.22 -1.60724 -0.259131 0
M  V30 11173 O 1064.41 -1.78445 -0.0443549 0
M  V30 11174 C 1061.51 -3.38897 0.0140602 0
M  V30 11175 C 1060.68 -4.25867 0.997807 0
M  V30 11176 C 1059.74 -5.25084 0.34257 0
M  V30 11177 O 1058.77 -5.60492 0.991857 0
M  V30 11178 N 1059.97 -5.73464 -0.901058 0
M  V30 11179 H 1062.73 -2.52939 1.60755 0
M  V30 11180 H 1060.3 -1.28281 0.987703 0
M  V30 11181 H 1062.29 -4.02349 -0.435628 0
M  V30 11182 H 1060.86 -3.02345 -0.794118 0
M  V30 11183 H 1060.08 -3.59107 1.6259 0
M  V30 11184 H 1061.37 -4.80825 1.66388 0
M  V30 11185 H 1060.76 -5.46854 -1.44802 0
M  V30 11186 H 1059.32 -6.38827 -1.29398 0
M  V30 11187 N 1062.75 -0.88754 -1.30232 0
M  V30 11188 C 1063.7 -0.354497 -2.28061 0
M  V30 11189 C 1064.67 0.556732 -1.56492 0
M  V30 11190 O 1065.86 0.484597 -1.84543 0
M  V30 11191 C 1063 0.422701 -3.42501 0
M  V30 11192 C 1062.11 -0.518036 -4.28883 0
M  V30 11193 C 1061.24 0.275011 -5.30488 0
M  V30 11194 C 1060.28 -0.661032 -6.0852 0
M  V30 11195 N 1059.42 0.0968509 -7.02033 0
M  V30 11196 H 1064.26 -1.19388 -2.73039 0
M  V30 11197 H 1061.8 -0.600091 -1.34303 0
M  V30 11198 H 1063.75 0.889249 -4.07613 0
M  V30 11199 H 1062.38 1.22664 -2.98586 0
M  V30 11200 H 1061.44 -1.10308 -3.64055 0
M  V30 11201 H 1062.75 -1.23504 -4.83268 0
M  V30 11202 H 1061.9 0.803301 -6.01358 0
M  V30 11203 H 1060.64 1.02522 -4.76802 0
M  V30 11204 H 1059.65 -1.20093 -5.36524 0
M  V30 11205 H 1060.87 -1.41037 -6.64293 0
M  V30 11206 H 1058.82 0.829548 -6.50734 0
M  V30 11207 H 1058.73 -0.560476 -7.5392 0
M  V30 11208 H 1060 0.6058 -7.77142 0
M  V30 11209 N 1064.23 1.43628 -0.648757 0
M  V30 11210 C 1065.16 2.33478 0.0320785 0
M  V30 11211 C 1066.14 1.49217 0.816605 0
M  V30 11212 O 1067.33 1.77892 0.778974 0
M  V30 11213 C 1064.46 3.32525 1.00222 0
M  V30 11214 C 1063.41 4.2674 0.328119 0
M  V30 11215 C 1062.74 5.15791 1.4094 0
M  V30 11216 C 1064.04 5.16493 -0.776701 0
M  V30 11217 H 1065.73 2.90657 -0.718257 0
M  V30 11218 H 1063.28 1.3976 -0.346852 0
M  V30 11219 H 1065.23 3.94277 1.4874 0
M  V30 11220 H 1063.96 2.73593 1.78366 0
M  V30 11221 H 1062.61 3.66346 -0.136569 0
M  V30 11222 H 1062.26 4.53201 2.18216 0
M  V30 11223 H 1061.96 5.79645 0.963631 0
M  V30 11224 H 1063.49 5.80416 1.89603 0
M  V30 11225 H 1064.9 5.7208 -0.373878 0
M  V30 11226 H 1063.3 5.89043 -1.14667 0
M  V30 11227 H 1064.37 4.56448 -1.63654 0
M  V30 11228 N 1065.71 0.390394 1.52688 0
M  V30 11229 C 1066.64 -0.48838 2.22913 0
M  V30 11230 C 1067.62 -1.06319 1.23025 0
M  V30 11231 O 1068.81 -1.11462 1.52015 0
M  V30 11232 C 1065.93 -1.67612 2.9432 0
M  V30 11233 C 1064.98 -1.22646 4.08485 0
M  V30 11234 S 1065.81 -0.207092 5.35099 0
M  V30 11235 C 1066.97 -1.40058 6.10028 0
M  V30 11236 H 1067.2 0.107949 2.97104 0
M  V30 11237 H 1064.73 0.174588 1.5341 0
M  V30 11238 H 1066.69 -2.35728 3.36069 0
M  V30 11239 H 1065.35 -2.24375 2.19806 0
M  V30 11240 H 1064.55 -2.11331 4.57554 0
M  V30 11241 H 1064.15 -0.624197 3.68754 0
M  V30 11242 H 1066.44 -2.32747 6.36266 0
M  V30 11243 H 1067.38 -0.950804 7.01687 0
M  V30 11244 H 1067.79 -1.61789 5.40818 0
M  V30 11245 N 1067.19 -1.57141 0.120249 0
M  V30 11246 C 1068.1 -2.18925 -0.843155 0
M  V30 11247 C 1069.11 -1.16575 -1.29175 0
M  V30 11248 O 1070.29 -1.4905 -1.35448 0
M  V30 11249 C 1067.36 -2.7775 -2.075 0
M  V30 11250 C 1066.42 -3.95139 -1.6782 0
M  V30 11251 C 1065.65 -4.51149 -2.85132 0
M  V30 11252 O 1065.87 -4.06056 -4.00593 0
M  V30 11253 O 1064.81 -5.41815 -2.62145 0
M  V30 11254 H 1068.63 -3.01707 -0.347357 0
M  V30 11255 H 1066.22 -1.49028 -0.105427 0
M  V30 11256 H 1068.1 -3.15243 -2.79643 0
M  V30 11257 H 1066.77 -1.97998 -2.56083 0
M  V30 11258 H 1065.68 -3.62412 -0.927807 0
M  V30 11259 H 1067.01 -4.7633 -1.23977 0
M  V30 11260 N 1068.67 0.153526 -1.5685 0
M  V30 11261 C 1069.61 1.20896 -1.98713 0
M  V30 11262 C 1070.61 1.44839 -0.878529 0
M  V30 11263 O 1071.81 1.45208 -1.0637 0
M  V30 11264 H 1068.19 0.406797 -0.632472 0
M  V30 11265 H 1070.16 0.829145 -2.86649 0
M  V30 11266 C 1068.91 2.53642 -2.37825 0
M  V30 11267 H 1068.23 2.36047 -3.22679 0
M  V30 11268 H 1069.67 3.26136 -2.70946 0
M  V30 11269 C 1068.13 3.13706 -1.22841 0
M  V30 11270 O 1068.66 3.98246 -0.525626 0
M  V30 11271 N 1066.87 2.73059 -0.99435 0
M  V30 11272 H 1066.41 2.0441 -1.56761 0
M  V30 11273 H 1066.37 3.1358 -0.226883 0
M  V30 11274 N 1070.14 1.51827 0.422667 0
M  V30 11275 C 1071.39 1.64893 1.16853 0
M  V30 11276 C 1071.71 0.37456 1.91369 0
M  V30 11277 O 1070.98 -0.610128 1.86157 0
M  V30 11278 H 1069.56 0.607744 0.434345 0
M  V30 11279 H 1072.23 1.88816 0.483159 0
M  V30 11280 H 1071.32 2.48361 1.89006 0
M  V30 11281 N 1071.62 -0.679052 1.4222 0
M  V30 11282 C 1073.04 -0.991665 1.25053 0
M  V30 11283 C 1073.24 -2.00928 0.151665 0
M  V30 11284 O 1072.29 -2.47925 -0.478507 0
M  V30 11285 C 1073.61 -1.50053 2.60585 0
M  V30 11286 C 1075.16 -1.61852 2.67905 0
M  V30 11287 C 1075.63 -2.16135 4.03794 0
M  V30 11288 N 1077.12 -2.23474 4.05726 0
M  V30 11289 C 1077.86 -2.66541 5.07685 0
M  V30 11290 N 1077.35 -3.09092 6.20028 0
M  V30 11291 N 1079.15 -2.66252 4.95042 0
M  V30 11292 H 1071.3 -0.00521851 2.12399 0
M  V30 11293 H 1073.56 -0.0648465 0.94578 0
M  V30 11294 H 1073.27 -0.82731 3.41831 0
M  V30 11295 H 1073.14 -2.47998 2.84213 0
M  V30 11296 H 1075.53 -2.28281 1.87008 0
M  V30 11297 H 1075.61 -0.624074 2.4807 0
M  V30 11298 H 1075.25 -1.50316 4.85147 0
M  V30 11299 H 1075.18 -3.16363 4.20978 0
M  V30 11300 H 1077.67 -1.93467 3.24621 0
M  V30 11301 H 1077.99 -3.40627 6.93681 0
M  V30 11302 H 1076.33 -3.06959 6.23539 0
M  V30 11303 H 1079.52 -2.32369 4.06352 0
M  V30 11304 H 1079.69 -2.99496 5.74636 0
M  V30 11305 N 1073.1 -1.28322 -0.914942 0
M  V30 11306 C 1074.03 -1.14681 -2.03398 0
M  V30 11307 C 1075.01 -0.0448939 -1.70041 0
M  V30 11308 O 1076.2 -0.221672 -1.92931 0
M  V30 11309 C 1073.33 -0.806623 -3.37803 0
M  V30 11310 C 1072.28 -1.86318 -3.85318 0
M  V30 11311 C 1071.61 -1.37665 -5.16674 0
M  V30 11312 C 1072.91 -3.26953 -4.07307 0
M  V30 11313 H 1074.6 -2.08293 -2.15068 0
M  V30 11314 H 1072.15 -1.00284 -1.03339 0
M  V30 11315 H 1074.1 -0.69796 -4.1558 0
M  V30 11316 H 1072.82 0.165203 -3.26182 0
M  V30 11317 H 1071.48 -1.96096 -3.09745 0
M  V30 11318 H 1071.13 -0.393927 -5.01455 0
M  V30 11319 H 1070.83 -2.08313 -5.49435 0
M  V30 11320 H 1072.35 -1.28119 -5.97007 0
M  V30 11321 H 1073.77 -3.20102 -4.75613 0
M  V30 11322 H 1072.17 -3.95424 -4.51398 0
M  V30 11323 H 1073.24 -3.71059 -3.12159 0
M  V30 11324 N 1074.58 1.12322 -1.10551 0
M  V30 11325 C 1075.86 1.80201 -0.760715 0
M  V30 11326 C 1076.24 1.97228 0.752628 0
M  V30 11327 O 1075.58 1.54958 1.67929 0
M  V30 11328 C 1075.79 3.14491 -1.51316 0
M  V30 11329 C 1077.14 3.89671 -1.68647 0
M  V30 11330 O 1078.17 3.24151 -1.47664 0
M  V30 11331 O 1077.02 5.0722 -2.03445 0
M  V30 11332 H 1074.12 0.780084 -0.274587 0
M  V30 11333 H 1076.66 1.19147 -1.20839 0
M  V30 11334 H 1075.44 2.97396 -2.54306 0
M  V30 11335 H 1075.06 3.83253 -1.05842 0
M  V30 11336 N 1076.06 0.894434 1.2976 0
M  V30 11337 C 1077.47 0.589778 1.48303 0
M  V30 11338 C 1077.67 -0.870085 1.81746 0
M  V30 11339 O 1076.73 -1.65065 1.91076 0
M  V30 11340 C 1078.04 1.51107 2.59975 0
M  V30 11341 C 1079.59 1.51571 2.73853 0
M  V30 11342 C 1080.06 2.42316 3.88648 0
M  V30 11343 N 1081.56 2.40333 3.95973 0
M  V30 11344 C 1082.29 3.07254 4.84131 0
M  V30 11345 N 1081.79 3.83435 5.77018 0
M  V30 11346 N 1083.58 2.96438 4.77578 0
M  V30 11347 H 1075.73 1.83871 1.06327 0
M  V30 11348 H 1077.99 0.78758 0.527657 0
M  V30 11349 H 1077.7 2.55097 2.42112 0
M  V30 11350 H 1077.57 1.22767 3.56662 0
M  V30 11351 H 1079.96 0.483277 2.91116 0
M  V30 11352 H 1080.04 1.83946 1.77757 0
M  V30 11353 H 1079.69 3.4565 3.72141 0
M  V30 11354 H 1079.62 2.07252 4.84101 0
M  V30 11355 H 1082.11 1.84979 3.29532 0
M  V30 11356 H 1082.42 4.31565 6.4107 0
M  V30 11357 H 1080.76 3.87542 5.7692 0
M  V30 11358 H 1083.96 2.36442 4.03996 0
M  V30 11359 H 1084.13 3.48867 5.46073 0
M  V30 11360 N 1077.53 -1.43282 0.656365 0
M  V30 11361 C 1078.78 -2.00996 0.168354 0
M  V30 11362 C 1079.1 -1.52408 -1.22601 0
M  V30 11363 O 1080.3 -2.02417 -1.80941 0
M  V30 11364 C 1078.76 -3.5903 0.250161 0
M  V30 11365 C 1078.37 -4.1661 1.64742 0
M  V30 11366 C 1080.11 -4.24118 -0.180084 0
M  V30 11367 C 1078.02 -5.66948 1.68299 0
M  V30 11368 H 1076.95 -0.751674 0.0591769 0
M  V30 11369 H 1079.6 -1.64216 0.818859 0
M  V30 11370 H 1077.98 -3.93226 -0.467908 0
M  V30 11371 H 1079.15 -3.93908 2.3911 0
M  V30 11372 H 1077.47 -3.63905 2.02391 0
M  V30 11373 H 1080.07 -5.34419 -0.173401 0
M  V30 11374 H 1080.41 -3.98264 -1.21208 0
M  V30 11375 H 1080.94 -3.94816 0.486343 0
M  V30 11376 H 1077.68 -5.97573 2.69419 0
M  V30 11377 H 1077.2 -5.91697 0.98261 0
M  V30 11378 H 1078.88 -6.31041 1.42813 0
M  V30 11379 N 1079.01 -0.398486 -1.52479 0
M  V30 11380 C 1080.29 0.238776 -1.94137 0
M  V30 11381 C 1080.67 1.63558 -1.33462 0
M  V30 11382 O 1080.02 2.22821 -0.506272 0
M  V30 11383 C 1080.23 0.255863 -3.48061 0
M  V30 11384 C 1081.58 0.480376 -4.21874 0
M  V30 11385 O 1082.6 0.335679 -3.54615 0
M  V30 11386 O 1081.46 0.764654 -5.41124 0
M  V30 11387 H 1078.55 0.150806 -0.813134 0
M  V30 11388 H 1081.1 -0.453659 -1.63524 0
M  V30 11389 H 1079.87 -0.722171 -3.84578 0
M  V30 11390 H 1079.49 0.99284 -3.85004 0
M  V30 11391 N 1080.49 1.57075 -0.12858 0
M  V30 11392 C 1081.42 2.18833 0.814519 0
M  V30 11393 C 1082.4 1.13114 1.2704 0
M  V30 11394 O 1083.59 1.41387 1.33129 0
M  V30 11395 C 1080.72 2.79535 2.06101 0
M  V30 11396 C 1079.67 3.9092 1.74257 0
M  V30 11397 C 1079 4.38473 3.06015 0
M  V30 11398 C 1080.3 5.1257 1.00345 0
M  V30 11399 H 1081.99 2.97895 0.299862 0
M  V30 11400 H 1079.54 1.4329 0.14279 0
M  V30 11401 H 1081.49 3.21401 2.72543 0
M  V30 11402 H 1080.21 1.97777 2.59907 0
M  V30 11403 H 1078.87 3.49645 1.102 0
M  V30 11404 H 1078.52 3.53561 3.57776 0
M  V30 11405 H 1078.22 5.13591 2.85479 0
M  V30 11406 H 1079.75 4.82997 3.7356 0
M  V30 11407 H 1081.16 5.51395 1.56959 0
M  V30 11408 H 1079.56 5.93333 0.898693 0
M  V30 11409 H 1080.63 4.84899 -0.0081335 0
M  V30 11410 N 1081.97 -0.145205 1.5693 0
M  V30 11411 C 1083.38 -0.705089 1.72874 0
M  V30 11412 C 1083.73 -1.81577 0.743261 0
M  V30 11413 O 1082.86 -2.16214 -0.0897153 0
M  V30 11414 C 1083.45 -1.28578 3.13454 0
M  V30 11415 C 1082.01 -1.79221 3.30994 0
M  V30 11416 C 1081.16 -0.681392 2.68798 0
M  V30 11417 H 1084.11 0.0804798 1.58496 0
M  V30 11418 H 1084.13 -2.15558 3.13552 0
M  V30 11419 H 1083.64 -0.477186 3.85155 0
M  V30 11420 H 1081.74 -2.62642 2.64292 0
M  V30 11421 H 1081.86 -1.91969 4.38959 0
M  V30 11422 H 1080.22 -1.10847 2.29314 0
M  V30 11423 H 1081 0.115786 3.43105 0
M  V30 11424 N 1083.45 -1.52049 -0.414609 0
M  V30 11425 C 1084.68 -1.69679 -1.18392 0
M  V30 11426 C 1085.09 -0.403881 -1.84429 0
M  V30 11427 O 1084.45 0.619636 -1.71659 0
M  V30 11428 C 1084.5 -2.82855 -2.25112 0
M  V30 11429 O 1084.22 -4.07138 -1.61772 0
M  V30 11430 C 1085.72 -3.11948 -3.14965 0
M  V30 11431 H 1082.94 -0.56879 -0.355977 0
M  V30 11432 H 1085.48 -1.9858 -0.488505 0
M  V30 11433 H 1083.64 -2.56488 -2.90332 0
M  V30 11434 H 1084.05 -4.70163 -2.32479 0
M  V30 11435 H 1085.53 -3.94665 -3.85932 0
M  V30 11436 H 1086 -2.25276 -3.77024 0
M  V30 11437 H 1086.61 -3.40059 -2.55421 0
M  V30 11438 N 1084.93 0.6715 -1.42579 0
M  V30 11439 C 1085.89 1.76676 -1.46008 0
M  V30 11440 C 1086.89 1.57007 -0.347213 0
M  V30 11441 O 1088.08 1.63238 -0.608185 0
M  V30 11442 C 1085.21 3.15348 -1.29494 0
M  V30 11443 H 1086.4 1.75021 -2.43531 0
M  V30 11444 H 1083.96 0.881444 -1.29075 0
M  V30 11445 H 1084.69 3.22626 -0.32906 0
M  V30 11446 H 1084.48 3.31028 -2.10149 0
M  V30 11447 H 1085.97 3.95251 -1.34784 0
M  V30 11448 N 1086.4 1.28806 0.908124 0
M  V30 11449 C 1087.33 1.15758 2.02787 0
M  V30 11450 C 1088.31 0.053911 1.70015 0
M  V30 11451 O 1089.5 0.231901 1.9281 0
M  V30 11452 C 1086.63 0.824526 3.37371 0
M  V30 11453 C 1085.58 1.88359 3.84324 0
M  V30 11454 C 1084.91 1.40404 5.15937 0
M  V30 11455 C 1086.21 3.29108 4.05568 0
M  V30 11456 H 1087.9 2.09431 2.13961 0
M  V30 11457 H 1085.45 1.00831 1.02806 0
M  V30 11458 H 1087.4 0.71999 4.15204 0
M  V30 11459 H 1086.13 -0.147902 3.26265 0
M  V30 11460 H 1084.79 1.97736 3.087 0
M  V30 11461 H 1084.43 0.420515 5.01239 0
M  V30 11462 H 1084.13 2.11224 5.48323 0
M  V30 11463 H 1085.66 1.31283 5.9632 0
M  V30 11464 H 1087.07 3.2262 4.73909 0
M  V30 11465 H 1085.47 3.97812 4.49294 0
M  V30 11466 H 1086.54 3.72709 3.10187 0
M  V30 11467 N 1087.88 -1.11734 1.11145 0
M  V30 11468 C 1088.83 -2.17683 0.766979 0
M  V30 11469 C 1089.8 -1.64051 -0.260108 0
M  V30 11470 O 1090.98 -1.90302 -0.137723 0
M  V30 11471 C 1088.12 -3.44442 0.212982 0
M  V30 11472 C 1087.24 -4.12094 1.29626 0
M  V30 11473 C 1086.37 -5.26526 0.703127 0
M  V30 11474 C 1085.41 -5.86057 1.76647 0
M  V30 11475 N 1084.55 -6.91889 1.19306 0
M  V30 11476 H 1089.39 -2.46495 1.67465 0
M  V30 11477 H 1086.92 -1.21011 0.836353 0
M  V30 11478 H 1088.88 -4.17009 -0.126162 0
M  V30 11479 H 1087.51 -3.16025 -0.657888 0
M  V30 11480 H 1086.56 -3.37631 1.75241 0
M  V30 11481 H 1087.88 -4.52398 2.10089 0
M  V30 11482 H 1087.03 -6.05888 0.313859 0
M  V30 11483 H 1085.77 -4.87519 -0.132856 0
M  V30 11484 H 1084.77 -5.05375 2.16508 0
M  V30 11485 H 1086 -6.27132 2.60543 0
M  V30 11486 H 1083.95 -6.54906 0.378664 0
M  V30 11487 H 1083.86 -7.30832 1.93443 0
M  V30 11488 H 1085.13 -7.75062 0.830578 0
M  V30 11489 N 1089.36 -0.901303 -1.29284 0
M  V30 11490 C 1090.31 -0.370142 -2.29636 0
M  V30 11491 C 1091.3 0.53157 -1.60844 0
M  V30 11492 O 1092.51 0.414194 -1.7517 0
M  V30 11493 H 1088.88 -0.101072 -0.745177 0
M  V30 11494 H 1090.85 -1.22985 -2.71877 0
M  V30 11495 C 1089.6 0.385806 -3.45553 0
M  V30 11496 H 1088.93 -0.298818 -3.98682 0
M  V30 11497 H 1090.37 0.722299 -4.17802 0
M  V30 11498 C 1088.82 1.58907 -2.97069 0
M  V30 11499 O 1089.35 2.68835 -2.98481 0
M  V30 11500 N 1087.56 1.43178 -2.5288 0
M  V30 11501 H 1087.11 0.537467 -2.51931 0
M  V30 11502 H 1087.07 2.23819 -2.208 0
M  V30 11503 N 1090.84 1.42931 -0.663954 0
M  V30 11504 C 1092.07 2.05729 -0.189532 0
M  V30 11505 C 1092.48 1.49914 1.15423 0
M  V30 11506 O 1091.82 0.629324 1.72584 0
M  V30 11507 C 1091.88 3.59482 -0.0354748 0
M  V30 11508 C 1091.54 4.37935 -1.30622 0
M  V30 11509 C 1092.54 4.69297 -2.23733 0
M  V30 11510 C 1090.23 4.77761 -1.5508 0
M  V30 11511 C 1092.22 5.39407 -3.39586 0
M  V30 11512 C 1089.91 5.47613 -2.71224 0
M  V30 11513 C 1090.91 5.7836 -3.63302 0
M  V30 11514 O 1090.59 6.46783 -4.77417 0
M  V30 11515 H 1090.33 0.669678 -0.0922342 0
M  V30 11516 H 1092.88 1.84243 -0.907943 0
M  V30 11517 H 1091.11 3.79584 0.738412 0
M  V30 11518 H 1092.8 4.03947 0.397679 0
M  V30 11519 H 1093.56 4.39038 -2.06084 0
M  V30 11520 H 1089.44 4.53229 -0.842863 0
M  V30 11521 H 1092.99 5.63323 -4.11476 0
M  V30 11522 H 1088.88 5.77289 -2.88804 0
M  V30 11523 H 1089.65 6.6527 -4.76821 0
M  V30 11524 N 1092.32 0.406567 1.52266 0
M  V30 11525 C 1093.73 0.0573228 1.59497 0
M  V30 11526 C 1093.93 -1.43005 1.41957 0
M  V30 11527 O 1092.99 -2.19659 1.24523 0
M  V30 11528 C 1094.3 0.549947 2.95628 0
M  V30 11529 C 1095.85 0.5077 3.08855 0
M  V30 11530 C 1096.32 0.976792 4.47463 0
M  V30 11531 N 1097.81 0.933508 4.53696 0
M  V30 11532 C 1098.55 1.26769 5.59211 0
M  V30 11533 N 1098.05 1.6732 6.72292 0
M  V30 11534 N 1099.84 1.18782 5.49406 0
M  V30 11535 H 1091.99 1.37468 1.61914 0
M  V30 11536 H 1094.25 0.564562 0.76156 0
M  V30 11537 H 1093.96 1.58943 3.13736 0
M  V30 11538 H 1093.83 -0.0417767 3.77177 0
M  V30 11539 H 1096.22 -0.522728 2.90433 0
M  V30 11540 H 1096.3 1.13545 2.29219 0
M  V30 11541 H 1095.94 2.00554 4.66627 0
M  V30 11542 H 1095.87 0.325885 5.25591 0
M  V30 11543 H 1098.37 0.635333 3.72521 0
M  V30 11544 H 1098.68 1.91137 7.4879 0
M  V30 11545 H 1097.02 1.71221 6.73579 0
M  V30 11546 H 1100.21 0.869906 4.59946 0
M  V30 11547 H 1100.39 1.45157 6.31533 0
M  V30 11548 N 1093.79 -1.57004 0.136909 0
M  V30 11549 C 1094.73 -2.13355 -0.837405 0
M  V30 11550 C 1095.74 -1.08053 -1.21772 0
M  V30 11551 O 1096.93 -1.35365 -1.16355 0
M  V30 11552 C 1094.03 -2.63302 -2.13366 0
M  V30 11553 C 1093.2 -3.92896 -1.92228 0
M  V30 11554 C 1092.26 -4.28257 -3.05749 0
M  V30 11555 O 1091.29 -4.96761 -2.7788 0
M  V30 11556 N 1092.49 -3.87021 -4.3266 0
M  V30 11557 H 1095.25 -2.9758 -0.35586 0
M  V30 11558 H 1092.81 -1.61832 -0.0469758 0
M  V30 11559 H 1094.81 -2.83977 -2.88339 0
M  V30 11560 H 1093.38 -1.83858 -2.52814 0
M  V30 11561 H 1092.6 -3.80949 -1.01349 0
M  V30 11562 H 1093.88 -4.776 -1.75431 0
M  V30 11563 H 1093.28 -3.31804 -4.58173 0
M  V30 11564 H 1091.84 -4.12768 -5.04446 0
M  V30 11565 N 1095.27 0.136881 -1.57004 0
M  V30 11566 C 1096.5 0.866405 -1.88436 0
M  V30 11567 C 1096.92 1.73483 -0.727006 0
M  V30 11568 O 1096.28 1.78398 0.323094 0
M  V30 11569 C 1096.33 1.69059 -3.18514 0
M  V30 11570 O 1095.43 2.79584 -3.03161 0
M  V30 11571 H 1094.77 0.240709 -0.618834 0
M  V30 11572 H 1097.3 0.124653 -2.0422 0
M  V30 11573 H 1097.31 2.08353 -3.50789 0
M  V30 11574 H 1095.99 1.05296 -4.0235 0
M  V30 11575 H 1094.57 2.43623 -2.82315 0
M  V30 11576 N 1096.75 1.52266 0.40654 0
M  V30 11577 C 1098 1.66699 1.15496 0
M  V30 11578 C 1098.33 0.397019 1.90098 0
M  V30 11579 O 1097.6 -0.604646 1.84863 0
M  V30 11580 C 1097.89 2.8907 2.14734 0
M  V30 11581 C 1097.74 4.26123 1.44012 0
M  V30 11582 C 1099.06 3.06966 3.15373 0
M  V30 11583 H 1096.18 0.606642 0.418515 0
M  V30 11584 H 1098.82 1.84826 0.440381 0
M  V30 11585 H 1096.97 2.73745 2.75673 0
M  V30 11586 H 1098.64 4.5318 0.861722 0
M  V30 11587 H 1096.89 4.27406 0.742064 0
M  V30 11588 H 1097.56 5.07799 2.16436 0
M  V30 11589 H 1100.03 3.21205 2.64512 0
M  V30 11590 H 1098.91 3.94097 3.82072 0
M  V30 11591 H 1099.17 2.20395 3.83247 0
M  V30 11592 N 1098.23 -0.663929 1.42933 0
M  V30 11593 C 1099.14 -1.80643 1.49683 0
M  V30 11594 C 1100.15 -1.69694 0.38472 0
M  V30 11595 O 1101.33 -1.91052 0.637256 0
M  V30 11596 C 1098.4 -3.16858 1.4072 0
M  V30 11597 C 1097.46 -3.39684 2.62514 0
M  V30 11598 C 1096.69 -4.69399 2.53969 0
M  V30 11599 O 1096.91 -5.48037 1.58152 0
M  V30 11600 O 1095.85 -4.93709 3.44289 0
M  V30 11601 H 1099.67 -1.77903 2.46138 0
M  V30 11602 H 1097.26 -0.821059 1.24816 0
M  V30 11603 H 1099.14 -3.9812 1.38124 0
M  V30 11604 H 1097.81 -3.20211 0.473954 0
M  V30 11605 H 1096.72 -2.58227 2.70684 0
M  V30 11606 H 1098.05 -3.41169 3.54774 0
M  V30 11607 N 1099.71 -1.29285 -0.901281 0
M  V30 11608 C 1100.67 -1.14283 -1.98676 0
M  V30 11609 C 1101.67 -0.0787641 -1.60607 0
M  V30 11610 O 1102.86 -0.325574 -1.71131 0
M  V30 11611 C 1099.99 -0.747279 -3.32609 0
M  V30 11612 H 1101.18 -2.10701 -2.13413 0
M  V30 11613 H 1098.74 -1.12449 -1.08558 0
M  V30 11614 H 1099.47 0.217111 -3.23572 0
M  V30 11615 H 1099.26 -1.51608 -3.61604 0
M  V30 11616 H 1100.75 -0.665322 -4.12266 0
M  V30 11617 N 1101.18 1.11143 -1.11736 0
M  V30 11618 C 1102.43 1.82586 -0.866412 0
M  V30 11619 C 1102.75 1.85227 0.609593 0
M  V30 11620 O 1102.02 1.32505 1.44288 0
M  V30 11621 H 1100.6 0.676149 -0.31754 0
M  V30 11622 H 1103.27 1.34516 -1.41037 0
M  V30 11623 H 1102.36 2.8635 -1.24136 0
M  V30 11624 N 1102.66 0.908147 1.28804 0
M  V30 11625 C 1103.59 0.409106 2.29888 0
M  V30 11626 C 1104.57 -0.520338 1.61946 0
M  V30 11627 O 1105.76 -0.429268 1.89396 0
M  V30 11628 C 1102.89 -0.35669 3.45463 0
M  V30 11629 C 1101.84 0.4831 4.25265 0
M  V30 11630 C 1101.17 -0.4107 5.3312 0
M  V30 11631 C 1102.47 1.73744 4.92555 0
M  V30 11632 H 1104.16 1.25386 2.7188 0
M  V30 11633 H 1101.71 0.604368 1.30703 0
M  V30 11634 H 1103.66 -0.71661 4.15262 0
M  V30 11635 H 1102.39 -1.2353 3.02337 0
M  V30 11636 H 1101.04 0.825464 3.57186 0
M  V30 11637 H 1100.69 -1.28769 4.86238 0
M  V30 11638 H 1100.39 0.14756 5.87415 0
M  V30 11639 H 1101.92 -0.766626 6.05768 0
M  V30 11640 H 1103.33 1.44676 5.54745 0
M  V30 11641 H 1101.73 2.23767 5.5682 0
M  V30 11642 H 1102.8 2.46853 4.17363 0
M  V30 11643 N 1104.14 -1.42577 0.671525 0
M  V30 11644 C 1105.39 -2.01584 0.192431 0
M  V30 11645 C 1105.72 -1.53076 -1.19992 0
M  V30 11646 O 1104.97 -0.722196 -1.81887 0
M  V30 11647 C 1105.27 -3.56985 0.172097 0
M  V30 11648 C 1104.94 -4.24912 1.50867 0
M  V30 11649 C 1103.6 -4.43182 1.87464 0
M  V30 11650 C 1105.95 -4.6322 2.38908 0
M  V30 11651 C 1103.28 -4.97031 3.11732 0
M  V30 11652 C 1105.63 -5.18447 3.62485 0
M  V30 11653 C 1104.29 -5.34932 3.99255 0
M  V30 11654 H 1103.56 -0.737647 0.0704155 0
M  V30 11655 H 1106.21 -1.70807 0.865862 0
M  V30 11656 H 1104.52 -3.87411 -0.584835 0
M  V30 11657 H 1106.21 -4.00419 -0.215749 0
M  V30 11658 H 1102.8 -4.11048 1.21397 0
M  V30 11659 H 1106.99 -4.4878 2.1192 0
M  V30 11660 H 1102.24 -5.07979 3.40246 0
M  V30 11661 H 1106.42 -5.47075 4.30909 0
M  V30 11662 H 1104.04 -5.76422 4.95623 0
M  V30 11663 N 1105.62 -0.414636 -1.52048 0
M  V30 11664 C 1106.57 0.408141 -2.27163 0
M  V30 11665 C 1107.54 1.03636 -1.29803 0
M  V30 11666 O 1108.72 1.05959 -1.58674 0
M  V30 11667 C 1105.86 1.51588 -3.10024 0
M  V30 11668 C 1104.97 0.908034 -4.22349 0
M  V30 11669 C 1104.11 1.98893 -4.9256 0
M  V30 11670 C 1103.15 1.35831 -5.96839 0
M  V30 11671 N 1102.28 2.37958 -6.60545 0
M  V30 11672 H 1107.12 -0.238822 -2.97041 0
M  V30 11673 H 1104.66 -0.129614 -1.46528 0
M  V30 11674 H 1106.62 2.16916 -3.56375 0
M  V30 11675 H 1105.25 2.13279 -2.42305 0
M  V30 11676 H 1104.3 0.143652 -3.80129 0
M  V30 11677 H 1105.61 0.407426 -4.97133 0
M  V30 11678 H 1104.77 2.71935 -5.42343 0
M  V30 11679 H 1103.51 2.5232 -4.17356 0
M  V30 11680 H 1102.51 0.613246 -5.46369 0
M  V30 11681 H 1103.74 0.831655 -6.73988 0
M  V30 11682 H 1101.68 2.90508 -5.88167 0
M  V30 11683 H 1101.6 1.92725 -7.31022 0
M  V30 11684 H 1102.87 3.10553 -7.14966 0
M  V30 11685 N 1107.1 1.56929 -0.145233 0
M  V30 11686 C 1108.35 1.95243 0.506273 0
M  V30 11687 C 1108.66 1.0325 1.66129 0
M  V30 11688 O 1109.86 1.31135 2.37731 0
M  V30 11689 C 1108.32 3.47079 0.952042 0
M  V30 11690 C 1107.93 4.47654 -0.175947 0
M  V30 11691 C 1109.67 3.94263 1.57344 0
M  V30 11692 C 1107.58 5.90698 0.287993 0
M  V30 11693 H 1106.51 0.728906 0.192903 0
M  V30 11694 H 1109.16 1.82062 -0.229295 0
M  V30 11695 H 1107.54 3.55587 1.74282 0
M  V30 11696 H 1108.72 4.50841 -0.952848 0
M  V30 11697 H 1107.03 4.10377 -0.70564 0
M  V30 11698 H 1109.63 4.9857 1.93214 0
M  V30 11699 H 1109.97 3.35714 2.46174 0
M  V30 11700 H 1110.5 3.88665 0.847593 0
M  V30 11701 H 1107.24 6.53061 -0.564889 0
M  V30 11702 H 1106.76 5.90876 1.03081 0
M  V30 11703 H 1108.44 6.42747 0.740586 0
M  V30 11704 N 1108.58 -0.128553 1.57075 0
M  V30 11705 C 1109.51 -1.15953 2.02675 0
M  V30 11706 C 1110.49 -1.43743 0.909501 0
M  V30 11707 O 1111.67 -1.54348 1.17857 0
M  V30 11708 C 1108.8 -2.48813 2.423 0
M  V30 11709 C 1107.76 -2.35506 3.57381 0
M  V30 11710 C 1107.08 -3.73243 3.82875 0
M  V30 11711 C 1108.38 -1.82359 4.89431 0
M  V30 11712 H 1110.08 -0.780283 2.89054 0
M  V30 11713 H 1107.62 -0.373896 1.39061 0
M  V30 11714 H 1109.57 -3.21179 2.72804 0
M  V30 11715 H 1108.3 -2.88609 1.52881 0
M  V30 11716 H 1106.96 -1.6559 3.27071 0
M  V30 11717 H 1106.61 -4.10507 2.90677 0
M  V30 11718 H 1106.31 -3.65195 4.60333 0
M  V30 11719 H 1107.83 -4.47128 4.15823 0
M  V30 11720 H 1109.24 -2.44533 5.18533 0
M  V30 11721 H 1107.64 -1.85156 5.70822 0
M  V30 11722 H 1108.71 -0.780478 4.78578 0
M  V30 11723 N 1110.05 -1.5248 -0.398459 0
M  V30 11724 C 1111.28 -1.71221 -1.17039 0
M  V30 11725 C 1111.7 -0.425515 -1.83224 0
M  V30 11726 O 1111.06 0.617938 -1.70444 0
M  V30 11727 C 1111.11 -2.8562 -2.20121 0
M  V30 11728 O 1110.21 -2.51934 -3.26501 0
M  V30 11729 H 1109.55 -0.569654 -0.34116 0
M  V30 11730 H 1112.08 -1.99231 -0.465652 0
M  V30 11731 H 1112.09 -3.10842 -2.64275 0
M  V30 11732 H 1110.77 -3.78969 -1.71334 0
M  V30 11733 H 1109.35 -2.3742 -2.87552 0
M  V30 11734 N 1111.53 0.65634 -1.43283 0
M  V30 11735 C 1112.48 1.76934 -1.48199 0
M  V30 11736 C 1113.45 1.62748 -0.332023 0
M  V30 11737 O 1114.63 1.83036 -0.538735 0
M  V30 11738 C 1111.77 3.15072 -1.40797 0
M  V30 11739 C 1110.89 3.40414 -2.65974 0
M  V30 11740 C 1110.02 4.68383 -2.50582 0
M  V30 11741 C 1109.06 4.8682 -3.71043 0
M  V30 11742 N 1108.2 6.06043 -3.5448 0
M  V30 11743 H 1113.04 1.72067 -2.43304 0
M  V30 11744 H 1110.57 0.839728 -1.20777 0
M  V30 11745 H 1112.53 3.94925 -1.345 0
M  V30 11746 H 1111.16 3.19017 -0.492754 0
M  V30 11747 H 1110.21 2.54681 -2.82563 0
M  V30 11748 H 1111.53 3.49925 -3.55463 0
M  V30 11749 H 1110.68 5.56357 -2.41975 0
M  V30 11750 H 1109.42 4.61187 -1.58612 0
M  V30 11751 H 1108.42 3.97282 -3.80062 0
M  V30 11752 H 1109.65 4.95847 -4.64017 0
M  V30 11753 H 1107.6 5.99985 -2.65242 0
M  V30 11754 H 1107.51 6.16498 -4.37568 0
M  V30 11755 H 1108.78 6.96647 -3.49719 0
M  V30 11756 N 1113.01 1.29761 0.894412 0
M  V30 11757 C 1113.94 1.09666 2.00121 0
M  V30 11758 C 1114.92 0.00700077 1.62598 0
M  V30 11759 O 1116.1 0.158728 1.87831 0
M  V30 11760 C 1113.23 0.670588 3.31995 0
M  V30 11761 C 1112.28 1.75974 3.88504 0
M  V30 11762 S 1113.11 3.36013 4.1696 0
M  V30 11763 C 1114.27 2.95285 5.51867 0
M  V30 11764 H 1114.5 2.03369 2.1686 0
M  V30 11765 H 1112.03 1.13968 1.04166 0
M  V30 11766 H 1113.99 0.431481 4.08226 0
M  V30 11767 H 1112.65 -0.246924 3.13128 0
M  V30 11768 H 1111.84 1.41367 4.83768 0
M  V30 11769 H 1111.45 1.95264 3.1898 0
M  V30 11770 H 1113.74 2.42659 6.32553 0
M  V30 11771 H 1114.68 3.8942 5.91403 0
M  V30 11772 H 1115.09 2.33426 5.13977 0
M  V30 11773 N 1114.49 -1.10549 1.12324 0
M  V30 11774 C 1115.74 -1.82124 0.876083 0
M  V30 11775 C 1116.06 -1.85547 -0.599761 0
M  V30 11776 O 1115.33 -1.33269 -1.43584 0
M  V30 11777 H 1113.91 -0.674455 0.321122 0
M  V30 11778 H 1116.57 -1.33766 1.41748 0
M  V30 11779 H 1115.66 -2.85688 1.25653 0
M  V30 11780 N 1115.97 -0.914965 -1.28321 0
M  V30 11781 C 1117.21 -0.544639 -1.94208 0
M  V30 11782 C 1117.53 0.916368 -1.72806 0
M  V30 11783 O 1118.73 1.39491 -2.32926 0
M  V30 11784 C 1117.19 -0.923209 -3.47858 0
M  V30 11785 C 1116.8 -2.40403 -3.78035 0
M  V30 11786 C 1118.54 -0.623526 -4.19896 0
M  V30 11787 C 1116.45 -2.72266 -5.25 0
M  V30 11788 H 1115.38 -0.199966 -0.727 0
M  V30 11789 H 1118.03 -1.11405 -1.45812 0
M  V30 11790 H 1116.41 -0.282576 -3.94991 0
M  V30 11791 H 1117.59 -3.09149 -3.41706 0
M  V30 11792 H 1115.9 -2.67429 -3.19172 0
M  V30 11793 H 1118.5 -0.838243 -5.28089 0
M  V30 11794 H 1118.84 0.438721 -4.13982 0
M  V30 11795 H 1119.37 -1.22268 -3.78544 0
M  V30 11796 H 1116.11 -3.77349 -5.35993 0
M  V30 11797 H 1115.63 -2.08157 -5.62522 0
M  V30 11798 H 1117.31 -2.59334 -5.92752 0
M  V30 11799 N 1117.44 1.42219 -0.679077 0
M  V30 11800 C 1118.67 2.06333 -0.210097 0
M  V30 11801 C 1119.09 1.50703 1.12562 0
M  V30 11802 O 1118.45 0.627241 1.70104 0
M  V30 11803 C 1118.5 3.60243 -0.160322 0
M  V30 11804 O 1117.6 4.03122 0.869872 0
M  V30 11805 H 1116.94 0.655362 -0.106754 0
M  V30 11806 H 1119.47 1.82278 -0.929294 0
M  V30 11807 H 1119.48 4.07997 0.014384 0
M  V30 11808 H 1118.16 4.00106 -1.13526 0
M  V30 11809 H 1116.74 3.66907 0.66586 0
M  V30 11810 N 1118.92 0.422693 1.51826 0
M  V30 11811 C 1119.85 -0.386913 2.30272 0
M  V30 11812 C 1120.83 -1.03411 1.35056 0
M  V30 11813 O 1122.02 -1.04055 1.6397 0
M  V30 11814 C 1119.15 -1.49645 3.13407 0
M  V30 11815 C 1118.1 -0.973532 4.16781 0
M  V30 11816 C 1117.43 -2.1777 4.88344 0
M  V30 11817 C 1118.73 -0.0181194 5.22297 0
M  V30 11818 H 1120.42 0.267697 2.98201 0
M  V30 11819 H 1117.97 0.130186 1.4341 0
M  V30 11820 H 1119.92 -2.06993 3.67059 0
M  V30 11821 H 1118.64 -2.17914 2.43272 0
M  V30 11822 H 1117.3 -0.42237 3.64159 0
M  V30 11823 H 1116.95 -2.84625 4.14726 0
M  V30 11824 H 1116.65 -1.83427 5.58237 0
M  V30 11825 H 1118.18 -2.75699 5.44814 0
M  V30 11826 H 1119.59 -0.500822 5.71108 0
M  V30 11827 H 1117.99 0.237163 5.99631 0
M  V30 11828 H 1119.06 0.923065 4.76033 0
M  V30 11829 N 1120.4 -1.5685 0.153553 0
M  V30 11830 C 1121.33 -2.20101 -0.779601 0
M  V30 11831 C 1122.31 -1.15121 -1.25225 0
M  V30 11832 O 1123.5 -1.43487 -1.30862 0
M  V30 11833 C 1120.63 -2.82778 -2.01628 0
M  V30 11834 C 1119.58 -3.93643 -1.68015 0
M  V30 11835 C 1118.91 -4.43286 -2.99001 0
M  V30 11836 C 1120.21 -5.14102 -0.921774 0
M  V30 11837 H 1121.9 -2.98334 -0.252432 0
M  V30 11838 H 1119.45 -1.43499 -0.119975 0
M  V30 11839 H 1121.4 -3.25696 -2.67395 0
M  V30 11840 H 1120.12 -2.01887 -2.56728 0
M  V30 11841 H 1118.78 -3.51354 -1.04624 0
M  V30 11842 H 1118.43 -3.59208 -3.52106 0
M  V30 11843 H 1118.13 -5.18068 -2.77272 0
M  V30 11844 H 1119.65 -4.88878 -3.65828 0
M  V30 11845 H 1121.07 -5.53823 -1.48167 0
M  V30 11846 H 1119.46 -5.94687 -0.804185 0
M  V30 11847 H 1120.53 -4.84825 0.0852757 0
M  V30 11848 N 1121.88 0.120221 -1.57141 0
M  V30 11849 C 1122.84 1.13159 -1.99318 0
M  V30 11850 C 1123.84 1.34376 -0.883158 0
M  V30 11851 O 1125.03 1.30914 -1.14922 0
M  V30 11852 C 1122.16 2.48632 -2.33227 0
M  V30 11853 H 1123.36 0.769119 -2.8987 0
M  V30 11854 H 1120.91 0.364475 -1.51991 0
M  V30 11855 H 1121.64 2.89802 -1.45551 0
M  V30 11856 H 1121.43 2.34587 -3.14184 0
M  V30 11857 H 1122.92 3.21423 -2.66603 0
M  V30 11858 N 1123.36 1.52689 0.390367 0
M  V30 11859 C 1124.58 1.71839 1.16129 0
M  V30 11860 C 1125.01 0.435226 1.82996 0
M  V30 11861 O 1124.36 -0.60889 1.70769 0
M  V30 11862 C 1124.41 2.86784 2.18603 0
M  V30 11863 O 1123.52 2.53662 3.25161 0
M  V30 11864 H 1122.86 0.571455 0.338135 0
M  V30 11865 H 1125.39 1.99475 0.45508 0
M  V30 11866 H 1125.4 3.12239 2.62622 0
M  V30 11867 H 1124.07 3.79872 1.69322 0
M  V30 11868 H 1122.65 2.38942 2.86289 0
M  V30 11869 N 1124.83 -0.648732 1.43629 0
M  V30 11870 C 1126.06 -1.43412 1.48716 0
M  V30 11871 C 1126.47 -1.88908 0.105051 0
M  V30 11872 O 1125.82 -1.60373 -0.895896 0
M  V30 11873 C 1125.88 -2.69906 2.37468 0
M  V30 11874 C 1125.54 -2.46321 3.84935 0
M  V30 11875 C 1126.54 -2.09259 4.75927 0
M  V30 11876 C 1124.22 -2.60506 4.29467 0
M  V30 11877 C 1126.22 -1.86686 6.09448 0
M  V30 11878 C 1123.9 -2.37548 5.6304 0
M  V30 11879 C 1124.9 -2.00694 6.52848 0
M  V30 11880 O 1124.59 -1.77979 7.83951 0
M  V30 11881 H 1124.32 -0.446883 0.507219 0
M  V30 11882 H 1126.88 -0.802218 1.89086 0
M  V30 11883 H 1125.11 -3.35672 1.91993 0
M  V30 11884 H 1126.8 -3.31867 2.33707 0
M  V30 11885 H 1127.56 -1.97872 4.428 0
M  V30 11886 H 1123.44 -2.88165 3.59836 0
M  V30 11887 H 1126.98 -1.57844 6.79508 0
M  V30 11888 H 1122.88 -2.48539 5.95734 0
M  V30 11889 H 1123.65 -1.92368 7.95573 0
M  V30 11890 N 1126.31 -1.30234 -0.887518 0
M  V30 11891 C 1127.26 -1.13013 -1.9802 0
M  V30 11892 C 1128.25 -0.0460253 -1.60834 0
M  V30 11893 O 1129.44 -0.26907 -1.74943 0
M  V30 11894 C 1126.57 -0.821397 -3.33329 0
M  V30 11895 C 1125.65 -1.94564 -3.76837 0
M  V30 11896 N 1126.04 -3.19068 -3.92465 0
M  V30 11897 C 1124.34 -1.84142 -4.06211 0
M  V30 11898 C 1125.04 -3.92495 -4.29328 0
M  V30 11899 N 1124.02 -3.20526 -4.39049 0
M  V30 11900 H 1127.82 -2.07446 -2.0819 0
M  V30 11901 H 1125.34 -1.21536 -1.07716 0
M  V30 11902 H 1127.33 -0.679046 -4.11333 0
M  V30 11903 H 1125.99 0.114891 -3.24497 0
M  V30 11904 H 1127 -3.54386 -3.77665 0
M  V30 11905 H 1123.68 -0.97865 -4.05868 0
M  V30 11906 H 1125.07 -4.99701 -4.49164 0
M  V30 11907 N 1127.79 1.09952 -1.12909 0
M  V30 11908 C 1129.04 1.81657 -0.885729 0
M  V30 11909 C 1129.36 1.85863 0.589913 0
M  V30 11910 O 1128.63 1.34028 1.42875 0
M  V30 11911 H 1127.21 0.672743 -0.324694 0
M  V30 11912 H 1129.87 1.33013 -1.42456 0
M  V30 11913 H 1128.97 2.85018 -1.27167 0
M  V30 11914 N 1129.27 0.921757 1.27833 0
M  V30 11915 C 1130.23 0.420978 2.25301 0
M  V30 11916 C 1131.23 -0.457158 1.54165 0
M  V30 11917 O 1132.42 -0.259079 1.72263 0
M  V30 11918 C 1129.55 -0.395501 3.38598 0
M  V30 11919 H 1130.75 1.28206 2.71115 0
M  V30 11920 H 1128.3 0.701893 1.39654 0
M  V30 11921 H 1129.03 -1.27565 2.98157 0
M  V30 11922 H 1128.82 0.234029 3.91401 0
M  V30 11923 H 1130.31 -0.736444 4.11055 0
M  V30 11924 N 1130.75 -1.41857 0.686609 0
M  V30 11925 C 1131.68 -2.29188 -0.0234289 0
M  V30 11926 C 1132.69 -1.44311 -0.753541 0
M  V30 11927 O 1133.88 -1.67908 -0.605734 0
M  V30 11928 C 1130.98 -3.21991 -1.05713 0
M  V30 11929 C 1130.15 -4.35581 -0.398453 0
M  V30 11930 C 1129.21 -5.09022 -1.33354 0
M  V30 11931 O 1128.24 -5.63126 -0.829334 0
M  V30 11932 N 1129.44 -5.15643 -2.66632 0
M  V30 11933 H 1132.21 -2.90766 0.726295 0
M  V30 11934 H 1129.77 -1.52912 0.531937 0
M  V30 11935 H 1131.76 -3.6799 -1.68421 0
M  V30 11936 H 1130.33 -2.61782 -1.70847 0
M  V30 11937 H 1129.55 -3.92079 0.408358 0
M  V30 11938 H 1130.84 -5.08765 0.0599239 0
M  V30 11939 H 1130.23 -4.73118 -3.10122 0
M  V30 11940 H 1128.79 -5.65248 -3.24558 0
M  V30 11941 N 1132.22 -0.430739 -1.51599 0
M  V30 11942 C 1133.47 0.139396 -2.01218 0
M  V30 11943 C 1133.79 1.44361 -1.31982 0
M  V30 11944 O 1134.99 2.0963 -1.72533 0
M  V30 11945 C 1133.45 0.298969 -3.58656 0
M  V30 11946 C 1133.06 -0.994424 -4.36824 0
M  V30 11947 C 1134.8 0.82323 -4.16441 0
M  V30 11948 C 1132.71 -0.800855 -5.85952 0
M  V30 11949 H 1131.64 0.0558698 -0.751927 0
M  V30 11950 H 1134.29 -0.559493 -1.74762 0
M  V30 11951 H 1132.67 1.06071 -3.8153 0
M  V30 11952 H 1133.84 -1.76398 -4.257 0
M  V30 11953 H 1132.16 -1.44672 -3.9046 0
M  V30 11954 H 1134.76 0.984434 -5.2556 0
M  V30 11955 H 1135.1 1.80388 -3.75188 0
M  V30 11956 H 1135.63 0.119982 -3.97619 0
M  V30 11957 H 1132.37 -1.75369 -6.31606 0
M  V30 11958 H 1131.89 -0.0709793 -5.99758 0
M  V30 11959 H 1133.57 -0.451459 -6.45423 0
M  V30 11960 N 1133.7 1.56767 -0.161869 0
M  V30 11961 C 1134.95 1.96594 0.485496 0
M  V30 11962 C 1135.28 1.04743 1.63887 0
M  V30 11963 O 1134.53 0.079602 1.95538 0
M  V30 11964 C 1134.83 3.42567 1.01894 0
M  V30 11965 C 1134.5 4.50897 -0.0175419 0
M  V30 11966 C 1133.16 4.80249 -0.302429 0
M  V30 11967 C 1135.51 5.16181 -0.721572 0
M  V30 11968 C 1132.84 5.72187 -1.2969 0
M  V30 11969 C 1135.19 6.09191 -1.70496 0
M  V30 11970 C 1133.86 6.36915 -1.99739 0
M  V30 11971 H 1133.13 0.719388 0.177656 0
M  V30 11972 H 1135.77 1.89837 -0.251839 0
M  V30 11973 H 1134.08 3.4623 1.83391 0
M  V30 11974 H 1135.77 3.70719 1.52867 0
M  V30 11975 H 1132.36 4.28062 0.21468 0
M  V30 11976 H 1136.55 4.93624 -0.514681 0
M  V30 11977 H 1131.8 5.91953 -1.52974 0
M  V30 11978 H 1135.98 6.58849 -2.25591 0
M  V30 11979 H 1133.61 7.07958 -2.76948 0
M  V30 11980 N 1135.18 -0.111886 1.57202 0
M  V30 11981 C 1136.09 -1.1556 2.04165 0
M  V30 11982 C 1137.11 -1.44898 0.963354 0
M  V30 11983 O 1138.28 -1.55873 1.27536 0
M  V30 11984 C 1135.35 -2.46048 2.44256 0
M  V30 11985 C 1134.41 -2.24043 3.66201 0
M  V30 11986 C 1133.64 -3.4831 4.04371 0
M  V30 11987 O 1133.86 -4.55895 3.42806 0
M  V30 11988 O 1132.8 -3.38891 4.9743 0
M  V30 11989 H 1136.62 -0.786778 2.93332 0
M  V30 11990 H 1134.21 -0.323196 1.45862 0
M  V30 11991 H 1136.09 -3.22916 2.70745 0
M  V30 11992 H 1134.77 -2.8239 1.58233 0
M  V30 11993 H 1133.67 -1.4501 3.44852 0
M  V30 11994 H 1135.01 -1.92602 4.52952 0
M  V30 11995 N 1136.66 -1.52894 -0.382264 0
M  V30 11996 C 1137.62 -1.77497 -1.45008 0
M  V30 11997 C 1138.62 -0.64509 -1.47293 0
M  V30 11998 O 1139.81 -0.913192 -1.48346 0
M  V30 11999 C 1136.94 -1.88188 -2.8425 0
M  V30 12000 H 1138.14 -2.72849 -1.24473 0
M  V30 12001 H 1135.69 -1.43717 -0.61441 0
M  V30 12002 H 1136.42 -0.948451 -3.10121 0
M  V30 12003 H 1136.21 -2.70353 -2.83992 0
M  V30 12004 H 1137.7 -2.08873 -3.6161 0
M  V30 12005 N 1138.14 0.641106 -1.43971 0
M  V30 12006 C 1139.39 1.39676 -1.45511 0
M  V30 12007 C 1139.7 1.95403 -0.0877084 0
M  V30 12008 O 1140.91 2.71493 0.0193965 0
M  V30 12009 C 1139.36 2.52839 -2.56126 0
M  V30 12010 C 1138.97 2.03668 -3.99028 0
M  V30 12011 C 1140.71 3.30118 -2.66875 0
M  V30 12012 C 1138.62 3.14114 -5.01085 0
M  V30 12013 H 1137.55 0.524854 -0.541336 0
M  V30 12014 H 1140.2 0.69075 -1.70003 0
M  V30 12015 H 1138.58 3.25968 -2.24857 0
M  V30 12016 H 1139.76 1.3747 -4.39817 0
M  V30 12017 H 1138.07 1.39233 -3.92432 0
M  V30 12018 H 1140.67 4.12434 -3.40297 0
M  V30 12019 H 1141.01 3.78946 -1.72353 0
M  V30 12020 H 1141.55 2.64075 -2.97505 0
M  V30 12021 H 1138.28 2.70241 -5.97202 0
M  V30 12022 H 1137.8 3.78985 -4.64898 0
M  V30 12023 H 1139.48 3.79051 -5.24337 0
M  V30 12024 N 1139.62 1.30703 0.880598 0
M  V30 12025 C 1140.86 1.19541 1.62955 0
M  V30 12026 C 1141.18 -0.249089 1.93403 0
M  V30 12027 O 1140.45 -1.1669 1.57354 0
M  V30 12028 H 1139.03 0.439434 0.604075 0
M  V30 12029 H 1141.7 1.63888 1.05483 0
M  V30 12030 H 1140.79 1.75945 2.57779 0
M  V30 12031 N 1141.09 -1.09351 1.1349 0
M  V30 12032 C 1142.02 -2.18037 0.835588 0
M  V30 12033 C 1143 -1.68856 -0.205373 0
M  V30 12034 O 1144.19 -1.94094 -0.0641357 0
M  V30 12035 C 1141.32 -3.45987 0.301661 0
M  V30 12036 C 1140.27 -4.08507 1.27696 0
M  V30 12037 C 1139.6 -5.31292 0.602758 0
M  V30 12038 C 1140.9 -4.50916 2.63575 0
M  V30 12039 H 1142.59 -2.43332 1.74441 0
M  V30 12040 H 1140.14 -1.1695 0.840166 0
M  V30 12041 H 1142.09 -4.21324 0.079928 0
M  V30 12042 H 1140.82 -3.20217 -0.642552 0
M  V30 12043 H 1139.48 -3.3519 1.4847 0
M  V30 12044 H 1139.12 -5.01802 -0.346953 0
M  V30 12045 H 1138.82 -5.74075 1.25345 0
M  V30 12046 H 1140.35 -6.09351 0.390325 0
M  V30 12047 H 1141.76 -5.17474 2.46765 0
M  V30 12048 H 1140.16 -5.04586 3.24827 0
M  V30 12049 H 1141.23 -3.63279 3.2118 0
M  V30 12050 N 1142.57 -0.928524 -1.27343 0
M  V30 12051 C 1143.82 -0.568267 -1.93946 0
M  V30 12052 C 1144.14 0.893501 -1.73325 0
M  V30 12053 O 1143.41 1.63344 -1.08147 0
M  V30 12054 H 1141.99 -0.207173 -0.717696 0
M  V30 12055 H 1144.65 -1.1811 -1.55036 0
M  V30 12056 H 1143.75 -0.775246 -3.02318 0
M  V30 12057 N 1144.05 1.41491 -0.694123 0
M  V30 12058 C 1145.01 2.2917 -0.0368562 0
M  V30 12059 C 1146.01 1.44305 0.709426 0
M  V30 12060 O 1147.2 1.6547 0.544533 0
M  V30 12061 C 1144.33 3.27156 0.958201 0
M  V30 12062 H 1145.53 2.88787 -0.808829 0
M  V30 12063 H 1143.08 1.49453 -0.457538 0
M  V30 12064 H 1143.82 2.72516 1.75799 0
M  V30 12065 H 1143.6 3.89776 0.426227 0
M  V30 12066 H 1145.09 3.92863 1.41592 0
M  V30 12067 N 1145.53 0.438773 1.51369 0
M  V30 12068 C 1146.44 -0.378074 2.31534 0
M  V30 12069 C 1147.45 -1.02632 1.40508 0
M  V30 12070 O 1148.63 -1.02138 1.73579 0
M  V30 12071 C 1145.69 -1.46374 3.14286 0
M  V30 12072 C 1144.76 -0.835473 4.21092 0
M  V30 12073 C 1143.99 -1.86941 4.99889 0
M  V30 12074 O 1144.21 -3.0918 4.79337 0
M  V30 12075 O 1143.15 -1.45914 5.83946 0
M  V30 12076 H 1146.97 0.276401 3.0244 0
M  V30 12077 H 1144.56 0.201281 1.48038 0
M  V30 12078 H 1146.44 -2.09335 3.65728 0
M  V30 12079 H 1145.11 -2.10227 2.46143 0
M  V30 12080 H 1144.02 -0.167775 3.73724 0
M  V30 12081 H 1145.35 -0.240406 4.91613 0
M  V30 12082 N 1147.01 -1.56678 0.170181 0
M  V30 12083 C 1147.94 -2.20916 -0.756213 0
M  V30 12084 C 1148.92 -1.16442 -1.23997 0
M  V30 12085 O 1150.1 -1.44867 -1.29333 0
M  V30 12086 C 1147.23 -2.84901 -1.98617 0
M  V30 12087 C 1146.19 -3.95403 -1.63831 0
M  V30 12088 C 1145.51 -4.46432 -2.94282 0
M  V30 12089 C 1146.81 -5.15051 -0.867195 0
M  V30 12090 H 1148.51 -2.98585 -0.220776 0
M  V30 12091 H 1146.05 -1.43619 -0.104748 0
M  V30 12092 H 1148 -3.28514 -2.63926 0
M  V30 12093 H 1146.73 -2.04598 -2.54572 0
M  V30 12094 H 1145.39 -3.52444 -1.00891 0
M  V30 12095 H 1145.04 -3.62923 -3.48276 0
M  V30 12096 H 1144.74 -5.20979 -2.71762 0
M  V30 12097 H 1146.26 -4.92731 -3.60622 0
M  V30 12098 H 1147.67 -5.55363 -1.42285 0
M  V30 12099 H 1146.07 -5.95507 -0.741065 0
M  V30 12100 H 1147.14 -4.84707 0.136693 0
M  V30 12101 N 1148.48 0.103547 -1.57259 0
M  V30 12102 C 1149.73 0.809774 -1.85931 0
M  V30 12103 C 1150.06 1.78791 -0.758122 0
M  V30 12104 O 1149.34 1.93079 0.234682 0
M  V30 12105 C 1149.62 1.54601 -3.25224 0
M  V30 12106 C 1149.47 0.586439 -4.45961 0
M  V30 12107 C 1150.79 2.4986 -3.62296 0
M  V30 12108 H 1147.91 0.29293 -0.676285 0
M  V30 12109 H 1150.55 0.0736065 -1.89857 0
M  V30 12110 H 1148.7 2.17355 -3.22008 0
M  V30 12111 H 1150.38 -0.0334441 -4.61288 0
M  V30 12112 H 1148.62 -0.10085 -4.33683 0
M  V30 12113 H 1149.29 1.13855 -5.40131 0
M  V30 12114 H 1151.77 1.97203 -3.66402 0
M  V30 12115 H 1150.64 2.98396 -4.60707 0
M  V30 12116 H 1150.9 3.33233 -2.90531 0
M  V30 12117 N 1149.96 1.53094 0.37415 0
M  V30 12118 C 1150.87 1.81872 1.48188 0
M  V30 12119 C 1151.89 0.706487 1.59012 0
M  V30 12120 O 1153.06 0.995648 1.75068 0
M  V30 12121 C 1150.13 1.99494 2.83554 0
M  V30 12122 C 1149.19 3.23402 2.82329 0
M  V30 12123 C 1148.42 3.40174 4.11239 0
M  V30 12124 O 1148.65 2.61425 5.06965 0
M  V30 12125 O 1147.58 4.33493 4.17573 0
M  V30 12126 H 1151.41 2.75965 1.26795 0
M  V30 12127 H 1148.99 1.38368 0.56343 0
M  V30 12128 H 1150.87 2.12705 3.63778 0
M  V30 12129 H 1149.55 1.08591 3.04942 0
M  V30 12130 H 1148.45 3.15621 2.00834 0
M  V30 12131 H 1149.79 4.14199 2.65894 0
M  V30 12132 N 1151.44 -0.633461 1.44309 0
M  V30 12133 C 1152.67 -1.41827 1.50229 0
M  V30 12134 C 1153.08 -1.88786 0.125082 0
M  V30 12135 O 1152.42 -1.61314 -0.878836 0
M  V30 12136 C 1152.48 -2.67372 2.40317 0
M  V30 12137 C 1152.15 -2.42224 3.87526 0
M  V30 12138 C 1153.14 -2.04199 4.7812 0
M  V30 12139 C 1150.83 -2.55936 4.32206 0
M  V30 12140 C 1152.82 -1.80211 6.11394 0
M  V30 12141 C 1150.51 -2.31563 5.65528 0
M  V30 12142 C 1151.51 -1.93758 6.5494 0
M  V30 12143 O 1151.2 -1.69654 7.85794 0
M  V30 12144 H 1150.93 -0.441478 0.51193 0
M  V30 12145 H 1153.48 -0.782118 1.89927 0
M  V30 12146 H 1151.71 -3.33616 1.95543 0
M  V30 12147 H 1153.4 -3.2937 2.37214 0
M  V30 12148 H 1154.17 -1.93164 4.44874 0
M  V30 12149 H 1150.05 -2.84333 3.62872 0
M  V30 12150 H 1153.59 -1.50628 6.81144 0
M  V30 12151 H 1149.49 -2.42206 5.98336 0
M  V30 12152 H 1150.25 -1.83919 7.97569 0
M  V30 12153 N 1152.92 -1.31168 -0.873655 0
M  V30 12154 C 1153.88 -1.18471 -1.96207 0
M  V30 12155 C 1154.88 -0.112814 -1.60404 0
M  V30 12156 O 1156.07 -0.3618 -1.70401 0
M  V30 12157 C 1153.2 -0.817662 -3.30949 0
M  V30 12158 H 1154.4 -2.1518 -2.08896 0
M  V30 12159 H 1151.95 -1.14727 -1.06149 0
M  V30 12160 H 1152.68 0.148428 -3.2396 0
M  V30 12161 H 1152.47 -1.59244 -3.58307 0
M  V30 12162 H 1153.96 -0.75262 -4.10762 0
M  V30 12163 N 1154.4 1.08748 -1.14068 0
M  V30 12164 C 1155.64 1.81065 -0.906738 0
M  V30 12165 C 1155.97 1.86057 0.566844 0
M  V30 12166 O 1155.23 1.32976 1.43582 0
M  V30 12167 C 1155.53 3.26734 -1.44843 0
M  V30 12168 C 1155.19 3.41866 -2.94005 0
M  V30 12169 C 1153.85 3.45703 -3.34729 0
M  V30 12170 C 1156.21 3.45831 -3.89937 0
M  V30 12171 C 1153.53 3.51092 -4.70055 0
M  V30 12172 C 1155.89 3.52755 -5.25116 0
M  V30 12173 C 1154.55 3.54863 -5.65357 0
M  V30 12174 H 1153.82 0.662564 -0.331799 0
M  V30 12175 H 1156.47 1.28065 -1.42378 0
M  V30 12176 H 1154.77 3.82419 -0.852239 0
M  V30 12177 H 1156.47 3.81236 -1.2434 0
M  V30 12178 H 1153.06 3.39568 -2.61518 0
M  V30 12179 H 1157.24 3.421 -3.59557 0
M  V30 12180 H 1152.5 3.51015 -5.00598 0
M  V30 12181 H 1156.67 3.54768 -5.9926 0
M  V30 12182 H 1154.3 3.58792 -6.70203 0
M  V30 12183 N 1155.87 0.935264 1.26849 0
M  V30 12184 C 1156.84 0.44485 2.24842 0
M  V30 12185 C 1157.84 -0.440781 1.54641 0
M  V30 12186 O 1159.03 -0.240793 1.72528 0
M  V30 12187 C 1156.16 -0.359566 3.38998 0
M  V30 12188 H 1157.35 1.31074 2.6974 0
M  V30 12189 H 1154.91 0.716665 1.38901 0
M  V30 12190 H 1155.64 -1.24396 2.99493 0
M  V30 12191 H 1155.43 0.275529 3.91131 0
M  V30 12192 H 1156.92 -0.692804 4.11813 0
M  V30 12193 N 1157.35 -1.41121 0.701616 0
M  V30 12194 C 1158.6 -2.00733 0.234682 0
M  V30 12195 C 1158.92 -1.55869 -1.17174 0
M  V30 12196 O 1158.19 -0.791965 -1.79178 0
M  V30 12197 H 1156.77 -0.742288 0.0837745 0
M  V30 12198 H 1159.43 -1.7266 0.904127 0
M  V30 12199 H 1158.53 -3.11041 0.256831 0
M  V30 12200 N 1158.83 -0.446794 -1.51134 0
M  V30 12201 C 1160.06 0.114893 -2.06581 0
M  V30 12202 C 1160.47 1.35642 -1.31327 0
M  V30 12203 O 1159.83 1.78595 -0.375506 0
M  V30 12204 C 1159.88 0.427589 -3.58962 0
M  V30 12205 O 1159.6 -0.764669 -4.31375 0
M  V30 12206 C 1161.1 1.03891 -4.30954 0
M  V30 12207 H 1158.32 0.00373031 -0.67099 0
M  V30 12208 H 1160.87 -0.628596 -1.94599 0
M  V30 12209 H 1159.02 1.12099 -3.70827 0
M  V30 12210 H 1159.44 -0.494605 -5.22163 0
M  V30 12211 H 1160.91 1.20764 -5.38628 0
M  V30 12212 H 1161.39 2.02252 -3.8986 0
M  V30 12213 H 1161.99 0.384623 -4.23557 0
M  V30 12214 N 1160.31 1.56586 -0.178487 0
M  V30 12215 C 1161.54 2.01475 0.470684 0
M  V30 12216 C 1161.95 1.0587 1.56323 0
M  V30 12217 O 1161.31 0.060749 1.82399 0
M  V30 12218 C 1161.36 3.46145 1.04238 0
M  V30 12219 O 1161.08 4.381 -0.0065582 0
M  V30 12220 C 1162.58 4.06471 1.76908 0
M  V30 12221 H 1159.8 0.660219 0.119801 0
M  V30 12222 H 1162.35 2.02542 -0.282322 0
M  V30 12223 H 1160.5 3.45831 1.74585 0
M  V30 12224 H 1160.91 5.22843 0.416554 0
M  V30 12225 H 1162.39 5.096 2.12161 0
M  V30 12226 H 1162.87 3.48974 2.66672 0
M  V30 12227 H 1163.47 4.10509 1.11186 0
M  V30 12228 N 1161.79 -0.095206 1.57312 0
M  V30 12229 C 1163.01 -0.81614 1.90667 0
M  V30 12230 C 1163.44 -1.71494 0.772746 0
M  V30 12231 O 1162.79 -1.79192 -0.275682 0
M  V30 12232 C 1162.84 -1.60555 3.22885 0
M  V30 12233 O 1161.95 -2.71448 3.10467 0
M  V30 12234 H 1161.29 -0.224217 0.624998 0
M  V30 12235 H 1163.82 -0.070464 2.04479 0
M  V30 12236 H 1163.83 -1.98979 3.5619 0
M  V30 12237 H 1162.5 -0.945918 4.05 0
M  V30 12238 H 1161.08 -2.36053 2.88675 0
M  V30 12239 N 1163.26 -1.53291 -0.366026 0
M  V30 12240 C 1164.68 -1.43053 -0.707669 0
M  V30 12241 C 1164.88 -0.56925 -1.93292 0
M  V30 12242 O 1163.94 -0.0515214 -2.52447 0
M  V30 12243 C 1165.25 -2.86239 -0.921292 0
M  V30 12244 C 1166.8 -2.95868 -1.02133 0
M  V30 12245 C 1167.27 -4.40114 -1.26743 0
M  V30 12246 N 1168.76 -4.43541 -1.33514 0
M  V30 12247 C 1169.5 -5.52259 -1.54264 0
M  V30 12248 N 1168.99 -6.71024 -1.72335 0
M  V30 12249 N 1170.79 -5.39836 -1.5663 0
M  V30 12250 H 1162.94 -2.07795 0.43988 0
M  V30 12251 H 1165.2 -0.938376 0.134736 0
M  V30 12252 H 1164.91 -3.51578 -0.0928042 0
M  V30 12253 H 1164.78 -3.29862 -1.82951 0
M  V30 12254 H 1167.17 -2.30683 -1.84036 0
M  V30 12255 H 1167.25 -2.5564 -0.0905097 0
M  V30 12256 H 1166.89 -5.05872 -0.453409 0
M  V30 12257 H 1166.82 -4.77914 -2.21146 0
M  V30 12258 H 1169.31 -3.57949 -1.21165 0
M  V30 12259 H 1169.63 -7.49649 -1.8774 0
M  V30 12260 H 1167.97 -6.7401 -1.69514 0
M  V30 12261 H 1171.16 -4.46017 -1.4208 0
M  V30 12262 H 1171.34 -6.24629 -1.72461 0
M  V30 12263 N 1164.74 0.6258 -1.44643 0
M  V30 12264 C 1165.99 1.3873 -1.47925 0
M  V30 12265 C 1166.32 1.93868 -0.113469 0
M  V30 12266 O 1165.6 1.73976 0.869639 0
M  V30 12267 C 1165.88 2.54867 -2.54391 0
M  V30 12268 C 1165.73 2.05044 -4.00346 0
M  V30 12269 C 1167.05 3.57043 -2.57309 0
M  V30 12270 H 1164.17 0.503087 -0.538584 0
M  V30 12271 H 1166.81 0.707102 -1.76352 0
M  V30 12272 H 1164.96 3.12894 -2.30281 0
M  V30 12273 H 1166.63 1.51807 -4.35606 0
M  V30 12274 H 1164.88 1.36185 -4.11869 0
M  V30 12275 H 1165.55 2.88681 -4.70497 0
M  V30 12276 H 1168.02 3.08826 -2.78865 0
M  V30 12277 H 1166.9 4.35818 -3.33698 0
M  V30 12278 H 1167.16 4.11464 -1.61708 0
M  V30 12279 N 1166.22 1.31629 0.866686 0
M  V30 12280 C 1167.47 1.21263 1.61678 0
M  V30 12281 C 1167.79 -0.228562 1.93656 0
M  V30 12282 O 1167.06 -1.15014 1.58583 0
M  V30 12283 H 1165.64 0.445817 0.59938 0
M  V30 12284 H 1168.3 1.64998 1.03739 0
M  V30 12285 H 1167.4 1.78669 2.55898 0
M  V30 12286 N 1167.7 -1.08142 1.14644 0
M  V30 12287 C 1168.95 -1.80225 0.914517 0
M  V30 12288 C 1169.27 -1.86778 -0.560269 0
M  V30 12289 O 1168.54 -1.36284 -1.40724 0
M  V30 12290 H 1167.12 -0.667492 0.335356 0
M  V30 12291 H 1169.78 -1.30729 1.44554 0
M  V30 12292 H 1168.88 -2.82958 1.31685 0
M  V30 12293 N 1169.18 -0.941978 -1.26351 0
M  V30 12294 C 1170.11 -0.469913 -2.28723 0
M  V30 12295 C 1171.09 0.477218 -1.63269 0
M  V30 12296 O 1172.27 0.378902 -1.90468 0
M  V30 12297 C 1169.4 0.264971 -3.46288 0
M  V30 12298 C 1168.36 -0.595682 -4.23834 0
M  V30 12299 C 1167.68 0.269208 -5.34022 0
M  V30 12300 C 1168.98 -1.86743 -4.87775 0
M  V30 12301 H 1170.68 -1.32551 -2.6846 0
M  V30 12302 H 1168.22 -0.638809 -1.29055 0
M  V30 12303 H 1170.18 0.606259 -4.17016 0
M  V30 12304 H 1168.9 1.15471 -3.05506 0
M  V30 12305 H 1167.56 -0.919875 -3.54872 0
M  V30 12306 H 1167.21 1.15832 -4.89481 0
M  V30 12307 H 1166.91 -0.30325 -5.86817 0
M  V30 12308 H 1168.43 0.605748 -6.07588 0
M  V30 12309 H 1169.85 -1.59333 -5.50714 0
M  V30 12310 H 1168.24 -2.38452 -5.50691 0
M  V30 12311 H 1169.31 -2.57831 -4.10671 0
M  V30 12312 N 1170.66 1.40747 -0.709091 0
M  V30 12313 C 1171.88 2.05319 -0.255258 0
M  V30 12314 C 1172.3 1.53406 1.10054 0
M  V30 12315 O 1171.66 0.687905 1.69039 0
M  V30 12316 C 1171.71 3.60835 -0.219251 0
M  V30 12317 O 1171.43 4.1083 -1.52151 0
M  V30 12318 C 1172.93 4.42572 0.253927 0
M  V30 12319 H 1170.15 0.660904 -0.115959 0
M  V30 12320 H 1172.69 1.80274 -0.965474 0
M  V30 12321 H 1170.85 3.84872 0.441882 0
M  V30 12322 H 1171.26 5.04979 -1.41764 0
M  V30 12323 H 1172.74 5.51529 0.22798 0
M  V30 12324 H 1173.21 4.19673 1.29504 0
M  V30 12325 H 1173.82 4.23629 -0.376694 0
M  V30 12326 N 1172.13 0.454803 1.50895 0
M  V30 12327 C 1173.38 -0.107367 2.01414 0
M  V30 12328 C 1173.7 -1.42243 1.34262 0
M  V30 12329 O 1174.9 -2.06858 1.75846 0
M  V30 12330 C 1173.36 -0.241872 3.59086 0
M  V30 12331 C 1172.97 1.06379 4.35187 0
M  V30 12332 C 1174.71 -0.756873 4.17698 0
M  V30 12333 C 1172.62 0.893973 5.84604 0
M  V30 12334 H 1171.55 -0.0439003 0.752721 0
M  V30 12335 H 1174.2 0.587225 1.7385 0
M  V30 12336 H 1172.58 -0.999873 3.83169 0
M  V30 12337 H 1173.75 1.83148 4.2284 0
M  V30 12338 H 1172.07 1.50865 3.88109 0
M  V30 12339 H 1174.67 -0.900697 5.27059 0
M  V30 12340 H 1175.01 -1.74397 3.7801 0
M  V30 12341 H 1175.54 -0.0567088 3.9776 0
M  V30 12342 H 1172.28 1.85395 6.28736 0
M  V30 12343 H 1171.8 0.166387 5.99569 0
M  V30 12344 H 1173.48 0.554084 6.44623 0
M  V30 12345 N 1173.61 -1.56489 0.186789 0
M  V30 12346 C 1174.57 -2.17478 -0.723596 0
M  V30 12347 C 1175.57 -1.12698 -1.14699 0
M  V30 12348 O 1176.76 -1.38128 -1.06143 0
M  V30 12349 C 1173.9 -2.77015 -1.98685 0
M  V30 12350 H 1175.09 -2.99282 -0.192403 0
M  V30 12351 H 1172.64 -1.56174 -0.0628153 0
M  V30 12352 H 1173.38 -1.98987 -2.56076 0
M  V30 12353 H 1173.16 -3.53711 -1.69207 0
M  V30 12354 H 1174.65 -3.23872 -2.63622 0
M  V30 12355 N 1175.09 0.086862 -1.5736 0
M  V30 12356 C 1176.37 0.820984 -1.77537 0
M  V30 12357 C 1176.75 1.96534 -0.770554 0
M  V30 12358 O 1176.09 2.27629 0.199334 0
M  V30 12359 C 1176.3 1.30793 -3.23565 0
M  V30 12360 C 1177.65 1.7474 -3.86977 0
M  V30 12361 O 1178.68 1.40396 -3.27364 0
M  V30 12362 O 1177.54 2.38271 -4.91822 0
M  V30 12363 H 1174.63 0.392228 -0.72807 0
M  V30 12364 H 1177.18 0.0681051 -1.69563 0
M  V30 12365 H 1175.95 0.488409 -3.8824 0
M  V30 12366 H 1175.57 2.12258 -3.36203 0
M  V30 12367 N 1176.57 1.53483 0.357892 0
M  V30 12368 C 1177.81 1.70289 1.10134 0
M  V30 12369 C 1178.15 0.457296 1.88739 0
M  V30 12370 O 1177.42 -0.545527 1.86693 0
M  V30 12371 C 1177.7 2.95755 2.05429 0
M  V30 12372 C 1177.56 4.30489 1.30382 0
M  V30 12373 C 1178.88 3.16844 3.05447 0
M  V30 12374 H 1176 0.61965 0.399003 0
M  V30 12375 H 1178.64 1.86133 0.381357 0
M  V30 12376 H 1176.79 2.82377 2.66825 0
M  V30 12377 H 1178.46 4.55692 0.71711 0
M  V30 12378 H 1176.7 4.2955 0.605712 0
M  V30 12379 H 1177.37 5.14427 2.00171 0
M  V30 12380 H 1179.85 3.29458 2.54159 0
M  V30 12381 H 1178.73 4.06053 3.69341 0
M  V30 12382 H 1178.99 2.32476 3.76041 0
M  V30 12383 N 1178.05 -0.61812 1.44973 0
M  V30 12384 C 1179.01 -1.71135 1.52465 0
M  V30 12385 C 1180.01 -1.5561 0.405246 0
M  V30 12386 O 1181.2 -1.60869 0.668351 0
M  V30 12387 C 1178.33 -3.10324 1.41108 0
M  V30 12388 H 1179.52 -1.65862 2.49859 0
M  V30 12389 H 1177.08 -0.832932 1.32257 0
M  V30 12390 H 1177.81 -3.21183 0.448574 0
M  V30 12391 H 1177.6 -3.23001 2.2229 0
M  V30 12392 H 1179.09 -3.89976 1.49361 0
M  V30 12393 N 1179.52 -1.32087 -0.859693 0
M  V30 12394 C 1180.77 -1.22119 -1.61033 0
M  V30 12395 C 1181.09 0.218289 -1.93774 0
M  V30 12396 O 1180.36 1.14172 -1.5919 0
M  V30 12397 H 1178.94 -0.448989 -0.597008 0
M  V30 12398 H 1181.6 -1.65545 -1.02863 0
M  V30 12399 H 1180.7 -1.80023 -2.54947 0
M  V30 12400 N 1181 1.07532 -1.15215 0
M  V30 12401 C 1181.91 2.18222 -0.861192 0
M  V30 12402 C 1182.93 1.73246 0.161798 0
M  V30 12403 O 1184.1 2.01397 -0.0118386 0
M  V30 12404 C 1181.17 3.44902 -0.352601 0
M  V30 12405 C 1180.23 4.04455 -1.43926 0
M  V30 12406 C 1179.46 5.25089 -0.954841 0
M  V30 12407 O 1179.69 5.70048 0.200294 0
M  V30 12408 O 1178.62 5.76269 -1.73774 0
M  V30 12409 H 1182.45 2.45599 -1.78648 0
M  V30 12410 H 1180.03 1.16835 -0.93112 0
M  V30 12411 H 1181.91 4.21333 -0.0753347 0
M  V30 12412 H 1180.59 3.19082 0.544841 0
M  V30 12413 H 1179.49 3.29573 -1.7701 0
M  V30 12414 H 1180.83 4.34544 -2.31155 0
M  V30 12415 N 1182.48 0.948665 1.2585 0
M  V30 12416 C 1183.73 0.601125 1.93686 0
M  V30 12417 C 1184.06 -0.858779 1.7418 0
M  V30 12418 O 1183.33 -1.61539 1.0833 0
M  V30 12419 C 1183.62 0.95333 3.47252 0
M  V30 12420 C 1183.47 2.46853 3.7601 0
M  V30 12421 C 1184.79 0.474098 4.37539 0
M  V30 12422 H 1181.91 0.219864 0.703441 0
M  V30 12423 H 1184.55 1.18424 1.48579 0
M  V30 12424 H 1182.7 0.457114 3.85801 0
M  V30 12425 H 1184.37 3.03804 3.47132 0
M  V30 12426 H 1182.62 2.9088 3.21825 0
M  V30 12427 H 1183.29 2.66547 4.83381 0
M  V30 12428 H 1185.76 0.899664 4.06258 0
M  V30 12429 H 1184.64 0.749287 5.43762 0
M  V30 12430 H 1184.9 -0.625961 4.37646 0
M  V30 12431 N 1183.96 -1.40369 0.716545 0
M  V30 12432 C 1184.89 -2.28196 0.013671 0
M  V30 12433 C 1185.87 -1.4339 -0.766685 0
M  V30 12434 O 1187.05 -1.72801 -0.753123 0
M  V30 12435 C 1184.18 -3.23969 -0.988006 0
M  V30 12436 C 1183.23 -4.25455 -0.298345 0
M  V30 12437 S 1184.06 -5.26559 0.974456 0
M  V30 12438 C 1185.22 -6.25895 -0.0250932 0
M  V30 12439 H 1185.45 -2.87461 0.758526 0
M  V30 12440 H 1182.98 -1.45817 0.507606 0
M  V30 12441 H 1184.94 -3.79674 -1.56071 0
M  V30 12442 H 1183.6 -2.63759 -1.70557 0
M  V30 12443 H 1182.79 -4.92821 -1.05561 0
M  V30 12444 H 1182.4 -3.73455 0.201828 0
M  V30 12445 H 1184.69 -6.7187 -0.871615 0
M  V30 12446 H 1185.63 -7.05422 0.615206 0
M  V30 12447 H 1186.04 -5.63156 -0.389248 0
M  V30 12448 N 1185.44 -0.462799 -1.50652 0
M  V30 12449 C 1186.68 0.0951853 -2.02576 0
M  V30 12450 C 1187.02 1.40113 -1.34469 0
M  V30 12451 O 1186.29 1.88793 -0.467702 0
M  V30 12452 C 1186.57 0.287603 -3.5895 0
M  V30 12453 C 1186.43 -1.03878 -4.37641 0
M  V30 12454 C 1187.75 1.04593 -4.27491 0
M  V30 12455 H 1184.86 0.0331191 -0.736255 0
M  V30 12456 H 1187.51 -0.606772 -1.80051 0
M  V30 12457 H 1185.66 0.885514 -3.78274 0
M  V30 12458 H 1187.33 -1.67263 -4.29908 0
M  V30 12459 H 1185.57 -1.6374 -4.01711 0
M  V30 12460 H 1186.24 -0.857889 -5.45293 0
M  V30 12461 H 1188.72 0.539213 -4.12591 0
M  V30 12462 H 1187.59 1.14935 -5.36732 0
M  V30 12463 H 1187.86 2.08045 -3.90089 0
M  V30 12464 N 1186.91 1.56388 -0.195085 0
M  V30 12465 C 1188.16 1.9758 0.443686 0
M  V30 12466 C 1188.49 1.08196 1.61629 0
M  V30 12467 O 1187.74 0.121061 1.95325 0
M  V30 12468 C 1188.04 3.44651 0.946051 0
M  V30 12469 C 1187.71 4.50758 -0.11318 0
M  V30 12470 C 1186.37 4.79499 -0.404229 0
M  V30 12471 C 1188.72 5.14534 -0.830899 0
M  V30 12472 C 1186.05 5.69307 -1.41797 0
M  V30 12473 C 1188.4 6.05438 -1.83379 0
M  V30 12474 C 1187.07 6.32535 -2.13204 0
M  V30 12475 H 1186.34 0.722995 0.162356 0
M  V30 12476 H 1188.98 1.8926 -0.292049 0
M  V30 12477 H 1187.29 3.50042 1.76006 0
M  V30 12478 H 1188.99 3.73878 1.44969 0
M  V30 12479 H 1185.58 4.28421 0.123833 0
M  V30 12480 H 1189.76 4.92421 -0.61927 0
M  V30 12481 H 1185.02 5.88575 -1.65496 0
M  V30 12482 H 1189.19 6.53915 -2.39516 0
M  V30 12483 H 1186.82 7.01924 -2.91902 0
M  V30 12484 N 1188.39 -0.0785156 1.57404 0
M  V30 12485 C 1189.34 -1.10077 1.99668 0
M  V30 12486 C 1190.33 -1.34855 0.87767 0
M  V30 12487 O 1191.52 -1.35268 1.14156 0
M  V30 12488 C 1188.65 -2.41641 2.43854 0
M  V30 12489 C 1187.73 -2.20166 3.62475 0
M  V30 12490 N 1188.12 -1.68602 4.76872 0
M  V30 12491 C 1186.42 -2.50666 3.68894 0
M  V30 12492 C 1187.12 -1.61785 5.58749 0
M  V30 12493 N 1186.1 -2.07595 5.02399 0
M  V30 12494 H 1189.9 -0.695297 2.85557 0
M  V30 12495 H 1187.42 -0.285694 1.59867 0
M  V30 12496 H 1189.41 -3.15629 2.72367 0
M  V30 12497 H 1188.07 -2.8291 1.59348 0
M  V30 12498 H 1189.08 -1.37561 4.99297 0
M  V30 12499 H 1185.76 -2.95348 2.95087 0
M  V30 12500 H 1187.15 -1.22828 6.60578 0
M  V30 12501 N 1189.87 -1.5367 -0.349747 0
M  V30 12502 C 1191.12 -1.70281 -1.08853 0
M  V30 12503 C 1191.44 -0.465438 -1.89364 0
M  V30 12504 O 1190.71 0.520615 -1.88856 0
M  V30 12505 H 1189.29 -0.627775 -0.404854 0
M  V30 12506 H 1191.95 -1.90906 -0.392523 0
M  V30 12507 H 1191.05 -2.57096 -1.76941 0
M  V30 12508 N 1191.35 0.610423 -1.45298 0
M  V30 12509 C 1192.28 1.73493 -1.48241 0
M  V30 12510 C 1193.26 1.59025 -0.339065 0
M  V30 12511 O 1194.44 1.80625 -0.539144 0
M  V30 12512 C 1191.57 3.11291 -1.33476 0
M  V30 12513 C 1190.62 3.44355 -2.51638 0
M  V30 12514 S 1191.45 3.39512 -4.14116 0
M  V30 12515 C 1192.61 4.79895 -4.01811 0
M  V30 12516 H 1192.84 1.70734 -2.43387 0
M  V30 12517 H 1190.37 0.786833 -1.32847 0
M  V30 12518 H 1192.33 3.90799 -1.25644 0
M  V30 12519 H 1190.99 3.11568 -0.39805 0
M  V30 12520 H 1190.18 4.44679 -2.37226 0
M  V30 12521 H 1189.79 2.72356 -2.56317 0
M  V30 12522 H 1192.08 5.6963 -3.6678 0
M  V30 12523 H 1193.02 4.99363 -5.02038 0
M  V30 12524 H 1193.43 4.55443 -3.33515 0
M  V30 12525 N 1192.83 1.32541 0.852676 0
M  V30 12526 C 1193.79 1.21578 1.94297 0
M  V30 12527 C 1194.79 0.138318 1.60204 0
M  V30 12528 O 1195.98 0.388864 1.69804 0
M  V30 12529 C 1193.11 0.870209 3.29606 0
M  V30 12530 H 1194.3 2.18476 2.05446 0
M  V30 12531 H 1191.86 1.16401 1.0431 0
M  V30 12532 H 1192.59 -0.0968698 3.24155 0
M  V30 12533 H 1192.38 1.64924 3.55728 0
M  V30 12534 H 1193.87 0.817874 4.09513 0
M  V30 12535 N 1194.3 -1.0692 1.15784 0
M  V30 12536 C 1195.55 -1.796 0.935429 0
M  V30 12537 C 1195.88 -1.86935 -0.537173 0
M  V30 12538 O 1195.13 -1.35244 -1.41448 0
M  V30 12539 C 1195.43 -3.24389 1.50022 0
M  V30 12540 C 1195.1 -3.37145 2.99406 0
M  V30 12541 C 1193.76 -3.40334 3.40186 0
M  V30 12542 C 1196.11 -3.39584 3.95389 0
M  V30 12543 C 1193.44 -3.43569 4.75581 0
M  V30 12544 C 1195.79 -3.44356 5.30661 0
M  V30 12545 C 1194.46 -3.45824 5.70931 0
M  V30 12546 H 1193.73 -0.657201 0.342298 0
M  V30 12547 H 1196.37 -1.25784 1.44397 0
M  V30 12548 H 1194.68 -3.81015 0.91297 0
M  V30 12549 H 1196.38 -3.79209 1.30389 0
M  V30 12550 H 1192.97 -3.35365 2.66887 0
M  V30 12551 H 1197.15 -3.36337 3.64954 0
M  V30 12552 H 1192.41 -3.43006 5.06119 0
M  V30 12553 H 1196.58 -3.4519 6.04828 0
M  V30 12554 H 1194.21 -3.48084 6.75826 0
M  V30 12555 N 1195.78 -0.955326 -1.25345 0
M  V30 12556 C 1197.19 -0.651118 -1.74978 0
M  V30 12557 C 1197.54 0.833495 -1.77616 0
M  V30 12558 O 1196.67 1.65228 -1.39745 0
M  V30 12559 C 1197.26 -1.17521 -3.17764 0
M  V30 12560 C 1195.82 -0.921151 -3.64954 0
M  V30 12561 C 1194.97 -1.31784 -2.43984 0
M  V30 12562 H 1197.92 -1.13205 -1.11222 0
M  V30 12563 H 1197.94 -0.535625 -3.76711 0
M  V30 12564 H 1197.45 -2.25575 -3.15813 0
M  V30 12565 H 1195.56 0.144392 -3.7232 0
M  V30 12566 H 1195.67 -1.5581 -4.53056 0
M  V30 12567 H 1194.03 -0.736219 -2.43828 0
M  V30 12568 H 1194.82 -2.40761 -2.44723 0
M  V30 12569 N 1197.26 1.39987 -0.723979 0
M  V30 12570 C 1198.17 2.3447 -0.0780936 0
M  V30 12571 C 1199.19 1.57744 0.734368 0
M  V30 12572 O 1200.36 1.90091 0.665385 0
M  V30 12573 C 1197.43 3.36705 0.826492 0
M  V30 12574 C 1196.49 4.293 0.00303036 0
M  V30 12575 C 1195.72 5.26651 0.864535 0
M  V30 12576 O 1195.95 5.30194 2.10357 0
M  V30 12577 O 1194.88 6.01157 0.299057 0
M  V30 12578 H 1198.71 2.91338 -0.857646 0
M  V30 12579 H 1196.29 1.41324 -0.484536 0
M  V30 12580 H 1198.17 3.9938 1.34439 0
M  V30 12581 H 1196.85 2.82237 1.58505 0
M  V30 12582 H 1195.75 3.69883 -0.560136 0
M  V30 12583 H 1197.09 4.86942 -0.717494 0
M  V30 12584 N 1198.74 0.470782 1.50404 0
M  V30 12585 C 1199.67 -0.369532 2.25188 0
M  V30 12586 C 1200.65 -0.996478 1.28488 0
M  V30 12587 O 1201.83 -1.03247 1.57709 0
M  V30 12588 C 1198.96 -1.51775 3.02791 0
M  V30 12589 C 1198.01 -1.00821 4.14412 0
M  V30 12590 S 1198.84 0.076844 5.35445 0
M  V30 12591 C 1200 -1.07525 6.16595 0
M  V30 12592 H 1200.23 0.265286 2.96114 0
M  V30 12593 H 1197.76 0.255662 1.52269 0
M  V30 12594 H 1199.72 -2.17582 3.48092 0
M  V30 12595 H 1198.38 -2.12408 2.31391 0
M  V30 12596 H 1197.57 -1.8678 4.68112 0
M  V30 12597 H 1197.18 -0.427851 3.71545 0
M  V30 12598 H 1199.47 -1.98693 6.47709 0
M  V30 12599 H 1200.41 -0.577518 7.05741 0
M  V30 12600 H 1200.82 -1.32894 5.48634 0
M  V30 12601 N 1200.22 -1.56282 0.203376 0
M  V30 12602 C 1201.18 -2.18233 -0.700489 0
M  V30 12603 C 1202.18 -1.13908 -1.13497 0
M  V30 12604 O 1203.37 -1.39246 -1.04672 0
M  V30 12605 C 1200.5 -2.79107 -1.95735 0
M  V30 12606 H 1201.7 -2.99469 -0.160649 0
M  V30 12607 H 1199.25 -1.56232 -0.0462475 0
M  V30 12608 H 1199.98 -2.01691 -2.53951 0
M  V30 12609 H 1199.77 -3.55486 -1.65446 0
M  V30 12610 H 1201.26 -3.2665 -2.60172 0
M  V30 12611 N 1201.7 0.070167 -1.57444 0
M  V30 12612 C 1202.64 1.08322 -2.03801 0
M  V30 12613 C 1203.61 1.38364 -0.918946 0
M  V30 12614 O 1204.8 1.49404 -1.18672 0
M  V30 12615 C 1201.94 2.39128 -2.48821 0
M  V30 12616 C 1201.05 2.15603 -3.74352 0
M  V30 12617 C 1200.19 3.39984 -4.08148 0
M  V30 12618 C 1199.22 3.1183 -5.26715 0
M  V30 12619 N 1198.36 4.28546 -5.56141 0
M  V30 12620 H 1203.2 0.680931 -2.90116 0
M  V30 12621 H 1200.74 0.324657 -1.43473 0
M  V30 12622 H 1202.7 3.15501 -2.72975 0
M  V30 12623 H 1201.33 2.77157 -1.65481 0
M  V30 12624 H 1200.38 1.29915 -3.57528 0
M  V30 12625 H 1201.69 1.90808 -4.60862 0
M  V30 12626 H 1200.84 4.2475 -4.33211 0
M  V30 12627 H 1199.58 3.67856 -3.20208 0
M  V30 12628 H 1198.59 2.2546 -5.01446 0
M  V30 12629 H 1199.81 2.85278 -6.16273 0
M  V30 12630 H 1197.76 4.56447 -4.71161 0
M  V30 12631 H 1197.68 4.0703 -6.37073 0
M  V30 12632 H 1198.94 5.14305 -5.85757 0
M  V30 12633 N 1203.17 1.53854 0.341593 0
M  V30 12634 C 1204.12 1.81979 1.41959 0
M  V30 12635 C 1205.09 0.665616 1.5218 0
M  V30 12636 O 1206.28 0.910246 1.67688 0
M  V30 12637 C 1203.42 2.03681 2.78583 0
M  V30 12638 C 1202.53 3.31389 2.77137 0
M  V30 12639 C 1201.66 3.43148 4.05491 0
M  V30 12640 C 1200.7 4.64799 3.98282 0
M  V30 12641 N 1199.84 4.73581 5.18329 0
M  V30 12642 H 1204.68 2.73953 1.17275 0
M  V30 12643 H 1202.22 1.35689 0.568062 0
M  V30 12644 H 1204.17 2.14253 3.57983 0
M  V30 12645 H 1202.8 1.15017 3.01614 0
M  V30 12646 H 1201.86 3.29649 1.89832 0
M  V30 12647 H 1203.17 4.20885 2.67689 0
M  V30 12648 H 1202.32 3.53163 4.93316 0
M  V30 12649 H 1201.06 2.51712 4.17723 0
M  V30 12650 H 1200.07 4.54859 3.08842 0
M  V30 12651 H 1201.29 5.57601 3.87631 0
M  V30 12652 H 1199.24 3.85055 5.31102 0
M  V30 12653 H 1199.15 5.57016 5.11145 0
M  V30 12654 H 1200.42 4.87908 6.0792 0
M  V30 12655 N 1204.65 -0.602709 1.4562 0
M  V30 12656 C 1205.58 -1.72374 1.5751 0
M  V30 12657 C 1206.56 -1.64669 0.426389 0
M  V30 12658 O 1207.75 -1.82994 0.650143 0
M  V30 12659 C 1204.88 -3.10987 1.5461 0
M  V30 12660 C 1203.83 -3.33507 2.68248 0
M  V30 12661 C 1203.16 -4.72443 2.50403 0
M  V30 12662 C 1204.46 -3.23285 4.10224 0
M  V30 12663 H 1206.15 -1.62679 2.51348 0
M  V30 12664 H 1203.7 -0.781217 1.20967 0
M  V30 12665 H 1205.65 -3.89214 1.61525 0
M  V30 12666 H 1204.37 -3.21533 0.573049 0
M  V30 12667 H 1203.03 -2.57672 2.60769 0
M  V30 12668 H 1202.68 -4.79729 1.51226 0
M  V30 12669 H 1202.38 -4.88466 3.26611 0
M  V30 12670 H 1203.91 -5.52864 2.59179 0
M  V30 12671 H 1205.32 -3.91381 4.1892 0
M  V30 12672 H 1203.72 -3.50837 4.86861 0
M  V30 12673 H 1204.79 -2.20652 4.31788 0
M  V30 12674 N 1206.13 -1.32992 -0.845635 0
M  V30 12675 C 1207.04 -1.24701 -1.98713 0
M  V30 12676 C 1208.06 -0.158864 -1.73273 0
M  V30 12677 O 1209.23 -0.381209 -1.97759 0
M  V30 12678 C 1206.3 -0.979524 -3.32575 0
M  V30 12679 C 1205.36 -2.15701 -3.71176 0
M  V30 12680 C 1204.59 -1.90219 -4.98651 0
M  V30 12681 O 1204.81 -0.849171 -5.64044 0
M  V30 12682 O 1203.75 -2.76571 -5.34595 0
M  V30 12683 H 1207.57 -2.20683 -2.08645 0
M  V30 12684 H 1205.16 -1.12971 -0.97765 0
M  V30 12685 H 1207.04 -0.847219 -4.12796 0
M  V30 12686 H 1205.72 -0.0499398 -3.23661 0
M  V30 12687 H 1204.62 -2.34483 -2.91494 0
M  V30 12688 H 1205.96 -3.0697 -3.84747 0
M  V30 12689 N 1207.61 1.06304 -1.1635 0
M  V30 12690 C 1208.56 2.15879 -0.865967 0
M  V30 12691 C 1209.55 1.68595 0.164929 0
M  V30 12692 O 1210.76 1.7999 0.0189271 0
M  V30 12693 H 1207.13 0.704721 -0.262435 0
M  V30 12694 H 1209.1 2.38185 -1.79751 0
M  V30 12695 C 1207.85 3.4558 -0.383374 0
M  V30 12696 H 1207.17 3.82356 -1.16806 0
M  V30 12697 H 1208.61 4.2346 -0.213964 0
M  V30 12698 C 1207.07 3.24738 0.897044 0
M  V30 12699 O 1207.6 3.50284 1.96632 0
M  V30 12700 N 1205.81 2.78172 0.840761 0
M  V30 12701 H 1205.36 2.57583 -0.029584 0
M  V30 12702 H 1205.31 2.64606 1.69797 0
M  V30 12703 N 1209.09 0.96196 1.24836 0
M  V30 12704 C 1210.33 0.620715 1.92752 0
M  V30 12705 C 1210.66 -0.843308 1.75267 0
M  V30 12706 O 1209.92 -1.62141 1.09584 0
M  V30 12707 C 1210.21 0.934481 3.44967 0
M  V30 12708 C 1209.88 2.38572 3.82615 0
M  V30 12709 C 1208.54 2.78238 3.92603 0
M  V30 12710 C 1210.89 3.32784 4.01129 0
M  V30 12711 C 1208.22 4.11169 4.18518 0
M  V30 12712 C 1210.57 4.65336 4.28539 0
M  V30 12713 C 1209.24 5.04788 4.36745 0
M  V30 12714 H 1208.51 0.227136 0.70533 0
M  V30 12715 H 1211.16 1.21237 1.48236 0
M  V30 12716 H 1209.46 0.260516 3.90933 0
M  V30 12717 H 1211.16 0.648923 3.95715 0
M  V30 12718 H 1207.75 2.06812 3.75402 0
M  V30 12719 H 1211.93 3.03325 3.9282 0
M  V30 12720 H 1207.19 4.41368 4.23089 0
M  V30 12721 H 1211.36 5.3831 4.41809 0
M  V30 12722 H 1208.99 6.07816 4.56579 0
M  V30 12723 N 1210.56 -1.39601 0.731392 0
M  V30 12724 C 1211.81 -2.0019 0.277208 0
M  V30 12725 C 1212.13 -1.5832 -1.13841 0
M  V30 12726 O 1211.4 -0.829793 -1.77458 0
M  V30 12727 H 1209.98 -0.740344 0.0995006 0
M  V30 12728 H 1212.64 -1.70704 0.940547 0
M  V30 12729 H 1211.74 -3.10427 0.322749 0
M  V30 12730 N 1212.04 -0.478751 -1.50152 0
M  V30 12731 C 1213.29 0.073585 -2.02366 0
M  V30 12732 C 1213.62 1.3903 -1.36018 0
M  V30 12733 O 1212.87 1.89787 -0.477435 0
M  V30 12734 C 1213.17 0.297535 -3.56159 0
M  V30 12735 C 1212.84 -0.938419 -4.41027 0
M  V30 12736 C 1211.5 -1.27727 -4.63939 0
M  V30 12737 C 1213.85 -1.76098 -4.9055 0
M  V30 12738 C 1211.18 -2.4386 -5.33619 0
M  V30 12739 C 1213.53 -2.91366 -5.61506 0
M  V30 12740 C 1212.2 -3.25657 -5.8267 0
M  V30 12741 H 1211.47 0.0269267 -0.740511 0
M  V30 12742 H 1214.11 -0.63439 -1.80687 0
M  V30 12743 H 1212.42 1.08783 -3.76395 0
M  V30 12744 H 1214.11 0.73899 -3.94132 0
M  V30 12745 H 1210.7 -0.664441 -4.23418 0
M  V30 12746 H 1214.89 -1.51237 -4.72696 0
M  V30 12747 H 1210.14 -2.70692 -5.48211 0
M  V30 12748 H 1214.32 -3.55445 -5.98859 0
M  V30 12749 H 1211.95 -4.15751 -6.36439 0
M  V30 12750 N 1213.52 1.56172 -0.211661 0
M  V30 12751 C 1214.77 1.98332 0.423332 0
M  V30 12752 C 1215.1 1.09895 1.60115 0
M  V30 12753 O 1214.37 0.154477 1.93886 0
M  V30 12754 C 1214.66 3.49495 0.86747 0
M  V30 12755 C 1214.51 4.48708 -0.313302 0
M  V30 12756 C 1215.83 4.04793 1.72716 0
M  V30 12757 H 1212.95 0.72107 0.152402 0
M  V30 12758 H 1215.59 1.87521 -0.305912 0
M  V30 12759 H 1213.74 3.58839 1.48885 0
M  V30 12760 H 1215.41 4.51385 -0.951291 0
M  V30 12761 H 1213.66 4.2299 -0.96238 0
M  V30 12762 H 1214.33 5.51985 0.0402402 0
M  V30 12763 H 1216.8 3.98332 1.20296 0
M  V30 12764 H 1215.68 5.10898 2.00684 0
M  V30 12765 H 1215.94 3.51067 2.68709 0
M  V30 12766 N 1215 -0.0618163 1.57479 0
M  V30 12767 C 1215.95 -1.09105 2.05424 0
M  V30 12768 C 1216.94 -1.3947 0.961479 0
M  V30 12769 O 1218.15 -1.3876 1.14655 0
M  V30 12770 H 1214.52 -0.36923 0.655113 0
M  V30 12771 H 1216.49 -0.66061 2.90996 0
M  V30 12772 C 1215.24 -2.39345 2.52209 0
M  V30 12773 H 1214.56 -2.16832 3.35893 0
M  V30 12774 H 1216 -3.09784 2.89499 0
M  V30 12775 C 1214.46 -3.06011 1.40922 0
M  V30 12776 O 1214.99 -3.94504 0.756921 0
M  V30 12777 N 1213.2 -2.66797 1.15186 0
M  V30 12778 H 1212.75 -1.94923 1.68412 0
M  V30 12779 H 1212.7 -3.11724 0.409324 0
M  V30 12780 N 1216.48 -1.54033 -0.333429 0
M  V30 12781 C 1217.71 -1.75461 -1.09073 0
M  V30 12782 C 1218.11 -0.498488 -1.82515 0
M  V30 12783 O 1217.46 0.540029 -1.75583 0
M  V30 12784 C 1217.52 -2.88744 -2.14166 0
M  V30 12785 C 1217.18 -4.27998 -1.60209 0
M  V30 12786 C 1218.18 -5.09206 -1.04907 0
M  V30 12787 C 1215.87 -4.74513 -1.6475 0
M  V30 12788 C 1217.86 -6.35035 -0.548615 0
M  V30 12789 C 1215.55 -6.00312 -1.14318 0
M  V30 12790 C 1216.54 -6.80406 -0.594667 0
M  V30 12791 O 1216.23 -8.0384 -0.097891 0
M  V30 12792 H 1215.96 -0.589586 -0.330702 0
M  V30 12793 H 1218.52 -2.01697 -0.388274 0
M  V30 12794 H 1216.75 -2.58057 -2.87999 0
M  V30 12795 H 1218.44 -2.98048 -2.7554 0
M  V30 12796 H 1219.2 -4.74428 -1.00713 0
M  V30 12797 H 1215.08 -4.12222 -2.06384 0
M  V30 12798 H 1218.63 -6.97497 -0.119823 0
M  V30 12799 H 1214.52 -6.34583 -1.18215 0
M  V30 12800 H 1215.29 -8.1822 -0.214237 0
M  V30 12801 N 1217.95 0.594978 -1.45938 0
M  V30 12802 C 1219.37 0.917069 -1.30622 0
M  V30 12803 C 1219.57 1.99702 -0.268554 0
M  V30 12804 O 1218.63 2.50293 0.333146 0
M  V30 12805 C 1219.94 1.34604 -2.68891 0
M  V30 12806 C 1221.49 1.45957 -2.76886 0
M  V30 12807 C 1221.96 1.92225 -4.15708 0
M  V30 12808 N 1223.45 1.99439 -4.18065 0
M  V30 12809 C 1224.19 2.36488 -5.22361 0
M  V30 12810 N 1223.68 2.72416 -6.36994 0
M  V30 12811 N 1225.48 2.36936 -5.09723 0
M  V30 12812 H 1217.63 -0.118625 -2.12068 0
M  V30 12813 H 1219.89 0.00959453 -0.947951 0
M  V30 12814 H 1219.6 0.626605 -3.46073 0
M  V30 12815 H 1219.47 2.31006 -2.98188 0
M  V30 12816 H 1221.86 2.16989 -1.99999 0
M  V30 12817 H 1221.94 0.47838 -2.51287 0
M  V30 12818 H 1221.58 1.21775 -4.93085 0
M  V30 12819 H 1221.51 2.9128 -4.38707 0
M  V30 12820 H 1224 1.74212 -3.35349 0
M  V30 12821 H 1224.32 2.99604 -7.1236 0
M  V30 12822 H 1222.66 2.70083 -6.40375 0
M  V30 12823 H 1225.85 2.08282 -4.19209 0
M  V30 12824 H 1226.03 2.65483 -5.9112 0
M  V30 12825 N 1219.43 1.33438 0.838571 0
M  V30 12826 C 1220.84 1.22366 1.41009 0
M  V30 12827 C 1221.19 -0.157317 1.95568 0
M  V30 12828 O 1220.32 -1.05692 1.88834 0
M  V30 12829 C 1220.91 2.21542 2.56329 0
M  V30 12830 C 1219.47 2.14309 3.09433 0
M  V30 12831 C 1218.62 2.09012 1.82235 0
M  V30 12832 H 1221.57 1.45032 0.64431 0
M  V30 12833 H 1221.59 1.82332 3.33969 0
M  V30 12834 H 1221.1 3.22042 2.16589 0
M  V30 12835 H 1219.21 1.17113 3.53717 0
M  V30 12836 H 1219.32 3.04866 3.69586 0
M  V30 12837 H 1217.68 1.54492 2.02495 0
M  V30 12838 H 1218.47 3.11319 1.4469 0
M  V30 12839 N 1220.91 -1.05686 1.16912 0
M  V30 12840 C 1222.16 -1.78244 0.95254 0
M  V30 12841 C 1222.48 -1.87924 -0.520525 0
M  V30 12842 O 1221.75 -1.39239 -1.37802 0
M  V30 12843 H 1220.33 -0.660228 0.349439 0
M  V30 12844 H 1222.99 -1.27634 1.47294 0
M  V30 12845 H 1222.09 -2.80102 1.37657 0
M  V30 12846 N 1222.39 -0.968567 -1.24324 0
M  V30 12847 C 1223.64 -0.629682 -1.9204 0
M  V30 12848 C 1223.96 0.837906 -1.7608 0
M  V30 12849 O 1223.23 1.5982 -1.13289 0
M  V30 12850 H 1221.81 -0.229901 -0.710742 0
M  V30 12851 H 1224.47 -1.22982 -1.512 0
M  V30 12852 H 1223.57 -0.871034 -2.99699 0
M  V30 12853 N 1223.87 1.39211 -0.738786 0
M  V30 12854 C 1224.78 2.34374 -0.102958 0
M  V30 12855 C 1225.79 1.58514 0.717596 0
M  V30 12856 O 1226.97 1.90786 0.645186 0
M  V30 12857 C 1224.03 3.37562 0.790733 0
M  V30 12858 C 1223.09 4.29279 -0.0425028 0
M  V30 12859 C 1222.33 5.27539 0.808628 0
M  V30 12860 O 1222.55 5.32396 2.04722 0
M  V30 12861 O 1221.48 6.0144 0.235279 0
M  V30 12862 H 1225.31 2.90412 -0.888498 0
M  V30 12863 H 1222.9 1.40803 -0.499498 0
M  V30 12864 H 1224.78 4.00783 1.30196 0
M  V30 12865 H 1223.45 2.83903 1.55502 0
M  V30 12866 H 1222.36 3.69268 -0.599335 0
M  V30 12867 H 1223.69 4.86154 -0.7691 0
M  V30 12868 N 1225.34 0.486708 1.49896 0
M  V30 12869 C 1226.57 -0.0599944 2.06513 0
M  V30 12870 C 1226.98 -1.32662 1.34898 0
M  V30 12871 O 1226.33 -1.78915 0.416565 0
M  V30 12872 C 1226.39 -0.39838 3.57286 0
M  V30 12873 C 1226.05 0.768465 4.50493 0
M  V30 12874 C 1227.05 1.65495 4.92856 0
M  V30 12875 C 1224.73 0.96322 4.92978 0
M  V30 12876 C 1226.73 2.72046 5.76429 0
M  V30 12877 C 1224.41 2.03193 5.7633 0
M  V30 12878 C 1225.41 2.9089 6.17958 0
M  V30 12879 O 1225.1 3.95919 6.99645 0
M  V30 12880 H 1224.83 0.0107865 0.675914 0
M  V30 12881 H 1227.39 0.679087 1.93849 0
M  V30 12882 H 1225.62 -1.19086 3.67907 0
M  V30 12883 H 1227.31 -0.882003 3.96201 0
M  V30 12884 H 1228.07 1.51624 4.6069 0
M  V30 12885 H 1223.95 0.29004 4.60087 0
M  V30 12886 H 1227.49 3.40526 6.08841 0
M  V30 12887 H 1223.39 2.17064 6.07909 0
M  V30 12888 H 1224.16 3.93097 7.17925 0
M  V30 12889 N 1226.82 -1.56058 0.219941 0
M  V30 12890 C 1227.77 -2.16853 -0.704185 0
M  V30 12891 C 1228.76 -1.11639 -1.15869 0
M  V30 12892 O 1229.95 -1.37632 -1.11295 0
M  V30 12893 C 1227.08 -2.85073 -1.9128 0
M  V30 12894 C 1226.16 -3.9751 -1.47805 0
M  V30 12895 N 1226.56 -5.00121 -0.755792 0
M  V30 12896 C 1224.85 -4.0957 -1.76546 0
M  V30 12897 C 1225.55 -5.79241 -0.534332 0
M  V30 12898 N 1224.53 -5.32549 -1.09055 0
M  V30 12899 H 1228.33 -2.93547 -0.143914 0
M  V30 12900 H 1225.85 -1.62386 0.021133 0
M  V30 12901 H 1227.84 -3.27037 -2.58558 0
M  V30 12902 H 1226.5 -2.09874 -2.47756 0
M  V30 12903 H 1227.51 -5.16285 -0.408647 0
M  V30 12904 H 1224.19 -3.45521 -2.34353 0
M  V30 12905 H 1225.58 -6.71888 0.0404032 0
M  V30 12906 N 1228.3 0.053464 -1.57509 0
M  V30 12907 C 1229.23 1.09391 -2.00272 0
M  V30 12908 C 1230.21 1.36553 -0.882727 0
M  V30 12909 O 1231.4 1.4962 -1.14657 0
M  V30 12910 C 1228.52 2.43424 -2.35505 0
M  V30 12911 C 1227.57 2.32278 -3.577 0
M  V30 12912 S 1228.4 1.69939 -5.0782 0
M  V30 12913 C 1229.56 3.05512 -5.46272 0
M  V30 12914 H 1229.79 0.729569 -2.88209 0
M  V30 12915 H 1227.32 0.262633 -1.5215 0
M  V30 12916 H 1229.28 3.20515 -2.56477 0
M  V30 12917 H 1227.94 2.77013 -1.48064 0
M  V30 12918 H 1227.14 3.31165 -3.79928 0
M  V30 12919 H 1226.74 1.63327 -3.36453 0
M  V30 12920 H 1229.03 4.0184 -5.45464 0
M  V30 12921 H 1229.97 2.88043 -6.46867 0
M  V30 12922 H 1230.38 3.06962 -4.73745 0
M  V30 12923 N 1229.78 1.54207 0.325255 0
M  V30 12924 C 1230.73 1.84197 1.42036 0
M  V30 12925 C 1231.72 0.71375 1.53629 0
M  V30 12926 O 1232.93 0.897385 1.56035 0
M  V30 12927 H 1229.3 0.583848 0.473947 0
M  V30 12928 H 1231.27 2.7578 1.13965 0
M  V30 12929 C 1230.02 2.08459 2.78281 0
M  V30 12930 H 1229.35 2.94734 2.70133 0
M  V30 12931 H 1230.79 2.33398 3.5398 0
M  V30 12932 C 1229.24 0.875615 3.25322 0
M  V30 12933 O 1229.77 0.0840387 4.01612 0
M  V30 12934 N 1227.98 0.687721 2.82345 0
M  V30 12935 H 1227.53 1.33307 2.20425 0
M  V30 12936 H 1227.49 -0.119687 3.14172 0
M  V30 12937 N 1231.26 -0.58723 1.46251 0
M  V30 12938 C 1232.48 -1.37661 1.55126 0
M  V30 12939 C 1232.91 -1.87123 0.191489 0
M  V30 12940 O 1232.27 -1.6131 -0.827576 0
M  V30 12941 C 1232.31 -2.54324 2.5564 0
M  V30 12942 O 1231.42 -3.55617 2.0883 0
M  V30 12943 H 1230.76 -0.410154 0.522178 0
M  V30 12944 H 1233.29 -0.712738 1.91784 0
M  V30 12945 H 1233.3 -3.01301 2.75103 0
M  V30 12946 H 1231.97 -2.17675 3.54387 0
M  V30 12947 H 1230.55 -3.15151 1.99335 0
M  V30 12948 N 1232.74 -1.33881 -0.831482 0
M  V30 12949 C 1234.15 -1.23112 -1.40358 0
M  V30 12950 C 1234.5 0.146944 -1.95649 0
M  V30 12951 O 1233.62 1.04689 -1.89391 0
M  V30 12952 C 1234.22 -2.22899 -2.5515 0
M  V30 12953 C 1232.78 -2.15946 -3.08292 0
M  V30 12954 C 1231.92 -2.09975 -1.81124 0
M  V30 12955 H 1234.87 -1.45372 -0.63661 0
M  V30 12956 H 1234.9 -1.841 -3.32997 0
M  V30 12957 H 1234.41 -3.23186 -2.14878 0
M  V30 12958 H 1232.51 -1.18987 -3.53091 0
M  V30 12959 H 1232.62 -3.06822 -3.67964 0
M  V30 12960 H 1230.99 -1.55564 -2.01673 0
M  V30 12961 H 1231.77 -3.12082 -1.43037 0
M  V30 12962 N 1234.21 1.05064 -1.1747 0
M  V30 12963 C 1235.12 2.16346 -0.907286 0
M  V30 12964 C 1236.14 1.7355 0.125013 0
M  V30 12965 O 1237.32 2.01326 -0.0545551 0
M  V30 12966 C 1234.38 3.44077 -0.425681 0
M  V30 12967 C 1233.44 4.01311 -1.52473 0
M  V30 12968 C 1232.67 5.22946 -1.06601 0
M  V30 12969 O 1232.9 5.70345 0.0793329 0
M  V30 12970 O 1231.83 5.72454 -1.85958 0
M  V30 12971 H 1235.66 2.41754 -1.83817 0
M  V30 12972 H 1233.24 1.14834 -0.955693 0
M  V30 12973 H 1235.12 4.21078 -0.164689 0
M  V30 12974 H 1233.8 3.20166 0.477037 0
M  V30 12975 H 1232.71 3.25744 -1.83961 0
M  V30 12976 H 1234.04 4.29543 -2.4032 0
M  V30 12977 N 1235.69 0.975146 1.23809 0
M  V30 12978 C 1236.62 0.45593 2.23599 0
M  V30 12979 C 1237.6 -0.474069 1.55536 0
M  V30 12980 O 1238.79 -0.40373 1.84126 0
M  V30 12981 C 1235.91 -0.341008 3.36979 0
M  V30 12982 C 1234.96 0.532362 4.23164 0
M  V30 12983 S 1235.79 1.97706 4.97667 0
M  V30 12984 C 1236.95 1.18912 6.145 0
M  V30 12985 H 1237.18 1.30157 2.67295 0
M  V30 12986 H 1234.71 0.78074 1.33206 0
M  V30 12987 H 1236.67 -0.794817 4.02732 0
M  V30 12988 H 1235.33 -1.16171 2.91827 0
M  V30 12989 H 1234.53 -0.0798928 5.03937 0
M  V30 12990 H 1234.13 0.922202 3.62452 0
M  V30 12991 H 1236.42 0.447823 6.76018 0
M  V30 12992 H 1237.36 1.97148 6.80102 0
M  V30 12993 H 1237.77 0.710216 5.60014 0
M  V30 12994 N 1237.17 -1.38817 0.746158 0
M  V30 12995 C 1238.39 -2.05096 0.308302 0
M  V30 12996 C 1238.82 -1.55902 -1.05244 0
M  V30 12997 O 1238.18 -0.707685 -1.66918 0
M  V30 12998 C 1238.23 -3.59068 0.332016 0
M  V30 12999 O 1237.33 -4.06813 -0.676547 0
M  V30 13000 H 1236.67 -0.649523 0.1379 0
M  V30 13001 H 1239.2 -1.77637 1.0152 0
M  V30 13002 H 1239.21 -4.07601 0.180293 0
M  V30 13003 H 1237.89 -3.94234 1.32487 0
M  V30 13004 H 1236.46 -3.69666 -0.490046 0
M  V30 13005 N 1238.65 -0.49465 -1.49636 0
M  V30 13006 C 1239.59 0.287153 -2.29007 0
M  V30 13007 C 1240.56 0.966099 -1.35114 0
M  V30 13008 O 1241.75 0.973991 -1.64067 0
M  V30 13009 C 1238.89 1.34941 -3.17624 0
M  V30 13010 C 1238 0.682879 -4.26569 0
M  V30 13011 C 1237.14 1.72503 -5.0241 0
M  V30 13012 C 1236.18 1.04003 -6.032 0
M  V30 13013 N 1235.31 2.0261 -6.7223 0
M  V30 13014 H 1240.15 -0.395941 -2.95358 0
M  V30 13015 H 1237.69 -0.207103 -1.45635 0
M  V30 13016 H 1239.65 1.9772 -3.67372 0
M  V30 13017 H 1238.28 2.00135 -2.5327 0
M  V30 13018 H 1237.33 -0.0580477 -3.80356 0
M  V30 13019 H 1238.64 0.143334 -4.98594 0
M  V30 13020 H 1237.8 2.42804 -5.55996 0
M  V30 13021 H 1236.54 2.29843 -4.30144 0
M  V30 13022 H 1235.54 0.322765 -5.48852 0
M  V30 13023 H 1236.77 0.473219 -6.77449 0
M  V30 13024 H 1234.71 2.58922 -6.0274 0
M  V30 13025 H 1234.63 1.53704 -7.4021 0
M  V30 13026 H 1235.9 2.72218 -7.30423 0
M  V30 13027 N 1240.13 1.55939 -0.228214 0
M  V30 13028 C 1241.35 2.0332 0.409364 0
M  V30 13029 C 1241.78 1.10683 1.52088 0
M  V30 13030 O 1241.13 0.0962484 1.81044 0
M  V30 13031 C 1241.18 3.48877 0.911981 0
M  V30 13032 O 1240.29 3.59378 2.02289 0
M  V30 13033 H 1239.63 0.657625 0.0917909 0
M  V30 13034 H 1242.16 2.01605 -0.348802 0
M  V30 13035 H 1242.17 3.89331 1.22007 0
M  V30 13036 H 1240.84 4.15783 0.0984902 0
M  V30 13037 H 1239.42 3.30815 1.72093 0
M  V30 13038 N 1241.6 -0.0451101 1.57535 0
M  V30 13039 C 1242.53 -1.05046 2.08537 0
M  V30 13040 C 1243.52 -1.3872 0.984418 0
M  V30 13041 O 1244.7 -1.47884 1.25873 0
M  V30 13042 C 1241.83 -2.3562 2.55148 0
M  V30 13043 C 1240.78 -2.16231 3.69362 0
M  V30 13044 C 1240.11 -3.52423 4.02122 0
M  V30 13045 C 1241.41 -1.56159 4.98409 0
M  V30 13046 H 1243.1 -0.625965 2.92783 0
M  V30 13047 H 1240.65 -0.299657 1.40848 0
M  V30 13048 H 1242.6 -3.06266 2.89446 0
M  V30 13049 H 1241.33 -2.80099 1.67964 0
M  V30 13050 H 1239.99 -1.4802 3.35389 0
M  V30 13051 H 1239.63 -3.94522 3.12028 0
M  V30 13052 H 1239.33 -3.4028 4.79044 0
M  V30 13053 H 1240.86 -4.24458 4.38939 0
M  V30 13054 H 1242.27 -2.16703 5.30766 0
M  V30 13055 H 1240.67 -1.54638 5.79834 0
M  V30 13056 H 1241.74 -0.525698 4.82042 0
M  V30 13057 N 1243.08 -1.54377 -0.317073 0
M  V30 13058 C 1244.03 -1.80597 -1.39172 0
M  V30 13059 C 1245.02 -0.662289 -1.46637 0
M  V30 13060 O 1246.21 -0.922477 -1.51061 0
M  V30 13061 C 1243.34 -2.04252 -2.75927 0
M  V30 13062 C 1242.42 -3.2476 -2.72749 0
M  V30 13063 N 1242.81 -4.45671 -2.39189 0
M  V30 13064 C 1241.11 -3.26464 -3.03871 0
M  V30 13065 C 1241.81 -5.27631 -2.44908 0
M  V30 13066 N 1240.79 -4.64968 -2.81613 0
M  V30 13067 H 1244.59 -2.71655 -1.12164 0
M  V30 13068 H 1242.11 -1.5366 -0.525586 0
M  V30 13069 H 1244.1 -2.21178 -3.53392 0
M  V30 13070 H 1242.76 -1.14452 -3.0386 0
M  V30 13071 H 1243.77 -4.72556 -2.11922 0
M  V30 13072 H 1240.45 -2.46718 -3.36803 0
M  V30 13073 H 1241.84 -6.34202 -2.21896 0
M  V30 13074 N 1244.56 0.579466 -1.4656 0
M  V30 13075 C 1245.51 1.68829 -1.5737 0
M  V30 13076 C 1246.48 1.60759 -0.417825 0
M  V30 13077 O 1247.66 1.79923 -0.635001 0
M  V30 13078 C 1244.8 3.07166 -1.573 0
M  V30 13079 C 1243.92 3.25837 -2.83645 0
M  V30 13080 C 1243.05 4.54441 -2.75057 0
M  V30 13081 C 1242.09 4.66467 -3.96327 0
M  V30 13082 N 1241.23 5.86401 -3.86107 0
M  V30 13083 H 1246.07 1.58928 -2.52083 0
M  V30 13084 H 1243.6 0.774526 -1.25058 0
M  V30 13085 H 1245.56 3.8724 -1.55245 0
M  V30 13086 H 1244.19 3.15956 -0.661166 0
M  V30 13087 H 1243.24 2.39345 -2.95666 0
M  V30 13088 H 1244.56 3.30591 -3.73512 0
M  V30 13089 H 1243.71 5.42748 -2.71126 0
M  V30 13090 H 1242.45 4.52131 -1.82836 0
M  V30 13091 H 1241.45 3.76577 -4.00587 0
M  V30 13092 H 1242.68 4.70554 -4.89649 0
M  V30 13093 H 1240.62 5.85082 -2.96673 0
M  V30 13094 H 1240.54 5.92437 -4.69632 0
M  V30 13095 H 1241.81 6.7713 -3.86155 0
M  V30 13096 N 1246.04 1.3432 0.824371 0
M  V30 13097 C 1247 1.25672 1.91675 0
M  V30 13098 C 1248 0.172269 1.59875 0
M  V30 13099 O 1249.19 0.424794 1.68941 0
M  V30 13100 C 1246.32 0.939928 3.27686 0
M  V30 13101 H 1247.52 2.22785 2.00766 0
M  V30 13102 H 1245.07 1.18587 1.01817 0
M  V30 13103 H 1245.8 -0.0280898 3.24288 0
M  V30 13104 H 1245.59 1.72432 3.5215 0
M  V30 13105 H 1247.08 0.904553 4.07686 0
M  V30 13106 N 1247.52 -1.0444 1.18026 0
M  V30 13107 C 1248.76 -1.77838 0.974756 0
M  V30 13108 C 1249.1 -1.87792 -0.494755 0
M  V30 13109 O 1248.37 -1.38327 -1.36733 0
M  V30 13110 C 1248.65 -3.21315 1.62569 0
M  V30 13111 C 1248.51 -3.19327 3.16781 0
M  V30 13112 C 1249.83 -4.19337 1.33583 0
M  V30 13113 H 1246.94 -0.645575 0.35553 0
M  V30 13114 H 1249.59 -1.22023 1.45638 0
M  V30 13115 H 1247.74 -3.68974 1.21617 0
M  V30 13116 H 1249.41 -2.79687 3.66842 0
M  V30 13117 H 1247.65 -2.57461 3.49137 0
M  V30 13118 H 1248.32 -4.20626 3.5746 0
M  V30 13119 H 1250.8 -3.80208 1.69059 0
M  V30 13120 H 1249.67 -5.17953 1.81702 0
M  V30 13121 H 1249.94 -4.41346 0.258016 0
M  V30 13122 N 1248.99 -0.981699 -1.2329 0
M  V30 13123 C 1249.96 -0.527992 -2.23036 0
M  V30 13124 C 1250.96 0.383083 -1.5617 0
M  V30 13125 O 1252.15 0.176595 -1.73303 0
M  V30 13126 C 1249.28 0.233501 -3.40099 0
M  V30 13127 H 1250.47 -1.40995 -2.64689 0
M  V30 13128 H 1248.03 -0.767724 -1.36146 0
M  V30 13129 H 1248.76 1.13194 -3.03904 0
M  V30 13130 H 1248.55 -0.420505 -3.89839 0
M  V30 13131 H 1250.04 0.539485 -4.14101 0
M  V30 13132 N 1250.47 1.3842 -0.753509 0
M  V30 13133 C 1251.44 2.28808 -0.134022 0
M  V30 13134 C 1252.44 1.47184 0.647583 0
M  V30 13135 O 1253.63 1.67631 0.473861 0
M  V30 13136 C 1250.76 3.30926 0.81858 0
M  V30 13137 H 1251.95 2.85097 -0.930586 0
M  V30 13138 H 1249.5 1.47378 -0.520514 0
M  V30 13139 H 1250.24 2.79728 1.64082 0
M  V30 13140 H 1250.02 3.91234 0.260526 0
M  V30 13141 H 1251.51 3.98515 1.24802 0
M  V30 13142 N 1251.95 0.502579 1.49372 0
M  V30 13143 C 1253.18 -0.0380876 2.06565 0
M  V30 13144 C 1253.59 -1.31224 1.36297 0
M  V30 13145 O 1252.93 -1.78463 0.435517 0
M  V30 13146 C 1252.99 -0.360462 3.57688 0
M  V30 13147 C 1252.66 0.816203 4.49652 0
M  V30 13148 C 1253.65 1.70713 4.91073 0
M  V30 13149 C 1251.34 1.01545 4.91929 0
M  V30 13150 C 1253.33 2.78144 5.73511 0
M  V30 13151 C 1251.02 2.09294 5.74142 0
M  V30 13152 C 1252.02 2.97428 6.14838 0
M  V30 13153 O 1251.71 4.03317 6.95407 0
M  V30 13154 H 1251.44 0.0179548 0.675762 0
M  V30 13155 H 1253.99 0.699609 1.93118 0
M  V30 13156 H 1252.22 -1.15177 3.69149 0
M  V30 13157 H 1253.91 -0.839931 3.97115 0
M  V30 13158 H 1254.68 1.56502 4.59056 0
M  V30 13159 H 1250.56 0.338822 4.59753 0
M  V30 13160 H 1254.1 3.46965 6.05195 0
M  V30 13161 H 1250 2.235 6.05572 0
M  V30 13162 H 1250.77 4.00689 7.13716 0
M  V30 13163 N 1253.43 -1.55816 0.23648 0
M  V30 13164 C 1254.38 -2.20938 -0.66745 0
M  V30 13165 C 1255.35 -1.16982 -1.17917 0
M  V30 13166 O 1256.53 -1.45392 -1.23555 0
M  V30 13167 C 1253.67 -2.90469 -1.86337 0
M  V30 13168 C 1252.78 -4.09056 -1.38915 0
M  V30 13169 C 1251.92 -4.6633 -2.54382 0
M  V30 13170 C 1250.96 -5.77187 -2.0377 0
M  V30 13171 N 1250.09 -6.28688 -3.12564 0
M  V30 13172 H 1254.93 -2.97814 -0.105411 0
M  V30 13173 H 1252.47 -1.47045 -0.0402712 0
M  V30 13174 H 1254.43 -3.28975 -2.56576 0
M  V30 13175 H 1253.06 -2.16086 -2.39806 0
M  V30 13176 H 1252.11 -3.75934 -0.581173 0
M  V30 13177 H 1253.42 -4.89115 -0.978152 0
M  V30 13178 H 1252.58 -5.07355 -3.32679 0
M  V30 13179 H 1251.32 -3.85464 -2.98778 0
M  V30 13180 H 1250.32 -5.35648 -1.23939 0
M  V30 13181 H 1251.55 -6.59896 -1.60355 0
M  V30 13182 H 1249.49 -5.50731 -3.56414 0
M  V30 13183 H 1249.41 -7.03911 -2.75762 0
M  V30 13184 H 1250.68 -6.74371 -3.90952 0
M  V30 13185 N 1254.91 0.036755 -1.57557 0
M  V30 13186 C 1256.15 0.730186 -1.89199 0
M  V30 13187 C 1256.49 1.75414 -0.833271 0
M  V30 13188 O 1255.76 1.93901 0.152579 0
M  V30 13189 C 1256.04 1.40669 -3.31488 0
M  V30 13190 C 1255.9 0.396764 -4.48047 0
M  V30 13191 C 1257.22 2.34268 -3.72567 0
M  V30 13192 H 1254.33 0.263983 -0.6881 0
M  V30 13193 H 1256.98 -0.0069847 -1.89999 0
M  V30 13194 H 1255.13 2.03502 -3.30937 0
M  V30 13195 H 1256.8 -0.229062 -4.60731 0
M  V30 13196 H 1255.04 -0.284698 -4.32865 0
M  V30 13197 H 1255.71 0.908436 -5.44474 0
M  V30 13198 H 1258.19 1.81485 -3.74436 0
M  V30 13199 H 1257.06 2.78587 -4.72949 0
M  V30 13200 H 1257.33 3.20611 -3.04403 0
M  V30 13201 N 1256.39 1.54543 0.308881 0
M  V30 13202 C 1257.63 1.73107 1.043 0
M  V30 13203 C 1257.95 0.515481 1.88063 0
M  V30 13204 O 1257.22 -0.47036 1.90169 0
M  V30 13205 H 1255.8 0.638289 0.388068 0
M  V30 13206 H 1258.47 1.9188 0.341769 0
M  V30 13207 H 1257.56 2.61697 1.70063 0
M  V30 13208 N 1257.86 -0.571685 1.46866 0
M  V30 13209 C 1259.11 -1.32685 1.52444 0
M  V30 13210 C 1259.43 -1.94147 0.182225 0
M  V30 13211 O 1258.7 -1.79159 -0.792385 0
M  V30 13212 H 1257.28 -0.492679 0.561495 0
M  V30 13213 H 1259.94 -0.668694 1.8307 0
M  V30 13214 H 1259.04 -2.12788 2.28315 0
M  V30 13215 N 1259.34 -1.34755 -0.817236 0
M  V30 13216 C 1260.29 -1.26816 -1.94988 0
M  V30 13217 C 1261.28 -0.165142 -1.68593 0
M  V30 13218 O 1262.49 -0.330469 -1.7694 0
M  V30 13219 H 1258.86 -0.394113 -0.640452 0
M  V30 13220 H 1260.84 -2.22528 -1.98806 0
M  V30 13221 C 1259.58 -1.04625 -3.31586 0
M  V30 13222 H 1258.91 -1.88735 -3.52447 0
M  V30 13223 H 1260.35 -1.03108 -4.11272 0
M  V30 13224 C 1258.81 0.250283 -3.35969 0
M  V30 13225 O 1259.34 1.24972 -3.81765 0
M  V30 13226 N 1257.54 0.285369 -2.89195 0
M  V30 13227 H 1257.09 -0.528528 -2.5212 0
M  V30 13228 H 1257.05 1.15261 -2.9251 0
M  V30 13229 N 1260.82 1.03812 -1.18578 0
M  V30 13230 C 1262.07 1.76706 -0.980776 0
M  V30 13231 C 1262.39 1.88729 0.490562 0
M  V30 13232 O 1261.66 1.41413 1.35569 0
M  V30 13233 H 1260.24 0.654586 -0.359898 0
M  V30 13234 H 1262.9 1.25274 -1.49306 0
M  V30 13235 H 1262 2.77876 -1.42096 0
M  V30 13236 N 1262.3 0.988223 1.22768 0
M  V30 13237 C 1263.25 0.527454 2.26541 0
M  V30 13238 C 1264.24 -0.419506 1.64123 0
M  V30 13239 O 1265.45 -0.292539 1.77607 0
M  V30 13240 H 1261.82 0.152165 0.736444 0
M  V30 13241 H 1263.79 1.41422 2.62759 0
M  V30 13242 C 1262.54 -0.146845 3.4739 0
M  V30 13243 H 1261.86 0.572752 3.95676 0
M  V30 13244 H 1263.3 -0.432768 4.21786 0
M  V30 13245 C 1261.76 -1.38065 3.0731 0
M  V30 13246 O 1262.29 -2.47634 3.16291 0
M  V30 13247 N 1260.5 -1.25418 2.62143 0
M  V30 13248 H 1260.05 -0.362641 2.55035 0
M  V30 13249 H 1260 -2.08077 2.35694 0
M  V30 13250 N 1263.78 -1.38018 0.760839 0
M  V30 13251 C 1264.72 -2.32251 0.127425 0
M  V30 13252 C 1265.72 -1.54387 -0.69722 0
M  V30 13253 O 1266.92 -1.69864 -0.595505 0
M  V30 13254 H 1263.3 -0.751666 0.0224141 0
M  V30 13255 H 1265.27 -2.8327 0.93813 0
M  V30 13256 C 1264.02 -3.39606 -0.745849 0
M  V30 13257 H 1263.34 -3.99618 -0.120679 0
M  V30 13258 H 1264.78 -4.07931 -1.15621 0
M  V30 13259 C 1263.24 -2.78778 -1.89167 0
M  V30 13260 O 1263.77 -2.68661 -2.98637 0
M  V30 13261 N 1261.98 -2.36481 -1.68894 0
M  V30 13262 H 1261.52 -2.4491 -0.798551 0
M  V30 13263 H 1261.48 -1.96126 -2.45728 0
M  V30 13264 N 1265.25 -0.510493 -1.49103 0
M  V30 13265 C 1266.5 0.0305831 -2.02077 0
M  V30 13266 C 1266.82 1.36602 -1.39157 0
M  V30 13267 O 1266.09 1.88016 -0.550154 0
M  V30 13268 H 1264.67 0.0142916 -0.746863 0
M  V30 13269 H 1267.33 -0.669895 -1.83026 0
M  V30 13270 H 1266.43 0.153283 -3.11723 0
M  V30 13271 N 1266.73 1.55688 -0.24474 0
M  V30 13272 C 1267.64 2.24933 0.666519 0
M  V30 13273 C 1268.66 1.26471 1.19503 0
M  V30 13274 O 1269.83 1.59342 1.23176 0
M  V30 13275 C 1266.9 2.9336 1.84772 0
M  V30 13276 C 1265.96 4.07225 1.35889 0
M  V30 13277 C 1265.19 4.72381 2.48379 0
M  V30 13278 O 1265.42 4.36605 3.67059 0
M  V30 13279 O 1264.35 5.60933 2.18261 0
M  V30 13280 H 1268.18 3.03513 0.106507 0
M  V30 13281 H 1265.76 1.49394 -0.0133309 0
M  V30 13282 H 1267.64 3.36468 2.53708 0
M  V30 13283 H 1266.32 2.17721 2.39539 0
M  V30 13284 H 1265.22 3.68639 0.636881 0
M  V30 13285 H 1266.56 4.84676 0.857333 0
M  V30 13286 N 1268.21 -0.0283989 1.57574 0
M  V30 13287 C 1269.17 -1.01346 2.05576 0
M  V30 13288 C 1270.17 -1.28999 0.960001 0
M  V30 13289 O 1271.36 -1.23991 1.2236 0
M  V30 13290 C 1268.49 -2.34611 2.47327 0
M  V30 13291 H 1269.69 -0.598809 2.93861 0
M  V30 13292 H 1267.24 -0.27524 1.53857 0
M  V30 13293 H 1267.98 -2.80823 1.622 0
M  V30 13294 H 1267.76 -2.1587 3.27326 0
M  V30 13295 H 1269.25 -3.05332 2.84889 0
M  V30 13296 N 1269.69 -1.54705 -0.300681 0
M  V30 13297 C 1270.92 -1.77735 -1.05327 0
M  V30 13298 C 1271.33 -0.53709 -1.81417 0
M  V30 13299 O 1270.67 0.502663 -1.76689 0
M  V30 13300 C 1270.73 -2.93222 -2.07993 0
M  V30 13301 C 1270.39 -4.313 -1.51095 0
M  V30 13302 C 1271.39 -5.11317 -0.94082 0
M  V30 13303 C 1269.08 -4.77901 -1.54648 0
M  V30 13304 C 1271.07 -6.36055 -0.413791 0
M  V30 13305 C 1268.76 -6.02602 -1.01558 0
M  V30 13306 C 1269.76 -6.81515 -0.450209 0
M  V30 13307 O 1269.44 -8.03867 0.0726375 0
M  V30 13308 H 1269.18 -0.596468 -0.318122 0
M  V30 13309 H 1271.73 -2.02475 -0.345404 0
M  V30 13310 H 1269.96 -2.64108 -2.82461 0
M  V30 13311 H 1271.65 -3.03826 -2.69156 0
M  V30 13312 H 1272.41 -4.76458 -0.906268 0
M  V30 13313 H 1268.29 -4.16507 -1.97594 0
M  V30 13314 H 1271.84 -6.97594 0.0281534 0
M  V30 13315 H 1267.73 -6.36948 -1.04728 0
M  V30 13316 H 1268.5 -8.1849 -0.0406321 0
M  V30 13317 N 1271.17 0.563888 -1.47167 0
M  V30 13318 C 1272.44 1.32454 -1.43928 0
M  V30 13319 C 1272.82 2.10683 -0.13267 0
M  V30 13320 O 1272.17 2.1063 0.885845 0
M  V30 13321 C 1272.38 2.2347 -2.68071 0
M  V30 13322 C 1273.73 2.84702 -3.15008 0
M  V30 13323 O 1274.75 2.33775 -2.68752 0
M  V30 13324 O 1273.61 3.77251 -3.95404 0
M  V30 13325 H 1270.71 0.596074 -0.573258 0
M  V30 13326 H 1273.25 0.583345 -1.59359 0
M  V30 13327 H 1272.02 1.6522 -3.54708 0
M  V30 13328 H 1271.65 3.04897 -2.55193 0
M  V30 13329 N 1272.64 1.35187 0.810078 0
M  V30 13330 C 1273.59 1.24366 1.91094 0
M  V30 13331 C 1274.58 0.139718 1.60292 0
M  V30 13332 O 1275.77 0.370609 1.73077 0
M  V30 13333 C 1272.9 1.01434 3.27973 0
M  V30 13334 C 1271.99 2.16203 3.64852 0
M  V30 13335 N 1272.38 3.41408 3.73195 0
M  V30 13336 C 1270.67 2.07512 3.94784 0
M  V30 13337 C 1271.38 4.16858 4.05714 0
M  V30 13338 N 1270.35 3.45579 4.19614 0
M  V30 13339 H 1274.15 2.19232 1.95741 0
M  V30 13340 H 1271.67 1.2761 1.00447 0
M  V30 13341 H 1273.66 0.91771 4.06674 0
M  V30 13342 H 1272.32 0.074495 3.24615 0
M  V30 13343 H 1273.34 3.75802 3.56361 0
M  V30 13344 H 1270.01 1.21362 3.99472 0
M  V30 13345 H 1271.4 5.25039 4.19266 0
M  V30 13346 N 1274.12 -1.03182 1.19127 0
M  V30 13347 C 1275.35 -1.79904 1.01578 0
M  V30 13348 C 1275.76 -1.84044 -0.438697 0
M  V30 13349 O 1275.1 -1.28117 -1.3165 0
M  V30 13350 C 1275.17 -3.26473 1.50519 0
M  V30 13351 C 1274.83 -3.45975 2.98581 0
M  V30 13352 C 1275.83 -3.36436 3.96367 0
M  V30 13353 C 1273.51 -3.72284 3.37209 0
M  V30 13354 C 1275.51 -3.52925 5.30775 0
M  V30 13355 C 1273.19 -3.8842 4.71777 0
M  V30 13356 C 1274.19 -3.78742 5.68369 0
M  V30 13357 O 1273.88 -3.94405 7.005 0
M  V30 13358 H 1273.61 -0.573103 0.35851 0
M  V30 13359 H 1276.16 -1.30871 1.5831 0
M  V30 13360 H 1274.39 -3.76517 0.881593 0
M  V30 13361 H 1276.08 -3.84781 1.29223 0
M  V30 13362 H 1276.85 -3.16064 3.6787 0
M  V30 13363 H 1272.73 -3.78911 2.62579 0
M  V30 13364 H 1276.27 -3.45288 6.06153 0
M  V30 13365 H 1272.17 -4.08288 4.99971 0
M  V30 13366 H 1272.94 -4.11514 7.0753 0
M  V30 13367 N 1275.6 -0.99472 -1.22242 0
M  V30 13368 C 1276.51 -0.555502 -2.27928 0
M  V30 13369 C 1277.53 0.396584 -1.6942 0
M  V30 13370 O 1278.7 0.262965 -1.99676 0
M  V30 13371 C 1275.77 0.121121 -3.46488 0
M  V30 13372 C 1274.83 -0.874155 -4.20306 0
M  V30 13373 C 1274.06 -0.229726 -5.33205 0
M  V30 13374 O 1274.28 0.975935 -5.61989 0
M  V30 13375 O 1273.22 -0.935501 -5.94586 0
M  V30 13376 H 1277.04 -1.4348 -2.6767 0
M  V30 13377 H 1274.63 -0.763061 -1.28444 0
M  V30 13378 H 1276.51 0.500043 -4.18423 0
M  V30 13379 H 1275.19 0.974959 -3.08668 0
M  V30 13380 H 1274.09 -1.30404 -3.50636 0
M  V30 13381 H 1275.43 -1.69725 -4.62011 0
M  V30 13382 N 1277.08 1.37613 -0.768148 0
M  V30 13383 C 1278.01 2.3291 -0.165911 0
M  V30 13384 C 1278.99 1.556 0.687205 0
M  V30 13385 O 1280.17 1.83854 0.625407 0
M  V30 13386 C 1277.3 3.39822 0.7168 0
M  V30 13387 C 1276.26 4.27986 -0.0347264 0
M  V30 13388 C 1275.58 5.2588 0.967192 0
M  V30 13389 C 1276.88 5.08052 -1.21164 0
M  V30 13390 H 1278.58 2.83524 -0.962006 0
M  V30 13391 H 1276.12 1.36318 -0.464051 0
M  V30 13392 H 1278.08 4.05464 1.14789 0
M  V30 13393 H 1276.8 2.87725 1.54538 0
M  V30 13394 H 1275.46 3.6387 -0.446557 0
M  V30 13395 H 1275.11 4.70064 1.79022 0
M  V30 13396 H 1274.81 5.85726 0.468913 0
M  V30 13397 H 1276.33 5.94397 1.3973 0
M  V30 13398 H 1277.75 5.66853 -0.857373 0
M  V30 13399 H 1276.14 5.77206 -1.64176 0
M  V30 13400 H 1277.21 4.40936 -2.0175 0
M  V30 13401 N 1278.56 0.518393 1.4883 0
M  V30 13402 C 1279.79 -0.0161765 2.06594 0
M  V30 13403 C 1280.19 -1.29771 1.37681 0
M  V30 13404 O 1279.54 -1.77991 0.454421 0
M  V30 13405 C 1279.6 -0.322505 3.5805 0
M  V30 13406 C 1279.26 0.863848 4.48761 0
M  V30 13407 C 1280.26 1.75912 4.89235 0
M  V30 13408 C 1277.95 1.06757 4.90824 0
M  V30 13409 C 1279.94 2.84211 5.70528 0
M  V30 13410 C 1277.63 2.15372 5.7189 0
M  V30 13411 C 1278.62 3.03932 6.11649 0
M  V30 13412 O 1278.31 4.1067 6.9109 0
M  V30 13413 H 1278.04 0.0251212 0.675533 0
M  V30 13414 H 1280.6 0.720052 1.92365 0
M  V30 13415 H 1278.83 -1.11256 3.7035 0
M  V30 13416 H 1280.52 -0.797764 3.97983 0
M  V30 13417 H 1281.28 1.61362 4.5737 0
M  V30 13418 H 1277.16 0.387566 4.59368 0
M  V30 13419 H 1280.71 3.53364 6.01481 0
M  V30 13420 H 1276.6 2.2991 6.03168 0
M  V30 13421 H 1277.37 4.08237 7.09426 0
M  V30 13422 N 1280.03 -1.55556 0.252993 0
M  V30 13423 C 1281.45 -1.59276 -0.101714 0
M  V30 13424 C 1281.65 -1.27018 -1.56424 0
M  V30 13425 O 1280.71 -1.02042 -2.30963 0
M  V30 13426 C 1282.02 -2.99634 0.252969 0
M  V30 13427 C 1283.57 -3.12375 0.197767 0
M  V30 13428 C 1284.04 -4.54963 0.52657 0
M  V30 13429 N 1285.53 -4.60734 0.477296 0
M  V30 13430 C 1286.27 -5.69052 0.704793 0
M  V30 13431 N 1285.76 -6.85607 0.99574 0
M  V30 13432 N 1287.56 -5.58501 0.635086 0
M  V30 13433 H 1279.71 -1.74793 1.2067 0
M  V30 13434 H 1281.97 -0.813971 0.485958 0
M  V30 13435 H 1281.68 -3.27998 1.26926 0
M  V30 13436 H 1281.55 -3.74888 -0.416984 0
M  V30 13437 H 1283.94 -2.83788 -0.809209 0
M  V30 13438 H 1284.02 -2.39382 0.901659 0
M  V30 13439 H 1283.66 -4.84271 1.53113 0
M  V30 13440 H 1283.59 -5.26224 -0.198869 0
M  V30 13441 H 1286.08 -3.76995 0.261398 0
M  V30 13442 H 1286.4 -7.64096 1.15659 0
M  V30 13443 H 1284.74 -6.87276 1.03328 0
M  V30 13444 H 1287.93 -4.6632 0.407789 0
M  V30 13445 H 1288.11 -6.42845 0.815777 0
M  V30 13446 N 1281.51 0.0200419 -1.57587 0
M  V30 13447 C 1282.44 1.0456 -2.0396 0
M  V30 13448 C 1283.46 1.31922 -0.953962 0
M  V30 13449 O 1284.65 1.2925 -1.23112 0
M  V30 13450 C 1281.75 2.38514 -2.40758 0
M  V30 13451 C 1280.92 2.3038 -3.71812 0
M  V30 13452 C 1279.98 3.46856 -3.95698 0
M  V30 13453 O 1279 3.25944 -4.66636 0
M  V30 13454 N 1280.21 4.69033 -3.42036 0
M  V30 13455 H 1282.97 0.650282 -2.9256 0
M  V30 13456 H 1280.53 0.207818 -1.60561 0
M  V30 13457 H 1282.52 3.15172 -2.53868 0
M  V30 13458 H 1281.09 2.69859 -1.57781 0
M  V30 13459 H 1280.31 1.38762 -3.6897 0
M  V30 13460 H 1281.6 2.22097 -4.57767 0
M  V30 13461 H 1281 4.88923 -2.84553 0
M  V30 13462 H 1279.56 5.43025 -3.6051 0
M  V30 13463 N 1282.99 1.54862 0.292472 0
M  V30 13464 C 1284.22 1.78291 1.04383 0
M  V30 13465 C 1284.63 0.546703 1.81129 0
M  V30 13466 O 1283.97 -0.493286 1.76953 0
M  V30 13467 C 1284.03 2.94321 2.06435 0
M  V30 13468 C 1283.7 4.32095 1.48806 0
M  V30 13469 C 1284.69 5.11808 0.91369 0
M  V30 13470 C 1282.38 4.78714 1.52112 0
M  V30 13471 C 1284.37 6.36266 0.380053 0
M  V30 13472 C 1282.06 6.03132 0.983613 0
M  V30 13473 C 1283.06 6.81744 0.41406 0
M  V30 13474 O 1282.75 8.03817 -0.115268 0
M  V30 13475 H 1282.48 0.598147 0.314954 0
M  V30 13476 H 1285.03 2.02655 0.334661 0
M  V30 13477 H 1283.26 2.65602 2.81056 0
M  V30 13478 H 1284.95 3.05249 2.67541 0
M  V30 13479 H 1285.72 4.76931 0.880988 0
M  V30 13480 H 1281.6 4.17549 1.95382 0
M  V30 13481 H 1285.14 6.9757 -0.0651481 0
M  V30 13482 H 1281.04 6.37494 1.01349 0
M  V30 13483 H 1281.81 8.185 -0.00277496 0
M  V30 13484 N 1284.47 -0.556076 1.47464 0
M  V30 13485 C 1285.4 -1.67275 1.62915 0
M  V30 13486 C 1286.38 -1.63229 0.478562 0
M  V30 13487 O 1287.56 -1.80833 0.708032 0
M  V30 13488 C 1284.69 -3.05911 1.64426 0
M  V30 13489 C 1283.65 -3.24804 2.78722 0
M  V30 13490 C 1282.97 -4.64238 2.65307 0
M  V30 13491 C 1284.27 -3.10071 4.20302 0
M  V30 13492 H 1285.97 -1.54601 2.56396 0
M  V30 13493 H 1283.51 -0.742337 1.23391 0
M  V30 13494 H 1285.47 -3.83878 1.73826 0
M  V30 13495 H 1284.19 -3.19547 0.675053 0
M  V30 13496 H 1282.85 -2.49246 2.68835 0
M  V30 13497 H 1282.5 -4.74675 1.66412 0
M  V30 13498 H 1282.2 -4.77828 3.41986 0
M  V30 13499 H 1283.72 -5.44339 2.76637 0
M  V30 13500 H 1285.14 -3.77855 4.3116 0
M  V30 13501 H 1283.53 -3.3517 4.97776 0
M  V30 13502 H 1284.6 -2.06803 4.38589 0
M  V30 13503 N 1285.95 -1.35615 -0.802897 0
M  V30 13504 C 1286.89 -1.28839 -1.91492 0
M  V30 13505 C 1287.86 -0.159621 -1.65331 0
M  V30 13506 O 1289.05 -0.343931 -1.87675 0
M  V30 13507 C 1286.19 -1.06999 -3.28093 0
M  V30 13508 C 1285.3 -2.28831 -3.66416 0
M  V30 13509 C 1284.44 -2.00111 -4.92066 0
M  V30 13510 C 1283.48 -3.17977 -5.23027 0
M  V30 13511 N 1282.61 -2.89009 -6.39858 0
M  V30 13512 H 1287.45 -2.2393 -1.96619 0
M  V30 13513 H 1284.99 -1.1131 -0.961687 0
M  V30 13514 H 1286.95 -0.923673 -4.06847 0
M  V30 13515 H 1285.58 -0.155684 -3.22424 0
M  V30 13516 H 1284.63 -2.54314 -2.82893 0
M  V30 13517 H 1285.94 -3.1683 -3.85253 0
M  V30 13518 H 1285.1 -1.82331 -5.78654 0
M  V30 13519 H 1283.84 -1.09402 -4.75271 0
M  V30 13520 H 1282.84 -3.3633 -4.34928 0
M  V30 13521 H 1284.07 -4.09493 -5.41749 0
M  V30 13522 H 1282.01 -2.00898 -6.24481 0
M  V30 13523 H 1281.93 -3.70544 -6.58964 0
M  V30 13524 H 1283.2 -2.74779 -7.29463 0
M  V30 13525 N 1287.43 1.02549 -1.19673 0
M  V30 13526 C 1288.7 1.73106 -0.9107 0
M  V30 13527 C 1289.08 2.02897 0.582769 0
M  V30 13528 O 1288.43 1.68633 1.54192 0
M  V30 13529 C 1288.64 3.00535 -1.77425 0
M  V30 13530 C 1289.99 3.73976 -2.01065 0
M  V30 13531 O 1291.01 3.1047 -1.74605 0
M  V30 13532 O 1289.87 4.88153 -2.457 0
M  V30 13533 H 1286.97 0.754006 -0.339711 0
M  V30 13534 H 1289.51 1.08477 -1.30502 0
M  V30 13535 H 1288.28 2.74773 -2.78595 0
M  V30 13536 H 1287.91 3.72904 -1.37943 0
M  V30 13537 N 1288.9 1.00119 1.21713 0
M  V30 13538 C 1290.32 0.713343 1.42771 0
M  V30 13539 C 1290.52 -0.712923 1.88467 0
M  V30 13540 O 1289.58 -1.48277 2.04378 0
M  V30 13541 C 1290.89 1.72596 2.46234 0
M  V30 13542 C 1292.44 1.74235 2.60022 0
M  V30 13543 C 1292.91 2.74382 3.66713 0
M  V30 13544 N 1294.4 2.73027 3.7418 0
M  V30 13545 C 1295.14 3.47178 4.56349 0
M  V30 13546 N 1294.63 4.30958 5.42446 0
M  V30 13547 N 1296.43 3.35846 4.50737 0
M  V30 13548 H 1288.58 1.9222 0.903611 0
M  V30 13549 H 1290.84 0.829466 0.459011 0
M  V30 13550 H 1290.55 2.74699 2.19621 0
M  V30 13551 H 1290.42 1.52553 3.44975 0
M  V30 13552 H 1292.81 0.728261 2.85973 0
M  V30 13553 H 1292.89 1.98349 1.61528 0
M  V30 13554 H 1292.53 3.75945 3.41508 0
M  V30 13555 H 1292.46 2.47534 4.64795 0
M  V30 13556 H 1294.95 2.12242 3.12669 0
M  V30 13557 H 1295.27 4.84344 6.02189 0
M  V30 13558 H 1293.61 4.35042 5.42 0
M  V30 13559 H 1296.8 2.6983 3.82504 0
M  V30 13560 H 1296.98 3.93892 5.14541 0
M  V30 13561 N 1290.38 -1.37203 0.775435 0
M  V30 13562 C 1291.79 -1.82224 0.406372 0
M  V30 13563 C 1292.14 -1.64587 -1.06796 0
M  V30 13564 O 1291.27 -1.15903 -1.82744 0
M  V30 13565 C 1291.86 -3.30824 0.730819 0
M  V30 13566 C 1290.42 -3.74108 0.414766 0
M  V30 13567 C 1289.57 -2.59679 0.972747 0
M  V30 13568 H 1292.52 -1.25623 0.969775 0
M  V30 13569 H 1292.54 -3.80496 0.0168066 0
M  V30 13570 H 1292.05 -3.43628 1.80392 0
M  V30 13571 H 1290.15 -3.66871 -0.650866 0
M  V30 13572 H 1290.27 -4.70074 0.925595 0
M  V30 13573 H 1288.63 -2.51591 0.396772 0
M  V30 13574 H 1289.41 -2.75274 2.05132 0
M  V30 13575 N 1291.86 -0.526279 -1.48553 0
M  V30 13576 C 1293.11 0.00918008 -2.02798 0
M  V30 13577 C 1293.44 1.34284 -1.4029 0
M  V30 13578 O 1292.71 1.86639 -0.547355 0
M  V30 13579 C 1293 0.135102 -3.59846 0
M  V30 13580 C 1292.85 -1.22347 -4.32841 0
M  V30 13581 C 1294.17 0.863673 -4.31542 0
M  V30 13582 H 1291.29 0.00186216 -0.736998 0
M  V30 13583 H 1293.93 -0.682591 -1.77315 0
M  V30 13584 H 1292.08 0.724279 -3.81689 0
M  V30 13585 H 1293.75 -1.85347 -4.22427 0
M  V30 13586 H 1291.99 -1.80631 -3.94405 0
M  V30 13587 H 1292.67 -1.08839 -5.41164 0
M  V30 13588 H 1295.14 0.363734 -4.14507 0
M  V30 13589 H 1294.02 0.92067 -5.41124 0
M  V30 13590 H 1294.28 1.91313 -3.98562 0
M  V30 13591 N 1293.34 1.5542 -0.261239 0
M  V30 13592 C 1294.57 2.03687 0.363225 0
M  V30 13593 C 1294.98 1.14007 1.50492 0
M  V30 13594 O 1294.34 0.157349 1.8182 0
M  V30 13595 C 1294.39 3.51184 0.857435 0
M  V30 13596 O 1294.11 4.37449 -0.238776 0
M  V30 13597 C 1295.61 4.15277 1.55113 0
M  V30 13598 H 1292.83 0.665641 0.0846356 0
M  V30 13599 H 1295.37 2.00761 -0.389288 0
M  V30 13600 H 1293.53 3.54599 1.56008 0
M  V30 13601 H 1293.94 5.24316 0.138821 0
M  V30 13602 H 1295.42 5.20129 1.8485 0
M  V30 13603 H 1295.89 3.62619 2.47799 0
M  V30 13604 H 1296.5 4.15826 0.892695 0
M  V30 13605 N 1294.82 -0.0116844 1.57596 0
M  V30 13606 C 1295.78 -0.991601 2.0664 0
M  V30 13607 C 1296.78 -1.27973 0.973629 0
M  V30 13608 O 1297.97 -1.22686 1.23668 0
M  V30 13609 C 1295.1 -2.31975 2.49801 0
M  V30 13610 H 1296.29 -0.567607 2.9448 0
M  V30 13611 H 1293.85 -0.258906 1.54141 0
M  V30 13612 H 1294.58 -2.79087 1.65169 0
M  V30 13613 H 1294.37 -2.12386 3.29598 0
M  V30 13614 H 1295.86 -3.02294 2.88112 0
M  V30 13615 N 1296.29 -1.55015 -0.284256 0
M  V30 13616 C 1297.22 -1.90128 -1.3555 0
M  V30 13617 C 1298.2 -0.761914 -1.52082 0
M  V30 13618 O 1299.39 -1.01909 -1.65312 0
M  V30 13619 C 1296.52 -2.16332 -2.71695 0
M  V30 13620 C 1295.47 -3.32166 -2.69907 0
M  V30 13621 C 1294.8 -3.43824 -4.09498 0
M  V30 13622 C 1296.1 -4.6885 -2.30168 0
M  V30 13623 H 1297.79 -2.79852 -1.06411 0
M  V30 13624 H 1295.34 -1.34649 -0.510451 0
M  V30 13625 H 1297.29 -2.39482 -3.46737 0
M  V30 13626 H 1296.02 -1.23395 -3.02392 0
M  V30 13627 H 1294.68 -3.08965 -1.97322 0
M  V30 13628 H 1294.32 -2.48375 -4.374 0
M  V30 13629 H 1294.02 -4.21698 -4.092 0
M  V30 13630 H 1295.55 -3.69254 -4.86296 0
M  V30 13631 H 1296.96 -4.91619 -2.9493 0
M  V30 13632 H 1295.36 -5.49558 -2.41052 0
M  V30 13633 H 1296.43 -4.68433 -1.25294 0
M  V30 13634 N 1297.77 0.548248 -1.47757 0
M  V30 13635 C 1299.19 0.875048 -1.33473 0
M  V30 13636 C 1299.39 1.98747 -0.331952 0
M  V30 13637 O 1298.44 2.51226 0.253348 0
M  V30 13638 C 1299.76 1.25982 -2.73037 0
M  V30 13639 C 1301.3 1.37074 -2.81389 0
M  V30 13640 C 1301.78 1.78902 -4.21613 0
M  V30 13641 N 1303.27 1.86037 -4.24198 0
M  V30 13642 C 1304.01 2.1975 -5.2962 0
M  V30 13643 N 1303.5 2.52013 -6.45338 0
M  V30 13644 N 1305.29 2.206 -5.17003 0
M  V30 13645 H 1297.45 -0.186033 -2.11584 0
M  V30 13646 H 1299.71 -0.0205687 -0.947777 0
M  V30 13647 H 1299.41 0.516188 -3.47891 0
M  V30 13648 H 1299.29 2.21402 -3.05387 0
M  V30 13649 H 1301.68 2.10517 -2.06801 0
M  V30 13650 H 1301.76 0.398193 -2.52682 0
M  V30 13651 H 1301.4 1.06026 -4.9671 0
M  V30 13652 H 1301.33 2.77176 -4.47751 0
M  V30 13653 H 1303.82 1.63455 -3.40721 0
M  V30 13654 H 1304.13 2.7679 -7.21531 0
M  V30 13655 H 1302.48 2.49573 -6.48643 0
M  V30 13656 H 1305.67 1.9484 -4.25623 0
M  V30 13657 H 1305.84 2.46543 -5.99267 0
M  V30 13658 N 1299.25 1.36039 0.795694 0
M  V30 13659 C 1300.53 1.20474 1.54096 0
M  V30 13660 C 1300.91 -0.211691 2.10036 0
M  V30 13661 O 1300.25 -1.21656 1.93422 0
M  V30 13662 C 1300.46 2.28164 2.64087 0
M  V30 13663 C 1301.81 2.64519 3.32137 0
M  V30 13664 O 1302.84 2.2716 2.74366 0
M  V30 13665 O 1301.7 3.28796 4.36527 0
M  V30 13666 H 1298.79 0.468699 0.681359 0
M  V30 13667 H 1301.34 1.47752 0.834716 0
M  V30 13668 H 1300.11 3.23121 2.20701 0
M  V30 13669 H 1299.73 2.02217 3.42336 0
M  V30 13670 N 1300.73 -1.01913 1.20215 0
M  V30 13671 C 1301.66 -2.12282 0.97256 0
M  V30 13672 C 1302.64 -1.6982 -0.0975709 0
M  V30 13673 O 1303.82 -1.94109 0.0594307 0
M  V30 13674 C 1300.95 -3.43369 0.521085 0
M  V30 13675 C 1299.91 -3.99559 1.53417 0
M  V30 13676 C 1299.23 -5.26383 0.93942 0
M  V30 13677 C 1300.53 -4.33241 2.91718 0
M  V30 13678 H 1302.23 -2.31746 1.89563 0
M  V30 13679 H 1299.77 -1.1137 0.912841 0
M  V30 13680 H 1301.73 -4.19963 0.347713 0
M  V30 13681 H 1300.45 -3.23655 -0.437605 0
M  V30 13682 H 1299.11 -3.25069 1.69486 0
M  V30 13683 H 1298.76 -5.02993 -0.0271236 0
M  V30 13684 H 1298.46 -5.64942 1.616 0
M  V30 13685 H 1299.98 -6.05635 0.777059 0
M  V30 13686 H 1301.4 -5.00734 2.79175 0
M  V30 13687 H 1299.79 -4.82907 3.56259 0
M  V30 13688 H 1300.86 -3.42118 3.43633 0
M  V30 13689 N 1302.21 -1.00763 -1.2118 0
M  V30 13690 C 1303.14 -0.590493 -2.2591 0
M  V30 13691 C 1304.12 0.390002 -1.65569 0
M  V30 13692 O 1305.3 0.277406 -1.92208 0
M  V30 13693 C 1302.43 0.0810388 -3.47205 0
M  V30 13694 C 1301.39 -0.81951 -4.20081 0
M  V30 13695 C 1300.71 -0.014244 -5.34698 0
M  V30 13696 C 1302.01 -2.12336 -4.7719 0
M  V30 13697 H 1303.71 -1.46595 -2.61056 0
M  V30 13698 H 1301.25 -0.706321 -1.25487 0
M  V30 13699 H 1303.21 0.384355 -4.19644 0
M  V30 13700 H 1301.93 0.991145 -3.11197 0
M  V30 13701 H 1300.59 -1.10669 -3.49497 0
M  V30 13702 H 1300.24 0.897233 -4.94933 0
M  V30 13703 H 1299.94 -0.613883 -5.84384 0
M  V30 13704 H 1301.46 0.282827 -6.09945 0
M  V30 13705 H 1302.87 -1.88301 -5.41494 0
M  V30 13706 H 1301.27 -2.67308 -5.37277 0
M  V30 13707 H 1302.34 -2.79238 -3.96427 0
M  V30 13708 N 1303.68 1.3679 -0.7827 0
M  V30 13709 C 1304.96 1.93639 -0.276278 0
M  V30 13710 C 1305.34 1.7153 1.23048 0
M  V30 13711 O 1304.69 1.07037 2.01879 0
M  V30 13712 C 1304.9 3.42672 -0.661586 0
M  V30 13713 C 1306.25 4.19786 -0.637538 0
M  V30 13714 O 1307.27 3.51082 -0.601645 0
M  V30 13715 O 1306.13 5.42323 -0.674408 0
M  V30 13716 H 1303.22 0.824307 -0.0666832 0
M  V30 13717 H 1305.77 1.46012 -0.864792 0
M  V30 13718 H 1304.54 3.52393 -1.70103 0
M  V30 13719 H 1304.17 3.97573 -0.0465987 0
M  V30 13720 N 1305.16 0.53415 1.48272 0
M  V30 13721 C 1306.41 0.00157259 2.025 0
M  V30 13722 C 1306.74 -1.33886 1.41085 0
M  V30 13723 O 1305.99 -1.87884 0.547544 0
M  V30 13724 C 1306.29 -0.165144 3.57018 0
M  V30 13725 C 1305.96 1.10146 4.3724 0
M  V30 13726 C 1304.62 1.44857 4.58879 0
M  V30 13727 C 1306.97 1.94183 4.83676 0
M  V30 13728 C 1304.3 2.63497 5.24201 0
M  V30 13729 C 1306.65 3.12005 5.50305 0
M  V30 13730 C 1305.32 3.47058 5.70182 0
M  V30 13731 H 1304.59 0.00057545 0.741 0
M  V30 13732 H 1307.23 0.701014 1.78208 0
M  V30 13733 H 1305.54 -0.947384 3.80173 0
M  V30 13734 H 1307.23 -0.592202 3.96603 0
M  V30 13735 H 1303.82 0.821132 4.20661 0
M  V30 13736 H 1308.01 1.68677 4.66757 0
M  V30 13737 H 1303.26 2.90852 5.37787 0
M  V30 13738 H 1307.44 3.77426 5.85254 0
M  V30 13739 H 1305.07 4.39086 6.2057 0
M  V30 13740 N 1306.64 -1.55279 0.269478 0
M  V30 13741 C 1307.59 -2.23723 -0.636468 0
M  V30 13742 C 1308.58 -1.23234 -1.16232 0
M  V30 13743 O 1309.79 -1.41181 -1.1166 0
M  V30 13744 H 1306.16 -0.71793 -0.223788 0
M  V30 13745 H 1308.13 -2.98378 -0.0363057 0
M  V30 13746 C 1306.88 -2.96755 -1.81195 0
M  V30 13747 H 1306.21 -3.73865 -1.4165 0
M  V30 13748 H 1307.65 -3.47975 -2.42258 0
M  V30 13749 C 1306.11 -2.01905 -2.69696 0
M  V30 13750 O 1306.64 -1.56662 -3.69892 0
M  V30 13751 N 1304.84 -1.68524 -2.36744 0
M  V30 13752 H 1304.39 -2.05512 -1.55314 0
M  V30 13753 H 1304.35 -1.05331 -2.96231 0
M  V30 13754 N 1308.12 0.00332656 -1.576 0
M  V30 13755 C 1309.08 0.980628 -2.07163 0
M  V30 13756 C 1310.08 1.27455 -0.980402 0
M  V30 13757 O 1311.27 1.22029 -1.24317 0
M  V30 13758 C 1308.4 2.30647 -2.51028 0
M  V30 13759 H 1309.6 0.551982 -2.94776 0
M  V30 13760 H 1307.15 0.250728 -1.54276 0
M  V30 13761 H 1307.88 2.78207 -1.66647 0
M  V30 13762 H 1307.67 2.10635 -3.30719 0
M  V30 13763 H 1309.16 3.00761 -2.89711 0
M  V30 13764 N 1309.6 1.55164 0.276031 0
M  V30 13765 C 1310.87 1.66338 1.02913 0
M  V30 13766 C 1311.25 0.527876 2.04393 0
M  V30 13767 O 1310.6 -0.472437 2.23563 0
M  V30 13768 C 1310.81 3.05427 1.68865 0
M  V30 13769 C 1312.16 3.63075 2.2014 0
M  V30 13770 O 1313.18 3.0804 1.78857 0
M  V30 13771 O 1312.04 4.59492 2.95854 0
M  V30 13772 H 1309.14 0.675446 0.477181 0
M  V30 13773 H 1311.68 1.67504 0.272129 0
M  V30 13774 H 1310.45 3.79514 0.953125 0
M  V30 13775 H 1310.08 3.08147 2.5126 0
M  V30 13776 N 1311.07 -0.540404 1.48045 0
M  V30 13777 C 1312.01 -1.66164 1.57867 0
M  V30 13778 C 1313.02 -1.56058 0.463655 0
M  V30 13779 O 1314.21 -1.62709 0.734038 0
M  V30 13780 C 1311.31 -3.04748 1.48263 0
M  V30 13781 C 1310.48 -3.40441 2.74625 0
M  V30 13782 C 1309.54 -4.58259 2.58621 0
M  V30 13783 O 1308.57 -4.62 3.32482 0
M  V30 13784 N 1309.77 -5.55794 1.67551 0
M  V30 13785 H 1312.53 -1.58179 2.54557 0
M  V30 13786 H 1310.09 -0.727441 1.44637 0
M  V30 13787 H 1312.09 -3.81425 1.35267 0
M  V30 13788 H 1310.66 -3.06868 0.595892 0
M  V30 13789 H 1309.88 -2.53044 3.02262 0
M  V30 13790 H 1311.16 -3.61069 3.58478 0
M  V30 13791 H 1310.56 -5.55541 1.06725 0
M  V30 13792 H 1309.12 -6.3173 1.60499 0
M  V30 13793 N 1312.55 -1.36459 -0.788468 0
M  V30 13794 C 1313.96 -1.27515 -1.3637 0
M  V30 13795 C 1314.31 0.0846251 -1.96017 0
M  V30 13796 O 1313.44 0.98611 -1.92626 0
M  V30 13797 C 1314.03 -2.30903 -2.4793 0
M  V30 13798 C 1312.59 -2.25645 -3.01266 0
M  V30 13799 C 1311.74 -2.15631 -1.74352 0
M  V30 13800 H 1314.69 -1.47324 -0.590039 0
M  V30 13801 H 1314.71 -1.94601 -3.26972 0
M  V30 13802 H 1314.22 -3.29858 -2.04487 0
M  V30 13803 H 1312.33 -1.3016 -3.49126 0
M  V30 13804 H 1312.44 -3.18373 -3.58016 0
M  V30 13805 H 1310.8 -1.61901 -1.96622 0
M  V30 13806 H 1311.59 -3.16475 -1.33036 0
M  V30 13807 N 1314.03 1.01274 -1.20754 0
M  V30 13808 C 1314.99 2.08056 -0.961528 0
M  V30 13809 C 1315.99 1.60671 0.0644461 0
M  V30 13810 O 1317.18 1.73349 -0.172022 0
M  V30 13811 C 1314.32 3.37938 -0.448381 0
M  V30 13812 H 1315.51 2.31314 -1.90877 0
M  V30 13813 H 1313.06 1.18133 -1.02344 0
M  V30 13814 H 1313.8 3.20357 0.504144 0
M  V30 13815 H 1313.58 3.73659 -1.18833 0
M  V30 13816 H 1315.07 4.16551 -0.295876 0
M  V30 13817 N 1315.51 1.01404 1.20644 0
M  V30 13818 C 1316.76 0.697244 1.89265 0
M  V30 13819 C 1317.07 -0.776149 1.79542 0
M  V30 13820 O 1318.28 -1.2054 2.43274 0
M  V30 13821 C 1316.73 1.19672 3.39421 0
M  V30 13822 C 1316.34 2.69683 3.57736 0
M  V30 13823 C 1318.09 0.955225 4.13613 0
M  V30 13824 C 1315.99 3.13124 5.01704 0
M  V30 13825 H 1314.92 0.257105 0.708811 0
M  V30 13826 H 1317.57 1.22639 1.36499 0
M  V30 13827 H 1315.96 0.595562 3.91496 0
M  V30 13828 H 1317.13 3.35326 3.16059 0
M  V30 13829 H 1315.44 2.91946 2.96911 0
M  V30 13830 H 1318.04 1.25524 5.19757 0
M  V30 13831 H 1318.38 -0.108362 4.16159 0
M  V30 13832 H 1318.92 1.51962 3.67631 0
M  V30 13833 H 1315.66 4.18748 5.04311 0
M  V30 13834 H 1315.18 2.522 5.44201 0
M  V30 13835 H 1316.86 3.05617 5.70269 0
M  V30 13836 N 1316.99 -1.36373 0.789944 0
M  V30 13837 C 1318.21 -2.04011 0.373396 0
M  V30 13838 C 1318.64 -1.59171 -1.00231 0
M  V30 13839 O 1318 -0.760431 -1.64582 0
M  V30 13840 C 1318.04 -3.5783 0.446083 0
M  V30 13841 O 1317.15 -4.08759 -0.54678 0
M  V30 13842 H 1316.49 -0.644807 0.158495 0
M  V30 13843 H 1319.02 -1.74317 1.0712 0
M  V30 13844 H 1319.03 -4.06822 0.309877 0
M  V30 13845 H 1317.7 -3.89819 1.44962 0
M  V30 13846 H 1316.28 -3.71038 -0.372192 0
M  V30 13847 N 1318.47 -0.542005 -1.47987 0
M  V30 13848 C 1319.4 0.202703 -2.32618 0
M  V30 13849 C 1320.38 0.923521 -1.42846 0
M  V30 13850 O 1321.56 0.906957 -1.7172 0
M  V30 13851 C 1318.69 1.24267 -3.24307 0
M  V30 13852 C 1317.65 0.639257 -4.23199 0
M  V30 13853 C 1316.97 1.78275 -5.04105 0
M  V30 13854 C 1318.27 -0.396982 -5.20789 0
M  V30 13855 H 1319.97 -0.503817 -2.95131 0
M  V30 13856 H 1317.51 -0.243736 -1.41922 0
M  V30 13857 H 1319.46 1.7717 -3.82347 0
M  V30 13858 H 1318.19 1.97893 -2.59819 0
M  V30 13859 H 1316.85 0.131655 -3.66364 0
M  V30 13860 H 1316.5 2.50768 -4.36032 0
M  V30 13861 H 1316.2 1.38487 -5.71047 0
M  V30 13862 H 1317.72 2.31533 -5.65 0
M  V30 13863 H 1319.13 0.0454057 -5.73282 0
M  V30 13864 H 1317.53 -0.712911 -5.9585 0
M  V30 13865 H 1318.6 -1.29843 -4.67193 0
M  V30 13866 N 1319.94 1.55134 -0.277709 0
M  V30 13867 C 1320.85 2.26296 0.618658 0
M  V30 13868 C 1321.87 1.28978 1.16794 0
M  V30 13869 O 1323.05 1.61918 1.19768 0
M  V30 13870 C 1320.11 2.97214 1.78508 0
M  V30 13871 C 1319.17 4.10016 1.27221 0
M  V30 13872 C 1318.4 4.77543 2.38304 0
M  V30 13873 O 1318.63 4.44293 3.57715 0
M  V30 13874 O 1317.56 5.65437 2.06313 0
M  V30 13875 H 1321.39 3.03671 0.0421031 0
M  V30 13876 H 1318.97 1.49332 -0.0450166 0
M  V30 13877 H 1320.85 3.41773 2.46513 0
M  V30 13878 H 1319.53 2.22753 2.34867 0
M  V30 13879 H 1318.44 3.69907 0.558544 0
M  V30 13880 H 1319.77 4.86385 0.754333 0
M  V30 13881 N 1321.42 0.00503138 1.57599 0
M  V30 13882 C 1322.33 -1.00097 2.12174 0
M  V30 13883 C 1323.35 -1.37353 1.06818 0
M  V30 13884 O 1324.52 -1.45984 1.38747 0
M  V30 13885 C 1321.59 -2.27252 2.61835 0
M  V30 13886 C 1320.65 -1.96262 3.81811 0
M  V30 13887 C 1319.88 -3.17355 4.29094 0
M  V30 13888 O 1320.11 -4.2921 3.75679 0
M  V30 13889 O 1319.04 -3.01059 5.21198 0
M  V30 13890 H 1322.87 -0.567024 2.9836 0
M  V30 13891 H 1320.45 -0.214109 1.47858 0
M  V30 13892 H 1322.33 -3.01944 2.93952 0
M  V30 13893 H 1321.01 -2.69875 1.78744 0
M  V30 13894 H 1319.91 -1.19031 3.54658 0
M  V30 13895 H 1321.25 -1.58473 4.65991 0
M  V30 13896 N 1322.9 -1.55308 -0.267798 0
M  V30 13897 C 1324.15 -1.7642 -1.00019 0
M  V30 13898 C 1324.48 -0.566559 -1.85752 0
M  V30 13899 O 1323.75 0.435752 -1.89556 0
M  V30 13900 C 1324.04 -3.07229 -1.87836 0
M  V30 13901 C 1323.89 -4.37358 -1.05061 0
M  V30 13902 C 1325.21 -3.34113 -2.86455 0
M  V30 13903 H 1322.33 -0.641859 -0.362197 0
M  V30 13904 H 1324.97 -1.8804 -0.272188 0
M  V30 13905 H 1323.12 -2.97454 -2.49907 0
M  V30 13906 H 1324.79 -4.59098 -0.450208 0
M  V30 13907 H 1323.03 -4.32351 -0.354242 0
M  V30 13908 H 1323.71 -5.25223 -1.69838 0
M  V30 13909 H 1326.18 -3.43715 -2.34519 0
M  V30 13910 H 1325.06 -4.26896 -3.45038 0
M  V30 13911 H 1325.32 -2.54005 -3.61848 0
M  V30 13912 N 1324.38 0.532545 -1.4833 0
M  V30 13913 C 1325.29 1.66433 -1.65339 0
M  V30 13914 C 1326.3 1.65541 -0.535939 0
M  V30 13915 O 1327.48 1.84539 -0.806679 0
M  V30 13916 C 1324.54 3.02901 -1.68676 0
M  V30 13917 C 1323.61 3.14669 -2.92031 0
M  V30 13918 C 1322.84 4.44627 -2.95199 0
M  V30 13919 O 1323.06 5.31572 -2.06851 0
M  V30 13920 O 1322 4.60707 -3.87341 0
M  V30 13921 H 1325.82 1.5502 -2.61156 0
M  V30 13922 H 1323.41 0.705348 -1.31701 0
M  V30 13923 H 1325.29 3.84068 -1.73407 0
M  V30 13924 H 1323.96 3.14644 -0.760327 0
M  V30 13925 H 1322.87 2.32807 -2.92834 0
M  V30 13926 H 1324.2 3.07841 -3.8405 0
M  V30 13927 N 1325.86 1.36875 0.78122 0
M  V30 13928 C 1327.08 1.349 1.57533 0
M  V30 13929 C 1327.51 -0.0655249 1.87986 0
M  V30 13930 O 1326.86 -1.03986 1.48515 0
M  V30 13931 C 1326.91 2.18562 2.86815 0
M  V30 13932 O 1326.02 1.58374 3.80777 0
M  V30 13933 H 1325.36 0.461355 0.477543 0
M  V30 13934 H 1327.89 1.80271 0.96766 0
M  V30 13935 H 1327.9 2.31436 3.36008 0
M  V30 13936 H 1326.57 3.21385 2.63978 0
M  V30 13937 H 1325.15 1.54487 3.39394 0
M  V30 13938 N 1327.33 -1.00632 1.21289 0
M  V30 13939 C 1328.58 -1.74647 1.03084 0
M  V30 13940 C 1328.91 -1.89271 -0.43476 0
M  V30 13941 O 1328.19 -1.42607 -1.32263 0
M  V30 13942 C 1328.47 -3.15981 1.72709 0
M  V30 13943 C 1328.32 -3.09088 3.2678 0
M  V30 13944 C 1329.64 -4.14875 1.46857 0
M  V30 13945 H 1326.76 -0.633938 0.375889 0
M  V30 13946 H 1329.4 -1.17328 1.49446 0
M  V30 13947 H 1327.55 -3.64918 1.33294 0
M  V30 13948 H 1329.23 -2.67875 3.75554 0
M  V30 13949 H 1327.47 -2.46223 3.57151 0
M  V30 13950 H 1328.14 -4.09041 3.70661 0
M  V30 13951 H 1330.62 -3.74637 1.81069 0
M  V30 13952 H 1329.49 -5.1191 1.98088 0
M  V30 13953 H 1329.75 -4.40302 0.398296 0
M  V30 13954 N 1328.81 -1.02043 -1.20104 0
M  V30 13955 C 1329.72 -0.603724 -2.26699 0
M  V30 13956 C 1330.74 0.360558 -1.70223 0
M  V30 13957 O 1331.91 0.220552 -2.00189 0
M  V30 13958 C 1328.98 0.0475988 -3.46667 0
M  V30 13959 C 1328.04 -0.963111 -4.18357 0
M  V30 13960 C 1327.27 -0.342775 -5.32598 0
M  V30 13961 O 1327.5 0.856509 -5.63933 0
M  V30 13962 O 1326.43 -1.06141 -5.92467 0
M  V30 13963 H 1330.26 -1.49125 -2.64566 0
M  V30 13964 H 1327.84 -0.790134 -1.26796 0
M  V30 13965 H 1329.72 0.411177 -4.19389 0
M  V30 13966 H 1328.4 0.909266 -3.10667 0
M  V30 13967 H 1327.3 -1.37813 -3.47791 0
M  V30 13968 H 1328.64 -1.79487 -4.58307 0
M  V30 13969 N 1330.29 1.35952 -0.797165 0
M  V30 13970 C 1331.52 2.0381 -0.38421 0
M  V30 13971 C 1331.94 1.597 0.993854 0
M  V30 13972 O 1331.3 0.769148 1.64176 0
M  V30 13973 C 1331.35 3.57589 -0.465054 0
M  V30 13974 O 1330.45 4.09043 0.525095 0
M  V30 13975 H 1329.79 0.643957 -0.161912 0
M  V30 13976 H 1332.32 1.73746 -1.08043 0
M  V30 13977 H 1332.33 4.06651 -0.331448 0
M  V30 13978 H 1331.01 3.89045 -1.47027 0
M  V30 13979 H 1329.58 3.7123 0.352509 0
M  V30 13980 N 1331.77 0.549846 1.47697 0
M  V30 13981 C 1333.02 0.0209424 2.01689 0
M  V30 13982 C 1333.33 -1.33417 1.43036 0
M  V30 13983 O 1334.54 -1.95257 1.88646 0
M  V30 13984 C 1332.99 -0.0130171 3.59898 0
M  V30 13985 C 1332.6 1.3384 4.2754 0
M  V30 13986 C 1334.34 -0.489701 4.21666 0
M  V30 13987 C 1332.25 1.26395 5.77735 0
M  V30 13988 H 1331.18 0.00405885 0.753989 0
M  V30 13989 H 1333.83 0.696599 1.69764 0
M  V30 13990 H 1332.21 -0.754168 3.88752 0
M  V30 13991 H 1333.39 2.09668 4.10336 0
M  V30 13992 H 1331.7 1.75242 3.77729 0
M  V30 13993 H 1334.3 -0.563684 5.31721 0
M  V30 13994 H 1334.64 -1.50004 3.88336 0
M  V30 13995 H 1335.18 0.196366 3.97315 0
M  V30 13996 H 1331.92 2.25005 6.15673 0
M  V30 13997 H 1331.44 0.547353 5.97297 0
M  V30 13998 H 1333.11 0.962918 6.39794 0
M  V30 13999 N 1333.25 -1.54984 0.285932 0
M  V30 14000 C 1334.49 -2.00126 -0.328223 0
M  V30 14001 C 1334.83 -1.17409 -1.54689 0
M  V30 14002 O 1334.1 -0.246806 -1.92928 0
M  V30 14003 C 1334.38 -3.53236 -0.699733 0
M  V30 14004 C 1334.24 -4.46702 0.527029 0
M  V30 14005 C 1335.56 -4.12572 -1.53206 0
M  V30 14006 H 1332.67 -0.727521 -0.117825 0
M  V30 14007 H 1335.32 -1.85848 0.395032 0
M  V30 14008 H 1333.47 -3.65534 -1.31594 0
M  V30 14009 H 1335.14 -4.46332 1.16557 0
M  V30 14010 H 1333.38 -4.17917 1.1631 0
M  V30 14011 H 1334.05 -5.51549 0.223165 0
M  V30 14012 H 1336.53 -4.03618 -1.01154 0
M  V30 14013 H 1335.4 -5.19891 -1.7608 0
M  V30 14014 H 1335.67 -3.63487 -2.51654 0
M  V30 14015 N 1334.72 -0.0133892 -1.57594 0
M  V30 14016 C 1335.67 0.97367 -2.09257 0
M  V30 14017 C 1336.64 1.33298 -0.990998 0
M  V30 14018 O 1337.83 1.42903 -1.26425 0
M  V30 14019 C 1334.97 2.25603 -2.61147 0
M  V30 14020 C 1334.08 1.95456 -3.85254 0
M  V30 14021 C 1333.21 3.17871 -4.25596 0
M  V30 14022 C 1332.25 2.83471 -5.42504 0
M  V30 14023 N 1331.39 3.98464 -5.78075 0
M  V30 14024 H 1336.23 0.526189 -2.93318 0
M  V30 14025 H 1333.77 0.248148 -1.44992 0
M  V30 14026 H 1335.73 3.00587 -2.89315 0
M  V30 14027 H 1334.36 2.67995 -1.7994 0
M  V30 14028 H 1333.41 1.10781 -3.63912 0
M  V30 14029 H 1334.72 1.6611 -4.70328 0
M  V30 14030 H 1333.87 4.0119 -4.55117 0
M  V30 14031 H 1332.61 3.50365 -3.39257 0
M  V30 14032 H 1331.62 1.98562 -5.12692 0
M  V30 14033 H 1332.84 2.5221 -6.30529 0
M  V30 14034 H 1330.79 4.3083 -4.94694 0
M  V30 14035 H 1330.71 3.72688 -6.57753 0
M  V30 14036 H 1331.97 4.82532 -6.12195 0
M  V30 14037 N 1336.2 1.55448 0.259558 0
M  V30 14038 C 1337.62 1.47588 0.607442 0
M  V30 14039 C 1337.82 0.701053 1.88911 0
M  V30 14040 O 1336.87 0.225305 2.51493 0
M  V30 14041 C 1338.19 2.91905 0.72192 0
M  V30 14042 C 1339.74 3.02201 0.815087 0
M  V30 14043 C 1340.21 4.47799 0.961231 0
M  V30 14044 N 1341.7 4.51684 1.02642 0
M  V30 14045 C 1342.44 5.61574 1.15854 0
M  V30 14046 N 1341.93 6.81301 1.257 0
M  V30 14047 N 1343.73 5.49344 1.1907 0
M  V30 14048 H 1335.88 2.04271 -0.581981 0
M  V30 14049 H 1338.14 0.926865 -0.199059 0
M  V30 14050 H 1337.85 3.51382 -0.149611 0
M  V30 14051 H 1337.72 3.41681 1.59793 0
M  V30 14052 H 1340.11 2.42813 1.67708 0
M  V30 14053 H 1340.19 2.55656 -0.0858102 0
M  V30 14054 H 1339.83 5.07794 0.103848 0
M  V30 14055 H 1339.76 4.92013 1.87698 0
M  V30 14056 H 1342.25 3.65446 0.962184 0
M  V30 14057 H 1342.57 7.60801 1.35652 0
M  V30 14058 H 1340.91 6.84087 1.2268 0
M  V30 14059 H 1344.1 4.54745 1.11018 0
M  V30 14060 H 1344.27 6.35025 1.29022 0
M  V30 14061 N 1337.68 -0.524672 1.4861 0
M  V30 14062 C 1338.93 -1.28021 1.56898 0
M  V30 14063 C 1339.26 -1.92948 0.245203 0
M  V30 14064 O 1338.51 -1.8013 -0.764966 0
M  V30 14065 C 1338.81 -2.3871 2.65993 0
M  V30 14066 C 1338.48 -1.914 4.08261 0
M  V30 14067 C 1337.14 -1.78215 4.46982 0
M  V30 14068 C 1339.49 -1.55713 4.97396 0
M  V30 14069 C 1336.82 -1.27687 5.72637 0
M  V30 14070 C 1339.17 -1.06645 6.23546 0
M  V30 14071 C 1337.83 -0.920818 6.61118 0
M  V30 14072 H 1337.1 -0.468461 0.57413 0
M  V30 14073 H 1339.75 -0.584901 1.82349 0
M  V30 14074 H 1338.06 -3.13932 2.34422 0
M  V30 14075 H 1339.75 -2.96827 2.6962 0
M  V30 14076 H 1336.34 -2.02614 3.77684 0
M  V30 14077 H 1340.53 -1.64757 4.68155 0
M  V30 14078 H 1335.78 -1.15103 6.00468 0
M  V30 14079 H 1339.96 -0.781048 6.92006 0
M  V30 14080 H 1337.58 -0.527091 7.5837 0
M  V30 14081 N 1339.16 -1.37287 -0.77395 0
M  V30 14082 C 1340.4 -1.33771 -1.54547 0
M  V30 14083 C 1340.76 0.0778134 -1.91842 0
M  V30 14084 O 1341.96 0.237682 -2.67747 0
M  V30 14085 C 1340.23 -2.24859 -2.77801 0
M  V30 14086 S 1341.79 -2.39172 -3.67889 0
M  V30 14087 H 1338.61 -0.474918 -0.529126 0
M  V30 14088 H 1341.21 -1.73015 -0.910287 0
M  V30 14089 H 1339.92 -3.2663 -2.48478 0
M  V30 14090 H 1339.45 -1.86691 -3.4628 0
M  V30 14091 H 1341.46 -1.60068 -4.69673 0
M  V30 14092 N 1340.64 0.999871 -1.21821 0
M  V30 14093 C 1341.86 1.77405 -1.06467 0
M  V30 14094 C 1342.28 1.84828 0.385227 0
M  V30 14095 O 1341.64 1.31338 1.26714 0
M  V30 14096 C 1341.69 3.21062 -1.66137 0
M  V30 14097 O 1341.41 3.14054 -3.05454 0
M  V30 14098 C 1342.91 4.14958 -1.55963 0
M  V30 14099 H 1340.13 0.557368 -0.373607 0
M  V30 14100 H 1342.67 1.2575 -1.61267 0
M  V30 14101 H 1340.83 3.69808 -1.15416 0
M  V30 14102 H 1341.24 4.04346 -3.34073 0
M  V30 14103 H 1342.72 5.13536 -2.02448 0
M  V30 14104 H 1343.19 4.36171 -0.514949 0
M  V30 14105 H 1343.8 3.72105 -2.05956 0
M  V30 14106 N 1342.11 1.02678 1.19562 0
M  V30 14107 C 1343.36 0.72059 1.88817 0
M  V30 14108 C 1343.68 -0.752942 1.79877 0
M  V30 14109 O 1342.95 -1.54233 1.20785 0
M  V30 14110 H 1341.53 0.26355 0.698964 0
M  V30 14111 H 1344.2 1.30056 1.4516 0
M  V30 14112 H 1343.29 1.01303 2.95202 0
M  V30 14113 N 1343.59 -1.35528 0.804364 0
M  V30 14114 C 1344.84 -1.98439 0.382934 0
M  V30 14115 C 1345.16 -1.64132 -1.05289 0
M  V30 14116 O 1344.43 -0.922693 -1.7281 0
M  V30 14117 H 1343.01 -0.734028 0.138605 0
M  V30 14118 H 1345.67 -1.65478 1.02971 0
M  V30 14119 H 1344.77 -3.08279 0.486846 0
M  V30 14120 N 1345.07 -0.557671 -1.47404 0
M  V30 14121 C 1346 0.237612 -2.2696 0
M  V30 14122 C 1346.98 0.919871 -1.34079 0
M  V30 14123 O 1348.17 0.938767 -1.63461 0
M  V30 14124 C 1345.29 1.33863 -3.11124 0
M  V30 14125 C 1344.34 0.764877 -4.19585 0
M  V30 14126 S 1345.17 -0.388893 -5.34086 0
M  V30 14127 C 1346.33 0.713932 -6.21815 0
M  V30 14128 H 1346.56 -0.437477 -2.94064 0
M  V30 14129 H 1344.09 -0.344004 -1.50519 0
M  V30 14130 H 1346.05 1.96917 -3.60186 0
M  V30 14131 H 1344.71 1.98556 -2.43381 0
M  V30 14132 H 1343.91 1.5917 -4.78206 0
M  V30 14133 H 1343.51 0.210502 -3.73407 0
M  V30 14134 H 1345.8 1.60592 -6.58192 0
M  V30 14135 H 1346.74 0.165069 -7.07908 0
M  V30 14136 H 1347.15 1.00681 -5.55449 0
M  V30 14137 N 1346.55 1.54831 -0.294147 0
M  V30 14138 C 1347.77 2.04873 0.32276 0
M  V30 14139 C 1348.2 1.17034 1.47257 0
M  V30 14140 O 1347.56 0.172949 1.80473 0
M  V30 14141 C 1347.61 3.52431 0.76319 0
M  V30 14142 O 1346.71 3.67635 1.86865 0
M  V30 14143 H 1346.05 0.660926 0.0638162 0
M  V30 14144 H 1348.58 1.99944 -0.433995 0
M  V30 14145 H 1348.59 3.94155 1.05385 0
M  V30 14146 H 1347.27 4.15827 -0.0779464 0
M  V30 14147 H 1345.84 3.37816 1.57907 0
M  V30 14148 N 1348.03 0.0217466 1.57585 0
M  V30 14149 C 1348.96 -0.961069 2.12804 0
M  V30 14150 C 1349.94 -1.3442 1.04237 0
M  V30 14151 O 1351.12 -1.42412 1.32032 0
M  V30 14152 C 1348.25 -2.24586 2.64912 0
M  V30 14153 C 1347.21 -2.0037 3.78201 0
M  V30 14154 C 1346.53 -3.35051 4.16708 0
M  V30 14155 C 1347.83 -1.34879 5.04584 0
M  V30 14156 H 1349.53 -0.501222 2.95175 0
M  V30 14157 H 1347.07 -0.239649 1.41992 0
M  V30 14158 H 1349.03 -2.93715 3.02175 0
M  V30 14159 H 1347.75 -2.72723 1.79693 0
M  V30 14160 H 1346.41 -1.33662 3.41365 0
M  V30 14161 H 1346.06 -3.80932 3.28481 0
M  V30 14162 H 1345.76 -3.19656 4.93045 0
M  V30 14163 H 1347.28 -4.05459 4.56547 0
M  V30 14164 H 1348.7 -1.93997 5.3948 0
M  V30 14165 H 1347.09 -1.29906 5.85871 0
M  V30 14166 H 1348.16 -0.320774 4.83838 0
M  V30 14167 N 1349.51 -1.55583 -0.251311 0
M  V30 14168 C 1350.75 -1.76859 -0.978031 0
M  V30 14169 C 1351.07 -0.584924 -1.86021 0
M  V30 14170 O 1350.34 0.399456 -1.91784 0
M  V30 14171 H 1348.92 -0.652252 -0.364111 0
M  V30 14172 H 1351.59 -1.93016 -0.270319 0
M  V30 14173 H 1350.68 -2.67828 -1.60233 0
M  V30 14174 N 1350.98 0.516783 -1.48886 0
M  V30 14175 C 1351.95 1.60226 -1.63891 0
M  V30 14176 C 1352.95 1.52448 -0.511479 0
M  V30 14177 O 1354.14 1.55882 -0.777582 0
M  V30 14178 C 1351.27 2.99867 -1.62151 0
M  V30 14179 H 1352.46 1.48256 -2.60692 0
M  V30 14180 H 1350.01 0.739844 -1.37681 0
M  V30 14181 H 1350.75 3.1733 -0.668764 0
M  V30 14182 H 1350.53 3.0692 -2.44013 0
M  V30 14183 H 1352.02 3.7876 -1.7587 0
M  V30 14184 N 1352.46 1.37696 0.766659 0
M  V30 14185 C 1353.39 1.36576 1.89392 0
M  V30 14186 C 1354.37 0.233597 1.68488 0
M  V30 14187 O 1355.56 0.434719 1.89272 0
M  V30 14188 C 1352.69 1.17705 3.26746 0
M  V30 14189 C 1351.64 2.27987 3.62224 0
M  V30 14190 C 1350.97 1.94235 4.98174 0
M  V30 14191 C 1352.27 3.70195 3.68447 0
M  V30 14192 H 1353.96 2.30905 1.90587 0
M  V30 14193 H 1351.51 1.11148 0.915538 0
M  V30 14194 H 1353.46 1.15551 4.05248 0
M  V30 14195 H 1352.18 0.198334 3.25997 0
M  V30 14196 H 1350.84 2.29306 2.86032 0
M  V30 14197 H 1350.49 0.948796 4.93971 0
M  V30 14198 H 1350.19 2.68086 5.2288 0
M  V30 14199 H 1351.72 1.93676 5.7907 0
M  V30 14200 H 1353.13 3.70978 4.37091 0
M  V30 14201 H 1351.53 4.43142 4.04654 0
M  V30 14202 H 1352.6 4.03453 2.68986 0
M  V30 14203 N 1353.94 -0.993397 1.22349 0
M  V30 14204 C 1355.16 -1.77373 1.07488 0
M  V30 14205 C 1355.59 -1.84418 -0.37034 0
M  V30 14206 O 1354.95 -1.29629 -1.26752 0
M  V30 14207 C 1355 -3.18538 1.69014 0
M  V30 14208 O 1354.1 -4.01463 0.943474 0
M  V30 14209 H 1353.44 -0.546209 0.37756 0
M  V30 14210 H 1355.97 -1.24792 1.62136 0
M  V30 14211 H 1355.98 -3.6917 1.73717 0
M  V30 14212 H 1354.66 -3.12725 2.74182 0
M  V30 14213 H 1353.23 -3.59998 0.972415 0
M  V30 14214 N 1355.42 -1.03311 -1.19015 0
M  V30 14215 C 1356.83 -0.750946 -1.4083 0
M  V30 14216 C 1357.03 0.662704 -1.90291 0
M  V30 14217 O 1356.09 1.42806 -2.08237 0
M  V30 14218 C 1357.4 -1.79064 -2.41571 0
M  V30 14219 C 1358.95 -1.81068 -2.55311 0
M  V30 14220 C 1359.43 -2.84008 -3.59309 0
M  V30 14221 N 1360.92 -2.82852 -3.6681 0
M  V30 14222 C 1361.65 -3.59156 -4.46984 0
M  V30 14223 N 1361.15 -4.45188 -5.30829 0
M  V30 14224 N 1362.94 -3.47679 -4.41674 0
M  V30 14225 H 1355.09 -1.94548 -0.852329 0
M  V30 14226 H 1357.35 -0.841344 -0.436858 0
M  V30 14227 H 1357.06 -2.80425 -2.12261 0
M  V30 14228 H 1356.93 -1.61646 -3.40809 0
M  V30 14229 H 1359.32 -0.803825 -2.83941 0
M  V30 14230 H 1359.4 -2.02562 -1.56212 0
M  V30 14231 H 1359.05 -3.84867 -3.3142 0
M  V30 14232 H 1358.98 -2.59771 -4.58069 0
M  V30 14233 H 1361.47 -2.20457 -3.06932 0
M  V30 14234 H 1361.78 -5.00139 -5.89135 0
M  V30 14235 H 1360.13 -4.49259 -5.30275 0
M  V30 14236 H 1363.32 -2.79876 -3.75216 0
M  V30 14237 H 1363.49 -4.07396 -5.03917 0
M  V30 14238 N 1356.9 1.35099 -0.81154 0
M  V30 14239 C 1357.81 2.33499 -0.22705 0
M  V30 14240 C 1358.82 1.62095 0.632562 0
M  V30 14241 O 1360 1.93938 0.543147 0
M  V30 14242 C 1357.06 3.41279 0.610687 0
M  V30 14243 C 1356.12 4.2845 -0.269994 0
M  V30 14244 C 1355.36 5.31083 0.527854 0
M  V30 14245 O 1355.58 5.42499 1.76213 0
M  V30 14246 O 1354.51 6.01842 -0.083862 0
M  V30 14247 H 1358.34 2.85294 -1.04119 0
M  V30 14248 H 1355.92 1.37957 -0.573432 0
M  V30 14249 H 1357.81 4.07121 1.08768 0
M  V30 14250 H 1356.48 2.91746 1.40235 0
M  V30 14251 H 1355.39 3.65572 -0.794234 0
M  V30 14252 H 1356.72 4.81394 -1.02572 0
M  V30 14253 N 1358.37 0.56548 1.47106 0
M  V30 14254 C 1359.34 -0.167191 2.28589 0
M  V30 14255 C 1360.34 -0.835005 1.3742 0
M  V30 14256 O 1361.53 -0.689598 1.59969 0
M  V30 14257 C 1358.66 -1.24548 3.17333 0
M  V30 14258 H 1359.85 0.548677 2.94838 0
M  V30 14259 H 1357.4 0.322749 1.52931 0
M  V30 14260 H 1358.14 -1.99348 2.55794 0
M  V30 14261 H 1357.92 -0.771335 3.84438 0
M  V30 14262 H 1359.41 -1.75985 3.78707 0
M  V30 14263 N 1359.85 -1.54672 0.302354 0
M  V30 14264 C 1360.8 -2.20281 -0.588245 0
M  V30 14265 C 1361.79 -1.17624 -1.09788 0
M  V30 14266 O 1362.98 -1.43338 -1.03842 0
M  V30 14267 C 1360.11 -2.94812 -1.759 0
M  V30 14268 C 1359.19 -4.04786 -1.26526 0
M  V30 14269 N 1359.58 -5.03425 -0.489625 0
M  V30 14270 C 1357.88 -4.18352 -1.54588 0
M  V30 14271 C 1358.58 -5.81259 -0.226538 0
M  V30 14272 N 1357.56 -5.37581 -0.806723 0
M  V30 14273 H 1361.36 -2.93898 0.0118911 0
M  V30 14274 H 1358.88 -1.62046 0.107181 0
M  V30 14275 H 1360.87 -3.40283 -2.40859 0
M  V30 14276 H 1359.53 -2.22712 -2.36282 0
M  V30 14277 H 1360.54 -5.17726 -0.134401 0
M  V30 14278 H 1357.22 -3.57458 -2.15709 0
M  V30 14279 H 1358.61 -6.70729 0.396499 0
M  V30 14280 N 1361.33 -0.0301034 -1.57571 0
M  V30 14281 C 1362.24 0.967086 -2.1374 0
M  V30 14282 C 1363.26 1.35636 -1.0899 0
M  V30 14283 O 1364.43 1.43758 -1.41052 0
M  V30 14284 C 1361.5 2.23058 -2.65417 0
M  V30 14285 C 1360.56 1.90163 -3.84885 0
M  V30 14286 C 1359.79 3.10488 -4.34088 0
M  V30 14287 O 1360.01 4.23179 -3.8246 0
M  V30 14288 O 1358.95 2.92729 -5.25921 0
M  V30 14289 H 1362.77 0.519486 -2.99224 0
M  V30 14290 H 1360.36 0.190559 -1.4818 0
M  V30 14291 H 1362.24 2.97229 -2.98719 0
M  V30 14292 H 1360.92 2.66997 -1.83015 0
M  V30 14293 H 1359.82 1.13373 -3.56507 0
M  V30 14294 H 1361.16 1.51039 -4.68453 0
M  V30 14295 N 1362.81 1.55714 0.243056 0
M  V30 14296 C 1364.04 1.81786 0.98801 0
M  V30 14297 C 1364.45 0.606352 1.78798 0
M  V30 14298 O 1363.81 -0.425018 1.77482 0
M  V30 14299 C 1363.86 3.06121 1.92281 0
M  V30 14300 O 1363.58 4.22595 1.15521 0
M  V30 14301 C 1365.08 3.45021 2.78344 0
M  V30 14302 H 1362.3 0.604829 0.290557 0
M  V30 14303 H 1364.85 2.02779 0.26478 0
M  V30 14304 H 1363 2.87167 2.60027 0
M  V30 14305 H 1363.41 4.93088 1.78786 0
M  V30 14306 H 1364.89 4.35112 3.39678 0
M  V30 14307 H 1365.37 2.65782 3.49652 0
M  V30 14308 H 1365.97 3.66339 2.16045 0
M  V30 14309 N 1364.29 -0.50888 1.49158 0
M  V30 14310 C 1365.22 -1.62008 1.68154 0
M  V30 14311 C 1366.2 -1.61624 0.53025 0
M  V30 14312 O 1367.38 -1.78489 0.765205 0
M  V30 14313 C 1364.51 -3.00525 1.74075 0
M  V30 14314 C 1363.47 -3.15773 2.88915 0
M  V30 14315 C 1362.79 -4.55562 2.79942 0
M  V30 14316 C 1364.09 -2.96542 4.29953 0
M  V30 14317 H 1365.79 -1.46365 2.61185 0
M  V30 14318 H 1363.33 -0.702705 1.2569 0
M  V30 14319 H 1365.29 -3.78154 1.8595 0
M  V30 14320 H 1364.01 -3.17238 0.776373 0
M  V30 14321 H 1362.67 -2.40567 2.76628 0
M  V30 14322 H 1362.32 -4.6914 1.81429 0
M  V30 14323 H 1362.02 -4.66706 3.57015 0
M  V30 14324 H 1363.54 -5.35262 2.93814 0
M  V30 14325 H 1364.95 -3.63947 4.42963 0
M  V30 14326 H 1363.35 -3.19164 5.08187 0
M  V30 14327 H 1364.42 -1.92745 4.44946 0
M  V30 14328 N 1365.76 -1.381 -0.759346 0
M  V30 14329 C 1366.73 -1.34674 -1.8546 0
M  V30 14330 C 1367.73 -0.248351 -1.58871 0
M  V30 14331 O 1368.92 -0.504915 -1.66722 0
M  V30 14332 C 1366.05 -1.0952 -3.22828 0
M  V30 14333 H 1367.24 -2.3211 -1.89908 0
M  V30 14334 H 1364.8 -1.2331 -0.960435 0
M  V30 14335 H 1365.53 -0.126664 -3.24053 0
M  V30 14336 H 1365.32 -1.89037 -3.43522 0
M  V30 14337 H 1366.81 -1.09804 -4.02906 0
M  V30 14338 N 1367.24 0.986894 -1.22875 0
M  V30 14339 C 1368.49 1.72152 -1.05103 0
M  V30 14340 C 1368.8 1.91185 0.413248 0
M  V30 14341 O 1370.01 2.62031 0.710759 0
M  V30 14342 C 1368.47 3.09771 -1.8322 0
M  V30 14343 C 1368.07 2.98648 -3.33936 0
M  V30 14344 C 1369.82 3.87238 -1.73917 0
M  V30 14345 C 1367.73 4.31459 -4.04471 0
M  V30 14346 H 1366.66 0.645498 -0.389677 0
M  V30 14347 H 1369.31 1.10125 -1.46781 0
M  V30 14348 H 1367.69 3.72515 -1.34345 0
M  V30 14349 H 1368.86 2.45033 -3.9025 0
M  V30 14350 H 1367.18 2.34661 -3.43982 0
M  V30 14351 H 1369.77 4.85549 -2.23933 0
M  V30 14352 H 1370.12 4.1036 -0.700711 0
M  V30 14353 H 1370.65 3.31183 -2.20369 0
M  V30 14354 H 1367.39 4.13534 -5.08596 0
M  V30 14355 H 1366.91 4.84964 -3.52944 0
M  V30 14356 H 1368.59 5.00179 -4.10403 0
M  V30 14357 N 1368.72 1.0394 1.18466 0
M  V30 14358 C 1369.68 0.633804 2.20262 0
M  V30 14359 C 1370.68 -0.308136 1.5782 0
M  V30 14360 O 1371.87 -0.0937087 1.73948 0
M  V30 14361 C 1369.01 -0.0709693 3.40826 0
M  V30 14362 H 1370.2 1.53463 2.57661 0
M  V30 14363 H 1367.75 0.831806 1.32328 0
M  V30 14364 H 1368.49 -0.985659 3.08958 0
M  V30 14365 H 1368.27 0.606023 3.87388 0
M  V30 14366 H 1369.76 -0.341298 4.16203 0
M  V30 14367 N 1370.2 -1.34667 0.818693 0
M  V30 14368 C 1371.13 -2.27466 0.182904 0
M  V30 14369 C 1372.11 -1.48682 -0.65821 0
M  V30 14370 O 1373.29 -1.77912 -0.622868 0
M  V30 14371 C 1370.42 -3.30406 -0.744971 0
M  V30 14372 C 1369.47 -4.26496 0.018069 0
M  V30 14373 S 1370.3 -5.1788 1.36236 0
M  V30 14374 C 1371.46 -6.24357 0.43925 0
M  V30 14375 H 1371.69 -2.81042 0.969668 0
M  V30 14376 H 1369.22 -1.4165 0.614372 0
M  V30 14377 H 1371.18 -3.90205 -1.27478 0
M  V30 14378 H 1369.84 -2.75684 -1.50522 0
M  V30 14379 H 1369.03 -4.99294 -0.687141 0
M  V30 14380 H 1368.64 -3.70929 0.478291 0
M  V30 14381 H 1370.93 -6.76484 -0.370837 0
M  V30 14382 H 1371.87 -6.98916 1.13678 0
M  V30 14383 H 1372.28 -5.64492 0.0295605 0
M  V30 14384 N 1371.68 -0.573274 -1.46804 0
M  V30 14385 C 1372.62 0.178246 -2.31916 0
M  V30 14386 C 1373.62 0.89366 -1.4391 0
M  V30 14387 O 1374.82 0.81312 -1.60588 0
M  V30 14388 H 1371.2 0.0763519 -0.748114 0
M  V30 14389 H 1373.17 -0.558552 -2.93126 0
M  V30 14390 C 1371.92 1.18476 -3.26892 0
M  V30 14391 H 1371.24 0.643691 -3.94584 0
M  V30 14392 H 1372.68 1.68118 -3.89246 0
M  V30 14393 C 1371.14 2.24092 -2.51564 0
M  V30 14394 O 1371.67 3.3129 -2.27178 0
M  V30 14395 N 1369.88 1.98447 -2.1229 0
M  V30 14396 H 1369.42 1.11283 -2.32323 0
M  V30 14397 H 1369.38 2.69325 -1.62207 0
M  V30 14398 N 1373.15 1.5451 -0.310553 0
M  V30 14399 C 1374.57 1.59543 0.0425296 0
M  V30 14400 C 1374.77 1.32737 1.51602 0
M  V30 14401 O 1373.83 1.10543 2.27016 0
M  V30 14402 C 1375.14 2.98489 -0.364002 0
M  V30 14403 C 1376.69 3.11425 -0.313566 0
M  V30 14404 C 1377.16 4.52695 -0.695064 0
M  V30 14405 N 1378.65 4.58645 -0.647966 0
M  V30 14406 C 1379.39 5.66044 -0.915508 0
M  V30 14407 N 1378.88 6.81439 -1.24951 0
M  V30 14408 N 1380.68 5.55759 -0.841933 0
M  V30 14409 H 1372.83 1.70194 -1.27074 0
M  V30 14410 H 1375.09 0.795374 -0.515833 0
M  V30 14411 H 1374.8 3.23061 -1.39012 0
M  V30 14412 H 1374.67 3.76177 0.27756 0
M  V30 14413 H 1377.06 2.86596 0.703326 0
M  V30 14414 H 1377.14 2.35871 -0.989883 0
M  V30 14415 H 1376.78 4.78255 -1.70981 0
M  V30 14416 H 1376.71 5.266 0.00342684 0
M  V30 14417 H 1379.2 3.75765 -0.401137 0
M  V30 14418 H 1379.52 7.59277 -1.43938 0
M  V30 14419 H 1377.86 6.82968 -1.28764 0
M  V30 14420 H 1381.05 4.64486 -0.58058 0
M  V30 14421 H 1381.23 6.39374 -1.0538 0
M  V30 14422 N 1374.63 0.0384594 1.57553 0
M  V30 14423 C 1375.56 -0.938444 2.13812 0
M  V30 14424 C 1376.54 -1.33307 1.05657 0
M  V30 14425 O 1377.73 -1.41003 1.33535 0
M  V30 14426 C 1374.86 -2.21764 2.67279 0
M  V30 14427 C 1373.81 -1.96347 3.80305 0
M  V30 14428 C 1373.14 -3.30612 4.20238 0
M  V30 14429 C 1374.44 -1.2952 5.05986 0
M  V30 14430 H 1376.13 -0.469887 2.9569 0
M  V30 14431 H 1373.68 -0.224576 1.42238 0
M  V30 14432 H 1375.63 -2.90493 3.05273 0
M  V30 14433 H 1374.36 -2.70802 1.82576 0
M  V30 14434 H 1373.02 -1.30033 3.42764 0
M  V30 14435 H 1372.66 -3.77427 3.32502 0
M  V30 14436 H 1372.36 -3.14409 4.96408 0
M  V30 14437 H 1373.89 -4.00594 4.60822 0
M  V30 14438 H 1375.3 -1.88264 5.41507 0
M  V30 14439 H 1373.7 -1.23685 5.87216 0
M  V30 14440 H 1374.77 -0.269439 4.84151 0
M  V30 14441 N 1376.11 -1.55841 -0.234795 0
M  V30 14442 C 1377.36 -1.77886 -0.959217 0
M  V30 14443 C 1377.68 -0.604621 -1.8539 0
M  V30 14444 O 1376.95 0.379092 -1.92197 0
M  V30 14445 H 1375.53 -0.656077 -0.357172 0
M  V30 14446 H 1378.19 -1.93292 -0.249831 0
M  V30 14447 H 1377.29 -2.69512 -1.57383 0
M  V30 14448 N 1377.59 0.500963 -1.49426 0
M  V30 14449 C 1378.55 1.58478 -1.65582 0
M  V30 14450 C 1379.55 1.51897 -0.52762 0
M  V30 14451 O 1380.74 1.55049 -0.794071 0
M  V30 14452 C 1377.87 2.9813 -1.65322 0
M  V30 14453 H 1379.07 1.45483 -2.6225 0
M  V30 14454 H 1376.62 0.725199 -1.38458 0
M  V30 14455 H 1377.36 3.16602 -0.702384 0
M  V30 14456 H 1377.14 3.04315 -2.47255 0
M  V30 14457 H 1378.63 3.76874 -1.79878 0
M  V30 14458 N 1379.07 1.38501 0.752011 0
M  V30 14459 C 1380.01 1.35857 1.86578 0
M  V30 14460 C 1380.98 0.220873 1.64625 0
M  V30 14461 O 1382.17 0.413348 1.86269 0
M  V30 14462 C 1379.31 1.19102 3.23896 0
M  V30 14463 C 1378.42 2.42272 3.5767 0
M  V30 14464 C 1377.56 2.18236 4.843 0
M  V30 14465 C 1376.6 3.37169 5.10865 0
M  V30 14466 N 1375.73 3.12558 6.28691 0
M  V30 14467 H 1380.57 2.31073 1.88173 0
M  V30 14468 H 1378.11 1.14803 0.919712 0
M  V30 14469 H 1380.07 1.07404 4.03138 0
M  V30 14470 H 1378.7 0.275243 3.21624 0
M  V30 14471 H 1377.75 2.64638 2.7326 0
M  V30 14472 H 1379.06 3.3091 3.73229 0
M  V30 14473 H 1378.22 2.03682 5.71488 0
M  V30 14474 H 1376.96 1.26966 4.70883 0
M  V30 14475 H 1375.96 3.52241 4.22145 0
M  V30 14476 H 1377.19 4.29317 5.26178 0
M  V30 14477 H 1375.13 2.23937 6.16594 0
M  V30 14478 H 1375.05 3.94746 6.44757 0
M  V30 14479 H 1376.32 3.01663 7.18763 0
M  V30 14480 N 1380.55 -0.980364 1.23396 0
M  V30 14481 C 1381.77 -1.76223 1.09363 0
M  V30 14482 C 1382.2 -1.84801 -0.350759 0
M  V30 14483 O 1381.55 -1.30966 -1.2537 0
M  V30 14484 C 1381.6 -3.16728 1.72383 0
M  V30 14485 O 1380.71 -4.00439 0.986002 0
M  V30 14486 H 1380.05 -0.542174 0.383332 0
M  V30 14487 H 1382.58 -1.23066 1.6345 0
M  V30 14488 H 1382.59 -3.67307 1.77623 0
M  V30 14489 H 1381.26 -3.098 2.77483 0
M  V30 14490 H 1379.84 -3.58946 1.01054 0
M  V30 14491 N 1382.02 -1.04567 -1.17913 0
M  V30 14492 C 1382.97 -0.634939 -2.23766 0
M  V30 14493 C 1383.97 0.340723 -1.65938 0
M  V30 14494 O 1385.17 0.207467 -1.788 0
M  V30 14495 H 1381.55 -0.187129 -0.728345 0
M  V30 14496 H 1383.52 -1.53798 -2.55712 0
M  V30 14497 C 1382.27 -0.0190662 -3.47695 0
M  V30 14498 H 1381.59 -0.760881 -3.92493 0
M  V30 14499 H 1383.03 0.231035 -4.2337 0
M  V30 14500 C 1381.49 1.23246 -3.13548 0
M  V30 14501 O 1382.02 2.32262 -3.27746 0
M  V30 14502 N 1380.22 1.12768 -2.67828 0
M  V30 14503 H 1379.77 0.240547 -2.56474 0
M  V30 14504 H 1379.73 1.96594 -2.45353 0
M  V30 14505 N 1383.5 1.34231 -0.825823 0
M  V30 14506 C 1384.73 2.02949 -0.427354 0
M  V30 14507 C 1385.15 1.61772 0.959755 0
M  V30 14508 O 1384.51 0.803799 1.62508 0
M  V30 14509 C 1384.56 3.56522 -0.540799 0
M  V30 14510 O 1383.66 4.10065 0.438213 0
M  V30 14511 H 1383 0.640378 -0.175535 0
M  V30 14512 H 1385.53 1.71416 -1.11704 0
M  V30 14513 H 1385.54 4.05857 -0.41763 0
M  V30 14514 H 1384.22 3.85839 -1.55246 0
M  V30 14515 H 1382.79 3.71894 0.273687 0
M  V30 14516 N 1384.98 0.581051 1.46498 0
M  V30 14517 C 1386.23 0.0658652 2.01993 0
M  V30 14518 C 1386.55 -1.29807 1.45516 0
M  V30 14519 O 1385.82 -1.85177 0.639233 0
M  V30 14520 H 1384.4 0.0213584 0.746695 0
M  V30 14521 H 1387.06 0.756456 1.79621 0
M  V30 14522 H 1386.16 -0.00438128 3.121 0
M  V30 14523 N 1386.46 -1.54343 0.318742 0
M  V30 14524 C 1387.37 -2.27856 -0.558442 0
M  V30 14525 C 1388.38 -1.32029 -1.13333 0
M  V30 14526 O 1389.56 -1.65037 -1.15433 0
M  V30 14527 C 1386.62 -3.01842 -1.70565 0
M  V30 14528 C 1385.69 -4.13245 -1.16305 0
M  V30 14529 C 1384.92 -4.83693 -2.25559 0
M  V30 14530 O 1385.14 -4.53621 -3.4581 0
M  V30 14531 O 1384.08 -5.70708 -1.91249 0
M  V30 14532 H 1387.9 -3.03676 0.0384247 0
M  V30 14533 H 1385.49 -1.4916 0.0845936 0
M  V30 14534 H 1387.37 -3.48189 -2.37365 0
M  V30 14535 H 1386.04 -2.28902 -2.28879 0
M  V30 14536 H 1384.95 -3.71258 -0.460274 0
M  V30 14537 H 1386.28 -4.88214 -0.625111 0
M  V30 14538 N 1387.94 -0.0468143 -1.5753 0
M  V30 14539 C 1389.18 0.626699 -1.92138 0
M  V30 14540 C 1389.5 1.7164 -0.925463 0
M  V30 14541 O 1388.77 1.95876 0.0303531 0
M  V30 14542 H 1387.35 0.234479 -0.709245 0
M  V30 14543 H 1390.02 -0.0987892 -1.94649 0
M  V30 14544 H 1389.11 1.06811 -2.93254 0
M  V30 14545 N 1389.41 1.55964 0.226527 0
M  V30 14546 C 1390.66 1.78392 0.94977 0
M  V30 14547 C 1390.98 0.614444 1.85066 0
M  V30 14548 O 1390.25 -0.368894 1.92395 0
M  V30 14549 H 1388.83 0.657962 0.353688 0
M  V30 14550 H 1391.5 1.93422 0.239577 0
M  V30 14551 H 1390.59 2.70343 1.55952 0
M  V30 14552 N 1390.89 -0.493031 1.4969 0
M  V30 14553 C 1391.8 -1.61991 1.69694 0
M  V30 14554 C 1392.82 -1.64061 0.579641 0
M  V30 14555 O 1393.99 -1.82335 0.855323 0
M  V30 14556 C 1391.06 -2.98323 1.76648 0
M  V30 14557 C 1390.12 -3.06816 3.00271 0
M  V30 14558 C 1389.35 -4.36644 3.06883 0
M  V30 14559 O 1389.58 -5.25901 2.20872 0
M  V30 14560 O 1388.51 -4.50275 3.99419 0
M  V30 14561 H 1392.34 -1.48042 2.65174 0
M  V30 14562 H 1389.92 -0.670182 1.33525 0
M  V30 14563 H 1391.8 -3.79335 1.83529 0
M  V30 14564 H 1390.48 -3.12517 0.843482 0
M  V30 14565 H 1389.39 -2.24962 2.98903 0
M  V30 14566 H 1390.72 -2.97551 3.92077 0
M  V30 14567 N 1392.37 -1.38898 -0.744656 0
M  V30 14568 C 1393.65 -1.2611 -1.49518 0
M  V30 14569 C 1394.03 0.133592 -2.10677 0
M  V30 14570 O 1393.38 1.14394 -1.97804 0
M  V30 14571 C 1393.59 -2.37809 -2.55437 0
M  V30 14572 C 1394.93 -2.76664 -3.22091 0
M  V30 14573 O 1395.96 -2.37187 -2.65746 0
M  V30 14574 O 1394.82 -3.44771 -4.24023 0
M  V30 14575 H 1391.91 -0.493664 -0.663494 0
M  V30 14576 H 1394.46 -1.50748 -0.779304 0
M  V30 14577 H 1393.23 -3.31089 -2.08556 0
M  V30 14578 H 1392.85 -2.14783 -3.34595 0
M  V30 14579 N 1393.85 0.973806 -1.23914 0
M  V30 14580 C 1395.09 1.71852 -1.07678 0
M  V30 14581 C 1395.43 1.90357 0.384425 0
M  V30 14582 O 1394.7 1.46063 1.28436 0
M  V30 14583 C 1394.99 3.1129 -1.81026 0
M  V30 14584 C 1394.84 3.00315 -3.3486 0
M  V30 14585 C 1396.16 4.10835 -1.57805 0
M  V30 14586 H 1393.28 0.623749 -0.392564 0
M  V30 14587 H 1395.92 1.13325 -1.52504 0
M  V30 14588 H 1394.07 3.61255 -1.42922 0
M  V30 14589 H 1395.74 2.57823 -3.82524 0
M  V30 14590 H 1393.98 2.36667 -3.63553 0
M  V30 14591 H 1394.65 3.9907 -3.81376 0
M  V30 14592 H 1397.13 3.69705 -1.90939 0
M  V30 14593 H 1396.01 5.06478 -2.11591 0
M  V30 14594 H 1396.27 4.39091 -0.514894 0
M  V30 14595 N 1395.33 1.05191 1.17357 0
M  V30 14596 C 1396.57 0.763113 1.87895 0
M  V30 14597 C 1396.91 -0.708071 1.80831 0
M  V30 14598 O 1396.18 -1.51777 1.21631 0
M  V30 14599 C 1396.46 1.2442 3.37923 0
M  V30 14600 C 1396.32 2.77832 3.53737 0
M  V30 14601 C 1397.64 0.843209 4.31947 0
M  V30 14602 H 1394.75 0.27869 0.682276 0
M  V30 14603 H 1397.4 1.3059 1.38008 0
M  V30 14604 H 1395.55 0.782438 3.80539 0
M  V30 14605 H 1397.22 3.32131 3.20135 0
M  V30 14606 H 1395.46 3.17108 2.96015 0
M  V30 14607 H 1396.13 3.06555 4.59052 0
M  V30 14608 H 1398.61 1.24073 3.97171 0
M  V30 14609 H 1397.48 1.20743 5.35455 0
M  V30 14610 H 1397.75 -0.252802 4.41377 0
M  V30 14611 N 1396.8 -1.33791 0.83293 0
M  V30 14612 C 1398.22 -1.50893 0.519955 0
M  V30 14613 C 1398.42 -1.7749 -0.953919 0
M  V30 14614 O 1397.48 -1.83168 -1.73798 0
M  V30 14615 C 1398.79 -2.66741 1.38815 0
M  V30 14616 C 1400.34 -2.80625 1.38631 0
M  V30 14617 C 1400.81 -3.99528 2.23922 0
M  V30 14618 N 1402.3 -4.06753 2.21599 0
M  V30 14619 C 1403.04 -4.97937 2.84335 0
M  V30 14620 N 1402.53 -5.94276 3.561 0
M  V30 14621 N 1404.33 -4.90887 2.73837 0
M  V30 14622 H 1396.48 -1.14788 1.7871 0
M  V30 14623 H 1398.74 -0.563822 0.762108 0
M  V30 14624 H 1398.45 -2.53748 2.43525 0
M  V30 14625 H 1398.32 -3.62001 1.05996 0
M  V30 14626 H 1400.71 -2.93053 0.346951 0
M  V30 14627 H 1400.79 -1.86144 1.75454 0
M  V30 14628 H 1400.43 -3.8786 3.27914 0
M  V30 14629 H 1400.36 -4.93242 1.84444 0
M  V30 14630 H 1402.85 -3.37802 1.69406 0
M  V30 14631 H 1403.17 -6.60504 4.01191 0
M  V30 14632 H 1401.51 -5.9437 3.60207 0
M  V30 14633 H 1404.7 -4.14586 2.17338 0
M  V30 14634 H 1404.88 -5.61752 3.23014 0
M  V30 14635 N 1398.28 -0.588812 -1.46187 0
M  V30 14636 C 1399.51 -0.0824104 -2.06436 0
M  V30 14637 C 1399.92 1.23054 -1.43716 0
M  V30 14638 O 1399.26 1.7562 -0.538825 0
M  V30 14639 C 1399.33 0.151307 -3.59181 0
M  V30 14640 C 1398.99 -1.07697 -4.44129 0
M  V30 14641 C 1399.99 -1.99053 -4.80285 0
M  V30 14642 C 1397.67 -1.30053 -4.85172 0
M  V30 14643 C 1399.67 -3.11108 -5.56319 0
M  V30 14644 C 1397.35 -2.42412 -5.60963 0
M  V30 14645 C 1398.35 -3.32769 -5.96451 0
M  V30 14646 O 1398.04 -4.43175 -6.70709 0
M  V30 14647 H 1397.77 -0.0573231 -0.673565 0
M  V30 14648 H 1400.32 -0.811012 -1.88711 0
M  V30 14649 H 1398.55 0.934591 -3.75236 0
M  V30 14650 H 1400.24 0.606973 -4.01336 0
M  V30 14651 H 1401.01 -1.83 -4.4915 0
M  V30 14652 H 1396.89 -0.606295 -4.56996 0
M  V30 14653 H 1400.43 -3.81659 -5.83937 0
M  V30 14654 H 1396.33 -2.58426 -5.91512 0
M  V30 14655 H 1397.1 -4.4162 -6.8914 0
M  V30 14656 N 1399.76 1.54172 -0.326923 0
M  V30 14657 C 1400.69 2.27402 0.530154 0
M  V30 14658 C 1401.67 1.28325 1.11655 0
M  V30 14659 O 1402.86 1.57142 1.14105 0
M  V30 14660 C 1399.99 3.03435 1.68951 0
M  V30 14661 C 1398.94 4.09877 1.23226 0
M  V30 14662 C 1398.27 4.7377 2.47882 0
M  V30 14663 C 1399.57 5.21161 0.344698 0
M  V30 14664 H 1401.26 2.99291 -0.0806959 0
M  V30 14665 H 1398.81 1.43944 -0.0402511 0
M  V30 14666 H 1400.76 3.53396 2.29541 0
M  V30 14667 H 1399.48 2.29169 2.327 0
M  V30 14668 H 1398.14 3.60805 0.649267 0
M  V30 14669 H 1397.79 3.96116 3.10002 0
M  V30 14670 H 1397.49 5.45674 2.17977 0
M  V30 14671 H 1399.01 5.26507 3.09229 0
M  V30 14672 H 1400.43 5.66859 0.856979 0
M  V30 14673 H 1398.83 5.99941 0.138276 0
M  V30 14674 H 1399.9 4.80874 -0.623575 0
M  V30 14675 N 1401.24 0.0551678 1.57503 0
M  V30 14676 C 1402.47 -0.6272 1.97164 0
M  V30 14677 C 1402.88 -1.64143 0.932876 0
M  V30 14678 O 1402.24 -1.82314 -0.0824465 0
M  V30 14679 C 1402.29 -1.31057 3.36907 0
M  V30 14680 O 1402.01 -0.336951 4.36802 0
M  V30 14681 C 1403.51 -2.08232 3.91349 0
M  V30 14682 H 1400.73 -0.171196 0.648793 0
M  V30 14683 H 1403.28 0.122651 2.04132 0
M  V30 14684 H 1401.43 -2.01162 3.31078 0
M  V30 14685 H 1401.84 -0.825204 5.17968 0
M  V30 14686 H 1403.32 -2.51463 4.91397 0
M  V30 14687 H 1403.8 -2.93212 3.26991 0
M  V30 14688 H 1404.4 -1.43029 4.00528 0
M  V30 14689 N 1402.72 -1.56081 -0.218252 0
M  V30 14690 C 1403.65 -1.95706 -1.27364 0
M  V30 14691 C 1404.63 -0.825731 -1.48713 0
M  V30 14692 O 1405.81 -1.08829 -1.60841 0
M  V30 14693 C 1402.94 -2.2766 -2.62275 0
M  V30 14694 C 1401.9 -3.43314 -2.55576 0
M  V30 14695 C 1401.22 -3.60883 -3.94547 0
M  V30 14696 C 1402.52 -4.7819 -2.10075 0
M  V30 14697 H 1404.22 -2.84113 -0.944459 0
M  V30 14698 H 1401.76 -1.36693 -0.452882 0
M  V30 14699 H 1403.72 -2.53973 -3.36268 0
M  V30 14700 H 1402.44 -1.3611 -2.96887 0
M  V30 14701 H 1401.1 -3.17056 -1.8404 0
M  V30 14702 H 1400.75 -2.66703 -4.26472 0
M  V30 14703 H 1400.45 -4.38674 -3.90946 0
M  V30 14704 H 1401.97 -3.89547 -4.70197 0
M  V30 14705 H 1403.38 -5.03686 -2.73813 0
M  V30 14706 H 1401.78 -5.59287 -2.17527 0
M  V30 14707 H 1402.85 -4.73325 -1.05314 0
M  V30 14708 N 1404.2 0.485086 -1.49949 0
M  V30 14709 C 1405.47 1.24639 -1.50747 0
M  V30 14710 C 1405.85 2.09683 -0.244162 0
M  V30 14711 O 1405.2 2.1503 0.772949 0
M  V30 14712 C 1405.41 2.08946 -2.7954 0
M  V30 14713 C 1406.76 2.67604 -3.29656 0
M  V30 14714 O 1407.78 2.192 -2.80766 0
M  V30 14715 O 1406.64 3.55761 -4.14845 0
M  V30 14716 H 1403.74 0.564849 -0.604049 0
M  V30 14717 H 1406.28 0.498052 -1.62227 0
M  V30 14718 H 1405.05 1.46185 -3.62968 0
M  V30 14719 H 1404.68 2.90941 -2.70997 0
M  V30 14720 N 1405.67 1.39291 0.737279 0
M  V30 14721 C 1406.95 1.26901 1.48847 0
M  V30 14722 C 1407.33 -0.122417 2.10745 0
M  V30 14723 O 1406.68 -1.13343 1.98408 0
M  V30 14724 C 1406.89 2.3916 2.54172 0
M  V30 14725 C 1408.24 2.78368 3.20619 0
M  V30 14726 O 1409.26 2.38593 2.64484 0
M  V30 14727 O 1408.12 3.47014 4.22189 0
M  V30 14728 H 1405.21 0.497176 0.660867 0
M  V30 14729 H 1407.76 1.51159 0.771299 0
M  V30 14730 H 1406.53 3.3219 2.06797 0
M  V30 14731 H 1406.15 2.16555 3.33451 0
M  V30 14732 N 1407.15 -0.967221 1.24429 0
M  V30 14733 C 1408.4 -1.71279 1.08588 0
M  V30 14734 C 1408.73 -1.90558 -0.374325 0
M  V30 14735 O 1408.01 -1.46742 -1.27659 0
M  V30 14736 C 1408.29 -3.10326 1.82674 0
M  V30 14737 C 1408.14 -2.98535 3.36447 0
M  V30 14738 C 1409.46 -4.09993 1.59981 0
M  V30 14739 H 1406.58 -0.621658 0.395867 0
M  V30 14740 H 1409.22 -1.12514 1.53103 0
M  V30 14741 H 1407.37 -3.60492 1.44836 0
M  V30 14742 H 1409.04 -2.55791 3.83886 0
M  V30 14743 H 1407.29 -2.34736 3.64803 0
M  V30 14744 H 1407.96 -3.97041 3.83487 0
M  V30 14745 H 1410.43 -3.68687 1.92897 0
M  V30 14746 H 1409.31 -5.05349 2.14274 0
M  V30 14747 H 1409.57 -4.38812 0.538173 0
M  V30 14748 N 1408.63 -1.05812 -1.16797 0
M  V30 14749 C 1409.91 -0.685551 -1.83193 0
M  V30 14750 C 1410.29 0.833539 -1.93947 0
M  V30 14751 O 1409.63 1.74193 -1.47882 0
M  V30 14752 C 1409.84 -1.38183 -3.20479 0
M  V30 14753 C 1411.19 -1.52389 -3.96311 0
M  V30 14754 O 1412.22 -1.34134 -3.2998 0
M  V30 14755 O 1411.08 -1.82297 -5.15199 0
M  V30 14756 H 1408.17 -0.242095 -0.790771 0
M  V30 14757 H 1410.72 -1.15809 -1.24041 0
M  V30 14758 H 1409.49 -2.41791 -3.07657 0
M  V30 14759 H 1409.11 -0.899043 -3.87302 0
M  V30 14760 N 1410.11 1.33347 -0.840014 0
M  V30 14761 C 1411.33 2.02485 -0.448856 0
M  V30 14762 C 1411.76 1.62781 0.942543 0
M  V30 14763 O 1411.12 0.82099 1.61646 0
M  V30 14764 C 1411.16 3.55928 -0.578582 0
M  V30 14765 O 1410.27 4.10507 0.394695 0
M  V30 14766 H 1409.61 0.63848 -0.182317 0
M  V30 14767 H 1412.14 1.70221 -1.13516 0
M  V30 14768 H 1412.15 4.05391 -0.460653 0
M  V30 14769 H 1410.82 3.8417 -1.5933 0
M  V30 14770 H 1409.4 3.72164 0.234227 0
M  V30 14771 N 1411.59 0.596556 1.45873 0
M  V30 14772 C 1412.5 -0.130832 2.34235 0
M  V30 14773 C 1413.51 -0.871805 1.50584 0
M  V30 14774 O 1414.69 -0.831877 1.83417 0
M  V30 14775 C 1411.75 -1.12279 3.28016 0
M  V30 14776 C 1410.81 -0.384982 4.2757 0
M  V30 14777 C 1410.05 -1.32969 5.1687 0
M  V30 14778 O 1410.27 -2.56696 5.09375 0
M  V30 14779 O 1409.2 -0.832741 5.96112 0
M  V30 14780 H 1413.03 0.59503 2.97814 0
M  V30 14781 H 1410.61 0.356873 1.45075 0
M  V30 14782 H 1412.5 -1.6944 3.85834 0
M  V30 14783 H 1411.17 -1.82988 2.67015 0
M  V30 14784 H 1410.08 0.228816 3.734 0
M  V30 14785 H 1411.41 0.281398 4.91395 0
M  V30 14786 N 1413.06 -1.53996 0.335095 0
M  V30 14787 C 1414.31 -2.00375 -0.263475 0
M  V30 14788 C 1414.63 -1.22471 -1.51742 0
M  V30 14789 O 1413.9 -0.329604 -1.93107 0
M  V30 14790 H 1412.48 -0.740229 -0.100347 0
M  V30 14791 H 1415.14 -1.89531 0.454302 0
M  V30 14792 H 1414.24 -3.07874 -0.511834 0
M  V30 14793 N 1414.54 -0.0635198 -1.57472 0
M  V30 14794 C 1415.49 0.924358 -2.13444 0
M  V30 14795 C 1416.48 1.31389 -1.06927 0
M  V30 14796 O 1417.69 1.2921 -1.25319 0
M  V30 14797 H 1414.06 0.316003 -0.682383 0
M  V30 14798 H 1416.04 0.427281 -2.95325 0
M  V30 14799 C 1414.78 2.18546 -2.70431 0
M  V30 14800 H 1414.11 1.89455 -3.52061 0
M  V30 14801 H 1415.55 2.85799 -3.13201 0
M  V30 14802 C 1414.01 2.93845 -1.64794 0
M  V30 14803 O 1414.54 3.87242 -1.06802 0
M  V30 14804 N 1412.74 2.568 -1.36023 0
M  V30 14805 H 1412.29 1.80924 -1.83369 0
M  V30 14806 H 1412.25 3.07486 -0.655741 0
M  V30 14807 N 1416.02 1.56195 0.209972 0
M  V30 14808 C 1417.24 1.84189 0.953364 0
M  V30 14809 C 1417.67 0.645288 1.76685 0
M  V30 14810 O 1417.03 -0.405962 1.76696 0
M  V30 14811 C 1417.08 3.10281 1.83733 0
M  V30 14812 O 1416.18 2.89788 2.93422 0
M  V30 14813 H 1415.52 0.606931 0.269314 0
M  V30 14814 H 1418.05 2.03416 0.219783 0
M  V30 14815 H 1418.06 3.40688 2.2449 0
M  V30 14816 H 1416.74 3.97 1.23951 0
M  V30 14817 H 1415.31 2.70643 2.56528 0
M  V30 14818 N 1417.5 -0.477127 1.50204 0
M  V30 14819 C 1418.91 -1.05815 1.53819 0
M  V30 14820 C 1419.26 -1.93264 0.338169 0
M  V30 14821 O 1418.38 -2.09305 -0.549576 0
M  V30 14822 C 1418.98 -1.92577 2.78746 0
M  V30 14823 C 1417.54 -2.45799 2.85061 0
M  V30 14824 C 1416.69 -1.23994 2.48034 0
M  V30 14825 H 1419.64 -0.259998 1.56556 0
M  V30 14826 H 1419.66 -2.7757 2.6026 0
M  V30 14827 H 1419.17 -1.28904 3.66068 0
M  V30 14828 H 1417.27 -3.13042 2.02077 0
M  V30 14829 H 1417.38 -2.81318 3.8781 0
M  V30 14830 H 1415.75 -1.5728 2.00338 0
M  V30 14831 H 1416.53 -0.619917 3.37657 0
M  V30 14832 N 1418.98 -1.3968 -0.729882 0
M  V30 14833 C 1420.2 -1.40467 -1.5191 0
M  V30 14834 C 1420.62 -0.000529943 -1.888 0
M  V30 14835 O 1419.98 0.972072 -1.54457 0
M  V30 14836 C 1420.03 -2.2823 -2.80345 0
M  V30 14837 O 1419.75 -3.63176 -2.4502 0
M  V30 14838 C 1421.25 -2.37455 -3.74339 0
M  V30 14839 H 1418.47 -0.479604 -0.469277 0
M  V30 14840 H 1421.01 -1.83558 -0.901484 0
M  V30 14841 H 1419.17 -1.88538 -3.38426 0
M  V30 14842 H 1419.58 -4.0964 -3.2756 0
M  V30 14843 H 1421.06 -3.031 -4.6134 0
M  V30 14844 H 1421.53 -1.39525 -4.16449 0
M  V30 14845 H 1422.14 -2.77638 -3.22176 0
M  V30 14846 N 1420.45 0.960609 -1.2494 0
M  V30 14847 C 1421.38 2.074 -1.07274 0
M  V30 14848 C 1422.37 1.70092 0.0164365 0
M  V30 14849 O 1423.55 1.93604 -0.151975 0
M  V30 14850 C 1420.68 3.40491 -0.684317 0
M  V30 14851 C 1419.63 3.91784 -1.72306 0
M  V30 14852 C 1418.96 5.21301 -1.18949 0
M  V30 14853 C 1420.26 4.18829 -3.12056 0
M  V30 14854 H 1421.95 2.22438 -2.00404 0
M  V30 14855 H 1419.5 1.06888 -0.964937 0
M  V30 14856 H 1421.45 4.17826 -0.547686 0
M  V30 14857 H 1420.18 3.25374 0.282687 0
M  V30 14858 H 1418.84 3.16613 -1.84802 0
M  V30 14859 H 1418.48 5.02549 -0.212892 0
M  V30 14860 H 1418.18 5.56588 -1.8837 0
M  V30 14861 H 1419.71 6.01238 -1.06513 0
M  V30 14862 H 1421.12 4.86844 -3.02748 0
M  V30 14863 H 1419.52 4.6536 -3.78894 0
M  V30 14864 H 1420.59 3.25333 -3.59564 0
M  V30 14865 N 1421.93 1.0643 1.16234 0
M  V30 14866 C 1423.34 0.806012 1.68405 0
M  V30 14867 C 1423.69 -0.670197 1.84398 0
M  V30 14868 O 1422.82 -1.51975 1.54054 0
M  V30 14869 C 1423.41 1.45654 3.05893 0
M  V30 14870 C 1421.97 1.24599 3.55179 0
M  V30 14871 C 1421.12 1.53216 2.31128 0
M  V30 14872 H 1424.07 1.22759 1.00578 0
M  V30 14873 H 1424.09 0.872616 3.70359 0
M  V30 14874 H 1423.6 2.53092 2.94221 0
M  V30 14875 H 1421.71 0.191407 3.72108 0
M  V30 14876 H 1421.82 1.95967 4.37188 0
M  V30 14877 H 1420.18 0.952755 2.36209 0
M  V30 14878 H 1420.97 2.61816 2.22052 0
M  V30 14879 N 1423.41 -1.329 0.847073 0
M  V30 14880 C 1424.36 -2.26534 0.258111 0
M  V30 14881 C 1425.34 -1.49627 -0.591653 0
M  V30 14882 O 1426.54 -1.71385 -0.442277 0
M  V30 14883 C 1423.67 -3.38719 -0.558969 0
M  V30 14884 C 1422.75 -4.23018 0.30276 0
M  V30 14885 N 1423.14 -4.86457 1.38541 0
M  V30 14886 C 1421.44 -4.45907 0.0911992 0
M  V30 14887 C 1422.14 -5.49277 1.91492 0
M  V30 14888 N 1421.12 -5.29843 1.21519 0
M  V30 14889 H 1424.92 -2.73103 1.0859 0
M  V30 14890 H 1422.43 -1.46901 0.692386 0
M  V30 14891 H 1424.43 -4.04797 -0.997259 0
M  V30 14892 H 1423.09 -2.93697 -1.38464 0
M  V30 14893 H 1424.1 -4.86776 1.76832 0
M  V30 14894 H 1420.78 -4.11584 -0.70037 0
M  V30 14895 H 1422.17 -6.09764 2.82201 0
M  V30 14896 N 1424.89 -0.604284 -1.45555 0
M  V30 14897 C 1425.82 0.103859 -2.33269 0
M  V30 14898 C 1426.8 0.862104 -1.46635 0
M  V30 14899 O 1427.98 0.833308 -1.75413 0
M  V30 14900 C 1425.11 1.104 -3.29286 0
M  V30 14901 C 1424.07 0.459189 -4.2553 0
M  V30 14902 C 1423.39 1.56734 -5.11213 0
M  V30 14903 C 1424.69 -0.617509 -5.18637 0
M  V30 14904 H 1426.39 -0.628538 -2.92728 0
M  V30 14905 H 1423.93 -0.303711 -1.40761 0
M  V30 14906 H 1425.89 1.60794 -3.89517 0
M  V30 14907 H 1424.61 1.86695 -2.67979 0
M  V30 14908 H 1423.27 -0.0238508 -3.66592 0
M  V30 14909 H 1422.92 2.32049 -4.46276 0
M  V30 14910 H 1422.62 1.14142 -5.76407 0
M  V30 14911 H 1424.14 2.07361 -5.74312 0
M  V30 14912 H 1425.56 -0.197784 -5.72959 0
M  V30 14913 H 1423.95 -0.96499 -5.9229 0
M  V30 14914 H 1425.02 -1.49541 -4.61265 0
M  V30 14915 N 1426.37 1.53816 -0.343257 0
M  V30 14916 C 1427.32 2.21763 0.529635 0
M  V30 14917 C 1428.3 1.20494 1.06631 0
M  V30 14918 O 1429.49 1.46041 1.00006 0
M  V30 14919 C 1426.62 2.99372 1.68022 0
M  V30 14920 C 1425.71 4.07999 1.1575 0
M  V30 14921 N 1426.1 5.04546 0.355979 0
M  V30 14922 C 1424.4 4.22304 1.43442 0
M  V30 14923 C 1425.1 5.81655 0.0723481 0
M  V30 14924 N 1424.07 5.39531 0.66391 0
M  V30 14925 H 1427.88 2.93763 -0.0898087 0
M  V30 14926 H 1425.39 1.61705 -0.150107 0
M  V30 14927 H 1427.39 3.4655 2.31752 0
M  V30 14928 H 1426.05 2.28899 2.30294 0
M  V30 14929 H 1427.06 5.179 -0.00291228 0
M  V30 14930 H 1423.73 3.63051 2.06155 0
M  V30 14931 H 1425.12 6.69442 -0.574192 0
M  V30 14932 N 1427.84 0.0718701 1.57436 0
M  V30 14933 C 1429.09 -0.596052 1.9311 0
M  V30 14934 C 1429.41 -1.70146 0.952652 0
M  V30 14935 O 1428.68 -1.959 0.000812941 0
M  V30 14936 H 1427.26 -0.223165 0.712886 0
M  V30 14937 H 1429.93 0.129744 1.94468 0
M  V30 14938 H 1429.02 -1.02132 2.94916 0
M  V30 14939 N 1429.32 -1.56304 -0.201686 0
M  V30 14940 C 1430.25 -1.97046 -1.25281 0
M  V30 14941 C 1431.23 -0.841458 -1.47829 0
M  V30 14942 O 1432.42 -1.10529 -1.59678 0
M  V30 14943 C 1429.55 -2.30429 -2.59845 0
M  V30 14944 C 1428.5 -3.46006 -2.5192 0
M  V30 14945 C 1427.83 -3.65047 -3.90697 0
M  V30 14946 C 1429.13 -4.80391 -2.04992 0
M  V30 14947 H 1430.82 -2.85099 -0.914272 0
M  V30 14948 H 1428.37 -1.37166 -0.438359 0
M  V30 14949 H 1430.32 -2.57525 -3.33555 0
M  V30 14950 H 1429.05 -1.39251 -2.95426 0
M  V30 14951 H 1427.7 -3.18991 -1.80667 0
M  V30 14952 H 1427.35 -2.71211 -4.2362 0
M  V30 14953 H 1427.05 -4.42796 -3.86271 0
M  V30 14954 H 1428.58 -3.94512 -4.66039 0
M  V30 14955 H 1429.99 -5.06561 -2.68456 0
M  V30 14956 H 1428.39 -5.61563 -2.11582 0
M  V30 14957 H 1429.46 -4.74416 -1.00288 0
M  V30 14958 N 1430.8 0.469154 -1.50455 0
M  V30 14959 C 1431.73 1.58443 -1.65615 0
M  V30 14960 C 1432.75 1.53668 -0.537584 0
M  V30 14961 O 1433.93 1.59021 -0.810832 0
M  V30 14962 C 1431.03 2.97327 -1.62634 0
M  V30 14963 C 1430.21 3.2695 -2.90555 0
M  V30 14964 C 1429.27 4.45398 -2.80191 0
M  V30 14965 O 1428.29 4.45611 -3.54146 0
M  V30 14966 N 1429.49 5.47167 -1.93878 0
M  V30 14967 H 1432.26 1.45854 -2.61814 0
M  V30 14968 H 1429.82 0.657604 -1.47943 0
M  V30 14969 H 1431.81 3.74537 -1.53311 0
M  V30 14970 H 1430.38 3.03675 -0.741624 0
M  V30 14971 H 1429.6 2.38335 -3.13991 0
M  V30 14972 H 1430.89 3.43554 -3.75297 0
M  V30 14973 H 1430.29 5.49817 -1.33109 0
M  V30 14974 H 1428.85 6.23353 -1.90457 0
M  V30 14975 N 1432.28 1.40065 0.722464 0
M  V30 14976 C 1433.23 1.39947 1.85789 0
M  V30 14977 C 1434.22 0.28089 1.67055 0
M  V30 14978 O 1435.43 0.451575 1.74244 0
M  V30 14979 H 1431.8 0.437296 0.611781 0
M  V30 14980 H 1433.77 2.35695 1.83004 0
M  V30 14981 C 1432.52 1.27218 3.2359 0
M  V30 14982 H 1431.84 2.12566 3.38609 0
M  V30 14983 H 1433.28 1.31194 4.03192 0
M  V30 14984 C 1431.74 -0.0182466 3.36895 0
M  V30 14985 O 1432.27 -0.983761 3.89468 0
M  V30 14986 N 1430.48 -0.0854707 2.90474 0
M  V30 14987 H 1430.03 0.700953 2.4788 0
M  V30 14988 H 1429.98 -0.948367 2.99755 0
M  V30 14989 N 1433.76 -0.95397 1.25448 0
M  V30 14990 C 1435.01 -1.6953 1.10018 0
M  V30 14991 C 1435.33 -1.9166 -0.359385 0
M  V30 14992 O 1434.6 -1.50417 -1.25506 0
M  V30 14993 H 1433.18 -0.628238 0.404136 0
M  V30 14994 H 1435.84 -1.14691 1.57581 0
M  V30 14995 H 1434.93 -2.67427 1.60901 0
M  V30 14996 N 1435.24 -1.07045 -1.15668 0
M  V30 14997 C 1436.51 -0.704942 -1.82455 0
M  V30 14998 C 1436.89 0.812921 -1.9482 0
M  V30 14999 O 1436.24 1.72615 -1.49721 0
M  V30 15000 C 1436.45 -1.41574 -3.18995 0
M  V30 15001 C 1437.8 -1.56584 -3.94673 0
M  V30 15002 O 1438.82 -1.37626 -3.28538 0
M  V30 15003 O 1437.68 -1.87751 -5.13237 0
M  V30 15004 H 1434.78 -0.250469 -0.788159 0
M  V30 15005 H 1437.32 -1.17118 -1.22806 0
M  V30 15006 H 1436.09 -2.4504 -3.05075 0
M  V30 15007 H 1435.72 -0.940071 -3.86327 0
M  V30 15008 N 1436.71 1.32449 -0.85411 0
M  V30 15009 C 1437.94 2.01463 -0.471188 0
M  V30 15010 C 1438.36 1.64195 0.931954 0
M  V30 15011 O 1437.71 0.862994 1.60806 0
M  V30 15012 C 1437.76 3.56486 -0.600022 0
M  V30 15013 O 1437.49 3.92414 -1.94789 0
M  V30 15014 C 1438.99 4.42773 -0.216036 0
M  V30 15015 H 1436.21 0.644914 -0.185275 0
M  V30 15016 H 1438.75 1.6904 -1.1509 0
M  V30 15017 H 1436.91 3.87387 0.0319488 0
M  V30 15018 H 1437.32 4.87133 -1.94427 0
M  V30 15019 H 1438.79 5.50843 -0.357186 0
M  V30 15020 H 1439.27 4.31025 0.843468 0
M  V30 15021 H 1439.88 4.1726 -0.823058 0
M  V30 15022 N 1438.19 0.611994 1.45232 0
M  V30 15023 C 1439.15 -0.0943825 2.29006 0
M  V30 15024 C 1440.15 -0.790863 1.40007 0
M  V30 15025 O 1441.34 -0.638356 1.62082 0
M  V30 15026 C 1438.48 -1.1439 3.21135 0
M  V30 15027 H 1439.67 0.6422 2.92943 0
M  V30 15028 H 1437.22 0.37124 1.51827 0
M  V30 15029 H 1437.96 -1.9111 2.62007 0
M  V30 15030 H 1437.74 -0.648638 3.86698 0
M  V30 15031 H 1439.23 -1.63848 3.84114 0
M  V30 15032 N 1439.67 -1.53632 0.351409 0
M  V30 15033 C 1440.62 -2.26782 -0.516983 0
M  V30 15034 C 1441.61 -1.29222 -1.09536 0
M  V30 15035 O 1442.82 -1.46901 -1.04019 0
M  V30 15036 H 1439.19 -0.728783 -0.185417 0
M  V30 15037 H 1441.16 -2.98151 0.121909 0
M  V30 15038 C 1439.91 -3.05943 -1.6521 0
M  V30 15039 H 1439.24 -3.80848 -1.21633 0
M  V30 15040 H 1440.68 -3.60328 -2.23472 0
M  V30 15041 C 1439.13 -2.15917 -2.58614 0
M  V30 15042 O 1439.66 -1.76049 -3.61067 0
M  V30 15043 N 1437.87 -1.80837 -2.27478 0
M  V30 15044 H 1437.42 -2.13456 -1.44202 0
M  V30 15045 H 1437.38 -1.20886 -2.90231 0
M  V30 15046 N 1441.15 -0.0802183 -1.57396 0
M  V30 15047 C 1442.37 0.599179 -1.98556 0
M  V30 15048 C 1442.8 1.61844 -0.958555 0
M  V30 15049 O 1442.16 1.81146 0.0748226 0
M  V30 15050 C 1442.2 1.23675 -3.38728 0
M  V30 15051 O 1441.31 2.35262 -3.38712 0
M  V30 15052 H 1440.65 0.153366 -0.646045 0
M  V30 15053 H 1443.18 -0.157227 -2.03995 0
M  V30 15054 H 1443.19 1.5816 -3.76098 0
M  V30 15055 H 1441.86 0.489946 -4.13004 0
M  V30 15056 H 1440.44 2.02507 -3.13122 0
M  V30 15057 N 1442.63 1.56409 0.193394 0
M  V30 15058 C 1443.59 1.93822 1.22334 0
M  V30 15059 C 1444.59 0.819513 1.3835 0
M  V30 15060 O 1445.78 1.0869 1.36132 0
M  V30 15061 C 1442.91 2.21375 2.59241 0
M  V30 15062 H 1444.1 2.85967 0.903502 0
M  V30 15063 H 1441.66 1.50125 0.43498 0
M  V30 15064 H 1442.39 1.31874 2.96277 0
M  V30 15065 H 1442.18 3.02899 2.48988 0
M  V30 15066 H 1443.67 2.51319 3.33509 0
M  V30 15067 N 1444.1 -0.461169 1.50702 0
M  V30 15068 C 1445.35 -1.20934 1.61425 0
M  V30 15069 C 1445.67 -1.92884 0.32481 0
M  V30 15070 O 1446.87 -2.69712 0.311081 0
M  V30 15071 C 1445.33 -2.19797 2.84987 0
M  V30 15072 C 1444.94 -1.53604 4.20844 0
M  V30 15073 C 1446.68 -2.95194 3.05059 0
M  V30 15074 C 1444.59 -2.50811 5.35582 0
M  V30 15075 H 1443.52 -0.455088 0.601174 0
M  V30 15076 H 1446.17 -0.478771 1.77144 0
M  V30 15077 H 1444.55 -2.96187 2.62848 0
M  V30 15078 H 1445.72 -0.829345 4.53275 0
M  V30 15079 H 1444.04 -0.904504 4.06457 0
M  V30 15080 H 1446.64 -3.67965 3.87951 0
M  V30 15081 H 1446.98 -3.5516 2.1718 0
M  V30 15082 H 1447.51 -2.25915 3.27425 0
M  V30 15083 H 1444.25 -1.9557 6.25646 0
M  V30 15084 H 1443.77 -3.19604 5.07556 0
M  V30 15085 H 1445.45 -3.12437 5.66561 0
M  V30 15086 N 1445.58 -1.40446 -0.715026 0
M  V30 15087 C 1446.53 -1.40756 -1.82911 0
M  V30 15088 C 1447.5 -0.264443 -1.63981 0
M  V30 15089 O 1448.68 -0.462589 -1.85107 0
M  V30 15090 C 1445.82 -1.27648 -3.20624 0
M  V30 15091 C 1444.94 -2.5167 -3.51121 0
M  V30 15092 C 1444.07 -2.31 -4.78344 0
M  V30 15093 C 1443.11 -3.50596 -5.01746 0
M  V30 15094 N 1442.25 -3.29117 -6.20183 0
M  V30 15095 H 1447.09 -2.35981 -1.8198 0
M  V30 15096 H 1444.62 -1.17201 -0.888951 0
M  V30 15097 H 1446.58 -1.18054 -4.00149 0
M  V30 15098 H 1445.21 -0.360419 -3.20782 0
M  V30 15099 H 1444.26 -2.7179 -2.66147 0
M  V30 15100 H 1445.58 -3.4069 -3.64324 0
M  V30 15101 H 1444.73 -2.18763 -5.65887 0
M  V30 15102 H 1443.47 -1.39406 -4.67351 0
M  V30 15103 H 1442.47 -3.63309 -4.12658 0
M  V30 15104 H 1443.7 -4.43117 -5.14611 0
M  V30 15105 H 1441.65 -2.40206 -6.1044 0
M  V30 15106 H 1441.56 -4.11702 -6.34064 0
M  V30 15107 H 1442.83 -3.20614 -7.10512 0
M  V30 15108 N 1447.06 0.947303 -1.25952 0
M  V30 15109 C 1447.99 2.0487 -1.02767 0
M  V30 15110 C 1449 1.62797 0.00985984 0
M  V30 15111 O 1450.19 1.77018 -0.229527 0
M  V30 15112 C 1447.29 3.34682 -0.533048 0
M  V30 15113 C 1446.47 4.05555 -1.63841 0
M  V30 15114 C 1445.53 5.13638 -1.1429 0
M  V30 15115 O 1444.55 5.38682 -1.83876 0
M  V30 15116 N 1445.75 5.80499 0.0119377 0
M  V30 15117 H 1448.52 2.25327 -1.97605 0
M  V30 15118 H 1446.08 1.11636 -1.17256 0
M  V30 15119 H 1448.07 4.04273 -0.185868 0
M  V30 15120 H 1446.64 3.10941 0.321585 0
M  V30 15121 H 1445.86 3.29962 -2.15683 0
M  V30 15122 H 1447.15 4.49661 -2.38081 0
M  V30 15123 H 1446.55 5.62581 0.593212 0
M  V30 15124 H 1445.1 6.51109 0.30009 0
M  V30 15125 N 1448.54 1.07657 1.15099 0
M  V30 15126 C 1449.79 0.796589 1.85303 0
M  V30 15127 C 1450.1 -0.679887 1.83404 0
M  V30 15128 O 1451.31 -1.07475 2.49322 0
M  V30 15129 C 1449.76 1.37495 3.326 0
M  V30 15130 C 1449.37 2.88267 3.42938 0
M  V30 15131 C 1451.11 1.17313 4.07968 0
M  V30 15132 C 1449.02 3.39278 4.84401 0
M  V30 15133 H 1447.95 0.294316 0.694186 0
M  V30 15134 H 1450.6 1.29702 1.29806 0
M  V30 15135 H 1448.98 0.802248 3.87789 0
M  V30 15136 H 1450.16 3.51608 2.9784 0
M  V30 15137 H 1448.47 3.07275 2.81018 0
M  V30 15138 H 1451.07 1.52899 5.12373 0
M  V30 15139 H 1451.41 0.112387 4.16148 0
M  V30 15140 H 1451.95 1.71236 3.59059 0
M  V30 15141 H 1448.69 4.44892 4.81406 0
M  V30 15142 H 1448.21 2.80692 5.30068 0
M  V30 15143 H 1449.88 3.35416 5.53267 0
M  V30 15144 N 1450.02 -1.31994 0.861122 0
M  V30 15145 C 1450.98 -2.27019 0.315421 0
M  V30 15146 C 1451.98 -1.51864 -0.528575 0
M  V30 15147 O 1453.17 -1.70867 -0.339154 0
M  V30 15148 C 1450.3 -3.36384 -0.553021 0
M  V30 15149 H 1451.49 -2.768 1.1542 0
M  V30 15150 H 1449.05 -1.42776 0.635982 0
M  V30 15151 H 1449.78 -2.91882 -1.41335 0
M  V30 15152 H 1449.57 -3.92067 0.0511919 0
M  V30 15153 H 1451.06 -4.07172 -0.927392 0
M  V30 15154 N 1451.49 -0.619688 -1.44906 0
M  V30 15155 C 1452.72 -0.124598 -2.07025 0
M  V30 15156 C 1453.14 1.18698 -1.45919 0
M  V30 15157 O 1452.5 1.72552 -0.556366 0
M  V30 15158 C 1452.55 -0.0112238 -3.60598 0
M  V30 15159 O 1451.65 1.03582 -3.9918 0
M  V30 15160 H 1451 -0.0795631 -0.659216 0
M  V30 15161 H 1453.53 -0.853127 -1.85965 0
M  V30 15162 H 1453.54 0.183079 -4.07589 0
M  V30 15163 H 1452.21 -0.968849 -4.04458 0
M  V30 15164 H 1450.79 0.817008 -3.6384 0
M  V30 15165 N 1452.97 1.53444 -0.359552 0
M  V30 15166 C 1454.22 2.00769 0.231564 0
M  V30 15167 C 1454.54 1.2487 1.49775 0
M  V30 15168 O 1453.81 0.360284 1.92558 0
M  V30 15169 H 1452.39 0.741732 0.0885581 0
M  V30 15170 H 1455.05 1.88785 -0.484397 0
M  V30 15171 H 1454.15 3.0865 0.462789 0
M  V30 15172 N 1454.45 0.0885642 1.57351 0
M  V30 15173 C 1455.87 -0.268088 1.57332 0
M  V30 15174 C 1456.07 -1.68875 1.09924 0
M  V30 15175 O 1455.12 -2.40385 0.772729 0
M  V30 15176 C 1456.44 -0.0624654 3.00635 0
M  V30 15177 C 1457.98 -0.130717 3.12727 0
M  V30 15178 C 1458.46 0.0468305 4.57976 0
M  V30 15179 N 1459.95 -0.00822093 4.63199 0
M  V30 15180 C 1460.68 0.104497 5.73305 0
M  V30 15181 N 1460.18 0.271682 6.92267 0
M  V30 15182 N 1461.97 0.0462333 5.62081 0
M  V30 15183 H 1454.12 1.01686 1.86477 0
M  V30 15184 H 1456.39 0.397971 0.86042 0
M  V30 15185 H 1456.09 0.918505 3.39494 0
M  V30 15186 H 1455.97 -0.807602 3.68453 0
M  V30 15187 H 1458.35 -1.10219 2.73744 0
M  V30 15188 H 1458.44 0.645801 2.47514 0
M  V30 15189 H 1458.08 1.01514 4.97652 0
M  V30 15190 H 1458.01 -0.7493 5.21242 0
M  V30 15191 H 1460.5 -0.135164 3.77658 0
M  V30 15192 H 1460.81 0.349381 7.7201 0
M  V30 15193 H 1459.16 0.307265 6.9432 0
M  V30 15194 H 1462.35 -0.0831995 4.68026 0
M  V30 15195 H 1462.52 0.137529 6.47854 0
M  V30 15196 N 1455.93 -1.56509 -0.185096 0
M  V30 15197 C 1457.18 -1.81206 -0.903924 0
M  V30 15198 C 1457.5 -0.663423 -1.82836 0
M  V30 15199 O 1456.76 0.350211 -1.92541 0
M  V30 15200 C 1457.06 -3.11968 -1.74387 0
M  V30 15201 C 1456.72 -4.40353 -0.969552 0
M  V30 15202 C 1455.39 -4.75227 -0.755799 0
M  V30 15203 C 1457.74 -5.19461 -0.425443 0
M  V30 15204 C 1455.07 -5.86698 0.0133856 0
M  V30 15205 C 1457.42 -6.31736 0.330582 0
M  V30 15206 C 1456.08 -6.65187 0.555262 0
M  V30 15207 H 1455.35 -0.663078 -0.330769 0
M  V30 15208 H 1458 -1.90747 -0.169673 0
M  V30 15209 H 1456.3 -2.97708 -2.5471 0
M  V30 15210 H 1458 -3.28284 -2.30284 0
M  V30 15211 H 1454.59 -4.1299 -1.14618 0
M  V30 15212 H 1458.77 -4.92923 -0.577959 0
M  V30 15213 H 1454.03 -6.11081 0.197335 0
M  V30 15214 H 1458.2 -6.92246 0.759523 0
M  V30 15215 H 1455.83 -7.51403 1.15318 0
M  V30 15216 N 1457.41 0.45317 -1.50944 0
M  V30 15217 C 1458.65 1.20151 -1.62506 0
M  V30 15218 C 1458.98 1.92085 -0.335927 0
M  V30 15219 O 1458.25 1.84889 0.64751 0
M  V30 15220 H 1456.83 0.446502 -0.59887 0
M  V30 15221 H 1459.49 0.521103 -1.87804 0
M  V30 15222 H 1458.58 1.93972 -2.44502 0
M  V30 15223 N 1458.88 1.40823 0.707568 0
M  V30 15224 C 1460.13 1.39741 1.4697 0
M  V30 15225 C 1460.46 0.00231194 1.942 0
M  V30 15226 O 1459.74 -0.967798 1.68713 0
M  V30 15227 C 1460.02 2.39385 2.69011 0
M  V30 15228 C 1459.87 3.87953 2.27624 0
M  V30 15229 C 1461.19 2.3645 3.71186 0
M  V30 15230 H 1458.31 0.508904 0.533091 0
M  V30 15231 H 1460.95 1.72015 0.806888 0
M  V30 15232 H 1459.1 2.11993 3.25563 0
M  V30 15233 H 1460.78 4.26202 1.76492 0
M  V30 15234 H 1459.02 4.03399 1.59537 0
M  V30 15235 H 1459.69 4.53201 3.15139 0
M  V30 15236 H 1462.17 2.60731 3.24282 0
M  V30 15237 H 1461.04 3.08204 4.54204 0
M  V30 15238 H 1461.3 1.3789 4.20046 0
M  V30 15239 N 1460.36 -0.94061 1.26453 0
M  V30 15240 C 1461.59 -1.72123 1.1481 0
M  V30 15241 C 1462.01 -1.86456 -0.296604 0
M  V30 15242 O 1461.36 -1.37234 -1.20304 0
M  V30 15243 C 1461.41 -3.1277 1.81266 0
M  V30 15244 O 1461.13 -2.99122 3.2009 0
M  V30 15245 C 1462.64 -4.07045 1.75584 0
M  V30 15246 H 1459.86 -0.538908 0.399774 0
M  V30 15247 H 1462.4 -1.17913 1.67083 0
M  V30 15248 H 1460.55 -3.6388 1.32928 0
M  V30 15249 H 1460.97 -3.87946 3.52984 0
M  V30 15250 H 1462.44 -5.03292 2.26719 0
M  V30 15251 H 1462.92 -4.33217 0.722466 0
M  V30 15252 H 1463.53 -3.61855 2.23475 0
M  V30 15253 N 1461.84 -1.08266 -1.14527 0
M  V30 15254 C 1463.25 -0.832702 -1.67102 0
M  V30 15255 C 1463.6 0.640776 -1.85441 0
M  V30 15256 O 1462.73 1.49505 -1.56452 0
M  V30 15257 C 1463.32 -1.50502 -3.03537 0
M  V30 15258 C 1461.88 -1.30234 -3.53152 0
M  V30 15259 C 1461.03 -1.56873 -2.28661 0
M  V30 15260 H 1463.98 -1.24344 -0.986118 0
M  V30 15261 H 1464 -0.931426 -3.68924 0
M  V30 15262 H 1463.51 -2.57741 -2.90157 0
M  V30 15263 H 1461.61 -0.250582 -3.71756 0
M  V30 15264 H 1461.73 -2.02898 -4.34015 0
M  V30 15265 H 1460.09 -0.990214 -2.34663 0
M  V30 15266 H 1460.87 -2.65316 -2.17859 0
M  V30 15267 N 1463.32 1.31536 -0.86811 0
M  V30 15268 C 1464.23 2.32326 -0.32588 0
M  V30 15269 C 1465.25 1.64632 0.563243 0
M  V30 15270 O 1466.42 1.96067 0.460403 0
M  V30 15271 C 1463.49 3.43562 0.46539 0
M  V30 15272 C 1462.55 4.26919 -0.451472 0
M  V30 15273 C 1461.78 5.32844 0.302129 0
M  V30 15274 O 1462 5.49485 1.53045 0
M  V30 15275 O 1460.94 6.00944 -0.339048 0
M  V30 15276 H 1464.76 2.80622 -1.16126 0
M  V30 15277 H 1462.35 1.35401 -0.631428 0
M  V30 15278 H 1464.23 4.11368 0.914028 0
M  V30 15279 H 1462.91 2.97432 1.27734 0
M  V30 15280 H 1461.81 3.61874 -0.948571 0
M  V30 15281 H 1463.15 4.7661 -1.22897 0
M  V30 15282 N 1464.8 0.627364 1.44575 0
M  V30 15283 C 1466.03 0.137114 2.06145 0
M  V30 15284 C 1466.44 -1.19201 1.46928 0
M  V30 15285 O 1465.78 -1.7413 0.585199 0
M  V30 15286 C 1465.84 -0.0560229 3.59456 0
M  V30 15287 C 1465.5 1.19435 4.41117 0
M  V30 15288 C 1466.5 2.11717 4.74839 0
M  V30 15289 C 1464.19 1.42871 4.81553 0
M  V30 15290 C 1466.18 3.25749 5.47875 0
M  V30 15291 C 1463.87 2.572 5.54339 0
M  V30 15292 C 1464.87 3.48466 5.87419 0
M  V30 15293 O 1464.55 4.60802 6.58723 0
M  V30 15294 H 1464.29 0.0751614 0.671809 0
M  V30 15295 H 1466.84 0.86076 1.86494 0
M  V30 15296 H 1465.07 -0.834775 3.77582 0
M  V30 15297 H 1466.76 -0.500352 4.02804 0
M  V30 15298 H 1467.52 1.94844 4.44141 0
M  V30 15299 H 1463.4 0.727246 4.55228 0
M  V30 15300 H 1466.95 3.97007 5.73612 0
M  V30 15301 H 1462.84 2.74018 5.84452 0
M  V30 15302 H 1463.61 4.59736 6.77189 0
M  V30 15303 N 1466.28 -1.53251 0.367684 0
M  V30 15304 C 1467.21 -2.28728 -0.469676 0
M  V30 15305 C 1468.19 -1.3124 -1.08213 0
M  V30 15306 O 1469.37 -1.60112 -1.09898 0
M  V30 15307 C 1466.5 -3.07808 -1.60846 0
M  V30 15308 C 1465.46 -4.13 -1.12315 0
M  V30 15309 C 1464.78 -4.80176 -2.35234 0
M  V30 15310 C 1466.08 -5.21892 -0.2064 0
M  V30 15311 H 1467.78 -2.98972 0.160019 0
M  V30 15312 H 1465.32 -1.43786 0.0784011 0
M  V30 15313 H 1467.27 -3.59358 -2.20091 0
M  V30 15314 H 1466 -2.35258 -2.26542 0
M  V30 15315 H 1464.66 -3.62399 -0.553378 0
M  V30 15316 H 1464.31 -4.04196 -2.99391 0
M  V30 15317 H 1464.01 -5.51261 -2.03433 0
M  V30 15318 H 1465.53 -5.34521 -2.9516 0
M  V30 15319 H 1466.94 -5.68932 -0.706386 0
M  V30 15320 H 1465.34 -6.00096 0.0208362 0
M  V30 15321 H 1466.41 -4.79051 0.750851 0
M  V30 15322 N 1467.75 -0.0969077 -1.57302 0
M  V30 15323 C 1468.69 0.898042 -2.09787 0
M  V30 15324 C 1469.66 1.27518 -1.00886 0
M  V30 15325 O 1470.85 1.3801 -1.28396 0
M  V30 15326 C 1467.98 2.19868 -2.57635 0
M  V30 15327 C 1467.02 1.97127 -3.7821 0
M  V30 15328 S 1467.85 1.20763 -5.21705 0
M  V30 15329 C 1469.01 2.52054 -5.72905 0
M  V30 15330 H 1469.24 0.451544 -2.93851 0
M  V30 15331 H 1466.78 0.116417 -1.5396 0
M  V30 15332 H 1468.73 2.9461 -2.85859 0
M  V30 15333 H 1467.4 2.61639 -1.73793 0
M  V30 15334 H 1466.59 2.93445 -4.09763 0
M  V30 15335 H 1466.19 1.30515 -3.50488 0
M  V30 15336 H 1468.48 3.4802 -5.81282 0
M  V30 15337 H 1469.43 2.25077 -6.71376 0
M  V30 15338 H 1469.83 2.6041 -5.00846 0
M  V30 15339 N 1469.23 1.56605 0.176793 0
M  V30 15340 C 1470.46 1.8617 0.91408 0
M  V30 15341 C 1470.88 0.68262 1.75277 0
M  V30 15342 O 1470.24 -0.368391 1.77518 0
M  V30 15343 C 1470.29 3.14109 1.7711 0
M  V30 15344 O 1469.39 2.95947 2.87209 0
M  V30 15345 H 1468.73 0.612507 0.25638 0
M  V30 15346 H 1471.26 2.03837 0.176586 0
M  V30 15347 H 1471.27 3.45373 2.17213 0
M  V30 15348 H 1469.95 3.9954 1.15502 0
M  V30 15349 H 1468.52 2.76024 2.50729 0
M  V30 15350 N 1470.71 -0.445159 1.51182 0
M  V30 15351 C 1471.96 -1.19288 1.6314 0
M  V30 15352 C 1472.28 -1.91904 0.346109 0
M  V30 15353 O 1471.55 -1.8523 -0.637695 0
M  V30 15354 H 1470.13 -0.443319 0.601229 0
M  V30 15355 H 1472.79 -0.511136 1.88078 0
M  V30 15356 H 1471.89 -1.92672 2.45528 0
M  V30 15357 N 1472.19 -1.41197 -0.700089 0
M  V30 15358 C 1473.13 -1.42688 -1.81407 0
M  V30 15359 C 1474.1 -0.28182 -1.63692 0
M  V30 15360 O 1475.29 -0.482196 -1.84606 0
M  V30 15361 C 1472.43 -1.31041 -3.19252 0
M  V30 15362 C 1471.54 -2.5538 -3.48432 0
M  V30 15363 C 1470.68 -2.3606 -4.75867 0
M  V30 15364 C 1469.72 -3.55898 -4.97999 0
M  V30 15365 N 1468.85 -3.35676 -6.16657 0
M  V30 15366 H 1473.69 -2.37898 -1.79467 0
M  V30 15367 H 1471.23 -1.18137 -0.87647 0
M  V30 15368 H 1473.19 -1.22292 -3.98874 0
M  V30 15369 H 1471.82 -0.394422 -3.20381 0
M  V30 15370 H 1470.87 -2.74598 -2.6325 0
M  V30 15371 H 1472.18 -3.44535 -3.6069 0
M  V30 15372 H 1471.34 -2.24752 -5.63535 0
M  V30 15373 H 1470.08 -1.44355 -4.65846 0
M  V30 15374 H 1469.08 -3.67665 -4.08781 0
M  V30 15375 H 1470.31 -4.4855 -5.09882 0
M  V30 15376 H 1468.25 -2.46667 -6.07858 0
M  V30 15377 H 1468.17 -4.18404 -6.29662 0
M  V30 15378 H 1469.44 -3.28132 -7.07071 0
M  V30 15379 N 1473.67 0.933891 -1.2695 0
M  V30 15380 C 1474.6 2.03768 -1.04934 0
M  V30 15381 C 1475.61 1.62798 -0.00740752 0
M  V30 15382 O 1476.8 1.76765 -0.248289 0
M  V30 15383 C 1473.9 3.34097 -0.568515 0
M  V30 15384 C 1473.07 4.03794 -1.68133 0
M  V30 15385 C 1472.13 5.12397 -1.19731 0
M  V30 15386 O 1471.16 5.36701 -1.89579 0
M  V30 15387 N 1472.36 5.80479 -0.0496327 0
M  V30 15388 H 1475.12 2.23219 -1.99984 0
M  V30 15389 H 1472.69 1.10386 -1.18433 0
M  V30 15390 H 1474.68 4.04053 -0.228736 0
M  V30 15391 H 1473.25 3.11265 0.288587 0
M  V30 15392 H 1472.47 3.27655 -2.1917 0
M  V30 15393 H 1473.76 4.4711 -2.42837 0
M  V30 15394 H 1473.15 5.63179 0.533509 0
M  V30 15395 H 1471.71 6.5139 0.231014 0
M  V30 15396 N 1475.14 1.08871 1.13951 0
M  V30 15397 C 1476.07 0.744715 2.21306 0
M  V30 15398 C 1477.05 -0.275019 1.67862 0
M  V30 15399 O 1478.24 -0.144339 1.93663 0
M  V30 15400 C 1475.37 0.158336 3.46939 0
M  V30 15401 C 1474.32 1.10695 4.13438 0
M  V30 15402 C 1473.65 0.382552 5.3333 0
M  V30 15403 C 1474.95 2.44704 4.61429 0
M  V30 15404 H 1476.64 1.6423 2.50337 0
M  V30 15405 H 1474.19 0.791088 1.20324 0
M  V30 15406 H 1476.14 -0.0943587 4.21294 0
M  V30 15407 H 1474.87 -0.774413 3.17286 0
M  V30 15408 H 1473.53 1.34482 3.41043 0
M  V30 15409 H 1473.17 -0.554153 4.99938 0
M  V30 15410 H 1472.87 1.01499 5.78767 0
M  V30 15411 H 1474.4 0.138023 6.10444 0
M  V30 15412 H 1475.81 2.25156 5.27236 0
M  V30 15413 H 1474.21 3.03684 5.17586 0
M  V30 15414 H 1475.28 3.05883 3.76249 0
M  V30 15415 N 1476.62 -1.31073 0.875073 0
M  V30 15416 C 1477.53 -2.3215 0.338196 0
M  V30 15417 C 1478.55 -1.64928 -0.554504 0
M  V30 15418 O 1479.72 -1.96308 -0.449998 0
M  V30 15419 C 1476.79 -3.43804 -0.447163 0
M  V30 15420 C 1475.85 -4.26674 0.474106 0
M  V30 15421 C 1475.08 -5.32997 -0.273867 0
M  V30 15422 O 1475.31 -5.50288 -1.50129 0
M  V30 15423 O 1474.24 -6.00756 0.370913 0
M  V30 15424 H 1478.07 -2.80002 1.17612 0
M  V30 15425 H 1475.65 -1.35064 0.6386 0
M  V30 15426 H 1477.53 -4.11847 -0.892199 0
M  V30 15427 H 1476.21 -2.98105 -1.26155 0
M  V30 15428 H 1475.11 -3.61366 0.967748 0
M  V30 15429 H 1476.45 -4.75952 1.25423 0
M  V30 15430 N 1478.1 -0.635022 -1.4424 0
M  V30 15431 C 1479.35 -0.138497 -2.01224 0
M  V30 15432 C 1479.66 1.2485 -1.50571 0
M  V30 15433 O 1480.87 1.83926 -1.99709 0
M  V30 15434 C 1479.32 -0.196836 -3.59361 0
M  V30 15435 C 1478.93 -1.58539 -4.1901 0
M  V30 15436 C 1480.68 0.243025 -4.23804 0
M  V30 15437 C 1478.58 -1.59864 -5.69384 0
M  V30 15438 H 1477.51 -0.0480117 -0.75247 0
M  V30 15439 H 1480.16 -0.794391 -1.65414 0
M  V30 15440 H 1478.55 0.526231 -3.92488 0
M  V30 15441 H 1479.72 -2.33236 -3.97414 0
M  V30 15442 H 1478.04 -1.96967 -3.66869 0
M  V30 15443 H 1480.63 0.252717 -5.34102 0
M  V30 15444 H 1480.98 1.27107 -3.96421 0
M  V30 15445 H 1481.51 -0.427678 -3.95494 0
M  V30 15446 H 1478.25 -2.60518 -6.01507 0
M  V30 15447 H 1477.77 -0.894664 -5.9309 0
M  V30 15448 H 1479.45 -1.3343 -6.33092 0
M  V30 15449 N 1479.58 1.53054 -0.375806 0
M  V30 15450 C 1480.53 2.2605 0.46582 0
M  V30 15451 C 1481.5 1.27123 1.06906 0
M  V30 15452 O 1482.68 1.55926 1.09963 0
M  V30 15453 C 1479.82 3.06066 1.59429 0
M  V30 15454 C 1478.93 4.19901 1.01523 0
M  V30 15455 C 1478.07 4.87339 2.11363 0
M  V30 15456 C 1477.11 5.93189 1.50976 0
M  V30 15457 N 1476.24 6.54276 2.54692 0
M  V30 15458 H 1481.08 2.97553 -0.163149 0
M  V30 15459 H 1478.62 1.4681 -0.092282 0
M  V30 15460 H 1480.58 3.50739 2.25915 0
M  V30 15461 H 1479.21 2.36799 2.19377 0
M  V30 15462 H 1478.26 3.7964 0.240346 0
M  V30 15463 H 1479.57 4.95935 0.533812 0
M  V30 15464 H 1478.73 5.35247 2.85649 0
M  V30 15465 H 1477.47 4.10799 2.6286 0
M  V30 15466 H 1476.47 5.44632 0.752095 0
M  V30 15467 H 1477.7 6.71654 1.00291 0
M  V30 15468 H 1475.64 5.80584 3.05383 0
M  V30 15469 H 1475.56 7.2588 2.11267 0
M  V30 15470 H 1476.83 7.06831 3.28648 0
M  V30 15471 N 1481.06 0.105248 1.57248 0
M  V30 15472 C 1481.99 -0.886904 2.1026 0
M  V30 15473 C 1482.97 -1.26981 1.01561 0
M  V30 15474 O 1484.15 -1.37327 1.29126 0
M  V30 15475 C 1481.28 -2.18499 2.58797 0
M  V30 15476 C 1480.32 -1.95119 3.79251 0
M  V30 15477 S 1481.16 -1.17995 5.22338 0
M  V30 15478 C 1482.31 -2.49012 5.74233 0
M  V30 15479 H 1482.55 -0.435954 2.94086 0
M  V30 15480 H 1480.08 -0.108251 1.5402 0
M  V30 15481 H 1482.04 -2.93089 2.87418 0
M  V30 15482 H 1480.7 -2.60714 1.75178 0
M  V30 15483 H 1479.89 -2.91268 4.11314 0
M  V30 15484 H 1479.49 -1.28654 3.51175 0
M  V30 15485 H 1481.79 -3.44932 5.83119 0
M  V30 15486 H 1482.73 -2.21513 6.7256 0
M  V30 15487 H 1483.14 -2.5775 5.0222 0
M  V30 15488 N 1482.53 -1.56697 -0.168486 0
M  V30 15489 C 1483.5 -1.95744 -1.19235 0
M  V30 15490 C 1484.5 -0.841419 -1.37028 0
M  V30 15491 O 1485.69 -1.10842 -1.34386 0
M  V30 15492 C 1482.82 -2.25471 -2.55686 0
M  V30 15493 H 1484.01 -2.87368 -0.857892 0
M  V30 15494 H 1481.57 -1.50798 -0.411041 0
M  V30 15495 H 1482.3 -1.36571 -2.94141 0
M  V30 15496 H 1482.09 -3.06822 -2.44137 0
M  V30 15497 H 1483.58 -2.56593 -3.29469 0
M  V30 15498 N 1484.01 0.437135 -1.51416 0
M  V30 15499 C 1484.94 1.54894 -1.68939 0
M  V30 15500 C 1485.96 1.52493 -0.570059 0
M  V30 15501 O 1487.15 1.57266 -0.844381 0
M  V30 15502 C 1484.25 2.9381 -1.68904 0
M  V30 15503 C 1483.42 3.20714 -2.97425 0
M  V30 15504 C 1482.48 4.39355 -2.89575 0
M  V30 15505 O 1481.5 4.37999 -3.63519 0
M  V30 15506 N 1482.71 5.42931 -2.05441 0
M  V30 15507 H 1485.47 1.40267 -2.64849 0
M  V30 15508 H 1483.03 0.626075 -1.49305 0
M  V30 15509 H 1485.02 3.71201 -1.61221 0
M  V30 15510 H 1483.59 3.02034 -0.805871 0
M  V30 15511 H 1482.81 2.31621 -3.18975 0
M  V30 15512 H 1484.1 3.35516 -3.825 0
M  V30 15513 H 1483.5 5.4687 -1.44742 0
M  V30 15514 H 1482.06 6.19173 -2.03636 0
M  V30 15515 N 1485.49 1.41566 0.692592 0
M  V30 15516 C 1486.74 1.40805 1.44978 0
M  V30 15517 C 1487.06 0.0191039 1.94991 0
M  V30 15518 O 1486.33 -0.939544 1.71899 0
M  V30 15519 H 1484.91 0.518293 0.537942 0
M  V30 15520 H 1487.57 1.76831 0.81956 0
M  V30 15521 H 1486.67 2.09706 2.31149 0
M  V30 15522 N 1486.97 -0.927146 1.27443 0
M  V30 15523 C 1487.93 -2.00938 1.10257 0
M  V30 15524 C 1488.93 -1.60733 0.0463898 0
M  V30 15525 O 1490.12 -1.71752 0.291029 0
M  V30 15526 C 1487.25 -3.34047 0.680115 0
M  V30 15527 H 1488.45 -2.17615 2.06358 0
M  V30 15528 H 1486 -1.10802 1.10239 0
M  V30 15529 H 1486.73 -3.23069 -0.282259 0
M  V30 15530 H 1486.52 -3.64585 1.44291 0
M  V30 15531 H 1488.01 -4.13523 0.582126 0
M  V30 15532 N 1488.45 -1.09474 -1.13372 0
M  V30 15533 C 1489.39 -0.73458 -2.18798 0
M  V30 15534 C 1490.36 0.284433 -1.63647 0
M  V30 15535 O 1491.55 0.165958 -1.90077 0
M  V30 15536 C 1488.69 -0.161826 -3.4472 0
M  V30 15537 C 1487.8 -1.23494 -4.13973 0
M  V30 15538 C 1486.94 -0.624886 -5.27512 0
M  V30 15539 C 1485.98 -1.67927 -5.88614 0
M  V30 15540 N 1485.11 -1.09021 -6.93584 0
M  V30 15541 H 1489.95 -1.63787 -2.48954 0
M  V30 15542 H 1487.49 -0.818297 -1.22239 0
M  V30 15543 H 1489.45 0.188053 -4.16776 0
M  V30 15544 H 1488.08 0.70473 -3.15013 0
M  V30 15545 H 1487.13 -1.70209 -3.40196 0
M  V30 15546 H 1488.44 -2.0335 -4.55467 0
M  V30 15547 H 1487.6 -0.22388 -6.06287 0
M  V30 15548 H 1486.33 0.205214 -4.87268 0
M  V30 15549 H 1485.34 -2.08982 -5.08534 0
M  V30 15550 H 1486.56 -2.51204 -6.3093 0
M  V30 15551 H 1484.51 -0.281401 -6.55396 0
M  V30 15552 H 1484.43 -1.82573 -7.33623 0
M  V30 15553 H 1485.7 -0.715428 -7.7621 0
M  V30 15554 N 1489.92 1.30607 -0.882012 0
M  V30 15555 C 1491.34 1.78418 -0.549892 0
M  V30 15556 C 1491.69 1.72553 0.933797 0
M  V30 15557 O 1490.81 1.30058 1.72956 0
M  V30 15558 C 1491.41 3.2397 -0.991398 0
M  V30 15559 C 1489.97 3.69629 -0.710739 0
M  V30 15560 C 1489.11 2.51127 -1.17602 0
M  V30 15561 H 1492.06 1.17519 -1.06653 0
M  V30 15562 H 1492.08 3.79159 -0.319115 0
M  V30 15563 H 1491.6 3.28207 -2.07128 0
M  V30 15564 H 1489.7 3.70883 0.357273 0
M  V30 15565 H 1489.81 4.61232 -1.29621 0
M  V30 15566 H 1488.17 2.47642 -0.595444 0
M  V30 15567 H 1488.96 2.58103 -2.26358 0
M  V30 15568 N 1491.4 0.642663 1.43901 0
M  V30 15569 C 1492.65 0.151478 2.01532 0
M  V30 15570 C 1492.97 -1.23519 1.50891 0
M  V30 15571 O 1492.24 -1.82299 0.717197 0
M  V30 15572 H 1490.82 0.0530091 0.745117 0
M  V30 15573 H 1493.48 0.831958 1.76251 0
M  V30 15574 H 1492.58 0.127995 3.11837 0
M  V30 15575 N 1492.88 -1.52852 0.383918 0
M  V30 15576 C 1493.79 -2.3002 -0.461298 0
M  V30 15577 C 1494.81 -1.36717 -1.07631 0
M  V30 15578 O 1495.98 -1.69784 -1.08329 0
M  V30 15579 C 1493.05 -3.08804 -1.57609 0
M  V30 15580 C 1492.11 -4.17806 -0.986737 0
M  V30 15581 C 1491.34 -4.92825 -2.04841 0
M  V30 15582 O 1491.57 -4.67879 -3.26259 0
M  V30 15583 O 1490.5 -5.78306 -1.66871 0
M  V30 15584 H 1494.33 -3.03239 0.167189 0
M  V30 15585 H 1491.91 -1.48667 0.147781 0
M  V30 15586 H 1493.79 -3.57943 -2.22384 0
M  V30 15587 H 1492.47 -2.38404 -2.18964 0
M  V30 15588 H 1491.37 -3.72876 -0.302396 0
M  V30 15589 H 1492.71 -4.90426 -0.417481 0
M  V30 15590 N 1494.36 -0.113586 -1.5719 0
M  V30 15591 C 1495.61 0.544642 -1.94623 0
M  V30 15592 C 1495.93 1.6756 -0.997428 0
M  V30 15593 O 1495.2 1.95829 -0.0527521 0
M  V30 15594 H 1493.78 0.204186 -0.718552 0
M  V30 15595 H 1496.44 -0.181258 -1.94055 0
M  V30 15596 H 1495.54 0.942765 -2.9752 0
M  V30 15597 N 1495.84 1.56784 0.160173 0
M  V30 15598 C 1497.09 1.8226 0.873253 0
M  V30 15599 C 1497.41 0.692384 1.82294 0
M  V30 15600 O 1496.68 -0.286961 1.93787 0
M  V30 15601 H 1495.26 0.672371 0.325463 0
M  V30 15602 H 1497.92 1.94264 0.157325 0
M  V30 15603 H 1497.01 2.76714 1.44345 0
M  V30 15604 N 1497.32 -0.429099 1.51646 0
M  V30 15605 C 1498.25 -1.53996 1.69758 0
M  V30 15606 C 1499.26 -1.52189 0.578138 0
M  V30 15607 O 1500.45 -1.56816 0.852709 0
M  V30 15608 C 1497.55 -2.9291 1.7046 0
M  V30 15609 C 1496.72 -3.19132 2.99122 0
M  V30 15610 C 1495.78 -4.37813 2.91901 0
M  V30 15611 O 1494.81 -4.36065 3.65836 0
M  V30 15612 N 1496.01 -5.41834 2.08317 0
M  V30 15613 H 1498.77 -1.38861 2.65589 0
M  V30 15614 H 1496.34 -0.618148 1.49635 0
M  V30 15615 H 1498.33 -3.7034 1.63187 0
M  V30 15616 H 1496.9 -3.01602 0.821877 0
M  V30 15617 H 1496.12 -2.29926 3.20199 0
M  V30 15618 H 1497.41 -3.33483 3.84274 0
M  V30 15619 H 1496.8 -5.46094 1.4764 0
M  V30 15620 H 1495.36 -6.18085 2.06917 0
M  V30 15621 N 1498.79 -1.41931 -0.685074 0
M  V30 15622 C 1499.72 -1.47385 -1.81107 0
M  V30 15623 C 1500.7 -0.331433 -1.6684 0
M  V30 15624 O 1501.89 -0.544331 -1.86415 0
M  V30 15625 C 1499.02 -1.36555 -3.19327 0
M  V30 15626 C 1497.97 -2.48718 -3.48315 0
M  V30 15627 C 1497.3 -2.2295 -4.86002 0
M  V30 15628 C 1498.6 -3.91047 -3.46237 0
M  V30 15629 H 1500.29 -2.41624 -1.768 0
M  V30 15630 H 1497.84 -1.16297 -0.849178 0
M  V30 15631 H 1499.79 -1.38981 -3.97822 0
M  V30 15632 H 1498.52 -0.388063 -3.24286 0
M  V30 15633 H 1497.18 -2.45592 -2.72176 0
M  V30 15634 H 1496.82 -1.23518 -4.87598 0
M  V30 15635 H 1496.52 -2.98116 -5.0636 0
M  V30 15636 H 1498.05 -2.27108 -5.66793 0
M  V30 15637 H 1499.46 -3.95831 -4.14718 0
M  V30 15638 H 1497.86 -4.65981 -3.7813 0
M  V30 15639 H 1498.93 -4.1845 -2.45006 0
M  V30 15640 N 1500.27 0.920374 -1.27933 0
M  V30 15641 C 1501.68 1.48385 -1.13309 0
M  V30 15642 C 1502.03 1.94202 0.279307 0
M  V30 15643 O 1501.16 1.81855 1.17294 0
M  V30 15644 C 1501.75 2.69681 -2.05079 0
M  V30 15645 C 1500.31 3.22229 -1.94539 0
M  V30 15646 C 1499.46 1.94948 -1.97207 0
M  V30 15647 H 1502.41 0.733744 -1.40719 0
M  V30 15648 H 1502.43 3.44717 -1.6109 0
M  V30 15649 H 1501.94 2.36304 -3.07867 0
M  V30 15650 H 1500.04 3.60348 -0.94764 0
M  V30 15651 H 1500.16 3.87927 -2.81157 0
M  V30 15652 H 1498.52 2.1176 -1.41527 0
M  V30 15653 H 1499.3 1.63875 -3.01662 0
M  V30 15654 N 1501.75 1.10074 1.1279 0
M  V30 15655 C 1503 0.839212 1.83852 0
M  V30 15656 C 1503.32 -0.637023 1.84301 0
M  V30 15657 O 1502.59 -1.46239 1.30349 0
M  V30 15658 H 1501.17 0.307468 0.680788 0
M  V30 15659 H 1503.83 1.39025 1.36595 0
M  V30 15660 H 1502.93 1.19872 2.88162 0
M  V30 15661 N 1503.23 -1.30138 0.888926 0
M  V30 15662 C 1504.17 -2.28023 0.356923 0
M  V30 15663 C 1505.14 -1.56551 -0.555066 0
M  V30 15664 O 1506.33 -1.84595 -0.482633 0
M  V30 15665 C 1503.47 -3.42546 -0.419056 0
M  V30 15666 C 1502.58 -4.28827 0.5226 0
M  V30 15667 C 1501.72 -5.30517 -0.269366 0
M  V30 15668 C 1500.76 -6.08449 0.667507 0
M  V30 15669 N 1499.89 -7.02043 -0.08938 0
M  V30 15670 H 1504.73 -2.72912 1.19678 0
M  V30 15671 H 1502.27 -1.34239 0.60152 0
M  V30 15672 H 1504.23 -4.07707 -0.884911 0
M  V30 15673 H 1502.86 -2.98716 -1.22346 0
M  V30 15674 H 1501.91 -3.63938 1.10695 0
M  V30 15675 H 1503.22 -4.83136 1.24018 0
M  V30 15676 H 1502.38 -6.01444 -0.796901 0
M  V30 15677 H 1501.12 -4.76911 -1.02014 0
M  V30 15678 H 1500.12 -5.36396 1.20664 0
M  V30 15679 H 1501.35 -6.64143 1.41744 0
M  V30 15680 H 1499.29 -6.50822 -0.822622 0
M  V30 15681 H 1499.21 -7.53859 0.568499 0
M  V30 15682 H 1500.48 -7.77206 -0.597529 0
M  V30 15683 N 1504.71 -0.650285 -1.43559 0
M  V30 15684 C 1505.65 0.043098 -2.3076 0
M  V30 15685 C 1506.62 0.81763 -1.44582 0
M  V30 15686 O 1507.81 0.794825 -1.73457 0
M  V30 15687 C 1504.95 1.00557 -3.30125 0
M  V30 15688 C 1504.06 0.227448 -4.31401 0
M  V30 15689 C 1503.2 1.18345 -5.17849 0
M  V30 15690 C 1502.23 0.395596 -6.1082 0
M  V30 15691 N 1501.37 1.30304 -6.89902 0
M  V30 15692 H 1506.21 -0.706402 -2.89506 0
M  V30 15693 H 1503.75 -0.360118 -1.42624 0
M  V30 15694 H 1505.71 1.57717 -3.8624 0
M  V30 15695 H 1504.34 1.72198 -2.73034 0
M  V30 15696 H 1503.39 -0.460391 -3.77604 0
M  V30 15697 H 1504.7 -0.385316 -4.9731 0
M  V30 15698 H 1503.85 1.82578 -5.78576 0
M  V30 15699 H 1502.59 1.83013 -4.52059 0
M  V30 15700 H 1501.6 -0.260099 -5.49184 0
M  V30 15701 H 1502.82 -0.246633 -6.78652 0
M  V30 15702 H 1500.77 1.93657 -6.26764 0
M  V30 15703 H 1500.69 0.744768 -7.52323 0
M  V30 15704 H 1501.95 1.93361 -7.55137 0
M  V30 15705 N 1506.18 1.52647 -0.392018 0
M  V30 15706 C 1507.43 2.01912 0.18958 0
M  V30 15707 C 1507.76 1.27786 1.46234 0
M  V30 15708 O 1507.04 0.379124 1.90769 0
M  V30 15709 C 1507.32 3.57217 0.454734 0
M  V30 15710 C 1507.17 4.4201 -0.833501 0
M  V30 15711 C 1508.49 4.22146 1.24421 0
M  V30 15712 H 1505.61 0.733909 0.0674281 0
M  V30 15713 H 1508.25 1.82685 -0.52212 0
M  V30 15714 H 1506.4 3.73731 1.06101 0
M  V30 15715 H 1508.08 4.37242 -1.47027 0
M  V30 15716 H 1506.32 4.08912 -1.44823 0
M  V30 15717 H 1506.99 5.48701 -0.602585 0
M  V30 15718 H 1509.47 4.09627 0.731093 0
M  V30 15719 H 1508.34 5.30786 1.39848 0
M  V30 15720 H 1508.6 3.7996 2.26016 0
M  V30 15721 N 1507.66 0.121921 1.57128 0
M  V30 15722 C 1508.89 -0.546325 2.00075 0
M  V30 15723 C 1509.31 -1.59245 1.00113 0
M  V30 15724 O 1508.67 -1.8128 -0.0267687 0
M  V30 15725 C 1508.72 -1.14651 3.41888 0
M  V30 15726 O 1507.82 -2.26199 3.4483 0
M  V30 15727 H 1507.16 -0.136184 0.649885 0
M  V30 15728 H 1509.69 0.211257 2.03506 0
M  V30 15729 H 1509.7 -1.48133 3.80159 0
M  V30 15730 H 1508.38 -0.380273 4.14158 0
M  V30 15731 H 1506.96 -1.94134 3.18381 0
M  V30 15732 N 1509.14 -1.56867 -0.151857 0
M  V30 15733 C 1510.05 -2.01157 -1.20718 0
M  V30 15734 C 1511.07 -0.926166 -1.47303 0
M  V30 15735 O 1512.24 -1.23528 -1.59069 0
M  V30 15736 C 1509.31 -2.37915 -2.52185 0
M  V30 15737 C 1508.37 -3.60381 -2.3329 0
M  V30 15738 C 1507.6 -3.95376 -3.58488 0
M  V30 15739 O 1507.82 -3.31093 -4.64471 0
M  V30 15740 O 1506.76 -4.88645 -3.5144 0
M  V30 15741 H 1510.58 -2.91234 -0.861175 0
M  V30 15742 H 1508.17 -1.44993 -0.360213 0
M  V30 15743 H 1510.05 -2.6244 -3.29702 0
M  V30 15744 H 1508.73 -1.50995 -2.86325 0
M  V30 15745 H 1507.63 -3.4105 -1.5374 0
M  V30 15746 H 1508.97 -4.47903 -2.04067 0
M  V30 15747 N 1510.62 0.421051 -1.51871 0
M  V30 15748 C 1511.85 1.18938 -1.6893 0
M  V30 15749 C 1512.26 1.85069 -0.393198 0
M  V30 15750 O 1511.6 1.72204 0.639648 0
M  V30 15751 C 1511.66 2.30343 -2.76012 0
M  V30 15752 C 1511.33 1.84446 -4.18125 0
M  V30 15753 C 1512.32 1.33882 -5.02366 0
M  V30 15754 C 1510.01 1.91642 -4.64305 0
M  V30 15755 C 1512 0.911212 -6.30853 0
M  V30 15756 C 1509.69 1.48492 -5.92784 0
M  V30 15757 C 1510.69 0.98316 -6.75887 0
M  V30 15758 O 1510.37 0.557853 -8.01962 0
M  V30 15759 H 1510.11 0.363908 -0.56969 0
M  V30 15760 H 1512.66 0.503089 -1.99144 0
M  V30 15761 H 1510.89 3.02298 -2.41148 0
M  V30 15762 H 1512.58 2.92148 -2.81787 0
M  V30 15763 H 1513.35 1.27704 -4.67885 0
M  V30 15764 H 1509.22 2.29641 -3.99732 0
M  V30 15765 H 1512.77 0.518877 -6.95668 0
M  V30 15766 H 1508.67 1.54345 -6.26776 0
M  V30 15767 H 1509.43 0.682238 -8.15652 0
M  V30 15768 N 1512.1 1.42293 0.677538 0
M  V30 15769 C 1513.35 1.41909 1.43334 0
M  V30 15770 C 1513.66 0.037951 1.95563 0
M  V30 15771 O 1514.86 -0.0884836 2.71356 0
M  V30 15772 C 1513.32 2.49608 2.59275 0
M  V30 15773 C 1512.93 3.93716 2.13757 0
M  V30 15774 C 1514.67 2.58387 3.36803 0
M  V30 15775 C 1512.58 4.92929 3.26764 0
M  V30 15776 H 1511.51 0.527803 0.538461 0
M  V30 15777 H 1514.16 1.6819 0.733791 0
M  V30 15778 H 1512.54 2.16488 3.31585 0
M  V30 15779 H 1513.72 4.36176 1.48618 0
M  V30 15780 H 1512.03 3.88762 1.49175 0
M  V30 15781 H 1514.63 3.29691 4.20961 0
M  V30 15782 H 1514.97 1.62653 3.8321 0
M  V30 15783 H 1515.5 2.90688 2.71561 0
M  V30 15784 H 1512.24 5.90131 2.85352 0
M  V30 15785 H 1511.76 4.55103 3.90694 0
M  V30 15786 H 1513.44 5.1452 3.92273 0
M  V30 15787 N 1513.57 -0.913576 1.28419 0
M  V30 15788 C 1514.54 -1.99757 1.12382 0
M  V30 15789 C 1515.54 -1.60675 0.063435 0
M  V30 15790 O 1516.73 -1.71433 0.30923 0
M  V30 15791 C 1513.86 -3.33307 0.715506 0
M  V30 15792 H 1515.05 -2.15414 2.08655 0
M  V30 15793 H 1512.61 -1.09626 1.11408 0
M  V30 15794 H 1513.34 -3.23351 -0.247977 0
M  V30 15795 H 1513.13 -3.63034 1.4815 0
M  V30 15796 H 1514.62 -4.12882 0.625953 0
M  V30 15797 N 1515.05 -1.1067 -1.12204 0
M  V30 15798 C 1515.99 -0.70161 -2.17147 0
M  V30 15799 C 1516.96 0.298272 -1.59841 0
M  V30 15800 O 1518.15 0.196594 -1.87472 0
M  V30 15801 C 1515.27 -0.0356178 -3.38681 0
M  V30 15802 C 1514.32 -0.999363 -4.14626 0
M  V30 15803 S 1515.15 -2.51792 -4.72611 0
M  V30 15804 C 1516.31 -1.8647 -5.97478 0
M  V30 15805 H 1516.54 -1.59058 -2.51173 0
M  V30 15806 H 1514.08 -0.923946 -1.23704 0
M  V30 15807 H 1516.03 0.342303 -4.0907 0
M  V30 15808 H 1514.69 0.830184 -3.0293 0
M  V30 15809 H 1513.89 -0.48067 -5.01703 0
M  V30 15810 H 1513.49 -1.31931 -3.49957 0
M  V30 15811 H 1515.78 -1.19637 -6.66853 0
M  V30 15812 H 1516.72 -2.71513 -6.53977 0
M  V30 15813 H 1517.13 -1.32821 -5.48652 0
M  V30 15814 N 1516.53 1.29665 -0.895815 0
M  V30 15815 C 1517.46 2.30268 -0.387151 0
M  V30 15816 C 1518.44 1.61442 0.535768 0
M  V30 15817 O 1519.63 1.88978 0.447321 0
M  V30 15818 C 1516.76 3.45107 0.389639 0
M  V30 15819 C 1515.71 4.25706 -0.442498 0
M  V30 15820 C 1515.04 5.32704 0.461552 0
M  V30 15821 C 1516.34 4.9419 -1.69036 0
M  V30 15822 H 1518.03 2.73064 -1.22786 0
M  V30 15823 H 1515.58 1.31274 -0.591869 0
M  V30 15824 H 1517.53 4.14559 0.756203 0
M  V30 15825 H 1516.25 3.01145 1.2641 0
M  V30 15826 H 1514.91 3.57957 -0.791343 0
M  V30 15827 H 1514.56 4.84987 1.33403 0
M  V30 15828 H 1514.26 5.87529 -0.0915006 0
M  V30 15829 H 1515.78 6.05009 0.824395 0
M  V30 15830 H 1517.2 5.561 -1.39376 0
M  V30 15831 H 1515.6 5.5893 -2.18444 0
M  V30 15832 H 1516.67 4.19699 -2.42859 0
M  V30 15833 N 1518.01 0.657889 1.43212 0
M  V30 15834 C 1519.42 0.325876 1.56238 0
M  V30 15835 C 1519.62 -1.16975 1.6407 0
M  V30 15836 O 1518.68 -1.95473 1.59833 0
M  V30 15837 C 1519.99 1.04134 2.82093 0
M  V30 15838 C 1521.54 1.02204 2.95844 0
M  V30 15839 C 1522.02 1.71849 4.24537 0
M  V30 15840 N 1523.51 1.68635 4.31412 0
M  V30 15841 C 1524.24 2.19393 5.29768 0
M  V30 15842 N 1523.74 2.7846 6.34375 0
M  V30 15843 N 1525.53 2.09866 5.21452 0
M  V30 15844 H 1517.68 1.62839 1.36371 0
M  V30 15845 H 1519.95 0.685072 0.655271 0
M  V30 15846 H 1519.65 2.09647 2.82385 0
M  V30 15847 H 1519.53 0.595842 3.72464 0
M  V30 15848 H 1521.91 -0.0247029 2.9509 0
M  V30 15849 H 1521.99 1.50627 2.06749 0
M  V30 15850 H 1521.64 2.76482 4.26052 0
M  V30 15851 H 1521.57 1.20888 5.12536 0
M  V30 15852 H 1524.06 1.25536 3.56439 0
M  V30 15853 H 1524.37 3.14855 7.05752 0
M  V30 15854 H 1522.72 2.82523 6.34985 0
M  V30 15855 H 1525.91 1.63422 4.38647 0
M  V30 15856 H 1526.08 2.49732 5.97945 0
M  V30 15857 N 1519.49 -1.52437 0.400108 0
M  V30 15858 C 1520.9 -1.5952 0.0505611 0
M  V30 15859 C 1521.1 -1.4135 -1.43606 0
M  V30 15860 O 1520.16 -1.23591 -2.20185 0
M  V30 15861 C 1521.47 -2.95859 0.537411 0
M  V30 15862 C 1523.02 -3.09067 0.494603 0
M  V30 15863 C 1523.49 -4.47873 0.957815 0
M  V30 15864 N 1524.99 -4.54087 0.914267 0
M  V30 15865 C 1525.72 -5.59744 1.24397 0
M  V30 15866 N 1525.22 -6.72995 1.64469 0
M  V30 15867 N 1527.01 -5.49905 1.16452 0
M  V30 15868 H 1519.16 -1.62496 1.36781 0
M  V30 15869 H 1521.42 -0.763947 0.561328 0
M  V30 15870 H 1521.13 -3.14407 1.57611 0
M  V30 15871 H 1521 -3.77156 -0.0577652 0
M  V30 15872 H 1523.39 -2.90209 -0.535035 0
M  V30 15873 H 1523.47 -2.29698 1.12572 0
M  V30 15874 H 1523.12 -4.67473 1.98574 0
M  V30 15875 H 1523.05 -5.25724 0.303602 0
M  V30 15876 H 1525.54 -3.72787 0.619536 0
M  V30 15877 H 1525.85 -7.49594 1.87961 0
M  V30 15878 H 1524.19 -6.74298 1.68364 0
M  V30 15879 H 1527.39 -4.60311 0.850401 0
M  V30 15880 H 1527.56 -6.32142 1.42478 0
M  V30 15881 N 1520.96 -0.130252 -1.57061 0
M  V30 15882 C 1522.19 0.535707 -2.00362 0
M  V30 15883 C 1522.61 1.58712 -1.00956 0
M  V30 15884 O 1521.97 1.81292 0.0171546 0
M  V30 15885 C 1522.02 1.12836 -3.42491 0
M  V30 15886 O 1521.12 2.24367 -3.46025 0
M  V30 15887 H 1520.47 0.132735 -0.650598 0
M  V30 15888 H 1523 -0.222047 -2.03392 0
M  V30 15889 H 1523.01 1.46115 -3.80939 0
M  V30 15890 H 1521.68 0.358304 -4.14354 0
M  V30 15891 H 1520.26 1.92443 -3.19406 0
M  V30 15892 N 1522.44 1.56945 0.143535 0
M  V30 15893 C 1523.39 1.98526 1.17711 0
M  V30 15894 C 1524.36 0.853402 1.425 0
M  V30 15895 O 1525.55 1.11574 1.54777 0
M  V30 15896 C 1522.69 2.37395 2.50475 0
M  V30 15897 C 1521.8 3.63887 2.32831 0
M  V30 15898 C 1520.93 3.91844 3.58653 0
M  V30 15899 C 1519.97 5.11595 3.36061 0
M  V30 15900 N 1519.11 5.35545 4.54022 0
M  V30 15901 H 1523.95 2.86624 0.815524 0
M  V30 15902 H 1521.49 1.41802 0.391231 0
M  V30 15903 H 1523.44 2.5796 3.27891 0
M  V30 15904 H 1522.07 1.52372 2.84575 0
M  V30 15905 H 1521.13 3.51078 1.46452 0
M  V30 15906 H 1522.44 4.51459 2.12098 0
M  V30 15907 H 1521.59 4.12926 4.44497 0
M  V30 15908 H 1520.33 3.027 3.82393 0
M  V30 15909 H 1519.34 4.90383 2.48606 0
M  V30 15910 H 1520.56 6.02295 3.13716 0
M  V30 15911 H 1518.51 4.49355 4.77929 0
M  V30 15912 H 1518.42 6.17393 4.36305 0
M  V30 15913 H 1519.69 5.61127 5.4107 0
M  V30 15914 N 1523.92 -0.412991 1.52093 0
M  V30 15915 C 1525.33 -0.991955 1.58168 0
M  V30 15916 C 1525.68 -1.91655 0.419834 0
M  V30 15917 O 1524.81 -2.11448 -0.460308 0
M  V30 15918 C 1525.4 -1.80581 2.86663 0
M  V30 15919 C 1523.96 -2.33487 2.9523 0
M  V30 15920 C 1523.11 -1.13362 2.5307 0
M  V30 15921 H 1526.06 -0.193364 1.57518 0
M  V30 15922 H 1526.08 -2.66282 2.71798 0
M  V30 15923 H 1525.59 -1.13262 3.71205 0
M  V30 15924 H 1523.69 -3.0419 2.15173 0
M  V30 15925 H 1523.81 -2.64617 3.99393 0
M  V30 15926 H 1522.17 -1.48641 2.06828 0
M  V30 15927 H 1522.95 -0.476148 3.39982 0
M  V30 15928 N 1525.4 -1.4265 -0.669982 0
M  V30 15929 C 1526.65 -1.43093 -1.42719 0
M  V30 15930 C 1526.97 -0.0501228 -1.94936 0
M  V30 15931 O 1526.24 0.912077 -1.73372 0
M  V30 15932 H 1524.82 -0.526785 -0.529628 0
M  V30 15933 H 1527.48 -1.78113 -0.791324 0
M  V30 15934 H 1526.58 -2.13357 -2.27783 0
M  V30 15935 N 1526.88 0.906753 -1.28902 0
M  V30 15936 C 1528.12 1.65903 -1.16636 0
M  V30 15937 C 1528.46 1.92127 0.282981 0
M  V30 15938 O 1527.73 1.52666 1.20513 0
M  V30 15939 C 1528.01 3.01257 -1.97272 0
M  V30 15940 C 1527.87 2.82143 -3.50308 0
M  V30 15941 C 1529.19 4.01893 -1.7936 0
M  V30 15942 H 1526.31 0.602063 -0.425076 0
M  V30 15943 H 1528.95 1.05081 -1.58297 0
M  V30 15944 H 1527.1 3.53172 -1.61871 0
M  V30 15945 H 1528.77 2.37184 -3.95653 0
M  V30 15946 H 1527.01 2.17063 -3.75588 0
M  V30 15947 H 1527.68 3.78293 -4.01993 0
M  V30 15948 H 1530.16 3.59064 -2.10267 0
M  V30 15949 H 1529.04 4.9455 -2.38141 0
M  V30 15950 H 1529.3 4.35745 -0.746923 0
M  V30 15951 N 1528.36 1.11264 1.11616 0
M  V30 15952 C 1529.58 0.882802 1.87121 0
M  V30 15953 C 1530 -0.567279 1.80076 0
M  V30 15954 O 1529.36 -1.39158 1.18074 0
M  V30 15955 C 1529.41 1.33355 3.36004 0
M  V30 15956 O 1529.13 2.72678 3.42897 0
M  V30 15957 C 1530.63 1.13886 4.28421 0
M  V30 15958 H 1527.85 0.316275 0.591786 0
M  V30 15959 H 1530.39 1.4795 1.41177 0
M  V30 15960 H 1528.55 0.780347 3.79459 0
M  V30 15961 H 1528.96 2.92168 4.35589 0
M  V30 15962 H 1530.44 1.50329 5.31136 0
M  V30 15963 H 1530.91 0.078259 4.3913 0
M  V30 15964 H 1531.52 1.67896 3.90757 0
M  V30 15965 N 1529.83 -1.29188 0.902679 0
M  V30 15966 C 1530.76 -2.3006 0.399357 0
M  V30 15967 C 1531.74 -1.61724 -0.527199 0
M  V30 15968 O 1532.93 -1.89213 -0.437293 0
M  V30 15969 C 1530.06 -3.45309 -0.371331 0
M  V30 15970 C 1529.01 -4.25466 0.465068 0
M  V30 15971 C 1528.34 -5.32941 -0.433295 0
M  V30 15972 C 1529.64 -4.93287 1.71655 0
M  V30 15973 H 1531.33 -2.72409 1.24233 0
M  V30 15974 H 1528.88 -1.30958 0.598822 0
M  V30 15975 H 1530.83 -4.14955 -0.734207 0
M  V30 15976 H 1529.56 -3.01811 -1.24811 0
M  V30 15977 H 1528.22 -3.57532 0.810315 0
M  V30 15978 H 1527.86 -4.85688 -1.3083 0
M  V30 15979 H 1527.56 -5.87472 0.122657 0
M  V30 15980 H 1529.09 -6.05438 -0.792298 0
M  V30 15981 H 1530.5 -5.55353 1.42323 0
M  V30 15982 H 1528.9 -5.57763 2.21405 0
M  V30 15983 H 1529.97 -4.18406 2.45081 0
M  V30 15984 N 1531.31 -0.665475 -1.42861 0
M  V30 15985 C 1532.56 -0.181149 -2.00885 0
M  V30 15986 C 1532.87 1.21629 -1.53186 0
M  V30 15987 O 1534.08 1.79648 -2.03565 0
M  V30 15988 C 1532.54 -0.273017 -3.58863 0
M  V30 15989 C 1532.14 -1.67392 -4.15553 0
M  V30 15990 C 1533.89 0.153075 -4.24224 0
M  V30 15991 C 1531.79 -1.71905 -5.65864 0
M  V30 15992 H 1530.72 -0.0639619 -0.751282 0
M  V30 15993 H 1533.38 -0.829299 -1.63691 0
M  V30 15994 H 1531.76 0.44286 -3.93516 0
M  V30 15995 H 1532.93 -2.41613 -3.92377 0
M  V30 15996 H 1531.25 -2.04704 -3.62609 0
M  V30 15997 H 1533.84 0.139369 -5.34518 0
M  V30 15998 H 1534.19 1.1867 -3.99028 0
M  V30 15999 H 1534.72 -0.511472 -3.94498 0
M  V30 16000 H 1531.46 -2.73218 -5.95846 0
M  V30 16001 H 1530.98 -1.02027 -5.91059 0
M  V30 16002 H 1532.66 -1.46829 -6.30119 0
M  V30 16003 N 1532.79 1.52222 -0.408187 0
M  V30 16004 C 1534.01 2.06703 0.169901 0
M  V30 16005 C 1534.44 1.27635 1.3817 0
M  V30 16006 O 1533.8 0.306343 1.78693 0
M  V30 16007 C 1533.85 3.57121 0.499663 0
M  V30 16008 O 1532.95 3.80483 1.5908 0
M  V30 16009 H 1532.29 0.663839 0.0146145 0
M  V30 16010 H 1534.82 1.96174 -0.581113 0
M  V30 16011 H 1534.83 4.00886 0.758567 0
M  V30 16012 H 1533.51 4.14103 -0.386182 0
M  V30 16013 H 1532.08 3.48599 1.32413 0
M  V30 16014 N 1534.27 0.138579 1.5699 0
M  V30 16015 C 1535.68 -0.383633 1.82716 0
M  V30 16016 C 1536.03 -1.65304 1.05684 0
M  V30 16017 O 1535.15 -2.14318 0.299488 0
M  V30 16018 C 1535.75 -0.7028 3.3143 0
M  V30 16019 C 1534.31 -1.16957 3.57768 0
M  V30 16020 C 1533.46 -0.188295 2.7666 0
M  V30 16021 H 1536.41 0.363415 1.54483 0
M  V30 16022 H 1536.43 -1.55832 3.47126 0
M  V30 16023 H 1535.94 0.221271 3.87469 0
M  V30 16024 H 1534.04 -2.10987 3.07108 0
M  V30 16025 H 1534.15 -1.10136 4.66269 0
M  V30 16026 H 1532.52 -0.679255 2.45475 0
M  V30 16027 H 1533.3 0.729218 3.35466 0
M  V30 16028 N 1535.75 -1.57019 -0.13521 0
M  V30 16029 C 1537.16 -1.73319 -0.694067 0
M  V30 16030 C 1537.51 -0.754808 -1.811 0
M  V30 16031 O 1536.63 0.0759463 -2.16267 0
M  V30 16032 C 1537.23 -3.14266 -1.26579 0
M  V30 16033 C 1535.79 -3.32128 -1.7711 0
M  V30 16034 C 1534.93 -2.69226 -0.664263 0
M  V30 16035 H 1537.88 -1.58441 0.0905702 0
M  V30 16036 H 1537.91 -3.14919 -2.13557 0
M  V30 16037 H 1537.42 -3.85451 -0.452652 0
M  V30 16038 H 1535.52 -2.65959 -2.60953 0
M  V30 16039 H 1535.63 -4.40172 -1.8917 0
M  V30 16040 H 1534 -2.30016 -1.09384 0
M  V30 16041 H 1534.78 -3.43024 0.13763 0
M  V30 16042 N 1537.22 0.404919 -1.52309 0
M  V30 16043 C 1538.64 0.983553 -1.58692 0
M  V30 16044 C 1538.99 1.9143 -0.429993 0
M  V30 16045 O 1538.11 2.11689 0.449088 0
M  V30 16046 C 1538.71 1.79059 -2.87617 0
M  V30 16047 C 1537.27 2.31918 -2.96464 0
M  V30 16048 C 1536.41 1.12018 -2.53667 0
M  V30 16049 H 1539.36 0.185007 -1.57618 0
M  V30 16050 H 1539.38 2.64836 -2.73207 0
M  V30 16051 H 1538.9 1.11291 -3.71801 0
M  V30 16052 H 1537 3.03044 -2.16783 0
M  V30 16053 H 1537.11 2.62495 -4.00791 0
M  V30 16054 H 1535.47 1.47542 -2.07614 0
M  V30 16055 H 1536.26 0.458111 -3.4023 0
M  V30 16056 N 1538.7 1.43003 0.662408 0
M  V30 16057 C 1539.65 1.43898 1.76854 0
M  V30 16058 C 1540.64 0.308629 1.57912 0
M  V30 16059 O 1541.83 0.551757 1.6818 0
M  V30 16060 C 1538.96 1.35585 3.15391 0
M  V30 16061 C 1538.04 2.53614 3.39913 0
M  V30 16062 N 1538.43 3.78998 3.34954 0
M  V30 16063 C 1536.73 2.48141 3.70597 0
M  V30 16064 C 1537.43 4.57467 3.59303 0
M  V30 16065 N 1536.41 3.8806 3.80671 0
M  V30 16066 H 1540.21 2.38722 1.71432 0
M  V30 16067 H 1537.73 1.37526 0.863728 0
M  V30 16068 H 1539.72 1.34308 3.94673 0
M  V30 16069 H 1538.38 0.417735 3.22002 0
M  V30 16070 H 1539.39 4.11417 3.14574 0
M  V30 16071 H 1536.07 1.62971 3.84379 0
M  V30 16072 H 1537.46 5.66475 3.61326 0
M  V30 16073 N 1540.18 -0.899904 1.29381 0
M  V30 16074 C 1541.13 -1.9909 1.11119 0
M  V30 16075 C 1542.11 -1.60871 0.030676 0
M  V30 16076 O 1543.31 -1.75192 0.252365 0
M  V30 16077 C 1540.44 -3.34097 0.789552 0
M  V30 16078 C 1539.52 -3.78676 1.90959 0
M  V30 16079 N 1539.91 -3.95492 3.15309 0
M  V30 16080 C 1538.21 -4.0795 1.80258 0
M  V30 16081 C 1538.91 -4.33054 3.8838 0
M  V30 16082 N 1537.89 -4.42087 3.16322 0
M  V30 16083 H 1541.69 -2.1016 2.0545 0
M  V30 16084 H 1539.2 -1.08871 1.20503 0
M  V30 16085 H 1541.2 -4.11962 0.639765 0
M  V30 16086 H 1539.86 -3.24372 -0.14585 0
M  V30 16087 H 1540.87 -3.8103 3.50766 0
M  V30 16088 H 1537.55 -4.06783 0.939877 0
M  V30 16089 H 1538.94 -4.53912 4.95393 0
M  V30 16090 N 1541.66 -1.11854 -1.11024 0
M  V30 16091 C 1542.94 -0.781693 -1.79301 0
M  V30 16092 C 1543.32 0.72956 -1.98092 0
M  V30 16093 O 1542.66 1.66109 -1.56908 0
M  V30 16094 C 1542.87 -1.54976 -3.12703 0
M  V30 16095 C 1544.22 -1.73183 -3.87676 0
M  V30 16096 O 1545.25 -1.51437 -3.22406 0
M  V30 16097 O 1544.1 -2.0935 -5.04812 0
M  V30 16098 H 1541.2 -0.283672 -0.776826 0
M  V30 16099 H 1543.74 -1.22222 -1.17728 0
M  V30 16100 H 1542.52 -2.57759 -2.94408 0
M  V30 16101 H 1542.14 -1.10308 -3.81992 0
M  V30 16102 N 1543.14 1.28707 -0.909517 0
M  V30 16103 C 1544.39 1.94437 -0.536401 0
M  V30 16104 C 1544.7 1.72416 0.923685 0
M  V30 16105 O 1545.9 2.32333 1.40477 0
M  V30 16106 C 1544.36 3.48246 -0.908455 0
M  V30 16107 C 1543.97 3.79051 -2.38798 0
M  V30 16108 C 1545.71 4.20156 -0.605721 0
M  V30 16109 C 1543.62 5.2615 -2.70038 0
M  V30 16110 H 1542.55 0.727842 -0.196882 0
M  V30 16111 H 1545.2 1.46283 -1.10786 0
M  V30 16112 H 1543.58 3.95107 -0.265829 0
M  V30 16113 H 1544.76 3.43014 -3.07698 0
M  V30 16114 H 1543.07 3.20303 -2.66074 0
M  V30 16115 H 1545.67 5.28439 -0.815849 0
M  V30 16116 H 1546.01 4.13792 0.456266 0
M  V30 16117 H 1546.54 3.79059 -1.20662 0
M  V30 16118 H 1543.28 5.37587 -3.75073 0
M  V30 16119 H 1542.8 5.63399 -2.05771 0
M  V30 16120 H 1544.48 5.93846 -2.56819 0
M  V30 16121 N 1544.61 0.673042 1.42506 0
M  V30 16122 C 1545.84 0.202628 2.05604 0
M  V30 16123 C 1546.25 -1.14466 1.50646 0
M  V30 16124 O 1545.6 -1.7218 0.6403 0
M  V30 16125 C 1545.66 0.0583637 3.59453 0
M  V30 16126 C 1545.32 1.33408 4.37094 0
M  V30 16127 C 1546.32 2.26717 4.67863 0
M  V30 16128 C 1544 1.58119 4.76764 0
M  V30 16129 C 1546 3.43014 5.37234 0
M  V30 16130 C 1543.68 2.74706 5.45875 0
M  V30 16131 C 1544.68 3.66978 5.76035 0
M  V30 16132 O 1544.37 4.81526 6.4373 0
M  V30 16133 H 1544.1 0.0964964 0.669077 0
M  V30 16134 H 1546.66 0.919656 1.83661 0
M  V30 16135 H 1544.89 -0.714227 3.80047 0
M  V30 16136 H 1546.58 -0.37195 4.04192 0
M  V30 16137 H 1547.34 2.08875 4.37717 0
M  V30 16138 H 1543.22 0.871705 4.52683 0
M  V30 16139 H 1546.76 4.15055 5.60692 0
M  V30 16140 H 1542.66 2.92474 5.75438 0
M  V30 16141 H 1543.43 4.81047 6.6222 0
M  V30 16142 N 1546.09 -1.52004 0.416254 0
M  V30 16143 C 1547.32 -2.0679 -0.158937 0
M  V30 16144 C 1547.74 -1.28366 -1.37491 0
M  V30 16145 O 1547.1 -0.315815 -1.78528 0
M  V30 16146 C 1547.15 -3.57381 -0.480717 0
M  V30 16147 O 1546.25 -3.81321 -1.5706 0
M  V30 16148 H 1545.59 -0.663907 -0.0110938 0
M  V30 16149 H 1548.12 -1.95863 0.591509 0
M  V30 16150 H 1548.13 -4.01283 -0.737297 0
M  V30 16151 H 1546.81 -4.13893 0.408137 0
M  V30 16152 H 1545.39 -3.49296 -1.30563 0
M  V30 16153 N 1547.57 -0.146903 -1.56914 0
M  V30 16154 C 1548.82 0.504195 -1.95297 0
M  V30 16155 C 1549.13 1.66019 -1.03426 0
M  V30 16156 O 1550.34 2.37591 -1.31388 0
M  V30 16157 C 1548.79 0.948348 -3.47181 0
M  V30 16158 C 1548.4 -0.18071 -4.47635 0
M  V30 16159 C 1550.15 1.56924 -3.9443 0
M  V30 16160 C 1548.05 0.281707 -5.90729 0
M  V30 16161 H 1546.98 0.192127 -0.729111 0
M  V30 16162 H 1549.63 -0.231232 -1.82037 0
M  V30 16163 H 1548.02 1.73903 -3.55772 0
M  V30 16164 H 1549.19 -0.957645 -4.50739 0
M  V30 16165 H 1547.51 -0.710007 -4.10302 0
M  V30 16166 H 1550.1 1.92684 -4.98776 0
M  V30 16167 H 1550.45 2.45816 -3.35976 0
M  V30 16168 H 1550.98 0.843456 -3.88755 0
M  V30 16169 H 1547.72 -0.571839 -6.53001 0
M  V30 16170 H 1547.24 1.02452 -5.90985 0
M  V30 16171 H 1548.92 0.733746 -6.42826 0
M  V30 16172 N 1549.05 1.57088 0.126881 0
M  V30 16173 C 1549.96 2.03053 1.17502 0
M  V30 16174 C 1550.97 0.949484 1.45811 0
M  V30 16175 O 1552.15 1.26043 1.57083 0
M  V30 16176 C 1549.22 2.41897 2.48368 0
M  V30 16177 C 1548.28 3.64047 2.27527 0
M  V30 16178 C 1547.51 4.01029 3.52153 0
M  V30 16179 O 1547.73 3.38441 4.59145 0
M  V30 16180 O 1546.67 4.94174 3.43622 0
M  V30 16181 H 1550.49 2.92568 0.814733 0
M  V30 16182 H 1548.08 1.45547 0.3371 0
M  V30 16183 H 1549.96 2.67652 3.25485 0
M  V30 16184 H 1548.63 1.55531 2.83887 0
M  V30 16185 H 1547.54 3.43452 1.48294 0
M  V30 16186 H 1548.87 4.51093 1.96916 0
M  V30 16187 N 1550.53 -0.396836 1.52522 0
M  V30 16188 C 1551.8 -1.15638 1.57757 0
M  V30 16189 C 1552.18 -2.07903 0.365998 0
M  V30 16190 O 1551.53 -2.1917 -0.646266 0
M  V30 16191 C 1551.74 -1.92292 2.91247 0
M  V30 16192 C 1553.09 -2.47929 3.44697 0
M  V30 16193 O 1554.11 -2.02458 2.93069 0
M  V30 16194 O 1552.97 -3.30969 4.34881 0
M  V30 16195 H 1550.07 -0.52867 0.635953 0
M  V30 16196 H 1552.61 -0.402622 1.64855 0
M  V30 16197 H 1551.38 -1.24775 3.70873 0
M  V30 16198 H 1551.01 -2.74646 2.87498 0
M  V30 16199 N 1552.01 -1.43353 -0.654814 0
M  V30 16200 C 1552.94 -1.51194 -1.7794 0
M  V30 16201 C 1553.92 -0.366747 -1.66099 0
M  V30 16202 O 1555.1 -0.58375 -1.85219 0
M  V30 16203 C 1552.23 -1.43298 -3.16359 0
M  V30 16204 C 1551.19 -2.5605 -3.42961 0
M  V30 16205 C 1550.51 -2.33208 -4.81163 0
M  V30 16206 C 1551.81 -3.98303 -3.37864 0
M  V30 16207 H 1553.51 -2.4532 -1.71635 0
M  V30 16208 H 1551.05 -1.18072 -0.824319 0
M  V30 16209 H 1553 -1.47388 -3.94784 0
M  V30 16210 H 1551.73 -0.456761 -3.2339 0
M  V30 16211 H 1550.39 -2.5131 -2.66906 0
M  V30 16212 H 1550.04 -1.33833 -4.84869 0
M  V30 16213 H 1549.74 -3.08789 -4.99923 0
M  V30 16214 H 1551.26 -2.39079 -5.61848 0
M  V30 16215 H 1552.67 -4.04538 -4.06229 0
M  V30 16216 H 1551.07 -4.73897 -3.6816 0
M  V30 16217 H 1552.14 -4.23552 -2.36075 0
M  V30 16218 N 1553.48 0.89303 -1.29857 0
M  V30 16219 C 1554.45 1.97944 -1.15546 0
M  V30 16220 C 1555.45 1.60554 -0.088989 0
M  V30 16221 O 1556.64 1.7092 -0.336464 0
M  V30 16222 C 1553.77 3.32126 -0.768442 0
M  V30 16223 H 1554.96 2.12067 -2.12055 0
M  V30 16224 H 1552.51 1.0784 -1.13138 0
M  V30 16225 H 1553.25 3.23704 0.196504 0
M  V30 16226 H 1553.03 3.60631 -1.53907 0
M  V30 16227 H 1554.52 4.11834 -0.691559 0
M  V30 16228 N 1554.96 1.12442 1.10429 0
M  V30 16229 C 1555.89 0.750131 2.16577 0
M  V30 16230 C 1556.91 -0.223265 1.61262 0
M  V30 16231 O 1558.1 -0.00459454 1.78499 0
M  V30 16232 C 1555.2 0.0895474 3.38782 0
M  V30 16233 C 1554.37 1.09242 4.23539 0
M  V30 16234 C 1553.43 0.45945 5.2419 0
M  V30 16235 O 1552.45 1.11646 5.58143 0
M  V30 16236 N 1553.66 -0.773093 5.75329 0
M  V30 16237 H 1556.42 1.66349 2.49295 0
M  V30 16238 H 1553.98 1.01603 1.26049 0
M  V30 16239 H 1555.97 -0.345895 4.03219 0
M  V30 16240 H 1554.54 -0.726572 3.04039 0
M  V30 16241 H 1553.76 1.70549 3.55396 0
M  V30 16242 H 1555.05 1.77057 4.76999 0
M  V30 16243 H 1554.45 -1.32585 5.49943 0
M  V30 16244 H 1553.01 -1.15135 6.41551 0
M  V30 16245 N 1556.44 -1.28223 0.91633 0
M  V30 16246 C 1557.37 -2.29623 0.423735 0
M  V30 16247 C 1558.35 -1.62274 -0.510016 0
M  V30 16248 O 1559.54 -1.89666 -0.4172 0
M  V30 16249 C 1556.67 -3.45684 -0.334686 0
M  V30 16250 C 1555.62 -4.24949 0.510169 0
M  V30 16251 C 1554.95 -5.33371 -0.376745 0
M  V30 16252 C 1556.25 -4.91438 1.76877 0
M  V30 16253 H 1557.94 -2.71076 1.27115 0
M  V30 16254 H 1555.49 -1.30316 0.612678 0
M  V30 16255 H 1557.44 -4.1571 -0.690154 0
M  V30 16256 H 1556.16 -3.03118 -1.21603 0
M  V30 16257 H 1554.82 -3.56653 0.848191 0
M  V30 16258 H 1554.47 -4.87048 -1.25671 0
M  V30 16259 H 1554.17 -5.87309 0.18496 0
M  V30 16260 H 1555.69 -6.06244 -0.728039 0
M  V30 16261 H 1557.11 -5.53812 1.48205 0
M  V30 16262 H 1555.5 -5.55384 2.27308 0
M  V30 16263 H 1556.57 -4.15783 2.49505 0
M  V30 16264 N 1557.92 -0.68059 -1.42147 0
M  V30 16265 C 1559.17 -0.202445 -2.00681 0
M  V30 16266 C 1559.48 1.19997 -1.54467 0
M  V30 16267 O 1560.69 1.77479 -2.05459 0
M  V30 16268 C 1559.14 -0.311064 -3.58553 0
M  V30 16269 C 1558.75 -1.7179 -4.13754 0
M  V30 16270 C 1560.49 0.108072 -4.24362 0
M  V30 16271 C 1558.4 -1.77897 -5.64009 0
M  V30 16272 H 1557.33 -0.0719266 -0.750561 0
M  V30 16273 H 1559.98 -0.846614 -1.62803 0
M  V30 16274 H 1558.36 0.401098 -3.93963 0
M  V30 16275 H 1559.54 -2.45761 -3.89793 0
M  V30 16276 H 1557.85 -2.08539 -3.60417 0
M  V30 16277 H 1560.45 0.0826684 -5.34636 0
M  V30 16278 H 1560.79 1.14431 -4.00264 0
M  V30 16279 H 1561.33 -0.553285 -3.93933 0
M  V30 16280 H 1558.06 -2.79523 -5.92914 0
M  V30 16281 H 1557.58 -1.0829 -5.89944 0
M  V30 16282 H 1559.26 -1.53504 -6.28527 0
M  V30 16283 N 1559.4 1.51781 -0.424309 0
M  V30 16284 C 1560.63 2.06088 0.145337 0
M  V30 16285 C 1561.03 1.29297 1.38127 0
M  V30 16286 O 1560.38 0.342227 1.80484 0
M  V30 16287 C 1560.44 3.55333 0.545777 0
M  V30 16288 C 1560.1 4.53285 -0.581528 0
M  V30 16289 C 1561.1 4.99278 -1.44973 0
M  V30 16290 C 1558.78 4.96539 -0.758549 0
M  V30 16291 C 1560.78 5.87185 -2.47977 0
M  V30 16292 C 1558.47 5.84239 -1.79188 0
M  V30 16293 C 1559.46 6.29458 -2.65089 0
M  V30 16294 O 1559.15 7.15418 -3.6665 0
M  V30 16295 H 1558.88 0.675782 0.0171719 0
M  V30 16296 H 1561.44 1.96492 -0.598349 0
M  V30 16297 H 1559.67 3.62668 1.34197 0
M  V30 16298 H 1561.36 3.92215 1.04508 0
M  V30 16299 H 1562.12 4.66566 -1.32445 0
M  V30 16300 H 1558 4.60893 -0.0995452 0
M  V30 16301 H 1561.55 6.22401 -3.15059 0
M  V30 16302 H 1557.44 6.16365 -1.91742 0
M  V30 16303 H 1558.21 7.33566 -3.63074 0
M  V30 16304 N 1560.87 0.155222 1.56834 0
M  V30 16305 C 1562.15 -0.539327 1.88018 0
M  V30 16306 C 1562.53 -1.8241 1.06253 0
M  V30 16307 O 1561.88 -2.27996 0.151721 0
M  V30 16308 C 1562.09 -0.796826 3.39782 0
M  V30 16309 C 1563.44 -1.13397 4.09178 0
M  V30 16310 O 1564.46 -0.885907 3.45007 0
M  V30 16311 O 1563.32 -1.60117 5.22518 0
M  V30 16312 H 1560.41 -0.276066 0.779562 0
M  V30 16313 H 1562.96 0.192451 1.68605 0
M  V30 16314 H 1561.73 0.112097 3.91139 0
M  V30 16315 H 1561.35 -1.5825 3.6475 0
M  V30 16316 N 1562.35 -1.57153 -0.118549 0
M  V30 16317 C 1563.28 -2.03409 -1.1466 0
M  V30 16318 C 1564.26 -0.918636 -1.43161 0
M  V30 16319 O 1565.45 -1.18838 -1.53594 0
M  V30 16320 C 1562.58 -2.43879 -2.47265 0
M  V30 16321 C 1561.53 -3.58873 -2.33225 0
M  V30 16322 C 1560.86 -3.85244 -3.70798 0
M  V30 16323 C 1562.16 -4.90582 -1.79239 0
M  V30 16324 H 1563.85 -2.89545 -0.761862 0
M  V30 16325 H 1561.4 -1.39296 -0.365034 0
M  V30 16326 H 1563.35 -2.74844 -3.19435 0
M  V30 16327 H 1562.07 -1.54715 -2.8763 0
M  V30 16328 H 1560.73 -3.28119 -1.63504 0
M  V30 16329 H 1560.38 -2.93285 -4.08648 0
M  V30 16330 H 1560.08 -4.62649 -3.62257 0
M  V30 16331 H 1561.61 -4.18661 -4.44472 0
M  V30 16332 H 1563.02 -5.20079 -2.41227 0
M  V30 16333 H 1561.42 -5.71989 -1.81518 0
M  V30 16334 H 1562.49 -4.79065 -0.74999 0
M  V30 16335 N 1563.83 0.388742 -1.5273 0
M  V30 16336 C 1564.78 1.47445 -1.73908 0
M  V30 16337 C 1565.76 1.49567 -0.593164 0
M  V30 16338 O 1566.96 1.552 -0.851006 0
M  V30 16339 C 1564.08 2.85155 -1.91159 0
M  V30 16340 C 1563.17 2.87601 -3.11683 0
M  V30 16341 N 1563.56 2.59718 -4.34028 0
M  V30 16342 C 1561.86 3.18769 -3.11933 0
M  V30 16343 C 1562.56 2.69254 -5.15633 0
M  V30 16344 N 1561.54 3.02996 -4.51325 0
M  V30 16345 H 1565.34 1.24714 -2.66127 0
M  V30 16346 H 1562.85 0.596694 -1.51041 0
M  V30 16347 H 1564.85 3.63325 -2.04452 0
M  V30 16348 H 1563.51 3.08868 -1.00153 0
M  V30 16349 H 1564.52 2.33735 -4.62156 0
M  V30 16350 H 1561.2 3.47946 -2.30738 0
M  V30 16351 H 1562.59 2.51239 -6.2316 0
M  V30 16352 N 1565.31 1.43698 0.647203 0
M  V30 16353 C 1566.24 1.45295 1.77262 0
M  V30 16354 C 1567.25 0.34831 1.5903 0
M  V30 16355 O 1568.44 0.613106 1.6764 0
M  V30 16356 C 1565.54 1.25584 3.14773 0
M  V30 16357 C 1564.71 2.48998 3.59609 0
M  V30 16358 C 1563.77 2.24423 4.75942 0
M  V30 16359 O 1562.8 2.97813 4.85073 0
M  V30 16360 N 1564 1.26465 5.66557 0
M  V30 16361 H 1566.77 2.42311 1.76368 0
M  V30 16362 H 1564.33 1.38931 0.831247 0
M  V30 16363 H 1566.32 1.07016 3.90294 0
M  V30 16364 H 1564.89 0.369927 3.10403 0
M  V30 16365 H 1564.11 2.82951 2.74467 0
M  V30 16366 H 1565.4 3.31119 3.86313 0
M  V30 16367 H 1564.8 0.658206 5.61858 0
M  V30 16368 H 1563.35 1.13879 6.41775 0
M  V30 16369 N 1566.79 -0.886131 1.30328 0
M  V30 16370 C 1568.04 -1.63255 1.18451 0
M  V30 16371 C 1568.35 -1.93864 -0.260016 0
M  V30 16372 O 1569.55 -2.66851 -0.500288 0
M  V30 16373 C 1568.01 -2.94232 2.07257 0
M  V30 16374 C 1567.62 -2.71168 3.56612 0
M  V30 16375 C 1569.36 -3.72193 2.04139 0
M  V30 16376 C 1567.27 -3.97954 4.37478 0
M  V30 16377 H 1566.2 -0.612491 0.439739 0
M  V30 16378 H 1568.85 -0.981129 1.55068 0
M  V30 16379 H 1567.23 -3.60661 1.63522 0
M  V30 16380 H 1568.41 -2.13247 4.08488 0
M  V30 16381 H 1566.72 -2.06584 3.61541 0
M  V30 16382 H 1569.32 -4.66219 2.61809 0
M  V30 16383 H 1569.66 -4.03495 1.02459 0
M  V30 16384 H 1570.19 -3.12624 2.45989 0
M  V30 16385 H 1566.93 -3.71811 5.39849 0
M  V30 16386 H 1566.45 -4.55384 3.90366 0
M  V30 16387 H 1568.13 -4.65984 4.48852 0
M  V30 16388 N 1568.26 -1.13026 -1.09832 0
M  V30 16389 C 1569.21 -0.799174 -2.1844 0
M  V30 16390 C 1570.21 0.216695 -1.68008 0
M  V30 16391 O 1571.41 0.0742662 -1.79847 0
M  V30 16392 H 1567.79 -0.24064 -0.712458 0
M  V30 16393 H 1569.76 -1.72342 -2.436 0
M  V30 16394 C 1568.51 -0.276925 -3.46595 0
M  V30 16395 H 1567.83 -1.04993 -3.85768 0
M  V30 16396 H 1569.27 -0.0836468 -4.23917 0
M  V30 16397 C 1567.73 0.996479 -3.21826 0
M  V30 16398 O 1568.26 2.0731 -3.44072 0
M  V30 16399 N 1566.47 0.925903 -2.75455 0
M  V30 16400 H 1566.01 0.0496383 -2.57552 0
M  V30 16401 H 1565.97 1.77853 -2.5926 0
M  V30 16402 N 1569.74 1.27735 -0.923117 0
M  V30 16403 C 1571.15 1.76579 -0.606376 0
M  V30 16404 C 1571.5 1.75437 0.878428 0
M  V30 16405 O 1570.63 1.35495 1.68731 0
M  V30 16406 C 1571.22 3.20652 -1.09396 0
M  V30 16407 C 1569.78 3.67181 -0.827974 0
M  V30 16408 C 1568.93 2.47259 -1.25532 0
M  V30 16409 H 1571.88 1.14067 -1.10338 0
M  V30 16410 H 1571.9 3.77952 -0.439581 0
M  V30 16411 H 1571.41 3.21451 -2.17465 0
M  V30 16412 H 1569.52 3.71832 0.239098 0
M  V30 16413 H 1569.63 4.56875 -1.44229 0
M  V30 16414 H 1567.99 2.45622 -0.673928 0
M  V30 16415 H 1568.78 2.50771 -2.34455 0
M  V30 16416 N 1571.22 0.688118 1.41784 0
M  V30 16417 C 1572.13 0.018397 2.34593 0
M  V30 16418 C 1573.15 -0.774275 1.55824 0
M  V30 16419 O 1574.32 -0.713546 1.88336 0
M  V30 16420 C 1571.39 -0.911914 3.34492 0
M  V30 16421 C 1570.45 -0.112284 4.29153 0
M  V30 16422 C 1569.68 -0.998285 5.2428 0
M  V30 16423 O 1569.9 -2.23782 5.24669 0
M  V30 16424 O 1568.84 -0.451951 6.00201 0
M  V30 16425 H 1572.66 0.783224 2.93427 0
M  V30 16426 H 1570.25 0.448413 1.42512 0
M  V30 16427 H 1572.13 -1.4456 3.95829 0
M  V30 16428 H 1570.81 -1.65636 2.78112 0
M  V30 16429 H 1569.71 0.465822 3.71189 0
M  V30 16430 H 1571.05 0.593338 4.88611 0
M  V30 16431 N 1572.7 -1.51554 0.432352 0
M  V30 16432 C 1573.66 -2.26195 -0.369912 0
M  V30 16433 C 1574.66 -1.29446 -0.953961 0
M  V30 16434 O 1575.85 -1.53199 -0.829193 0
M  V30 16435 C 1572.98 -3.04993 -1.52289 0
M  V30 16436 H 1574.18 -2.98551 0.284173 0
M  V30 16437 H 1571.73 -1.55197 0.1854 0
M  V30 16438 H 1572.46 -2.37043 -2.21317 0
M  V30 16439 H 1572.25 -3.76051 -1.11032 0
M  V30 16440 H 1573.74 -3.61547 -2.08982 0
M  V30 16441 N 1574.18 -0.163538 -1.56749 0
M  V30 16442 C 1575.11 0.801071 -2.14745 0
M  V30 16443 C 1576.12 1.1992 -1.10104 0
M  V30 16444 O 1577.31 1.14041 -1.37321 0
M  V30 16445 C 1574.41 2.08867 -2.66886 0
M  V30 16446 C 1573.58 1.85532 -3.96102 0
M  V30 16447 C 1572.64 2.98436 -4.33385 0
M  V30 16448 O 1571.67 2.69408 -5.01406 0
M  V30 16449 N 1572.87 4.26029 -3.94309 0
M  V30 16450 H 1575.64 0.3053 -2.98141 0
M  V30 16451 H 1573.2 0.019501 -1.61888 0
M  V30 16452 H 1575.19 2.83477 -2.8883 0
M  V30 16453 H 1573.76 2.49657 -1.88122 0
M  V30 16454 H 1572.98 0.94868 -3.82614 0
M  V30 16455 H 1574.27 1.673 -4.80508 0
M  V30 16456 H 1573.66 4.52475 -3.39533 0
M  V30 16457 H 1572.22 4.97367 -4.21271 0
M  V30 16458 N 1575.65 1.57214 0.110213 0
M  V30 16459 C 1576.9 1.85586 0.817649 0
M  V30 16460 C 1577.23 0.750536 1.79111 0
M  V30 16461 O 1576.51 -0.242864 1.92978 0
M  V30 16462 C 1576.79 3.24565 1.55979 0
M  V30 16463 C 1576.64 4.45708 0.605339 0
M  V30 16464 C 1577.96 3.61233 2.51393 0
M  V30 16465 H 1575.08 0.675037 0.295794 0
M  V30 16466 H 1577.72 1.89824 0.0816541 0
M  V30 16467 H 1575.87 3.21083 2.18718 0
M  V30 16468 H 1577.55 4.61298 -0.0138894 0
M  V30 16469 H 1575.79 4.33722 -0.0824644 0
M  V30 16470 H 1576.46 5.39643 1.16143 0
M  V30 16471 H 1578.94 3.65563 1.98754 0
M  V30 16472 H 1577.81 4.59438 3.00346 0
M  V30 16473 H 1578.07 2.89116 3.34461 0
M  V30 16474 N 1577.13 -0.380637 1.52934 0
M  V30 16475 C 1578.36 -1.15033 1.72575 0
M  V30 16476 C 1578.78 -1.82715 0.446869 0
M  V30 16477 O 1578.14 -1.71154 -0.598004 0
M  V30 16478 C 1578.19 -2.16773 2.8817 0
M  V30 16479 O 1577.29 -3.23539 2.55727 0
M  V30 16480 H 1576.63 -0.334489 0.573597 0
M  V30 16481 H 1579.16 -0.442369 1.9976 0
M  V30 16482 H 1579.17 -2.60629 3.13905 0
M  V30 16483 H 1577.85 -1.669 3.80943 0
M  V30 16484 H 1576.43 -2.84761 2.4076 0
M  V30 16485 N 1578.61 -1.44039 -0.639573 0
M  V30 16486 C 1579.86 -1.46594 -1.40136 0
M  V30 16487 C 1580.19 -0.0949646 -1.93968 0
M  V30 16488 O 1579.46 0.886201 -1.73138 0
M  V30 16489 C 1579.75 -2.51947 -2.57283 0
M  V30 16490 C 1579.6 -3.98371 -2.08855 0
M  V30 16491 C 1580.92 -2.53891 -3.59482 0
M  V30 16492 H 1578.04 -0.533759 -0.508203 0
M  V30 16493 H 1580.68 -1.75669 -0.723898 0
M  V30 16494 H 1578.83 -2.27285 -3.15077 0
M  V30 16495 H 1580.5 -4.34137 -1.55956 0
M  V30 16496 H 1578.75 -4.10551 -1.40109 0
M  V30 16497 H 1579.42 -4.67721 -2.93157 0
M  V30 16498 H 1581.89 -2.75906 -3.11473 0
M  V30 16499 H 1580.77 -3.29524 -4.38982 0
M  V30 16500 H 1581.03 -1.57774 -4.12989 0
M  V30 16501 N 1580.09 0.879207 -1.30796 0
M  V30 16502 C 1581.04 1.98553 -1.17667 0
M  V30 16503 C 1582.01 1.65974 -0.0647231 0
M  V30 16504 O 1583.19 1.89336 -0.235941 0
M  V30 16505 C 1580.33 3.3368 -0.880434 0
M  V30 16506 C 1579.44 3.78913 -2.07482 0
M  V30 16507 C 1578.58 5.02714 -1.71617 0
M  V30 16508 C 1577.62 5.40371 -2.87517 0
M  V30 16509 N 1576.75 6.55352 -2.5191 0
M  V30 16510 H 1581.59 2.09115 -2.12309 0
M  V30 16511 H 1579.13 1.02382 -1.05623 0
M  V30 16512 H 1581.09 4.11467 -0.689278 0
M  V30 16513 H 1579.72 3.22787 0.0291283 0
M  V30 16514 H 1578.77 2.96987 -2.37704 0
M  V30 16515 H 1580.08 4.02757 -2.94259 0
M  V30 16516 H 1579.24 5.88142 -1.4891 0
M  V30 16517 H 1577.98 4.80754 -0.820181 0
M  V30 16518 H 1576.98 4.53466 -3.10883 0
M  V30 16519 H 1578.21 5.64301 -3.77811 0
M  V30 16520 H 1576.15 6.34956 -1.64823 0
M  V30 16521 H 1576.07 6.79093 -3.32217 0
M  V30 16522 H 1577.34 7.43996 -2.32573 0
M  V30 16523 N 1581.57 1.13606 1.09231 0
M  V30 16524 C 1582.5 0.837908 2.17948 0
M  V30 16525 C 1583.48 -0.203575 1.68877 0
M  V30 16526 O 1584.66 -0.0620702 1.94101 0
M  V30 16527 C 1581.79 0.305342 3.45955 0
M  V30 16528 C 1580.75 1.2813 4.08371 0
M  V30 16529 C 1580.07 0.608412 5.31227 0
M  V30 16530 C 1581.37 2.64055 4.50636 0
M  V30 16531 H 1583.07 1.747 2.43147 0
M  V30 16532 H 1580.61 0.84141 1.1686 0
M  V30 16533 H 1582.57 0.0844116 4.21315 0
M  V30 16534 H 1581.29 -0.639144 3.20285 0
M  V30 16535 H 1579.95 1.48826 3.35032 0
M  V30 16536 H 1579.6 -0.341613 5.01839 0
M  V30 16537 H 1579.3 1.25956 5.73942 0
M  V30 16538 H 1580.82 0.396809 6.09309 0
M  V30 16539 H 1582.24 2.47316 5.17212 0
M  V30 16540 H 1580.63 3.25364 5.0424 0
M  V30 16541 H 1581.7 3.21566 3.62937 0
M  V30 16542 N 1583.05 -1.27244 0.929878 0
M  V30 16543 C 1584.29 -1.94557 0.572306 0
M  V30 16544 C 1584.62 -1.72886 -0.884542 0
M  V30 16545 O 1583.9 -1.0592 -1.63129 0
M  V30 16546 C 1584.18 -3.48629 0.901675 0
M  V30 16547 C 1584.04 -3.79633 2.41244 0
M  V30 16548 C 1585.35 -4.38195 0.409093 0
M  V30 16549 H 1582.47 -0.706627 0.209397 0
M  V30 16550 H 1585.12 -1.50321 1.16205 0
M  V30 16551 H 1583.27 -3.86437 0.399791 0
M  V30 16552 H 1584.94 -3.51604 2.98618 0
M  V30 16553 H 1583.18 -3.26108 2.8607 0
M  V30 16554 H 1583.85 -4.87284 2.59342 0
M  V30 16555 H 1586.33 -4.07548 0.839256 0
M  V30 16556 H 1585.2 -5.44814 0.668482 0
M  V30 16557 H 1585.46 -4.36669 -0.690861 0
M  V30 16558 N 1584.52 -0.695628 -1.41417 0
M  V30 16559 C 1585.49 -0.0392949 -2.29166 0
M  V30 16560 C 1586.49 0.70789 -1.4438 0
M  V30 16561 O 1587.68 0.542771 -1.65528 0
M  V30 16562 C 1584.81 0.954719 -3.27258 0
M  V30 16563 H 1586 -0.811902 -2.88701 0
M  V30 16564 H 1583.55 -0.459128 -1.49405 0
M  V30 16565 H 1584.29 1.75509 -2.72703 0
M  V30 16566 H 1584.07 0.422079 -3.89822 0
M  V30 16567 H 1585.56 1.41174 -3.93014 0
M  V30 16568 N 1586 1.51322 -0.440383 0
M  V30 16569 C 1586.91 2.31574 0.37561 0
M  V30 16570 C 1587.93 1.40617 1.02483 0
M  V30 16571 O 1589.1 1.73688 1.01953 0
M  V30 16572 C 1586.17 3.14441 1.4604 0
M  V30 16573 C 1585.23 4.21181 0.830991 0
M  V30 16574 C 1584.46 5.00087 1.86409 0
M  V30 16575 O 1584.69 4.79666 3.08669 0
M  V30 16576 O 1583.62 5.84101 1.45293 0
M  V30 16577 H 1587.45 3.0241 -0.27962 0
M  V30 16578 H 1585.03 1.48016 -0.202857 0
M  V30 16579 H 1586.91 3.6595 2.08946 0
M  V30 16580 H 1585.59 2.46366 2.09965 0
M  V30 16581 H 1584.49 3.73741 0.163798 0
M  V30 16582 H 1585.83 4.91638 0.235174 0
M  V30 16583 N 1587.48 0.171848 1.5666 0
M  V30 16584 C 1588.73 -0.473061 1.96074 0
M  V30 16585 C 1589.04 -1.64353 1.06054 0
M  V30 16586 O 1590.25 -2.35471 1.35151 0
M  V30 16587 C 1588.7 -0.892995 3.48645 0
M  V30 16588 C 1588.31 0.251902 4.47291 0
M  V30 16589 C 1590.06 -1.50629 3.96877 0
M  V30 16590 C 1587.96 -0.187691 5.91102 0
M  V30 16591 H 1586.89 -0.180503 0.732075 0
M  V30 16592 H 1589.54 0.260164 1.81646 0
M  V30 16593 H 1587.93 -1.68221 3.58494 0
M  V30 16594 H 1589.1 1.02923 4.49159 0
M  V30 16595 H 1587.41 0.775193 4.09121 0
M  V30 16596 H 1590.01 -1.84724 5.01778 0
M  V30 16597 H 1590.35 -2.4044 3.39844 0
M  V30 16598 H 1590.89 -0.781502 3.90048 0
M  V30 16599 H 1587.63 0.675653 6.52009 0
M  V30 16600 H 1587.15 -0.93037 5.9254 0
M  V30 16601 H 1588.83 -0.631385 6.43912 0
M  V30 16602 N 1588.96 -1.5727 -0.101874 0
M  V30 16603 C 1590.21 -1.85375 -0.805007 0
M  V30 16604 C 1590.53 -0.759564 -1.79599 0
M  V30 16605 O 1589.8 0.21484 -1.94718 0
M  V30 16606 H 1588.38 -0.683987 -0.300284 0
M  V30 16607 H 1591.04 -1.94714 -0.0851166 0
M  V30 16608 H 1590.13 -2.81881 -1.33976 0
M  V30 16609 N 1590.44 0.372521 -1.53134 0
M  V30 16610 C 1591.68 1.11316 -1.68201 0
M  V30 16611 C 1592 1.90662 -0.436714 0
M  V30 16612 O 1593.2 2.67439 -0.467802 0
M  V30 16613 C 1591.66 2.02808 -2.97317 0
M  V30 16614 C 1591.27 1.28806 -4.29084 0
M  V30 16615 C 1593.01 2.76906 -3.2175 0
M  V30 16616 C 1590.92 2.19159 -5.49294 0
M  V30 16617 H 1589.85 0.419264 -0.626685 0
M  V30 16618 H 1592.5 0.374677 -1.79634 0
M  V30 16619 H 1590.88 2.80359 -2.79669 0
M  V30 16620 H 1592.06 0.563661 -4.5734 0
M  V30 16621 H 1590.37 0.665989 -4.1104 0
M  V30 16622 H 1592.97 3.44721 -4.08744 0
M  V30 16623 H 1593.31 3.41894 -2.37517 0
M  V30 16624 H 1593.84 2.06441 -3.4004 0
M  V30 16625 H 1590.58 1.5876 -6.35984 0
M  V30 16626 H 1590.1 2.89468 -5.25327 0
M  V30 16627 H 1591.78 2.78874 -5.83814 0
M  V30 16628 N 1591.91 1.44376 0.631925 0
M  V30 16629 C 1593.16 1.46827 1.38875 0
M  V30 16630 C 1593.48 0.101789 1.94734 0
M  V30 16631 O 1592.75 -0.86579 1.7573 0
M  V30 16632 H 1591.33 0.540642 0.515475 0
M  V30 16633 H 1593.99 1.80148 0.743822 0
M  V30 16634 H 1593.09 2.19321 2.22047 0
M  V30 16635 N 1593.39 -0.872258 1.31261 0
M  V30 16636 C 1594.62 -1.65795 1.23772 0
M  V30 16637 C 1595.03 -1.87766 -0.197351 0
M  V30 16638 O 1594.39 -1.43418 -1.1286 0
M  V30 16639 C 1594.44 -3.02722 1.9759 0
M  V30 16640 O 1594.16 -2.81734 3.35496 0
M  V30 16641 C 1595.66 -3.97165 1.96913 0
M  V30 16642 H 1592.88 -0.516959 0.427778 0
M  V30 16643 H 1595.43 -1.0889 1.73099 0
M  V30 16644 H 1593.58 -3.56322 1.5203 0
M  V30 16645 H 1594 -3.6869 3.73052 0
M  V30 16646 H 1595.47 -4.90566 2.53079 0
M  V30 16647 H 1595.95 -4.28778 0.951089 0
M  V30 16648 H 1596.55 -3.495 2.42342 0
M  V30 16649 N 1594.87 -1.14184 -1.08627 0
M  V30 16650 C 1596.12 -0.903271 -1.80344 0
M  V30 16651 C 1596.43 0.571801 -1.87056 0
M  V30 16652 O 1597.64 0.92756 -2.55164 0
M  V30 16653 C 1596.09 -1.56653 -3.24018 0
M  V30 16654 C 1595.7 -3.07771 -3.25548 0
M  V30 16655 C 1597.45 -1.40899 -4.00434 0
M  V30 16656 C 1595.35 -3.66943 -4.63796 0
M  V30 16657 H 1594.28 -0.334288 -0.675846 0
M  V30 16658 H 1596.93 -1.3705 -1.22023 0
M  V30 16659 H 1595.32 -1.02698 -3.82452 0
M  V30 16660 H 1596.49 -3.68375 -2.76834 0
M  V30 16661 H 1594.8 -3.23136 -2.62625 0
M  V30 16662 H 1597.4 -1.82511 -5.02587 0
M  V30 16663 H 1597.74 -0.354822 -4.14785 0
M  V30 16664 H 1598.28 -1.91879 -3.48464 0
M  V30 16665 H 1595.02 -4.72203 -4.54648 0
M  V30 16666 H 1594.54 -3.11119 -5.12801 0
M  V30 16667 H 1596.22 -3.67103 -5.32771 0
M  V30 16668 N 1596.35 1.26749 -0.936613 0
M  V30 16669 C 1597.31 2.24794 -0.447243 0
M  V30 16670 C 1598.31 1.54688 0.439135 0
M  V30 16671 O 1599.5 1.72553 0.238957 0
M  V30 16672 C 1596.63 3.39036 0.355958 0
M  V30 16673 H 1597.83 2.696 -1.31361 0
M  V30 16674 H 1595.38 1.38825 -0.718143 0
M  V30 16675 H 1596.11 2.99625 1.24077 0
M  V30 16676 H 1595.9 3.91101 -0.279691 0
M  V30 16677 H 1597.39 4.11887 0.688421 0
M  V30 16678 N 1597.83 0.703118 1.41046 0
M  V30 16679 C 1598.79 0.0514476 2.29142 0
M  V30 16680 C 1599.79 -0.700223 1.44753 0
M  V30 16681 O 1600.98 -0.533985 1.65814 0
M  V30 16682 C 1598.11 -0.93735 3.2776 0
M  V30 16683 H 1599.3 0.827201 2.88266 0
M  V30 16684 H 1596.86 0.467045 1.49159 0
M  V30 16685 H 1597.59 -1.7406 2.7363 0
M  V30 16686 H 1597.38 -0.4014 3.9004 0
M  V30 16687 H 1598.87 -1.39088 3.93757 0
M  V30 16688 N 1599.3 -1.51086 0.448402 0
M  V30 16689 C 1600.55 -2.01778 -0.114116 0
M  V30 16690 C 1600.87 -1.3339 -1.4224 0
M  V30 16691 O 1600.14 -0.471938 -1.9013 0
M  V30 16692 H 1598.72 -0.745634 -0.0451624 0
M  V30 16693 H 1601.39 -1.85639 0.59364 0
M  V30 16694 H 1600.48 -3.10823 -0.28205 0
M  V30 16695 N 1600.78 -0.180154 -1.56567 0
M  V30 16696 C 1602.03 0.463205 -1.97439 0
M  V30 16697 C 1602.36 1.62296 -1.06647 0
M  V30 16698 O 1601.64 1.94157 -0.115382 0
M  V30 16699 C 1601.92 0.937709 -3.47677 0
M  V30 16700 C 1601.77 -0.222835 -4.49248 0
M  V30 16701 C 1603.09 1.80836 -4.01231 0
M  V30 16702 H 1600.21 0.166899 -0.717854 0
M  V30 16703 H 1602.85 -0.268069 -1.88099 0
M  V30 16704 H 1601 1.56084 -3.55767 0
M  V30 16705 H 1602.67 -0.860155 -4.5321 0
M  V30 16706 H 1600.92 -0.876962 -4.24843 0
M  V30 16707 H 1601.59 0.151444 -5.51792 0
M  V30 16708 H 1604.06 1.28297 -3.95827 0
M  V30 16709 H 1602.94 2.10937 -5.06751 0
M  V30 16710 H 1603.2 2.75728 -3.45581 0
M  V30 16711 N 1602.26 1.57322 0.0935319 0
M  V30 16712 C 1603.22 2.0121 1.0976 0
M  V30 16713 C 1604.22 0.905839 1.32858 0
M  V30 16714 O 1605.41 1.17128 1.28945 0
M  V30 16715 C 1602.55 2.37414 2.44638 0
M  V30 16716 H 1603.74 2.91134 0.719809 0
M  V30 16717 H 1601.29 1.52588 0.338625 0
M  V30 16718 H 1602.03 1.50449 2.8729 0
M  V30 16719 H 1601.81 3.1812 2.2922 0
M  V30 16720 H 1603.3 2.7202 3.16851 0
M  V30 16721 N 1603.74 -0.364395 1.53329 0
M  V30 16722 C 1604.69 -1.44645 1.79851 0
M  V30 16723 C 1605.66 -1.53151 0.642951 0
M  V30 16724 O 1606.84 -1.6902 0.885252 0
M  V30 16725 C 1603.98 -2.81575 1.99523 0
M  V30 16726 C 1603.09 -2.82026 3.27239 0
M  V30 16727 C 1602.23 -4.1054 3.37091 0
M  V30 16728 C 1601.27 -4.05138 4.58835 0
M  V30 16729 N 1600.4 -5.25303 4.65834 0
M  V30 16730 H 1605.24 -1.21329 2.72182 0
M  V30 16731 H 1602.78 -0.588143 1.34831 0
M  V30 16732 H 1604.74 -3.61124 2.08915 0
M  V30 16733 H 1603.37 -3.03288 1.10527 0
M  V30 16734 H 1602.42 -1.94704 3.26794 0
M  V30 16735 H 1603.73 -2.73907 4.16865 0
M  V30 16736 H 1602.89 -4.98504 3.45801 0
M  V30 16737 H 1601.63 -4.21413 2.45483 0
M  V30 16738 H 1600.63 -3.1556 4.50224 0
M  V30 16739 H 1601.86 -3.95866 5.51785 0
M  V30 16740 H 1599.8 -5.36759 3.77128 0
M  V30 16741 H 1599.72 -5.19358 5.49367 0
M  V30 16742 H 1600.99 -6.15096 4.78829 0
M  V30 16743 N 1605.22 -1.44709 -0.62426 0
M  V30 16744 C 1606.18 -1.51738 -1.7178 0
M  V30 16745 C 1607.18 -0.398646 -1.5578 0
M  V30 16746 O 1608.37 -0.661525 -1.61151 0
M  V30 16747 C 1605.5 -1.39792 -3.1092 0
M  V30 16748 H 1606.69 -2.49154 -1.6692 0
M  V30 16749 H 1604.25 -1.31903 -0.838531 0
M  V30 16750 H 1604.98 -0.434955 -3.2137 0
M  V30 16751 H 1604.77 -2.20919 -3.2394 0
M  V30 16752 H 1606.26 -1.47706 -3.90606 0
M  V30 16753 N 1606.69 0.865285 -1.31722 0
M  V30 16754 C 1607.64 1.99433 -1.19704 0
M  V30 16755 C 1608.64 1.69079 -0.104255 0
M  V30 16756 O 1609.84 1.78017 -0.266466 0
M  V30 16757 H 1606.22 0.654244 -0.370768 0
M  V30 16758 H 1608.19 2.06699 -2.15216 0
M  V30 16759 C 1606.94 3.35142 -0.926027 0
M  V30 16760 H 1606.26 3.59022 -1.75906 0
M  V30 16761 H 1607.7 4.14722 -0.88214 0
M  V30 16762 C 1606.16 3.34848 0.37124 0
M  V30 16763 O 1606.69 3.77012 1.38654 0
M  V30 16764 N 1604.9 2.87979 0.389441 0
M  V30 16765 H 1604.44 2.53861 -0.437293 0
M  V30 16766 H 1604.4 2.88165 1.25731 0
M  V30 16767 N 1608.17 1.14759 1.0802 0
M  V30 16768 C 1609.14 0.840859 2.13219 0
M  V30 16769 C 1610.14 -0.156309 1.60038 0
M  V30 16770 O 1611.33 0.0725143 1.74049 0
M  V30 16771 C 1608.46 0.254208 3.39951 0
M  V30 16772 H 1609.65 1.77323 2.4186 0
M  V30 16773 H 1607.2 0.954146 1.23797 0
M  V30 16774 H 1607.94 -0.686692 3.16946 0
M  V30 16775 H 1607.72 0.972499 3.79848 0
M  V30 16776 H 1609.21 0.0569551 4.17561 0
M  V30 16777 N 1609.65 -1.26251 0.943322 0
M  V30 16778 C 1610.93 -1.88839 0.509831 0
M  V30 16779 C 1611.31 -1.85227 -1.01263 0
M  V30 16780 O 1610.66 -1.30805 -1.87356 0
M  V30 16781 C 1610.87 -3.32076 1.07361 0
M  V30 16782 C 1612.21 -4.0891 1.14357 0
M  V30 16783 O 1613.24 -3.41153 1.02435 0
M  V30 16784 O 1612.1 -5.30088 1.32926 0
M  V30 16785 H 1609.19 -0.810069 0.166484 0
M  V30 16786 H 1611.74 -1.34405 1.03602 0
M  V30 16787 H 1610.51 -3.29077 2.11716 0
M  V30 16788 H 1610.13 -3.94052 0.529991 0
M  V30 16789 N 1611.13 -0.710588 -1.40671 0
M  V30 16790 C 1612.38 -0.244967 -2.00207 0
M  V30 16791 C 1612.69 1.16693 -1.56978 0
M  V30 16792 O 1613.9 1.73081 -2.09177 0
M  V30 16793 C 1612.35 -0.387049 -3.57813 0
M  V30 16794 C 1611.96 -1.80527 -4.10017 0
M  V30 16795 C 1613.71 0.0180338 -4.24496 0
M  V30 16796 C 1611.61 -1.89821 -5.60109 0
M  V30 16797 H 1610.54 -0.087831 -0.748867 0
M  V30 16798 H 1613.19 -0.880956 -1.6097 0
M  V30 16799 H 1611.58 0.317442 -3.94726 0
M  V30 16800 H 1612.75 -2.53974 -3.84492 0
M  V30 16801 H 1611.06 -2.16137 -3.55913 0
M  V30 16802 H 1613.66 -0.0307544 -5.34691 0
M  V30 16803 H 1614 1.05915 -4.02601 0
M  V30 16804 H 1614.54 -0.63672 -3.92671 0
M  V30 16805 H 1611.28 -2.92036 -5.86852 0
M  V30 16806 H 1610.8 -1.20779 -5.87514 0
M  V30 16807 H 1612.48 -1.66801 -6.25129 0
M  V30 16808 N 1612.61 1.50847 -0.456408 0
M  V30 16809 C 1613.86 2.01425 0.105223 0
M  V30 16810 C 1614.17 1.34413 1.421 0
M  V30 16811 O 1615.38 1.76066 2.06671 0
M  V30 16812 C 1613.83 3.59112 0.238051 0
M  V30 16813 C 1613.44 4.35073 -1.06842 0
M  V30 16814 C 1615.18 4.17778 0.752428 0
M  V30 16815 C 1613.09 5.84509 -0.900194 0
M  V30 16816 H 1612.02 0.752767 0.0430992 0
M  V30 16817 H 1614.67 1.73788 -0.589075 0
M  V30 16818 H 1613.05 3.83275 0.995795 0
M  V30 16819 H 1614.23 4.22645 -1.83598 0
M  V30 16820 H 1612.54 3.87948 -1.51278 0
M  V30 16821 H 1615.14 5.27155 0.895088 0
M  V30 16822 H 1615.48 3.78195 1.73994 0
M  V30 16823 H 1616.02 3.97765 0.052476 0
M  V30 16824 H 1612.75 6.28538 -1.86064 0
M  V30 16825 H 1612.27 5.99551 -0.172767 0
M  V30 16826 H 1613.95 6.44564 -0.560943 0
M  V30 16827 N 1614.09 0.188454 1.56469 0
M  V30 16828 C 1615.02 -0.766806 2.15992 0
M  V30 16829 C 1616.03 -1.18153 1.11998 0
M  V30 16830 O 1617.22 -1.11842 1.39118 0
M  V30 16831 C 1614.32 -2.04594 2.70175 0
M  V30 16832 C 1613.49 -1.79207 3.99003 0
M  V30 16833 C 1612.55 -2.91504 4.38078 0
M  V30 16834 O 1611.58 -2.61397 5.05628 0
M  V30 16835 N 1612.78 -4.19702 4.01037 0
M  V30 16836 H 1615.54 -0.257829 2.98589 0
M  V30 16837 H 1613.11 0.00625645 1.61899 0
M  V30 16838 H 1615.1 -2.78846 2.93303 0
M  V30 16839 H 1613.67 -2.46633 1.9207 0
M  V30 16840 H 1612.89 -0.88769 3.84075 0
M  V30 16841 H 1614.18 -1.59634 4.83109 0
M  V30 16842 H 1613.57 -4.47016 3.46689 0
M  V30 16843 H 1612.13 -4.90602 4.2913 0
M  V30 16844 N 1615.56 -1.5737 -0.0851874 0
M  V30 16845 C 1616.81 -1.85772 -0.785604 0
M  V30 16846 C 1617.13 -0.779172 -1.79411 0
M  V30 16847 O 1618.33 -0.950621 -2.54314 0
M  V30 16848 C 1616.79 -3.29484 -1.44805 0
M  V30 16849 C 1616.4 -4.45434 -0.478799 0
M  V30 16850 C 1618.14 -3.671 -2.13161 0
M  V30 16851 C 1616.05 -5.80183 -1.1464 0
M  V30 16852 H 1614.98 -0.69298 -0.297145 0
M  V30 16853 H 1617.63 -1.83459 -0.0386776 0
M  V30 16854 H 1616.01 -3.26367 -2.24278 0
M  V30 16855 H 1617.18 -4.59917 0.285148 0
M  V30 16856 H 1615.5 -4.16281 0.0995964 0
M  V30 16857 H 1618.1 -4.65061 -2.6386 0
M  V30 16858 H 1618.44 -2.96223 -2.92503 0
M  V30 16859 H 1618.97 -3.72148 -1.40536 0
M  V30 16860 H 1615.71 -6.54317 -0.393583 0
M  V30 16861 H 1615.23 -5.69525 -1.88153 0
M  V30 16862 H 1616.91 -6.25074 -1.67006 0
M  V30 16863 N 1617.04 0.356258 -1.53521 0
M  V30 16864 C 1618.27 1.12273 -1.74383 0
M  V30 16865 C 1618.69 1.81981 -0.475881 0
M  V30 16866 O 1618.05 1.72083 0.570699 0
M  V30 16867 C 1618.1 2.12161 -2.91582 0
M  V30 16868 O 1617.2 3.1943 -2.60842 0
M  V30 16869 H 1616.54 0.325321 -0.578845 0
M  V30 16870 H 1619.07 0.410533 -2.00439 0
M  V30 16871 H 1619.08 2.55602 -3.18012 0
M  V30 16872 H 1617.76 1.60818 -3.8355 0
M  V30 16873 H 1616.33 2.80895 -2.4526 0
M  V30 16874 N 1618.52 1.45038 0.616577 0
M  V30 16875 C 1619.77 1.48292 1.3731 0
M  V30 16876 C 1620.09 0.122437 1.94615 0
M  V30 16877 O 1619.36 -0.847103 1.76638 0
M  V30 16878 H 1617.94 0.546079 0.509712 0
M  V30 16879 H 1620.6 1.80927 0.724673 0
M  V30 16880 H 1619.7 2.21664 2.19708 0
M  V30 16881 N 1620 -0.858287 1.32179 0
M  V30 16882 C 1620.95 -1.95454 1.17396 0
M  V30 16883 C 1621.93 -1.60692 0.0818403 0
M  V30 16884 O 1623.12 -1.743 0.307973 0
M  V30 16885 C 1620.25 -3.31416 0.895443 0
M  V30 16886 C 1619.34 -3.72409 2.0291 0
M  V30 16887 N 1619.73 -3.8526 3.27732 0
M  V30 16888 C 1618.03 -4.02009 1.93145 0
M  V30 16889 C 1618.73 -4.20479 4.01961 0
M  V30 16890 N 1617.7 -4.318 3.30227 0
M  V30 16891 H 1621.51 -2.03518 2.12033 0
M  V30 16892 H 1619.02 -1.04982 1.23905 0
M  V30 16893 H 1621.02 -4.09718 0.770504 0
M  V30 16894 H 1619.68 -3.24672 -0.0425798 0
M  V30 16895 H 1620.69 -3.69677 3.62711 0
M  V30 16896 H 1617.37 -4.03587 1.06882 0
M  V30 16897 H 1618.76 -4.37921 5.09583 0
M  V30 16898 N 1621.48 -1.1533 -1.07409 0
M  V30 16899 C 1622.75 -0.838341 -1.76724 0
M  V30 16900 C 1623.13 0.666169 -2.00313 0
M  V30 16901 O 1622.48 1.61033 -1.62113 0
M  V30 16902 C 1622.69 -1.64846 -3.07615 0
M  V30 16903 C 1624.04 -1.85429 -3.8197 0
M  V30 16904 O 1625.06 -1.61617 -3.17424 0
M  V30 16905 O 1623.92 -2.25305 -4.97896 0
M  V30 16906 H 1621.02 -0.308242 -0.767408 0
M  V30 16907 H 1623.56 -1.25905 -1.1378 0
M  V30 16908 H 1622.33 -2.66995 -2.86058 0
M  V30 16909 H 1621.96 -1.22405 -3.78289 0
M  V30 16910 N 1622.95 1.25748 -0.950004 0
M  V30 16911 C 1624.2 1.92954 -0.601104 0
M  V30 16912 C 1624.52 1.74817 0.863953 0
M  V30 16913 O 1623.79 1.10904 1.61484 0
M  V30 16914 H 1622.37 0.714077 -0.219325 0
M  V30 16915 H 1625.03 1.53009 -1.20724 0
M  V30 16916 H 1624.13 3.00959 -0.826447 0
M  V30 16917 N 1624.43 0.718038 1.40292 0
M  V30 16918 C 1625.68 0.258092 2.00445 0
M  V30 16919 C 1626 -1.15347 1.57226 0
M  V30 16920 O 1625.27 -1.78241 0.812822 0
M  V30 16921 H 1623.85 0.0924316 0.741259 0
M  V30 16922 H 1626.51 0.924216 1.71593 0
M  V30 16923 H 1625.61 0.293113 3.10721 0
M  V30 16924 N 1625.91 -1.50602 0.464402 0
M  V30 16925 C 1627.14 -2.06701 -0.0907765 0
M  V30 16926 C 1627.55 -1.32901 -1.341 0
M  V30 16927 O 1626.91 -0.396323 -1.78145 0
M  V30 16928 C 1626.96 -3.59437 -0.385667 0
M  V30 16929 O 1626.68 -4.30453 0.81496 0
M  V30 16930 C 1628.18 -4.32137 -0.988549 0
M  V30 16931 H 1625.4 -0.670987 0.00410069 0
M  V30 16932 H 1627.95 -1.93853 0.651264 0
M  V30 16933 H 1626.1 -3.7211 -1.07763 0
M  V30 16934 H 1626.52 -5.2155 0.55551 0
M  V30 16935 H 1627.99 -5.40001 -1.1447 0
M  V30 16936 H 1628.47 -3.92194 -1.97688 0
M  V30 16937 H 1629.07 -4.23977 -0.335166 0
M  V30 16938 N 1627.39 -0.19675 -1.56367 0
M  V30 16939 C 1628.64 0.440711 -1.97236 0
M  V30 16940 C 1628.96 1.62037 -1.08485 0
M  V30 16941 O 1628.23 1.95274 -0.156483 0
M  V30 16942 H 1626.81 0.16581 -0.728365 0
M  V30 16943 H 1629.47 -0.283867 -1.92822 0
M  V30 16944 H 1628.57 0.783731 -3.02099 0
M  V30 16945 N 1628.87 1.57413 0.0768405 0
M  V30 16946 C 1629.83 2.02363 1.0762 0
M  V30 16947 C 1630.83 0.919879 1.3189 0
M  V30 16948 O 1632.02 1.18489 1.27695 0
M  V30 16949 C 1629.15 2.39995 2.42106 0
M  V30 16950 H 1630.34 2.91881 0.688889 0
M  V30 16951 H 1627.9 1.52938 0.322422 0
M  V30 16952 H 1628.63 1.53488 2.85678 0
M  V30 16953 H 1628.42 3.20534 2.25833 0
M  V30 16954 H 1629.91 2.75365 3.13948 0
M  V30 16955 N 1630.34 -0.348112 1.53707 0
M  V30 16956 C 1631.57 -1.11346 1.74976 0
M  V30 16957 C 1631.99 -1.81726 0.485525 0
M  V30 16958 O 1631.35 -1.72384 -0.561565 0
M  V30 16959 C 1631.4 -2.10611 2.92703 0
M  V30 16960 O 1630.5 -3.18042 2.62532 0
M  V30 16961 H 1629.85 -0.322247 0.580563 0
M  V30 16962 H 1632.38 -0.399898 2.00654 0
M  V30 16963 H 1632.39 -2.53912 3.19363 0
M  V30 16964 H 1631.06 -1.58782 3.84397 0
M  V30 16965 H 1629.64 -2.79591 2.46746 0
M  V30 16966 N 1631.82 -1.45363 -0.608876 0
M  V30 16967 C 1633.23 -1.43794 -1.19081 0
M  V30 16968 C 1633.58 -0.164874 -1.95506 0
M  V30 16969 O 1632.71 0.733623 -2.03585 0
M  V30 16970 C 1633.3 -2.60506 -2.16615 0
M  V30 16971 C 1631.86 -2.62061 -2.70187 0
M  V30 16972 C 1631.01 -2.36018 -1.4557 0
M  V30 16973 H 1633.96 -1.53622 -0.39826 0
M  V30 16974 H 1633.98 -2.34531 -2.99625 0
M  V30 16975 H 1633.49 -3.53147 -1.60963 0
M  V30 16976 H 1631.6 -1.73423 -3.2978 0
M  V30 16977 H 1631.71 -3.61242 -3.14708 0
M  V30 16978 H 1630.07 -1.8555 -1.74481 0
M  V30 16979 H 1630.86 -3.30802 -0.917884 0
M  V30 16980 N 1633.3 0.851265 -1.32632 0
M  V30 16981 C 1634.23 1.97562 -1.24465 0
M  V30 16982 C 1635.21 1.69619 -0.127777 0
M  V30 16983 O 1636.4 1.9162 -0.315509 0
M  V30 16984 C 1633.53 3.33467 -0.970423 0
M  V30 16985 C 1632.48 3.75772 -2.0489 0
M  V30 16986 C 1631.81 5.09345 -1.62702 0
M  V30 16987 C 1633.11 3.90876 -3.4643 0
M  V30 16988 H 1634.8 2.04653 -2.18535 0
M  V30 16989 H 1632.35 0.983252 -1.05205 0
M  V30 16990 H 1634.3 4.11681 -0.899825 0
M  V30 16991 H 1633.02 3.26599 0.00591373 0
M  V30 16992 H 1631.68 2.99812 -2.1097 0
M  V30 16993 H 1631.33 4.98937 -0.638039 0
M  V30 16994 H 1631.03 5.38621 -2.34864 0
M  V30 16995 H 1632.55 5.90048 -1.57085 0
M  V30 16996 H 1633.97 4.59434 -3.42919 0
M  V30 16997 H 1632.37 4.31574 -4.1697 0
M  V30 16998 H 1633.44 2.93689 -3.85843 0
M  V30 16999 N 1634.78 1.15898 1.06796 0
M  V30 17000 C 1636 0.961859 1.83747 0
M  V30 17001 C 1636.43 -0.48494 1.81741 0
M  V30 17002 O 1635.79 -1.3461 1.21449 0
M  V30 17003 C 1635.83 1.48764 3.28484 0
M  V30 17004 O 1634.94 0.690576 4.06577 0
M  V30 17005 H 1634.28 0.342664 0.568751 0
M  V30 17006 H 1636.81 1.54015 1.34687 0
M  V30 17007 H 1636.82 1.50291 3.79311 0
M  V30 17008 H 1635.49 2.54089 3.29259 0
M  V30 17009 H 1634.07 0.74539 3.65374 0
M  V30 17010 N 1636.26 -1.25243 0.956659 0
M  V30 17011 C 1637.48 -1.97621 0.629337 0
M  V30 17012 C 1637.91 -1.70606 -0.792158 0
M  V30 17013 O 1637.26 -0.963192 -1.53598 0
M  V30 17014 C 1637.31 -3.49273 0.896687 0
M  V30 17015 O 1636.42 -4.12393 -0.0234986 0
M  V30 17016 H 1635.76 -0.619472 0.239061 0
M  V30 17017 H 1638.29 -1.5931 1.28381 0
M  V30 17018 H 1638.3 -3.99597 0.82377 0
M  V30 17019 H 1636.97 -3.68265 1.93271 0
M  V30 17020 H 1635.55 -3.72761 0.101796 0
M  V30 17021 N 1637.73 -0.725468 -1.3991 0
M  V30 17022 C 1638.98 -0.266188 -1.99936 0
M  V30 17023 C 1639.3 1.15022 -1.58207 0
M  V30 17024 O 1640.5 1.70853 -2.11001 0
M  V30 17025 C 1638.96 -0.424978 -3.57382 0
M  V30 17026 C 1638.57 -1.84866 -4.08079 0
M  V30 17027 C 1640.31 -0.0269907 -4.24491 0
M  V30 17028 C 1638.22 -1.95751 -5.58064 0
M  V30 17029 H 1637.15 -0.0957688 -0.747893 0
M  V30 17030 H 1639.8 -0.89798 -1.60027 0
M  V30 17031 H 1638.18 0.275558 -3.9504 0
M  V30 17032 H 1639.35 -2.58037 -3.81776 0
M  V30 17033 H 1637.67 -2.199 -3.536 0
M  V30 17034 H 1640.27 -0.0874638 -5.34628 0
M  V30 17035 H 1640.61 1.01639 -4.03702 0
M  V30 17036 H 1641.14 -0.678332 -3.91974 0
M  V30 17037 H 1637.88 -2.98244 -5.83721 0
M  V30 17038 H 1637.4 -1.27004 -5.862 0
M  V30 17039 H 1639.08 -1.73422 -6.23325 0
M  V30 17040 N 1639.21 1.50354 -0.472382 0
M  V30 17041 C 1640.16 2.28555 0.321118 0
M  V30 17042 C 1641.13 1.33665 0.98605 0
M  V30 17043 O 1642.31 1.62603 0.998239 0
M  V30 17044 C 1639.45 3.15586 1.39641 0
M  V30 17045 C 1638.57 4.25508 0.746129 0
M  V30 17046 C 1637.7 4.99794 1.79943 0
M  V30 17047 C 1636.74 6.01589 1.12946 0
M  V30 17048 N 1635.88 6.69149 2.12567 0
M  V30 17049 H 1640.72 2.95913 -0.352051 0
M  V30 17050 H 1638.26 1.45926 -0.185461 0
M  V30 17051 H 1640.21 3.64397 2.03152 0
M  V30 17052 H 1638.84 2.50271 2.03873 0
M  V30 17053 H 1637.9 3.804 -0.00157718 0
M  V30 17054 H 1639.21 4.98326 0.217335 0
M  V30 17055 H 1638.36 5.5233 2.51031 0
M  V30 17056 H 1637.1 4.26684 2.36203 0
M  V30 17057 H 1636.11 5.48312 0.404207 0
M  V30 17058 H 1637.33 6.76672 0.573735 0
M  V30 17059 H 1635.28 5.9883 2.67841 0
M  V30 17060 H 1635.19 7.37847 1.64676 0
M  V30 17061 H 1636.46 7.26301 2.83031 0
M  V30 17062 N 1640.69 0.205039 1.56261 0
M  V30 17063 C 1641.64 -0.724845 2.16171 0
M  V30 17064 C 1642.63 -1.16929 1.10528 0
M  V30 17065 O 1643.82 -1.12603 1.36564 0
M  V30 17066 C 1640.95 -1.93992 2.83235 0
M  V30 17067 C 1640.03 -1.51592 3.96082 0
M  V30 17068 N 1640.42 -0.80348 4.99377 0
M  V30 17069 C 1638.72 -1.80447 4.07866 0
M  V30 17070 C 1639.42 -0.58958 5.78704 0
M  V30 17071 N 1638.4 -1.14132 5.31484 0
M  V30 17072 H 1642.2 -0.171919 2.93397 0
M  V30 17073 H 1639.71 0.00563679 1.62399 0
M  V30 17074 H 1641.71 -2.61667 3.24555 0
M  V30 17075 H 1640.37 -2.49747 2.07501 0
M  V30 17076 H 1641.38 -0.457893 5.15872 0
M  V30 17077 H 1638.06 -2.3764 3.43269 0
M  V30 17078 H 1639.45 -0.0237117 6.71896 0
M  V30 17079 N 1642.17 -1.57451 -0.0684915 0
M  V30 17080 C 1643.13 -2.0293 -1.06545 0
M  V30 17081 C 1644.13 -0.926861 -1.314 0
M  V30 17082 O 1645.32 -1.19164 -1.27065 0
M  V30 17083 C 1642.45 -2.41276 -2.4083 0
M  V30 17084 H 1643.65 -2.92242 -0.673401 0
M  V30 17085 H 1641.2 -1.53107 -0.314307 0
M  V30 17086 H 1641.94 -1.55 -2.8486 0
M  V30 17087 H 1641.72 -3.21727 -2.2413 0
M  V30 17088 H 1643.21 -2.77026 -3.12484 0
M  V30 17089 N 1643.65 0.339955 -1.5389 0
M  V30 17090 C 1644.9 1.07766 -1.7097 0
M  V30 17091 C 1645.22 1.89064 -0.477486 0
M  V30 17092 O 1644.49 1.89183 0.508579 0
M  V30 17093 H 1643.07 0.400849 -0.630341 0
M  V30 17094 H 1645.73 0.380359 -1.91153 0
M  V30 17095 H 1644.82 1.75301 -2.58217 0
M  V30 17096 N 1645.13 1.45684 0.601159 0
M  V30 17097 C 1646.35 1.53806 1.39135 0
M  V30 17098 C 1646.78 0.173625 1.87297 0
M  V30 17099 O 1646.13 -0.842931 1.60513 0
M  V30 17100 C 1646.18 2.53201 2.56752 0
M  V30 17101 O 1645.29 2.05427 3.57594 0
M  V30 17102 H 1644.63 0.51824 0.415118 0
M  V30 17103 H 1647.16 1.91095 0.731006 0
M  V30 17104 H 1647.17 2.72215 3.03912 0
M  V30 17105 H 1645.84 3.52294 2.21047 0
M  V30 17106 H 1644.42 1.96318 3.17039 0
M  V30 17107 N 1646.6 -0.84422 1.33082 0
M  V30 17108 C 1648.01 -1.41526 1.21767 0
M  V30 17109 C 1648.37 -1.955 -0.165606 0
M  V30 17110 O 1647.49 -1.88384 -1.06492 0
M  V30 17111 C 1648.09 -2.57266 2.20454 0
M  V30 17112 C 1646.64 -3.10339 2.12995 0
M  V30 17113 C 1645.79 -1.83119 2.08237 0
M  V30 17114 H 1648.74 -0.650452 1.44758 0
M  V30 17115 H 1648.76 -3.34739 1.80914 0
M  V30 17116 H 1648.28 -2.17952 3.21121 0
M  V30 17117 H 1646.38 -3.5421 1.15612 0
M  V30 17118 H 1646.49 -3.70875 3.03296 0
M  V30 17119 H 1644.85 -2.03148 1.53632 0
M  V30 17120 H 1645.64 -1.46009 3.10703 0
M  V30 17121 N 1648.08 -1.16463 -1.0618 0
M  V30 17122 C 1649.33 -0.958238 -1.79414 0
M  V30 17123 C 1649.68 0.508463 -1.8556 0
M  V30 17124 O 1648.98 1.37239 -1.33702 0
M  V30 17125 C 1649.17 -1.52085 -3.23427 0
M  V30 17126 C 1649 -3.04073 -3.31315 0
M  V30 17127 C 1647.77 -3.72723 -3.41183 0
M  V30 17128 C 1649.97 -4.01759 -3.21082 0
M  V30 17129 N 1647.95 -5.12409 -3.38098 0
M  V30 17130 C 1649.32 -5.27836 -3.25253 0
M  V30 17131 C 1651.37 -3.93567 -3.04975 0
M  V30 17132 C 1650.08 -6.46672 -3.14972 0
M  V30 17133 C 1652.1 -5.11976 -2.96032 0
M  V30 17134 C 1651.47 -6.36932 -3.00827 0
M  V30 17135 H 1647.56 -0.404432 -0.669297 0
M  V30 17136 H 1650.15 -1.47875 -1.26653 0
M  V30 17137 H 1648.32 -1.02681 -3.74581 0
M  V30 17138 H 1650.05 -1.25209 -3.84844 0
M  V30 17139 H 1646.81 -3.2336 -3.46027 0
M  V30 17140 H 1647.23 -5.85401 -3.40052 0
M  V30 17141 H 1651.87 -2.97812 -3.00113 0
M  V30 17142 H 1649.59 -7.42648 -3.1859 0
M  V30 17143 H 1653.18 -5.07408 -2.84655 0
M  V30 17144 H 1652.06 -7.27017 -2.93966 0
M  V30 17145 N 1649.56 1.24734 -0.963288 0
M  V30 17146 C 1650.47 2.29268 -0.497316 0
M  V30 17147 C 1651.49 1.68356 0.439572 0
M  V30 17148 O 1652.66 1.98942 0.313697 0
M  V30 17149 C 1649.73 3.46068 0.209261 0
M  V30 17150 C 1648.79 4.22394 -0.766907 0
M  V30 17151 C 1648.02 5.33617 -0.0939542 0
M  V30 17152 O 1648.24 5.59323 1.11864 0
M  V30 17153 O 1647.18 5.96774 -0.78388 0
M  V30 17154 H 1651 2.71235 -1.36622 0
M  V30 17155 H 1648.59 1.30344 -0.730126 0
M  V30 17156 H 1650.47 4.17015 0.606367 0
M  V30 17157 H 1649.15 3.06087 1.0532 0
M  V30 17158 H 1648.05 3.53841 -1.21439 0
M  V30 17159 H 1649.39 4.66181 -1.57912 0
M  V30 17160 N 1651.04 0.732878 1.39523 0
M  V30 17161 C 1651.97 0.106583 2.33257 0
M  V30 17162 C 1652.95 -0.726582 1.53801 0
M  V30 17163 O 1654.13 -0.671994 1.82203 0
M  V30 17164 C 1651.26 -0.803051 3.37888 0
M  V30 17165 C 1650.22 -0.0742048 4.27936 0
M  V30 17166 C 1649.54 -1.10071 5.23248 0
M  V30 17167 C 1650.84 1.08195 5.10971 0
M  V30 17168 H 1652.54 0.889539 2.8588 0
M  V30 17169 H 1650.08 0.429209 1.37455 0
M  V30 17170 H 1652.04 -1.25071 4.02412 0
M  V30 17171 H 1650.76 -1.6181 2.83699 0
M  V30 17172 H 1649.42 0.35381 3.64889 0
M  V30 17173 H 1649.07 -1.90927 4.65356 0
M  V30 17174 H 1648.77 -0.617825 5.84343 0
M  V30 17175 H 1650.29 -1.54812 5.90649 0
M  V30 17176 H 1651.71 0.712835 5.68851 0
M  V30 17177 H 1650.1 1.49433 5.81197 0
M  V30 17178 H 1651.17 1.90463 4.45928 0
M  V30 17179 N 1652.52 -1.50101 0.480349 0
M  V30 17180 C 1653.76 -2.01974 -0.0712904 0
M  V30 17181 C 1654.08 -1.36377 -1.39378 0
M  V30 17182 O 1653.35 -0.512162 -1.89087 0
M  V30 17183 H 1651.93 -0.746424 -0.0293362 0
M  V30 17184 H 1654.6 -1.84338 0.632883 0
M  V30 17185 H 1653.69 -3.11351 -0.216057 0
M  V30 17186 N 1653.99 -0.213323 -1.5615 0
M  V30 17187 C 1655.24 0.421221 -1.98377 0
M  V30 17188 C 1655.57 1.59998 -1.10065 0
M  V30 17189 O 1654.85 1.93869 -0.15654 0
M  V30 17190 C 1655.13 0.86375 -3.49587 0
M  V30 17191 C 1654.98 -0.318077 -4.48674 0
M  V30 17192 C 1656.3 1.72285 -4.04976 0
M  V30 17193 H 1653.42 0.151635 -0.721232 0
M  V30 17194 H 1656.06 -0.307907 -1.87488 0
M  V30 17195 H 1654.21 1.48503 -3.58998 0
M  V30 17196 H 1655.89 -0.956094 -4.51283 0
M  V30 17197 H 1654.13 -0.966881 -4.22888 0
M  V30 17198 H 1654.8 0.0343662 -5.51989 0
M  V30 17199 H 1657.28 1.19872 -3.98459 0
M  V30 17200 H 1656.15 2.0014 -5.11112 0
M  V30 17201 H 1656.41 2.68336 -3.51352 0
M  V30 17202 N 1655.47 1.57485 0.0601405 0
M  V30 17203 C 1656.7 1.92051 0.769681 0
M  V30 17204 C 1657.12 0.810364 1.70524 0
M  V30 17205 O 1656.47 -0.215527 1.81223 0
M  V30 17206 C 1656.52 3.26423 1.55339 0
M  V30 17207 O 1656.24 4.3317 0.655423 0
M  V30 17208 C 1657.75 3.75076 2.36289 0
M  V30 17209 H 1654.97 0.63454 0.218175 0
M  V30 17210 H 1657.51 2.04482 0.0269308 0
M  V30 17211 H 1655.66 3.15483 2.24831 0
M  V30 17212 H 1656.08 5.10548 1.20171 0
M  V30 17213 H 1657.55 4.71695 2.86719 0
M  V30 17214 H 1658.03 3.04677 3.16336 0
M  V30 17215 H 1658.64 3.88998 1.71932 0
M  V30 17216 N 1656.95 -0.331789 1.54068 0
M  V30 17217 C 1657.86 -1.43116 1.8589 0
M  V30 17218 C 1658.88 -1.57003 0.75007 0
M  V30 17219 O 1660.05 -1.72256 1.04355 0
M  V30 17220 C 1657.12 -2.77945 2.07238 0
M  V30 17221 C 1656.18 -2.73303 3.31065 0
M  V30 17222 C 1655.41 -4.01702 3.51385 0
M  V30 17223 O 1655.63 -4.99562 2.75306 0
M  V30 17224 O 1654.57 -4.0546 4.44844 0
M  V30 17225 H 1658.39 -1.19137 2.79357 0
M  V30 17226 H 1655.98 -0.525057 1.3987 0
M  V30 17227 H 1657.86 -3.57774 2.22656 0
M  V30 17228 H 1656.54 -3.01831 1.16959 0
M  V30 17229 H 1655.44 -1.92054 3.21039 0
M  V30 17230 H 1656.78 -2.54371 4.21374 0
M  V30 17231 N 1658.43 -1.46001 -0.593424 0
M  V30 17232 C 1659.67 -1.50978 -1.35401 0
M  V30 17233 C 1660.01 -0.156626 -1.93567 0
M  V30 17234 O 1659.28 0.83067 -1.7587 0
M  V30 17235 C 1659.57 -2.60005 -2.49137 0
M  V30 17236 C 1659.42 -4.04814 -1.96075 0
M  V30 17237 C 1660.74 -2.65199 -3.51223 0
M  V30 17238 H 1657.86 -0.549657 -0.490965 0
M  V30 17239 H 1660.5 -1.77883 -0.667644 0
M  V30 17240 H 1658.65 -2.37194 -3.07687 0
M  V30 17241 H 1660.32 -4.38879 -1.42066 0
M  V30 17242 H 1658.56 -4.148 -1.26976 0
M  V30 17243 H 1659.23 -4.76811 -2.78128 0
M  V30 17244 H 1661.71 -2.85675 -3.02537 0
M  V30 17245 H 1660.59 -3.43323 -4.28276 0
M  V30 17246 H 1660.85 -1.70833 -4.0776 0
M  V30 17247 N 1659.91 0.83715 -1.33527 0
M  V30 17248 C 1660.86 1.93561 -1.20491 0
M  V30 17249 C 1661.84 1.60541 -0.107395 0
M  V30 17250 O 1663.03 1.73788 -0.335663 0
M  V30 17251 C 1660.16 3.2995 -0.948055 0
M  V30 17252 C 1659.25 3.69134 -2.08809 0
M  V30 17253 N 1659.64 3.79998 -3.33819 0
M  V30 17254 C 1657.94 3.98885 -1.99516 0
M  V30 17255 C 1658.64 4.14031 -4.08599 0
M  V30 17256 N 1657.61 4.26492 -3.37055 0
M  V30 17257 H 1661.42 2.00119 -2.15243 0
M  V30 17258 H 1658.93 1.02997 -1.2556 0
M  V30 17259 H 1660.93 4.0844 -0.835589 0
M  V30 17260 H 1659.59 3.24699 -0.00907808 0
M  V30 17261 H 1660.6 3.6386 -3.68546 0
M  V30 17262 H 1657.27 4.01836 -1.13289 0
M  V30 17263 H 1658.66 4.29759 -5.16485 0
M  V30 17264 N 1661.38 1.17024 1.05561 0
M  V30 17265 C 1662.8 0.916718 1.30646 0
M  V30 17266 C 1663 -0.426248 1.9694 0
M  V30 17267 O 1662.06 -1.16408 2.24065 0
M  V30 17268 C 1663.37 2.07126 2.17989 0
M  V30 17269 C 1664.92 2.10787 2.31383 0
M  V30 17270 C 1665.39 3.25616 3.22084 0
M  V30 17271 N 1666.88 3.25381 3.29669 0
M  V30 17272 C 1667.62 4.10873 3.99964 0
M  V30 17273 N 1667.11 5.06468 4.72718 0
M  V30 17274 N 1668.91 3.98835 3.9609 0
M  V30 17275 H 1661.06 2.03474 0.609284 0
M  V30 17276 H 1663.32 0.888247 0.331243 0
M  V30 17277 H 1663.03 3.04168 1.76564 0
M  V30 17278 H 1662.9 2.01912 3.18609 0
M  V30 17279 H 1665.29 1.14333 2.72051 0
M  V30 17280 H 1665.37 2.20064 1.30405 0
M  V30 17281 H 1665.01 4.22333 2.8213 0
M  V30 17282 H 1664.94 3.13575 4.23058 0
M  V30 17283 H 1667.43 2.56164 2.77828 0
M  V30 17284 H 1667.75 5.68105 5.23905 0
M  V30 17285 H 1666.09 5.10441 4.71673 0
M  V30 17286 H 1669.28 3.23451 3.38375 0
M  V30 17287 H 1669.46 4.65682 4.50604 0
M  V30 17288 N 1662.86 -1.24221 0.969889 0
M  V30 17289 C 1664.11 -1.92638 0.633913 0
M  V30 17290 C 1664.44 -1.75612 -0.829092 0
M  V30 17291 O 1663.72 -1.11057 -1.59677 0
M  V30 17292 C 1664 -3.45583 1.01213 0
M  V30 17293 C 1663.85 -3.71766 2.53199 0
M  V30 17294 C 1665.17 -4.36671 0.548294 0
M  V30 17295 H 1662.29 -0.699608 0.231772 0
M  V30 17296 H 1664.93 -1.46548 1.20929 0
M  V30 17297 H 1663.08 -3.8497 0.522531 0
M  V30 17298 H 1664.75 -3.41925 3.09653 0
M  V30 17299 H 1663 -3.16842 2.963 0
M  V30 17300 H 1663.67 -4.78787 2.74713 0
M  V30 17301 H 1666.14 -4.04672 0.968489 0
M  V30 17302 H 1665.02 -5.42412 0.841472 0
M  V30 17303 H 1665.28 -4.38646 -0.551588 0
M  V30 17304 N 1664.34 -0.740267 -1.39132 0
M  V30 17305 C 1665.27 -0.118951 -2.33197 0
M  V30 17306 C 1666.25 0.718416 -1.54184 0
M  V30 17307 O 1667.44 0.662322 -1.82557 0
M  V30 17308 C 1664.57 0.78512 -3.38309 0
M  V30 17309 C 1663.52 0.0515093 -4.27969 0
M  V30 17310 C 1662.85 1.07295 -5.23824 0
M  V30 17311 C 1664.15 -1.10903 -5.1039 0
M  V30 17312 H 1665.84 -0.904687 -2.85405 0
M  V30 17313 H 1663.39 -0.436493 -1.37225 0
M  V30 17314 H 1665.34 1.22935 -4.03069 0
M  V30 17315 H 1664.06 1.60303 -2.84553 0
M  V30 17316 H 1662.72 -0.373156 -3.64696 0
M  V30 17317 H 1662.37 1.88456 -4.66362 0
M  V30 17318 H 1662.07 0.586827 -5.84662 0
M  V30 17319 H 1663.59 1.51677 -5.91461 0
M  V30 17320 H 1665.01 -0.742993 -5.68465 0
M  V30 17321 H 1663.41 -1.52513 -5.80396 0
M  V30 17322 H 1664.48 -1.92825 -4.44912 0
M  V30 17323 N 1665.82 1.49844 -0.488302 0
M  V30 17324 C 1666.75 2.25604 0.343226 0
M  V30 17325 C 1667.73 1.29642 0.981415 0
M  V30 17326 O 1668.91 1.58904 1.014 0
M  V30 17327 C 1666.04 3.04541 1.48231 0
M  V30 17328 C 1665.09 4.15561 0.959774 0
M  V30 17329 S 1665.92 5.35319 -0.139328 0
M  V30 17330 C 1667.08 6.17808 1.00322 0
M  V30 17331 H 1667.31 2.95784 -0.299825 0
M  V30 17332 H 1664.84 1.5196 -0.273415 0
M  V30 17333 H 1666.8 3.50608 2.13505 0
M  V30 17334 H 1665.46 2.33854 2.09693 0
M  V30 17335 H 1664.65 4.7026 1.81304 0
M  V30 17336 H 1664.26 3.72019 0.384461 0
M  V30 17337 H 1666.55 6.49984 1.91121 0
M  V30 17338 H 1667.49 7.06367 0.495116 0
M  V30 17339 H 1667.9 5.50148 1.26482 0
M  V30 17340 N 1667.3 0.221601 1.56034 0
M  V30 17341 C 1668.21 -0.699837 2.23918 0
M  V30 17342 C 1669.22 -1.21367 1.24683 0
M  V30 17343 O 1670.4 -1.25527 1.57495 0
M  V30 17344 C 1667.46 -1.89107 2.90585 0
M  V30 17345 C 1666.52 -1.4192 4.05163 0
M  V30 17346 C 1665.76 -2.55365 4.68641 0
M  V30 17347 O 1665.98 -3.735 4.31108 0
M  V30 17348 O 1664.91 -2.26564 5.57631 0
M  V30 17349 H 1668.74 -0.151552 3.03322 0
M  V30 17350 H 1666.33 -0.0088482 1.49397 0
M  V30 17351 H 1668.21 -2.58674 3.32664 0
M  V30 17352 H 1666.88 -2.42745 2.14141 0
M  V30 17353 H 1665.79 -0.691536 3.67653 0
M  V30 17354 H 1667.12 -0.929189 4.8335 0
M  V30 17355 N 1668.77 -1.57515 -0.0517878 0
M  V30 17356 C 1669.72 -2.06114 -1.07795 0
M  V30 17357 C 1670.72 -0.97034 -1.38855 0
M  V30 17358 O 1671.92 -1.15536 -1.38027 0
M  V30 17359 H 1668.3 -0.657451 -0.365051 0
M  V30 17360 H 1670.27 -2.9141 -0.642068 0
M  V30 17361 C 1669.02 -2.53728 -2.37734 0
M  V30 17362 H 1668.34 -3.37266 -2.14689 0
M  V30 17363 H 1669.78 -2.91466 -3.07934 0
M  V30 17364 C 1668.24 -1.42868 -3.05107 0
M  V30 17365 O 1668.77 -0.782025 -3.94014 0
M  V30 17366 N 1666.98 -1.16882 -2.66058 0
M  V30 17367 H 1666.52 -1.6965 -1.93847 0
M  V30 17368 H 1666.48 -0.429164 -3.11457 0
M  V30 17369 N 1670.25 0.323614 -1.54242 0
M  V30 17370 C 1671.19 1.41936 -1.79963 0
M  V30 17371 C 1672.2 1.47845 -0.681604 0
M  V30 17372 O 1673.39 1.50569 -0.95871 0
M  V30 17373 C 1670.49 2.80472 -1.90233 0
M  V30 17374 C 1669.66 2.97768 -3.20395 0
M  V30 17375 C 1668.72 4.16664 -3.21368 0
M  V30 17376 O 1667.75 4.09827 -3.95007 0
M  V30 17377 N 1668.95 5.26196 -2.45148 0
M  V30 17378 H 1671.71 1.20235 -2.74524 0
M  V30 17379 H 1669.27 0.513599 -1.53538 0
M  V30 17380 H 1671.27 3.58219 -1.88312 0
M  V30 17381 H 1669.84 2.95224 -1.02769 0
M  V30 17382 H 1669.06 2.07322 -3.35278 0
M  V30 17383 H 1670.34 3.06219 -4.06334 0
M  V30 17384 H 1669.74 5.34626 -1.84909 0
M  V30 17385 H 1668.3 6.02362 -2.49004 0
M  V30 17386 N 1671.73 1.46313 0.585673 0
M  V30 17387 C 1672.66 1.59511 1.70524 0
M  V30 17388 C 1673.64 0.445578 1.6416 0
M  V30 17389 O 1674.83 0.671455 1.82223 0
M  V30 17390 C 1671.96 1.58229 3.09162 0
M  V30 17391 C 1670.91 2.72122 3.30354 0
M  V30 17392 C 1670.24 2.559 4.69489 0
M  V30 17393 C 1671.54 4.13969 3.18476 0
M  V30 17394 H 1673.23 2.53229 1.59735 0
M  V30 17395 H 1670.78 1.2187 0.767046 0
M  V30 17396 H 1672.73 1.66056 3.87303 0
M  V30 17397 H 1671.45 0.610535 3.20843 0
M  V30 17398 H 1670.11 2.63759 2.54611 0
M  V30 17399 H 1669.76 1.56814 4.77931 0
M  V30 17400 H 1669.46 3.32289 4.84621 0
M  V30 17401 H 1670.99 2.65613 5.49802 0
M  V30 17402 H 1672.4 4.23459 3.86465 0
M  V30 17403 H 1670.8 4.90922 3.45131 0
M  V30 17404 H 1671.87 4.34334 2.15598 0
M  V30 17405 N 1673.21 -0.830057 1.33969 0
M  V30 17406 C 1674.63 -1.12209 1.13496 0
M  V30 17407 C 1674.83 -2.01384 -0.0682972 0
M  V30 17408 O 1673.88 -2.4123 -0.745949 0
M  V30 17409 C 1675.19 -1.77568 2.42673 0
M  V30 17410 C 1676.74 -1.90095 2.48662 0
M  V30 17411 C 1677.22 -2.5887 3.77823 0
M  V30 17412 N 1678.71 -2.66375 3.78944 0
M  V30 17413 C 1679.44 -3.20301 4.75599 0
M  V30 17414 N 1678.94 -3.74846 5.82634 0
M  V30 17415 N 1680.73 -3.18636 4.63063 0
M  V30 17416 H 1672.88 -0.236752 2.11076 0
M  V30 17417 H 1675.15 -0.167572 0.933072 0
M  V30 17418 H 1674.85 -1.19505 3.30774 0
M  V30 17419 H 1674.73 -2.77505 2.55481 0
M  V30 17420 H 1677.11 -2.47308 1.61005 0
M  V30 17421 H 1677.19 -0.890808 2.39788 0
M  V30 17422 H 1676.84 -2.02313 4.65867 0
M  V30 17423 H 1676.77 -3.60373 3.83978 0
M  V30 17424 H 1679.26 -2.27705 3.01594 0
M  V30 17425 H 1679.57 -4.14224 6.52409 0
M  V30 17426 H 1677.92 -3.7311 5.86357 0
M  V30 17427 H 1681.11 -2.75286 3.78597 0
M  V30 17428 H 1681.28 -3.60359 5.38559 0
M  V30 17429 N 1674.69 -1.17582 -1.04939 0
M  V30 17430 C 1675.96 -0.875638 -1.74906 0
M  V30 17431 C 1676.34 0.62353 -2.01681 0
M  V30 17432 O 1675.69 1.57558 -1.65492 0
M  V30 17433 C 1675.9 -1.71334 -3.04049 0
M  V30 17434 C 1677.25 -1.93489 -3.77951 0
M  V30 17435 O 1678.27 -1.68314 -3.13925 0
M  V30 17436 O 1677.13 -2.35815 -4.93005 0
M  V30 17437 H 1674.23 -0.324451 -0.760697 0
M  V30 17438 H 1676.77 -1.2829 -1.11084 0
M  V30 17439 H 1675.55 -2.73003 -2.80331 0
M  V30 17440 H 1675.17 -1.30401 -3.75608 0
M  V30 17441 N 1676.17 1.23705 -0.976463 0
M  V30 17442 C 1677.58 1.44179 -0.684434 0
M  V30 17443 C 1677.78 1.86992 0.75075 0
M  V30 17444 O 1676.84 2.01349 1.52365 0
M  V30 17445 C 1678.15 2.49661 -1.676 0
M  V30 17446 C 1679.7 2.63479 -1.68961 0
M  V30 17447 C 1680.17 3.72167 -2.66938 0
M  V30 17448 N 1681.66 3.79605 -2.65433 0
M  V30 17449 C 1682.4 4.63251 -3.37914 0
M  V30 17450 N 1681.9 5.51018 -4.19941 0
M  V30 17451 N 1683.69 4.57412 -3.26697 0
M  V30 17452 H 1675.84 0.942155 -1.90361 0
M  V30 17453 H 1678.1 0.475629 -0.820049 0
M  V30 17454 H 1677.81 2.25111 -2.70218 0
M  V30 17455 H 1677.68 3.47978 -1.45571 0
M  V30 17456 H 1680.07 2.87382 -0.670497 0
M  V30 17457 H 1680.15 1.65491 -1.95055 0
M  V30 17458 H 1679.79 3.49013 -3.68988 0
M  V30 17459 H 1679.72 4.69688 -2.3812 0
M  V30 17460 H 1682.22 3.16882 -2.05899 0
M  V30 17461 H 1682.53 6.11825 -4.72113 0
M  V30 17462 H 1680.87 5.50655 -4.24033 0
M  V30 17463 H 1684.06 3.87863 -2.62069 0
M  V30 17464 H 1684.24 5.22373 -3.83446 0
M  V30 17465 N 1677.64 0.747635 1.38738 0
M  V30 17466 C 1678.89 0.301593 2.00545 0
M  V30 17467 C 1679.22 -1.11208 1.59205 0
M  V30 17468 O 1678.5 -1.76052 0.826806 0
M  V30 17469 C 1678.78 0.417739 3.57669 0
M  V30 17470 C 1678.63 1.87209 4.0899 0
M  V30 17471 C 1679.95 -0.192403 4.39679 0
M  V30 17472 H 1677.07 0.11106 0.728584 0
M  V30 17473 H 1679.71 0.946162 1.64766 0
M  V30 17474 H 1677.86 -0.131024 3.88279 0
M  V30 17475 H 1679.54 2.4787 3.89048 0
M  V30 17476 H 1677.78 2.38917 3.62079 0
M  V30 17477 H 1678.45 1.90455 5.18103 0
M  V30 17478 H 1680.93 0.27554 4.15187 0
M  V30 17479 H 1679.8 -0.0808605 5.4884 0
M  V30 17480 H 1680.06 -1.28 4.23165 0
M  V30 17481 N 1679.12 -1.49583 0.496242 0
M  V30 17482 C 1680.05 -2.31885 -0.274139 0
M  V30 17483 C 1681.03 -1.39939 -0.96701 0
M  V30 17484 O 1682.22 -1.6885 -0.959333 0
M  V30 17485 C 1679.35 -3.20332 -1.34181 0
M  V30 17486 C 1678.3 -4.21033 -0.769091 0
M  V30 17487 C 1677.63 -4.98385 -1.93693 0
M  V30 17488 C 1678.93 -5.21764 0.236648 0
M  V30 17489 H 1680.62 -2.9654 0.412824 0
M  V30 17490 H 1678.17 -1.42605 0.199979 0
M  V30 17491 H 1680.12 -3.76718 -1.88843 0
M  V30 17492 H 1678.84 -2.53611 -2.05789 0
M  V30 17493 H 1677.5 -3.65785 -0.244252 0
M  V30 17494 H 1677.15 -4.28115 -2.64058 0
M  V30 17495 H 1676.85 -5.66519 -1.55981 0
M  V30 17496 H 1678.38 -5.57613 -2.48798 0
M  V30 17497 H 1679.79 -5.72871 -0.221672 0
M  V30 17498 H 1678.19 -5.97761 0.529346 0
M  V30 17499 H 1679.26 -4.70964 1.15415 0
M  V30 17500 N 1680.6 -0.229873 -1.55915 0
M  V30 17501 C 1681.53 0.671321 -2.23642 0
M  V30 17502 C 1682.51 1.19461 -1.21091 0
M  V30 17503 O 1683.7 1.23708 -1.49699 0
M  V30 17504 C 1680.83 1.87595 -2.92276 0
M  V30 17505 C 1679.78 1.48616 -4.01369 0
M  V30 17506 C 1679.11 2.77024 -4.57342 0
M  V30 17507 C 1680.41 0.669928 -5.17986 0
M  V30 17508 H 1682.1 0.106622 -2.9921 0
M  V30 17509 H 1679.65 0.0498418 -1.43914 0
M  V30 17510 H 1681.6 2.51191 -3.3835 0
M  V30 17511 H 1680.32 2.46576 -2.14168 0
M  V30 17512 H 1678.98 0.873623 -3.56038 0
M  V30 17513 H 1678.63 3.34166 -3.75955 0
M  V30 17514 H 1678.33 2.51674 -5.30975 0
M  V30 17515 H 1679.85 3.41548 -5.0614 0
M  V30 17516 H 1681.27 1.20978 -5.6039 0
M  V30 17517 H 1679.66 0.513174 -5.97902 0
M  V30 17518 H 1680.73 -0.321644 -4.83832 0
M  V30 17519 N 1682.08 1.5754 0.0434337 0
M  V30 17520 C 1683.49 1.54537 0.398819 0
M  V30 17521 C 1683.69 0.954055 1.77483 0
M  V30 17522 O 1682.75 0.568839 2.46009 0
M  V30 17523 C 1684.06 2.99058 0.313848 0
M  V30 17524 C 1685.61 3.10536 0.39198 0
M  V30 17525 C 1686.09 4.56761 0.336614 0
M  V30 17526 N 1687.58 4.61505 0.395844 0
M  V30 17527 C 1688.31 5.72168 0.375669 0
M  V30 17528 N 1687.81 6.92112 0.30863 0
M  V30 17529 N 1689.6 5.60496 0.424335 0
M  V30 17530 H 1681.75 1.94333 -0.857225 0
M  V30 17531 H 1684.01 0.890708 -0.324566 0
M  V30 17532 H 1683.72 3.4599 -0.631159 0
M  V30 17533 H 1683.59 3.60402 1.11313 0
M  V30 17534 H 1685.98 2.6356 1.32742 0
M  V30 17535 H 1686.06 2.5205 -0.436391 0
M  V30 17536 H 1685.71 5.04402 -0.595093 0
M  V30 17537 H 1685.64 5.13142 1.1829 0
M  V30 17538 H 1688.13 3.75202 0.450753 0
M  V30 17539 H 1688.44 7.72225 0.29794 0
M  V30 17540 H 1686.79 6.94456 0.274891 0
M  V30 17541 H 1689.98 4.65688 0.474599 0
M  V30 17542 H 1690.15 6.46732 0.405143 0
M  V30 17543 N 1683.56 -0.31543 1.54411 0
M  V30 17544 C 1684.52 -1.37154 1.83634 0
M  V30 17545 C 1685.52 -1.44349 0.708518 0
M  V30 17546 O 1686.71 -1.44235 0.976824 0
M  V30 17547 C 1683.84 -2.758 2.00368 0
M  V30 17548 H 1685.03 -1.12493 2.78002 0
M  V30 17549 H 1682.59 -0.551346 1.46253 0
M  V30 17550 H 1683.32 -3.05704 1.08238 0
M  V30 17551 H 1683.11 -2.7197 2.82445 0
M  V30 17552 H 1684.6 -3.52187 2.24397 0
M  V30 17553 N 1685.03 -1.46622 -0.577906 0
M  V30 17554 C 1686.31 -1.42657 -1.33822 0
M  V30 17555 C 1686.69 -0.11256 -2.108 0
M  V30 17556 O 1686.04 0.905903 -2.09775 0
M  V30 17557 C 1686.25 -2.65927 -2.26018 0
M  V30 17558 C 1687.6 -3.12277 -2.87695 0
M  V30 17559 O 1688.62 -2.66509 -2.36329 0
M  V30 17560 O 1687.48 -3.91786 -3.81007 0
M  V30 17561 H 1684.57 -0.567544 -0.601517 0
M  V30 17562 H 1687.12 -1.58795 -0.598524 0
M  V30 17563 H 1685.89 -3.53116 -1.68597 0
M  V30 17564 H 1685.52 -2.52272 -3.07318 0
M  V30 17565 N 1686.51 0.822941 -1.34408 0
M  V30 17566 C 1687.76 1.57604 -1.26513 0
M  V30 17567 C 1688.08 1.94303 0.164769 0
M  V30 17568 O 1687.35 1.62278 1.09738 0
M  V30 17569 H 1685.93 0.584399 -0.465282 0
M  V30 17570 H 1688.59 0.982582 -1.68319 0
M  V30 17571 H 1687.69 2.49886 -1.86986 0
M  V30 17572 N 1687.99 1.18137 1.04314 0
M  V30 17573 C 1689.24 0.973277 1.77121 0
M  V30 17574 C 1689.56 -0.498558 1.88519 0
M  V30 17575 O 1688.83 -1.36168 1.40837 0
M  V30 17576 H 1687.41 0.35712 0.656105 0
M  V30 17577 H 1690.07 1.48774 1.25906 0
M  V30 17578 H 1689.17 1.40917 2.78476 0
M  V30 17579 N 1689.47 -1.23186 0.98301 0
M  V30 17580 C 1690.4 -2.27054 0.544858 0
M  V30 17581 C 1691.38 -1.64749 -0.423281 0
M  V30 17582 O 1692.56 -1.91611 -0.316075 0
M  V30 17583 C 1689.69 -3.46972 -0.150976 0
M  V30 17584 C 1688.65 -4.21647 0.734707 0
M  V30 17585 C 1687.97 -5.34618 -0.0934874 0
M  V30 17586 C 1689.27 -4.81372 2.02679 0
M  V30 17587 H 1690.97 -2.63957 1.41305 0
M  V30 17588 H 1688.51 -1.26885 0.680895 0
M  V30 17589 H 1690.47 -4.18784 -0.468825 0
M  V30 17590 H 1689.19 -3.09137 -1.05364 0
M  V30 17591 H 1687.85 -3.51655 1.03605 0
M  V30 17592 H 1687.5 -4.93025 -0.996768 0
M  V30 17593 H 1687.2 -5.85503 0.496019 0
M  V30 17594 H 1688.72 -6.09251 -0.405658 0
M  V30 17595 H 1690.14 -5.45178 1.77353 0
M  V30 17596 H 1688.53 -5.42554 2.56429 0
M  V30 17597 H 1689.6 -4.01972 2.71194 0
M  V30 17598 N 1690.95 -0.754982 -1.38339 0
M  V30 17599 C 1691.89 -0.128193 -2.30444 0
M  V30 17600 C 1692.86 0.70813 -1.50249 0
M  V30 17601 O 1694.05 0.663969 -1.78875 0
M  V30 17602 C 1691.19 0.757921 -3.36674 0
M  V30 17603 C 1690.3 -0.093181 -4.31899 0
M  V30 17604 C 1689.44 0.796067 -5.25201 0
M  V30 17605 C 1688.48 -0.0585854 -6.12072 0
M  V30 17606 N 1687.61 0.7877 -6.97667 0
M  V30 17607 H 1692.45 -0.919204 -2.83469 0
M  V30 17608 H 1689.99 -0.464921 -1.3956 0
M  V30 17609 H 1691.95 1.28632 -3.96875 0
M  V30 17610 H 1690.58 1.5147 -2.85055 0
M  V30 17611 H 1689.63 -0.73922 -3.73148 0
M  V30 17612 H 1690.94 -0.753146 -4.93081 0
M  V30 17613 H 1690.1 1.39158 -5.90525 0
M  V30 17614 H 1688.83 1.48976 -4.64389 0
M  V30 17615 H 1687.84 -0.666754 -5.45742 0
M  V30 17616 H 1689.06 -0.749361 -6.74953 0
M  V30 17617 H 1687.01 1.46632 -6.39402 0
M  V30 17618 H 1686.93 0.184662 -7.55774 0
M  V30 17619 H 1688.2 1.36814 -7.674 0
M  V30 17620 N 1692.42 1.49318 -0.504168 0
M  V30 17621 C 1693.65 2.06869 0.0359415 0
M  V30 17622 C 1694.07 1.3641 1.30529 0
M  V30 17623 O 1693.42 0.443416 1.77031 0
M  V30 17624 C 1693.48 3.60333 0.290233 0
M  V30 17625 O 1693.2 4.28141 -0.928801 0
M  V30 17626 C 1694.7 4.34606 0.873628 0
M  V30 17627 H 1691.92 0.670643 -0.0218893 0
M  V30 17628 H 1694.46 1.92058 -0.702432 0
M  V30 17629 H 1692.62 3.74836 0.978594 0
M  V30 17630 H 1693.03 5.19894 -0.693595 0
M  V30 17631 H 1694.5 5.42846 1.00112 0
M  V30 17632 H 1694.98 3.97297 1.87221 0
M  V30 17633 H 1695.59 4.24717 0.222638 0
M  V30 17634 N 1693.9 0.238138 1.5579 0
M  V30 17635 C 1695.15 -0.388263 1.98335 0
M  V30 17636 C 1695.47 -1.59104 1.12743 0
M  V30 17637 O 1694.74 -1.9479 0.208201 0
M  V30 17638 H 1693.32 -0.14644 0.732505 0
M  V30 17639 H 1695.98 0.334891 1.92001 0
M  V30 17640 H 1695.08 -0.703359 3.04071 0
M  V30 17641 N 1695.38 -1.57561 -0.0350783 0
M  V30 17642 C 1696.63 -1.90127 -0.722727 0
M  V30 17643 C 1696.98 -0.836071 -1.73285 0
M  V30 17644 O 1696.27 0.155911 -1.90965 0
M  V30 17645 C 1696.47 -3.27169 -1.43858 0
M  V30 17646 C 1696.3 -4.4692 -0.499303 0
M  V30 17647 C 1695.07 -5.05151 -0.122572 0
M  V30 17648 C 1697.27 -5.1383 0.219747 0
M  V30 17649 N 1695.25 -6.08418 0.818587 0
M  V30 17650 C 1696.62 -6.11606 1.01678 0
M  V30 17651 C 1698.67 -4.9707 0.287329 0
M  V30 17652 C 1697.38 -6.94428 1.87517 0
M  V30 17653 C 1699.4 -5.80449 1.13282 0
M  V30 17654 C 1698.76 -6.77791 1.9178 0
M  V30 17655 H 1694.86 -0.744663 -0.238749 0
M  V30 17656 H 1697.45 -1.94693 0.0170172 0
M  V30 17657 H 1695.62 -3.23543 -2.14882 0
M  V30 17658 H 1697.35 -3.47269 -2.07814 0
M  V30 17659 H 1694.11 -4.71126 -0.483458 0
M  V30 17660 H 1694.53 -6.64722 1.2835 0
M  V30 17661 H 1699.17 -4.21697 -0.305248 0
M  V30 17662 H 1696.89 -7.69151 2.47857 0
M  V30 17663 H 1700.48 -5.6953 1.18857 0
M  V30 17664 H 1699.36 -7.41187 2.56147 0
M  V30 17665 N 1696.86 0.307236 -1.54576 0
M  V30 17666 C 1698.14 1.06243 -1.64231 0
M  V30 17667 C 1698.52 2.05415 -0.486589 0
M  V30 17668 O 1697.86 2.22565 0.517384 0
M  V30 17669 C 1698.07 1.74985 -3.01962 0
M  V30 17670 C 1699.42 2.2741 -3.58566 0
M  V30 17671 O 1700.45 1.85027 -3.04374 0
M  V30 17672 O 1699.3 3.05051 -4.53438 0
M  V30 17673 H 1696.4 0.490693 -0.665695 0
M  V30 17674 H 1698.94 0.305822 -1.66922 0
M  V30 17675 H 1697.72 1.02939 -3.77517 0
M  V30 17676 H 1697.34 2.57417 -3.03022 0
M  V30 17677 N 1698.34 1.46926 0.570122 0
M  V30 17678 C 1699.58 1.53113 1.32982 0
M  V30 17679 C 1699.92 0.187401 1.93294 0
M  V30 17680 O 1699.19 -0.802585 1.77169 0
M  V30 17681 C 1699.47 2.63936 2.44969 0
M  V30 17682 C 1699.33 4.07882 1.8961 0
M  V30 17683 C 1700.65 2.70753 3.46959 0
M  V30 17684 H 1697.76 0.557398 0.482158 0
M  V30 17685 H 1700.41 1.78923 0.639259 0
M  V30 17686 H 1698.56 2.42059 3.03874 0
M  V30 17687 H 1700.23 4.41084 1.35066 0
M  V30 17688 H 1698.47 4.16768 1.20361 0
M  V30 17689 H 1699.14 4.81175 2.70508 0
M  V30 17690 H 1701.62 2.90452 2.97954 0
M  V30 17691 H 1700.49 3.50093 4.2276 0
M  V30 17692 H 1700.76 1.77299 4.04991 0
M  V30 17693 N 1699.82 -0.815801 1.34842 0
M  V30 17694 C 1701.06 -1.57474 1.27788 0
M  V30 17695 C 1701.39 -1.9362 -0.149956 0
M  V30 17696 O 1700.67 -1.60605 -1.0971 0
M  V30 17697 C 1700.95 -2.86952 2.17556 0
M  V30 17698 C 1700.81 -2.5734 3.68912 0
M  V30 17699 C 1702.12 -3.88582 2.0662 0
M  V30 17700 H 1699.24 -0.57135 0.465541 0
M  V30 17701 H 1701.89 -0.939271 1.6516 0
M  V30 17702 H 1700.04 -3.41182 1.85815 0
M  V30 17703 H 1701.71 -2.09365 4.11052 0
M  V30 17704 H 1699.95 -1.90674 3.89648 0
M  V30 17705 H 1700.62 -3.49702 4.27098 0
M  V30 17706 H 1703.1 -3.43726 2.34503 0
M  V30 17707 H 1701.97 -4.7697 2.71644 0
M  V30 17708 H 1702.23 -4.29564 1.04532 0
M  V30 17709 N 1701.29 -1.18689 -1.03686 0
M  V30 17710 C 1702.23 -0.860751 -2.11344 0
M  V30 17711 C 1703.2 0.178884 -1.61613 0
M  V30 17712 O 1704.39 0.05699 -1.88414 0
M  V30 17713 C 1701.52 -0.286745 -3.37484 0
M  V30 17714 C 1700.56 -1.30417 -4.06071 0
M  V30 17715 S 1701.39 -2.86155 -4.52632 0
M  V30 17716 C 1702.55 -2.30276 -5.82 0
M  V30 17717 H 1702.78 -1.77251 -2.38683 0
M  V30 17718 H 1700.32 -1.01316 -1.16509 0
M  V30 17719 H 1702.27 0.0379216 -4.10482 0
M  V30 17720 H 1700.94 0.60319 -3.08254 0
M  V30 17721 H 1700.13 -0.851497 -4.96755 0
M  V30 17722 H 1699.73 -1.57527 -3.39207 0
M  V30 17723 H 1702.02 -1.68773 -6.56142 0
M  V30 17724 H 1702.97 -3.19275 -6.32036 0
M  V30 17725 H 1703.37 -1.73153 -5.37288 0
M  V30 17726 N 1702.77 1.22662 -0.989529 0
M  V30 17727 C 1703.73 2.22695 -0.542183 0
M  V30 17728 C 1704.73 1.56411 0.373132 0
M  V30 17729 O 1705.92 1.73412 0.165556 0
M  V30 17730 C 1703.06 3.40241 0.211841 0
M  V30 17731 H 1704.25 2.63786 -1.42678 0
M  V30 17732 H 1701.8 1.35654 -0.776377 0
M  V30 17733 H 1702.54 3.04618 1.11257 0
M  V30 17734 H 1702.32 3.89563 -0.445319 0
M  V30 17735 H 1703.81 4.14436 0.513107 0
M  V30 17736 N 1704.25 0.762308 1.37937 0
M  V30 17737 C 1705.21 0.148588 2.28718 0
M  V30 17738 C 1706.21 -0.638198 1.47593 0
M  V30 17739 O 1707.4 -0.463178 1.67929 0
M  V30 17740 C 1704.53 -0.797492 3.31441 0
M  V30 17741 H 1705.73 0.94872 2.84498 0
M  V30 17742 H 1703.28 0.529888 1.47044 0
M  V30 17743 H 1704.02 -1.62298 2.80767 0
M  V30 17744 H 1703.8 -0.23561 3.91391 0
M  V30 17745 H 1705.29 -1.22262 3.99302 0
M  V30 17746 N 1705.73 -1.49049 0.51208 0
M  V30 17747 C 1706.66 -2.32163 -0.249529 0
M  V30 17748 C 1707.64 -1.40957 -0.952114 0
M  V30 17749 O 1708.82 -1.69858 -0.94137 0
M  V30 17750 C 1705.95 -3.21737 -1.30776 0
M  V30 17751 C 1704.91 -4.21825 -0.724392 0
M  V30 17752 C 1704.23 -5.00411 -1.88396 0
M  V30 17753 C 1705.53 -5.21483 0.291975 0
M  V30 17754 H 1707.23 -2.96086 0.444253 0
M  V30 17755 H 1704.77 -1.42385 0.215093 0
M  V30 17756 H 1706.73 -3.78699 -1.84837 0
M  V30 17757 H 1705.45 -2.55779 -2.03088 0
M  V30 17758 H 1704.11 -3.66024 -0.205441 0
M  V30 17759 H 1703.76 -4.30891 -2.59502 0
M  V30 17760 H 1703.46 -5.68141 -1.49964 0
M  V30 17761 H 1704.98 -5.6022 -2.42869 0
M  V30 17762 H 1706.4 -5.73074 -0.160899 0
M  V30 17763 H 1704.79 -5.97166 0.592717 0
M  V30 17764 H 1705.86 -4.69714 1.20404 0
M  V30 17765 N 1707.21 -0.246397 -1.55662 0
M  V30 17766 C 1708.14 0.693998 -2.17391 0
M  V30 17767 C 1709.12 1.17321 -1.12581 0
M  V30 17768 O 1710.3 1.25144 -1.40965 0
M  V30 17769 C 1707.43 1.94311 -2.77418 0
M  V30 17770 C 1706.47 1.60181 -3.95277 0
M  V30 17771 S 1707.31 0.704877 -5.30841 0
M  V30 17772 C 1708.46 1.96301 -5.94321 0
M  V30 17773 H 1708.7 0.169407 -2.96817 0
M  V30 17774 H 1706.23 -0.0308583 -1.54369 0
M  V30 17775 H 1708.19 2.66022 -3.12638 0
M  V30 17776 H 1706.85 2.43883 -1.97939 0
M  V30 17777 H 1706.04 2.53053 -4.35867 0
M  V30 17778 H 1705.64 0.965141 -3.61332 0
M  V30 17779 H 1707.93 2.91031 -6.11806 0
M  V30 17780 H 1708.88 1.6006 -6.89773 0
M  V30 17781 H 1709.29 2.11487 -5.23387 0
M  V30 17782 N 1708.68 1.57577 0.026722 0
M  V30 17783 C 1709.93 1.89005 0.715645 0
M  V30 17784 C 1710.25 0.844388 1.7577 0
M  V30 17785 O 1709.52 -0.121693 1.95522 0
M  V30 17786 H 1708.1 0.697535 0.267308 0
M  V30 17787 H 1710.76 1.94898 -0.00788096 0
M  V30 17788 H 1709.86 2.87952 1.20374 0
M  V30 17789 N 1710.16 -0.299034 1.54737 0
M  V30 17790 C 1711.12 -1.35199 1.85078 0
M  V30 17791 C 1712.12 -1.4359 0.723788 0
M  V30 17792 O 1713.31 -1.43191 0.992067 0
M  V30 17793 C 1710.45 -2.73659 2.03282 0
M  V30 17794 H 1711.64 -1.09538 2.7918 0
M  V30 17795 H 1709.19 -0.535803 1.46829 0
M  V30 17796 H 1709.93 -3.04539 1.11475 0
M  V30 17797 H 1709.71 -2.68959 2.85313 0
M  V30 17798 H 1711.2 -3.49787 2.28119 0
M  V30 17799 N 1711.64 -1.47227 -0.562322 0
M  V30 17800 C 1712.55 -1.61953 -1.69731 0
M  V30 17801 C 1713.57 -0.502478 -1.66587 0
M  V30 17802 O 1714.74 -0.769335 -1.86127 0
M  V30 17803 C 1711.81 -1.62539 -3.06238 0
M  V30 17804 C 1710.87 -2.85632 -3.20489 0
M  V30 17805 C 1710.1 -2.86181 -4.50485 0
M  V30 17806 O 1710.32 -1.96099 -5.35632 0
M  V30 17807 O 1709.26 -3.7798 -4.68417 0
M  V30 17808 H 1713.08 -2.5798 -1.6025 0
M  V30 17809 H 1710.67 -1.30253 -0.73174 0
M  V30 17810 H 1712.55 -1.65634 -3.87483 0
M  V30 17811 H 1711.23 -0.696779 -3.16112 0
M  V30 17812 H 1710.13 -2.88084 -2.3866 0
M  V30 17813 H 1711.47 -3.7777 -3.15517 0
M  V30 17814 N 1713.12 0.808639 -1.35273 0
M  V30 17815 C 1714.03 1.95198 -1.30134 0
M  V30 17816 C 1715.04 1.72769 -0.206587 0
M  V30 17817 O 1716.22 1.96633 -0.4356 0
M  V30 17818 C 1713.28 3.29747 -1.07087 0
M  V30 17819 C 1712.35 3.65086 -2.25855 0
M  V30 17820 C 1711.58 4.93215 -2.03898 0
M  V30 17821 O 1711.8 5.61487 -1.00439 0
M  V30 17822 O 1710.74 5.26765 -2.91208 0
M  V30 17823 H 1714.56 2.0248 -2.26353 0
M  V30 17824 H 1712.15 0.946124 -1.15624 0
M  V30 17825 H 1714.03 4.10302 -0.960734 0
M  V30 17826 H 1712.7 3.23401 -0.139177 0
M  V30 17827 H 1711.61 2.84917 -2.42432 0
M  V30 17828 H 1712.94 3.76135 -3.17464 0
M  V30 17829 N 1714.6 1.19237 1.03055 0
M  V30 17830 C 1715.83 1.01769 1.79796 0
M  V30 17831 C 1716.23 -0.436738 1.8409 0
M  V30 17832 O 1715.58 -1.31514 1.28257 0
M  V30 17833 C 1715.64 1.50866 3.26312 0
M  V30 17834 C 1715.3 2.98949 3.45657 0
M  V30 17835 C 1716.3 3.96725 3.36014 0
M  V30 17836 C 1713.99 3.37605 3.71925 0
M  V30 17837 C 1715.98 5.31151 3.5236 0
M  V30 17838 C 1713.67 4.7219 3.87918 0
M  V30 17839 C 1714.66 5.68772 3.78137 0
M  V30 17840 O 1714.35 7.00919 3.9366 0
M  V30 17841 H 1714.08 0.359119 0.572721 0
M  V30 17842 H 1716.64 1.58449 1.30702 0
M  V30 17843 H 1714.87 0.885599 3.76423 0
M  V30 17844 H 1716.56 1.29633 3.84643 0
M  V30 17845 H 1717.32 3.68206 3.15672 0
M  V30 17846 H 1713.2 2.62982 3.78631 0
M  V30 17847 H 1716.75 6.06521 3.44643 0
M  V30 17848 H 1712.64 5.00405 4.07756 0
M  V30 17849 H 1713.41 7.07968 4.10761 0
M  V30 17850 N 1716.07 -1.22136 0.99602 0
M  V30 17851 C 1717.32 -1.9059 0.672303 0
M  V30 17852 C 1717.64 -1.77903 -0.798476 0
M  V30 17853 O 1716.91 -1.1682 -1.57257 0
M  V30 17854 H 1715.49 -0.705445 0.245676 0
M  V30 17855 H 1718.16 -1.48423 1.2632 0
M  V30 17856 H 1717.25 -2.97684 0.937577 0
M  V30 17857 N 1717.55 -0.769612 -1.37531 0
M  V30 17858 C 1718.8 -0.332966 -1.99744 0
M  V30 17859 C 1719.13 1.0899 -1.61094 0
M  V30 17860 O 1718.38 1.7639 -0.847656 0
M  V30 17861 C 1718.68 -0.421385 -3.54907 0
M  V30 17862 C 1718.35 -1.8022 -4.13318 0
M  V30 17863 C 1717.01 -2.18005 -4.28984 0
M  V30 17864 C 1719.36 -2.70724 -4.45374 0
M  V30 17865 C 1716.69 -3.45736 -4.74008 0
M  V30 17866 C 1719.04 -3.97862 -4.91822 0
M  V30 17867 C 1717.71 -4.35695 -5.05694 0
M  V30 17868 H 1716.98 -0.121841 -0.730914 0
M  V30 17869 H 1719.62 -0.98322 -1.64332 0
M  V30 17870 H 1717.93 0.312411 -3.90552 0
M  V30 17871 H 1719.62 -0.0648705 -4.00948 0
M  V30 17872 H 1716.21 -1.49852 -4.0155 0
M  V30 17873 H 1720.4 -2.42792 -4.32857 0
M  V30 17874 H 1715.65 -3.74946 -4.82935 0
M  V30 17875 H 1719.83 -4.68121 -5.15593 0
M  V30 17876 H 1717.46 -5.34729 -5.40341 0
M  V30 17877 N 1719.03 1.48775 -0.519977 0
M  V30 17878 C 1720.28 2.02092 0.0177154 0
M  V30 17879 C 1720.6 1.40024 1.35714 0
M  V30 17880 O 1719.87 0.562115 1.87662 0
M  V30 17881 H 1718.45 0.746939 0.00953578 0
M  V30 17882 H 1721.11 1.82595 -0.681535 0
M  V30 17883 H 1720.21 3.11815 0.133431 0
M  V30 17884 N 1720.51 0.254649 1.55529 0
M  V30 17885 C 1721.73 -0.374795 2.03985 0
M  V30 17886 C 1722.16 -1.50188 1.13249 0
M  V30 17887 O 1721.52 -1.80855 0.126963 0
M  V30 17888 C 1721.56 -0.852635 3.50375 0
M  V30 17889 O 1720.67 -1.9616 3.6276 0
M  V30 17890 H 1720.01 -0.0806157 0.659088 0
M  V30 17891 H 1722.54 0.38297 2.00984 0
M  V30 17892 H 1722.55 -1.15381 3.91345 0
M  V30 17893 H 1721.22 -0.0279044 4.15891 0
M  V30 17894 H 1719.8 -1.66453 3.33688 0
M  V30 17895 N 1721.99 -1.57589 -0.0183649 0
M  V30 17896 C 1723.24 -1.88937 -0.706105 0
M  V30 17897 C 1723.55 -0.854565 -1.75945 0
M  V30 17898 O 1724.75 -1.05763 -2.50053 0
M  V30 17899 C 1723.21 -3.35329 -1.307 0
M  V30 17900 C 1722.82 -4.47064 -0.289444 0
M  V30 17901 C 1724.56 -3.75811 -1.97399 0
M  V30 17902 C 1722.47 -5.84523 -0.899288 0
M  V30 17903 H 1721.4 -0.704959 -0.267486 0
M  V30 17904 H 1724.05 -1.83458 0.0391685 0
M  V30 17905 H 1722.43 -3.35586 -2.10233 0
M  V30 17906 H 1723.61 -4.58294 0.479958 0
M  V30 17907 H 1721.92 -4.15484 0.276066 0
M  V30 17908 H 1724.52 -4.75834 -2.43898 0
M  V30 17909 H 1724.86 -3.08362 -2.79676 0
M  V30 17910 H 1725.39 -3.77774 -1.24626 0
M  V30 17911 H 1722.13 -6.55398 -0.11571 0
M  V30 17912 H 1721.65 -5.76993 -1.63828 0
M  V30 17913 H 1723.33 -6.31595 -1.40344 0
M  V30 17914 N 1723.46 0.290824 -1.54893 0
M  V30 17915 C 1724.43 1.34215 -1.85793 0
M  V30 17916 C 1725.43 1.43204 -0.731393 0
M  V30 17917 O 1726.62 1.42663 -0.999647 0
M  V30 17918 C 1723.75 2.72577 -2.0473 0
M  V30 17919 H 1724.94 1.08056 -2.79757 0
M  V30 17920 H 1722.5 0.528008 -1.47111 0
M  V30 17921 H 1723.23 3.03943 -1.13088 0
M  V30 17922 H 1723.02 2.67442 -2.86736 0
M  V30 17923 H 1724.51 3.48573 -2.29971 0
M  V30 17924 N 1724.94 1.47523 0.554506 0
M  V30 17925 C 1725.88 1.54756 1.67707 0
M  V30 17926 C 1726.85 0.39953 1.57615 0
M  V30 17927 O 1728.04 0.60771 1.78435 0
M  V30 17928 C 1725.16 1.45263 3.05968 0
M  V30 17929 C 1724.21 2.64602 3.34497 0
M  V30 17930 S 1725.04 4.26775 3.23455 0
M  V30 17931 C 1726.2 4.19839 4.64204 0
M  V30 17932 H 1726.43 2.49728 1.61318 0
M  V30 17933 H 1723.97 1.35754 0.735541 0
M  V30 17934 H 1725.92 1.40473 3.85717 0
M  V30 17935 H 1724.58 0.516709 3.09821 0
M  V30 17936 H 1723.78 2.5403 4.35298 0
M  V30 17937 H 1723.38 2.66528 2.62372 0
M  V30 17938 H 1725.67 3.8826 5.55212 0
M  V30 17939 H 1726.61 5.20736 4.79833 0
M  V30 17940 H 1727.02 3.5066 4.42378 0
M  V30 17941 N 1726.42 -0.801453 1.357 0
M  V30 17942 C 1727.67 -1.55392 1.28594 0
M  V30 17943 C 1727.98 -1.95125 -0.136199 0
M  V30 17944 O 1729.19 -2.69492 -0.329568 0
M  V30 17945 C 1727.64 -2.80456 2.2555 0
M  V30 17946 C 1727.25 -2.47939 3.73135 0
M  V30 17947 C 1729 -3.58457 2.27396 0
M  V30 17948 C 1726.9 -3.69326 4.61901 0
M  V30 17949 H 1725.83 -0.583286 0.477801 0
M  V30 17950 H 1728.48 -0.880525 1.60994 0
M  V30 17951 H 1726.87 -3.49532 1.86127 0
M  V30 17952 H 1728.04 -1.86837 4.21223 0
M  V30 17953 H 1726.36 -1.83173 3.73947 0
M  V30 17954 H 1728.95 -4.48625 2.90929 0
M  V30 17955 H 1729.3 -3.96162 1.27912 0
M  V30 17956 H 1729.83 -2.96348 2.65373 0
M  V30 17957 H 1726.57 -3.36726 5.62402 0
M  V30 17958 H 1726.09 -4.29636 4.18536 0
M  V30 17959 H 1727.77 -4.36496 4.77578 0
M  V30 17960 N 1727.9 -1.19782 -1.02421 0
M  V30 17961 C 1728.86 -0.941631 -2.08964 0
M  V30 17962 C 1729.86 0.0797747 -1.60602 0
M  V30 17963 O 1731.05 -0.155473 -1.73505 0
M  V30 17964 C 1728.18 -0.416114 -3.38351 0
M  V30 17965 H 1729.38 -1.88661 -2.33125 0
M  V30 17966 H 1726.93 -1.01212 -1.19104 0
M  V30 17967 H 1727.66 0.53469 -3.19862 0
M  V30 17968 H 1727.45 -1.15262 -3.74776 0
M  V30 17969 H 1728.94 -0.256114 -4.16814 0
M  V30 17970 N 1729.38 1.21606 -1.00248 0
M  V30 17971 C 1730.29 2.2757 -0.570004 0
M  V30 17972 C 1731.3 1.69669 0.385788 0
M  V30 17973 O 1732.48 1.99839 0.250246 0
M  V30 17974 C 1729.54 3.46558 0.0990566 0
M  V30 17975 C 1728.61 4.19741 -0.9009 0
M  V30 17976 C 1727.84 5.33048 -0.263673 0
M  V30 17977 O 1728.06 5.62599 0.940131 0
M  V30 17978 O 1727 5.93978 -0.973342 0
M  V30 17979 H 1730.82 2.66751 -1.45182 0
M  V30 17980 H 1728.41 1.27955 -0.771224 0
M  V30 17981 H 1730.29 4.18733 0.47339 0
M  V30 17982 H 1728.96 3.09283 0.955285 0
M  V30 17983 H 1727.87 3.49798 -1.32634 0
M  V30 17984 H 1729.2 4.60921 -1.72664 0
M  V30 17985 N 1730.86 0.776895 1.37121 0
M  V30 17986 C 1732.1 0.342876 1.9917 0
M  V30 17987 C 1732.42 -1.08574 1.61977 0
M  V30 17988 O 1731.69 -1.74634 0.887689 0
M  V30 17989 H 1730.27 0.123788 0.736672 0
M  V30 17990 H 1732.94 0.996163 1.67519 0
M  V30 17991 H 1732.03 0.424637 3.09198 0
M  V30 17992 N 1732.33 -1.48497 0.527859 0
M  V30 17993 C 1733.57 -2.04399 -0.00503337 0
M  V30 17994 C 1733.94 -1.39636 -1.3178 0
M  V30 17995 O 1735.14 -1.86412 -1.93659 0
M  V30 17996 C 1733.41 -3.57175 -0.126716 0
M  V30 17997 S 1734.97 -4.3454 -0.60998 0
M  V30 17998 H 1731.79 -0.710914 0.0110467 0
M  V30 17999 H 1734.39 -1.82232 0.707938 0
M  V30 18000 H 1733.09 -4.01845 0.833581 0
M  V30 18001 H 1732.62 -3.83792 -0.864129 0
M  V30 18002 H 1734.64 -4.59417 -1.87484 0
M  V30 18003 N 1733.81 -0.262893 -1.55392 0
M  V30 18004 C 1735.06 0.357939 -1.98499 0
M  V30 18005 C 1735.37 1.5789 -1.15456 0
M  V30 18006 O 1736.58 2.2719 -1.4865 0
M  V30 18007 C 1735.04 0.688205 -3.53259 0
M  V30 18008 C 1734.64 -0.512257 -4.45062 0
M  V30 18009 C 1736.39 1.27234 -4.04984 0
M  V30 18010 C 1734.29 -0.157257 -5.91191 0
M  V30 18011 H 1733.22 0.137514 -0.741354 0
M  V30 18012 H 1735.88 -0.365626 -1.79821 0
M  V30 18013 H 1734.26 1.47034 -3.67692 0
M  V30 18014 H 1735.43 -1.28935 -4.42394 0
M  V30 18015 H 1733.75 -1.0124 -4.03905 0
M  V30 18016 H 1736.34 1.55155 -5.11694 0
M  V30 18017 H 1736.69 2.20217 -3.53285 0
M  V30 18018 H 1737.22 0.552763 -3.93941 0
M  V30 18019 H 1733.96 -1.05464 -6.4696 0
M  V30 18020 H 1733.48 0.583319 -5.96957 0
M  V30 18021 H 1735.16 0.254892 -6.46498 0
M  V30 18022 N 1735.29 1.57597 0.0100073 0
M  V30 18023 C 1736.22 2.03212 1.03826 0
M  V30 18024 C 1737.2 0.920049 1.34067 0
M  V30 18025 O 1738.38 1.18739 1.46401 0
M  V30 18026 C 1735.51 2.42128 2.36836 0
M  V30 18027 C 1734.56 3.63969 2.22326 0
M  V30 18028 S 1735.39 5.12313 1.5587 0
M  V30 18029 C 1736.55 5.54489 2.90331 0
M  V30 18030 H 1736.78 2.90112 0.649812 0
M  V30 18031 H 1734.31 1.52816 0.220575 0
M  V30 18032 H 1736.27 2.65219 3.1332 0
M  V30 18033 H 1734.93 1.55646 2.72824 0
M  V30 18034 H 1734.12 3.88916 3.20562 0
M  V30 18035 H 1733.73 3.40829 1.53986 0
M  V30 18036 H 1736.02 5.56338 3.86645 0
M  V30 18037 H 1736.96 6.54564 2.70095 0
M  V30 18038 H 1737.37 4.8203 2.93781 0
M  V30 18039 N 1736.77 -0.282606 1.55045 0
M  V30 18040 C 1737.73 -1.33228 1.86502 0
M  V30 18041 C 1738.73 -1.42814 0.738977 0
M  V30 18042 O 1739.92 -1.42131 1.0072 0
M  V30 18043 C 1737.05 -2.71488 2.06173 0
M  V30 18044 H 1738.25 -1.06571 2.80326 0
M  V30 18045 H 1735.8 -0.520199 1.47389 0
M  V30 18046 H 1736.53 -3.03339 1.14699 0
M  V30 18047 H 1736.32 -2.65917 2.8815 0
M  V30 18048 H 1737.81 -3.47348 2.31817 0
M  V30 18049 N 1738.25 -1.47815 -0.546675 0
M  V30 18050 C 1739.66 -1.33566 -0.873628 0
M  V30 18051 C 1739.86 -0.334067 -1.98711 0
M  V30 18052 O 1738.92 0.250675 -2.51253 0
M  V30 18053 C 1740.23 -2.73171 -1.25691 0
M  V30 18054 C 1741.78 -2.81535 -1.36774 0
M  V30 18055 C 1742.25 -4.21804 -1.78454 0
M  V30 18056 N 1743.74 -4.24396 -1.85586 0
M  V30 18057 C 1744.48 -5.29854 -2.19186 0
M  V30 18058 N 1743.98 -6.45606 -2.51326 0
M  V30 18059 N 1745.77 -5.17237 -2.2005 0
M  V30 18060 H 1737.92 -2.11564 0.188285 0
M  V30 18061 H 1740.18 -0.947754 0.0215773 0
M  V30 18062 H 1739.89 -3.47946 -0.512485 0
M  V30 18063 H 1739.76 -3.05622 -2.21077 0
M  V30 18064 H 1742.15 -2.07025 -2.10297 0
M  V30 18065 H 1742.23 -2.52724 -0.395504 0
M  V30 18066 H 1741.87 -4.96823 -1.05498 0
M  V30 18067 H 1741.8 -4.48046 -2.76699 0
M  V30 18068 H 1744.3 -3.40895 -1.63092 0
M  V30 18069 H 1744.61 -7.21825 -2.76022 0
M  V30 18070 H 1742.95 -6.48909 -2.48883 0
M  V30 18071 H 1746.14 -4.2583 -1.94387 0
M  V30 18072 H 1746.32 -5.99529 -2.45905 0
M  V30 18073 N 1739.72 0.794246 -1.36123 0
M  V30 18074 C 1740.97 1.55421 -1.30277 0
M  V30 18075 C 1741.3 1.93834 0.119134 0
M  V30 18076 O 1740.58 1.6233 1.07141 0
M  V30 18077 C 1740.86 2.83454 -2.22094 0
M  V30 18078 C 1740.71 2.51439 -3.72959 0
M  V30 18079 C 1742.03 3.85246 -2.12776 0
M  V30 18080 H 1739.15 0.563871 -0.474572 0
M  V30 18081 H 1741.79 0.912877 -1.66633 0
M  V30 18082 H 1739.94 3.38182 -1.9122 0
M  V30 18083 H 1741.62 2.02799 -4.14331 0
M  V30 18084 H 1739.86 1.84451 -3.92632 0
M  V30 18085 H 1740.53 3.42863 -4.32608 0
M  V30 18086 H 1743.01 3.39952 -2.39942 0
M  V30 18087 H 1741.88 4.72588 -2.79198 0
M  V30 18088 H 1742.14 4.27847 -1.11353 0
M  V30 18089 N 1741.2 1.20323 1.01785 0
M  V30 18090 C 1742.44 1.0239 1.76906 0
M  V30 18091 C 1742.81 -0.436461 1.86973 0
M  V30 18092 O 1744.01 -0.735939 2.58529 0
M  V30 18093 C 1742.28 1.68729 3.15064 0
M  V30 18094 S 1743.84 1.65881 4.06237 0
M  V30 18095 H 1740.65 0.367179 0.608852 0
M  V30 18096 H 1743.26 1.52857 1.21881 0
M  V30 18097 H 1741.96 2.74194 3.05362 0
M  V30 18098 H 1741.49 1.18387 3.75164 0
M  V30 18099 H 1743.51 0.6908 4.91368 0
M  V30 18100 N 1742.68 -1.21073 1.00892 0
M  V30 18101 C 1743.63 -2.21426 0.543574 0
M  V30 18102 C 1744.61 -1.55927 -0.396938 0
M  V30 18103 O 1745.81 -1.75613 -0.221152 0
M  V30 18104 C 1742.93 -3.43074 -0.124494 0
M  V30 18105 C 1742.02 -4.15753 0.837269 0
M  V30 18106 N 1742.41 -4.64936 1.99168 0
M  V30 18107 C 1740.71 -4.41142 0.656473 0
M  V30 18108 C 1741.41 -5.20527 2.59666 0
M  V30 18109 N 1740.39 -5.10133 1.87792 0
M  V30 18110 H 1744.19 -2.5711 1.42378 0
M  V30 18111 H 1741.7 -1.36923 0.873254 0
M  V30 18112 H 1743.7 -4.14181 -0.475363 0
M  V30 18113 H 1742.36 -3.08897 -1.00064 0
M  V30 18114 H 1743.37 -4.60392 2.37191 0
M  V30 18115 H 1740.05 -4.17144 -0.172261 0
M  V30 18116 H 1741.44 -5.69011 3.57318 0
M  V30 18117 N 1744.16 -0.784156 -1.36707 0
M  V30 18118 C 1745.39 -0.365901 -2.03639 0
M  V30 18119 C 1745.8 1.01599 -1.59132 0
M  V30 18120 O 1745.16 1.65072 -0.778298 0
M  V30 18121 C 1745.21 -0.414035 -3.59121 0
M  V30 18122 O 1744.93 -1.74142 -4.02003 0
M  V30 18123 C 1746.43 0.0142546 -4.43298 0
M  V30 18124 H 1743.65 -0.151525 -0.653667 0
M  V30 18125 H 1746.2 -1.06154 -1.7479 0
M  V30 18126 H 1744.35 0.233134 -3.86698 0
M  V30 18127 H 1744.76 -1.68861 -4.96575 0
M  V30 18128 H 1746.24 -0.0705681 -5.51955 0
M  V30 18129 H 1746.72 1.06623 -4.26061 0
M  V30 18130 H 1747.32 -0.605201 -4.20972 0
M  V30 18131 N 1745.64 1.48215 -0.535727 0
M  V30 18132 C 1746.58 2.31387 0.237209 0
M  V30 18133 C 1747.58 1.41589 0.929995 0
M  V30 18134 O 1748.78 1.58466 0.853725 0
M  V30 18135 H 1745.16 0.745928 0.0953663 0
M  V30 18136 H 1747.13 2.94452 -0.483772 0
M  V30 18137 C 1745.88 3.23771 1.26757 0
M  V30 18138 H 1745.2 3.92818 0.743902 0
M  V30 18139 H 1746.64 3.84841 1.7797 0
M  V30 18140 C 1745.1 2.45779 2.30422 0
M  V30 18141 O 1745.63 2.18673 3.36964 0
M  V30 18142 N 1743.84 2.07171 2.03785 0
M  V30 18143 H 1743.38 2.29416 1.17159 0
M  V30 18144 H 1743.34 1.55301 2.73366 0
M  V30 18145 N 1747.11 0.27113 1.5525 0
M  V30 18146 C 1748.06 -0.634087 2.2379 0
M  V30 18147 C 1749.06 -1.16101 1.23357 0
M  V30 18148 O 1750.26 -1.1151 1.413 0
M  V30 18149 H 1746.64 -0.223023 0.718168 0
M  V30 18150 H 1748.61 -0.0331304 2.98382 0
M  V30 18151 C 1747.36 -1.80879 2.96948 0
M  V30 18152 H 1746.68 -1.41252 3.74016 0
M  V30 18153 H 1748.12 -2.41888 3.48233 0
M  V30 18154 C 1746.58 -2.69481 2.02192 0
M  V30 18155 O 1747.11 -3.69725 1.57056 0
M  V30 18156 N 1745.32 -2.36565 1.68776 0
M  V30 18157 H 1744.86 -1.55096 2.05677 0
M  V30 18158 H 1744.82 -2.96119 1.05646 0
M  V30 18159 N 1748.59 -1.576 -0.00164943 0
M  V30 18160 C 1749.83 -1.92353 -0.691364 0
M  V30 18161 C 1750.2 -0.872536 -1.71029 0
M  V30 18162 O 1751.4 -1.10526 -2.45026 0
M  V30 18163 C 1749.67 -3.32163 -1.31918 0
M  V30 18164 S 1751.23 -3.88798 -2.03425 0
M  V30 18165 H 1748.05 -0.673314 -0.228407 0
M  V30 18166 H 1750.65 -1.95424 0.0546418 0
M  V30 18167 H 1749.35 -4.06496 -0.564746 0
M  V30 18168 H 1748.88 -3.32462 -2.10316 0
M  V30 18169 H 1750.9 -3.6974 -3.30918 0
M  V30 18170 N 1750.07 0.274379 -1.55193 0
M  V30 18171 C 1751.48 0.845522 -1.66457 0
M  V30 18172 C 1751.83 1.87097 -0.590684 0
M  V30 18173 O 1750.96 2.14733 0.268065 0
M  V30 18174 C 1751.55 1.54039 -3.01757 0
M  V30 18175 C 1750.11 2.05958 -3.15053 0
M  V30 18176 C 1749.26 0.901169 -2.62248 0
M  V30 18177 H 1752.21 0.0507599 -1.58619 0
M  V30 18178 H 1752.23 2.40729 -2.94669 0
M  V30 18179 H 1751.74 0.793807 -3.79895 0
M  V30 18180 H 1749.84 2.83582 -2.41686 0
M  V30 18181 H 1749.96 2.27584 -4.21595 0
M  V30 18182 H 1748.32 1.29416 -2.19371 0
M  V30 18183 H 1749.1 0.168116 -3.42888 0
M  V30 18184 N 1751.55 1.48103 0.538828 0
M  V30 18185 C 1752.79 1.559 1.29704 0
M  V30 18186 C 1753.13 0.228359 1.92853 0
M  V30 18187 O 1752.4 -0.764825 1.78831 0
M  V30 18188 C 1752.69 2.69072 2.39316 0
M  V30 18189 C 1752.54 4.11812 1.80916 0
M  V30 18190 C 1753.86 2.78051 3.41138 0
M  V30 18191 H 1750.98 0.5675 0.470226 0
M  V30 18192 H 1753.62 1.80239 0.601163 0
M  V30 18193 H 1751.77 2.4845 2.98672 0
M  V30 18194 H 1753.44 4.4385 1.25679 0
M  V30 18195 H 1751.68 4.19227 1.11494 0
M  V30 18196 H 1752.35 4.86805 2.6024 0
M  V30 18197 H 1754.83 2.96707 2.91726 0
M  V30 18198 H 1753.71 3.58982 4.15239 0
M  V30 18199 H 1753.97 1.85849 4.01139 0
M  V30 18200 N 1753.03 -0.787016 1.36542 0
M  V30 18201 C 1754.27 -1.54194 1.30647 0
M  V30 18202 C 1754.6 -1.94671 -0.113195 0
M  V30 18203 O 1753.87 -1.65131 -1.05397 0
M  V30 18204 H 1752.45 -0.571857 0.480613 0
M  V30 18205 H 1755.11 -0.93761 1.70865 0
M  V30 18206 H 1754.2 -2.4484 1.93545 0
M  V30 18207 N 1754.5 -1.20861 -1.01145 0
M  V30 18208 C 1755.75 -1.02343 -1.75082 0
M  V30 18209 C 1756.08 0.44278 -1.89085 0
M  V30 18210 O 1755.36 1.32867 -1.42045 0
M  V30 18211 C 1755.64 -1.71368 -3.1671 0
M  V30 18212 C 1755.49 -3.25466 -3.1047 0
M  V30 18213 C 1756.81 -1.45097 -4.15494 0
M  V30 18214 H 1753.93 -0.373198 -0.635525 0
M  V30 18215 H 1756.57 -1.48947 -1.17961 0
M  V30 18216 H 1754.72 -1.31746 -3.6548 0
M  V30 18217 H 1756.4 -3.74415 -2.69464 0
M  V30 18218 H 1754.64 -3.56104 -2.47735 0
M  V30 18219 H 1755.31 -3.68924 -4.10608 0
M  V30 18220 H 1757.79 -1.7948 -3.75401 0
M  V30 18221 H 1756.66 -1.95917 -5.12745 0
M  V30 18222 H 1756.92 -0.379628 -4.40467 0
M  V30 18223 N 1755.98 1.20536 -1.01532 0
M  V30 18224 C 1756.95 2.21495 -0.589298 0
M  V30 18225 C 1757.95 1.57167 0.339871 0
M  V30 18226 O 1759.14 1.73724 0.128736 0
M  V30 18227 C 1756.27 3.40614 0.139623 0
M  V30 18228 H 1757.46 2.607 -1.48241 0
M  V30 18229 H 1755.01 1.33977 -0.804977 0
M  V30 18230 H 1755.75 3.0691 1.04771 0
M  V30 18231 H 1755.53 3.88531 -0.52785 0
M  V30 18232 H 1757.02 4.15431 0.425083 0
M  V30 18233 N 1757.46 0.791395 1.36289 0
M  V30 18234 C 1758.69 0.376696 2.03442 0
M  V30 18235 C 1759.1 -1.00753 1.59669 0
M  V30 18236 O 1758.46 -1.64657 0.787042 0
M  V30 18237 C 1758.51 0.433074 3.58897 0
M  V30 18238 O 1758.23 1.76272 4.01073 0
M  V30 18239 C 1759.73 0.00925475 4.43299 0
M  V30 18240 H 1756.95 0.154989 0.652855 0
M  V30 18241 H 1759.5 1.07079 1.74225 0
M  V30 18242 H 1757.65 -0.212623 3.86816 0
M  V30 18243 H 1758.07 1.71492 4.95672 0
M  V30 18244 H 1759.54 0.0998386 5.5191 0
M  V30 18245 H 1760.02 -1.04362 4.26621 0
M  V30 18246 H 1760.62 0.627518 4.20645 0
M  V30 18247 N 1758.94 -1.47929 0.54358 0
M  V30 18248 C 1759.87 -2.27843 -0.249005 0
M  V30 18249 C 1760.88 -1.36189 -0.891987 0
M  V30 18250 O 1762.07 -1.61127 -0.768135 0
M  V30 18251 C 1759.17 -3.10016 -1.36906 0
M  V30 18252 C 1758.35 -4.29541 -0.82545 0
M  V30 18253 C 1757.41 -4.93416 -1.82831 0
M  V30 18254 O 1756.43 -5.52222 -1.37984 0
M  V30 18255 N 1757.63 -4.86881 -3.16113 0
M  V30 18256 H 1760.4 -2.96505 0.436436 0
M  V30 18257 H 1757.96 -1.57407 0.378774 0
M  V30 18258 H 1759.95 -3.49616 -2.0384 0
M  V30 18259 H 1758.52 -2.43686 -1.95796 0
M  V30 18260 H 1757.74 -3.94195 0.0202776 0
M  V30 18261 H 1759.03 -5.06882 -0.441368 0
M  V30 18262 H 1758.43 -4.4028 -3.55205 0
M  V30 18263 H 1756.98 -5.30541 -3.78642 0
M  V30 18264 N 1760.42 -0.27936 -1.55104 0
M  V30 18265 C 1761.35 0.639572 -2.20096 0
M  V30 18266 C 1762.36 1.11423 -1.18696 0
M  V30 18267 O 1763.55 1.0354 -1.45402 0
M  V30 18268 C 1760.65 1.88494 -2.81644 0
M  V30 18269 C 1759.82 1.55639 -4.08773 0
M  V30 18270 C 1758.88 2.65466 -4.54328 0
M  V30 18271 O 1757.91 2.31473 -5.20008 0
M  V30 18272 N 1759.11 3.95606 -4.24825 0
M  V30 18273 H 1761.88 0.0833048 -2.99584 0
M  V30 18274 H 1759.44 -0.100637 -1.61587 0
M  V30 18275 H 1761.43 2.61272 -3.09062 0
M  V30 18276 H 1760 2.35015 -2.06123 0
M  V30 18277 H 1759.22 0.662253 -3.88597 0
M  V30 18278 H 1760.51 1.31196 -4.91594 0
M  V30 18279 H 1759.91 4.26043 -3.72161 0
M  V30 18280 H 1758.46 4.64748 -4.57004 0
M  V30 18281 N 1761.9 1.57599 -0.0067085 0
M  V30 18282 C 1762.81 2.1228 0.998709 0
M  V30 18283 C 1763.82 1.06964 1.37239 0
M  V30 18284 O 1765 1.38902 1.45836 0
M  V30 18285 C 1762.06 2.62076 2.26973 0
M  V30 18286 C 1761.12 3.8202 1.95855 0
M  V30 18287 C 1760.36 4.29431 3.16898 0
M  V30 18288 O 1760.58 3.76136 4.2881 0
M  V30 18289 O 1759.51 5.21518 3.00504 0
M  V30 18290 H 1763.34 2.9842 0.563849 0
M  V30 18291 H 1760.92 1.47881 0.212535 0
M  V30 18292 H 1762.81 2.94274 3.01631 0
M  V30 18293 H 1761.48 1.79031 2.69684 0
M  V30 18294 H 1760.39 3.54785 1.18653 0
M  V30 18295 H 1761.72 4.66159 1.57977 0
M  V30 18296 N 1763.37 -0.266145 1.55336 0
M  V30 18297 C 1764.79 -0.613693 1.47329 0
M  V30 18298 C 1764.99 -1.89207 0.693038 0
M  V30 18299 O 1764.05 -2.51586 0.214642 0
M  V30 18300 C 1765.36 -0.734287 2.91597 0
M  V30 18301 C 1766.91 -0.82789 3.01853 0
M  V30 18302 C 1767.38 -0.980205 4.47388 0
M  V30 18303 N 1768.87 -1.04556 4.51245 0
M  V30 18304 C 1769.61 -1.18233 5.61078 0
M  V30 18305 N 1769.1 -1.28587 6.80762 0
M  V30 18306 N 1770.9 -1.21398 5.48834 0
M  V30 18307 H 1763.05 0.573316 2.04516 0
M  V30 18308 H 1765.31 0.195128 0.927701 0
M  V30 18309 H 1765.02 0.134714 3.51442 0
M  V30 18310 H 1764.89 -1.6124 3.41001 0
M  V30 18311 H 1767.28 -1.68735 2.421 0
M  V30 18312 H 1767.36 0.0749719 2.5569 0
M  V30 18313 H 1767 -0.125373 5.07745 0
M  V30 18314 H 1766.93 -1.89782 4.91213 0
M  V30 18315 H 1769.42 -0.977667 3.65034 0
M  V30 18316 H 1769.74 -1.38876 7.60219 0
M  V30 18317 H 1768.08 -1.25579 6.8356 0
M  V30 18318 H 1771.27 -1.12944 4.5427 0
M  V30 18319 H 1771.45 -1.31713 6.34473 0
M  V30 18320 N 1764.85 -1.48386 -0.530967 0
M  V30 18321 C 1765.78 -1.6573 -1.64486 0
M  V30 18322 C 1766.76 -0.506198 -1.62393 0
M  V30 18323 O 1767.95 -0.738623 -1.79605 0
M  V30 18324 C 1765.08 -1.69594 -3.03076 0
M  V30 18325 C 1764.03 -2.84195 -3.20027 0
M  V30 18326 C 1763.36 -2.73148 -4.59668 0
M  V30 18327 C 1764.66 -4.25504 -3.02892 0
M  V30 18328 H 1766.35 -2.58983 -1.50227 0
M  V30 18329 H 1763.9 -1.24633 -0.721286 0
M  V30 18330 H 1765.85 -1.80316 -3.80873 0
M  V30 18331 H 1764.57 -0.729193 -3.18356 0
M  V30 18332 H 1763.23 -2.73027 -2.44647 0
M  V30 18333 H 1762.88 -1.74444 -4.71782 0
M  V30 18334 H 1762.58 -3.50047 -4.71954 0
M  V30 18335 H 1764.11 -2.85836 -5.39565 0
M  V30 18336 H 1765.52 -4.37511 -3.70482 0
M  V30 18337 H 1763.92 -5.03393 -3.26673 0
M  V30 18338 H 1764.99 -4.42036 -1.99329 0
M  V30 18339 N 1766.33 0.779763 -1.36958 0
M  V30 18340 C 1767.75 1.07919 -1.17582 0
M  V30 18341 C 1767.95 2.01499 -0.00649229 0
M  V30 18342 O 1767 2.43832 0.655905 0
M  V30 18343 C 1768.31 1.68439 -2.49096 0
M  V30 18344 C 1769.86 1.80735 -2.55546 0
M  V30 18345 C 1770.34 2.44669 -3.87171 0
M  V30 18346 N 1771.83 2.52127 -3.88569 0
M  V30 18347 C 1772.56 3.02429 -4.87159 0
M  V30 18348 N 1772.06 3.52964 -5.96144 0
M  V30 18349 N 1773.85 3.0123 -4.7457 0
M  V30 18350 H 1766 0.158249 -2.1181 0
M  V30 18351 H 1768.27 0.132826 -0.938649 0
M  V30 18352 H 1767.97 1.07147 -3.34981 0
M  V30 18353 H 1767.85 2.67832 -2.65604 0
M  V30 18354 H 1770.23 2.41162 -1.70073 0
M  V30 18355 H 1770.31 0.801199 -2.42929 0
M  V30 18356 H 1769.96 1.84883 -4.73055 0
M  V30 18357 H 1769.89 3.45874 -3.97088 0
M  V30 18358 H 1772.38 2.16355 -3.09837 0
M  V30 18359 H 1772.69 3.89725 -6.67334 0
M  V30 18360 H 1771.04 3.5109 -5.998 0
M  V30 18361 H 1774.23 2.61045 -3.88553 0
M  V30 18362 H 1774.4 3.40122 -5.51562 0
M  V30 18363 N 1767.81 1.21396 1.00503 0
M  V30 18364 C 1768.74 0.930982 2.09441 0
M  V30 18365 C 1769.75 -0.0857912 1.62574 0
M  V30 18366 O 1770.94 0.146701 1.77896 0
M  V30 18367 C 1768.04 0.376344 3.36804 0
M  V30 18368 C 1767.21 1.44744 4.12756 0
M  V30 18369 C 1766.27 0.902051 5.18411 0
M  V30 18370 O 1765.3 1.58548 5.46673 0
M  V30 18371 N 1766.5 -0.282718 5.79811 0
M  V30 18372 H 1769.27 1.86879 2.343 0
M  V30 18373 H 1766.83 1.1192 1.16985 0
M  V30 18374 H 1768.82 -0.00292068 4.047 0
M  V30 18375 H 1767.39 -0.466283 3.09103 0
M  V30 18376 H 1766.61 2.00056 3.39664 0
M  V30 18377 H 1767.9 2.16846 4.60277 0
M  V30 18378 H 1767.3 -0.855 5.59201 0
M  V30 18379 H 1765.85 -0.603494 6.49 0
M  V30 18380 N 1769.29 -1.19996 1.0217 0
M  V30 18381 C 1770.7 -1.4154 0.737473 0
M  V30 18382 C 1770.9 -1.89649 -0.680832 0
M  V30 18383 O 1769.96 -2.06865 -1.44787 0
M  V30 18384 C 1771.27 -2.43269 1.76751 0
M  V30 18385 C 1772.82 -2.57027 1.78623 0
M  V30 18386 C 1773.29 -3.62003 2.80567 0
M  V30 18387 N 1774.78 -3.69492 2.79339 0
M  V30 18388 C 1775.52 -4.50391 3.54874 0
M  V30 18389 N 1775.02 -5.35053 4.40103 0
M  V30 18390 N 1776.81 -4.44972 3.43448 0
M  V30 18391 H 1768.96 -0.870855 1.93726 0
M  V30 18392 H 1771.22 -0.444866 0.837137 0
M  V30 18393 H 1770.93 -2.14927 2.78387 0
M  V30 18394 H 1770.8 -3.42336 1.58386 0
M  V30 18395 H 1773.19 -2.84695 0.776695 0
M  V30 18396 H 1773.27 -1.58138 2.01062 0
M  V30 18397 H 1772.91 -3.35078 3.81687 0
M  V30 18398 H 1772.84 -4.60526 2.55388 0
M  V30 18399 H 1775.34 -3.09021 2.17518 0
M  V30 18400 H 1775.65 -5.93881 4.94495 0
M  V30 18401 H 1773.99 -5.34538 4.44178 0
M  V30 18402 H 1777.18 -3.77869 2.76283 0
M  V30 18403 H 1777.36 -5.07782 4.02569 0
M  V30 18404 N 1770.76 -0.798611 -1.35867 0
M  V30 18405 C 1772.01 -0.37526 -1.98993 0
M  V30 18406 C 1772.34 1.05549 -1.6337 0
M  V30 18407 O 1771.59 1.74552 -0.88488 0
M  V30 18408 C 1771.89 -0.496572 -3.53934 0
M  V30 18409 C 1771.56 -1.88946 -4.09402 0
M  V30 18410 C 1770.22 -2.27056 -4.24263 0
M  V30 18411 C 1772.57 -2.8011 -4.39531 0
M  V30 18412 C 1769.9 -3.55712 -4.66568 0
M  V30 18413 C 1772.25 -4.08205 -4.83272 0
M  V30 18414 C 1770.92 -4.46323 -4.96338 0
M  V30 18415 H 1770.19 -0.137317 -0.728165 0
M  V30 18416 H 1772.83 -1.01786 -1.6221 0
M  V30 18417 H 1771.14 0.229499 -3.91127 0
M  V30 18418 H 1772.84 -0.149903 -4.0072 0
M  V30 18419 H 1769.43 -1.58336 -3.98281 0
M  V30 18420 H 1773.61 -2.51919 -4.2761 0
M  V30 18421 H 1768.87 -3.85105 -4.74873 0
M  V30 18422 H 1773.04 -4.78952 -5.05547 0
M  V30 18423 H 1770.67 -5.4607 -5.28877 0
M  V30 18424 N 1772.24 1.47639 -0.551417 0
M  V30 18425 C 1773.19 2.29936 0.199514 0
M  V30 18426 C 1774.16 1.38704 0.913811 0
M  V30 18427 O 1775.34 1.67666 0.910643 0
M  V30 18428 C 1772.48 3.22544 1.22717 0
M  V30 18429 C 1771.6 4.28865 0.519527 0
M  V30 18430 C 1770.73 5.0863 1.53197 0
M  V30 18431 C 1769.77 6.06731 0.808981 0
M  V30 18432 N 1768.91 6.79476 1.76798 0
M  V30 18433 H 1773.75 2.93631 -0.508414 0
M  V30 18434 H 1771.28 1.44738 -0.262553 0
M  V30 18435 H 1773.24 3.74653 1.83551 0
M  V30 18436 H 1771.87 2.60726 1.9032 0
M  V30 18437 H 1770.92 3.79857 -0.203217 0
M  V30 18438 H 1772.24 4.98778 -0.0471224 0
M  V30 18439 H 1771.39 5.6486 2.214 0
M  V30 18440 H 1770.13 4.38605 2.13253 0
M  V30 18441 H 1769.13 5.49684 0.112991 0
M  V30 18442 H 1770.36 6.78762 0.214239 0
M  V30 18443 H 1768.31 6.12185 2.35722 0
M  V30 18444 H 1768.22 7.45539 1.25333 0
M  V30 18445 H 1769.49 7.40283 2.44133 0
M  V30 18446 N 1773.72 0.287581 1.54954 0
M  V30 18447 C 1774.97 -0.324967 1.9947 0
M  V30 18448 C 1775.29 -1.55437 1.17747 0
M  V30 18449 O 1774.56 -1.9403 0.270067 0
M  V30 18450 H 1773.14 -0.123062 0.736794 0
M  V30 18451 H 1775.8 0.395805 1.90839 0
M  V30 18452 H 1774.9 -0.606265 3.06155 0
M  V30 18453 N 1775.2 -1.57593 0.0150662 0
M  V30 18454 C 1776.44 -1.91497 -0.667587 0
M  V30 18455 C 1776.78 -0.890493 -1.7258 0
M  V30 18456 O 1776.05 0.0887462 -1.94297 0
M  V30 18457 C 1776.34 -3.35934 -1.29694 0
M  V30 18458 C 1776.19 -4.49109 -0.249242 0
M  V30 18459 C 1777.51 -3.80068 -2.21893 0
M  V30 18460 H 1774.63 -0.696408 -0.241217 0
M  V30 18461 H 1777.27 -1.89873 0.0694484 0
M  V30 18462 H 1775.42 -3.37448 -1.92512 0
M  V30 18463 H 1777.09 -4.59729 0.380417 0
M  V30 18464 H 1775.33 -4.31695 0.426861 0
M  V30 18465 H 1776 -5.47166 -0.728934 0
M  V30 18466 H 1778.48 -3.80201 -1.69076 0
M  V30 18467 H 1777.36 -4.81852 -2.62887 0
M  V30 18468 H 1777.62 -3.1478 -3.10429 0
M  V30 18469 N 1776.68 0.257904 -1.55475 0
M  V30 18470 C 1778.09 0.82782 -1.67344 0
M  V30 18471 C 1778.44 1.8646 -0.610494 0
M  V30 18472 O 1777.56 2.15005 0.245275 0
M  V30 18473 C 1778.16 1.5083 -3.03374 0
M  V30 18474 C 1776.72 2.02605 -3.17219 0
M  V30 18475 C 1775.86 0.873303 -2.63189 0
M  V30 18476 H 1778.82 0.0339334 -1.58664 0
M  V30 18477 H 1778.84 2.3759 -2.97205 0
M  V30 18478 H 1778.35 0.753469 -3.80716 0
M  V30 18479 H 1776.45 2.81002 -2.4468 0
M  V30 18480 H 1776.56 2.23099 -4.23985 0
M  V30 18481 H 1774.93 1.27082 -2.20731 0
M  V30 18482 H 1775.71 0.131739 -3.43047 0
M  V30 18483 N 1778.15 1.48666 0.52309 0
M  V30 18484 C 1779.4 1.56724 1.27601 0
M  V30 18485 C 1779.72 0.245958 1.93443 0
M  V30 18486 O 1778.99 -0.733053 1.81668 0
M  V30 18487 H 1777.57 0.57739 0.473952 0
M  V30 18488 H 1780.24 1.85169 0.608144 0
M  V30 18489 H 1779.33 2.35188 2.05166 0
M  V30 18490 N 1779.63 -0.772489 1.37369 0
M  V30 18491 C 1780.56 -1.89487 1.28948 0
M  V30 18492 C 1781.58 -1.61499 0.205434 0
M  V30 18493 O 1782.77 -1.7243 0.461519 0
M  V30 18494 C 1779.87 -3.24698 0.970798 0
M  V30 18495 C 1779.04 -3.80337 2.16015 0
M  V30 18496 C 1778.1 -4.94022 1.81187 0
M  V30 18497 O 1777.12 -5.09647 2.53473 0
M  V30 18498 N 1778.33 -5.75562 0.755549 0
M  V30 18499 H 1781.09 -1.97228 2.25658 0
M  V30 18500 H 1778.65 -0.951562 1.30984 0
M  V30 18501 H 1780.64 -3.98268 0.71866 0
M  V30 18502 H 1779.21 -3.12464 0.0922825 0
M  V30 18503 H 1778.43 -2.98554 2.57409 0
M  V30 18504 H 1779.72 -4.14242 2.95434 0
M  V30 18505 H 1779.12 -5.65486 0.155691 0
M  V30 18506 H 1777.68 -6.49362 0.563268 0
M  V30 18507 N 1781.11 -1.21927 -0.998575 0
M  V30 18508 C 1782.36 -1.04194 -1.73987 0
M  V30 18509 C 1782.69 0.4227 -1.89544 0
M  V30 18510 O 1781.96 1.31353 -1.43446 0
M  V30 18511 C 1782.25 -1.74717 -3.14874 0
M  V30 18512 C 1782.1 -3.28741 -3.07001 0
M  V30 18513 C 1783.42 -1.49495 -4.13931 0
M  V30 18514 H 1780.54 -0.379918 -0.631531 0
M  V30 18515 H 1783.18 -1.5019 -1.16374 0
M  V30 18516 H 1781.33 -1.35615 -3.64062 0
M  V30 18517 H 1783 -3.77252 -2.65478 0
M  V30 18518 H 1781.25 -3.58711 -2.43944 0
M  V30 18519 H 1781.92 -3.73258 -4.06672 0
M  V30 18520 H 1784.39 -1.83451 -3.73477 0
M  V30 18521 H 1783.27 -2.01344 -5.10639 0
M  V30 18522 H 1783.53 -0.426324 -4.4004 0
M  V30 18523 N 1782.59 1.19452 -1.02805 0
M  V30 18524 C 1783.83 1.89394 -0.725101 0
M  V30 18525 C 1784.17 1.79368 0.744361 0
M  V30 18526 O 1783.44 1.18548 1.54196 0
M  V30 18527 C 1783.73 3.40361 -1.17586 0
M  V30 18528 C 1783.58 3.59263 -2.70648 0
M  V30 18529 C 1784.9 4.33558 -0.756011 0
M  V30 18530 H 1782.02 0.687753 -0.264887 0
M  V30 18531 H 1784.66 1.40611 -1.27783 0
M  V30 18532 H 1782.81 3.82038 -0.70561 0
M  V30 18533 H 1784.48 3.26762 -3.25614 0
M  V30 18534 H 1782.72 3.02344 -3.1108 0
M  V30 18535 H 1783.39 4.65135 -2.97244 0
M  V30 18536 H 1785.87 3.9959 -1.16046 0
M  V30 18537 H 1784.75 5.37779 -1.09931 0
M  V30 18538 H 1785.01 4.40778 0.341677 0
M  V30 18539 N 1784.07 0.805805 1.35442 0
M  V30 18540 C 1785.01 0.203715 2.31706 0
M  V30 18541 C 1786.01 -0.646084 1.56595 0
M  V30 18542 O 1787.21 -0.539336 1.7173 0
M  V30 18543 H 1783.59 0.0471152 0.750523 0
M  V30 18544 H 1785.56 1.03076 2.80032 0
M  V30 18545 C 1784.31 -0.633791 3.41875 0
M  V30 18546 H 1783.63 0.0107715 3.99799 0
M  V30 18547 H 1785.07 -1.02147 4.11512 0
M  V30 18548 C 1783.53 -1.79899 2.84847 0
M  V30 18549 O 1784.06 -2.89643 2.78334 0
M  V30 18550 N 1782.27 -1.61027 2.41906 0
M  V30 18551 H 1781.81 -0.717599 2.47403 0
M  V30 18552 H 1781.77 -2.39147 2.04099 0
M  V30 18553 N 1785.54 -1.47344 0.559239 0
M  V30 18554 C 1786.79 -2.02468 0.035943 0
M  V30 18555 C 1787.12 -1.43337 -1.31472 0
M  V30 18556 O 1786.37 -0.579355 -1.86928 0
M  V30 18557 C 1786.67 -3.57247 -0.104523 0
M  V30 18558 C 1786.34 -4.35307 1.17551 0
M  V30 18559 C 1785 -4.56354 1.52625 0
M  V30 18560 C 1787.35 -4.8031 2.02365 0
M  V30 18561 C 1784.68 -5.19653 2.72356 0
M  V30 18562 C 1787.03 -5.4493 3.213 0
M  V30 18563 C 1785.7 -5.64209 3.56685 0
M  V30 18564 H 1784.97 -0.740883 0.0131525 0
M  V30 18565 H 1787.61 -1.76992 0.73116 0
M  V30 18566 H 1785.92 -3.81727 -0.88272 0
M  V30 18567 H 1787.62 -3.97551 -0.5248 0
M  V30 18568 H 1784.21 -4.19206 0.892413 0
M  V30 18569 H 1788.39 -4.63827 1.76575 0
M  V30 18570 H 1783.65 -5.32773 2.99938 0
M  V30 18571 H 1787.82 -5.78764 3.87305 0
M  V30 18572 H 1785.45 -6.13028 4.49556 0
M  V30 18573 N 1787.02 -0.295795 -1.54799 0
M  V30 18574 C 1788.27 0.315007 -2.00035 0
M  V30 18575 C 1788.6 1.54295 -1.1842 0
M  V30 18576 O 1787.85 1.94134 -0.247101 0
M  V30 18577 C 1788.15 0.721225 -3.50047 0
M  V30 18578 C 1787.82 -0.404395 -4.49083 0
M  V30 18579 C 1786.48 -0.713419 -4.75882 0
M  V30 18580 C 1788.83 -1.16185 -5.08085 0
M  V30 18581 C 1786.16 -1.78311 -5.58947 0
M  V30 18582 C 1788.51 -2.22142 -5.92314 0
M  V30 18583 C 1787.18 -2.53657 -6.17426 0
M  V30 18584 H 1786.45 0.115269 -0.73198 0
M  V30 18585 H 1789.09 -0.41381 -1.86976 0
M  V30 18586 H 1787.4 1.53005 -3.60689 0
M  V30 18587 H 1789.09 1.20491 -3.82469 0
M  V30 18588 H 1785.68 -0.153436 -4.28325 0
M  V30 18589 H 1789.87 -0.936365 -4.87387 0
M  V30 18590 H 1785.12 -2.03206 -5.76643 0
M  V30 18591 H 1789.3 -2.81296 -6.3706 0
M  V30 18592 H 1786.93 -3.36676 -6.81581 0
M  V30 18593 N 1788.5 1.57583 -0.0234236 0
M  V30 18594 C 1789.73 1.95577 0.66583 0
M  V30 18595 C 1790.14 0.898193 1.66521 0
M  V30 18596 O 1789.48 -0.129109 1.83246 0
M  V30 18597 C 1789.54 3.29685 1.43345 0
M  V30 18598 C 1789.21 4.53136 0.593048 0
M  V30 18599 C 1790.21 5.19739 -0.129251 0
M  V30 18600 C 1787.89 4.99473 0.532125 0
M  V30 18601 C 1789.88 6.30997 -0.901206 0
M  V30 18602 C 1787.57 6.10615 -0.24354 0
M  V30 18603 C 1788.57 6.76235 -0.958917 0
M  V30 18604 O 1788.26 7.85243 -1.72188 0
M  V30 18605 H 1787.99 0.649084 0.188853 0
M  V30 18606 H 1790.54 2.05253 -0.0777525 0
M  V30 18607 H 1788.77 3.16484 2.22205 0
M  V30 18608 H 1790.46 3.52623 2.01027 0
M  V30 18609 H 1791.23 4.84914 -0.0914812 0
M  V30 18610 H 1787.11 4.48207 1.0785 0
M  V30 18611 H 1790.65 6.82149 -1.46011 0
M  V30 18612 H 1786.55 6.44879 -0.283046 0
M  V30 18613 H 1787.32 8.0188 -1.64105 0
M  V30 18614 N 1789.98 -0.249655 1.5561 0
M  V30 18615 C 1791.23 -0.97808 1.77313 0
M  V30 18616 C 1791.55 -1.85423 0.587253 0
M  V30 18617 O 1790.81 -1.90928 -0.429527 0
M  V30 18618 C 1791.11 -1.87138 3.0449 0
M  V30 18619 C 1790.77 -1.15081 4.35967 0
M  V30 18620 C 1789.44 -0.95166 4.71696 0
M  V30 18621 C 1791.79 -0.639877 5.17257 0
M  V30 18622 C 1789.12 -0.229227 5.86252 0
M  V30 18623 C 1791.47 0.0690756 6.32562 0
M  V30 18624 C 1790.13 0.279731 6.66914 0
M  V30 18625 H 1789.4 -0.357905 0.648834 0
M  V30 18626 H 1792.05 -0.248402 1.89882 0
M  V30 18627 H 1790.35 -2.66802 2.86921 0
M  V30 18628 H 1792.05 -2.43662 3.18481 0
M  V30 18629 H 1788.64 -1.31597 4.07897 0
M  V30 18630 H 1792.83 -0.78129 4.90112 0
M  V30 18631 H 1788.08 -0.0555172 6.11375 0
M  V30 18632 H 1792.26 0.472628 6.94794 0
M  V30 18633 H 1789.88 0.841482 7.55528 0
M  V30 18634 N 1791.46 -1.48941 -0.515198 0
M  V30 18635 C 1792.71 -1.5696 -1.26674 0
M  V30 18636 C 1793.02 -0.255062 -1.9393 0
M  V30 18637 O 1794.23 -0.213645 -2.70658 0
M  V30 18638 C 1792.68 -2.76877 -2.29928 0
M  V30 18639 C 1792.29 -4.15033 -1.68676 0
M  V30 18640 C 1794.03 -2.94218 -3.06 0
M  V30 18641 C 1791.94 -5.26191 -2.69957 0
M  V30 18642 H 1790.87 -0.584377 -0.476465 0
M  V30 18643 H 1793.52 -1.75303 -0.542322 0
M  V30 18644 H 1791.9 -2.51999 -3.05471 0
M  V30 18645 H 1793.08 -4.49991 -0.992215 0
M  V30 18646 H 1791.39 -4.02932 -1.05045 0
M  V30 18647 H 1793.99 -3.74433 -3.81712 0
M  V30 18648 H 1794.33 -2.04235 -3.62759 0
M  V30 18649 H 1794.87 -3.19068 -2.37572 0
M  V30 18650 H 1791.6 -6.18189 -2.17998 0
M  V30 18651 H 1791.12 -4.95705 -3.37694 0
M  V30 18652 H 1792.8 -5.54929 -3.32659 0
M  V30 18653 N 1792.94 0.765193 -1.37777 0
M  V30 18654 C 1793.9 1.8603 -1.33886 0
M  V30 18655 C 1794.9 1.58974 -0.241614 0
M  V30 18656 O 1796.09 1.66935 -0.497843 0
M  V30 18657 C 1793.22 3.2329 -1.08151 0
M  V30 18658 H 1794.41 1.9089 -2.31303 0
M  V30 18659 H 1791.97 0.965653 -1.22902 0
M  V30 18660 H 1792.7 3.24103 -0.112926 0
M  V30 18661 H 1792.49 3.4432 -1.8758 0
M  V30 18662 H 1793.98 4.03367 -1.08095 0
M  V30 18663 N 1794.41 1.22455 0.992094 0
M  V30 18664 C 1795.32 1.01173 2.11663 0
M  V30 18665 C 1796.34 -0.0402168 1.73954 0
M  V30 18666 O 1797.52 0.152685 2.0082 0
M  V30 18667 C 1794.58 0.592995 3.41591 0
M  V30 18668 C 1793.64 1.71865 3.93397 0
M  V30 18669 C 1792.87 1.3198 5.17124 0
M  V30 18670 O 1793.1 0.198943 5.70053 0
M  V30 18671 O 1792.03 2.13658 5.62702 0
M  V30 18672 H 1795.86 1.9539 2.32501 0
M  V30 18673 H 1793.44 1.01056 1.10036 0
M  V30 18674 H 1795.32 0.36987 4.19774 0
M  V30 18675 H 1794 -0.320311 3.22111 0
M  V30 18676 H 1792.91 1.9963 3.16384 0
M  V30 18677 H 1794.24 2.60985 4.1731 0
M  V30 18678 N 1795.89 -1.18905 1.03437 0
M  V30 18679 C 1796.8 -2.25979 0.63014 0
M  V30 18680 C 1797.82 -1.70633 -0.340668 0
M  V30 18681 O 1798.99 -2.00432 -0.197174 0
M  V30 18682 C 1796.06 -3.46699 -0.00713795 0
M  V30 18683 C 1795.12 -4.17205 1.01187 0
M  V30 18684 C 1794.35 -5.32162 0.404909 0
M  V30 18685 O 1794.58 -5.64894 -0.790638 0
M  V30 18686 O 1793.51 -5.91188 1.13048 0
M  V30 18687 H 1797.34 -2.62808 1.52203 0
M  V30 18688 H 1794.92 -1.25865 0.804878 0
M  V30 18689 H 1796.8 -4.1984 -0.362204 0
M  V30 18690 H 1795.48 -3.11707 -0.872948 0
M  V30 18691 H 1794.38 -3.46159 1.41862 0
M  V30 18692 H 1795.72 -4.56181 1.84823 0
M  V30 18693 N 1797.37 -0.812977 -1.35013 0
M  V30 18694 C 1798.62 -0.396932 -1.98878 0
M  V30 18695 C 1798.95 1.03486 -1.6433 0
M  V30 18696 O 1798.22 1.71906 -0.90986 0
M  V30 18697 C 1798.51 -0.587911 -3.55268 0
M  V30 18698 C 1798.36 -2.06509 -3.99592 0
M  V30 18699 C 1799.68 -0.017593 -4.40096 0
M  V30 18700 H 1796.8 -0.145695 -0.722455 0
M  V30 18701 H 1799.44 -1.0237 -1.60064 0
M  V30 18702 H 1797.59 -0.0543785 -3.88462 0
M  V30 18703 H 1799.26 -2.6615 -3.76778 0
M  V30 18704 H 1797.5 -2.55921 -3.50267 0
M  V30 18705 H 1798.18 -2.14958 -5.08426 0
M  V30 18706 H 1800.65 -0.473317 -4.13399 0
M  V30 18707 H 1799.53 -0.18109 -5.48601 0
M  V30 18708 H 1799.79 1.07664 -4.2879 0
M  V30 18709 N 1798.85 1.47045 -0.567045 0
M  V30 18710 C 1800.26 1.5797 -0.227536 0
M  V30 18711 C 1800.46 1.56434 1.27006 0
M  V30 18712 O 1799.52 1.47297 2.05085 0
M  V30 18713 C 1800.83 2.88053 -0.862894 0
M  V30 18714 C 1802.38 3.01656 -0.835032 0
M  V30 18715 C 1802.86 4.34453 -1.44964 0
M  V30 18716 N 1804.35 4.41113 -1.41327 0
M  V30 18717 C 1805.08 5.42451 -1.85835 0
M  V30 18718 N 1804.58 6.50547 -2.38245 0
M  V30 18719 N 1806.37 5.33556 -1.76847 0
M  V30 18720 H 1798.52 1.46287 -1.53993 0
M  V30 18721 H 1800.78 0.696829 -0.642755 0
M  V30 18722 H 1800.49 2.94942 -1.91578 0
M  V30 18723 H 1800.36 3.75461 -0.361758 0
M  V30 18724 H 1802.75 2.94358 0.209187 0
M  V30 18725 H 1802.83 2.15764 -1.37403 0
M  V30 18726 H 1802.48 4.42508 -2.49298 0
M  V30 18727 H 1802.41 5.19093 -0.886003 0
M  V30 18728 H 1804.9 3.63592 -1.03001 0
M  V30 18729 H 1805.21 7.2406 -2.70105 0
M  V30 18730 H 1803.56 6.51409 -2.42262 0
M  V30 18731 H 1806.75 4.48008 -1.35671 0
M  V30 18732 H 1806.92 6.12391 -2.11851 0
M  V30 18733 N 1800.33 0.304 1.5464 0
M  V30 18734 C 1801.55 -0.309709 2.05075 0
M  V30 18735 C 1801.98 -1.46509 1.1797 0
M  V30 18736 O 1801.33 -1.80359 0.184437 0
M  V30 18737 C 1801.38 -0.740734 3.5291 0
M  V30 18738 O 1800.49 -1.8452 3.68817 0
M  V30 18739 H 1799.83 -0.0596065 0.661319 0
M  V30 18740 H 1802.36 0.446718 1.99664 0
M  V30 18741 H 1802.37 -1.02873 3.94818 0
M  V30 18742 H 1801.04 0.104422 4.15769 0
M  V30 18743 H 1799.62 -1.55753 3.38815 0
M  V30 18744 N 1801.8 -1.57568 0.0317802 0
M  V30 18745 C 1802.73 -2.13412 -0.947499 0
M  V30 18746 C 1803.71 -1.05091 -1.33753 0
M  V30 18747 O 1804.9 -1.32936 -1.41568 0
M  V30 18748 C 1802.03 -2.66337 -2.22895 0
M  V30 18749 C 1800.98 -3.79469 -1.97958 0
M  V30 18750 C 1800.31 -4.18833 -3.3239 0
M  V30 18751 C 1801.61 -5.05432 -1.31664 0
M  V30 18752 H 1803.3 -2.95488 -0.482417 0
M  V30 18753 H 1800.85 -1.42142 -0.230603 0
M  V30 18754 H 1802.8 -3.04039 -2.91784 0
M  V30 18755 H 1801.53 -1.81426 -2.71574 0
M  V30 18756 H 1800.19 -3.42209 -1.31485 0
M  V30 18757 H 1799.83 -3.30899 -3.78833 0
M  V30 18758 H 1799.53 -4.95071 -3.16511 0
M  V30 18759 H 1801.06 -4.5912 -4.02544 0
M  V30 18760 H 1802.47 -5.40704 -1.90558 0
M  V30 18761 H 1800.87 -5.86686 -1.26173 0
M  V30 18762 H 1801.94 -4.84032 -0.28996 0
M  V30 18763 N 1803.28 0.241399 -1.5574 0
M  V30 18764 C 1804.21 1.30255 -1.93793 0
M  V30 18765 C 1805.19 1.49923 -0.803563 0
M  V30 18766 O 1806.38 1.62439 -1.06429 0
M  V30 18767 C 1803.51 2.65625 -2.23742 0
M  V30 18768 C 1802.46 2.60645 -3.39483 0
M  V30 18769 C 1801.79 3.99861 -3.54986 0
M  V30 18770 C 1803.09 2.17151 -4.75019 0
M  V30 18771 H 1804.78 0.986532 -2.8268 0
M  V30 18772 H 1802.33 0.473125 -1.36006 0
M  V30 18773 H 1804.28 3.40001 -2.48953 0
M  V30 18774 H 1803.01 2.98874 -1.31688 0
M  V30 18775 H 1801.66 1.88727 -3.14289 0
M  V30 18776 H 1801.31 4.30385 -2.60342 0
M  V30 18777 H 1801.01 3.97415 -4.32822 0
M  V30 18778 H 1802.54 4.75928 -3.82524 0
M  V30 18779 H 1803.95 2.8126 -4.99565 0
M  V30 18780 H 1802.35 2.25805 -5.55996 0
M  V30 18781 H 1803.42 1.12329 -4.7171 0
M  V30 18782 N 1804.76 1.49212 0.507292 0
M  V30 18783 C 1805.72 1.64908 1.59179 0
M  V30 18784 C 1806.72 0.521176 1.5212 0
M  V30 18785 O 1807.91 0.787492 1.55384 0
M  V30 18786 C 1805.05 1.64057 2.98828 0
M  V30 18787 H 1806.24 2.6163 1.46593 0
M  V30 18788 H 1803.79 1.38149 0.731062 0
M  V30 18789 H 1804.53 0.688956 3.16897 0
M  V30 18790 H 1804.31 2.45963 3.0536 0
M  V30 18791 H 1805.8 1.78279 3.77633 0
M  V30 18792 N 1806.24 -0.757876 1.38181 0
M  V30 18793 C 1807.19 -1.86207 1.31571 0
M  V30 18794 C 1808.17 -1.59642 0.200812 0
M  V30 18795 O 1809.36 -1.71535 0.436416 0
M  V30 18796 C 1806.49 -3.23861 1.13881 0
M  V30 18797 C 1805.58 -3.56332 2.29975 0
M  V30 18798 N 1805.97 -3.59889 3.55406 0
M  V30 18799 C 1804.27 -3.86574 2.22433 0
M  V30 18800 C 1804.97 -3.89504 4.32044 0
M  V30 18801 N 1803.95 -4.06115 3.61347 0
M  V30 18802 H 1807.75 -1.87229 2.26545 0
M  V30 18803 H 1805.26 -0.955018 1.31351 0
M  V30 18804 H 1807.26 -4.02874 1.0723 0
M  V30 18805 H 1805.92 -3.24093 0.198371 0
M  V30 18806 H 1806.93 -3.41754 3.89133 0
M  V30 18807 H 1803.61 -3.94547 1.36524 0
M  V30 18808 H 1805 -3.98915 5.40663 0
M  V30 18809 N 1807.72 -1.22979 -0.985586 0
M  V30 18810 C 1808.65 -1.03073 -2.09519 0
M  V30 18811 C 1809.63 0.0507025 -1.70024 0
M  V30 18812 O 1810.81 -0.112938 -1.93871 0
M  V30 18813 C 1807.94 -0.615578 -3.41801 0
M  V30 18814 C 1806.9 -1.64377 -3.95176 0
M  V30 18815 C 1806.22 -1.08422 -5.23592 0
M  V30 18816 C 1807.52 -3.03555 -4.25032 0
M  V30 18817 H 1809.22 -1.95882 -2.2643 0
M  V30 18818 H 1806.76 -0.943206 -1.0881 0
M  V30 18819 H 1808.72 -0.463394 -4.18844 0
M  V30 18820 H 1807.44 0.348185 -3.24739 0
M  V30 18821 H 1806.1 -1.78386 -3.20272 0
M  V30 18822 H 1805.75 -0.111597 -5.02876 0
M  V30 18823 H 1805.45 -1.77118 -5.6027 0
M  V30 18824 H 1806.97 -0.94378 -6.03262 0
M  V30 18825 H 1808.38 -2.92878 -4.92844 0
M  V30 18826 H 1806.78 -3.69441 -4.72899 0
M  V30 18827 H 1807.85 -3.52937 -3.32511 0
M  V30 18828 N 1809.19 1.18355 -1.04066 0
M  V30 18829 C 1810.44 1.87963 -0.742576 0
M  V30 18830 C 1810.76 1.80744 0.731899 0
M  V30 18831 O 1810.03 1.22576 1.52813 0
M  V30 18832 H 1808.61 0.69584 -0.271689 0
M  V30 18833 H 1811.28 1.43632 -1.31741 0
M  V30 18834 H 1810.37 2.93999 -1.04741 0
M  V30 18835 N 1810.67 0.820125 1.3458 0
M  V30 18836 C 1811.9 0.419155 2.02303 0
M  V30 18837 C 1812.31 -0.978742 1.61918 0
M  V30 18838 O 1811.65 -1.64433 0.818983 0
M  V30 18839 C 1811.72 0.438576 3.56815 0
M  V30 18840 C 1811.38 1.78932 4.20514 0
M  V30 18841 C 1812.38 2.74974 4.41232 0
M  V30 18842 C 1810.06 2.07704 4.57345 0
M  V30 18843 C 1812.06 3.97961 4.97901 0
M  V30 18844 C 1809.74 3.30952 5.13726 0
M  V30 18845 C 1810.74 4.25898 5.33947 0
M  V30 18846 O 1810.43 5.46969 5.89135 0
M  V30 18847 H 1810.16 0.166787 0.655102 0
M  V30 18848 H 1812.71 1.10892 1.72893 0
M  V30 18849 H 1810.94 -0.307871 3.85472 0
M  V30 18850 H 1812.63 0.0580448 4.05858 0
M  V30 18851 H 1813.4 2.54041 4.13144 0
M  V30 18852 H 1809.28 1.34605 4.40911 0
M  V30 18853 H 1812.82 4.72081 5.136 0
M  V30 18854 H 1808.72 3.5175 5.41242 0
M  V30 18855 H 1809.49 5.48451 6.07572 0
M  V30 18856 N 1812.15 -1.46743 0.574835 0
M  V30 18857 C 1813.57 -1.57847 0.23591 0
M  V30 18858 C 1813.77 -1.57105 -1.26175 0
M  V30 18859 O 1812.82 -1.48382 -2.04301 0
M  V30 18860 C 1814.14 -2.87591 0.878158 0
M  V30 18861 C 1815.68 -3.01209 0.851018 0
M  V30 18862 C 1816.16 -4.33678 1.47266 0
M  V30 18863 N 1817.65 -4.40358 1.43664 0
M  V30 18864 C 1818.38 -5.41458 1.8871 0
M  V30 18865 N 1817.88 -6.49274 2.41692 0
M  V30 18866 N 1819.67 -5.3261 1.79674 0
M  V30 18867 H 1811.82 -1.45469 1.54766 0
M  V30 18868 H 1814.09 -0.69341 0.646441 0
M  V30 18869 H 1813.79 -2.93922 1.93139 0
M  V30 18870 H 1813.67 -3.75264 0.381665 0
M  V30 18871 H 1816.05 -2.94464 -0.193573 0
M  V30 18872 H 1816.14 -2.15032 1.38545 0
M  V30 18873 H 1815.78 -4.41179 2.51641 0
M  V30 18874 H 1815.71 -5.18616 0.913519 0
M  V30 18875 H 1818.2 -3.63041 1.04928 0
M  V30 18876 H 1818.51 -7.22617 2.73942 0
M  V30 18877 H 1816.86 -6.50115 2.45713 0
M  V30 18878 H 1820.05 -4.47282 1.38045 0
M  V30 18879 H 1820.22 -6.11259 2.15096 0
M  V30 18880 N 1813.63 -0.312197 -1.54477 0
M  V30 18881 C 1814.85 0.298829 -2.05236 0
M  V30 18882 C 1815.28 1.45881 -1.18745 0
M  V30 18883 O 1814.64 1.80259 -0.193999 0
M  V30 18884 C 1814.68 0.722008 -3.53298 0
M  V30 18885 O 1813.79 1.82562 -3.6979 0
M  V30 18886 H 1813.13 0.0560985 -0.661626 0
M  V30 18887 H 1815.66 -0.4573 -1.99424 0
M  V30 18888 H 1815.67 1.00777 -3.95358 0
M  V30 18889 H 1814.34 -0.12647 -4.15708 0
M  V30 18890 H 1812.92 1.53954 -3.39636 0
M  V30 18891 N 1815.11 1.57549 -0.040136 0
M  V30 18892 C 1816.04 2.13912 0.936168 0
M  V30 18893 C 1817.02 1.05798 1.33194 0
M  V30 18894 O 1818.2 1.33685 1.40861 0
M  V30 18895 C 1815.33 2.67515 2.21479 0
M  V30 18896 C 1814.29 3.80513 1.95943 0
M  V30 18897 C 1813.61 4.20589 3.30165 0
M  V30 18898 C 1814.91 5.06124 1.28981 0
M  V30 18899 H 1816.61 2.9574 0.46674 0
M  V30 18900 H 1814.15 1.42262 0.223062 0
M  V30 18901 H 1816.11 3.05582 2.90168 0
M  V30 18902 H 1814.83 1.82864 2.70608 0
M  V30 18903 H 1813.49 3.42902 1.29669 0
M  V30 18904 H 1813.14 3.32904 3.77073 0
M  V30 18905 H 1812.84 4.96742 3.13881 0
M  V30 18906 H 1814.36 4.61248 4.00103 0
M  V30 18907 H 1815.77 5.41707 1.87687 0
M  V30 18908 H 1814.17 5.87347 1.2306 0
M  V30 18909 H 1815.24 4.84179 0.264286 0
M  V30 18910 N 1816.58 -0.233136 1.55866 0
M  V30 18911 C 1817.86 -0.982866 1.69113 0
M  V30 18912 C 1818.24 -2.0286 0.584041 0
M  V30 18913 O 1817.59 -2.24781 -0.410606 0
M  V30 18914 C 1817.8 -1.60378 3.09967 0
M  V30 18915 C 1819.15 -2.10044 3.69008 0
M  V30 18916 O 1820.17 -1.70294 3.12855 0
M  V30 18917 O 1819.03 -2.8307 4.67476 0
M  V30 18918 H 1816.12 -0.458373 0.688348 0
M  V30 18919 H 1818.67 -0.225833 1.68191 0
M  V30 18920 H 1817.44 -0.848104 3.81999 0
M  V30 18921 H 1817.07 -2.42666 3.14959 0
M  V30 18922 N 1818.06 -1.49479 -0.499372 0
M  V30 18923 C 1819.34 -1.4955 -1.26071 0
M  V30 18924 C 1819.72 -0.224142 -2.09907 0
M  V30 18925 O 1819.07 0.793432 -2.14282 0
M  V30 18926 C 1819.28 -2.77534 -2.11604 0
M  V30 18927 C 1820.63 -3.27088 -2.70738 0
M  V30 18928 O 1821.65 -2.78662 -2.2187 0
M  V30 18929 O 1820.51 -4.11432 -3.59703 0
M  V30 18930 H 1817.6 -0.598631 -0.570587 0
M  V30 18931 H 1820.15 -1.61744 -0.513509 0
M  V30 18932 H 1818.92 -3.61556 -1.49642 0
M  V30 18933 H 1818.54 -2.68208 -2.93514 0
M  V30 18934 N 1819.54 0.750537 -1.38581 0
M  V30 18935 C 1820.79 1.50512 -1.34272 0
M  V30 18936 C 1821.1 1.95496 0.0636858 0
M  V30 18937 O 1822.31 2.7053 0.22932 0
M  V30 18938 C 1820.77 2.71891 -2.35803 0
M  V30 18939 C 1820.37 2.3392 -3.8208 0
M  V30 18940 C 1822.12 3.4977 -2.40543 0
M  V30 18941 C 1820.02 3.51928 -4.7529 0
M  V30 18942 H 1818.95 0.56515 -0.49912 0
M  V30 18943 H 1821.61 0.820167 -1.64151 0
M  V30 18944 H 1819.99 3.42383 -1.98972 0
M  V30 18945 H 1821.16 1.71075 -4.27867 0
M  V30 18946 H 1819.48 1.69168 -3.80488 0
M  V30 18947 H 1822.07 4.37519 -3.07379 0
M  V30 18948 H 1822.42 3.91141 -1.42527 0
M  V30 18949 H 1822.95 2.86294 -2.76189 0
M  V30 18950 H 1819.69 3.15621 -5.74512 0
M  V30 18951 H 1819.21 4.13807 -4.34194 0
M  V30 18952 H 1820.89 4.1847 -4.93449 0
M  V30 18953 N 1821.02 1.235 0.979051 0
M  V30 18954 C 1822.27 1.06197 1.71479 0
M  V30 18955 C 1822.58 -0.401066 1.91444 0
M  V30 18956 O 1823.79 -0.69406 2.62479 0
M  V30 18957 C 1822.24 1.85189 3.08598 0
M  V30 18958 C 1821.85 3.35831 2.96516 0
M  V30 18959 C 1823.6 1.76379 3.86122 0
M  V30 18960 C 1821.5 4.0721 4.28875 0
M  V30 18961 H 1820.43 0.393779 0.643004 0
M  V30 18962 H 1823.08 1.47479 1.09188 0
M  V30 18963 H 1821.47 1.36714 3.71652 0
M  V30 18964 H 1822.64 3.91803 2.42543 0
M  V30 18965 H 1820.95 3.45469 2.32466 0
M  V30 18966 H 1823.55 2.2702 4.84114 0
M  V30 18967 H 1823.89 0.726826 4.09906 0
M  V30 18968 H 1824.43 2.22473 3.29773 0
M  V30 18969 H 1821.17 5.11218 4.10288 0
M  V30 18970 H 1820.69 3.56025 4.82707 0
M  V30 18971 H 1822.37 4.13579 4.97555 0
M  V30 18972 N 1822.5 -1.17802 1.04693 0
M  V30 18973 C 1823.75 -1.87567 0.752534 0
M  V30 18974 C 1824.07 -1.81129 -0.722303 0
M  V30 18975 O 1823.34 -1.23385 -1.52161 0
M  V30 18976 H 1821.92 -0.69439 0.275376 0
M  V30 18977 H 1824.58 -1.42932 1.32501 0
M  V30 18978 H 1823.67 -2.9344 1.06299 0
M  V30 18979 N 1823.98 -0.827251 -1.34143 0
M  V30 18980 C 1825.39 -0.513554 -1.51112 0
M  V30 18981 C 1825.59 0.961434 -1.77084 0
M  V30 18982 O 1824.65 1.74573 -1.82429 0
M  V30 18983 C 1825.96 -1.37683 -2.67327 0
M  V30 18984 C 1827.51 -1.3744 -2.8121 0
M  V30 18985 C 1827.98 -2.22226 -4.00474 0
M  V30 18986 N 1829.47 -2.19873 -4.07689 0
M  V30 18987 C 1830.21 -2.82222 -4.99138 0
M  V30 18988 N 1829.71 -3.53578 -5.95781 0
M  V30 18989 N 1831.5 -2.71753 -4.92043 0
M  V30 18990 H 1823.65 -1.78222 -1.15545 0
M  V30 18991 H 1825.91 -0.759711 -0.567047 0
M  V30 18992 H 1825.62 -2.42448 -2.54778 0
M  V30 18993 H 1825.49 -1.0446 -3.62447 0
M  V30 18994 H 1827.88 -0.334525 -2.93198 0
M  V30 18995 H 1827.96 -1.74663 -1.86886 0
M  V30 18996 H 1827.6 -3.26266 -3.89246 0
M  V30 18997 H 1827.53 -1.82352 -4.9402 0
M  V30 18998 H 1830.03 -1.67972 -3.38517 0
M  V30 18999 H 1830.34 -3.98387 -6.62199 0
M  V30 19000 H 1828.68 -3.57685 -5.95892 0
M  V30 19001 H 1831.87 -2.15579 -4.15504 0
M  V30 19002 H 1832.05 -3.2063 -5.63117 0
M  V30 19003 N 1825.45 1.46436 -0.582609 0
M  V30 19004 C 1826.68 2.06768 -0.0737657 0
M  V30 19005 C 1827.1 1.43137 1.23115 0
M  V30 19006 O 1826.45 0.536633 1.74432 0
M  V30 19007 C 1826.5 3.61365 0.0988205 0
M  V30 19008 O 1826.23 4.22616 -1.15444 0
M  V30 19009 C 1827.73 4.38626 0.642025 0
M  V30 19010 H 1824.95 0.66854 -0.0574078 0
M  V30 19011 H 1827.49 1.88064 -0.80325 0
M  V30 19012 H 1825.65 3.79497 0.778526 0
M  V30 19013 H 1826.06 5.15486 -0.968204 0
M  V30 19014 H 1827.53 5.47389 0.711966 0
M  V30 19015 H 1828.01 4.06663 1.65897 0
M  V30 19016 H 1828.62 4.253 -0.00280852 0
M  V30 19017 N 1826.93 0.320385 1.54309 0
M  V30 19018 C 1828.21 -0.337248 1.92671 0
M  V30 19019 C 1828.59 -1.70137 1.24967 0
M  V30 19020 O 1827.94 -2.25108 0.39224 0
M  V30 19021 C 1828.15 -0.432633 3.46308 0
M  V30 19022 C 1829.49 -0.694413 4.18883 0
M  V30 19023 O 1830.52 -0.515681 3.52447 0
M  V30 19024 O 1829.38 -1.039 5.36532 0
M  V30 19025 H 1826.47 -0.191985 0.804407 0
M  V30 19026 H 1829.02 0.369866 1.6562 0
M  V30 19027 H 1827.79 0.525553 3.87755 0
M  V30 19028 H 1827.41 -1.18745 3.79454 0
M  V30 19029 N 1828.41 -1.57525 0.0484906 0
M  V30 19030 C 1829.34 -2.14405 -0.924811 0
M  V30 19031 C 1830.32 -1.06503 -1.32631 0
M  V30 19032 O 1831.51 -1.3443 -1.4015 0
M  V30 19033 C 1828.64 -2.68686 -2.20057 0
M  V30 19034 C 1827.59 -3.81547 -1.93922 0
M  V30 19035 C 1826.92 -4.22334 -3.27929 0
M  V30 19036 C 1828.22 -5.06801 -1.26295 0
M  V30 19037 H 1829.91 -2.95983 -0.45105 0
M  V30 19038 H 1827.46 -1.42378 -0.215514 0
M  V30 19039 H 1829.41 -3.07117 -2.88543 0
M  V30 19040 H 1828.13 -1.84296 -2.69634 0
M  V30 19041 H 1826.79 -3.43585 -1.27848 0
M  V30 19042 H 1826.44 -3.34899 -3.75302 0
M  V30 19043 H 1826.14 -4.984 -3.11242 0
M  V30 19044 H 1827.66 -4.63363 -3.97652 0
M  V30 19045 H 1829.08 -5.42695 -1.84812 0
M  V30 19046 H 1827.47 -5.87991 -1.19943 0
M  V30 19047 H 1828.54 -4.84313 -0.238605 0
M  V30 19048 N 1829.89 0.224867 -1.55988 0
M  V30 19049 C 1830.82 1.28192 -1.95164 0
M  V30 19050 C 1831.8 1.49062 -0.81942 0
M  V30 19051 O 1832.98 1.61301 -1.08146 0
M  V30 19052 C 1830.11 2.63237 -2.26547 0
M  V30 19053 C 1829.07 2.57029 -3.42228 0
M  V30 19054 C 1828.39 3.96073 -3.59207 0
M  V30 19055 C 1829.69 2.12101 -4.77295 0
M  V30 19056 H 1831.39 0.956495 -2.8371 0
M  V30 19057 H 1828.93 0.458673 -1.365 0
M  V30 19058 H 1830.89 3.37341 -2.52545 0
M  V30 19059 H 1829.61 2.97461 -1.3485 0
M  V30 19060 H 1828.27 1.85382 -3.16273 0
M  V30 19061 H 1827.92 4.27599 -2.64892 0
M  V30 19062 H 1827.62 3.92802 -4.37013 0
M  V30 19063 H 1829.14 4.71844 -3.8755 0
M  V30 19064 H 1830.56 2.75946 -5.0252 0
M  V30 19065 H 1828.95 2.19895 -5.5836 0
M  V30 19066 H 1830.02 1.07319 -4.72875 0
M  V30 19067 N 1831.37 1.49742 0.491438 0
M  V30 19068 C 1832.31 1.67115 1.59189 0
M  V30 19069 C 1833.28 0.512523 1.57995 0
M  V30 19070 O 1834.47 0.740693 1.75836 0
M  V30 19071 C 1831.61 1.75258 2.97286 0
M  V30 19072 C 1830.72 3.02488 3.08424 0
M  V30 19073 C 1829.86 3.0155 4.37311 0
M  V30 19074 C 1828.89 4.2332 4.42116 0
M  V30 19075 N 1828.03 4.20238 5.62445 0
M  V30 19076 H 1832.87 2.61073 1.43683 0
M  V30 19077 H 1830.41 1.29435 0.69892 0
M  V30 19078 H 1832.37 1.77959 3.77341 0
M  V30 19079 H 1831 0.847568 3.11474 0
M  V30 19080 H 1830.05 3.09353 2.21371 0
M  V30 19081 H 1831.36 3.92479 3.07834 0
M  V30 19082 H 1830.51 3.02868 5.25695 0
M  V30 19083 H 1829.25 2.09354 4.4048 0
M  V30 19084 H 1828.26 4.22236 3.52132 0
M  V30 19085 H 1829.48 5.1672 4.40656 0
M  V30 19086 H 1827.43 3.30884 5.66438 0
M  V30 19087 H 1827.35 5.03974 5.63512 0
M  V30 19088 H 1828.61 4.25672 6.53011 0
M  V30 19089 N 1832.84 -0.743177 1.38977 0
M  V30 19090 C 1834.09 -1.50479 1.35956 0
M  V30 19091 C 1834.42 -1.94143 -0.0471116 0
M  V30 19092 O 1833.7 -1.66195 -1.01042 0
M  V30 19093 C 1833.98 -2.75016 2.32461 0
M  V30 19094 C 1833.83 -2.37423 3.82034 0
M  V30 19095 C 1835.15 -3.77084 2.26927 0
M  V30 19096 H 1832.27 -0.545869 0.495172 0
M  V30 19097 H 1834.91 -0.850403 1.69906 0
M  V30 19098 H 1833.06 -3.30852 2.03639 0
M  V30 19099 H 1834.74 -1.87282 4.21572 0
M  V30 19100 H 1832.98 -1.69752 3.99208 0
M  V30 19101 H 1833.65 -3.2657 4.45035 0
M  V30 19102 H 1836.13 -3.30812 2.52394 0
M  V30 19103 H 1835 -4.61901 2.96545 0
M  V30 19104 H 1835.26 -4.23419 1.27156 0
M  V30 19105 N 1834.32 -1.24018 -0.972487 0
M  V30 19106 C 1835.74 -1.00454 -1.24021 0
M  V30 19107 C 1835.94 0.289568 -1.99409 0
M  V30 19108 O 1834.99 1.00696 -2.31552 0
M  V30 19109 C 1836.31 -2.21651 -2.03202 0
M  V30 19110 C 1837.86 -2.26225 -2.16312 0
M  V30 19111 C 1838.33 -3.47031 -2.98888 0
M  V30 19112 N 1839.82 -3.47318 -3.06471 0
M  V30 19113 C 1840.56 -4.3745 -3.70709 0
M  V30 19114 N 1840.05 -5.37829 -4.36705 0
M  V30 19115 N 1841.85 -4.25173 -3.67674 0
M  V30 19116 H 1834 -2.07187 -0.467668 0
M  V30 19117 H 1836.26 -0.908955 -0.269267 0
M  V30 19118 H 1835.97 -3.15608 -1.55191 0
M  V30 19119 H 1835.84 -2.2338 -3.03943 0
M  V30 19120 H 1838.23 -1.32803 -2.63529 0
M  V30 19121 H 1838.31 -2.28525 -1.14936 0
M  V30 19122 H 1837.95 -4.40765 -2.52366 0
M  V30 19123 H 1837.88 -3.41974 -4.00452 0
M  V30 19124 H 1840.37 -2.74695 -2.59521 0
M  V30 19125 H 1840.69 -6.02846 -4.83525 0
M  V30 19126 H 1839.03 -5.41721 -4.35389 0
M  V30 19127 H 1842.22 -3.45992 -3.15289 0
M  V30 19128 H 1842.39 -4.95617 -4.17454 0
M  V30 19129 N 1835.8 1.17245 -1.05316 0
M  V30 19130 C 1837.03 1.91995 -0.784387 0
M  V30 19131 C 1837.45 1.76362 0.65408 0
M  V30 19132 O 1836.81 1.0822 1.45458 0
M  V30 19133 C 1836.86 3.41043 -1.1714 0
M  V30 19134 O 1835.96 4.11276 -0.304285 0
M  V30 19135 H 1835.3 0.598516 -0.287532 0
M  V30 19136 H 1837.83 1.48604 -1.40634 0
M  V30 19137 H 1837.84 3.91788 -1.13871 0
M  V30 19138 H 1836.52 3.51742 -2.21924 0
M  V30 19139 H 1835.09 3.70773 -0.39769 0
M  V30 19140 N 1837.28 0.834353 1.33702 0
M  V30 19141 C 1838.56 0.350003 1.92443 0
M  V30 19142 C 1838.94 -1.1641 1.76102 0
M  V30 19143 O 1838.28 -1.97646 1.14666 0
M  V30 19144 C 1838.49 0.791928 3.39896 0
M  V30 19145 C 1839.84 0.797338 4.17046 0
M  V30 19146 O 1840.87 0.735242 3.48529 0
M  V30 19147 O 1839.72 0.880963 5.39353 0
M  V30 19148 H 1836.82 0.0981048 0.82116 0
M  V30 19149 H 1839.36 0.919905 1.42604 0
M  V30 19150 H 1838.14 1.83433 3.45641 0
M  V30 19151 H 1837.76 0.198349 3.97105 0
M  V30 19152 N 1838.76 -1.46125 0.590367 0
M  V30 19153 C 1840 -2.02646 0.0789983 0
M  V30 19154 C 1840.34 -1.45996 -1.28058 0
M  V30 19155 O 1839.61 -0.627981 -1.84083 0
M  V30 19156 C 1839.89 -3.60094 0.0214749 0
M  V30 19157 C 1839.75 -4.27112 1.41049 0
M  V30 19158 C 1841.07 -4.34889 -0.675236 0
M  V30 19159 H 1838.18 -0.736382 0.0301818 0
M  V30 19160 H 1840.83 -1.7418 0.759037 0
M  V30 19161 H 1838.98 -3.84477 -0.557648 0
M  V30 19162 H 1840.65 -4.13969 2.03537 0
M  V30 19163 H 1838.89 -3.86178 1.97607 0
M  V30 19164 H 1839.56 -5.3592 1.32264 0
M  V30 19165 H 1842.04 -4.15697 -0.183176 0
M  V30 19166 H 1840.91 -5.44615 -0.684538 0
M  V30 19167 H 1841.18 -4.06503 -1.73804 0
M  V30 19168 N 1840.23 -0.328564 -1.54137 0
M  V30 19169 C 1841.17 0.569226 -2.22019 0
M  V30 19170 C 1842.18 1.0759 -1.22181 0
M  V30 19171 O 1843.37 0.988621 -1.48622 0
M  V30 19172 C 1840.47 1.79439 -2.87498 0
M  V30 19173 C 1839.64 1.42555 -4.13517 0
M  V30 19174 C 1838.7 2.50878 -4.62544 0
M  V30 19175 O 1837.73 2.14812 -5.27109 0
M  V30 19176 N 1838.93 3.8189 -4.37196 0
M  V30 19177 H 1841.69 -0.0120478 -2.99698 0
M  V30 19178 H 1839.25 -0.151994 -1.61185 0
M  V30 19179 H 1841.25 2.51307 -3.17218 0
M  V30 19180 H 1839.82 2.28339 -2.13495 0
M  V30 19181 H 1839.04 0.538288 -3.90507 0
M  V30 19182 H 1840.32 1.1549 -4.9552 0
M  V30 19183 H 1839.72 4.13987 -3.85527 0
M  V30 19184 H 1838.28 4.49974 -4.71558 0
M  V30 19185 N 1841.71 1.57497 -0.0568439 0
M  V30 19186 C 1842.64 2.14892 0.913427 0
M  V30 19187 C 1843.62 1.07205 1.32065 0
M  V30 19188 O 1844.81 1.35172 1.39435 0
M  V30 19189 C 1841.94 2.69849 2.18629 0
M  V30 19190 C 1840.89 3.8257 1.91896 0
M  V30 19191 C 1840.22 4.24068 3.25685 0
M  V30 19192 C 1841.52 5.07463 1.23606 0
M  V30 19193 H 1843.21 2.96218 0.435347 0
M  V30 19194 H 1840.76 1.4249 0.20796 0
M  V30 19195 H 1842.71 3.08643 2.86911 0
M  V30 19196 H 1841.44 1.85723 2.68653 0
M  V30 19197 H 1840.09 3.44258 1.26024 0
M  V30 19198 H 1839.74 3.36884 3.73521 0
M  V30 19199 H 1839.44 5.00043 3.08594 0
M  V30 19200 H 1840.97 4.65466 3.95189 0
M  V30 19201 H 1842.38 5.43667 1.81931 0
M  V30 19202 H 1840.78 5.88619 1.16823 0
M  V30 19203 H 1841.85 4.84432 0.212918 0
M  V30 19204 N 1843.19 -0.216591 1.56105 0
M  V30 19205 C 1844.42 -0.961164 1.83784 0
M  V30 19206 C 1844.84 -1.76957 0.637792 0
M  V30 19207 O 1844.2 -1.76523 -0.413449 0
M  V30 19208 C 1844.25 -1.85047 3.095 0
M  V30 19209 O 1843.35 -2.94648 2.88542 0
M  V30 19210 H 1842.69 -0.271885 0.605784 0
M  V30 19211 H 1845.22 -0.228404 2.03321 0
M  V30 19212 H 1845.23 -2.25932 3.39733 0
M  V30 19213 H 1843.91 -1.25633 3.96471 0
M  V30 19214 H 1842.48 -2.57673 2.69554 0
M  V30 19215 N 1844.67 -1.5 -0.48349 0
M  V30 19216 C 1845.62 -1.67957 -1.58301 0
M  V30 19217 C 1846.59 -0.520895 -1.57721 0
M  V30 19218 O 1847.77 -0.750008 -1.75441 0
M  V30 19219 C 1844.91 -1.76832 -2.96352 0
M  V30 19220 C 1844.02 -3.04119 -3.06815 0
M  V30 19221 C 1843.16 -3.03865 -4.35706 0
M  V30 19222 C 1842.2 -4.25658 -4.39865 0
M  V30 19223 N 1841.33 -4.23214 -5.60209 0
M  V30 19224 H 1846.17 -2.61832 -1.42296 0
M  V30 19225 H 1843.71 -1.29804 -0.692045 0
M  V30 19226 H 1845.67 -1.79958 -3.76392 0
M  V30 19227 H 1844.3 -0.864074 -3.1102 0
M  V30 19228 H 1843.35 -3.10523 -2.19727 0
M  V30 19229 H 1844.66 -3.94106 -3.05748 0
M  V30 19230 H 1843.82 -3.05652 -5.24082 0
M  V30 19231 H 1842.56 -2.11687 -4.39363 0
M  V30 19232 H 1841.56 -4.24097 -3.49888 0
M  V30 19233 H 1842.79 -5.19049 -4.37909 0
M  V30 19234 H 1840.73 -3.33883 -5.64675 0
M  V30 19235 H 1840.65 -5.06956 -5.60832 0
M  V30 19236 H 1841.92 -4.29129 -6.50744 0
M  V30 19237 N 1846.15 0.735796 -1.39369 0
M  V30 19238 C 1847.37 1.52504 -1.39822 0
M  V30 19239 C 1847.79 1.88799 0.00747346 0
M  V30 19240 O 1847.15 1.54044 0.978611 0
M  V30 19241 C 1847.2 2.8131 -2.27039 0
M  V30 19242 O 1846.92 2.46557 -3.62134 0
M  V30 19243 C 1848.42 3.75343 -2.35866 0
M  V30 19244 H 1845.64 0.471306 -0.47761 0
M  V30 19245 H 1848.18 0.909257 -1.83174 0
M  V30 19246 H 1846.34 3.39222 -1.87102 0
M  V30 19247 H 1846.75 3.29294 -4.08247 0
M  V30 19248 H 1848.23 4.6262 -3.01142 0
M  V30 19249 H 1848.7 4.17036 -1.37758 0
M  V30 19250 H 1849.31 3.2335 -2.7627 0
M  V30 19251 N 1847.63 1.24532 0.965897 0
M  V30 19252 C 1848.56 0.997143 2.06373 0
M  V30 19253 C 1849.57 -0.0340261 1.62764 0
M  V30 19254 O 1850.76 0.203223 1.77339 0
M  V30 19255 C 1847.86 0.483305 3.35436 0
M  V30 19256 C 1847.03 1.57803 4.07942 0
M  V30 19257 C 1846.09 1.06652 5.15278 0
M  V30 19258 O 1845.12 1.75859 5.41352 0
M  V30 19259 N 1846.32 -0.0981119 5.80417 0
M  V30 19260 H 1849.08 1.94238 2.28236 0
M  V30 19261 H 1846.65 1.15586 1.13365 0
M  V30 19262 H 1848.64 0.125833 4.04504 0
M  V30 19263 H 1847.21 -0.367709 3.1043 0
M  V30 19264 H 1846.43 2.1076 3.33127 0
M  V30 19265 H 1847.72 2.3138 4.53146 0
M  V30 19266 H 1847.11 -0.676662 5.61638 0
M  V30 19267 H 1845.67 -0.396714 6.50592 0
M  V30 19268 N 1849.1 -1.16685 1.05936 0
M  V30 19269 C 1850.05 -2.2301 0.66101 0
M  V30 19270 C 1851.05 -1.66324 -0.321334 0
M  V30 19271 O 1852.25 -1.7903 -0.186587 0
M  V30 19272 H 1848.63 -0.726112 0.195616 0
M  V30 19273 H 1850.6 -2.539 1.56772 0
M  V30 19274 C 1849.35 -3.47649 0.0596424 0
M  V30 19275 H 1848.67 -3.91578 0.806635 0
M  V30 19276 H 1850.11 -4.23611 -0.18161 0
M  V30 19277 C 1848.57 -3.14965 -1.19578 0
M  V30 19278 O 1849.1 -3.30434 -2.28421 0
M  V30 19279 N 1847.3 -2.69126 -1.09634 0
M  V30 19280 H 1846.85 -2.56738 -0.210599 0
M  V30 19281 H 1846.81 -2.4763 -1.93718 0
M  V30 19282 N 1850.58 -0.841432 -1.33258 0
M  V30 19283 C 1851.51 -0.291603 -2.31672 0
M  V30 19284 C 1852.49 0.602066 -1.59089 0
M  V30 19285 O 1853.68 0.525081 -1.86967 0
M  V30 19286 C 1850.81 0.532008 -3.43201 0
M  V30 19287 C 1849.76 -0.26609 -4.27172 0
M  V30 19288 C 1849.09 0.681432 -5.3034 0
M  V30 19289 C 1850.39 -1.48457 -5.00757 0
M  V30 19290 H 1852.08 -1.1139 -2.77908 0
M  V30 19291 H 1849.63 -0.53708 -1.33609 0
M  V30 19292 H 1851.58 0.926977 -4.11078 0
M  V30 19293 H 1850.3 1.38754 -2.9566 0
M  V30 19294 H 1848.96 -0.64265 -3.60923 0
M  V30 19295 H 1848.61 1.53344 -4.79056 0
M  V30 19296 H 1848.31 0.151522 -5.87405 0
M  V30 19297 H 1849.84 1.07386 -6.01083 0
M  V30 19298 H 1851.25 -1.16262 -5.61388 0
M  V30 19299 H 1849.65 -1.95145 -5.67484 0
M  V30 19300 H 1850.72 -2.25296 -4.29383 0
M  V30 19301 N 1852.06 1.4581 -0.598108 0
M  V30 19302 C 1853.29 2.06679 -0.0956921 0
M  V30 19303 C 1853.7 1.44435 1.2159 0
M  V30 19304 O 1853.06 0.555104 1.73853 0
M  V30 19305 C 1853.11 3.61449 0.0604873 0
M  V30 19306 O 1852.83 4.21368 -1.1992 0
M  V30 19307 C 1854.33 4.39282 0.595466 0
M  V30 19308 H 1851.55 0.667893 -0.0644954 0
M  V30 19309 H 1854.1 1.87202 -0.823151 0
M  V30 19310 H 1852.25 3.80301 0.738231 0
M  V30 19311 H 1852.67 5.1443 -1.02282 0
M  V30 19312 H 1854.14 5.48114 0.653868 0
M  V30 19313 H 1854.62 4.084 1.61575 0
M  V30 19314 H 1855.22 4.25273 -0.0479171 0
M  V30 19315 N 1853.54 0.336733 1.53961 0
M  V30 19316 C 1854.47 -0.515664 2.27735 0
M  V30 19317 C 1855.45 -1.10835 1.29033 0
M  V30 19318 O 1856.63 -1.13102 1.57866 0
M  V30 19319 C 1853.76 -1.67015 3.04505 0
M  V30 19320 C 1852.72 -1.20613 4.10654 0
M  V30 19321 C 1852.04 -2.44861 4.75339 0
M  V30 19322 C 1853.34 -0.311507 5.2137 0
M  V30 19323 H 1855.04 0.0997513 2.99234 0
M  V30 19324 H 1852.58 0.0494157 1.43915 0
M  V30 19325 H 1854.54 -2.27286 3.54851 0
M  V30 19326 H 1853.26 -2.31236 2.30646 0
M  V30 19327 H 1851.92 -0.62628 3.61211 0
M  V30 19328 H 1851.57 -3.07474 3.98081 0
M  V30 19329 H 1851.27 -2.14498 5.47051 0
M  V30 19330 H 1852.79 -3.0587 5.28466 0
M  V30 19331 H 1854.21 -0.820868 5.67393 0
M  V30 19332 H 1852.6 -0.100073 6.00017 0
M  V30 19333 H 1853.67 0.654181 4.80467 0
M  V30 19334 N 1855.02 -1.57465 0.0651956 0
M  V30 19335 C 1856.29 -1.84622 -0.646065 0
M  V30 19336 C 1856.67 -0.956374 -1.88193 0
M  V30 19337 O 1856.02 -0.0209666 -2.2849 0
M  V30 19338 C 1856.23 -3.34664 -0.990013 0
M  V30 19339 C 1857.58 -4.02016 -1.36632 0
M  V30 19340 O 1858.6 -3.39371 -1.08194 0
M  V30 19341 O 1857.46 -5.12496 -1.89764 0
M  V30 19342 H 1854.56 -0.762482 -0.320236 0
M  V30 19343 H 1857.1 -1.6943 0.0956254 0
M  V30 19344 H 1855.87 -3.9114 -0.111977 0
M  V30 19345 H 1855.5 -3.55094 -1.78869 0
M  V30 19346 N 1856.49 0.20831 -1.56217 0
M  V30 19347 C 1857.73 0.937642 -1.81625 0
M  V30 19348 C 1858.1 1.80994 -0.640716 0
M  V30 19349 O 1859.3 2.57404 -0.774387 0
M  V30 19350 C 1857.57 1.74339 -3.11995 0
M  V30 19351 S 1859.13 2.52655 -3.58763 0
M  V30 19352 H 1855.95 0.314732 -0.637546 0
M  V30 19353 H 1858.55 0.202106 -1.94453 0
M  V30 19354 H 1857.25 1.09294 -3.95579 0
M  V30 19355 H 1856.78 2.52098 -3.0201 0
M  V30 19356 H 1858.8 3.76547 -3.23151 0
M  V30 19357 N 1857.97 1.50255 0.475528 0
M  V30 19358 C 1858.9 1.71721 1.58222 0
M  V30 19359 C 1859.88 0.56612 1.60403 0
M  V30 19360 O 1861.07 0.804774 1.7674 0
M  V30 19361 C 1858.2 1.80726 2.96573 0
M  V30 19362 C 1857.15 2.95877 3.09258 0
M  V30 19363 C 1856.48 2.9002 4.49213 0
M  V30 19364 C 1857.78 4.36452 2.86891 0
M  V30 19365 H 1859.47 2.6438 1.40511 0
M  V30 19366 H 1857.02 1.27224 0.674533 0
M  V30 19367 H 1858.97 1.94328 3.73918 0
M  V30 19368 H 1857.69 0.846846 3.1543 0
M  V30 19369 H 1856.35 2.81918 2.34345 0
M  V30 19370 H 1856 1.91834 4.64982 0
M  V30 19371 H 1855.7 3.67322 4.58637 0
M  V30 19372 H 1857.23 3.05665 5.28584 0
M  V30 19373 H 1858.64 4.5096 3.53989 0
M  V30 19374 H 1857.04 5.15171 3.07765 0
M  V30 19375 H 1858.11 4.49129 1.82786 0
M  V30 19376 N 1859.45 -0.728395 1.39758 0
M  V30 19377 C 1860.38 -1.85554 1.41747 0
M  V30 19378 C 1861.36 -1.6778 0.279972 0
M  V30 19379 O 1862.55 -1.88001 0.48675 0
M  V30 19380 C 1859.68 -3.23375 1.26671 0
M  V30 19381 C 1858.63 -3.55799 2.37889 0
M  V30 19382 C 1857.96 -4.92628 2.07899 0
M  V30 19383 C 1859.26 -3.58098 3.80215 0
M  V30 19384 H 1860.95 -1.84146 2.36073 0
M  V30 19385 H 1858.5 -0.884539 1.13631 0
M  V30 19386 H 1860.45 -4.01907 1.26682 0
M  V30 19387 H 1859.17 -3.25326 0.288159 0
M  V30 19388 H 1857.83 -2.796 2.37107 0
M  V30 19389 H 1857.48 -4.91166 1.08466 0
M  V30 19390 H 1857.18 -5.15288 2.82404 0
M  V30 19391 H 1858.7 -5.73509 2.09571 0
M  V30 19392 H 1860.12 -4.26694 3.82891 0
M  V30 19393 H 1858.51 -3.9228 4.54133 0
M  V30 19394 H 1859.58 -2.57758 4.10718 0
M  V30 19395 N 1860.93 -1.25042 -0.959279 0
M  V30 19396 C 1861.88 -1.04802 -2.07652 0
M  V30 19397 C 1862.87 0.019648 -1.69389 0
M  V30 19398 O 1864.08 -0.135594 -1.79489 0
M  V30 19399 H 1860.45 -0.321939 -0.679602 0
M  V30 19400 H 1862.42 -1.99527 -2.21882 0
M  V30 19401 C 1861.17 -0.678505 -3.41016 0
M  V30 19402 H 1860.49 -1.49185 -3.70923 0
M  V30 19403 H 1861.93 -0.576549 -4.20062 0
M  V30 19404 C 1860.39 0.615075 -3.31238 0
M  V30 19405 O 1860.92 1.65848 -3.65865 0
M  V30 19406 N 1859.13 0.598958 -2.8436 0
M  V30 19407 H 1858.68 -0.250509 -2.56379 0
M  V30 19408 H 1858.63 1.46464 -2.78201 0
M  V30 19409 N 1862.41 1.16121 -1.06553 0
M  V30 19410 C 1863.34 2.22761 -0.699976 0
M  V30 19411 C 1864.32 1.67274 0.308783 0
M  V30 19412 O 1865.5 1.93333 0.183328 0
M  V30 19413 C 1862.63 3.47187 -0.0884044 0
M  V30 19414 C 1861.59 4.15584 -1.02343 0
M  V30 19415 C 1860.91 5.33992 -0.275022 0
M  V30 19416 C 1862.21 4.66266 -2.35358 0
M  V30 19417 H 1863.91 2.53595 -1.59153 0
M  V30 19418 H 1861.45 1.21893 -0.766686 0
M  V30 19419 H 1863.41 4.21019 0.17922 0
M  V30 19420 H 1862.13 3.15661 0.838181 0
M  V30 19421 H 1860.79 3.43683 -1.27584 0
M  V30 19422 H 1860.44 4.9872 0.654765 0
M  V30 19423 H 1860.14 5.80695 -0.898181 0
M  V30 19424 H 1861.66 6.10598 -0.0150056 0
M  V30 19425 H 1863.07 5.31665 -2.14488 0
M  V30 19426 H 1861.47 5.236 -2.93195 0
M  V30 19427 H 1862.54 3.82335 -2.98241 0
M  V30 19428 N 1863.88 0.848487 1.3281 0
M  V30 19429 C 1865.3 0.504307 1.7976 0
M  V30 19430 C 1865.65 -0.977408 1.70121 0
M  V30 19431 O 1864.77 -1.7621 1.25614 0
M  V30 19432 C 1865.37 0.908628 3.26388 0
M  V30 19433 C 1863.93 0.616441 3.71318 0
M  V30 19434 C 1863.07 1.11173 2.54039 0
M  V30 19435 H 1866.02 1.03628 1.20195 0
M  V30 19436 H 1866.04 0.222518 3.79849 0
M  V30 19437 H 1865.56 1.98708 3.33372 0
M  V30 19438 H 1863.66 -0.451545 3.69854 0
M  V30 19439 H 1863.77 1.17841 4.64382 0
M  V30 19440 H 1862.13 0.532227 2.49077 0
M  V30 19441 H 1862.92 2.19716 2.6378 0
M  V30 19442 N 1865.36 -1.4549 0.605832 0
M  V30 19443 C 1866.64 -1.95573 0.0324098 0
M  V30 19444 C 1867.02 -1.54829 -1.43496 0
M  V30 19445 O 1866.37 -0.810005 -2.13661 0
M  V30 19446 C 1866.58 -3.4825 0.228676 0
M  V30 19447 C 1867.93 -4.24461 0.108559 0
M  V30 19448 O 1868.95 -3.55846 0.158706 0
M  V30 19449 O 1867.81 -5.46499 -0.00781404 0
M  V30 19450 H 1864.9 -0.826184 -0.0367314 0
M  V30 19451 H 1867.45 -1.55664 0.675771 0
M  V30 19452 H 1866.22 -3.70869 1.24786 0
M  V30 19453 H 1865.84 -3.95045 -0.450031 0
M  V30 19454 N 1866.84 -0.344893 -1.5378 0
M  V30 19455 C 1868.07 0.252559 -2.05353 0
M  V30 19456 C 1868.48 1.44107 -1.21978 0
M  V30 19457 O 1867.84 1.80704 -0.25543 0
M  V30 19458 C 1867.89 0.666294 -3.55307 0
M  V30 19459 O 1867.61 -0.474957 -4.35518 0
M  V30 19460 C 1869.11 1.32432 -4.23056 0
M  V30 19461 H 1866.33 0.0485202 -0.669243 0
M  V30 19462 H 1868.88 -0.497271 -1.98362 0
M  V30 19463 H 1867.03 1.36606 -3.62515 0
M  V30 19464 H 1867.45 -0.144883 -5.243 0
M  V30 19465 H 1868.92 1.56456 -5.29363 0
M  V30 19466 H 1869.4 2.27829 -3.75487 0
M  V30 19467 H 1870 0.66655 -4.20044 0
M  V30 19468 N 1868.32 1.57428 -0.0735454 0
M  V30 19469 C 1869.27 2.12821 0.893071 0
M  V30 19470 C 1870.24 1.04117 1.29418 0
M  V30 19471 O 1871.42 1.31789 1.37972 0
M  V30 19472 C 1868.56 2.69569 2.15468 0
M  V30 19473 C 1867.67 3.92436 1.80605 0
M  V30 19474 C 1866.81 4.37421 3.01391 0
M  V30 19475 C 1865.85 5.52931 2.62553 0
M  V30 19476 N 1864.98 5.92866 3.76104 0
M  V30 19477 H 1869.82 2.95113 0.413823 0
M  V30 19478 H 1867.36 1.45834 0.192613 0
M  V30 19479 H 1869.32 3.0058 2.89323 0
M  V30 19480 H 1867.95 1.9004 2.6093 0
M  V30 19481 H 1867 3.67876 0.968068 0
M  V30 19482 H 1868.31 4.76327 1.48033 0
M  V30 19483 H 1867.47 4.70102 3.83522 0
M  V30 19484 H 1866.21 3.52386 3.37158 0
M  V30 19485 H 1865.21 5.19899 1.78844 0
M  V30 19486 H 1866.44 6.39698 2.27954 0
M  V30 19487 H 1864.38 5.10781 4.11629 0
M  V30 19488 H 1864.3 6.71502 3.47305 0
M  V30 19489 H 1865.57 6.30171 4.58808 0
M  V30 19490 N 1869.8 -0.200022 1.56326 0
M  V30 19491 C 1870.73 -1.27187 1.90673 0
M  V30 19492 C 1871.74 -1.41961 0.796933 0
M  V30 19493 O 1872.93 -1.42474 1.07533 0
M  V30 19494 C 1870.03 -2.64468 2.11919 0
M  V30 19495 C 1869.2 -2.71366 3.43044 0
M  V30 19496 C 1868.26 -3.89809 3.53462 0
M  V30 19497 O 1867.29 -3.77142 4.26325 0
M  V30 19498 N 1868.49 -5.05052 2.86187 0
M  V30 19499 H 1871.26 -0.980397 2.83211 0
M  V30 19500 H 1868.82 -0.389967 1.57133 0
M  V30 19501 H 1870.81 -3.42122 2.16182 0
M  V30 19502 H 1869.38 -2.86124 1.25904 0
M  V30 19503 H 1868.6 -1.80024 3.50692 0
M  V30 19504 H 1869.89 -2.72961 4.29383 0
M  V30 19505 H 1869.28 -5.18242 2.26808 0
M  V30 19506 H 1867.84 -5.8067 2.96083 0
M  V30 19507 N 1871.27 -1.50505 -0.467553 0
M  V30 19508 C 1872.22 -1.70158 -1.58584 0
M  V30 19509 C 1873.22 -0.567469 -1.59613 0
M  V30 19510 O 1874.42 -0.748063 -1.63719 0
M  V30 19511 H 1870.8 -0.537137 -0.526296 0
M  V30 19512 H 1872.77 -2.63959 -1.39171 0
M  V30 19513 C 1871.52 -1.81617 -2.96497 0
M  V30 19514 H 1870.84 -2.68276 -2.96425 0
M  V30 19515 H 1872.28 -1.99393 -3.74191 0
M  V30 19516 C 1870.74 -0.56862 -3.32067 0
M  V30 19517 O 1871.27 0.29061 -4.00647 0
M  V30 19518 N 1869.48 -0.421597 -2.87526 0
M  V30 19519 H 1869.02 -1.12184 -2.31889 0
M  V30 19520 H 1868.98 0.411959 -3.11689 0
M  V30 19521 N 1872.75 0.720973 -1.40142 0
M  V30 19522 C 1874.17 1.02835 -1.22054 0
M  V30 19523 C 1874.37 2.0129 -0.091949 0
M  V30 19524 O 1873.42 2.46395 0.551897 0
M  V30 19525 C 1874.74 1.57722 -2.56016 0
M  V30 19526 C 1876.29 1.69734 -2.62982 0
M  V30 19527 C 1876.76 2.28027 -3.972 0
M  V30 19528 N 1878.25 2.3542 -3.98913 0
M  V30 19529 C 1878.99 2.81495 -4.99548 0
M  V30 19530 N 1878.48 3.27362 -6.10578 0
M  V30 19531 N 1880.28 2.80831 -4.86919 0
M  V30 19532 H 1872.43 0.068271 -2.1229 0
M  V30 19533 H 1874.69 0.0928952 -0.943438 0
M  V30 19534 H 1874.4 0.928424 -3.39224 0
M  V30 19535 H 1874.27 2.56326 -2.76725 0
M  V30 19536 H 1876.66 2.33732 -1.80148 0
M  V30 19537 H 1876.74 0.697443 -2.46108 0
M  V30 19538 H 1876.38 1.64653 -4.80471 0
M  V30 19539 H 1876.31 3.28721 -4.114 0
M  V30 19540 H 1878.8 2.03019 -3.18735 0
M  V30 19541 H 1879.12 3.61071 -6.83263 0
M  V30 19542 H 1877.46 3.25335 -6.14152 0
M  V30 19543 H 1880.65 2.4433 -3.99275 0
M  V30 19544 H 1880.82 3.16423 -5.65492 0
M  V30 19545 N 1874.23 1.25549 0.952634 0
M  V30 19546 C 1875.16 1.01898 2.05304 0
M  V30 19547 C 1876.18 -0.0167609 1.62791 0
M  V30 19548 O 1877.36 0.222021 1.77114 0
M  V30 19549 C 1874.46 0.518856 3.34905 0
M  V30 19550 C 1873.64 1.62121 4.06246 0
M  V30 19551 C 1872.7 1.12111 5.14118 0
M  V30 19552 O 1871.72 1.81591 5.39456 0
M  V30 19553 N 1872.92 -0.0365454 5.80488 0
M  V30 19554 H 1875.69 1.96648 2.26163 0
M  V30 19555 H 1873.25 1.16782 1.12132 0
M  V30 19556 H 1875.24 0.168729 4.04348 0
M  V30 19557 H 1873.81 -0.334763 3.10802 0
M  V30 19558 H 1873.03 2.14282 3.30873 0
M  V30 19559 H 1874.32 2.36173 4.50666 0
M  V30 19560 H 1873.72 -0.617055 5.62325 0
M  V30 19561 H 1872.28 -0.327688 6.50976 0
M  V30 19562 N 1875.71 -1.15554 1.07168 0
M  V30 19563 C 1876.95 -1.86804 0.804725 0
M  V30 19564 C 1877.31 -1.80653 -0.661975 0
M  V30 19565 O 1876.6 -1.21747 -1.47947 0
M  V30 19566 C 1876.8 -3.3502 1.24484 0
M  V30 19567 C 1876.63 -3.55601 2.75278 0
M  V30 19568 C 1875.4 -3.71179 3.42862 0
M  V30 19569 C 1877.59 -3.53579 3.73478 0
M  V30 19570 N 1875.58 -3.79795 4.82316 0
M  V30 19571 C 1876.95 -3.68287 4.98763 0
M  V30 19572 C 1879 -3.36843 3.66663 0
M  V30 19573 C 1877.7 -3.67987 6.18043 0
M  V30 19574 C 1879.73 -3.37841 4.85404 0
M  V30 19575 C 1879.09 -3.53076 6.09522 0
M  V30 19576 H 1875.19 -0.700796 0.347 0
M  V30 19577 H 1877.78 -1.38584 1.36757 0
M  V30 19578 H 1875.95 -3.81861 0.709717 0
M  V30 19579 H 1877.68 -3.93972 0.925623 0
M  V30 19580 H 1874.43 -3.71876 2.93267 0
M  V30 19581 H 1874.86 -3.87851 5.54888 0
M  V30 19582 H 1879.5 -3.23984 2.7165 0
M  V30 19583 H 1877.22 -3.79625 7.1338 0
M  V30 19584 H 1880.8 -3.26121 4.81805 0
M  V30 19585 H 1879.68 -3.53779 6.99864 0
M  V30 19586 N 1877.19 -0.855519 -1.32358 0
M  V30 19587 C 1878.12 -0.316159 -2.3135 0
M  V30 19588 C 1879.1 0.585159 -1.59718 0
M  V30 19589 O 1880.28 0.505221 -1.87513 0
M  V30 19590 C 1877.41 0.495577 -3.43746 0
M  V30 19591 C 1876.37 -0.311382 -4.26866 0
M  V30 19592 C 1875.69 0.625144 -5.31033 0
M  V30 19593 C 1876.99 -1.5376 -4.99154 0
M  V30 19594 H 1878.69 -1.14331 -2.7671 0
M  V30 19595 H 1876.23 -0.551221 -1.33032 0
M  V30 19596 H 1878.19 0.883325 -4.12038 0
M  V30 19597 H 1876.91 1.3561 -2.97115 0
M  V30 19598 H 1875.57 -0.680895 -3.60221 0
M  V30 19599 H 1875.22 1.48254 -4.80656 0
M  V30 19600 H 1874.92 0.0892112 -5.87532 0
M  V30 19601 H 1876.44 1.01005 -6.02188 0
M  V30 19602 H 1877.86 -1.2221 -5.60123 0
M  V30 19603 H 1876.25 -2.01153 -5.65382 0
M  V30 19604 H 1877.32 -2.29838 -4.26969 0
M  V30 19605 N 1878.67 1.45167 -0.61354 0
M  V30 19606 C 1879.61 2.32319 0.114222 0
M  V30 19607 C 1880.61 1.4632 0.853634 0
M  V30 19608 O 1881.81 1.62769 0.768525 0
M  V30 19609 H 1878.19 0.749935 0.0556921 0
M  V30 19610 H 1880.16 2.91474 -0.639175 0
M  V30 19611 C 1878.91 3.30035 1.09417 0
M  V30 19612 H 1878.23 3.96209 0.534632 0
M  V30 19613 H 1879.67 3.93734 1.5732 0
M  V30 19614 C 1878.13 2.57648 2.1707 0
M  V30 19615 O 1878.66 2.36227 3.24899 0
M  V30 19616 N 1876.87 2.17682 1.92517 0
M  V30 19617 H 1876.41 2.35303 1.04834 0
M  V30 19618 H 1876.37 1.69573 2.6475 0
M  V30 19619 N 1880.14 0.353044 1.53595 0
M  V30 19620 C 1881.09 -0.515504 2.22096 0
M  V30 19621 C 1882.08 -1.05861 1.2117 0
M  V30 19622 O 1883.27 -0.990737 1.46674 0
M  V30 19623 C 1880.4 -1.66112 3.00436 0
M  V30 19624 C 1879.48 -1.1315 4.08727 0
M  V30 19625 N 1879.88 -0.323846 5.04762 0
M  V30 19626 C 1878.17 -1.4075 4.23209 0
M  V30 19627 C 1878.87 -0.0353104 5.81689 0
M  V30 19628 N 1877.85 -0.629542 5.39942 0
M  V30 19629 H 1881.65 0.108512 2.937 0
M  V30 19630 H 1879.17 0.1604 1.61606 0
M  V30 19631 H 1881.16 -2.29541 3.48018 0
M  V30 19632 H 1879.82 -2.28832 2.3036 0
M  V30 19633 H 1880.83 0.0358889 5.17888 0
M  V30 19634 H 1877.51 -2.0384 3.64357 0
M  V30 19635 H 1878.9 0.616806 6.69063 0
M  V30 19636 N 1881.62 -1.57387 0.0818932 0
M  V30 19637 C 1882.53 -2.16804 -0.89629 0
M  V30 19638 C 1883.55 -1.1339 -1.3198 0
M  V30 19639 O 1884.72 -1.45702 -1.39042 0
M  V30 19640 C 1881.79 -2.72607 -2.14211 0
M  V30 19641 C 1880.85 -3.90929 -1.77406 0
M  V30 19642 C 1880.08 -4.44062 -2.96049 0
M  V30 19643 O 1880.31 -3.96166 -4.10376 0
M  V30 19644 O 1879.24 -5.35261 -2.75279 0
M  V30 19645 H 1883.07 -3.0077 -0.420827 0
M  V30 19646 H 1880.65 -1.48726 -0.141737 0
M  V30 19647 H 1882.53 -3.0833 -2.87247 0
M  V30 19648 H 1881.21 -1.91694 -2.60835 0
M  V30 19649 H 1880.11 -3.60042 -1.01591 0
M  V30 19650 H 1881.45 -4.73165 -1.35556 0
M  V30 19651 N 1883.1 0.191729 -1.56429 0
M  V30 19652 C 1884.51 0.756099 -1.70705 0
M  V30 19653 C 1884.86 1.83703 -0.689029 0
M  V30 19654 O 1883.99 2.15852 0.153863 0
M  V30 19655 C 1884.58 1.37827 -3.09498 0
M  V30 19656 C 1883.14 1.88968 -3.25527 0
M  V30 19657 C 1882.29 0.76089 -2.66657 0
M  V30 19658 H 1885.24 -0.0333918 -1.58665 0
M  V30 19659 H 1885.26 2.24771 -3.07015 0
M  V30 19660 H 1884.77 0.591316 -3.83569 0
M  V30 19661 H 1882.87 2.70372 -2.56378 0
M  V30 19662 H 1882.99 2.04916 -4.33066 0
M  V30 19663 H 1881.35 1.17606 -2.25923 0
M  V30 19664 H 1882.13 -0.0138776 -3.43297 0
M  V30 19665 N 1884.58 1.50751 0.459565 0
M  V30 19666 C 1885.82 1.62556 1.21258 0
M  V30 19667 C 1886.16 0.330265 1.91371 0
M  V30 19668 O 1885.43 -0.668955 1.82634 0
M  V30 19669 C 1885.71 2.8138 2.24716 0
M  V30 19670 C 1885.57 4.20823 1.58832 0
M  V30 19671 C 1886.89 2.95744 3.2592 0
M  V30 19672 H 1884.01 0.591628 0.439483 0
M  V30 19673 H 1886.65 1.83172 0.504777 0
M  V30 19674 H 1884.8 2.63933 2.85082 0
M  V30 19675 H 1886.47 4.49888 1.01975 0
M  V30 19676 H 1884.71 4.24548 0.891148 0
M  V30 19677 H 1885.38 4.99915 2.3407 0
M  V30 19678 H 1887.86 3.11754 2.75588 0
M  V30 19679 H 1886.74 3.80488 3.95626 0
M  V30 19680 H 1887 2.06852 3.90723 0
M  V30 19681 N 1886.06 -0.713531 1.40522 0
M  V30 19682 C 1887.01 -1.81927 1.37429 0
M  V30 19683 C 1887.99 -1.58922 0.251499 0
M  V30 19684 O 1889.18 -1.7006 0.490768 0
M  V30 19685 C 1886.31 -3.20074 1.24127 0
M  V30 19686 C 1885.4 -3.48835 2.41195 0
M  V30 19687 N 1885.79 -3.484 3.66676 0
M  V30 19688 C 1884.09 -3.79302 2.34619 0
M  V30 19689 C 1884.79 -3.75562 4.44217 0
M  V30 19690 N 1883.76 -3.94413 3.74084 0
M  V30 19691 H 1887.56 -1.79927 2.32387 0
M  V30 19692 H 1885.08 -0.912746 1.34323 0
M  V30 19693 H 1887.08 -3.99258 1.19993 0
M  V30 19694 H 1885.74 -3.23298 0.301379 0
M  V30 19695 H 1886.75 -3.29201 3.99809 0
M  V30 19696 H 1883.42 -3.90004 1.49007 0
M  V30 19697 H 1884.81 -3.81513 5.5308 0
M  V30 19698 N 1887.53 -1.26053 -0.945962 0
M  V30 19699 C 1888.76 -1.14181 -1.7314 0
M  V30 19700 C 1889.18 0.299663 -1.85698 0
M  V30 19701 O 1888.54 1.21711 -1.34373 0
M  V30 19702 C 1888.59 -1.81052 -3.11854 0
M  V30 19703 O 1887.69 -1.09606 -3.97568 0
M  V30 19704 H 1887.03 -0.398138 -0.531397 0
M  V30 19705 H 1889.56 -1.66782 -1.18511 0
M  V30 19706 H 1889.57 -1.87685 -3.62269 0
M  V30 19707 H 1888.25 -2.85921 -3.0203 0
M  V30 19708 H 1886.83 -1.10915 -3.56023 0
M  V30 19709 N 1889.01 1.14984 -1.07779 0
M  V30 19710 C 1889.96 2.2193 -0.696405 0
M  V30 19711 C 1890.95 1.66815 0.294832 0
M  V30 19712 O 1892.16 1.79305 0.158081 0
M  V30 19713 H 1888.53 0.722908 -0.207143 0
M  V30 19714 H 1890.51 2.51374 -1.60791 0
M  V30 19715 C 1889.25 3.4751 -0.114943 0
M  V30 19716 H 1888.58 3.90245 -0.86883 0
M  V30 19717 H 1890.02 4.23846 0.114195 0
M  V30 19718 C 1888.48 3.16827 1.14552 0
M  V30 19719 O 1889.01 3.34026 2.23135 0
M  V30 19720 N 1887.21 2.70836 1.05339 0
M  V30 19721 H 1886.76 2.5704 0.169728 0
M  V30 19722 H 1886.72 2.50681 1.89754 0
M  V30 19723 N 1890.49 0.862526 1.31902 0
M  V30 19724 C 1891.74 0.468847 1.96586 0
M  V30 19725 C 1892.06 -0.980535 1.68554 0
M  V30 19726 O 1891.33 -1.68635 0.996952 0
M  V30 19727 H 1889.91 0.170387 0.727308 0
M  V30 19728 H 1892.57 1.10068 1.60845 0
M  V30 19729 H 1891.67 0.620415 3.05871 0
M  V30 19730 N 1891.97 -1.4484 0.62123 0
M  V30 19731 C 1893.38 -1.85568 0.205284 0
M  V30 19732 C 1893.73 -1.51963 -1.24104 0
M  V30 19733 O 1892.86 -0.952887 -1.94291 0
M  V30 19734 C 1893.45 -3.3682 0.365788 0
M  V30 19735 C 1892.01 -3.764 0.00442911 0
M  V30 19736 C 1891.16 -2.68736 0.683839 0
M  V30 19737 H 1894.11 -1.35447 0.827036 0
M  V30 19738 H 1894.13 -3.78411 -0.398123 0
M  V30 19739 H 1893.64 -3.61247 1.41853 0
M  V30 19740 H 1891.74 -3.57588 -1.04696 0
M  V30 19741 H 1891.85 -4.77363 0.407588 0
M  V30 19742 H 1890.22 -2.54417 0.120114 0
M  V30 19743 H 1891 -2.95997 1.73898 0
M  V30 19744 N 1893.45 -0.361184 -1.53405 0
M  V30 19745 C 1894.69 0.230222 -2.01489 0
M  V30 19746 C 1895.03 1.48779 -1.24814 0
M  V30 19747 O 1894.3 1.91494 -0.340612 0
M  V30 19748 C 1894.58 0.526613 -3.56229 0
M  V30 19749 C 1894.44 -0.744277 -4.436 0
M  V30 19750 C 1895.76 1.32901 -4.19554 0
M  V30 19751 H 1892.87 0.0822009 -0.732402 0
M  V30 19752 H 1895.52 -0.485208 -1.837 0
M  V30 19753 H 1893.67 1.13609 -3.71517 0
M  V30 19754 H 1895.34 -1.38188 -4.40116 0
M  V30 19755 H 1893.58 -1.36555 -4.11747 0
M  V30 19756 H 1894.25 -0.491913 -5.49804 0
M  V30 19757 H 1896.73 0.813474 -4.08071 0
M  V30 19758 H 1895.6 1.50513 -5.27861 0
M  V30 19759 H 1895.87 2.33625 -3.75329 0
M  V30 19760 N 1894.92 1.57341 -0.0902386 0
M  V30 19761 C 1895.85 2.16782 0.86764 0
M  V30 19762 C 1896.84 1.09982 1.29761 0
M  V30 19763 O 1898.02 1.38099 1.36537 0
M  V30 19764 C 1895.15 2.74426 2.12856 0
M  V30 19765 C 1894.1 3.86555 1.83738 0
M  V30 19766 C 1893.43 4.3088 3.16617 0
M  V30 19767 C 1894.73 5.09971 1.12814 0
M  V30 19768 H 1896.42 2.97075 0.372417 0
M  V30 19769 H 1893.97 1.42899 0.177689 0
M  V30 19770 H 1895.92 3.14659 2.80299 0
M  V30 19771 H 1894.65 1.9138 2.64653 0
M  V30 19772 H 1893.31 3.46853 1.18694 0
M  V30 19773 H 1892.95 3.44732 3.66291 0
M  V30 19774 H 1892.65 5.06477 2.97918 0
M  V30 19775 H 1894.18 4.73743 3.85227 0
M  V30 19776 H 1895.59 5.47404 1.70358 0
M  V30 19777 H 1893.99 5.90965 1.04311 0
M  V30 19778 H 1895.06 4.84775 0.110114 0
M  V30 19779 N 1896.4 -0.183431 1.56529 0
M  V30 19780 C 1897.68 -0.928567 1.72154 0
M  V30 19781 C 1898.06 -2.00899 0.648284 0
M  V30 19782 O 1897.41 -2.25973 -0.338886 0
M  V30 19783 C 1897.62 -1.50436 3.14913 0
M  V30 19784 C 1898.97 -1.98198 3.75503 0
M  V30 19785 O 1899.99 -1.60255 3.18115 0
M  V30 19786 O 1898.85 -2.68054 4.76245 0
M  V30 19787 H 1895.94 -0.436242 0.702582 0
M  V30 19788 H 1898.49 -0.17221 1.68824 0
M  V30 19789 H 1897.26 -0.726145 3.84503 0
M  V30 19790 H 1896.88 -2.32523 3.22519 0
M  V30 19791 N 1897.88 -1.50992 -0.451564 0
M  V30 19792 C 1899.16 -1.53486 -1.2125 0
M  V30 19793 C 1899.54 -0.290809 -2.09087 0
M  V30 19794 O 1898.89 0.724859 -2.16698 0
M  V30 19795 C 1899.1 -2.84125 -2.02667 0
M  V30 19796 C 1900.44 -3.35535 -2.60195 0
M  V30 19797 O 1901.47 -2.85579 -2.12892 0
M  V30 19798 O 1900.33 -4.22667 -3.46432 0
M  V30 19799 H 1897.42 -0.616481 -0.551253 0
M  V30 19800 H 1899.97 -1.63296 -0.461792 0
M  V30 19801 H 1898.74 -3.66134 -1.38064 0
M  V30 19802 H 1898.36 -2.7741 -2.84832 0
M  V30 19803 N 1899.36 0.706069 -1.40899 0
M  V30 19804 C 1900.64 1.45984 -1.30185 0
M  V30 19805 C 1901.02 2.10965 0.0754423 0
M  V30 19806 O 1900.36 2.00883 1.08896 0
M  V30 19807 C 1900.57 2.48782 -2.44762 0
M  V30 19808 C 1901.92 3.14339 -2.85441 0
M  V30 19809 O 1902.95 2.59104 -2.44425 0
M  V30 19810 O 1901.8 4.14354 -3.56333 0
M  V30 19811 H 1898.9 0.649628 -0.511774 0
M  V30 19812 H 1901.44 0.737436 -1.5284 0
M  V30 19813 H 1900.22 1.99346 -3.36715 0
M  V30 19814 H 1899.84 3.28545 -2.23929 0
M  V30 19815 N 1900.84 1.26553 0.939264 0
M  V30 19816 C 1902.09 1.11599 1.68014 0
M  V30 19817 C 1902.4 -0.339956 1.92623 0
M  V30 19818 O 1903.6 -0.610203 2.64554 0
M  V30 19819 C 1902.06 1.94913 3.02551 0
M  V30 19820 C 1901.67 3.45094 2.85682 0
M  V30 19821 C 1903.41 1.88574 3.80316 0
M  V30 19822 C 1901.32 4.20648 4.15703 0
M  V30 19823 H 1900.25 0.414037 0.630151 0
M  V30 19824 H 1902.9 1.50878 1.04441 0
M  V30 19825 H 1901.28 1.48469 3.67115 0
M  V30 19826 H 1902.46 3.99321 2.29956 0
M  V30 19827 H 1900.77 3.5269 2.21357 0
M  V30 19828 H 1903.37 2.42307 4.76646 0
M  V30 19829 H 1903.71 0.856867 4.07386 0
M  V30 19830 H 1904.24 2.32852 3.22529 0
M  V30 19831 H 1900.98 5.24013 3.93816 0
M  V30 19832 H 1900.5 3.71202 4.71136 0
M  V30 19833 H 1902.18 4.29199 4.84146 0
M  V30 19834 N 1902.31 -1.14411 1.08387 0
M  V30 19835 C 1903.24 -2.21619 0.735327 0
M  V30 19836 C 1904.23 -1.67744 -0.282132 0
M  V30 19837 O 1905.41 -1.936 -0.152547 0
M  V30 19838 C 1902.54 -3.47003 0.143628 0
M  V30 19839 C 1901.49 -4.13903 1.08941 0
M  V30 19840 C 1900.82 -5.33487 0.359941 0
M  V30 19841 C 1902.12 -4.62463 2.42746 0
M  V30 19842 H 1903.81 -2.51031 1.63168 0
M  V30 19843 H 1901.36 -1.20658 0.785981 0
M  V30 19844 H 1903.31 -4.21251 -0.112217 0
M  V30 19845 H 1902.04 -3.16955 -0.787856 0
M  V30 19846 H 1900.7 -3.4161 1.33035 0
M  V30 19847 H 1900.34 -4.99699 -0.57534 0
M  V30 19848 H 1900.04 -5.79192 0.990451 0
M  V30 19849 H 1901.57 -6.10497 0.112145 0
M  V30 19850 H 1902.98 -5.28185 2.22919 0
M  V30 19851 H 1901.38 -5.18869 3.01488 0
M  V30 19852 H 1902.45 -3.77542 3.04286 0
M  V30 19853 N 1903.79 -0.869509 -1.31443 0
M  V30 19854 C 1904.76 -0.329869 -2.26814 0
M  V30 19855 C 1905.76 0.518895 -1.52198 0
M  V30 19856 O 1906.95 0.328267 -1.71079 0
M  V30 19857 C 1904.08 0.53159 -3.3673 0
M  V30 19858 H 1905.27 -1.1718 -2.7606 0
M  V30 19859 H 1902.82 -0.645061 -1.42368 0
M  V30 19860 H 1903.56 1.39473 -2.92776 0
M  V30 19861 H 1903.34 -0.0761553 -3.92026 0
M  V30 19862 H 1904.83 0.901447 -4.07754 0
M  V30 19863 N 1905.27 1.44508 -0.628902 0
M  V30 19864 C 1906.55 1.95497 -0.0635197 0
M  V30 19865 C 1906.93 1.57092 1.41015 0
M  V30 19866 O 1906.28 0.843894 2.12346 0
M  V30 19867 C 1906.49 3.47842 -0.284051 0
M  V30 19868 C 1907.83 4.24235 -0.176073 0
M  V30 19869 O 1908.86 3.55549 -0.215298 0
M  V30 19870 O 1907.72 5.46443 -0.0791303 0
M  V30 19871 H 1904.81 0.826664 0.0235829 0
M  V30 19872 H 1907.36 1.5457 -0.70045 0
M  V30 19873 H 1906.13 3.68837 -1.30671 0
M  V30 19874 H 1905.75 3.95711 0.387125 0
M  V30 19875 N 1906.75 0.369315 1.53212 0
M  V30 19876 C 1908.16 -0.10909 1.86381 0
M  V30 19877 C 1908.51 -1.47849 1.28977 0
M  V30 19878 O 1907.64 -2.07528 0.613267 0
M  V30 19879 C 1908.23 -0.204726 3.38181 0
M  V30 19880 C 1906.79 -0.627391 3.71134 0
M  V30 19881 C 1905.94 0.223086 2.76401 0
M  V30 19882 H 1908.89 0.587967 1.47406 0
M  V30 19883 H 1908.91 -1.02761 3.66361 0
M  V30 19884 H 1908.42 0.792082 3.79931 0
M  V30 19885 H 1906.52 -1.63229 3.34943 0
M  V30 19886 H 1906.64 -0.39941 4.77432 0
M  V30 19887 H 1905 -0.308608 2.52823 0
M  V30 19888 H 1905.78 1.2175 3.20986 0
M  V30 19889 N 1908.23 -1.57291 0.0985816 0
M  V30 19890 C 1909.5 -1.85951 -0.606759 0
M  V30 19891 C 1909.88 -0.996077 -1.86122 0
M  V30 19892 O 1909.23 -0.0694281 -2.28394 0
M  V30 19893 C 1909.44 -3.36688 -0.918803 0
M  V30 19894 C 1910.79 -4.04824 -1.28074 0
M  V30 19895 O 1911.81 -3.41589 -1.00971 0
M  V30 19896 O 1910.67 -5.16406 -1.7885 0
M  V30 19897 H 1907.77 -0.769103 -0.30399 0
M  V30 19898 H 1910.31 -1.69189 0.131543 0
M  V30 19899 H 1909.09 -3.91289 -0.0289848 0
M  V30 19900 H 1908.71 -3.58808 -1.71296 0
M  V30 19901 N 1909.71 0.175127 -1.56624 0
M  V30 19902 C 1910.95 0.890653 -1.8097 0
M  V30 19903 C 1911.27 1.83577 -0.675199 0
M  V30 19904 O 1912.47 2.59338 -0.803492 0
M  V30 19905 C 1910.93 1.63427 -3.20655 0
M  V30 19906 C 1910.54 0.732982 -4.41963 0
M  V30 19907 C 1912.28 2.33825 -3.54297 0
M  V30 19908 C 1910.19 1.47661 -5.72669 0
M  V30 19909 H 1909.12 0.336324 -0.674835 0
M  V30 19910 H 1911.77 0.143627 -1.82937 0
M  V30 19911 H 1910.15 2.42591 -3.12994 0
M  V30 19912 H 1911.33 -0.0214223 -4.60795 0
M  V30 19913 H 1909.64 0.138848 -4.16168 0
M  V30 19914 H 1912.24 2.90048 -4.49195 0
M  V30 19915 H 1912.58 3.08979 -2.78994 0
M  V30 19916 H 1913.11 1.61608 -3.63494 0
M  V30 19917 H 1909.85 0.767472 -6.50992 0
M  V30 19918 H 1909.37 2.20444 -5.57821 0
M  V30 19919 H 1911.05 2.02512 -6.1449 0
M  V30 19920 N 1911.18 1.5123 0.44355 0
M  V30 19921 C 1912.12 1.68281 1.55609 0
M  V30 19922 C 1913.13 0.563589 1.52733 0
M  V30 19923 O 1914.32 0.837706 1.57622 0
M  V30 19924 C 1911.42 1.67657 2.94524 0
M  V30 19925 C 1910.59 2.96063 3.21971 0
M  V30 19926 C 1909.65 2.8771 4.40578 0
M  V30 19927 O 1908.68 3.61659 4.39536 0
M  V30 19928 N 1909.88 2.03137 5.43797 0
M  V30 19929 H 1912.64 2.64252 1.41389 0
M  V30 19930 H 1910.2 1.49038 0.632398 0
M  V30 19931 H 1912.2 1.59646 3.71881 0
M  V30 19932 H 1910.77 0.79306 3.02373 0
M  V30 19933 H 1909.99 3.17991 2.32971 0
M  V30 19934 H 1911.27 3.81074 3.37135 0
M  V30 19935 H 1910.67 1.42422 5.47478 0
M  V30 19936 H 1909.23 2.0101 6.20031 0
M  V30 19937 N 1912.66 -0.698586 1.41271 0
M  V30 19938 C 1913.57 -1.8424 1.45234 0
M  V30 19939 C 1914.59 -1.70581 0.343225 0
M  V30 19940 O 1915.76 -1.9255 0.590477 0
M  V30 19941 C 1912.83 -3.20195 1.32951 0
M  V30 19942 C 1911.89 -3.45984 2.54152 0
M  V30 19943 C 1911.12 -4.75453 2.42446 0
M  V30 19944 O 1911.35 -5.5173 1.44741 0
M  V30 19945 O 1910.28 -5.01958 3.32147 0
M  V30 19946 H 1914.11 -1.83853 2.41727 0
M  V30 19947 H 1911.69 -0.851252 1.22776 0
M  V30 19948 H 1913.57 -4.0137 1.28374 0
M  V30 19949 H 1912.25 -3.21272 0.395728 0
M  V30 19950 H 1911.15 -2.64751 2.64306 0
M  V30 19951 H 1912.49 -3.49718 3.46349 0
M  V30 19952 N 1914.14 -1.27049 -0.93254 0
M  V30 19953 C 1915.1 -1.09404 -2.01404 0
M  V30 19954 C 1916.1 -0.0395757 -1.60751 0
M  V30 19955 O 1917.29 -0.283746 -1.71874 0
M  V30 19956 C 1914.42 -0.665948 -3.34332 0
M  V30 19957 H 1915.62 -2.05434 -2.18488 0
M  V30 19958 H 1913.17 -1.09768 -1.11268 0
M  V30 19959 H 1913.91 0.295952 -3.22947 0
M  V30 19960 H 1913.69 -1.42745 -3.65194 0
M  V30 19961 H 1915.18 -0.564591 -4.13766 0
M  V30 19962 N 1915.62 1.13835 -1.08993 0
M  V30 19963 C 1916.87 1.84361 -0.818161 0
M  V30 19964 C 1917.18 1.84185 0.658437 0
M  V30 19965 O 1918.39 2.50559 1.04558 0
M  V30 19966 C 1916.84 3.30973 -1.41367 0
M  V30 19967 C 1916.45 3.3955 -2.92249 0
M  V30 19968 C 1918.19 4.06571 -1.22066 0
M  V30 19969 C 1916.1 4.80408 -3.44908 0
M  V30 19970 H 1915.03 0.690704 -0.302397 0
M  V30 19971 H 1917.68 1.28283 -1.31208 0
M  V30 19972 H 1916.06 3.86826 -0.84745 0
M  V30 19973 H 1917.24 2.93716 -3.5506 0
M  V30 19974 H 1915.55 2.77413 -3.10533 0
M  V30 19975 H 1918.15 5.10554 -1.58868 0
M  V30 19976 H 1918.49 4.15989 -0.160946 0
M  V30 19977 H 1919.03 3.57036 -1.75415 0
M  V30 19978 H 1915.76 4.76181 -4.5048 0
M  V30 19979 H 1915.28 5.26756 -2.86859 0
M  V30 19980 H 1916.96 5.49315 -3.4185 0
M  V30 19981 N 1917.1 0.876467 1.3098 0
M  V30 19982 C 1918.04 0.326251 2.30301 0
M  V30 19983 C 1919.04 -0.562168 1.598 0
M  V30 19984 O 1920.24 -0.447547 1.74347 0
M  V30 19985 H 1916.62 0.0868325 0.74697 0
M  V30 19986 H 1918.59 1.17775 2.74175 0
M  V30 19987 C 1917.34 -0.451679 3.44754 0
M  V30 19988 H 1916.66 0.222681 3.99179 0
M  V30 19989 H 1918.1 -0.801899 4.16348 0
M  V30 19990 C 1916.56 -1.64547 2.93983 0
M  V30 19991 O 1917.09 -2.74482 2.93296 0
M  V30 19992 N 1915.3 -1.47978 2.50102 0
M  V30 19993 H 1914.84 -0.585447 2.50859 0
M  V30 19994 H 1914.8 -2.27992 2.16488 0
M  V30 19995 N 1918.57 -1.44173 0.636557 0
M  V30 19996 C 1919.52 -2.27834 -0.087113 0
M  V30 19997 C 1920.51 -1.3897 -0.810926 0
M  V30 19998 O 1921.7 -1.62736 -0.696139 0
M  V30 19999 C 1918.83 -3.26385 -1.06431 0
M  V30 20000 C 1917.91 -4.22736 -0.339835 0
M  V30 20001 N 1918.31 -5.01804 0.634535 0
M  V30 20002 C 1916.6 -4.42166 -0.583549 0
M  V30 20003 C 1917.3 -5.71904 1.06306 0
M  V30 20004 N 1916.28 -5.42121 0.400722 0
M  V30 20005 H 1920.08 -2.86375 0.660817 0
M  V30 20006 H 1917.6 -1.55675 0.462493 0
M  V30 20007 H 1919.59 -3.85083 -1.5974 0
M  V30 20008 H 1918.25 -2.69405 -1.81248 0
M  V30 20009 H 1919.26 -5.07905 1.01258 0
M  V30 20010 H 1915.94 -3.96277 -1.31417 0
M  V30 20011 H 1917.33 -6.45401 1.86835 0
M  V30 20012 N 1920.05 -0.377435 -1.53014 0
M  V30 20013 C 1920.98 0.498304 -2.23718 0
M  V30 20014 C 1922 1.03648 -1.25542 0
M  V30 20015 O 1923.19 0.940837 -1.51692 0
M  V30 20016 C 1920.29 1.70201 -2.93061 0
M  V30 20017 C 1919.46 1.29328 -4.17843 0
M  V30 20018 C 1918.52 2.36036 -4.70291 0
M  V30 20019 O 1917.54 1.97934 -5.33677 0
M  V30 20020 N 1918.75 3.67788 -4.49124 0
M  V30 20021 H 1921.51 -0.107388 -2.99508 0
M  V30 20022 H 1919.07 -0.203197 -1.6062 0
M  V30 20023 H 1921.06 2.41087 -3.25052 0
M  V30 20024 H 1919.63 2.21431 -2.20652 0
M  V30 20025 H 1918.85 0.413779 -3.92022 0
M  V30 20026 H 1920.14 0.996666 -4.98943 0
M  V30 20027 H 1919.54 4.01512 -3.98503 0
M  V30 20028 H 1918.1 4.34744 -4.85635 0
M  V30 20029 N 1921.53 1.57237 -0.106922 0
M  V30 20030 C 1922.76 1.9912 0.562038 0
M  V30 20031 C 1923.17 0.986338 1.60987 0
M  V30 20032 O 1922.53 -0.0224611 1.82486 0
M  V30 20033 C 1922.58 3.41034 1.19909 0
M  V30 20034 O 1922.3 4.37674 0.193157 0
M  V30 20035 C 1923.8 3.97984 1.95253 0
M  V30 20036 H 1921.02 0.654071 0.149772 0
M  V30 20037 H 1923.57 2.03618 -0.189699 0
M  V30 20038 H 1921.72 3.37513 1.90168 0
M  V30 20039 H 1922.14 5.20401 0.654461 0
M  V30 20040 H 1923.61 4.99398 2.35171 0
M  V30 20041 H 1924.09 3.36455 2.82303 0
M  V30 20042 H 1924.69 4.05014 1.29784 0
M  V30 20043 N 1923.01 -0.166818 1.56715 0
M  V30 20044 C 1924.24 -0.898169 1.86388 0
M  V30 20045 C 1924.65 -1.75628 0.692837 0
M  V30 20046 O 1924.01 -1.79344 -0.337947 0
M  V30 20047 C 1924.06 -1.77122 3.15135 0
M  V30 20048 O 1923.78 -0.947716 4.27727 0
M  V30 20049 C 1925.28 -2.61185 3.58186 0
M  V30 20050 H 1922.5 -0.260711 0.61828 0
M  V30 20051 H 1925.05 -0.165561 2.03829 0
M  V30 20052 H 1923.2 -2.45711 2.99507 0
M  V30 20053 H 1923.61 -1.54523 5.01221 0
M  V30 20054 H 1925.09 -3.18052 4.51162 0
M  V30 20055 H 1925.57 -3.36273 2.8252 0
M  V30 20056 H 1926.17 -1.9792 3.76441 0
M  V30 20057 N 1924.49 -1.51463 -0.435524 0
M  V30 20058 C 1925.45 -1.72315 -1.51129 0
M  V30 20059 C 1926.45 -0.593161 -1.4946 0
M  V30 20060 O 1927.64 -0.860731 -1.5145 0
M  V30 20061 C 1924.77 -1.78127 -2.9066 0
M  V30 20062 H 1925.96 -2.68327 -1.33943 0
M  V30 20063 H 1923.52 -1.4148 -0.664317 0
M  V30 20064 H 1924.25 -0.839367 -3.13249 0
M  V30 20065 H 1924.04 -2.60252 -2.93277 0
M  V30 20066 H 1925.53 -1.96093 -3.68697 0
M  V30 20067 N 1925.96 0.691085 -1.4164 0
M  V30 20068 C 1927.19 1.47978 -1.44603 0
M  V30 20069 C 1927.61 1.88727 -0.0525951 0
M  V30 20070 O 1926.96 1.57079 0.929107 0
M  V30 20071 C 1927.02 2.73945 -2.35874 0
M  V30 20072 O 1926.74 2.34912 -3.69795 0
M  V30 20073 C 1928.24 3.67649 -2.47688 0
M  V30 20074 H 1925.46 0.455873 -0.492363 0
M  V30 20075 H 1928 0.850521 -1.85974 0
M  V30 20076 H 1926.16 3.33098 -1.97799 0
M  V30 20077 H 1926.57 3.16139 -4.18517 0
M  V30 20078 H 1928.04 4.52806 -3.15707 0
M  V30 20079 H 1928.52 4.12443 -1.50956 0
M  V30 20080 H 1929.13 3.14397 -2.86417 0
M  V30 20081 N 1927.44 1.27542 0.925789 0
M  V30 20082 C 1928.39 1.10432 2.02666 0
M  V30 20083 C 1929.36 0.004846 1.66099 0
M  V30 20084 O 1930.54 0.167531 1.90063 0
M  V30 20085 C 1927.68 0.759567 3.36637 0
M  V30 20086 C 1926.8 1.93687 3.86147 0
M  V30 20087 C 1925.93 1.53382 5.08574 0
M  V30 20088 C 1924.97 2.67849 5.50385 0
M  V30 20089 N 1924.11 2.2812 6.64007 0
M  V30 20090 H 1928.95 2.04632 2.16633 0
M  V30 20091 H 1926.49 1.01863 1.06124 0
M  V30 20092 H 1928.44 0.540492 4.13684 0
M  V30 20093 H 1927.07 -0.145477 3.22472 0
M  V30 20094 H 1926.13 2.26843 3.05363 0
M  V30 20095 H 1927.44 2.79548 4.13104 0
M  V30 20096 H 1926.59 1.2761 5.93128 0
M  V30 20097 H 1925.33 0.646332 4.83398 0
M  V30 20098 H 1924.34 2.94333 4.64379 0
M  V30 20099 H 1925.56 3.57222 5.77554 0
M  V30 20100 H 1923.51 1.41825 6.40485 0
M  V30 20101 H 1923.42 3.07519 6.90629 0
M  V30 20102 H 1924.69 2.056 7.51897 0
M  V30 20103 N 1928.92 -1.13255 1.09595 0
M  V30 20104 C 1930.15 -1.88411 0.854927 0
M  V30 20105 C 1930.56 -1.79214 -0.593949 0
M  V30 20106 O 1929.92 -1.15995 -1.40895 0
M  V30 20107 C 1929.97 -3.37946 1.28353 0
M  V30 20108 O 1929.69 -3.46907 2.67558 0
M  V30 20109 C 1931.19 -4.30065 1.07514 0
M  V30 20110 H 1928.41 -0.596416 0.307455 0
M  V30 20111 H 1930.96 -1.43358 1.45838 0
M  V30 20112 H 1929.11 -3.80576 0.72393 0
M  V30 20113 H 1929.53 -4.39878 2.8567 0
M  V30 20114 H 1931 -5.33309 1.42428 0
M  V30 20115 H 1931.48 -4.39198 0.0130611 0
M  V30 20116 H 1932.08 -3.93206 1.62077 0
M  V30 20117 N 1930.4 -0.883401 -1.30514 0
M  V30 20118 C 1931.63 -0.515199 -2.00073 0
M  V30 20119 C 1932.04 0.900374 -1.66403 0
M  V30 20120 O 1931.38 1.60339 -0.896503 0
M  V30 20121 C 1931.44 -0.608317 -3.54316 0
M  V30 20122 C 1931.11 -1.98792 -4.11498 0
M  V30 20123 C 1932.1 -2.95712 -4.2761 0
M  V30 20124 C 1929.79 -2.29288 -4.46914 0
M  V30 20125 C 1931.78 -4.21264 -4.78347 0
M  V30 20126 C 1929.47 -3.55086 -4.9735 0
M  V30 20127 C 1930.47 -4.50888 -5.13019 0
M  V30 20128 O 1930.15 -5.74455 -5.62367 0
M  V30 20129 H 1929.89 -0.197853 -0.646398 0
M  V30 20130 H 1932.44 -1.19015 -1.67405 0
M  V30 20131 H 1930.67 0.123606 -3.86502 0
M  V30 20132 H 1932.36 -0.251619 -4.05119 0
M  V30 20133 H 1933.13 -2.73463 -4.00553 0
M  V30 20134 H 1929 -1.55488 -4.33987 0
M  V30 20135 H 1932.55 -4.96048 -4.90492 0
M  V30 20136 H 1928.45 -3.77172 -5.23843 0
M  V30 20137 H 1929.21 -5.76814 -5.80713 0
M  V30 20138 N 1931.88 1.43833 -0.644194 0
M  V30 20139 C 1933.29 1.56542 -0.310952 0
M  V30 20140 C 1933.49 1.62946 1.18536 0
M  V30 20141 O 1932.55 1.57961 1.96989 0
M  V30 20142 C 1933.86 2.83074 -1.01437 0
M  V30 20143 C 1935.41 2.96805 -0.993759 0
M  V30 20144 C 1935.88 4.26158 -1.6779 0
M  V30 20145 N 1937.38 4.33002 -1.64511 0
M  V30 20146 C 1938.11 5.31837 -2.14328 0
M  V30 20147 N 1937.61 6.37003 -2.72394 0
M  V30 20148 N 1939.4 5.23431 -2.04881 0
M  V30 20149 H 1931.55 1.37919 -1.61531 0
M  V30 20150 H 1933.81 0.661778 -0.678789 0
M  V30 20151 H 1933.52 2.84372 -2.06943 0
M  V30 20152 H 1933.39 3.73016 -0.560273 0
M  V30 20153 H 1935.78 2.95053 0.0528599 0
M  V30 20154 H 1935.86 2.08177 -1.48647 0
M  V30 20155 H 1935.51 4.28671 -2.72404 0
M  V30 20156 H 1935.44 5.13667 -1.15992 0
M  V30 20157 H 1937.93 3.57621 -1.22129 0
M  V30 20158 H 1938.24 7.08724 -3.08107 0
M  V30 20159 H 1936.58 6.37652 -2.76451 0
M  V30 20160 H 1939.78 4.40186 -1.59229 0
M  V30 20161 H 1939.95 6.00301 -2.44015 0
M  V30 20162 N 1933.35 0.385544 1.52811 0
M  V30 20163 C 1934.28 -0.442951 2.2926 0
M  V30 20164 C 1935.27 -1.06674 1.32494 0
M  V30 20165 O 1936.45 -1.08022 1.61384 0
M  V30 20166 C 1933.58 -1.57243 3.09664 0
M  V30 20167 C 1932.53 -1.07488 4.14283 0
M  V30 20168 C 1931.86 -2.29614 4.82889 0
M  V30 20169 C 1933.16 -0.145479 5.22097 0
M  V30 20170 H 1934.85 0.1949 2.98765 0
M  V30 20171 H 1932.4 0.0951762 1.43685 0
M  V30 20172 H 1934.35 -2.15882 3.61902 0
M  V30 20173 H 1933.08 -2.23781 2.37885 0
M  V30 20174 H 1931.74 -0.511047 3.6302 0
M  V30 20175 H 1931.38 -2.94653 4.07662 0
M  V30 20176 H 1931.08 -1.96985 5.53598 0
M  V30 20177 H 1932.61 -2.88902 5.37929 0
M  V30 20178 H 1934.02 -0.639941 5.69717 0
M  V30 20179 H 1932.42 0.0908687 6.00031 0
M  V30 20180 H 1933.49 0.806707 4.78142 0
M  V30 20181 N 1934.83 -1.57178 0.115259 0
M  V30 20182 C 1936.08 -1.95355 -0.54445 0
M  V30 20183 C 1936.41 -0.998445 -1.66567 0
M  V30 20184 O 1935.69 -0.0349993 -1.94469 0
M  V30 20185 C 1935.97 -3.43502 -1.08067 0
M  V30 20186 C 1935.82 -4.49785 0.0368794 0
M  V30 20187 C 1937.14 -3.9341 -1.97273 0
M  V30 20188 H 1934.26 -0.710338 -0.19644 0
M  V30 20189 H 1936.9 -1.89047 0.19006 0
M  V30 20190 H 1935.05 -3.49008 -1.70662 0
M  V30 20191 H 1936.72 -4.56379 0.672017 0
M  V30 20192 H 1934.97 -4.28106 0.700539 0
M  V30 20193 H 1935.64 -5.50694 -0.379481 0
M  V30 20194 H 1938.11 -3.90184 -1.44555 0
M  V30 20195 H 1936.99 -4.97596 -2.31711 0
M  V30 20196 H 1937.25 -3.33884 -2.89782 0
M  V30 20197 N 1936.31 0.158505 -1.56801 0
M  V30 20198 C 1937.26 1.21526 -1.98328 0
M  V30 20199 C 1938.25 1.45117 -0.873926 0
M  V30 20200 O 1939.46 1.45545 -1.05908 0
M  V30 20201 H 1935.83 0.408803 -0.631177 0
M  V30 20202 H 1937.81 0.838242 -2.86384 0
M  V30 20203 C 1936.55 2.54396 -2.37019 0
M  V30 20204 H 1935.88 2.3707 -3.21928 0
M  V30 20205 H 1937.32 3.26994 -2.69909 0
M  V30 20206 C 1935.78 3.14095 -1.21845 0
M  V30 20207 O 1936.31 3.98411 -0.51298 0
M  V30 20208 N 1934.51 2.73373 -0.985675 0
M  V30 20209 H 1934.06 2.04907 -1.56112 0
M  V30 20210 H 1934.02 3.13651 -0.216926 0
M  V30 20211 N 1937.79 1.51692 0.427485 0
M  V30 20212 C 1939.02 1.68669 1.19827 0
M  V30 20213 C 1939.43 0.388231 1.84765 0
M  V30 20214 O 1938.79 -0.634167 1.71127 0
M  V30 20215 C 1938.84 2.80936 2.27502 0
M  V30 20216 O 1938.56 4.05752 1.65218 0
M  V30 20217 C 1940.06 3.09267 3.17599 0
M  V30 20218 H 1937.28 0.565751 0.360786 0
M  V30 20219 H 1939.83 1.98158 0.505323 0
M  V30 20220 H 1937.98 2.54018 2.92496 0
M  V30 20221 H 1938.4 4.68175 2.36457 0
M  V30 20222 H 1939.87 3.91379 3.89264 0
M  V30 20223 H 1940.35 2.22071 3.78921 0
M  V30 20224 H 1940.95 3.37881 2.58295 0
M  V30 20225 N 1939.27 -0.683564 1.42004 0
M  V30 20226 C 1940.54 -1.43894 1.32491 0
M  V30 20227 C 1940.92 -2.11058 -0.0418701 0
M  V30 20228 O 1940.27 -2.0259 -1.05686 0
M  V30 20229 C 1940.48 -2.44856 2.48689 0
M  V30 20230 C 1941.83 -3.09758 2.90405 0
M  V30 20231 O 1942.85 -2.55182 2.48516 0
M  V30 20232 O 1941.71 -4.08633 3.6288 0
M  V30 20233 H 1938.81 -0.641404 0.522044 0
M  V30 20234 H 1941.35 -0.713027 1.53994 0
M  V30 20235 H 1940.13 -1.93964 3.39843 0
M  V30 20236 H 1939.75 -3.24941 2.29127 0
M  V30 20237 N 1940.75 -1.28031 -0.919012 0
M  V30 20238 C 1942.16 -1.05624 -1.19649 0
M  V30 20239 C 1942.36 0.204731 -2.00457 0
M  V30 20240 O 1941.42 0.907849 -2.35615 0
M  V30 20241 C 1942.73 -2.3007 -1.93619 0
M  V30 20242 C 1944.28 -2.35196 -2.06523 0
M  V30 20243 C 1944.75 -3.59395 -2.839 0
M  V30 20244 N 1946.24 -3.60004 -2.91464 0
M  V30 20245 C 1946.98 -4.52779 -3.51822 0
M  V30 20246 N 1946.48 -5.55868 -4.13501 0
M  V30 20247 N 1948.27 -4.40385 -3.4931 0
M  V30 20248 H 1940.42 -2.08985 -0.379372 0
M  V30 20249 H 1942.68 -0.919558 -0.230473 0
M  V30 20250 H 1942.39 -3.21907 -1.41665 0
M  V30 20251 H 1942.26 -2.36071 -2.94195 0
M  V30 20252 H 1944.65 -1.4386 -2.57659 0
M  V30 20253 H 1944.73 -2.33194 -1.0514 0
M  V30 20254 H 1944.37 -4.51072 -2.33445 0
M  V30 20255 H 1944.3 -3.58651 -3.85587 0
M  V30 20256 H 1946.8 -2.85455 -2.47637 0
M  V30 20257 H 1947.11 -6.22812 -4.57521 0
M  V30 20258 H 1945.45 -5.597 -4.12021 0
M  V30 20259 H 1948.64 -3.59053 -3.0033 0
M  V30 20260 H 1948.82 -5.12877 -3.96057 0
M  V30 20261 N 1942.22 1.12672 -1.10194 0
M  V30 20262 C 1943.45 1.87955 -0.864907 0
M  V30 20263 C 1943.87 1.79527 0.584436 0
M  V30 20264 O 1943.22 1.1674 1.40278 0
M  V30 20265 C 1943.27 3.37261 -1.30143 0
M  V30 20266 O 1943 3.45483 -2.69394 0
M  V30 20267 C 1944.5 4.29488 -1.09793 0
M  V30 20268 H 1941.72 0.594777 -0.310614 0
M  V30 20269 H 1944.26 1.42583 -1.46596 0
M  V30 20270 H 1942.42 3.80187 -0.744103 0
M  V30 20271 H 1942.83 4.38357 -2.87999 0
M  V30 20272 H 1944.3 5.32546 -1.45254 0
M  V30 20273 H 1944.78 4.39185 -0.0363527 0
M  V30 20274 H 1945.39 3.92341 -1.6416 0
M  V30 20275 N 1943.7 0.89031 1.30043 0
M  V30 20276 C 1944.95 0.512208 1.96225 0
M  V30 20277 C 1945.28 -0.937287 1.70084 0
M  V30 20278 O 1944.56 -1.66309 1.00854 0
M  V30 20279 C 1944.84 0.794043 3.51236 0
M  V30 20280 C 1944.69 2.29456 3.86872 0
M  V30 20281 C 1946.01 0.274152 4.39245 0
M  V30 20282 H 1943.13 0.187568 0.712732 0
M  V30 20283 H 1945.77 1.11528 1.53823 0
M  V30 20284 H 1943.92 0.28077 3.87484 0
M  V30 20285 H 1945.59 2.87665 3.6062 0
M  V30 20286 H 1943.84 2.75907 3.34751 0
M  V30 20287 H 1944.51 2.44235 4.95029 0
M  V30 20288 H 1946.98 0.713535 4.09936 0
M  V30 20289 H 1945.86 0.500633 5.46612 0
M  V30 20290 H 1946.12 -0.824812 4.34338 0
M  V30 20291 N 1945.18 -1.43489 0.651812 0
M  V30 20292 C 1946.43 -2.01431 0.164307 0
M  V30 20293 C 1946.75 -1.51674 -1.22556 0
M  V30 20294 O 1946.02 -0.728791 -1.81839 0
M  V30 20295 H 1944.6 -0.744764 0.0577525 0
M  V30 20296 H 1947.26 -1.75718 0.843164 0
M  V30 20297 H 1946.36 -3.1175 0.147848 0
M  V30 20298 N 1946.66 -0.393643 -1.52605 0
M  V30 20299 C 1947.89 0.1871 -2.06052 0
M  V30 20300 C 1948.3 1.40154 -1.26501 0
M  V30 20301 O 1947.66 1.798 -0.31279 0
M  V30 20302 C 1947.71 0.552918 -3.57246 0
M  V30 20303 O 1947.43 -0.613274 -4.33786 0
M  V30 20304 C 1948.93 1.18906 -4.27055 0
M  V30 20305 H 1946.15 0.0272042 -0.670448 0
M  V30 20306 H 1948.69 -0.560126 -1.9668 0
M  V30 20307 H 1946.85 1.25004 -3.66678 0
M  V30 20308 H 1947.26 -0.311611 -5.23574 0
M  V30 20309 H 1948.74 1.39535 -5.34073 0
M  V30 20310 H 1949.21 2.15768 -3.82545 0
M  V30 20311 H 1949.82 0.532579 -4.21952 0
M  V30 20312 N 1948.14 1.57115 -0.123593 0
M  V30 20313 C 1949.55 1.5789 0.232975 0
M  V30 20314 C 1949.75 1.13659 1.66385 0
M  V30 20315 O 1948.81 0.826084 2.38604 0
M  V30 20316 C 1950.12 3.007 -0.0045178 0
M  V30 20317 C 1951.67 3.12941 0.0610235 0
M  V30 20318 C 1952.14 4.57758 -0.148835 0
M  V30 20319 N 1953.63 4.63103 -0.0949606 0
M  V30 20320 C 1954.37 5.7293 -0.232177 0
M  V30 20321 N 1953.87 6.9149 -0.42582 0
M  V30 20322 N 1955.66 5.61839 -0.171428 0
M  V30 20323 H 1947.81 1.84166 -1.05814 0
M  V30 20324 H 1950.07 0.851342 -0.417038 0
M  V30 20325 H 1949.78 3.37364 -0.993901 0
M  V30 20326 H 1949.65 3.70161 0.725327 0
M  V30 20327 H 1952.04 2.76131 1.04094 0
M  V30 20328 H 1952.12 2.46014 -0.700776 0
M  V30 20329 H 1951.76 4.95267 -1.12574 0
M  V30 20330 H 1951.69 5.22782 0.633006 0
M  V30 20331 H 1954.19 3.77866 0.0510058 0
M  V30 20332 H 1954.5 7.7104 -0.521263 0
M  V30 20333 H 1952.84 6.93464 -0.461851 0
M  V30 20334 H 1956.03 4.68095 -0.0210758 0
M  V30 20335 H 1956.21 6.47387 -0.281807 0
M  V30 20336 N 1949.61 -0.150187 1.56883 0
M  V30 20337 C 1950.54 -1.18735 2.01058 0
M  V30 20338 C 1951.52 -1.44983 0.889606 0
M  V30 20339 O 1952.71 -1.55958 1.15719 0
M  V30 20340 C 1949.84 -2.52129 2.38848 0
M  V30 20341 C 1948.79 -2.40408 3.54101 0
M  V30 20342 C 1948.12 -3.78484 3.77695 0
M  V30 20343 C 1949.42 -1.89087 4.86871 0
M  V30 20344 H 1951.11 -0.820044 2.87951 0
M  V30 20345 H 1948.66 -0.393025 1.38533 0
M  V30 20346 H 1950.61 -3.24908 2.68352 0
M  V30 20347 H 1949.34 -2.90688 1.48889 0
M  V30 20348 H 1948 -1.70082 3.24758 0
M  V30 20349 H 1947.64 -4.14474 2.84992 0
M  V30 20350 H 1947.34 -3.71504 4.55256 0
M  V30 20351 H 1948.87 -4.52816 4.09621 0
M  V30 20352 H 1950.28 -2.51656 5.15114 0
M  V30 20353 H 1948.68 -1.93005 5.68216 0
M  V30 20354 H 1949.75 -0.846357 4.77457 0
M  V30 20355 N 1951.09 -1.51916 -0.419434 0
M  V30 20356 C 1952.32 -1.69592 -1.19387 0
M  V30 20357 C 1952.74 -0.400225 -1.83793 0
M  V30 20358 O 1952.1 0.641368 -1.69576 0
M  V30 20359 C 1952.15 -2.8256 -2.24036 0
M  V30 20360 O 1951.25 -2.4741 -3.29942 0
M  V30 20361 H 1950.59 -0.564898 -0.348978 0
M  V30 20362 H 1953.12 -1.9857 -0.493064 0
M  V30 20363 H 1953.13 -3.07171 -2.68533 0
M  V30 20364 H 1951.81 -3.76572 -1.7654 0
M  V30 20365 H 1950.39 -2.33435 -2.90796 0
M  V30 20366 N 1952.57 0.676023 -1.42365 0
M  V30 20367 C 1953.82 1.43324 -1.42487 0
M  V30 20368 C 1954.14 1.94955 -0.0418589 0
M  V30 20369 O 1953.41 1.72984 0.919418 0
M  V30 20370 H 1951.99 0.531857 -0.524535 0
M  V30 20371 H 1954.65 0.798867 -1.77775 0
M  V30 20372 H 1953.75 2.28686 -2.12389 0
M  V30 20373 N 1954.05 1.28517 0.912209 0
M  V30 20374 C 1955.01 1.12594 1.99637 0
M  V30 20375 C 1956.01 0.0651449 1.60668 0
M  V30 20376 O 1957.2 0.311054 1.714 0
M  V30 20377 C 1954.33 0.719053 3.3323 0
M  V30 20378 H 1955.53 2.08884 2.15192 0
M  V30 20379 H 1953.08 1.11525 1.09508 0
M  V30 20380 H 1953.81 -0.244536 3.23377 0
M  V30 20381 H 1953.6 1.48536 3.62876 0
M  V30 20382 H 1955.09 0.630346 4.12815 0
M  V30 20383 N 1955.53 -1.12086 1.1079 0
M  V30 20384 C 1956.78 -1.83036 0.847387 0
M  V30 20385 C 1957.09 -1.85209 -0.629051 0
M  V30 20386 O 1958.29 -2.52191 -1.00559 0
M  V30 20387 C 1956.75 -3.28682 1.46615 0
M  V30 20388 C 1956.36 -3.34858 2.97614 0
M  V30 20389 C 1958.1 -4.04578 1.28519 0
M  V30 20390 C 1956.01 -4.7486 3.52508 0
M  V30 20391 H 1954.94 -0.685806 0.313347 0
M  V30 20392 H 1957.59 -1.2618 1.33233 0
M  V30 20393 H 1955.97 -3.85429 0.908883 0
M  V30 20394 H 1957.15 -2.8803 3.59688 0
M  V30 20395 H 1955.46 -2.72438 3.14907 0
M  V30 20396 H 1958.06 -5.07962 1.6697 0
M  V30 20397 H 1958.4 -4.1568 0.227105 0
M  V30 20398 H 1958.93 -3.542 1.81073 0
M  V30 20399 H 1955.67 -4.68954 4.57999 0
M  V30 20400 H 1955.19 -5.22125 2.95203 0
M  V30 20401 H 1956.87 -5.43807 3.50546 0
M  V30 20402 N 1957 -0.897194 -1.29569 0
M  V30 20403 C 1957.97 -0.377906 -2.26063 0
M  V30 20404 C 1958.97 0.486495 -1.53264 0
M  V30 20405 O 1960.16 0.291905 -1.71737 0
M  V30 20406 C 1957.29 0.460046 -3.37782 0
M  V30 20407 H 1958.48 -1.23009 -2.73512 0
M  V30 20408 H 1956.04 -0.675114 -1.40968 0
M  V30 20409 H 1956.77 1.33232 -2.95668 0
M  V30 20410 H 1956.56 -0.159293 -3.91776 0
M  V30 20411 H 1958.05 0.814753 -4.09575 0
M  V30 20412 N 1958.48 1.43142 -0.659413 0
M  V30 20413 C 1959.43 2.30783 0.0284037 0
M  V30 20414 C 1960.4 1.451 0.808407 0
M  V30 20415 O 1961.58 1.73959 0.783764 0
M  V30 20416 C 1958.72 3.30758 0.984529 0
M  V30 20417 C 1957.84 4.31537 0.199975 0
M  V30 20418 C 1956.97 5.18592 1.15046 0
M  V30 20419 C 1956.01 6.1106 0.356695 0
M  V30 20420 N 1955.15 6.90718 1.25909 0
M  V30 20421 H 1959.99 2.89051 -0.724821 0
M  V30 20422 H 1957.53 1.42392 -0.369192 0
M  V30 20423 H 1959.48 3.87236 1.55254 0
M  V30 20424 H 1958.11 2.74125 1.70456 0
M  V30 20425 H 1957.17 3.77303 -0.484425 0
M  V30 20426 H 1958.48 4.97054 -0.416974 0
M  V30 20427 H 1957.63 5.79727 1.7889 0
M  V30 20428 H 1956.37 4.53215 1.80131 0
M  V30 20429 H 1955.38 5.49008 -0.295063 0
M  V30 20430 H 1956.6 6.78481 -0.28984 0
M  V30 20431 H 1954.55 6.27984 1.89662 0
M  V30 20432 H 1954.46 7.52782 0.69685 0
M  V30 20433 H 1955.73 7.56353 1.88549 0
M  V30 20434 N 1959.96 0.40173 1.52394 0
M  V30 20435 C 1960.91 -0.427385 2.26808 0
M  V30 20436 C 1961.88 -1.04733 1.28919 0
M  V30 20437 O 1963.06 -1.073 1.5777 0
M  V30 20438 C 1960.2 -1.54211 3.08728 0
M  V30 20439 C 1959.32 -0.943809 4.21564 0
M  V30 20440 C 1958.45 -2.03061 4.90856 0
M  V30 20441 C 1957.49 -1.40886 5.95666 0
M  V30 20442 N 1956.63 -2.4355 6.58504 0
M  V30 20443 H 1961.47 0.21363 2.97233 0
M  V30 20444 H 1959 0.117187 1.46632 0
M  V30 20445 H 1960.96 -2.1993 3.54523 0
M  V30 20446 H 1959.59 -2.15326 2.40488 0
M  V30 20447 H 1958.64 -0.175875 3.79993 0
M  V30 20448 H 1959.96 -0.449559 4.9677 0
M  V30 20449 H 1959.11 -2.76523 5.40018 0
M  V30 20450 H 1957.85 -2.5585 4.15201 0
M  V30 20451 H 1956.85 -0.659546 5.4583 0
M  V30 20452 H 1958.08 -0.888766 6.73259 0
M  V30 20453 H 1956.02 -2.95484 5.85683 0
M  V30 20454 H 1955.94 -1.98916 7.29362 0
M  V30 20455 H 1957.21 -3.16604 7.12308 0
M  V30 20456 N 1961.44 -1.57047 0.131923 0
M  V30 20457 C 1962.67 -1.99699 -0.52952 0
M  V30 20458 C 1963.08 -1.01077 -1.59938 0
M  V30 20459 O 1962.42 0.00256808 -1.837 0
M  V30 20460 C 1962.48 -3.38777 -1.20293 0
M  V30 20461 C 1962.15 -4.56145 -0.279483 0
M  V30 20462 C 1963.14 -5.17614 0.486981 0
M  V30 20463 C 1960.83 -5.01953 -0.186784 0
M  V30 20464 C 1962.82 -6.2329 1.33375 0
M  V30 20465 C 1960.51 -6.07486 0.6636 0
M  V30 20466 C 1961.51 -6.68023 1.42248 0
M  V30 20467 O 1961.19 -7.71516 2.25873 0
M  V30 20468 H 1960.93 -0.660552 -0.143691 0
M  V30 20469 H 1963.48 -2.0423 0.218962 0
M  V30 20470 H 1961.71 -3.31039 -1.99875 0
M  V30 20471 H 1963.4 -3.65634 -1.76258 0
M  V30 20472 H 1964.17 -4.83132 0.425311 0
M  V30 20473 H 1960.04 -4.54572 -0.76718 0
M  V30 20474 H 1963.59 -6.7047 1.92655 0
M  V30 20475 H 1959.49 -6.41397 0.726617 0
M  V30 20476 H 1960.25 -7.8867 2.18955 0
M  V30 20477 N 1962.92 0.141865 -1.5696 0
M  V30 20478 C 1964.16 0.851923 -1.83267 0
M  V30 20479 C 1964.49 1.81473 -0.713611 0
M  V30 20480 O 1963.76 1.94109 0.264326 0
M  V30 20481 H 1962.34 0.317594 -0.676124 0
M  V30 20482 H 1965 0.134643 -1.94434 0
M  V30 20483 H 1964.09 1.41106 -2.7838 0
M  V30 20484 N 1964.39 1.52136 0.411372 0
M  V30 20485 C 1965.34 1.75927 1.52159 0
M  V30 20486 C 1966.34 0.626317 1.57396 0
M  V30 20487 O 1967.54 0.808311 1.6083 0
M  V30 20488 H 1963.92 0.5563 0.505998 0
M  V30 20489 H 1965.89 2.68942 1.29278 0
M  V30 20490 C 1964.64 1.92496 2.89552 0
M  V30 20491 H 1963.96 2.79093 2.86264 0
M  V30 20492 H 1965.4 2.13143 3.66532 0
M  V30 20493 C 1963.86 0.691473 3.29728 0
M  V30 20494 O 1964.39 -0.141712 4.0145 0
M  V30 20495 N 1962.6 0.528019 2.85763 0
M  V30 20496 H 1962.14 1.20713 2.27565 0
M  V30 20497 H 1962.1 -0.295994 3.13004 0
M  V30 20498 N 1965.87 -0.668464 1.42721 0
M  V30 20499 C 1966.82 -1.80311 1.46938 0
M  V30 20500 C 1967.82 -1.65861 0.344463 0
M  V30 20501 O 1969.02 -1.72392 0.517768 0
M  V30 20502 H 1965.4 -0.59464 0.460333 0
M  V30 20503 H 1967.37 -1.73872 2.4251 0
M  V30 20504 C 1966.12 -3.18498 1.3948 0
M  V30 20505 H 1965.44 -3.30246 2.25338 0
M  V30 20506 H 1966.88 -3.9789 1.46492 0
M  V30 20507 C 1965.34 -3.36719 0.110386 0
M  V30 20508 O 1965.87 -3.92939 -0.834354 0
M  V30 20509 N 1964.07 -2.90589 0.0254882 0
M  V30 20510 H 1963.62 -2.45023 0.795077 0
M  V30 20511 H 1963.58 -3.03158 -0.833236 0
M  V30 20512 N 1967.35 -1.28999 -0.905381 0
M  V30 20513 C 1968.6 -1.1641 -1.65207 0
M  V30 20514 C 1968.92 0.285952 -1.92892 0
M  V30 20515 O 1968.19 1.19672 -1.55098 0
M  V30 20516 H 1966.77 -0.427826 -0.612351 0
M  V30 20517 H 1969.43 -1.61845 -1.08592 0
M  V30 20518 H 1968.53 -1.70993 -2.6109 0
M  V30 20519 N 1968.83 1.11497 -1.11383 0
M  V30 20520 C 1970.08 1.83222 -0.862314 0
M  V30 20521 C 1970.4 1.84619 0.612047 0
M  V30 20522 O 1969.66 1.29435 1.46782 0
M  V30 20523 C 1969.96 3.30169 -1.36832 0
M  V30 20524 C 1969.62 3.48933 -2.85581 0
M  V30 20525 C 1968.29 3.53762 -3.26199 0
M  V30 20526 C 1970.64 3.55237 -3.81387 0
M  V30 20527 C 1967.97 3.6245 -4.61353 0
M  V30 20528 C 1970.32 3.65455 -5.16358 0
M  V30 20529 C 1968.98 3.68544 -5.56535 0
M  V30 20530 H 1968.25 0.670458 -0.315543 0
M  V30 20531 H 1970.9 1.31499 -1.39213 0
M  V30 20532 H 1969.2 3.84383 -0.75873 0
M  V30 20533 H 1970.9 3.84154 -1.15006 0
M  V30 20534 H 1967.49 3.45844 -2.53159 0
M  V30 20535 H 1971.68 3.50767 -3.51107 0
M  V30 20536 H 1966.93 3.63118 -4.9189 0
M  V30 20537 H 1971.11 3.69276 -5.9043 0
M  V30 20538 H 1968.73 3.75029 -6.61255 0
M  V30 20539 N 1970.31 0.904053 1.29092 0
M  V30 20540 C 1971.22 0.389825 2.31339 0
M  V30 20541 C 1972.23 -0.517628 1.66122 0
M  V30 20542 O 1973.41 -0.406158 1.97262 0
M  V30 20543 C 1970.47 -0.370468 3.44715 0
M  V30 20544 C 1969.54 0.569032 4.25512 0
M  V30 20545 C 1968.77 -0.155071 5.33475 0
M  V30 20546 O 1968.99 -1.37834 5.53496 0
M  V30 20547 O 1967.93 0.504642 5.99781 0
M  V30 20548 H 1971.75 1.2382 2.77313 0
M  V30 20549 H 1969.34 0.668528 1.33608 0
M  V30 20550 H 1971.22 -0.800237 4.13732 0
M  V30 20551 H 1969.89 -1.19484 3.00841 0
M  V30 20552 H 1968.8 1.048 3.59121 0
M  V30 20553 H 1970.13 1.35994 4.7304 0
M  V30 20554 N 1971.79 -1.4279 0.666995 0
M  V30 20555 C 1973.03 -2.01245 0.185662 0
M  V30 20556 C 1973.35 -1.52966 -1.2094 0
M  V30 20557 O 1972.62 -0.748036 -1.81056 0
M  V30 20558 H 1971.2 -0.74411 0.0656484 0
M  V30 20559 H 1973.87 -1.74814 0.861754 0
M  V30 20560 H 1972.96 -3.11575 0.180905 0
M  V30 20561 N 1973.26 -0.409806 -1.52179 0
M  V30 20562 C 1974.21 0.430025 -2.2859 0
M  V30 20563 C 1975.21 1.04523 -1.33309 0
M  V30 20564 O 1976.41 0.98335 -1.50765 0
M  V30 20565 H 1972.79 0.157459 -0.73533 0
M  V30 20566 H 1974.76 -0.235647 -2.97468 0
M  V30 20567 C 1973.51 1.53409 -3.12027 0
M  V30 20568 H 1972.83 1.07004 -3.85214 0
M  V30 20569 H 1974.27 2.09553 -3.68597 0
M  V30 20570 C 1972.73 2.50183 -2.25633 0
M  V30 20571 O 1973.26 3.54083 -1.89705 0
M  V30 20572 N 1971.46 2.20409 -1.8939 0
M  V30 20573 H 1971.01 1.35948 -2.18806 0
M  V30 20574 H 1970.97 2.85404 -1.31878 0
M  V30 20575 N 1974.74 1.56975 -0.14025 0
M  V30 20576 C 1975.99 1.95081 0.512469 0
M  V30 20577 C 1976.3 1.02722 1.66456 0
M  V30 20578 O 1977.51 1.3038 2.38146 0
M  V30 20579 C 1975.97 3.46775 0.963057 0
M  V30 20580 C 1975.57 4.47708 -0.161733 0
M  V30 20581 C 1977.32 3.93761 1.58595 0
M  V30 20582 C 1975.22 5.90604 0.306746 0
M  V30 20583 H 1974.15 0.72829 0.195216 0
M  V30 20584 H 1976.81 1.82134 -0.223514 0
M  V30 20585 H 1975.19 3.55032 1.7541 0
M  V30 20586 H 1976.36 4.51141 -0.938529 0
M  V30 20587 H 1974.68 4.10599 -0.692608 0
M  V30 20588 H 1977.27 4.97954 1.94796 0
M  V30 20589 H 1977.62 3.34931 2.47238 0
M  V30 20590 H 1978.15 3.88394 0.859928 0
M  V30 20591 H 1974.89 6.53238 -0.544152 0
M  V30 20592 H 1974.41 5.90546 1.04956 0
M  V30 20593 H 1976.09 6.42509 0.760989 0
M  V30 20594 N 1976.22 -0.133539 1.57033 0
M  V30 20595 C 1977.45 -0.858432 1.88251 0
M  V30 20596 C 1977.86 -1.74119 0.729935 0
M  V30 20597 O 1977.22 -1.8002 -0.29983 0
M  V30 20598 C 1977.27 -1.70397 3.18821 0
M  V30 20599 O 1976.99 -0.856775 4.29641 0
M  V30 20600 C 1978.49 -2.53529 3.63646 0
M  V30 20601 H 1975.71 -0.247538 0.623671 0
M  V30 20602 H 1978.26 -0.122289 2.04134 0
M  V30 20603 H 1976.41 -2.39303 3.04652 0
M  V30 20604 H 1976.83 -1.43857 5.04386 0
M  V30 20605 H 1978.3 -3.0841 4.57807 0
M  V30 20606 H 1978.78 -3.30204 2.89589 0
M  V30 20607 H 1979.38 -1.89891 3.80554 0
M  V30 20608 N 1977.7 -1.52352 -0.403298 0
M  V30 20609 C 1978.63 -1.79074 -1.49849 0
M  V30 20610 C 1979.61 -0.642006 -1.57519 0
M  V30 20611 O 1980.79 -0.888182 -1.72699 0
M  V30 20612 C 1977.92 -1.9467 -2.87612 0
M  V30 20613 C 1976.88 -3.10295 -2.9479 0
M  V30 20614 C 1976.2 -3.11122 -4.34864 0
M  V30 20615 C 1977.5 -4.49643 -2.65741 0
M  V30 20616 H 1979.2 -2.70783 -1.27737 0
M  V30 20617 H 1976.74 -1.30298 -0.613064 0
M  V30 20618 H 1978.7 -2.11947 -3.64221 0
M  V30 20619 H 1977.42 -0.996377 -3.1103 0
M  V30 20620 H 1976.08 -2.92778 -2.20627 0
M  V30 20621 H 1975.73 -2.13801 -4.553 0
M  V30 20622 H 1975.43 -3.88786 -4.4059 0
M  V30 20623 H 1976.95 -3.30536 -5.13399 0
M  V30 20624 H 1978.37 -4.67335 -3.3207 0
M  V30 20625 H 1976.76 -5.29268 -2.82835 0
M  V30 20626 H 1977.83 -4.57339 -1.61149 0
M  V30 20627 N 1979.18 0.660885 -1.43074 0
M  V30 20628 C 1980.12 1.79529 -1.47892 0
M  V30 20629 C 1981.12 1.65676 -0.353254 0
M  V30 20630 O 1982.32 1.72115 -0.526903 0
M  V30 20631 H 1978.7 0.592191 -0.46348 0
M  V30 20632 H 1980.67 1.72584 -2.43428 0
M  V30 20633 C 1979.42 3.17753 -1.41167 0
M  V30 20634 H 1978.74 3.29047 -2.27087 0
M  V30 20635 H 1980.18 3.97107 -1.486 0
M  V30 20636 C 1978.64 3.36656 -0.128241 0
M  V30 20637 O 1979.17 3.93376 0.813504 0
M  V30 20638 N 1977.38 2.90571 -0.0408985 0
M  V30 20639 H 1976.92 2.44598 -0.808059 0
M  V30 20640 H 1976.88 3.03595 0.817147 0
M  V30 20641 N 1980.65 1.29477 0.898527 0
M  V30 20642 C 1981.9 1.17516 1.64913 0
M  V30 20643 C 1982.23 -0.273086 1.92573 0
M  V30 20644 O 1981.48 -1.21353 1.53531 0
M  V30 20645 C 1981.78 1.93505 3.00484 0
M  V30 20646 C 1981.45 3.43216 2.92427 0
M  V30 20647 C 1980.11 3.84044 2.89937 0
M  V30 20648 C 1982.46 4.38611 2.81548 0
M  V30 20649 C 1979.79 5.18582 2.74389 0
M  V30 20650 C 1982.14 5.73241 2.67539 0
M  V30 20651 C 1980.81 6.13326 2.63416 0
M  V30 20652 H 1980.08 0.430023 0.603458 0
M  V30 20653 H 1982.72 1.60427 1.04572 0
M  V30 20654 H 1981.03 1.43189 3.64698 0
M  V30 20655 H 1982.73 1.81654 3.57495 0
M  V30 20656 H 1979.32 3.10763 2.95168 0
M  V30 20657 H 1983.5 4.0802 2.82548 0
M  V30 20658 H 1978.76 5.48748 2.69602 0
M  V30 20659 H 1982.93 6.46808 2.58093 0
M  V30 20660 H 1980.56 7.17523 2.51126 0
M  V30 20661 N 1982.13 -1.10905 1.11972 0
M  V30 20662 C 1983.06 -2.16893 0.740943 0
M  V30 20663 C 1984.08 -1.61166 -0.230099 0
M  V30 20664 O 1985.27 -1.78496 -0.0121612 0
M  V30 20665 C 1982.37 -3.38817 0.0751853 0
M  V30 20666 C 1981.54 -4.23998 1.07446 0
M  V30 20667 C 1980.6 -5.2438 0.437225 0
M  V30 20668 O 1979.62 -5.58611 1.09279 0
M  V30 20669 N 1980.83 -5.74996 -0.797475 0
M  V30 20670 H 1983.59 -2.49998 1.65291 0
M  V30 20671 H 1981.15 -1.26479 1.01068 0
M  V30 20672 H 1983.14 -4.03069 -0.362985 0
M  V30 20673 H 1981.71 -3.03728 -0.739454 0
M  V30 20674 H 1980.93 -3.56116 1.69041 0
M  V30 20675 H 1982.22 -4.77745 1.75034 0
M  V30 20676 H 1981.62 -5.49376 -1.34915 0
M  V30 20677 H 1980.18 -6.41057 -1.17854 0
M  V30 20678 N 1983.61 -0.910886 -1.2861 0
M  V30 20679 C 1984.86 -0.541485 -1.94711 0
M  V30 20680 C 1985.18 0.917302 -1.72077 0
M  V30 20681 O 1984.45 1.64818 -1.05885 0
M  V30 20682 H 1983.03 -0.197263 -0.720483 0
M  V30 20683 H 1985.69 -1.15962 -1.56649 0
M  V30 20684 H 1984.79 -0.73351 -3.03358 0
M  V30 20685 N 1985.09 1.42434 -0.674558 0
M  V30 20686 C 1986.05 2.29199 -0.00527063 0
M  V30 20687 C 1987.05 1.43313 0.729245 0
M  V30 20688 O 1988.24 1.64704 0.567284 0
M  V30 20689 C 1985.37 3.25805 1.0032 0
M  V30 20690 H 1986.57 2.89874 -0.768954 0
M  V30 20691 H 1984.12 1.5007 -0.436898 0
M  V30 20692 H 1984.85 2.70068 1.79538 0
M  V30 20693 H 1984.64 3.89152 0.479902 0
M  V30 20694 H 1986.13 3.90875 1.46993 0
M  V30 20695 N 1986.57 0.417871 1.51959 0
M  V30 20696 C 1987.53 -0.391479 2.25832 0
M  V30 20697 C 1988.53 -0.96627 1.2853 0
M  V30 20698 O 1989.72 -0.843774 1.52401 0
M  V30 20699 C 1986.85 -1.55192 3.03526 0
M  V30 20700 H 1988.04 0.255672 2.98808 0
M  V30 20701 H 1985.6 0.170583 1.55366 0
M  V30 20702 H 1986.33 -2.23569 2.3492 0
M  V30 20703 H 1986.12 -1.14616 3.74974 0
M  V30 20704 H 1987.61 -2.12422 3.59537 0
M  V30 20705 N 1988.04 -1.56898 0.148573 0
M  V30 20706 C 1989.29 -1.95788 -0.501154 0
M  V30 20707 C 1989.61 -1.03451 -1.65297 0
M  V30 20708 O 1988.88 -0.0963607 -1.95663 0
M  V30 20709 H 1987.46 -0.722922 -0.188129 0
M  V30 20710 H 1990.13 -1.93603 0.224439 0
M  V30 20711 H 1989.22 -2.99547 -0.876258 0
M  V30 20712 N 1989.52 0.125209 -1.57102 0
M  V30 20713 C 1990.45 1.17944 -1.96524 0
M  V30 20714 C 1991.47 1.37997 -0.863757 0
M  V30 20715 O 1992.66 1.37182 -1.14208 0
M  V30 20716 C 1989.76 2.54056 -2.24296 0
M  V30 20717 C 1988.93 2.5469 -3.55601 0
M  V30 20718 C 1987.99 3.72501 -3.71658 0
M  V30 20719 O 1987.01 3.56372 -4.43833 0
M  V30 20720 N 1988.22 4.90822 -3.09958 0
M  V30 20721 H 1990.98 0.844157 -2.87566 0
M  V30 20722 H 1988.54 0.314552 -1.58815 0
M  V30 20723 H 1990.53 3.31418 -2.32259 0
M  V30 20724 H 1989.1 2.79791 -1.39412 0
M  V30 20725 H 1988.32 1.63087 -3.58882 0
M  V30 20726 H 1989.61 2.52164 -4.41917 0
M  V30 20727 H 1989.01 5.0683 -2.51276 0
M  V30 20728 H 1987.57 5.65882 -3.23451 0
M  V30 20729 N 1991 1.52564 0.395213 0
M  V30 20730 C 1992.23 1.7147 1.16674 0
M  V30 20731 C 1992.65 0.429414 1.83133 0
M  V30 20732 O 1992.01 -0.614309 1.70575 0
M  V30 20733 C 1992.06 2.86088 2.19513 0
M  V30 20734 O 1991.16 2.52628 3.25964 0
M  V30 20735 H 1990.5 0.570379 0.339947 0
M  V30 20736 H 1993.03 1.99329 0.461411 0
M  V30 20737 H 1993.04 3.11404 2.63612 0
M  V30 20738 H 1991.72 3.79333 1.70527 0
M  V30 20739 H 1990.29 2.38032 2.87046 0
M  V30 20740 N 1992.48 -0.653289 1.43422 0
M  V30 20741 C 1993.73 -1.41319 1.45036 0
M  V30 20742 C 1994.05 -1.94357 0.074626 0
M  V30 20743 O 1993.31 -1.72707 -0.920363 0
M  V30 20744 C 1993.61 -2.6117 2.43978 0
M  V30 20745 C 1993.27 -2.2655 3.89854 0
M  V30 20746 C 1991.94 -2.16821 4.29584 0
M  V30 20747 C 1994.29 -1.98838 4.81781 0
M  V30 20748 C 1991.62 -1.77535 5.59194 0
M  V30 20749 C 1993.97 -1.61051 6.11756 0
M  V30 20750 C 1992.63 -1.49847 6.50463 0
M  V30 20751 H 1991.9 -0.517121 0.530723 0
M  V30 20752 H 1994.55 -0.742946 1.76501 0
M  V30 20753 H 1992.85 -3.33326 2.05916 0
M  V30 20754 H 1994.55 -3.19381 2.42481 0
M  V30 20755 H 1991.14 -2.35033 3.58409 0
M  V30 20756 H 1995.32 -2.05276 4.51858 0
M  V30 20757 H 1990.58 -1.67447 5.88023 0
M  V30 20758 H 1994.75 -1.38639 6.8246 0
M  V30 20759 H 1992.38 -1.19176 7.508 0
M  V30 20760 N 1993.96 -1.29952 -0.891648 0
M  V30 20761 C 1995.2 -1.18155 -1.63963 0
M  V30 20762 C 1995.53 0.265477 -1.93184 0
M  V30 20763 O 1994.8 1.1802 -1.56359 0
M  V30 20764 H 1993.38 -0.434297 -0.607779 0
M  V30 20765 H 1996.04 -1.62988 -1.06869 0
M  V30 20766 H 1995.13 -1.73753 -2.59261 0
M  V30 20767 N 1995.44 1.1031 -1.12559 0
M  V30 20768 C 1996.4 2.14869 -0.79773 0
M  V30 20769 C 1997.4 1.59691 0.188521 0
M  V30 20770 O 1998.59 1.7416 -0.037433 0
M  V30 20771 C 1995.72 3.40394 -0.185665 0
M  V30 20772 H 1996.91 2.45384 -1.72415 0
M  V30 20773 H 1994.47 1.25694 -0.929011 0
M  V30 20774 H 1995.2 3.15499 0.750409 0
M  V30 20775 H 1994.99 3.81731 -0.895771 0
M  V30 20776 H 1996.48 4.17591 0.0271848 0
M  V30 20777 N 1996.91 0.917694 1.28125 0
M  V30 20778 C 1998.16 0.552896 1.94806 0
M  V30 20779 C 1998.49 -0.904113 1.72209 0
M  V30 20780 O 1997.74 -1.65876 1.03844 0
M  V30 20781 C 1998.04 0.813214 3.48025 0
M  V30 20782 C 1997.71 2.25039 3.90728 0
M  V30 20783 C 1996.37 2.64331 4.02098 0
M  V30 20784 C 1998.72 3.18545 4.12527 0
M  V30 20785 C 1996.05 3.96274 4.32647 0
M  V30 20786 C 1998.4 4.50058 4.44557 0
M  V30 20787 C 1997.07 4.89198 4.54138 0
M  V30 20788 H 1996.34 0.202319 0.712845 0
M  V30 20789 H 1998.98 1.15976 1.52387 0
M  V30 20790 H 1997.29 0.123579 3.91605 0
M  V30 20791 H 1998.99 0.510076 3.97743 0
M  V30 20792 H 1995.58 1.93551 3.82408 0
M  V30 20793 H 1999.76 2.89395 4.03192 0
M  V30 20794 H 1995.02 4.26295 4.38272 0
M  V30 20795 H 1999.19 5.22523 4.60372 0
M  V30 20796 H 1996.82 5.91469 4.77565 0
M  V30 20797 N 1998.39 -1.42074 0.682102 0
M  V30 20798 C 1999.34 -2.326 -0.00324978 0
M  V30 20799 C 2000.33 -1.50226 -0.782851 0
M  V30 20800 O 2001.54 -1.6625 -0.689991 0
M  V30 20801 H 1997.91 -0.751738 -0.0198484 0
M  V30 20802 H 1999.89 -2.88093 0.777513 0
M  V30 20803 C 1998.63 -3.3488 -0.935455 0
M  V30 20804 H 1997.96 -3.98309 -0.344986 0
M  V30 20805 H 1999.4 -4.00791 -1.38355 0
M  V30 20806 C 1997.86 -2.67711 -2.0453 0
M  V30 20807 O 1998.39 -2.5146 -3.13258 0
M  V30 20808 N 1996.59 -2.2662 -1.81912 0
M  V30 20809 H 1996.14 -2.40037 -0.934876 0
M  V30 20810 H 1996.1 -1.82011 -2.56358 0
M  V30 20811 N 1999.87 -0.425924 -1.51735 0
M  V30 20812 C 2000.8 0.382011 -2.30354 0
M  V30 20813 C 2001.78 1.03124 -1.35276 0
M  V30 20814 O 2002.97 1.03705 -1.64191 0
M  V30 20815 C 2000.1 1.48978 -3.13724 0
M  V30 20816 C 1999.05 0.964659 -4.16987 0
M  V30 20817 C 1998.38 2.1673 -4.88807 0
M  V30 20818 C 1999.68 0.00700314 -5.223 0
M  V30 20819 H 2001.37 -0.274043 -2.98143 0
M  V30 20820 H 1998.92 -0.133238 -1.43382 0
M  V30 20821 H 2000.87 2.06211 -3.67498 0
M  V30 20822 H 1999.59 2.17396 -2.43735 0
M  V30 20823 H 1998.25 0.414618 -3.64248 0
M  V30 20824 H 1997.9 2.83741 -4.15331 0
M  V30 20825 H 1997.6 1.82239 -5.58626 0
M  V30 20826 H 1999.12 2.74538 -5.454 0
M  V30 20827 H 2000.54 0.488665 -5.71214 0
M  V30 20828 H 1998.93 -0.249924 -5.99579 0
M  V30 20829 H 2000 -0.933195 -4.75836 0
M  V30 20830 N 2001.35 1.56817 -0.156891 0
M  V30 20831 C 2002.62 1.88075 0.537326 0
M  V30 20832 C 2003 1.06447 1.82297 0
M  V30 20833 O 2002.35 0.154147 2.27979 0
M  V30 20834 C 2002.56 3.39866 0.79321 0
M  V30 20835 C 2003.91 4.09298 1.12961 0
M  V30 20836 O 2004.93 3.45102 0.882235 0
M  V30 20837 O 2003.79 5.22688 1.59561 0
M  V30 20838 H 2000.89 0.779855 0.275236 0
M  V30 20839 H 2003.43 1.68585 -0.194246 0
M  V30 20840 H 2002.21 3.91127 -0.11626 0
M  V30 20841 H 2001.83 3.64919 1.57861 0
M  V30 20842 N 2002.83 -0.116876 1.57166 0
M  V30 20843 C 2004.07 -0.822659 1.84599 0
M  V30 20844 C 2004.39 -1.80315 0.742392 0
M  V30 20845 O 2003.66 -1.94505 -0.233411 0
M  V30 20846 H 2002.24 -0.306797 0.681091 0
M  V30 20847 H 2004.91 -0.103693 1.94624 0
M  V30 20848 H 2004 -1.36659 2.8059 0
M  V30 20849 N 2004.3 -1.52772 -0.387116 0
M  V30 20850 C 2005.24 -1.72436 -1.49469 0
M  V30 20851 C 2006.21 -0.572226 -1.52198 0
M  V30 20852 O 2007.4 -0.802255 -1.70576 0
M  V30 20853 C 2004.53 -1.78368 -2.87928 0
M  V30 20854 C 2003.57 -3.00138 -3.03017 0
M  V30 20855 S 2004.4 -4.6008 -2.7402 0
M  V30 20856 C 2005.56 -4.68829 -4.14668 0
M  V30 20857 H 2005.79 -2.66109 -1.32564 0
M  V30 20858 H 2003.33 -1.43088 -0.580109 0
M  V30 20859 H 2005.28 -1.8247 -3.67716 0
M  V30 20860 H 2003.95 -0.857839 -3.02159 0
M  V30 20861 H 2003.14 -3.00835 -4.04369 0
M  V30 20862 H 2002.74 -2.94036 -2.31125 0
M  V30 20863 H 2005.03 -4.4756 -5.08622 0
M  V30 20864 H 2005.98 -5.70838 -4.18986 0
M  V30 20865 H 2006.38 -3.97653 -4.00665 0
M  V30 20866 N 2005.78 0.645673 -1.43767 0
M  V30 20867 C 2007.01 1.43303 -1.49237 0
M  V30 20868 C 2007.42 1.88464 -0.11261 0
M  V30 20869 O 2006.78 1.59955 0.878664 0
M  V30 20870 C 2006.83 2.66302 -2.4447 0
M  V30 20871 O 2006.55 2.23028 -3.77081 0
M  V30 20872 C 2008.05 3.59583 -2.59259 0
M  V30 20873 H 2005.27 0.439978 -0.506617 0
M  V30 20874 H 2007.82 0.790924 -1.88586 0
M  V30 20875 H 2005.97 3.26636 -2.08296 0
M  V30 20876 H 2006.39 3.02664 -4.28363 0
M  V30 20877 H 2007.86 4.42532 -3.29953 0
M  V30 20878 H 2008.34 4.07431 -1.64001 0
M  V30 20879 H 2008.94 3.05126 -2.96274 0
M  V30 20880 N 2007.26 1.30423 0.884744 0
M  V30 20881 C 2008.19 1.19397 2.00666 0
M  V30 20882 C 2009.17 0.084568 1.6989 0
M  V30 20883 O 2010.36 0.266641 1.92361 0
M  V30 20884 C 2007.49 0.885244 3.35828 0
M  V30 20885 C 2006.44 1.9526 3.80864 0
M  V30 20886 C 2005.77 1.49687 5.13321 0
M  V30 20887 C 2007.07 3.3637 3.99566 0
M  V30 20888 H 2008.76 2.13256 2.10148 0
M  V30 20889 H 2006.31 1.02669 1.00971 0
M  V30 20890 H 2008.26 0.794764 4.13837 0
M  V30 20891 H 2006.98 -0.0890295 3.26479 0
M  V30 20892 H 2005.64 2.03272 3.05084 0
M  V30 20893 H 2005.29 0.510855 5.00399 0
M  V30 20894 H 2004.99 2.2108 5.44424 0
M  V30 20895 H 2006.51 1.42018 5.93855 0
M  V30 20896 H 2007.93 3.31115 4.68012 0
M  V30 20897 H 2006.32 4.05852 4.42046 0
M  V30 20898 H 2007.39 3.78244 3.03414 0
M  V30 20899 N 2008.74 -1.09711 1.13142 0
M  V30 20900 C 2009.69 -2.14427 0.774935 0
M  V30 20901 C 2010.67 -1.59253 -0.229633 0
M  V30 20902 O 2011.86 -1.76967 -0.0339935 0
M  V30 20903 C 2008.99 -3.42464 0.239406 0
M  V30 20904 C 2008.08 -4.04553 1.27271 0
M  V30 20905 N 2008.47 -4.41238 2.4727 0
M  V30 20906 C 2006.77 -4.31713 1.11981 0
M  V30 20907 C 2007.47 -4.90112 3.13313 0
M  V30 20908 N 2006.44 -4.87385 2.40742 0
M  V30 20909 H 2010.25 -2.40592 1.68798 0
M  V30 20910 H 2007.76 -1.26909 1.0133 0
M  V30 20911 H 2009.76 -4.16886 -0.0342127 0
M  V30 20912 H 2008.42 -3.17754 -0.667996 0
M  V30 20913 H 2009.43 -4.32694 2.84598 0
M  V30 20914 H 2006.11 -4.16624 0.270323 0
M  V30 20915 H 2007.5 -5.27985 4.1555 0
M  V30 20916 N 2010.22 -0.924476 -1.27637 0
M  V30 20917 C 2011.15 -0.438348 -2.29349 0
M  V30 20918 C 2012.13 0.499673 -1.62595 0
M  V30 20919 O 2013.31 0.405114 -1.89928 0
M  V30 20920 C 2010.44 0.312668 -3.4589 0
M  V30 20921 C 2009.4 -0.537216 -4.24615 0
M  V30 20922 C 2008.72 0.342776 -5.336 0
M  V30 20923 C 2010.02 -1.80003 -4.90302 0
M  V30 20924 H 2011.72 -1.28838 -2.70261 0
M  V30 20925 H 2009.26 -0.620964 -1.29923 0
M  V30 20926 H 2011.22 0.66367 -4.16141 0
M  V30 20927 H 2009.94 1.1967 -3.03886 0
M  V30 20928 H 2008.6 -0.870883 -3.56106 0
M  V30 20929 H 2008.25 1.22567 -4.87838 0
M  V30 20930 H 2007.95 -0.222352 -5.87179 0
M  V30 20931 H 2009.47 0.689422 -6.06695 0
M  V30 20932 H 2010.88 -1.51729 -5.52857 0
M  V30 20933 H 2009.28 -2.3084 -5.53925 0
M  V30 20934 H 2010.35 -2.52148 -4.14186 0
M  V30 20935 N 2011.69 1.41711 -0.689627 0
M  V30 20936 C 2012.63 2.29192 0.018551 0
M  V30 20937 C 2013.64 1.44471 0.750468 0
M  V30 20938 O 2014.83 1.68037 0.602159 0
M  V30 20939 C 2011.93 3.22215 1.05027 0
M  V30 20940 C 2011.1 4.35665 0.389181 0
M  V30 20941 C 2010.16 5.09304 1.3227 0
M  V30 20942 O 2009.19 5.63301 0.817347 0
M  V30 20943 N 2010.39 5.16209 2.65533 0
M  V30 20944 H 2013.15 2.90611 -0.732482 0
M  V30 20945 H 2010.71 1.52798 -0.535191 0
M  V30 20946 H 2012.71 3.68347 1.67638 0
M  V30 20947 H 2011.28 2.62145 1.7029 0
M  V30 20948 H 2010.5 3.91991 -0.416702 0
M  V30 20949 H 2011.78 5.08751 -0.070752 0
M  V30 20950 H 2011.18 4.73777 3.09115 0
M  V30 20951 H 2009.74 5.65938 3.23354 0
M  V30 20952 N 2013.17 0.433965 1.51507 0
M  V30 20953 C 2014.42 -0.133365 2.01659 0
M  V30 20954 C 2014.74 -1.43506 1.32026 0
M  V30 20955 O 2014.01 -1.90572 0.453774 0
M  V30 20956 H 2012.59 -0.0522753 0.745169 0
M  V30 20957 H 2015.25 0.575899 1.86197 0
M  V30 20958 H 2014.35 -0.311697 3.1054 0
M  V30 20959 N 2014.65 -1.56732 0.165206 0
M  V30 20960 C 2015.56 -2.2125 -0.780107 0
M  V30 20961 C 2016.58 -1.20227 -1.25784 0
M  V30 20962 O 2017.75 -1.52868 -1.31124 0
M  V30 20963 C 2014.82 -2.83579 -1.99459 0
M  V30 20964 C 2013.88 -3.99784 -1.56434 0
M  V30 20965 C 2013.11 -4.5913 -2.72094 0
M  V30 20966 O 2013.33 -4.17363 -3.88799 0
M  V30 20967 O 2012.27 -5.49101 -2.46519 0
M  V30 20968 H 2016.09 -3.02578 -0.260803 0
M  V30 20969 H 2013.68 -1.49268 -0.0627015 0
M  V30 20970 H 2015.56 -3.23123 -2.70499 0
M  V30 20971 H 2014.24 -2.05251 -2.50307 0
M  V30 20972 H 2013.14 -3.64921 -0.823629 0
M  V30 20973 H 2014.48 -4.79686 -1.10284 0
M  V30 20974 N 2016.13 0.10854 -1.57226 0
M  V30 20975 C 2017.09 1.11675 -2.00153 0
M  V30 20976 C 2018.09 1.33716 -0.89312 0
M  V30 20977 O 2019.28 1.30056 -1.15892 0
M  V30 20978 C 2016.41 2.46892 -2.35069 0
M  V30 20979 H 2017.61 0.747556 -2.90433 0
M  V30 20980 H 2015.16 0.35317 -1.52258 0
M  V30 20981 H 2015.89 2.88713 -1.47701 0
M  V30 20982 H 2015.68 2.32245 -3.15918 0
M  V30 20983 H 2017.17 3.19433 -2.68984 0
M  V30 20984 N 2017.61 1.52975 0.379009 0
M  V30 20985 C 2018.55 1.79115 1.48393 0
M  V30 20986 C 2019.55 0.659562 1.56032 0
M  V30 20987 O 2020.75 0.842243 1.59079 0
M  V30 20988 H 2017.13 0.566908 0.494084 0
M  V30 20989 H 2019.1 2.71624 1.23544 0
M  V30 20990 C 2017.85 1.98595 2.85404 0
M  V30 20991 H 2017.17 2.85102 2.8028 0
M  V30 20992 H 2018.61 2.2087 3.61929 0
M  V30 20993 C 2017.07 0.761257 3.28187 0
M  V30 20994 O 2017.6 -0.0565264 4.0166 0
M  V30 20995 N 2015.81 0.588515 2.84578 0
M  V30 20996 H 2015.35 1.25513 2.24954 0
M  V30 20997 H 2015.31 -0.229535 3.13561 0
M  V30 20998 N 2019.08 -0.63804 1.44107 0
M  V30 20999 C 2020.36 -1.39606 1.37002 0
M  V30 21000 C 2020.74 -2.11085 0.0252978 0
M  V30 21001 O 2020.09 -2.0585 -0.991871 0
M  V30 21002 C 2020.3 -2.3682 2.56353 0
M  V30 21003 C 2021.65 -3.00362 3.00113 0
M  V30 21004 O 2022.67 -2.47147 2.56509 0
M  V30 21005 O 2021.53 -3.96881 3.75696 0
M  V30 21006 H 2018.62 -0.624471 0.542186 0
M  V30 21007 H 2021.17 -0.663674 1.56184 0
M  V30 21008 H 2019.94 -1.83054 3.45842 0
M  V30 21009 H 2019.57 -3.17487 2.39349 0
M  V30 21010 N 2020.56 -1.3089 -0.877815 0
M  V30 21011 C 2021.79 -1.2289 -1.66077 0
M  V30 21012 C 2022.2 0.209505 -1.88036 0
M  V30 21013 O 2021.54 1.14931 -1.43306 0
M  V30 21014 C 2021.61 -1.89448 -3.05532 0
M  V30 21015 C 2021.27 -3.38785 -3.06715 0
M  V30 21016 C 2022.27 -4.34661 -2.85246 0
M  V30 21017 C 2019.95 -3.8035 -3.28084 0
M  V30 21018 C 2021.95 -5.70077 -2.85116 0
M  V30 21019 C 2019.63 -5.15881 -3.27583 0
M  V30 21020 C 2020.63 -6.10555 -3.06124 0
M  V30 21021 O 2020.32 -7.43609 -3.05452 0
M  V30 21022 H 2020.05 -0.426136 -0.524771 0
M  V30 21023 H 2022.6 -1.73175 -1.10452 0
M  V30 21024 H 2020.83 -1.33702 -3.62851 0
M  V30 21025 H 2022.52 -1.7547 -3.66012 0
M  V30 21026 H 2023.29 -4.03879 -2.68526 0
M  V30 21027 H 2019.17 -3.07097 -3.4382 0
M  V30 21028 H 2022.71 -6.43948 -2.68285 0
M  V30 21029 H 2018.61 -5.463 -3.4384 0
M  V30 21030 H 2019.38 -7.52686 -3.21568 0
M  V30 21031 N 2022.04 1.0911 -1.13723 0
M  V30 21032 C 2023.29 1.81621 -0.902319 0
M  V30 21033 C 2023.62 1.85646 0.570009 0
M  V30 21034 O 2022.89 1.32706 1.42195 0
M  V30 21035 C 2023.18 3.27604 -1.49492 0
M  V30 21036 C 2023.03 3.3183 -3.03659 0
M  V30 21037 C 2024.35 4.24378 -1.16581 0
M  V30 21038 H 2021.47 0.659374 -0.329233 0
M  V30 21039 H 2024.11 1.27792 -1.40603 0
M  V30 21040 H 2022.26 3.73574 -1.06653 0
M  V30 21041 H 2023.93 2.94239 -3.55276 0
M  V30 21042 H 2022.18 2.71317 -3.38481 0
M  V30 21043 H 2022.85 4.34686 -3.40224 0
M  V30 21044 H 2025.32 3.8671 -1.53604 0
M  V30 21045 H 2024.2 5.24853 -1.60688 0
M  V30 21046 H 2024.46 4.42028 -0.0800013 0
M  V30 21047 N 2023.52 0.931232 1.27145 0
M  V30 21048 C 2024.77 0.572394 1.93825 0
M  V30 21049 C 2025.09 -0.88981 1.73515 0
M  V30 21050 O 2024.36 -1.63113 1.08494 0
M  V30 21051 H 2022.94 0.2087 0.717254 0
M  V30 21052 H 2025.6 1.18439 1.54784 0
M  V30 21053 H 2024.7 0.781679 3.02153 0
M  V30 21054 N 2025 -1.41343 0.697132 0
M  V30 21055 C 2025.94 -2.30777 0.0327941 0
M  V30 21056 C 2026.91 -1.47192 -0.769652 0
M  V30 21057 O 2028.1 -1.75976 -0.737366 0
M  V30 21058 C 2025.24 -3.33252 -0.896488 0
M  V30 21059 C 2024.35 -4.31915 -0.0854899 0
M  V30 21060 C 2023.49 -5.2146 -1.01256 0
M  V30 21061 C 2022.53 -6.11791 -0.194558 0
M  V30 21062 N 2021.66 -6.93813 -1.07551 0
M  V30 21063 H 2026.5 -2.87027 0.801203 0
M  V30 21064 H 2024.04 -1.41363 0.406815 0
M  V30 21065 H 2026 -3.91216 -1.44933 0
M  V30 21066 H 2024.63 -2.78548 -1.63128 0
M  V30 21067 H 2023.68 -3.75886 0.58429 0
M  V30 21068 H 2024.99 -4.95774 0.548612 0
M  V30 21069 H 2024.15 -5.84266 -1.63457 0
M  V30 21070 H 2022.89 -4.57832 -1.68051 0
M  V30 21071 H 2021.89 -5.48032 0.440518 0
M  V30 21072 H 2023.12 -6.77474 0.469626 0
M  V30 21073 H 2021.06 -6.32792 -1.72946 0
M  V30 21074 H 2020.98 -7.54364 -0.497018 0
M  V30 21075 H 2022.25 -7.61086 -1.68429 0
M  V30 21076 N 2026.48 -0.441993 -1.51275 0
M  V30 21077 C 2027.72 0.122669 -2.01727 0
M  V30 21078 C 2028.04 1.42804 -1.32786 0
M  V30 21079 O 2027.31 1.90329 -0.463874 0
M  V30 21080 H 2025.89 0.0483227 -0.745435 0
M  V30 21081 H 2028.56 -0.585765 -1.85889 0
M  V30 21082 H 2027.65 0.295224 -3.10701 0
M  V30 21083 N 2027.95 1.56642 -0.173515 0
M  V30 21084 C 2028.89 2.13917 0.794652 0
M  V30 21085 C 2029.86 1.06986 1.22445 0
M  V30 21086 O 2031.05 1.34974 1.31583 0
M  V30 21087 C 2028.18 2.68052 2.07041 0
M  V30 21088 C 2027.22 3.87375 1.78446 0
M  V30 21089 S 2028.05 5.26975 0.951737 0
M  V30 21090 C 2029.21 5.84516 2.23811 0
M  V30 21091 H 2029.44 2.95704 0.307683 0
M  V30 21092 H 2026.98 1.54345 0.0411859 0
M  V30 21093 H 2028.93 2.99888 2.80316 0
M  V30 21094 H 2027.6 1.86347 2.52851 0
M  V30 21095 H 2026.79 4.23588 2.7311 0
M  V30 21096 H 2026.39 3.56437 1.13265 0
M  V30 21097 H 2028.68 5.97564 3.19254 0
M  V30 21098 H 2029.63 6.81555 1.92063 0
M  V30 21099 H 2030.03 5.12952 2.35671 0
M  V30 21100 N 2029.43 -0.1002 1.57281 0
M  V30 21101 C 2030.38 -1.14082 2.02702 0
M  V30 21102 C 2031.37 -1.41773 0.927183 0
M  V30 21103 O 2032.58 -1.41514 1.11237 0
M  V30 21104 H 2028.95 -0.385095 0.645915 0
M  V30 21105 H 2030.93 -0.731375 2.89298 0
M  V30 21106 C 2029.67 -2.45424 2.46297 0
M  V30 21107 H 2029 -2.24959 3.30505 0
M  V30 21108 H 2030.44 -3.16752 2.81859 0
M  V30 21109 C 2028.9 -3.09356 1.33418 0
M  V30 21110 O 2029.43 -3.96233 0.660494 0
M  V30 21111 N 2027.63 -2.69526 1.08646 0
M  V30 21112 H 2027.18 -1.98972 1.63609 0
M  V30 21113 H 2027.14 -3.1263 0.333186 0
M  V30 21114 N 2030.91 -1.53174 -0.370891 0
M  V30 21115 C 2032.16 -1.68764 -1.11189 0
M  V30 21116 C 2032.48 -0.439297 -1.89987 0
M  V30 21117 O 2031.75 0.546592 -1.8812 0
M  V30 21118 H 2030.33 -0.622136 -0.413467 0
M  V30 21119 H 2032.99 -1.90347 -0.418794 0
M  V30 21120 H 2032.09 -2.54633 -1.80468 0
M  V30 21121 N 2032.39 0.630389 -1.44443 0
M  V30 21122 C 2033.64 1.38719 -1.46975 0
M  V30 21123 C 2033.96 1.94723 -0.103861 0
M  V30 21124 O 2033.23 1.75822 0.863919 0
M  V30 21125 H 2031.81 0.5149 -0.54119 0
M  V30 21126 H 2034.47 0.741905 -1.80227 0
M  V30 21127 H 2033.56 2.21813 -2.19557 0
M  V30 21128 N 2033.87 1.31354 0.870861 0
M  V30 21129 C 2034.78 1.20887 2.01056 0
M  V30 21130 C 2035.79 0.125768 1.73545 0
M  V30 21131 O 2036.97 0.3434 1.98451 0
M  V30 21132 C 2034.03 0.915879 3.34384 0
M  V30 21133 C 2033.09 2.08579 3.75225 0
M  V30 21134 C 2032.33 1.80668 5.0219 0
M  V30 21135 O 2032.55 0.741377 5.65561 0
M  V30 21136 O 2031.48 2.66319 5.39776 0
M  V30 21137 H 2035.31 2.16661 2.12819 0
M  V30 21138 H 2032.89 1.11084 0.999031 0
M  V30 21139 H 2034.78 0.768289 4.14337 0
M  V30 21140 H 2033.45 -0.0118355 3.23698 0
M  V30 21141 H 2032.36 2.28877 2.95916 0
M  V30 21142 H 2033.69 2.99572 3.90535 0
M  V30 21143 N 2035.34 -1.08505 1.143 0
M  V30 21144 C 2036.59 -1.80248 0.90519 0
M  V30 21145 C 2036.91 -1.87116 -0.56981 0
M  V30 21146 O 2038.11 -2.55262 -0.924844 0
M  V30 21147 C 2036.57 -3.23851 1.56998 0
M  V30 21148 C 2036.18 -3.2522 3.08117 0
M  V30 21149 C 2037.92 -4.00284 1.41325 0
M  V30 21150 C 2035.83 -4.63405 3.67437 0
M  V30 21151 H 2034.76 -0.67549 0.335007 0
M  V30 21152 H 2037.41 -1.21877 1.3718 0
M  V30 21153 H 2035.79 -3.82342 1.03104 0
M  V30 21154 H 2036.96 -2.76441 3.68669 0
M  V30 21155 H 2035.28 -2.62281 3.23415 0
M  V30 21156 H 2037.88 -5.02393 1.83046 0
M  V30 21157 H 2038.22 -4.14747 0.359236 0
M  V30 21158 H 2038.75 -3.4826 1.9225 0
M  V30 21159 H 2035.49 -4.54145 4.72686 0
M  V30 21160 H 2035.01 -5.1247 3.11665 0
M  V30 21161 H 2036.69 -5.3238 3.6767 0
M  V30 21162 N 2036.82 -0.937962 -1.26649 0
M  V30 21163 C 2038.07 -0.584683 -1.94189 0
M  V30 21164 C 2038.4 0.873516 -1.73446 0
M  V30 21165 O 2037.68 1.62451 -1.06957 0
M  V30 21166 C 2037.96 -0.923855 -3.48047 0
M  V30 21167 C 2037.81 -2.43656 -3.7809 0
M  V30 21168 C 2039.13 -0.436986 -4.37925 0
M  V30 21169 H 2036.25 -0.213892 -0.70528 0
M  V30 21170 H 2038.89 -1.1716 -1.49578 0
M  V30 21171 H 2037.04 -0.424389 -3.86175 0
M  V30 21172 H 2038.71 -3.00851 -3.49695 0
M  V30 21173 H 2036.96 -2.88141 -3.2428 0
M  V30 21174 H 2037.63 -2.62439 -4.85623 0
M  V30 21175 H 2040.1 -0.865189 -4.07006 0
M  V30 21176 H 2038.98 -0.703159 -5.44378 0
M  V30 21177 H 2039.24 0.663042 -4.371 0
M  V30 21178 N 2038.3 1.40971 -0.704618 0
M  V30 21179 C 2039.55 2.00309 -0.236478 0
M  V30 21180 C 2039.86 1.56482 1.17358 0
M  V30 21181 O 2041.07 2.08442 1.73966 0
M  V30 21182 C 2039.52 3.57974 -0.371877 0
M  V30 21183 C 2039.13 4.10779 -1.78788 0
M  V30 21184 C 2040.88 4.24485 0.0360284 0
M  V30 21185 C 2038.78 5.60909 -1.87445 0
M  V30 21186 H 2037.71 0.749233 -0.0846557 0
M  V30 21187 H 2040.36 1.61342 -0.874125 0
M  V30 21188 H 2038.75 3.94587 0.334172 0
M  V30 21189 H 2039.92 3.85565 -2.52342 0
M  V30 21190 H 2038.23 3.56826 -2.14626 0
M  V30 21191 H 2040.83 5.34699 -0.00808813 0
M  V30 21192 H 2041.17 4.02149 1.07621 0
M  V30 21193 H 2041.71 3.92938 -0.620069 0
M  V30 21194 H 2038.45 5.88084 -2.89546 0
M  V30 21195 H 2037.97 5.88021 -1.18287 0
M  V30 21196 H 2039.65 6.25831 -1.6415 0
M  V30 21197 N 2039.78 0.45001 1.51039 0
M  V30 21198 C 2041.02 -0.112357 2.02489 0
M  V30 21199 C 2041.36 -1.41249 1.33276 0
M  V30 21200 O 2040.63 -1.89183 0.451679 0
M  V30 21201 C 2040.92 -0.318025 3.58693 0
M  V30 21202 C 2040.77 1.00164 4.38506 0
M  V30 21203 C 2042.09 -1.08213 4.26589 0
M  V30 21204 H 2039.21 -0.0393599 0.735948 0
M  V30 21205 H 2041.85 0.591485 1.80559 0
M  V30 21206 H 2040 -0.917553 3.77509 0
M  V30 21207 H 2041.67 1.63613 4.3131 0
M  V30 21208 H 2039.91 1.60329 4.03085 0
M  V30 21209 H 2040.58 0.811628 5.46001 0
M  V30 21210 H 2043.06 -0.574174 4.12119 0
M  V30 21211 H 2041.94 -1.19481 5.35738 0
M  V30 21212 H 2042.2 -2.11345 3.88311 0
M  V30 21213 N 2041.26 -1.56548 0.18182 0
M  V30 21214 C 2042.67 -1.83704 -0.3331 0
M  V30 21215 C 2043.02 -1.10203 -1.62326 0
M  V30 21216 O 2042.14 -0.358476 -2.1341 0
M  V30 21217 C 2042.74 -3.33243 -0.611134 0
M  V30 21218 C 2041.3 -3.60857 -1.07046 0
M  V30 21219 C 2040.44 -2.77074 -0.111929 0
M  V30 21220 H 2043.4 -1.53422 0.405878 0
M  V30 21221 H 2043.42 -3.51292 -1.462 0
M  V30 21222 H 2042.93 -3.86711 0.328039 0
M  V30 21223 H 2041.03 -3.1281 -2.02437 0
M  V30 21224 H 2041.14 -4.69129 -0.972357 0
M  V30 21225 H 2039.51 -2.47255 -0.611302 0
M  V30 21226 H 2040.29 -3.33327 0.821452 0
M  V30 21227 N 2042.73 0.0918577 -1.57332 0
M  V30 21228 C 2043.68 1.11765 -1.98727 0
M  V30 21229 C 2044.67 1.35594 -0.866205 0
M  V30 21230 O 2045.86 1.36231 -1.13005 0
M  V30 21231 C 2042.99 2.437 -2.41796 0
M  V30 21232 C 2042.08 2.23231 -3.60595 0
M  V30 21233 N 2042.47 1.72638 -4.75426 0
M  V30 21234 C 2040.76 2.53785 -3.66755 0
M  V30 21235 C 2041.47 1.66516 -5.57357 0
M  V30 21236 N 2040.44 2.11847 -5.00621 0
M  V30 21237 H 2044.24 0.719481 -2.84957 0
M  V30 21238 H 2041.76 0.299237 -1.59619 0
M  V30 21239 H 2043.75 3.17927 -2.69682 0
M  V30 21240 H 2042.41 2.84251 -1.56944 0
M  V30 21241 H 2043.43 1.41789 -4.98113 0
M  V30 21242 H 2040.1 2.97839 -2.92572 0
M  V30 21243 H 2041.49 1.28424 -6.59513 0
M  V30 21244 N 2044.21 1.53368 0.362763 0
M  V30 21245 C 2045.62 1.61344 0.939417 0
M  V30 21246 C 2045.97 0.48262 1.90172 0
M  V30 21247 O 2045.1 -0.39054 2.12847 0
M  V30 21248 C 2045.69 2.92445 1.71059 0
M  V30 21249 C 2044.25 3.02747 2.23654 0
M  V30 21250 C 2043.4 2.5666 1.0498 0
M  V30 21251 H 2046.35 1.58068 0.141471 0
M  V30 21252 H 2046.37 2.80406 2.57201 0
M  V30 21253 H 2045.88 3.74728 1.00996 0
M  V30 21254 H 2043.99 2.25057 2.96951 0
M  V30 21255 H 2044.1 4.07877 2.51343 0
M  V30 21256 H 2042.46 2.11603 1.41761 0
M  V30 21257 H 2043.25 3.41364 0.364111 0
M  V30 21258 N 2045.69 -0.62272 1.44776 0
M  V30 21259 C 2046.62 -1.74771 1.48283 0
M  V30 21260 C 2047.64 -1.58416 0.375253 0
M  V30 21261 O 2048.82 -1.66575 0.641472 0
M  V30 21262 C 2045.92 -3.12596 1.30909 0
M  V30 21263 C 2045.1 -3.55331 2.55066 0
M  V30 21264 C 2044.16 -4.72064 2.32469 0
M  V30 21265 O 2043.18 -4.79949 3.06003 0
M  V30 21266 N 2044.38 -5.64329 1.36063 0
M  V30 21267 H 2047.15 -1.7223 2.45269 0
M  V30 21268 H 2044.71 -0.807546 1.40322 0
M  V30 21269 H 2046.7 -3.88422 1.13625 0
M  V30 21270 H 2045.27 -3.09731 0.422559 0
M  V30 21271 H 2044.49 -2.69625 2.87569 0
M  V30 21272 H 2045.78 -3.80637 3.37628 0
M  V30 21273 H 2045.18 -5.6066 0.753476 0
M  V30 21274 H 2043.74 -6.39749 1.24756 0
M  V30 21275 N 2047.17 -1.31814 -0.863883 0
M  V30 21276 C 2048.13 -1.19926 -1.95321 0
M  V30 21277 C 2049.13 -0.124731 -1.60316 0
M  V30 21278 O 2050.32 -0.374454 -1.70128 0
M  V30 21279 C 2047.45 -0.842234 -3.30332 0
M  V30 21280 H 2048.65 -2.16727 -2.07291 0
M  V30 21281 H 2046.2 -1.15512 -1.05293 0
M  V30 21282 H 2046.93 0.124348 -3.24062 0
M  V30 21283 H 2046.72 -1.61902 -3.57114 0
M  V30 21284 H 2048.21 -0.783125 -4.10191 0
M  V30 21285 N 2048.65 1.07897 -1.14873 0
M  V30 21286 C 2049.87 1.84657 -0.944281 0
M  V30 21287 C 2050.3 1.8127 0.50226 0
M  V30 21288 O 2049.65 1.20159 1.35763 0
M  V30 21289 C 2049.7 3.29889 -1.45622 0
M  V30 21290 O 2048.81 4.07217 -0.651748 0
M  V30 21291 H 2048.15 0.571994 -0.337222 0
M  V30 21292 H 2050.68 1.36151 -1.52723 0
M  V30 21293 H 2050.69 3.80727 -1.46665 0
M  V30 21294 H 2049.36 3.31668 -2.50936 0
M  V30 21295 H 2047.94 3.66069 -0.710491 0
M  V30 21296 N 2050.12 0.944665 1.2615 0
M  V30 21297 C 2051.37 0.594093 1.93589 0
M  V30 21298 C 2051.7 -0.867382 1.74088 0
M  V30 21299 O 2050.95 -1.63636 1.07339 0
M  V30 21300 C 2051.25 0.886852 3.46222 0
M  V30 21301 C 2050.92 2.33276 3.85867 0
M  V30 21302 C 2049.58 2.72801 3.964 0
M  V30 21303 C 2051.93 3.27224 4.05677 0
M  V30 21304 C 2049.26 4.05362 4.24144 0
M  V30 21305 C 2051.61 4.59386 4.34911 0
M  V30 21306 C 2050.28 4.98721 4.4366 0
M  V30 21307 H 2049.55 0.217394 0.708393 0
M  V30 21308 H 2052.19 1.19183 1.49892 0
M  V30 21309 H 2050.5 0.206616 3.91255 0
M  V30 21310 H 2052.2 0.594328 3.96571 0
M  V30 21311 H 2048.79 2.01619 3.78216 0
M  V30 21312 H 2052.97 2.97883 3.96963 0
M  V30 21313 H 2048.23 4.35496 4.29131 0
M  V30 21314 H 2052.4 5.32171 4.49185 0
M  V30 21315 H 2050.03 6.01466 4.64911 0
M  V30 21316 N 2051.6 -1.40596 0.712085 0
M  V30 21317 C 2052.57 -2.29105 0.0660369 0
M  V30 21318 C 2053.57 -1.45196 -0.690992 0
M  V30 21319 O 2054.76 -1.66151 -0.523417 0
M  V30 21320 C 2051.89 -3.2835 -0.916461 0
M  V30 21321 H 2053.08 -2.87734 0.845539 0
M  V30 21322 H 2050.63 -1.48859 0.476533 0
M  V30 21323 H 2051.37 -2.74733 -1.72314 0
M  V30 21324 H 2051.15 -3.90288 -0.376557 0
M  V30 21325 H 2052.64 -3.94634 -1.36578 0
M  V30 21326 N 2053.08 -0.458013 -1.50798 0
M  V30 21327 C 2054.49 0.00023852 -1.867 0
M  V30 21328 C 2054.84 1.40078 -1.37378 0
M  V30 21329 O 2053.97 2.036 -0.733219 0
M  V30 21330 C 2054.56 0.00720883 -3.38799 0
M  V30 21331 C 2053.12 0.409942 -3.74161 0
M  V30 21332 C 2052.27 -0.383856 -2.7463 0
M  V30 21333 H 2055.22 -0.672909 -1.43728 0
M  V30 21334 H 2055.24 0.812262 -3.71729 0
M  V30 21335 H 2054.75 -1.01225 -3.74667 0
M  V30 21336 H 2052.85 1.43423 -3.4389 0
M  V30 21337 H 2052.97 0.120374 -4.78949 0
M  V30 21338 H 2051.33 0.16068 -2.54193 0
M  V30 21339 H 2052.11 -1.40258 -3.13341 0
M  V30 21340 N 2054.56 1.56449 -0.190119 0
M  V30 21341 C 2055.47 2.22463 0.744809 0
M  V30 21342 C 2056.49 1.22213 1.23855 0
M  V30 21343 O 2057.66 1.54934 1.28675 0
M  V30 21344 C 2054.73 2.86716 1.94923 0
M  V30 21345 C 2053.79 4.02222 1.50054 0
M  V30 21346 C 2053.02 4.63401 2.64755 0
M  V30 21347 O 2053.24 4.23495 3.8211 0
M  V30 21348 O 2052.18 5.52953 2.37752 0
M  V30 21349 H 2056 3.02955 0.212633 0
M  V30 21350 H 2053.59 1.49349 0.0389463 0
M  V30 21351 H 2055.47 3.27385 2.65324 0
M  V30 21352 H 2054.15 2.09207 2.4701 0
M  V30 21353 H 2053.05 3.66185 0.765469 0
M  V30 21354 H 2054.39 4.81379 1.02638 0
M  V30 21355 N 2056.04 -0.0835127 1.57379 0
M  V30 21356 C 2057.31 -0.817204 1.77711 0
M  V30 21357 C 2057.69 -1.9637 0.774736 0
M  V30 21358 O 2057.04 -2.27671 -0.194489 0
M  V30 21359 C 2057.25 -1.30104 3.23842 0
M  V30 21360 C 2058.6 -1.73916 3.87348 0
M  V30 21361 O 2059.62 -1.39699 3.27662 0
M  V30 21362 O 2058.48 -2.37224 4.92328 0
M  V30 21363 H 2055.58 -0.390677 0.728904 0
M  V30 21364 H 2058.12 -0.0644961 1.69577 0
M  V30 21365 H 2056.9 -0.480145 3.88343 0
M  V30 21366 H 2056.52 -2.11541 3.36654 0
M  V30 21367 N 2057.52 -1.53558 -0.354624 0
M  V30 21368 C 2058.46 -1.81453 -1.45525 0
M  V30 21369 C 2059.46 -0.684302 -1.54963 0
M  V30 21370 O 2060.66 -0.867445 -1.57719 0
M  V30 21371 H 2057.04 -0.574697 -0.485003 0
M  V30 21372 H 2059.01 -2.73555 -1.19207 0
M  V30 21373 C 2057.76 -2.0311 -2.82208 0
M  V30 21374 H 2057.08 -2.89525 -2.75709 0
M  V30 21375 H 2058.52 -2.266 -3.58369 0
M  V30 21376 C 2056.98 -0.813372 -3.26934 0
M  V30 21377 O 2057.51 -0.00738144 -4.01699 0
M  V30 21378 N 2055.72 -0.633715 -2.83606 0
M  V30 21379 H 2055.26 -1.29076 -2.22928 0
M  V30 21380 H 2055.22 0.179621 -3.13886 0
M  V30 21381 N 2058.99 0.615033 -1.45104 0
M  V30 21382 C 2060.24 1.37627 -1.48952 0
M  V30 21383 C 2060.57 1.93779 -0.127873 0
M  V30 21384 O 2059.85 1.74617 0.856686 0
M  V30 21385 C 2060.13 2.5297 -2.56278 0
M  V30 21386 C 2059.98 2.02063 -4.01859 0
M  V30 21387 C 2061.3 3.55121 -2.59956 0
M  V30 21388 H 2058.42 0.49907 -0.542308 0
M  V30 21389 H 2061.06 0.693977 -1.76873 0
M  V30 21390 H 2059.21 3.11174 -2.326 0
M  V30 21391 H 2060.89 1.48565 -4.36722 0
M  V30 21392 H 2059.13 1.3312 -4.1287 0
M  V30 21393 H 2059.8 2.85176 -4.72629 0
M  V30 21394 H 2062.28 3.06745 -2.81153 0
M  V30 21395 H 2061.15 4.33326 -3.36927 0
M  V30 21396 H 2061.41 4.10251 -1.64761 0
M  V30 21397 N 2060.47 1.3227 0.85688 0
M  V30 21398 C 2061.72 1.22058 1.60576 0
M  V30 21399 C 2062.03 -0.216767 1.94395 0
M  V30 21400 O 2063.24 -0.440721 2.67899 0
M  V30 21401 C 2061.7 2.1376 2.89542 0
M  V30 21402 C 2061.3 3.62564 2.63157 0
M  V30 21403 C 2063.05 2.12379 3.67553 0
M  V30 21404 C 2060.95 4.46234 3.8811 0
M  V30 21405 H 2059.88 0.453274 0.602544 0
M  V30 21406 H 2062.54 1.57215 0.946344 0
M  V30 21407 H 2060.92 1.71515 3.56929 0
M  V30 21408 H 2062.09 4.13137 2.04095 0
M  V30 21409 H 2060.41 3.66053 1.98479 0
M  V30 21410 H 2063 2.72129 4.60272 0
M  V30 21411 H 2063.35 1.11421 4.01112 0
M  V30 21412 H 2063.88 2.52892 3.07067 0
M  V30 21413 H 2060.62 5.47997 3.59693 0
M  V30 21414 H 2060.14 4.00413 4.46575 0
M  V30 21415 H 2061.82 4.5912 4.5587 0
M  V30 21416 N 2061.95 -1.07287 1.15444 0
M  V30 21417 C 2063.2 -1.79277 0.924257 0
M  V30 21418 C 2063.51 -1.8771 -0.549932 0
M  V30 21419 O 2064.72 -2.56229 -0.897718 0
M  V30 21420 C 2063.17 -3.22168 1.60424 0
M  V30 21421 C 2062.78 -3.21934 3.11549 0
M  V30 21422 C 2064.53 -3.98763 1.45563 0
M  V30 21423 C 2062.43 -4.59482 3.72331 0
M  V30 21424 H 2061.36 -0.671898 0.342153 0
M  V30 21425 H 2064.01 -1.20415 1.38465 0
M  V30 21426 H 2062.4 -3.81227 1.07154 0
M  V30 21427 H 2063.57 -2.72516 3.7158 0
M  V30 21428 H 2061.88 -2.58836 3.26179 0
M  V30 21429 H 2064.48 -5.00423 1.88364 0
M  V30 21430 H 2064.82 -4.14343 0.403205 0
M  V30 21431 H 2065.36 -3.46201 1.95933 0
M  V30 21432 H 2062.1 -4.49106 4.77476 0
M  V30 21433 H 2061.62 -5.09135 3.17083 0
M  V30 21434 H 2063.3 -5.2845 3.73296 0
M  V30 21435 N 2063.43 -0.951342 -1.25647 0
M  V30 21436 C 2064.68 -0.603157 -1.9289 0
M  V30 21437 C 2065 0.862093 -1.74908 0
M  V30 21438 O 2064.27 1.61366 -1.11075 0
M  V30 21439 H 2062.85 -0.220085 -0.713843 0
M  V30 21440 H 2065.51 -1.20887 -1.5288 0
M  V30 21441 H 2064.6 -0.82965 -3.00871 0
M  V30 21442 N 2064.91 1.40216 -0.719531 0
M  V30 21443 C 2065.85 2.32527 -0.0584211 0
M  V30 21444 C 2066.85 1.52249 0.742746 0
M  V30 21445 O 2068.05 1.68021 0.64567 0
M  V30 21446 H 2064.43 0.752 -8.96276e-05 0
M  V30 21447 H 2066.4 2.8593 -0.853622 0
M  V30 21448 C 2065.15 3.37242 0.846339 0
M  V30 21449 H 2064.47 3.99083 0.23926 0
M  V30 21450 H 2065.91 4.04319 1.2768 0
M  V30 21451 C 2064.37 2.7304 1.9736 0
M  V30 21452 O 2064.9 2.59677 3.06481 0
M  V30 21453 N 2063.11 2.31363 1.7584 0
M  V30 21454 H 2062.65 2.42431 0.870906 0
M  V30 21455 H 2062.61 1.88744 2.51442 0
M  V30 21456 N 2066.38 0.466004 1.50553 0
M  V30 21457 C 2067.61 -0.0885768 2.0671 0
M  V30 21458 C 2068.03 -1.33958 1.33044 0
M  V30 21459 O 2067.38 -1.78102 0.398219 0
M  V30 21460 C 2067.43 -0.381842 3.59478 0
M  V30 21461 O 2067.16 0.81954 4.30366 0
M  V30 21462 C 2068.66 -0.98395 4.32242 0
M  V30 21463 H 2065.88 0.00481473 0.670983 0
M  V30 21464 H 2068.42 0.653327 1.93783 0
M  V30 21465 H 2066.58 -1.07367 3.72224 0
M  V30 21466 H 2066.99 0.56106 5.21491 0
M  V30 21467 H 2068.46 -1.13895 5.40122 0
M  V30 21468 H 2068.94 -1.97271 3.92404 0
M  V30 21469 H 2069.55 -0.330654 4.24013 0
M  V30 21470 N 2067.86 -1.56346 0.198413 0
M  V30 21471 C 2069.1 -1.99572 -0.441608 0
M  V30 21472 C 2069.47 -1.08257 -1.5857 0
M  V30 21473 O 2070.67 -1.40734 -2.29014 0
M  V30 21474 C 2068.94 -3.46221 -0.886882 0
M  V30 21475 S 2070.5 -4.11475 -1.52427 0
M  V30 21476 H 2067.31 -0.69686 -0.141092 0
M  V30 21477 H 2069.92 -1.93149 0.302261 0
M  V30 21478 H 2068.62 -4.10376 -0.0441917 0
M  V30 21479 H 2068.15 -3.56469 -1.66413 0
M  V30 21480 H 2070.17 -4.08754 -2.81308 0
M  V30 21481 N 2069.34 0.0751653 -1.57421 0
M  V30 21482 C 2070.27 1.09007 -2.06494 0
M  V30 21483 C 2071.25 1.40573 -0.957766 0
M  V30 21484 O 2072.44 1.50259 -1.23028 0
M  V30 21485 C 2069.57 2.40446 -2.50605 0
M  V30 21486 C 2068.52 2.2324 -3.65168 0
M  V30 21487 C 2067.85 3.60033 -3.95323 0
M  V30 21488 C 2069.15 1.65642 -4.95338 0
M  V30 21489 H 2070.84 0.681725 -2.91535 0
M  V30 21490 H 2068.39 0.326481 -1.4025 0
M  V30 21491 H 2070.34 3.11734 -2.83548 0
M  V30 21492 H 2069.06 2.83254 -1.62588 0
M  V30 21493 H 2067.72 1.54393 -3.32503 0
M  V30 21494 H 2067.37 4.00404 -3.04443 0
M  V30 21495 H 2067.07 3.4936 -4.72463 0
M  V30 21496 H 2068.59 4.32757 -4.30759 0
M  V30 21497 H 2070.01 2.26793 -5.26534 0
M  V30 21498 H 2068.41 1.65675 -5.76777 0
M  V30 21499 H 2069.48 0.617593 -4.80951 0
M  V30 21500 N 2070.82 1.53744 0.346476 0
M  V30 21501 C 2072.05 1.7453 1.10557 0
M  V30 21502 C 2072.46 0.482996 1.82931 0
M  V30 21503 O 2071.8 -0.554895 1.75119 0
M  V30 21504 C 2071.86 2.86918 2.16606 0
M  V30 21505 C 2071.53 4.26624 1.63832 0
M  V30 21506 C 2072.52 5.08298 1.0922 0
M  V30 21507 C 2070.21 4.73099 1.68767 0
M  V30 21508 C 2072.2 6.34547 0.602434 0
M  V30 21509 C 2069.89 5.99321 1.19403 0
M  V30 21510 C 2070.89 6.79878 0.652331 0
M  V30 21511 O 2070.57 8.03729 0.166038 0
M  V30 21512 H 2070.31 0.586761 0.335689 0
M  V30 21513 H 2072.86 2.0136 0.40536 0
M  V30 21514 H 2071.09 2.55606 2.90177 0
M  V30 21515 H 2072.78 2.95701 2.78057 0
M  V30 21516 H 2073.55 4.73557 1.04731 0
M  V30 21517 H 2069.42 4.10457 2.09871 0
M  V30 21518 H 2072.97 6.9737 0.178953 0
M  V30 21519 H 2068.87 6.33558 1.23591 0
M  V30 21520 H 2069.63 8.18009 0.283599 0
M  V30 21521 N 2072.3 -0.607329 1.45428 0
M  V30 21522 C 2073.54 -1.36363 1.49163 0
M  V30 21523 C 2073.87 -1.94533 0.134827 0
M  V30 21524 O 2073.14 -1.77174 -0.835838 0
M  V30 21525 H 2071.72 -0.506225 0.549314 0
M  V30 21526 H 2074.38 -0.713138 1.81385 0
M  V30 21527 H 2073.47 -2.18292 2.23058 0
M  V30 21528 N 2073.77 -1.32722 -0.849853 0
M  V30 21529 C 2074.74 -1.21991 -1.94038 0
M  V30 21530 C 2075.74 -0.141727 -1.60174 0
M  V30 21531 O 2076.93 -0.392477 -1.69721 0
M  V30 21532 C 2074.06 -0.877223 -3.2942 0
M  V30 21533 H 2075.25 -2.18913 -2.04981 0
M  V30 21534 H 2072.81 -1.16623 -1.04062 0
M  V30 21535 H 2073.54 0.0899704 -3.24175 0
M  V30 21536 H 2073.33 -1.65681 -3.55376 0
M  V30 21537 H 2074.82 -0.826588 -4.09338 0
M  V30 21538 N 2075.25 1.06673 -1.16011 0
M  V30 21539 C 2076.48 1.83106 -0.963322 0
M  V30 21540 C 2076.9 1.82372 0.488451 0
M  V30 21541 O 2076.25 1.24012 1.33893 0
M  V30 21542 C 2076.3 3.29888 -1.47838 0
M  V30 21543 O 2076.02 3.30717 -2.87328 0
M  V30 21544 C 2077.53 4.23065 -1.32405 0
M  V30 21545 H 2074.75 0.577476 -0.341705 0
M  V30 21546 H 2077.29 1.34611 -1.53948 0
M  V30 21547 H 2075.44 3.75708 -0.944585 0
M  V30 21548 H 2075.86 4.22475 -3.1083 0
M  V30 21549 H 2077.33 5.24098 -1.73279 0
M  V30 21550 H 2077.81 4.38375 -0.269104 0
M  V30 21551 H 2078.42 3.83088 -1.84726 0
M  V30 21552 N 2076.73 0.957992 1.25141 0
M  V30 21553 C 2077.98 0.613378 1.92567 0
M  V30 21554 C 2078.3 -0.852805 1.75363 0
M  V30 21555 O 2077.57 -1.60775 1.11929 0
M  V30 21556 H 2076.15 0.223867 0.712666 0
M  V30 21557 H 2078.81 1.21696 1.52237 0
M  V30 21558 H 2077.91 0.845594 3.00427 0
M  V30 21559 N 2078.21 -1.39832 0.726957 0
M  V30 21560 C 2079.46 -2.00277 0.27085 0
M  V30 21561 C 2079.78 -1.57958 -1.14343 0
M  V30 21562 O 2079.05 -0.824155 -1.7772 0
M  V30 21563 H 2077.63 -0.740656 0.0971496 0
M  V30 21564 H 2080.29 -1.71001 0.935123 0
M  V30 21565 H 2079.39 -3.10528 0.312892 0
M  V30 21566 N 2079.69 -0.473982 -1.50304 0
M  V30 21567 C 2080.63 0.332685 -2.30209 0
M  V30 21568 C 2081.63 0.987746 -1.37622 0
M  V30 21569 O 2082.83 0.918521 -1.548 0
M  V30 21570 H 2079.21 0.126129 -0.741347 0
M  V30 21571 H 2081.18 -0.361602 -2.96201 0
M  V30 21572 C 2079.93 1.40037 -3.18253 0
M  V30 21573 H 2079.25 0.905697 -3.89406 0
M  V30 21574 H 2080.69 1.93731 -3.77153 0
M  V30 21575 C 2079.15 2.40388 -2.36041 0
M  V30 21576 O 2079.68 3.45718 -2.04553 0
M  V30 21577 N 2077.89 2.12178 -1.98567 0
M  V30 21578 H 2077.43 1.26545 -2.24375 0
M  V30 21579 H 2077.39 2.79554 -1.43864 0
M  V30 21580 N 2081.16 1.56239 -0.206702 0
M  V30 21581 C 2082.09 2.2262 0.704446 0
M  V30 21582 C 2083.08 1.19305 1.21245 0
M  V30 21583 O 2084.26 1.47846 1.25917 0
M  V30 21584 C 2081.39 2.89459 1.91913 0
M  V30 21585 C 2080.34 3.99119 1.54558 0
M  V30 21586 C 2079.67 4.53179 2.83783 0
M  V30 21587 C 2080.97 5.16934 0.746749 0
M  V30 21588 H 2082.66 2.99019 0.151028 0
M  V30 21589 H 2080.21 1.43824 0.0712004 0
M  V30 21590 H 2082.16 3.34584 2.56186 0
M  V30 21591 H 2080.89 2.10484 2.49728 0
M  V30 21592 H 2079.55 3.54702 0.926381 0
M  V30 21593 H 2079.19 3.70952 3.39711 0
M  V30 21594 H 2078.89 5.2718 2.59528 0
M  V30 21595 H 2080.42 5.01013 3.49024 0
M  V30 21596 H 2081.83 5.58532 1.29284 0
M  V30 21597 H 2080.23 5.97074 0.601876 0
M  V30 21598 H 2081.3 4.84256 -0.249783 0
M  V30 21599 N 2082.64 -0.0668159 1.57458 0
M  V30 21600 C 2083.87 -0.776687 1.91445 0
M  V30 21601 C 2084.28 -1.71389 0.801403 0
M  V30 21602 O 2083.62 -1.82206 -0.233788 0
M  V30 21603 C 2083.69 -1.61981 3.2094 0
M  V30 21604 C 2083.35 -0.851453 4.48998 0
M  V30 21605 C 2084.35 -0.168463 5.19627 0
M  V30 21606 C 2082.03 -0.817153 4.95609 0
M  V30 21607 C 2084.03 0.538543 6.35121 0
M  V30 21608 C 2081.71 -0.106378 6.11007 0
M  V30 21609 C 2082.71 0.570265 6.80615 0
M  V30 21610 O 2082.4 1.26958 7.93812 0
M  V30 21611 H 2082.13 -0.225698 0.63721 0
M  V30 21612 H 2084.68 -0.0398627 2.05361 0
M  V30 21613 H 2082.91 -2.39956 3.03246 0
M  V30 21614 H 2084.6 -2.20882 3.40538 0
M  V30 21615 H 2085.37 -0.186236 4.84642 0
M  V30 21616 H 2081.25 -1.33329 4.41299 0
M  V30 21617 H 2084.79 1.06725 6.89388 0
M  V30 21618 H 2080.69 -0.0865497 6.45442 0
M  V30 21619 H 2081.46 1.17936 8.09959 0
M  V30 21620 N 2084.12 -1.53926 -0.338317 0
M  V30 21621 C 2085.08 -1.81578 -1.39865 0
M  V30 21622 C 2086.08 -0.687011 -1.45385 0
M  V30 21623 O 2087.27 -0.955305 -1.45669 0
M  V30 21624 C 2084.41 -1.96252 -2.78744 0
M  V30 21625 H 2085.6 -2.76302 -1.16608 0
M  V30 21626 H 2083.15 -1.45418 -0.572996 0
M  V30 21627 H 2083.89 -1.03688 -3.07277 0
M  V30 21628 H 2083.67 -2.78376 -2.76133 0
M  V30 21629 H 2085.16 -2.19144 -3.5548 0
M  V30 21630 N 2085.6 0.599608 -1.45748 0
M  V30 21631 C 2086.55 1.73095 -1.55374 0
M  V30 21632 C 2087.54 1.64028 -0.423205 0
M  V30 21633 O 2088.75 1.69726 -0.599429 0
M  V30 21634 H 2085.12 0.572 -0.48818 0
M  V30 21635 H 2087.09 1.62104 -2.50529 0
M  V30 21636 C 2085.84 3.1148 -1.54517 0
M  V30 21637 H 2085.17 3.19119 -2.40838 0
M  V30 21638 H 2086.61 3.90447 -1.65309 0
M  V30 21639 C 2085.06 3.35809 -0.270913 0
M  V30 21640 O 2085.59 3.96473 0.645927 0
M  V30 21641 N 2083.8 2.90136 -0.164103 0
M  V30 21642 H 2083.35 2.40951 -0.911075 0
M  V30 21643 H 2083.31 3.06788 0.687647 0
M  V30 21644 N 2087.08 1.33171 0.842803 0
M  V30 21645 C 2088.33 1.24159 1.59464 0
M  V30 21646 C 2088.65 -0.193595 1.94037 0
M  V30 21647 O 2087.92 -1.12135 1.60632 0
M  V30 21648 H 2086.5 0.456555 0.591241 0
M  V30 21649 H 2089.16 1.66842 1.00746 0
M  V30 21650 H 2088.25 1.83255 2.52634 0
M  V30 21651 N 2088.56 -1.06056 1.16576 0
M  V30 21652 C 2089.97 -1.31034 0.911171 0
M  V30 21653 C 2090.17 -1.96758 -0.434593 0
M  V30 21654 O 2089.23 -2.2357 -1.17357 0
M  V30 21655 C 2090.54 -2.18865 2.06201 0
M  V30 21656 C 2092.09 -2.32274 2.09804 0
M  V30 21657 C 2092.56 -3.23461 3.24248 0
M  V30 21658 N 2094.05 -3.31045 3.2398 0
M  V30 21659 C 2094.79 -4.01702 4.09174 0
M  V30 21660 N 2094.29 -4.7486 5.0446 0
M  V30 21661 N 2096.08 -3.97777 3.97153 0
M  V30 21662 H 2088.23 -0.617904 2.03213 0
M  V30 21663 H 2090.49 -0.335006 0.886834 0
M  V30 21664 H 2090.2 -1.77852 3.03417 0
M  V30 21665 H 2090.07 -3.19462 2.00559 0
M  V30 21666 H 2092.46 -2.72534 1.13179 0
M  V30 21667 H 2092.54 -1.31337 2.19509 0
M  V30 21668 H 2092.18 -2.83918 4.21133 0
M  V30 21669 H 2092.11 -4.24384 3.11779 0
M  V30 21670 H 2094.61 -2.78911 2.54984 0
M  V30 21671 H 2094.92 -5.26308 5.65879 0
M  V30 21672 H 2093.26 -4.73832 5.08437 0
M  V30 21673 H 2096.45 -3.39743 3.22013 0
M  V30 21674 H 2096.63 -4.52574 4.63768 0
M  V30 21675 N 2090.03 -0.964615 -1.24631 0
M  V30 21676 C 2091 -0.497206 -2.23742 0
M  V30 21677 C 2092 0.404569 -1.55627 0
M  V30 21678 O 2093.19 0.200461 -1.73043 0
M  V30 21679 C 2090.32 0.280348 -3.39745 0
M  V30 21680 H 2091.51 -1.37334 -2.66607 0
M  V30 21681 H 2089.06 -0.748889 -1.37191 0
M  V30 21682 H 2089.8 1.17372 -3.02315 0
M  V30 21683 H 2089.58 -0.366741 -3.90381 0
M  V30 21684 H 2091.07 0.596501 -4.13318 0
M  V30 21685 N 2091.51 1.39445 -0.734362 0
M  V30 21686 C 2092.76 2.0013 -0.281468 0
M  V30 21687 C 2093.08 1.58562 1.13504 0
M  V30 21688 O 2092.35 0.833568 1.77281 0
M  V30 21689 H 2090.93 0.74013 -0.101076 0
M  V30 21690 H 2093.59 1.70503 -0.944178 0
M  V30 21691 H 2092.69 3.10357 -0.329356 0
M  V30 21692 N 2092.99 0.481946 1.5005 0
M  V30 21693 C 2093.9 -0.311606 2.32521 0
M  V30 21694 C 2094.92 -0.985661 1.4339 0
M  V30 21695 O 2096.09 -0.971246 1.76433 0
M  V30 21696 C 2093.16 -1.37313 3.18349 0
M  V30 21697 C 2092.22 -0.714526 4.23312 0
M  V30 21698 C 2091.45 -1.72547 5.05038 0
M  V30 21699 O 2091.67 -2.95324 4.87996 0
M  V30 21700 O 2090.61 -1.2913 5.87885 0
M  V30 21701 H 2094.43 0.362909 3.01524 0
M  V30 21702 H 2092.02 0.243598 1.47401 0
M  V30 21703 H 2093.9 -1.98774 3.71573 0
M  V30 21704 H 2092.58 -2.03091 2.52063 0
M  V30 21705 H 2091.48 -0.0606687 3.74051 0
M  V30 21706 H 2092.82 -0.099506 4.92099 0
M  V30 21707 N 2094.47 -1.56127 0.214985 0
M  V30 21708 C 2095.88 -1.5898 -0.140524 0
M  V30 21709 C 2096.08 -1.23166 -1.59475 0
M  V30 21710 O 2095.14 -0.963792 -2.33382 0
M  V30 21711 C 2096.45 -3.00162 0.179827 0
M  V30 21712 C 2098 -3.12764 0.121534 0
M  V30 21713 C 2098.48 -4.56112 0.415468 0
M  V30 21714 N 2099.97 -4.61761 0.364801 0
M  V30 21715 C 2100.7 -5.70602 0.565817 0
M  V30 21716 N 2100.2 -6.87831 0.828254 0
M  V30 21717 N 2101.99 -5.59883 0.498704 0
M  V30 21718 H 2094.14 -1.77683 1.16372 0
M  V30 21719 H 2096.4 -0.825579 0.465964 0
M  V30 21720 H 2096.11 -3.30995 1.1889 0
M  V30 21721 H 2095.98 -3.7376 -0.508279 0
M  V30 21722 H 2098.37 -2.81731 -0.878172 0
M  V30 21723 H 2098.45 -2.4151 0.843017 0
M  V30 21724 H 2098.1 -4.87861 1.41258 0
M  V30 21725 H 2098.03 -5.25583 -0.327132 0
M  V30 21726 H 2100.52 -3.7752 0.169387 0
M  V30 21727 H 2100.83 -7.66689 0.969914 0
M  V30 21728 H 2099.18 -6.89591 0.865375 0
M  V30 21729 H 2102.37 -4.67176 0.293953 0
M  V30 21730 H 2102.54 -6.44643 0.658773 0
M  V30 21731 N 2095.95 0.0584645 -1.57492 0
M  V30 21732 C 2097.19 0.755071 -1.87896 0
M  V30 21733 C 2097.52 1.769 -0.808499 0
M  V30 21734 O 2096.78 1.94736 0.194028 0
M  V30 21735 C 2097.07 1.48699 -3.24998 0
M  V30 21736 C 2096.74 0.611806 -4.4673 0
M  V30 21737 C 2095.4 0.370663 -4.7977 0
M  V30 21738 C 2097.75 0.00576081 -5.212 0
M  V30 21739 C 2095.08 -0.485786 -5.84685 0
M  V30 21740 C 2097.43 -0.838219 -6.27022 0
M  V30 21741 C 2096.1 -1.08911 -6.58555 0
M  V30 21742 H 2095.37 0.2763 -0.68756 0
M  V30 21743 H 2098.02 0.0155215 -1.91494 0
M  V30 21744 H 2096.32 2.2991 -3.17252 0
M  V30 21745 H 2098.02 2.03101 -3.45761 0
M  V30 21746 H 2094.61 0.809892 -4.20878 0
M  V30 21747 H 2098.79 0.179152 -4.95977 0
M  V30 21748 H 2094.05 -0.688773 -6.07508 0
M  V30 21749 H 2098.22 -1.31449 -6.83882 0
M  V30 21750 H 2095.85 -1.7545 -7.39676 0
M  V30 21751 N 2097.42 1.54103 0.330149 0
M  V30 21752 C 2098.39 1.82317 1.389 0
M  V30 21753 C 2099.39 0.694711 1.45019 0
M  V30 21754 O 2100.58 0.963016 1.45161 0
M  V30 21755 C 2097.71 1.97727 2.77699 0
M  V30 21756 H 2098.9 2.76916 1.15141 0
M  V30 21757 H 2096.45 1.4572 0.565276 0
M  V30 21758 H 2097.19 1.05316 3.06723 0
M  V30 21759 H 2096.97 2.79837 2.74652 0
M  V30 21760 H 2098.46 2.21026 3.54313 0
M  V30 21761 N 2098.9 -0.59187 1.46064 0
M  V30 21762 C 2100.15 -1.3524 1.51122 0
M  V30 21763 C 2100.48 -1.93551 0.158686 0
M  V30 21764 O 2099.76 -1.75958 -0.828798 0
M  V30 21765 C 2100.04 -2.48861 2.6027 0
M  V30 21766 C 2099.89 -1.95645 4.05023 0
M  V30 21767 C 2101.21 -3.50941 2.65572 0
M  V30 21768 H 2098.33 -0.49038 0.550179 0
M  V30 21769 H 2100.97 -0.66575 1.77954 0
M  V30 21770 H 2099.12 -3.07434 2.37521 0
M  V30 21771 H 2100.79 -1.41599 4.3903 0
M  V30 21772 H 2099.04 -1.26535 4.14935 0
M  V30 21773 H 2099.71 -2.77621 4.77107 0
M  V30 21774 H 2102.18 -3.02233 2.85997 0
M  V30 21775 H 2101.06 -4.27911 3.43779 0
M  V30 21776 H 2101.32 -4.07578 1.71267 0
M  V30 21777 N 2100.38 -1.33616 -0.835729 0
M  V30 21778 C 2101.8 -1.13019 -1.12689 0
M  V30 21779 C 2102 0.0768335 -2.01353 0
M  V30 21780 O 2101.05 0.756169 -2.40911 0
M  V30 21781 C 2102.37 -2.41918 -1.78595 0
M  V30 21782 C 2103.91 -2.47854 -1.91147 0
M  V30 21783 C 2104.39 -3.76723 -2.60469 0
M  V30 21784 N 2105.88 -3.77811 -2.67979 0
M  V30 21785 C 2106.61 -4.74237 -3.22315 0
M  V30 21786 N 2106.11 -5.81039 -3.77313 0
M  V30 21787 N 2107.9 -4.61709 -3.20596 0
M  V30 21788 H 2100.05 -2.10974 -0.245697 0
M  V30 21789 H 2102.32 -0.932353 -0.171526 0
M  V30 21790 H 2102.02 -3.30264 -1.20906 0
M  V30 21791 H 2101.9 -2.54302 -2.78586 0
M  V30 21792 H 2104.28 -1.59955 -2.47989 0
M  V30 21793 H 2104.37 -2.39408 -0.900965 0
M  V30 21794 H 2104.01 -4.65005 -2.04286 0
M  V30 21795 H 2103.94 -3.82447 -3.61998 0
M  V30 21796 H 2106.43 -3.00626 -2.28982 0
M  V30 21797 H 2106.74 -6.50648 -4.16986 0
M  V30 21798 H 2105.09 -5.8477 -3.75592 0
M  V30 21799 H 2108.28 -3.77426 -2.76888 0
M  V30 21800 H 2108.45 -5.37026 -3.62639 0
M  V30 21801 N 2101.86 1.05436 -1.17136 0
M  V30 21802 C 2102.81 2.1523 -0.881986 0
M  V30 21803 C 2103.8 1.68713 0.152395 0
M  V30 21804 O 2105.01 1.79999 0.00555059 0
M  V30 21805 H 2101.38 0.702752 -0.267664 0
M  V30 21806 H 2103.35 2.36842 -1.81517 0
M  V30 21807 C 2102.1 3.45286 -0.409046 0
M  V30 21808 H 2101.42 3.81478 -1.19644 0
M  V30 21809 H 2102.86 4.23289 -0.245428 0
M  V30 21810 C 2101.32 3.25396 0.872886 0
M  V30 21811 O 2101.85 3.51736 1.94023 0
M  V30 21812 N 2100.06 2.78789 0.820065 0
M  V30 21813 H 2099.61 2.57554 -0.0487256 0
M  V30 21814 H 2099.56 2.65861 1.67826 0
M  V30 21815 N 2103.34 0.971211 1.24118 0
M  V30 21816 C 2104.56 0.652357 1.96873 0
M  V30 21817 C 2104.99 -0.772193 1.71519 0
M  V30 21818 O 2104.34 -1.52463 0.981051 0
M  V30 21819 C 2104.39 0.937388 3.48203 0
M  V30 21820 O 2103.5 0.0246311 4.12393 0
M  V30 21821 H 2102.84 0.246274 0.61664 0
M  V30 21822 H 2105.37 1.30231 1.578 0
M  V30 21823 H 2105.38 0.870349 3.98609 0
M  V30 21824 H 2104.05 1.97556 3.65984 0
M  V30 21825 H 2102.63 0.145292 3.72617 0
M  V30 21826 N 2104.81 -1.39054 0.741747 0
M  V30 21827 C 2106.06 -2.00671 0.293089 0
M  V30 21828 C 2106.39 -1.58733 -1.11882 0
M  V30 21829 O 2105.67 -0.819335 -1.76401 0
M  V30 21830 C 2105.95 -3.57843 0.402573 0
M  V30 21831 C 2105.8 -4.0978 1.85474 0
M  V30 21832 C 2107.12 -4.39594 -0.211039 0
M  V30 21833 H 2104.24 -0.729048 0.10797 0
M  V30 21834 H 2106.88 -1.65165 0.939169 0
M  V30 21835 H 2105.03 -3.8822 -0.147482 0
M  V30 21836 H 2106.71 -3.90095 2.46219 0
M  V30 21837 H 2104.95 -3.63088 2.3738 0
M  V30 21838 H 2105.62 -5.18906 1.88257 0
M  V30 21839 H 2108.1 -4.153 0.257937 0
M  V30 21840 H 2106.97 -5.48801 -0.104126 0
M  V30 21841 H 2107.23 -4.22618 -1.29792 0
M  V30 21842 N 2106.29 -0.489897 -1.49792 0
M  V30 21843 C 2107.54 0.0584284 -2.02016 0
M  V30 21844 C 2107.86 1.38507 -1.37262 0
M  V30 21845 O 2107.13 1.88757 -0.524191 0
M  V30 21846 H 2105.71 0.0245828 -0.746595 0
M  V30 21847 H 2108.37 -0.644608 -1.83932 0
M  V30 21848 H 2107.47 0.196227 -3.11483 0
M  V30 21849 N 2107.77 1.56011 -0.223262 0
M  V30 21850 C 2108.72 2.20365 0.686157 0
M  V30 21851 C 2109.69 1.15978 1.18905 0
M  V30 21852 O 2110.87 1.44339 1.24783 0
M  V30 21853 C 2108.01 2.88879 1.88793 0
M  V30 21854 C 2107.13 4.07863 1.42378 0
M  V30 21855 C 2106.26 4.64156 2.58326 0
M  V30 21856 C 2105.3 5.75438 2.08656 0
M  V30 21857 N 2104.44 6.26015 3.17883 0
M  V30 21858 H 2109.28 2.97713 0.130656 0
M  V30 21859 H 2106.81 1.47005 0.0527363 0
M  V30 21860 H 2108.77 3.26788 2.59356 0
M  V30 21861 H 2107.4 2.14045 2.41629 0
M  V30 21862 H 2106.45 3.75428 0.613024 0
M  V30 21863 H 2107.77 4.88268 1.01958 0
M  V30 21864 H 2106.92 5.04517 3.36968 0
M  V30 21865 H 2105.66 3.82918 3.02035 0
M  V30 21866 H 2104.66 5.34578 1.28476 0
M  V30 21867 H 2105.89 6.58513 1.65944 0
M  V30 21868 H 2103.83 5.4769 3.61071 0
M  V30 21869 H 2103.75 7.01548 2.8172 0
M  V30 21870 H 2105.02 6.71033 3.96655 0
M  V30 21871 N 2109.25 -0.0501116 1.5752 0
M  V30 21872 C 2110.21 -1.0417 2.0416 0
M  V30 21873 C 2111.21 -1.30309 0.942133 0
M  V30 21874 O 2112.4 -1.25665 1.20639 0
M  V30 21875 C 2109.53 -2.37997 2.4407 0
M  V30 21876 H 2110.73 -0.639249 2.93008 0
M  V30 21877 H 2108.28 -0.296417 1.53464 0
M  V30 21878 H 2109.01 -2.83032 1.58314 0
M  V30 21879 H 2108.8 -2.2036 3.2432 0
M  V30 21880 H 2110.29 -3.09229 2.80654 0
M  V30 21881 N 2110.73 -1.54276 -0.321972 0
M  V30 21882 C 2111.97 -1.72813 -1.0613 0
M  V30 21883 C 2112.31 -0.501222 -1.8762 0
M  V30 21884 O 2111.58 0.501806 -1.87915 0
M  V30 21885 C 2111.86 -3.00469 -1.9847 0
M  V30 21886 C 2111.72 -4.33415 -1.20299 0
M  V30 21887 C 2113.04 -3.23886 -2.97969 0
M  V30 21888 H 2110.15 -0.628793 -0.384432 0
M  V30 21889 H 2112.8 -1.86973 -0.337811 0
M  V30 21890 H 2110.95 -2.88528 -2.60161 0
M  V30 21891 H 2112.62 -4.57242 -0.610559 0
M  V30 21892 H 2110.86 -4.30847 -0.505293 0
M  V30 21893 H 2111.53 -5.18959 -1.8811 0
M  V30 21894 H 2114.01 -3.353 -2.46401 0
M  V30 21895 H 2112.88 -4.14562 -3.59763 0
M  V30 21896 H 2113.15 -2.4119 -3.70513 0
M  V30 21897 N 2112.2 0.584116 -1.46376 0
M  V30 21898 C 2113.45 1.33858 -1.5088 0
M  V30 21899 C 2113.77 1.94909 -0.164319 0
M  V30 21900 O 2114.97 2.7136 -0.0871554 0
M  V30 21901 C 2113.43 2.42594 -2.6585 0
M  V30 21902 C 2113.04 1.87853 -4.06713 0
M  V30 21903 C 2114.78 3.19391 -2.79624 0
M  V30 21904 C 2112.69 2.94209 -5.13026 0
M  V30 21905 H 2111.62 0.503207 -0.561515 0
M  V30 21906 H 2114.27 0.623507 -1.72582 0
M  V30 21907 H 2112.65 3.16894 -2.37475 0
M  V30 21908 H 2113.82 1.20105 -4.44872 0
M  V30 21909 H 2112.14 1.23726 -3.97594 0
M  V30 21910 H 2114.74 3.98763 -3.56219 0
M  V30 21911 H 2115.08 3.71891 -1.8709 0
M  V30 21912 H 2115.61 2.52197 -3.07638 0
M  V30 21913 H 2112.35 2.46598 -6.07347 0
M  V30 21914 H 2111.87 3.6045 -4.79412 0
M  V30 21915 H 2113.55 3.58184 -5.38807 0
M  V30 21916 N 2113.68 1.34058 0.828631 0
M  V30 21917 C 2114.59 1.27222 1.97109 0
M  V30 21918 C 2115.61 0.180917 1.73057 0
M  V30 21919 O 2116.79 0.406362 1.97258 0
M  V30 21920 C 2113.85 1.0218 3.31301 0
M  V30 21921 C 2112.91 2.2041 3.68399 0
M  V30 21922 C 2112.14 1.96553 4.96188 0
M  V30 21923 O 2112.37 0.920931 5.62917 0
M  V30 21924 O 2111.3 2.83356 5.3103 0
M  V30 21925 H 2115.13 2.23322 2.05818 0
M  V30 21926 H 2112.71 1.14206 0.963184 0
M  V30 21927 H 2114.59 0.899718 4.11683 0
M  V30 21928 H 2113.27 0.0911525 3.23572 0
M  V30 21929 H 2112.18 2.38176 2.88484 0
M  V30 21930 H 2113.51 3.11845 3.80807 0
M  V30 21931 N 2115.16 -1.04814 1.17694 0
M  V30 21932 C 2116.41 -1.77532 0.96576 0
M  V30 21933 C 2116.73 -1.88306 -0.506545 0
M  V30 21934 O 2116 -1.40259 -1.36763 0
M  V30 21935 H 2114.58 -0.657613 0.354336 0
M  V30 21936 H 2117.24 -1.26536 1.48239 0
M  V30 21937 H 2116.34 -2.79071 1.39735 0
M  V30 21938 N 2116.64 -0.977779 -1.23601 0
M  V30 21939 C 2117.6 -0.520908 -2.23202 0
M  V30 21940 C 2118.6 0.38804 -1.56048 0
M  V30 21941 O 2119.79 0.182096 -1.73246 0
M  V30 21942 C 2116.92 0.244298 -3.40024 0
M  V30 21943 H 2118.12 -1.40154 -2.65135 0
M  V30 21944 H 2115.67 -0.763397 -1.36389 0
M  V30 21945 H 2116.41 1.14159 -3.03543 0
M  V30 21946 H 2116.19 -0.408125 -3.8997 0
M  V30 21947 H 2117.68 0.55263 -4.13927 0
M  V30 21948 N 2118.12 1.38658 -0.749111 0
M  V30 21949 C 2119.37 1.99821 -0.302678 0
M  V30 21950 C 2119.69 1.59757 1.11816 0
M  V30 21951 O 2118.96 0.852324 1.76387 0
M  V30 21952 H 2117.54 0.739016 -0.108921 0
M  V30 21953 H 2120.2 1.69492 -0.962209 0
M  V30 21954 H 2119.29 3.09991 -0.362255 0
M  V30 21955 N 2119.6 0.497834 1.49531 0
M  V30 21956 C 2120.87 -0.110673 1.95287 0
M  V30 21957 C 2121.25 -1.54433 1.43923 0
M  V30 21958 O 2120.6 -2.19012 0.651616 0
M  V30 21959 C 2120.81 -0.0265636 3.4899 0
M  V30 21960 C 2122.16 -0.202082 4.24119 0
M  V30 21961 O 2123.18 -0.1019 3.56054 0
M  V30 21962 O 2122.04 -0.407373 5.4498 0
M  V30 21963 H 2119.14 -0.0970406 0.821287 0
M  V30 21964 H 2121.68 0.560146 1.60189 0
M  V30 21965 H 2120.45 0.973355 3.79001 0
M  V30 21966 H 2120.08 -0.737668 3.90697 0
M  V30 21967 N 2121.07 -1.5589 0.231532 0
M  V30 21968 C 2122.02 -2.1737 -0.68805 0
M  V30 21969 C 2123.01 -1.12497 -1.15036 0
M  V30 21970 O 2124.2 -1.38455 -1.10269 0
M  V30 21971 C 2121.33 -2.86487 -1.89156 0
M  V30 21972 C 2120.41 -3.98598 -1.44847 0
M  V30 21973 N 2120.81 -5.00669 -0.718604 0
M  V30 21974 C 2119.1 -4.1087 -1.73498 0
M  V30 21975 C 2119.8 -5.79622 -0.491271 0
M  V30 21976 N 2118.78 -5.33344 -1.05094 0
M  V30 21977 H 2122.58 -2.93646 -0.122095 0
M  V30 21978 H 2120.1 -1.62366 0.0332002 0
M  V30 21979 H 2122.09 -3.2895 -2.5612 0
M  V30 21980 H 2120.75 -2.1171 -2.46189 0
M  V30 21981 H 2121.76 -5.16575 -0.370268 0
M  V30 21982 H 2118.44 -3.47253 -2.31779 0
M  V30 21983 H 2119.83 -6.71839 0.0903336 0
M  V30 21984 N 2122.55 0.0417572 -1.57545 0
M  V30 21985 C 2123.79 0.740092 -1.90531 0
M  V30 21986 C 2124.16 1.73194 -0.828727 0
M  V30 21987 O 2125.36 2.47759 -1.04254 0
M  V30 21988 C 2123.63 1.40329 -3.28698 0
M  V30 21989 S 2125.19 2.13254 -3.83495 0
M  V30 21990 H 2122 0.245468 -0.667283 0
M  V30 21991 H 2124.61 -0.00488991 -1.95499 0
M  V30 21992 H 2123.31 0.668013 -4.04927 0
M  V30 21993 H 2122.84 2.18709 -3.27002 0
M  V30 21994 H 2124.86 3.4022 -3.61199 0
M  V30 21995 N 2124.03 1.54445 0.313786 0
M  V30 21996 C 2125.27 1.74847 1.05867 0
M  V30 21997 C 2125.63 0.516479 1.84923 0
M  V30 21998 O 2126.83 0.598017 2.62063 0
M  V30 21999 C 2125.11 2.99452 1.95099 0
M  V30 22000 S 2126.66 3.40801 2.76406 0
M  V30 22001 H 2123.48 0.614731 0.35725 0
M  V30 22002 H 2126.08 1.92634 0.33353 0
M  V30 22003 H 2124.79 3.87255 1.35873 0
M  V30 22004 H 2124.32 2.84216 2.72002 0
M  V30 22005 H 2126.33 2.96867 3.97598 0
M  V30 22006 N 2125.51 -0.576345 1.46683 0
M  V30 22007 C 2126.42 -1.71268 1.60326 0
M  V30 22008 C 2127.43 -1.67059 0.486559 0
M  V30 22009 O 2128.61 -1.86852 0.75154 0
M  V30 22010 C 2125.67 -3.07775 1.5961 0
M  V30 22011 C 2124.74 -3.232 2.8256 0
M  V30 22012 C 2123.97 -4.53195 2.81869 0
M  V30 22013 O 2124.19 -5.37478 1.90979 0
M  V30 22014 O 2123.13 -4.72003 3.73493 0
M  V30 22015 H 2126.95 -1.62705 2.56439 0
M  V30 22016 H 2124.54 -0.744135 1.29549 0
M  V30 22017 H 2126.42 -3.89046 1.61929 0
M  V30 22018 H 2125.09 -3.16762 0.666583 0
M  V30 22019 H 2124 -2.41398 2.85793 0
M  V30 22020 H 2125.33 -3.19107 3.74742 0
M  V30 22021 N 2126.99 -1.34495 -0.82151 0
M  V30 22022 C 2128.22 -1.29823 -1.60716 0
M  V30 22023 C 2128.62 0.129564 -1.88756 0
M  V30 22024 O 2127.97 1.0875 -1.48051 0
M  V30 22025 C 2128.03 -2.02237 -2.97221 0
M  V30 22026 C 2127.69 -3.51489 -2.92069 0
M  V30 22027 C 2128.69 -4.46369 -2.66554 0
M  V30 22028 C 2126.37 -3.93923 -3.11657 0
M  V30 22029 C 2128.37 -5.81657 -2.6068 0
M  V30 22030 C 2126.06 -5.2931 -3.05408 0
M  V30 22031 C 2127.05 -6.22989 -2.79953 0
M  V30 22032 O 2126.74 -7.55895 -2.73638 0
M  V30 22033 H 2126.47 -0.44801 -0.506225 0
M  V30 22034 H 2129.03 -1.77704 -1.03008 0
M  V30 22035 H 2127.26 -1.48972 -3.56853 0
M  V30 22036 H 2128.95 -1.90836 -3.58241 0
M  V30 22037 H 2129.71 -4.14905 -2.51155 0
M  V30 22038 H 2125.59 -3.21403 -3.30486 0
M  V30 22039 H 2129.14 -6.54747 -2.40732 0
M  V30 22040 H 2125.03 -5.60392 -3.20361 0
M  V30 22041 H 2125.8 -7.65647 -2.89355 0
M  V30 22042 N 2128.46 1.04188 -1.18248 0
M  V30 22043 C 2129.4 2.11707 -0.851784 0
M  V30 22044 C 2130.38 1.61536 0.185734 0
M  V30 22045 O 2131.56 1.88388 0.0649765 0
M  V30 22046 C 2128.69 3.37603 -0.272436 0
M  V30 22047 C 2127.73 4.0662 -1.28694 0
M  V30 22048 S 2128.57 4.53841 -2.84234 0
M  V30 22049 C 2129.72 5.82971 -2.27807 0
M  V30 22050 H 2129.95 2.39432 -1.76237 0
M  V30 22051 H 2127.49 1.16938 -1.00821 0
M  V30 22052 H 2129.45 4.10463 0.0553219 0
M  V30 22053 H 2128.11 3.07995 0.616252 0
M  V30 22054 H 2127.3 4.97111 -0.830431 0
M  V30 22055 H 2126.9 3.39872 -1.56087 0
M  V30 22056 H 2129.19 6.56851 -1.6599 0
M  V30 22057 H 2130.14 6.33383 -3.16593 0
M  V30 22058 H 2130.54 5.38017 -1.70873 0
M  V30 22059 N 2129.94 0.98432 1.23081 0
M  V30 22060 C 2131.17 0.673535 1.9563 0
M  V30 22061 C 2131.59 -0.760222 1.72818 0
M  V30 22062 O 2130.94 -1.51201 1.02198 0
M  V30 22063 C 2130.99 0.959283 3.4854 0
M  V30 22064 O 2130.71 2.33669 3.70581 0
M  V30 22065 C 2132.22 0.664998 4.38284 0
M  V30 22066 H 2129.44 0.249871 0.62274 0
M  V30 22067 H 2131.98 1.31677 1.56466 0
M  V30 22068 H 2130.13 0.361997 3.85705 0
M  V30 22069 H 2130.55 2.42938 4.64846 0
M  V30 22070 H 2132.02 0.915271 5.44359 0
M  V30 22071 H 2132.5 -0.400961 4.37366 0
M  V30 22072 H 2133.11 1.24294 4.06732 0
M  V30 22073 N 2131.42 -1.38259 0.756453 0
M  V30 22074 C 2132.67 -1.99657 0.313271 0
M  V30 22075 C 2132.99 -1.60347 -1.10967 0
M  V30 22076 O 2132.26 -0.861667 -1.75932 0
M  V30 22077 H 2130.84 -0.738428 0.112838 0
M  V30 22078 H 2133.5 -1.68979 0.971184 0
M  V30 22079 H 2132.6 -3.09794 0.378689 0
M  V30 22080 N 2132.9 -0.505757 -1.49264 0
M  V30 22081 C 2134.15 0.0369987 -2.02066 0
M  V30 22082 C 2134.47 1.37044 -1.38723 0
M  V30 22083 O 2133.74 1.8819 -0.544182 0
M  V30 22084 H 2132.32 0.0166628 -0.746814 0
M  V30 22085 H 2134.98 -0.66408 -1.83238 0
M  V30 22086 H 2134.08 0.163179 -3.11673 0
M  V30 22087 N 2134.38 1.55765 -0.239796 0
M  V30 22088 C 2135.62 1.99064 0.387489 0
M  V30 22089 C 2135.96 1.12765 1.58107 0
M  V30 22090 O 2135.23 0.189423 1.93575 0
M  V30 22091 C 2135.51 3.51003 0.80429 0
M  V30 22092 C 2135.37 4.48069 -0.394185 0
M  V30 22093 C 2136.69 4.07842 1.65386 0
M  V30 22094 H 2133.8 0.723702 0.139371 0
M  V30 22095 H 2136.45 1.86939 -0.339685 0
M  V30 22096 H 2134.6 3.61466 1.42388 0
M  V30 22097 H 2136.27 4.49595 -1.03255 0
M  V30 22098 H 2134.51 4.21186 -1.03852 0
M  V30 22099 H 2135.18 5.51968 -0.0593288 0
M  V30 22100 H 2137.66 4.00437 1.13092 0
M  V30 22101 H 2136.53 5.14435 1.91436 0
M  V30 22102 H 2136.8 3.55856 2.62333 0
M  V30 22103 N 2135.85 -0.0334016 1.57565 0
M  V30 22104 C 2137.1 -0.724102 1.88254 0
M  V30 22105 C 2137.42 -1.76752 0.837737 0
M  V30 22106 O 2138.62 -2.51051 1.03372 0
M  V30 22107 C 2137.08 -1.33894 3.34067 0
M  V30 22108 C 2136.69 -0.332091 4.46767 0
M  V30 22109 C 2138.43 -2.00977 3.7391 0
M  V30 22110 C 2136.34 -0.955024 5.83638 0
M  V30 22111 H 2135.27 -0.274201 0.702375 0
M  V30 22112 H 2137.92 0.0216608 1.83487 0
M  V30 22113 H 2136.3 -2.13426 3.33565 0
M  V30 22114 H 2137.47 0.436205 4.58731 0
M  V30 22115 H 2135.79 0.236407 4.15728 0
M  V30 22116 H 2138.39 -2.48428 4.73485 0
M  V30 22117 H 2138.73 -2.82605 3.05679 0
M  V30 22118 H 2139.26 -1.28225 3.76568 0
M  V30 22119 H 2136 -0.178244 6.55258 0
M  V30 22120 H 2135.52 -1.69326 5.75403 0
M  V30 22121 H 2137.2 -1.46364 6.30227 0
M  V30 22122 N 2137.33 -1.54609 -0.305591 0
M  V30 22123 C 2138.58 -1.73929 -1.04291 0
M  V30 22124 C 2138.91 -0.521093 -1.87078 0
M  V30 22125 O 2138.19 0.481847 -1.88437 0
M  V30 22126 C 2138.47 -3.02557 -1.95272 0
M  V30 22127 C 2138.32 -4.34666 -1.15695 0
M  V30 22128 C 2139.64 -3.27028 -2.94517 0
M  V30 22129 H 2136.76 -0.632835 -0.377741 0
M  V30 22130 H 2139.4 -1.87321 -0.317961 0
M  V30 22131 H 2137.55 -2.91271 -2.57087 0
M  V30 22132 H 2139.22 -4.57863 -0.562028 0
M  V30 22133 H 2137.47 -4.31359 -0.459568 0
M  V30 22134 H 2138.14 -5.20925 -1.82595 0
M  V30 22135 H 2140.61 -3.37894 -2.42831 0
M  V30 22136 H 2139.49 -4.18355 -3.55346 0
M  V30 22137 H 2139.75 -2.45106 -3.67934 0
M  V30 22138 N 2138.81 0.568558 -1.46987 0
M  V30 22139 C 2140.06 1.32819 -1.53255 0
M  V30 22140 C 2140.39 1.93274 -0.189458 0
M  V30 22141 O 2139.66 1.77254 0.800699 0
M  V30 22142 C 2139.95 2.44688 -2.64196 0
M  V30 22143 C 2139.8 1.89176 -4.08084 0
M  V30 22144 C 2141.12 3.46671 -2.71122 0
M  V30 22145 H 2138.24 0.481565 -0.557911 0
M  V30 22146 H 2140.88 0.637355 -1.78991 0
M  V30 22147 H 2139.03 3.03617 -2.42382 0
M  V30 22148 H 2140.7 1.34596 -4.41227 0
M  V30 22149 H 2138.95 1.19918 -4.16896 0
M  V30 22150 H 2139.62 2.69995 -4.81463 0
M  V30 22151 H 2142.09 2.97645 -2.90769 0
M  V30 22152 H 2140.97 4.22387 -3.50543 0
M  V30 22153 H 2141.23 4.04802 -1.7773 0
M  V30 22154 N 2140.29 1.34929 0.814366 0
M  V30 22155 C 2141.22 1.29866 1.94055 0
M  V30 22156 C 2142.2 0.174504 1.69203 0
M  V30 22157 O 2143.38 0.368232 1.90677 0
M  V30 22158 C 2140.51 1.06201 3.30664 0
M  V30 22159 C 2139.47 2.15174 3.69978 0
M  V30 22160 C 2138.79 1.76686 5.04664 0
M  V30 22161 C 2140.09 3.57077 3.81174 0
M  V30 22162 H 2141.79 2.24095 1.98549 0
M  V30 22163 H 2139.33 1.07877 0.953865 0
M  V30 22164 H 2141.29 1.01301 4.09043 0
M  V30 22165 H 2140.01 0.0841549 3.26492 0
M  V30 22166 H 2138.67 2.19158 2.9388 0
M  V30 22167 H 2138.32 0.775388 4.96988 0
M  V30 22168 H 2138.02 2.49628 5.3194 0
M  V30 22169 H 2139.54 1.73297 5.85492 0
M  V30 22170 H 2140.96 3.55458 4.49803 0
M  V30 22171 H 2139.35 4.28713 4.19911 0
M  V30 22172 H 2140.42 3.93795 2.82937 0
M  V30 22173 N 2141.77 -1.0356 1.18799 0
M  V30 22174 C 2143.01 -1.76497 0.984535 0
M  V30 22175 C 2143.34 -1.88833 -0.486544 0
M  V30 22176 O 2142.61 -1.41702 -1.35268 0
M  V30 22177 H 2141.19 -0.653818 0.36129 0
M  V30 22178 H 2143.85 -1.24956 1.49573 0
M  V30 22179 H 2142.94 -2.77573 1.42687 0
M  V30 22180 N 2143.25 -0.990834 -1.22557 0
M  V30 22181 C 2144.66 -0.700966 -1.73042 0
M  V30 22182 C 2145.01 0.782283 -1.7993 0
M  V30 22183 O 2144.13 1.61158 -1.4442 0
M  V30 22184 C 2144.73 -1.26574 -3.14268 0
M  V30 22185 C 2143.29 -1.0253 -3.62167 0
M  V30 22186 C 2142.43 -1.38718 -2.4011 0
M  V30 22187 H 2145.38 -1.16344 -1.07934 0
M  V30 22188 H 2145.41 -0.643298 -3.75023 0
M  V30 22189 H 2144.92 -2.34527 -3.09222 0
M  V30 22190 H 2143.02 0.0376973 -3.72581 0
M  V30 22191 H 2143.13 -1.68722 -4.48408 0
M  V30 22192 H 2141.5 -0.805751 -2.41619 0
M  V30 22193 H 2142.28 -2.47671 -2.37727 0
M  V30 22194 N 2144.72 1.37856 -0.763775 0
M  V30 22195 C 2145.97 2.00179 -0.324977 0
M  V30 22196 C 2146.3 1.60492 1.09343 0
M  V30 22197 O 2145.58 0.847295 1.75075 0
M  V30 22198 C 2145.86 3.57157 -0.459452 0
M  V30 22199 C 2145.71 4.06777 -1.9197 0
M  V30 22200 C 2147.03 4.39874 0.141077 0
M  V30 22201 H 2144.15 0.727238 -0.119555 0
M  V30 22202 H 2146.79 1.6365 -0.965327 0
M  V30 22203 H 2144.94 3.88405 0.0857008 0
M  V30 22204 H 2146.62 3.86128 -2.52394 0
M  V30 22205 H 2144.86 3.59266 -2.43127 0
M  V30 22206 H 2145.53 5.15845 -1.96489 0
M  V30 22207 H 2148.01 4.14837 -0.323975 0
M  V30 22208 H 2146.88 5.48897 0.0168029 0
M  V30 22209 H 2147.14 4.2463 1.23052 0
M  V30 22210 N 2146.2 0.513665 1.48994 0
M  V30 22211 C 2147.45 -0.0262821 2.02083 0
M  V30 22212 C 2147.77 -1.36306 1.39448 0
M  V30 22213 O 2147.04 -1.87899 0.554154 0
M  V30 22214 H 2145.62 -0.012702 0.746892 0
M  V30 22215 H 2148.28 0.673788 1.82883 0
M  V30 22216 H 2147.38 -0.146648 3.11755 0
M  V30 22217 N 2147.68 -1.55636 0.248053 0
M  V30 22218 C 2149.1 -1.59242 -0.10677 0
M  V30 22219 C 2149.3 -1.26521 -1.56827 0
M  V30 22220 O 2148.35 -1.01308 -2.31285 0
M  V30 22221 C 2149.66 -2.99713 0.243455 0
M  V30 22222 C 2151.21 -3.12436 0.187848 0
M  V30 22223 C 2151.69 -4.55128 0.512122 0
M  V30 22224 N 2153.18 -4.60884 0.462665 0
M  V30 22225 C 2153.91 -5.69273 0.686723 0
M  V30 22226 N 2153.41 -6.8592 0.973967 0
M  V30 22227 N 2155.2 -5.587 0.617351 0
M  V30 22228 H 2147.35 -1.75175 1.20114 0
M  V30 22229 H 2149.62 -0.81551 0.483371 0
M  V30 22230 H 2149.32 -3.28399 1.25884 0
M  V30 22231 H 2149.2 -3.74754 -0.428884 0
M  V30 22232 H 2151.58 -2.8353 -0.818215 0
M  V30 22233 H 2151.66 -2.39667 0.894055 0
M  V30 22234 H 2151.31 -4.84755 1.51575 0
M  V30 22235 H 2151.24 -5.26159 -0.215575 0
M  V30 22236 H 2153.73 -3.77076 0.249427 0
M  V30 22237 H 2154.04 -7.64459 1.13232 0
M  V30 22238 H 2152.39 -6.87601 1.01145 0
M  V30 22239 H 2155.58 -4.66447 0.392982 0
M  V30 22240 H 2155.75 -6.431 0.795363 0
M  V30 22241 N 2149.16 0.0250451 -1.5758 0
M  V30 22242 C 2150.11 1.04281 -2.07914 0
M  V30 22243 C 2151.1 1.37188 -0.993769 0
M  V30 22244 O 2152.31 1.36046 -1.17862 0
M  V30 22245 H 2148.68 0.353839 -0.663552 0
M  V30 22246 H 2150.65 0.592514 -2.92458 0
M  V30 22247 C 2149.4 2.33393 -2.57726 0
M  V30 22248 H 2148.72 2.08934 -3.40862 0
M  V30 22249 H 2150.16 3.02943 -2.96651 0
M  V30 22250 C 2148.62 3.02638 -1.48026 0
M  V30 22251 O 2149.15 3.9263 -0.848789 0
M  V30 22252 N 2147.36 2.64036 -1.21381 0
M  V30 22253 H 2146.91 1.90939 -1.72916 0
M  V30 22254 H 2146.86 3.10684 -0.481967 0
M  V30 22255 N 2150.64 1.54769 0.297388 0
M  V30 22256 C 2151.88 1.74479 1.03367 0
M  V30 22257 C 2152.21 0.531007 1.86799 0
M  V30 22258 O 2151.49 -0.471847 1.8869 0
M  V30 22259 C 2151.77 3.03588 1.93665 0
M  V30 22260 C 2151.63 4.35274 1.13389 0
M  V30 22261 C 2152.94 3.28586 2.92779 0
M  V30 22262 H 2150.06 0.63483 0.37438 0
M  V30 22263 H 2152.71 1.87487 0.308023 0
M  V30 22264 H 2150.86 2.9263 2.55538 0
M  V30 22265 H 2152.53 4.58155 0.537739 0
M  V30 22266 H 2150.77 4.31596 0.436685 0
M  V30 22267 H 2151.44 5.21886 1.7983 0
M  V30 22268 H 2153.92 3.39177 2.41035 0
M  V30 22269 H 2152.79 4.20233 3.53122 0
M  V30 22270 H 2153.05 2.47054 3.66629 0
M  V30 22271 N 2152.11 -0.560755 1.47286 0
M  V30 22272 C 2153.36 -1.31548 1.53426 0
M  V30 22273 C 2153.68 -1.94006 0.196648 0
M  V30 22274 O 2152.95 -1.79743 -0.779049 0
M  V30 22275 H 2151.53 -0.488493 0.565141 0
M  V30 22276 H 2154.19 -0.655071 1.83562 0
M  V30 22277 H 2153.29 -2.11085 2.2989 0
M  V30 22278 N 2153.59 -1.35359 -0.807199 0
M  V30 22279 C 2154.55 -1.28103 -1.90059 0
M  V30 22280 C 2155.55 -0.192614 -1.59642 0
M  V30 22281 O 2156.74 -0.446274 -1.68387 0
M  V30 22282 C 2153.88 -0.981581 -3.26463 0
M  V30 22283 H 2155.07 -2.25323 -1.97912 0
M  V30 22284 H 2152.62 -1.19874 -1.00299 0
M  V30 22285 H 2153.36 -0.013209 -3.24297 0
M  V30 22286 H 2153.14 -1.76903 -3.49925 0
M  V30 22287 H 2154.63 -0.956397 -4.06501 0
M  V30 22288 N 2155.07 1.02928 -1.19346 0
M  V30 22289 C 2156.32 1.75973 -0.993881 0
M  V30 22290 C 2156.64 1.89088 0.476523 0
M  V30 22291 O 2155.91 1.42417 1.34515 0
M  V30 22292 H 2154.49 0.651893 -0.364753 0
M  V30 22293 H 2157.15 1.24161 -1.50233 0
M  V30 22294 H 2156.25 2.76812 -1.44157 0
M  V30 22295 N 2156.55 0.997319 1.2203 0
M  V30 22296 C 2157.48 0.496186 2.2274 0
M  V30 22297 C 2158.46 -0.445938 1.56365 0
M  V30 22298 O 2159.64 -0.370453 1.84824 0
M  V30 22299 C 2156.77 -0.280171 3.37539 0
M  V30 22300 C 2155.82 0.608603 4.22135 0
M  V30 22301 S 2156.65 2.06651 4.9402 0
M  V30 22302 C 2157.8 1.29977 6.12256 0
M  V30 22303 H 2158.04 1.34957 2.64903 0
M  V30 22304 H 2155.57 0.80464 1.31776 0
M  V30 22305 H 2157.53 -0.722047 4.041 0
M  V30 22306 H 2156.19 -1.10889 2.93875 0
M  V30 22307 H 2155.38 0.0110161 5.03999 0
M  V30 22308 H 2154.98 0.987428 3.6073 0
M  V30 22309 H 2157.28 0.569685 6.75101 0
M  V30 22310 H 2158.22 2.09383 6.76435 0
M  V30 22311 H 2158.63 0.811111 5.58642 0
M  V30 22312 N 2158.03 -1.37449 0.771075 0
M  V30 22313 C 2159.25 -2.03979 0.346453 0
M  V30 22314 C 2159.67 -1.58156 -1.03113 0
M  V30 22315 O 2159.03 -0.762511 -1.65807 0
M  V30 22316 C 2159.08 -3.595 0.379748 0
M  V30 22317 O 2158.8 -4.03646 1.70298 0
M  V30 22318 C 2160.3 -4.43264 -0.0565544 0
M  V30 22319 H 2157.52 -0.655084 0.145281 0
M  V30 22320 H 2160.06 -1.75795 1.04481 0
M  V30 22321 H 2158.22 -3.86458 -0.270023 0
M  V30 22322 H 2158.63 -4.98163 1.64115 0
M  V30 22323 H 2160.11 -5.51997 0.0178961 0
M  V30 22324 H 2160.58 -4.25025 -1.10683 0
M  V30 22325 H 2161.19 -4.2153 0.565003 0
M  V30 22326 N 2159.5 -0.52156 -1.4872 0
M  V30 22327 C 2160.75 0.0155648 -2.02094 0
M  V30 22328 C 2161.07 1.35564 -1.40169 0
M  V30 22329 O 2160.34 1.87602 -0.564111 0
M  V30 22330 H 2158.92 0.0087409 -0.746949 0
M  V30 22331 H 2161.59 -0.683478 -1.82523 0
M  V30 22332 H 2160.68 0.130113 -3.11829 0
M  V30 22333 N 2160.98 1.55502 -0.256304 0
M  V30 22334 C 2162.23 1.98775 0.36509 0
M  V30 22335 C 2162.55 1.14592 1.57778 0
M  V30 22336 O 2161.82 0.23092 1.94534 0
M  V30 22337 H 2160.4 0.734165 0.137882 0
M  V30 22338 H 2163.06 1.91597 -0.357276 0
M  V30 22339 H 2162.16 3.04871 0.667825 0
M  V30 22340 N 2162.46 -0.0166879 1.57591 0
M  V30 22341 C 2163.39 -1.01268 2.10398 0
M  V30 22342 C 2164.37 -1.36922 1.00928 0
M  V30 22343 O 2165.56 -1.45589 1.2852 0
M  V30 22344 C 2162.69 -2.30979 2.59357 0
M  V30 22345 C 2161.64 -2.09533 3.73202 0
M  V30 22346 C 2160.97 -3.45113 4.08413 0
M  V30 22347 C 2162.27 -1.47144 5.01145 0
M  V30 22348 H 2163.96 -0.573053 2.93865 0
M  V30 22349 H 2161.51 -0.274203 1.41365 0
M  V30 22350 H 2163.46 -3.00996 2.94923 0
M  V30 22351 H 2162.18 -2.77024 1.72989 0
M  V30 22352 H 2160.84 -1.41946 3.38004 0
M  V30 22353 H 2160.49 -3.88829 3.19094 0
M  V30 22354 H 2160.19 -3.31585 4.85104 0
M  V30 22355 H 2161.71 -4.16472 4.46524 0
M  V30 22356 H 2163.13 -2.07094 5.34588 0
M  V30 22357 H 2161.53 -1.44154 5.82529 0
M  V30 22358 H 2162.6 -0.438665 4.82912 0
M  V30 22359 N 2163.94 -1.54924 -0.289176 0
M  V30 22360 C 2164.9 -1.85935 -1.34017 0
M  V30 22361 C 2165.9 -0.732916 -1.43126 0
M  V30 22362 O 2167.09 -1.00116 -1.42556 0
M  V30 22363 C 2164.22 -2.0502 -2.72359 0
M  V30 22364 H 2165.42 -2.79872 -1.07758 0
M  V30 22365 H 2162.97 -1.47168 -0.526442 0
M  V30 22366 H 2163.7 -1.13412 -3.03823 0
M  V30 22367 H 2163.49 -2.8702 -2.67136 0
M  V30 22368 H 2164.98 -2.30342 -3.48328 0
M  V30 22369 N 2165.42 0.552936 -1.47582 0
M  V30 22370 C 2166.65 1.33329 -1.5782 0
M  V30 22371 C 2167.05 1.87809 -0.228975 0
M  V30 22372 O 2166.4 1.65914 0.788562 0
M  V30 22373 C 2166.46 2.53716 -2.54693 0
M  V30 22374 C 2166.12 2.2049 -4.00291 0
M  V30 22375 C 2167.12 1.77528 -4.88651 0
M  V30 22376 C 2164.81 2.31718 -4.45659 0
M  V30 22377 C 2166.8 1.46229 -6.204 0
M  V30 22378 C 2164.49 2.00031 -5.77435 0
M  V30 22379 C 2165.48 1.57355 -6.64627 0
M  V30 22380 O 2165.17 1.26073 -7.93953 0
M  V30 22381 H 2164.9 0.412583 -0.535492 0
M  V30 22382 H 2167.46 0.676216 -1.9395 0
M  V30 22383 H 2165.69 3.22328 -2.13639 0
M  V30 22384 H 2167.38 3.1579 -2.55012 0
M  V30 22385 H 2168.14 1.68343 -4.54847 0
M  V30 22386 H 2164.02 2.63894 -3.77996 0
M  V30 22387 H 2167.57 1.12845 -6.88412 0
M  V30 22388 H 2163.46 2.0885 -6.1078 0
M  V30 22389 H 2164.23 1.39667 -8.06496 0
M  V30 22390 N 2166.89 1.35785 0.800009 0
M  V30 22391 C 2168.14 1.29425 1.55741 0
M  V30 22392 C 2168.47 -0.129487 1.94068 0
M  V30 22393 O 2167.72 -1.09631 1.6211 0
M  V30 22394 C 2168.02 2.15261 2.85302 0
M  V30 22395 C 2167.69 3.63962 2.66162 0
M  V30 22396 C 2166.35 4.04493 2.60651 0
M  V30 22397 C 2168.7 4.58288 2.48238 0
M  V30 22398 C 2166.03 5.37507 2.35166 0
M  V30 22399 C 2168.38 5.91507 2.24281 0
M  V30 22400 C 2167.05 6.31175 2.17195 0
M  V30 22401 H 2166.32 0.473601 0.569898 0
M  V30 22402 H 2168.96 1.67742 0.923842 0
M  V30 22403 H 2167.27 1.69846 3.53071 0
M  V30 22404 H 2168.97 2.07672 3.43036 0
M  V30 22405 H 2165.56 3.31802 2.71303 0
M  V30 22406 H 2169.74 4.27854 2.51504 0
M  V30 22407 H 2165 5.67235 2.28154 0
M  V30 22408 H 2169.17 6.64171 2.09403 0
M  V30 22409 H 2166.8 7.34175 1.9721 0
M  V30 22410 N 2168.37 -1.02294 1.19891 0
M  V30 22411 C 2169.3 -2.12589 0.965816 0
M  V30 22412 C 2170.28 -1.69788 -0.102962 0
M  V30 22413 O 2171.47 -1.94127 0.0532676 0
M  V30 22414 C 2168.6 -3.43532 0.510181 0
M  V30 22415 C 2167.55 -4.00044 1.52147 0
M  V30 22416 C 2166.88 -5.26679 0.922703 0
M  V30 22417 C 2168.18 -4.34165 2.90341 0
M  V30 22418 H 2169.87 -2.32347 1.88826 0
M  V30 22419 H 2167.42 -1.11659 0.9093 0
M  V30 22420 H 2169.37 -4.20071 0.334377 0
M  V30 22421 H 2168.1 -3.23514 -0.447879 0
M  V30 22422 H 2166.75 -3.25606 1.68453 0
M  V30 22423 H 2166.4 -5.02982 -0.0430931 0
M  V30 22424 H 2166.1 -5.65452 1.59806 0
M  V30 22425 H 2167.63 -6.05879 0.757827 0
M  V30 22426 H 2169.04 -5.01617 2.77584 0
M  V30 22427 H 2167.44 -4.84036 3.54724 0
M  V30 22428 H 2168.51 -3.43207 3.42545 0
M  V30 22429 N 2169.85 -1.00378 -1.21499 0
M  V30 22430 C 2171.13 -0.601329 -1.86127 0
M  V30 22431 C 2171.51 0.921083 -1.89945 0
M  V30 22432 O 2170.86 1.80753 -1.39787 0
M  V30 22433 C 2171.07 -1.2343 -3.26445 0
M  V30 22434 C 2172.41 -1.34165 -4.02846 0
M  V30 22435 O 2173.44 -1.18952 -3.35751 0
M  V30 22436 O 2172.3 -1.58622 -5.22973 0
M  V30 22437 H 2169.39 -0.205796 -0.800985 0
M  V30 22438 H 2171.94 -1.10035 -1.29192 0
M  V30 22439 H 2170.71 -2.27515 -3.18359 0
M  V30 22440 H 2170.33 -0.721556 -3.90998 0
M  V30 22441 N 2171.33 1.37038 -0.778354 0
M  V30 22442 C 2172.24 2.33983 -0.170042 0
M  V30 22443 C 2173.25 1.60504 0.671902 0
M  V30 22444 O 2174.43 1.92556 0.590278 0
M  V30 22445 C 2171.5 3.39689 0.693729 0
M  V30 22446 C 2170.56 4.28981 -0.165434 0
M  V30 22447 C 2169.79 5.29638 0.657205 0
M  V30 22448 O 2170.01 5.38041 1.8939 0
M  V30 22449 O 2168.95 6.01867 0.0629255 0
M  V30 22450 H 2172.77 2.87749 -0.97131 0
M  V30 22451 H 2170.36 1.39314 -0.53962 0
M  V30 22452 H 2172.24 4.04348 1.18664 0
M  V30 22453 H 2170.91 2.8824 1.47307 0
M  V30 22454 H 2169.82 3.674 -0.704851 0
M  V30 22455 H 2171.15 4.83752 -0.908023 0
M  V30 22456 N 2172.81 0.529439 1.48441 0
M  V30 22457 C 2174.05 -0.00486384 2.02799 0
M  V30 22458 C 2174.39 -1.33985 1.40576 0
M  V30 22459 O 2173.66 -1.86523 0.551326 0
M  V30 22460 C 2173.94 -0.127443 3.59874 0
M  V30 22461 C 2173.8 1.23268 4.3258 0
M  V30 22462 C 2175.12 -0.854486 4.31725 0
M  V30 22463 H 2172.24 -0.00029358 0.737 0
M  V30 22464 H 2174.88 0.686364 1.7717 0
M  V30 22465 H 2173.03 -0.716153 3.81842 0
M  V30 22466 H 2174.7 1.86245 4.22031 0
M  V30 22467 H 2172.94 1.8147 3.94019 0
M  V30 22468 H 2173.61 1.09991 5.40931 0
M  V30 22469 H 2176.09 -0.354911 4.14584 0
M  V30 22470 H 2174.97 -0.909151 5.41318 0
M  V30 22471 H 2175.23 -1.90464 3.98968 0
M  V30 22472 N 2174.29 -1.55364 0.264547 0
M  V30 22473 C 2175.53 -1.98966 -0.354543 0
M  V30 22474 C 2175.85 -1.15427 -1.57168 0
M  V30 22475 O 2175.12 -0.241233 -1.94409 0
M  V30 22476 H 2173.7 -0.734885 -0.133986 0
M  V30 22477 H 2176.37 -1.91405 0.367431 0
M  V30 22478 H 2175.46 -3.05221 -0.651647 0
M  V30 22479 N 2175.76 0.00833021 -1.57598 0
M  V30 22480 C 2177.04 0.731485 -1.81407 0
M  V30 22481 C 2177.42 1.9245 -0.867544 0
M  V30 22482 O 2176.77 2.28339 0.0856431 0
M  V30 22483 C 2176.98 1.14505 -3.29681 0
M  V30 22484 C 2178.33 1.55237 -3.95205 0
M  V30 22485 O 2179.35 1.23907 -3.33954 0
M  V30 22486 O 2178.21 2.13464 -5.03086 0
M  V30 22487 H 2175.3 0.355455 -0.746713 0
M  V30 22488 H 2177.85 -0.0164849 -1.69692 0
M  V30 22489 H 2176.62 0.294315 -3.90192 0
M  V30 22490 H 2176.24 1.95238 -3.46364 0
M  V30 22491 N 2177.24 1.55075 0.280956 0
M  V30 22492 C 2178.17 1.90416 1.35145 0
M  V30 22493 C 2179.15 0.765149 1.51919 0
M  V30 22494 O 2180.34 1.02261 1.65095 0
M  V30 22495 C 2177.47 2.16909 2.71233 0
M  V30 22496 C 2176.42 3.32739 2.692 0
M  V30 22497 C 2175.75 3.44695 4.08766 0
M  V30 22498 C 2177.05 4.69338 2.2917 0
M  V30 22499 H 2178.74 2.80078 1.05815 0
M  V30 22500 H 2176.29 1.34758 0.507584 0
M  V30 22501 H 2178.24 2.40219 3.46226 0
M  V30 22502 H 2176.96 1.24039 3.02129 0
M  V30 22503 H 2175.62 3.09385 1.96664 0
M  V30 22504 H 2175.27 2.49305 4.36871 0
M  V30 22505 H 2174.97 4.22568 4.08301 0
M  V30 22506 H 2176.5 3.70288 4.85509 0
M  V30 22507 H 2177.91 4.92246 2.93883 0
M  V30 22508 H 2176.31 5.5007 2.39882 0
M  V30 22509 H 2177.38 4.68698 1.24297 0
M  V30 22510 N 2178.72 -0.545102 1.47873 0
M  V30 22511 C 2180.13 -1.12717 1.48835 0
M  V30 22512 C 2180.48 -1.94604 0.249718 0
M  V30 22513 O 2179.61 -2.06582 -0.644417 0
M  V30 22514 C 2180.2 -2.05084 2.69678 0
M  V30 22515 C 2178.76 -2.58538 2.7356 0
M  V30 22516 C 2177.91 -1.35171 2.42124 0
M  V30 22517 H 2180.86 -0.331094 1.55208 0
M  V30 22518 H 2180.88 -2.89145 2.47336 0
M  V30 22519 H 2180.39 -1.45457 3.59811 0
M  V30 22520 H 2178.49 -3.21929 1.87597 0
M  V30 22521 H 2178.61 -2.98704 3.74583 0
M  V30 22522 H 2176.97 -1.66249 1.9296 0
M  V30 22523 H 2177.75 -0.773194 3.3448 0
M  V30 22524 N 2180.2 -1.36208 -0.792797 0
M  V30 22525 C 2181.11 -1.32403 -1.93666 0
M  V30 22526 C 2182.12 -0.226736 -1.72516 0
M  V30 22527 O 2183.3 -0.458518 -1.96111 0
M  V30 22528 C 2180.36 -1.10928 -3.28475 0
M  V30 22529 C 2179.43 -2.301 -3.62426 0
M  V30 22530 C 2178.66 -2.0964 -4.90802 0
M  V30 22531 O 2178.88 -1.06985 -5.60277 0
M  V30 22532 O 2177.82 -2.97336 -5.23331 0
M  V30 22533 H 2181.64 -2.287 -1.99825 0
M  V30 22534 H 2179.23 -1.1672 -0.932566 0
M  V30 22535 H 2181.11 -1.00855 -4.09153 0
M  V30 22536 H 2179.78 -0.17691 -3.23216 0
M  V30 22537 H 2178.69 -2.45741 -2.82068 0
M  V30 22538 H 2180.02 -3.21832 -3.72405 0
M  V30 22539 N 2181.68 1.01656 -1.20431 0
M  V30 22540 C 2182.62 2.10198 -0.953184 0
M  V30 22541 C 2183.59 1.6569 0.116613 0
M  V30 22542 O 2184.78 1.90779 -0.0281152 0
M  V30 22543 C 2181.92 3.4129 -0.511397 0
M  V30 22544 C 2181.03 3.99275 -1.64935 0
M  V30 22545 C 2180.17 5.18427 -1.15787 0
M  V30 22546 C 2179.2 5.68496 -2.2689 0
M  V30 22547 N 2178.34 6.78909 -1.7896 0
M  V30 22548 H 2183.18 2.31015 -1.88245 0
M  V30 22549 H 2180.72 1.13288 -0.938314 0
M  V30 22550 H 2182.68 4.16529 -0.236575 0
M  V30 22551 H 2181.31 3.20545 0.380867 0
M  V30 22552 H 2180.36 3.21132 -2.03909 0
M  V30 22553 H 2181.67 4.32437 -2.48595 0
M  V30 22554 H 2180.82 6.00871 -0.839013 0
M  V30 22555 H 2179.56 4.8683 -0.291159 0
M  V30 22556 H 2178.57 4.84657 -2.59592 0
M  V30 22557 H 2179.79 6.02127 -3.14037 0
M  V30 22558 H 2177.74 6.49141 -0.946156 0
M  V30 22559 H 2177.66 7.11265 -2.562 0
M  V30 22560 H 2178.92 7.64917 -1.50074 0
M  V30 22561 N 2183.15 1.01021 1.20965 0
M  V30 22562 C 2184.4 0.691231 1.89486 0
M  V30 22563 C 2184.72 -0.781846 1.79295 0
M  V30 22564 O 2185.92 -1.21312 2.4289 0
M  V30 22565 C 2184.38 1.18593 3.39799 0
M  V30 22566 C 2183.99 2.68546 3.5859 0
M  V30 22567 C 2185.73 0.942088 4.13914 0
M  V30 22568 C 2183.64 3.1153 5.02696 0
M  V30 22569 H 2182.57 0.254853 0.709624 0
M  V30 22570 H 2185.22 1.22205 1.36887 0
M  V30 22571 H 2183.6 0.583129 3.91683 0
M  V30 22572 H 2184.77 3.3432 3.17122 0
M  V30 22573 H 2183.09 2.91002 2.97837 0
M  V30 22574 H 2185.69 1.23873 5.20153 0
M  V30 22575 H 2186.03 -0.121574 4.16122 0
M  V30 22576 H 2186.56 1.50794 3.68111 0
M  V30 22577 H 2183.3 4.17145 5.05638 0
M  V30 22578 H 2182.82 2.50471 5.44999 0
M  V30 22579 H 2184.5 3.03805 5.71237 0
M  V30 22580 N 2184.63 -1.36623 0.78561 0
M  V30 22581 C 2185.58 -2.31983 0.169296 0
M  V30 22582 C 2186.57 -1.55619 -0.66926 0
M  V30 22583 O 2187.78 -1.7091 -0.56477 0
M  V30 22584 H 2184.15 -0.751139 0.0359684 0
M  V30 22585 H 2186.13 -2.81531 0.989071 0
M  V30 22586 C 2184.87 -3.40896 -0.684473 0
M  V30 22587 H 2184.2 -3.9977 -0.0485801 0
M  V30 22588 H 2185.64 -4.0995 -1.08245 0
M  V30 22589 C 2184.1 -2.82145 -1.84108 0
M  V30 22590 O 2184.63 -2.74004 -2.93743 0
M  V30 22591 N 2182.83 -2.39489 -1.64601 0
M  V30 22592 H 2182.38 -2.46311 -0.754247 0
M  V30 22593 H 2182.34 -2.00526 -2.4215 0
M  V30 22594 N 2186.11 -0.537304 -1.48158 0
M  V30 22595 C 2187.52 -0.0987274 -1.86439 0
M  V30 22596 C 2187.87 1.32599 -1.4461 0
M  V30 22597 O 2187 1.99427 -0.840112 0
M  V30 22598 C 2187.59 -0.172391 -3.38361 0
M  V30 22599 C 2186.15 0.211031 -3.75808 0
M  V30 22600 C 2185.3 -0.528892 -2.7221 0
M  V30 22601 H 2188.25 -0.74815 -1.39959 0
M  V30 22602 H 2188.27 0.614074 -3.75512 0
M  V30 22603 H 2187.78 -1.20942 -3.68774 0
M  V30 22604 H 2185.88 1.24993 -3.51009 0
M  V30 22605 H 2186 -0.133675 -4.78913 0
M  V30 22606 H 2184.36 0.0257117 -2.54687 0
M  V30 22607 H 2185.14 -1.5667 -3.05466 0
M  V30 22608 N 2187.59 1.55221 -0.272782 0
M  V30 22609 C 2188.5 2.26098 0.62584 0
M  V30 22610 C 2189.51 1.28606 1.17203 0
M  V30 22611 O 2190.69 1.61537 1.20281 0
M  V30 22612 C 2187.76 2.96645 1.7945 0
M  V30 22613 C 2186.82 4.0961 1.28522 0
M  V30 22614 C 2186.05 4.76784 2.39819 0
M  V30 22615 O 2186.27 4.43155 3.59124 0
M  V30 22616 O 2185.21 5.64779 2.08107 0
M  V30 22617 H 2189.03 3.03656 0.0517442 0
M  V30 22618 H 2186.62 1.49346 -0.0402752 0
M  V30 22619 H 2188.5 3.40989 2.47597 0
M  V30 22620 H 2187.17 2.22006 2.35573 0
M  V30 22621 H 2186.08 3.69728 0.570286 0
M  V30 22622 H 2187.41 4.86143 0.769772 0
M  V30 22623 N 2189.07 2.77022e-05 1.576 0
M  V30 22624 C 2190.32 -0.684007 1.89748 0
M  V30 22625 C 2190.63 -1.74935 0.875041 0
M  V30 22626 O 2191.83 -2.48802 1.08674 0
M  V30 22627 C 2190.29 -1.26778 3.36831 0
M  V30 22628 C 2189.9 -0.23725 4.47371 0
M  V30 22629 C 2191.64 -1.93 3.78089 0
M  V30 22630 C 2189.55 -0.831011 5.85532 0
M  V30 22631 H 2188.48 -0.259241 0.708033 0
M  V30 22632 H 2191.13 0.0605762 1.834 0
M  V30 22633 H 2189.51 -2.06303 3.38017 0
M  V30 22634 H 2190.69 0.53341 4.57702 0
M  V30 22635 H 2189 0.324536 4.15133 0
M  V30 22636 H 2191.6 -2.38328 4.78648 0
M  V30 22637 H 2191.94 -2.76058 3.11605 0
M  V30 22638 H 2192.47 -1.20209 3.79203 0
M  V30 22639 H 2189.21 -0.0392145 6.55488 0
M  V30 22640 H 2188.73 -1.57083 5.78865 0
M  V30 22641 H 2190.41 -1.32963 6.3319 0
M  V30 22642 N 2190.54 -1.55222 -0.272728 0
M  V30 22643 C 2191.79 -1.75047 -1.00208 0
M  V30 22644 C 2192.11 -0.559079 -1.8744 0
M  V30 22645 O 2193.31 -0.639745 -2.63855 0
M  V30 22646 C 2191.77 -3.09808 -1.83159 0
M  V30 22647 C 2191.38 -4.36514 -1.00793 0
M  V30 22648 C 2193.12 -3.38981 -2.55523 0
M  V30 22649 C 2191.03 -5.62315 -1.83184 0
M  V30 22650 H 2189.96 -0.652482 -0.377866 0
M  V30 22651 H 2192.61 -1.81681 -0.257744 0
M  V30 22652 H 2190.99 -2.97212 -2.61689 0
M  V30 22653 H 2192.16 -4.60027 -0.266774 0
M  V30 22654 H 2190.48 -4.14486 -0.398824 0
M  V30 22655 H 2193.08 -4.30178 -3.17571 0
M  V30 22656 H 2193.42 -2.59126 -3.25821 0
M  V30 22657 H 2193.95 -3.52676 -1.84022 0
M  V30 22658 H 2190.69 -6.44918 -1.17306 0
M  V30 22659 H 2190.21 -5.42944 -2.54896 0
M  V30 22660 H 2191.89 -6.00624 -2.40542 0
M  V30 22661 N 2192.02 0.537252 -1.4816 0
M  V30 22662 C 2193.25 1.31838 -1.59456 0
M  V30 22663 C 2193.67 1.87109 -0.252098 0
M  V30 22664 O 2193.02 1.66033 0.757592 0
M  V30 22665 C 2193.07 2.47434 -2.6355 0
M  V30 22666 O 2192.79 1.94443 -3.92586 0
M  V30 22667 C 2194.3 3.39361 -2.85218 0
M  V30 22668 H 2191.52 0.401186 -0.537858 0
M  V30 22669 H 2194.06 0.648857 -1.93933 0
M  V30 22670 H 2192.21 3.10286 -2.31952 0
M  V30 22671 H 2192.63 2.70056 -4.49633 0
M  V30 22672 H 2194.1 4.16838 -3.6187 0
M  V30 22673 H 2194.58 3.94144 -1.93772 0
M  V30 22674 H 2195.19 2.82308 -3.18091 0
M  V30 22675 N 2193.5 1.36626 0.785562 0
M  V30 22676 C 2194.43 1.33953 1.91256 0
M  V30 22677 C 2195.41 0.210355 1.68794 0
M  V30 22678 O 2196.6 0.408594 1.89853 0
M  V30 22679 C 2193.73 1.13191 3.28337 0
M  V30 22680 C 2192.68 2.22974 3.65331 0
M  V30 22681 C 2192.01 1.87351 5.00803 0
M  V30 22682 C 2193.31 3.65082 3.73514 0
M  V30 22683 H 2195 2.28257 1.93751 0
M  V30 22684 H 2192.55 1.09876 0.930768 0
M  V30 22685 H 2194.5 1.09955 4.06802 0
M  V30 22686 H 2193.22 0.15339 3.2624 0
M  V30 22687 H 2191.88 2.25342 2.89165 0
M  V30 22688 H 2191.53 0.880632 4.95231 0
M  V30 22689 H 2191.23 2.60855 5.26525 0
M  V30 22690 H 2192.75 1.85677 5.81684 0
M  V30 22691 H 2194.17 3.64919 4.42162 0
M  V30 22692 H 2192.57 4.37523 4.10723 0
M  V30 22693 H 2193.64 3.99708 2.7452 0
M  V30 22694 N 2194.98 -1.01016 1.20969 0
M  V30 22695 C 2195.91 -2.09833 0.922096 0
M  V30 22696 C 2196.92 -1.62536 -0.092682 0
M  V30 22697 O 2198.11 -1.77957 0.139159 0
M  V30 22698 C 2195.21 -3.3696 0.362064 0
M  V30 22699 C 2194.39 -4.13366 1.42993 0
M  V30 22700 C 2193.44 -5.18788 0.880067 0
M  V30 22701 O 2192.47 -5.4734 1.56229 0
M  V30 22702 N 2193.67 -5.79686 -0.307294 0
M  V30 22703 H 2196.44 -2.3509 1.85884 0
M  V30 22704 H 2194 -1.17458 1.11424 0
M  V30 22705 H 2195.99 -4.04695 -0.0200762 0
M  V30 22706 H 2194.56 -3.08902 -0.479382 0
M  V30 22707 H 2193.78 -3.40509 1.98614 0
M  V30 22708 H 2195.07 -4.61192 2.14893 0
M  V30 22709 H 2194.47 -5.58834 -0.878698 0
M  V30 22710 H 2193.02 -6.48738 -0.631001 0
M  V30 22711 N 2196.46 -1.01661 -1.20428 0
M  V30 22712 C 2197.87 -0.731467 -1.41851 0
M  V30 22713 C 2198.07 0.688865 -1.89359 0
M  V30 22714 O 2197.13 1.45662 -2.06249 0
M  V30 22715 C 2198.44 -1.75718 -2.44016 0
M  V30 22716 C 2199.99 -1.77532 -2.57782 0
M  V30 22717 C 2200.46 -2.7903 -3.63189 0
M  V30 22718 N 2201.96 -2.7777 -3.70673 0
M  V30 22719 C 2202.69 -3.52962 -4.51891 0
M  V30 22720 N 2202.19 -4.3783 -5.36914 0
M  V30 22721 N 2203.98 -3.41559 -4.46424 0
M  V30 22722 H 2196.13 -1.93355 -0.879059 0
M  V30 22723 H 2198.39 -0.835244 -0.448411 0
M  V30 22724 H 2198.1 -2.77473 -2.16105 0
M  V30 22725 H 2197.97 -1.56933 -3.43004 0
M  V30 22726 H 2200.36 -0.764619 -2.85022 0
M  V30 22727 H 2200.44 -2.0039 -1.58989 0
M  V30 22728 H 2200.09 -3.80264 -3.36693 0
M  V30 22729 H 2200.02 -2.53433 -4.61605 0
M  V30 22730 H 2202.51 -2.16206 -3.09941 0
M  V30 22731 H 2202.82 -4.91973 -5.95972 0
M  V30 22732 H 2201.16 -4.41908 -5.36416 0
M  V30 22733 H 2204.36 -2.74679 -3.79037 0
M  V30 22734 H 2204.53 -4.00413 -5.09484 0
M  V30 22735 N 2197.93 1.36205 -0.792844 0
M  V30 22736 C 2199.18 1.984 -0.363388 0
M  V30 22737 C 2199.5 1.63628 1.07169 0
M  V30 22738 O 2200.7 2.19083 1.60358 0
M  V30 22739 C 2199.16 3.54884 -0.598782 0
M  V30 22740 C 2198.77 3.98577 -2.0455 0
M  V30 22741 C 2200.51 4.23855 -0.234001 0
M  V30 22742 C 2198.42 5.47852 -2.22737 0
M  V30 22743 H 2197.35 0.742332 -0.132133 0
M  V30 22744 H 2200 1.55457 -0.974963 0
M  V30 22745 H 2198.38 3.95914 0.0825526 0
M  V30 22746 H 2199.55 3.68737 -2.76351 0
M  V30 22747 H 2197.87 3.42454 -2.36885 0
M  V30 22748 H 2200.47 5.33566 -0.348121 0
M  V30 22749 H 2200.81 4.08179 0.818279 0
M  V30 22750 H 2201.34 3.88199 -0.868707 0
M  V30 22751 H 2198.08 5.6848 -3.2636 0
M  V30 22752 H 2197.6 5.79308 -1.55444 0
M  V30 22753 H 2199.28 6.14124 -2.03618 0
M  V30 22754 N 2199.41 0.545154 1.47871 0
M  V30 22755 C 2200.64 0.0211204 2.06889 0
M  V30 22756 C 2201.06 -1.26718 1.39957 0
M  V30 22757 O 2200.41 -1.75741 0.492067 0
M  V30 22758 C 2200.46 -0.190754 3.60996 0
M  V30 22759 O 2200.18 1.04652 4.25417 0
M  V30 22760 C 2201.69 -0.753445 4.3685 0
M  V30 22761 H 2198.91 0.0403753 0.669784 0
M  V30 22762 H 2201.45 0.755128 1.90048 0
M  V30 22763 H 2199.6 -0.874854 3.77392 0
M  V30 22764 H 2200.02 0.836702 5.17783 0
M  V30 22765 H 2201.49 -0.851043 5.454 0
M  V30 22766 H 2201.97 -1.76193 4.02309 0
M  V30 22767 H 2202.58 -0.105429 4.25169 0
M  V30 22768 N 2200.89 -1.55074 0.28101 0
M  V30 22769 C 2201.85 -2.21453 -0.590858 0
M  V30 22770 C 2202.85 -1.19423 -1.07679 0
M  V30 22771 O 2204.04 -1.44289 -0.976025 0
M  V30 22772 C 2201.18 -2.88515 -1.81582 0
M  V30 22773 H 2202.37 -2.99898 -0.0112027 0
M  V30 22774 H 2199.92 -1.56268 0.0316713 0
M  V30 22775 H 2200.66 -2.14097 -2.43584 0
M  V30 22776 H 2200.44 -3.63289 -1.47524 0
M  V30 22777 H 2201.93 -3.39211 -2.43569 0
M  V30 22778 N 2202.37 -0.00838561 -1.57598 0
M  V30 22779 C 2203.59 0.689069 -1.95619 0
M  V30 22780 C 2204.02 1.66045 -0.883782 0
M  V30 22781 O 2203.38 1.80616 0.15732 0
M  V30 22782 C 2203.43 1.38988 -3.32738 0
M  V30 22783 O 2202.53 2.50458 -3.27635 0
M  V30 22784 H 2201.87 0.182657 -0.638383 0
M  V30 22785 H 2204.4 -0.064072 -2.045 0
M  V30 22786 H 2204.41 1.7514 -3.68497 0
M  V30 22787 H 2203.09 0.677706 -4.10341 0
M  V30 22788 H 2201.66 2.16571 -3.03565 0
M  V30 22789 N 2203.85 1.55365 0.264492 0
M  V30 22790 C 2204.79 1.88827 1.32714 0
M  V30 22791 C 2205.76 0.740631 1.48674 0
M  V30 22792 O 2206.95 0.992686 1.62943 0
M  V30 22793 C 2204.09 2.17311 2.68086 0
M  V30 22794 C 2203.2 3.44789 2.60278 0
M  V30 22795 C 2202.34 3.6293 3.87885 0
M  V30 22796 C 2201.38 4.84071 3.74623 0
M  V30 22797 N 2200.51 4.98825 4.94083 0
M  V30 22798 H 2205.35 2.79458 1.03477 0
M  V30 22799 H 2202.89 1.38351 0.499733 0
M  V30 22800 H 2204.85 2.31827 3.4686 0
M  V30 22801 H 2203.48 1.29906 2.95507 0
M  V30 22802 H 2202.53 3.387 1.73167 0
M  V30 22803 H 2203.84 4.33703 2.46381 0
M  V30 22804 H 2203 3.7731 4.75102 0
M  V30 22805 H 2201.74 2.72217 4.04659 0
M  V30 22806 H 2200.74 4.69686 2.85789 0
M  V30 22807 H 2201.97 5.76227 3.5936 0
M  V30 22808 H 2199.91 4.11045 5.11252 0
M  V30 22809 H 2199.83 5.81798 4.8275 0
M  V30 22810 H 2201.1 5.17598 5.82848 0
M  V30 22811 N 2205.33 -0.529387 1.48443 0
M  V30 22812 C 2206.57 -1.28264 1.56181 0
M  V30 22813 C 2206.89 -1.93545 0.237755 0
M  V30 22814 O 2206.16 -1.81355 -0.740747 0
M  V30 22815 H 2204.74 -0.476395 0.575375 0
M  V30 22816 H 2207.41 -0.615988 1.8491 0
M  V30 22817 H 2206.5 -2.06161 2.34316 0
M  V30 22818 N 2206.8 -1.37041 -0.778305 0
M  V30 22819 C 2207.71 -1.3445 -1.92251 0
M  V30 22820 C 2208.73 -0.245021 -1.72266 0
M  V30 22821 O 2209.91 -0.479293 -1.95614 0
M  V30 22822 C 2206.97 -1.14405 -3.2728 0
M  V30 22823 C 2206.03 -2.33931 -3.59965 0
M  V30 22824 C 2205.26 -2.14834 -4.88551 0
M  V30 22825 O 2205.49 -1.12922 -5.59111 0
M  V30 22826 O 2204.42 -3.0287 -5.20147 0
M  V30 22827 H 2208.25 -2.30807 -1.97388 0
M  V30 22828 H 2205.83 -1.17703 -0.920134 0
M  V30 22829 H 2207.71 -1.05189 -4.0806 0
M  V30 22830 H 2206.39 -0.211181 -3.2301 0
M  V30 22831 H 2205.3 -2.48718 -2.79446 0
M  V30 22832 H 2206.63 -3.25763 -3.6897 0
M  V30 22833 N 2208.28 1.00373 -1.21503 0
M  V30 22834 C 2209.19 2.12619 -0.991484 0
M  V30 22835 C 2210.21 1.73907 0.056814 0
M  V30 22836 O 2211.38 2.00957 -0.133516 0
M  V30 22837 C 2208.45 3.42141 -0.560372 0
M  V30 22838 C 2207.51 3.95019 -1.68103 0
M  V30 22839 C 2206.74 5.1836 -1.27039 0
M  V30 22840 O 2206.97 5.70217 -0.144538 0
M  V30 22841 O 2205.9 5.64715 -2.08279 0
M  V30 22842 H 2209.73 2.34354 -1.93162 0
M  V30 22843 H 2207.31 1.10995 -1.00002 0
M  V30 22844 H 2209.19 4.20107 -0.329798 0
M  V30 22845 H 2207.87 3.21791 0.351033 0
M  V30 22846 H 2206.77 3.18274 -1.96602 0
M  V30 22847 H 2208.11 4.19782 -2.56991 0
M  V30 22848 N 2209.76 1.02298 1.19887 0
M  V30 22849 C 2210.69 0.556826 2.22333 0
M  V30 22850 C 2211.7 -0.364171 1.58675 0
M  V30 22851 O 2212.89 -0.161502 1.77768 0
M  V30 22852 C 2209.99 -0.208634 3.38257 0
M  V30 22853 C 2209.17 0.715846 4.31503 0
M  V30 22854 C 2208.23 -0.00316348 5.262 0
M  V30 22855 O 2207.25 0.621457 5.65797 0
M  V30 22856 N 2208.45 -1.27589 5.66305 0
M  V30 22857 H 2211.22 1.43789 2.62954 0
M  V30 22858 H 2208.78 0.901285 1.34493 0
M  V30 22859 H 2210.77 -0.69904 3.98617 0
M  V30 22860 H 2209.34 -0.99105 2.96474 0
M  V30 22861 H 2208.56 1.38645 3.69014 0
M  V30 22862 H 2209.85 1.34437 4.90718 0
M  V30 22863 H 2209.25 -1.80419 5.36158 0
M  V30 22864 H 2207.8 -1.71091 6.28945 0
M  V30 22865 N 2211.24 -1.35782 0.800057 0
M  V30 22866 C 2212.17 -2.32459 0.220225 0
M  V30 22867 C 2213.15 -1.57162 -0.650702 0
M  V30 22868 O 2214.33 -1.85264 -0.582326 0
M  V30 22869 C 2211.46 -3.41403 -0.637293 0
M  V30 22870 C 2210.42 -4.27788 0.134606 0
M  V30 22871 C 2209.74 -5.27994 -0.844192 0
M  V30 22872 C 2211.04 -5.05086 1.32988 0
M  V30 22873 H 2212.74 -2.81201 1.02792 0
M  V30 22874 H 2210.28 -1.35198 0.495741 0
M  V30 22875 H 2212.24 -4.08033 -1.05295 0
M  V30 22876 H 2210.96 -2.91253 -1.4778 0
M  V30 22877 H 2209.62 -3.62729 0.53136 0
M  V30 22878 H 2209.27 -4.74114 -1.68002 0
M  V30 22879 H 2208.97 -5.86661 -0.332081 0
M  V30 22880 H 2210.49 -5.97496 -1.25819 0
M  V30 22881 H 2211.91 -5.64697 0.989439 0
M  V30 22882 H 2210.3 -5.73217 1.77603 0
M  V30 22883 H 2211.37 -4.36108 2.11986 0
M  V30 22884 N 2212.72 -0.552988 -1.4758 0
M  V30 22885 C 2213.66 0.197067 -2.29957 0
M  V30 22886 C 2214.63 0.912335 -1.38801 0
M  V30 22887 O 2215.82 0.908859 -1.67763 0
M  V30 22888 C 2212.96 1.22373 -3.22674 0
M  V30 22889 C 2212.07 0.514963 -4.2892 0
M  V30 22890 C 2211.21 1.52655 -5.08792 0
M  V30 22891 C 2210.24 0.802524 -6.06816 0
M  V30 22892 N 2209.38 1.76074 -6.79663 0
M  V30 22893 H 2214.22 -0.511538 -2.93577 0
M  V30 22894 H 2211.76 -0.264093 -1.4471 0
M  V30 22895 H 2213.72 1.83152 -3.74848 0
M  V30 22896 H 2212.35 1.90042 -2.60929 0
M  V30 22897 H 2211.4 -0.207259 -3.79835 0
M  V30 22898 H 2212.71 -0.0524302 -4.98772 0
M  V30 22899 H 2211.86 2.20799 -5.65095 0
M  V30 22900 H 2210.6 2.12786 -4.38832 0
M  V30 22901 H 2209.61 0.107141 -5.49696 0
M  V30 22902 H 2210.83 0.207016 -6.78784 0
M  V30 22903 H 2208.78 2.35071 -6.12436 0
M  V30 22904 H 2208.7 1.24539 -7.45672 0
M  V30 22905 H 2209.96 2.43346 -7.40542 0
M  V30 22906 N 2214.19 1.54923 -0.28923 0
M  V30 22907 C 2215.42 2.0477 0.329263 0
M  V30 22908 C 2215.84 1.16566 1.47628 0
M  V30 22909 O 2215.2 0.167218 1.80527 0
M  V30 22910 C 2215.25 3.52187 0.774376 0
M  V30 22911 O 2214.35 3.6704 1.88031 0
M  V30 22912 H 2213.69 0.66072 0.0659143 0
M  V30 22913 H 2216.22 2.00081 -0.427645 0
M  V30 22914 H 2216.23 3.93818 1.06635 0
M  V30 22915 H 2214.91 4.1585 -0.0647438 0
M  V30 22916 H 2213.49 3.37313 1.58979 0
M  V30 22917 N 2215.67 0.0167433 1.57591 0
M  V30 22918 C 2216.6 -0.96782 2.12498 0
M  V30 22919 C 2217.58 -1.3475 1.03809 0
M  V30 22920 O 2218.77 -1.4283 1.31579 0
M  V30 22921 C 2215.9 -2.25426 2.64198 0
M  V30 22922 C 2214.85 -2.0157 3.77563 0
M  V30 22923 C 2214.18 -3.36372 4.15642 0
M  V30 22924 C 2215.48 -1.36481 5.04153 0
M  V30 22925 H 2217.17 -0.510591 2.95014 0
M  V30 22926 H 2214.72 -0.244156 1.41915 0
M  V30 22927 H 2216.67 -2.94672 3.01241 0
M  V30 22928 H 2215.39 -2.73292 1.78826 0
M  V30 22929 H 2214.05 -1.34745 3.40939 0
M  V30 22930 H 2213.7 -3.81973 3.27269 0
M  V30 22931 H 2213.4 -3.2122 4.92028 0
M  V30 22932 H 2214.93 -4.06907 4.55258 0
M  V30 22933 H 2216.34 -1.95708 5.38861 0
M  V30 22934 H 2214.74 -1.31765 5.85455 0
M  V30 22935 H 2215.81 -0.336134 4.83734 0
M  V30 22936 N 2217.15 -1.55503 -0.256249 0
M  V30 22937 C 2218.4 -1.761 -0.983455 0
M  V30 22938 C 2218.71 -0.578928 -1.86836 0
M  V30 22939 O 2219.92 -0.667694 -2.63162 0
M  V30 22940 C 2218.37 -3.11733 -1.79863 0
M  V30 22941 C 2217.98 -4.37559 -0.961571 0
M  V30 22942 C 2219.73 -3.41672 -2.51913 0
M  V30 22943 C 2217.63 -5.64226 -1.7721 0
M  V30 22944 H 2216.56 -0.656453 -0.370925 0
M  V30 22945 H 2219.21 -1.81944 -0.23846 0
M  V30 22946 H 2217.6 -2.9997 -2.58522 0
M  V30 22947 H 2218.77 -4.60284 -0.217967 0
M  V30 22948 H 2217.09 -4.14885 -0.35484 0
M  V30 22949 H 2219.68 -4.33522 -3.1299 0
M  V30 22950 H 2220.03 -2.62567 -3.23054 0
M  V30 22951 H 2220.56 -3.54608 -1.80271 0
M  V30 22952 H 2217.3 -6.46126 -1.10459 0
M  V30 22953 H 2216.82 -5.45617 -2.49123 0
M  V30 22954 H 2218.5 -6.03141 -2.34158 0
M  V30 22955 N 2218.63 0.521507 -1.48721 0
M  V30 22956 C 2219.86 1.3014 -1.60846 0
M  V30 22957 C 2220.27 1.86831 -0.271929 0
M  V30 22958 O 2219.63 1.66827 0.739939 0
M  V30 22959 C 2219.68 2.44625 -2.6616 0
M  V30 22960 O 2219.4 1.90268 -3.94626 0
M  V30 22961 C 2220.9 3.36317 -2.88801 0
M  V30 22962 H 2218.12 0.395459 -0.542082 0
M  V30 22963 H 2220.67 0.628251 -1.94611 0
M  V30 22964 H 2218.82 3.07808 -2.3523 0
M  V30 22965 H 2219.23 2.65271 -4.52472 0
M  V30 22966 H 2220.71 4.12976 -3.66271 0
M  V30 22967 H 2221.19 3.92066 -1.97941 0
M  V30 22968 H 2221.79 2.78919 -3.21068 0
M  V30 22969 N 2220.11 1.37452 0.771027 0
M  V30 22970 C 2221.07 1.33097 1.86596 0
M  V30 22971 C 2222.07 0.234873 1.59075 0
M  V30 22972 O 2223.26 0.490762 1.67144 0
M  V30 22973 C 2220.39 1.06779 3.23745 0
M  V30 22974 H 2221.58 2.30492 1.91869 0
M  V30 22975 H 2219.14 1.22491 0.970855 0
M  V30 22976 H 2219.87 0.099186 3.24148 0
M  V30 22977 H 2219.66 1.86118 3.45112 0
M  V30 22978 H 2221.15 1.06384 4.03822 0
M  V30 22979 N 2221.58 -0.997276 1.22033 0
M  V30 22980 C 2222.53 -2.07087 0.953875 0
M  V30 22981 C 2223.52 -1.60626 -0.0938387 0
M  V30 22982 O 2224.71 -1.76619 0.11611 0
M  V30 22983 C 2221.84 -3.39203 0.528785 0
M  V30 22984 C 2220.93 -3.92311 1.61099 0
M  V30 22985 N 2221.32 -4.18694 2.83776 0
M  V30 22986 C 2219.61 -4.2067 1.48166 0
M  V30 22987 C 2220.32 -4.61795 3.53723 0
M  V30 22988 N 2219.29 -4.65228 2.81182 0
M  V30 22989 H 2223.09 -2.25421 1.88581 0
M  V30 22990 H 2220.61 -1.17865 1.11721 0
M  V30 22991 H 2222.6 -4.15676 0.319223 0
M  V30 22992 H 2221.26 -3.22273 -0.396294 0
M  V30 22993 H 2222.28 -4.07018 3.20245 0
M  V30 22994 H 2218.95 -4.12834 0.622442 0
M  V30 22995 H 2220.34 -4.90867 4.58802 0
M  V30 22996 N 2223.06 -1.02932 -1.19343 0
M  V30 22997 C 2224.31 -0.727117 -1.89317 0
M  V30 22998 C 2224.64 0.742451 -1.79447 0
M  V30 22999 O 2223.92 1.5407 -1.18712 0
M  V30 23000 C 2224.2 -1.17948 -3.40236 0
M  V30 23001 C 2224.05 -2.7103 -3.58974 0
M  V30 23002 C 2225.37 -0.760624 -4.33477 0
M  V30 23003 H 2222.49 -0.265619 -0.687471 0
M  V30 23004 H 2225.13 -1.27932 -1.40475 0
M  V30 23005 H 2223.28 -0.709675 -3.81963 0
M  V30 23006 H 2224.95 -3.25961 -3.26415 0
M  V30 23007 H 2223.2 -3.11401 -3.02013 0
M  V30 23008 H 2223.87 -2.97738 -4.64818 0
M  V30 23009 H 2226.34 -1.16471 -3.99467 0
M  V30 23010 H 2225.22 -1.10503 -5.37662 0
M  V30 23011 H 2225.48 0.336986 -4.40814 0
M  V30 23012 N 2224.54 1.35356 -0.807246 0
M  V30 23013 C 2225.45 2.3357 -0.219635 0
M  V30 23014 C 2226.47 1.61893 0.637705 0
M  V30 23015 O 2227.64 1.93764 0.549302 0
M  V30 23016 C 2224.71 3.41084 0.62152 0
M  V30 23017 C 2223.77 4.28534 -0.25639 0
M  V30 23018 C 2223 5.30913 0.544713 0
M  V30 23019 O 2223.22 5.41937 1.77935 0
M  V30 23020 O 2222.16 6.01865 -0.0647536 0
M  V30 23021 H 2225.98 2.85624 -1.03213 0
M  V30 23022 H 2223.57 1.38138 -0.569049 0
M  V30 23023 H 2225.45 4.06774 1.1006 0
M  V30 23024 H 2224.13 2.913 1.4116 0
M  V30 23025 H 2223.03 3.65822 -0.782623 0
M  V30 23026 H 2224.37 4.81717 -1.01043 0
M  V30 23027 N 2226.02 0.560807 1.47284 0
M  V30 23028 C 2226.97 -0.205344 2.27073 0
M  V30 23029 C 2227.95 -0.88202 1.34571 0
M  V30 23030 O 2229.14 -0.779732 1.589 0
M  V30 23031 C 2226.27 -1.23241 3.20416 0
M  V30 23032 C 2225.36 -0.558967 4.204 0
M  V30 23033 N 2225.75 0.373016 5.04423 0
M  V30 23034 C 2224.05 -0.812445 4.38538 0
M  V30 23035 C 2224.75 0.764548 5.76654 0
M  V30 23036 N 2223.73 0.118575 5.43471 0
M  V30 23037 H 2227.53 0.511168 2.89421 0
M  V30 23038 H 2225.04 0.381002 1.57867 0
M  V30 23039 H 2227.04 -1.79528 3.76265 0
M  V30 23040 H 2225.7 -1.94998 2.59627 0
M  V30 23041 H 2226.71 0.747377 5.12479 0
M  V30 23042 H 2223.39 -1.51825 3.88916 0
M  V30 23043 H 2224.78 1.53057 6.54235 0
M  V30 23044 N 2227.5 -1.54768 0.297442 0
M  V30 23045 C 2228.72 -2.04479 -0.315587 0
M  V30 23046 C 2229.14 -1.17489 -1.4779 0
M  V30 23047 O 2228.5 -0.199742 -1.81404 0
M  V30 23048 C 2228.55 -3.5309 -0.775238 0
M  V30 23049 O 2228.27 -4.36772 0.340808 0
M  V30 23050 C 2229.77 -4.18784 -1.45379 0
M  V30 23051 H 2226.99 -0.667435 -0.0690769 0
M  V30 23052 H 2229.53 -1.99797 0.436038 0
M  V30 23053 H 2227.69 -3.58143 -1.47689 0
M  V30 23054 H 2228.1 -5.24497 -0.0164113 0
M  V30 23055 H 2229.58 -5.24302 -1.7266 0
M  V30 23056 H 2230.05 -3.68303 -2.39268 0
M  V30 23057 H 2230.66 -4.17796 -0.795401 0
M  V30 23058 N 2228.97 -0.0251005 -1.5758 0
M  V30 23059 C 2230.22 0.653118 -1.91256 0
M  V30 23060 C 2230.54 1.72899 -0.901721 0
M  V30 23061 O 2229.81 1.95816 0.0573441 0
M  V30 23062 H 2228.39 0.24423 -0.705947 0
M  V30 23063 H 2231.06 -0.0719551 -1.94767 0
M  V30 23064 H 2230.15 1.10842 -2.91754 0
M  V30 23065 N 2230.45 1.55637 0.247999 0
M  V30 23066 C 2231.68 1.8181 0.997996 0
M  V30 23067 C 2232.1 0.60201 1.78206 0
M  V30 23068 O 2231.46 -0.44893 1.75654 0
M  V30 23069 C 2231.51 3.05708 1.91245 0
M  V30 23070 O 2230.61 2.82547 3.00401 0
M  V30 23071 H 2229.95 0.600184 0.284035 0
M  V30 23072 H 2232.48 2.0282 0.269321 0
M  V30 23073 H 2232.49 3.35112 2.32731 0
M  V30 23074 H 2231.17 3.93859 1.33595 0
M  V30 23075 H 2229.75 2.64307 2.63051 0
M  V30 23076 N 2231.93 -0.513613 1.48996 0
M  V30 23077 C 2233.34 -1.09534 1.51192 0
M  V30 23078 C 2233.69 -1.94031 0.29094 0
M  V30 23079 O 2232.82 -2.07903 -0.600453 0
M  V30 23080 C 2233.41 -1.99317 2.73967 0
M  V30 23081 C 2231.97 -2.52677 2.78983 0
M  V30 23082 C 2231.12 -1.30005 2.44937 0
M  V30 23083 H 2234.07 -0.298098 1.55875 0
M  V30 23084 H 2234.09 -2.83834 2.53414 0
M  V30 23085 H 2233.6 -1.37792 3.62815 0
M  V30 23086 H 2231.7 -3.17877 1.94383 0
M  V30 23087 H 2231.82 -2.90692 3.80835 0
M  V30 23088 H 2230.18 -1.62118 1.96443 0
M  V30 23089 H 2230.96 -0.702072 3.36044 0
M  V30 23090 N 2233.41 -1.37859 -0.763727 0
M  V30 23091 C 2234.36 -1.34271 -1.87723 0
M  V30 23092 C 2235.33 -0.206908 -1.64806 0
M  V30 23093 O 2236.51 -0.397541 -1.86613 0
M  V30 23094 C 2233.65 -1.16352 -3.24894 0
M  V30 23095 C 2232.76 -2.39231 -3.59711 0
M  V30 23096 C 2231.9 -2.14122 -4.86133 0
M  V30 23097 C 2230.94 -3.32826 -5.13705 0
M  V30 23098 N 2230.08 -3.07217 -6.31318 0
M  V30 23099 H 2234.92 -2.2947 -1.90125 0
M  V30 23100 H 2232.45 -1.14019 -0.929412 0
M  V30 23101 H 2234.41 -1.03982 -4.04034 0
M  V30 23102 H 2233.04 -0.247965 -3.21846 0
M  V30 23103 H 2232.09 -2.62312 -2.75494 0
M  V30 23104 H 2233.4 -3.27734 -3.76021 0
M  V30 23105 H 2232.56 -1.9883 -5.73194 0
M  V30 23106 H 2231.3 -1.22969 -4.71943 0
M  V30 23107 H 2230.3 -3.48649 -4.25116 0
M  V30 23108 H 2231.53 -4.24841 -5.29799 0
M  V30 23109 H 2229.47 -2.18701 -6.18471 0
M  V30 23110 H 2229.39 -3.89265 -6.48081 0
M  V30 23111 H 2230.66 -2.95558 -7.21294 0
M  V30 23112 N 2234.89 0.990791 -1.22561 0
M  V30 23113 C 2236.14 1.72722 -1.04936 0
M  V30 23114 C 2236.46 1.90508 0.416125 0
M  V30 23115 O 2235.73 1.46624 1.29916 0
M  V30 23116 H 2234.31 0.639959 -0.385308 0
M  V30 23117 H 2236.97 1.19319 -1.54107 0
M  V30 23118 H 2236.06 2.72086 -1.52891 0
M  V30 23119 N 2236.37 1.03564 1.18795 0
M  V30 23120 C 2237.31 0.622298 2.22252 0
M  V30 23121 C 2238.28 -0.367332 1.61987 0
M  V30 23122 O 2239.47 -0.262459 1.88986 0
M  V30 23123 C 2236.61 -0.0137855 3.45097 0
M  V30 23124 C 2235.72 1.0227 4.1972 0
M  V30 23125 C 2234.86 0.355666 5.30008 0
M  V30 23126 C 2233.89 1.3776 5.96396 0
M  V30 23127 N 2233.03 0.735888 6.98233 0
M  V30 23128 H 2237.87 1.50907 2.56965 0
M  V30 23129 H 2235.41 0.755039 1.26244 0
M  V30 23130 H 2237.37 -0.399875 4.15279 0
M  V30 23131 H 2236 -0.864103 3.11019 0
M  V30 23132 H 2235.05 1.52679 3.48415 0
M  V30 23133 H 2236.36 1.79911 4.65224 0
M  V30 23134 H 2235.51 -0.0849028 6.06641 0
M  V30 23135 H 2234.25 -0.452882 4.85593 0
M  V30 23136 H 2233.26 1.82836 5.18509 0
M  V30 23137 H 2234.48 2.18776 6.42895 0
M  V30 23138 H 2232.43 -0.0524444 6.55979 0
M  V30 23139 H 2232.35 1.45008 7.41963 0
M  V30 23140 H 2233.61 0.319547 7.78845 0
M  V30 23141 N 2237.84 -1.34926 0.814413 0
M  V30 23142 C 2238.81 -2.27984 0.235799 0
M  V30 23143 C 2239.81 -1.49922 -0.581385 0
M  V30 23144 O 2241 -1.69575 -0.398728 0
M  V30 23145 C 2238.13 -3.34244 -0.670374 0
M  V30 23146 H 2239.32 -2.80669 1.05664 0
M  V30 23147 H 2236.87 -1.44914 0.585639 0
M  V30 23148 H 2237.61 -2.86758 -1.51461 0
M  V30 23149 H 2237.39 -3.92006 -0.0860133 0
M  V30 23150 H 2238.88 -4.03678 -1.06928 0
M  V30 23151 N 2239.32 -0.56861 -1.46985 0
M  V30 23152 C 2240.57 -0.0466248 -2.01646 0
M  V30 23153 C 2240.88 1.31584 -1.44723 0
M  V30 23154 O 2242.09 1.92838 -1.91117 0
M  V30 23155 C 2240.55 -0.0328152 -3.59885 0
M  V30 23156 C 2240.15 -1.39274 -4.25801 0
M  V30 23157 C 2241.9 0.435964 -4.22255 0
M  V30 23158 C 2239.8 -1.33742 -5.76079 0
M  V30 23159 H 2238.73 -0.0136602 -0.753876 0
M  V30 23160 H 2241.39 -0.718161 -1.68863 0
M  V30 23161 H 2239.77 0.704601 -3.89681 0
M  V30 23162 H 2240.94 -2.14877 -4.07633 0
M  V30 23163 H 2239.26 -1.80038 -3.75467 0
M  V30 23164 H 2241.85 0.495926 -5.32395 0
M  V30 23165 H 2242.2 1.45046 -3.90214 0
M  V30 23166 H 2242.73 -0.246947 -3.97033 0
M  V30 23167 H 2239.47 -2.32827 -6.12757 0
M  V30 23168 H 2238.99 -0.623372 -5.96552 0
M  V30 23169 H 2240.67 -1.04431 -6.38516 0
M  V30 23170 N 2240.8 1.54608 -0.305646 0
M  V30 23171 C 2241.73 2.2665 0.561442 0
M  V30 23172 C 2242.71 1.26774 1.13412 0
M  V30 23173 O 2243.9 1.55555 1.1626 0
M  V30 23174 C 2241.03 3.01078 1.73116 0
M  V30 23175 C 2239.98 4.0814 1.28863 0
M  V30 23176 C 2239.31 4.70309 2.54388 0
M  V30 23177 C 2240.61 5.20637 0.416487 0
M  V30 23178 H 2242.3 2.99374 -0.0394428 0
M  V30 23179 H 2239.85 1.43986 -0.0204103 0
M  V30 23180 H 2241.8 3.50199 2.34389 0
M  V30 23181 H 2240.52 2.2594 2.35836 0
M  V30 23182 H 2239.18 3.59876 0.698928 0
M  V30 23183 H 2238.83 3.91806 3.15432 0
M  V30 23184 H 2238.53 5.42618 2.25476 0
M  V30 23185 H 2240.05 5.22196 3.16455 0
M  V30 23186 H 2241.47 5.65624 0.935017 0
M  V30 23187 H 2239.86 5.99693 0.220941 0
M  V30 23188 H 2240.93 4.81687 -0.557246 0
M  V30 23189 N 2242.28 0.033457 1.57564 0
M  V30 23190 C 2243.24 -0.932011 2.09395 0
M  V30 23191 C 2244.24 -1.25132 1.00988 0
M  V30 23192 O 2245.43 -1.19094 1.27131 0
M  V30 23193 C 2242.56 -2.24725 2.56342 0
M  V30 23194 H 2243.76 -0.483033 2.95984 0
M  V30 23195 H 2241.31 -0.214653 1.54819 0
M  V30 23196 H 2242.04 -2.74242 1.73095 0
M  V30 23197 H 2241.83 -2.02859 3.35545 0
M  V30 23198 H 2243.32 -2.93918 2.96651 0
M  V30 23199 N 2243.76 -1.55766 -0.239741 0
M  V30 23200 C 2244.7 -1.91748 -1.31665 0
M  V30 23201 C 2245.7 -0.797365 -1.49461 0
M  V30 23202 O 2246.9 -0.982047 -1.5085 0
M  V30 23203 H 2243.28 -0.60909 -0.441037 0
M  V30 23204 H 2245.25 -2.81644 -0.985873 0
M  V30 23205 C 2244 -2.23484 -2.66364 0
M  V30 23206 H 2243.32 -3.09179 -2.53473 0
M  V30 23207 H 2244.76 -2.52559 -3.40573 0
M  V30 23208 C 2243.22 -1.05364 -3.2 0
M  V30 23209 O 2243.75 -0.305332 -4.00538 0
M  V30 23210 N 2241.96 -0.842341 -2.78124 0
M  V30 23211 H 2241.5 -1.45257 -2.1274 0
M  V30 23212 H 2241.46 -0.0537073 -3.14354 0
M  V30 23213 N 2245.23 0.505704 -1.49266 0
M  V30 23214 C 2246.48 1.25935 -1.59725 0
M  V30 23215 C 2246.83 1.90377 -0.278269 0
M  V30 23216 O 2246.13 1.77513 0.721099 0
M  V30 23217 C 2246.32 2.35303 -2.69012 0
M  V30 23218 C 2246.15 1.81585 -4.11409 0
M  V30 23219 C 2244.92 1.63097 -4.78255 0
M  V30 23220 C 2247.12 1.3304 -4.96795 0
M  V30 23221 N 2245.1 1.04258 -6.04982 0
M  V30 23222 C 2246.47 0.86306 -6.13964 0
M  V30 23223 C 2248.53 1.21569 -4.82831 0
M  V30 23224 C 2247.23 0.292363 -7.18706 0
M  V30 23225 C 2249.26 0.658966 -5.87717 0
M  V30 23226 C 2248.62 0.20183 -7.04111 0
M  V30 23227 H 2244.72 0.450962 -0.638872 0
M  V30 23228 H 2247.3 0.567294 -1.86252 0
M  V30 23229 H 2245.47 3.01975 -2.44265 0
M  V30 23230 H 2247.2 3.02343 -2.69018 0
M  V30 23231 H 2243.96 1.87328 -4.34977 0
M  V30 23232 H 2244.38 0.7678 -6.72632 0
M  V30 23233 H 2249.02 1.55512 -3.93162 0
M  V30 23234 H 2246.74 -0.0593407 -8.08078 0
M  V30 23235 H 2250.33 0.573054 -5.78971 0
M  V30 23236 H 2249.21 -0.222238 -7.83885 0
M  V30 23237 N 2246.71 1.38262 0.756405 0
M  V30 23238 C 2247.94 1.3772 1.55074 0
M  V30 23239 C 2248.36 -0.0316069 1.88073 0
M  V30 23240 O 2247.72 -1.0129 1.50366 0
M  V30 23241 C 2247.77 2.237 2.82826 0
M  V30 23242 O 2246.87 1.65217 3.77859 0
M  V30 23243 H 2246.21 0.469893 0.469144 0
M  V30 23244 H 2248.74 1.81987 0.934987 0
M  V30 23245 H 2248.75 2.37459 3.31779 0
M  V30 23246 H 2247.43 3.26095 2.58138 0
M  V30 23247 H 2246.01 1.60584 3.36552 0
M  V30 23248 N 2248.19 -0.984277 1.23084 0
M  V30 23249 C 2249.47 -1.69915 0.968929 0
M  V30 23250 C 2249.85 -2.04758 -0.513568 0
M  V30 23251 O 2249.2 -1.73769 -1.4838 0
M  V30 23252 C 2249.41 -2.9434 1.87524 0
M  V30 23253 C 2250.75 -3.66936 2.13642 0
M  V30 23254 O 2251.78 -3.04365 1.85042 0
M  V30 23255 O 2250.64 -4.79533 2.62127 0
M  V30 23256 H 2247.73 -0.742041 0.365108 0
M  V30 23257 H 2250.28 -1.03985 1.34109 0
M  V30 23258 H 2249.05 -2.65159 2.87761 0
M  V30 23259 H 2248.67 -3.68007 1.5052 0
M  V30 23260 N 2249.67 -1.04192 -1.18244 0
M  V30 23261 C 2250.9 -0.764995 -1.91915 0
M  V30 23262 C 2251.31 0.681867 -1.76486 0
M  V30 23263 O 2250.65 1.47662 -1.09278 0
M  V30 23264 C 2250.71 -1.05315 -3.43728 0
M  V30 23265 C 2250.38 -2.49417 -3.82936 0
M  V30 23266 C 2251.37 -3.47599 -3.86615 0
M  V30 23267 C 2249.06 -2.84162 -4.14195 0
M  V30 23268 C 2251.05 -4.78575 -4.21004 0
M  V30 23269 C 2248.74 -4.15345 -4.48255 0
M  V30 23270 C 2249.74 -5.12361 -4.51636 0
M  V30 23271 O 2249.42 -6.41192 -4.849 0
M  V30 23272 H 2249.16 -0.278303 -0.616055 0
M  V30 23273 H 2251.71 -1.39302 -1.50944 0
M  V30 23274 H 2249.94 -0.368001 -3.84945 0
M  V30 23275 H 2251.63 -0.763822 -3.98648 0
M  V30 23276 H 2252.4 -3.22095 -3.62601 0
M  V30 23277 H 2248.27 -2.09318 -4.10739 0
M  V30 23278 H 2251.82 -5.54296 -4.23558 0
M  V30 23279 H 2247.72 -4.40616 -4.71729 0
M  V30 23280 H 2248.48 -6.45861 -5.02798 0
M  V30 23281 N 2251.15 1.34492 -0.821557 0
M  V30 23282 C 2252.08 2.32079 -0.257179 0
M  V30 23283 C 2253.06 1.58177 0.625617 0
M  V30 23284 O 2254.24 1.86167 0.552779 0
M  V30 23285 C 2251.37 3.42373 0.582898 0
M  V30 23286 C 2250.33 4.2752 -0.202646 0
M  V30 23287 C 2249.65 5.2927 0.760086 0
M  V30 23288 C 2250.95 5.02906 -1.41007 0
M  V30 23289 H 2252.65 2.79531 -1.07252 0
M  V30 23290 H 2250.19 1.34392 -0.517187 0
M  V30 23291 H 2252.15 4.09657 0.9879 0
M  V30 23292 H 2250.87 2.93568 1.43128 0
M  V30 23293 H 2249.53 3.61837 -0.589 0
M  V30 23294 H 2249.18 4.76727 1.60438 0
M  V30 23295 H 2248.88 5.87115 0.238706 0
M  V30 23296 H 2250.4 5.99422 1.16297 0
M  V30 23297 H 2251.81 5.63052 -1.07915 0
M  V30 23298 H 2250.21 5.70319 -1.86699 0
M  V30 23299 H 2251.28 4.3268 -2.18897 0
M  V30 23300 N 2252.62 0.576397 1.46681 0
M  V30 23301 C 2253.87 0.0594518 2.02013 0
M  V30 23302 C 2254.19 -1.30269 1.45104 0
M  V30 23303 O 2253.46 -1.85379 0.63335 0
M  V30 23304 H 2252.04 0.0189876 0.746759 0
M  V30 23305 H 2254.71 0.750749 1.7986 0
M  V30 23306 H 2253.8 -0.0142902 3.12097 0
M  V30 23307 N 2254.1 -1.54444 0.313841 0
M  V30 23308 C 2255.05 -2.2399 -0.556511 0
M  V30 23309 C 2256.02 -1.22713 -1.11941 0
M  V30 23310 O 2257.2 -1.51369 -1.16155 0
M  V30 23311 C 2254.34 -2.99395 -1.7163 0
M  V30 23312 C 2253.46 -4.1547 -1.18357 0
M  V30 23313 C 2252.59 -4.78428 -2.30825 0
M  V30 23314 C 2251.63 -5.86625 -1.74751 0
M  V30 23315 N 2250.77 -6.43484 -2.80844 0
M  V30 23316 H 2255.61 -2.97969 0.0431417 0
M  V30 23317 H 2253.15 -1.47063 0.0330618 0
M  V30 23318 H 2255.1 -3.41353 -2.39862 0
M  V30 23319 H 2253.73 -2.27769 -2.28738 0
M  V30 23320 H 2252.79 -3.78363 -0.393096 0
M  V30 23321 H 2254.1 -4.93382 -0.733176 0
M  V30 23322 H 2253.25 -5.23305 -3.0698 0
M  V30 23323 H 2251.99 -3.99876 -2.79197 0
M  V30 23324 H 2251 -5.41159 -0.9709 0
M  V30 23325 H 2252.22 -6.67068 -1.27269 0
M  V30 23326 H 2250.17 -5.67809 -3.28525 0
M  V30 23327 H 2250.08 -7.1678 -2.40339 0
M  V30 23328 H 2251.35 -6.93017 -3.56857 0
M  V30 23329 N 2255.58 -0.0418125 -1.57545 0
M  V30 23330 C 2256.83 0.634048 -1.92318 0
M  V30 23331 C 2257.16 1.714 -0.919364 0
M  V30 23332 O 2256.41 1.95576 0.0697909 0
M  V30 23333 C 2256.71 1.27729 -3.33796 0
M  V30 23334 C 2256.38 0.326464 -4.49717 0
M  V30 23335 C 2255.04 0.0647968 -4.81156 0
M  V30 23336 C 2257.39 -0.325714 -5.20181 0
M  V30 23337 C 2254.72 -0.856641 -5.80412 0
M  V30 23338 C 2257.07 -1.23529 -6.20422 0
M  V30 23339 C 2255.73 -1.50572 -6.50296 0
M  V30 23340 H 2255 0.232015 -0.70374 0
M  V30 23341 H 2257.65 -0.106293 -1.91205 0
M  V30 23342 H 2255.96 2.09268 -3.31231 0
M  V30 23343 H 2257.65 1.80701 -3.57978 0
M  V30 23344 H 2254.24 0.54059 -4.25177 0
M  V30 23345 H 2258.43 -0.136634 -4.96112 0
M  V30 23346 H 2253.68 -1.07373 -6.01898 0
M  V30 23347 H 2257.86 -1.74676 -6.74138 0
M  V30 23348 H 2255.48 -2.22136 -7.27021 0
M  V30 23349 N 2257.06 1.55891 0.231477 0
M  V30 23350 C 2258.3 1.79619 0.954398 0
M  V30 23351 C 2258.66 0.613232 1.82366 0
M  V30 23352 O 2257.95 -0.393061 1.87525 0
M  V30 23353 C 2258.15 3.06653 1.83571 0
M  V30 23354 C 2257.98 4.37192 1.05326 0
M  V30 23355 C 2256.75 4.99671 0.752162 0
M  V30 23356 C 2258.94 5.12555 0.423354 0
M  V30 23357 N 2256.93 6.13877 -0.0527349 0
M  V30 23358 C 2258.3 6.19514 -0.245395 0
M  V30 23359 C 2260.35 4.96769 0.335379 0
M  V30 23360 C 2259.05 7.12403 -0.993691 0
M  V30 23361 C 2261.08 5.9005 -0.399424 0
M  V30 23362 C 2260.44 6.96428 -1.05675 0
M  V30 23363 H 2256.54 0.709037 0.329833 0
M  V30 23364 H 2259.13 1.93382 0.226138 0
M  V30 23365 H 2257.3 2.94191 2.53587 0
M  V30 23366 H 2259.03 3.18613 2.49536 0
M  V30 23367 H 2255.78 4.61407 1.06775 0
M  V30 23368 H 2256.21 6.75544 -0.443728 0
M  V30 23369 H 2260.85 4.14588 0.829238 0
M  V30 23370 H 2258.57 7.94073 -1.4991 0
M  V30 23371 H 2262.15 5.79912 -0.468367 0
M  V30 23372 H 2261.03 7.67364 -1.61626 0
M  V30 23373 N 2258.54 -0.497781 1.49532 0
M  V30 23374 C 2259.47 -1.61575 1.62562 0
M  V30 23375 C 2260.48 -1.54666 0.508161 0
M  V30 23376 O 2261.67 -1.6054 0.780338 0
M  V30 23377 C 2258.77 -3.00376 1.56931 0
M  V30 23378 C 2257.94 -3.32435 2.84263 0
M  V30 23379 C 2257 -4.50664 2.7164 0
M  V30 23380 O 2256.03 -4.52288 3.45578 0
M  V30 23381 N 2257.23 -5.50767 1.83401 0
M  V30 23382 H 2260 -1.50823 2.58983 0
M  V30 23383 H 2257.56 -0.685717 1.46661 0
M  V30 23384 H 2259.55 -3.77394 1.46136 0
M  V30 23385 H 2258.12 -3.05035 0.683537 0
M  V30 23386 H 2257.34 -2.44284 3.09385 0
M  V30 23387 H 2258.63 -3.50654 3.68673 0
M  V30 23388 H 2258.02 -5.52257 1.22593 0
M  V30 23389 H 2256.58 -6.26874 1.78526 0
M  V30 23390 N 2260.01 -1.38661 -0.749062 0
M  V30 23391 C 2260.98 -1.36048 -1.84455 0
M  V30 23392 C 2261.98 -0.26015 -1.58682 0
M  V30 23393 O 2263.17 -0.517291 -1.66342 0
M  V30 23394 C 2260.3 -1.11916 -3.22006 0
M  V30 23395 H 2261.49 -2.33515 -1.88178 0
M  V30 23396 H 2259.05 -1.2402 -0.951244 0
M  V30 23397 H 2259.78 -0.150743 -3.23949 0
M  V30 23398 H 2259.57 -1.91585 -3.42108 0
M  V30 23399 H 2261.06 -1.12795 -4.02078 0
M  V30 23400 N 2261.49 0.977736 -1.23605 0
M  V30 23401 C 2262.74 1.72193 -1.07132 0
M  V30 23402 C 2263.07 1.90234 0.390467 0
M  V30 23403 O 2262.35 1.45655 1.28899 0
M  V30 23404 C 2262.63 3.11864 -1.80037 0
M  V30 23405 C 2262.48 3.01377 -3.33904 0
M  V30 23406 C 2263.8 4.11334 -1.56499 0
M  V30 23407 H 2260.92 0.624992 -0.390582 0
M  V30 23408 H 2263.56 1.13808 -1.52144 0
M  V30 23409 H 2261.71 3.61707 -1.41775 0
M  V30 23410 H 2263.39 2.59036 -3.81704 0
M  V30 23411 H 2261.63 2.3782 -3.628 0
M  V30 23412 H 2262.3 4.00278 -3.80107 0
M  V30 23413 H 2264.78 3.70309 -1.89764 0
M  V30 23414 H 2263.65 5.07148 -2.09982 0
M  V30 23415 H 2263.91 4.39253 -0.500951 0
M  V30 23416 N 2262.97 1.04818 1.1769 0
M  V30 23417 C 2264.38 0.782728 1.695 0
M  V30 23418 C 2264.73 -0.695545 1.83457 0
M  V30 23419 O 2263.86 -1.54084 1.51945 0
M  V30 23420 C 2264.45 1.41424 3.07871 0
M  V30 23421 C 2263.01 1.19693 3.56862 0
M  V30 23422 C 2262.16 1.50016 2.33218 0
M  V30 23423 H 2265.11 1.21362 1.0226 0
M  V30 23424 H 2265.13 0.821494 3.71526 0
M  V30 23425 H 2264.64 2.49014 2.97681 0
M  V30 23426 H 2262.74 0.140109 3.72336 0
M  V30 23427 H 2262.86 1.89924 4.39847 0
M  V30 23428 H 2261.22 0.920113 2.375 0
M  V30 23429 H 2262 2.58731 2.25639 0
M  V30 23430 N 2264.45 -1.34055 0.828678 0
M  V30 23431 C 2265.86 -1.80489 0.477566 0
M  V30 23432 C 2266.21 -1.68651 -1.00256 0
M  V30 23433 O 2265.34 -1.22985 -1.78055 0
M  V30 23434 C 2265.93 -3.27701 0.860075 0
M  V30 23435 C 2264.49 -3.72192 0.56125 0
M  V30 23436 C 2263.64 -2.55661 1.0739 0
M  V30 23437 H 2266.59 -1.2172 1.01832 0
M  V30 23438 H 2266.61 -3.80137 0.166105 0
M  V30 23439 H 2266.12 -3.36285 1.93737 0
M  V30 23440 H 2264.22 -3.69143 -0.5064 0
M  V30 23441 H 2264.34 -4.6608 1.10934 0
M  V30 23442 H 2262.7 -2.4984 0.495193 0
M  V30 23443 H 2263.48 -2.67012 2.15776 0
M  V30 23444 N 2265.93 -0.584167 -1.46374 0
M  V30 23445 C 2267.15 -0.0740769 -2.07268 0
M  V30 23446 C 2267.58 1.22221 -1.42981 0
M  V30 23447 O 2266.94 1.73858 -0.514123 0
M  V30 23448 C 2266.98 0.0767136 -3.60518 0
M  V30 23449 O 2266.09 1.13285 -3.96535 0
M  V30 23450 H 2265.43 -0.0634641 -0.66096 0
M  V30 23451 H 2267.96 -0.807525 -1.8799 0
M  V30 23452 H 2267.97 0.282418 -4.07021 0
M  V30 23453 H 2266.64 -0.869932 -4.067 0
M  V30 23454 H 2265.22 0.905489 -3.61739 0
M  V30 23455 N 2267.41 1.54275 -0.322027 0
M  V30 23456 C 2268.32 2.27975 0.553591 0
M  V30 23457 C 2269.33 1.3227 1.13052 0
M  V30 23458 O 2270.51 1.65282 1.15081 0
M  V30 23459 C 2267.57 3.02204 1.69922 0
M  V30 23460 C 2266.63 4.13492 1.15426 0
M  V30 23461 C 2265.87 4.84172 2.24529 0
M  V30 23462 O 2266.09 4.54356 3.44844 0
M  V30 23463 O 2265.02 5.71114 1.90034 0
M  V30 23464 H 2268.85 3.03667 -0.0448878 0
M  V30 23465 H 2266.43 1.49142 -0.087768 0
M  V30 23466 H 2268.32 3.48694 2.36624 0
M  V30 23467 H 2266.99 2.29389 2.28391 0
M  V30 23468 H 2265.9 3.71355 0.452371 0
M  V30 23469 H 2267.23 4.88346 0.614719 0
M  V30 23470 N 2268.88 0.0501669 1.5752 0
M  V30 23471 C 2269.83 -0.924566 2.11472 0
M  V30 23472 C 2270.8 -1.30949 1.02184 0
M  V30 23473 O 2271.99 -1.39914 1.29726 0
M  V30 23474 C 2269.13 -2.19446 2.66341 0
M  V30 23475 C 2268.24 -1.86411 3.89711 0
M  V30 23476 C 2267.37 -3.07851 4.32899 0
M  V30 23477 C 2266.41 -2.70733 5.48972 0
M  V30 23478 N 2265.55 -3.84863 5.87218 0
M  V30 23479 H 2270.39 -0.457588 2.94466 0
M  V30 23480 H 2267.93 -0.214241 1.45532 0
M  V30 23481 H 2269.88 -2.93753 2.96252 0
M  V30 23482 H 2268.51 -2.63723 1.86146 0
M  V30 23483 H 2267.57 -1.02257 3.66398 0
M  V30 23484 H 2268.88 -1.55088 4.74077 0
M  V30 23485 H 2268.03 -3.90458 4.64357 0
M  V30 23486 H 2266.77 -3.42352 3.47342 0
M  V30 23487 H 2265.78 -1.86542 5.17187 0
M  V30 23488 H 2267 -2.37425 6.36244 0
M  V30 23489 H 2264.95 -4.19166 5.04614 0
M  V30 23490 H 2264.86 -3.57235 6.66273 0
M  V30 23491 H 2266.13 -4.68113 6.2329 0
M  V30 23492 N 2270.36 -1.56011 -0.223207 0
M  V30 23493 C 2271.64 -1.69735 -0.972078 0
M  V30 23494 C 2272.02 -0.596946 -2.02484 0
M  V30 23495 O 2271.37 0.396285 -2.25037 0
M  V30 23496 C 2271.58 -3.10982 -1.58402 0
M  V30 23497 C 2272.92 -3.70338 -2.0769 0
M  V30 23498 O 2273.95 -3.13933 -1.68299 0
M  V30 23499 O 2272.81 -4.69269 -2.80087 0
M  V30 23500 H 2269.9 -0.691253 -0.453981 0
M  V30 23501 H 2272.45 -1.68331 -0.215119 0
M  V30 23502 H 2271.22 -3.82531 -0.823763 0
M  V30 23503 H 2270.84 -3.16497 -2.40656 0
M  V30 23504 N 2271.84 0.489844 -1.49794 0
M  V30 23505 C 2273.06 1.27169 -1.63838 0
M  V30 23506 C 2273.49 1.8546 -0.314053 0
M  V30 23507 O 2272.85 1.664 0.719774 0
M  V30 23508 C 2272.9 2.36973 -2.71801 0
M  V30 23509 O 2272 3.41124 -2.3175 0
M  V30 23510 H 2271.34 0.37495 -0.548004 0
M  V30 23511 H 2273.87 0.585157 -1.96054 0
M  V30 23512 H 2273.88 2.8257 -2.9431 0
M  V30 23513 H 2272.56 1.93915 -3.67927 0
M  V30 23514 H 2271.13 3.01369 -2.19616 0
M  V30 23515 N 2273.32 1.39056 0.741698 0
M  V30 23516 C 2274.73 1.3207 1.31963 0
M  V30 23517 C 2275.08 -0.0180453 1.96192 0
M  V30 23518 O 2274.2 -0.920162 1.95862 0
M  V30 23519 C 2274.8 2.39185 2.3995 0
M  V30 23520 C 2273.36 2.35741 2.93434 0
M  V30 23521 C 2272.51 2.21425 1.66932 0
M  V30 23522 H 2275.46 1.49241 0.539695 0
M  V30 23523 H 2275.48 2.05587 3.20178 0
M  V30 23524 H 2274.99 3.36609 1.93174 0
M  V30 23525 H 2273.09 1.41935 3.44507 0
M  V30 23526 H 2273.2 3.30341 3.47004 0
M  V30 23527 H 2271.57 1.68481 1.91014 0
M  V30 23528 H 2272.35 3.20808 1.22218 0
M  V30 23529 N 2274.8 -0.971167 1.24121 0
M  V30 23530 C 2275.71 -2.09915 1.04751 0
M  V30 23531 C 2276.72 -1.73997 -0.0106856 0
M  V30 23532 O 2277.9 -2.00532 0.186749 0
M  V30 23533 C 2274.96 -3.40535 0.650888 0
M  V30 23534 C 2274.02 -3.90423 1.78517 0
M  V30 23535 C 2273.26 -5.14809 1.40738 0
M  V30 23536 O 2273.48 -5.69633 0.29567 0
M  V30 23537 O 2272.41 -5.58995 2.23178 0
M  V30 23538 H 2276.24 -2.29151 1.99308 0
M  V30 23539 H 2273.82 -1.08305 1.0291 0
M  V30 23540 H 2275.71 -4.19085 0.441066 0
M  V30 23541 H 2274.38 -3.22609 -0.265592 0
M  V30 23542 H 2273.29 -3.1295 2.04972 0
M  V30 23543 H 2274.62 -4.1282 2.6803 0
M  V30 23544 N 2276.27 -1.05441 -1.17133 0
M  V30 23545 C 2277.24 -0.661802 -2.19438 0
M  V30 23546 C 2278.24 0.288014 -1.582 0
M  V30 23547 O 2279.43 0.0715497 -1.74053 0
M  V30 23548 C 2276.56 0.027561 -3.40889 0
M  V30 23549 H 2277.75 -1.56732 -2.55685 0
M  V30 23550 H 2275.31 -0.84859 -1.31258 0
M  V30 23551 H 2276.04 0.946235 -3.10188 0
M  V30 23552 H 2275.83 -0.655306 -3.86585 0
M  V30 23553 H 2277.32 0.288269 -4.16604 0
M  V30 23554 N 2277.75 1.33613 -0.835776 0
M  V30 23555 C 2278.7 2.31195 -0.255278 0
M  V30 23556 C 2279.69 1.57996 0.611042 0
M  V30 23557 O 2280.9 1.72889 0.500948 0
M  V30 23558 H 2277.28 0.749287 -0.0638217 0
M  V30 23559 H 2279.25 2.77667 -1.09288 0
M  V30 23560 C 2278 3.43202 0.55748 0
M  V30 23561 H 2277.32 3.99675 -0.0998256 0
M  V30 23562 H 2278.76 4.13685 0.929549 0
M  V30 23563 C 2277.22 2.88784 1.7351 0
M  V30 23564 O 2277.75 2.84717 2.83371 0
M  V30 23565 N 2275.95 2.45433 1.55599 0
M  V30 23566 H 2275.5 2.4894 0.662311 0
M  V30 23567 H 2275.46 2.09375 2.34541 0
M  V30 23568 N 2279.23 0.591922 1.46062 0
M  V30 23569 C 2280.48 0.0808746 2.01938 0
M  V30 23570 C 2280.8 -1.28722 1.46477 0
M  V30 23571 O 2280.07 -1.84697 0.652976 0
M  V30 23572 H 2278.65 0.0269069 0.746515 0
M  V30 23573 H 2281.31 0.769783 1.79054 0
M  V30 23574 H 2280.41 0.0188126 3.12094 0
M  V30 23575 N 2280.71 -1.54102 0.330204 0
M  V30 23576 C 2281.99 -1.92882 -0.324974 0
M  V30 23577 C 2282.37 -1.26048 -1.69337 0
M  V30 23578 O 2281.71 -0.406565 -2.24854 0
M  V30 23579 C 2281.92 -3.46577 -0.410573 0
M  V30 23580 C 2283.27 -4.19317 -0.667727 0
M  V30 23581 O 2284.3 -3.52769 -0.493228 0
M  V30 23582 O 2283.15 -5.37183 -1.00482 0
M  V30 23583 H 2280.25 -0.805613 -0.186859 0
M  V30 23584 H 2282.79 -1.65381 0.380405 0
M  V30 23585 H 2281.57 -3.87412 0.550233 0
M  V30 23586 H 2281.19 -3.80202 -1.16327 0
M  V30 23587 N 2282.19 -0.0585199 -1.57491 0
M  V30 23588 C 2283.43 0.614524 -1.93265 0
M  V30 23589 C 2283.77 1.70059 -0.937746 0
M  V30 23590 O 2283.04 1.94468 0.0351311 0
M  V30 23591 C 2283.32 1.2038 -3.39383 0
M  V30 23592 C 2283.18 0.125296 -4.49625 0
M  V30 23593 C 2284.5 2.11327 -3.86043 0
M  V30 23594 H 2281.61 0.22192 -0.702795 0
M  V30 23595 H 2284.26 -0.121783 -1.89609 0
M  V30 23596 H 2282.41 1.83133 -3.42629 0
M  V30 23597 H 2284.08 -0.507051 -4.58505 0
M  V30 23598 H 2282.32 -0.545747 -4.30353 0
M  V30 23599 H 2282.99 0.577765 -5.48968 0
M  V30 23600 H 2285.47 1.58527 -3.84719 0
M  V30 23601 H 2284.34 2.49499 -4.88919 0
M  V30 23602 H 2284.61 3.0163 -3.23221 0
M  V30 23603 N 2283.66 1.56128 0.21493 0
M  V30 23604 C 2284.89 1.83886 0.959207 0
M  V30 23605 C 2285.31 0.639675 1.76889 0
M  V30 23606 O 2284.67 -0.41157 1.76567 0
M  V30 23607 C 2284.72 3.09696 1.84718 0
M  V30 23608 O 2283.82 2.88855 2.94341 0
M  V30 23609 H 2283.17 0.606073 0.27124 0
M  V30 23610 H 2285.7 2.03345 0.22624 0
M  V30 23611 H 2285.71 3.39973 2.2557 0
M  V30 23612 H 2284.38 3.96605 1.25211 0
M  V30 23613 H 2282.96 2.69828 2.57386 0
M  V30 23614 N 2285.14 -0.481893 1.50052 0
M  V30 23615 C 2286.07 -1.58948 1.71049 0
M  V30 23616 C 2287.05 -1.60641 0.559316 0
M  V30 23617 O 2288.24 -1.7708 0.797274 0
M  V30 23618 C 2285.37 -2.97336 1.79467 0
M  V30 23619 C 2284.32 -3.1051 2.94563 0
M  V30 23620 C 2283.65 -4.50439 2.88113 0
M  V30 23621 C 2284.95 -2.88739 4.35232 0
M  V30 23622 H 2286.64 -1.41631 2.63782 0
M  V30 23623 H 2284.19 -0.67992 1.26937 0
M  V30 23624 H 2286.14 -3.74738 1.92741 0
M  V30 23625 H 2284.87 -3.15786 0.833467 0
M  V30 23626 H 2283.52 -2.35538 2.80923 0
M  V30 23627 H 2283.17 -4.65791 1.89861 0
M  V30 23628 H 2282.87 -4.6019 3.65375 0
M  V30 23629 H 2284.4 -5.29875 3.03421 0
M  V30 23630 H 2285.81 -3.55898 4.49455 0
M  V30 23631 H 2284.21 -3.09946 5.13862 0
M  V30 23632 H 2285.28 -1.84688 4.48351 0
M  V30 23633 N 2286.62 -1.39448 -0.734313 0
M  V30 23634 C 2287.85 -1.39984 -1.52355 0
M  V30 23635 C 2288.26 0.00546432 -1.88799 0
M  V30 23636 O 2287.62 0.976971 -1.54148 0
M  V30 23637 C 2287.67 -2.27338 -2.81068 0
M  V30 23638 O 2287.39 -3.62396 -2.46172 0
M  V30 23639 C 2288.89 -2.36265 -3.75092 0
M  V30 23640 H 2286.11 -0.478112 -0.470798 0
M  V30 23641 H 2288.66 -1.83271 -0.907307 0
M  V30 23642 H 2286.81 -1.87463 -3.39023 0
M  V30 23643 H 2287.23 -4.08597 -3.28859 0
M  V30 23644 H 2288.7 -3.01634 -4.623 0
M  V30 23645 H 2289.18 -1.38202 -4.1689 0
M  V30 23646 H 2289.78 -2.76613 -3.23056 0
M  V30 23647 N 2288.1 0.964571 -1.24635 0
M  V30 23648 C 2289.35 1.70457 -1.08576 0
M  V30 23649 C 2289.67 1.91348 0.375621 0
M  V30 23650 O 2288.94 1.49347 1.26776 0
M  V30 23651 H 2287.52 0.631642 -0.398795 0
M  V30 23652 H 2290.18 1.16023 -1.56603 0
M  V30 23653 H 2289.28 2.68782 -1.58628 0
M  V30 23654 N 2289.58 1.0606 1.16572 0
M  V30 23655 C 2290.49 0.680321 2.24519 0
M  V30 23656 C 2291.5 -0.302574 1.71349 0
M  V30 23657 O 2292.68 -0.152478 2.00822 0
M  V30 23658 C 2289.74 0.0700925 3.46629 0
M  V30 23659 C 2288.8 1.10455 4.14847 0
M  V30 23660 C 2288.04 0.523349 5.31128 0
M  V30 23661 O 2288.26 -0.664609 5.66515 0
M  V30 23662 O 2287.19 1.26189 5.88523 0
M  V30 23663 H 2291.02 1.58019 2.59352 0
M  V30 23664 H 2288.61 0.832715 1.24041 0
M  V30 23665 H 2290.49 -0.268593 4.20543 0
M  V30 23666 H 2289.16 -0.803298 3.13574 0
M  V30 23667 H 2288.07 1.49538 3.42913 0
M  V30 23668 H 2289.4 1.94939 4.51951 0
M  V30 23669 N 2291.06 -1.33168 0.84285 0
M  V30 23670 C 2292 -2.29133 0.276925 0
M  V30 23671 C 2292.97 -1.54513 -0.609499 0
M  V30 23672 O 2294.16 -1.82793 -0.546923 0
M  V30 23673 C 2291.3 -3.4087 -0.538647 0
M  V30 23674 C 2290.41 -4.30393 0.372245 0
M  V30 23675 C 2289.55 -5.29249 -0.454815 0
M  V30 23676 C 2288.58 -6.10412 0.454218 0
M  V30 23677 N 2287.72 -7.01301 -0.334952 0
M  V30 23678 H 2292.56 -2.76932 1.10057 0
M  V30 23679 H 2290.1 -1.36262 0.554185 0
M  V30 23680 H 2292.06 -4.04362 -1.02702 0
M  V30 23681 H 2290.69 -2.94253 -1.32722 0
M  V30 23682 H 2289.74 -3.67588 0.978944 0
M  V30 23683 H 2291.05 -4.8718 1.07039 0
M  V30 23684 H 2290.2 -5.98287 -1.00684 0
M  V30 23685 H 2288.94 -4.7305 -1.18638 0
M  V30 23686 H 2287.95 -5.40289 1.01823 0
M  V30 23687 H 2289.17 -6.68695 1.18421 0
M  V30 23688 H 2287.12 -6.47545 -1.04982 0
M  V30 23689 H 2287.04 -7.55387 0.304395 0
M  V30 23690 H 2288.3 -7.7464 -0.869088 0
M  V30 23691 N 2292.53 -0.599659 -1.45746 0
M  V30 23692 C 2293.76 -0.0978914 -2.06668 0
M  V30 23693 C 2294.18 1.21436 -1.44564 0
M  V30 23694 O 2293.53 1.73794 -0.556953 0
M  V30 23695 C 2293.58 0.0566409 -3.61456 0
M  V30 23696 O 2293.31 -1.20369 -4.2124 0
M  V30 23697 C 2294.81 0.590791 -4.39346 0
M  V30 23698 H 2292.03 -0.0652061 -0.667824 0
M  V30 23699 H 2294.57 -0.825143 -1.87114 0
M  V30 23700 H 2292.73 0.734184 -3.80379 0
M  V30 23701 H 2293.14 -1.0283 -5.14321 0
M  V30 23702 H 2294.61 0.648035 -5.48183 0
M  V30 23703 H 2295.09 1.6114 -4.08571 0
M  V30 23704 H 2295.7 -0.0524427 -4.25268 0
M  V30 23705 N 2294.01 1.53925 -0.338371 0
M  V30 23706 C 2294.94 2.2779 0.51324 0
M  V30 23707 C 2295.92 1.29151 1.10698 0
M  V30 23708 O 2297.11 1.57986 1.12934 0
M  V30 23709 C 2294.24 3.04682 1.66691 0
M  V30 23710 C 2293.19 4.10782 1.20176 0
M  V30 23711 C 2292.52 4.756 2.44355 0
M  V30 23712 C 2293.82 5.21403 0.305958 0
M  V30 23713 H 2295.51 2.99223 -0.102936 0
M  V30 23714 H 2293.06 1.4391 -0.0509472 0
M  V30 23715 H 2295.01 3.55092 2.26909 0
M  V30 23716 H 2293.73 2.30892 2.30991 0
M  V30 23717 H 2292.39 3.61277 0.622436 0
M  V30 23718 H 2292.04 3.98408 3.0705 0
M  V30 23719 H 2291.74 5.47279 2.13916 0
M  V30 23720 H 2293.27 5.28791 3.05307 0
M  V30 23721 H 2294.68 5.6748 0.814829 0
M  V30 23722 H 2293.08 6.00027 0.0936874 0
M  V30 23723 H 2294.15 4.80397 -0.659294 0
M  V30 23724 N 2295.49 0.0668712 1.57458 0
M  V30 23725 C 2296.72 -0.612531 1.97625 0
M  V30 23726 C 2297.13 -1.63445 0.945048 0
M  V30 23727 O 2296.49 -1.8237 -0.0688955 0
M  V30 23728 C 2296.54 -1.2855 3.37872 0
M  V30 23729 O 2296.26 -0.30448 4.37041 0
M  V30 23730 C 2297.76 -2.05318 3.92886 0
M  V30 23731 H 2294.98 -0.16637 0.650048 0
M  V30 23732 H 2297.53 0.137818 2.04035 0
M  V30 23733 H 2295.68 -1.98696 3.32564 0
M  V30 23734 H 2296.1 -0.786688 5.18567 0
M  V30 23735 H 2297.57 -2.47804 4.93252 0
M  V30 23736 H 2298.05 -2.90774 3.29161 0
M  V30 23737 H 2298.65 -1.40049 4.0158 0
M  V30 23738 N 2296.97 -1.56239 -0.206647 0
M  V30 23739 C 2298.19 -1.84392 -0.949442 0
M  V30 23740 C 2298.62 -0.649047 -1.76547 0
M  V30 23741 O 2297.98 0.4022 -1.76782 0
M  V30 23742 C 2298.02 -3.10672 -1.83073 0
M  V30 23743 O 2297.13 -2.90412 -2.92805 0
M  V30 23744 H 2296.47 -0.607503 -0.268022 0
M  V30 23745 H 2299 -2.03462 -0.215453 0
M  V30 23746 H 2299.01 -3.41165 -2.23764 0
M  V30 23747 H 2297.68 -3.97263 -1.23105 0
M  V30 23748 H 2296.26 -2.71189 -2.55951 0
M  V30 23749 N 2298.45 0.473929 -1.50305 0
M  V30 23750 C 2299.69 1.22803 -1.61391 0
M  V30 23751 C 2300.02 1.91678 -0.311989 0
M  V30 23752 O 2299.3 1.81988 0.686352 0
M  V30 23753 C 2299.58 2.27391 -2.79223 0
M  V30 23754 C 2299.44 1.62841 -4.19289 0
M  V30 23755 C 2300.75 3.28727 -2.9262 0
M  V30 23756 H 2297.87 0.445109 -0.587407 0
M  V30 23757 H 2300.52 0.522233 -1.82682 0
M  V30 23758 H 2298.67 2.87588 -2.612 0
M  V30 23759 H 2300.34 1.06263 -4.48894 0
M  V30 23760 H 2298.58 0.931618 -4.23678 0
M  V30 23761 H 2299.25 2.3883 -4.97659 0
M  V30 23762 H 2301.73 2.78551 -3.0911 0
M  V30 23763 H 2300.6 3.99239 -3.76695 0
M  V30 23764 H 2300.86 3.9268 -2.03114 0
M  V30 23765 O 2299.96 1.49148 0.619448 0
M  V30 23766 H 2300.65 1.45925 1.2738 0
M  V30 END ATOM
M  V30 BEGIN BOND
M  V30 END BOND
M  V30 END CTAB
M  END
$$$$
