drugbank_target|P68400 Casein kinase II subunit alpha (DB00171; DB01765; DB02170; DB02709; DB03035; DB03127; DB03924; DB04216; DB04395; DB04462; DB04719; DB04720; DB04721; DB07715; DB07802; DB08338; DB08340; DB08345; DB08353; DB08354; DB08360; DB08362; DB08473; DB08660; DB08846; DB12010)
 OpenBabel12092119493D

  0  0  0     0  0            999 V3000
M  V30 BEGIN CTAB
M  V30 COUNTS 6314 6399 0 0 0
M  V30 BEGIN ATOM
M  V30 1 H -0.908 1.98254 -0.117106 0
M  V30 2 N 0 1.576 0 0
M  V30 3 C 0.933 2.03868 1.02534 0
M  V30 4 C 1.911 0.928543 1.3348 0
M  V30 5 O 3.095 1.19667 1.45644 0
M  V30 6 C 0.222 2.43627 2.35294 0
M  V30 7 C -0.732 3.65373 2.2001 0
M  V30 8 S 0.101 5.13292 1.52614 0
M  V30 9 C 1.257 5.56322 2.86805 0
M  V30 10 H 1.49 2.90518 0.631377 0
M  V30 11 H -0.977 1.52953 0.210867 0
M  V30 12 H 0.981 2.67203 3.11629 0
M  V30 13 H -0.358 1.57376 2.7183 0
M  V30 14 H -1.165 3.90944 3.18086 0
M  V30 15 H -1.563 3.418 1.51819 0
M  V30 16 H 0.729 5.58782 3.83104 0
M  V30 17 H 1.672 6.56266 2.65933 0
M  V30 18 H 2.08 4.83886 2.90714 0
M  V30 19 N 1.4781 -0.272755 1.55222 0
M  V30 20 C 2.7031 -1.02683 1.80197 0
M  V30 21 C 3.1281 -1.79142 0.573551 0
M  V30 22 O 2.4861 -1.74917 -0.476849 0
M  V30 23 C 2.5341 -1.9609 3.02624 0
M  V30 24 O 1.6381 -3.04863 2.77727 0
M  V30 25 H 0.9791 -0.293557 0.595584 0
M  V30 26 H 3.5091 -0.30159 2.02365 0
M  V30 27 H 3.5191 -2.38039 3.31363 0
M  V30 28 H 2.1941 -1.39851 3.91682 0
M  V30 29 H 0.7711 -2.67228 2.60084 0
M  V30 30 N 2.9562 -1.48159 -0.537278 0
M  V30 31 C 4.2042 -1.55497 -1.29094 0
M  V30 32 C 4.5252 -0.227454 -1.93669 0
M  V30 33 O 3.7952 0.750386 -1.80959 0
M  V30 34 H 2.3752 -0.572832 -0.47945 0
M  V30 35 H 5.0372 -1.84579 -0.625818 0
M  V30 36 H 4.1332 -2.33216 -2.07405 0
M  V30 37 N 4.4343 0.785586 -1.36625 0
M  V30 38 C 5.8453 1.36101 -1.27803 0
M  V30 39 C 6.1963 1.96035 0.0804875 0
M  V30 40 O 5.3213 1.92834 0.982042 0
M  V30 41 C 5.9163 2.47442 -2.31426 0
M  V30 42 C 4.4753 3.00789 -2.26281 0
M  V30 43 C 3.6223 1.73896 -2.15999 0
M  V30 44 H 6.5733 0.586928 -1.47448 0
M  V30 45 H 6.5943 3.2656 -1.95291 0
M  V30 46 H 6.1063 2.03791 -3.30289 0
M  V30 47 H 4.2073 3.48851 -1.30896 0
M  V30 48 H 4.3203 3.57343 -3.19128 0
M  V30 49 H 2.6843 1.9628 -1.62316 0
M  V30 50 H 3.4673 1.32368 -3.16755 0
M  V30 51 N 5.9124 1.20967 1.01018 0
M  V30 52 C 7.1584 1.02526 1.74975 0
M  V30 53 C 7.4914 -0.4408 1.89131 0
M  V30 54 O 6.7664 -1.32718 1.42184 0
M  V30 55 C 7.0494 1.71699 3.1653 0
M  V30 56 C 6.9024 3.25791 3.10129 0
M  V30 57 C 8.2214 1.45531 4.15342 0
M  V30 58 H 5.3404 0.373863 0.635134 0
M  V30 59 H 7.9824 1.49071 1.17805 0
M  V30 60 H 6.1324 1.32128 3.65341 0
M  V30 61 H 7.8044 3.74697 2.69072 0
M  V30 62 H 6.0474 3.56363 2.47362 0
M  V30 63 H 6.7184 3.69353 4.10222 0
M  V30 64 H 9.1944 1.79872 3.75213 0
M  V30 65 H 8.0704 1.96453 5.1254 0
M  V30 66 H 8.3314 0.384237 4.40427 0
M  V30 67 N 7.3905 -1.2043 1.01659 0
M  V30 68 C 8.8015 -1.71517 0.737482 0
M  V30 69 C 9.1525 -1.81547 -0.743973 0
M  V30 70 O 8.2775 -1.47803 -1.58061 0
M  V30 71 C 8.8725 -3.11515 1.33206 0
M  V30 72 C 7.4315 -3.59912 1.10183 0
M  V30 73 C 6.5785 -2.37116 1.43776 0
M  V30 74 H 9.5295 -1.05444 1.18606 0
M  V30 75 H 9.5505 -3.73575 0.722636 0
M  V30 76 H 9.0625 -3.04182 2.41028 0
M  V30 77 H 7.1635 -3.72577 0.0412756 0
M  V30 78 H 7.2765 -4.44731 1.78188 0
M  V30 79 H 5.6405 -2.39857 0.856778 0
M  V30 80 H 6.4235 -2.32424 2.52654 0
M  V30 81 N 8.8686 -0.792821 -1.36206 0
M  V30 82 C 10.0936 -0.377701 -2.03932 0
M  V30 83 C 10.5186 0.998947 -1.59382 0
M  V30 84 O 9.8766 1.64421 -0.763903 0
M  V30 85 C 9.9246 -0.453635 -3.57735 0
M  V30 86 O 9.0286 0.538151 -4.08874 0
M  V30 87 H 8.3696 -0.159855 -0.644471 0
M  V30 88 H 10.8996 -1.07488 -1.7409 0
M  V30 89 H 10.9096 -0.318464 -4.06755 0
M  V30 90 H 9.5846 -1.45784 -3.89512 0
M  V30 91 H 8.1616 0.364359 -3.71116 0
M  V30 92 N 10.3467 1.47872 -0.545128 0
M  V30 93 C 11.7627 1.5829 -0.204032 0
M  V30 94 C 11.9627 1.54529 1.29317 0
M  V30 95 O 11.0187 1.44232 2.07252 0
M  V30 96 C 12.3317 2.89304 -0.819987 0
M  V30 97 C 13.8797 3.02864 -0.790105 0
M  V30 98 C 14.3547 4.3656 -1.38491 0
M  V30 99 N 15.8457 4.43165 -1.34755 0
M  V30 100 C 16.5807 5.45153 -1.77753 0
M  V30 101 N 16.0767 6.54016 -2.2855 0
M  V30 102 N 17.8697 5.36125 -1.68897 0
M  V30 103 H 10.0207 1.4856 -1.51802 0
M  V30 104 H 12.2837 0.706305 -0.632327 0
M  V30 105 H 11.9897 2.97757 -1.87173 0
M  V30 106 H 11.8637 3.75957 -0.305915 0
M  V30 107 H 14.2507 2.94014 0.252913 0
M  V30 108 H 14.3317 2.17782 -1.34181 0
M  V30 109 H 13.9757 4.46164 -2.42693 0
M  V30 110 H 13.9057 5.20353 -0.808754 0
M  V30 111 H 16.3967 3.65083 -0.975855 0
M  V30 112 H 16.7097 7.27994 -2.59314 0
M  V30 113 H 15.0547 6.54938 -2.32553 0
M  V30 114 H 18.2457 4.49975 -1.28998 0
M  V30 115 H 18.4187 6.15472 -2.02726 0
M  V30 116 N 11.8248 0.280983 1.55075 0
M  V30 117 C 12.7878 -0.590896 2.21452 0
M  V30 118 C 13.7878 -1.07682 1.19421 0
M  V30 119 O 14.9778 -0.97605 1.44288 0
M  V30 120 C 12.1098 -1.81587 2.88511 0
M  V30 121 H 13.3028 -0.0112554 2.99898 0
M  V30 122 H 10.8558 0.0316438 1.56268 0
M  V30 123 H 11.5908 -2.43587 2.14093 0
M  V30 124 H 11.3758 -1.4753 3.63287 0
M  V30 125 H 12.8658 -2.43575 3.39206 0
M  V30 126 N 13.3029 -1.57598 0.00835791 0
M  V30 127 C 14.7189 -1.55764 -0.347822 0
M  V30 128 C 14.9189 -1.01186 -1.74252 0
M  V30 129 O 13.9749 -0.649371 -2.44007 0
M  V30 130 C 15.2879 -2.99927 -0.215407 0
M  V30 131 C 16.8359 -3.11656 -0.289725 0
M  V30 132 C 17.3109 -4.57621 -0.18634 0
M  V30 133 N 18.8019 -4.62557 -0.243978 0
M  V30 134 C 19.5369 -5.73094 -0.18745 0
M  V30 135 N 19.0329 -6.92753 -0.0810331 0
M  V30 136 N 20.8259 -5.61588 -0.239925 0
M  V30 137 H 12.9769 -1.91411 0.92062 0
M  V30 138 H 15.2399 -0.879562 0.353659 0
M  V30 139 H 14.9459 -3.43729 0.744512 0
M  V30 140 H 14.8199 -3.63865 -0.994097 0
M  V30 141 H 17.2069 -2.67779 -1.24009 0
M  V30 142 H 17.2879 -2.5048 0.51898 0
M  V30 143 H 16.9319 -5.02174 0.760519 0
M  V30 144 H 16.8619 -5.16752 -1.01364 0
M  V30 145 H 19.3529 -3.76481 -0.327217 0
M  V30 146 H 19.6659 -7.72787 -0.0440241 0
M  V30 147 H 18.0109 -6.94984 -0.0465419 0
M  V30 148 H 21.2019 -4.66996 -0.321317 0
M  V30 149 H 21.3749 -6.47714 -0.192407 0
M  V30 150 N 14.781 0.264519 -1.55364 0
M  V30 151 C 16.027 0.99646 -1.76631 0
M  V30 152 C 16.36 1.85632 -0.570478 0
M  V30 153 O 15.635 1.89647 0.43175 0
M  V30 154 C 15.918 1.87187 -3.07625 0
M  V30 155 C 15.771 1.04138 -4.37579 0
M  V30 156 C 17.09 2.85749 -3.34717 0
M  V30 157 H 14.209 0.360841 -0.642622 0
M  V30 158 H 16.851 0.268218 -1.88097 0
M  V30 159 H 15.001 2.49279 -2.9798 0
M  V30 160 H 16.673 0.440517 -4.59192 0
M  V30 161 H 14.916 0.345115 -4.32425 0
M  V30 162 H 15.587 1.68729 -5.2558 0
M  V30 163 H 18.063 2.33793 -3.4421 0
M  V30 164 H 16.939 3.44136 -4.27623 0
M  V30 165 H 17.2 3.61311 -2.54768 0
M  V30 166 N 16.2591 1.48442 0.529413 0
M  V30 167 C 17.4891 1.59919 1.30804 0
M  V30 168 C 17.8971 0.258792 1.87422 0
M  V30 169 O 17.2401 -0.762096 1.67146 0
M  V30 170 C 17.3021 2.58693 2.49636 0
M  V30 171 C 16.9661 4.03745 2.14101 0
M  V30 172 C 17.9631 4.9141 1.6974 0
M  V30 173 C 15.6481 4.49285 2.24607 0
M  V30 174 C 17.6421 6.22645 1.36351 0
M  V30 175 C 15.3291 5.8054 1.9083 0
M  V30 176 C 16.3271 6.67043 1.46773 0
M  V30 177 O 16.0151 7.95856 1.1344 0
M  V30 178 H 15.7471 0.541981 0.404021 0
M  V30 179 H 18.3011 1.95 0.645309 0
M  V30 180 H 16.5311 2.18734 3.18892 0
M  V30 181 H 18.2201 2.59999 3.11698 0
M  V30 182 H 18.9861 4.57465 1.61094 0
M  V30 183 H 14.8651 3.82142 2.57854 0
M  V30 184 H 18.4091 6.90119 1.01891 0
M  V30 185 H 14.3061 6.14022 1.99117 0
M  V30 186 H 15.0741 8.08613 1.26832 0
M  V30 187 N 17.7372 -0.778329 1.37039 0
M  V30 188 C 18.9652 -1.56734 1.35063 0
M  V30 189 C 19.3802 -1.88686 -0.0655597 0
M  V30 190 O 18.7372 -1.5096 -1.02554 0
M  V30 191 C 18.7882 -2.88163 2.18276 0
M  V30 192 O 18.5092 -2.57583 3.54376 0
M  V30 193 C 20.0102 -3.82422 2.24206 0
M  V30 194 H 17.2302 -0.485778 0.462883 0
M  V30 195 H 19.7742 -0.965185 1.8029 0
M  V30 196 H 17.9292 -3.44818 1.76576 0
M  V30 197 H 18.3432 -3.41699 3.97922 0
M  V30 198 H 19.8172 -4.71667 2.86765 0
M  V30 199 H 20.2942 -4.21078 1.24861 0
M  V30 200 H 20.9002 -3.31697 2.6619 0
M  V30 201 N 19.2153 -1.21501 -1.00376 0
M  V30 202 C 20.4923 -0.941745 -1.71437 0
M  V30 203 C 20.8723 0.546114 -2.03914 0
M  V30 204 O 20.2203 1.51128 -1.71384 0
M  V30 205 C 20.4303 -1.82812 -2.97289 0
M  V30 206 C 21.7783 -2.07771 -3.70292 0
M  V30 207 O 22.8023 -1.80171 -3.07273 0
M  V30 208 O 21.6613 -2.54456 -4.83647 0
M  V30 209 H 18.7553 -0.353243 -0.747762 0
M  V30 210 H 21.3013 -1.32436 -1.06108 0
M  V30 211 H 20.0733 -2.83501 -2.69709 0
M  V30 212 H 19.6963 -1.4464 -3.70358 0
M  V30 213 N 20.6934 1.19889 -1.02296 0
M  V30 214 C 21.9394 1.89701 -0.717033 0
M  V30 215 C 22.2724 1.7905 0.751989 0
M  V30 216 O 21.5474 1.17891 1.547 0
M  V30 217 C 21.8304 3.40858 -1.16136 0
M  V30 218 C 21.6834 3.60411 -2.69117 0
M  V30 219 C 23.0024 4.33876 -0.737549 0
M  V30 220 H 20.1214 0.688874 -0.261957 0
M  V30 221 H 22.7634 1.41154 -1.27183 0
M  V30 222 H 20.9134 3.82335 -0.689342 0
M  V30 223 H 22.5854 3.28145 -3.2422 0
M  V30 224 H 20.8284 3.03665 -3.0979 0
M  V30 225 H 21.4994 4.66396 -2.95261 0
M  V30 226 H 23.9754 4.00081 -1.14344 0
M  V30 227 H 22.8514 5.38242 -1.0764 0
M  V30 228 H 23.1124 4.40628 0.360436 0
M  V30 229 N 22.1715 0.800033 1.35784 0
M  V30 230 C 23.1195 0.193851 2.31791 0
M  V30 231 C 24.1135 -0.652744 1.56319 0
M  V30 232 O 25.3195 -0.546641 1.71499 0
M  V30 233 H 21.6945 0.04392 0.750716 0
M  V30 234 H 23.6655 1.01883 2.80468 0
M  V30 235 C 22.4145 -0.648338 3.41602 0
M  V30 236 H 21.7375 -0.00624665 3.998 0
M  V30 237 H 23.1775 -1.03898 4.11073 0
M  V30 238 C 21.6365 -1.8111 2.84079 0
M  V30 239 O 22.1665 -2.90825 2.77099 0
M  V30 240 N 20.3725 -1.62056 2.41218 0
M  V30 241 H 19.9195 -0.728123 2.47095 0
M  V30 242 H 19.8775 -2.40013 2.03079 0
M  V30 243 N 23.6496 -1.47581 0.552962 0
M  V30 244 C 24.8776 -2.06875 0.0320556 0
M  V30 245 C 25.2926 -1.40625 -1.25976 0
M  V30 246 O 24.6496 -0.501349 -1.75479 0
M  V30 247 C 24.7006 -3.61092 -0.17167 0
M  V30 248 O 24.4216 -4.24858 1.06899 0
M  V30 249 C 25.9226 -4.37242 -0.730344 0
M  V30 250 H 23.1426 -0.669561 0.043915 0
M  V30 251 H 25.6866 -1.89646 0.765163 0
M  V30 252 H 23.8416 -3.7785 -0.854894 0
M  V30 253 H 24.2556 -5.17334 0.864059 0
M  V30 254 H 25.7296 -5.45842 -0.822203 0
M  V30 255 H 26.2066 -4.03235 -1.74064 0
M  V30 256 H 26.8126 -4.25219 -0.0829543 0
M  V30 257 N 25.1277 -0.289203 -1.54924 0
M  V30 258 C 26.0777 0.606939 -2.19773 0
M  V30 259 C 27.0617 1.10783 -1.16687 0
M  V30 260 O 28.2537 1.05057 -1.4245 0
M  V30 261 C 25.3827 1.78398 -2.93307 0
M  V30 262 C 24.4687 1.29961 -4.03697 0
M  V30 263 N 24.8597 0.532377 -5.0299 0
M  V30 264 C 23.1577 1.58136 -4.17024 0
M  V30 265 C 23.8587 0.275912 -5.81045 0
M  V30 266 N 22.8347 0.852365 -5.36876 0
M  V30 267 H 26.6367 0.0130779 -2.93897 0
M  V30 268 H 24.1507 -0.09341 -1.62131 0
M  V30 269 H 26.1477 2.43741 -3.38225 0
M  V30 270 H 24.8077 2.38166 -2.20697 0
M  V30 271 H 25.8187 0.17838 -5.17593 0
M  V30 272 H 22.4957 2.18738 -3.55612 0
M  V30 273 H 23.8857 -0.339502 -6.71042 0
M  V30 274 N 26.6058 1.57591 -0.0167156 0
M  V30 275 C 28.0218 1.55946 0.339557 0
M  V30 276 C 28.2218 1.02109 1.73713 0
M  V30 277 O 27.2778 0.662303 2.43659 0
M  V30 278 C 28.5908 3.00037 0.199499 0
M  V30 279 C 30.1388 3.11805 0.273193 0
M  V30 280 C 30.6138 4.57713 0.162068 0
M  V30 281 N 32.1048 4.6268 0.219444 0
M  V30 282 C 32.8398 5.73185 0.157054 0
M  V30 283 N 32.3358 6.92786 0.0442936 0
M  V30 284 N 34.1288 5.61707 0.21014 0
M  V30 285 H 26.2798 1.90921 -0.930758 0
M  V30 286 H 28.5428 0.877674 -0.358319 0
M  V30 287 H 28.2488 3.4333 -0.76273 0
M  V30 288 H 28.1228 3.64387 0.974786 0
M  V30 289 H 30.5098 2.68433 1.22587 0
M  V30 290 H 30.5908 2.50201 -0.532256 0
M  V30 291 H 30.2348 5.01763 -0.78714 0
M  V30 292 H 30.1648 5.17283 0.986222 0
M  V30 293 H 32.6558 3.76649 0.307246 0
M  V30 294 H 32.9688 7.728 0.00304069 0
M  V30 295 H 31.3138 6.94999 0.00968457 0
M  V30 296 H 34.5048 4.6716 0.296546 0
M  V30 297 H 34.6778 6.47807 0.158054 0
M  V30 298 N 28.0839 -0.256276 1.55502 0
M  V30 299 C 29.4949 -0.826068 1.67431 0
M  V30 300 C 29.8459 -1.86396 0.612446 0
M  V30 301 O 28.9709 -2.15031 -0.243025 0
M  V30 302 C 29.5659 -1.50512 3.03532 0
M  V30 303 C 28.1249 -2.02273 3.17431 0
M  V30 304 C 27.2719 -0.870548 2.63281 0
M  V30 305 H 30.2229 -0.0322728 1.58667 0
M  V30 306 H 30.2439 -2.37279 2.97454 0
M  V30 307 H 29.7559 -0.749484 3.80794 0
M  V30 308 H 27.8569 -2.80746 2.44974 0
M  V30 309 H 27.9699 -2.22655 4.24219 0
M  V30 310 H 26.3339 -1.26851 2.20864 0
M  V30 311 H 27.1169 -0.128149 3.43061 0
M  V30 312 N 29.562 -1.4872 -0.521534 0
M  V30 313 C 30.978 -1.35028 -0.850855 0
M  V30 314 C 31.178 -0.367712 -1.98116 0
M  V30 315 O 30.234 0.208037 -2.51642 0
M  V30 316 C 31.547 -2.75263 -1.21041 0
M  V30 317 C 33.095 -2.83813 -1.31981 0
M  V30 318 C 33.57 -4.24769 -1.71276 0
M  V30 319 N 35.061 -4.27482 -1.78363 0
M  V30 320 C 35.796 -5.33494 -2.1017 0
M  V30 321 N 35.292 -6.49775 -2.40343 0
M  V30 322 N 37.085 -5.20894 -2.11248 0
M  V30 323 H 29.236 -2.11214 0.22413 0
M  V30 324 H 31.499 -0.947252 0.0376439 0
M  V30 325 H 31.205 -3.48765 -0.453415 0
M  V30 326 H 31.079 -3.09327 -2.15863 0
M  V30 327 H 33.466 -2.10561 -2.06756 0
M  V30 328 H 33.547 -2.53358 -0.352596 0
M  V30 329 H 33.191 -4.9854 -0.970588 0
M  V30 330 H 33.121 -4.52673 -2.69062 0
M  V30 331 H 35.612 -3.43611 -1.57288 0
M  V30 332 H 35.925 -7.26402 -2.63743 0
M  V30 333 H 34.27 -6.53035 -2.37844 0
M  V30 334 H 37.461 -4.29065 -1.87139 0
M  V30 335 H 37.634 -6.03612 -2.35704 0
M  V30 336 N 31.0401 0.771051 -1.3745 0
M  V30 337 C 31.9501 1.91538 -1.35464 0
M  V30 338 C 32.9661 1.72134 -0.254123 0
M  V30 339 O 34.1421 1.95358 -0.489626 0
M  V30 340 C 31.2071 3.26671 -1.16134 0
M  V30 341 C 30.2681 3.58723 -2.35831 0
M  V30 342 C 29.5011 4.87409 -2.17413 0
M  V30 343 O 29.7241 5.58506 -1.15876 0
M  V30 344 O 28.6581 5.18539 -3.05615 0
M  V30 345 H 32.4841 1.96165 -2.31847 0
M  V30 346 H 30.0691 0.9139 -1.18187 0
M  V30 347 H 31.9511 4.07499 -1.07345 0
M  V30 348 H 30.6261 3.22894 -0.228251 0
M  V30 349 H 29.5331 2.78127 -2.50192 0
M  V30 350 H 30.8661 3.67243 -3.27709 0
M  V30 351 N 32.5182 1.22032 0.997298 0
M  V30 352 C 33.7482 1.06686 1.76923 0
M  V30 353 C 34.1562 -0.385838 1.85224 0
M  V30 354 O 33.4992 -1.27929 1.31833 0
M  V30 355 C 33.5612 1.59802 3.22031 0
M  V30 356 C 33.2252 3.08362 3.37286 0
M  V30 357 C 34.2222 4.05835 3.24952 0
M  V30 358 C 31.9072 3.47727 3.6248 0
M  V30 359 C 33.9012 5.4066 3.37588 0
M  V30 360 C 31.5882 4.82701 3.74757 0
M  V30 361 C 32.5862 5.78977 3.62319 0
M  V30 362 O 32.2742 7.11502 3.74193 0
M  V30 363 H 32.0062 0.374767 0.562606 0
M  V30 364 H 34.5602 1.61991 1.26286 0
M  V30 365 H 32.7902 0.989003 3.73839 0
M  V30 366 H 34.4792 1.40184 3.80924 0
M  V30 367 H 35.2452 3.76766 3.05405 0
M  V30 368 H 31.1242 2.73317 3.7124 0
M  V30 369 H 34.6682 6.15788 3.27796 0
M  V30 370 H 30.5652 5.11453 3.9381 0
M  V30 371 H 31.3332 7.19019 3.91093 0
M  V30 372 N 33.9963 -1.19345 1.0293 0
M  V30 373 C 35.2423 -1.89585 0.736824 0
M  V30 374 C 35.5973 -1.78148 -0.726703 0
M  V30 375 O 34.8903 -1.16332 -1.52242 0
M  V30 376 C 35.0843 -3.39292 1.12319 0
M  V30 377 C 34.9133 -3.65298 2.62273 0
M  V30 378 C 33.6833 -3.83304 3.29251 0
M  V30 379 C 35.8813 -3.6682 3.60482 0
M  V30 380 N 33.8633 -3.96944 4.68304 0
M  V30 381 C 35.2343 -3.86037 4.85155 0
M  V30 382 C 37.2893 -3.49848 3.54275 0
M  V30 383 C 35.9923 -3.9004 6.04369 0
M  V30 384 C 38.0183 -3.55129 4.72903 0
M  V30 385 C 37.3803 -3.74831 5.9639 0
M  V30 386 H 33.4793 -0.712856 0.321497 0
M  V30 387 H 36.0633 -1.43427 1.31669 0
M  V30 388 H 34.2343 -3.84172 0.571524 0
M  V30 389 H 35.9663 -3.97055 0.78292 0
M  V30 390 H 32.7213 -3.82211 2.79663 0
M  V30 391 H 33.1453 -4.07613 5.40538 0
M  V30 392 H 37.7873 -3.33572 2.59788 0
M  V30 393 H 35.5053 -4.05108 6.99223 0
M  V30 394 H 39.0913 -3.43287 4.69729 0
M  V30 395 H 37.9713 -3.78792 6.86649 0
M  V30 396 N 35.4744 -0.807222 -1.35358 0
M  V30 397 C 36.7514 -0.311126 -1.9311 0
M  V30 398 C 37.1314 1.19937 -1.73719 0
M  V30 399 O 36.4794 1.99918 -1.10657 0
M  V30 400 C 36.6894 -0.723226 -3.41424 0
M  V30 401 C 38.0374 -0.713078 -4.18569 0
M  V30 402 O 39.0614 -0.664811 -3.49941 0
M  V30 403 O 37.9204 -0.772022 -5.41019 0
M  V30 404 H 35.0144 -0.081526 -0.822972 0
M  V30 405 H 37.5604 -0.890962 -1.4443 0
M  V30 406 H 36.3324 -1.76426 -3.4927 0
M  V30 407 H 35.9554 -0.118232 -3.97424 0
M  V30 408 N 36.9525 1.47285 -0.560781 0
M  V30 409 C 38.1825 2.06555 -0.0429638 0
M  V30 410 C 38.5905 1.41339 1.25777 0
M  V30 411 O 37.9335 0.505182 1.76617 0
M  V30 412 C 37.9955 3.58827 0.219887 0
M  V30 413 C 37.6595 4.46105 -0.991944 0
M  V30 414 C 38.6565 4.84 -1.89843 0
M  V30 415 C 36.3415 4.87567 -1.20762 0
M  V30 416 C 38.3355 5.6216 -3.00425 0
M  V30 417 C 36.0225 5.65491 -2.31653 0
M  V30 418 C 37.0205 6.02699 -3.21315 0
M  V30 419 O 36.7085 6.79052 -4.30283 0
M  V30 420 H 36.4405 0.674537 -0.0444468 0
M  V30 421 H 38.9945 1.90225 -0.774818 0
M  V30 422 H 37.2245 3.73383 1.00609 0
M  V30 423 H 38.9135 4.00103 0.683522 0
M  V30 424 H 39.6795 4.52564 -1.74387 0
M  V30 425 H 35.5585 4.5807 -0.518893 0
M  V30 426 H 39.1025 5.9112 -3.70436 0
M  V30 427 H 34.9995 5.9634 -2.47081 0
M  V30 428 H 35.7675 6.9745 -4.28376 0
M  V30 429 N 38.4306 0.297415 1.54768 0
M  V30 430 C 39.3406 -0.58983 2.27064 0
M  V30 431 C 40.3566 -1.15144 1.30453 0
M  V30 432 O 41.5326 -1.17699 1.63428 0
M  V30 433 C 38.5976 -1.74714 2.9946 0
M  V30 434 C 37.6586 -1.21997 4.11601 0
M  V30 435 C 36.8916 -2.32212 4.80535 0
M  V30 436 O 37.1146 -3.52036 4.48806 0
M  V30 437 O 36.0486 -1.99106 5.68014 0
M  V30 438 H 39.8746 -0.00348199 3.037 0
M  V30 439 H 37.4596 0.0640035 1.49263 0
M  V30 440 H 39.3416 -2.42147 3.44881 0
M  V30 441 H 38.0166 -2.32016 2.25722 0
M  V30 442 H 36.9236 -0.511458 3.70587 0
M  V30 443 H 38.2566 -0.692419 4.87305 0
M  V30 444 N 39.9087 -1.5758 0.0250728 0
M  V30 445 C 41.1337 -1.96337 -0.668317 0
M  V30 446 C 41.5587 -0.901314 -1.651 0
M  V30 447 O 40.9167 0.138187 -1.80773 0
M  V30 448 C 40.9647 -3.34191 -1.35457 0
M  V30 449 O 40.0687 -3.30269 -2.46974 0
M  V30 450 H 39.4097 -0.640281 -0.175887 0
M  V30 451 H 41.9397 -2.0442 0.0857224 0
M  V30 452 H 41.9497 -3.70331 -1.71228 0
M  V30 453 H 40.6247 -4.11036 -0.634218 0
M  V30 454 H 39.2017 -3.05841 -2.13344 0
M  V30 455 N 41.3868 0.248026 -1.55636 0
M  V30 456 C 42.3368 1.30994 -1.86614 0
M  V30 457 C 43.3208 1.43543 -0.726918 0
M  V30 458 O 44.5128 1.46804 -0.988818 0
M  V30 459 C 41.6418 2.6656 -2.16335 0
M  V30 460 C 40.7278 2.58019 -3.36581 0
M  V30 461 N 41.1188 2.1911 -4.55878 0
M  V30 462 C 39.4168 2.89035 -3.39669 0
M  V30 463 C 40.1178 2.21174 -5.38012 0
M  V30 464 N 39.0938 2.60632 -4.77045 0
M  V30 465 H 42.8958 0.999583 -2.76379 0
M  V30 466 H 40.4098 0.456652 -1.55848 0
M  V30 467 H 42.4068 3.43194 -2.36692 0
M  V30 468 H 41.0668 2.98463 -1.27867 0
M  V30 469 H 42.0778 1.90672 -4.81523 0
M  V30 470 H 38.7548 3.25485 -2.61469 0
M  V30 471 H 40.1448 1.9344 -6.43452 0
M  V30 472 N 42.8649 1.48995 0.513639 0
M  V30 473 C 44.1109 1.58076 1.27042 0
M  V30 474 C 44.4439 0.261026 1.92438 0
M  V30 475 O 43.7189 -0.734393 1.80103 0
M  V30 476 C 44.0019 2.73091 2.34719 0
M  V30 477 C 43.8549 4.14821 1.73907 0
M  V30 478 C 45.1739 2.83796 3.36375 0
M  V30 479 H 42.2929 0.575391 0.460536 0
M  V30 480 H 44.9349 1.81232 0.570516 0
M  V30 481 H 43.0849 2.53479 2.94416 0
M  V30 482 H 44.7569 4.45917 1.18135 0
M  V30 483 H 42.9999 4.21058 1.0437 0
M  V30 484 H 43.6709 4.91147 2.51949 0
M  V30 485 H 46.1469 3.01611 2.86653 0
M  V30 486 H 45.0229 3.65971 4.09093 0
M  V30 487 H 45.2839 1.92624 3.9793 0
M  V30 488 N 44.343 -0.763751 1.37857 0
M  V30 489 C 45.589 -1.52483 1.33704 0
M  V30 490 C 45.922 -1.94051 -0.0759612 0
M  V30 491 O 45.197 -1.64675 -1.03501 0
M  V30 492 C 45.48 -2.78441 2.28348 0
M  V30 493 C 45.333 -2.43075 3.78463 0
M  V30 494 C 46.652 -3.80415 2.21298 0
M  V30 495 H 43.771 -0.553169 0.487005 0
M  V30 496 H 46.413 -0.875562 1.68624 0
M  V30 497 H 44.563 -3.33842 1.987 0
M  V30 498 H 46.235 -1.93527 4.18742 0
M  V30 499 H 44.478 -1.75666 3.96641 0
M  V30 500 H 45.149 -3.33149 4.40132 0
M  V30 501 H 47.625 -3.34527 2.47449 0
M  V30 502 H 46.501 -4.66257 2.89647 0
M  V30 503 H 46.762 -4.25262 1.20849 0
M  V30 504 N 45.8211 -1.22559 -0.990812 0
M  V30 505 C 46.7311 -1.01394 -2.11557 0
M  V30 506 C 47.7471 0.0383962 -1.73958 0
M  V30 507 O 48.9231 -0.154787 -2.00804 0
M  V30 508 C 45.9881 -0.596569 -3.41529 0
M  V30 509 C 45.0491 -1.72276 -3.93217 0
M  V30 510 C 44.2821 -1.32521 -5.16985 0
M  V30 511 O 44.5051 -0.204909 -5.70032 0
M  V30 512 O 43.4391 -2.14247 -5.62478 0
M  V30 513 H 47.2651 -1.95633 -2.32296 0
M  V30 514 H 44.8501 -1.01172 -1.0993 0
M  V30 515 H 46.7321 -0.374263 -4.19735 0
M  V30 516 H 45.4071 0.316939 -3.22145 0
M  V30 517 H 44.3141 -1.99961 -3.16174 0
M  V30 518 H 45.6471 -2.61421 -4.17037 0
M  V30 519 N 47.2992 1.18797 -1.03562 0
M  V30 520 C 48.5452 1.89192 -0.746867 0
M  V30 521 C 48.9002 1.78531 0.717245 0
M  V30 522 O 48.1932 1.17137 1.51622 0
M  V30 523 C 48.3872 3.38692 -1.14117 0
M  V30 524 C 48.2162 3.63902 -2.64207 0
M  V30 525 C 46.9862 3.81553 -3.31279 0
M  V30 526 C 49.1842 3.64903 -3.62423 0
M  V30 527 N 47.1662 3.94455 -4.70402 0
M  V30 528 C 48.5372 3.83458 -4.87196 0
M  V30 529 C 50.5922 3.47965 -3.56125 0
M  V30 530 C 49.2952 3.86829 -6.06429 0
M  V30 531 C 51.3212 3.52616 -4.7478 0
M  V30 532 C 50.6832 3.71663 -5.9837 0
M  V30 533 H 46.7822 0.711141 -0.325273 0
M  V30 534 H 49.3662 1.42727 -1.32428 0
M  V30 535 H 47.5372 3.83864 -0.591889 0
M  V30 536 H 49.2692 3.96634 -0.803966 0
M  V30 537 H 46.0242 3.80723 -2.81686 0
M  V30 538 H 46.4482 4.0474 -5.42692 0
M  V30 539 H 51.0902 3.32189 -2.61553 0
M  V30 540 H 48.8082 4.01395 -7.01362 0
M  V30 541 H 52.3942 3.40791 -4.71543 0
M  V30 542 H 51.2742 3.75145 -6.88648 0
M  V30 543 N 48.7773 0.814389 1.34928 0
M  V30 544 C 50.0253 0.397636 1.9815 0
M  V30 545 C 50.3463 -1.04069 1.64908 0
M  V30 546 O 49.6163 -1.72121 0.93548 0
M  V30 547 H 48.1963 0.144043 0.732981 0
M  V30 548 H 50.8583 1.04195 1.6471 0
M  V30 549 H 49.9543 0.509688 3.0791 0
M  V30 550 N 50.2554 -1.46986 0.568584 0
M  V30 551 C 51.2034 -2.31858 -0.185649 0
M  V30 552 C 52.1974 -1.43624 -0.898249 0
M  V30 553 O 53.4034 -1.60327 -0.818242 0
M  V30 554 H 49.7784 -0.747866 -0.0787399 0
M  V30 555 H 51.7494 -2.93303 0.549191 0
M  V30 556 C 50.4984 -3.26513 -1.19519 0
M  V30 557 H 49.8214 -3.94377 -0.656285 0
M  V30 558 H 51.2614 -3.88707 -1.6936 0
M  V30 559 C 49.7204 -2.50847 -2.24894 0
M  V30 560 O 50.2504 -2.26119 -3.32014 0
M  V30 561 N 48.4564 -2.11656 -1.99124 0
M  V30 562 H 48.0034 -2.31966 -1.12024 0
M  V30 563 H 47.9614 -1.61347 -2.69842 0
M  V30 564 N 51.7335 -0.305618 -1.54608 0
M  V30 565 C 52.6655 0.602161 -2.21149 0
M  V30 566 C 53.6785 1.09394 -1.20569 0
M  V30 567 O 54.8675 1.0106 -1.47136 0
M  V30 568 C 51.9675 1.83692 -2.84799 0
M  V30 569 C 51.1405 1.48686 -4.11353 0
M  V30 570 C 50.1995 2.57725 -4.58764 0
M  V30 571 O 49.2255 2.22623 -5.23858 0
M  V30 572 N 50.4275 3.88346 -4.31471 0
M  V30 573 H 53.1925 0.0324966 -2.99682 0
M  V30 574 H 50.7535 -0.128021 -1.61393 0
M  V30 575 H 52.7455 2.55994 -3.13448 0
M  V30 576 H 51.3155 2.31486 -2.10078 0
M  V30 577 H 50.5355 0.596269 -3.89664 0
M  V30 578 H 51.8235 1.22842 -4.93748 0
M  V30 579 H 51.2215 4.19671 -3.79331 0
M  V30 580 H 49.7785 4.56932 -4.64818 0
M  V30 581 N 53.2116 1.57565 -0.0334293 0
M  V30 582 C 54.4886 1.83282 0.683163 0
M  V30 583 C 54.8686 0.91823 1.90084 0
M  V30 584 O 54.2166 -0.025113 2.28486 0
M  V30 585 C 54.4266 3.32599 1.0573 0
M  V30 586 C 55.7746 3.99179 1.44711 0
M  V30 587 O 56.7986 3.3712 1.15015 0
M  V30 588 O 55.6576 5.08565 2.0006 0
M  V30 589 H 52.7516 0.755869 0.335546 0
M  V30 590 H 55.2976 1.69589 -0.0614402 0
M  V30 591 H 54.0696 3.90834 0.190828 0
M  V30 592 H 53.6926 3.51415 1.85993 0
M  V30 593 N 54.6897 -0.239769 1.55765 0
M  V30 594 C 55.9667 -0.990056 1.68693 0
M  V30 595 C 56.3467 -2.03107 0.5754 0
M  V30 596 O 55.6947 -2.24604 -0.42017 0
M  V30 597 C 55.9047 -1.61696 3.09282 0
M  V30 598 C 57.2527 -2.11613 3.6811 0
M  V30 599 O 58.2767 -1.71624 3.12127 0
M  V30 600 O 57.1357 -2.85057 4.66267 0
M  V30 601 H 54.2297 -0.461299 0.686391 0
M  V30 602 H 56.7757 -0.232991 1.68093 0
M  V30 603 H 55.5477 -0.864357 3.81634 0
M  V30 604 H 55.1707 -2.44005 3.13923 0
M  V30 605 N 56.1678 -1.49265 -0.50573 0
M  V30 606 C 57.3978 -1.61979 -1.28243 0
M  V30 607 C 57.8058 -0.288576 -1.86986 0
M  V30 608 O 57.1488 0.735408 -1.68337 0
M  V30 609 C 57.2108 -2.62632 -2.45489 0
M  V30 610 C 56.8748 -4.071 -2.07651 0
M  V30 611 C 57.8718 -4.94049 -1.61901 0
M  V30 612 C 55.5568 -4.52801 -2.17431 0
M  V30 613 C 57.5508 -6.24736 -1.26428 0
M  V30 614 C 55.2378 -5.83503 -1.8157 0
M  V30 615 C 56.2358 -6.69294 -1.36142 0
M  V30 616 O 55.9238 -7.9756 -1.00764 0
M  V30 617 H 55.6558 -0.54834 -0.395347 0
M  V30 618 H 58.2098 -1.96002 -0.614204 0
M  V30 619 H 56.4398 -2.2378 -3.15372 0
M  V30 620 H 58.1288 -2.64925 -3.07522 0
M  V30 621 H 58.8948 -4.5997 -1.53795 0
M  V30 622 H 54.7738 -3.86196 -2.51742 0
M  V30 623 H 58.3178 -6.91652 -0.908992 0
M  V30 624 H 54.2148 -6.17112 -1.89324 0
M  V30 625 H 54.9828 -8.10529 -1.13952 0
M  V30 626 N 57.6459 0.756429 -1.3826 0
M  V30 627 C 58.5779 1.87971 -1.31147 0
M  V30 628 C 59.5909 1.61248 -0.224239 0
M  V30 629 O 60.7799 1.71881 -0.481581 0
M  V30 630 C 57.8799 3.23545 -1.00857 0
M  V30 631 C 57.0529 3.77794 -2.20432 0
M  V30 632 C 56.1119 4.91877 -1.86931 0
M  V30 633 O 55.1379 5.06659 -2.59395 0
M  V30 634 N 56.3399 5.74643 -0.822568 0
M  V30 635 H 59.1049 1.94585 -2.2794 0
M  V30 636 H 56.6659 0.936234 -1.32084 0
M  V30 637 H 58.6579 3.97403 -0.765021 0
M  V30 638 H 57.2279 3.12335 -0.128687 0
M  V30 639 H 56.4479 2.95534 -2.6087 0
M  V30 640 H 57.7359 4.10771 -3.00241 0
M  V30 641 H 57.1339 5.65266 -0.221575 0
M  V30 642 H 55.6909 6.48661 -0.638899 0
M  V30 643 N 59.124 1.23083 0.984299 0
M  V30 644 C 60.054 1.03292 2.09411 0
M  V30 645 C 61.035 -0.048923 1.7003 0
M  V30 646 O 62.22 0.114967 1.93859 0
M  V30 647 C 59.35 0.619155 3.41736 0
M  V30 648 C 58.304 1.64791 3.95004 0
M  V30 649 C 57.63 1.0897 5.23478 0
M  V30 650 C 58.93 3.03999 4.24714 0
M  V30 651 H 60.624 1.96119 2.26225 0
M  V30 652 H 58.17 0.944344 1.08711 0
M  V30 653 H 60.123 0.467777 4.18796 0
M  V30 654 H 58.847 -0.344786 3.24775 0
M  V30 655 H 57.506 1.78721 3.20085 0
M  V30 656 H 57.154 0.11686 5.02864 0
M  V30 657 H 56.854 1.77704 5.60085 0
M  V30 658 H 58.378 0.950093 6.03163 0
M  V30 659 H 59.792 2.93393 4.92538 0
M  V30 660 H 58.189 3.69936 4.72512 0
M  V30 661 H 59.259 3.53285 3.32142 0
M  V30 662 N 60.6021 -1.18246 1.0419 0
M  V30 663 C 61.8481 -1.88536 0.747122 0
M  V30 664 C 62.1811 -1.80223 -0.723409 0
M  V30 665 O 61.4561 -1.20337 -1.52804 0
M  V30 666 C 61.7391 -3.38968 1.21544 0
M  V30 667 C 61.5921 -3.56084 2.74816 0
M  V30 668 C 62.9111 -4.32648 0.806482 0
M  V30 669 H 60.0301 -0.684619 0.272883 0
M  V30 670 H 62.6721 -1.39113 1.29413 0
M  V30 671 H 60.8221 -3.8119 0.750081 0
M  V30 672 H 62.4941 -3.22946 3.29399 0
M  V30 673 H 60.7371 -2.98699 3.14582 0
M  V30 674 H 61.4081 -4.61639 3.02644 0
M  V30 675 H 63.8841 -3.98211 1.20695 0
M  V30 676 H 62.7601 -5.36462 1.1619 0
M  V30 677 H 63.0211 -4.41146 -0.29029 0
M  V30 678 N 62.0802 -0.821533 -1.34494 0
M  V30 679 C 63.4962 -0.507117 -1.51329 0
M  V30 680 C 63.6962 0.968964 -1.76673 0
M  V30 681 O 62.7522 1.75348 -1.81685 0
M  V30 682 C 64.0652 -1.36544 -2.67911 0
M  V30 683 C 65.6132 -1.36242 -2.81793 0
M  V30 684 C 66.0882 -2.2052 -4.01416 0
M  V30 685 N 67.5792 -2.18136 -4.08621 0
M  V30 686 C 68.3142 -2.80095 -5.00334 0
M  V30 687 N 67.8102 -3.51039 -5.9728 0
M  V30 688 N 69.6032 -2.69656 -4.93196 0
M  V30 689 H 61.7542 -1.77729 -1.16302 0
M  V30 690 H 64.0172 -0.757291 -0.570276 0
M  V30 691 H 63.7232 -2.41361 -2.55808 0
M  V30 692 H 63.5972 -1.02917 -3.62888 0
M  V30 693 H 65.9842 -0.322041 -2.93338 0
M  V30 694 H 66.0652 -1.73866 -1.87628 0
M  V30 695 H 65.7092 -3.24607 -3.90631 0
M  V30 696 H 65.6392 -1.80247 -4.94791 0
M  V30 697 H 68.1302 -1.6653 -3.39229 0
M  V30 698 H 68.4432 -3.95565 -6.63889 0
M  V30 699 H 66.7882 -3.55145 -5.97409 0
M  V30 700 H 69.9792 -2.13808 -4.16418 0
M  V30 701 H 70.1522 -3.1823 -5.64476 0
M  V30 702 N 63.5583 1.46682 -0.576371 0
M  V30 703 C 64.5053 2.30241 0.160499 0
M  V30 704 C 65.4753 1.40233 0.890162 0
M  V30 705 O 66.6603 1.69186 0.882084 0
M  V30 706 C 63.8003 3.24578 1.1723 0
M  V30 707 C 62.9133 4.29684 0.446736 0
M  V30 708 C 62.0483 5.11154 1.44551 0
M  V30 709 C 61.0873 6.08015 0.70599 0
M  V30 710 N 60.2243 6.82376 1.65251 0
M  V30 711 H 65.0643 2.92727 -0.558127 0
M  V30 712 H 62.6013 1.44272 -0.287056 0
M  V30 713 H 64.5593 3.77711 1.77172 0
M  V30 714 H 63.1893 2.63916 1.85872 0
M  V30 715 H 62.2413 3.79458 -0.267594 0
M  V30 716 H 63.5533 4.98626 -0.131686 0
M  V30 717 H 62.7073 5.68533 2.11791 0
M  V30 718 H 61.4463 4.42158 2.05786 0
M  V30 719 H 60.4513 5.49796 0.0197725 0
M  V30 720 H 61.6763 6.79028 0.09912 0
M  V30 721 H 59.6223 6.16094 2.25308 0
M  V30 722 H 59.5393 7.47556 1.12673 0
M  V30 723 H 60.8073 7.44316 2.31546 0
M  V30 724 N 65.0364 0.313813 1.54444 0
M  V30 725 C 65.9664 -0.549454 2.26943 0
M  V30 726 C 66.9474 -1.12741 1.27372 0
M  V30 727 O 68.1324 -1.15436 1.56167 0
M  V30 728 C 65.2624 -1.71523 3.01989 0
M  V30 729 C 64.2164 -1.26703 4.08816 0
M  V30 730 C 63.5424 -2.51898 4.71647 0
M  V30 731 C 64.8424 -0.388962 5.2085 0
M  V30 732 H 66.5364 0.0552661 2.99349 0
M  V30 733 H 64.0824 0.0280207 1.43973 0
M  V30 734 H 66.0354 -2.32535 3.51433 0
M  V30 735 H 64.7594 -2.34639 2.27183 0
M  V30 736 H 63.4184 -0.679896 3.6024 0
M  V30 737 H 63.0664 -3.13356 3.93468 0
M  V30 738 H 62.7664 -2.22605 5.43802 0
M  V30 739 H 64.2904 -3.1369 5.23861 0
M  V30 740 H 65.7044 -0.905107 5.6611 0
M  V30 741 H 64.1014 -0.18924 5.99802 0
M  V30 742 H 65.1714 0.582699 4.81386 0
M  V30 743 N 66.5145 -1.57545 0.0417849 0
M  V30 744 C 67.7625 -1.91937 -0.632829 0
M  V30 745 C 68.0835 -0.919978 -1.71934 0
M  V30 746 O 67.3535 0.0366064 -1.95866 0
M  V30 747 H 65.9335 -0.708493 -0.236742 0
M  V30 748 H 68.5955 -1.9468 0.0925745 0
M  V30 749 H 67.6915 -2.92912 -1.07746 0
M  V30 750 N 67.9926 0.231505 -1.5589 0
M  V30 751 C 69.4086 0.580748 -1.48659 0
M  V30 752 C 69.6086 1.87617 -0.73498 0
M  V30 753 O 68.6646 2.51046 -0.270586 0
M  V30 754 C 69.9776 0.669202 -2.93159 0
M  V30 755 C 71.5256 0.760499 -3.03621 0
M  V30 756 C 72.0006 0.880383 -4.49459 0
M  V30 757 N 73.4916 0.944861 -4.53461 0
M  V30 758 C 74.2266 1.05716 -5.63571 0
M  V30 759 N 73.7226 1.13403 -6.83456 0
M  V30 760 N 75.5156 1.09152 -5.514 0
M  V30 761 H 67.6666 -0.618695 -2.03189 0
M  V30 762 H 69.9296 -0.215728 -0.923128 0
M  V30 763 H 69.6356 -0.212904 -3.51055 0
M  V30 764 H 69.5096 1.5361 -3.44505 0
M  V30 765 H 71.8966 1.63305 -2.45796 0
M  V30 766 H 71.9776 -0.131864 -2.5546 0
M  V30 767 H 71.6216 0.0123284 -5.07899 0
M  V30 768 H 71.5516 1.78802 -4.95316 0
M  V30 769 H 74.0426 0.896176 -3.6712 0
M  V30 770 H 74.3556 1.21921 -7.63122 0
M  V30 771 H 72.7006 1.10333 -6.86186 0
M  V30 772 H 75.8916 1.02805 -4.56671 0
M  V30 773 H 76.0646 1.17558 -6.37247 0
M  V30 774 N 69.4707 1.49531 0.497807 0
M  V30 775 C 70.7187 1.58865 1.24926 0
M  V30 776 C 71.0397 0.278721 1.92998 0
M  V30 777 O 70.3097 -0.702144 1.82885 0
M  V30 778 H 68.8897 0.585343 0.464094 0
M  V30 779 H 71.5517 1.86174 0.57666 0
M  V30 780 H 70.6477 2.38633 2.01149 0
M  V30 781 N 70.9488 -0.749086 1.3866 0
M  V30 782 C 71.8958 -1.86291 1.36251 0
M  V30 783 C 72.8658 -1.64578 0.224347 0
M  V30 784 O 74.0508 -1.86181 0.417279 0
M  V30 785 C 71.1908 -3.23644 1.19786 0
M  V30 786 C 70.3038 -3.57158 2.43027 0
M  V30 787 C 69.4388 -4.83838 2.19258 0
M  V30 788 C 68.4778 -5.10152 3.38247 0
M  V30 789 N 67.6148 -6.28029 3.13884 0
M  V30 790 H 72.4548 -1.87685 2.3147 0
M  V30 791 H 69.9918 -0.917287 1.14997 0
M  V30 792 H 71.9498 -4.0291 1.08254 0
M  V30 793 H 70.5798 -3.21566 0.282031 0
M  V30 794 H 69.6318 -2.72701 2.65214 0
M  V30 795 H 70.9438 -3.7253 3.31697 0
M  V30 796 H 70.0978 -5.71057 2.04888 0
M  V30 797 H 68.8368 -4.70614 1.2796 0
M  V30 798 H 67.8418 -4.21401 3.53131 0
M  V30 799 H 69.0668 -5.25271 4.30427 0
M  V30 800 H 67.0128 -6.1612 2.25238 0
M  V30 801 H 66.9298 -6.43922 3.96106 0
M  V30 802 H 68.1978 -7.18124 3.03179 0
M  V30 803 N 72.4269 -1.23603 -0.977757 0
M  V30 804 C 73.6569 -1.09487 -1.75203 0
M  V30 805 C 74.0649 0.356321 -1.85814 0
M  V30 806 O 73.4079 1.25816 -1.33851 0
M  V30 807 C 73.4699 -1.64905 -3.19447 0
M  V30 808 C 73.1339 -3.13688 -3.32338 0
M  V30 809 C 74.1309 -4.10953 -3.18455 0
M  V30 810 C 71.8159 -3.53449 -3.56902 0
M  V30 811 C 73.8099 -5.45962 -3.28944 0
M  V30 812 C 71.4969 -4.88602 -3.6703 0
M  V30 813 C 72.4949 -5.84668 -3.53062 0
M  V30 814 O 72.1829 -7.17365 -3.62826 0
M  V30 815 H 71.9149 -0.38367 -0.556573 0
M  V30 816 H 74.4689 -1.6398 -1.23693 0
M  V30 817 H 72.6989 -1.04835 -3.72218 0
M  V30 818 H 74.3879 -1.46226 -3.78646 0
M  V30 819 H 75.1539 -3.81577 -2.99372 0
M  V30 820 H 71.0329 -2.79188 -3.66844 0
M  V30 821 H 74.5769 -6.20925 -3.17958 0
M  V30 822 H 70.4739 -5.17653 -3.85623 0
M  V30 823 H 71.2419 -7.2515 -3.79605 0
M  V30 824 N 73.905 1.17692 -1.04816 0
M  V30 825 C 75.13 1.92327 -0.776207 0
M  V30 826 C 75.555 1.76082 0.661581 0
M  V30 827 O 74.913 1.076 1.45917 0
M  V30 828 C 74.961 3.41539 -1.15687 0
M  V30 829 O 74.065 4.11402 -0.286775 0
M  V30 830 H 73.406 0.599735 -0.284981 0
M  V30 831 H 75.936 1.49201 -1.4 0
M  V30 832 H 75.946 3.92269 -1.12202 0
M  V30 833 H 74.621 3.52684 -2.20425 0
M  V30 834 H 73.198 3.70939 -0.381903 0
M  V30 835 N 75.3831 0.828654 1.34056 0
M  V30 836 C 76.2931 0.256725 2.33191 0
M  V30 837 C 77.3091 -0.611898 1.62886 0
M  V30 838 O 78.4851 -0.51844 1.94613 0
M  V30 839 C 75.5501 -0.567238 3.42028 0
M  V30 840 C 74.6111 0.324458 4.28072 0
M  V30 841 C 73.8441 -0.460274 5.31712 0
M  V30 842 O 74.0671 -1.693 5.44696 0
M  V30 843 O 73.0011 0.160391 6.01686 0
M  V30 844 H 76.8271 1.07739 2.83947 0
M  V30 845 H 74.4121 0.59093 1.37217 0
M  V30 846 H 76.2941 -1.03582 4.08471 0
M  V30 847 H 74.9691 -1.36513 2.93506 0
M  V30 848 H 73.8761 0.840659 3.64532 0
M  V30 849 H 75.2091 1.08685 4.8005 0
M  V30 850 N 76.8612 -1.46375 0.584142 0
M  V30 851 C 78.1072 -2.02678 0.0703716 0
M  V30 852 C 78.4402 -1.4545 -1.28678 0
M  V30 853 O 77.7152 -0.62014 -1.84349 0
M  V30 854 C 77.9982 -3.60099 0.00614674 0
M  V30 855 C 77.8512 -4.27709 1.3923 0
M  V30 856 C 79.1702 -4.34598 -0.693742 0
M  V30 857 H 76.2892 -0.736504 0.027047 0
M  V30 858 H 78.9312 -1.74501 0.751615 0
M  V30 859 H 77.0812 -3.84236 -0.574009 0
M  V30 860 H 78.7532 -4.14832 2.01773 0
M  V30 861 H 76.9962 -3.87016 1.95962 0
M  V30 862 H 77.6672 -5.36478 1.29982 0
M  V30 863 H 80.1432 -4.15615 -0.200869 0
M  V30 864 H 79.0192 -5.44318 -0.707714 0
M  V30 865 H 79.2802 -4.05759 -1.75533 0
M  V30 866 N 78.3393 -0.321999 -1.54275 0
M  V30 867 C 79.5863 0.281044 -2.0054 0
M  V30 868 C 79.9143 1.52265 -1.21019 0
M  V30 869 O 79.1693 1.93687 -0.279982 0
M  V30 870 C 79.4683 0.661769 -3.5122 0
M  V30 871 C 79.1343 -0.480482 -4.48333 0
M  V30 872 C 77.7963 -0.794005 -4.74604 0
M  V30 873 C 80.1483 -1.24783 -5.06042 0
M  V30 874 C 77.4763 -1.87763 -5.55844 0
M  V30 875 C 79.8283 -2.32153 -5.88462 0
M  V30 876 C 78.4923 -2.64089 -6.13036 0
M  V30 877 H 77.7623 0.102841 -0.733829 0
M  V30 878 H 80.4093 -0.445453 -1.86247 0
M  V30 879 H 78.7143 1.46867 -3.63232 0
M  V30 880 H 80.4113 1.13989 -3.84457 0
M  V30 881 H 77.0013 -0.226039 -4.28004 0
M  V30 882 H 81.1853 -1.01887 -4.85729 0
M  V30 883 H 76.4413 -2.12954 -5.73115 0
M  V30 884 H 80.6153 -2.92057 -6.32199 0
M  V30 885 H 78.2423 -3.48185 -6.75775 0
M  V30 886 N 79.8174 1.5752 -0.0501392 0
M  V30 887 C 80.7274 2.14952 0.939827 0
M  V30 888 C 81.7434 1.10706 1.34239 0
M  V30 889 O 82.9194 1.42869 1.41952 0
M  V30 890 C 79.9844 2.68232 2.19665 0
M  V30 891 C 79.0454 3.87272 1.85253 0
M  V30 892 C 78.2784 4.38002 3.04943 0
M  V30 893 O 78.5014 3.87811 4.18281 0
M  V30 894 O 77.4354 5.29602 2.86017 0
M  V30 895 H 81.2614 2.9986 0.481392 0
M  V30 896 H 78.8464 1.4841 0.171699 0
M  V30 897 H 80.7284 3.02475 2.93406 0
M  V30 898 H 79.4034 1.86395 2.64648 0
M  V30 899 H 78.3104 3.5792 1.0883 0
M  V30 900 H 79.6434 4.70336 1.4507 0
M  V30 901 N 81.2955 -0.223234 1.56011 0
M  V30 902 C 82.2585 -1.26014 1.9145 0
M  V30 903 C 83.2585 -1.3989 0.792937 0
M  V30 904 O 84.4485 -1.38184 1.0607 0
M  V30 905 C 81.5805 -2.63422 2.16383 0
M  V30 906 H 82.7735 -0.95796 2.84189 0
M  V30 907 H 80.3265 -0.463576 1.49267 0
M  V30 908 H 81.0615 -2.98741 1.2619 0
M  V30 909 H 80.8465 -2.54728 2.98088 0
M  V30 910 H 82.3365 -3.38249 2.44903 0
M  V30 911 N 82.7736 -1.49793 -0.48987 0
M  V30 912 C 84.0226 -1.59085 -1.23995 0
M  V30 913 C 84.3356 -0.287907 -1.9347 0
M  V30 914 O 85.5416 -0.259506 -2.70257 0
M  V30 915 C 83.9976 -2.80736 -2.252 0
M  V30 916 C 83.6056 -4.17833 -1.61614 0
M  V30 917 C 85.3496 -2.99364 -3.00967 0
M  V30 918 C 83.2566 -5.30693 -2.60996 0
M  V30 919 H 82.1866 -0.592372 -0.466488 0
M  V30 920 H 84.8376 -1.76197 -0.51252 0
M  V30 921 H 83.2196 -2.57142 -3.01154 0
M  V30 922 H 84.3936 -4.51608 -0.915774 0
M  V30 923 H 82.7086 -4.04656 -0.981977 0
M  V30 924 H 85.3056 -3.80851 -3.75308 0
M  V30 925 H 85.6486 -2.10356 -3.59244 0
M  V30 926 H 86.1816 -3.2305 -2.32128 0
M  V30 927 H 82.9206 -6.21796 -2.07485 0
M  V30 928 H 82.4406 -5.01359 -3.2924 0
M  V30 929 H 84.1196 -5.6049 -3.23202 0
M  V30 930 N 84.2517 0.741722 -1.39055 0
M  V30 931 C 85.1997 1.87702 -1.3737 0
M  V30 932 C 86.1937 1.67427 -0.257812 0
M  V30 933 O 87.3997 1.7485 -0.427489 0
M  V30 934 H 83.7747 0.617757 -0.428812 0
M  V30 935 H 85.7457 1.86239 -2.33147 0
M  V30 936 C 84.4947 3.25315 -1.22741 0
M  V30 937 H 83.8177 3.41509 -2.07873 0
M  V30 938 H 85.2577 4.04964 -1.25618 0
M  V30 939 C 83.7167 3.36838 0.0647316 0
M  V30 940 O 84.2467 3.88073 1.03741 0
M  V30 941 N 82.4527 2.90329 0.125544 0
M  V30 942 H 81.9997 2.48823 -0.666682 0
M  V30 943 H 81.9577 2.98418 0.989639 0
M  V30 944 N 85.7298 1.2412 0.971189 0
M  V30 945 C 86.9788 1.07284 1.70801 0
M  V30 946 C 87.2918 -0.388902 1.91695 0
M  V30 947 O 88.4978 -0.677379 2.62914 0
M  V30 948 C 86.9538 1.87145 3.07416 0
M  V30 949 C 86.5618 3.37707 2.94377 0
M  V30 950 C 88.3058 1.78828 3.84995 0
M  V30 951 C 86.2128 4.09925 4.26281 0
M  V30 952 H 85.1428 0.397854 0.64049 0
M  V30 953 H 87.7938 1.4817 1.0825 0
M  V30 954 H 86.1758 1.39071 3.70777 0
M  V30 955 H 87.3498 3.93335 2.4005 0
M  V30 956 H 85.6648 3.46938 2.30267 0
M  V30 957 H 88.2618 2.30089 4.82662 0
M  V30 958 H 88.6048 0.75284 4.09436 0
M  V30 959 H 89.1378 2.24563 3.28354 0
M  V30 960 H 85.8768 5.13813 4.07033 0
M  V30 961 H 85.3968 3.59083 4.80437 0
M  V30 962 H 87.0758 4.1673 4.94919 0
M  V30 963 N 87.2079 -1.17134 1.05439 0
M  V30 964 C 88.4359 -1.91372 0.786414 0
M  V30 965 C 88.8509 -1.76955 -0.658202 0
M  V30 966 O 88.2079 -1.10838 -1.44987 0
M  V30 967 C 88.2589 -3.42356 1.1608 0
M  V30 968 O 87.9799 -3.56332 2.54871 0
M  V30 969 C 89.4809 -4.33663 0.919322 0
M  V30 970 H 86.7009 -0.607118 0.285743 0
M  V30 971 H 89.2449 -1.48525 1.40572 0
M  V30 972 H 87.3999 -3.82939 0.586191 0
M  V30 973 H 87.8139 -4.49896 2.69618 0
M  V30 974 H 89.2879 -5.38099 1.231 0
M  V30 975 H 89.7649 -4.38959 -0.145359 0
M  V30 976 H 90.3709 -3.98796 1.47789 0
M  V30 977 N 88.686 -0.835752 -1.33615 0
M  V30 978 C 89.634 -0.255238 -2.31195 0
M  V30 979 C 90.628 0.61107 -1.57995 0
M  V30 980 O 91.834 0.500979 -1.72888 0
M  V30 981 H 88.209 -0.0638085 -0.749288 0
M  V30 982 H 90.18 -1.09283 -2.77669 0
M  V30 983 C 88.929 0.55754 -3.43201 0
M  V30 984 H 88.252 -0.0997553 -3.99676 0
M  V30 985 H 89.692 0.929622 -4.13683 0
M  V30 986 C 88.151 1.73515 -2.88781 0
M  V30 987 O 88.681 2.83376 -2.84712 0
M  V30 988 N 86.887 1.55603 -2.4543 0
M  V30 989 H 86.434 0.662354 -2.48939 0
M  V30 990 H 86.392 2.34545 -2.09371 0
M  V30 991 N 90.1641 1.46063 -0.591896 0
M  V30 992 C 91.1121 2.32124 0.148739 0
M  V30 993 C 92.1061 1.45035 0.875286 0
M  V30 994 O 93.3121 1.61609 0.792632 0
M  V30 995 H 89.6871 0.749024 0.066832 0
M  V30 996 H 91.6581 2.92392 -0.595783 0
M  V30 997 C 90.4071 3.28373 1.1431 0
M  V30 998 H 89.7301 3.95371 0.59346 0
M  V30 999 H 91.1701 3.91352 1.63155 0
M  V30 1000 C 89.6291 2.54393 2.20875 0
M  V30 1001 O 90.1591 2.31373 3.28374 0
M  V30 1002 N 88.3651 2.14797 1.95731 0
M  V30 1003 H 87.9121 2.33719 1.08319 0
M  V30 1004 H 87.8701 1.65619 2.67241 0
M  V30 1005 N 91.6422 0.330177 1.54103 0
M  V30 1006 C 92.5522 -0.541534 2.28264 0
M  V30 1007 C 93.5682 -1.12351 1.32866 0
M  V30 1008 O 94.7442 -1.14206 1.65888 0
M  V30 1009 C 91.8092 -1.68322 3.03098 0
M  V30 1010 C 90.8702 -1.13238 4.14096 0
M  V30 1011 C 90.1032 -2.21966 4.85352 0
M  V30 1012 O 90.3262 -3.42437 4.56172 0
M  V30 1013 O 89.2602 -1.87013 5.7211 0
M  V30 1014 H 93.0862 0.060938 3.03639 0
M  V30 1015 H 90.6712 0.09565 1.49093 0
M  V30 1016 H 92.5532 -2.34777 3.49939 0
M  V30 1017 H 91.2282 -2.27176 2.30593 0
M  V30 1018 H 90.1352 -0.432736 3.71589 0
M  V30 1019 H 91.4682 -0.588898 4.88664 0
M  V30 1020 N 93.1203 -1.57491 0.0584922 0
M  V30 1021 C 94.0673 -2.11958 -0.913376 0
M  V30 1022 C 95.0373 -1.02875 -1.30407 0
M  V30 1023 O 96.2223 -1.30464 -1.39226 0
M  V30 1024 C 93.3623 -2.67497 -2.18035 0
M  V30 1025 C 92.4753 -3.90691 -1.84349 0
M  V30 1026 C 91.6103 -4.3452 -3.05559 0
M  V30 1027 C 90.6493 -5.50395 -2.67827 0
M  V30 1028 N 89.7863 -5.89244 -3.81754 0
M  V30 1029 H 94.6263 -2.94704 -0.442017 0
M  V30 1030 H 92.1633 -1.45643 -0.206545 0
M  V30 1031 H 94.1213 -2.978 -2.92183 0
M  V30 1032 H 92.7513 -1.87537 -2.62735 0
M  V30 1033 H 91.8033 -3.66934 -1.00319 0
M  V30 1034 H 93.1153 -4.7489 -1.5258 0
M  V30 1035 H 92.2693 -4.66414 -3.87998 0
M  V30 1036 H 91.0083 -3.49147 -3.40511 0
M  V30 1037 H 90.0133 -5.18165 -1.83806 0
M  V30 1038 H 91.2383 -6.3749 -2.34059 0
M  V30 1039 H 89.1843 -5.06823 -4.16493 0
M  V30 1040 H 89.1013 -6.68151 -3.53708 0
M  V30 1041 H 90.3693 -6.25756 -4.64811 0
M  V30 1042 N 94.5984 0.214957 -1.56127 0
M  V30 1043 C 95.8444 0.939762 -1.79712 0
M  V30 1044 C 96.1774 1.83723 -0.629247 0
M  V30 1045 O 95.4524 1.90925 0.371197 0
M  V30 1046 C 95.7354 1.77306 -3.13424 0
M  V30 1047 C 95.5884 0.90164 -4.40671 0
M  V30 1048 C 96.9074 2.74956 -3.43638 0
M  V30 1049 H 94.0264 0.340214 -0.653776 0
M  V30 1050 H 96.6684 0.20824 -1.88855 0
M  V30 1051 H 94.8184 2.39673 -3.0576 0
M  V30 1052 H 96.4904 0.294206 -4.60361 0
M  V30 1053 H 94.7334 0.207368 -4.33304 0
M  V30 1054 H 95.4044 1.51923 -5.30682 0
M  V30 1055 H 97.8804 2.22724 -3.51473 0
M  V30 1056 H 96.7564 3.30358 -4.38355 0
M  V30 1057 H 97.0174 3.53023 -2.66134 0
M  V30 1058 N 96.0765 1.50051 0.48192 0
M  V30 1059 C 97.3225 1.60736 1.2366 0
M  V30 1060 C 97.6555 0.301786 1.91841 0
M  V30 1061 O 96.9305 -0.696025 1.8162 0
M  V30 1062 C 97.2135 2.78009 2.28874 0
M  V30 1063 C 97.0665 4.18416 1.65069 0
M  V30 1064 C 98.3855 2.90867 3.30279 0
M  V30 1065 H 95.5045 0.585031 0.448228 0
M  V30 1066 H 98.1465 1.82402 0.531946 0
M  V30 1067 H 96.2965 2.59667 2.88973 0
M  V30 1068 H 97.9685 4.48322 1.0865 0
M  V30 1069 H 96.2115 4.23177 0.954148 0
M  V30 1070 H 96.8825 4.96381 2.41474 0
M  V30 1071 H 99.3585 3.07623 2.80191 0
M  V30 1072 H 98.2345 3.74566 4.01238 0
M  V30 1073 H 98.4955 2.01021 3.93755 0
M  V30 1074 N 97.5546 -0.734337 1.39446 0
M  V30 1075 C 98.8006 -1.49613 1.36908 0
M  V30 1076 C 99.1336 -1.94169 -0.0347829 0
M  V30 1077 O 98.4086 -1.66833 -0.999847 0
M  V30 1078 C 98.6916 -2.73534 2.34203 0
M  V30 1079 C 98.5446 -2.34993 3.83534 0
M  V30 1080 C 99.8636 -3.75635 2.29317 0
M  V30 1081 H 96.9826 -0.542714 0.498629 0
M  V30 1082 H 99.6246 -0.839597 1.70443 0
M  V30 1083 H 97.7746 -3.29553 2.05736 0
M  V30 1084 H 99.4466 -1.84601 4.22753 0
M  V30 1085 H 97.6896 -1.67213 4.00278 0
M  V30 1086 H 98.3606 -3.23738 4.47099 0
M  V30 1087 H 100.837 -3.29203 2.54489 0
M  V30 1088 H 99.7126 -4.60008 2.99472 0
M  V30 1089 H 99.9736 -4.22603 1.29842 0
M  V30 1090 N 99.0327 -1.24633 -0.964593 0
M  V30 1091 C 99.9797 -1.04144 -2.05968 0
M  V30 1092 C 100.95 0.046262 -1.66036 0
M  V30 1093 O 102.135 -0.108972 -1.90489 0
M  V30 1094 C 99.2747 -0.65563 -3.38815 0
M  V30 1095 C 98.3877 -1.81714 -3.91923 0
M  V30 1096 C 97.5227 -1.37662 -5.13052 0
M  V30 1097 C 96.5617 -2.50788 -5.58365 0
M  V30 1098 N 95.6987 -2.07582 -6.70712 0
M  V30 1099 H 100.539 -1.9787 -2.22827 0
M  V30 1100 H 98.0757 -0.9855 -1.09208 0
M  V30 1101 H 100.034 -0.412954 -4.15151 0
M  V30 1102 H 98.6637 0.244627 -3.21872 0
M  V30 1103 H 97.7157 -2.1734 -3.12198 0
M  V30 1104 H 99.0277 -2.66705 -4.21509 0
M  V30 1105 H 98.1817 -1.093 -5.96773 0
M  V30 1106 H 96.9207 -0.497293 -4.85158 0
M  V30 1107 H 95.9257 -2.79906 -4.73215 0
M  V30 1108 H 97.1507 -3.39283 -5.88272 0
M  V30 1109 H 95.0967 -1.22051 -6.44546 0
M  V30 1110 H 95.0137 -2.86125 -6.99763 0
M  V30 1111 H 96.2817 -1.82369 -7.57867 0
M  V30 1112 N 100.511 1.16574 -1.06058 0
M  V30 1113 C 101.76 1.86385 -0.770944 0
M  V30 1114 C 102.073 1.82448 0.705129 0
M  V30 1115 O 103.279 2.47815 1.10905 0
M  V30 1116 C 101.735 3.34466 -1.32893 0
M  V30 1117 C 101.343 3.46883 -2.83507 0
M  V30 1118 C 103.087 4.09548 -1.11672 0
M  V30 1119 C 100.994 4.89036 -3.32562 0
M  V30 1120 H 99.9238 0.698181 -0.284709 0
M  V30 1121 H 102.575 1.31583 -1.27899 0
M  V30 1122 H 100.957 3.88859 -0.748662 0
M  V30 1123 H 102.131 3.02663 -3.47465 0
M  V30 1124 H 100.446 2.85232 -3.03368 0
M  V30 1125 H 103.043 5.14434 -1.45814 0
M  V30 1126 H 103.386 4.16264 -0.0549535 0
M  V30 1127 H 103.919 3.61387 -1.66265 0
M  V30 1128 H 100.658 4.87499 -4.38207 0
M  V30 1129 H 100.178 5.3389 -2.73351 0
M  V30 1130 H 101.857 5.57843 -3.2775 0
M  V30 1131 N 101.989 0.842826 1.3317 0
M  V30 1132 C 102.919 0.294028 2.31641 0
M  V30 1133 C 103.9 -0.600401 1.59151 0
M  V30 1134 O 105.085 -0.523124 1.87022 0
M  V30 1135 C 102.215 -0.528416 3.43257 0
M  V30 1136 C 101.169 0.27056 4.27144 0
M  V30 1137 C 100.495 -0.675881 5.30411 0
M  V30 1138 C 101.795 1.48981 5.00602 0
M  V30 1139 H 103.489 1.11681 2.77791 0
M  V30 1140 H 101.035 0.538478 1.33553 0
M  V30 1141 H 102.988 -0.922674 4.11175 0
M  V30 1142 H 101.712 -1.38445 2.95805 0
M  V30 1143 H 100.371 0.646427 3.60856 0
M  V30 1144 H 100.019 -1.52842 4.79216 0
M  V30 1145 H 99.7189 -0.145374 5.8742 0
M  V30 1146 H 101.243 -1.06757 6.01195 0
M  V30 1147 H 102.657 1.16849 5.61266 0
M  V30 1148 H 101.054 1.95739 5.6728 0
M  V30 1149 H 102.124 2.25746 4.29147 0
M  V30 1150 N 103.467 -1.45747 0.599634 0
M  V30 1151 C 104.414 -2.30467 -0.123849 0
M  V30 1152 C 105.384 -1.41632 -0.86774 0
M  V30 1153 O 106.569 -1.70568 -0.855056 0
M  V30 1154 C 103.709 -3.26402 -1.12051 0
M  V30 1155 C 102.822 -4.3034 -0.37832 0
M  V30 1156 C 101.957 -5.13389 -1.364 0
M  V30 1157 C 100.996 -6.09061 -0.609171 0
M  V30 1158 N 100.133 -6.84918 -1.54374 0
M  V30 1159 H 104.973 -2.91802 0.604627 0
M  V30 1160 H 102.51 -1.43797 0.309972 0
M  V30 1161 H 104.468 -3.80482 -1.7114 0
M  V30 1162 H 103.098 -2.66839 -1.8165 0
M  V30 1163 H 102.15 -3.78984 0.327929 0
M  V30 1164 H 103.462 -4.98354 0.210997 0
M  V30 1165 H 102.616 -5.7183 -2.02719 0
M  V30 1166 H 101.355 -4.45376 -1.98725 0
M  V30 1167 H 100.36 -5.49758 0.0676979 0
M  V30 1168 H 101.585 -6.79099 0.00891991 0
M  V30 1169 H 99.531 -6.19601 -2.15478 0
M  V30 1170 H 99.448 -7.49254 -1.00766 0
M  V30 1171 H 100.716 -7.47906 -2.19676 0
M  V30 1172 N 104.945 -0.338344 -1.53925 0
M  V30 1173 C 106.356 0.146651 -1.86123 0
M  V30 1174 C 106.707 1.5042 -1.2597 0
M  V30 1175 O 105.832 2.08723 -0.571294 0
M  V30 1176 C 106.427 0.272879 -3.37699 0
M  V30 1177 C 104.986 0.702103 -3.69794 0
M  V30 1178 C 104.133 -0.167304 -2.76795 0
M  V30 1179 H 107.084 -0.558123 -1.48562 0
M  V30 1180 H 107.105 1.10128 -3.64214 0
M  V30 1181 H 106.617 -0.715307 -3.81451 0
M  V30 1182 H 104.718 1.6995 -3.31584 0
M  V30 1183 H 104.831 0.495604 -4.7653 0
M  V30 1184 H 103.195 0.359527 -2.5215 0
M  V30 1185 H 103.978 -1.15253 -3.23375 0
M  V30 1186 N 106.423 1.57458 -0.0668435 0
M  V30 1187 C 107.669 1.93587 0.6043 0
M  V30 1188 C 108.002 0.946722 1.69561 0
M  V30 1189 O 107.277 -0.0248516 1.94484 0
M  V30 1190 C 107.56 3.40014 1.18585 0
M  V30 1191 C 107.413 4.49685 0.101529 0
M  V30 1192 C 108.732 3.87154 2.09284 0
M  V30 1193 H 105.851 0.703958 0.218202 0
M  V30 1194 H 108.493 1.89542 -0.131804 0
M  V30 1195 H 106.643 3.43592 1.81319 0
M  V30 1196 H 108.315 4.5823 -0.531279 0
M  V30 1197 H 106.558 4.30059 -0.568487 0
M  V30 1198 H 107.229 5.49266 0.54874 0
M  V30 1199 H 109.705 3.85551 1.56491 0
M  V30 1200 H 108.581 4.90231 2.46911 0
M  V30 1201 H 108.842 3.2481 2.99918 0
M  V30 1202 N 107.901 -0.206675 1.56239 0
M  V30 1203 C 108.848 -1.25617 1.93621 0
M  V30 1204 C 109.818 -1.45824 0.795274 0
M  V30 1205 O 111.003 -1.59148 1.05245 0
M  V30 1206 C 108.143 -2.59839 2.27107 0
M  V30 1207 C 107.256 -2.47308 3.54207 0
M  V30 1208 C 106.391 -3.74155 3.7707 0
M  V30 1209 C 105.43 -3.56407 4.97635 0
M  V30 1210 N 104.567 -4.75238 5.1681 0
M  V30 1211 H 109.407 -0.930383 2.83104 0
M  V30 1212 H 106.944 -0.448065 1.4011 0
M  V30 1213 H 108.902 -3.38021 2.44535 0
M  V30 1214 H 107.532 -2.90485 1.40778 0
M  V30 1215 H 106.584 -1.60483 3.4489 0
M  V30 1216 H 107.896 -2.30122 4.42544 0
M  V30 1217 H 107.05 -4.60778 3.94675 0
M  V30 1218 H 105.789 -3.94282 2.87042 0
M  V30 1219 H 104.794 -2.68168 4.79964 0
M  V30 1220 H 106.019 -3.37736 5.89161 0
M  V30 1221 H 103.965 -4.95651 4.29728 0
M  V30 1222 H 103.882 -4.60835 5.99306 0
M  V30 1223 H 105.15 -5.63246 5.38864 0
M  V30 1224 N 109.379 -1.50304 -0.473955 0
M  V30 1225 C 110.326 -1.68959 -1.57231 0
M  V30 1226 C 111.296 -0.530899 -1.57387 0
M  V30 1227 O 112.481 -0.761133 -1.74961 0
M  V30 1228 C 109.621 -1.7871 -2.95223 0
M  V30 1229 C 108.734 -3.06061 -3.04878 0
M  V30 1230 C 107.869 -3.06626 -4.33767 0
M  V30 1231 C 106.908 -4.28443 -4.37154 0
M  V30 1232 N 106.045 -4.26763 -5.5751 0
M  V30 1233 H 110.885 -2.6273 -1.40631 0
M  V30 1234 H 108.422 -1.30241 -0.683789 0
M  V30 1235 H 110.38 -1.82344 -3.75242 0
M  V30 1236 H 109.01 -0.883806 -3.10465 0
M  V30 1237 H 108.062 -3.11911 -2.17751 0
M  V30 1238 H 109.374 -3.96039 -3.0324 0
M  V30 1239 H 108.528 -3.08973 -5.22131 0
M  V30 1240 H 107.267 -2.14473 -4.3801 0
M  V30 1241 H 106.272 -4.2631 -3.47188 0
M  V30 1242 H 107.497 -5.2182 -4.34605 0
M  V30 1243 H 105.443 -3.37462 -5.62544 0
M  V30 1244 H 105.36 -5.10507 -5.57601 0
M  V30 1245 H 106.628 -4.33253 -6.48006 0
M  V30 1246 N 110.857 0.726932 -1.39834 0
M  V30 1247 C 111.804 1.841 -1.39197 0
M  V30 1248 C 112.774 1.642 -0.250502 0
M  V30 1249 O 113.959 1.85494 -0.446846 0
M  V30 1250 C 111.099 3.21697 -1.24919 0
M  V30 1251 C 110.212 3.53247 -2.48678 0
M  V30 1252 C 109.347 4.80289 -2.26928 0
M  V30 1253 C 108.386 5.04707 -3.4632 0
M  V30 1254 N 107.523 6.22956 -3.23836 0
M  V30 1255 H 112.363 1.83979 -2.34427 0
M  V30 1256 H 109.9 0.898876 -1.16442 0
M  V30 1257 H 111.858 4.01137 -1.1465 0
M  V30 1258 H 110.488 3.21076 -0.333153 0
M  V30 1259 H 109.54 2.68447 -2.69519 0
M  V30 1260 H 110.852 3.67205 -3.37582 0
M  V30 1261 H 110.006 5.67725 -2.13947 0
M  V30 1262 H 108.745 4.68519 -1.35431 0
M  V30 1263 H 107.75 4.1573 -3.5979 0
M  V30 1264 H 108.975 5.18357 -4.38729 0
M  V30 1265 H 106.921 6.12459 -2.35011 0
M  V30 1266 H 106.838 6.37539 -4.063 0
M  V30 1267 H 108.106 7.1321 -3.14566 0
M  V30 1268 N 112.336 1.25143 0.95797 0
M  V30 1269 C 113.283 1.05235 2.05412 0
M  V30 1270 C 114.253 -0.0374561 1.66058 0
M  V30 1271 O 115.438 0.119073 1.90428 0
M  V30 1272 C 112.578 0.673589 3.38462 0
M  V30 1273 C 111.691 1.8379 3.90954 0
M  V30 1274 C 110.826 1.40381 5.12315 0
M  V30 1275 C 109.865 2.53746 5.57027 0
M  V30 1276 N 109.002 2.11136 6.69601 0
M  V30 1277 H 113.842 1.99048 2.21774 0
M  V30 1278 H 111.379 0.991277 1.08683 0
M  V30 1279 H 113.337 0.434964 4.14926 0
M  V30 1280 H 111.967 -0.227554 3.21997 0
M  V30 1281 H 111.019 2.18992 3.11041 0
M  V30 1282 H 112.331 2.68937 4.20089 0
M  V30 1283 H 111.485 1.12464 5.96185 0
M  V30 1284 H 110.224 0.523015 4.84887 0
M  V30 1285 H 109.229 2.82412 4.71724 0
M  V30 1286 H 110.454 3.42398 5.86464 0
M  V30 1287 H 108.4 1.25468 6.4389 0
M  V30 1288 H 108.317 2.89832 6.98236 0
M  V30 1289 H 109.585 1.86385 7.56889 0
M  V30 1290 N 113.814 -1.1601 1.06675 0
M  V30 1291 C 115.063 -1.85973 0.780818 0
M  V30 1292 C 115.376 -1.82819 -0.695444 0
M  V30 1293 O 116.582 -2.484 -1.09589 0
M  V30 1294 C 115.038 -3.33757 1.34665 0
M  V30 1295 C 114.646 -3.45374 2.85343 0
M  V30 1296 C 116.39 -4.0895 1.13843 0
M  V30 1297 C 114.297 -4.87266 3.35151 0
M  V30 1298 H 113.227 -0.696661 0.288407 0
M  V30 1299 H 115.878 -1.30903 1.28595 0
M  V30 1300 H 114.26 -3.88456 0.769274 0
M  V30 1301 H 115.434 -3.00816 3.49065 0
M  V30 1302 H 113.749 -2.83619 3.04876 0
M  V30 1303 H 116.346 -5.13654 1.4854 0
M  V30 1304 H 116.689 -4.16229 0.0770282 0
M  V30 1305 H 117.222 -3.605 1.68179 0
M  V30 1306 H 113.961 -4.85168 4.40786 0
M  V30 1307 H 113.481 -5.32433 2.76179 0
M  V30 1308 H 115.16 -5.56097 3.30704 0
M  V30 1309 N 115.292 -0.849877 -1.32721 0
M  V30 1310 C 116.239 -0.289033 -2.28983 0
M  V30 1311 C 117.209 0.601324 -1.54833 0
M  V30 1312 O 118.394 0.537253 -1.8308 0
M  V30 1313 C 115.534 0.520623 -3.4115 0
M  V30 1314 C 114.647 -0.394989 -4.3019 0
M  V30 1315 C 113.782 0.426834 -5.29482 0
M  V30 1316 C 112.821 -0.486476 -6.10164 0
M  V30 1317 N 111.958 0.297879 -7.01468 0
M  V30 1318 H 116.798 -1.11519 -2.76347 0
M  V30 1319 H 114.335 -0.56138 -1.35967 0
M  V30 1320 H 116.293 1.00563 -4.04899 0
M  V30 1321 H 114.923 1.31165 -2.9495 0
M  V30 1322 H 113.975 -0.99836 -3.67065 0
M  V30 1323 H 115.287 -1.09612 -4.86607 0
M  V30 1324 H 114.441 0.975205 -5.98811 0
M  V30 1325 H 113.18 1.16136 -4.73671 0
M  V30 1326 H 112.185 -1.04677 -5.39743 0
M  V30 1327 H 113.41 -1.21953 -6.6806 0
M  V30 1328 H 111.356 1.01558 -6.48091 0
M  V30 1329 H 111.273 -0.344318 -7.55216 0
M  V30 1330 H 112.541 0.828131 -7.75089 0
M  V30 1331 N 116.77 1.45427 -0.607355 0
M  V30 1332 C 118.186 1.57283 -0.270985 0
M  V30 1333 C 118.386 1.59875 1.22647 0
M  V30 1334 O 117.442 1.52893 2.00948 0
M  V30 1335 C 118.755 2.85566 -0.941952 0
M  V30 1336 C 120.303 2.9924 -0.917849 0
M  V30 1337 C 120.778 4.30293 -1.56882 0
M  V30 1338 N 122.269 4.37051 -1.5343 0
M  V30 1339 C 123.004 5.37123 -2.00715 0
M  V30 1340 N 122.5 6.43734 -2.56084 0
M  V30 1341 N 124.293 5.28479 -1.91484 0
M  V30 1342 H 116.444 1.41988 -1.57966 0
M  V30 1343 H 118.707 0.67885 -0.661715 0
M  V30 1344 H 118.413 2.8955 -1.99633 0
M  V30 1345 H 118.287 3.74322 -0.465096 0
M  V30 1346 H 120.674 2.94822 0.127984 0
M  V30 1347 H 120.755 2.11895 -1.43297 0
M  V30 1348 H 120.399 4.35469 -2.61398 0
M  V30 1349 H 120.329 5.16454 -1.02873 0
M  V30 1350 H 122.82 3.60615 -1.12982 0
M  V30 1351 H 123.133 7.16341 -2.89958 0
M  V30 1352 H 121.478 6.44485 -2.60122 0
M  V30 1353 H 124.669 4.44098 -1.47967 0
M  V30 1354 H 124.842 6.0632 -2.28648 0
M  V30 1355 N 118.248 0.346503 1.53744 0
M  V30 1356 C 119.158 -0.517293 2.28826 0
M  V30 1357 C 120.174 -1.10935 1.3405 0
M  V30 1358 O 121.35 -1.1244 1.6709 0
M  V30 1359 C 118.415 -1.65098 3.04866 0
M  V30 1360 C 117.476 -1.0884 4.15274 0
M  V30 1361 C 116.709 -2.16806 4.87679 0
M  V30 1362 O 116.932 -3.3758 4.59778 0
M  V30 1363 O 115.866 -1.80934 5.74061 0
M  V30 1364 H 119.692 0.0931396 3.03557 0
M  V30 1365 H 117.277 0.111458 1.48984 0
M  V30 1366 H 119.159 -2.31053 3.5241 0
M  V30 1367 H 117.834 -2.24717 2.32989 0
M  V30 1368 H 116.741 -0.3933 3.72027 0
M  V30 1369 H 118.074 -0.537036 4.89261 0
M  V30 1370 N 119.726 -1.57421 0.075193 0
M  V30 1371 C 120.975 -1.92794 -0.592731 0
M  V30 1372 C 121.288 -0.957478 -1.70563 0
M  V30 1373 O 122.494 -1.20417 -2.43335 0
M  V30 1374 C 120.95 -3.42495 -1.10569 0
M  V30 1375 C 120.558 -4.47994 -0.0236121 0
M  V30 1376 C 122.302 -3.86864 -1.74748 0
M  V30 1377 C 120.209 -5.88829 -0.550803 0
M  V30 1378 H 119.139 -0.719591 -0.225177 0
M  V30 1379 H 121.79 -1.82902 0.147978 0
M  V30 1380 H 120.172 -3.47471 -1.89947 0
M  V30 1381 H 121.346 -4.54637 0.751099 0
M  V30 1382 H 119.661 -4.13113 0.522159 0
M  V30 1383 H 122.258 -4.8947 -2.15229 0
M  V30 1384 H 122.601 -3.24417 -2.60882 0
M  V30 1385 H 123.134 -3.84504 -1.01986 0
M  V30 1386 H 119.873 -6.54929 0.273457 0
M  V30 1387 H 119.393 -5.85698 -1.29296 0
M  V30 1388 H 121.072 -6.38811 -1.02613 0
M  V30 1389 N 121.204 0.198386 -1.56346 0
M  V30 1390 C 122.151 1.24589 -1.94284 0
M  V30 1391 C 123.121 1.454 -0.802997 0
M  V30 1392 O 124.306 1.58588 -1.06087 0
M  V30 1393 C 121.446 2.58631 -2.28482 0
M  V30 1394 C 120.559 2.45426 -3.55514 0
M  V30 1395 C 119.694 3.7215 -3.79049 0
M  V30 1396 C 118.733 3.53763 -4.99518 0
M  V30 1397 N 117.87 4.72491 -5.19323 0
M  V30 1398 H 122.71 0.915356 -2.83593 0
M  V30 1399 H 120.247 0.440629 -1.40346 0
M  V30 1400 H 122.205 3.3672 -2.46324 0
M  V30 1401 H 120.835 2.89734 -1.42317 0
M  V30 1402 H 119.887 1.58652 -3.45737 0
M  V30 1403 H 121.199 2.27772 -4.43758 0
M  V30 1404 H 120.353 4.58679 -3.97113 0
M  V30 1405 H 119.092 3.92754 -2.89129 0
M  V30 1406 H 118.097 2.65619 -4.8138 0
M  V30 1407 H 119.322 3.34607 -5.90944 0
M  V30 1408 H 117.268 4.93365 -4.3235 0
M  V30 1409 H 117.185 4.5765 -6.01741 0
M  V30 1410 H 118.453 5.6038 -5.41843 0
M  V30 1411 N 122.682 1.50554 0.465978 0
M  V30 1412 C 123.931 1.61038 1.21448 0
M  V30 1413 C 124.244 0.31865 1.92987 0
M  V30 1414 O 125.45 0.302469 2.6981 0
M  V30 1415 C 123.906 2.84283 2.20706 0
M  V30 1416 C 123.514 4.20352 1.54946 0
M  V30 1417 C 125.258 3.04115 2.96166 0
M  V30 1418 C 123.165 5.34778 2.5252 0
M  V30 1419 H 122.095 0.599718 0.457005 0
M  V30 1420 H 124.746 1.7699 0.484424 0
M  V30 1421 H 123.128 2.61901 2.97025 0
M  V30 1422 H 124.302 4.53008 0.843811 0
M  V30 1423 H 122.617 4.06167 0.917475 0
M  V30 1424 H 125.214 3.86774 3.69202 0
M  V30 1425 H 125.557 2.16045 3.55852 0
M  V30 1426 H 126.09 3.26702 2.26959 0
M  V30 1427 H 122.829 6.25018 1.97566 0
M  V30 1428 H 122.349 5.06534 3.21222 0
M  V30 1429 H 124.028 5.65561 3.14245 0
M  V30 1430 N 124.16 -0.719506 1.40217 0
M  V30 1431 C 125.09 -1.8465 1.42922 0
M  V30 1432 C 126.071 -1.67599 0.29062 0
M  V30 1433 O 127.256 -1.87688 0.498677 0
M  V30 1434 C 124.386 -3.22565 1.28722 0
M  V30 1435 C 123.34 -3.54281 2.40144 0
M  V30 1436 C 122.666 -4.91298 2.11023 0
M  V30 1437 C 123.966 -3.55676 3.82481 0
M  V30 1438 H 125.66 -1.82644 2.37237 0
M  V30 1439 H 123.206 -0.877305 1.1419 0
M  V30 1440 H 125.159 -4.01095 1.29232 0
M  V30 1441 H 123.883 -3.25137 0.308811 0
M  V30 1442 H 122.542 -2.78088 2.38877 0
M  V30 1443 H 122.19 -4.90468 1.11582 0
M  V30 1444 H 121.89 -5.13485 2.8567 0
M  V30 1445 H 123.414 -5.72166 2.13209 0
M  V30 1446 H 124.828 -4.24254 3.85592 0
M  V30 1447 H 123.225 -3.89388 4.56614 0
M  V30 1448 H 124.295 -2.55144 4.12346 0
M  V30 1449 N 125.638 -1.25649 -0.95132 0
M  V30 1450 C 126.548 -1.08073 -2.08224 0
M  V30 1451 C 127.564 -0.0169666 -1.73992 0
M  V30 1452 O 128.74 -0.218593 -2.0021 0
M  V30 1453 C 125.805 -0.704922 -3.39458 0
M  V30 1454 C 124.866 -1.84699 -3.87537 0
M  V30 1455 C 124.099 -1.48902 -5.12508 0
M  V30 1456 O 124.322 -0.386156 -5.69091 0
M  V30 1457 O 123.256 -2.32033 -5.55378 0
M  V30 1458 H 127.082 -2.02924 -2.25954 0
M  V30 1459 H 124.667 -1.04618 -1.06656 0
M  V30 1460 H 126.549 -0.507609 -4.18332 0
M  V30 1461 H 125.224 0.214291 -3.2299 0
M  V30 1462 H 124.131 -2.09919 -3.09653 0
M  V30 1463 H 125.464 -2.74557 -4.08509 0
M  V30 1464 N 127.117 1.15442 -1.07289 0
M  V30 1465 C 128.065 2.22225 -0.686952 0
M  V30 1466 C 129.059 1.66688 0.30193 0
M  V30 1467 O 130.265 1.79236 0.165712 0
M  V30 1468 H 126.64 0.723783 -0.204064 0
M  V30 1469 H 128.611 2.52056 -1.5972 0
M  V30 1470 C 127.36 3.47556 -0.100149 0
M  V30 1471 H 126.683 3.90612 -0.852211 0
M  V30 1472 H 128.123 4.23794 0.132235 0
M  V30 1473 C 126.582 3.16337 1.159 0
M  V30 1474 O 127.112 3.33074 2.24555 0
M  V30 1475 N 125.318 2.70385 1.06491 0
M  V30 1476 H 124.865 2.56966 0.180668 0
M  V30 1477 H 124.823 2.49871 1.90819 0
M  V30 1478 N 128.595 0.856903 1.32268 0
M  V30 1479 C 129.525 0.31858 2.31316 0
M  V30 1480 C 130.506 -0.583487 1.59779 0
M  V30 1481 O 131.691 -0.503259 1.87566 0
M  V30 1482 C 128.821 -0.491979 3.43798 0
M  V30 1483 C 127.775 0.315849 4.26833 0
M  V30 1484 C 127.101 -0.619586 5.31098 0
M  V30 1485 C 128.401 1.54282 4.98993 0
M  V30 1486 H 130.095 1.14621 2.76591 0
M  V30 1487 H 127.641 0.552613 1.32974 0
M  V30 1488 H 129.594 -0.879012 4.1213 0
M  V30 1489 H 128.318 -1.35299 2.97257 0
M  V30 1490 H 126.977 0.684664 3.6015 0
M  V30 1491 H 126.625 -1.47751 4.8081 0
M  V30 1492 H 126.325 -0.0830621 5.87541 0
M  V30 1493 H 127.849 -1.00375 6.02293 0
M  V30 1494 H 129.263 1.22796 5.59995 0
M  V30 1495 H 127.66 2.01745 5.65172 0
M  V30 1496 H 128.73 2.30285 4.26728 0
M  V30 1497 N 130.073 -1.45103 0.615059 0
M  V30 1498 C 131.489 -1.57137 0.279322 0
M  V30 1499 C 131.689 -1.60523 -1.21797 0
M  V30 1500 O 130.745 -1.53956 -2.00134 0
M  V30 1501 C 132.058 -2.85062 0.957083 0
M  V30 1502 C 133.606 -2.98749 0.933706 0
M  V30 1503 C 134.081 -4.29455 1.59162 0
M  V30 1504 N 135.572 -4.36231 1.55746 0
M  V30 1505 C 136.307 -5.36051 2.0356 0
M  V30 1506 N 135.803 -6.42367 2.59494 0
M  V30 1507 N 137.596 -5.27456 1.94284 0
M  V30 1508 H 129.747 -1.41148 1.58717 0
M  V30 1509 H 132.01 -0.675331 0.665306 0
M  V30 1510 H 131.716 -2.88488 2.01166 0
M  V30 1511 H 131.59 -3.7407 0.48494 0
M  V30 1512 H 133.977 -2.94886 -0.112347 0
M  V30 1513 H 134.058 -2.11132 1.44419 0
M  V30 1514 H 133.702 -4.34077 2.63704 0
M  V30 1515 H 133.632 -5.15901 1.0561 0
M  V30 1516 H 136.123 -3.60011 1.14893 0
M  V30 1517 H 136.436 -7.14793 2.93752 0
M  V30 1518 H 134.781 -6.43097 2.63537 0
M  V30 1519 H 137.972 -4.43308 1.5032 0
M  V30 1520 H 138.145 -6.05099 2.3186 0
M  V30 1521 N 131.551 -0.354651 -1.53558 0
M  V30 1522 C 132.799 0.237972 -2.00694 0
M  V30 1523 C 133.12 1.50173 -1.24391 0
M  V30 1524 O 132.39 1.92673 -0.354135 0
M  V30 1525 H 130.97 0.0909256 -0.741446 0
M  V30 1526 H 133.632 -0.478368 -1.88938 0
M  V30 1527 H 132.728 0.47264 -3.085 0
M  V30 1528 N 133.029 1.57378 -0.0835403 0
M  V30 1529 C 134.277 1.93547 0.581718 0
M  V30 1530 C 134.598 0.96524 1.69435 0
M  V30 1531 O 133.868 0.0153369 1.95894 0
M  V30 1532 H 132.448 0.714521 0.217874 0
M  V30 1533 H 135.11 1.94366 -0.144158 0
M  V30 1534 H 134.206 2.95665 0.999423 0
M  V30 1535 N 134.507 -0.190092 1.56449 0
M  V30 1536 C 135.918 -0.754312 1.70784 0
M  V30 1537 C 136.269 -1.83631 0.690951 0
M  V30 1538 O 135.394 -2.15868 -0.151604 0
M  V30 1539 C 135.989 -1.37503 3.09642 0
M  V30 1540 C 134.548 -1.88628 3.25725 0
M  V30 1541 C 133.695 -0.758098 2.66736 0
M  V30 1542 H 136.646 0.0350524 1.58661 0
M  V30 1543 H 136.667 -2.2445 3.0725 0
M  V30 1544 H 136.179 -0.587302 3.83631 0
M  V30 1545 H 134.28 -2.70103 2.56661 0
M  V30 1546 H 134.393 -2.04462 4.3328 0
M  V30 1547 H 132.757 -1.17369 2.26046 0
M  V30 1548 H 133.54 0.0174705 3.43296 0
M  V30 1549 N 135.985 -1.50799 -0.457987 0
M  V30 1550 C 136.933 -1.71162 -1.575 0
M  V30 1551 C 137.927 -0.577592 -1.59249 0
M  V30 1552 O 139.133 -0.758443 -1.63241 0
M  V30 1553 H 135.508 -0.540468 -0.522875 0
M  V30 1554 H 137.479 -2.64837 -1.37492 0
M  V30 1555 C 136.228 -1.83496 -2.95338 0
M  V30 1556 H 135.551 -2.70153 -2.94716 0
M  V30 1557 H 136.991 -2.01765 -3.72917 0
M  V30 1558 C 135.45 -0.589694 -3.31699 0
M  V30 1559 O 135.98 0.265163 -4.00824 0
M  V30 1560 N 134.186 -0.439845 -2.87252 0
M  V30 1561 H 133.733 -1.13655 -2.31172 0
M  V30 1562 H 133.691 0.392159 -3.11945 0
M  V30 1563 N 137.463 0.71206 -1.40597 0
M  V30 1564 C 138.712 1.46754 -1.38369 0
M  V30 1565 C 139.025 1.95598 0.0097839 0
M  V30 1566 O 140.231 2.71059 0.154677 0
M  V30 1567 C 138.687 2.65289 -2.43207 0
M  V30 1568 C 138.295 2.23301 -3.88382 0
M  V30 1569 C 140.039 3.43008 -2.50091 0
M  V30 1570 C 137.946 3.38696 -4.84808 0
M  V30 1571 H 136.876 0.55118 -0.514506 0
M  V30 1572 H 139.527 0.774616 -1.66349 0
M  V30 1573 H 137.909 3.36769 -2.08332 0
M  V30 1574 H 139.083 1.59218 -4.32419 0
M  V30 1575 H 137.398 1.58618 -3.85006 0
M  V30 1576 H 139.995 4.28881 -3.1932 0
M  V30 1577 H 140.338 3.87065 -1.53253 0
M  V30 1578 H 140.871 2.78574 -2.83974 0
M  V30 1579 H 137.61 2.99668 -5.82992 0
M  V30 1580 H 137.13 4.01683 -4.45433 0
M  V30 1581 H 138.809 4.04712 -5.04794 0
M  V30 1582 N 138.941 1.26152 0.944643 0
M  V30 1583 C 140.19 1.10883 1.68487 0
M  V30 1584 C 140.503 -0.348153 1.92477 0
M  V30 1585 O 141.709 -0.621459 2.64292 0
M  V30 1586 C 140.165 1.93624 3.03377 0
M  V30 1587 C 139.773 3.43875 2.87148 0
M  V30 1588 C 141.517 1.86954 3.81115 0
M  V30 1589 C 139.424 4.18875 4.1749 0
M  V30 1590 H 138.354 0.41135 0.631907 0
M  V30 1591 H 141.005 1.50433 1.05082 0
M  V30 1592 H 139.387 1.46904 3.67743 0
M  V30 1593 H 140.561 3.98338 2.31653 0
M  V30 1594 H 138.876 3.51744 2.22856 0
M  V30 1595 H 141.473 2.40275 4.77673 0
M  V30 1596 H 141.816 0.839518 4.07747 0
M  V30 1597 H 142.349 2.31477 3.23517 0
M  V30 1598 H 139.088 5.22332 3.96043 0
M  V30 1599 H 138.608 3.69193 4.72712 0
M  V30 1600 H 140.287 4.27134 4.85968 0
M  V30 1601 N 140.419 -1.14872 1.07899 0
M  V30 1602 C 141.647 -1.89661 0.82683 0
M  V30 1603 C 142.062 -1.78312 -0.620519 0
M  V30 1604 O 141.419 -1.13888 -1.42604 0
M  V30 1605 C 141.47 -3.39817 1.23316 0
M  V30 1606 O 141.191 -3.50845 2.62372 0
M  V30 1607 C 142.692 -4.31615 1.0111 0
M  V30 1608 H 139.912 -0.60092 0.298557 0
M  V30 1609 H 142.456 -1.4551 1.43691 0
M  V30 1610 H 140.611 -3.8161 0.667286 0
M  V30 1611 H 141.025 -4.44076 2.79101 0
M  V30 1612 H 142.499 -5.35367 1.34486 0
M  V30 1613 H 142.976 -4.39169 -0.0522168 0
M  V30 1614 H 143.582 -3.95572 1.56215 0
M  V30 1615 N 141.898 -0.863906 -1.31812 0
M  V30 1616 C 142.828 -0.330843 -2.31144 0
M  V30 1617 C 143.809 0.575005 -1.60087 0
M  V30 1618 O 144.994 0.493304 -1.8783 0
M  V30 1619 C 142.124 0.47374 -3.44054 0
M  V30 1620 C 141.078 -0.338481 -4.26659 0
M  V30 1621 C 140.404 0.591412 -5.31419 0
M  V30 1622 C 141.704 -1.56926 -4.98168 0
M  V30 1623 H 143.398 -1.16086 -2.75979 0
M  V30 1624 H 140.944 -0.559657 -1.32679 0
M  V30 1625 H 142.897 0.857143 -4.12591 0
M  V30 1626 H 141.621 1.33721 -2.9797 0
M  V30 1627 H 140.28 -0.703754 -3.59782 0
M  V30 1628 H 139.928 1.45199 -4.81587 0
M  V30 1629 H 139.628 0.0519022 -5.87577 0
M  V30 1630 H 141.152 0.97179 -6.02817 0
M  V30 1631 H 142.566 -1.25764 -5.59336 0
M  V30 1632 H 140.963 -2.04739 -5.64094 0
M  V30 1633 H 142.033 -2.32544 -4.25501 0
M  V30 1634 N 143.376 1.44774 -0.622745 0
M  V30 1635 C 144.339 2.29069 0.0774015 0
M  V30 1636 C 145.339 1.4059 0.780461 0
M  V30 1637 O 146.529 1.62551 0.626322 0
M  V30 1638 C 143.661 3.21974 1.12006 0
M  V30 1639 H 144.854 2.92459 -0.663901 0
M  V30 1640 H 142.407 1.51548 -0.382486 0
M  V30 1641 H 143.142 2.63417 1.89162 0
M  V30 1642 H 142.927 3.87168 0.619951 0
M  V30 1643 H 144.417 3.85318 1.60995 0
M  V30 1644 N 144.854 0.36279 1.53368 0
M  V30 1645 C 146.131 -0.284021 1.93527 0
M  V30 1646 C 146.511 -1.66628 1.29608 0
M  V30 1647 O 145.859 -2.23942 0.45413 0
M  V30 1648 C 146.069 -0.337028 3.47369 0
M  V30 1649 C 147.417 -0.578708 4.20638 0
M  V30 1650 O 148.441 -0.418352 3.53735 0
M  V30 1651 O 147.3 -0.89074 5.39192 0
M  V30 1652 H 144.394 -0.169743 0.809393 0
M  V30 1653 H 146.94 0.41537 1.64538 0
M  V30 1654 H 145.712 0.632217 3.86159 0
M  V30 1655 H 145.335 -1.08243 3.82582 0
M  V30 1656 N 146.332 -1.57332 0.0918853 0
M  V30 1657 C 147.581 -1.93412 -0.572249 0
M  V30 1658 C 147.894 -0.975515 -1.69538 0
M  V30 1659 O 149.1 -1.22991 -2.42045 0
M  V30 1660 C 147.556 -3.43648 -1.0693 0
M  V30 1661 C 147.164 -4.47994 0.0239049 0
M  V30 1662 C 148.908 -3.88695 -1.70635 0
M  V30 1663 C 146.815 -5.89381 -0.488319 0
M  V30 1664 H 145.745 -0.721939 -0.217532 0
M  V30 1665 H 148.396 -1.82735 0.167369 0
M  V30 1666 H 146.778 -3.49466 -1.8625 0
M  V30 1667 H 147.952 -4.53815 0.799277 0
M  V30 1668 H 146.267 -4.12536 0.565946 0
M  V30 1669 H 148.864 -4.91725 -2.10025 0
M  V30 1670 H 149.207 -3.27166 -2.57426 0
M  V30 1671 H 149.74 -3.85564 -0.979023 0
M  V30 1672 H 146.479 -6.54602 0.342906 0
M  V30 1673 H 145.999 -5.87037 -1.23077 0
M  V30 1674 H 147.678 -6.39863 -0.958317 0
M  V30 1675 N 147.81 0.181792 -1.56548 0
M  V30 1676 C 149.056 0.901431 -1.81665 0
M  V30 1677 C 149.389 1.82347 -0.668075 0
M  V30 1678 O 148.664 1.91669 0.330615 0
M  V30 1679 C 148.947 1.70618 -3.17115 0
M  V30 1680 C 148.8 0.807964 -4.42484 0
M  V30 1681 C 150.119 2.67605 -3.49393 0
M  V30 1682 H 147.238 0.32627 -0.660846 0
M  V30 1683 H 149.88 0.168134 -1.89255 0
M  V30 1684 H 148.03 2.33133 -3.10775 0
M  V30 1685 H 149.702 0.19649 -4.60881 0
M  V30 1686 H 147.945 0.115411 -4.33646 0
M  V30 1687 H 148.616 1.40632 -5.33785 0
M  V30 1688 H 151.092 2.15218 -3.56118 0
M  V30 1689 H 149.968 3.20985 -4.45264 0
M  V30 1690 H 150.229 3.47298 -2.73563 0
M  V30 1691 N 149.288 1.51039 0.449983 0
M  V30 1692 C 150.235 1.71439 1.54523 0
M  V30 1693 C 151.205 0.555871 1.56522 0
M  V30 1694 O 152.39 0.788871 1.73728 0
M  V30 1695 C 149.53 1.83384 2.92343 0
M  V30 1696 C 148.643 3.10873 2.9997 0
M  V30 1697 C 147.778 3.13488 4.28834 0
M  V30 1698 C 146.817 4.35343 4.30282 0
M  V30 1699 N 145.954 4.35579 5.5065 0
M  V30 1700 H 150.794 2.64934 1.36433 0
M  V30 1701 H 148.331 1.31312 0.662982 0
M  V30 1702 H 150.289 1.88291 3.72293 0
M  V30 1703 H 148.919 0.933086 3.0902 0
M  V30 1704 H 147.971 3.15336 2.12761 0
M  V30 1705 H 149.283 4.00814 2.96901 0
M  V30 1706 H 148.437 3.17241 5.17149 0
M  V30 1707 H 147.176 2.21414 4.34543 0
M  V30 1708 H 146.181 4.3178 3.40362 0
M  V30 1709 H 147.406 5.28668 4.26248 0
M  V30 1710 H 145.352 3.46369 5.57104 0
M  V30 1711 H 145.269 5.19313 5.49409 0
M  V30 1712 H 146.537 4.43507 6.41032 0
M  V30 1713 N 150.766 -0.704594 1.40972 0
M  V30 1714 C 152.043 -1.45847 1.30338 0
M  V30 1715 C 152.423 -2.10973 -0.0732344 0
M  V30 1716 O 151.771 -2.00997 -1.08685 0
M  V30 1717 C 151.981 -2.48525 2.45023 0
M  V30 1718 C 153.329 -3.1404 2.8577 0
M  V30 1719 O 154.353 -2.58848 2.44696 0
M  V30 1720 O 153.212 -4.13981 3.56766 0
M  V30 1721 H 150.306 -0.649092 0.512454 0
M  V30 1722 H 152.852 -0.735836 1.52917 0
M  V30 1723 H 151.624 -1.98994 3.36923 0
M  V30 1724 H 151.247 -3.2831 2.24272 0
M  V30 1725 N 152.244 -1.26651 -0.937939 0
M  V30 1726 C 153.655 -1.1125 -1.49934 0
M  V30 1727 C 154.006 0.306077 -1.93798 0
M  V30 1728 O 153.131 1.19792 -1.80219 0
M  V30 1729 C 153.726 -2.01339 -2.72485 0
M  V30 1730 C 152.285 -1.90074 -3.24883 0
M  V30 1731 C 151.432 -1.94498 -1.97651 0
M  V30 1732 H 154.383 -1.39693 -0.753091 0
M  V30 1733 H 154.404 -1.56319 -3.46907 0
M  V30 1734 H 153.916 -3.04577 -2.40529 0
M  V30 1735 H 152.017 -0.897827 -3.61621 0
M  V30 1736 H 152.13 -2.75778 -3.9177 0
M  V30 1737 H 150.494 -1.38591 -2.13693 0
M  V30 1738 H 151.277 -2.99372 -1.68022 0
M  V30 1739 N 153.722 1.14298 -1.08507 0
M  V30 1740 C 154.968 1.85633 -0.816581 0
M  V30 1741 C 155.301 1.82784 0.656021 0
M  V30 1742 O 154.576 1.25926 1.48233 0
M  V30 1743 C 154.859 3.34223 -1.34041 0
M  V30 1744 C 154.712 3.45639 -2.87843 0
M  V30 1745 C 156.031 4.29356 -0.9665 0
M  V30 1746 H 153.15 0.67402 -0.298104 0
M  V30 1747 H 155.792 1.34214 -1.34487 0
M  V30 1748 H 153.942 3.78144 -0.89104 0
M  V30 1749 H 155.614 3.10498 -3.41158 0
M  V30 1750 H 153.857 2.86817 -3.25451 0
M  V30 1751 H 154.528 4.50089 -3.19569 0
M  V30 1752 H 157.004 3.93457 -1.35391 0
M  V30 1753 H 155.88 5.3178 -1.3602 0
M  V30 1754 H 156.141 4.41919 0.126362 0
M  V30 1755 N 155.201 0.870884 1.31352 0
M  V30 1756 C 156.426 0.495957 2.01383 0
M  V30 1757 C 156.851 -0.904324 1.64935 0
M  V30 1758 O 156.209 -1.59687 0.858466 0
M  V30 1759 C 156.257 0.661433 3.54482 0
M  V30 1760 O 155.361 -0.298851 4.11316 0
M  V30 1761 H 154.702 0.197158 0.634054 0
M  V30 1762 H 157.232 1.17455 1.67527 0
M  V30 1763 H 157.242 0.555072 4.04207 0
M  V30 1764 H 155.917 1.68246 3.8035 0
M  V30 1765 H 154.494 -0.147368 3.72609 0
M  V30 1766 N 156.679 -1.44442 0.630414 0
M  V30 1767 C 158.095 -1.56832 0.295973 0
M  V30 1768 C 158.295 -1.61806 -1.20088 0
M  V30 1769 O 157.351 -1.5607 -1.9849 0
M  V30 1770 C 158.664 -2.84031 0.987264 0
M  V30 1771 C 160.212 -2.97742 0.96534 0
M  V30 1772 C 160.687 -4.27743 1.63708 0
M  V30 1773 N 162.178 -4.34555 1.60364 0
M  V30 1774 C 162.913 -5.33862 2.09234 0
M  V30 1775 N 162.409 -6.39578 2.66292 0
M  V30 1776 N 164.202 -5.25366 1.99867 0
M  V30 1777 H 156.353 -1.39457 1.60205 0
M  V30 1778 H 158.616 -0.668237 0.672431 0
M  V30 1779 H 158.322 -2.86338 2.04215 0
M  V30 1780 H 158.196 -3.73534 0.524588 0
M  V30 1781 H 160.583 -2.94989 -0.0810639 0
M  V30 1782 H 160.664 -2.09589 1.4665 0
M  V30 1783 H 160.308 -4.31255 2.68293 0
M  V30 1784 H 160.238 -5.14752 1.11076 0
M  V30 1785 H 162.729 -3.58772 1.18705 0
M  V30 1786 H 163.042 -7.11637 3.01317 0
M  V30 1787 H 161.387 -6.40265 2.70343 0
M  V30 1788 H 164.578 -4.41688 1.55013 0
M  V30 1789 H 164.751 -6.02606 2.38265 0
M  V30 1790 N 158.157 -0.370918 -1.53173 0
M  V30 1791 C 159.385 0.217704 -2.05751 0
M  V30 1792 C 159.8 1.42018 -1.24404 0
M  V30 1793 O 159.157 1.80245 -0.286033 0
M  V30 1794 C 159.208 0.605954 -3.56385 0
M  V30 1795 O 158.929 -0.548734 -4.3465 0
M  V30 1796 C 160.43 1.2524 -4.25241 0
M  V30 1797 H 157.65 0.0371659 -0.66997 0
M  V30 1798 H 160.194 -0.530832 -1.9749 0
M  V30 1799 H 158.349 1.3044 -3.6478 0
M  V30 1800 H 158.763 -0.23376 -5.23979 0
M  V30 1801 H 160.237 1.47458 -5.3194 0
M  V30 1802 H 160.714 2.2143 -3.79296 0
M  V30 1803 H 161.32 0.595233 -4.21114 0
M  V30 1804 N 159.635 1.57281 -0.100228 0
M  V30 1805 C 161.046 1.81725 0.428107 0
M  V30 1806 C 161.397 1.01619 1.67833 0
M  V30 1807 O 160.522 0.247098 2.14985 0
M  V30 1808 C 161.117 3.29617 0.78347 0
M  V30 1809 C 159.676 3.54808 1.25653 0
M  V30 1810 C 158.823 2.76118 0.255752 0
M  V30 1811 H 161.774 1.55324 -0.325608 0
M  V30 1812 H 161.795 3.4322 1.64256 0
M  V30 1813 H 161.307 3.87893 -0.12665 0
M  V30 1814 H 159.408 3.01868 2.18418 0
M  V30 1815 H 159.521 4.63443 1.21482 0
M  V30 1816 H 157.885 2.43745 0.738956 0
M  V30 1817 H 158.668 3.37145 -0.647136 0
M  V30 1818 N 161.113 -0.173488 1.56642 0
M  V30 1819 C 162.076 -1.19859 1.95362 0
M  V30 1820 C 163.076 -1.37296 0.83704 0
M  V30 1821 O 164.266 -1.34739 1.10413 0
M  V30 1822 C 161.398 -2.56405 2.24654 0
M  V30 1823 H 162.591 -0.867062 2.87092 0
M  V30 1824 H 160.144 -0.415853 1.50666 0
M  V30 1825 H 160.879 -2.94576 1.35631 0
M  V30 1826 H 160.664 -2.45115 3.06041 0
M  V30 1827 H 162.154 -3.30287 2.5554 0
M  V30 1828 N 162.591 -1.51276 -0.441967 0
M  V30 1829 C 163.521 -1.752 -1.54361 0
M  V30 1830 C 164.502 -0.601682 -1.59103 0
M  V30 1831 O 165.687 -0.843913 -1.74905 0
M  V30 1832 C 162.817 -1.87282 -2.92477 0
M  V30 1833 C 161.771 -3.02687 -3.02596 0
M  V30 1834 C 161.097 -2.99947 -4.42647 0
M  V30 1835 C 162.397 -4.4273 -2.77106 0
M  V30 1836 H 164.091 -2.67442 -1.34592 0
M  V30 1837 H 161.637 -1.28694 -0.646048 0
M  V30 1838 H 163.59 -2.02602 -3.695 0
M  V30 1839 H 162.314 -0.916844 -3.13467 0
M  V30 1840 H 160.973 -2.87065 -2.28012 0
M  V30 1841 H 160.621 -2.02136 -4.60597 0
M  V30 1842 H 160.321 -3.77439 -4.50348 0
M  V30 1843 H 161.845 -3.17354 -5.2165 0
M  V30 1844 H 163.259 -4.58727 -3.43864 0
M  V30 1845 H 161.656 -5.21893 -2.96222 0
M  V30 1846 H 162.726 -4.53087 -1.72744 0
M  V30 1847 N 164.069 0.697108 -1.41344 0
M  V30 1848 C 165.315 1.4593 -1.40827 0
M  V30 1849 C 165.648 1.94193 -0.0167098 0
M  V30 1850 O 164.923 1.69425 0.955263 0
M  V30 1851 C 165.206 2.67229 -2.41373 0
M  V30 1852 C 165.059 2.24741 -3.8963 0
M  V30 1853 C 166.378 3.69423 -2.39196 0
M  V30 1854 H 163.497 0.529303 -0.512842 0
M  V30 1855 H 166.139 0.794112 -1.72609 0
M  V30 1856 H 164.289 3.23982 -2.14401 0
M  V30 1857 H 165.961 1.73327 -4.27499 0
M  V30 1858 H 164.204 1.56542 -4.0457 0
M  V30 1859 H 164.875 3.1177 -4.55525 0
M  V30 1860 H 167.351 3.2234 -2.63128 0
M  V30 1861 H 166.227 4.51907 -3.11563 0
M  V30 1862 H 166.488 4.19012 -1.41001 0
M  V30 1863 N 165.547 1.27147 0.931209 0
M  V30 1864 C 166.794 1.13278 1.67852 0
M  V30 1865 C 167.122 -0.32204 1.91815 0
M  V30 1866 O 166.377 -1.25224 1.50391 0
M  V30 1867 C 166.676 1.8579 3.05314 0
M  V30 1868 C 166.342 3.35657 3.01073 0
M  V30 1869 C 165.004 3.76536 2.99623 0
M  V30 1870 C 167.356 4.31299 2.92627 0
M  V30 1871 C 164.684 5.11426 2.87506 0
M  V30 1872 C 167.036 5.66242 2.82051 0
M  V30 1873 C 165.7 6.06418 2.7895 0
M  V30 1874 H 164.97 0.414515 0.614214 0
M  V30 1875 H 167.617 1.57712 1.08624 0
M  V30 1876 H 165.922 1.33854 3.68226 0
M  V30 1877 H 167.619 1.72491 3.62005 0
M  V30 1878 H 164.209 3.03146 3.02986 0
M  V30 1879 H 168.393 4.00692 2.92848 0
M  V30 1880 H 163.649 5.41705 2.83489 0
M  V30 1881 H 167.823 6.40026 2.74481 0
M  V30 1882 H 165.45 7.10895 2.69318 0
M  V30 1883 N 167.025 -1.13721 1.09112 0
M  V30 1884 C 167.935 -2.22638 0.73957 0
M  V30 1885 C 168.951 -1.72091 -0.257068 0
M  V30 1886 O 170.127 -2.01155 -0.0992154 0
M  V30 1887 C 167.192 -3.46322 0.16191 0
M  V30 1888 C 166.253 -4.11775 1.21408 0
M  V30 1889 C 165.486 -5.29555 0.663891 0
M  V30 1890 O 165.709 -5.68077 -0.514274 0
M  V30 1891 O 164.643 -5.84973 1.41738 0
M  V30 1892 H 168.469 -2.55074 1.64836 0
M  V30 1893 H 166.054 -1.21791 0.865289 0
M  V30 1894 H 167.936 -4.21107 -0.157073 0
M  V30 1895 H 166.611 -3.15593 -0.719932 0
M  V30 1896 H 165.518 -3.3883 1.58571 0
M  V30 1897 H 166.851 -4.46627 2.06845 0
M  V30 1898 N 168.503 -0.877838 -1.30888 0
M  V30 1899 C 169.453 -0.310872 -2.25871 0
M  V30 1900 C 170.437 0.556596 -1.50966 0
M  V30 1901 O 171.629 0.402187 -1.7237 0
M  V30 1902 C 168.758 0.479821 -3.3993 0
M  V30 1903 C 167.844 -0.401333 -4.22197 0
M  V30 1904 N 168.235 -1.49848 -4.83093 0
M  V30 1905 C 166.533 -0.195167 -4.45573 0
M  V30 1906 C 167.234 -2.0425 -5.44662 0
M  V30 1907 N 166.21 -1.33843 -5.26865 0
M  V30 1908 H 170.012 -1.1493 -2.70496 0
M  V30 1909 H 167.526 -0.726458 -1.45246 0
M  V30 1910 H 169.523 0.902582 -4.07012 0
M  V30 1911 H 168.183 1.31577 -2.96846 0
M  V30 1912 H 169.194 -1.88137 -4.82519 0
M  V30 1913 H 165.871 0.604192 -4.13105 0
M  V30 1914 H 167.261 -2.96345 -6.03017 0
M  V30 1915 N 169.982 1.44106 -0.638065 0
M  V30 1916 C 171.228 2.02277 -0.145546 0
M  V30 1917 C 171.561 1.50125 1.23191 0
M  V30 1918 O 170.836 0.688133 1.8192 0
M  V30 1919 C 171.119 3.59829 -0.139791 0
M  V30 1920 C 170.972 4.22247 -1.55008 0
M  V30 1921 C 172.291 4.36873 0.531966 0
M  V30 1922 H 169.41 0.734992 -0.0543632 0
M  V30 1923 H 172.052 1.71592 -0.815863 0
M  V30 1924 H 170.202 3.86102 0.431007 0
M  V30 1925 H 171.874 4.07057 -2.1703 0
M  V30 1926 H 170.117 3.79476 -2.10191 0
M  V30 1927 H 170.788 5.31284 -1.49804 0
M  V30 1928 H 173.264 4.16074 0.0464781 0
M  V30 1929 H 172.14 5.4657 0.505206 0
M  V30 1930 H 172.401 4.11995 1.60352 0
M  V30 1931 N 171.46 0.379036 1.52974 0
M  V30 1932 C 172.408 -0.476033 2.27677 0
M  V30 1933 C 173.402 -1.0719 1.31174 0
M  V30 1934 O 174.608 -1.01355 1.48752 0
M  V30 1935 H 170.983 -0.172255 0.732006 0
M  V30 1936 H 172.954 0.175615 2.97883 0
M  V30 1937 C 171.703 -1.5967 3.0887 0
M  V30 1938 H 171.026 -1.1475 3.82978 0
M  V30 1939 H 172.466 -2.16943 3.64296 0
M  V30 1940 C 170.925 -2.54682 2.20542 0
M  V30 1941 O 171.455 -3.57836 1.82527 0
M  V30 1942 N 169.661 -2.24183 1.84907 0
M  V30 1943 H 169.208 -1.40333 2.1602 0
M  V30 1944 H 169.166 -2.88006 1.26096 0
M  V30 1945 N 172.938 -1.57226 0.108567 0
M  V30 1946 C 173.886 -2.16002 -0.862885 0
M  V30 1947 C 174.88 -1.10644 -1.28274 0
M  V30 1948 O 176.086 -1.28966 -1.2557 0
M  V30 1949 H 172.461 -0.691148 -0.296342 0
M  V30 1950 H 174.432 -2.96427 -0.342575 0
M  V30 1951 C 173.181 -2.76576 -2.10716 0
M  V30 1952 H 172.504 -3.5734 -1.793 0
M  V30 1953 H 173.944 -3.21253 -2.76717 0
M  V30 1954 C 172.403 -1.73137 -2.89007 0
M  V30 1955 O 172.933 -1.17842 -3.84026 0
M  V30 1956 N 171.139 -1.43317 -2.52801 0
M  V30 1957 H 170.686 -1.88473 -1.75601 0
M  V30 1958 H 170.644 -0.743485 -3.05483 0
M  V30 1959 N 174.416 0.165178 -1.56732 0
M  V30 1960 C 175.644 0.896218 -1.86482 0
M  V30 1961 C 176.059 1.75555 -0.694675 0
M  V30 1962 O 175.416 1.79379 0.33607 0
M  V30 1963 C 175.467 1.76792 -3.1532 0
M  V30 1964 O 175.188 0.943239 -4.27825 0
M  V30 1965 C 176.689 2.6081 -3.58459 0
M  V30 1966 H 173.909 0.260064 -0.618553 0
M  V30 1967 H 176.453 0.163428 -2.03846 0
M  V30 1968 H 174.608 2.45398 -2.99764 0
M  V30 1969 H 175.022 1.53998 -5.01383 0
M  V30 1970 H 176.496 3.17579 -4.51495 0
M  V30 1971 H 176.973 3.35977 -2.82872 0
M  V30 1972 H 177.579 1.97526 -3.76648 0
M  V30 1973 N 175.894 1.51508 0.433938 0
M  V30 1974 C 177.171 1.54888 1.19453 0
M  V30 1975 C 177.551 0.315154 2.08734 0
M  V30 1976 O 176.899 -0.699558 2.17528 0
M  V30 1977 C 177.109 2.86467 1.99342 0
M  V30 1978 C 178.457 3.38545 2.56267 0
M  V30 1979 O 179.481 2.88041 2.0955 0
M  V30 1980 O 178.34 4.26675 3.41483 0
M  V30 1981 H 175.434 0.622863 0.544032 0
M  V30 1982 H 177.98 1.63823 0.442732 0
M  V30 1983 H 176.752 3.67718 1.33788 0
M  V30 1984 H 176.375 2.8071 2.8158 0
M  V30 1985 N 177.372 -0.689602 1.41712 0
M  V30 1986 C 178.619 -1.44966 1.4139 0
M  V30 1987 C 178.947 -1.94484 0.025105 0
M  V30 1988 O 178.202 -1.70307 -0.964048 0
M  V30 1989 C 178.501 -2.67298 2.37247 0
M  V30 1990 C 178.167 -2.36405 3.83958 0
M  V30 1991 C 176.829 -2.27691 4.23923 0
M  V30 1992 C 179.181 -2.11043 4.76561 0
M  V30 1993 C 176.509 -1.91719 5.54492 0
M  V30 1994 C 178.861 -1.76578 6.07456 0
M  V30 1995 C 177.525 -1.66363 6.46436 0
M  V30 1996 H 176.795 -0.53047 0.517381 0
M  V30 1997 H 179.442 -0.787655 1.74552 0
M  V30 1998 H 177.747 -3.38461 1.9736 0
M  V30 1999 H 179.444 -3.25452 2.34269 0
M  V30 2000 H 176.034 -2.44085 3.52308 0
M  V30 2001 H 180.218 -2.16717 4.46483 0
M  V30 2002 H 175.474 -1.82367 5.83568 0
M  V30 2003 H 179.648 -1.55974 6.78708 0
M  V30 2004 H 177.275 -1.38258 7.47522 0
M  V30 2005 N 178.85 -1.27639 -0.924453 0
M  V30 2006 C 179.797 -1.10644 -2.0255 0
M  V30 2007 C 180.767 -0.00658438 -1.66099 0
M  V30 2008 O 181.952 -0.16952 -1.90045 0
M  V30 2009 C 179.092 -0.76309 -3.36557 0
M  V30 2010 C 178.205 -1.94091 -3.85944 0
M  V30 2011 C 177.34 -1.53914 -5.08413 0
M  V30 2012 C 176.379 -2.68425 -5.50104 0
M  V30 2013 N 175.516 -2.28815 -6.63768 0
M  V30 2014 H 180.356 -2.04858 -2.16419 0
M  V30 2015 H 177.893 -1.01974 -1.06017 0
M  V30 2016 H 179.851 -0.544822 -4.13627 0
M  V30 2017 H 178.481 0.142102 -3.22487 0
M  V30 2018 H 177.533 -2.27162 -3.05125 0
M  V30 2019 H 178.845 -2.7998 -4.12811 0
M  V30 2020 H 177.999 -1.28231 -5.92994 0
M  V30 2021 H 176.738 -0.651391 -4.8333 0
M  V30 2022 H 175.743 -2.94819 -4.64071 0
M  V30 2023 H 176.968 -3.57826 -5.7718 0
M  V30 2024 H 174.914 -1.42495 -6.40337 0
M  V30 2025 H 174.831 -3.08242 -6.90306 0
M  V30 2026 H 176.099 -2.06387 -7.51681 0
M  V30 2027 N 180.328 1.1314 -1.09713 0
M  V30 2028 C 181.26 2.18343 -0.697056 0
M  V30 2029 C 182.273 1.60669 0.262551 0
M  V30 2030 O 183.462 1.78435 0.0481527 0
M  V30 2031 C 180.562 3.38899 -0.00684728 0
M  V30 2032 C 179.735 4.26078 -0.988741 0
M  V30 2033 C 178.794 5.25155 -0.331394 0
M  V30 2034 O 177.82 5.60701 -0.979926 0
M  V30 2035 N 179.022 5.73271 0.913261 0
M  V30 2036 H 181.787 2.5328 -1.60216 0
M  V30 2037 H 179.348 1.28491 -0.984971 0
M  V30 2038 H 181.34 4.02255 0.444191 0
M  V30 2039 H 179.91 3.02175 0.800551 0
M  V30 2040 H 179.13 3.59453 -1.61826 0
M  V30 2041 H 180.418 4.81178 -1.65364 0
M  V30 2042 H 179.816 5.46544 1.45966 0
M  V30 2043 H 178.373 6.3855 1.30757 0
M  V30 2044 N 181.806 0.884767 1.30421 0
M  V30 2045 C 182.736 0.367574 2.30589 0
M  V30 2046 C 183.717 -0.549464 1.60981 0
M  V30 2047 O 184.902 -0.46336 1.88591 0
M  V30 2048 C 182.032 -0.418944 3.44764 0
M  V30 2049 C 180.986 0.406316 4.26067 0
M  V30 2050 C 180.312 -0.506793 5.32293 0
M  V30 2051 C 181.612 1.64832 4.95608 0
M  V30 2052 H 183.306 1.20462 2.74097 0
M  V30 2053 H 180.852 0.580695 1.31772 0
M  V30 2054 H 182.805 -0.791395 4.13902 0
M  V30 2055 H 181.529 -1.28964 3.0006 0
M  V30 2056 H 180.188 0.760903 3.58617 0
M  V30 2057 H 179.836 -1.37519 4.83836 0
M  V30 2058 H 179.536 0.0415828 5.87585 0
M  V30 2059 H 181.06 -0.875764 6.04287 0
M  V30 2060 H 182.474 1.34646 5.57264 0
M  V30 2061 H 180.871 2.13688 5.60765 0
M  V30 2062 H 181.941 2.39284 4.21748 0
M  V30 2063 N 183.284 -1.43765 0.645699 0
M  V30 2064 C 184.514 -2.05953 0.163318 0
M  V30 2065 C 184.922 -1.48432 -1.17322 0
M  V30 2066 O 184.265 -0.607295 -1.73371 0
M  V30 2067 C 184.327 -3.59499 -0.0103065 0
M  V30 2068 C 183.991 -4.39563 1.25035 0
M  V30 2069 C 184.988 -4.72108 2.17739 0
M  V30 2070 C 182.673 -4.79697 1.48983 0
M  V30 2071 C 184.667 -5.43688 3.3269 0
M  V30 2072 C 182.354 -5.51023 2.64229 0
M  V30 2073 C 183.352 -5.8294 3.55908 0
M  V30 2074 O 183.04 -6.5281 4.69142 0
M  V30 2075 H 182.772 -0.670798 0.0836986 0
M  V30 2076 H 185.326 -1.85384 0.884407 0
M  V30 2077 H 183.556 -3.78613 -0.78669 0
M  V30 2078 H 185.245 -4.03408 -0.449087 0
M  V30 2079 H 186.011 -4.41627 2.00476 0
M  V30 2080 H 181.89 -4.54266 0.785078 0
M  V30 2081 H 185.434 -5.68517 4.04269 0
M  V30 2082 H 181.331 -5.8092 2.81429 0
M  V30 2083 H 182.099 -6.71288 4.6831 0
M  V30 2084 N 184.763 -0.387143 -1.52771 0
M  V30 2085 C 185.695 0.484089 -2.2403 0
M  V30 2086 C 186.708 1.02849 -1.26198 0
M  V30 2087 O 187.897 0.931186 -1.52286 0
M  V30 2088 C 184.997 1.68337 -2.94136 0
M  V30 2089 C 184.17 1.26672 -4.18656 0
M  V30 2090 C 183.229 2.33045 -4.7178 0
M  V30 2091 O 182.255 1.94541 -5.34923 0
M  V30 2092 N 183.457 3.64929 -4.5145 0
M  V30 2093 H 186.222 -0.126404 -2.99433 0
M  V30 2094 H 183.783 -0.213392 -1.60488 0
M  V30 2095 H 185.775 2.39019 -3.26577 0
M  V30 2096 H 184.345 2.20025 -2.22053 0
M  V30 2097 H 183.565 0.388878 -3.92277 0
M  V30 2098 H 184.853 0.964964 -4.99566 0
M  V30 2099 H 184.251 3.98974 -4.01044 0
M  V30 2100 H 182.808 4.31651 -4.88386 0
M  V30 2101 N 186.241 1.57166 -0.116904 0
M  V30 2102 C 187.469 1.99473 0.549383 0
M  V30 2103 C 187.884 0.996541 1.60357 0
M  V30 2104 O 187.241 -0.0108731 1.82497 0
M  V30 2105 C 187.292 3.41788 1.17741 0
M  V30 2106 O 187.013 4.37788 0.165362 0
M  V30 2107 C 188.514 3.99216 1.92722 0
M  V30 2108 H 185.734 0.655009 0.145616 0
M  V30 2109 H 188.278 2.03494 -0.202625 0
M  V30 2110 H 186.433 3.38713 1.88021 0
M  V30 2111 H 186.847 5.20806 0.621403 0
M  V30 2112 H 188.321 5.00882 2.31995 0
M  V30 2113 H 188.798 3.3824 2.80161 0
M  V30 2114 H 189.404 4.0583 1.27209 0
M  V30 2115 N 187.719 -0.156864 1.56817 0
M  V30 2116 C 188.649 -1.19589 2.00551 0
M  V30 2117 C 189.63 -1.4536 0.883426 0
M  V30 2118 O 190.815 -1.56449 1.15054 0
M  V30 2119 C 187.945 -2.53143 2.37773 0
M  V30 2120 C 186.899 -2.41913 3.53075 0
M  V30 2121 C 186.225 -3.80088 3.76081 0
M  V30 2122 C 187.525 -1.91157 4.86062 0
M  V30 2123 H 189.219 -0.832293 2.87599 0
M  V30 2124 H 186.765 -0.398918 1.38364 0
M  V30 2125 H 188.718 -3.26047 2.66967 0
M  V30 2126 H 187.442 -2.91319 1.4765 0
M  V30 2127 H 186.101 -1.71462 3.24031 0
M  V30 2128 H 185.749 -4.15683 2.83225 0
M  V30 2129 H 185.449 -3.73439 4.53671 0
M  V30 2130 H 186.973 -4.54556 4.0769 0
M  V30 2131 H 188.387 -2.53846 5.14038 0
M  V30 2132 H 186.784 -1.95422 5.67389 0
M  V30 2133 H 187.854 -0.866673 4.77092 0
M  V30 2134 N 189.197 -1.51736 -0.425897 0
M  V30 2135 C 190.425 -1.68794 -1.1965 0
M  V30 2136 C 190.84 -0.390164 -1.84725 0
M  V30 2137 O 190.197 0.632376 -1.71194 0
M  V30 2138 C 190.248 -2.81174 -2.27208 0
M  V30 2139 O 189.969 -4.05925 -1.64793 0
M  V30 2140 C 191.47 -3.09599 -3.17275 0
M  V30 2141 H 188.69 -0.566128 -0.360194 0
M  V30 2142 H 191.234 -1.98211 -0.503249 0
M  V30 2143 H 189.389 -2.54324 -2.9223 0
M  V30 2144 H 189.803 -4.68423 -2.35967 0
M  V30 2145 H 191.277 -3.91786 -3.88854 0
M  V30 2146 H 191.754 -2.22468 -3.78688 0
M  V30 2147 H 192.36 -3.38151 -2.57941 0
M  V30 2148 N 190.675 0.682077 -1.42076 0
M  V30 2149 C 191.952 1.43755 -1.32642 0
M  V30 2150 C 192.332 2.11063 0.0396611 0
M  V30 2151 O 191.68 2.02701 1.05474 0
M  V30 2152 C 191.89 2.44596 -2.48946 0
M  V30 2153 C 193.238 3.09454 -2.9073 0
M  V30 2154 O 194.262 2.54922 -2.48783 0
M  V30 2155 O 193.121 4.08253 -3.63307 0
M  V30 2156 H 190.215 0.640857 -0.522715 0
M  V30 2157 H 192.761 0.711415 -1.54068 0
M  V30 2158 H 191.533 1.93609 -3.40046 0
M  V30 2159 H 191.156 3.24701 -2.29467 0
M  V30 2160 N 192.153 1.28127 0.917671 0
M  V30 2161 C 193.383 1.17722 1.6978 0
M  V30 2162 C 193.791 -0.267261 1.87303 0
M  V30 2163 O 193.134 -1.19286 1.39702 0
M  V30 2164 C 193.196 1.79958 3.11216 0
M  V30 2165 C 192.86 3.29187 3.16993 0
M  V30 2166 C 193.857 4.25679 2.98485 0
M  V30 2167 C 191.542 3.70075 3.39632 0
M  V30 2168 C 193.536 5.61035 3.02521 0
M  V30 2169 C 191.223 5.05557 3.433 0
M  V30 2170 C 192.221 6.00847 3.24764 0
M  V30 2171 O 191.909 7.33859 3.28187 0
M  V30 2172 H 191.641 0.409788 0.537634 0
M  V30 2173 H 194.195 1.69694 1.15728 0
M  V30 2174 H 192.425 1.22475 3.66793 0
M  V30 2175 H 194.114 1.64125 3.71238 0
M  V30 2176 H 194.88 3.95426 2.80826 0
M  V30 2177 H 190.759 2.96373 3.53106 0
M  V30 2178 H 194.303 6.35388 2.87971 0
M  V30 2179 H 190.2 5.35462 3.60486 0
M  V30 2180 H 190.968 7.42436 3.44575 0
M  V30 2181 N 193.631 -1.12557 1.10312 0
M  V30 2182 C 194.908 -1.80363 0.756878 0
M  V30 2183 C 195.288 -1.97067 -0.756824 0
M  V30 2184 O 194.636 -1.54601 -1.68259 0
M  V30 2185 C 194.846 -3.14812 1.50647 0
M  V30 2186 C 196.194 -3.90029 1.67817 0
M  V30 2187 O 197.218 -3.24464 1.46974 0
M  V30 2188 O 196.077 -5.07652 2.02365 0
M  V30 2189 H 193.171 -0.780667 0.272926 0
M  V30 2190 H 195.717 -1.19404 1.20586 0
M  V30 2191 H 194.489 -2.97936 2.53672 0
M  V30 2192 H 194.112 -3.83478 1.05026 0
M  V30 2193 N 195.109 -0.891671 -1.2995 0
M  V30 2194 C 196.358 -0.509521 -1.95158 0
M  V30 2195 C 196.671 0.947388 -1.71125 0
M  V30 2196 O 197.877 1.43669 -2.30372 0
M  V30 2197 C 196.333 -0.860315 -3.49466 0
M  V30 2198 C 195.941 -2.33545 -3.8231 0
M  V30 2199 C 197.685 -0.547687 -4.20952 0
M  V30 2200 C 195.592 -2.62752 -5.29826 0
M  V30 2201 H 194.522 -0.18682 -0.730489 0
M  V30 2202 H 197.173 -1.08756 -1.47798 0
M  V30 2203 H 195.555 -0.211285 -3.95436 0
M  V30 2204 H 196.729 -3.02936 -3.47227 0
M  V30 2205 H 195.044 -2.61629 -3.23944 0
M  V30 2206 H 197.641 -0.742854 -5.29515 0
M  V30 2207 H 197.984 0.51332 -4.13123 0
M  V30 2208 H 198.517 -1.1542 -3.80688 0
M  V30 2209 H 195.256 -3.6762 -5.42712 0
M  V30 2210 H 194.776 -1.97977 -5.66185 0
M  V30 2211 H 196.455 -2.48601 -5.97333 0
M  V30 2212 N 196.587 1.43421 -0.653314 0
M  V30 2213 C 198.003 1.56341 -0.320886 0
M  V30 2214 C 198.203 1.63696 1.17499 0
M  V30 2215 O 197.259 1.59208 1.95982 0
M  V30 2216 C 198.572 2.82424 -1.03233 0
M  V30 2217 C 200.12 2.96168 -1.01259 0
M  V30 2218 C 200.595 4.25084 -1.70492 0
M  V30 2219 N 202.086 4.31948 -1.67257 0
M  V30 2220 C 202.821 5.30466 -2.17701 0
M  V30 2221 N 202.317 6.35261 -2.76434 0
M  V30 2222 N 204.11 5.2212 -2.082 0
M  V30 2223 H 196.261 1.3689 -1.62403 0
M  V30 2224 H 198.524 0.657455 -0.682977 0
M  V30 2225 H 198.23 2.83053 -2.08744 0
M  V30 2226 H 198.104 3.72653 -0.583948 0
M  V30 2227 H 200.491 2.9508 0.0341235 0
M  V30 2228 H 200.572 2.07229 -1.49966 0
M  V30 2229 H 200.216 4.26932 -2.7512 0
M  V30 2230 H 200.146 5.1292 -1.19251 0
M  V30 2231 H 202.637 3.56838 -1.24398 0
M  V30 2232 H 202.95 7.06754 -3.12601 0
M  V30 2233 H 201.295 6.35884 -2.80495 0
M  V30 2234 H 204.486 4.39166 -1.62021 0
M  V30 2235 H 204.659 5.98739 -2.47822 0
M  V30 2236 N 198.065 0.39524 1.52563 0
M  V30 2237 C 199.312 -0.185044 2.01653 0
M  V30 2238 C 199.64 -1.46317 1.28146 0
M  V30 2239 O 198.895 -1.9213 0.372074 0
M  V30 2240 C 199.194 -0.493444 3.53977 0
M  V30 2241 C 198.86 0.69384 4.4553 0
M  V30 2242 C 197.522 1.01954 4.70275 0
M  V30 2243 C 199.874 1.48785 4.99512 0
M  V30 2244 C 197.202 2.14069 5.46252 0
M  V30 2245 C 199.554 2.59965 5.76716 0
M  V30 2246 C 198.218 2.93037 5.99738 0
M  V30 2247 H 197.488 -0.0677123 0.7379 0
M  V30 2248 H 200.135 0.533807 1.8391 0
M  V30 2249 H 198.44 -1.29369 3.69825 0
M  V30 2250 H 200.137 -0.955163 3.89458 0
M  V30 2251 H 196.727 0.429987 4.26438 0
M  V30 2252 H 200.911 1.24946 4.80315 0
M  V30 2253 H 196.167 2.40056 5.62302 0
M  V30 2254 H 200.341 3.21887 6.17545 0
M  V30 2255 H 197.968 3.8003 6.58393 0
M  V30 2256 N 199.544 -1.57102 0.125237 0
M  V30 2257 C 200.774 -1.99472 -0.538015 0
M  V30 2258 C 201.182 -1.00395 -1.60366 0
M  V30 2259 O 200.525 0.0103875 -1.83697 0
M  V30 2260 C 200.587 -3.38262 -1.21734 0
M  V30 2261 C 200.251 -4.56021 -0.298897 0
M  V30 2262 C 201.248 -5.17817 0.464943 0
M  V30 2263 C 198.933 -5.01869 -0.208149 0
M  V30 2264 C 200.927 -6.23852 1.3072 0
M  V30 2265 C 198.614 -6.07763 0.637736 0
M  V30 2266 C 199.612 -6.68622 1.39403 0
M  V30 2267 O 199.3 -7.7247 2.22586 0
M  V30 2268 H 199.032 -0.659934 -0.146501 0
M  V30 2269 H 201.586 -2.04321 0.210267 0
M  V30 2270 H 199.816 -3.30185 -2.01282 0
M  V30 2271 H 201.505 -3.6488 -1.77813 0
M  V30 2272 H 202.271 -4.83308 0.404741 0
M  V30 2273 H 198.15 -4.54241 -0.786522 0
M  V30 2274 H 201.694 -6.71284 1.898 0
M  V30 2275 H 197.591 -6.41701 0.699309 0
M  V30 2276 H 198.359 -7.89595 2.15596 0
M  V30 2277 N 201.022 0.148545 -1.56898 0
M  V30 2278 C 201.955 1.21293 -1.93296 0
M  V30 2279 C 202.933 1.41637 -0.798599 0
M  V30 2280 O 204.117 1.56275 -1.05406 0
M  V30 2281 C 201.244 2.5721 -2.20365 0
M  V30 2282 C 200.29 2.53469 -3.4301 0
M  V30 2283 S 201.123 2.00315 -4.96623 0
M  V30 2284 C 202.279 3.37964 -5.26812 0
M  V30 2285 H 202.512 0.902393 -2.83274 0
M  V30 2286 H 200.045 0.354094 -1.50285 0
M  V30 2287 H 202.003 3.35427 -2.36641 0
M  V30 2288 H 200.664 2.85454 -1.31054 0
M  V30 2289 H 199.857 3.53518 -3.59223 0
M  V30 2290 H 199.459 1.83359 -3.25968 0
M  V30 2291 H 201.751 4.34066 -5.20185 0
M  V30 2292 H 202.694 3.26606 -6.28279 0
M  V30 2293 H 203.102 3.35028 -4.54331 0
M  V30 2294 N 202.5 1.5196 0.417844 0
M  V30 2295 C 203.73 1.69181 1.18581 0
M  V30 2296 C 204.138 0.397104 1.84986 0
M  V30 2297 O 203.481 -0.636011 1.72339 0
M  V30 2298 C 203.543 2.76497 2.29759 0
M  V30 2299 C 203.207 4.18514 1.83563 0
M  V30 2300 C 204.204 5.02648 1.32821 0
M  V30 2301 C 201.889 4.64708 1.90661 0
M  V30 2302 C 203.883 6.31044 0.897894 0
M  V30 2303 C 201.57 5.93096 1.47241 0
M  V30 2304 C 202.568 6.76093 0.968891 0
M  V30 2305 O 202.256 8.02078 0.540924 0
M  V30 2306 H 201.988 0.570457 0.362705 0
M  V30 2307 H 204.542 1.99249 0.498885 0
M  V30 2308 H 202.772 2.41786 3.01789 0
M  V30 2309 H 204.461 2.82403 2.91553 0
M  V30 2310 H 205.227 4.68154 1.26716 0
M  V30 2311 H 201.106 4.00216 2.28797 0
M  V30 2312 H 204.65 6.95776 0.504192 0
M  V30 2313 H 200.547 6.271 1.53022 0
M  V30 2314 H 201.315 8.15794 0.66502 0
M  V30 2315 N 203.978 -0.674533 1.42435 0
M  V30 2316 C 204.888 -1.81751 1.48337 0
M  V30 2317 C 205.904 -1.69975 0.372099 0
M  V30 2318 O 207.08 -1.91521 0.62304 0
M  V30 2319 C 204.145 -3.17895 1.38361 0
M  V30 2320 C 203.206 -3.41625 2.59982 0
M  V30 2321 C 202.439 -4.71274 2.50473 0
M  V30 2322 O 202.662 -5.49197 1.54075 0
M  V30 2323 O 201.596 -4.96254 3.4061 0
M  V30 2324 H 205.422 -1.79728 2.44809 0
M  V30 2325 H 203.007 -0.830312 1.24202 0
M  V30 2326 H 204.889 -3.99136 1.35161 0
M  V30 2327 H 203.564 -3.20555 0.450144 0
M  V30 2328 H 202.471 -2.60231 2.68757 0
M  V30 2329 H 203.804 -3.43796 3.52229 0
M  V30 2330 N 205.456 -1.28612 -0.910864 0
M  V30 2331 C 206.705 -1.15311 -1.65488 0
M  V30 2332 C 207.018 0.296999 -1.93332 0
M  V30 2333 O 208.224 0.551168 -2.65847 0
M  V30 2334 C 206.68 -2.01599 -2.98137 0
M  V30 2335 C 206.288 -3.51367 -2.7793 0
M  V30 2336 C 208.032 -1.96993 -3.76024 0
M  V30 2337 C 205.939 -4.29797 -4.06237 0
M  V30 2338 H 204.869 -0.42796 -0.620779 0
M  V30 2339 H 207.52 -1.53166 -1.01057 0
M  V30 2340 H 205.902 -1.56603 -3.63719 0
M  V30 2341 H 207.076 -4.0434 -2.21011 0
M  V30 2342 H 205.391 -3.57529 -2.13452 0
M  V30 2343 H 207.988 -2.52856 -4.71135 0
M  V30 2344 H 208.331 -0.94733 -4.05378 0
M  V30 2345 H 208.864 -2.39973 -3.17266 0
M  V30 2346 H 205.603 -5.32648 -3.82055 0
M  V30 2347 H 205.123 -3.81596 -4.62757 0
M  V30 2348 H 206.802 -4.39869 -4.74473 0
M  V30 2349 N 206.934 1.1197 -1.10907 0
M  V30 2350 C 207.864 2.19928 -0.784473 0
M  V30 2351 C 208.845 1.6833 0.244726 0
M  V30 2352 O 210.03 1.93892 0.109418 0
M  V30 2353 C 207.16 3.46597 -0.220827 0
M  V30 2354 C 206.114 4.11376 -1.18127 0
M  V30 2355 C 205.44 5.32554 -0.478594 0
M  V30 2356 C 206.74 4.56945 -2.52979 0
M  V30 2357 H 208.434 2.47337 -1.68715 0
M  V30 2358 H 205.98 1.18879 -0.812642 0
M  V30 2359 H 207.933 4.21396 0.0184278 0
M  V30 2360 H 206.657 3.1863 0.717113 0
M  V30 2361 H 205.316 3.38564 -1.40606 0
M  V30 2362 H 204.964 5.00856 0.463976 0
M  V30 2363 H 204.664 5.76844 -1.11912 0
M  V30 2364 H 206.188 6.10096 -0.248 0
M  V30 2365 H 207.602 5.23093 -2.3462 0
M  V30 2366 H 205.999 5.1203 -3.12962 0
M  V30 2367 H 207.069 3.70676 -3.12614 0
M  V30 2368 N 208.412 0.89855 1.29475 0
M  V30 2369 C 209.359 0.373819 2.27753 0
M  V30 2370 C 210.329 -0.543444 1.56958 0
M  V30 2371 O 211.514 -0.468934 1.84948 0
M  V30 2372 C 208.654 -0.393648 3.42848 0
M  V30 2373 C 207.767 0.554379 4.28428 0
M  V30 2374 C 206.902 -0.230026 5.30702 0
M  V30 2375 C 205.941 0.712599 6.07938 0
M  V30 2376 N 205.078 -0.0373283 7.0209 0
M  V30 2377 H 209.918 1.21699 2.72017 0
M  V30 2378 H 207.455 0.611456 1.33789 0
M  V30 2379 H 209.413 -0.85466 4.08352 0
M  V30 2380 H 208.043 -1.20128 2.99615 0
M  V30 2381 H 207.095 1.13391 3.63107 0
M  V30 2382 H 208.407 1.27597 4.82204 0
M  V30 2383 H 207.561 -0.752288 6.02018 0
M  V30 2384 H 206.3 -0.984758 4.77654 0
M  V30 2385 H 205.305 1.24637 5.35486 0
M  V30 2386 H 206.53 1.46664 6.63074 0
M  V30 2387 H 204.476 -0.774348 6.51414 0
M  V30 2388 H 204.393 0.624374 7.53417 0
M  V30 2389 H 205.661 -0.539891 7.77628 0
M  V30 2390 N 209.89 -1.43072 0.660911 0
M  V30 2391 C 210.853 -2.29194 -0.0166406 0
M  V30 2392 C 211.853 -1.42609 -0.742912 0
M  V30 2393 O 213.043 -1.64155 -0.583004 0
M  V30 2394 C 210.175 -3.24831 -1.0343 0
M  V30 2395 H 211.368 -2.90596 0.741208 0
M  V30 2396 H 208.921 -1.5048 0.422532 0
M  V30 2397 H 209.656 -2.68339 -1.82111 0
M  V30 2398 H 209.441 -3.88676 -0.517082 0
M  V30 2399 H 210.931 -3.89451 -1.50723 0
M  V30 2400 N 211.368 -0.403325 -1.52352 0
M  V30 2401 C 212.298 0.416205 -2.29761 0
M  V30 2402 C 213.279 1.05123 -1.33728 0
M  V30 2403 O 214.464 1.06134 -1.62632 0
M  V30 2404 C 211.594 1.53624 -3.11475 0
M  V30 2405 C 210.548 1.02653 -4.15507 0
M  V30 2406 C 209.874 2.23971 -4.85532 0
M  V30 2407 C 211.174 0.08463 -5.22231 0
M  V30 2408 H 212.868 -0.229701 -2.98518 0
M  V30 2409 H 210.414 -0.111913 -1.43564 0
M  V30 2410 H 212.367 2.1165 -3.64393 0
M  V30 2411 H 211.091 2.20994 -2.40477 0
M  V30 2412 H 209.75 0.46871 -3.63591 0
M  V30 2413 H 209.398 2.89883 -4.11068 0
M  V30 2414 H 209.098 1.90521 -5.55856 0
M  V30 2415 H 210.622 2.82614 -5.41259 0
M  V30 2416 H 212.036 0.573509 -5.70424 0
M  V30 2417 H 210.433 -0.160783 -5.99885 0
M  V30 2418 H 211.503 -0.86237 -4.7717 0
M  V30 2419 N 212.846 1.57033 -0.133567 0
M  V30 2420 C 214.123 1.87256 0.56522 0
M  V30 2421 C 214.503 1.03726 1.83859 0
M  V30 2422 O 213.851 0.120247 2.28183 0
M  V30 2423 C 214.061 3.3865 0.843636 0
M  V30 2424 C 215.409 4.07574 1.19032 0
M  V30 2425 O 216.433 3.43752 0.933429 0
M  V30 2426 O 215.292 5.20259 1.67312 0
M  V30 2427 H 212.386 0.775678 0.286796 0
M  V30 2428 H 214.932 1.68855 -0.169168 0
M  V30 2429 H 213.704 3.91257 -0.0581149 0
M  V30 2430 H 213.327 3.62532 1.63268 0
M  V30 2431 N 214.325 -0.140222 1.56975 0
M  V30 2432 C 215.555 -0.865181 1.87612 0
M  V30 2433 C 215.963 -1.74942 0.72055 0
M  V30 2434 O 215.306 -1.80917 -0.318561 0
M  V30 2435 C 215.368 -1.76782 3.13031 0
M  V30 2436 C 215.032 -1.06005 4.44536 0
M  V30 2437 C 216.029 -0.410768 5.18275 0
M  V30 2438 C 213.714 -1.04754 4.91255 0
M  V30 2439 C 215.708 0.241572 6.36942 0
M  V30 2440 C 213.395 -0.391394 6.09845 0
M  V30 2441 C 214.393 0.252029 6.82535 0
M  V30 2442 O 214.081 0.897757 7.98871 0
M  V30 2443 H 213.813 -0.255188 0.625983 0
M  V30 2444 H 216.367 -0.135653 2.04952 0
M  V30 2445 H 214.597 -2.53846 2.91718 0
M  V30 2446 H 216.286 -2.36533 3.29859 0
M  V30 2447 H 217.052 -0.412195 4.83245 0
M  V30 2448 H 212.931 -1.53777 4.34596 0
M  V30 2449 H 216.475 0.744375 6.93617 0
M  V30 2450 H 212.372 -0.387656 6.44335 0
M  V30 2451 H 213.14 0.800102 8.1458 0
M  V30 2452 N 215.803 -1.52179 -0.40978 0
M  V30 2453 C 217.043 -1.67882 -1.16597 0
M  V30 2454 C 217.407 -0.399795 -1.87791 0
M  V30 2455 O 218.608 -0.43292 -2.65291 0
M  V30 2456 C 216.879 -2.86662 -2.13448 0
M  V30 2457 S 218.438 -3.22843 -2.97183 0
M  V30 2458 H 215.256 -0.59118 -0.395002 0
M  V30 2459 H 217.858 -1.9017 -0.453373 0
M  V30 2460 H 216.562 -3.77998 -1.59831 0
M  V30 2461 H 216.093 -2.66645 -2.89247 0
M  V30 2462 H 218.108 -2.71415 -4.15389 0
M  V30 2463 N 217.281 0.66697 -1.42791 0
M  V30 2464 C 218.231 1.77313 -1.43332 0
M  V30 2465 C 219.215 1.5801 -0.303586 0
M  V30 2466 O 220.407 1.68356 -0.546385 0
M  V30 2467 C 217.536 3.15822 -1.34578 0
M  V30 2468 C 216.622 3.40721 -2.52528 0
M  V30 2469 N 217.013 3.36162 -3.77927 0
M  V30 2470 C 215.311 3.71387 -2.46956 0
M  V30 2471 C 216.012 3.60762 -4.56318 0
M  V30 2472 N 214.988 3.81908 -3.86843 0
M  V30 2473 H 218.79 1.72193 -2.38174 0
M  V30 2474 H 216.304 0.868114 -1.3725 0
M  V30 2475 H 218.301 3.951 -1.33048 0
M  V30 2476 H 216.961 3.22133 -0.407453 0
M  V30 2477 H 217.972 3.15885 -4.10411 0
M  V30 2478 H 214.649 3.84897 -1.61743 0
M  V30 2479 H 216.039 3.63132 -5.65318 0
M  V30 2480 N 218.759 1.29093 0.90403 0
M  V30 2481 C 219.984 1.19809 1.69294 0
M  V30 2482 C 220.409 -0.238481 1.86582 0
M  V30 2483 O 219.767 -1.1723 1.383 0
M  V30 2484 C 219.815 1.91202 3.05736 0
M  V30 2485 O 218.919 1.22611 3.93752 0
M  V30 2486 H 218.26 0.415385 0.518027 0
M  V30 2487 H 220.79 1.70586 1.12967 0
M  V30 2488 H 220.8 1.99487 3.55906 0
M  V30 2489 H 219.475 2.95692 2.92471 0
M  V30 2490 H 218.052 1.22554 3.52186 0
M  V30 2491 N 220.237 -1.11381 1.11499 0
M  V30 2492 C 221.17 -2.16621 0.71769 0
M  V30 2493 C 222.148 -1.60058 -0.286413 0
M  V30 2494 O 223.332 -1.87613 -0.182689 0
M  V30 2495 C 220.459 -3.38646 0.0607265 0
M  V30 2496 C 219.505 -4.13874 1.03008 0
M  V30 2497 S 220.338 -4.70731 2.55289 0
M  V30 2498 C 221.494 -5.96079 1.90895 0
M  V30 2499 H 221.727 -2.49987 1.60915 0
M  V30 2500 H 219.26 -1.23015 0.933092 0
M  V30 2501 H 221.218 -4.09313 -0.311965 0
M  V30 2502 H 219.879 -3.03537 -0.807702 0
M  V30 2503 H 219.072 -5.01333 0.517853 0
M  V30 2504 H 218.674 -3.4897 1.34522 0
M  V30 2505 H 220.966 -6.65948 1.24577 0
M  V30 2506 H 221.909 -6.51946 2.76354 0
M  V30 2507 H 222.317 -5.47652 1.36885 0
M  V30 2508 N 221.715 -0.905404 -1.28997 0
M  V30 2509 C 222.963 -0.533192 -1.9494 0
M  V30 2510 C 223.284 0.924618 -1.71685 0
M  V30 2511 O 222.554 1.65268 -1.05183 0
M  V30 2512 H 221.134 -0.194194 -0.721317 0
M  V30 2513 H 223.796 -1.15294 -1.57141 0
M  V30 2514 H 222.892 -0.72059 -3.03667 0
M  V30 2515 N 223.193 1.4272 -0.668489 0
M  V30 2516 C 224.442 2.00846 -0.185389 0
M  V30 2517 C 224.755 1.53442 1.21305 0
M  V30 2518 O 225.961 2.03944 1.79218 0
M  V30 2519 C 224.417 3.58805 -0.280591 0
M  V30 2520 C 224.025 4.15198 -1.68268 0
M  V30 2521 C 225.769 4.24255 0.14412 0
M  V30 2522 C 223.676 5.655 -1.73099 0
M  V30 2523 H 222.606 0.751145 -0.0655475 0
M  V30 2524 H 225.257 1.63516 -0.832752 0
M  V30 2525 H 223.639 3.93608 0.434553 0
M  V30 2526 H 224.813 3.91866 -2.42441 0
M  V30 2527 H 223.128 3.62176 -2.05469 0
M  V30 2528 H 225.725 5.34547 0.128086 0
M  V30 2529 H 226.068 3.99277 1.17827 0
M  V30 2530 H 226.601 3.94389 -0.519798 0
M  V30 2531 H 223.34 5.95268 -2.74475 0
M  V30 2532 H 222.86 5.90842 -1.03274 0
M  V30 2533 H 224.539 6.29808 -1.48158 0
M  V30 2534 N 224.671 0.411399 1.52136 0
M  V30 2535 C 225.604 -0.457614 2.23565 0
M  V30 2536 C 226.582 -1.04613 1.24478 0
M  V30 2537 O 227.766 -1.09356 1.53536 0
M  V30 2538 C 224.893 -1.6354 2.96602 0
M  V30 2539 C 223.939 -1.17005 4.10137 0
M  V30 2540 S 224.772 -0.13333 5.35334 0
M  V30 2541 C 225.928 -1.31638 6.119 0
M  V30 2542 H 226.161 0.148883 2.96927 0
M  V30 2543 H 223.694 0.195713 1.53155 0
M  V30 2544 H 225.652 -2.31074 3.39286 0
M  V30 2545 H 224.313 -2.21324 2.22878 0
M  V30 2546 H 223.506 -2.05005 4.60422 0
M  V30 2547 H 223.108 -0.573319 3.6958 0
M  V30 2548 H 225.4 -2.23957 6.39413 0
M  V30 2549 H 226.343 -0.854014 7.02931 0
M  V30 2550 H 226.751 -1.54321 5.42997 0
M  V30 2551 N 226.149 -1.5696 0.141893 0
M  V30 2552 C 227.099 -2.13074 -0.811383 0
M  V30 2553 C 228.083 -1.05726 -1.21288 0
M  V30 2554 O 229.275 -1.31914 -1.18015 0
M  V30 2555 C 226.404 -2.75186 -2.0525 0
M  V30 2556 C 225.49 -3.8965 -1.67432 0
M  V30 2557 N 225.881 -4.95733 -1.0041 0
M  V30 2558 C 224.179 -4.00262 -1.96739 0
M  V30 2559 C 224.88 -5.75858 -0.822345 0
M  V30 2560 N 223.856 -5.26452 -1.3546 0
M  V30 2561 H 227.658 -2.92465 -0.290031 0
M  V30 2562 H 225.172 -1.6229 -0.0598218 0
M  V30 2563 H 227.169 -3.13745 -2.74535 0
M  V30 2564 H 225.829 -1.97266 -2.57907 0
M  V30 2565 H 226.84 -5.13607 -0.665441 0
M  V30 2566 H 223.517 -3.33412 -2.51282 0
M  V30 2567 H 224.907 -6.71254 -0.294496 0
M  V30 2568 N 227.627 0.131896 -1.57047 0
M  V30 2569 C 229.043 0.485031 -1.52051 0
M  V30 2570 C 229.243 1.82563 -0.85281 0
M  V30 2571 O 228.299 2.48817 -0.429694 0
M  V30 2572 C 229.612 0.481409 -2.96821 0
M  V30 2573 C 231.16 0.565868 -3.07842 0
M  V30 2574 C 231.635 0.592762 -4.54148 0
M  V30 2575 N 233.126 0.654564 -4.58552 0
M  V30 2576 C 233.861 0.696608 -5.69153 0
M  V30 2577 N 233.357 0.697078 -6.89284 0
M  V30 2578 N 235.15 0.738639 -5.57226 0
M  V30 2579 H 227.301 -0.746664 -1.98843 0
M  V30 2580 H 229.564 -0.273999 -0.90754 0
M  V30 2581 H 229.27 -0.435731 -3.4899 0
M  V30 2582 H 229.144 1.3139 -3.53577 0
M  V30 2583 H 231.531 1.47343 -2.55684 0
M  V30 2584 H 231.612 -0.29406 -2.54104 0
M  V30 2585 H 231.256 -0.310701 -5.06949 0
M  V30 2586 H 231.186 1.46939 -5.05684 0
M  V30 2587 H 233.677 0.660887 -3.72076 0
M  V30 2588 H 233.99 0.731426 -7.69331 0
M  V30 2589 H 232.335 0.66471 -6.91814 0
M  V30 2590 H 235.526 0.735545 -4.62285 0
M  V30 2591 H 235.699 0.767938 -6.43434 0
M  V30 2592 N 229.106 1.52395 0.401703 0
M  V30 2593 C 230.383 1.57387 1.16141 0
M  V30 2594 C 230.763 0.359359 2.08019 0
M  V30 2595 O 230.111 -0.65326 2.18963 0
M  V30 2596 C 230.321 2.90631 1.93221 0
M  V30 2597 C 231.669 3.43904 2.49028 0
M  V30 2598 O 232.693 2.92421 2.03393 0
M  V30 2599 O 231.552 4.33823 3.32356 0
M  V30 2600 H 228.646 0.634262 0.530698 0
M  V30 2601 H 231.192 1.64725 0.407883 0
M  V30 2602 H 229.964 3.70473 1.25958 0
M  V30 2603 H 229.587 2.8662 2.75563 0
M  V30 2604 N 230.584 -0.659388 1.43143 0
M  V30 2605 C 231.83 -1.42145 1.44647 0
M  V30 2606 C 232.163 -1.9408 0.0681907 0
M  V30 2607 O 231.438 -1.71899 -0.910007 0
M  V30 2608 C 231.721 -2.60735 2.48373 0
M  V30 2609 C 231.574 -2.14332 3.95451 0
M  V30 2610 C 232.893 -3.62951 2.48906 0
M  V30 2611 H 230.012 -0.51552 0.526696 0
M  V30 2612 H 232.654 -0.748069 1.74654 0
M  V30 2613 H 230.804 -3.18184 2.22916 0
M  V30 2614 H 232.476 -1.61932 4.31944 0
M  V30 2615 H 230.719 -1.4576 4.08578 0
M  V30 2616 H 231.39 -2.99583 4.63631 0
M  V30 2617 H 233.866 -3.1525 2.71582 0
M  V30 2618 H 232.742 -4.43487 3.23435 0
M  V30 2619 H 233.003 -4.15126 1.52061 0
M  V30 2620 N 232.062 -1.29571 -0.897171 0
M  V30 2621 C 233.009 -1.14916 -2.00158 0
M  V30 2622 C 233.979 -0.0418149 -1.66047 0
M  V30 2623 O 235.164 -0.209793 -1.89643 0
M  V30 2624 C 232.304 -0.834307 -3.34863 0
M  V30 2625 C 231.417 -2.02234 -3.8174 0
M  V30 2626 C 230.552 -1.64664 -5.05034 0
M  V30 2627 C 229.591 -2.80033 -5.44286 0
M  V30 2628 N 228.728 -2.42843 -6.58765 0
M  V30 2629 H 233.568 -2.09403 -2.12025 0
M  V30 2630 H 231.105 -1.042 -1.0383 0
M  V30 2631 H 233.063 -0.632436 -4.12379 0
M  V30 2632 H 231.693 0.0736656 -3.22716 0
M  V30 2633 H 230.745 -2.33583 -3.00238 0
M  V30 2634 H 232.057 -2.88673 -4.06779 0
M  V30 2635 H 231.211 -1.4078 -5.9014 0
M  V30 2636 H 229.95 -0.753766 -4.8184 0
M  V30 2637 H 228.955 -3.04596 -4.57713 0
M  V30 2638 H 230.18 -3.69989 -5.6946 0
M  V30 2639 H 228.126 -1.56046 -6.3717 0
M  V30 2640 H 228.043 -3.22815 -6.83613 0
M  V30 2641 H 229.311 -2.22285 -7.47134 0
M  V30 2642 N 233.54 1.10788 -1.12088 0
M  V30 2643 C 234.951 1.64181 -0.88891 0
M  V30 2644 C 235.302 1.87508 0.577498 0
M  V30 2645 O 234.427 1.61434 1.44112 0
M  V30 2646 C 235.022 2.98257 -1.60712 0
M  V30 2647 C 233.581 3.4853 -1.42139 0
M  V30 2648 C 232.728 2.23208 -1.6454 0
M  V30 2649 H 235.679 0.943368 -1.27618 0
M  V30 2650 H 235.7 3.65552 -1.05604 0
M  V30 2651 H 235.212 2.81246 -2.67436 0
M  V30 2652 H 233.313 3.70692 -0.376552 0
M  V30 2653 H 233.426 4.26882 -2.17505 0
M  V30 2654 H 231.79 2.31169 -1.06925 0
M  V30 2655 H 232.573 2.08733 -2.72554 0
M  V30 2656 N 235.018 0.912232 1.28515 0
M  V30 2657 C 235.968 0.370649 2.24967 0
M  V30 2658 C 236.952 -0.516375 1.52389 0
M  V30 2659 O 238.144 -0.356345 1.73376 0
M  V30 2660 C 235.273 -0.389526 3.41083 0
M  V30 2661 C 234.359 0.51313 4.20984 0
M  V30 2662 N 234.75 1.62604 4.78951 0
M  V30 2663 C 233.048 0.313235 4.44899 0
M  V30 2664 C 233.749 2.18619 5.39055 0
M  V30 2665 N 232.725 1.47765 5.23132 0
M  V30 2666 H 236.527 1.22061 2.67354 0
M  V30 2667 H 234.041 0.764712 1.43269 0
M  V30 2668 H 236.038 -0.794353 4.09262 0
M  V30 2669 H 234.698 -1.2366 3.0023 0
M  V30 2670 H 235.709 2.00864 4.77362 0
M  V30 2671 H 232.386 -0.494452 4.14562 0
M  V30 2672 H 233.776 3.12228 5.94948 0
M  V30 2673 N 236.496 -1.42363 0.676048 0
M  V30 2674 C 237.444 -2.32596 -0.0131507 0
M  V30 2675 C 238.438 -1.49891 -0.789238 0
M  V30 2676 O 239.644 -1.65955 -0.697061 0
M  V30 2677 H 236.019 -0.751647 -0.0230481 0
M  V30 2678 H 237.99 -2.88421 0.765243 0
M  V30 2679 C 236.739 -3.34479 -0.949702 0
M  V30 2680 H 236.062 -3.98158 -0.361938 0
M  V30 2681 H 237.502 -4.00199 -1.4006 0
M  V30 2682 C 235.961 -2.66838 -2.05667 0
M  V30 2683 O 236.491 -2.50124 -3.14326 0
M  V30 2684 N 234.697 -2.25843 -1.82875 0
M  V30 2685 H 234.244 -2.39637 -0.945085 0
M  V30 2686 H 234.202 -1.80918 -2.5713 0
M  V30 2687 N 237.974 -0.419461 -1.51915 0
M  V30 2688 C 239.22 0.153166 -2.02221 0
M  V30 2689 C 239.553 1.43907 -1.30401 0
M  V30 2690 O 238.828 1.90055 -0.413438 0
M  V30 2691 C 239.111 0.390291 -3.57979 0
M  V30 2692 C 238.964 -0.913014 -4.40436 0
M  V30 2693 C 240.283 1.16794 -4.2432 0
M  V30 2694 H 237.402 0.0541924 -0.735005 0
M  V30 2695 H 240.044 -0.554955 -1.81715 0
M  V30 2696 H 238.194 0.993491 -3.75582 0
M  V30 2697 H 239.866 -1.54882 -4.34522 0
M  V30 2698 H 238.109 -1.52168 -4.06236 0
M  V30 2699 H 238.78 -0.701361 -5.47526 0
M  V30 2700 H 241.256 0.657161 -4.10878 0
M  V30 2701 H 240.132 1.3026 -5.3322 0
M  V30 2702 H 240.393 2.19132 -3.83971 0
M  V30 2703 N 239.452 1.56882 -0.150215 0
M  V30 2704 C 240.385 2.12712 0.826358 0
M  V30 2705 C 241.363 1.05154 1.24022 0
M  V30 2706 O 242.547 1.33004 1.33575 0
M  V30 2707 C 239.674 2.64945 2.11002 0
M  V30 2708 C 238.72 3.8468 1.84183 0
M  V30 2709 S 239.553 5.25502 1.02995 0
M  V30 2710 C 240.709 5.81125 2.32474 0
M  V30 2711 H 240.942 2.95214 0.351598 0
M  V30 2712 H 238.475 1.54267 0.0641211 0
M  V30 2713 H 240.433 2.95689 2.84742 0
M  V30 2714 H 239.094 1.82568 2.55593 0
M  V30 2715 H 238.287 4.19482 2.79375 0
M  V30 2716 H 237.889 3.54714 1.1855 0
M  V30 2717 H 240.181 5.92753 3.281 0
M  V30 2718 H 241.124 6.78625 2.02171 0
M  V30 2719 H 241.532 5.09392 2.43269 0
M  V30 2720 N 240.93 -0.123565 1.57115 0
M  V30 2721 C 242.179 -0.830704 1.83799 0
M  V30 2722 C 242.492 -1.81259 0.735158 0
M  V30 2723 O 243.698 -2.56558 0.888278 0
M  V30 2724 C 242.154 -1.52802 3.25852 0
M  V30 2725 C 241.762 -0.587356 4.44133 0
M  V30 2726 C 243.506 -2.22056 3.61789 0
M  V30 2727 C 241.413 -1.28764 5.77212 0
M  V30 2728 H 240.343 -0.313967 0.685522 0
M  V30 2729 H 242.994 -0.0834359 1.8331 0
M  V30 2730 H 241.376 -2.32175 3.20797 0
M  V30 2731 H 242.55 0.172829 4.60476 0
M  V30 2732 H 240.865 -0.00201892 4.164 0
M  V30 2733 H 243.462 -2.75131 4.58483 0
M  V30 2734 H 243.805 -2.99644 2.88997 0
M  V30 2735 H 244.338 -1.49576 3.68608 0
M  V30 2736 H 241.077 -0.55314 6.53162 0
M  V30 2737 H 240.597 -2.01995 5.64764 0
M  V30 2738 H 242.276 -1.8221 6.20813 0
M  V30 2739 N 242.408 -1.52605 -0.393616 0
M  V30 2740 C 243.685 -1.58001 -1.15304 0
M  V30 2741 C 244.065 -0.370385 -2.07825 0
M  V30 2742 O 243.413 0.641638 -2.19306 0
M  V30 2743 C 243.623 -2.91652 -1.91677 0
M  V30 2744 C 244.971 -3.4522 -2.47201 0
M  V30 2745 O 245.995 -2.93495 -2.01839 0
M  V30 2746 O 244.854 -4.35579 -3.3005 0
M  V30 2747 H 241.948 -0.637068 -0.527327 0
M  V30 2748 H 244.494 -1.64939 -0.399141 0
M  V30 2749 H 243.266 -3.71136 -1.23992 0
M  V30 2750 H 242.889 -2.88077 -2.74039 0
M  V30 2751 N 243.887 0.651787 -1.4349 0
M  V30 2752 C 244.837 1.75783 -1.45205 0
M  V30 2753 C 245.821 1.57679 -0.320328 0
M  V30 2754 O 247.013 1.67767 -0.564211 0
M  V30 2755 C 244.142 3.14377 -1.3792 0
M  V30 2756 C 243.228 3.38023 -2.56127 0
M  V30 2757 N 243.619 3.32135 -3.81471 0
M  V30 2758 C 241.917 3.68747 -2.50882 0
M  V30 2759 C 242.618 3.55902 -4.60118 0
M  V30 2760 N 241.594 3.77783 -3.90872 0
M  V30 2761 H 245.396 1.69657 -2.39987 0
M  V30 2762 H 242.91 0.853508 -1.38163 0
M  V30 2763 H 244.907 3.93666 -1.37231 0
M  V30 2764 H 243.567 3.21683 -0.441596 0
M  V30 2765 H 244.578 3.11515 -4.13738 0
M  V30 2766 H 241.255 3.8316 -1.65816 0
M  V30 2767 H 242.645 3.57116 -5.69138 0
M  V30 2768 N 245.365 1.30045 0.890287 0
M  V30 2769 C 246.275 1.17885 2.02831 0
M  V30 2770 C 247.291 0.0999609 1.73713 0
M  V30 2771 O 248.467 0.313867 1.98939 0
M  V30 2772 C 245.532 0.866079 3.35708 0
M  V30 2773 C 244.593 2.02979 3.78283 0
M  V30 2774 C 243.826 1.73184 5.0482 0
M  V30 2775 O 244.049 0.657237 5.66601 0
M  V30 2776 O 242.983 2.58267 5.43674 0
M  V30 2777 H 246.809 2.13474 2.16015 0
M  V30 2778 H 244.394 1.09587 1.01543 0
M  V30 2779 H 246.276 0.706623 4.15433 0
M  V30 2780 H 244.951 -0.0599443 3.23644 0
M  V30 2781 H 243.858 2.24454 2.99285 0
M  V30 2782 H 245.191 2.93734 3.94944 0
M  V30 2783 N 246.843 -1.10192 1.12674 0
M  V30 2784 C 247.793 -2.14754 0.765801 0
M  V30 2785 C 248.777 -1.59154 -0.236409 0
M  V30 2786 O 249.969 -1.76951 -0.0415261 0
M  V30 2787 C 247.098 -3.42563 0.224827 0
M  V30 2788 C 246.184 -4.05091 1.25548 0
M  V30 2789 N 246.575 -4.42287 2.4539 0
M  V30 2790 C 244.873 -4.32186 1.10142 0
M  V30 2791 C 245.574 -4.91441 3.11224 0
M  V30 2792 N 244.55 -4.88405 2.38666 0
M  V30 2793 H 248.352 -2.41309 1.67772 0
M  V30 2794 H 245.866 -1.27339 1.00789 0
M  V30 2795 H 247.863 -4.16868 -0.0519578 0
M  V30 2796 H 246.523 -3.17467 -0.681515 0
M  V30 2797 H 247.534 -4.33902 2.82754 0
M  V30 2798 H 244.211 -4.16735 0.252587 0
M  V30 2799 H 245.601 -5.29749 4.13298 0
M  V30 2800 N 248.321 -0.919034 -1.28029 0
M  V30 2801 C 249.737 -0.617972 -1.4715 0
M  V30 2802 C 249.937 0.835242 -1.83374 0
M  V30 2803 O 248.993 1.61388 -1.94191 0
M  V30 2804 C 250.306 -1.56041 -2.57044 0
M  V30 2805 C 251.854 -1.56769 -2.7091 0
M  V30 2806 C 252.329 -2.49688 -3.83953 0
M  V30 2807 N 253.82 -2.47845 -3.91314 0
M  V30 2808 C 254.555 -3.16437 -4.78179 0
M  V30 2809 N 254.051 -3.94376 -5.69596 0
M  V30 2810 N 255.844 -3.05498 -4.71834 0
M  V30 2811 H 247.995 -1.85866 -1.02798 0
M  V30 2812 H 250.258 -0.797506 -0.512531 0
M  V30 2813 H 249.964 -2.59671 -2.372 0
M  V30 2814 H 249.838 -1.29551 -3.54255 0
M  V30 2815 H 252.225 -0.538745 -2.90141 0
M  V30 2816 H 252.306 -1.87305 -1.74214 0
M  V30 2817 H 251.95 -3.52688 -3.65477 0
M  V30 2818 H 251.88 -2.16453 -4.80058 0
M  V30 2819 H 254.371 -1.91234 -3.25941 0
M  V30 2820 H 254.684 -4.43721 -6.32718 0
M  V30 2821 H 253.029 -3.98481 -5.69419 0
M  V30 2822 H 256.22 -2.44108 -3.99411 0
M  V30 2823 H 256.393 -3.59225 -5.39316 0
M  V30 2824 N 249.799 1.42003 -0.683588 0
M  V30 2825 C 250.746 2.30798 -0.0107309 0
M  V30 2826 C 251.716 1.4645 0.783688 0
M  V30 2827 O 252.901 1.75263 0.754156 0
M  V30 2828 C 250.041 3.3238 0.928306 0
M  V30 2829 C 249.154 4.31814 0.126776 0
M  V30 2830 C 248.289 5.20468 1.06236 0
M  V30 2831 C 247.328 6.11577 0.253035 0
M  V30 2832 N 246.465 6.92754 1.14179 0
M  V30 2833 H 251.305 2.8778 -0.773727 0
M  V30 2834 H 248.842 1.41745 -0.393283 0
M  V30 2835 H 250.8 3.89813 1.48666 0
M  V30 2836 H 249.43 2.76976 1.65783 0
M  V30 2837 H 248.482 3.76427 -0.54833 0
M  V30 2838 H 249.794 4.96276 -0.501192 0
M  V30 2839 H 248.948 5.82677 1.69035 0
M  V30 2840 H 247.687 4.56204 1.7242 0
M  V30 2841 H 246.692 5.48428 -0.388108 0
M  V30 2842 H 247.917 6.77892 -0.404839 0
M  V30 2843 H 245.863 6.3111 1.78987 0
M  V30 2844 H 245.78 7.53855 0.569111 0
M  V30 2845 H 247.048 7.59441 1.75697 0
M  V30 2846 N 251.277 0.427512 1.51691 0
M  V30 2847 C 252.207 -0.3796 2.30394 0
M  V30 2848 C 253.188 -1.02982 1.35384 0
M  V30 2849 O 254.373 -1.03534 1.643 0
M  V30 2850 C 251.503 -1.48649 3.1388 0
M  V30 2851 C 250.457 -0.960294 4.17088 0
M  V30 2852 C 249.783 -2.16219 4.89033 0
M  V30 2853 C 251.083 -0.00153679 5.223 0
M  V30 2854 H 252.777 0.277164 2.98114 0
M  V30 2855 H 250.323 0.134739 1.43368 0
M  V30 2856 H 252.276 -2.05826 3.67714 0
M  V30 2857 H 251 -2.1714 2.43962 0
M  V30 2858 H 249.659 -0.410806 3.64291 0
M  V30 2859 H 249.307 -2.83307 4.15628 0
M  V30 2860 H 249.007 -1.81654 5.58816 0
M  V30 2861 H 250.531 -2.73968 5.45687 0
M  V30 2862 H 251.945 -0.482687 5.71264 0
M  V30 2863 H 250.342 0.256199 5.99553 0
M  V30 2864 H 251.412 0.938174 4.75738 0
M  V30 2865 N 252.755 -1.56801 0.158532 0
M  V30 2866 C 254.171 -1.5837 -0.197774 0
M  V30 2867 C 254.371 -1.17334 -1.63814 0
M  V30 2868 O 253.427 -0.878988 -2.36707 0
M  V30 2869 C 254.74 -3.00615 0.0714459 0
M  V30 2870 C 256.288 -3.12999 0.00864533 0
M  V30 2871 C 256.763 -4.57313 0.250685 0
M  V30 2872 N 258.254 -4.62777 0.198014 0
M  V30 2873 C 258.989 -5.72271 0.359642 0
M  V30 2874 N 258.485 -6.90371 0.579625 0
M  V30 2875 N 260.278 -5.61318 0.296438 0
M  V30 2876 H 252.429 -1.81765 1.09887 0
M  V30 2877 H 254.692 -0.841849 0.435884 0
M  V30 2878 H 254.398 -3.35068 1.06874 0
M  V30 2879 H 254.272 -3.71683 -0.642757 0
M  V30 2880 H 256.659 -2.7838 -0.979217 0
M  V30 2881 H 256.74 -2.44393 0.755359 0
M  V30 2882 H 256.384 -4.92639 1.2357 0
M  V30 2883 H 256.314 -5.24061 -0.516489 0
M  V30 2884 H 258.805 -3.77885 0.0331115 0
M  V30 2885 H 259.118 -7.69689 0.69275 0
M  V30 2886 H 257.463 -6.92264 0.616087 0
M  V30 2887 H 260.654 -4.67932 0.125258 0
M  V30 2888 H 260.827 -6.46599 0.425831 0
M  V30 2889 N 254.233 0.115231 -1.57178 0
M  V30 2890 C 255.163 1.1423 -2.03651 0
M  V30 2891 C 256.144 1.42967 -0.921655 0
M  V30 2892 O 257.329 1.53343 -1.19162 0
M  V30 2893 C 254.459 2.4675 -2.44401 0
M  V30 2894 C 253.413 2.32467 -3.59365 0
M  V30 2895 C 252.739 3.69984 -3.86026 0
M  V30 2896 C 254.039 1.78203 -4.90959 0
M  V30 2897 H 255.733 0.755749 -2.89705 0
M  V30 2898 H 253.279 0.362093 -1.39373 0
M  V30 2899 H 255.232 3.18854 -2.75517 0
M  V30 2900 H 253.956 2.87302 -1.55322 0
M  V30 2901 H 252.615 1.62811 -3.28463 0
M  V30 2902 H 252.263 4.08028 -2.94147 0
M  V30 2903 H 251.963 3.61279 -4.63412 0
M  V30 2904 H 253.487 4.43587 -4.19599 0
M  V30 2905 H 254.901 2.40128 -5.20587 0
M  V30 2906 H 253.298 1.8031 -5.72371 0
M  V30 2907 H 254.368 0.739876 -4.79222 0
M  V30 2908 N 255.711 1.52812 0.385517 0
M  V30 2909 C 256.96 1.67249 1.12741 0
M  V30 2910 C 257.273 0.4205 1.91027 0
M  V30 2911 O 258.479 0.445064 2.67827 0
M  V30 2912 C 256.935 2.95583 2.05326 0
M  V30 2913 C 256.543 4.27974 1.32447 0
M  V30 2914 C 258.287 3.19386 2.7963 0
M  V30 2915 C 256.194 5.47412 2.23818 0
M  V30 2916 H 255.124 0.6231 0.424573 0
M  V30 2917 H 257.775 1.79309 0.389924 0
M  V30 2918 H 256.157 2.77277 2.82725 0
M  V30 2919 H 257.331 4.56844 0.602495 0
M  V30 2920 H 255.646 4.10459 0.700885 0
M  V30 2921 H 258.243 4.05801 3.48181 0
M  V30 2922 H 258.586 2.34604 3.43899 0
M  V30 2923 H 259.119 3.38274 2.09322 0
M  V30 2924 H 255.858 6.34612 1.64157 0
M  V30 2925 H 255.378 5.22849 2.93921 0
M  V30 2926 H 257.057 5.81423 2.83824 0
M  V30 2927 N 257.189 -0.644168 1.43834 0
M  V30 2928 C 258.466 -1.40188 1.36406 0
M  V30 2929 C 258.846 -2.11094 0.0163124 0
M  V30 2930 O 258.194 -2.05426 -1.00062 0
M  V30 2931 C 258.404 -2.3791 2.55343 0
M  V30 2932 C 259.752 -3.01637 2.98832 0
M  V30 2933 O 260.776 -2.48237 2.55455 0
M  V30 2934 O 259.635 -3.98477 3.74003 0
M  V30 2935 H 256.729 -0.626773 0.539523 0
M  V30 2936 H 259.275 -0.670317 1.559 0
M  V30 2937 H 258.047 -1.84525 3.4506 0
M  V30 2938 H 257.67 -3.18503 2.37995 0
M  V30 2939 N 258.668 -1.30515 -0.883378 0
M  V30 2940 C 259.914 -1.20617 -1.63778 0
M  V30 2941 C 260.269 0.236469 -1.90941 0
M  V30 2942 O 259.562 1.16596 -1.52039 0
M  V30 2943 C 259.756 -1.96994 -2.98209 0
M  V30 2944 C 259.585 -3.48537 -2.84169 0
M  V30 2945 C 258.355 -4.17893 -2.84067 0
M  V30 2946 C 260.553 -4.43738 -2.60001 0
M  V30 2947 N 258.535 -5.55685 -2.60936 0
M  V30 2948 C 259.906 -5.69105 -2.46007 0
M  V30 2949 C 261.961 -4.33316 -2.45239 0
M  V30 2950 C 260.664 -6.8523 -2.18752 0
M  V30 2951 C 262.69 -5.4921 -2.19369 0
M  V30 2952 C 262.052 -6.73558 -2.06153 0
M  V30 2953 H 258.151 -0.496434 -0.604216 0
M  V30 2954 H 260.735 -1.64544 -1.04083 0
M  V30 2955 H 258.906 -1.55455 -3.55933 0
M  V30 2956 H 260.638 -1.79225 -3.62851 0
M  V30 2957 H 257.393 -3.69739 -2.95956 0
M  V30 2958 H 257.817 -6.28199 -2.52378 0
M  V30 2959 H 262.459 -3.37856 -2.54191 0
M  V30 2960 H 260.177 -7.80729 -2.08537 0
M  V30 2961 H 263.763 -5.43054 -2.08766 0
M  V30 2962 H 262.643 -7.61721 -1.86416 0
M  V30 2963 N 260.146 1.09593 -1.13257 0
M  V30 2964 C 261.394 1.81375 -0.891492 0
M  V30 2965 C 261.715 1.86049 0.584009 0
M  V30 2966 O 260.985 1.34481 1.42449 0
M  V30 2967 H 259.565 0.671708 -0.326828 0
M  V30 2968 H 262.227 1.3256 -1.42877 0
M  V30 2969 H 261.323 2.84612 -1.28071 0
M  V30 2970 N 261.624 0.925811 1.2754 0
M  V30 2971 C 262.554 0.440748 2.29303 0
M  V30 2972 C 263.535 -0.497971 1.62648 0
M  V30 2973 O 264.72 -0.403126 1.8997 0
M  V30 2974 C 261.85 -0.309048 3.45922 0
M  V30 2975 C 260.804 0.54166 4.24559 0
M  V30 2976 C 260.13 -0.337191 5.33636 0
M  V30 2977 C 261.43 1.80516 4.90114 0
M  V30 2978 H 263.124 1.29121 2.70126 0
M  V30 2979 H 260.67 0.622323 1.29858 0
M  V30 2980 H 262.623 -0.659315 4.1621 0
M  V30 2981 H 261.347 -1.19352 3.04011 0
M  V30 2982 H 260.006 0.874609 3.56014 0
M  V30 2983 H 259.654 -1.22056 4.87966 0
M  V30 2984 H 259.354 0.228497 5.87156 0
M  V30 2985 H 260.878 -0.683072 6.06767 0
M  V30 2986 H 262.292 1.52307 5.52698 0
M  V30 2987 H 260.689 2.3142 5.53683 0
M  V30 2988 H 261.759 2.52581 4.13921 0
M  V30 2989 N 263.102 -1.41638 0.69111 0
M  V30 2990 C 264.065 -2.29178 0.0319786 0
M  V30 2991 C 265.065 -1.44153 -0.712496 0
M  V30 2992 O 266.255 -1.65354 -0.548053 0
M  V30 2993 C 263.387 -3.26952 -0.965161 0
M  V30 2994 H 264.58 -2.88959 0.802681 0
M  V30 2995 H 262.133 -1.4955 0.454356 0
M  V30 2996 H 262.868 -2.72142 -1.76378 0
M  V30 2997 H 262.653 -3.89685 -0.434522 0
M  V30 2998 H 264.143 -3.92561 -1.42428 0
M  V30 2999 N 264.58 -0.43555 -1.51462 0
M  V30 3000 C 265.49 0.383001 -2.31453 0
M  V30 3001 C 266.506 1.02931 -1.4029 0
M  V30 3002 O 267.682 1.02507 -1.73362 0
M  V30 3003 C 264.747 1.47043 -3.13973 0
M  V30 3004 C 263.808 0.844433 -4.20913 0
M  V30 3005 C 263.041 1.88004 -4.9949 0
M  V30 3006 O 263.264 3.10199 -4.78678 0
M  V30 3007 O 262.198 1.47157 -5.83634 0
M  V30 3008 H 266.024 -0.269964 -3.02498 0
M  V30 3009 H 263.609 -0.19813 -1.4808 0
M  V30 3010 H 265.491 2.10113 -3.65281 0
M  V30 3011 H 264.166 2.10751 -2.45695 0
M  V30 3012 H 263.073 0.175729 -3.73687 0
M  V30 3013 H 264.406 0.250869 -4.9156 0
M  V30 3014 N 266.058 1.56714 -0.166846 0
M  V30 3015 C 267.305 1.96747 0.479252 0
M  V30 3016 C 267.633 1.05263 1.63554 0
M  V30 3017 O 266.888 0.0858098 1.95512 0
M  V30 3018 C 267.187 3.42889 1.00806 0
M  V30 3019 C 266.853 4.50889 -0.0318574 0
M  V30 3020 C 265.515 4.8015 -0.317675 0
M  V30 3021 C 267.867 5.15949 -0.737956 0
M  V30 3022 C 265.195 5.71772 -1.31506 0
M  V30 3023 C 267.547 6.08647 -1.72429 0
M  V30 3024 C 266.211 6.36277 -2.0176 0
M  V30 3025 H 265.481 0.719949 0.175371 0
M  V30 3026 H 268.128 1.89756 -0.257864 0
M  V30 3027 H 266.433 3.4681 1.82291 0
M  V30 3028 H 268.13 3.71203 1.51689 0
M  V30 3029 H 264.72 4.28128 0.201088 0
M  V30 3030 H 268.904 4.93458 -0.530351 0
M  V30 3031 H 264.16 5.91465 -1.54853 0
M  V30 3032 H 268.334 6.58129 -2.27682 0
M  V30 3033 H 265.961 7.07075 -2.79194 0
M  V30 3034 N 267.536 -0.106894 1.57237 0
M  V30 3035 C 268.766 -0.825191 1.89405 0
M  V30 3036 C 269.174 -1.73374 0.757496 0
M  V30 3037 O 268.517 -1.81552 -0.280115 0
M  V30 3038 C 268.579 -1.70102 3.1671 0
M  V30 3039 C 268.243 -0.965523 4.46684 0
M  V30 3040 C 269.24 -0.300741 5.19029 0
M  V30 3041 C 266.925 -0.943105 4.93367 0
M  V30 3042 C 268.919 0.376622 6.36286 0
M  V30 3043 C 266.606 -0.261949 6.10538 0
M  V30 3044 C 267.604 0.396748 6.81847 0
M  V30 3045 O 267.292 1.06701 7.96787 0
M  V30 3046 H 267.024 -0.241852 0.631255 0
M  V30 3047 H 269.578 -0.0921491 2.05193 0
M  V30 3048 H 267.808 -2.47601 2.97036 0
M  V30 3049 H 269.497 -2.29483 3.34802 0
M  V30 3050 H 270.263 -0.309599 4.84011 0
M  V30 3051 H 266.142 -1.44524 4.3776 0
M  V30 3052 H 269.686 0.891334 6.91882 0
M  V30 3053 H 265.583 -0.250896 6.45012 0
M  V30 3054 H 266.351 0.972707 8.127 0
M  V30 3055 N 269.014 -1.53014 -0.377408 0
M  V30 3056 C 269.964 -1.74996 -1.46152 0
M  V30 3057 C 270.948 -0.604236 -1.49123 0
M  V30 3058 O 272.14 -0.862489 -1.54564 0
M  V30 3059 C 269.269 -1.93267 -2.8373 0
M  V30 3060 C 268.355 -3.13807 -2.85283 0
M  V30 3061 N 268.746 -4.35941 -2.56493 0
M  V30 3062 C 267.044 -3.14288 -3.16448 0
M  V30 3063 C 267.745 -5.17615 -2.65424 0
M  V30 3064 N 266.721 -4.53559 -2.99641 0
M  V30 3065 H 270.523 -2.67044 -1.22738 0
M  V30 3066 H 268.037 -1.51479 -0.585479 0
M  V30 3067 H 270.034 -2.0714 -3.61799 0
M  V30 3068 H 268.694 -1.0244 -3.08117 0
M  V30 3069 H 269.705 -4.63876 -2.30302 0
M  V30 3070 H 266.382 -2.33312 -3.46225 0
M  V30 3071 H 267.772 -6.25006 -2.46612 0
M  V30 3072 N 270.492 0.636531 -1.44174 0
M  V30 3073 C 271.903 1.21806 -1.41493 0
M  V30 3074 C 272.254 1.95785 -0.1275 0
M  V30 3075 O 271.379 2.02147 0.772376 0
M  V30 3076 C 271.974 2.21551 -2.56321 0
M  V30 3077 C 270.533 2.75143 -2.56853 0
M  V30 3078 C 269.68 1.50052 -2.33195 0
M  V30 3079 H 272.631 0.427531 -1.52833 0
M  V30 3080 H 272.652 3.0405 -2.28765 0
M  V30 3081 H 272.164 1.67679 -3.50008 0
M  V30 3082 H 270.265 3.33033 -1.67093 0
M  V30 3083 H 270.378 3.2155 -3.55165 0
M  V30 3084 H 268.742 1.77993 -1.82183 0
M  V30 3085 H 269.525 0.980903 -3.28988 0
M  V30 3086 N 271.97 1.30982 0.876444 0
M  V30 3087 C 273.218 1.20058 1.62575 0
M  V30 3088 C 273.539 -0.242947 1.93481 0
M  V30 3089 O 272.809 -1.1619 1.57724 0
M  V30 3090 H 271.389 0.44135 0.602677 0
M  V30 3091 H 274.051 1.64222 1.04962 0
M  V30 3092 H 273.147 1.76762 2.57219 0
M  V30 3093 N 273.449 -1.08991 1.13837 0
M  V30 3094 C 274.381 -2.15606 0.777612 0
M  V30 3095 C 275.394 -1.61533 -0.202739 0
M  V30 3096 O 276.583 -1.78491 0.0181055 0
M  V30 3097 C 273.683 -3.3864 0.132623 0
M  V30 3098 C 272.856 -4.22115 1.1462 0
M  V30 3099 C 271.915 -5.23564 0.526074 0
M  V30 3100 O 270.941 -5.56678 1.18735 0
M  V30 3101 N 272.143 -5.76266 -0.699866 0
M  V30 3102 H 274.908 -2.47159 1.69506 0
M  V30 3103 H 272.469 -1.24747 1.03198 0
M  V30 3104 H 274.461 -4.03626 -0.29459 0
M  V30 3105 H 273.031 -3.04938 -0.687849 0
M  V30 3106 H 272.251 -3.53199 1.75055 0
M  V30 3107 H 273.539 -4.74709 1.83109 0
M  V30 3108 H 272.937 -5.51585 -1.25581 0
M  V30 3109 H 271.494 -6.42963 -1.06968 0
M  V30 3110 N 274.927 -0.932562 -1.27047 0
M  V30 3111 C 275.837 -0.441219 -2.30414 0
M  V30 3112 C 276.853 0.480525 -1.67233 0
M  V30 3113 O 278.029 0.362151 -1.98117 0
M  V30 3114 C 275.094 0.293651 -3.45454 0
M  V30 3115 C 274.155 -0.663601 -4.2414 0
M  V30 3116 C 273.388 0.0362932 -5.33688 0
M  V30 3117 O 273.611 1.2548 -5.56427 0
M  V30 3118 O 272.545 -0.638015 -5.98509 0
M  V30 3119 H 276.371 -1.29962 -2.74488 0
M  V30 3120 H 273.956 -0.6981 -1.32087 0
M  V30 3121 H 275.838 0.707951 -4.15411 0
M  V30 3122 H 274.513 1.12758 -3.03426 0
M  V30 3123 H 273.42 -1.12768 -3.56699 0
M  V30 3124 H 274.753 -1.46489 -4.69896 0
M  V30 3125 N 276.405 1.4127 -0.698611 0
M  V30 3126 C 277.635 2.05205 -0.239644 0
M  V30 3127 C 278.043 1.52684 1.11733 0
M  V30 3128 O 277.386 0.671222 1.70998 0
M  V30 3129 C 277.448 3.59289 -0.123126 0
M  V30 3130 C 277.112 4.34619 -1.41263 0
M  V30 3131 C 278.109 4.63701 -2.35111 0
M  V30 3132 C 275.794 4.73837 -1.66684 0
M  V30 3133 C 277.788 5.30966 -3.52639 0
M  V30 3134 C 275.475 5.40837 -2.84498 0
M  V30 3135 C 276.473 5.69329 -3.77298 0
M  V30 3136 O 276.161 6.34949 -4.93047 0
M  V30 3137 H 275.893 0.66723 -0.108537 0
M  V30 3138 H 278.447 1.81974 -0.952602 0
M  V30 3139 H 276.677 3.81272 0.645628 0
M  V30 3140 H 278.366 4.04797 0.299056 0
M  V30 3141 H 279.132 4.33882 -2.16729 0
M  V30 3142 H 275.011 4.51039 -0.953135 0
M  V30 3143 H 278.555 5.53121 -4.25091 0
M  V30 3144 H 274.452 5.70075 -3.02795 0
M  V30 3145 H 275.22 6.53445 -4.92902 0
M  V30 3146 N 277.883 0.443576 1.51229 0
M  V30 3147 C 278.831 -0.37904 2.29491 0
M  V30 3148 C 279.825 -1.0153 1.35603 0
M  V30 3149 O 281.031 -0.94955 1.52917 0
M  V30 3150 H 277.406 -0.141053 0.738653 0
M  V30 3151 H 279.377 0.301799 2.9687 0
M  V30 3152 C 278.126 -1.46426 3.15364 0
M  V30 3153 H 277.449 -0.984037 3.87501 0
M  V30 3154 H 278.889 -2.01297 3.7317 0
M  V30 3155 C 277.348 -2.45099 2.31146 0
M  V30 3156 O 277.878 -3.49773 1.9754 0
M  V30 3157 N 276.084 -2.16139 1.94249 0
M  V30 3158 H 275.631 -1.31044 2.21777 0
M  V30 3159 H 275.589 -2.82398 1.38198 0
M  V30 3160 N 279.361 -1.56624 0.175154 0
M  V30 3161 C 280.607 -1.9729 -0.469506 0
M  V30 3162 C 280.94 -1.06128 -1.62636 0
M  V30 3163 O 280.215 -0.109183 -1.94193 0
M  V30 3164 C 280.498 -3.47375 -0.948804 0
M  V30 3165 C 280.351 -4.49317 0.208491 0
M  V30 3166 C 281.67 -4.00652 -1.82116 0
M  V30 3167 H 278.789 -0.717317 -0.16919 0
M  V30 3168 H 281.431 -1.88184 0.262062 0
M  V30 3169 H 279.581 -3.55267 -1.57219 0
M  V30 3170 H 281.253 -4.53482 0.845682 0
M  V30 3171 H 279.496 -4.25121 0.863395 0
M  V30 3172 H 280.167 -5.51741 -0.169059 0
M  V30 3173 H 282.643 -3.95416 -1.2956 0
M  V30 3174 H 281.519 -5.06075 -2.12554 0
M  V30 3175 H 281.78 -3.44699 -2.7683 0
M  V30 3176 N 280.839 0.0985539 -1.57292 0
M  V30 3177 C 282.255 0.45267 -1.53046 0
M  V30 3178 C 282.455 1.80713 -0.891342 0
M  V30 3179 O 281.511 2.4785 -0.482375 0
M  V30 3180 C 282.824 0.418341 -2.97776 0
M  V30 3181 C 284.372 0.500443 -3.08973 0
M  V30 3182 C 284.847 0.496297 -4.55303 0
M  V30 3183 N 286.338 0.557151 -4.59837 0
M  V30 3184 C 287.073 0.575726 -5.70502 0
M  V30 3185 N 286.569 0.550714 -6.90608 0
M  V30 3186 N 288.362 0.620277 -5.58667 0
M  V30 3187 H 280.513 -0.788673 -1.97215 0
M  V30 3188 H 282.776 -0.293188 -0.901524 0
M  V30 3189 H 282.482 -0.509659 -3.47988 0
M  V30 3190 H 282.356 1.2386 -3.56284 0
M  V30 3191 H 284.743 1.41886 -2.58751 0
M  V30 3192 H 284.824 -0.347894 -2.53423 0
M  V30 3193 H 284.468 -0.418162 -5.06176 0
M  V30 3194 H 284.398 1.3618 -5.08687 0
M  V30 3195 H 286.889 0.581816 -3.73394 0
M  V30 3196 H 287.202 0.568075 -7.70709 0
M  V30 3197 H 285.547 0.517816 -6.93068 0
M  V30 3198 H 288.738 0.637322 -4.63741 0
M  V30 3199 H 288.911 0.631283 -6.44918 0
M  V30 3200 N 282.317 1.53212 0.369288 0
M  V30 3201 C 283.563 1.69466 1.11397 0
M  V30 3202 C 283.896 0.443257 1.89074 0
M  V30 3203 O 283.171 -0.559386 1.86282 0
M  V30 3204 C 283.454 2.9422 2.07621 0
M  V30 3205 C 283.307 4.29508 1.33577 0
M  V30 3206 C 284.626 3.14565 3.07794 0
M  V30 3207 H 281.745 0.616667 0.403597 0
M  V30 3208 H 284.387 1.85845 0.395179 0
M  V30 3209 H 282.537 2.80387 2.68916 0
M  V30 3210 H 284.209 4.55147 0.750955 0
M  V30 3211 H 282.452 4.29088 0.637618 0
M  V30 3212 H 283.123 5.12926 2.03989 0
M  V30 3213 H 285.599 3.2756 2.56601 0
M  V30 3214 H 284.475 4.03297 3.72348 0
M  V30 3215 H 284.736 2.29675 3.77759 0
M  V30 3216 N 283.795 -0.628877 1.44509 0
M  V30 3217 C 284.758 -1.72263 1.51188 0
M  V30 3218 C 285.758 -1.55907 0.39367 0
M  V30 3219 O 286.948 -1.61361 0.656377 0
M  V30 3220 C 284.08 -3.11365 1.38798 0
M  V30 3221 H 285.273 -1.67714 2.4862 0
M  V30 3222 H 282.826 -0.842737 1.31634 0
M  V30 3223 H 283.561 -3.21507 0.424693 0
M  V30 3224 H 283.346 -3.24644 2.19884 0
M  V30 3225 H 284.836 -3.91075 1.46458 0
M  V30 3226 N 285.273 -1.31445 -0.869486 0
M  V30 3227 C 286.498 -1.24256 -1.66058 0
M  V30 3228 C 286.923 0.188928 -1.87149 0
M  V30 3229 O 286.281 1.13522 -1.4136 0
M  V30 3230 C 286.329 -1.9924 -3.00559 0
M  V30 3231 O 285.433 -1.33007 -3.90362 0
M  V30 3232 H 284.774 -0.428973 -0.506831 0
M  V30 3233 H 287.304 -1.73521 -1.08404 0
M  V30 3234 H 287.314 -2.08854 -3.50491 0
M  V30 3235 H 285.989 -3.03342 -2.84528 0
M  V30 3236 H 284.566 -1.31848 -3.48813 0
M  V30 3237 N 286.751 1.08385 -1.14413 0
M  V30 3238 C 288.167 1.32844 -0.884563 0
M  V30 3239 C 288.367 1.95841 0.474181 0
M  V30 3240 O 287.423 2.21158 1.21842 0
M  V30 3241 C 288.736 2.22978 -2.01745 0
M  V30 3242 C 290.284 2.36458 -2.05077 0
M  V30 3243 C 290.759 3.29934 -3.1766 0
M  V30 3244 N 292.25 3.37511 -3.17239 0
M  V30 3245 C 292.985 4.09871 -4.0099 0
M  V30 3246 N 292.481 4.84936 -4.94781 0
M  V30 3247 N 294.274 4.05704 -3.89051 0
M  V30 3248 H 286.425 0.658756 -2.01926 0
M  V30 3249 H 288.688 0.352821 -0.879899 0
M  V30 3250 H 288.394 1.83934 -2.99769 0
M  V30 3251 H 288.268 3.23441 -1.94077 0
M  V30 3252 H 290.655 2.7476 -1.0766 0
M  V30 3253 H 290.736 1.35736 -2.16816 0
M  V30 3254 H 290.38 2.92352 -4.15322 0
M  V30 3255 H 290.31 4.30584 -3.03158 0
M  V30 3256 H 292.801 2.83996 -2.49308 0
M  V30 3257 H 293.114 5.37612 -5.55151 0
M  V30 3258 H 291.459 4.83988 -4.98779 0
M  V30 3259 H 294.65 3.46167 -3.15097 0
M  V30 3260 H 294.823 4.61834 -4.54547 0
M  V30 3261 N 288.23 0.939286 1.26551 0
M  V30 3262 C 289.46 0.601663 1.97645 0
M  V30 3263 C 289.868 -0.827206 1.70159 0
M  V30 3264 O 289.211 -1.56291 0.965338 0
M  V30 3265 C 289.273 0.761725 3.51337 0
M  V30 3266 C 288.937 2.16487 4.0247 0
M  V30 3267 C 289.934 3.14016 4.14355 0
M  V30 3268 C 287.619 2.48494 4.36527 0
M  V30 3269 C 289.613 4.41654 4.59587 0
M  V30 3270 C 287.3 3.76364 4.81449 0
M  V30 3271 C 288.298 4.72758 4.92939 0
M  V30 3272 O 287.986 5.98352 5.36871 0
M  V30 3273 H 287.718 0.225758 0.637189 0
M  V30 3274 H 290.272 1.26178 1.62075 0
M  V30 3275 H 288.502 0.0444808 3.86674 0
M  V30 3276 H 290.191 0.427442 4.03643 0
M  V30 3277 H 290.957 2.90613 3.8829 0
M  V30 3278 H 286.836 1.74202 4.26819 0
M  V30 3279 H 290.38 5.16896 4.68471 0
M  V30 3280 H 286.277 3.99582 5.06956 0
M  V30 3281 H 287.045 6.01507 5.55096 0
M  V30 3282 N 289.708 -1.40897 0.706093 0
M  V30 3283 C 290.955 -2.01054 0.241531 0
M  V30 3284 C 291.283 -1.55956 -1.16223 0
M  V30 3285 O 290.538 -0.766336 -1.80072 0
M  V30 3286 C 290.837 -3.5646 0.259099 0
M  V30 3287 C 290.503 -4.21106 1.61184 0
M  V30 3288 C 289.165 -4.38479 1.98216 0
M  V30 3289 C 291.517 -4.57256 2.50132 0
M  V30 3290 C 288.845 -4.89282 3.2376 0
M  V30 3291 C 291.197 -5.09454 3.7502 0
M  V30 3292 C 289.861 -5.25037 4.12181 0
M  V30 3293 H 289.131 -0.73571 0.0883825 0
M  V30 3294 H 291.778 -1.68645 0.907257 0
M  V30 3295 H 290.083 -3.88721 -0.490189 0
M  V30 3296 H 291.78 -4.00826 -0.11804 0
M  V30 3297 H 288.37 -4.07966 1.31384 0
M  V30 3298 H 292.554 -4.43479 2.228 0
M  V30 3299 H 287.81 -4.99531 3.52532 0
M  V30 3300 H 291.984 -5.36404 4.44121 0
M  V30 3301 H 289.611 -5.64164 5.09532 0
M  V30 3302 N 291.186 -0.45159 -1.50991 0
M  V30 3303 C 292.133 0.352625 -2.2809 0
M  V30 3304 C 293.103 1.0044 -1.32291 0
M  V30 3305 O 294.288 1.02058 -1.6121 0
M  V30 3306 C 291.428 1.43983 -3.13629 0
M  V30 3307 C 290.541 0.804772 -4.24438 0
M  V30 3308 C 289.676 1.86822 -4.97263 0
M  V30 3309 C 288.715 1.21236 -5.99973 0
M  V30 3310 N 287.852 2.2178 -6.66152 0
M  V30 3311 H 292.692 -0.311186 -2.96371 0
M  V30 3312 H 290.229 -0.165308 -1.46168 0
M  V30 3313 H 292.187 2.08161 -3.61559 0
M  V30 3314 H 290.817 2.07307 -2.47434 0
M  V30 3315 H 289.869 0.0509129 -3.80366 0
M  V30 3316 H 291.181 0.286076 -4.97979 0
M  V30 3317 H 290.335 2.58628 -5.48813 0
M  V30 3318 H 289.074 2.42068 -4.23385 0
M  V30 3319 H 288.079 0.479828 -5.47702 0
M  V30 3320 H 289.304 0.667051 -6.75816 0
M  V30 3321 H 287.25 2.76079 -5.95077 0
M  V30 3322 H 287.167 1.74841 -7.35504 0
M  V30 3323 H 288.435 2.93026 -7.22327 0
M  V30 3324 N 292.664 1.56529 -0.183458 0
M  V30 3325 C 293.912 1.96855 0.457452 0
M  V30 3326 C 294.233 1.07104 1.62953 0
M  V30 3327 O 293.503 0.139887 1.954 0
M  V30 3328 H 292.083 0.72693 0.171992 0
M  V30 3329 H 294.745 1.93056 -0.267476 0
M  V30 3330 H 293.841 3.01423 0.809368 0
M  V30 3331 N 294.142 -0.090211 1.57342 0
M  V30 3332 C 295.553 -0.644173 1.75235 0
M  V30 3333 C 295.904 -1.78865 0.806335 0
M  V30 3334 O 295.029 -2.16395 -0.0140128 0
M  V30 3335 C 295.624 -1.17532 3.1776 0
M  V30 3336 C 294.183 -1.67531 3.37061 0
M  V30 3337 C 293.33 -0.58693 2.71017 0
M  V30 3338 H 296.281 0.135884 1.58117 0
M  V30 3339 H 296.302 -2.04455 3.20902 0
M  V30 3340 H 295.814 -0.342138 3.86589 0
M  V30 3341 H 293.915 -2.53234 2.73319 0
M  V30 3342 H 294.028 -1.76493 4.45406 0
M  V30 3343 H 292.392 -1.02756 2.33052 0
M  V30 3344 H 293.175 0.235758 3.4249 0
M  V30 3345 N 295.62 -1.53406 -0.361157 0
M  V30 3346 C 296.53 -1.83122 -1.4664 0
M  V30 3347 C 297.546 -0.719943 -1.58407 0
M  V30 3348 O 298.722 -1.01046 -1.74218 0
M  V30 3349 C 295.787 -2.01891 -2.81853 0
M  V30 3350 C 294.848 -3.25784 -2.79577 0
M  V30 3351 C 294.081 -3.43648 -4.0834 0
M  V30 3352 O 294.304 -2.65714 -5.0473 0
M  V30 3353 O 293.238 -4.37018 -4.13883 0
M  V30 3354 H 297.064 -2.7703 -1.24451 0
M  V30 3355 H 294.649 -1.38841 -0.551678 0
M  V30 3356 H 296.531 -2.15782 -3.61962 0
M  V30 3357 H 295.206 -1.11173 -3.0401 0
M  V30 3358 H 294.113 -3.17312 -1.98151 0
M  V30 3359 H 295.446 -4.16439 -2.62373 0
M  V30 3360 N 297.098 0.621204 -1.44841 0
M  V30 3361 C 298.028 1.74366 -1.55303 0
M  V30 3362 C 299.009 1.65199 -0.405385 0
M  V30 3363 O 300.194 1.83807 -0.626787 0
M  V30 3364 C 297.324 3.12931 -1.50637 0
M  V30 3365 C 296.278 3.36896 -2.63979 0
M  V30 3366 C 295.604 4.75594 -2.44366 0
M  V30 3367 C 296.904 3.28483 -4.06074 0
M  V30 3368 H 298.598 1.65867 -2.49256 0
M  V30 3369 H 296.144 0.796558 -1.19962 0
M  V30 3370 H 298.097 3.9124 -1.56555 0
M  V30 3371 H 296.821 3.22237 -0.532057 0
M  V30 3372 H 295.48 2.60972 -2.57467 0
M  V30 3373 H 295.128 4.81616 -1.45105 0
M  V30 3374 H 294.828 4.92586 -3.20364 0
M  V30 3375 H 296.352 5.5612 -2.52117 0
M  V30 3376 H 297.766 3.96684 -4.13902 0
M  V30 3377 H 296.163 3.57008 -4.82354 0
M  V30 3378 H 297.233 2.26133 -4.28943 0
M  V30 3379 N 298.576 1.31904 0.862503 0
M  V30 3380 C 299.506 1.22782 1.98612 0
M  V30 3381 C 300.487 0.113362 1.69722 0
M  V30 3382 O 301.672 0.299218 1.91881 0
M  V30 3383 C 298.802 0.942058 3.34279 0
M  V30 3384 C 297.756 2.0169 3.77499 0
M  V30 3385 C 297.082 1.58369 5.10709 0
M  V30 3386 C 298.382 3.43096 3.93805 0
M  V30 3387 H 300.076 2.16788 2.06502 0
M  V30 3388 H 297.622 1.04366 0.992154 0
M  V30 3389 H 299.575 0.864818 4.1243 0
M  V30 3390 H 298.299 -0.0336603 3.26583 0
M  V30 3391 H 296.958 2.08416 3.01593 0
M  V30 3392 H 296.606 0.595628 4.99461 0
M  V30 3393 H 296.306 2.30279 5.40597 0
M  V30 3394 H 297.83 1.52067 5.91361 0
M  V30 3395 H 299.244 3.39003 4.62331 0
M  V30 3396 H 297.641 4.13288 4.35101 0
M  V30 3397 H 298.711 3.83334 2.96957 0
M  V30 3398 N 300.054 -1.07777 1.14986 0
M  V30 3399 C 301.3 -1.80557 0.923422 0
M  V30 3400 C 301.633 -1.86298 -0.548337 0
M  V30 3401 O 300.908 -1.34354 -1.40639 0
M  V30 3402 C 301.191 -3.25839 1.53299 0
M  V30 3403 C 301.044 -3.28269 3.07505 0
M  V30 3404 C 302.363 -4.22991 1.21518 0
M  V30 3405 H 299.482 -0.655493 0.336894 0
M  V30 3406 H 302.124 -1.26144 1.42083 0
M  V30 3407 H 300.274 -3.72306 1.10999 0
M  V30 3408 H 301.946 -2.90079 3.58681 0
M  V30 3409 H 300.189 -2.67355 3.4162 0
M  V30 3410 H 300.86 -4.30691 3.45266 0
M  V30 3411 H 303.336 -3.84894 1.581 0
M  V30 3412 H 302.212 -5.22945 1.66793 0
M  V30 3413 H 302.473 -4.41904 0.131505 0
M  V30 3414 N 301.532 -0.945985 -1.26051 0
M  V30 3415 C 302.809 -0.513816 -1.88731 0
M  V30 3416 C 303.189 1.00872 -1.8544 0
M  V30 3417 O 302.537 1.8708 -1.312 0
M  V30 3418 C 302.747 -1.08062 -3.31849 0
M  V30 3419 C 304.095 -1.1522 -4.08668 0
M  V30 3420 O 305.119 -1.03155 -3.40936 0
M  V30 3421 O 303.978 -1.34044 -5.29806 0
M  V30 3422 H 301.072 -0.168193 -0.809716 0
M  V30 3423 H 303.618 -1.03886 -1.34186 0
M  V30 3424 H 302.39 -2.1241 -3.2863 0
M  V30 3425 H 302.013 -0.538307 -3.93939 0
M  V30 3426 N 303.011 1.40521 -0.713556 0
M  V30 3427 C 304.241 2.0494 -0.261395 0
M  V30 3428 C 304.649 1.53861 1.10107 0
M  V30 3429 O 303.992 0.689321 1.70276 0
M  V30 3430 C 304.054 3.59138 -0.161227 0
M  V30 3431 C 303.718 4.33096 -1.45865 0
M  V30 3432 C 304.715 4.61182 -2.40016 0
M  V30 3433 C 302.4 4.72043 -1.71701 0
M  V30 3434 C 304.394 5.27196 -3.58251 0
M  V30 3435 C 302.081 5.37789 -2.90218 0
M  V30 3436 C 303.079 5.65295 -3.83315 0
M  V30 3437 O 302.767 6.29683 -4.99754 0
M  V30 3438 H 302.499 0.666041 -0.115608 0
M  V30 3439 H 305.053 1.80954 -0.971849 0
M  V30 3440 H 303.283 3.81936 0.605153 0
M  V30 3441 H 304.972 4.05091 0.256105 0
M  V30 3442 H 305.738 4.31559 -2.21318 0
M  V30 3443 H 301.617 4.50003 -1.00092 0
M  V30 3444 H 305.161 5.48582 -4.30934 0
M  V30 3445 H 301.058 5.66831 -3.08825 0
M  V30 3446 H 301.826 6.4818 -4.99805 0
M  V30 3447 N 304.489 0.459591 1.5075 0
M  V30 3448 C 305.421 -0.37665 2.26084 0
M  V30 3449 C 306.434 -0.967109 1.30961 0
M  V30 3450 O 307.623 -0.857468 1.56556 0
M  V30 3451 C 304.723 -1.54112 3.01832 0
M  V30 3452 C 303.896 -1.06553 4.24223 0
M  V30 3453 C 302.955 -2.1027 4.82362 0
M  V30 3454 O 301.981 -1.68798 5.43595 0
M  V30 3455 N 303.183 -3.42974 4.68347 0
M  V30 3456 H 305.948 0.269124 2.98489 0
M  V30 3457 H 303.509 0.28972 1.59287 0
M  V30 3458 H 305.501 -2.23165 3.37608 0
M  V30 3459 H 304.071 -2.0918 2.32298 0
M  V30 3460 H 303.291 -0.201274 3.93686 0
M  V30 3461 H 304.579 -0.725516 5.03601 0
M  V30 3462 H 303.977 -3.79385 4.19623 0
M  V30 3463 H 302.534 -4.07858 5.08424 0
M  V30 3464 N 305.967 -1.56429 0.191757 0
M  V30 3465 C 306.9 -2.14829 -0.76967 0
M  V30 3466 C 307.878 -1.08405 -1.2119 0
M  V30 3467 O 309.062 -1.36498 -1.30002 0
M  V30 3468 C 306.189 -2.70446 -2.03903 0
M  V30 3469 C 305.235 -3.89428 -1.7392 0
M  V30 3470 S 306.068 -5.28048 -0.890265 0
M  V30 3471 C 307.224 -5.87085 -2.16984 0
M  V30 3472 H 307.457 -2.96042 -0.273204 0
M  V30 3473 H 304.99 -1.54383 -0.0231975 0
M  V30 3474 H 306.948 -3.03134 -2.76803 0
M  V30 3475 H 305.609 -1.89281 -2.50662 0
M  V30 3476 H 304.802 -4.26742 -2.68155 0
M  V30 3477 H 304.404 -3.57732 -1.09103 0
M  V30 3478 H 306.696 -6.01244 -3.12269 0
M  V30 3479 H 307.639 -6.83747 -1.84108 0
M  V30 3480 H 308.047 -5.15663 -2.29678 0
M  V30 3481 N 307.445 0.0818655 -1.57387 0
M  V30 3482 C 308.675 0.794954 -1.90694 0
M  V30 3483 C 309.083 1.72147 -0.784982 0
M  V30 3484 O 308.426 1.81974 0.251196 0
M  V30 3485 C 308.488 1.65042 -3.19376 0
M  V30 3486 C 308.152 0.894337 -4.48164 0
M  V30 3487 C 309.149 0.21813 -5.19442 0
M  V30 3488 C 306.834 0.864495 -4.94805 0
M  V30 3489 C 308.828 -0.477802 -6.35607 0
M  V30 3490 C 306.515 0.164785 -6.10878 0
M  V30 3491 C 307.513 -0.505173 -6.81129 0
M  V30 3492 O 307.201 -1.19363 -7.94989 0
M  V30 3493 H 306.933 0.231779 -0.635023 0
M  V30 3494 H 309.487 0.059493 -2.05314 0
M  V30 3495 H 307.717 2.42844 -3.00938 0
M  V30 3496 H 309.406 2.24127 -3.38411 0
M  V30 3497 H 310.172 0.232558 -4.84442 0
M  V30 3498 H 306.051 1.37542 -4.40004 0
M  V30 3499 H 309.595 -1.00129 -6.90377 0
M  V30 3500 H 305.492 0.148249 -6.4533 0
M  V30 3501 H 306.26 -1.10188 -8.11049 0
M  V30 3502 N 308.923 1.53595 0.353017 0
M  V30 3503 C 310.2 1.61002 1.11075 0
M  V30 3504 C 310.58 0.425356 2.0677 0
M  V30 3505 O 309.928 -0.583267 2.2093 0
M  V30 3506 C 310.138 2.96631 1.83877 0
M  V30 3507 C 311.486 3.51653 2.37961 0
M  V30 3508 O 312.51 2.98743 1.93987 0
M  V30 3509 O 311.369 4.44177 3.18386 0
M  V30 3510 H 308.463 0.650825 0.510251 0
M  V30 3511 H 311.009 1.6594 0.35527 0
M  V30 3512 H 309.781 3.74293 1.14108 0
M  V30 3513 H 309.404 2.95242 2.66304 0
M  V30 3514 N 310.401 -0.613514 1.45168 0
M  V30 3515 C 311.631 -1.39743 1.52169 0
M  V30 3516 C 312.039 -1.88596 0.151086 0
M  V30 3517 O 311.382 -1.6251 -0.856521 0
M  V30 3518 C 311.444 -2.64035 2.43979 0
M  V30 3519 C 311.108 -2.36861 3.90827 0
M  V30 3520 C 312.105 -1.97591 4.80889 0
M  V30 3521 C 309.79 -2.49956 4.35692 0
M  V30 3522 C 311.784 -1.71768 6.1382 0
M  V30 3523 C 309.471 -2.23747 5.68665 0
M  V30 3524 C 310.469 -1.84714 6.57548 0
M  V30 3525 O 310.157 -1.58809 7.88058 0
M  V30 3526 H 309.889 -0.434382 0.517966 0
M  V30 3527 H 312.443 -0.75587 1.90986 0
M  V30 3528 H 310.673 -3.3089 2.00122 0
M  V30 3529 H 312.362 -3.26069 2.41731 0
M  V30 3530 H 313.128 -1.87015 4.47493 0
M  V30 3531 H 309.007 -2.79305 3.66756 0
M  V30 3532 H 312.551 -1.41227 6.83155 0
M  V30 3533 H 308.448 -2.33938 6.01617 0
M  V30 3534 H 309.216 -1.7291 8.00028 0
M  V30 3535 N 311.879 -1.3236 -0.855495 0
M  V30 3536 C 313.104 -1.2601 -1.64731 0
M  V30 3537 C 313.529 0.169068 -1.87339 0
M  V30 3538 O 312.887 1.12016 -1.42556 0
M  V30 3539 C 312.935 -2.02417 -2.98429 0
M  V30 3540 O 312.039 -1.3714 -3.8893 0
M  V30 3541 H 311.38 -0.434325 -0.502253 0
M  V30 3542 H 313.91 -1.74661 -1.06558 0
M  V30 3543 H 313.92 -2.12559 -3.48257 0
M  V30 3544 H 312.595 -3.06343 -2.81295 0
M  V30 3545 H 311.172 -1.3554 -3.47395 0
M  V30 3546 N 313.357 1.07166 -1.15556 0
M  V30 3547 C 314.287 2.16403 -0.877046 0
M  V30 3548 C 315.268 1.69217 0.173111 0
M  V30 3549 O 316.453 1.94181 0.027084 0
M  V30 3550 C 313.583 3.45349 -0.367632 0
M  V30 3551 C 312.537 4.05995 -1.35468 0
M  V30 3552 C 311.863 5.30045 -0.704038 0
M  V30 3553 C 313.163 4.45804 -2.72132 0
M  V30 3554 H 314.857 2.39959 -1.79053 0
M  V30 3555 H 312.403 1.15325 -0.862331 0
M  V30 3556 H 314.356 4.21095 -0.160317 0
M  V30 3557 H 313.08 3.21385 0.581326 0
M  V30 3558 H 311.739 3.32296 -1.54839 0
M  V30 3559 H 311.387 5.02373 0.251128 0
M  V30 3560 H 311.087 5.71579 -1.36277 0
M  V30 3561 H 312.611 6.08495 -0.50654 0
M  V30 3562 H 314.025 5.12671 -2.56595 0
M  V30 3563 H 312.422 4.98296 -3.34397 0
M  V30 3564 H 313.492 3.57083 -3.28054 0
M  V30 3565 N 314.835 0.952656 1.25548 0
M  V30 3566 C 316.112 0.523818 1.88456 0
M  V30 3567 C 316.492 -0.998871 1.85973 0
M  V30 3568 O 315.84 -1.86381 1.3219 0
M  V30 3569 C 316.05 1.0982 3.31271 0
M  V30 3570 C 317.398 1.17385 4.08051 0
M  V30 3571 O 318.422 1.04961 3.40384 0
M  V30 3572 O 317.281 1.36852 5.29088 0
M  V30 3573 H 314.375 0.172485 0.808813 0
M  V30 3574 H 316.921 1.04596 1.33633 0
M  V30 3575 H 315.693 2.1415 3.27499 0
M  V30 3576 H 315.316 0.559191 3.93648 0
M  V30 3577 N 316.313 -1.40141 0.720998 0
M  V30 3578 C 317.246 -2.2819 0.020916 0
M  V30 3579 C 318.224 -1.43633 -0.762129 0
M  V30 3580 O 319.408 -1.7304 -0.747633 0
M  V30 3581 C 316.535 -3.24281 -0.977715 0
M  V30 3582 C 315.581 -4.25548 -0.284836 0
M  V30 3583 S 316.414 -5.26247 0.991169 0
M  V30 3584 C 317.57 -6.259 -0.0052214 0
M  V30 3585 H 317.803 -2.87218 0.767649 0
M  V30 3586 H 315.336 -1.45656 0.512233 0
M  V30 3587 H 317.294 -3.80167 -1.54865 0
M  V30 3588 H 315.955 -2.643 -1.69719 0
M  V30 3589 H 315.148 -4.93154 -1.03996 0
M  V30 3590 H 314.75 -3.73389 0.213684 0
M  V30 3591 H 317.042 -6.72143 -0.850279 0
M  V30 3592 H 317.985 -7.05224 0.637599 0
M  V30 3593 H 318.393 -5.63277 -0.371366 0
M  V30 3594 N 317.792 -0.46758 -1.50504 0
M  V30 3595 C 319.038 0.0808869 -2.03239 0
M  V30 3596 C 319.393 1.37721 -1.34353 0
M  V30 3597 O 318.686 1.86016 -0.459194 0
M  V30 3598 C 318.88 0.323995 -3.55928 0
M  V30 3599 C 318.709 -0.947215 -4.39611 0
M  V30 3600 C 317.479 -1.48951 -4.82848 0
M  V30 3601 C 319.677 -1.84166 -4.80195 0
M  V30 3602 N 317.659 -2.71011 -5.50842 0
M  V30 3603 C 319.03 -2.90815 -5.47564 0
M  V30 3604 C 321.085 -1.85246 -4.62156 0
M  V30 3605 C 319.788 -3.98529 -5.98805 0
M  V30 3606 C 321.814 -2.91914 -5.14335 0
M  V30 3607 C 321.176 -3.97282 -5.81676 0
M  V30 3608 H 317.275 -0.0103394 -0.781932 0
M  V30 3609 H 319.859 -0.635003 -1.84054 0
M  V30 3610 H 318.03 1.00892 -3.75067 0
M  V30 3611 H 319.762 0.866492 -3.95315 0
M  V30 3612 H 316.517 -1.03918 -4.62058 0
M  V30 3613 H 316.941 -3.32988 -5.89447 0
M  V30 3614 H 321.583 -1.05103 -4.09528 0
M  V30 3615 H 319.301 -4.79491 -6.50472 0
M  V30 3616 H 322.887 -2.93729 -5.0221 0
M  V30 3617 H 321.767 -4.78462 -6.21324 0
M  V30 3618 N 319.27 1.56325 -0.20005 0
M  V30 3619 C 320.495 2.02548 0.44597 0
M  V30 3620 C 320.92 1.07922 1.5406 0
M  V30 3621 O 320.278 0.0635775 1.81188 0
M  V30 3622 C 320.326 3.47175 0.974761 0
M  V30 3623 O 319.43 3.55671 2.08739 0
M  V30 3624 H 318.771 0.655862 0.103638 0
M  V30 3625 H 321.301 2.02201 -0.312381 0
M  V30 3626 H 321.311 3.87067 1.2901 0
M  V30 3627 H 319.986 4.15538 0.17347 0
M  V30 3628 H 318.563 3.27657 1.78032 0
M  V30 3629 N 320.748 -0.0735177 1.57428 0
M  V30 3630 C 321.678 -1.0879 2.06608 0
M  V30 3631 C 322.659 -1.40473 0.959237 0
M  V30 3632 O 323.844 -1.5013 1.23185 0
M  V30 3633 C 320.974 -2.40183 2.50857 0
M  V30 3634 C 319.928 -2.22858 3.65402 0
M  V30 3635 C 319.254 -3.59619 3.957 0
M  V30 3636 C 320.554 -1.65123 4.95511 0
M  V30 3637 H 322.248 -0.678673 2.91607 0
M  V30 3638 H 319.794 -0.325013 1.40284 0
M  V30 3639 H 321.747 -3.11437 2.83874 0
M  V30 3640 H 320.471 -2.83083 1.62885 0
M  V30 3641 H 319.13 -1.54045 3.32664 0
M  V30 3642 H 318.778 -4.00086 3.04861 0
M  V30 3643 H 318.478 -3.48866 4.72828 0
M  V30 3644 H 320.002 -4.32306 4.31212 0
M  V30 3645 H 321.416 -2.26241 5.26771 0
M  V30 3646 H 319.813 -1.65071 5.7695 0
M  V30 3647 H 320.883 -0.612559 4.81015 0
M  V30 3648 N 322.226 -1.5378 -0.344866 0
M  V30 3649 C 323.474 -1.70625 -1.08311 0
M  V30 3650 C 323.795 -0.471447 -1.89215 0
M  V30 3651 O 323.065 0.514616 -1.8902 0
M  V30 3652 H 321.645 -0.629058 -0.402859 0
M  V30 3653 H 324.307 -1.9103 -0.386459 0
M  V30 3654 H 323.403 -2.57656 -1.76124 0
M  V30 3655 N 323.704 0.605807 -1.45491 0
M  V30 3656 C 324.944 1.37606 -1.51142 0
M  V30 3657 C 325.308 1.91413 -0.150075 0
M  V30 3658 O 326.509 2.68677 -0.0812828 0
M  V30 3659 C 324.78 2.49197 -2.56195 0
M  V30 3660 S 326.339 3.36953 -2.81083 0
M  V30 3661 H 323.157 0.469118 -0.534275 0
M  V30 3662 H 325.759 0.698845 -1.82583 0
M  V30 3663 H 324.463 2.0802 -3.53773 0
M  V30 3664 H 323.994 3.21717 -2.26411 0
M  V30 3665 H 326.009 4.47395 -2.14598 0
M  V30 3666 N 325.182 1.32811 0.848464 0
M  V30 3667 C 326.115 1.16601 1.96162 0
M  V30 3668 C 327.093 0.0638855 1.62474 0
M  V30 3669 O 328.277 0.224348 1.8716 0
M  V30 3670 C 325.404 0.786333 3.29446 0
M  V30 3671 C 324.45 1.89459 3.8211 0
M  V30 3672 S 325.283 3.50395 4.04949 0
M  V30 3673 C 326.439 3.14413 5.41198 0
M  V30 3674 H 326.672 2.10832 2.09612 0
M  V30 3675 H 324.205 1.17543 1.00115 0
M  V30 3676 H 326.163 0.574044 4.06466 0
M  V30 3677 H 324.824 -0.137218 3.138 0
M  V30 3678 H 324.017 1.58207 4.78526 0
M  V30 3679 H 323.619 2.06304 3.11953 0
M  V30 3680 H 325.911 2.64642 6.23675 0
M  V30 3681 H 326.854 4.09874 5.77416 0
M  V30 3682 H 327.262 2.51266 5.05495 0
M  V30 3683 N 326.66 -1.06551 1.16123 0
M  V30 3684 C 327.59 -2.15935 0.88851 0
M  V30 3685 C 328.571 -1.69306 -0.164135 0
M  V30 3686 O 329.756 -1.94193 -0.0167857 0
M  V30 3687 C 326.886 -3.45149 0.385942 0
M  V30 3688 C 325.84 -4.05271 1.3762 0
M  V30 3689 C 325.166 -5.29664 0.732137 0
M  V30 3690 C 326.466 -4.44355 2.74493 0
M  V30 3691 H 328.16 -2.39006 1.80323 0
M  V30 3692 H 325.706 -1.14866 0.868435 0
M  V30 3693 H 327.659 -4.21004 0.182647 0
M  V30 3694 H 326.383 -3.21689 -0.564274 0
M  V30 3695 H 325.042 -3.3147 1.56599 0
M  V30 3696 H 324.69 -5.02499 -0.224483 0
M  V30 3697 H 324.39 -5.70848 1.39307 0
M  V30 3698 H 325.914 -6.08218 0.538802 0
M  V30 3699 H 327.328 -5.11303 2.59311 0
M  V30 3700 H 325.725 -4.96515 3.37035 0
M  V30 3701 H 326.795 -3.55339 3.29943 0
M  V30 3702 N 328.138 -0.959301 -1.25041 0
M  V30 3703 C 329.101 -0.487677 -2.23952 0
M  V30 3704 C 330.101 0.41119 -1.55454 0
M  V30 3705 O 331.291 0.207825 -1.72956 0
M  V30 3706 C 328.423 0.294807 -3.39623 0
M  V30 3707 H 329.616 -1.36198 -2.67189 0
M  V30 3708 H 327.169 -0.743042 -1.37508 0
M  V30 3709 H 327.904 1.18658 -3.01813 0
M  V30 3710 H 327.689 -0.35012 -3.90534 0
M  V30 3711 H 329.179 0.614089 -4.1306 0
M  V30 3712 N 329.616 1.39756 -0.72842 0
M  V30 3713 C 330.841 2.05472 -0.282159 0
M  V30 3714 C 331.266 1.54549 1.07221 0
M  V30 3715 O 330.624 0.686372 1.67805 0
M  V30 3716 C 330.672 3.59462 -0.286264 0
M  V30 3717 O 329.776 4.05918 0.728298 0
M  V30 3718 H 329.117 0.651226 -0.129618 0
M  V30 3719 H 331.647 1.78915 -0.992499 0
M  V30 3720 H 331.657 4.07798 -0.128373 0
M  V30 3721 H 330.332 3.95889 -1.27456 0
M  V30 3722 H 328.909 3.69012 0.537081 0
M  V30 3723 N 331.094 0.475555 1.50254 0
M  V30 3724 C 332.027 -0.362381 2.25304 0
M  V30 3725 C 333.005 -0.992393 1.28803 0
M  V30 3726 O 334.189 -1.02746 1.58036 0
M  V30 3727 C 331.316 -1.50813 3.03271 0
M  V30 3728 C 330.362 -0.995044 4.1473 0
M  V30 3729 S 331.195 0.0938436 5.35418 0
M  V30 3730 C 332.351 -1.05567 6.16933 0
M  V30 3731 H 332.584 0.274686 2.96028 0
M  V30 3732 H 330.117 0.260495 1.52187 0
M  V30 3733 H 332.075 -2.16476 3.48781 0
M  V30 3734 H 330.736 -2.11672 2.32064 0
M  V30 3735 H 329.929 -1.85293 4.68703 0
M  V30 3736 H 329.531 -0.416052 3.71679 0
M  V30 3737 H 331.823 -1.96636 6.48337 0
M  V30 3738 H 332.766 -0.555109 7.05921 0
M  V30 3739 H 333.174 -1.31151 5.49053 0
M  V30 3740 N 332.573 -1.56217 0.208337 0
M  V30 3741 C 333.822 -1.97124 -0.427204 0
M  V30 3742 C 334.135 -1.09859 -1.61835 0
M  V30 3743 O 335.341 -1.40606 -2.32255 0
M  V30 3744 C 333.797 -3.50633 -0.811442 0
M  V30 3745 C 333.405 -4.46582 0.35615 0
M  V30 3746 C 335.149 -4.00282 -1.41332 0
M  V30 3747 C 333.056 -5.91379 -0.0497852 0
M  V30 3748 H 331.986 -0.736086 -0.163381 0
M  V30 3749 H 334.637 -1.8099 0.302456 0
M  V30 3750 H 333.019 -3.62319 -1.59815 0
M  V30 3751 H 334.193 -4.46636 1.1337 0
M  V30 3752 H 332.508 -4.07202 0.870396 0
M  V30 3753 H 335.105 -5.0595 -1.72972 0
M  V30 3754 H 335.448 -3.45359 -2.32449 0
M  V30 3755 H 335.981 -3.91764 -0.690323 0
M  V30 3756 H 332.72 -6.50255 0.827529 0
M  V30 3757 H 332.24 -5.94549 -0.791926 0
M  V30 3758 H 333.919 -6.45209 -0.481042 0
M  V30 3759 N 334.051 0.0651679 -1.57465 0
M  V30 3760 C 335.298 0.763063 -1.87573 0
M  V30 3761 C 335.626 1.77242 -0.800961 0
M  V30 3762 O 334.881 1.94651 0.202316 0
M  V30 3763 C 335.18 1.50081 -3.24362 0
M  V30 3764 C 334.846 0.630816 -4.46466 0
M  V30 3765 C 333.508 0.391082 -4.79608 0
M  V30 3766 C 335.86 0.0279465 -5.21193 0
M  V30 3767 C 333.188 -0.460894 -5.84887 0
M  V30 3768 C 335.54 -0.811522 -6.27373 0
M  V30 3769 C 334.204 -1.06106 -6.59013 0
M  V30 3770 H 333.474 0.279224 -0.686378 0
M  V30 3771 H 336.121 0.0236726 -1.91485 0
M  V30 3772 H 334.426 2.31258 -3.16271 0
M  V30 3773 H 336.123 2.04571 -3.44894 0
M  V30 3774 H 332.713 0.8278 -4.2053 0
M  V30 3775 H 336.897 0.200262 -4.95896 0
M  V30 3776 H 332.153 -0.662907 -6.07796 0
M  V30 3777 H 336.327 -1.28537 -6.84435 0
M  V30 3778 H 333.954 -1.723 -7.40417 0
M  V30 3779 N 335.529 1.53961 0.336706 0
M  V30 3780 C 336.945 1.44378 0.680241 0
M  V30 3781 C 337.145 0.606034 1.9217 0
M  V30 3782 O 336.201 0.099688 2.52303 0
M  V30 3783 C 337.514 2.87945 0.8665 0
M  V30 3784 C 339.062 2.97763 0.964682 0
M  V30 3785 C 339.537 4.42453 1.18321 0
M  V30 3786 N 341.028 4.46008 1.25025 0
M  V30 3787 C 341.763 5.55102 1.43697 0
M  V30 3788 N 341.259 6.7419 1.59498 0
M  V30 3789 N 343.052 5.42727 1.463 0
M  V30 3790 H 335.203 2.06918 -0.479455 0
M  V30 3791 H 337.466 0.935634 -0.152619 0
M  V30 3792 H 337.172 3.51691 0.0256937 0
M  V30 3793 H 337.046 3.33293 1.76623 0
M  V30 3794 H 339.433 2.34153 1.796 0
M  V30 3795 H 339.514 2.55766 0.041708 0
M  V30 3796 H 339.158 5.06645 0.356788 0
M  V30 3797 H 339.088 4.82048 2.11985 0
M  V30 3798 H 341.579 3.60196 1.14312 0
M  V30 3799 H 341.892 7.53095 1.734 0
M  V30 3800 H 340.237 6.77123 1.56621 0
M  V30 3801 H 343.428 4.48647 1.33543 0
M  V30 3802 H 343.601 6.27806 1.6051 0
M  V30 3803 N 337.007 -0.598083 1.45811 0
M  V30 3804 C 337.954 -1.7082 1.55207 0
M  V30 3805 C 338.924 -1.61278 0.39732 0
M  V30 3806 O 340.109 -1.80717 0.612038 0
M  V30 3807 C 337.249 -3.09144 1.53376 0
M  V30 3808 C 336.362 -3.29423 2.79472 0
M  V30 3809 C 335.497 -4.57907 2.69248 0
M  V30 3810 C 334.536 -4.71476 3.90354 0
M  V30 3811 N 333.673 -5.9127 3.78608 0
M  V30 3812 H 338.513 -1.62125 2.50039 0
M  V30 3813 H 336.05 -0.790389 1.24062 0
M  V30 3814 H 338.008 -3.89186 1.50301 0
M  V30 3815 H 336.638 -3.16773 0.620876 0
M  V30 3816 H 335.69 -2.43091 2.92594 0
M  V30 3817 H 337.002 -3.3532 3.69272 0
M  V30 3818 H 336.156 -5.46157 2.64192 0
M  V30 3819 H 334.895 -4.54423 1.77063 0
M  V30 3820 H 333.9 -3.81648 3.95759 0
M  V30 3821 H 335.125 -4.76751 4.83617 0
M  V30 3822 H 333.071 -5.88813 2.89199 0
M  V30 3823 H 332.988 -5.98369 4.6205 0
M  V30 3824 H 334.256 -6.81992 3.77501 0
M  V30 3825 N 338.485 -1.33259 -0.841409 0
M  V30 3826 C 339.395 -1.25332 -1.98316 0
M  V30 3827 C 340.411 -0.164364 -1.73222 0
M  V30 3828 O 341.587 -0.387486 -1.97637 0
M  V30 3829 C 338.652 -0.990078 -3.32262 0
M  V30 3830 C 337.713 -2.16879 -3.70489 0
M  V30 3831 C 336.946 -1.91801 -4.98044 0
M  V30 3832 O 337.169 -0.867075 -5.63771 0
M  V30 3833 O 336.103 -2.78267 -5.33714 0
M  V30 3834 H 339.929 -2.21344 -2.07944 0
M  V30 3835 H 337.514 -1.1328 -0.974058 0
M  V30 3836 H 339.396 -0.860321 -4.12524 0
M  V30 3837 H 338.071 -0.0602155 -3.23644 0
M  V30 3838 H 336.978 -2.35407 -2.90748 0
M  V30 3839 H 338.311 -3.0819 -3.8377 0
M  V30 3840 N 339.963 1.05934 -1.16686 0
M  V30 3841 C 341.374 1.60263 -0.957745 0
M  V30 3842 C 341.725 1.89789 0.49745 0
M  V30 3843 O 340.85 1.67401 1.37135 0
M  V30 3844 C 341.445 2.91172 -1.73218 0
M  V30 3845 C 340.004 3.42188 -1.56794 0
M  V30 3846 C 339.151 2.16028 -1.73859 0
M  V30 3847 H 342.102 0.888392 -1.31504 0
M  V30 3848 H 342.123 3.60744 -1.21014 0
M  V30 3849 H 341.635 2.6965 -2.79124 0
M  V30 3850 H 339.736 3.68762 -0.533437 0
M  V30 3851 H 339.849 4.17273 -2.35414 0
M  V30 3852 H 338.213 2.26426 -1.16633 0
M  V30 3853 H 338.996 1.96985 -2.81161 0
M  V30 3854 N 341.441 0.965919 1.2453 0
M  V30 3855 C 342.688 0.626831 1.92554 0
M  V30 3856 C 343.016 -0.837739 1.75534 0
M  V30 3857 O 342.271 -1.61793 1.10098 0
M  V30 3858 C 342.57 0.945428 3.44669 0
M  V30 3859 C 342.236 2.39785 3.81856 0
M  V30 3860 C 340.898 2.79483 3.91718 0
M  V30 3861 C 343.25 3.34055 4.00071 0
M  V30 3862 C 340.578 4.12496 4.1721 0
M  V30 3863 C 342.93 4.66694 4.27059 0
M  V30 3864 C 341.594 5.06172 4.3514 0
M  V30 3865 H 340.864 0.229374 0.704605 0
M  V30 3866 H 343.511 1.21707 1.4785 0
M  V30 3867 H 341.816 0.272926 3.90848 0
M  V30 3868 H 343.513 0.661484 3.95507 0
M  V30 3869 H 340.103 2.08003 3.74743 0
M  V30 3870 H 344.287 3.04571 3.91855 0
M  V30 3871 H 339.543 4.42709 4.21685 0
M  V30 3872 H 343.717 5.3971 4.40097 0
M  V30 3873 H 341.344 6.09262 4.54646 0
M  V30 3874 N 342.919 -1.39368 0.735821 0
M  V30 3875 C 344.166 -2.00497 0.284123 0
M  V30 3876 C 344.494 -1.58387 -1.12889 0
M  V30 3877 O 343.749 -0.804359 -1.78406 0
M  V30 3878 C 344.048 -3.5583 0.334651 0
M  V30 3879 C 343.714 -4.17593 1.7008 0
M  V30 3880 C 342.376 -4.34176 2.07472 0
M  V30 3881 C 344.728 -4.51848 2.59775 0
M  V30 3882 C 342.056 -4.82304 3.34065 0
M  V30 3883 C 344.408 -5.01384 3.85741 0
M  V30 3884 C 343.072 -5.16175 4.23225 0
M  V30 3885 H 342.342 -0.73367 0.103968 0
M  V30 3886 H 344.989 -1.66683 0.942825 0
M  V30 3887 H 343.294 -3.89674 -0.407625 0
M  V30 3888 H 344.991 -4.00986 -0.0329927 0
M  V30 3889 H 341.581 -4.05087 1.40008 0
M  V30 3890 H 345.765 -4.38653 2.32157 0
M  V30 3891 H 341.021 -4.91941 3.63049 0
M  V30 3892 H 345.195 -5.26863 4.55399 0
M  V30 3893 H 342.822 -5.5323 5.21384 0
M  V30 3894 N 344.397 -0.483516 -1.5 0
M  V30 3895 C 345.347 0.32306 -2.257 0
M  V30 3896 C 346.331 0.950755 -1.29805 0
M  V30 3897 O 347.523 0.861247 -1.54634 0
M  V30 3898 C 344.652 1.39724 -3.13579 0
M  V30 3899 C 343.738 0.776663 -4.16928 0
M  V30 3900 N 344.129 -0.1104 -5.0568 0
M  V30 3901 C 342.427 1.03922 -4.33724 0
M  V30 3902 C 343.128 -0.46387 -5.79848 0
M  V30 3903 N 342.104 0.163987 -5.43353 0
M  V30 3904 H 345.906 -0.360086 -2.91686 0
M  V30 3905 H 343.42 -0.298456 -1.59634 0
M  V30 3906 H 345.417 1.98837 -3.66428 0
M  V30 3907 H 344.077 2.08225 -2.49143 0
M  V30 3908 H 345.088 -0.480069 -5.1567 0
M  V30 3909 H 341.765 1.71829 -3.80501 0
M  V30 3910 H 343.155 -1.18854 -6.61304 0
M  V30 3911 N 345.875 1.56104 -0.216619 0
M  V30 3912 C 347.123 1.97781 0.415593 0
M  V30 3913 C 347.444 1.10536 1.60645 0
M  V30 3914 O 346.714 0.181303 1.95059 0
M  V30 3915 H 345.294 0.730415 0.156534 0
M  V30 3916 H 347.956 1.92445 -0.308366 0
M  V30 3917 H 347.052 3.03072 0.74525 0
M  V30 3918 N 347.353 -0.0568162 1.57498 0
M  V30 3919 C 348.303 -1.07315 2.01166 0
M  V30 3920 C 349.287 -1.33632 0.896171 0
M  V30 3921 O 350.479 -1.33682 1.16009 0
M  V30 3922 C 347.608 -2.38257 2.47161 0
M  V30 3923 C 346.694 -2.1515 3.65474 0
M  V30 3924 N 347.085 -1.62014 4.7915 0
M  V30 3925 C 345.383 -2.45559 3.72313 0
M  V30 3926 C 346.084 -1.54069 5.60926 0
M  V30 3927 N 345.06 -2.00652 5.05213 0
M  V30 3928 H 348.862 -0.655878 2.86488 0
M  V30 3929 H 346.376 -0.263635 1.60246 0
M  V30 3930 H 348.373 -3.11845 2.76691 0
M  V30 3931 H 347.033 -2.80687 1.63232 0
M  V30 3932 H 348.044 -1.30667 5.01145 0
M  V30 3933 H 344.721 -2.91253 2.99129 0
M  V30 3934 H 346.111 -1.13712 6.62208 0
M  V30 3935 N 348.832 -1.54138 -0.328536 0
M  V30 3936 C 350.109 -1.62749 -1.08499 0
M  V30 3937 C 350.489 -0.458198 -2.06067 0
M  V30 3938 O 349.837 0.548046 -2.2183 0
M  V30 3939 C 350.047 -2.99519 -1.79135 0
M  V30 3940 C 351.395 -3.55394 -2.32337 0
M  V30 3941 O 352.419 -3.01792 -1.89209 0
M  V30 3942 O 351.278 -4.49186 -3.11279 0
M  V30 3943 H 348.372 -0.65886 -0.499832 0
M  V30 3944 H 350.918 -1.66484 -0.328826 0
M  V30 3945 H 349.69 -3.76061 -1.08139 0
M  V30 3946 H 349.313 -2.99441 -2.61574 0
M  V30 3947 N 350.31 0.590341 -1.46126 0
M  V30 3948 C 351.258 1.72105 -1.5647 0
M  V30 3949 C 352.252 1.63756 -0.433612 0
M  V30 3950 O 353.458 1.69342 -0.610194 0
M  V30 3951 H 349.833 0.568889 -0.491802 0
M  V30 3952 H 351.804 1.6051 -2.51553 0
M  V30 3953 C 350.553 3.10493 -1.56491 0
M  V30 3954 H 349.876 3.17583 -2.4286 0
M  V30 3955 H 351.316 3.8939 -1.67785 0
M  V30 3956 C 349.775 3.3563 -0.292231 0
M  V30 3957 O 350.305 3.96875 0.620739 0
M  V30 3958 N 348.511 2.90026 -0.182523 0
M  V30 3959 H 348.058 2.40367 -0.926356 0
M  V30 3960 H 348.016 3.07218 0.668152 0
M  V30 3961 N 351.788 1.33704 0.83433 0
M  V30 3962 C 353.018 1.28281 1.6195 0
M  V30 3963 C 353.426 -0.147603 1.88623 0
M  V30 3964 O 352.769 -1.1016 1.47005 0
M  V30 3965 C 352.831 1.99386 2.99141 0
M  V30 3966 C 352.495 3.48681 2.95416 0
M  V30 3967 C 353.492 4.438 2.70809 0
M  V30 3968 C 351.177 3.90925 3.15409 0
M  V30 3969 C 353.171 5.79138 2.66229 0
M  V30 3970 C 350.858 5.26366 3.10454 0
M  V30 3971 C 351.856 6.20284 2.85895 0
M  V30 3972 O 351.544 7.53245 2.80852 0
M  V30 3973 H 351.276 0.44315 0.510484 0
M  V30 3974 H 353.83 1.76711 1.04702 0
M  V30 3975 H 352.06 1.45554 3.58261 0
M  V30 3976 H 353.749 1.87403 3.60049 0
M  V30 3977 H 354.515 4.12485 2.5511 0
M  V30 3978 H 350.394 3.18229 3.33543 0
M  V30 3979 H 353.938 6.52416 2.4698 0
M  V30 3980 H 349.835 5.57304 3.25703 0
M  V30 3981 H 350.603 7.62846 2.96661 0
M  V30 3982 N 353.266 -1.05314 1.17247 0
M  V30 3983 C 354.543 -1.75184 0.87005 0
M  V30 3984 C 354.923 -2.01481 -0.629965 0
M  V30 3985 O 354.271 -1.64988 -1.58086 0
M  V30 3986 C 354.481 -3.04594 1.70363 0
M  V30 3987 C 355.829 -3.78567 1.92281 0
M  V30 3988 O 356.853 -3.14461 1.67311 0
M  V30 3989 O 355.712 -4.93755 2.3424 0
M  V30 3990 H 352.806 -0.761729 0.322021 0
M  V30 3991 H 355.352 -1.11493 1.27935 0
M  V30 3992 H 354.124 -2.81201 2.72106 0
M  V30 3993 H 353.747 -3.76022 1.29202 0
M  V30 3994 N 354.744 -0.972509 -1.24016 0
M  V30 3995 C 355.676 -0.464375 -2.24446 0
M  V30 3996 C 356.689 0.4295 -1.57032 0
M  V30 3997 O 357.878 0.234902 -1.76948 0
M  V30 3998 C 354.978 0.348385 -3.37105 0
M  V30 3999 C 354.151 -0.53673 -4.34094 0
M  V30 4000 C 353.21 0.220838 -5.25736 0
M  V30 4001 O 352.236 -0.386867 -5.67884 0
M  V30 4002 N 353.438 1.50907 -5.60542 0
M  V30 4003 H 356.203 -1.32788 -2.68677 0
M  V30 4004 H 353.764 -0.844877 -1.38107 0
M  V30 4005 H 355.756 0.863341 -3.95384 0
M  V30 4006 H 354.326 1.11285 -2.92121 0
M  V30 4007 H 353.546 -1.23261 -3.74433 0
M  V30 4008 H 354.834 -1.14022 -4.95859 0
M  V30 4009 H 354.232 2.02444 -5.28236 0
M  V30 4010 H 352.789 1.96962 -6.21329 0
M  V30 4011 N 356.222 1.38976 -0.743202 0
M  V30 4012 C 357.152 2.33171 -0.123873 0
M  V30 4013 C 358.133 1.54336 0.71516 0
M  V30 4014 O 359.318 1.82696 0.658467 0
M  V30 4015 C 356.448 3.38474 0.777978 0
M  V30 4016 C 355.402 4.27979 0.0424758 0
M  V30 4017 C 354.728 5.2405 1.06189 0
M  V30 4018 C 356.028 5.10155 -1.1198 0
M  V30 4019 H 357.722 2.85213 -0.910709 0
M  V30 4020 H 355.268 1.37133 -0.439388 0
M  V30 4021 H 357.221 4.03328 1.22084 0
M  V30 4022 H 355.945 2.84891 1.59702 0
M  V30 4023 H 354.604 3.64616 -0.380853 0
M  V30 4024 H 354.252 4.66758 1.87472 0
M  V30 4025 H 353.952 5.84785 0.574485 0
M  V30 4026 H 355.476 5.9178 1.50428 0
M  V30 4027 H 356.89 5.68307 -0.75499 0
M  V30 4028 H 355.287 5.80073 -1.53738 0
M  V30 4029 H 356.357 4.44504 -1.93764 0
M  V30 4030 N 357.7 0.491464 1.49741 0
M  V30 4031 C 358.946 -0.0565092 2.02721 0
M  V30 4032 C 359.279 -1.37522 1.37118 0
M  V30 4033 O 358.554 -1.87866 0.503645 0
M  V30 4034 C 358.837 -0.219051 3.59433 0
M  V30 4035 C 358.69 1.12211 4.35579 0
M  V30 4036 C 360.009 -0.964157 4.29409 0
M  V30 4037 H 357.128 -0.0190627 0.736753 0
M  V30 4038 H 359.77 0.641021 1.7886 0
M  V30 4039 H 357.92 -0.813165 3.79895 0
M  V30 4040 H 359.592 1.75437 4.26637 0
M  V30 4041 H 357.835 1.71377 3.98513 0
M  V30 4042 H 358.506 0.961794 5.43556 0
M  V30 4043 H 360.982 -0.460378 4.13545 0
M  V30 4044 H 359.858 -1.04671 5.38828 0
M  V30 4045 H 360.119 -2.00563 3.93988 0
M  V30 4046 N 359.178 -1.55987 0.224894 0
M  V30 4047 C 360.594 -1.59066 -0.130426 0
M  V30 4048 C 360.794 -1.24176 -1.5869 0
M  V30 4049 O 359.85 -0.978592 -2.32766 0
M  V30 4050 C 361.163 -3.00042 0.198883 0
M  V30 4051 C 362.711 -3.1268 0.141391 0
M  V30 4052 C 363.186 -4.55839 0.444422 0
M  V30 4053 N 364.677 -4.6152 0.394115 0
M  V30 4054 C 365.412 -5.70231 0.602038 0
M  V30 4055 N 364.908 -6.87291 0.871914 0
M  V30 4056 N 366.701 -5.59555 0.534245 0
M  V30 4057 H 358.852 -1.76941 1.17497 0
M  V30 4058 H 361.115 -0.822604 0.471197 0
M  V30 4059 H 360.821 -3.30234 1.2099 0
M  V30 4060 H 360.695 -3.74075 -0.484535 0
M  V30 4061 H 363.082 -2.82283 -0.860265 0
M  V30 4062 H 363.163 -2.40969 0.858335 0
M  V30 4063 H 362.807 -4.86954 1.44353 0
M  V30 4064 H 362.737 -5.2578 -0.293752 0
M  V30 4065 H 365.228 -3.77405 0.193356 0
M  V30 4066 H 365.541 -7.66058 1.01858 0
M  V30 4067 H 363.886 -6.89028 0.909145 0
M  V30 4068 H 367.077 -4.6698 0.323612 0
M  V30 4069 H 367.25 -6.44211 0.699693 0
M  V30 4070 N 360.656 0.0484629 -1.57525 0
M  V30 4071 C 361.905 0.742065 -1.87553 0
M  V30 4072 C 362.218 1.77545 -0.820802 0
M  V30 4073 O 363.424 2.52027 -1.00967 0
M  V30 4074 C 361.88 1.37081 -3.32771 0
M  V30 4075 C 361.488 0.374786 -4.4643 0
M  V30 4076 C 363.232 2.04542 -3.71972 0
M  V30 4077 C 361.139 1.01077 -5.82698 0
M  V30 4078 H 360.069 0.280903 -0.699721 0
M  V30 4079 H 362.72 -0.00411877 -1.835 0
M  V30 4080 H 361.102 2.16605 -3.31509 0
M  V30 4081 H 362.276 -0.392331 -4.59127 0
M  V30 4082 H 360.591 -0.196653 -4.15935 0
M  V30 4083 H 363.188 2.52943 -4.71088 0
M  V30 4084 H 363.531 2.85515 -3.02964 0
M  V30 4085 H 364.064 1.31819 -3.75325 0
M  V30 4086 H 360.803 0.240878 -6.55057 0
M  V30 4087 H 360.323 1.74819 -5.73758 0
M  V30 4088 H 362.002 1.52383 -6.28799 0
M  V30 4089 N 362.134 1.5431 0.320358 0
M  V30 4090 C 363.097 1.83195 1.3774 0
M  V30 4091 C 364.097 0.703906 1.44575 0
M  V30 4092 O 365.287 0.972214 1.44546 0
M  V30 4093 C 362.419 1.99487 2.76438 0
M  V30 4094 H 363.612 2.77642 1.1338 0
M  V30 4095 H 361.165 1.46076 0.556012 0
M  V30 4096 H 361.9 1.07262 3.06048 0
M  V30 4097 H 361.685 2.81575 2.7287 0
M  V30 4098 H 363.175 2.23271 3.52902 0
M  V30 4099 N 363.613 -0.582584 1.46437 0
M  V30 4100 C 364.56 -1.69164 1.5701 0
M  V30 4101 C 365.53 -1.60847 0.414403 0
M  V30 4102 O 366.715 -1.80058 0.631171 0
M  V30 4103 C 363.855 -3.075 1.56646 0
M  V30 4104 C 362.968 -3.2644 2.82951 0
M  V30 4105 C 362.103 -4.55026 2.7409 0
M  V30 4106 C 361.142 -4.6731 3.95333 0
M  V30 4107 N 360.279 -5.87221 3.84858 0
M  V30 4108 H 365.119 -1.59464 2.51744 0
M  V30 4109 H 362.656 -0.777186 1.24893 0
M  V30 4110 H 364.614 -3.8757 1.5442 0
M  V30 4111 H 363.244 -3.16096 0.654439 0
M  V30 4112 H 362.296 -2.39974 2.95155 0
M  V30 4113 H 363.608 -3.31385 3.72808 0
M  V30 4114 H 362.762 -5.43324 2.6997 0
M  V30 4115 H 361.501 -4.52519 1.81873 0
M  V30 4116 H 360.506 -3.77429 3.99784 0
M  V30 4117 H 361.731 -4.71595 4.88646 0
M  V30 4118 H 359.677 -5.85712 2.95427 0
M  V30 4119 H 359.594 -5.93435 4.6837 0
M  V30 4120 H 360.862 -6.7795 3.84713 0
M  V30 4121 N 365.091 -1.34144 -0.827227 0
M  V30 4122 C 366.337 -1.26446 -1.58554 0
M  V30 4123 C 366.67 0.1664 -1.93486 0
M  V30 4124 O 365.945 1.1107 -1.59667 0
M  V30 4125 C 366.228 -2.15111 -2.8879 0
M  V30 4126 C 366.081 -3.66712 -2.60465 0
M  V30 4127 C 367.4 -2.03311 -3.90324 0
M  V30 4128 H 364.519 -0.46067 -0.575284 0
M  V30 4129 H 367.161 -1.64356 -0.953269 0
M  V30 4130 H 365.311 -1.8291 -3.42748 0
M  V30 4131 H 366.983 -4.09259 -2.1285 0
M  V30 4132 H 365.226 -3.88014 -1.93978 0
M  V30 4133 H 365.897 -4.24112 -3.53317 0
M  V30 4134 H 368.373 -2.31574 -3.45706 0
M  V30 4135 H 367.249 -2.67582 -4.79261 0
M  V30 4136 H 367.51 -1.00879 -4.30437 0
M  V30 4137 N 366.569 1.04691 -1.17803 0
M  V30 4138 C 367.499 2.14494 -0.92275 0
M  V30 4139 C 368.48 1.69546 0.137179 0
M  V30 4140 O 369.665 1.94195 -0.0141108 0
M  V30 4141 C 366.795 3.44491 -0.440803 0
M  V30 4142 C 365.749 4.03031 -1.4405 0
M  V30 4143 C 365.075 5.28432 -0.81631 0
M  V30 4144 C 366.375 4.39932 -2.81527 0
M  V30 4145 H 368.069 2.36107 -1.84103 0
M  V30 4146 H 365.615 1.1347 -0.886599 0
M  V30 4147 H 367.568 4.2066 -0.249602 0
M  V30 4148 H 366.292 3.22546 0.513025 0
M  V30 4149 H 364.951 3.28937 -1.61853 0
M  V30 4150 H 364.599 5.02792 0.144511 0
M  V30 4151 H 364.299 5.68559 -1.48371 0
M  V30 4152 H 365.823 6.07284 -0.635496 0
M  V30 4153 H 367.237 5.07113 -2.67412 0
M  V30 4154 H 365.634 4.9109 -3.44892 0
M  V30 4155 H 366.704 3.50045 -3.35554 0
M  V30 4156 N 368.047 0.979072 1.23499 0
M  V30 4157 C 369.295 0.645941 1.91499 0
M  V30 4158 C 369.616 -0.822948 1.76784 0
M  V30 4159 O 368.886 -1.58854 1.14639 0
M  V30 4160 H 367.466 0.235919 0.708767 0
M  V30 4161 H 370.128 1.2426 1.50152 0
M  V30 4162 H 369.224 0.896411 2.9895 0
M  V30 4163 N 369.525 -1.3858 0.750561 0
M  V30 4164 C 370.753 -2.04471 0.316098 0
M  V30 4165 C 371.168 -1.56606 -1.05452 0
M  V30 4166 O 370.525 -0.737784 -1.66922 0
M  V30 4167 C 370.576 -3.60025 0.326275 0
M  V30 4168 O 370.297 -4.06133 1.6428 0
M  V30 4169 C 371.798 -4.43131 -0.122429 0
M  V30 4170 H 369.018 -0.65717 0.135528 0
M  V30 4171 H 371.562 -1.77329 1.01857 0
M  V30 4172 H 369.717 -3.86014 -0.327431 0
M  V30 4173 H 370.131 -5.00547 1.56693 0
M  V30 4174 H 371.605 -5.51963 -0.0641473 0
M  V30 4175 H 372.082 -4.23333 -1.16988 0
M  V30 4176 H 372.688 -4.22323 0.50229 0
M  V30 4177 N 371.003 -0.499398 -1.49478 0
M  V30 4178 C 371.913 0.284489 -2.32869 0
M  V30 4179 C 372.929 0.968885 -1.44529 0
M  V30 4180 O 374.105 0.95062 -1.77553 0
M  V30 4181 C 371.17 1.33594 -3.19928 0
M  V30 4182 C 370.231 0.665149 -4.24116 0
M  V30 4183 C 369.464 1.6665 -5.07014 0
M  V30 4184 O 369.687 2.89618 -4.91404 0
M  V30 4185 O 368.621 1.22271 -5.8935 0
M  V30 4186 H 372.447 -0.39802 -3.01081 0
M  V30 4187 H 370.032 -0.260758 -1.47107 0
M  V30 4188 H 371.914 1.94431 -3.73864 0
M  V30 4189 H 370.589 2.0014 -2.54412 0
M  V30 4190 H 369.496 0.0170769 -3.74096 0
M  V30 4191 H 370.829 0.0421555 -4.92182 0
M  V30 4192 N 372.481 1.55866 -0.233164 0
M  V30 4193 C 373.758 1.90471 0.444988 0
M  V30 4194 C 374.138 1.15209 1.7689 0
M  V30 4195 O 373.486 0.265119 2.26957 0
M  V30 4196 C 373.696 3.4333 0.626559 0
M  V30 4197 C 375.044 4.14319 0.92871 0
M  V30 4198 O 376.068 3.48993 0.712926 0
M  V30 4199 O 374.927 5.29846 1.33887 0
M  V30 4200 H 372.021 0.792347 0.236885 0
M  V30 4201 H 374.567 1.67437 -0.276211 0
M  V30 4202 H 373.339 3.90095 -0.306822 0
M  V30 4203 H 372.962 3.72181 1.39881 0
M  V30 4204 N 373.959 -0.0401083 1.57549 0
M  V30 4205 C 374.889 -1.04384 2.08869 0
M  V30 4206 C 375.87 -1.38407 0.988817 0
M  V30 4207 O 377.055 -1.47483 1.26342 0
M  V30 4208 C 374.185 -2.34808 2.55895 0
M  V30 4209 C 373.139 -2.15057 3.70047 0
M  V30 4210 C 372.465 -3.51145 4.03239 0
M  V30 4211 C 373.765 -1.54576 4.98902 0
M  V30 4212 H 375.459 -0.616666 2.92981 0
M  V30 4213 H 373.005 -0.295184 1.40942 0
M  V30 4214 H 374.958 -3.05346 2.90417 0
M  V30 4215 H 373.682 -2.79565 1.68853 0
M  V30 4216 H 372.341 -1.46954 3.35857 0
M  V30 4217 H 371.989 -3.93529 3.13279 0
M  V30 4218 H 371.689 -3.38758 4.80122 0
M  V30 4219 H 373.213 -4.23062 4.40285 0
M  V30 4220 H 374.627 -2.15017 5.31451 0
M  V30 4221 H 373.024 -1.52796 5.80322 0
M  V30 4222 H 374.094 -0.51039 4.82206 0
M  V30 4223 N 375.437 -1.54477 -0.31217 0
M  V30 4224 C 376.667 -1.76948 -1.06645 0
M  V30 4225 C 377.075 -0.523593 -1.81811 0
M  V30 4226 O 376.418 0.51578 -1.76311 0
M  V30 4227 C 376.48 -2.91668 -2.10166 0
M  V30 4228 C 376.144 -4.30165 -1.54296 0
M  V30 4229 C 377.141 -5.10603 -0.978793 0
M  V30 4230 C 374.826 -4.76738 -1.58196 0
M  V30 4231 C 376.82 -6.3573 -0.461048 0
M  V30 4232 C 374.507 -6.01831 -1.06034 0
M  V30 4233 C 375.505 -6.81161 -0.500844 0
M  V30 4234 O 375.193 -8.03899 0.0128958 0
M  V30 4235 H 374.925 -0.594088 -0.322546 0
M  V30 4236 H 377.479 -2.02213 -0.360441 0
M  V30 4237 H 375.709 -2.62001 -2.84416 0
M  V30 4238 H 377.398 -3.01817 -2.71406 0
M  V30 4239 H 378.164 -4.75771 -0.941651 0
M  V30 4240 H 374.043 -4.15027 -2.00683 0
M  V30 4241 H 377.587 -6.97596 -0.0236894 0
M  V30 4242 H 373.484 -6.36152 -1.09459 0
M  V30 4243 H 374.252 -8.18437 -0.101457 0
M  V30 4244 N 376.915 0.57481 -1.46744 0
M  V30 4245 C 378.192 1.3352 -1.4294 0
M  V30 4246 C 378.572 2.10775 -0.117009 0
M  V30 4247 O 377.92 2.09966 0.901474 0
M  V30 4248 C 378.13 2.25456 -2.66403 0
M  V30 4249 C 379.478 2.87035 -3.12883 0
M  V30 4250 O 380.502 2.35766 -2.67007 0
M  V30 4251 O 379.361 3.80179 -3.92589 0
M  V30 4252 H 376.455 0.600318 -0.568812 0
M  V30 4253 H 379.001 0.595171 -1.58921 0
M  V30 4254 H 377.773 1.67851 -3.53471 0
M  V30 4255 H 377.396 3.06785 -2.52921 0
M  V30 4256 N 378.394 1.34581 0.820102 0
M  V30 4257 C 379.624 1.29991 1.6058 0
M  V30 4258 C 380.032 -0.127588 1.88769 0
M  V30 4259 O 379.375 -1.08595 1.48165 0
M  V30 4260 C 379.437 2.02548 2.9701 0
M  V30 4261 C 379.101 3.51794 2.91701 0
M  V30 4262 C 380.098 4.46647 2.66087 0
M  V30 4263 C 377.783 3.94249 3.11245 0
M  V30 4264 C 379.777 5.81929 2.60071 0
M  V30 4265 C 377.464 5.2963 3.04853 0
M  V30 4266 C 378.462 6.23282 2.793 0
M  V30 4267 O 378.15 7.56181 2.72847 0
M  V30 4268 H 377.882 0.448539 0.505756 0
M  V30 4269 H 380.436 1.77811 1.02822 0
M  V30 4270 H 378.666 1.49345 3.56697 0
M  V30 4271 H 380.355 1.91211 3.58041 0
M  V30 4272 H 381.121 4.15168 2.5072 0
M  V30 4273 H 377 3.21749 3.30149 0
M  V30 4274 H 380.544 6.54999 2.40046 0
M  V30 4275 H 376.441 5.60727 3.19774 0
M  V30 4276 H 377.209 7.6595 2.88553 0
M  V30 4277 N 379.872 -1.04064 1.18357 0
M  V30 4278 C 381.121 -1.76662 0.973313 0
M  V30 4279 C 381.434 -1.89154 -0.497991 0
M  V30 4280 O 382.64 -2.58606 -0.826762 0
M  V30 4281 C 381.096 -3.17624 1.69242 0
M  V30 4282 C 380.704 -3.13225 3.20303 0
M  V30 4283 C 382.448 -3.946 1.56497 0
M  V30 4284 C 380.355 -4.49046 3.84853 0
M  V30 4285 H 379.285 -0.662214 0.36054 0
M  V30 4286 H 381.936 -1.16553 1.41731 0
M  V30 4287 H 380.318 -3.78129 1.1762 0
M  V30 4288 H 381.492 -2.62172 3.78949 0
M  V30 4289 H 379.807 -2.49749 3.33189 0
M  V30 4290 H 382.404 -4.95042 2.02084 0
M  V30 4291 H 382.747 -4.13074 0.517243 0
M  V30 4292 H 383.28 -3.4067 2.05399 0
M  V30 4293 H 380.019 -4.35777 4.89672 0
M  V30 4294 H 379.539 -5.00203 3.30994 0
M  V30 4295 H 381.218 -5.17961 3.87718 0
M  V30 4296 N 381.35 -0.985608 -1.22978 0
M  V30 4297 C 382.627 -0.573599 -1.87001 0
M  V30 4298 C 383.007 0.949213 -1.88555 0
M  V30 4299 O 382.355 1.82811 -1.37086 0
M  V30 4300 C 382.565 -1.18564 -3.28243 0
M  V30 4301 C 383.913 -1.28163 -4.04796 0
M  V30 4302 O 384.937 -1.13949 -3.37482 0
M  V30 4303 O 383.796 -1.50832 -5.25273 0
M  V30 4304 H 380.89 -0.193868 -0.803955 0
M  V30 4305 H 383.436 -1.08102 -1.30813 0
M  V30 4306 H 382.208 -2.22758 -3.21706 0
M  V30 4307 H 381.831 -0.663363 -3.92027 0
M  V30 4308 N 382.828 1.3818 -0.7579 0
M  V30 4309 C 383.775 2.30416 -0.133057 0
M  V30 4310 C 384.745 1.50398 0.704957 0
M  V30 4311 O 385.93 1.79014 0.660192 0
M  V30 4312 C 383.07 3.36834 0.750813 0
M  V30 4313 C 382.183 4.31879 -0.102297 0
M  V30 4314 C 381.318 5.25368 0.784979 0
M  V30 4315 C 380.357 6.12058 -0.0715046 0
M  V30 4316 N 379.494 6.97832 0.772972 0
M  V30 4317 H 384.334 2.83274 -0.925186 0
M  V30 4318 H 381.871 1.39461 -0.467866 0
M  V30 4319 H 383.829 3.97145 1.27794 0
M  V30 4320 H 382.459 2.85374 1.50868 0
M  V30 4321 H 381.511 3.72991 -0.747095 0
M  V30 4322 H 382.823 4.92921 -0.763552 0
M  V30 4323 H 381.977 5.90818 1.37911 0
M  V30 4324 H 380.716 4.64703 1.47996 0
M  V30 4325 H 379.721 5.456 -0.678272 0
M  V30 4326 H 380.946 6.74793 -0.763606 0
M  V30 4327 H 378.892 6.3971 1.45282 0
M  V30 4328 H 378.809 7.55812 0.168709 0
M  V30 4329 H 380.077 7.67687 1.35194 0
M  V30 4330 N 384.306 0.507319 1.49211 0
M  V30 4331 C 385.536 -0.0315292 2.06576 0
M  V30 4332 C 385.944 -1.30791 1.36713 0
M  V30 4333 O 385.287 -1.78324 0.441181 0
M  V30 4334 C 385.349 -0.349104 3.57801 0
M  V30 4335 C 385.013 0.830475 4.49391 0
M  V30 4336 C 386.01 1.72271 4.90529 0
M  V30 4337 C 383.695 1.03107 4.91604 0
M  V30 4338 C 385.689 2.79964 5.72625 0
M  V30 4339 C 383.376 2.11116 5.73475 0
M  V30 4340 C 384.374 2.99379 6.1389 0
M  V30 4341 O 384.062 4.05523 6.94123 0
M  V30 4342 H 383.794 0.0201002 0.675701 0
M  V30 4343 H 386.348 0.705737 1.92895 0
M  V30 4344 H 384.578 -1.14005 3.69513 0
M  V30 4345 H 386.267 -0.827319 3.97379 0
M  V30 4346 H 387.033 1.57958 4.58557 0
M  V30 4347 H 382.912 0.353417 4.59643 0
M  V30 4348 H 386.456 3.48884 6.04091 0
M  V30 4349 H 382.353 2.25421 6.0486 0
M  V30 4350 H 383.121 4.02953 7.1244 0
M  V30 4351 N 385.784 -1.5574 0.241426 0
M  V30 4352 C 386.732 -2.22538 -0.676718 0
M  V30 4353 C 387.726 -1.21117 -1.18436 0
M  V30 4354 O 388.932 -1.39144 -1.14188 0
M  V30 4355 H 385.307 -0.713776 -0.236701 0
M  V30 4356 H 387.278 -2.98264 -0.0901187 0
M  V30 4357 C 386.027 -2.93439 -1.86518 0
M  V30 4358 H 385.35 -3.7125 -1.4837 0
M  V30 4359 H 386.79 -3.43549 -2.48495 0
M  V30 4360 C 385.249 -1.97008 -2.73294 0
M  V30 4361 O 385.779 -1.49965 -3.72657 0
M  V30 4362 N 383.985 -1.64227 -2.39745 0
M  V30 4363 H 383.532 -2.02677 -1.58996 0
M  V30 4364 H 383.49 -0.999708 -2.98083 0
M  V30 4365 N 387.262 0.0317525 -1.57568 0
M  V30 4366 C 388.511 0.722131 -1.8833 0
M  V30 4367 C 388.824 1.76664 -0.839587 0
M  V30 4368 O 390.03 2.50942 -1.03635 0
M  V30 4369 C 388.486 1.33544 -3.34207 0
M  V30 4370 C 388.094 0.327415 -4.46802 0
M  V30 4371 C 389.838 2.00585 -3.7412 0
M  V30 4372 C 387.745 0.948915 -5.83738 0
M  V30 4373 H 386.675 0.273466 -0.702661 0
M  V30 4374 H 389.326 -0.0235811 -1.83485 0
M  V30 4375 H 387.708 2.13077 -3.33788 0
M  V30 4376 H 388.882 -0.441006 -4.58685 0
M  V30 4377 H 387.197 -0.240758 -4.15703 0
M  V30 4378 H 389.794 2.47932 -4.73744 0
M  V30 4379 H 390.137 2.82285 -3.05975 0
M  V30 4380 H 390.67 1.27831 -3.76702 0
M  V30 4381 H 387.409 0.171387 -6.55276 0
M  V30 4382 H 386.929 1.68724 -5.7558 0
M  V30 4383 H 388.608 1.45705 -6.3038 0
M  V30 4384 N 388.74 1.54641 0.303973 0
M  V30 4385 C 389.65 1.88439 1.39743 0
M  V30 4386 C 390.666 0.778239 1.55626 0
M  V30 4387 O 391.842 1.07442 1.70347 0
M  V30 4388 C 388.907 2.12212 2.74166 0
M  V30 4389 C 387.968 3.35936 2.67293 0
M  V30 4390 C 387.201 3.58566 3.95305 0
M  V30 4391 O 387.424 2.84263 4.9452 0
M  V30 4392 O 386.358 4.52078 3.97378 0
M  V30 4393 H 390.184 2.81458 1.14083 0
M  V30 4394 H 387.769 1.40793 0.499768 0
M  V30 4395 H 389.651 2.29067 3.53704 0
M  V30 4396 H 388.326 1.22379 2.99675 0
M  V30 4397 H 387.233 3.24448 1.86237 0
M  V30 4398 H 388.566 4.2589 2.46736 0
M  V30 4399 N 390.218 -0.567019 1.47046 0
M  V30 4400 C 391.148 -1.68482 1.61667 0
M  V30 4401 C 392.129 -1.6358 0.466418 0
M  V30 4402 O 393.314 -1.81354 0.694574 0
M  V30 4403 C 390.444 -3.07124 1.62148 0
M  V30 4404 C 389.398 -3.26867 2.76301 0
M  V30 4405 C 388.724 -4.66196 2.61849 0
M  V30 4406 C 390.024 -3.13186 4.17986 0
M  V30 4407 H 391.718 -1.56502 2.5524 0
M  V30 4408 H 389.264 -0.751486 1.22836 0
M  V30 4409 H 391.217 -3.8516 1.70968 0
M  V30 4410 H 389.941 -3.2004 0.651287 0
M  V30 4411 H 388.6 -2.51237 2.66975 0
M  V30 4412 H 388.248 -4.75898 1.62879 0
M  V30 4413 H 387.948 -4.80356 3.38425 0
M  V30 4414 H 389.472 -5.46379 2.72584 0
M  V30 4415 H 390.886 -3.81049 4.2834 0
M  V30 4416 H 389.283 -3.3886 4.95272 0
M  V30 4417 H 390.353 -2.10057 4.3704 0
M  V30 4418 N 391.696 -1.35014 -0.812953 0
M  V30 4419 C 392.973 -1.18502 -1.55617 0
M  V30 4420 C 393.353 0.238421 -2.09749 0
M  V30 4421 O 392.701 1.2411 -1.91857 0
M  V30 4422 C 392.911 -2.24783 -2.66971 0
M  V30 4423 C 394.259 -2.60268 -3.35478 0
M  V30 4424 O 395.283 -2.23648 -2.77236 0
M  V30 4425 O 394.142 -3.2321 -4.40678 0
M  V30 4426 H 391.236 -0.459984 -0.687272 0
M  V30 4427 H 393.782 -1.46677 -0.853464 0
M  V30 4428 H 392.554 -3.20284 -2.24798 0
M  V30 4429 H 392.177 -1.97841 -3.44884 0
M  V30 4430 N 393.175 1.03435 -1.18907 0
M  V30 4431 C 394.586 1.58195 -0.991523 0
M  V30 4432 C 394.937 1.90801 0.457081 0
M  V30 4433 O 394.062 1.70272 1.33553 0
M  V30 4434 C 394.657 2.87432 -1.79355 0
M  V30 4435 C 393.216 3.38785 -1.64017 0
M  V30 4436 C 392.363 2.12292 -1.78402 0
M  V30 4437 H 395.314 0.860299 -1.33359 0
M  V30 4438 H 395.335 3.58096 -1.28638 0
M  V30 4439 H 394.847 2.63669 -2.84781 0
M  V30 4440 H 392.948 3.67547 -0.611536 0
M  V30 4441 H 393.061 4.12186 -2.44212 0
M  V30 4442 H 391.425 2.23901 -1.2141 0
M  V30 4443 H 392.208 1.90977 -2.85277 0
M  V30 4444 N 394.653 0.992116 1.22453 0
M  V30 4445 C 396.069 0.702713 1.43297 0
M  V30 4446 C 396.269 -0.726909 1.87932 0
M  V30 4447 O 395.325 -1.49792 2.0327 0
M  V30 4448 C 396.638 1.70762 2.47509 0
M  V30 4449 C 398.186 1.72298 2.61309 0
M  V30 4450 C 398.661 2.71649 3.68742 0
M  V30 4451 N 400.152 2.70239 3.76199 0
M  V30 4452 C 400.887 3.43778 4.58917 0
M  V30 4453 N 400.383 4.26914 5.45633 0
M  V30 4454 N 402.176 3.32487 4.5322 0
M  V30 4455 H 394.327 1.91543 0.917871 0
M  V30 4456 H 396.59 0.826031 0.465162 0
M  V30 4457 H 396.296 2.73059 2.21657 0
M  V30 4458 H 396.17 1.49985 3.46099 0
M  V30 4459 H 398.557 0.706989 2.86506 0
M  V30 4460 H 398.638 1.97143 1.62997 0
M  V30 4461 H 398.282 3.73397 3.44292 0
M  V30 4462 H 398.212 2.44074 4.66622 0
M  V30 4463 H 400.703 2.09912 3.14237 0
M  V30 4464 H 401.016 4.79855 6.05771 0
M  V30 4465 H 399.361 4.31002 5.45218 0
M  V30 4466 H 402.552 2.6698 3.84499 0
M  V30 4467 H 402.725 3.90058 5.17454 0
M  V30 4468 N 396.131 -1.37776 0.765217 0
M  V30 4469 C 397.378 -1.99849 0.326588 0
M  V30 4470 C 397.706 -1.60746 -1.09504 0
M  V30 4471 O 396.961 -0.84202 -1.76659 0
M  V30 4472 C 397.26 -3.5504 0.410053 0
M  V30 4473 C 396.926 -4.13891 1.78899 0
M  V30 4474 C 395.588 -4.29678 2.16635 0
M  V30 4475 C 397.94 -4.46236 2.69301 0
M  V30 4476 C 395.268 -4.7511 3.44221 0
M  V30 4477 C 397.62 -4.93089 3.9629 0
M  V30 4478 C 396.284 -5.07082 4.34078 0
M  V30 4479 H 395.554 -0.7313 0.119507 0
M  V30 4480 H 398.201 -1.64645 0.977968 0
M  V30 4481 H 396.506 -3.90451 -0.324878 0
M  V30 4482 H 398.203 -4.00966 0.0520699 0
M  V30 4483 H 394.793 -4.02026 1.48569 0
M  V30 4484 H 398.977 -4.3363 2.41409 0
M  V30 4485 H 394.233 -4.84129 3.73402 0
M  V30 4486 H 398.407 -5.17084 4.66472 0
M  V30 4487 H 396.034 -5.42046 5.33001 0
M  V30 4488 N 397.609 -0.515225 -1.4894 0
M  V30 4489 C 398.557 0.269115 -2.31038 0
M  V30 4490 C 399.551 0.949443 -1.40292 0
M  V30 4491 O 400.757 0.87551 -1.57273 0
M  V30 4492 H 397.132 0.10565 -0.744542 0
M  V30 4493 H 399.103 -0.443096 -2.95092 0
M  V30 4494 C 397.852 1.31213 -3.21991 0
M  V30 4495 H 397.175 0.798034 -3.91754 0
M  V30 4496 H 398.615 1.83263 -3.82349 0
M  V30 4497 C 397.074 2.33791 -2.42576 0
M  V30 4498 O 397.604 3.3995 -2.14003 0
M  V30 4499 N 395.81 2.06625 -2.0434 0
M  V30 4500 H 395.357 1.20314 -2.27777 0
M  V30 4501 H 395.315 2.75483 -1.51514 0
M  V30 4502 N 399.087 1.5561 -0.249682 0
M  V30 4503 C 400.364 1.90932 0.424761 0
M  V30 4504 C 400.744 1.17078 1.75658 0
M  V30 4505 O 400.092 0.289176 2.26663 0
M  V30 4506 C 400.302 3.43975 0.590109 0
M  V30 4507 C 401.65 4.15281 0.884714 0
M  V30 4508 O 402.674 3.49729 0.67587 0
M  V30 4509 O 401.533 5.31236 1.28259 0
M  V30 4510 H 398.627 0.794815 0.228468 0
M  V30 4511 H 401.173 1.67135 -0.293954 0
M  V30 4512 H 399.945 3.89748 -0.34818 0
M  V30 4513 H 399.568 3.73644 1.35926 0
M  V30 4514 N 400.565 -0.0233959 1.57583 0
M  V30 4515 C 401.814 -0.712133 1.8871 0
M  V30 4516 C 402.127 -1.76217 0.848944 0
M  V30 4517 O 403.333 -2.50389 1.04964 0
M  V30 4518 C 401.789 -1.3177 3.3491 0
M  V30 4519 C 401.397 -0.303715 4.46969 0
M  V30 4520 C 403.141 -1.98598 3.75179 0
M  V30 4521 C 401.048 -0.917945 5.84233 0
M  V30 4522 H 399.978 -0.269735 0.704101 0
M  V30 4523 H 402.629 0.0333114 1.8347 0
M  V30 4524 H 401.011 -2.11304 3.34913 0
M  V30 4525 H 402.185 0.465325 4.58445 0
M  V30 4526 H 400.5 0.2628 4.1557 0
M  V30 4527 H 403.097 -2.45416 4.75053 0
M  V30 4528 H 403.44 -2.80659 3.07468 0
M  V30 4529 H 403.973 -1.25831 3.77374 0
M  V30 4530 H 400.712 -0.136633 6.55358 0
M  V30 4531 H 400.232 -1.65669 5.76467 0
M  V30 4532 H 401.911 -1.4236 6.31144 0
M  V30 4533 N 402.043 -1.548 -0.295768 0
M  V30 4534 C 402.973 -1.89115 -1.36959 0
M  V30 4535 C 403.954 -0.75059 -1.52644 0
M  V30 4536 O 405.139 -1.00678 -1.66065 0
M  V30 4537 C 402.269 -2.14307 -2.73295 0
M  V30 4538 C 401.223 -3.30151 -2.72368 0
M  V30 4539 C 400.549 -3.40772 -4.12042 0
M  V30 4540 C 401.849 -4.67126 -2.33646 0
M  V30 4541 H 403.543 -2.79053 -1.08488 0
M  V30 4542 H 401.089 -1.34266 -0.520443 0
M  V30 4543 H 403.042 -2.36898 -3.48507 0
M  V30 4544 H 401.766 -1.21145 -3.03301 0
M  V30 4545 H 400.425 -3.0749 -1.99613 0
M  V30 4546 H 400.073 -2.45117 -4.39234 0
M  V30 4547 H 399.773 -4.18645 -4.12322 0
M  V30 4548 H 401.297 -3.6563 -4.89027 0
M  V30 4549 H 402.711 -4.89414 -2.98575 0
M  V30 4550 H 401.108 -5.47751 -2.45129 0
M  V30 4551 H 402.178 -4.67489 -1.28772 0
M  V30 4552 N 403.521 0.559213 -1.47345 0
M  V30 4553 C 404.769 1.31388 -1.53563 0
M  V30 4554 C 405.09 1.93985 -0.198678 0
M  V30 4555 O 404.36 1.79825 0.777167 0
M  V30 4556 H 402.94 0.487901 -0.565652 0
M  V30 4557 H 405.602 0.65315 -1.8363 0
M  V30 4558 H 404.698 2.10844 -2.30111 0
M  V30 4559 N 404.999 1.35443 0.805782 0
M  V30 4560 C 406.415 1.15499 1.10146 0
M  V30 4561 C 406.615 -0.0319975 2.01475 0
M  V30 4562 O 405.671 -0.70236 2.42535 0
M  V30 4563 C 406.984 2.45833 1.73166 0
M  V30 4564 C 408.532 2.52047 1.85583 0
M  V30 4565 C 409.007 3.82427 2.52019 0
M  V30 4566 N 410.498 3.83682 2.59504 0
M  V30 4567 C 411.233 4.81294 3.11679 0
M  V30 4568 N 410.729 5.89294 3.64287 0
M  V30 4569 N 412.522 4.6873 3.1024 0
M  V30 4570 H 404.673 2.11469 0.198678 0
M  V30 4571 H 406.936 0.93594 0.150731 0
M  V30 4572 H 406.642 3.32874 1.13526 0
M  V30 4573 H 406.516 2.6044 2.72857 0
M  V30 4574 H 408.903 1.65435 2.44367 0
M  V30 4575 H 408.984 2.41354 0.847455 0
M  V30 4576 H 408.628 4.69437 1.93885 0
M  V30 4577 H 408.558 3.90409 3.53395 0
M  V30 4578 H 411.049 3.05648 2.22234 0
M  V30 4579 H 411.362 6.59768 4.02401 0
M  V30 4580 H 409.707 5.92985 3.62483 0
M  V30 4581 H 412.898 3.83496 2.68419 0
M  V30 4582 H 413.071 5.44965 3.50596 0
M  V30 4583 N 406.477 -1.02803 1.19454 0
M  V30 4584 C 407.427 -2.0945 0.900827 0
M  V30 4585 C 408.411 -1.60335 -0.134715 0
M  V30 4586 O 409.603 -1.76857 0.0710924 0
M  V30 4587 C 406.732 -3.4044 0.442229 0
M  V30 4588 C 405.818 -3.96286 1.51056 0
M  V30 4589 N 406.209 -4.25785 2.73021 0
M  V30 4590 C 404.507 -4.24307 1.37404 0
M  V30 4591 C 405.208 -4.70654 3.41848 0
M  V30 4592 N 404.184 -4.72238 2.69243 0
M  V30 4593 H 407.986 -2.3015 1.82779 0
M  V30 4594 H 405.5 -1.20672 1.08683 0
M  V30 4595 H 407.497 -4.16354 0.21326 0
M  V30 4596 H 406.157 -3.21159 -0.478238 0
M  V30 4597 H 407.168 -4.15041 3.09776 0
M  V30 4598 H 403.845 -4.14285 0.517103 0
M  V30 4599 H 405.235 -5.02392 4.46152 0
M  V30 4600 N 407.956 -0.998596 -1.21925 0
M  V30 4601 C 409.181 -0.696015 -1.95372 0
M  V30 4602 C 409.606 0.733826 -1.73195 0
M  V30 4603 O 408.964 1.50242 -1.01474 0
M  V30 4604 C 409.012 -1.01466 -3.4603 0
M  V30 4605 O 408.116 -0.116415 -4.12236 0
M  V30 4606 H 407.457 -0.259938 -0.611006 0
M  V30 4607 H 409.987 -1.33711 -1.54863 0
M  V30 4608 H 409.997 -0.958855 -3.96573 0
M  V30 4609 H 408.672 -2.05653 -3.61497 0
M  V30 4610 H 407.249 -0.228193 -3.72201 0
M  V30 4611 N 409.434 1.37368 -0.772513 0
M  V30 4612 C 410.85 1.53059 -0.452231 0
M  V30 4613 C 411.05 1.73065 1.03203 0
M  V30 4614 O 410.106 1.75245 1.81784 0
M  V30 4615 C 411.419 2.72659 -1.26797 0
M  V30 4616 C 412.967 2.86521 -1.25995 0
M  V30 4617 C 413.442 4.09105 -2.05905 0
M  V30 4618 N 414.933 4.16219 -2.03263 0
M  V30 4619 C 415.668 5.10107 -2.61875 0
M  V30 4620 N 415.164 6.09547 -3.29278 0
M  V30 4621 N 416.957 5.02596 -2.51701 0
M  V30 4622 H 409.108 1.22634 -1.7342 0
M  V30 4623 H 411.371 0.597206 -0.736239 0
M  V30 4624 H 411.077 2.64343 -2.31982 0
M  V30 4625 H 410.951 3.66363 -0.897672 0
M  V30 4626 H 413.338 2.94308 -0.216081 0
M  V30 4627 H 413.419 1.93774 -1.66989 0
M  V30 4628 H 413.063 4.0208 -3.10313 0
M  V30 4629 H 412.993 5.00968 -1.62292 0
M  V30 4630 H 415.484 3.45012 -1.54192 0
M  V30 4631 H 415.797 6.77718 -3.71374 0
M  V30 4632 H 414.142 6.09824 -3.33377 0
M  V30 4633 H 417.333 4.23855 -1.98657 0
M  V30 4634 H 417.506 5.75582 -2.97673 0
M  V30 4635 N 410.912 0.523116 1.48665 0
M  V30 4636 C 411.859 -0.243398 2.29513 0
M  V30 4637 C 412.829 -0.940139 1.36933 0
M  V30 4638 O 414.014 -0.942503 1.65896 0
M  V30 4639 C 411.154 -1.28855 3.20141 0
M  V30 4640 C 410.267 -0.60135 4.27794 0
M  V30 4641 C 409.402 -1.62884 5.05611 0
M  V30 4642 C 408.441 -0.924726 6.05075 0
M  V30 4643 N 407.578 -1.89744 6.75975 0
M  V30 4644 H 412.418 0.452234 2.94549 0
M  V30 4645 H 409.955 0.234858 1.45213 0
M  V30 4646 H 411.913 -1.90674 3.71079 0
M  V30 4647 H 410.543 -1.95266 2.57043 0
M  V30 4648 H 409.595 0.130623 3.80176 0
M  V30 4649 H 410.907 -0.0481585 4.98777 0
M  V30 4650 H 410.061 -2.32149 5.60528 0
M  V30 4651 H 408.8 -2.21592 4.34452 0
M  V30 4652 H 407.805 -0.217966 5.49368 0
M  V30 4653 H 409.03 -0.343851 6.78229 0
M  V30 4654 H 406.976 -2.47373 6.07571 0
M  V30 4655 H 406.893 -1.3955 7.43009 0
M  V30 4656 H 408.161 -2.58229 7.35485 0
M  V30 4657 N 412.39 -1.55475 0.257931 0
M  V30 4658 C 413.806 -1.59307 -0.0966563 0
M  V30 4659 C 414.006 -1.27514 -1.5602 0
M  V30 4660 O 413.062 -1.02774 -2.30637 0
M  V30 4661 C 414.375 -2.99552 0.262481 0
M  V30 4662 C 415.923 -3.1231 0.207683 0
M  V30 4663 C 416.398 -4.54793 0.541012 0
M  V30 4664 N 417.889 -4.6058 0.491921 0
M  V30 4665 C 418.624 -5.68825 0.722857 0
M  V30 4666 N 418.12 -6.85287 1.0175 0
M  V30 4667 N 419.913 -5.58296 0.652815 0
M  V30 4668 H 412.064 -1.74409 1.21224 0
M  V30 4669 H 414.327 -0.812424 0.48854 0
M  V30 4670 H 414.033 -3.27593 1.27967 0
M  V30 4671 H 413.907 -3.75019 -0.40508 0
M  V30 4672 H 416.294 -2.84044 -0.800195 0
M  V30 4673 H 416.375 -2.39095 0.909255 0
M  V30 4674 H 416.019 -4.83783 1.5465 0
M  V30 4675 H 415.949 -5.26285 -0.18216 0
M  V30 4676 H 418.44 -3.7691 0.273366 0
M  V30 4677 H 418.753 -7.63725 1.18084 0
M  V30 4678 H 417.098 -6.86945 1.05509 0
M  V30 4679 H 420.289 -4.66189 0.422592 0
M  V30 4680 H 420.462 -6.42582 0.836182 0
M  V30 4681 N 413.868 0.0150385 -1.57593 0
M  V30 4682 C 415.114 0.69849 -1.91031 0
M  V30 4683 C 415.469 1.72208 -0.85804 0
M  V30 4684 O 414.762 1.91147 0.131614 0
M  V30 4685 C 414.956 1.39686 -3.28972 0
M  V30 4686 C 414.785 0.442428 -4.47518 0
M  V30 4687 C 413.555 0.0583223 -5.05266 0
M  V30 4688 C 415.753 -0.285072 -5.13509 0
M  V30 4689 N 413.735 -0.895893 -6.07328 0
M  V30 4690 C 415.106 -1.09447 -6.10263 0
M  V30 4691 C 417.161 -0.350518 -4.96665 0
M  V30 4692 C 415.864 -1.96333 -6.91987 0
M  V30 4693 C 417.89 -1.20655 -5.78962 0
M  V30 4694 C 417.252 -2.00383 -6.75297 0
M  V30 4695 H 413.351 0.22926 -0.747639 0
M  V30 4696 H 415.935 -0.0417748 -1.94655 0
M  V30 4697 H 414.106 2.1075 -3.2625 0
M  V30 4698 H 415.838 2.03381 -3.49883 0
M  V30 4699 H 412.593 0.423506 -4.71703 0
M  V30 4700 H 413.017 -1.36792 -6.63036 0
M  V30 4701 H 417.659 0.251596 -4.22051 0
M  V30 4702 H 415.377 -2.57618 -7.65936 0
M  V30 4703 H 418.963 -1.2609 -5.67972 0
M  V30 4704 H 417.843 -2.65552 -7.3787 0
M  V30 4705 N 415.346 1.54954 0.287554 0
M  V30 4706 C 416.256 1.8991 1.37736 0
M  V30 4707 C 417.272 0.794701 1.54792 0
M  V30 4708 O 418.448 1.09243 1.69198 0
M  V30 4709 C 415.513 2.15108 2.71899 0
M  V30 4710 C 414.574 3.38752 2.63715 0
M  V30 4711 C 413.807 3.62739 3.91479 0
M  V30 4712 O 414.03 2.89492 4.91478 0
M  V30 4713 O 412.964 4.56267 3.92561 0
M  V30 4714 H 416.79 2.82652 1.11092 0
M  V30 4715 H 414.375 1.41315 0.484807 0
M  V30 4716 H 416.257 2.32806 3.51254 0
M  V30 4717 H 414.932 1.25551 2.9836 0
M  V30 4718 H 413.839 3.26405 1.82786 0
M  V30 4719 H 415.172 4.28483 2.42205 0
M  V30 4720 N 416.824 -0.551391 1.4764 0
M  V30 4721 C 418.24 -0.877887 1.33287 0
M  V30 4722 C 418.44 -1.98817 0.327721 0
M  V30 4723 O 417.496 -2.51171 -0.258695 0
M  V30 4724 C 418.809 -1.26563 2.72768 0
M  V30 4725 C 420.357 -1.37673 2.81097 0
M  V30 4726 C 420.832 -1.79799 4.21232 0
M  V30 4727 N 422.323 -1.8694 4.23802 0
M  V30 4728 C 423.058 -2.20876 5.29151 0
M  V30 4729 N 422.554 -2.53386 6.448 0
M  V30 4730 N 424.347 -2.217 5.16532 0
M  V30 4731 H 416.498 0.18153 2.11623 0
M  V30 4732 H 418.761 0.0185514 0.947818 0
M  V30 4733 H 418.467 -0.523591 3.47781 0
M  V30 4734 H 418.341 -2.22052 3.04915 0
M  V30 4735 H 420.728 -2.10956 2.06353 0
M  V30 4736 H 420.809 -0.40357 2.52596 0
M  V30 4737 H 420.453 -1.07083 4.96483 0
M  V30 4738 H 420.383 -2.78128 4.4716 0
M  V30 4739 H 422.874 -1.64179 3.40373 0
M  V30 4740 H 423.187 -2.78325 7.20941 0
M  V30 4741 H 421.532 -2.50953 6.48111 0
M  V30 4742 H 424.723 -1.95745 4.25207 0
M  V30 4743 H 424.896 -2.47818 5.98741 0
M  V30 4744 N 418.302 -1.35869 -0.798587 0
M  V30 4745 C 419.549 -1.29588 -1.55606 0
M  V30 4746 C 419.877 0.127456 -1.94082 0
M  V30 4747 O 419.132 1.09461 -1.62225 0
M  V30 4748 C 419.431 -2.1556 -2.85077 0
M  V30 4749 C 419.097 -3.6424 -2.65781 0
M  V30 4750 C 417.759 -4.04766 -2.60227 0
M  V30 4751 C 420.111 -4.58547 -2.47758 0
M  V30 4752 C 417.439 -5.37753 -2.34603 0
M  V30 4753 C 419.791 -5.91742 -2.23662 0
M  V30 4754 C 418.455 -6.31402 -2.16534 0
M  V30 4755 H 417.725 -0.474197 -0.569402 0
M  V30 4756 H 420.372 -1.67839 -0.922086 0
M  V30 4757 H 418.677 -1.70216 -3.52893 0
M  V30 4758 H 420.374 -2.08031 -3.42818 0
M  V30 4759 H 416.964 -3.32086 -2.70956 0
M  V30 4760 H 421.148 -4.28117 -2.51056 0
M  V30 4761 H 416.404 -5.67474 -2.2756 0
M  V30 4762 H 420.578 -6.6439 -2.08708 0
M  V30 4763 H 418.205 -7.34381 -1.96441 0
M  V30 4764 N 419.78 1.02168 -1.19998 0
M  V30 4765 C 421.026 1.75945 -1.00852 0
M  V30 4766 C 421.359 1.88702 0.458828 0
M  V30 4767 O 420.634 1.40911 1.34069 0
M  V30 4768 C 420.917 3.18154 -1.68671 0
M  V30 4769 C 420.77 3.13224 -3.22817 0
M  V30 4770 C 422.089 4.16711 -1.41561 0
M  V30 4771 H 419.208 0.638673 -0.367785 0
M  V30 4772 H 421.85 1.19222 -1.4794 0
M  V30 4773 H 420 3.66586 -1.28636 0
M  V30 4774 H 421.672 2.72635 -3.72112 0
M  V30 4775 H 419.915 2.50751 -3.53986 0
M  V30 4776 H 420.586 4.13728 -3.65422 0
M  V30 4777 H 423.062 3.76913 -1.76284 0
M  V30 4778 H 421.938 5.14391 -1.91553 0
M  V30 4779 H 422.199 4.40774 -0.342193 0
M  V30 4780 N 421.258 1.00505 1.21394 0
M  V30 4781 C 422.208 0.536503 2.21598 0
M  V30 4782 C 423.192 -0.401914 1.55799 0
M  V30 4783 O 424.384 -0.226757 1.75541 0
M  V30 4784 C 421.513 -0.135446 3.43033 0
M  V30 4785 C 420.599 0.823992 4.16018 0
M  V30 4786 N 420.99 1.97683 4.6557 0
M  V30 4787 C 419.288 0.642387 4.4135 0
M  V30 4788 C 419.989 2.58003 5.21354 0
M  V30 4789 N 418.965 1.86162 5.1073 0
M  V30 4790 H 422.767 1.41557 2.57563 0
M  V30 4791 H 420.281 0.868878 1.37202 0
M  V30 4792 H 422.278 -0.488584 4.14027 0
M  V30 4793 H 420.938 -1.01049 3.08576 0
M  V30 4794 H 421.949 2.3572 4.61147 0
M  V30 4795 H 418.626 -0.185578 4.17087 0
M  V30 4796 H 420.016 3.555 5.70149 0
M  V30 4797 N 422.737 -1.36956 0.779787 0
M  V30 4798 C 423.962 -2.04283 0.358224 0
M  V30 4799 C 424.387 -1.58422 -1.01411 0
M  V30 4800 O 423.745 -0.748179 -1.65142 0
M  V30 4801 C 423.793 -3.58152 0.419479 0
M  V30 4802 O 422.897 -4.08342 -0.577142 0
M  V30 4803 H 422.238 -0.645967 0.153698 0
M  V30 4804 H 424.768 -1.75108 1.05822 0
M  V30 4805 H 424.778 -4.07041 0.279636 0
M  V30 4806 H 423.453 -3.90886 1.42061 0
M  V30 4807 H 422.03 -3.70751 -0.399755 0
M  V30 4808 N 424.215 -0.530993 -1.48385 0
M  V30 4809 C 425.125 0.23503 -2.3342 0
M  V30 4810 C 426.141 0.93801 -1.46552 0
M  V30 4811 O 427.317 0.912745 -1.7953 0
M  V30 4812 C 424.382 1.26778 -3.22689 0
M  V30 4813 C 423.443 0.575038 -4.25431 0
M  V30 4814 C 422.676 1.55858 -5.10435 0
M  V30 4815 O 422.899 2.79129 -4.97437 0
M  V30 4816 O 421.833 1.09742 -5.91811 0
M  V30 4817 H 425.659 -0.461794 -3.00169 0
M  V30 4818 H 423.244 -0.291903 -1.46521 0
M  V30 4819 H 425.126 1.86457 -3.77904 0
M  V30 4820 H 423.801 1.94699 -2.586 0
M  V30 4821 H 422.708 -0.0622782 -3.74048 0
M  V30 4822 H 424.041 -0.062253 -4.92161 0
M  V30 4823 N 425.693 1.55336 -0.266172 0
M  V30 4824 C 426.641 2.23587 0.641228 0
M  V30 4825 C 427.635 1.22986 1.16494 0
M  V30 4826 O 428.841 1.40943 1.1196 0
M  V30 4827 H 425.216 0.717452 0.225315 0
M  V30 4828 H 427.187 2.9837 0.0426561 0
M  V30 4829 C 425.936 2.96369 1.81826 0
M  V30 4830 H 425.259 3.73563 1.42445 0
M  V30 4831 H 426.699 3.47459 2.42998 0
M  V30 4832 C 425.158 2.0133 2.70125 0
M  V30 4833 O 425.688 1.55875 3.70224 0
M  V30 4834 N 423.894 1.6802 2.37102 0
M  V30 4835 H 423.441 2.05181 1.55751 0
M  V30 4836 H 423.399 1.047 2.96454 0
M  V30 4837 N 427.171 -0.0066808 1.57599 0
M  V30 4838 C 428.103 -1.02827 2.04839 0
M  V30 4839 C 429.116 -1.31108 0.965113 0
M  V30 4840 O 430.305 -1.28202 1.24203 0
M  V30 4841 C 427.405 -2.36464 2.42771 0
M  V30 4842 C 426.578 -2.27219 3.73751 0
M  V30 4843 C 425.637 -3.43489 3.98625 0
M  V30 4844 O 424.663 -3.21976 4.69382 0
M  V30 4845 N 425.865 -4.66116 3.46 0
M  V30 4846 H 428.63 -0.625455 2.93101 0
M  V30 4847 H 426.191 -0.194198 1.60731 0
M  V30 4848 H 428.183 -3.13008 2.56531 0
M  V30 4849 H 426.753 -2.68512 1.60063 0
M  V30 4850 H 425.973 -1.35629 3.70133 0
M  V30 4851 H 427.261 -2.18208 4.59633 0
M  V30 4852 H 426.659 -4.86493 2.88688 0
M  V30 4853 H 425.216 -5.39949 3.65101 0
M  V30 4854 N 428.649 -1.55105 -0.279332 0
M  V30 4855 C 429.599 -1.83937 -1.34727 0
M  V30 4856 C 430.583 -0.69785 -1.44979 0
M  V30 4857 O 431.775 -0.95904 -1.48766 0
M  V30 4858 C 428.904 -2.1092 -2.70864 0
M  V30 4859 C 427.99 -3.31314 -2.64748 0
M  V30 4860 N 428.381 -4.51371 -2.2825 0
M  V30 4861 C 426.679 -3.33777 -2.95819 0
M  V30 4862 C 427.38 -5.33447 -2.31969 0
M  V30 4863 N 426.356 -4.71697 -2.7019 0
M  V30 4864 H 430.158 -2.74309 -1.05506 0
M  V30 4865 H 427.672 -1.54896 -0.487959 0
M  V30 4866 H 429.669 -2.2973 -3.47893 0
M  V30 4867 H 428.329 -1.21828 -3.00979 0
M  V30 4868 H 429.34 -4.77584 -2.00335 0
M  V30 4869 H 426.017 -2.54858 -3.30687 0
M  V30 4870 H 427.407 -6.39424 -2.06365 0
M  V30 4871 N 430.127 0.543554 -1.4793 0
M  V30 4872 C 431.057 1.65888 -1.64327 0
M  V30 4873 C 432.038 1.62818 -0.492383 0
M  V30 4874 O 433.223 1.80226 -0.723338 0
M  V30 4875 C 430.353 3.04506 -1.67013 0
M  V30 4876 C 429.307 3.2243 -2.81466 0
M  V30 4877 C 428.633 4.61972 -2.69233 0
M  V30 4878 C 429.933 3.06496 -4.22915 0
M  V30 4879 H 431.627 1.52421 -2.57698 0
M  V30 4880 H 429.173 0.731849 -1.24016 0
M  V30 4881 H 431.126 3.82391 -1.77074 0
M  V30 4882 H 429.85 3.18964 -0.70212 0
M  V30 4883 H 428.509 2.46957 -2.70938 0
M  V30 4884 H 428.157 4.73247 -1.7043 0
M  V30 4885 H 427.857 4.74911 -3.46025 0
M  V30 4886 H 429.381 5.41974 -2.81242 0
M  V30 4887 H 430.795 3.74186 -4.34348 0
M  V30 4888 H 429.192 3.30938 -5.006 0
M  V30 4889 H 430.262 2.03077 -4.40327 0
M  V30 4890 N 431.605 1.3629 0.791371 0
M  V30 4891 C 432.851 1.30605 1.55146 0
M  V30 4892 C 433.184 -0.115042 1.93859 0
M  V30 4893 O 432.459 -1.06798 1.62556 0
M  V30 4894 C 432.742 2.22692 2.82985 0
M  V30 4895 C 432.595 3.73489 2.50651 0
M  V30 4896 C 433.914 2.13588 3.84796 0
M  V30 4897 H 431.033 0.475761 0.562868 0
M  V30 4898 H 433.675 1.66825 0.909358 0
M  V30 4899 H 431.825 1.91933 3.37778 0
M  V30 4900 H 433.497 4.14758 2.01924 0
M  V30 4901 H 431.74 3.93021 1.83622 0
M  V30 4902 H 432.411 4.3333 3.41949 0
M  V30 4903 H 434.887 2.40659 3.39445 0
M  V30 4904 H 433.763 2.80195 4.71998 0
M  V30 4905 H 434.024 1.12256 4.27611 0
M  V30 4906 N 433.083 -1.0153 1.20538 0
M  V30 4907 C 434.308 -1.79283 1.04271 0
M  V30 4908 C 434.733 -1.8372 -0.403544 0
M  V30 4909 O 434.091 -1.27321 -1.2907 0
M  V30 4910 C 434.139 -3.21535 1.63241 0
M  V30 4911 O 433.243 -4.03099 0.870908 0
M  V30 4912 H 432.584 -0.55293 0.367647 0
M  V30 4913 H 435.114 -1.27696 1.59859 0
M  V30 4914 H 435.124 -3.72243 1.6703 0
M  V30 4915 H 433.799 -3.1762 2.68497 0
M  V30 4916 H 432.376 -3.61693 0.907323 0
M  V30 4917 N 434.561 -1.01147 -1.20859 0
M  V30 4918 C 435.972 -0.730205 -1.71828 0
M  V30 4919 C 436.323 0.751662 -1.8123 0
M  V30 4920 O 435.448 1.58686 -1.47132 0
M  V30 4921 C 436.043 -1.31885 -3.12077 0
M  V30 4922 C 434.602 -1.08656 -3.60376 0
M  V30 4923 C 433.749 -1.42769 -2.37723 0
M  V30 4924 H 436.7 -1.18158 -1.05945 0
M  V30 4925 H 436.721 -0.706793 -3.73878 0
M  V30 4926 H 436.233 -2.39737 -3.05201 0
M  V30 4927 H 434.334 -0.0254814 -3.72591 0
M  V30 4928 H 434.447 -1.76301 -4.45483 0
M  V30 4929 H 432.811 -0.846603 -2.40218 0
M  V30 4930 H 433.594 -2.51666 -2.33493 0
M  V30 4931 N 436.039 1.36541 -0.78704 0
M  V30 4932 C 436.949 2.3387 -0.184896 0
M  V30 4933 C 437.965 1.60927 0.661697 0
M  V30 4934 O 439.141 1.92927 0.57804 0
M  V30 4935 C 436.206 3.40122 0.672145 0
M  V30 4936 C 435.267 4.28867 -0.19267 0
M  V30 4937 C 434.5 5.30045 0.623561 0
M  V30 4938 O 434.723 5.39232 1.8597 0
M  V30 4939 O 433.657 6.01895 0.0247068 0
M  V30 4940 H 437.483 2.87126 -0.989562 0
M  V30 4941 H 435.068 1.38969 -0.548455 0
M  V30 4942 H 436.95 4.05093 1.16094 0
M  V30 4943 H 435.625 2.89169 1.45474 0
M  V30 4944 H 434.532 3.66945 -0.728166 0
M  V30 4945 H 435.865 4.83165 -0.938722 0
M  V30 4946 N 437.518 0.538854 1.48102 0
M  V30 4947 C 438.481 -0.208395 2.28251 0
M  V30 4948 C 439.481 -0.859656 1.35892 0
M  V30 4949 O 440.671 -0.71834 1.58699 0
M  V30 4950 C 437.803 -1.30252 3.15035 0
M  V30 4951 H 438.996 0.495407 2.9578 0
M  V30 4952 H 436.549 0.295112 1.53489 0
M  V30 4953 H 437.284 -2.0393 2.52157 0
M  V30 4954 H 437.069 -0.840551 3.82985 0
M  V30 4955 H 438.559 -1.82787 3.75471 0
M  V30 4956 N 438.996 -1.55193 0.274407 0
M  V30 4957 C 439.926 -2.25471 -0.607032 0
M  V30 4958 C 440.907 -1.24461 -1.15946 0
M  V30 4959 O 442.092 -1.53179 -1.19373 0
M  V30 4960 C 439.222 -2.97526 -1.79153 0
M  V30 4961 C 438.176 -4.05459 -1.37067 0
M  V30 4962 C 437.502 -4.65084 -2.6382 0
M  V30 4963 C 438.802 -5.19691 -0.521389 0
M  V30 4964 H 440.496 -2.99393 -0.0209343 0
M  V30 4965 H 438.042 -1.43997 -0.00862866 0
M  V30 4966 H 439.995 -3.45402 -2.41404 0
M  V30 4967 H 438.719 -2.21138 -2.40344 0
M  V30 4968 H 437.378 -3.58393 -0.771355 0
M  V30 4969 H 437.026 -3.85365 -3.23268 0
M  V30 4970 H 436.726 -5.37961 -2.36372 0
M  V30 4971 H 438.25 -5.15708 -3.26921 0
M  V30 4972 H 439.664 -5.63623 -1.04889 0
M  V30 4973 H 438.061 -5.99126 -0.341825 0
M  V30 4974 H 439.131 -4.82713 0.46 0
M  V30 4975 N 440.474 -0.00167713 -1.576 0
M  V30 4976 C 441.751 0.719951 -1.81868 0
M  V30 4977 C 442.131 1.91895 -0.879747 0
M  V30 4978 O 441.479 2.28389 0.0711423 0
M  V30 4979 C 441.689 1.12409 -3.30402 0
M  V30 4980 C 443.037 1.52724 -3.96182 0
M  V30 4981 O 444.061 1.21784 -3.34734 0
M  V30 4982 O 442.92 2.10265 -5.04431 0
M  V30 4983 H 440.014 0.350707 -0.748955 0
M  V30 4984 H 442.56 -0.0272597 -1.69678 0
M  V30 4985 H 441.332 0.269532 -3.90371 0
M  V30 4986 H 440.955 1.93035 -3.47596 0
M  V30 4987 N 441.952 1.55251 0.271103 0
M  V30 4988 C 443.199 1.75946 1.00245 0
M  V30 4989 C 443.527 0.561611 1.86215 0
M  V30 4990 O 442.782 -0.455832 1.90317 0
M  V30 4991 C 443.081 3.01879 1.91321 0
M  V30 4992 C 442.747 4.34337 1.21086 0
M  V30 4993 C 441.409 4.70338 1.01666 0
M  V30 4994 C 443.761 5.16325 0.71119 0
M  V30 4995 C 441.089 5.8588 0.310099 0
M  V30 4996 C 443.441 6.32597 0.0182157 0
M  V30 4997 C 442.105 6.67236 -0.18768 0
M  V30 4998 H 441.375 0.643833 0.366824 0
M  V30 4999 H 444.022 1.89521 0.27458 0
M  V30 5000 H 442.327 2.83212 2.70736 0
M  V30 5001 H 444.024 3.15088 2.48033 0
M  V30 5002 H 440.614 4.06043 1.37213 0
M  V30 5003 H 444.798 4.88987 0.848844 0
M  V30 5004 H 440.054 6.1124 0.139873 0
M  V30 5005 H 444.228 6.9538 -0.376711 0
M  V30 5006 H 441.855 7.56618 -0.73715 0
M  V30 5007 N 443.43 -0.535701 1.48216 0
M  V30 5008 C 444.36 -1.65014 1.65204 0
M  V30 5009 C 445.341 -1.62554 0.501011 0
M  V30 5010 O 446.526 -1.7984 0.732886 0
M  V30 5011 C 443.656 -3.03616 1.68626 0
M  V30 5012 C 442.61 -3.20932 2.83172 0
M  V30 5013 C 441.936 -4.60537 2.71679 0
M  V30 5014 C 443.236 -3.04249 4.24535 0
M  V30 5015 H 444.93 -1.51053 2.58502 0
M  V30 5016 H 442.476 -0.725262 1.24402 0
M  V30 5017 H 444.429 -3.81446 1.79099 0
M  V30 5018 H 443.153 -3.18587 0.719026 0
M  V30 5019 H 441.812 -2.45517 2.72244 0
M  V30 5020 H 441.46 -4.72336 1.72937 0
M  V30 5021 H 441.16 -4.73069 3.48538 0
M  V30 5022 H 442.684 -5.40475 2.84112 0
M  V30 5023 H 444.098 -3.71877 4.36326 0
M  V30 5024 H 442.495 -3.28278 5.02348 0
M  V30 5025 H 443.565 -2.00739 4.41397 0
M  V30 5026 N 444.908 -1.36708 -0.784132 0
M  V30 5027 C 446.185 -1.21776 -1.53069 0
M  V30 5028 C 446.565 0.193876 -2.10208 0
M  V30 5029 O 445.913 1.20012 -1.94446 0
M  V30 5030 C 446.123 -2.30395 -2.62143 0
M  V30 5031 C 447.471 -2.67325 -3.29882 0
M  V30 5032 O 448.495 -2.29478 -2.7243 0
M  V30 5033 O 447.354 -3.32485 -4.33724 0
M  V30 5034 H 444.448 -0.474459 -0.677361 0
M  V30 5035 H 446.994 -1.48454 -0.82216 0
M  V30 5036 H 445.766 -3.2498 -2.17953 0
M  V30 5037 H 445.389 -2.05112 -3.40609 0
M  V30 5038 N 446.386 1.0089 -1.21074 0
M  V30 5039 C 447.333 2.09588 -0.966512 0
M  V30 5040 C 448.303 1.65761 0.106089 0
M  V30 5041 O 449.488 1.90758 -0.0402287 0
M  V30 5042 C 446.628 3.40958 -0.533058 0
M  V30 5043 C 445.741 3.9822 -1.67467 0
M  V30 5044 C 444.876 5.17682 -1.19076 0
M  V30 5045 C 443.915 5.67043 -2.30496 0
M  V30 5046 N 443.052 6.77759 -1.83267 0
M  V30 5047 H 447.892 2.29815 -1.89708 0
M  V30 5048 H 445.429 1.12689 -0.945489 0
M  V30 5049 H 447.387 4.1637 -0.263019 0
M  V30 5050 H 446.017 3.20781 0.360505 0
M  V30 5051 H 445.069 3.1983 -2.05944 0
M  V30 5052 H 446.381 4.3085 -2.51336 0
M  V30 5053 H 445.535 6.00326 -0.877151 0
M  V30 5054 H 444.274 4.86635 -0.322066 0
M  V30 5055 H 443.279 4.82999 -2.62664 0
M  V30 5056 H 444.504 6.00121 -3.17855 0
M  V30 5057 H 442.45 6.48527 -0.987356 0
M  V30 5058 H 442.367 7.09624 -2.60711 0
M  V30 5059 H 443.635 7.63949 -1.54928 0
M  V30 5060 N 447.864 1.01787 1.20321 0
M  V30 5061 C 448.794 0.609625 2.25401 0
M  V30 5062 C 449.775 -0.375951 1.65893 0
M  V30 5063 O 450.96 -0.261101 1.92437 0
M  V30 5064 C 448.09 -0.0515995 3.47262 0
M  V30 5065 C 447.044 0.855095 4.19371 0
M  V30 5066 C 446.37 0.0595757 5.34667 0
M  V30 5067 C 447.67 2.16374 4.75373 0
M  V30 5068 H 449.364 1.48803 2.59804 0
M  V30 5069 H 446.91 0.716934 1.24884 0
M  V30 5070 H 448.863 -0.348764 4.19954 0
M  V30 5071 H 447.587 -0.964726 3.12027 0
M  V30 5072 H 446.246 1.13628 3.48546 0
M  V30 5073 H 445.894 -0.85524 4.95676 0
M  V30 5074 H 445.594 0.663406 5.83843 0
M  V30 5075 H 447.118 -0.231105 6.10162 0
M  V30 5076 H 448.532 1.92885 5.39878 0
M  V30 5077 H 446.929 2.71853 5.34991 0
M  V30 5078 H 447.999 2.82589 3.94045 0
M  V30 5079 N 449.342 -1.36122 0.79427 0
M  V30 5080 C 450.272 -2.32551 0.210328 0
M  V30 5081 C 451.253 -1.56884 -0.657386 0
M  V30 5082 O 452.438 -1.85014 -0.590207 0
M  V30 5083 C 449.568 -3.41128 -0.651819 0
M  V30 5084 C 448.522 -4.27842 0.116395 0
M  V30 5085 C 447.848 -5.2763 -0.86666 0
M  V30 5086 C 449.148 -5.05647 1.30837 0
M  V30 5087 H 450.842 -2.81636 1.01594 0
M  V30 5088 H 448.388 -1.35407 0.489981 0
M  V30 5089 H 450.341 -4.07581 -1.07031 0
M  V30 5090 H 449.065 -2.90622 -1.49019 0
M  V30 5091 H 447.724 -3.62952 0.515915 0
M  V30 5092 H 447.372 -4.73395 -1.70019 0
M  V30 5093 H 447.072 -5.86514 -0.35705 0
M  V30 5094 H 448.596 -5.96955 -1.28361 0
M  V30 5095 H 450.01 -5.65113 0.965393 0
M  V30 5096 H 448.407 -5.73967 1.75161 0
M  V30 5097 H 449.477 -4.37006 2.10128 0
M  V30 5098 N 450.82 -0.546701 -1.47814 0
M  V30 5099 C 452.236 -0.205717 -1.58269 0
M  V30 5100 C 452.436 1.29153 -1.54667 0
M  V30 5101 O 451.492 2.07098 -1.44453 0
M  V30 5102 C 452.805 -0.823065 -2.89216 0
M  V30 5103 C 454.353 -0.793328 -3.02779 0
M  V30 5104 C 454.828 -1.38955 -4.36412 0
M  V30 5105 N 456.319 -1.35227 -4.43021 0
M  V30 5106 C 457.054 -1.78333 -5.44963 0
M  V30 5107 N 456.55 -2.29246 -6.53772 0
M  V30 5108 N 458.343 -1.69467 -5.35945 0
M  V30 5109 H 450.494 -1.5196 -1.48398 0
M  V30 5110 H 452.757 -0.633078 -0.705632 0
M  V30 5111 H 452.463 -1.8749 -2.97558 0
M  V30 5112 H 452.337 -0.309915 -3.75925 0
M  V30 5113 H 454.724 0.249784 -2.94041 0
M  V30 5114 H 454.805 -1.34412 -2.17639 0
M  V30 5115 H 454.449 -2.43168 -4.45906 0
M  V30 5116 H 454.379 -0.814291 -5.20266 0
M  V30 5117 H 456.87 -0.979739 -3.64979 0
M  V30 5118 H 457.183 -2.60089 -7.27718 0
M  V30 5119 H 455.528 -2.3325 -6.5469 0
M  V30 5120 H 458.719 -1.29477 -4.49837 0
M  V30 5121 H 458.892 -2.03381 -6.15256 0
M  V30 5122 N 452.299 1.55045 -0.282633 0
M  V30 5123 C 453.529 2.03872 0.334635 0
M  V30 5124 C 453.937 1.16018 1.49454 0
M  V30 5125 O 453.28 0.174449 1.8287 0
M  V30 5126 C 453.342 3.48791 0.870905 0
M  V30 5127 C 453.006 4.56715 -0.161338 0
M  V30 5128 C 454.003 5.10513 -0.983466 0
M  V30 5129 C 451.688 5.01417 -0.297745 0
M  V30 5130 C 453.682 6.07538 -1.92811 0
M  V30 5131 C 451.369 5.98265 -1.24586 0
M  V30 5132 C 452.367 6.51208 -2.05954 0
M  V30 5133 O 452.055 7.46162 -2.99162 0
M  V30 5134 H 451.787 0.671324 0.0793742 0
M  V30 5135 H 454.341 2.01169 -0.41473 0
M  V30 5136 H 452.571 3.48758 1.67047 0
M  V30 5137 H 454.26 3.80916 1.40207 0
M  V30 5138 H 455.026 4.76785 -0.888856 0
M  V30 5139 H 450.905 4.59849 0.325604 0
M  V30 5140 H 454.449 6.48787 -2.56363 0
M  V30 5141 H 450.346 6.31412 -1.34126 0
M  V30 5142 H 451.114 7.63903 -2.93929 0
M  V30 5143 N 453.777 0.010035 1.57597 0
M  V30 5144 C 455.054 -0.710296 1.82248 0
M  V30 5145 C 455.434 -1.91426 0.889911 0
M  V30 5146 O 454.782 -2.28424 -0.0590292 0
M  V30 5147 C 454.992 -1.10655 3.30993 0
M  V30 5148 C 456.34 -1.50621 3.96987 0
M  V30 5149 O 457.364 -1.20007 3.35375 0
M  V30 5150 O 456.223 -2.07587 5.05539 0
M  V30 5151 H 453.317 -0.34673 0.750804 0
M  V30 5152 H 455.863 0.0362578 1.69661 0
M  V30 5153 H 454.635 -0.248826 3.90508 0
M  V30 5154 H 454.258 -1.91189 3.48615 0
M  V30 5155 N 455.255 -1.55392 -0.262866 0
M  V30 5156 C 456.205 -1.85355 -1.32768 0
M  V30 5157 C 457.189 -0.713188 -1.44231 0
M  V30 5158 O 458.381 -0.974765 -1.47741 0
M  V30 5159 C 455.51 -2.13781 -2.68612 0
M  V30 5160 C 454.596 -3.34104 -2.61219 0
M  V30 5161 N 454.987 -4.53766 -2.2345 0
M  V30 5162 C 453.285 -3.36895 -2.92263 0
M  V30 5163 C 453.986 -5.35877 -2.26298 0
M  V30 5164 N 452.962 -4.74536 -2.65172 0
M  V30 5165 H 456.764 -2.75413 -1.02591 0
M  V30 5166 H 454.278 -1.55405 -0.471503 0
M  V30 5167 H 456.275 -2.33407 -3.45437 0
M  V30 5168 H 454.935 -1.25013 -2.99669 0
M  V30 5169 H 455.946 -4.79682 -1.95258 0
M  V30 5170 H 452.623 -2.58351 -3.27965 0
M  V30 5171 H 454.013 -6.41577 -1.99572 0
M  V30 5172 N 456.733 0.527833 -1.48498 0
M  V30 5173 C 457.665 1.6482 -1.5927 0
M  V30 5174 C 458.678 1.55659 -0.476869 0
M  V30 5175 O 459.867 1.62081 -0.747806 0
M  V30 5176 C 456.967 3.0348 -1.50842 0
M  V30 5177 C 456.14 3.381 -2.77502 0
M  V30 5178 C 455.199 4.5605 -2.62497 0
M  V30 5179 O 454.225 4.59165 -3.36387 0
M  V30 5180 N 455.427 5.54353 -1.72257 0
M  V30 5181 H 458.192 1.56015 -2.55889 0
M  V30 5182 H 455.753 0.715152 -1.45249 0
M  V30 5183 H 457.745 3.80264 -1.38496 0
M  V30 5184 H 456.315 3.06352 -0.621887 0
M  V30 5185 H 455.535 2.50473 -3.04396 0
M  V30 5186 H 456.823 3.58017 -3.61527 0
M  V30 5187 H 456.221 5.54617 -1.11431 0
M  V30 5188 H 454.778 6.30347 -1.65849 0
M  V30 5189 N 458.211 1.37122 0.776871 0
M  V30 5190 C 459.436 1.354 1.57104 0
M  V30 5191 C 459.861 -0.0595562 1.88006 0
M  V30 5192 O 459.219 -1.03514 1.48844 0
M  V30 5193 C 459.267 2.19472 2.8612 0
M  V30 5194 O 458.371 1.59582 3.80273 0
M  V30 5195 H 457.712 0.462869 0.476076 0
M  V30 5196 H 460.242 1.80577 0.961932 0
M  V30 5197 H 460.252 2.32502 3.35271 0
M  V30 5198 H 458.927 3.22222 2.62956 0
M  V30 5199 H 457.504 1.55564 3.38902 0
M  V30 5200 N 459.689 -1.00246 1.21608 0
M  V30 5201 C 461.105 -1.26435 0.973975 0
M  V30 5202 C 461.305 -1.98642 -0.338143 0
M  V30 5203 O 460.361 -2.29026 -1.06317 0
M  V30 5204 C 461.674 -2.08551 2.16626 0
M  V30 5205 C 463.222 -2.21769 2.20879 0
M  V30 5206 C 463.697 -3.07267 3.39633 0
M  V30 5207 N 465.188 -3.14855 3.39736 0
M  V30 5208 C 465.923 -3.81274 4.28273 0
M  V30 5209 N 465.419 -4.497 5.27012 0
M  V30 5210 N 467.212 -3.7794 4.16074 0
M  V30 5211 H 459.363 -0.518089 2.05984 0
M  V30 5212 H 461.626 -0.291368 0.902113 0
M  V30 5213 H 461.332 -1.62847 3.11727 0
M  V30 5214 H 461.206 -3.09303 2.15897 0
M  V30 5215 H 463.593 -2.66691 1.26332 0
M  V30 5216 H 463.674 -1.20478 2.25652 0
M  V30 5217 H 463.318 -2.63047 4.34475 0
M  V30 5218 H 463.248 -4.08678 3.321 0
M  V30 5219 H 465.739 -2.66147 2.6828 0
M  V30 5220 H 466.052 -4.98092 5.90867 0
M  V30 5221 H 464.397 -4.48479 5.30935 0
M  V30 5222 H 467.588 -3.23638 3.38195 0
M  V30 5223 H 467.761 -4.29424 4.85282 0
M  V30 5224 N 461.167 -1.02423 -1.1978 0
M  V30 5225 C 462.097 -0.62157 -2.25075 0
M  V30 5226 C 463.078 0.367148 -1.6609 0
M  V30 5227 O 464.263 0.250892 -1.92573 0
M  V30 5228 C 461.393 0.0331826 -3.47284 0
M  V30 5229 C 460.347 -0.877323 -4.18912 0
M  V30 5230 C 459.673 -0.0879296 -5.34628 0
M  V30 5231 C 460.973 -2.18892 -4.74219 0
M  V30 5232 H 462.667 -1.50179 -2.59011 0
M  V30 5233 H 460.213 -0.723547 -1.24502 0
M  V30 5234 H 462.166 0.326488 -4.20133 0
M  V30 5235 H 460.89 0.948164 -3.12534 0
M  V30 5236 H 459.549 -1.15475 -3.47938 0
M  V30 5237 H 459.197 0.828941 -4.96123 0
M  V30 5238 H 458.897 -0.694359 -5.83483 0
M  V30 5239 H 460.421 0.198743 -6.10276 0
M  V30 5240 H 461.835 -1.95746 -5.38847 0
M  V30 5241 H 460.232 -2.74686 -5.33542 0
M  V30 5242 H 461.302 -2.84674 -3.92541 0
M  V30 5243 N 462.645 1.35699 -0.801477 0
M  V30 5244 C 463.873 2.03157 -0.391768 0
M  V30 5245 C 464.288 1.60412 0.995668 0
M  V30 5246 O 463.645 0.799228 1.64069 0
M  V30 5247 C 463.696 3.58566 -0.459671 0
M  V30 5248 O 463.417 3.99756 -1.7924 0
M  V30 5249 C 464.918 4.4328 -0.0421205 0
M  V30 5250 H 462.138 0.651688 -0.159825 0
M  V30 5251 H 464.682 1.73426 -1.08368 0
M  V30 5252 H 462.837 3.86963 0.183939 0
M  V30 5253 H 463.251 4.94387 -1.75162 0
M  V30 5254 H 464.725 5.51821 -0.140754 0
M  V30 5255 H 465.202 4.27383 1.01196 0
M  V30 5256 H 465.808 4.20168 -0.658687 0
M  V30 5257 N 464.123 0.554532 1.47522 0
M  V30 5258 C 465.086 -0.184174 2.28459 0
M  V30 5259 C 466.086 -0.845195 1.36796 0
M  V30 5260 O 467.276 -0.701467 1.59452 0
M  V30 5261 C 464.408 -1.26903 3.16399 0
M  V30 5262 H 465.601 0.526751 2.95238 0
M  V30 5263 H 463.154 0.311375 1.53167 0
M  V30 5264 H 463.889 -2.01244 2.54306 0
M  V30 5265 H 463.674 -0.799883 3.83854 0
M  V30 5266 H 465.164 -1.78794 3.77389 0
M  V30 5267 N 465.601 -1.54893 0.290851 0
M  V30 5268 C 467.017 -1.59476 -0.0628432 0
M  V30 5269 C 467.217 -1.30795 -1.5328 0
M  V30 5270 O 466.273 -1.07644 -2.28406 0
M  V30 5271 C 467.586 -2.98928 0.325962 0
M  V30 5272 C 469.134 -3.11799 0.273882 0
M  V30 5273 C 469.609 -4.53544 0.637359 0
M  V30 5274 N 471.1 -4.59433 0.589507 0
M  V30 5275 C 471.835 -5.67164 0.84335 0
M  V30 5276 N 471.331 -6.82975 1.16263 0
M  V30 5277 N 473.124 -5.56786 0.771091 0
M  V30 5278 H 465.275 -1.71798 1.24896 0
M  V30 5279 H 467.538 -0.801879 0.505663 0
M  V30 5280 H 467.244 -3.24805 1.34887 0
M  V30 5281 H 467.118 -3.75793 -0.325441 0
M  V30 5282 H 469.505 -2.85677 -0.739765 0
M  V30 5283 H 469.586 -2.37112 0.959766 0
M  V30 5284 H 469.23 -4.80394 1.64877 0
M  V30 5285 H 469.16 -5.26553 -0.0704866 0
M  V30 5286 H 471.651 -3.76245 0.353252 0
M  V30 5287 H 471.964 -7.61048 1.34257 0
M  V30 5288 H 470.309 -6.84552 1.20057 0
M  V30 5289 H 473.5 -4.65187 0.521383 0
M  V30 5290 H 473.673 -6.40664 0.972295 0
M  V30 5291 N 467.08 -0.0183926 -1.57589 0
M  V30 5292 C 467.99 0.982943 -2.13015 0
M  V30 5293 C 469.006 1.36443 -1.07979 0
M  V30 5294 O 470.182 1.44802 -1.3998 0
M  V30 5295 C 467.247 2.25024 -2.63752 0
M  V30 5296 C 466.308 1.93018 -3.83461 0
M  V30 5297 C 465.541 3.13706 -4.31769 0
M  V30 5298 O 465.764 4.2601 -3.79305 0
M  V30 5299 O 464.698 2.96629 -5.23732 0
M  V30 5300 H 468.524 0.541709 -2.9883 0
M  V30 5301 H 466.109 0.201565 -1.48034 0
M  V30 5302 H 467.991 2.99441 -2.96502 0
M  V30 5303 H 466.666 2.68349 -1.81026 0
M  V30 5304 H 465.573 1.16019 -3.55655 0
M  V30 5305 H 466.906 1.54516 -4.67317 0
M  V30 5306 N 468.558 1.5553 0.254621 0
M  V30 5307 C 469.521 1.88872 1.29846 0
M  V30 5308 C 470.521 0.764591 1.41459 0
M  V30 5309 O 471.711 1.03265 1.40293 0
M  V30 5310 C 468.843 2.11032 2.67728 0
M  V30 5311 H 470.036 2.82201 1.01502 0
M  V30 5312 H 467.589 1.48303 0.493556 0
M  V30 5313 H 468.324 1.20146 3.01223 0
M  V30 5314 H 468.109 2.92895 2.60682 0
M  V30 5315 H 469.599 2.38038 3.43115 0
M  V30 5316 N 470.036 -0.519951 1.48776 0
M  V30 5317 C 470.969 -1.64053 1.58625 0
M  V30 5318 C 471.947 -1.5664 0.43618 0
M  V30 5319 O 473.131 -1.76969 0.649159 0
M  V30 5320 C 470.258 -3.02497 1.52359 0
M  V30 5321 C 469.304 -3.28235 2.72331 0
M  V30 5322 S 470.137 -3.13414 4.34203 0
M  V30 5323 C 471.293 -4.54287 4.30551 0
M  V30 5324 H 471.526 -1.5545 2.53422 0
M  V30 5325 H 469.059 -0.703681 1.37433 0
M  V30 5326 H 471.017 -3.82336 1.4943 0
M  V30 5327 H 469.678 -3.08531 0.588824 0
M  V30 5328 H 468.871 -4.29256 2.64113 0
M  V30 5329 H 468.473 -2.56085 2.72574 0
M  V30 5330 H 470.765 -5.46006 4.01103 0
M  V30 5331 H 471.708 -4.67558 5.31785 0
M  V30 5332 H 472.116 -4.34079 3.60881 0
M  V30 5333 N 471.514 -1.37532 -0.769588 0
M  V30 5334 C 472.424 -1.35668 -1.91393 0
M  V30 5335 C 473.44 -0.255954 -1.72107 0
M  V30 5336 O 474.616 -0.491704 -1.95305 0
M  V30 5337 C 471.681 -1.16481 -3.26547 0
M  V30 5338 C 470.742 -2.36212 -3.58472 0
M  V30 5339 C 469.975 -2.17932 -4.87177 0
M  V30 5340 O 470.198 -1.1647 -5.58382 0
M  V30 5341 O 469.132 -3.06167 -5.18214 0
M  V30 5342 H 472.958 -2.32055 -1.95918 0
M  V30 5343 H 470.543 -1.18284 -0.912641 0
M  V30 5344 H 472.425 -1.07778 -4.07384 0
M  V30 5345 H 471.1 -0.231687 -3.2287 0
M  V30 5346 H 470.007 -2.50488 -2.77861 0
M  V30 5347 H 471.34 -3.281 -3.66894 0
M  V30 5348 N 472.992 0.995999 -1.22138 0
M  V30 5349 C 473.942 2.06988 -0.956042 0
M  V30 5350 C 474.926 1.60636 0.0921576 0
M  V30 5351 O 476.118 1.76607 -0.117958 0
M  V30 5352 C 473.247 3.39148 -0.532335 0
M  V30 5353 C 472.333 3.92142 -1.61509 0
M  V30 5354 N 472.724 4.18397 -2.84214 0
M  V30 5355 C 471.022 4.20514 -1.48606 0
M  V30 5356 C 471.723 4.61425 -3.54206 0
M  V30 5357 N 470.699 4.64934 -2.81669 0
M  V30 5358 H 474.501 2.25223 -1.88816 0
M  V30 5359 H 472.015 1.17748 -1.11845 0
M  V30 5360 H 474.012 4.15642 -0.323574 0
M  V30 5361 H 472.672 3.22314 0.392921 0
M  V30 5362 H 473.683 4.06682 -3.20671 0
M  V30 5363 H 470.36 4.12769 -0.626762 0
M  V30 5364 H 471.75 4.90387 -4.59315 0
M  V30 5365 N 474.47 1.03057 1.19235 0
M  V30 5366 C 475.881 0.757449 1.70645 0
M  V30 5367 C 476.232 -0.722735 1.82403 0
M  V30 5368 O 475.357 -1.56325 1.49638 0
M  V30 5369 C 475.952 1.36833 3.09939 0
M  V30 5370 C 474.511 1.14375 3.58602 0
M  V30 5371 C 473.658 1.46533 2.35422 0
M  V30 5372 H 476.609 1.19828 1.04052 0
M  V30 5373 H 476.63 0.766184 3.72706 0
M  V30 5374 H 476.142 2.44562 3.01349 0
M  V30 5375 H 474.243 0.0847542 3.72504 0
M  V30 5376 H 474.356 1.83366 4.42622 0
M  V30 5377 H 472.72 0.884712 2.38841 0
M  V30 5378 H 473.503 2.55349 2.2946 0
M  V30 5379 N 475.948 -1.35272 0.808662 0
M  V30 5380 C 477.178 -2.02652 0.401953 0
M  V30 5381 C 477.586 -1.6108 -0.992462 0
M  V30 5382 O 476.929 -0.804984 -1.65123 0
M  V30 5383 C 476.991 -3.57174 0.408246 0
M  V30 5384 C 476.655 -4.22019 1.75353 0
M  V30 5385 C 477.652 -4.43552 2.71215 0
M  V30 5386 C 475.337 -4.59093 2.03811 0
M  V30 5387 C 477.331 -5.01264 3.93717 0
M  V30 5388 C 475.018 -5.16519 3.26576 0
M  V30 5389 C 476.016 -5.37546 4.21347 0
M  V30 5390 O 475.704 -5.93761 5.41944 0
M  V30 5391 H 475.436 -0.656495 0.161216 0
M  V30 5392 H 477.99 -1.73829 1.0942 0
M  V30 5393 H 476.22 -3.85197 -0.340608 0
M  V30 5394 H 477.909 -4.05893 0.0235623 0
M  V30 5395 H 478.675 -4.15288 2.50522 0
M  V30 5396 H 474.554 -4.42039 1.30854 0
M  V30 5397 H 478.098 -5.17592 4.67701 0
M  V30 5398 H 473.995 -5.4421 3.47139 0
M  V30 5399 H 474.763 -6.1221 5.43269 0
M  V30 5400 N 477.426 -0.562348 -1.47226 0
M  V30 5401 C 478.673 -0.0402165 -2.0246 0
M  V30 5402 C 479.001 1.31169 -1.43614 0
M  V30 5403 O 478.256 1.86805 -0.5833 0
M  V30 5404 C 478.555 0.0969817 -3.57268 0
M  V30 5405 C 478.221 -1.1847 -4.35058 0
M  V30 5406 C 476.883 -1.53588 -4.56031 0
M  V30 5407 C 479.235 -2.03378 -4.79882 0
M  V30 5408 C 476.563 -2.73452 -5.19077 0
M  V30 5409 C 478.915 -3.2245 -5.44251 0
M  V30 5410 C 477.579 -3.57876 -5.63455 0
M  V30 5411 H 476.849 -0.0147163 -0.740854 0
M  V30 5412 H 479.496 -0.734895 -1.76838 0
M  V30 5413 H 477.801 0.87466 -3.81912 0
M  V30 5414 H 479.498 0.516408 -3.97661 0
M  V30 5415 H 476.088 -0.90126 -4.19017 0
M  V30 5416 H 480.272 -1.77553 -4.63453 0
M  V30 5417 H 475.528 -3.01062 -5.32139 0
M  V30 5418 H 479.702 -3.88526 -5.77945 0
M  V30 5419 H 477.329 -4.50849 -6.12078 0
M  V30 5420 N 478.904 1.54736 -0.299062 0
M  V30 5421 C 480.134 2.04215 0.312992 0
M  V30 5422 C 480.542 1.17596 1.48215 0
M  V30 5423 O 479.885 0.193835 1.82674 0
M  V30 5424 C 479.947 3.49696 0.833862 0
M  V30 5425 C 479.611 4.56518 -0.20977 0
M  V30 5426 C 480.608 5.09442 -1.03756 0
M  V30 5427 C 478.293 5.01073 -0.35091 0
M  V30 5428 C 480.287 6.05459 -1.99244 0
M  V30 5429 C 477.974 5.9691 -1.30924 0
M  V30 5430 C 478.972 6.48987 -2.1285 0
M  V30 5431 O 478.66 7.42947 -3.07059 0
M  V30 5432 H 478.392 0.672128 0.0722494 0
M  V30 5433 H 480.946 2.00718 -0.436043 0
M  V30 5434 H 479.176 3.5051 1.63339 0
M  V30 5435 H 480.865 3.82381 1.36159 0
M  V30 5436 H 481.631 4.75816 -0.939376 0
M  V30 5437 H 477.51 4.60168 0.276813 0
M  V30 5438 H 481.054 6.46031 -2.63229 0
M  V30 5439 H 476.951 6.29953 -1.40815 0
M  V30 5440 H 477.719 7.60743 -3.02015 0
M  V30 5441 N 480.382 0.0267497 1.57577 0
M  V30 5442 C 481.61 -0.662661 1.96001 0
M  V30 5443 C 482.025 -1.65799 0.903117 0
M  V30 5444 O 481.382 -1.82135 -0.115317 0
M  V30 5445 C 481.433 -1.37112 3.34488 0
M  V30 5446 O 481.154 -0.415683 4.36123 0
M  V30 5447 C 482.655 -2.15257 3.8753 0
M  V30 5448 H 479.875 -0.18287 0.6456 0
M  V30 5449 H 482.419 0.0858116 2.0432 0
M  V30 5450 H 480.574 -2.07101 3.27395 0
M  V30 5451 H 480.988 -0.918496 5.16395 0
M  V30 5452 H 482.462 -2.60285 4.86781 0
M  V30 5453 H 482.939 -2.99063 3.21649 0
M  V30 5454 H 483.545 -1.50231 3.97883 0
M  V30 5455 N 481.861 -1.55662 -0.24637 0
M  V30 5456 C 483.107 -1.77782 -0.975779 0
M  V30 5457 C 483.44 -0.592103 -1.84953 0
M  V30 5458 O 482.715 0.409588 -1.90138 0
M  V30 5459 C 482.998 -3.09788 -1.83584 0
M  V30 5460 C 482.851 -4.38764 -0.990241 0
M  V30 5461 C 484.17 -3.38029 -2.81823 0
M  V30 5462 H 481.289 -0.646789 -0.353317 0
M  V30 5463 H 483.931 -1.88398 -0.246248 0
M  V30 5464 H 482.081 -3.00869 -2.45784 0
M  V30 5465 H 483.753 -4.59675 -0.386897 0
M  V30 5466 H 481.996 -4.32798 -0.294626 0
M  V30 5467 H 482.667 -5.27514 -1.62584 0
M  V30 5468 H 485.143 -3.46915 -2.2976 0
M  V30 5469 H 484.019 -4.3161 -3.39122 0
M  V30 5470 H 484.28 -2.58968 -3.58313 0
M  V30 5471 N 483.339 0.512053 -1.4905 0
M  V30 5472 C 484.585 1.26874 -1.58212 0
M  V30 5473 C 484.918 1.9241 -0.263073 0
M  V30 5474 O 484.193 1.80181 0.732476 0
M  V30 5475 C 484.476 2.34428 -2.73341 0
M  V30 5476 C 484.329 1.73466 -4.15006 0
M  V30 5477 C 485.648 3.36073 -2.84154 0
M  V30 5478 H 482.767 0.459924 -0.575881 0
M  V30 5479 H 485.409 0.568587 -1.81293 0
M  V30 5480 H 483.559 2.94146 -2.53792 0
M  V30 5481 H 485.231 1.17661 -4.46042 0
M  V30 5482 H 483.474 1.03921 -4.21168 0
M  V30 5483 H 484.145 2.51426 -4.91415 0
M  V30 5484 H 486.621 2.86332 -3.01916 0
M  V30 5485 H 485.497 4.08703 -3.66406 0
M  V30 5486 H 485.758 3.97725 -1.93048 0
M  V30 5487 N 484.817 1.37938 0.762283 0
M  V30 5488 C 485.764 1.34467 1.87583 0
M  V30 5489 C 486.734 0.208633 1.64785 0
M  V30 5490 O 487.919 0.399494 1.86571 0
M  V30 5491 C 485.059 1.16692 3.24772 0
M  V30 5492 C 484.172 2.39608 3.59461 0
M  V30 5493 C 483.307 2.14631 4.85908 0
M  V30 5494 C 482.346 3.33364 5.13357 0
M  V30 5495 N 481.483 3.07877 6.30996 0
M  V30 5496 H 486.323 2.29669 1.89885 0
M  V30 5497 H 483.86 1.14116 0.928219 0
M  V30 5498 H 485.818 1.04405 4.03925 0
M  V30 5499 H 484.448 0.251333 3.2182 0
M  V30 5500 H 483.5 2.626 2.75219 0
M  V30 5501 H 484.812 3.28128 3.75678 0
M  V30 5502 H 483.966 1.99429 5.72986 0
M  V30 5503 H 482.705 1.23463 4.71814 0
M  V30 5504 H 481.71 3.49094 4.24751 0
M  V30 5505 H 482.935 4.25395 5.29354 0
M  V30 5506 H 480.881 2.19348 6.18241 0
M  V30 5507 H 480.798 3.89944 6.47673 0
M  V30 5508 H 482.066 2.96313 7.20985 0
M  V30 5509 N 486.295 -0.989507 1.22664 0
M  V30 5510 C 487.572 -1.70326 0.961688 0
M  V30 5511 C 487.952 -2.04537 -0.522279 0
M  V30 5512 O 487.3 -1.73136 -1.49118 0
M  V30 5513 C 487.51 -2.95135 1.86269 0
M  V30 5514 C 488.858 -3.67842 2.12078 0
M  V30 5515 O 489.882 -3.0515 1.83745 0
M  V30 5516 O 488.741 -4.80644 2.60083 0
M  V30 5517 H 485.835 -0.743589 0.361946 0
M  V30 5518 H 488.381 -1.04555 1.33665 0
M  V30 5519 H 487.153 -2.66382 2.8663 0
M  V30 5520 H 486.776 -3.68645 1.48952 0
M  V30 5521 N 487.773 -1.03688 -1.18687 0
M  V30 5522 C 488.705 -0.582696 -2.21669 0
M  V30 5523 C 489.718 0.345656 -1.59088 0
M  V30 5524 O 490.907 0.140776 -1.77944 0
M  V30 5525 C 488.007 0.169204 -3.38477 0
M  V30 5526 C 487.18 -0.766079 -4.30639 0
M  V30 5527 C 486.239 -0.0581541 -5.26168 0
M  V30 5528 O 485.265 -0.687346 -5.65035 0
M  V30 5529 N 486.467 1.20981 -5.67753 0
M  V30 5530 H 489.232 -1.46843 -2.61261 0
M  V30 5531 H 486.793 -0.916896 -1.33434 0
M  V30 5532 H 488.785 0.652543 -3.99405 0
M  V30 5533 H 487.355 0.956435 -2.97609 0
M  V30 5534 H 486.575 -1.42935 -3.67373 0
M  V30 5535 H 487.863 -1.40146 -4.89118 0
M  V30 5536 H 487.261 1.74159 -5.38224 0
M  V30 5537 H 485.818 1.6375 -6.30896 0
M  V30 5538 N 489.251 1.34841 -0.815825 0
M  V30 5539 C 490.214 2.27959 -0.238185 0
M  V30 5540 C 491.214 1.49983 0.579816 0
M  V30 5541 O 492.404 1.69617 0.396953 0
M  V30 5542 C 489.536 3.34314 0.666876 0
M  V30 5543 H 490.729 2.80558 -1.05958 0
M  V30 5544 H 488.282 1.44852 -0.587156 0
M  V30 5545 H 489.017 2.86916 1.5116 0
M  V30 5546 H 488.802 3.92014 0.0819106 0
M  V30 5547 H 490.292 4.0379 1.06506 0
M  V30 5548 N 490.729 0.570148 1.46925 0
M  V30 5549 C 492.145 0.23087 1.57921 0
M  V30 5550 C 492.345 -1.26676 1.56702 0
M  V30 5551 O 491.401 -2.04774 1.47729 0
M  V30 5552 C 492.714 0.868973 2.8787 0
M  V30 5553 C 494.262 0.841397 3.01479 0
M  V30 5554 C 494.737 1.45881 4.34146 0
M  V30 5555 N 496.228 1.42258 4.40814 0
M  V30 5556 C 496.963 1.8698 5.42057 0
M  V30 5557 N 496.459 2.39618 6.50042 0
M  V30 5558 N 498.252 1.77972 5.33181 0
M  V30 5559 H 490.403 1.54301 1.45962 0
M  V30 5560 H 492.666 0.644224 0.69547 0
M  V30 5561 H 492.372 1.922 2.94537 0
M  V30 5562 H 492.246 0.369682 3.75384 0
M  V30 5563 H 494.633 -0.202973 2.94401 0
M  V30 5564 H 494.714 1.37858 2.15474 0
M  V30 5565 H 494.358 2.50231 4.4198 0
M  V30 5566 H 494.288 0.896958 5.18905 0
M  V30 5567 H 496.779 1.03768 3.63374 0
M  V30 5568 H 497.092 2.71633 7.23488 0
M  V30 5569 H 495.437 2.43636 6.50897 0
M  V30 5570 H 498.628 1.36617 4.4772 0
M  V30 5571 H 498.801 2.13143 6.11943 0
M  V30 5572 N 492.207 -1.54576 0.307264 0
M  V30 5573 C 493.14 -2.19946 -0.608195 0
M  V30 5574 C 494.118 -1.17096 -1.12815 0
M  V30 5575 O 495.302 -1.45766 -1.19518 0
M  V30 5576 C 492.429 -2.84826 -1.8328 0
M  V30 5577 C 491.475 -4.01256 -1.44554 0
M  V30 5578 S 492.308 -5.33197 -0.49612 0
M  V30 5579 C 493.464 -6.01563 -1.72838 0
M  V30 5580 H 493.697 -2.97253 -0.0528544 0
M  V30 5581 H 491.23 -1.54129 0.0913837 0
M  V30 5582 H 493.188 -3.22832 -2.53554 0
M  V30 5583 H 491.849 -2.07353 -2.35931 0
M  V30 5584 H 491.042 -4.45457 -2.35762 0
M  V30 5585 H 490.644 -3.6484 -0.822671 0
M  V30 5586 H 492.936 -6.22751 -2.6681 0
M  V30 5587 H 493.879 -6.9552 -1.32882 0
M  V30 5588 H 494.287 -5.31279 -1.90795 0
M  V30 5589 N 493.685 -0.035106 -1.57561 0
M  V30 5590 C 494.933 0.64096 -1.91667 0
M  V30 5591 C 495.254 1.72323 -0.912681 0
M  V30 5592 O 494.524 1.95849 0.0449089 0
M  V30 5593 H 493.104 0.239743 -0.707483 0
M  V30 5594 H 495.766 -0.084321 -1.94718 0
M  V30 5595 H 494.862 1.08987 -2.92452 0
M  V30 5596 N 495.163 1.55791 0.238111 0
M  V30 5597 C 496.388 1.8244 0.986432 0
M  V30 5598 C 496.813 0.613314 1.7782 0
M  V30 5599 O 496.171 -0.437767 1.75935 0
M  V30 5600 C 496.219 3.06917 1.893 0
M  V30 5601 O 495.323 2.84449 2.98601 0
M  V30 5602 H 494.664 0.601975 0.280218 0
M  V30 5603 H 497.194 2.02987 0.256437 0
M  V30 5604 H 497.204 3.36583 2.30598 0
M  V30 5605 H 495.879 3.947 1.31091 0
M  V30 5606 H 494.456 2.65972 2.61368 0
M  V30 5607 N 496.642 -0.504142 1.49319 0
M  V30 5608 C 497.867 -1.28729 1.62615 0
M  V30 5609 C 498.292 -1.85752 0.296309 0
M  V30 5610 O 497.65 -1.65704 -0.735649 0
M  V30 5611 C 497.698 -2.39561 2.69524 0
M  V30 5612 O 496.802 -3.43324 2.28478 0
M  V30 5613 H 496.143 -0.380172 0.544395 0
M  V30 5614 H 498.673 -0.603872 1.95485 0
M  V30 5615 H 498.683 -2.8537 2.91595 0
M  V30 5616 H 497.358 -1.97423 3.66056 0
M  V30 5617 H 495.935 -3.03455 2.16725 0
M  V30 5618 N 498.12 -1.38341 -0.754957 0
M  V30 5619 C 499.345 -1.37882 -1.5493 0
M  V30 5620 C 499.77 0.0296385 -1.88077 0
M  V30 5621 O 499.128 1.01133 -1.50472 0
M  V30 5622 C 499.176 -2.23996 -2.82592 0
M  V30 5623 O 498.28 -1.65612 -3.77686 0
M  V30 5624 H 497.621 -0.470384 -0.468652 0
M  V30 5625 H 500.151 -1.82084 -0.933082 0
M  V30 5626 H 500.161 -2.37806 -3.3153 0
M  V30 5627 H 498.836 -3.26365 -2.57796 0
M  V30 5628 H 497.413 -1.60936 -3.36384 0
M  V30 5629 N 499.598 0.982988 -1.23187 0
M  V30 5630 C 500.531 2.07302 -0.953993 0
M  V30 5631 C 501.509 1.62249 0.106753 0
M  V30 5632 O 502.693 1.88481 -0.0269525 0
M  V30 5633 C 499.82 3.35873 -0.436716 0
M  V30 5634 C 498.866 3.99862 -1.48367 0
M  V30 5635 S 499.699 4.39443 -3.06023 0
M  V30 5636 C 500.855 5.7117 -2.55959 0
M  V30 5637 H 501.088 2.30554 -1.87702 0
M  V30 5638 H 498.621 1.11883 -1.06403 0
M  V30 5639 H 500.579 4.10244 -0.144872 0
M  V30 5640 H 499.24 3.10634 0.465351 0
M  V30 5641 H 498.433 4.92471 -1.07182 0
M  V30 5642 H 498.035 3.31857 -1.72473 0
M  V30 5643 H 500.327 6.47977 -1.97818 0
M  V30 5644 H 501.27 6.17194 -3.47098 0
M  V30 5645 H 501.678 5.29046 -1.96902 0
M  V30 5646 N 501.076 1.04316 1.18135 0
M  V30 5647 C 502.487 0.775505 1.69832 0
M  V30 5648 C 502.838 -0.703348 1.8316 0
M  V30 5649 O 501.963 -1.54729 1.51287 0
M  V30 5650 C 502.558 1.40112 3.0847 0
M  V30 5651 C 501.117 1.18172 3.57368 0
M  V30 5652 C 500.264 1.49022 2.33854 0
M  V30 5653 H 503.215 1.20925 1.02775 0
M  V30 5654 H 503.236 0.805672 3.71873 0
M  V30 5655 H 502.748 2.47744 2.98738 0
M  V30 5656 H 500.849 0.124258 3.72393 0
M  V30 5657 H 500.962 1.8805 4.40652 0
M  V30 5658 H 499.326 0.909995 2.37889 0
M  V30 5659 H 500.109 2.57768 2.26738 0
M  V30 5660 N 502.554 -1.34406 0.822964 0
M  V30 5661 C 503.802 -1.97892 0.410245 0
M  V30 5662 C 504.123 -1.65567 -1.03017 0
M  V30 5663 O 503.393 -0.94642 -1.71522 0
M  V30 5664 H 501.973 -0.732049 0.148707 0
M  V30 5665 H 504.635 -1.64043 1.05242 0
M  V30 5666 H 503.731 -3.07579 0.529284 0
M  V30 5667 N 504.032 -0.577932 -1.46621 0
M  V30 5668 C 505.28 -0.061566 -2.02006 0
M  V30 5669 C 505.601 1.30117 -1.4524 0
M  V30 5670 O 504.871 1.85313 -0.63529 0
M  V30 5671 H 503.451 -0.0197692 -0.746738 0
M  V30 5672 H 506.113 -0.752631 -1.79782 0
M  V30 5673 H 505.209 0.0110238 -3.12098 0
M  V30 5674 N 505.51 1.54411 -0.315457 0
M  V30 5675 C 506.735 2.05299 0.294496 0
M  V30 5676 C 507.16 1.19052 1.4563 0
M  V30 5677 O 506.518 0.197804 1.80218 0
M  V30 5678 C 506.566 3.5345 0.714549 0
M  V30 5679 O 505.67 3.70175 1.81781 0
M  V30 5680 H 505.011 0.661743 0.0547019 0
M  V30 5681 H 507.541 1.99327 -0.461508 0
M  V30 5682 H 507.551 3.9557 0.999426 0
M  V30 5683 H 506.226 4.1568 -0.135244 0
M  V30 5684 H 504.803 3.3996 1.53236 0
M  V30 5685 N 506.988 0.0434614 1.5754 0
M  V30 5686 C 508.216 -0.641835 1.96693 0
M  V30 5687 C 508.631 -1.64832 0.920652 0
M  V30 5688 O 507.988 -1.82247 -0.095993 0
M  V30 5689 C 508.039 -1.33557 3.35924 0
M  V30 5690 O 507.76 -0.369403 4.3654 0
M  V30 5691 C 509.261 -2.11135 3.89791 0
M  V30 5692 H 506.481 -0.176013 0.647503 0
M  V30 5693 H 509.025 0.107478 2.04217 0
M  V30 5694 H 507.18 -2.03617 3.29574 0
M  V30 5695 H 507.594 -0.863674 5.1734 0
M  V30 5696 H 509.068 -2.55107 4.89514 0
M  V30 5697 H 509.545 -2.95634 3.24803 0
M  V30 5698 H 510.151 -1.46002 3.99454 0
M  V30 5699 N 508.466 -1.55915 -0.229846 0
M  V30 5700 C 509.877 -1.68809 -0.797531 0
M  V30 5701 C 510.228 -0.643995 -1.8533 0
M  V30 5702 O 509.353 0.206492 -2.15413 0
M  V30 5703 C 509.948 -3.06043 -1.45338 0
M  V30 5704 C 508.507 -3.20819 -1.96856 0
M  V30 5705 C 507.654 -2.6472 -0.825736 0
M  V30 5706 H 510.605 -1.58699 -0.00533733 0
M  V30 5707 H 510.626 -3.01438 -2.32196 0
M  V30 5708 H 510.138 -3.82012 -0.684743 0
M  V30 5709 H 508.239 -2.49704 -2.76548 0
M  V30 5710 H 508.352 -4.27937 -2.15423 0
M  V30 5711 H 506.716 -2.22985 -1.23084 0
M  V30 5712 H 507.499 -3.43229 -0.0699019 0
M  V30 5713 N 509.944 0.496216 -1.49584 0
M  V30 5714 C 511.19 1.25189 -1.59548 0
M  V30 5715 C 511.523 1.9212 -0.283466 0
M  V30 5716 O 510.798 1.80947 0.713324 0
M  V30 5717 C 511.081 2.31516 -2.75812 0
M  V30 5718 C 510.934 1.69054 -4.16822 0
M  V30 5719 C 512.253 3.3304 -2.87702 0
M  V30 5720 H 509.372 0.45379 -0.580727 0
M  V30 5721 H 512.014 0.549327 -1.81886 0
M  V30 5722 H 510.164 2.91438 -2.56897 0
M  V30 5723 H 511.836 1.12923 -4.47265 0
M  V30 5724 H 510.079 0.994485 -4.22247 0
M  V30 5725 H 510.75 2.462 -4.94054 0
M  V30 5726 H 513.226 2.83114 -3.04936 0
M  V30 5727 H 512.102 4.04794 -3.7072 0
M  V30 5728 H 512.363 3.95655 -1.97255 0
M  V30 5729 N 511.423 1.38739 0.74761 0
M  V30 5730 C 512.648 1.38702 1.54197 0
M  V30 5731 C 513.073 -0.019664 1.8809 0
M  V30 5732 O 512.431 -1.00333 1.51006 0
M  V30 5733 C 512.479 2.25492 2.814 0
M  V30 5734 O 511.583 1.67613 3.76802 0
M  V30 5735 H 510.924 0.472863 0.466151 0
M  V30 5736 H 513.454 1.82577 0.923413 0
M  V30 5737 H 513.464 2.39561 3.30264 0
M  V30 5738 H 512.139 3.27727 2.56062 0
M  V30 5739 H 510.716 1.62718 3.35526 0
M  V30 5740 N 512.901 -0.976442 1.23707 0
M  V30 5741 C 514.126 -1.75875 1.09922 0
M  V30 5742 C 514.551 -1.84911 -0.34489 0
M  V30 5743 O 513.909 -1.31363 -1.24954 0
M  V30 5744 C 513.957 -3.16179 1.73388 0
M  V30 5745 O 513.061 -4.00124 0.99871 0
M  V30 5746 H 512.402 -0.540954 0.385052 0
M  V30 5747 H 514.932 -1.22546 1.6384 0
M  V30 5748 H 514.942 -3.66741 1.78788 0
M  V30 5749 H 513.617 -3.08917 2.78466 0
M  V30 5750 H 512.194 -3.58624 1.02193 0
M  V30 5751 N 514.379 -1.04941 -1.1758 0
M  V30 5752 C 515.342 -0.652456 -2.19717 0
M  V30 5753 C 516.342 0.294745 -1.58076 0
M  V30 5754 O 517.532 0.0789579 -1.74021 0
M  V30 5755 C 514.664 0.0420712 -3.40874 0
M  V30 5756 H 515.857 -1.55642 -2.5635 0
M  V30 5757 H 513.41 -0.842995 -1.31618 0
M  V30 5758 H 514.145 0.95943 -3.09783 0
M  V30 5759 H 513.93 -0.638844 -3.86861 0
M  V30 5760 H 515.42 0.306 -4.16477 0
M  V30 5761 N 515.857 1.33968 -0.830081 0
M  V30 5762 C 516.805 2.31301 -0.245435 0
M  V30 5763 C 517.799 1.57734 0.617762 0
M  V30 5764 O 519.005 1.72674 0.508303 0
M  V30 5765 H 515.38 0.749552 -0.0606316 0
M  V30 5766 H 517.351 2.78129 -1.08105 0
M  V30 5767 C 516.1 3.42961 0.572084 0
M  V30 5768 H 515.423 3.99714 -0.0828118 0
M  V30 5769 H 516.863 4.13286 0.94715 0
M  V30 5770 C 515.322 2.88043 1.74737 0
M  V30 5771 O 515.852 2.83508 2.8458 0
M  V30 5772 N 514.058 2.44768 1.56642 0
M  V30 5773 H 513.605 2.48656 0.672901 0
M  V30 5774 H 513.563 2.08375 2.3543 0
M  V30 5775 N 517.335 0.585699 1.46312 0
M  V30 5776 C 518.268 -0.194257 2.27372 0
M  V30 5777 C 519.246 -0.894116 1.3581 0
M  V30 5778 O 520.43 -0.907402 1.65222 0
M  V30 5779 C 517.557 -1.27901 3.13622 0
M  V30 5780 C 516.603 -0.684666 4.20969 0
M  V30 5781 S 517.436 0.490745 5.33247 0
M  V30 5782 C 518.592 -0.595137 6.23064 0
M  V30 5783 H 518.825 0.493515 2.93175 0
M  V30 5784 H 516.358 0.372666 1.49835 0
M  V30 5785 H 518.316 -1.90008 3.63878 0
M  V30 5786 H 516.977 -1.93875 2.47126 0
M  V30 5787 H 516.17 -1.50015 4.81156 0
M  V30 5788 H 515.772 -0.139204 3.73741 0
M  V30 5789 H 518.064 -1.48002 6.61137 0
M  V30 5790 H 519.007 -0.0299446 7.08094 0
M  V30 5791 H 519.415 -0.900627 5.57269 0
M  V30 5792 N 518.813 -1.54241 0.323641 0
M  V30 5793 C 519.746 -2.20579 -0.584833 0
M  V30 5794 C 520.724 -1.18286 -1.11567 0
M  V30 5795 O 521.908 -1.47025 -1.17966 0
M  V30 5796 C 519.035 -2.86754 -1.80249 0
M  V30 5797 C 518.081 -4.02767 -1.4029 0
M  V30 5798 S 518.914 -5.33693 -0.439539 0
M  V30 5799 C 520.07 -6.03362 -1.66448 0
M  V30 5800 H 520.303 -2.97292 -0.0213238 0
M  V30 5801 H 517.836 -1.54024 0.107726 0
M  V30 5802 H 519.794 -3.25503 -2.50116 0
M  V30 5803 H 518.455 -2.09844 -2.33719 0
M  V30 5804 H 517.648 -4.47933 -2.31024 0
M  V30 5805 H 517.25 -3.65692 -0.783928 0
M  V30 5806 H 519.542 -6.25546 -2.6019 0
M  V30 5807 H 520.485 -6.9689 -1.25498 0
M  V30 5808 H 520.893 -5.33273 -1.85149 0
M  V30 5809 N 520.291 -0.0518155 -1.57515 0
M  V30 5810 C 521.516 0.634896 -1.97443 0
M  V30 5811 C 521.941 1.63546 -0.929207 0
M  V30 5812 O 521.299 1.80981 0.107484 0
M  V30 5813 C 521.347 1.29765 -3.36442 0
M  V30 5814 O 520.451 2.41333 -3.34413 0
M  V30 5815 H 519.792 0.164994 -0.643174 0
M  V30 5816 H 522.322 -0.120407 -2.04245 0
M  V30 5817 H 522.332 1.64918 -3.73184 0
M  V30 5818 H 521.007 0.564361 -4.12053 0
M  V30 5819 H 519.584 2.08122 -3.09418 0
M  V30 5820 N 521.769 1.56035 0.221574 0
M  V30 5821 C 523.017 1.78693 0.944102 0
M  V30 5822 C 523.338 0.620317 1.8487 0
M  V30 5823 O 522.608 -0.362784 1.92512 0
M  V30 5824 H 521.188 0.659082 0.351597 0
M  V30 5825 H 523.85 1.93497 0.233435 0
M  V30 5826 H 522.946 2.70837 1.55093 0
M  V30 5827 N 523.247 -0.488276 1.49845 0
M  V30 5828 C 524.496 -1.23826 1.59217 0
M  V30 5829 C 524.809 -1.93439 0.289966 0
M  V30 5830 O 526.015 -2.70229 0.262382 0
M  V30 5831 C 524.471 -2.24902 2.80976 0
M  V30 5832 C 524.079 -1.6117 4.18005 0
M  V30 5833 C 525.823 -3.00648 2.99685 0
M  V30 5834 C 523.73 -2.60431 5.3097 0
M  V30 5835 H 522.66 -0.465858 0.592868 0
M  V30 5836 H 525.311 -0.510645 1.76252 0
M  V30 5837 H 523.693 -3.0088 2.57463 0
M  V30 5838 H 524.867 -0.910968 4.51706 0
M  V30 5839 H 523.182 -0.97767 4.0476 0
M  V30 5840 H 525.779 -3.74903 3.81251 0
M  V30 5841 H 526.122 -3.5902 2.10738 0
M  V30 5842 H 526.655 -2.31784 3.23297 0
M  V30 5843 H 523.394 -2.06823 6.22017 0
M  V30 5844 H 522.914 -3.28707 5.01709 0
M  V30 5845 H 524.593 -3.22606 5.60834 0
M  V30 5846 N 524.725 -1.39134 -0.740242 0
M  V30 5847 C 525.95 -1.39518 -1.53459 0
M  V30 5848 C 526.375 0.00968883 -1.88098 0
M  V30 5849 O 525.733 0.995312 -1.51536 0
M  V30 5850 C 525.781 -2.26981 -2.802 0
M  V30 5851 O 524.885 -1.69609 -3.75908 0
M  V30 5852 H 524.226 -0.475328 -0.463637 0
M  V30 5853 H 526.756 -1.83064 -0.913717 0
M  V30 5854 H 526.766 -2.41309 -3.28989 0
M  V30 5855 H 525.441 -3.29081 -2.5432 0
M  V30 5856 H 524.018 -1.64495 -3.34658 0
M  V30 5857 N 526.204 0.969867 -1.24223 0
M  V30 5858 C 527.429 1.75289 -1.10853 0
M  V30 5859 C 527.854 1.85091 0.335079 0
M  V30 5860 O 527.212 1.32024 1.24255 0
M  V30 5861 C 527.26 3.15255 -1.75062 0
M  V30 5862 O 526.364 3.99589 -1.01992 0
M  V30 5863 H 525.705 0.538904 -0.387915 0
M  V30 5864 H 528.235 1.21675 -1.64488 0
M  V30 5865 H 528.245 3.65787 -1.80731 0
M  V30 5866 H 526.92 3.07436 -2.801 0
M  V30 5867 H 525.497 3.58077 -1.04094 0
M  V30 5868 N 527.682 1.05563 1.17022 0
M  V30 5869 C 528.928 0.769074 1.87652 0
M  V30 5870 C 529.261 -0.702326 1.81055 0
M  V30 5871 O 528.536 -1.5139 1.22112 0
M  V30 5872 C 528.819 1.25492 3.37526 0
M  V30 5873 C 528.672 2.78953 3.52853 0
M  V30 5874 C 529.991 0.856919 4.31677 0
M  V30 5875 H 527.11 0.280854 0.681388 0
M  V30 5876 H 529.752 1.31027 1.37593 0
M  V30 5877 H 527.902 0.794516 3.80289 0
M  V30 5878 H 529.574 3.33146 3.19079 0
M  V30 5879 H 527.817 3.18046 2.95007 0
M  V30 5880 H 528.488 3.08011 4.58076 0
M  V30 5881 H 530.964 1.25334 3.96775 0
M  V30 5882 H 529.84 1.22443 5.35069 0
M  V30 5883 H 530.101 -0.238787 4.41455 0
M  V30 5884 N 529.16 -1.33526 0.837174 0
M  V30 5885 C 530.571 -1.80182 0.489017 0
M  V30 5886 C 530.922 -1.69285 -0.991826 0
M  V30 5887 O 530.047 -1.24113 -1.77271 0
M  V30 5888 C 530.642 -3.27149 0.880866 0
M  V30 5889 C 529.201 -3.71828 0.584872 0
M  V30 5890 C 528.348 -2.54974 1.09011 0
M  V30 5891 H 531.299 -1.21071 1.02603 0
M  V30 5892 H 531.32 -3.80024 0.190239 0
M  V30 5893 H 530.832 -3.35048 1.95869 0
M  V30 5894 H 528.933 -3.69457 -0.48295 0
M  V30 5895 H 529.046 -4.65366 1.13892 0
M  V30 5896 H 527.41 -2.4952 0.511047 0
M  V30 5897 H 528.193 -2.65637 2.17467 0
M  V30 5898 N 530.638 -0.59345 -1.46 0
M  V30 5899 C 531.866 -0.0890934 -2.06708 0
M  V30 5900 C 532.281 1.2205 -1.44046 0
M  V30 5901 O 531.638 1.74029 -0.549551 0
M  V30 5902 C 531.689 0.0720263 -3.61428 0
M  V30 5903 O 531.41 -1.18574 -4.21748 0
M  V30 5904 C 532.911 0.609487 -4.3909 0
M  V30 5905 H 530.131 -0.0623628 -0.668096 0
M  V30 5906 H 532.675 -0.817171 -1.87464 0
M  V30 5907 H 530.83 0.750369 -3.80063 0
M  V30 5908 H 531.244 -1.0064 -5.14754 0
M  V30 5909 H 532.718 0.671363 -5.47902 0
M  V30 5910 H 533.195 1.62878 -4.07882 0
M  V30 5911 H 533.801 -0.03434 -4.25286 0
M  V30 5912 N 532.116 1.54067 -0.331816 0
M  V30 5913 C 533.527 1.86059 0.15454 0
M  V30 5914 C 533.878 1.25331 1.50952 0
M  V30 5915 O 533.003 0.562441 2.08963 0
M  V30 5916 C 533.598 3.37581 0.287192 0
M  V30 5917 C 532.157 3.69493 0.717773 0
M  V30 5918 C 531.304 2.76863 -0.155569 0
M  V30 5919 H 534.255 1.48797 -0.55182 0
M  V30 5920 H 534.276 3.63744 1.11671 0
M  V30 5921 H 533.788 3.81751 -0.699131 0
M  V30 5922 H 531.889 3.3086 1.71354 0
M  V30 5923 H 532.002 4.76315 0.5158 0
M  V30 5924 H 530.366 2.51995 0.370213 0
M  V30 5925 H 531.149 3.23861 -1.13881 0
M  V30 5926 N 533.594 0.0601682 1.57485 0
M  V30 5927 C 534.819 -0.624416 1.97777 0
M  V30 5928 C 535.244 -1.63051 0.937867 0
M  V30 5929 O 534.602 -1.81036 -0.0978845 0
M  V30 5930 C 534.65 -1.27979 3.37126 0
M  V30 5931 O 533.754 -2.39556 3.35688 0
M  V30 5932 H 533.095 -0.161581 0.64404 0
M  V30 5933 H 535.625 0.131237 2.04179 0
M  V30 5934 H 535.635 -1.62937 3.74053 0
M  V30 5935 H 534.31 -0.542501 4.12347 0
M  V30 5936 H 532.887 -2.06478 3.10517 0
M  V30 5937 N 535.072 -1.5615 -0.213296 0
M  V30 5938 C 536.483 -1.69645 -0.779582 0
M  V30 5939 C 536.834 -0.663615 -1.84636 0
M  V30 5940 O 535.959 0.183633 -2.15619 0
M  V30 5941 C 536.554 -3.07567 -1.42084 0
M  V30 5942 C 535.113 -3.22889 -1.93442 0
M  V30 5943 C 534.26 -2.65581 -0.797612 0
M  V30 5944 H 537.211 -1.58696 0.0114951 0
M  V30 5945 H 537.232 -3.03884 -2.28986 0
M  V30 5946 H 536.744 -3.82716 -0.644187 0
M  V30 5947 H 534.845 -2.52623 -2.73884 0
M  V30 5948 H 534.958 -4.30197 -2.10872 0
M  V30 5949 H 533.322 -2.24278 -1.20712 0
M  V30 5950 H 534.105 -3.43284 -0.033494 0
M  V30 5951 N 536.55 0.480323 -1.50102 0
M  V30 5952 C 537.48 1.58769 -1.71215 0
M  V30 5953 C 538.461 1.60583 -0.560997 0
M  V30 5954 O 539.646 1.76996 -0.799127 0
M  V30 5955 C 536.776 2.97148 -1.79778 0
M  V30 5956 C 535.73 3.10201 -2.94888 0
M  V30 5957 C 535.056 4.50137 -2.88584 0
M  V30 5958 C 536.356 2.88283 -4.35534 0
M  V30 5959 H 538.05 1.41354 -2.6393 0
M  V30 5960 H 535.596 0.678591 -1.27008 0
M  V30 5961 H 537.549 3.74536 -1.93133 0
M  V30 5962 H 536.273 3.15699 -0.836772 0
M  V30 5963 H 534.932 2.35244 -2.81169 0
M  V30 5964 H 534.58 4.65593 -1.90349 0
M  V30 5965 H 534.28 4.59808 -3.65856 0
M  V30 5966 H 535.804 5.29558 -3.03976 0
M  V30 5967 H 537.218 3.55427 -4.49827 0
M  V30 5968 H 535.615 3.09408 -5.14186 0
M  V30 5969 H 536.685 1.84219 -4.48544 0
M  V30 5970 N 538.028 1.39524 0.732853 0
M  V30 5971 C 539.276 1.36594 1.48951 0
M  V30 5972 C 539.597 -0.0367507 1.94965 0
M  V30 5973 O 538.867 -0.988391 1.69138 0
M  V30 5974 H 537.447 0.502673 0.552566 0
M  V30 5975 H 540.109 1.74411 0.869869 0
M  V30 5976 H 539.205 2.03 2.3706 0
M  V30 5977 N 539.506 -0.963266 1.24736 0
M  V30 5978 C 540.917 -1.52145 1.08207 0
M  V30 5979 C 541.268 -1.93142 -0.345061 0
M  V30 5980 O 540.393 -1.77769 -1.23399 0
M  V30 5981 C 540.988 -2.76486 1.95808 0
M  V30 5982 C 539.547 -3.28646 1.8349 0
M  V30 5983 C 538.694 -2.01529 1.90476 0
M  V30 5984 H 541.645 -0.781083 1.38148 0
M  V30 5985 H 541.666 -3.49986 1.49297 0
M  V30 5986 H 541.178 -2.46617 2.99669 0
M  V30 5987 H 539.279 -3.63357 0.824787 0
M  V30 5988 H 539.392 -3.97246 2.67829 0
M  V30 5989 H 537.756 -2.16442 1.34258 0
M  V30 5990 H 538.539 -1.7402 2.95926 0
M  V30 5991 N 540.985 -1.06182 -1.16461 0
M  V30 5992 C 541.915 -0.692861 -2.22984 0
M  V30 5993 C 542.896 0.314122 -1.67174 0
M  V30 5994 O 544.081 0.189499 -1.93273 0
M  V30 5995 C 541.211 -0.07732 -3.47214 0
M  V30 5996 C 540.165 -1.01015 -4.15909 0
M  V30 5997 C 539.491 -0.257973 -5.34077 0
M  V30 5998 C 540.791 -2.33868 -4.67015 0
M  V30 5999 H 542.485 -1.58343 -2.54102 0
M  V30 6000 H 540.031 -0.76279 -1.22137 0
M  V30 6001 H 541.984 0.19266 -4.20959 0
M  V30 6002 H 540.708 0.848254 -3.15392 0
M  V30 6003 H 539.367 -1.26486 -3.44088 0
M  V30 6004 H 539.015 0.670684 -4.98509 0
M  V30 6005 H 538.715 -0.879638 -5.80979 0
M  V30 6006 H 540.239 0.00448788 -6.106 0
M  V30 6007 H 541.653 -2.1279 -5.32347 0
M  V30 6008 H 540.05 -2.91522 -5.24533 0
M  V30 6009 H 541.12 -2.97019 -3.83286 0
M  V30 6010 N 542.463 1.3308 -0.844243 0
M  V30 6011 C 543.426 2.27403 -0.286485 0
M  V30 6012 C 544.426 1.51179 0.547872 0
M  V30 6013 O 545.616 1.70421 0.360886 0
M  V30 6014 C 542.748 3.35653 0.595813 0
M  V30 6015 H 543.941 2.78248 -1.11885 0
M  V30 6016 H 541.494 1.43574 -0.617749 0
M  V30 6017 H 542.229 2.90058 1.4504 0
M  V30 6018 H 542.014 3.921 -0.00125994 0
M  V30 6019 H 543.504 4.05958 0.979168 0
M  V30 6020 N 543.941 0.601185 1.45683 0
M  V30 6021 C 545.189 0.0936957 2.01883 0
M  V30 6022 C 545.51 -1.2779 1.47291 0
M  V30 6023 O 544.78 -1.84279 0.664691 0
M  V30 6024 H 543.36 0.0316466 0.746329 0
M  V30 6025 H 546.022 0.781137 1.78562 0
M  V30 6026 H 545.118 0.0386297 3.12076 0
M  V30 6027 N 545.419 -1.53889 0.339982 0
M  V30 6028 C 546.644 -2.05741 -0.261798 0
M  V30 6029 C 547.069 -1.21354 -1.43718 0
M  V30 6030 O 546.427 -0.22645 -1.7988 0
M  V30 6031 C 546.475 -3.54542 -0.658228 0
M  V30 6032 O 545.579 -3.7302 -1.75869 0
M  V30 6033 H 544.92 -0.662529 -0.0441672 0
M  V30 6034 H 547.45 -1.98568 0.493161 0
M  V30 6035 H 547.46 -3.9711 -0.936368 0
M  V30 6036 H 546.135 -4.15412 0.201358 0
M  V30 6037 H 544.712 -3.42355 -1.47809 0
M  V30 6038 N 546.897 -0.0685191 -1.57451 0
M  V30 6039 C 548.308 0.464634 -1.80826 0
M  V30 6040 C 548.659 1.69847 -0.982169 0
M  V30 6041 O 547.784 2.15439 -0.203734 0
M  V30 6042 C 548.379 0.849721 -3.27971 0
M  V30 6043 C 546.938 1.32776 -3.52204 0
M  V30 6044 C 546.085 0.311332 -2.75547 0
M  V30 6045 H 549.036 -0.294248 -1.55948 0
M  V30 6046 H 549.057 1.71138 -3.39841 0
M  V30 6047 H 548.569 -0.0484736 -3.8807 0
M  V30 6048 H 546.67 2.24456 -2.97406 0
M  V30 6049 H 546.783 1.30794 -4.60901 0
M  V30 6050 H 545.147 0.787915 -2.42206 0
M  V30 6051 H 545.93 -0.579078 -3.38381 0
M  V30 6052 N 548.375 1.56261 0.205012 0
M  V30 6053 C 549.621 1.80306 0.9283 0
M  V30 6054 C 549.954 0.640932 1.83319 0
M  V30 6055 O 549.229 -0.359032 1.91158 0
M  V30 6056 C 549.512 3.14547 1.75306 0
M  V30 6057 C 549.365 4.41236 0.873562 0
M  V30 6058 C 550.684 3.45382 2.72762 0
M  V30 6059 H 547.803 0.655929 0.336044 0
M  V30 6060 H 550.445 1.88984 0.196211 0
M  V30 6061 H 548.595 3.0728 2.37721 0
M  V30 6062 H 550.267 4.60539 0.264887 0
M  V30 6063 H 548.51 4.33427 0.179773 0
M  V30 6064 H 549.181 5.31639 1.48541 0
M  V30 6065 H 551.657 3.52884 2.20481 0
M  V30 6066 H 550.533 4.40449 3.2756 0
M  V30 6067 H 550.794 2.68377 3.51321 0
M  V30 6068 N 549.853 -0.472356 1.50355 0
M  V30 6069 C 551.102 -1.2213 1.60522 0
M  V30 6070 C 551.415 -1.9312 0.310466 0
M  V30 6071 O 552.621 -2.69936 0.291029 0
M  V30 6072 C 551.077 -2.21909 2.83345 0
M  V30 6073 C 550.685 -1.56727 4.19691 0
M  V30 6074 C 552.429 -2.97453 3.02856 0
M  V30 6075 C 550.336 -2.54785 5.33703 0
M  V30 6076 H 549.266 -0.459543 0.597776 0
M  V30 6077 H 551.917 -0.491922 1.76783 0
M  V30 6078 H 550.299 -2.98133 2.60639 0
M  V30 6079 H 551.473 -0.863007 4.52646 0
M  V30 6080 H 549.788 -0.934685 4.05774 0
M  V30 6081 H 552.385 -3.70838 3.85205 0
M  V30 6082 H 552.728 -3.56764 2.14534 0
M  V30 6083 H 553.261 -2.28342 3.25737 0
M  V30 6084 H 550 -2.00214 6.24175 0
M  V30 6085 H 549.52 -3.23367 5.05167 0
M  V30 6086 H 551.199 -3.16639 5.64224 0
M  V30 6087 N 551.331 -1.39911 -0.725443 0
M  V30 6088 C 552.294 -1.39156 -1.82121 0
M  V30 6089 C 553.294 -0.287018 -1.58218 0
M  V30 6090 O 554.484 -0.545421 -1.65441 0
M  V30 6091 C 551.616 -1.1736 -3.20062 0
M  V30 6092 H 552.809 -2.36672 -1.84191 0
M  V30 6093 H 550.362 -1.25615 -0.930079 0
M  V30 6094 H 551.097 -0.205648 -3.23647 0
M  V30 6095 H 550.882 -1.97358 -3.3881 0
M  V30 6096 H 552.372 -1.19596 -4.00108 0
M  V30 6097 N 552.809 0.956637 -1.25245 0
M  V30 6098 C 553.772 2.03457 -1.05537 0
M  V30 6099 C 554.772 1.60798 -0.00886317 0
M  V30 6100 O 555.962 1.72384 -0.250865 0
M  V30 6101 C 553.094 3.35543 -0.601965 0
M  V30 6102 H 554.287 2.22372 -2.01223 0
M  V30 6103 H 551.84 1.13344 -1.07623 0
M  V30 6104 H 552.575 3.22323 0.357584 0
M  V30 6105 H 552.36 3.67854 -1.35743 0
M  V30 6106 H 553.85 4.14769 -0.485454 0
M  V30 6107 N 554.287 1.06798 1.15896 0
M  V30 6108 C 555.25 0.687328 2.18651 0
M  V30 6109 C 556.25 -0.269559 1.58524 0
M  V30 6110 O 557.44 -0.0512627 1.74125 0
M  V30 6111 C 554.572 0.0121642 3.40898 0
M  V30 6112 H 555.765 1.59701 2.53842 0
M  V30 6113 H 553.318 0.863828 1.3026 0
M  V30 6114 H 554.053 -0.910025 3.1127 0
M  V30 6115 H 553.838 0.700309 3.85795 0
M  V30 6116 H 555.328 -0.239703 4.16911 0
M  V30 6117 N 555.766 -1.3263 0.851289 0
M  V30 6118 C 556.714 -2.30882 0.282202 0
M  V30 6119 C 557.708 -1.58697 -0.592589 0
M  V30 6120 O 558.914 -1.73461 -0.480768 0
M  V30 6121 H 555.289 -0.748492 0.0725487 0
M  V30 6122 H 557.26 -2.76374 1.12516 0
M  V30 6123 C 556.009 -3.43828 -0.517449 0
M  V30 6124 H 555.332 -3.99532 0.146392 0
M  V30 6125 H 556.772 -4.1474 -0.88128 0
M  V30 6126 C 555.231 -2.90786 -1.70133 0
M  V30 6127 O 555.761 -2.88 -2.80034 0
M  V30 6128 N 553.967 -2.4723 -1.52728 0
M  V30 6129 H 553.514 -2.49695 -0.633257 0
M  V30 6130 H 553.472 -2.12094 -2.32085 0
M  V30 6131 N 557.244 -0.608902 -1.45362 0
M  V30 6132 C 558.655 -0.189511 -1.85736 0
M  V30 6133 C 559.006 1.2539 -1.50903 0
M  V30 6134 O 558.131 1.95094 -0.936347 0
M  V30 6135 C 558.726 -0.33716 -3.37118 0
M  V30 6136 C 557.285 0.0275487 -3.7639 0
M  V30 6137 C 556.432 -0.660983 -2.69307 0
M  V30 6138 H 559.383 -0.815499 -1.36144 0
M  V30 6139 H 559.404 0.430257 -3.7806 0
M  V30 6140 H 558.916 -1.38779 -3.62439 0
M  V30 6141 H 557.017 1.0773 -3.56686 0
M  V30 6142 H 557.13 -0.367018 -4.77692 0
M  V30 6143 H 555.494 -0.0984958 -2.54509 0
M  V30 6144 H 556.277 -1.71377 -2.97464 0
M  V30 6145 N 558.722 1.53707 -0.348139 0
M  V30 6146 C 559.652 2.28111 0.498766 0
M  V30 6147 C 560.633 1.29851 1.09876 0
M  V30 6148 O 561.818 1.587 1.11928 0
M  V30 6149 C 558.948 3.05735 1.64753 0
M  V30 6150 C 557.902 4.11537 1.17565 0
M  V30 6151 C 557.228 4.77142 2.4133 0
M  V30 6152 C 558.528 5.21587 0.272844 0
M  V30 6153 H 560.222 2.99152 -0.121934 0
M  V30 6154 H 557.768 1.43875 -0.0600842 0
M  V30 6155 H 559.721 3.56526 2.24649 0
M  V30 6156 H 558.445 2.32354 2.2952 0
M  V30 6157 H 557.104 3.61665 0.599483 0
M  V30 6158 H 556.752 4.0035 3.04514 0
M  V30 6159 H 556.452 5.48626 2.10436 0
M  V30 6160 H 557.976 5.30719 3.01943 0
M  V30 6161 H 559.39 5.67986 0.778779 0
M  V30 6162 H 557.787 6.00074 0.0555849 0
M  V30 6163 H 558.857 4.79969 -0.689785 0
M  V30 6164 N 560.2 0.0768682 1.57412 0
M  V30 6165 C 561.448 -0.589918 1.93299 0
M  V30 6166 C 561.769 -1.69842 0.958049 0
M  V30 6167 O 561.039 -1.95899 0.00703261 0
M  V30 6168 H 559.619 -0.220901 0.713591 0
M  V30 6169 H 562.281 0.135917 1.94425 0
M  V30 6170 H 561.377 -1.01195 2.95239 0
M  V30 6171 N 561.678 -1.56367 -0.196722 0
M  V30 6172 C 562.611 -1.89475 -1.2718 0
M  V30 6173 C 563.589 -0.754667 -1.44026 0
M  V30 6174 O 564.773 -1.00551 -1.59442 0
M  V30 6175 C 561.9 -2.12352 -2.63864 0
M  V30 6176 C 560.946 -3.35053 -2.63897 0
M  V30 6177 S 561.779 -4.90228 -2.15492 0
M  V30 6178 C 562.935 -5.16171 -3.54004 0
M  V30 6179 H 563.168 -2.80365 -0.989075 0
M  V30 6180 H 560.701 -1.49125 -0.40014 0
M  V30 6181 H 562.659 -2.26214 -3.42545 0
M  V30 6182 H 561.32 -1.22214 -2.89349 0
M  V30 6183 H 560.513 -3.48182 -3.64397 0
M  V30 6184 H 560.115 -3.20176 -1.93296 0
M  V30 6185 H 562.407 -5.06591 -4.49857 0
M  V30 6186 H 563.35 -6.17938 -3.45771 0
M  V30 6187 H 563.758 -4.43814 -3.48841 0
M  V30 6188 N 563.156 0.464375 -1.50603 0
M  V30 6189 C 564.567 1.04507 -1.5471 0
M  V30 6190 C 564.918 1.9297 -0.354542 0
M  V30 6191 O 564.043 2.09763 0.531812 0
M  V30 6192 C 564.638 1.90207 -2.80369 0
M  V30 6193 C 563.197 2.43373 -2.87135 0
M  V30 6194 C 562.344 1.21886 -2.49076 0
M  V30 6195 H 565.295 0.246716 -1.56771 0
M  V30 6196 H 565.316 2.75353 -2.62604 0
M  V30 6197 H 564.828 1.25796 -3.67147 0
M  V30 6198 H 562.929 3.11318 -2.04724 0
M  V30 6199 H 563.042 2.7802 -3.90181 0
M  V30 6200 H 561.406 1.55575 -2.01664 0
M  V30 6201 H 562.189 0.591268 -3.3817 0
M  V30 6202 N 564.634 1.40294 0.718013 0
M  V30 6203 C 565.88 1.38645 1.48005 0
M  V30 6204 C 566.213 -0.0121202 1.94196 0
M  V30 6205 O 565.488 -0.980309 1.67989 0
M  V30 6206 C 565.771 2.37379 2.70782 0
M  V30 6207 C 565.624 3.8625 2.30501 0
M  V30 6208 C 566.943 2.33685 3.72933 0
M  V30 6209 H 564.062 0.504928 0.536858 0
M  V30 6210 H 566.704 1.71411 0.819649 0
M  V30 6211 H 564.854 2.09568 3.27129 0
M  V30 6212 H 566.526 4.24879 1.79655 0
M  V30 6213 H 564.769 4.02202 1.6253 0
M  V30 6214 H 565.44 4.50847 3.18498 0
M  V30 6215 H 567.916 2.58314 3.2621 0
M  V30 6216 H 566.792 3.0482 4.56482 0
M  V30 6217 H 567.053 1.34765 4.21059 0
M  V30 6218 N 566.112 -0.949982 1.2575 0
M  V30 6219 C 567.523 -1.50989 1.09815 0
M  V30 6220 C 567.874 -1.93497 -0.324556 0
M  V30 6221 O 566.999 -1.79068 -1.21506 0
M  V30 6222 C 567.594 -2.74394 1.98729 0
M  V30 6223 C 566.153 -3.26682 1.86965 0
M  V30 6224 C 565.3 -1.99498 1.92603 0
M  V30 6225 H 568.251 -0.766387 1.38968 0
M  V30 6226 H 568.272 -3.48383 1.53001 0
M  V30 6227 H 567.784 -2.43425 3.02268 0
M  V30 6228 H 565.885 -3.62461 0.863279 0
M  V30 6229 H 565.998 -3.94383 2.72027 0
M  V30 6230 H 564.362 -2.15005 1.36546 0
M  V30 6231 H 565.145 -1.70871 2.97755 0
M  V30 6232 N 567.59 -1.07411 -1.15328 0
M  V30 6233 C 568.553 -0.698914 -2.18284 0
M  V30 6234 C 569.553 0.261149 -1.58665 0
M  V30 6235 O 570.743 0.0420277 -1.74149 0
M  V30 6236 C 567.875 -0.0302427 -3.40887 0
M  V30 6237 H 569.068 -1.61045 -2.52991 0
M  V30 6238 H 566.621 -0.870724 -1.298 0
M  V30 6239 H 567.356 0.893505 -3.11748 0
M  V30 6240 H 567.141 -0.720759 -3.85419 0
M  V30 6241 H 568.631 0.21759 -4.17033 0
M  V30 6242 N 569.068 1.32177 -0.85831 0
M  V30 6243 C 570.031 2.27086 -0.310588 0
M  V30 6244 C 571.031 1.51751 0.531806 0
M  V30 6245 O 572.221 1.70794 0.34279 0
M  V30 6246 C 569.353 3.36266 0.560179 0
M  V30 6247 H 570.546 2.77045 -1.1483 0
M  V30 6248 H 568.099 1.42911 -0.632942 0
M  V30 6249 H 568.834 2.9158 1.41956 0
M  V30 6250 H 568.619 3.92077 -0.0428473 0
M  V30 6251 H 570.109 4.06974 0.936056 0
M  V30 6252 N 570.547 0.616602 1.45037 0
M  V30 6253 C 571.51 -0.0871112 2.29034 0
M  V30 6254 C 572.51 -0.786414 1.40258 0
M  V30 6255 O 573.7 -0.633207 1.62284 0
M  V30 6256 C 570.832 -1.13369 3.21497 0
M  V30 6257 H 572.025 0.651497 2.92738 0
M  V30 6258 H 569.578 0.376058 1.51709 0
M  V30 6259 H 570.313 -1.90277 2.62612 0
M  V30 6260 H 570.098 -0.636358 3.86902 0
M  V30 6261 H 571.588 -1.62627 3.84633 0
M  V30 6262 N 572.025 -1.5352 0.356285 0
M  V30 6263 C 573.273 -2.00719 -0.235837 0
M  V30 6264 C 573.594 -1.24551 -1.5004 0
M  V30 6265 O 572.864 -0.356185 -1.92635 0
M  V30 6266 H 571.444 -0.741542 -0.0901366 0
M  V30 6267 H 574.106 -1.88887 0.480378 0
M  V30 6268 H 573.202 -3.08551 -0.469357 0
M  V30 6269 N 573.503 -0.0852151 -1.57369 0
M  V30 6270 C 574.466 0.8627 -2.12344 0
M  V30 6271 C 575.466 1.21746 -1.05046 0
M  V30 6272 O 576.656 1.14852 -1.30976 0
M  V30 6273 C 573.788 2.1618 -2.63589 0
M  V30 6274 H 574.981 0.385511 -2.97412 0
M  V30 6275 H 572.534 0.163663 -1.55441 0
M  V30 6276 H 573.269 2.68406 -1.82013 0
M  V30 6277 H 573.054 1.91723 -3.4203 0
M  V30 6278 H 574.544 2.84011 -3.06149 0
M  V30 6279 N 574.981 1.5647 0.188427 0
M  V30 6280 C 575.913 1.91611 1.25769 0
M  V30 6281 C 576.926 0.807436 1.41366 0
M  V30 6282 O 578.115 1.08586 1.41673 0
M  V30 6283 C 575.215 2.13874 2.6289 0
M  V30 6284 C 574.388 3.45047 2.68815 0
M  V30 6285 C 573.447 3.56342 3.87178 0
M  V30 6286 O 572.473 4.29109 3.73971 0
M  V30 6287 N 573.675 2.89924 5.02916 0
M  V30 6288 H 576.44 2.8393 0.959373 0
M  V30 6289 H 574.001 1.57418 0.378306 0
M  V30 6290 H 575.993 2.18713 3.4051 0
M  V30 6291 H 574.563 1.28022 2.85183 0
M  V30 6292 H 573.783 3.52017 1.77419 0
M  V30 6293 H 575.071 4.31395 2.6977 0
M  V30 6294 H 574.469 2.30644 5.16546 0
M  V30 6295 H 573.026 3.0038 5.78459 0
M  V30 6296 N 576.459 -0.456382 1.50847 0
M  V30 6297 C 577.391 -1.57033 1.66953 0
M  V30 6298 C 578.404 -1.53207 0.550593 0
M  V30 6299 O 579.593 -1.58328 0.824285 0
M  V30 6300 C 576.693 -2.95937 1.65149 0
M  V30 6301 C 575.866 -3.24475 2.93317 0
M  V30 6302 C 574.925 -4.43007 2.83957 0
M  V30 6303 O 573.951 -4.42592 3.57912 0
M  V30 6304 N 575.153 -5.45503 1.9851 0
M  V30 6305 H 577.918 -1.43629 2.63042 0
M  V30 6306 H 575.479 -0.645037 1.48495 0
M  V30 6307 H 577.471 -3.73224 1.56481 0
M  V30 6308 H 576.041 -3.03036 0.767343 0
M  V30 6309 H 575.261 -2.35664 3.16 0
M  V30 6310 H 576.549 -3.4036 3.78196 0
M  V30 6311 H 575.947 -5.48668 1.37766 0
M  V30 6312 H 574.504 -6.21716 1.95735 0
M  V30 6313 O 577.976 -1.4986 -0.602026 0
M  V30 6314 H 578.667 -1.47399 -1.25671 0
M  V30 END ATOM
M  V30 BEGIN BOND
M  V30 END BOND
M  V30 END CTAB
M  END
$$$$
