drugbank_target|P05556 Integrin beta-1 (DB00098)
 OpenBabel12092120343D

  0  0  0     0  0            999 V3000
M  V30 BEGIN CTAB
M  V30 COUNTS 12144 12252 0 0 0
M  V30 BEGIN ATOM
M  V30 1 H -0.908 1.98254 -0.117106 0
M  V30 2 N 0 1.576 0 0
M  V30 3 C 0.933 2.03868 1.02534 0
M  V30 4 C 1.911 0.928543 1.3348 0
M  V30 5 O 3.095 1.19667 1.45644 0
M  V30 6 C 0.222 2.43627 2.35294 0
M  V30 7 C -0.732 3.65373 2.2001 0
M  V30 8 S 0.101 5.13292 1.52614 0
M  V30 9 C 1.257 5.56322 2.86805 0
M  V30 10 H 1.49 2.90518 0.631377 0
M  V30 11 H -0.977 1.52953 0.210867 0
M  V30 12 H 0.981 2.67203 3.11629 0
M  V30 13 H -0.358 1.57376 2.7183 0
M  V30 14 H -1.165 3.90944 3.18086 0
M  V30 15 H -1.563 3.418 1.51819 0
M  V30 16 H 0.729 5.58782 3.83104 0
M  V30 17 H 1.672 6.56266 2.65933 0
M  V30 18 H 2.08 4.83886 2.90714 0
M  V30 19 N 1.4781 -0.272755 1.55222 0
M  V30 20 C 2.4261 -1.35705 1.88909 0
M  V30 21 C 3.4201 -1.5112 0.765456 0
M  V30 22 O 4.6261 -1.52901 0.949802 0
M  V30 23 H 1.0011 -0.453868 0.59959 0
M  V30 24 H 2.9721 -1.04544 2.79487 0
M  V30 25 C 1.7211 -2.71049 2.17779 0
M  V30 26 H 1.0441 -2.59979 3.03728 0
M  V30 27 H 2.4841 -3.45858 2.45272 0
M  V30 28 C 0.9431 -3.22165 0.985473 0
M  V30 29 O 1.4731 -4.01096 0.220233 0
M  V30 30 N -0.3209 -2.7985 0.783108 0
M  V30 31 H -0.7739 -2.15775 1.40708 0
M  V30 32 H -0.8159 -3.14397 -0.0130392 0
M  V30 33 N 2.9562 -1.48159 -0.537278 0
M  V30 34 C 3.8862 -1.65029 -1.6519 0
M  V30 35 C 4.8672 -0.499281 -1.62607 0
M  V30 36 O 6.0522 -0.730972 -1.79918 0
M  V30 37 C 3.1822 -1.68303 -3.03795 0
M  V30 38 C 2.1362 -2.8283 -3.21234 0
M  V30 39 C 1.4622 -2.71189 -4.60826 0
M  V30 40 C 2.7622 -4.24211 -3.04701 0
M  V30 41 H 4.4562 -2.58341 -1.51328 0
M  V30 42 H 2.0022 -1.24325 -0.726585 0
M  V30 43 H 3.9552 -1.78693 -3.81637 0
M  V30 44 H 2.6792 -0.715635 -3.18663 0
M  V30 45 H 1.3382 -2.71983 -2.45807 0
M  V30 46 H 0.9862 -1.72435 -4.7252 0
M  V30 47 H 0.6862 -3.48035 -4.7344 0
M  V30 48 H 2.2102 -2.83537 -5.40777 0
M  V30 49 H 3.6242 -4.3593 -3.72341 0
M  V30 50 H 2.0212 -5.01998 -3.28813 0
M  V30 51 H 3.0912 -4.41184 -2.01209 0
M  V30 52 N 4.4343 0.785586 -1.36625 0
M  V30 53 C 5.3663 1.90711 -1.2713 0
M  V30 54 C 6.3793 1.61688 -0.189986 0
M  V30 55 O 7.5683 1.72864 -0.445014 0
M  V30 56 C 4.6683 3.25611 -0.939713 0
M  V30 57 C 3.8413 3.82385 -2.12369 0
M  V30 58 C 2.9003 4.95732 -1.76456 0
M  V30 59 O 1.9263 5.12047 -2.48589 0
M  V30 60 N 3.1283 5.76258 -0.700492 0
M  V30 61 H 5.8933 1.99376 -2.23762 0
M  V30 62 H 3.4543 0.964041 -1.30069 0
M  V30 63 H 5.4463 3.98937 -0.680554 0
M  V30 64 H 4.0163 3.12538 -0.0624074 0
M  V30 65 H 3.2363 3.01001 -2.54543 0
M  V30 66 H 4.5243 4.17047 -2.9146 0
M  V30 67 H 3.9223 5.65609 -0.101624 0
M  V30 68 H 2.4793 6.4987 -0.501165 0
M  V30 69 N 5.9124 1.20967 1.01018 0
M  V30 70 C 7.3234 1.02319 1.56165 0
M  V30 71 C 7.6744 -0.418546 1.91684 0
M  V30 72 O 6.7994 -1.30096 1.72928 0
M  V30 73 C 7.3944 1.85109 2.8376 0
M  V30 74 C 5.9534 1.70809 3.35412 0
M  V30 75 C 5.1004 1.82643 2.08655 0
M  V30 76 H 8.0514 1.35065 0.833255 0
M  V30 77 H 8.0724 1.35827 3.55431 0
M  V30 78 H 7.5844 2.90035 2.57878 0
M  V30 79 H 5.6854 0.685464 3.66241 0
M  V30 80 H 5.7984 2.52467 4.07182 0
M  V30 81 H 4.1624 1.25896 2.21409 0
M  V30 82 H 4.9454 2.89066 1.85191 0
M  V30 83 N 7.3905 -1.2043 1.01659 0
M  V30 84 C 8.6395 -1.89118 0.701237 0
M  V30 85 C 8.9525 -1.79705 -0.772358 0
M  V30 86 O 10.1585 -2.43528 -1.20026 0
M  V30 87 C 8.6145 -3.39168 1.20388 0
M  V30 88 C 8.2225 -3.57166 2.70438 0
M  V30 89 C 9.9665 -4.1341 0.963953 0
M  V30 90 C 7.8735 -5.01042 3.14183 0
M  V30 91 H 6.8035 -0.708267 0.2586 0
M  V30 92 H 9.4545 -1.36239 1.22927 0
M  V30 93 H 7.8365 -3.91369 0.603824 0
M  V30 94 H 9.0105 -3.15351 3.35992 0
M  V30 95 H 7.3255 -2.96294 2.92572 0
M  V30 96 H 9.9225 -5.19491 1.26621 0
M  V30 97 H 10.2655 -4.16181 -0.099578 0
M  V30 98 H 10.7985 -3.67309 1.52738 0
M  V30 99 H 7.5375 -5.03426 4.19812 0
M  V30 100 H 7.0575 -5.43668 2.53348 0
M  V30 101 H 8.7365 -5.69623 3.0682 0
M  V30 102 N 8.8686 -0.792821 -1.36206 0
M  V30 103 C 10.1156 -0.366786 -1.99151 0
M  V30 104 C 10.4436 1.06243 -1.62919 0
M  V30 105 O 9.6986 1.74927 -0.877442 0
M  V30 106 C 9.9976 -0.481501 -3.54142 0
M  V30 107 C 9.6636 -1.87202 -4.10203 0
M  V30 108 C 8.3256 -2.25248 -4.25226 0
M  V30 109 C 10.6776 -2.78237 -4.40719 0
M  V30 110 C 8.0056 -3.53723 -4.68078 0
M  V30 111 C 10.3576 -4.06144 -4.85005 0
M  V30 112 C 9.0216 -4.44207 -4.98234 0
M  V30 113 H 8.2916 -0.134217 -0.728743 0
M  V30 114 H 10.9386 -1.01094 -1.62641 0
M  V30 115 H 9.2436 0.246146 -3.91026 0
M  V30 116 H 10.9406 -0.132844 -4.0078 0
M  V30 117 H 7.5306 -1.56639 -3.98951 0
M  V30 118 H 11.7146 -2.50097 -4.28679 0
M  V30 119 H 6.9706 -3.8308 -4.76508 0
M  V30 120 H 11.1446 -4.76796 -5.07581 0
M  V30 121 H 8.7716 -5.43814 -5.31197 0
M  V30 122 N 10.3467 1.47872 -0.545128 0
M  V30 123 C 11.5927 2.03385 -0.0247951 0
M  V30 124 C 11.9477 1.41325 1.30556 0
M  V30 125 O 11.2407 0.5552 1.8338 0
M  V30 126 C 11.4347 3.57131 0.13867 0
M  V30 127 C 11.2637 4.34097 -1.17429 0
M  V30 128 C 10.0337 4.74458 -1.73831 0
M  V30 129 C 12.2317 4.6998 -2.08861 0
M  V30 130 N 10.2137 5.3602 -2.99258 0
M  V30 131 C 11.5847 5.31719 -3.18866 0
M  V30 132 C 13.6397 4.5191 -2.09003 0
M  V30 133 C 12.3427 5.77295 -4.29096 0
M  V30 134 C 14.3687 4.98477 -3.18237 0
M  V30 135 C 13.7307 5.60253 -4.26961 0
M  V30 136 H 9.8297 0.780339 -0.050943 0
M  V30 137 H 12.4137 1.80507 -0.729753 0
M  V30 138 H 10.5847 3.79802 0.812733 0
M  V30 139 H 12.3167 3.99282 0.659976 0
M  V30 140 H 9.0717 4.56037 -1.2778 0
M  V30 141 H 9.4957 5.71355 -3.63157 0
M  V30 142 H 14.1377 4.03516 -1.26234 0
M  V30 143 H 11.8557 6.24687 -5.12633 0
M  V30 144 H 15.4417 4.86274 -3.1942 0
M  V30 145 H 14.3217 5.95631 -5.10091 0
M  V30 146 N 11.8248 0.280983 1.55075 0
M  V30 147 C 13.0738 -0.334784 1.98902 0
M  V30 148 C 13.3868 -1.56534 1.17288 0
M  V30 149 O 14.5928 -2.25443 1.51287 0
M  V30 150 C 13.0488 -0.646994 3.54037 0
M  V30 151 C 12.6568 0.564085 4.44435 0
M  V30 152 C 14.4008 -1.22506 4.06439 0
M  V30 153 C 12.3078 0.226137 5.90967 0
M  V30 154 H 11.2378 -0.128866 0.742906 0
M  V30 155 H 13.8888 0.386556 1.79382 0
M  V30 156 H 12.2708 -1.42739 3.6938 0
M  V30 157 H 13.4448 1.34082 4.40861 0
M  V30 158 H 11.7598 1.0594 4.02698 0
M  V30 159 H 14.3568 -1.49182 5.13468 0
M  V30 160 H 14.6998 -2.16085 3.55827 0
M  V30 161 H 15.2328 -0.50682 3.94558 0
M  V30 162 H 11.9718 1.12996 6.45687 0
M  V30 163 H 11.4918 -0.513717 5.97596 0
M  V30 164 H 13.1708 -0.179539 6.46751 0
M  V30 165 N 13.3029 -1.57598 0.00835791 0
M  V30 166 C 14.5509 -1.90551 -0.6734 0
M  V30 167 C 14.8719 -0.883301 -1.73847 0
M  V30 168 O 14.1419 0.0781442 -1.95744 0
M  V30 169 H 12.7219 -0.703312 -0.251717 0
M  V30 170 H 15.3839 -1.94833 0.0512592 0
M  V30 171 H 14.4799 -2.9056 -1.13935 0
M  V30 172 N 14.781 0.264519 -1.55364 0
M  V30 173 C 15.711 1.33121 -1.91836 0
M  V30 174 C 16.692 1.51101 -0.781192 0
M  V30 175 O 17.877 1.64003 -1.04003 0
M  V30 176 C 15.007 2.68921 -2.19769 0
M  V30 177 C 13.961 2.65661 -3.35571 0
M  V30 178 C 13.287 4.05093 -3.49004 0
M  V30 179 C 14.587 2.24187 -4.71739 0
M  V30 180 H 16.281 1.02844 -2.81182 0
M  V30 181 H 13.827 0.493286 -1.35287 0
M  V30 182 H 15.78 3.43663 -2.43872 0
M  V30 183 H 14.504 3.00799 -1.27231 0
M  V30 184 H 13.163 1.93377 -3.1145 0
M  V30 185 H 12.811 4.34206 -2.53917 0
M  V30 186 H 12.511 4.03804 -4.26868 0
M  V30 187 H 14.035 4.81561 -3.75408 0
M  V30 188 H 15.449 2.88654 -4.9533 0
M  V30 189 H 13.846 2.34044 -5.52579 0
M  V30 190 H 14.916 1.19327 -4.69988 0
M  V30 191 N 16.2591 1.48442 0.529413 0
M  V30 192 C 17.5081 1.55742 1.28169 0
M  V30 193 C 17.8211 0.236511 1.94165 0
M  V30 194 O 19.0271 0.187761 2.7085 0
M  V30 195 C 17.4831 2.74667 2.32564 0
M  V30 196 C 17.0911 4.13402 1.72636 0
M  V30 197 C 18.8351 2.9128 3.08798 0
M  V30 198 C 16.7421 5.23587 2.74975 0
M  V30 199 H 15.6721 0.579796 0.48203 0
M  V30 200 H 18.3231 1.74776 0.559056 0
M  V30 201 H 16.7051 2.49067 3.07866 0
M  V30 202 H 17.8791 4.49022 1.03519 0
M  V30 203 H 16.1941 4.0191 1.08892 0
M  V30 204 H 18.7911 3.70767 3.85274 0
M  V30 205 H 19.1341 2.00757 3.64695 0
M  V30 206 H 19.6671 3.16782 2.40611 0
M  V30 207 H 16.4061 6.16076 2.23897 0
M  V30 208 H 15.9261 4.92454 3.42417 0
M  V30 209 H 17.6051 5.51724 3.37949 0
M  V30 210 N 17.7372 -0.778329 1.37039 0
M  V30 211 C 18.9622 -1.57248 1.35233 0
M  V30 212 C 19.3872 -1.87999 -0.0615568 0
M  V30 213 O 18.7452 -1.48734 -1.03672 0
M  V30 214 C 18.7932 -2.86353 2.19167 0
M  V30 215 O 17.8972 -3.80442 1.59178 0
M  V30 216 H 17.2382 -0.476569 0.462362 0
M  V30 217 H 19.7682 -0.963853 1.80474 0
M  V30 218 H 19.7782 -3.35519 2.32145 0
M  V30 219 H 18.4532 -2.63299 3.21942 0
M  V30 220 H 17.0302 -3.39067 1.55203 0
M  V30 221 N 19.2153 -1.21501 -1.00376 0
M  V30 222 C 20.4403 -1.05977 -1.78279 0
M  V30 223 C 20.8653 0.385994 -1.84097 0
M  V30 224 O 20.2233 1.27849 -1.28547 0
M  V30 225 C 20.2713 -1.66302 -3.19963 0
M  V30 226 O 19.3753 -0.909333 -4.0225 0
M  V30 227 H 18.7163 -0.372906 -0.549397 0
M  V30 228 H 21.2463 -1.6107 -1.26165 0
M  V30 229 H 21.2563 -1.70574 -3.70632 0
M  V30 230 H 19.9313 -2.71515 -3.15043 0
M  V30 231 H 18.5083 -0.941795 -3.60811 0
M  V30 232 N 20.6934 1.19889 -1.02296 0
M  V30 233 C 21.9394 1.89701 -0.717033 0
M  V30 234 C 22.2724 1.7905 0.751989 0
M  V30 235 O 21.5474 1.17891 1.547 0
M  V30 236 C 21.8304 3.40858 -1.16136 0
M  V30 237 C 21.6834 3.60411 -2.69117 0
M  V30 238 C 23.0024 4.33876 -0.737549 0
M  V30 239 H 20.1214 0.688874 -0.261957 0
M  V30 240 H 22.7634 1.41154 -1.27183 0
M  V30 241 H 20.9134 3.82335 -0.689342 0
M  V30 242 H 22.5854 3.28145 -3.2422 0
M  V30 243 H 20.8284 3.03665 -3.0979 0
M  V30 244 H 21.4994 4.66396 -2.95261 0
M  V30 245 H 23.9754 4.00081 -1.14344 0
M  V30 246 H 22.8514 5.38242 -1.0764 0
M  V30 247 H 23.1124 4.40628 0.360436 0
M  V30 248 N 22.1715 0.800033 1.35784 0
M  V30 249 C 23.4115 0.382891 2.00782 0
M  V30 250 C 23.7755 -1.02891 1.62103 0
M  V30 251 O 24.9765 -1.54771 2.19771 0
M  V30 252 C 23.2475 0.553299 3.53091 0
M  V30 253 S 24.8065 0.225608 4.3822 0
M  V30 254 H 21.6245 0.145737 0.695904 0
M  V30 255 H 24.2265 1.04085 1.65489 0
M  V30 256 H 22.9305 1.58091 3.78729 0
M  V30 257 H 22.4615 -0.120214 3.93216 0
M  V30 258 H 24.4765 -0.969074 4.86645 0
M  V30 259 N 23.6496 -1.47581 0.552962 0
M  V30 260 C 24.8896 -2.04379 0.0296245 0
M  V30 261 C 25.2536 -1.4185 -1.29393 0
M  V30 262 O 26.4546 -1.89669 -1.90471 0
M  V30 263 C 24.7256 -3.57339 -0.0661371 0
M  V30 264 S 26.2846 -4.35511 -0.536213 0
M  V30 265 H 23.1026 -0.710625 0.0230991 0
M  V30 266 H 25.7046 -1.81005 0.738734 0
M  V30 267 H 24.4086 -4.00374 0.901596 0
M  V30 268 H 23.9396 -3.85202 -0.798931 0
M  V30 269 H 25.9546 -4.6253 -1.79668 0
M  V30 270 N 25.1277 -0.289203 -1.54924 0
M  V30 271 C 26.3737 0.323998 -2.00195 0
M  V30 272 C 26.7067 1.54441 -1.17735 0
M  V30 273 O 25.9817 1.92875 -0.250878 0
M  V30 274 C 26.2647 0.692276 -3.53383 0
M  V30 275 C 26.1177 -0.536457 -4.46589 0
M  V30 276 C 27.4367 1.52335 -4.12895 0
M  V30 277 H 24.5557 0.116289 -0.727768 0
M  V30 278 H 27.1977 -0.398954 -1.85764 0
M  V30 279 H 25.3477 1.30822 -3.65811 0
M  V30 280 H 27.0197 -1.17499 -4.46085 0
M  V30 281 H 25.2627 -1.17192 -4.1767 0
M  V30 282 H 25.9337 -0.234806 -5.515 0
M  V30 283 H 28.4097 1.00302 -4.0383 0
M  V30 284 H 27.2857 1.74982 -5.20262 0
M  V30 285 H 27.5467 2.50886 -3.64018 0
M  V30 286 N 26.6058 1.57591 -0.0167156 0
M  V30 287 C 27.8528 1.91283 0.664597 0
M  V30 288 C 28.1808 0.891949 1.72842 0
M  V30 289 O 27.4358 -0.100931 1.9544 0
M  V30 290 C 27.7348 3.3172 1.33029 0
M  V30 291 C 27.4008 4.4914 0.398047 0
M  V30 292 C 26.0628 4.80992 0.141421 0
M  V30 293 C 28.4148 5.20634 -0.242825 0
M  V30 294 C 25.7428 5.81703 -0.764092 0
M  V30 295 C 28.0948 6.22311 -1.13632 0
M  V30 296 C 26.7588 6.52611 -1.40196 0
M  V30 297 H 26.0288 0.699956 0.243193 0
M  V30 298 H 28.6758 1.9135 -0.0758267 0
M  V30 299 H 26.9808 3.27856 2.14517 0
M  V30 300 H 28.6778 3.55055 1.86379 0
M  V30 301 H 25.2678 4.24262 0.608238 0
M  V30 302 H 29.4518 4.96267 -0.0576019 0
M  V30 303 H 24.7078 6.03532 -0.977732 0
M  V30 304 H 28.8818 6.76834 -1.63917 0
M  V30 305 H 26.5088 7.30467 -2.10529 0
M  V30 306 N 28.0839 -0.256276 1.55502 0
M  V30 307 C 29.0469 -1.30047 1.88734 0
M  V30 308 C 30.0469 -1.4154 0.763086 0
M  V30 309 O 31.2369 -1.40403 1.03115 0
M  V30 310 C 28.3689 -2.67953 2.10747 0
M  V30 311 H 29.5619 -1.01802 2.82093 0
M  V30 312 H 27.1149 -0.495134 1.4825 0
M  V30 313 H 27.8499 -3.01351 1.19825 0
M  V30 314 H 27.6349 -2.60993 2.92617 0
M  V30 315 H 29.1249 -3.43368 2.37673 0
M  V30 316 N 29.562 -1.4872 -0.521534 0
M  V30 317 C 30.494 -1.59968 -1.64143 0
M  V30 318 C 31.507 -0.483463 -1.55456 0
M  V30 319 O 32.696 -0.75467 -1.61762 0
M  V30 320 C 29.796 -1.52127 -3.02838 0
M  V30 321 C 28.969 -2.78932 -3.36921 0
M  V30 322 C 28.028 -2.64428 -4.54933 0
M  V30 323 O 27.054 -3.38331 -4.57735 0
M  V30 324 N 28.256 -1.74606 -5.53618 0
M  V30 325 H 31.021 -2.56548 -1.54929 0
M  V30 326 H 28.582 -1.45551 -0.708988 0
M  V30 327 H 30.574 -1.40106 -3.79674 0
M  V30 328 H 29.144 -0.634868 -3.06085 0
M  V30 329 H 28.364 -3.05455 -2.4918 0
M  V30 330 H 29.652 -3.63041 -3.56481 0
M  V30 331 H 29.05 -1.13782 -5.54139 0
M  V30 332 H 27.607 -1.6852 -6.29638 0
M  V30 333 N 31.0401 0.771051 -1.3745 0
M  V30 334 C 32.2681 1.56015 -1.35893 0
M  V30 335 C 32.6831 1.88718 0.0555523 0
M  V30 336 O 32.0401 1.51502 1.01752 0
M  V30 337 C 32.0911 2.87001 -2.19801 0
M  V30 338 O 31.8121 2.557 -3.55738 0
M  V30 339 C 33.3131 3.81228 -2.26231 0
M  V30 340 H 30.5331 0.483317 -0.465453 0
M  V30 341 H 33.0771 0.955611 -1.80799 0
M  V30 342 H 31.2321 3.43877 -1.78402 0
M  V30 343 H 31.6461 3.39584 -3.99729 0
M  V30 344 H 33.1201 4.70139 -2.89263 0
M  V30 345 H 33.5971 4.20409 -1.27093 0
M  V30 346 H 34.2031 3.30281 -2.67945 0
M  V30 347 N 32.5182 1.22032 0.997298 0
M  V30 348 C 33.7952 0.950823 1.70935 0
M  V30 349 C 34.1752 -0.535292 2.042 0
M  V30 350 O 33.5232 -1.50217 1.72183 0
M  V30 351 C 33.7332 1.84386 2.96315 0
M  V30 352 C 35.0812 2.09732 3.69185 0
M  V30 353 O 36.1052 1.81798 3.06314 0
M  V30 354 O 34.9642 2.57018 4.82291 0
M  V30 355 H 32.0582 0.357204 0.745878 0
M  V30 356 H 34.6042 1.32997 1.05404 0
M  V30 357 H 33.3762 2.84928 2.68201 0
M  V30 358 H 32.9992 1.46602 3.69586 0
M  V30 359 N 33.9963 -1.19345 1.0293 0
M  V30 360 C 34.9063 -2.26245 0.620515 0
M  V30 361 C 35.9223 -1.70486 -0.347928 0
M  V30 362 O 37.0983 -2.00347 -0.205704 0
M  V30 363 C 34.1633 -3.46693 -0.0218957 0
M  V30 364 C 33.2243 -4.17632 0.994102 0
M  V30 365 C 32.4573 -5.32329 0.382253 0
M  V30 366 O 32.6803 -5.64552 -0.814676 0
M  V30 367 O 31.6143 -5.91664 1.10531 0
M  V30 368 H 35.4403 -2.63453 1.51083 0
M  V30 369 H 33.0253 -1.26207 0.799513 0
M  V30 370 H 34.9073 -4.19683 -0.380072 0
M  V30 371 H 33.5823 -3.11333 -0.886209 0
M  V30 372 H 32.4893 -3.4676 1.40387 0
M  V30 373 H 33.8223 -4.56964 1.8288 0
M  V30 374 N 35.4744 -0.807222 -1.35358 0
M  V30 375 C 36.4224 -0.20614 -2.31685 0
M  V30 376 C 37.4164 0.644445 -1.56663 0
M  V30 377 O 38.6224 0.537538 -1.71786 0
M  V30 378 H 34.9974 -0.0479006 -0.750473 0
M  V30 379 H 36.9684 -1.03369 -2.79924 0
M  V30 380 C 35.7174 0.630212 -3.41941 0
M  V30 381 H 35.0404 -0.0149558 -3.99797 0
M  V30 382 H 36.4804 1.01716 -4.11619 0
M  V30 383 C 34.9394 1.79601 -2.85035 0
M  V30 384 O 35.4694 2.89351 -2.78637 0
M  V30 385 N 33.6754 1.60774 -2.42074 0
M  V30 386 H 33.2224 0.715009 -2.47478 0
M  V30 387 H 33.1804 2.38933 -2.04349 0
M  V30 388 N 36.9525 1.47285 -0.560781 0
M  V30 389 C 38.3685 1.58065 -0.22081 0
M  V30 390 C 38.5685 1.55892 1.27671 0
M  V30 391 O 37.6245 1.46422 2.0571 0
M  V30 392 C 38.9375 2.88418 -0.850625 0
M  V30 393 C 40.4855 3.02009 -0.822184 0
M  V30 394 C 40.9605 4.35066 -1.43113 0
M  V30 395 N 42.4515 4.41711 -1.39448 0
M  V30 396 C 43.1865 5.43237 -1.83525 0
M  V30 397 N 42.6825 6.51555 -2.35474 0
M  V30 398 N 44.4755 5.34304 -1.74574 0
M  V30 399 H 36.6265 1.46941 -1.53369 0
M  V30 400 H 38.8895 0.699558 -0.639783 0
M  V30 401 H 38.5955 2.95755 -1.9032 0
M  V30 402 H 38.4695 3.75612 -0.345773 0
M  V30 403 H 40.8565 2.94266 0.221714 0
M  V30 404 H 40.9375 2.16347 -1.36483 0
M  V30 405 H 40.5815 4.43565 -2.47412 0
M  V30 406 H 40.5115 5.19465 -0.863899 0
M  V30 407 H 43.0025 3.64027 -1.01452 0
M  V30 408 H 43.3155 7.25203 -2.67021 0
M  V30 409 H 41.6605 6.52435 -2.39487 0
M  V30 410 H 44.8515 4.48581 -1.33763 0
M  V30 411 H 45.0245 6.13288 -2.09242 0
M  V30 412 N 38.4306 0.297415 1.54768 0
M  V30 413 C 39.6706 -0.313829 2.01976 0
M  V30 414 C 40.0346 -1.51366 1.1812 0
M  V30 415 O 41.2356 -2.19603 1.5501 0
M  V30 416 C 39.5066 -0.664964 3.51159 0
M  V30 417 S 41.0656 -1.25958 4.20333 0
M  V30 418 H 37.8836 -0.0965014 0.704421 0
M  V30 419 H 40.4856 0.424451 1.90837 0
M  V30 420 H 39.1896 0.21681 4.09827 0
M  V30 421 H 38.7206 -1.43413 3.66328 0
M  V30 422 H 40.7356 -2.54751 4.25813 0
M  V30 423 N 39.9087 -1.5758 0.0250728 0
M  V30 424 C 40.8387 -2.13007 -0.956575 0
M  V30 425 C 41.8197 -1.0452 -1.342 0
M  V30 426 O 43.0047 -1.32332 -1.42133 0
M  V30 427 C 40.1347 -2.65386 -2.24026 0
M  V30 428 C 39.0887 -3.78623 -1.99571 0
M  V30 429 C 38.4147 -4.17414 -3.3417 0
M  V30 430 C 39.7147 -5.04867 -1.33814 0
M  V30 431 H 41.4087 -2.9528 -0.494991 0
M  V30 432 H 38.9547 -1.42042 -0.236651 0
M  V30 433 H 40.9077 -3.02794 -2.93076 0
M  V30 434 H 39.6317 -1.80268 -2.72343 0
M  V30 435 H 38.2907 -3.41646 -1.32941 0
M  V30 436 H 37.9387 -3.29284 -3.80238 0
M  V30 437 H 37.6387 -4.93719 -3.18615 0
M  V30 438 H 39.1627 -4.57402 -4.04495 0
M  V30 439 H 40.5767 -5.39888 -1.92857 0
M  V30 440 H 38.9737 -5.86144 -1.28669 0
M  V30 441 H 40.0437 -4.83904 -0.310561 0
M  V30 442 N 41.3868 0.248026 -1.55636 0
M  V30 443 C 42.3338 1.30707 -1.90222 0
M  V30 444 C 43.3038 1.47881 -0.756332 0
M  V30 445 O 44.4888 1.61883 -1.00988 0
M  V30 446 C 41.6288 2.65769 -2.20138 0
M  V30 447 C 40.7418 2.56612 -3.47526 0
M  V30 448 C 39.8768 3.8402 -3.67017 0
M  V30 449 C 38.9158 3.69476 -4.8801 0
M  V30 450 N 38.0528 4.88774 -5.04029 0
M  V30 451 H 42.8928 1.00512 -2.80538 0
M  V30 452 H 40.4298 0.485055 -1.38873 0
M  V30 453 H 42.3878 3.44386 -2.35487 0
M  V30 454 H 41.0178 2.94115 -1.33027 0
M  V30 455 H 40.0698 1.69571 -3.40514 0
M  V30 456 H 41.3818 2.41774 -4.36287 0
M  V30 457 H 40.5358 4.7108 -3.8232 0
M  V30 458 H 39.2748 4.01754 -2.76487 0
M  V30 459 H 38.2798 2.80799 -4.72686 0
M  V30 460 H 39.5048 3.53238 -5.8 0
M  V30 461 H 37.4508 5.0687 -4.16435 0
M  V30 462 H 37.3678 4.76562 -5.86877 0
M  V30 463 H 38.6358 5.77335 -5.23741 0
M  V30 464 N 42.8649 1.48995 0.513639 0
M  V30 465 C 43.8279 1.64229 1.59879 0
M  V30 466 C 44.8279 0.514696 1.5234 0
M  V30 467 O 46.0179 0.78087 1.55718 0
M  V30 468 C 43.1499 1.62783 2.99524 0
M  V30 469 H 44.3429 2.61004 1.47705 0
M  V30 470 H 41.8959 1.37837 0.736936 0
M  V30 471 H 42.6309 0.675461 3.17188 0
M  V30 472 H 42.4159 2.4466 3.06404 0
M  V30 473 H 43.9059 1.76669 3.78388 0
M  V30 474 N 44.343 -0.763751 1.37857 0
M  V30 475 C 45.291 -1.89864 1.34367 0
M  V30 476 C 46.285 -1.67816 0.231143 0
M  V30 477 O 47.491 -1.75508 0.399617 0
M  V30 478 H 43.866 -0.624501 0.41893 0
M  V30 479 H 45.837 -1.89925 2.30155 0
M  V30 480 C 44.586 -3.27227 1.1755 0
M  V30 481 H 43.909 -3.44773 2.02414 0
M  V30 482 H 45.349 -4.06911 1.1916 0
M  V30 483 C 43.808 -3.36692 -0.118311 0
M  V30 484 O 44.338 -3.86374 -1.09902 0
M  V30 485 N 42.544 -2.90092 -0.171717 0
M  V30 486 H 42.091 -2.49853 0.627012 0
M  V30 487 H 42.049 -2.96806 -1.03699 0
M  V30 488 N 45.8211 -1.22559 -0.990812 0
M  V30 489 C 46.7841 -0.998863 -2.0629 0
M  V30 490 C 47.7841 0.0354834 -1.60761 0
M  V30 491 O 48.9741 -0.203231 -1.7301 0
M  V30 492 C 46.1061 -0.509203 -3.37076 0
M  V30 493 H 47.2991 -1.95014 -2.27837 0
M  V30 494 H 44.8521 -1.04456 -1.16269 0
M  V30 495 H 45.5871 0.446335 -3.21214 0
M  V30 496 H 45.3721 -1.25547 -3.71457 0
M  V30 497 H 46.8621 -0.370888 -4.1595 0
M  V30 498 N 47.2992 1.18797 -1.03562 0
M  V30 499 C 48.2462 2.22253 -0.622259 0
M  V30 500 C 49.2162 1.61987 0.36736 0
M  V30 501 O 50.4012 1.88986 0.262492 0
M  V30 502 C 47.5412 3.45097 0.0138462 0
M  V30 503 C 46.6542 4.19722 -1.02263 0
M  V30 504 C 45.7892 5.30009 -0.355573 0
M  V30 505 C 44.8282 5.96399 -1.37749 0
M  V30 506 N 43.9652 6.98234 -0.735766 0
M  V30 507 H 48.8052 2.56968 -1.50903 0
M  V30 508 H 46.3422 1.26245 -0.755017 0
M  V30 509 H 48.3002 4.15279 0.399948 0
M  V30 510 H 46.9302 3.11018 0.864158 0
M  V30 511 H 45.9822 3.48418 -1.52673 0
M  V30 512 H 47.2942 4.65227 -1.79903 0
M  V30 513 H 46.4482 6.0664 0.0850095 0
M  V30 514 H 45.1872 4.85592 0.452967 0
M  V30 515 H 44.1922 5.18512 -1.82826 0
M  V30 516 H 45.4172 6.42899 -2.18764 0
M  V30 517 H 43.3632 6.55979 0.0525597 0
M  V30 518 H 43.2802 7.41965 -1.44995 0
M  V30 519 H 44.5482 7.78845 -0.31941 0
M  V30 520 N 48.7773 0.814389 1.34928 0
M  V30 521 C 50.0023 0.410097 2.03305 0
M  V30 522 C 50.4273 -0.973464 1.60951 0
M  V30 523 O 49.7853 -1.63185 0.789964 0
M  V30 524 C 49.8333 0.51049 3.56968 0
M  V30 525 O 48.9373 -0.473035 4.09678 0
M  V30 526 H 48.2783 0.170088 0.641846 0
M  V30 527 H 50.8083 1.10244 1.72358 0
M  V30 528 H 50.8183 0.383135 4.06197 0
M  V30 529 H 49.4933 1.51963 3.87144 0
M  V30 530 H 48.0703 -0.305272 3.71648 0
M  V30 531 N 50.2554 -1.46986 0.568584 0
M  V30 532 C 51.4954 -2.04336 0.0512999 0
M  V30 533 C 51.8594 -1.43214 -1.27881 0
M  V30 534 O 53.0604 -1.91679 -1.88448 0
M  V30 535 C 51.3314 -3.57389 -0.0282328 0
M  V30 536 S 52.8904 -4.36056 -0.489991 0
M  V30 537 H 49.7084 -0.71034 0.0306349 0
M  V30 538 H 52.3104 -1.80212 0.757891 0
M  V30 539 H 51.0144 -3.99395 0.944011 0
M  V30 540 H 50.5454 -3.86028 -0.75803 0
M  V30 541 H 52.5604 -4.6441 -1.74752 0
M  V30 542 N 51.7335 -0.305618 -1.54608 0
M  V30 543 C 52.9815 0.301701 -1.99835 0
M  V30 544 C 53.3025 1.54054 -1.19551 0
M  V30 545 O 52.5725 1.93702 -0.292658 0
M  V30 546 H 51.1525 0.114468 -0.738178 0
M  V30 547 H 53.8145 -0.418016 -1.90364 0
M  V30 548 H 52.9105 0.570548 -3.06841 0
M  V30 549 N 53.2116 1.57565 -0.0334293 0
M  V30 550 C 54.1216 2.13943 0.962572 0
M  V30 551 C 55.1376 1.09276 1.35406 0
M  V30 552 O 56.3136 1.41355 1.4346 0
M  V30 553 C 53.3786 2.65887 2.22497 0
M  V30 554 C 52.4396 3.85286 1.8935 0
M  V30 555 C 51.6726 4.34743 3.09571 0
M  V30 556 O 51.8956 3.83352 4.22371 0
M  V30 557 O 50.8296 5.26538 2.91618 0
M  V30 558 H 54.6556 2.99333 0.513169 0
M  V30 559 H 52.2406 1.4822 0.18743 0
M  V30 560 H 54.1226 2.99346 2.96598 0
M  V30 561 H 52.7976 1.83578 2.6661 0
M  V30 562 H 51.7046 3.56746 1.1262 0
M  V30 563 H 53.0376 4.68771 1.5005 0
M  V30 564 N 54.6897 -0.239769 1.55765 0
M  V30 565 C 55.9297 -0.974076 1.79697 0
M  V30 566 C 56.2937 -1.82249 0.604088 0
M  V30 567 O 57.4947 -2.58913 0.722324 0
M  V30 568 C 55.7657 -1.80595 3.08416 0
M  V30 569 S 57.3247 -2.59838 3.53596 0
M  V30 570 H 54.1427 -0.327524 0.63107 0
M  V30 571 H 56.7447 -0.241277 1.94005 0
M  V30 572 H 55.4487 -1.17249 3.93295 0
M  V30 573 H 54.9797 -2.58137 2.96865 0
M  V30 574 H 56.9947 -3.82987 3.15492 0
M  V30 575 N 56.1678 -1.49265 -0.50573 0
M  V30 576 C 57.4168 -1.57761 -1.25675 0
M  V30 577 C 57.7298 -0.267371 -1.93764 0
M  V30 578 O 58.9358 -0.230827 -2.70517 0
M  V30 579 C 57.3918 -2.78332 -2.28165 0
M  V30 580 C 56.9998 -4.16096 -1.66037 0
M  V30 581 C 58.7438 -2.96155 -3.04125 0
M  V30 582 C 56.6508 -5.27895 -2.6661 0
M  V30 583 H 55.5808 -0.587391 -0.472745 0
M  V30 584 H 58.2318 -1.75644 -0.53118 0
M  V30 585 H 56.6138 -2.53934 -3.03865 0
M  V30 586 H 57.7878 -4.50612 -0.963622 0
M  V30 587 H 56.1028 -4.03591 -1.02484 0
M  V30 588 H 58.6998 -3.76849 -3.79327 0
M  V30 589 H 59.0428 -2.06534 -3.61455 0
M  V30 590 H 59.5758 -3.2057 -2.35541 0
M  V30 591 H 56.3148 -6.1956 -2.14068 0
M  V30 592 H 55.8348 -4.97839 -3.34539 0
M  V30 593 H 57.5138 -5.57031 -3.29129 0
M  V30 594 N 57.6459 0.756429 -1.3826 0
M  V30 595 C 58.5779 1.87971 -1.31147 0
M  V30 596 C 59.5909 1.61248 -0.224239 0
M  V30 597 O 60.7799 1.71881 -0.481581 0
M  V30 598 C 57.8799 3.23545 -1.00857 0
M  V30 599 C 57.0529 3.77794 -2.20432 0
M  V30 600 C 56.1119 4.91877 -1.86931 0
M  V30 601 O 55.1379 5.06659 -2.59395 0
M  V30 602 N 56.3399 5.74643 -0.822568 0
M  V30 603 H 59.1049 1.94585 -2.2794 0
M  V30 604 H 56.6659 0.936234 -1.32084 0
M  V30 605 H 58.6579 3.97403 -0.765021 0
M  V30 606 H 57.2279 3.12335 -0.128687 0
M  V30 607 H 56.4479 2.95534 -2.6087 0
M  V30 608 H 57.7359 4.10771 -3.00241 0
M  V30 609 H 57.1339 5.65266 -0.221575 0
M  V30 610 H 55.6909 6.48661 -0.638899 0
M  V30 611 N 59.124 1.23083 0.984299 0
M  V30 612 C 60.087 1.00979 2.05757 0
M  V30 613 C 61.087 -0.0269573 1.60777 0
M  V30 614 O 62.277 0.212403 1.729 0
M  V30 615 C 59.409 0.527072 3.36801 0
M  V30 616 H 60.602 1.9622 2.26799 0
M  V30 617 H 58.155 1.05072 1.15714 0
M  V30 618 H 58.89 -0.429294 3.21446 0
M  V30 619 H 58.675 1.27515 3.70786 0
M  V30 620 H 60.165 0.392942 4.15747 0
M  V30 621 N 60.6021 -1.18246 1.0419 0
M  V30 622 C 61.8501 -1.87886 0.744543 0
M  V30 623 C 62.1711 -1.8082 -0.730006 0
M  V30 624 O 61.4411 -1.22736 -1.52685 0
M  V30 625 H 60.0211 -0.695556 0.272417 0
M  V30 626 H 62.6831 -1.43494 1.31892 0
M  V30 627 H 61.7791 -2.9389 1.05049 0
M  V30 628 N 62.0802 -0.821533 -1.34494 0
M  V30 629 C 63.4912 -0.467956 -1.8074 0
M  V30 630 C 63.8422 1.01151 -1.68116 0
M  V30 631 O 62.9672 1.78707 -1.22036 0
M  V30 632 C 63.5622 -0.842627 -3.28154 0
M  V30 633 C 62.1212 -0.541439 -3.72485 0
M  V30 634 C 61.2682 -1.06028 -2.56229 0
M  V30 635 H 64.2192 -1.01183 -1.22261 0
M  V30 636 H 64.2402 -0.145876 -3.8022 0
M  V30 637 H 63.7522 -1.91945 -3.37311 0
M  V30 638 H 61.8532 0.526034 -3.68868 0
M  V30 639 H 61.9662 -1.08453 -4.66663 0
M  V30 640 H 60.3302 -0.481892 -2.501 0
M  V30 641 H 61.1132 -2.14352 -2.68157 0
M  V30 642 N 63.5583 1.46682 -0.576371 0
M  V30 643 C 64.5063 2.31953 0.17335 0
M  V30 644 C 65.5003 1.44098 0.89062 0
M  V30 645 O 66.7063 1.60759 0.809728 0
M  V30 646 H 63.0813 0.748273 0.0747727 0
M  V30 647 H 65.0523 2.93007 -0.564738 0
M  V30 648 C 63.8013 3.27142 1.17786 0
M  V30 649 H 63.1243 3.94719 0.635361 0
M  V30 650 H 64.5643 3.896 1.67296 0
M  V30 651 C 63.0233 2.52036 2.23561 0
M  V30 652 O 63.5533 2.27877 3.3081 0
M  V30 653 N 61.7593 2.12709 1.97998 0
M  V30 654 H 61.3063 2.32557 1.10792 0
M  V30 655 H 61.2643 1.62776 2.68982 0
M  V30 656 N 65.0364 0.313813 1.54444 0
M  V30 657 C 66.2764 -0.292389 2.02298 0
M  V30 658 C 66.6404 -1.50105 1.19719 0
M  V30 659 O 67.8414 -2.17947 1.5733 0
M  V30 660 C 66.1124 -0.627682 3.51845 0
M  V30 661 S 67.6714 -1.21493 4.21646 0
M  V30 662 H 64.4894 -0.0890247 0.705405 0
M  V30 663 H 67.0914 0.444668 1.90376 0
M  V30 664 H 65.7954 0.260265 4.09574 0
M  V30 665 H 65.3264 -1.39519 3.67829 0
M  V30 666 H 67.3414 -2.5022 4.28491 0
M  V30 667 N 66.5145 -1.57545 0.0417849 0
M  V30 668 C 67.7625 -1.91937 -0.632829 0
M  V30 669 C 68.0835 -0.919978 -1.71934 0
M  V30 670 O 67.3535 0.0366064 -1.95866 0
M  V30 671 H 65.9335 -0.708493 -0.236742 0
M  V30 672 H 68.5955 -1.9468 0.0925745 0
M  V30 673 H 67.6915 -2.92912 -1.07746 0
M  V30 674 N 67.9926 0.231505 -1.5589 0
M  V30 675 C 69.2386 0.954429 -1.79617 0
M  V30 676 C 69.5936 1.82367 -0.613199 0
M  V30 677 O 68.8866 1.87524 0.393094 0
M  V30 678 C 69.0806 1.83577 -3.0665 0
M  V30 679 C 68.9096 1.05334 -4.3719 0
M  V30 680 C 67.6796 0.75225 -4.99669 0
M  V30 681 C 69.8776 0.423444 -5.12554 0
M  V30 682 N 67.8596 -0.052627 -6.13877 0
M  V30 683 C 69.2306 -0.245287 -6.19515 0
M  V30 684 C 71.2856 0.335466 -4.96769 0
M  V30 685 C 69.9886 -0.993566 -7.12405 0
M  V30 686 C 72.0146 -0.399321 -5.9005 0
M  V30 687 C 71.3766 -1.05663 -6.9643 0
M  V30 688 H 67.4756 0.329846 -0.709031 0
M  V30 689 H 70.0596 0.226172 -1.93382 0
M  V30 690 H 68.2306 2.53592 -2.94186 0
M  V30 691 H 69.9626 2.49541 -3.18608 0
M  V30 692 H 66.7176 1.06783 -4.61405 0
M  V30 693 H 67.1416 -0.443609 -6.75545 0
M  V30 694 H 71.7836 0.829311 -4.14587 0
M  V30 695 H 69.5016 -1.49896 -7.94076 0
M  V30 696 H 73.0876 -0.468265 -5.79913 0
M  V30 697 H 71.9676 -1.61612 -7.67366 0
M  V30 698 N 69.4707 1.49531 0.497807 0
M  V30 699 C 70.7107 1.60799 1.26187 0
M  V30 700 C 71.0747 0.289627 1.89803 0
M  V30 701 O 72.2757 0.277512 2.67364 0
M  V30 702 C 70.5467 2.73729 2.29798 0
M  V30 703 S 72.1057 3.04968 3.155 0
M  V30 704 H 68.9237 0.567145 0.428798 0
M  V30 705 H 71.5257 1.87204 0.563477 0
M  V30 706 H 70.2297 3.68036 1.81597 0
M  V30 707 H 69.7607 2.49328 3.04301 0
M  V30 708 H 71.7757 2.46735 4.30507 0
M  V30 709 N 70.9488 -0.749086 1.3866 0
M  V30 710 C 72.1768 -1.53834 1.38358 0
M  V30 711 C 72.5918 -1.88783 -0.0255219 0
M  V30 712 O 71.9488 -1.53101 -0.993292 0
M  V30 713 C 71.9998 -2.83468 2.2434 0
M  V30 714 O 71.7208 -2.50008 3.5976 0
M  V30 715 C 73.2218 -3.7758 2.32267 0
M  V30 716 H 70.4418 -0.47585 0.473083 0
M  V30 717 H 72.9858 -0.926726 1.82297 0
M  V30 718 H 71.1408 -3.40995 1.83851 0
M  V30 719 H 71.5548 -3.33182 4.05081 0
M  V30 720 H 73.0288 -4.65478 2.96706 0
M  V30 721 H 73.5058 -4.18334 1.33765 0
M  V30 722 H 74.1118 -3.25976 2.73166 0
M  V30 723 N 72.4269 -1.23603 -0.977757 0
M  V30 724 C 73.3749 -1.01704 -2.09187 0
M  V30 725 C 74.3689 0.0448214 -1.69341 0
M  V30 726 O 75.5749 -0.108902 -1.7967 0
M  V30 727 H 71.9499 -0.311803 -0.684312 0
M  V30 728 H 73.9209 -1.96207 -2.24823 0
M  V30 729 C 72.6699 -0.627746 -3.41986 0
M  V30 730 H 71.9929 -1.43656 -3.73099 0
M  V30 731 H 73.4329 -0.514053 -4.20872 0
M  V30 732 C 71.8919 0.664238 -3.30287 0
M  V30 733 O 72.4219 1.71268 -3.6336 0
M  V30 734 N 70.6279 0.641156 -2.83439 0
M  V30 735 H 70.1749 -0.212376 -2.56723 0
M  V30 736 H 70.1329 1.50583 -2.75993 0
M  V30 737 N 73.905 1.17692 -1.04816 0
M  V30 738 C 75.13 1.92327 -0.776207 0
M  V30 739 C 75.555 1.76082 0.661581 0
M  V30 740 O 74.913 1.076 1.45917 0
M  V30 741 C 74.961 3.41539 -1.15687 0
M  V30 742 O 74.065 4.11402 -0.286775 0
M  V30 743 H 73.406 0.599735 -0.284981 0
M  V30 744 H 75.936 1.49201 -1.4 0
M  V30 745 H 75.946 3.92269 -1.12202 0
M  V30 746 H 74.621 3.52684 -2.20425 0
M  V30 747 H 73.198 3.70939 -0.381903 0
M  V30 748 N 75.3831 0.828654 1.34056 0
M  V30 749 C 76.6111 0.43262 2.02326 0
M  V30 750 C 77.0261 -0.963147 1.62385 0
M  V30 751 O 76.3831 -1.62425 0.832121 0
M  V30 752 C 76.4341 0.53182 3.57567 0
M  V30 753 O 76.1551 1.87258 3.96063 0
M  V30 754 C 77.6561 0.131422 4.43105 0
M  V30 755 H 74.8761 0.172923 0.648335 0
M  V30 756 H 77.4201 1.1184 1.71208 0
M  V30 757 H 75.5751 -0.105938 3.87255 0
M  V30 758 H 75.9891 1.85087 4.90758 0
M  V30 759 H 77.4631 0.251904 5.51425 0
M  V30 760 H 77.9401 -0.925645 4.29335 0
M  V30 761 H 78.5461 0.743207 4.18756 0
M  V30 762 N 76.8612 -1.46375 0.584142 0
M  V30 763 C 78.1082 -2.02378 0.0702675 0
M  V30 764 C 78.4362 -1.45545 -1.29023 0
M  V30 765 O 77.6912 -0.610967 -1.85918 0
M  V30 766 C 77.9902 -3.57373 -0.0439342 0
M  V30 767 C 77.6562 -4.33252 1.24915 0
M  V30 768 C 76.3182 -4.53701 1.60341 0
M  V30 769 C 78.6702 -4.7681 2.1048 0
M  V30 770 C 75.9982 -5.1496 2.81128 0
M  V30 771 C 78.3502 -5.39404 3.30494 0
M  V30 772 C 77.0142 -5.5808 3.66201 0
M  V30 773 H 76.2842 -0.740554 0.0257127 0
M  V30 774 H 78.9312 -1.75727 0.761065 0
M  V30 775 H 77.2362 -3.83169 -0.817869 0
M  V30 776 H 78.9332 -3.98384 -0.457318 0
M  V30 777 H 75.5232 -4.17633 0.963364 0
M  V30 778 H 79.7072 -4.60766 1.84414 0
M  V30 779 H 74.9632 -5.27611 3.08928 0
M  V30 780 H 79.1372 -5.72114 3.97063 0
M  V30 781 H 76.7642 -6.05318 4.59885 0
M  V30 782 N 78.3393 -0.321999 -1.54275 0
M  V30 783 C 79.2693 0.537411 -2.27231 0
M  V30 784 C 80.2503 1.12064 -1.27968 0
M  V30 785 O 81.4353 1.14606 -1.56777 0
M  V30 786 C 78.5653 1.69919 -3.02894 0
M  V30 787 C 77.5193 1.24534 -4.09482 0
M  V30 788 C 76.8453 2.49394 -4.72977 0
M  V30 789 C 78.1453 0.361335 -5.21049 0
M  V30 790 H 79.8393 -0.0711406 -2.99315 0
M  V30 791 H 77.3853 -0.0356555 -1.43956 0
M  V30 792 H 79.3383 2.30668 -3.52662 0
M  V30 793 H 78.0623 2.33431 -2.28424 0
M  V30 794 H 76.7213 0.660782 -3.60596 0
M  V30 795 H 76.3693 3.11265 -3.95124 0
M  V30 796 H 76.0693 2.19718 -5.44975 0
M  V30 797 H 77.5933 3.10908 -5.25517 0
M  V30 798 H 79.0073 0.875072 -5.66582 0
M  V30 799 H 77.4043 0.157428 -5.99893 0
M  V30 800 H 78.4743 -0.60822 -4.8107 0
M  V30 801 N 79.8174 1.5752 -0.0501392 0
M  V30 802 C 80.7494 2.08413 0.95376 0
M  V30 803 C 81.7624 1.01175 1.27544 0
M  V30 804 O 82.9514 1.28744 1.23641 0
M  V30 805 C 80.0514 2.51138 2.27559 0
M  V30 806 C 79.2244 3.817 2.13598 0
M  V30 807 C 78.2834 4.10749 3.28895 0
M  V30 808 O 77.3094 4.80685 3.04845 0
M  V30 809 N 78.5114 3.62579 4.5334 0
M  V30 810 H 81.2764 2.95165 0.519383 0
M  V30 811 H 78.8374 1.61327 0.136127 0
M  V30 812 H 80.8294 2.67648 3.03557 0
M  V30 813 H 79.3994 1.6964 2.62567 0
M  V30 814 H 78.6194 3.74782 1.22197 0
M  V30 815 H 79.9074 4.67201 2.01496 0
M  V30 816 H 79.3054 3.06039 4.75769 0
M  V30 817 H 77.8624 3.84329 5.26436 0
M  V30 818 N 81.2955 -0.223234 1.56011 0
M  V30 819 C 82.2055 -1.29766 1.95443 0
M  V30 820 C 83.2215 -1.51373 0.858028 0
M  V30 821 O 84.3975 -1.64536 1.16146 0
M  V30 822 C 81.4625 -2.62772 2.26167 0
M  V30 823 C 80.5235 -2.49482 3.49367 0
M  V30 824 C 79.7565 -3.76145 3.78616 0
M  V30 825 O 79.9795 -4.79087 3.09568 0
M  V30 826 O 78.9135 -3.73358 4.72109 0
M  V30 827 H 82.7395 -0.99309 2.87004 0
M  V30 828 H 80.3245 -0.425958 1.43199 0
M  V30 829 H 82.2065 -3.41327 2.47131 0
M  V30 830 H 80.8815 -2.92913 1.37781 0
M  V30 831 H 79.7885 -1.69133 3.33684 0
M  V30 832 H 81.1215 -2.2428 4.38131 0
M  V30 833 N 82.7736 -1.49793 -0.48987 0
M  V30 834 C 84.0216 -1.59525 -1.24081 0
M  V30 835 C 84.3426 -0.288953 -1.92847 0
M  V30 836 O 83.6126 0.692436 -1.83254 0
M  V30 837 H 82.1926 -0.587796 -0.460983 0
M  V30 838 H 84.8546 -1.86477 -0.566778 0
M  V30 839 H 83.9506 -2.39696 -1.99881 0
M  V30 840 N 84.2517 0.741722 -1.39055 0
M  V30 841 C 85.1847 1.86416 -1.31622 0
M  V30 842 C 86.1627 1.61473 -0.191076 0
M  V30 843 O 87.3467 1.84825 -0.370399 0
M  V30 844 C 84.4737 3.22266 -1.04221 0
M  V30 845 C 83.5197 3.66079 -2.18834 0
M  V30 846 S 84.3527 3.7623 -3.81066 0
M  V30 847 C 85.5087 5.14881 -3.55877 0
M  V30 848 H 85.7417 1.92437 -2.26617 0
M  V30 849 H 83.2747 0.905907 -1.25031 0
M  V30 850 H 85.2327 4.00714 -0.890964 0
M  V30 851 H 83.8937 3.1391 -0.109237 0
M  V30 852 H 83.0867 4.64648 -1.95238 0
M  V30 853 H 82.6887 2.94817 -2.30128 0
M  V30 854 H 84.9807 6.01006 -3.12726 0
M  V30 855 H 85.9237 5.43503 -4.53884 0
M  V30 856 H 86.3317 4.84239 -2.90126 0
M  V30 857 N 85.7298 1.2412 0.971189 0
M  V30 858 C 87.1408 1.07236 1.52831 0
M  V30 859 C 87.4918 -0.357352 1.92918 0
M  V30 860 O 86.6168 -1.24528 1.76979 0
M  V30 861 C 87.2118 1.94043 2.77728 0
M  V30 862 C 85.7708 1.81394 3.29808 0
M  V30 863 C 84.9178 1.89189 2.02738 0
M  V30 864 H 87.8688 1.37648 0.789864 0
M  V30 865 H 87.8898 1.47066 3.5093 0
M  V30 866 H 87.4018 2.98093 2.4852 0
M  V30 867 H 85.5028 0.801634 3.63874 0
M  V30 868 H 85.6158 2.65294 3.98944 0
M  V30 869 H 83.9798 1.32877 2.17292 0
M  V30 870 H 84.7628 2.94812 1.759 0
M  V30 871 N 87.2079 -1.17134 1.05439 0
M  V30 872 C 88.4359 -1.91372 0.786414 0
M  V30 873 C 88.8509 -1.76955 -0.658202 0
M  V30 874 O 88.2079 -1.10838 -1.44987 0
M  V30 875 C 88.2589 -3.42356 1.1608 0
M  V30 876 O 87.9799 -3.56332 2.54871 0
M  V30 877 C 89.4809 -4.33663 0.919322 0
M  V30 878 H 86.7009 -0.607118 0.285743 0
M  V30 879 H 89.2449 -1.48525 1.40572 0
M  V30 880 H 87.3999 -3.82939 0.586191 0
M  V30 881 H 87.8139 -4.49896 2.69618 0
M  V30 882 H 89.2879 -5.38099 1.231 0
M  V30 883 H 89.7649 -4.38959 -0.145359 0
M  V30 884 H 90.3709 -3.98796 1.47789 0
M  V30 885 N 88.686 -0.835752 -1.33615 0
M  V30 886 C 89.911 -0.442389 -2.02627 0
M  V30 887 C 90.336 0.947735 -1.62479 0
M  V30 888 O 89.694 1.61907 -0.815826 0
M  V30 889 C 89.742 -0.567216 -3.56111 0
M  V30 890 O 88.846 0.407799 -4.10379 0
M  V30 891 H 88.187 -0.180278 -0.639059 0
M  V30 892 H 90.717 -1.12972 -1.70583 0
M  V30 893 H 90.727 -0.447708 -4.05536 0
M  V30 894 H 89.402 -1.58103 -3.84677 0
M  V30 895 H 87.979 0.246107 -3.72087 0
M  V30 896 N 90.1641 1.46063 -0.591896 0
M  V30 897 C 91.1271 2.28854 0.125973 0
M  V30 898 C 92.1271 1.38903 0.810107 0
M  V30 899 O 93.3171 1.61186 0.66066 0
M  V30 900 C 90.4491 3.19526 1.1881 0
M  V30 901 H 91.6421 2.93802 -0.601717 0
M  V30 902 H 89.1951 1.52325 -0.350254 0
M  V30 903 H 89.9301 2.59345 1.94707 0
M  V30 904 H 89.7151 3.85766 0.701936 0
M  V30 905 H 91.2051 3.81817 1.69132 0
M  V30 906 N 91.6422 0.330177 1.54103 0
M  V30 907 C 93.0582 -0.0222371 1.59585 0
M  V30 908 C 93.2582 -1.49902 1.34654 0
M  V30 909 O 92.3142 -2.25592 1.13421 0
M  V30 910 C 93.6272 0.401932 2.98002 0
M  V30 911 C 95.1752 0.353145 3.11001 0
M  V30 912 C 95.6502 0.752576 4.51775 0
M  V30 913 N 97.1412 0.706239 4.57784 0
M  V30 914 C 97.8762 0.987417 5.64834 0
M  V30 915 N 97.3722 1.33607 6.79795 0
M  V30 916 N 99.1652 0.91254 5.54643 0
M  V30 917 H 91.3162 1.29228 1.68564 0
M  V30 918 H 93.5792 0.525906 0.78875 0
M  V30 919 H 93.2852 1.4311 3.21267 0
M  V30 920 H 93.1592 -0.229699 3.765 0
M  V30 921 H 95.5462 -0.666822 2.87467 0
M  V30 922 H 95.6272 1.0198 2.34593 0
M  V30 923 H 95.2712 1.77049 4.76042 0
M  V30 924 H 95.2012 0.0635409 5.26562 0
M  V30 925 H 97.6922 0.44889 3.75224 0
M  V30 926 H 98.0052 1.53582 7.57385 0
M  V30 927 H 96.3502 1.37439 6.81275 0
M  V30 928 H 99.5412 0.639601 4.6371 0
M  V30 929 H 99.7142 1.13503 6.37982 0
M  V30 930 N 93.1203 -1.57491 0.0584922 0
M  V30 931 C 94.3603 -1.94851 -0.617458 0
M  V30 932 C 94.7243 -0.937165 -1.67575 0
M  V30 933 O 95.9253 -1.19795 -2.40629 0
M  V30 934 C 94.1963 -3.36955 -1.19147 0
M  V30 935 S 95.7553 -3.96277 -1.8844 0
M  V30 936 H 92.5733 -0.681539 -0.202547 0
M  V30 937 H 95.1753 -1.95073 0.129176 0
M  V30 938 H 93.8793 -4.08355 -0.409215 0
M  V30 939 H 93.4103 -3.40245 -1.97476 0
M  V30 940 H 95.4253 -3.82099 -3.16568 0
M  V30 941 N 94.5984 0.214957 -1.56127 0
M  V30 942 C 95.8754 0.963093 -1.70247 0
M  V30 943 C 96.2554 2.02166 -0.60764 0
M  V30 944 O 95.6034 2.25244 0.384385 0
M  V30 945 C 95.8134 1.56756 -3.11815 0
M  V30 946 C 97.1614 2.0573 -3.7143 0
M  V30 947 O 98.1854 1.66637 -3.14818 0
M  V30 948 O 97.0444 2.77603 -4.70743 0
M  V30 949 H 94.1384 0.450321 -0.693643 0
M  V30 950 H 96.6844 0.206219 -1.68442 0
M  V30 951 H 95.4564 0.803533 -3.82961 0
M  V30 952 H 95.0794 2.3898 -3.17765 0
M  V30 953 N 96.0765 1.50051 0.48192 0
M  V30 954 C 97.3535 1.51009 1.2432 0
M  V30 955 C 97.7335 0.248587 2.09631 0
M  V30 956 O 97.0815 -0.768409 2.15192 0
M  V30 957 C 97.2915 2.79981 2.08355 0
M  V30 958 C 98.6395 3.3022 2.66908 0
M  V30 959 O 99.6635 2.81228 2.18607 0
M  V30 960 O 98.5225 4.15595 3.54884 0
M  V30 961 H 95.6165 0.605239 0.563573 0
M  V30 962 H 98.1625 1.62332 0.494627 0
M  V30 963 H 96.9345 3.63275 1.45419 0
M  V30 964 H 96.5575 2.7161 2.90368 0
M  V30 965 N 97.5546 -0.734337 1.39446 0
M  V30 966 C 98.4846 -1.86155 1.40955 0
M  V30 967 C 99.4656 -1.67898 0.272827 0
M  V30 968 O 100.651 -1.88207 0.478743 0
M  V30 969 C 97.7806 -3.23912 1.25294 0
M  V30 970 C 96.7346 -3.56808 2.36373 0
M  V30 971 C 96.0606 -4.93508 2.058 0
M  V30 972 C 97.3606 -3.59713 3.78687 0
M  V30 973 H 99.0546 -1.8515 2.35287 0
M  V30 974 H 96.6006 -0.889367 1.13253 0
M  V30 975 H 98.5536 -4.02443 1.2497 0
M  V30 976 H 97.2776 -3.25446 0.274308 0
M  V30 977 H 95.9366 -2.80606 2.35914 0
M  V30 978 H 95.5846 -4.91623 1.06374 0
M  V30 979 H 95.2846 -5.16486 2.80208 0
M  V30 980 H 96.8086 -5.74396 2.07128 0
M  V30 981 H 98.2226 -4.2832 3.81071 0
M  V30 982 H 96.6196 -3.94209 4.52459 0
M  V30 983 H 97.6896 -2.59504 4.09617 0
M  V30 984 N 99.0327 -1.24633 -0.964593 0
M  V30 985 C 99.9427 -1.05859 -2.09359 0
M  V30 986 C 100.959 0.00148855 -1.74 0
M  V30 987 O 102.135 -0.197346 -2.00431 0
M  V30 988 C 99.1997 -0.668879 -3.40187 0
M  V30 989 C 98.2607 -1.80578 -3.89474 0
M  V30 990 C 97.4937 -1.43457 -5.14058 0
M  V30 991 O 97.7167 -0.325775 -5.69469 0
M  V30 992 O 96.6507 -2.2613 -5.57807 0
M  V30 993 H 100.477 -2.00516 -2.28094 0
M  V30 994 H 98.0617 -1.03481 -1.0776 0
M  V30 995 H 99.9437 -0.463211 -4.18846 0
M  V30 996 H 98.6187 0.248536 -3.22744 0
M  V30 997 H 97.5257 -2.06623 -3.11862 0
M  V30 998 H 98.8587 -2.70208 -4.11398 0
M  V30 999 N 100.511 1.16574 -1.06058 0
M  V30 1000 C 101.474 2.19085 -0.673392 0
M  V30 1001 C 102.474 1.5835 0.279648 0
M  V30 1002 O 103.664 1.74088 0.0623488 0
M  V30 1003 C 100.796 3.40899 0.00954234 0
M  V30 1004 H 101.989 2.54853 -1.58081 0
M  V30 1005 H 99.5418 1.30808 -0.855516 0
M  V30 1006 H 100.277 3.10684 0.929826 0
M  V30 1007 H 100.062 3.86233 -0.67573 0
M  V30 1008 H 101.552 4.1675 0.266245 0
M  V30 1009 N 101.989 0.842826 1.3317 0
M  V30 1010 C 102.919 0.294028 2.31641 0
M  V30 1011 C 103.9 -0.600401 1.59151 0
M  V30 1012 O 105.085 -0.523124 1.87022 0
M  V30 1013 C 102.215 -0.528416 3.43257 0
M  V30 1014 C 101.169 0.27056 4.27144 0
M  V30 1015 C 100.495 -0.675881 5.30411 0
M  V30 1016 C 101.795 1.48981 5.00602 0
M  V30 1017 H 103.489 1.11681 2.77791 0
M  V30 1018 H 101.035 0.538478 1.33553 0
M  V30 1019 H 102.988 -0.922674 4.11175 0
M  V30 1020 H 101.712 -1.38445 2.95805 0
M  V30 1021 H 100.371 0.646427 3.60856 0
M  V30 1022 H 100.019 -1.52842 4.79216 0
M  V30 1023 H 99.7189 -0.145374 5.8742 0
M  V30 1024 H 101.243 -1.06757 6.01195 0
M  V30 1025 H 102.657 1.16849 5.61266 0
M  V30 1026 H 101.054 1.95739 5.6728 0
M  V30 1027 H 102.124 2.25746 4.29147 0
M  V30 1028 N 103.467 -1.45747 0.599634 0
M  V30 1029 C 104.414 -2.30467 -0.123849 0
M  V30 1030 C 105.384 -1.41632 -0.86774 0
M  V30 1031 O 106.569 -1.70568 -0.855056 0
M  V30 1032 C 103.709 -3.26402 -1.12051 0
M  V30 1033 C 102.822 -4.3034 -0.37832 0
M  V30 1034 C 101.957 -5.13389 -1.364 0
M  V30 1035 C 100.996 -6.09061 -0.609171 0
M  V30 1036 N 100.133 -6.84918 -1.54374 0
M  V30 1037 H 104.973 -2.91802 0.604627 0
M  V30 1038 H 102.51 -1.43797 0.309972 0
M  V30 1039 H 104.468 -3.80482 -1.7114 0
M  V30 1040 H 103.098 -2.66839 -1.8165 0
M  V30 1041 H 102.15 -3.78984 0.327929 0
M  V30 1042 H 103.462 -4.98354 0.210997 0
M  V30 1043 H 102.616 -5.7183 -2.02719 0
M  V30 1044 H 101.355 -4.45376 -1.98725 0
M  V30 1045 H 100.36 -5.49758 0.0676979 0
M  V30 1046 H 101.585 -6.79099 0.00891991 0
M  V30 1047 H 99.531 -6.19601 -2.15478 0
M  V30 1048 H 99.448 -7.49254 -1.00766 0
M  V30 1049 H 100.716 -7.47906 -2.19676 0
M  V30 1050 N 104.945 -0.338344 -1.53925 0
M  V30 1051 C 105.892 0.520845 -2.24846 0
M  V30 1052 C 106.862 1.09976 -1.24477 0
M  V30 1053 O 108.047 1.13735 -1.53196 0
M  V30 1054 C 105.187 1.6685 -3.02084 0
M  V30 1055 C 104.3 1.11739 -4.17299 0
M  V30 1056 C 103.435 2.23193 -4.82036 0
M  V30 1057 C 102.474 1.65407 -5.89328 0
M  V30 1058 N 101.611 2.70582 -6.47866 0
M  V30 1059 H 106.451 -0.0904881 -2.97863 0
M  V30 1060 H 103.988 -0.0564282 -1.46992 0
M  V30 1061 H 105.946 2.34407 -3.45122 0
M  V30 1062 H 104.576 2.2509 -2.31375 0
M  V30 1063 H 103.628 0.332919 -3.7894 0
M  V30 1064 H 104.94 0.654677 -4.94485 0
M  V30 1065 H 104.094 2.98626 -5.28117 0
M  V30 1066 H 102.833 2.72807 -4.04262 0
M  V30 1067 H 101.838 0.884779 -5.42634 0
M  V30 1068 H 103.063 1.16652 -6.69006 0
M  V30 1069 H 101.009 3.1946 -5.72959 0
M  V30 1070 H 100.926 2.28917 -7.20509 0
M  V30 1071 H 102.194 3.45799 -6.98601 0
M  V30 1072 N 106.423 1.57458 -0.0668435 0
M  V30 1073 C 107.37 2.12439 0.902122 0
M  V30 1074 C 108.34 1.03565 1.2986 0
M  V30 1075 O 109.525 1.312 1.38532 0
M  V30 1076 C 106.665 2.6865 2.16614 0
M  V30 1077 C 105.778 3.91663 1.82274 0
M  V30 1078 C 104.913 4.36134 3.0325 0
M  V30 1079 C 103.952 5.51808 2.64904 0
M  V30 1080 N 103.089 5.9126 3.78624 0
M  V30 1081 H 107.929 2.94934 0.426382 0
M  V30 1082 H 105.466 1.4575 0.198819 0
M  V30 1083 H 107.424 2.99346 2.90599 0
M  V30 1084 H 106.054 1.88928 2.61737 0
M  V30 1085 H 105.106 3.6746 0.983719 0
M  V30 1086 H 106.418 4.75693 1.50059 0
M  V30 1087 H 105.572 4.68465 3.85519 0
M  V30 1088 H 104.311 3.50948 3.38655 0
M  V30 1089 H 103.316 5.19133 1.81055 0
M  V30 1090 H 104.541 6.38722 2.30675 0
M  V30 1091 H 102.487 5.09024 4.138 0
M  V30 1092 H 102.404 6.70018 3.5016 0
M  V30 1093 H 103.672 6.28212 4.61486 0
M  V30 1094 N 107.901 -0.206675 1.56239 0
M  V30 1095 C 109.149 -0.927007 1.79586 0
M  V30 1096 C 109.47 -1.8427 0.637929 0
M  V30 1097 O 108.74 -1.92849 -0.344398 0
M  V30 1098 H 107.32 -0.345292 0.662407 0
M  V30 1099 H 109.982 -0.21496 1.93711 0
M  V30 1100 H 109.078 -1.52501 2.72305 0
M  V30 1101 N 109.379 -1.50304 -0.473955 0
M  V30 1102 C 110.619 -1.62786 -1.23612 0
M  V30 1103 C 110.983 -0.319786 -1.89318 0
M  V30 1104 O 112.184 -0.320012 -2.66888 0
M  V30 1105 C 110.455 -2.77351 -2.25414 0
M  V30 1106 S 112.014 -3.09948 -3.10608 0
M  V30 1107 H 108.832 -0.573895 -0.419721 0
M  V30 1108 H 111.434 -1.88076 -0.533623 0
M  V30 1109 H 110.138 -3.70879 -1.75719 0
M  V30 1110 H 109.669 -2.54137 -3.00296 0
M  V30 1111 H 111.684 -2.53553 -4.26527 0
M  V30 1112 N 110.857 0.726932 -1.39834 0
M  V30 1113 C 112.268 1.30558 -1.3346 0
M  V30 1114 C 112.619 1.962 -0.00273003 0
M  V30 1115 O 111.744 1.96826 0.899371 0
M  V30 1116 C 112.339 2.37404 -2.41713 0
M  V30 1117 C 110.898 2.90921 -2.38835 0
M  V30 1118 C 110.045 1.64578 -2.2318 0
M  V30 1119 H 112.996 0.523862 -1.49804 0
M  V30 1120 H 113.017 3.17984 -2.08966 0
M  V30 1121 H 112.529 1.89599 -3.38635 0
M  V30 1122 H 110.63 3.42985 -1.45575 0
M  V30 1123 H 110.743 3.43487 -3.33997 0
M  V30 1124 H 109.107 1.89219 -1.70494 0
M  V30 1125 H 109.89 1.18814 -3.22084 0
M  V30 1126 N 112.336 1.25143 0.95797 0
M  V30 1127 C 113.747 1.08851 1.51685 0
M  V30 1128 C 114.098 -0.33687 1.93286 0
M  V30 1129 O 113.223 -1.22644 1.7829 0
M  V30 1130 C 113.818 1.96978 2.75654 0
M  V30 1131 C 112.377 1.84881 3.27866 0
M  V30 1132 C 111.524 1.91329 2.0072 0
M  V30 1133 H 114.475 1.38478 0.77522 0
M  V30 1134 H 114.496 1.5078 3.4935 0
M  V30 1135 H 114.008 3.00712 2.45345 0
M  V30 1136 H 112.109 0.840182 3.63004 0
M  V30 1137 H 112.222 2.6951 3.96107 0
M  V30 1138 H 110.586 1.35174 2.15871 0
M  V30 1139 H 111.369 2.96661 1.72764 0
M  V30 1140 N 113.814 -1.1601 1.06675 0
M  V30 1141 C 115.091 -1.82679 0.699114 0
M  V30 1142 C 115.471 -1.94559 -0.819137 0
M  V30 1143 O 114.819 -1.49169 -1.73092 0
M  V30 1144 C 115.029 -3.19445 1.40555 0
M  V30 1145 C 116.377 -3.95171 1.55323 0
M  V30 1146 O 117.401 -3.28976 1.36577 0
M  V30 1147 O 116.26 -5.13833 1.86112 0
M  V30 1148 H 113.354 -0.788954 0.247951 0
M  V30 1149 H 115.9 -1.23179 1.16726 0
M  V30 1150 H 114.672 -3.05856 2.44065 0
M  V30 1151 H 114.295 -3.86625 0.927733 0
M  V30 1152 N 115.292 -0.849877 -1.32721 0
M  V30 1153 C 116.569 -0.372405 -1.92022 0
M  V30 1154 C 116.949 1.1435 -1.77447 0
M  V30 1155 O 116.297 1.96296 -1.16962 0
M  V30 1156 C 116.507 -0.831482 -3.3895 0
M  V30 1157 C 117.855 -0.845882 -4.16089 0
M  V30 1158 O 118.879 -0.775806 -3.47649 0
M  V30 1159 O 117.738 -0.943753 -5.38289 0
M  V30 1160 H 114.832 -0.107667 -0.819961 0
M  V30 1161 H 117.378 -0.93646 -1.41522 0
M  V30 1162 H 116.15 -1.87448 -3.4348 0
M  V30 1163 H 115.773 -0.24461 -3.96847 0
M  V30 1164 N 116.77 1.45427 -0.607355 0
M  V30 1165 C 118.019 2.01452 -0.100036 0
M  V30 1166 C 118.332 1.48159 1.27704 0
M  V30 1167 O 119.538 1.96159 1.87707 0
M  V30 1168 C 117.994 3.59672 -0.128158 0
M  V30 1169 C 117.602 4.21962 -1.50507 0
M  V30 1170 C 119.346 4.23262 0.323932 0
M  V30 1171 C 117.253 5.72333 -1.48959 0
M  V30 1172 H 116.183 0.75325 -0.0336299 0
M  V30 1173 H 118.834 1.66901 -0.76265 0
M  V30 1174 H 117.216 3.91411 0.601105 0
M  V30 1175 H 118.39 4.01796 -2.25602 0
M  V30 1176 H 116.705 3.70565 -1.89923 0
M  V30 1177 H 119.302 5.33522 0.354691 0
M  V30 1178 H 119.645 3.93921 1.34656 0
M  V30 1179 H 120.178 3.96239 -0.352056 0
M  V30 1180 H 116.917 6.06373 -2.48981 0
M  V30 1181 H 116.437 5.94691 -0.781214 0
M  V30 1182 H 118.116 6.35525 -1.21313 0
M  V30 1183 N 118.248 0.346503 1.53744 0
M  V30 1184 C 119.158 -0.517293 2.28826 0
M  V30 1185 C 120.174 -1.10935 1.3405 0
M  V30 1186 O 121.35 -1.1244 1.6709 0
M  V30 1187 C 118.415 -1.65098 3.04866 0
M  V30 1188 C 117.476 -1.0884 4.15274 0
M  V30 1189 C 116.709 -2.16806 4.87679 0
M  V30 1190 O 116.932 -3.3758 4.59778 0
M  V30 1191 O 115.866 -1.80934 5.74061 0
M  V30 1192 H 119.692 0.0931396 3.03557 0
M  V30 1193 H 117.277 0.111458 1.48984 0
M  V30 1194 H 119.159 -2.31053 3.5241 0
M  V30 1195 H 117.834 -2.24717 2.32989 0
M  V30 1196 H 116.741 -0.3933 3.72027 0
M  V30 1197 H 118.074 -0.537036 4.89261 0
M  V30 1198 N 119.726 -1.57421 0.075193 0
M  V30 1199 C 120.674 -2.14124 -0.908508 0
M  V30 1200 C 121.668 -1.07898 -1.30592 0
M  V30 1201 O 122.874 -1.26273 -1.28277 0
M  V30 1202 H 119.249 -0.684707 -0.310935 0
M  V30 1203 H 121.22 -2.95634 -0.405374 0
M  V30 1204 C 119.969 -2.72044 -2.16535 0
M  V30 1205 H 119.292 -3.53456 -1.86839 0
M  V30 1206 H 120.732 -3.15311 -2.83469 0
M  V30 1207 C 119.191 -1.66968 -2.92615 0
M  V30 1208 O 119.721 -1.0967 -3.86439 0
M  V30 1209 N 117.927 -1.37923 -2.55784 0
M  V30 1210 H 117.474 -1.84706 -1.79559 0
M  V30 1211 H 117.432 -0.67852 -3.06991 0
M  V30 1212 N 121.204 0.198386 -1.56346 0
M  V30 1213 C 122.615 0.763358 -1.70381 0
M  V30 1214 C 122.966 1.83995 -0.681203 0
M  V30 1215 O 122.091 2.15785 0.16305 0
M  V30 1216 C 122.686 1.39143 -3.08909 0
M  V30 1217 C 121.245 1.90352 -3.2472 0
M  V30 1218 C 120.392 0.772233 -2.6633 0
M  V30 1219 H 123.343 -0.0266377 -1.58678 0
M  V30 1220 H 123.364 2.26076 -3.06055 0
M  V30 1221 H 122.876 0.607638 -3.83314 0
M  V30 1222 H 120.977 2.71461 -2.55225 0
M  V30 1223 H 121.09 2.06757 -4.3219 0
M  V30 1224 H 119.454 1.18566 -2.2542 0
M  V30 1225 H 120.237 0.00073556 -3.433 0
M  V30 1226 N 122.682 1.50554 0.465978 0
M  V30 1227 C 124.098 1.38093 0.800154 0
M  V30 1228 C 124.298 0.440988 1.96615 0
M  V30 1229 O 123.354 -0.114499 2.5224 0
M  V30 1230 C 124.667 2.79565 1.10742 0
M  V30 1231 C 126.215 2.88516 1.21357 0
M  V30 1232 C 126.69 4.30833 1.55393 0
M  V30 1233 N 128.181 4.33807 1.62375 0
M  V30 1234 C 128.916 5.40927 1.90225 0
M  V30 1235 N 128.412 6.58247 2.16062 0
M  V30 1236 N 130.205 5.28376 1.9177 0
M  V30 1237 H 122.356 2.10237 -0.302366 0
M  V30 1238 H 124.619 0.945203 -0.0727746 0
M  V30 1239 H 124.325 3.50208 0.323661 0
M  V30 1240 H 124.199 3.17125 2.04234 0
M  V30 1241 H 126.586 2.1809 1.98799 0
M  V30 1242 H 126.667 2.54492 0.258321 0
M  V30 1243 H 126.311 5.01799 0.784889 0
M  V30 1244 H 126.241 4.62347 2.52076 0
M  V30 1245 H 128.732 3.49212 1.44427 0
M  V30 1246 H 129.045 7.3569 2.36601 0
M  V30 1247 H 127.39 6.61413 2.13444 0
M  V30 1248 H 130.581 4.35715 1.71085 0
M  V30 1249 H 130.754 6.11944 2.13139 0
M  V30 1250 N 124.16 -0.719506 1.40217 0
M  V30 1251 C 125.408 -1.47641 1.3801 0
M  V30 1252 C 125.729 -1.94992 -0.018145 0
M  V30 1253 O 124.999 -1.70073 -0.972207 0
M  V30 1254 H 123.579 -0.547744 0.507923 0
M  V30 1255 H 126.241 -0.853187 1.75233 0
M  V30 1256 H 125.337 -2.35112 2.05253 0
M  V30 1257 N 125.638 -1.25649 -0.95132 0
M  V30 1258 C 126.863 -1.13443 -1.73624 0
M  V30 1259 C 127.288 0.307565 -1.85568 0
M  V30 1260 O 126.646 1.22282 -1.33854 0
M  V30 1261 C 126.694 -1.79723 -3.12621 0
M  V30 1262 O 125.798 -1.07912 -3.98031 0
M  V30 1263 H 125.139 -0.395872 -0.533086 0
M  V30 1264 H 127.669 -1.66276 -1.1922 0
M  V30 1265 H 127.679 -1.86141 -3.63064 0
M  V30 1266 H 126.354 -2.84633 -3.03244 0
M  V30 1267 H 124.931 -1.09398 -3.56492 0
M  V30 1268 N 127.117 1.15442 -1.07289 0
M  V30 1269 C 128.064 2.20161 -0.692653 0
M  V30 1270 C 129.034 1.63073 0.31564 0
M  V30 1271 O 130.219 1.89725 0.202235 0
M  V30 1272 C 127.359 3.44967 -0.0959509 0
M  V30 1273 C 126.472 4.16256 -1.15564 0
M  V30 1274 C 125.607 5.28609 -0.524011 0
M  V30 1275 C 124.646 5.91715 -1.56653 0
M  V30 1276 N 123.783 6.9554 -0.957531 0
M  V30 1277 H 128.623 2.52037 -1.59002 0
M  V30 1278 H 126.16 1.2378 -0.794798 0
M  V30 1279 H 128.118 4.16341 0.267628 0
M  V30 1280 H 126.748 3.1361 0.764772 0
M  V30 1281 H 125.8 3.43385 -1.6368 0
M  V30 1282 H 127.112 4.59268 -1.94613 0
M  V30 1283 H 126.266 6.06604 -0.108032 0
M  V30 1284 H 125.005 4.86787 0.29825 0
M  V30 1285 H 124.01 5.12433 -1.9923 0
M  V30 1286 H 125.235 6.35614 -2.39107 0
M  V30 1287 H 123.181 6.55814 -0.156162 0
M  V30 1288 H 123.098 7.36977 -1.68526 0
M  V30 1289 H 124.366 7.77435 -0.567032 0
M  V30 1290 N 128.595 0.856903 1.32268 0
M  V30 1291 C 129.872 0.382583 1.91822 0
M  V30 1292 C 130.252 -1.13407 1.78051 0
M  V30 1293 O 129.6 -1.95673 1.18001 0
M  V30 1294 C 129.81 0.849446 3.38505 0
M  V30 1295 C 131.158 0.867936 4.15634 0
M  V30 1296 O 132.182 0.794232 3.47232 0
M  V30 1297 O 131.041 0.972286 5.37781 0
M  V30 1298 H 128.135 0.112014 0.819379 0
M  V30 1299 H 130.681 0.943952 1.41024 0
M  V30 1300 H 129.453 1.89267 3.42482 0
M  V30 1301 H 129.076 0.265652 3.96712 0
M  V30 1302 N 130.073 -1.45103 0.615059 0
M  V30 1303 C 131.322 -2.01396 0.110718 0
M  V30 1304 C 131.635 -1.48834 -1.26916 0
M  V30 1305 O 132.841 -1.97152 -1.86664 0
M  V30 1306 C 131.297 -3.59599 0.14723 0
M  V30 1307 C 130.905 -4.21158 1.52743 0
M  V30 1308 C 132.649 -4.23428 -0.30148 0
M  V30 1309 C 130.556 -5.71535 1.51992 0
M  V30 1310 H 129.486 -0.753061 0.0376241 0
M  V30 1311 H 132.137 -1.66494 0.77149 0
M  V30 1312 H 130.519 -3.91724 -0.580339 0
M  V30 1313 H 131.693 -4.00594 2.2773 0
M  V30 1314 H 130.008 -3.69552 1.91886 0
M  V30 1315 H 132.605 -5.33703 -0.326392 0
M  V30 1316 H 132.948 -3.94629 -1.32565 0
M  V30 1317 H 133.481 -3.96047 0.373065 0
M  V30 1318 H 130.22 -6.05044 2.52193 0
M  V30 1319 H 129.74 -5.94268 0.81274 0
M  V30 1320 H 131.419 -6.34873 1.24681 0
M  V30 1321 N 131.551 -0.354651 -1.53558 0
M  V30 1322 C 132.498 0.496968 -2.25386 0
M  V30 1323 C 133.468 1.0865 -1.25636 0
M  V30 1324 O 134.653 1.12104 -1.54394 0
M  V30 1325 C 131.793 1.63637 -3.03837 0
M  V30 1326 C 130.906 1.07307 -4.18461 0
M  V30 1327 C 130.041 2.18068 -4.84376 0
M  V30 1328 C 129.08 1.59147 -5.91049 0
M  V30 1329 N 128.217 2.63695 -6.50699 0
M  V30 1330 H 133.057 -0.122075 -2.9775 0
M  V30 1331 H 130.594 -0.0720154 -1.46924 0
M  V30 1332 H 132.552 2.30734 -3.47589 0
M  V30 1333 H 131.182 2.22623 -2.33749 0
M  V30 1334 H 130.234 0.292708 -3.79272 0
M  V30 1335 H 131.546 0.602193 -4.95152 0
M  V30 1336 H 130.7 2.93007 -5.31255 0
M  V30 1337 H 129.439 2.68504 -4.07133 0
M  V30 1338 H 128.444 0.827175 -5.43542 0
M  V30 1339 H 129.669 1.09549 -6.70206 0
M  V30 1340 H 127.615 3.13365 -5.76315 0
M  V30 1341 H 127.532 2.21263 -7.22896 0
M  V30 1342 H 128.8 3.3837 -7.02229 0
M  V30 1343 N 133.029 1.57378 -0.0835403 0
M  V30 1344 C 133.976 2.13384 0.879539 0
M  V30 1345 C 134.946 1.04936 1.28754 0
M  V30 1346 O 136.131 1.32662 1.37133 0
M  V30 1347 C 133.271 2.70932 2.13752 0
M  V30 1348 C 132.384 3.93575 1.7811 0
M  V30 1349 C 131.519 4.39326 2.98607 0
M  V30 1350 C 130.558 5.54587 2.59037 0
M  V30 1351 N 129.695 5.95243 3.72331 0
M  V30 1352 H 134.535 2.9537 0.395076 0
M  V30 1353 H 132.072 1.45953 0.183349 0
M  V30 1354 H 134.03 3.02411 2.87408 0
M  V30 1355 H 132.66 1.91693 2.59718 0
M  V30 1356 H 131.712 3.68483 0.94469 0
M  V30 1357 H 133.024 4.77258 1.45005 0
M  V30 1358 H 132.178 4.72528 3.80529 0
M  V30 1359 H 130.917 3.5452 3.34913 0
M  V30 1360 H 129.922 5.21024 1.75539 0
M  V30 1361 H 131.147 6.41133 2.23887 0
M  V30 1362 H 129.093 5.13385 4.08378 0
M  V30 1363 H 129.01 6.73694 3.43034 0
M  V30 1364 H 130.278 6.33072 4.54797 0
M  V30 1365 N 134.507 -0.190092 1.56449 0
M  V30 1366 C 135.455 -1.25501 1.95837 0
M  V30 1367 C 136.449 -1.4685 0.844485 0
M  V30 1368 O 137.655 -1.47651 1.02952 0
M  V30 1369 H 134.03 -0.421447 0.622805 0
M  V30 1370 H 136.001 -0.895821 2.84636 0
M  V30 1371 C 134.75 -2.59124 2.31841 0
M  V30 1372 H 134.073 -2.43514 3.17082 0
M  V30 1373 H 135.513 -3.32371 2.6326 0
M  V30 1374 C 133.972 -3.16488 1.15486 0
M  V30 1375 O 134.502 -3.99365 0.432535 0
M  V30 1376 N 132.708 -2.75305 0.930349 0
M  V30 1377 H 132.255 -2.08013 1.51948 0
M  V30 1378 H 132.213 -3.14024 0.153634 0
M  V30 1379 N 135.985 -1.50799 -0.457987 0
M  V30 1380 C 136.932 -1.70617 -1.5543 0
M  V30 1381 C 137.902 -0.547562 -1.56815 0
M  V30 1382 O 139.087 -0.779647 -1.74144 0
M  V30 1383 C 136.227 -1.81831 -2.93311 0
M  V30 1384 C 135.34 -3.09278 -3.01615 0
M  V30 1385 C 134.475 -3.11209 -4.30491 0
M  V30 1386 C 133.514 -4.33055 -4.32585 0
M  V30 1387 N 132.651 -4.32652 -5.52952 0
M  V30 1388 H 137.491 -2.64207 -1.37836 0
M  V30 1389 H 135.028 -1.30959 -0.669937 0
M  V30 1390 H 136.986 -1.86314 -3.73287 0
M  V30 1391 H 135.616 -0.916685 -3.0951 0
M  V30 1392 H 134.668 -3.14203 -2.1443 0
M  V30 1393 H 135.98 -3.99233 -2.99022 0
M  V30 1394 H 135.134 -3.14494 -5.18824 0
M  V30 1395 H 133.873 -2.19106 -4.35711 0
M  V30 1396 H 132.878 -4.29969 -3.42647 0
M  V30 1397 H 134.103 -5.264 -4.29046 0
M  V30 1398 H 132.049 -3.43409 -5.58933 0
M  V30 1399 H 131.966 -5.16392 -5.52155 0
M  V30 1400 H 133.234 -4.40101 -6.43375 0
M  V30 1401 N 137.463 0.71206 -1.40597 0
M  V30 1402 C 138.411 1.84746 -1.41321 0
M  V30 1403 C 139.405 1.66842 -0.293268 0
M  V30 1404 O 140.611 1.73904 -0.464481 0
M  V30 1405 H 136.986 0.608522 -0.441819 0
M  V30 1406 H 138.957 1.81252 -2.37045 0
M  V30 1407 C 137.706 3.22638 -1.29614 0
M  V30 1408 H 137.029 3.37023 -2.15071 0
M  V30 1409 H 138.469 4.02209 -1.3418 0
M  V30 1410 C 136.928 3.36899 -0.00673121 0
M  V30 1411 O 137.458 3.90186 0.954859 0
M  V30 1412 N 135.664 2.9053 0.0639327 0
M  V30 1413 H 135.211 2.47353 -0.719311 0
M  V30 1414 H 135.169 3.0045 0.926118 0
M  V30 1415 N 138.941 1.26152 0.944643 0
M  V30 1416 C 140.187 1.11657 1.69294 0
M  V30 1417 C 140.52 -0.339926 1.91202 0
M  V30 1418 O 139.795 -1.24994 1.49019 0
M  V30 1419 C 140.078 1.88236 3.06984 0
M  V30 1420 C 139.931 3.41772 2.92424 0
M  V30 1421 C 141.25 1.67343 4.07043 0
M  V30 1422 H 138.369 0.407004 0.614424 0
M  V30 1423 H 141.011 1.55106 1.09737 0
M  V30 1424 H 139.161 1.51308 3.57824 0
M  V30 1425 H 140.833 3.88433 2.48832 0
M  V30 1426 H 139.076 3.68974 2.28124 0
M  V30 1427 H 139.747 3.90579 3.90067 0
M  V30 1428 H 142.223 1.99509 3.65151 0
M  V30 1429 H 141.099 2.23346 5.01406 0
M  V30 1430 H 141.36 0.617158 4.37771 0
M  V30 1431 N 140.419 -1.14872 1.07899 0
M  V30 1432 C 141.647 -1.89661 0.82683 0
M  V30 1433 C 142.062 -1.78312 -0.620519 0
M  V30 1434 O 141.419 -1.13888 -1.42604 0
M  V30 1435 C 141.47 -3.39817 1.23316 0
M  V30 1436 O 141.191 -3.50845 2.62372 0
M  V30 1437 C 142.692 -4.31615 1.0111 0
M  V30 1438 H 139.912 -0.60092 0.298557 0
M  V30 1439 H 142.456 -1.4551 1.43691 0
M  V30 1440 H 140.611 -3.8161 0.667286 0
M  V30 1441 H 141.025 -4.44076 2.79101 0
M  V30 1442 H 142.499 -5.35367 1.34486 0
M  V30 1443 H 142.976 -4.39169 -0.0522168 0
M  V30 1444 H 143.582 -3.95572 1.56215 0
M  V30 1445 N 141.898 -0.863906 -1.31812 0
M  V30 1446 C 142.846 -0.30422 -2.30602 0
M  V30 1447 C 143.84 0.577419 -1.59255 0
M  V30 1448 O 145.046 0.464194 -1.73912 0
M  V30 1449 H 141.421 -0.0796877 -0.747766 0
M  V30 1450 H 143.392 -1.15148 -2.75288 0
M  V30 1451 C 142.141 0.484617 -3.44306 0
M  V30 1452 H 141.464 -0.18451 -3.99374 0
M  V30 1453 H 142.904 0.841664 -4.15562 0
M  V30 1454 C 141.363 1.6735 -2.92396 0
M  V30 1455 O 141.893 2.77273 -2.90659 0
M  V30 1456 N 140.099 1.50362 -2.48676 0
M  V30 1457 H 139.646 0.609402 -2.50288 0
M  V30 1458 H 139.604 2.30051 -2.14299 0
M  V30 1459 N 143.376 1.44774 -0.622745 0
M  V30 1460 C 144.792 1.56986 -0.287652 0
M  V30 1461 C 144.992 1.61167 1.20944 0
M  V30 1462 O 144.048 1.55015 1.99315 0
M  V30 1463 C 145.361 2.84551 -0.972188 0
M  V30 1464 C 146.909 2.9825 -0.949536 0
M  V30 1465 C 147.384 4.28605 -1.61437 0
M  V30 1466 N 148.875 4.35399 -1.58057 0
M  V30 1467 C 149.61 5.34964 -2.064 0
M  V30 1468 N 149.106 6.40981 -2.62897 0
M  V30 1469 N 150.899 5.26419 -1.97078 0
M  V30 1470 H 143.05 1.40304 -1.59463 0
M  V30 1471 H 145.313 0.671794 -0.668878 0
M  V30 1472 H 145.019 2.87417 -2.02693 0
M  V30 1473 H 144.893 3.73807 -0.504771 0
M  V30 1474 H 147.28 2.94941 0.0967067 0
M  V30 1475 H 147.361 2.10364 -1.45536 0
M  V30 1476 H 147.005 4.32672 -2.66002 0
M  V30 1477 H 146.935 5.15334 -1.08344 0
M  V30 1478 H 149.426 3.59397 -1.16801 0
M  V30 1479 H 149.739 7.13225 -2.97539 0
M  V30 1480 H 148.084 6.4169 -2.66943 0
M  V30 1481 H 151.275 4.42504 -1.52669 0
M  V30 1482 H 151.448 6.03861 -2.35066 0
M  V30 1483 N 144.854 0.36279 1.53368 0
M  V30 1484 C 146.079 -0.231226 2.06107 0
M  V30 1485 C 146.504 -1.419 1.23474 0
M  V30 1486 O 145.862 -1.79524 0.253128 0
M  V30 1487 C 145.91 -0.605523 3.5548 0
M  V30 1488 O 145.014 -1.70312 3.7559 0
M  V30 1489 H 144.355 -0.034327 0.663112 0
M  V30 1490 H 146.885 0.522584 1.97814 0
M  V30 1491 H 146.895 -0.877314 3.98456 0
M  V30 1492 H 145.57 0.263004 4.15068 0
M  V30 1493 H 144.147 -1.4271 3.44512 0
M  V30 1494 N 146.332 -1.57332 0.0918853 0
M  V30 1495 C 147.279 -2.13847 -0.868211 0
M  V30 1496 C 148.249 -1.05618 -1.28196 0
M  V30 1497 O 149.434 -1.33387 -1.36427 0
M  V30 1498 C 146.574 -2.72062 -2.12312 0
M  V30 1499 C 145.687 -3.94514 -1.7602 0
M  V30 1500 C 144.822 -4.40903 -2.96273 0
M  V30 1501 C 143.861 -5.55953 -2.56092 0
M  V30 1502 N 142.998 -5.97209 -3.69169 0
M  V30 1503 H 147.838 -2.95575 -0.379406 0
M  V30 1504 H 145.375 -1.46048 -0.175606 0
M  V30 1505 H 147.333 -3.03931 -2.858 0
M  V30 1506 H 145.963 -1.93068 -2.58698 0
M  V30 1507 H 145.015 -3.68979 -0.925135 0
M  V30 1508 H 146.327 -4.7802 -1.42472 0
M  V30 1509 H 145.481 -4.74539 -3.78018 0
M  V30 1510 H 144.22 -3.56291 -3.33029 0
M  V30 1511 H 143.225 -5.21948 -1.72773 0
M  V30 1512 H 144.45 -6.42311 -2.20484 0
M  V30 1513 H 142.396 -5.15543 -4.05649 0
M  V30 1514 H 142.313 -6.75504 -3.39456 0
M  V30 1515 H 143.581 -6.35475 -4.51434 0
M  V30 1516 N 147.81 0.181792 -1.56548 0
M  V30 1517 C 149.058 0.89832 -1.81038 0
M  V30 1518 C 149.379 1.83232 -0.667164 0
M  V30 1519 O 148.649 1.93372 0.313673 0
M  V30 1520 H 147.229 0.33471 -0.667816 0
M  V30 1521 H 149.891 0.184116 -1.94028 0
M  V30 1522 H 148.987 1.4815 -2.74696 0
M  V30 1523 N 149.288 1.51039 0.449983 0
M  V30 1524 C 150.516 1.66869 1.2232 0
M  V30 1525 C 150.931 0.360727 1.85322 0
M  V30 1526 O 150.288 -0.659531 1.70166 0
M  V30 1527 C 150.339 2.77524 2.31652 0
M  V30 1528 O 150.06 4.03252 1.7123 0
M  V30 1529 C 151.561 3.04512 3.2216 0
M  V30 1530 H 148.781 0.560326 0.369155 0
M  V30 1531 H 151.325 1.97385 0.534719 0
M  V30 1532 H 149.48 2.49642 2.96239 0
M  V30 1533 H 149.894 4.64609 2.43389 0
M  V30 1534 H 151.368 3.85551 3.95038 0
M  V30 1535 H 151.845 2.16415 3.8218 0
M  V30 1536 H 152.451 3.34005 2.63288 0
M  V30 1537 N 150.766 -0.704594 1.40972 0
M  V30 1538 C 151.729 -1.80035 1.41845 0
M  V30 1539 C 152.729 -1.57774 0.310474 0
M  V30 1540 O 153.919 -1.64613 0.56992 0
M  V30 1541 C 151.051 -3.18284 1.22098 0
M  V30 1542 H 152.244 -1.80658 2.3938 0
M  V30 1543 H 149.797 -0.911329 1.26982 0
M  V30 1544 H 150.532 -3.23306 0.253672 0
M  V30 1545 H 150.317 -3.35843 2.02366 0
M  V30 1546 H 151.807 -3.98289 1.25522 0
M  V30 1547 N 152.244 -1.26651 -0.937939 0
M  V30 1548 C 153.154 -1.10276 -2.07066 0
M  V30 1549 C 154.17 -0.0354197 -1.73964 0
M  V30 1550 O 155.346 -0.239816 -1.99967 0
M  V30 1551 C 152.411 -0.740887 -3.38691 0
M  V30 1552 C 151.472 -1.88799 -3.85556 0
M  V30 1553 C 150.705 -1.54329 -5.10899 0
M  V30 1554 O 150.928 -0.446494 -5.6865 0
M  V30 1555 O 149.862 -2.37911 -5.52885 0
M  V30 1556 H 153.688 -2.05309 -2.23789 0
M  V30 1557 H 151.273 -1.05743 -1.0554 0
M  V30 1558 H 153.155 -0.55195 -4.1777 0
M  V30 1559 H 151.83 0.180022 -3.23199 0
M  V30 1560 H 150.737 -2.13191 -3.07409 0
M  V30 1561 H 152.07 -2.78874 -4.05574 0
M  V30 1562 N 153.722 1.14298 -1.08507 0
M  V30 1563 C 154.669 2.19414 -0.715965 0
M  V30 1564 C 155.639 1.63399 0.298326 0
M  V30 1565 O 156.824 1.89929 0.182101 0
M  V30 1566 C 153.964 3.44845 -0.132534 0
M  V30 1567 C 153.077 4.15007 -1.19973 0
M  V30 1568 C 152.212 5.28024 -0.580048 0
M  V30 1569 C 151.251 5.9002 -1.62921 0
M  V30 1570 N 150.388 6.94485 -1.03125 0
M  V30 1571 H 155.228 2.50336 -1.61666 0
M  V30 1572 H 152.765 1.2293 -0.807882 0
M  V30 1573 H 154.723 4.16601 0.223454 0
M  V30 1574 H 153.353 3.14403 0.731467 0
M  V30 1575 H 152.405 3.41629 -1.67313 0
M  V30 1576 H 153.717 4.57178 -1.99473 0
M  V30 1577 H 152.871 6.06455 -0.172364 0
M  V30 1578 H 151.61 4.87076 0.246603 0
M  V30 1579 H 150.615 5.10291 -2.04654 0
M  V30 1580 H 151.84 6.33042 -2.45835 0
M  V30 1581 H 149.786 6.55612 -0.225711 0
M  V30 1582 H 149.703 7.35148 -1.76334 0
M  V30 1583 H 150.971 7.7679 -0.649458 0
M  V30 1584 N 155.201 0.870884 1.31352 0
M  V30 1585 C 156.131 0.343096 2.30966 0
M  V30 1586 C 157.112 -0.566507 1.60389 0
M  V30 1587 O 158.297 -0.483336 1.88089 0
M  V30 1588 C 155.427 -0.455487 3.443 0
M  V30 1589 C 154.381 0.361103 4.26474 0
M  V30 1590 C 153.707 -0.563221 5.31725 0
M  V30 1591 C 155.007 1.59566 4.97329 0
M  V30 1592 H 156.701 1.17548 2.75359 0
M  V30 1593 H 154.247 0.566686 1.32381 0
M  V30 1594 H 156.2 -0.83525 4.13039 0
M  V30 1595 H 154.924 -1.32139 2.98675 0
M  V30 1596 H 153.583 0.722825 3.59403 0
M  V30 1597 H 153.231 -1.42643 4.82351 0
M  V30 1598 H 152.931 -0.0207409 5.87596 0
M  V30 1599 H 154.455 -0.939808 6.03324 0
M  V30 1600 H 155.869 1.28728 5.58661 0
M  V30 1601 H 154.266 2.07728 5.63 0
M  V30 1602 H 155.336 2.34798 4.24262 0
M  V30 1603 N 156.679 -1.44442 0.630414 0
M  V30 1604 C 157.626 -2.30678 -0.0749355 0
M  V30 1605 C 158.596 -1.4344 -0.837502 0
M  V30 1606 O 159.781 -1.72343 -0.818684 0
M  V30 1607 C 156.921 -3.28706 -1.05103 0
M  V30 1608 C 156.034 -4.31046 -0.286954 0
M  V30 1609 C 155.169 -5.16167 -1.2548 0
M  V30 1610 C 154.208 -6.10216 -0.479843 0
M  V30 1611 N 153.345 -6.88039 -1.39811 0
M  V30 1612 H 158.185 -2.90454 0.666386 0
M  V30 1613 H 155.722 -1.43107 0.340404 0
M  V30 1614 H 157.68 -3.84027 -1.63031 0
M  V30 1615 H 156.31 -2.70632 -1.75949 0
M  V30 1616 H 155.362 -3.78203 0.408243 0
M  V30 1617 H 156.674 -4.97794 0.316657 0
M  V30 1618 H 155.828 -5.76002 -1.90544 0
M  V30 1619 H 154.567 -4.49491 -1.89233 0
M  V30 1620 H 153.572 -5.49491 0.184295 0
M  V30 1621 H 154.797 -6.78928 0.152965 0
M  V30 1622 H 152.743 -6.24032 -2.02287 0
M  V30 1623 H 152.66 -7.51223 -0.848508 0
M  V30 1624 H 153.928 -7.52397 -2.03762 0
M  V30 1625 N 158.157 -0.370918 -1.53173 0
M  V30 1626 C 159.568 0.107139 -1.86392 0
M  V30 1627 C 159.919 1.47714 -1.29132 0
M  V30 1628 O 159.044 2.07464 -0.615439 0
M  V30 1629 C 159.639 0.201187 -3.38202 0
M  V30 1630 C 158.198 0.623507 -3.712 0
M  V30 1631 C 157.345 -0.225978 -2.76378 0
M  V30 1632 H 160.296 -0.58951 -1.47345 0
M  V30 1633 H 160.317 1.02377 -3.66468 0
M  V30 1634 H 159.829 -0.796058 -3.79848 0
M  V30 1635 H 157.93 1.62879 -3.35114 0
M  V30 1636 H 158.043 0.394414 -4.77474 0
M  V30 1637 H 156.407 0.305962 -2.52856 0
M  V30 1638 H 157.19 -1.22086 -3.20858 0
M  V30 1639 N 159.635 1.57281 -0.100228 0
M  V30 1640 C 160.545 2.17833 0.870965 0
M  V30 1641 C 161.561 1.14921 1.30649 0
M  V30 1642 O 162.737 1.47313 1.37335 0
M  V30 1643 C 159.802 2.75085 2.1102 0
M  V30 1644 C 158.863 3.9297 1.72838 0
M  V30 1645 C 158.096 4.47482 2.90854 0
M  V30 1646 O 158.319 4.00922 4.05731 0
M  V30 1647 O 157.253 5.38433 2.69023 0
M  V30 1648 H 161.079 3.0124 0.38575 0
M  V30 1649 H 158.664 1.48881 0.124397 0
M  V30 1650 H 160.546 3.11656 2.83634 0
M  V30 1651 H 159.221 1.94721 2.58584 0
M  V30 1652 H 158.128 3.61201 0.973883 0
M  V30 1653 H 159.461 4.74713 1.30033 0
M  V30 1654 N 161.113 -0.173488 1.56642 0
M  V30 1655 C 162.39 -0.917617 1.7274 0
M  V30 1656 C 162.77 -2.00484 0.661027 0
M  V30 1657 O 162.118 -2.26184 -0.32453 0
M  V30 1658 C 162.328 -1.48433 3.15862 0
M  V30 1659 C 163.676 -1.95809 3.76754 0
M  V30 1660 O 164.7 -1.58231 3.19126 0
M  V30 1661 O 163.559 -2.65024 4.77938 0
M  V30 1662 H 160.653 -0.431772 0.705338 0
M  V30 1663 H 163.199 -0.161487 1.6893 0
M  V30 1664 H 161.971 -0.701715 3.84957 0
M  V30 1665 H 161.594 -2.30471 3.23989 0
M  V30 1666 N 162.591 -1.51276 -0.441967 0
M  V30 1667 C 163.84 -1.6295 -1.18871 0
M  V30 1668 C 164.153 -0.349312 -1.92456 0
M  V30 1669 O 165.359 -0.345355 -2.69295 0
M  V30 1670 C 163.815 -2.87759 -2.16155 0
M  V30 1671 C 163.423 -4.22764 -1.48239 0
M  V30 1672 C 165.167 -3.08788 -2.91291 0
M  V30 1673 C 163.074 -5.38728 -2.4398 0
M  V30 1674 H 162.004 -0.606913 -0.447406 0
M  V30 1675 H 164.655 -1.77739 -0.456205 0
M  V30 1676 H 163.037 -2.66593 -2.92821 0
M  V30 1677 H 164.211 -4.54293 -0.771635 0
M  V30 1678 H 162.526 -4.07575 -0.852741 0
M  V30 1679 H 165.123 -3.92599 -3.63002 0
M  V30 1680 H 165.466 -2.21679 -3.5237 0
M  V30 1681 H 165.999 -3.30272 -2.21733 0
M  V30 1682 H 162.738 -6.28082 -1.87598 0
M  V30 1683 H 162.258 -5.1158 -3.13123 0
M  V30 1684 H 163.937 -5.70489 -3.05207 0
M  V30 1685 N 164.069 0.697108 -1.41344 0
M  V30 1686 C 165.297 1.48593 -1.43972 0
M  V30 1687 C 165.712 1.88747 -0.0445612 0
M  V30 1688 O 165.069 1.56682 0.935785 0
M  V30 1689 C 165.12 2.74946 -2.34706 0
M  V30 1690 O 164.841 2.36484 -3.68791 0
M  V30 1691 C 166.342 3.687 -2.46121 0
M  V30 1692 H 163.562 0.457964 -0.490418 0
M  V30 1693 H 166.106 0.858429 -1.8561 0
M  V30 1694 H 164.261 3.33937 -1.9638 0
M  V30 1695 H 164.675 3.17918 -4.17167 0
M  V30 1696 H 166.149 4.54145 -3.13777 0
M  V30 1697 H 166.626 4.13081 -1.49199 0
M  V30 1698 H 167.232 3.15613 -2.85076 0
M  V30 1699 N 165.547 1.27147 0.931209 0
M  V30 1700 C 166.479 1.05364 2.03546 0
M  V30 1701 C 167.492 0.0108438 1.62796 0
M  V30 1702 O 168.681 0.25202 1.76712 0
M  V30 1703 C 165.781 0.575566 3.33977 0
M  V30 1704 C 164.954 1.68985 4.03439 0
M  V30 1705 C 164.013 1.20813 5.12143 0
M  V30 1706 O 163.039 1.90712 5.363 0
M  V30 1707 N 164.241 0.0618851 5.80467 0
M  V30 1708 H 167.006 2.00454 2.22796 0
M  V30 1709 H 164.567 1.18666 1.10136 0
M  V30 1710 H 166.559 0.237264 4.04004 0
M  V30 1711 H 165.129 -0.282016 3.11325 0
M  V30 1712 H 164.349 2.19861 3.27192 0
M  V30 1713 H 165.637 2.4378 4.46597 0
M  V30 1714 H 165.035 -0.521621 5.6329 0
M  V30 1715 H 163.592 -0.217264 6.51438 0
M  V30 1716 N 167.025 -1.13721 1.09112 0
M  V30 1717 C 168.274 -1.84275 0.82009 0
M  V30 1718 C 168.587 -1.84253 -0.656509 0
M  V30 1719 O 169.793 -2.50668 -1.04296 0
M  V30 1720 C 168.249 -3.30825 1.41714 0
M  V30 1721 C 167.857 -3.39244 2.92605 0
M  V30 1722 C 169.601 -4.06443 1.22492 0
M  V30 1723 C 167.508 -4.80047 3.45411 0
M  V30 1724 H 166.438 -0.690387 0.30312 0
M  V30 1725 H 169.089 -1.28146 1.31343 0
M  V30 1726 H 167.471 -3.86737 0.851498 0
M  V30 1727 H 168.645 -2.93344 3.55367 0
M  V30 1728 H 166.96 -2.77088 3.10823 0
M  V30 1729 H 169.557 -5.10387 1.59402 0
M  V30 1730 H 169.9 -4.15972 0.165299 0
M  V30 1731 H 170.433 -3.56852 1.75788 0
M  V30 1732 H 167.172 -4.75709 4.50978 0
M  V30 1733 H 166.692 -5.26455 2.87411 0
M  V30 1734 H 168.371 -5.48957 3.42425 0
M  V30 1735 N 168.503 -0.877838 -1.30888 0
M  V30 1736 C 169.435 -0.296607 -2.27273 0
M  V30 1737 C 170.448 0.544799 -1.53414 0
M  V30 1738 O 171.637 0.365511 -1.74718 0
M  V30 1739 C 168.737 0.597481 -3.33592 0
M  V30 1740 C 167.91 -0.213251 -4.3688 0
M  V30 1741 C 166.969 0.610208 -5.2265 0
M  V30 1742 O 165.995 0.035441 -5.69189 0
M  V30 1743 N 167.197 1.92071 -5.47804 0
M  V30 1744 H 169.962 -1.12492 -2.77787 0
M  V30 1745 H 167.523 -0.740105 -1.43993 0
M  V30 1746 H 169.515 1.15425 -3.87891 0
M  V30 1747 H 168.085 1.32647 -2.83061 0
M  V30 1748 H 167.305 -0.951466 -3.82545 0
M  V30 1749 H 168.593 -0.769262 -5.02951 0
M  V30 1750 H 167.991 2.4107 -5.11763 0
M  V30 1751 H 166.548 2.42508 -6.05007 0
M  V30 1752 N 169.982 1.44106 -0.638065 0
M  V30 1753 C 171.393 1.85316 -0.226894 0
M  V30 1754 C 171.744 1.53399 1.22324 0
M  V30 1755 O 170.869 0.975463 1.93167 0
M  V30 1756 C 171.464 3.3637 -0.405013 0
M  V30 1757 C 170.023 3.76369 -0.0482902 0
M  V30 1758 C 169.17 2.67921 -0.715108 0
M  V30 1759 H 172.121 1.34474 -0.842764 0
M  V30 1760 H 172.142 3.7885 0.354 0
M  V30 1761 H 171.654 3.59569 -1.46053 0
M  V30 1762 H 169.755 3.58784 1.00522 0
M  V30 1763 H 169.868 4.76856 -0.463187 0
M  V30 1764 H 168.232 2.54259 -0.149753 0
M  V30 1765 H 169.015 2.93951 -1.77335 0
M  V30 1766 N 171.46 0.379036 1.52974 0
M  V30 1767 C 172.392 -0.495963 2.2377 0
M  V30 1768 C 173.405 -1.03517 1.25651 0
M  V30 1769 O 174.594 -0.939249 1.51791 0
M  V30 1770 C 171.694 -1.69894 2.93239 0
M  V30 1771 C 170.867 -1.2889 4.17979 0
M  V30 1772 C 169.926 -2.35543 4.70538 0
M  V30 1773 O 168.952 -1.97375 5.33883 0
M  V30 1774 N 170.154 -3.67318 4.49508 0
M  V30 1775 H 172.919 0.110523 2.99496 0
M  V30 1776 H 170.48 0.204878 1.60598 0
M  V30 1777 H 172.472 -2.40747 3.25304 0
M  V30 1778 H 171.042 -2.212 2.20883 0
M  V30 1779 H 170.262 -0.409676 3.92065 0
M  V30 1780 H 171.55 -0.991443 4.99047 0
M  V30 1781 H 170.948 -4.01095 3.98923 0
M  V30 1782 H 169.505 -4.34235 4.8609 0
M  V30 1783 N 172.938 -1.57226 0.108567 0
M  V30 1784 C 173.87 -2.11809 -0.875752 0
M  V30 1785 C 174.883 -1.05839 -1.23701 0
M  V30 1786 O 176.072 -1.33245 -1.18778 0
M  V30 1787 C 173.172 -2.59411 -2.18081 0
M  V30 1788 C 172.345 -3.89364 -1.99284 0
M  V30 1789 C 171.404 -4.22672 -3.13424 0
M  V30 1790 O 170.43 -4.91668 -2.86795 0
M  V30 1791 N 171.632 -3.79154 -4.3957 0
M  V30 1792 H 174.397 -2.9689 -0.409477 0
M  V30 1793 H 171.958 -1.61721 -0.076158 0
M  V30 1794 H 173.95 -2.7873 -2.93414 0
M  V30 1795 H 172.52 -1.79268 -2.5609 0
M  V30 1796 H 171.74 -3.79059 -1.08203 0
M  V30 1797 H 173.028 -4.74358 -1.84017 0
M  V30 1798 H 172.426 -3.23486 -4.64083 0
M  V30 1799 H 170.983 -4.03602 -5.11809 0
M  V30 1800 N 174.416 0.165178 -1.56732 0
M  V30 1801 C 175.346 1.20651 -1.99914 0
M  V30 1802 C 176.327 1.45827 -0.875705 0
M  V30 1803 O 177.512 1.57057 -1.14223 0
M  V30 1804 C 174.642 2.54401 -2.36427 0
M  V30 1805 C 173.596 2.43782 -3.51787 0
M  V30 1806 C 172.922 3.82078 -3.7406 0
M  V30 1807 C 174.222 1.93732 -4.85041 0
M  V30 1808 H 175.916 0.847534 -2.87154 0
M  V30 1809 H 173.462 0.40625 -1.38151 0
M  V30 1810 H 175.415 3.27458 -2.65234 0
M  V30 1811 H 174.139 2.92098 -1.46103 0
M  V30 1812 H 172.798 1.73178 -3.23117 0
M  V30 1813 H 172.446 4.17179 -2.81017 0
M  V30 1814 H 172.146 3.7584 -4.51684 0
M  V30 1815 H 173.67 4.56712 -4.05274 0
M  V30 1816 H 175.084 2.56569 -5.12684 0
M  V30 1817 H 173.481 1.98428 -5.66345 0
M  V30 1818 H 174.551 0.891962 -4.76626 0
M  V30 1819 N 175.894 1.51508 0.433938 0
M  V30 1820 C 177.14 1.64588 1.18484 0
M  V30 1821 C 177.473 0.362666 1.90784 0
M  V30 1822 O 176.748 -0.637892 1.83742 0
M  V30 1823 C 177.031 2.85149 2.19913 0
M  V30 1824 C 176.884 4.23456 1.51674 0
M  V30 1825 C 178.203 3.01227 3.20858 0
M  V30 1826 H 175.322 0.598994 0.429389 0
M  V30 1827 H 177.964 1.84002 0.473647 0
M  V30 1828 H 176.114 2.68729 2.80566 0
M  V30 1829 H 177.786 4.51552 0.943322 0
M  V30 1830 H 176.029 4.25998 0.819035 0
M  V30 1831 H 176.7 5.03812 2.2556 0
M  V30 1832 H 179.176 3.16382 2.70263 0
M  V30 1833 H 178.052 3.87141 3.89118 0
M  V30 1834 H 178.313 2.13447 3.8716 0
M  V30 1835 N 177.372 -0.689602 1.41712 0
M  V30 1836 C 178.302 -1.81577 1.46806 0
M  V30 1837 C 179.283 -1.66945 0.326105 0
M  V30 1838 O 180.468 -1.86588 0.538377 0
M  V30 1839 C 177.598 -3.19762 1.35535 0
M  V30 1840 C 176.552 -3.49107 2.47605 0
M  V30 1841 C 175.878 -4.86711 2.21397 0
M  V30 1842 C 177.178 -3.47483 3.89939 0
M  V30 1843 H 178.872 -1.7757 2.41058 0
M  V30 1844 H 176.418 -0.852887 1.16025 0
M  V30 1845 H 178.371 -3.98263 1.3771 0
M  V30 1846 H 177.095 -3.24409 0.377708 0
M  V30 1847 H 175.754 -2.72959 2.44722 0
M  V30 1848 H 175.402 -4.8799 1.21961 0
M  V30 1849 H 175.102 -5.0731 2.96497 0
M  V30 1850 H 176.626 -5.67515 2.25297 0
M  V30 1851 H 178.04 -4.1598 3.94505 0
M  V30 1852 H 176.437 -3.79615 4.64771 0
M  V30 1853 H 177.507 -2.46341 4.17665 0
M  V30 1854 N 178.85 -1.27639 -0.924453 0
M  V30 1855 C 180.266 -1.05113 -1.20097 0
M  V30 1856 C 180.466 0.213262 -2.00368 0
M  V30 1857 O 179.522 0.91787 -2.35226 0
M  V30 1858 C 180.835 -2.29244 -1.94596 0
M  V30 1859 C 182.383 -2.34315 -2.07522 0
M  V30 1860 C 182.858 -3.58183 -2.85427 0
M  V30 1861 N 184.349 -3.5876 -2.92994 0
M  V30 1862 C 185.084 -4.51277 -3.53746 0
M  V30 1863 N 184.58 -5.54102 -4.15863 0
M  V30 1864 N 186.373 -4.38894 -3.51181 0
M  V30 1865 H 178.524 -2.08821 -0.388264 0
M  V30 1866 H 180.787 -0.918568 -0.234385 0
M  V30 1867 H 180.493 -3.21301 -1.43034 0
M  V30 1868 H 180.367 -2.34816 -2.95197 0
M  V30 1869 H 182.754 -1.42762 -2.58269 0
M  V30 1870 H 182.835 -2.32744 -1.06131 0
M  V30 1871 H 182.479 -4.50074 -2.35363 0
M  V30 1872 H 182.409 -3.57006 -3.8711 0
M  V30 1873 H 184.9 -2.84398 -2.4885 0
M  V30 1874 H 185.213 -6.20859 -4.60168 0
M  V30 1875 H 183.558 -5.57941 -4.144 0
M  V30 1876 H 186.749 -3.57772 -3.01856 0
M  V30 1877 H 186.922 -5.11186 -3.98237 0
M  V30 1878 N 180.328 1.1314 -1.09713 0
M  V30 1879 C 181.258 2.20748 -0.761102 0
M  V30 1880 C 182.239 1.68061 0.262566 0
M  V30 1881 O 183.424 1.93765 0.129977 0
M  V30 1882 C 180.554 3.46812 -0.184054 0
M  V30 1883 C 179.508 4.12606 -1.13757 0
M  V30 1884 C 178.834 5.33031 -0.422083 0
M  V30 1885 C 180.134 4.59603 -2.48118 0
M  V30 1886 H 181.828 2.49113 -1.66082 0
M  V30 1887 H 179.374 1.19734 -0.799987 0
M  V30 1888 H 181.327 4.21353 0.0631215 0
M  V30 1889 H 180.051 3.17851 0.750868 0
M  V30 1890 H 178.71 3.40036 -1.37007 0
M  V30 1891 H 178.358 5.00335 0.517072 0
M  V30 1892 H 178.058 5.77999 -1.05788 0
M  V30 1893 H 179.582 6.10325 -0.183277 0
M  V30 1894 H 180.996 5.25552 -2.29059 0
M  V30 1895 H 179.393 5.15321 -3.07514 0
M  V30 1896 H 180.463 3.73971 -3.08665 0
M  V30 1897 N 181.806 0.884767 1.30421 0
M  V30 1898 C 183.222 0.57874 1.48737 0
M  V30 1899 C 183.422 -0.883567 1.81095 0
M  V30 1900 O 182.478 -1.6648 1.89844 0
M  V30 1901 C 183.791 1.49171 2.61091 0
M  V30 1902 C 185.339 1.49532 2.74971 0
M  V30 1903 C 185.814 2.39421 3.90438 0
M  V30 1904 N 187.305 2.37383 3.97748 0
M  V30 1905 C 188.04 3.03647 4.86401 0
M  V30 1906 N 187.536 3.79136 5.79852 0
M  V30 1907 N 189.329 2.9288 4.79768 0
M  V30 1908 H 181.48 1.83075 1.0769 0
M  V30 1909 H 183.743 0.783637 0.533495 0
M  V30 1910 H 183.449 2.53291 2.44001 0
M  V30 1911 H 183.323 1.20113 3.57565 0
M  V30 1912 H 185.71 0.46163 2.91467 0
M  V30 1913 H 185.791 1.8262 1.79119 0
M  V30 1914 H 185.435 3.42874 3.74699 0
M  V30 1915 H 185.365 2.03649 4.85628 0
M  V30 1916 H 187.856 1.82525 3.30897 0
M  V30 1917 H 188.169 4.26789 6.4426 0
M  V30 1918 H 186.514 3.83243 5.79784 0
M  V30 1919 H 189.705 2.33433 4.05742 0
M  V30 1920 H 189.878 3.448 5.4865 0
M  V30 1921 N 183.284 -1.43765 0.645699 0
M  V30 1922 C 184.509 -2.06767 0.161883 0
M  V30 1923 C 184.934 -1.48034 -1.16049 0
M  V30 1924 O 184.292 -0.587369 -1.71522 0
M  V30 1925 C 184.34 -3.60519 0.0762003 0
M  V30 1926 O 183.444 -4.00982 -0.963721 0
M  V30 1927 H 182.785 -0.657675 0.091429 0
M  V30 1928 H 185.315 -1.84397 0.886499 0
M  V30 1929 H 185.325 -4.07853 -0.109604 0
M  V30 1930 H 184 -4.02646 1.04157 0
M  V30 1931 H 182.577 -3.65253 -0.751312 0
M  V30 1932 N 184.763 -0.387143 -1.52771 0
M  V30 1933 C 186.011 0.195349 -2.01154 0
M  V30 1934 C 186.332 1.475 -1.27549 0
M  V30 1935 O 185.602 1.91878 -0.394924 0
M  V30 1936 H 184.182 0.075178 -0.743207 0
M  V30 1937 H 186.844 -0.518337 -1.87881 0
M  V30 1938 H 185.94 0.407096 -3.09434 0
M  V30 1939 N 186.241 1.57166 -0.116904 0
M  V30 1940 C 187.151 2.18745 0.847812 0
M  V30 1941 C 188.167 1.163 1.29423 0
M  V30 1942 O 189.343 1.48761 1.35765 0
M  V30 1943 C 186.408 2.77307 2.0809 0
M  V30 1944 C 185.469 3.94781 1.68661 0
M  V30 1945 C 184.702 4.50541 2.86091 0
M  V30 1946 O 184.925 4.05202 4.01456 0
M  V30 1947 O 183.859 5.41256 2.63298 0
M  V30 1948 H 187.685 3.01632 0.353778 0
M  V30 1949 H 185.27 1.49005 0.108599 0
M  V30 1950 H 187.152 3.14647 2.80313 0
M  V30 1951 H 185.827 1.97452 2.56504 0
M  V30 1952 H 184.734 3.62214 0.935518 0
M  V30 1953 H 186.067 4.76065 1.24991 0
M  V30 1954 N 187.719 -0.156864 1.56817 0
M  V30 1955 C 189.13 -0.717916 1.72345 0
M  V30 1956 C 189.481 -1.82124 0.729747 0
M  V30 1957 O 188.606 -2.16141 -0.105781 0
M  V30 1958 C 189.201 -1.30904 3.12489 0
M  V30 1959 C 187.76 -1.81676 3.29653 0
M  V30 1960 C 186.907 -0.701349 2.68284 0
M  V30 1961 H 189.858 0.0686989 1.58551 0
M  V30 1962 H 189.879 -2.17882 3.11942 0
M  V30 1963 H 189.391 -0.505796 3.8479 0
M  V30 1964 H 187.492 -2.64598 2.62333 0
M  V30 1965 H 187.605 -1.95226 4.3752 0
M  V30 1966 H 185.969 -1.12548 2.28484 0
M  V30 1967 H 186.752 0.0902846 3.43181 0
M  V30 1968 N 189.197 -1.51736 -0.425897 0
M  V30 1969 C 190.129 -1.70083 -1.53638 0
M  V30 1970 C 191.142 -0.581349 -1.52066 0
M  V30 1971 O 192.331 -0.856017 -1.56635 0
M  V30 1972 C 189.431 -1.71078 -2.9255 0
M  V30 1973 C 188.604 -2.99795 -3.185 0
M  V30 1974 C 187.663 -2.92825 -4.37196 0
M  V30 1975 O 186.689 -3.66756 -4.35291 0
M  V30 1976 N 187.891 -2.0946 -5.41393 0
M  V30 1977 H 190.656 -2.65882 -1.383 0
M  V30 1978 H 188.217 -1.49765 -0.614988 0
M  V30 1979 H 190.209 -1.63969 -3.69995 0
M  V30 1980 H 188.779 -0.828242 -3.01428 0
M  V30 1981 H 187.999 -3.20684 -2.2925 0
M  V30 1982 H 189.287 -3.84977 -3.32671 0
M  V30 1983 H 188.685 -1.48792 -5.45781 0
M  V30 1984 H 187.242 -2.08221 -6.17647 0
M  V30 1985 N 190.675 0.682077 -1.42076 0
M  V30 1986 C 191.903 1.47057 -1.4554 0
M  V30 1987 C 192.318 1.8869 -0.0645779 0
M  V30 1988 O 191.675 1.57666 0.919115 0
M  V30 1989 C 191.726 2.72442 -2.37609 0
M  V30 1990 O 191.447 2.32559 -3.71279 0
M  V30 1991 C 192.948 3.66069 -2.50017 0
M  V30 1992 H 190.168 0.452737 -0.495248 0
M  V30 1993 H 192.712 0.838695 -1.8651 0
M  V30 1994 H 190.867 3.31835 -1.9991 0
M  V30 1995 H 191.281 3.13475 -4.20516 0
M  V30 1996 H 192.755 4.50792 -3.18576 0
M  V30 1997 H 193.232 4.11476 -1.53572 0
M  V30 1998 H 193.838 3.12572 -2.88407 0
M  V30 1999 N 192.153 1.28127 0.917671 0
M  V30 2000 C 193.4 1.15052 1.66641 0
M  V30 2001 C 193.728 -0.301677 1.92146 0
M  V30 2002 O 192.983 -1.23622 1.51711 0
M  V30 2003 C 193.282 1.89018 3.03327 0
M  V30 2004 C 192.948 3.38832 2.97496 0
M  V30 2005 C 191.61 3.79693 2.95613 0
M  V30 2006 C 193.962 4.34378 2.88036 0
M  V30 2007 C 191.29 5.14447 2.82066 0
M  V30 2008 C 193.642 5.69201 2.7603 0
M  V30 2009 C 192.306 6.09343 2.72502 0
M  V30 2010 H 191.576 0.421006 0.609783 0
M  V30 2011 H 194.223 1.58855 1.06945 0
M  V30 2012 H 192.528 1.37752 3.66785 0
M  V30 2013 H 194.225 1.76321 3.60156 0
M  V30 2014 H 190.815 3.06342 2.99754 0
M  V30 2015 H 194.999 4.03775 2.88581 0
M  V30 2016 H 190.255 5.44681 2.77728 0
M  V30 2017 H 194.429 6.42901 2.67678 0
M  V30 2018 H 192.056 7.13712 2.61762 0
M  V30 2019 N 193.631 -1.12557 1.10312 0
M  V30 2020 C 194.859 -1.87864 0.866873 0
M  V30 2021 C 195.274 -1.79588 -0.582557 0
M  V30 2022 O 194.631 -1.16887 -1.40156 0
M  V30 2023 C 194.682 -3.37125 1.30496 0
M  V30 2024 O 194.403 -3.45201 2.69755 0
M  V30 2025 C 195.904 -4.29373 1.10243 0
M  V30 2026 H 193.124 -0.594452 0.311236 0
M  V30 2027 H 195.668 -1.42429 1.46745 0
M  V30 2028 H 193.823 -3.80109 0.748081 0
M  V30 2029 H 194.237 -4.38056 2.88457 0
M  V30 2030 H 195.711 -5.32394 1.45811 0
M  V30 2031 H 196.188 -4.39181 0.0409492 0
M  V30 2032 H 196.794 -3.92169 1.64571 0
M  V30 2033 N 195.109 -0.891671 -1.2995 0
M  V30 2034 C 196.039 -0.379797 -2.30391 0
M  V30 2035 C 197.02 0.540919 -1.6127 0
M  V30 2036 O 198.205 0.453352 -1.88834 0
M  V30 2037 C 195.335 0.400654 -3.44981 0
M  V30 2038 C 194.289 -0.428905 -4.25846 0
M  V30 2039 C 193.615 0.478557 -5.32554 0
M  V30 2040 C 194.915 -1.67458 -4.94727 0
M  V30 2041 H 196.609 -1.21914 -2.73454 0
M  V30 2042 H 194.155 -0.587675 -1.31462 0
M  V30 2043 H 196.108 0.769434 -4.14316 0
M  V30 2044 H 194.832 1.27371 -3.0074 0
M  V30 2045 H 193.491 -0.779911 -3.58208 0
M  V30 2046 H 193.139 1.34951 -4.84559 0
M  V30 2047 H 192.839 -0.0727433 -5.87555 0
M  V30 2048 H 194.363 0.843705 -6.04743 0
M  V30 2049 H 195.777 -1.376 -5.56542 0
M  V30 2050 H 194.174 -2.16659 -5.59624 0
M  V30 2051 H 195.244 -2.41518 -4.20473 0
M  V30 2052 N 196.587 1.43421 -0.653314 0
M  V30 2053 C 197.534 2.30768 0.0382271 0
M  V30 2054 C 198.504 1.44755 0.814576 0
M  V30 2055 O 199.689 1.73624 0.791162 0
M  V30 2056 C 196.829 3.30336 0.998599 0
M  V30 2057 C 195.942 4.31448 0.218342 0
M  V30 2058 C 195.077 5.18098 1.17252 0
M  V30 2059 C 194.116 6.10902 0.382702 0
M  V30 2060 N 193.253 6.90176 1.28848 0
M  V30 2061 H 198.093 2.89357 -0.712511 0
M  V30 2062 H 195.63 1.42548 -0.363128 0
M  V30 2063 H 197.588 3.86572 1.56901 0
M  V30 2064 H 196.218 2.73397 1.71621 0
M  V30 2065 H 195.27 3.77506 -0.46836 0
M  V30 2066 H 196.582 4.97227 -0.395812 0
M  V30 2067 H 195.736 5.7896 1.81356 0
M  V30 2068 H 194.475 4.52444 1.82058 0
M  V30 2069 H 193.48 5.49128 -0.27169 0
M  V30 2070 H 194.705 6.78598 -0.260957 0
M  V30 2071 H 192.651 6.27171 1.92334 0
M  V30 2072 H 192.568 7.52478 0.728887 0
M  V30 2073 H 193.836 7.55543 1.91766 0
M  V30 2074 N 198.065 0.39524 1.52563 0
M  V30 2075 C 199.312 -0.185044 2.01653 0
M  V30 2076 C 199.64 -1.46317 1.28146 0
M  V30 2077 O 198.895 -1.9213 0.372074 0
M  V30 2078 C 199.194 -0.493444 3.53977 0
M  V30 2079 C 198.86 0.69384 4.4553 0
M  V30 2080 C 197.522 1.01954 4.70275 0
M  V30 2081 C 199.874 1.48785 4.99512 0
M  V30 2082 C 197.202 2.14069 5.46252 0
M  V30 2083 C 199.554 2.59965 5.76716 0
M  V30 2084 C 198.218 2.93037 5.99738 0
M  V30 2085 H 197.488 -0.0677123 0.7379 0
M  V30 2086 H 200.135 0.533807 1.8391 0
M  V30 2087 H 198.44 -1.29369 3.69825 0
M  V30 2088 H 200.137 -0.955163 3.89458 0
M  V30 2089 H 196.727 0.429987 4.26438 0
M  V30 2090 H 200.911 1.24946 4.80315 0
M  V30 2091 H 196.167 2.40056 5.62302 0
M  V30 2092 H 200.341 3.21887 6.17545 0
M  V30 2093 H 197.968 3.8003 6.58393 0
M  V30 2094 N 199.544 -1.57102 0.125237 0
M  V30 2095 C 200.491 -2.15641 -0.822655 0
M  V30 2096 C 201.461 -1.08313 -1.25927 0
M  V30 2097 O 202.646 -1.36251 -1.33567 0
M  V30 2098 C 199.786 -2.76504 -2.06494 0
M  V30 2099 C 198.899 -3.98158 -1.67612 0
M  V30 2100 C 198.034 -4.47088 -2.86854 0
M  V30 2101 C 197.073 -5.6126 -2.44242 0
M  V30 2102 N 196.21 -6.04905 -3.56419 0
M  V30 2103 H 201.05 -2.96313 -0.316625 0
M  V30 2104 H 198.587 -1.46388 -0.144588 0
M  V30 2105 H 200.545 -3.09925 -2.79289 0
M  V30 2106 H 199.175 -1.98512 -2.54545 0
M  V30 2107 H 198.227 -3.70858 -0.846661 0
M  V30 2108 H 199.539 -4.80934 -1.32301 0
M  V30 2109 H 198.693 -4.82451 -3.67867 0
M  V30 2110 H 197.432 -3.63275 -3.25396 0
M  V30 2111 H 196.437 -5.25495 -1.61663 0
M  V30 2112 H 197.662 -6.46843 -2.0681 0
M  V30 2113 H 195.608 -5.24032 -3.94623 0
M  V30 2114 H 195.525 -6.82552 -3.25051 0
M  V30 2115 H 196.793 -6.44907 -4.37853 0
M  V30 2116 N 201.022 0.148545 -1.56898 0
M  V30 2117 C 202.438 0.501131 -1.51528 0
M  V30 2118 C 202.638 1.83458 -0.833399 0
M  V30 2119 O 201.694 2.49259 -0.40328 0
M  V30 2120 C 203.007 0.512864 -2.96294 0
M  V30 2121 C 204.555 0.598487 -3.07225 0
M  V30 2122 C 205.03 0.640897 -4.53494 0
M  V30 2123 N 206.521 0.703163 -4.57832 0
M  V30 2124 C 207.256 0.756935 -5.68382 0
M  V30 2125 N 206.752 0.770147 -6.88506 0
M  V30 2126 N 208.545 0.797698 -5.56411 0
M  V30 2127 H 200.696 -0.725532 -1.99624 0
M  V30 2128 H 202.959 -0.264358 -0.910395 0
M  V30 2129 H 202.665 -0.398691 -3.49433 0
M  V30 2130 H 202.539 1.35133 -3.52163 0
M  V30 2131 H 204.926 1.50046 -2.54106 0
M  V30 2132 H 205.007 -0.267093 -2.54402 0
M  V30 2133 H 204.651 -0.256915 -5.0725 0
M  V30 2134 H 204.581 1.52295 -5.04097 0
M  V30 2135 H 207.072 0.700314 -3.71354 0
M  V30 2136 H 207.385 0.812983 -7.68512 0
M  V30 2137 H 205.73 0.738049 -6.9107 0
M  V30 2138 H 208.921 0.784535 -4.61479 0
M  V30 2139 H 209.094 0.83614 -6.42583 0
M  V30 2140 N 202.5 1.5196 0.417844 0
M  V30 2141 C 203.463 1.74065 1.49111 0
M  V30 2142 C 204.463 0.610537 1.48758 0
M  V30 2143 O 205.653 0.87832 1.50437 0
M  V30 2144 C 202.785 1.81502 2.88565 0
M  V30 2145 H 203.978 2.69869 1.30807 0
M  V30 2146 H 201.531 1.42244 0.647785 0
M  V30 2147 H 202.266 0.875813 3.1225 0
M  V30 2148 H 202.051 2.63651 2.90225 0
M  V30 2149 H 203.541 2.00376 3.66387 0
M  V30 2150 N 203.978 -0.674533 1.42435 0
M  V30 2151 C 204.888 -1.81751 1.48337 0
M  V30 2152 C 205.904 -1.69975 0.372099 0
M  V30 2153 O 207.08 -1.91521 0.62304 0
M  V30 2154 C 204.145 -3.17895 1.38361 0
M  V30 2155 C 203.206 -3.41625 2.59982 0
M  V30 2156 C 202.439 -4.71274 2.50473 0
M  V30 2157 O 202.662 -5.49197 1.54075 0
M  V30 2158 O 201.596 -4.96254 3.4061 0
M  V30 2159 H 205.422 -1.79728 2.44809 0
M  V30 2160 H 203.007 -0.830312 1.24202 0
M  V30 2161 H 204.889 -3.99136 1.35161 0
M  V30 2162 H 203.564 -3.20555 0.450144 0
M  V30 2163 H 202.471 -2.60231 2.68757 0
M  V30 2164 H 203.804 -3.43796 3.52229 0
M  V30 2165 N 205.456 -1.28612 -0.910864 0
M  V30 2166 C 206.733 -1.06632 -1.63979 0
M  V30 2167 C 207.113 0.393351 -2.07403 0
M  V30 2168 O 206.461 1.37999 -1.82122 0
M  V30 2169 C 206.671 -2.0436 -2.8291 0
M  V30 2170 C 208.019 -2.34666 -3.5386 0
M  V30 2171 O 209.043 -2.02467 -2.93062 0
M  V30 2172 O 207.902 -2.89631 -4.63439 0
M  V30 2173 H 204.996 -0.407737 -0.7195 0
M  V30 2174 H 207.542 -1.39942 -0.959914 0
M  V30 2175 H 206.314 -3.02727 -2.47936 0
M  V30 2176 H 205.937 -1.71714 -3.58609 0
M  V30 2177 N 206.934 1.1197 -1.10907 0
M  V30 2178 C 208.164 1.8713 -0.875553 0
M  V30 2179 C 208.572 1.8016 0.577843 0
M  V30 2180 O 207.915 1.17699 1.41042 0
M  V30 2181 C 207.977 3.37005 -1.2517 0
M  V30 2182 C 207.641 3.67748 -2.71313 0
M  V30 2183 C 208.638 3.65698 -3.69542 0
M  V30 2184 C 206.323 3.96928 -3.07821 0
M  V30 2185 C 208.317 3.92395 -5.023 0
M  V30 2186 C 206.004 4.23284 -4.40765 0
M  V30 2187 C 207.002 4.21005 -5.37814 0
M  V30 2188 O 206.69 4.46704 -6.68364 0
M  V30 2189 H 206.422 0.598786 -0.313737 0
M  V30 2190 H 208.976 1.42568 -1.47863 0
M  V30 2191 H 207.206 3.82146 -0.591741 0
M  V30 2192 H 208.895 3.93519 -0.994877 0
M  V30 2193 H 209.661 3.43211 -3.42682 0
M  V30 2194 H 205.54 3.97841 -2.32902 0
M  V30 2195 H 209.084 3.90531 -5.78041 0
M  V30 2196 H 204.981 4.45246 -4.67361 0
M  V30 2197 H 205.749 4.64299 -6.74069 0
M  V30 2198 N 208.412 0.89855 1.29475 0
M  V30 2199 C 209.823 0.572537 1.77705 0
M  V30 2200 C 210.174 -0.911778 1.73727 0
M  V30 2201 O 209.299 -1.71288 1.32247 0
M  V30 2202 C 209.894 1.03252 3.22683 0
M  V30 2203 C 208.453 0.757687 3.68695 0
M  V30 2204 C 207.6 1.20787 2.49612 0
M  V30 2205 H 210.551 1.08139 1.16153 0
M  V30 2206 H 210.572 0.367307 3.78723 0
M  V30 2207 H 210.084 2.11285 3.25546 0
M  V30 2208 H 208.185 -0.310079 3.71308 0
M  V30 2209 H 208.298 1.35476 4.59547 0
M  V30 2210 H 206.662 0.626888 2.46865 0
M  V30 2211 H 207.445 2.29622 2.55203 0
M  V30 2212 N 209.89 -1.43072 0.660911 0
M  V30 2213 C 211.139 -2.00942 0.174735 0
M  V30 2214 C 211.452 -1.52797 -1.22117 0
M  V30 2215 O 212.658 -2.02991 -1.80297 0
M  V30 2216 C 211.114 -3.58948 0.261559 0
M  V30 2217 C 210.722 -4.16085 1.66064 0
M  V30 2218 C 212.466 -4.24173 -0.166617 0
M  V30 2219 C 210.373 -5.6641 1.70098 0
M  V30 2220 H 209.303 -0.751483 0.0615631 0
M  V30 2221 H 211.954 -1.63955 0.824069 0
M  V30 2222 H 210.336 -3.93372 -0.455421 0
M  V30 2223 H 211.51 -3.93147 2.40359 0
M  V30 2224 H 209.825 -3.6326 2.03546 0
M  V30 2225 H 212.422 -5.34471 -0.156433 0
M  V30 2226 H 212.765 -3.98647 -1.19943 0
M  V30 2227 H 213.298 -3.94659 0.498875 0
M  V30 2228 H 210.037 -5.96715 2.71315 0
M  V30 2229 H 209.557 -5.91382 1.00139 0
M  V30 2230 H 211.236 -6.30585 1.44816 0
M  V30 2231 N 211.368 -0.403325 -1.52352 0
M  V30 2232 C 212.645 0.232611 -1.94212 0
M  V30 2233 C 213.025 1.63133 -1.33981 0
M  V30 2234 O 212.373 2.22659 -0.513344 0
M  V30 2235 C 212.583 0.244811 -3.4814 0
M  V30 2236 C 213.931 0.46698 -4.22024 0
M  V30 2237 O 214.955 0.324419 -3.5472 0
M  V30 2238 O 213.814 0.74747 -5.41364 0
M  V30 2239 H 210.908 0.148223 -0.813609 0
M  V30 2240 H 213.454 -0.458848 -1.63379 0
M  V30 2241 H 212.226 -0.734378 -3.84347 0
M  V30 2242 H 211.849 0.980611 -3.85318 0
M  V30 2243 N 212.846 1.57033 -0.133567 0
M  V30 2244 C 213.776 2.1909 0.807567 0
M  V30 2245 C 214.757 1.13517 1.26681 0
M  V30 2246 O 215.942 1.41809 1.32679 0
M  V30 2247 C 213.072 2.80188 2.05212 0
M  V30 2248 C 212.026 3.91471 1.73015 0
M  V30 2249 C 211.352 4.39443 3.04622 0
M  V30 2250 C 212.652 5.12886 0.987168 0
M  V30 2251 H 214.346 2.97988 0.290403 0
M  V30 2252 H 211.892 1.43335 0.138239 0
M  V30 2253 H 213.845 3.22264 2.71521 0
M  V30 2254 H 212.569 1.98601 2.59278 0
M  V30 2255 H 211.228 3.49993 1.0909 0
M  V30 2256 H 210.876 3.54695 3.56651 0
M  V30 2257 H 210.576 5.14495 2.83847 0
M  V30 2258 H 212.1 4.8418 3.72024 0
M  V30 2259 H 213.514 5.51891 1.55208 0
M  V30 2260 H 211.911 5.93615 0.87985 0
M  V30 2261 H 212.981 4.84894 -0.0235286 0
M  V30 2262 N 214.325 -0.140222 1.56975 0
M  V30 2263 C 215.555 -0.865181 1.87612 0
M  V30 2264 C 215.963 -1.74942 0.72055 0
M  V30 2265 O 215.306 -1.80917 -0.318561 0
M  V30 2266 C 215.368 -1.76782 3.13031 0
M  V30 2267 C 215.032 -1.06005 4.44536 0
M  V30 2268 C 216.029 -0.410768 5.18275 0
M  V30 2269 C 213.714 -1.04754 4.91255 0
M  V30 2270 C 215.708 0.241572 6.36942 0
M  V30 2271 C 213.395 -0.391394 6.09845 0
M  V30 2272 C 214.393 0.252029 6.82535 0
M  V30 2273 O 214.081 0.897757 7.98871 0
M  V30 2274 H 213.813 -0.255188 0.625983 0
M  V30 2275 H 216.367 -0.135653 2.04952 0
M  V30 2276 H 214.597 -2.53846 2.91718 0
M  V30 2277 H 216.286 -2.36533 3.29859 0
M  V30 2278 H 217.052 -0.412195 4.83245 0
M  V30 2279 H 212.931 -1.53777 4.34596 0
M  V30 2280 H 216.475 0.744375 6.93617 0
M  V30 2281 H 212.372 -0.387656 6.44335 0
M  V30 2282 H 213.14 0.800102 8.1458 0
M  V30 2283 N 215.803 -1.52179 -0.40978 0
M  V30 2284 C 217.033 -1.69807 -1.17682 0
M  V30 2285 C 217.441 -0.406908 -1.84773 0
M  V30 2286 O 216.784 0.626863 -1.72673 0
M  V30 2287 C 216.846 -2.77712 -2.2829 0
M  V30 2288 C 216.51 -4.19481 -1.81341 0
M  V30 2289 C 217.507 -5.03345 -1.30154 0
M  V30 2290 C 215.192 -4.65713 -1.88194 0
M  V30 2291 C 217.186 -6.31511 -0.864416 0
M  V30 2292 C 214.873 -5.93869 -1.44093 0
M  V30 2293 C 215.871 -6.76597 -0.933023 0
M  V30 2294 O 215.559 -8.02354 -0.49838 0
M  V30 2295 H 215.291 -0.572372 -0.359675 0
M  V30 2296 H 217.845 -1.99511 -0.488311 0
M  V30 2297 H 216.075 -2.43383 -3.00502 0
M  V30 2298 H 217.764 -2.83946 -2.90051 0
M  V30 2299 H 218.53 -4.68819 -1.24232 0
M  V30 2300 H 214.409 -4.01424 -2.26671 0
M  V30 2301 H 217.953 -6.96033 -0.467286 0
M  V30 2302 H 213.85 -6.27903 -1.49694 0
M  V30 2303 H 214.618 -8.16135 -0.621747 0
M  V30 2304 N 217.281 0.66697 -1.42791 0
M  V30 2305 C 218.211 1.79218 -1.49677 0
M  V30 2306 C 219.192 1.66405 -0.352623 0
M  V30 2307 O 220.377 1.85708 -0.567993 0
M  V30 2308 C 217.507 3.17565 -1.40605 0
M  V30 2309 C 216.461 3.45124 -2.53127 0
M  V30 2310 C 215.787 4.83127 -2.29112 0
M  V30 2311 C 217.087 3.41236 -3.95418 0
M  V30 2312 H 218.781 1.73713 -2.43853 0
M  V30 2313 H 216.327 0.83432 -1.17367 0
M  V30 2314 H 218.28 3.96022 -1.44029 0
M  V30 2315 H 217.004 3.23767 -0.429271 0
M  V30 2316 H 215.663 2.69031 -2.49034 0
M  V30 2317 H 215.311 4.85988 -1.29709 0
M  V30 2318 H 215.011 5.02528 -3.04531 0
M  V30 2319 H 216.535 5.63859 -2.34297 0
M  V30 2320 H 217.949 4.09651 -4.01073 0
M  V30 2321 H 216.346 3.72173 -4.70752 0
M  V30 2322 H 217.416 2.39665 -4.21532 0
M  V30 2323 N 218.759 1.29093 0.90403 0
M  V30 2324 C 219.692 1.08176 2.00931 0
M  V30 2325 C 220.67 -0.005083 1.62599 0
M  V30 2326 O 221.854 0.144765 1.87943 0
M  V30 2327 C 218.981 0.645897 3.32484 0
M  V30 2328 C 218.027 1.73081 3.89801 0
M  V30 2329 S 218.86 3.32905 4.19446 0
M  V30 2330 C 220.016 2.91176 5.54046 0
M  V30 2331 H 220.249 2.01752 2.18365 0
M  V30 2332 H 217.782 1.13191 1.0501 0
M  V30 2333 H 219.74 0.401131 4.08535 0
M  V30 2334 H 218.401 -0.270188 3.12936 0
M  V30 2335 H 217.594 1.37768 4.84805 0
M  V30 2336 H 217.196 1.92888 3.20422 0
M  V30 2337 H 219.488 2.37952 6.34338 0
M  V30 2338 H 220.431 3.85014 5.94281 0
M  V30 2339 H 220.839 2.296 5.15698 0
M  V30 2340 N 220.237 -1.11381 1.11499 0
M  V30 2341 C 221.514 -1.7955 0.775965 0
M  V30 2342 C 221.894 -1.97859 -0.73588 0
M  V30 2343 O 221.242 -1.56376 -1.66609 0
M  V30 2344 C 221.452 -3.13196 1.53977 0
M  V30 2345 C 222.8 -3.88227 1.71944 0
M  V30 2346 O 223.824 -3.22887 1.50407 0
M  V30 2347 O 222.683 -5.05477 2.07738 0
M  V30 2348 H 219.777 -0.777728 0.28119 0
M  V30 2349 H 222.323 -1.18118 1.21845 0
M  V30 2350 H 221.095 -2.95229 2.56818 0
M  V30 2351 H 220.718 -3.82342 1.09088 0
M  V30 2352 N 221.715 -0.905404 -1.28997 0
M  V30 2353 C 222.645 -0.404212 -2.29975 0
M  V30 2354 C 223.626 0.523784 -1.61835 0
M  V30 2355 O 224.811 0.433298 -1.89304 0
M  V30 2356 C 221.941 0.364042 -3.45387 0
M  V30 2357 C 220.895 -0.474048 -4.25367 0
M  V30 2358 C 220.221 0.422045 -5.33032 0
M  V30 2359 C 221.521 -1.72696 -4.92923 0
M  V30 2360 H 223.215 -1.24807 -2.72146 0
M  V30 2361 H 220.761 -0.601585 -1.30832 0
M  V30 2362 H 222.714 0.725447 -4.15109 0
M  V30 2363 H 221.438 1.24174 -3.02074 0
M  V30 2364 H 220.097 -0.81786 -3.57361 0
M  V30 2365 H 219.745 1.29804 -4.85963 0
M  V30 2366 H 219.445 -0.135057 -5.87445 0
M  V30 2367 H 220.969 0.779517 -6.05604 0
M  V30 2368 H 222.383 -1.43495 -5.55051 0
M  V30 2369 H 220.78 -2.22582 -5.57295 0
M  V30 2370 H 221.85 -2.45964 -4.17887 0
M  V30 2371 N 223.193 1.4272 -0.668489 0
M  V30 2372 C 224.418 2.06484 -0.194758 0
M  V30 2373 C 224.843 1.49862 1.13679 0
M  V30 2374 O 224.201 0.614582 1.70565 0
M  V30 2375 C 224.249 3.60353 -0.133546 0
M  V30 2376 O 223.353 4.02464 0.899806 0
M  V30 2377 H 222.694 0.656137 -0.10188 0
M  V30 2378 H 225.224 1.82964 -0.915722 0
M  V30 2379 H 225.234 4.07976 0.0447041 0
M  V30 2380 H 223.909 4.00938 -1.1055 0
M  V30 2381 H 222.486 3.66402 0.693109 0
M  V30 2382 N 224.671 0.411399 1.52136 0
M  V30 2383 C 225.901 -0.16284 2.05957 0
M  V30 2384 C 226.309 -1.3922 1.28119 0
M  V30 2385 O 225.652 -1.80768 0.326881 0
M  V30 2386 C 225.714 -0.575946 3.54856 0
M  V30 2387 C 225.378 0.542998 4.53763 0
M  V30 2388 C 226.375 1.40726 5.00492 0
M  V30 2389 C 224.06 0.716337 4.97166 0
M  V30 2390 C 226.054 2.4298 5.8927 0
M  V30 2391 C 223.741 1.74218 5.8574 0
M  V30 2392 C 224.739 2.59731 6.31687 0
M  V30 2393 O 224.427 3.60558 7.18507 0
M  V30 2394 H 224.159 -0.0229125 0.675612 0
M  V30 2395 H 226.713 0.581634 1.96993 0
M  V30 2396 H 224.943 -1.37274 3.61515 0
M  V30 2397 H 226.632 -1.07836 3.91313 0
M  V30 2398 H 227.398 1.28476 4.67674 0
M  V30 2399 H 223.277 0.0603857 4.6096 0
M  V30 2400 H 226.821 3.0976 6.25055 0
M  V30 2401 H 222.718 1.86498 6.17971 0
M  V30 2402 H 223.486 3.56829 7.36624 0
M  V30 2403 N 226.149 -1.5696 0.141893 0
M  V30 2404 C 227.374 -2.00754 -0.520838 0
M  V30 2405 C 227.799 -1.0213 -1.57959 0
M  V30 2406 O 227.157 0.00371324 -1.813 0
M  V30 2407 C 227.205 -3.43318 -1.10294 0
M  V30 2408 O 226.309 -3.47679 -2.21795 0
M  V30 2409 H 225.65 -0.651564 -0.127908 0
M  V30 2410 H 228.18 -2.03221 0.23712 0
M  V30 2411 H 228.19 -3.82012 -1.43287 0
M  V30 2412 H 226.865 -4.14608 -0.327574 0
M  V30 2413 H 225.442 -3.20824 -1.9007 0
M  V30 2414 N 227.627 0.131896 -1.57047 0
M  V30 2415 C 228.56 1.19236 -1.94571 0
M  V30 2416 C 229.538 1.40782 -0.813576 0
M  V30 2417 O 230.722 1.55148 -1.07058 0
M  V30 2418 C 227.849 2.54858 -2.23081 0
M  V30 2419 C 226.895 2.49817 -3.45679 0
M  V30 2420 S 227.728 1.95036 -4.98719 0
M  V30 2421 C 228.884 3.32357 -5.30367 0
M  V30 2422 H 229.117 0.872297 -2.84215 0
M  V30 2423 H 226.65 0.338134 -1.50652 0
M  V30 2424 H 228.608 3.32898 -2.40185 0
M  V30 2425 H 227.269 2.84047 -1.34074 0
M  V30 2426 H 226.462 3.49688 -3.62952 0
M  V30 2427 H 226.064 1.79892 -3.27895 0
M  V30 2428 H 228.356 4.28525 -5.2476 0
M  V30 2429 H 229.299 3.19923 -6.31708 0
M  V30 2430 H 229.707 3.3019 -4.57859 0
M  V30 2431 N 229.106 1.52395 0.401703 0
M  V30 2432 C 230.053 1.76268 1.48991 0
M  V30 2433 C 231.023 0.605386 1.54675 0
M  V30 2434 O 232.208 0.843742 1.7113 0
M  V30 2435 C 229.348 1.92592 2.86361 0
M  V30 2436 C 228.461 3.20259 2.89928 0
M  V30 2437 C 227.596 3.26972 4.18644 0
M  V30 2438 C 226.635 4.48812 4.16214 0
M  V30 2439 N 225.772 4.52877 5.36514 0
M  V30 2440 H 230.612 2.6914 1.27935 0
M  V30 2441 H 228.149 1.33355 0.620871 0
M  V30 2442 H 230.107 2.0004 3.66115 0
M  V30 2443 H 228.737 1.03093 3.05895 0
M  V30 2444 H 227.789 3.21945 2.02621 0
M  V30 2445 H 229.101 4.10056 2.83999 0
M  V30 2446 H 228.255 3.33533 5.06794 0
M  V30 2447 H 226.994 2.35126 4.27278 0
M  V30 2448 H 225.999 4.4239 3.26453 0
M  V30 2449 H 227.224 5.41961 4.09213 0
M  V30 2450 H 225.17 3.63917 5.45802 0
M  V30 2451 H 225.087 5.36529 5.32609 0
M  V30 2452 H 226.355 4.63676 6.26597 0
M  V30 2453 N 230.584 -0.659388 1.43143 0
M  V30 2454 C 231.861 -1.41627 1.34912 0
M  V30 2455 C 232.241 -2.11099 -0.00607785 0
M  V30 2456 O 231.589 -2.04353 -1.02236 0
M  V30 2457 C 231.799 -2.40604 2.52805 0
M  V30 2458 C 233.147 -3.04789 2.95616 0
M  V30 2459 O 234.171 -2.50932 2.52807 0
M  V30 2460 O 233.03 -4.02421 3.69756 0
M  V30 2461 H 230.124 -0.63246 0.532844 0
M  V30 2462 H 232.67 -0.686814 1.5518 0
M  V30 2463 H 231.442 -1.88174 3.43083 0
M  V30 2464 H 231.065 -3.21009 2.34604 0
M  V30 2465 N 232.062 -1.29571 -0.897171 0
M  V30 2466 C 233.339 -1.08365 -1.62839 0
M  V30 2467 C 233.719 0.371331 -2.07808 0
M  V30 2468 O 233.067 1.3606 -1.83576 0
M  V30 2469 C 233.277 -2.0735 -2.80726 0
M  V30 2470 C 234.625 -2.38406 -3.51351 0
M  V30 2471 O 235.649 -2.05564 -2.90898 0
M  V30 2472 O 234.508 -2.9453 -4.60341 0
M  V30 2473 H 231.602 -0.415345 -0.715134 0
M  V30 2474 H 234.148 -1.40952 -0.945018 0
M  V30 2475 H 232.92 -3.05339 -2.44711 0
M  V30 2476 H 232.543 -1.75507 -3.56767 0
M  V30 2477 N 233.54 1.10788 -1.12088 0
M  V30 2478 C 234.47 2.19083 -0.807755 0
M  V30 2479 C 235.451 1.6858 0.226859 0
M  V30 2480 O 236.636 1.93997 0.0888475 0
M  V30 2481 C 233.766 3.46344 -0.257576 0
M  V30 2482 C 232.72 4.101 -1.22483 0
M  V30 2483 C 232.046 5.32016 -0.535052 0
M  V30 2484 C 233.346 4.54236 -2.57811 0
M  V30 2485 H 235.04 2.45534 -1.71328 0
M  V30 2486 H 232.586 1.1801 -0.825205 0
M  V30 2487 H 234.539 4.21392 -0.0262679 0
M  V30 2488 H 233.263 3.19373 0.683278 0
M  V30 2489 H 231.922 3.37054 -1.44189 0
M  V30 2490 H 231.57 5.01319 0.410827 0
M  V30 2491 H 231.27 5.75625 -1.18024 0
M  V30 2492 H 232.794 6.09799 -0.312695 0
M  V30 2493 H 234.208 5.20575 -2.40155 0
M  V30 2494 H 232.605 5.08682 -3.18375 0
M  V30 2495 H 233.675 3.6734 -3.16528 0
M  V30 2496 N 235.018 0.912232 1.28515 0
M  V30 2497 C 235.928 0.404506 2.31086 0
M  V30 2498 C 236.944 -0.50707 1.66448 0
M  V30 2499 O 238.12 -0.393624 1.97516 0
M  V30 2500 C 235.185 -0.348572 3.44943 0
M  V30 2501 C 234.246 0.59604 4.25142 0
M  V30 2502 C 233.479 -0.121194 5.33562 0
M  V30 2503 O 233.702 -1.34317 5.5436 0
M  V30 2504 O 232.636 0.542716 5.99448 0
M  V30 2505 H 236.462 1.25579 2.76521 0
M  V30 2506 H 234.047 0.676998 1.33181 0
M  V30 2507 H 235.929 -0.77395 4.14232 0
M  V30 2508 H 234.604 -1.17571 3.01594 0
M  V30 2509 H 233.511 1.07079 3.58448 0
M  V30 2510 H 234.844 1.38995 4.72167 0
M  V30 2511 N 236.496 -1.42363 0.676048 0
M  V30 2512 C 237.444 -2.32596 -0.0131507 0
M  V30 2513 C 238.438 -1.49891 -0.789238 0
M  V30 2514 O 239.644 -1.65955 -0.697061 0
M  V30 2515 H 236.019 -0.751647 -0.0230481 0
M  V30 2516 H 237.99 -2.88421 0.765243 0
M  V30 2517 C 236.739 -3.34479 -0.949702 0
M  V30 2518 H 236.062 -3.98158 -0.361938 0
M  V30 2519 H 237.502 -4.00199 -1.4006 0
M  V30 2520 C 235.961 -2.66838 -2.05667 0
M  V30 2521 O 236.491 -2.50124 -3.14326 0
M  V30 2522 N 234.697 -2.25843 -1.82875 0
M  V30 2523 H 234.244 -2.39637 -0.945085 0
M  V30 2524 H 234.202 -1.80918 -2.5713 0
M  V30 2525 N 237.974 -0.419461 -1.51915 0
M  V30 2526 C 239.22 0.153166 -2.02221 0
M  V30 2527 C 239.553 1.43907 -1.30401 0
M  V30 2528 O 238.828 1.90055 -0.413438 0
M  V30 2529 C 239.111 0.390291 -3.57979 0
M  V30 2530 C 238.964 -0.913014 -4.40436 0
M  V30 2531 C 240.283 1.16794 -4.2432 0
M  V30 2532 H 237.402 0.0541924 -0.735005 0
M  V30 2533 H 240.044 -0.554955 -1.81715 0
M  V30 2534 H 238.194 0.993491 -3.75582 0
M  V30 2535 H 239.866 -1.54882 -4.34522 0
M  V30 2536 H 238.109 -1.52168 -4.06236 0
M  V30 2537 H 238.78 -0.701361 -5.47526 0
M  V30 2538 H 241.256 0.657161 -4.10878 0
M  V30 2539 H 240.132 1.3026 -5.3322 0
M  V30 2540 H 240.393 2.19132 -3.83971 0
M  V30 2541 N 239.452 1.56882 -0.150215 0
M  V30 2542 C 240.399 2.16922 0.788244 0
M  V30 2543 C 241.369 1.10303 1.24187 0
M  V30 2544 O 242.554 1.38359 1.31383 0
M  V30 2545 C 239.694 2.79754 2.02068 0
M  V30 2546 C 238.807 4.00775 1.61257 0
M  V30 2547 C 237.942 4.51595 2.79705 0
M  V30 2548 C 236.981 5.65074 2.35282 0
M  V30 2549 N 236.118 6.10499 3.4675 0
M  V30 2550 H 240.958 2.96779 0.269444 0
M  V30 2551 H 238.495 1.46599 0.12128 0
M  V30 2552 H 240.453 3.14329 2.74323 0
M  V30 2553 H 239.083 2.02536 2.51354 0
M  V30 2554 H 238.135 3.72158 0.787553 0
M  V30 2555 H 239.447 4.82978 1.24633 0
M  V30 2556 H 238.601 4.88242 3.60145 0
M  V30 2557 H 237.34 3.68406 3.19576 0
M  V30 2558 H 236.345 5.28 1.53283 0
M  V30 2559 H 237.57 6.50052 1.96493 0
M  V30 2560 H 235.516 5.30243 3.86236 0
M  V30 2561 H 235.433 6.87637 3.14152 0
M  V30 2562 H 236.701 6.51791 4.27537 0
M  V30 2563 N 240.93 -0.123565 1.57115 0
M  V30 2564 C 242.155 -0.850398 1.89164 0
M  V30 2565 C 242.58 -1.7286 0.741688 0
M  V30 2566 O 241.938 -1.78665 -0.307958 0
M  V30 2567 C 241.986 -1.66353 3.19936 0
M  V30 2568 O 241.09 -2.77004 3.0552 0
M  V30 2569 H 240.431 -0.235454 0.620852 0
M  V30 2570 H 242.961 -0.107335 2.04318 0
M  V30 2571 H 242.971 -2.05372 3.52543 0
M  V30 2572 H 241.646 -1.01881 4.03228 0
M  V30 2573 H 240.223 -2.41221 2.84371 0
M  V30 2574 N 242.408 -1.52605 -0.393616 0
M  V30 2575 C 243.338 -1.80022 -1.48709 0
M  V30 2576 C 244.319 -0.651995 -1.57108 0
M  V30 2577 O 245.504 -0.89913 -1.72132 0
M  V30 2578 C 242.634 -1.96492 -2.86371 0
M  V30 2579 C 241.588 -3.12161 -2.92813 0
M  V30 2580 C 240.914 -3.13877 -4.3288 0
M  V30 2581 C 242.214 -4.51322 -2.6288 0
M  V30 2582 H 243.908 -2.71589 -1.26015 0
M  V30 2583 H 241.454 -1.30684 -0.604778 0
M  V30 2584 H 243.407 -2.14255 -3.62867 0
M  V30 2585 H 242.131 -1.01611 -3.10391 0
M  V30 2586 H 240.79 -2.94173 -2.18764 0
M  V30 2587 H 240.438 -2.16687 -4.53933 0
M  V30 2588 H 240.138 -3.91576 -4.38112 0
M  V30 2589 H 241.662 -3.33789 -5.1129 0
M  V30 2590 H 243.076 -4.69435 -3.29096 0
M  V30 2591 H 241.473 -5.31053 -2.79468 0
M  V30 2592 H 242.543 -4.58353 -1.58242 0
M  V30 2593 N 243.887 0.651787 -1.4349 0
M  V30 2594 C 245.135 1.40888 -1.44897 0
M  V30 2595 C 245.456 1.94856 -0.0749086 0
M  V30 2596 O 244.726 1.74518 0.889956 0
M  V30 2597 H 243.306 0.522887 -0.533478 0
M  V30 2598 H 245.968 0.768609 -1.79104 0
M  V30 2599 H 245.064 2.25052 -2.16236 0
M  V30 2600 N 245.365 1.30045 0.890287 0
M  V30 2601 C 246.593 1.21472 1.67487 0
M  V30 2602 C 247.008 -0.223241 1.87476 0
M  V30 2603 O 246.365 -1.14828 1.41847 0
M  V30 2604 C 246.416 1.93394 3.05419 0
M  V30 2605 O 246.137 3.31576 2.86337 0
M  V30 2606 C 247.638 1.91414 3.99844 0
M  V30 2607 H 244.858 0.420604 0.522813 0
M  V30 2608 H 247.402 1.7158 1.11268 0
M  V30 2609 H 245.557 1.47099 3.58386 0
M  V30 2610 H 245.971 3.67929 3.73802 0
M  V30 2611 H 247.445 2.46285 4.94012 0
M  V30 2612 H 247.922 0.891833 4.3005 0
M  V30 2613 H 248.528 2.37496 3.52811 0
M  V30 2614 N 246.843 -1.10192 1.12674 0
M  V30 2615 C 248.12 -1.78717 0.794965 0
M  V30 2616 C 248.5 -1.98628 -0.714853 0
M  V30 2617 O 247.848 -1.58135 -1.64941 0
M  V30 2618 C 248.058 -3.11546 1.5729 0
M  V30 2619 C 249.406 -3.86382 1.76052 0
M  V30 2620 O 250.43 -3.21274 1.53823 0
M  V30 2621 O 249.289 -5.03246 2.13087 0
M  V30 2622 H 246.383 -0.774702 0.289423 0
M  V30 2623 H 248.929 -1.16819 1.23091 0
M  V30 2624 H 247.701 -2.92489 2.59935 0
M  V30 2625 H 247.324 -3.81164 1.13137 0
M  V30 2626 N 248.321 -0.919034 -1.28029 0
M  V30 2627 C 249.251 -0.428581 -2.29533 0
M  V30 2628 C 250.232 0.50659 -1.62381 0
M  V30 2629 O 251.417 0.413195 -1.89753 0
M  V30 2630 C 248.547 0.327388 -3.45753 0
M  V30 2631 C 247.501 -0.519137 -4.2484 0
M  V30 2632 C 246.827 0.365486 -5.33449 0
M  V30 2633 C 248.127 -1.77914 -4.91064 0
M  V30 2634 H 249.821 -1.27687 -2.70807 0
M  V30 2635 H 247.367 -0.615428 -1.30186 0
M  V30 2636 H 249.32 0.681378 -4.15855 0
M  V30 2637 H 248.044 1.20963 -3.03374 0
M  V30 2638 H 246.703 -0.855717 -3.56473 0
M  V30 2639 H 246.351 1.24642 -4.87312 0
M  V30 2640 H 246.051 -0.197356 -5.87268 0
M  V30 2641 H 247.575 0.715241 -6.06396 0
M  V30 2642 H 248.989 -1.49374 -5.53498 0
M  V30 2643 H 247.386 -2.2848 -5.54903 0
M  V30 2644 H 248.456 -2.50382 -4.15255 0
M  V30 2645 N 249.799 1.42003 -0.683588 0
M  V30 2646 C 250.732 2.28166 0.039592 0
M  V30 2647 C 251.71 1.41562 0.799942 0
M  V30 2648 O 252.894 1.70997 0.793248 0
M  V30 2649 C 250.021 3.21575 1.06335 0
M  V30 2650 C 249.067 4.24643 0.397562 0
M  V30 2651 S 249.9 5.2869 -0.851296 0
M  V30 2652 C 251.056 6.25666 0.171166 0
M  V30 2653 H 251.289 2.89153 -0.691229 0
M  V30 2654 H 248.822 1.46962 -0.473435 0
M  V30 2655 H 250.78 3.75928 1.6489 0
M  V30 2656 H 249.441 2.59707 1.76667 0
M  V30 2657 H 248.634 4.90223 1.17035 0
M  V30 2658 H 248.236 3.73824 -0.114611 0
M  V30 2659 H 250.528 6.69653 1.02819 0
M  V30 2660 H 251.471 7.06666 -0.450397 0
M  V30 2661 H 251.879 5.62095 0.520578 0
M  V30 2662 N 251.277 0.427512 1.51691 0
M  V30 2663 C 252.225 -0.403359 2.29076 0
M  V30 2664 C 253.219 -1.02962 1.34518 0
M  V30 2665 O 254.425 -0.965715 1.51901 0
M  V30 2666 H 250.8 -0.148879 0.737115 0
M  V30 2667 H 252.771 0.270295 2.97173 0
M  V30 2668 C 251.52 -1.49763 3.13794 0
M  V30 2669 H 250.843 -1.02508 3.86435 0
M  V30 2670 H 252.283 -2.05244 3.71014 0
M  V30 2671 C 250.742 -2.47536 2.28533 0
M  V30 2672 O 251.272 -3.51848 1.93819 0
M  V30 2673 N 249.478 -2.18187 1.91945 0
M  V30 2674 H 249.025 -1.33389 2.20375 0
M  V30 2675 H 248.983 -2.83848 1.35195 0
M  V30 2676 N 252.755 -1.56801 0.158532 0
M  V30 2677 C 253.665 -2.20916 -0.789518 0
M  V30 2678 C 254.681 -1.1969 -1.26294 0
M  V30 2679 O 255.857 -1.52308 -1.31773 0
M  V30 2680 C 252.922 -2.82727 -2.00665 0
M  V30 2681 C 251.983 -3.99114 -1.58134 0
M  V30 2682 C 251.216 -4.57968 -2.74045 0
M  V30 2683 O 251.439 -4.15704 -3.90572 0
M  V30 2684 O 250.373 -5.48047 -2.48855 0
M  V30 2685 H 254.199 -3.02464 -0.273681 0
M  V30 2686 H 251.784 -1.4924 -0.0690548 0
M  V30 2687 H 253.666 -3.21968 -2.71872 0
M  V30 2688 H 252.341 -2.04184 -2.51179 0
M  V30 2689 H 251.248 -3.64567 -0.839155 0
M  V30 2690 H 252.581 -4.79212 -1.12325 0
M  V30 2691 N 254.233 0.115231 -1.57178 0
M  V30 2692 C 255.166 1.17166 -1.95825 0
M  V30 2693 C 256.144 1.39912 -0.828463 0
M  V30 2694 O 257.328 1.54004 -1.08697 0
M  V30 2695 C 254.455 2.52478 -2.25771 0
M  V30 2696 C 253.501 2.46136 -3.48309 0
M  V30 2697 S 254.334 1.89736 -5.0076 0
M  V30 2698 C 255.49 3.26713 -5.33863 0
M  V30 2699 H 255.723 0.842103 -2.85124 0
M  V30 2700 H 253.256 0.322136 -1.51002 0
M  V30 2701 H 255.214 3.30332 -2.43702 0
M  V30 2702 H 253.875 2.82609 -1.37079 0
M  V30 2703 H 253.068 3.45819 -3.66641 0
M  V30 2704 H 252.67 1.76404 -3.29784 0
M  V30 2705 H 254.962 4.22935 -5.29275 0
M  V30 2706 H 255.905 3.13205 -6.35065 0
M  V30 2707 H 256.313 3.25316 -4.61335 0
M  V30 2708 N 255.711 1.52812 0.385517 0
M  V30 2709 C 257.127 1.4214 0.725829 0
M  V30 2710 C 257.327 0.544589 1.94001 0
M  V30 2711 O 256.383 0.0193693 2.52493 0
M  V30 2712 C 257.696 2.85042 0.957668 0
M  V30 2713 C 259.244 2.94543 1.05892 0
M  V30 2714 C 259.719 4.38464 1.32337 0
M  V30 2715 N 261.21 4.41804 1.39151 0
M  V30 2716 C 261.945 5.5025 1.61285 0
M  V30 2717 N 261.441 6.68775 1.80866 0
M  V30 2718 N 263.234 5.37798 1.63492 0
M  V30 2719 H 255.385 2.08338 -0.413383 0
M  V30 2720 H 257.648 0.940016 -0.122775 0
M  V30 2721 H 257.354 3.51431 0.137568 0
M  V30 2722 H 257.228 3.27505 1.87137 0
M  V30 2723 H 259.615 2.28321 1.86959 0
M  V30 2724 H 259.696 2.55504 0.123057 0
M  V30 2725 H 259.34 5.05254 0.517793 0
M  V30 2726 H 259.27 4.75059 2.27214 0
M  V30 2727 H 261.761 3.56377 1.25713 0
M  V30 2728 H 262.074 7.47197 1.97271 0
M  V30 2729 H 260.419 6.71797 1.78083 0
M  V30 2730 H 263.61 4.44171 1.47749 0
M  V30 2731 H 263.783 6.22382 1.80402 0
M  V30 2732 N 257.189 -0.644168 1.43834 0
M  V30 2733 C 258.605 -0.960875 1.27434 0
M  V30 2734 C 258.805 -2.00499 0.200618 0
M  V30 2735 O 257.861 -2.49018 -0.417906 0
M  V30 2736 C 259.174 -1.43653 2.64167 0
M  V30 2737 C 260.722 -1.55271 2.71772 0
M  V30 2738 C 261.197 -2.06224 4.08944 0
M  V30 2739 N 262.688 -2.13513 4.11055 0
M  V30 2740 C 263.423 -2.54081 5.14033 0
M  V30 2741 N 262.919 -2.9388 6.27381 0
M  V30 2742 N 264.712 -2.54101 5.01387 0
M  V30 2743 H 256.863 0.0465779 2.12349 0
M  V30 2744 H 259.126 -0.0417638 0.94708 0
M  V30 2745 H 258.832 -0.743706 3.43747 0
M  V30 2746 H 258.706 -2.40993 2.90176 0
M  V30 2747 H 261.093 -2.23653 1.92519 0
M  V30 2748 H 261.174 -0.563395 2.49519 0
M  V30 2749 H 260.818 -1.38441 4.88668 0
M  V30 2750 H 260.748 -3.06003 4.28567 0
M  V30 2751 H 263.239 -1.85493 3.29242 0
M  V30 2752 H 263.552 -3.2361 7.01781 0
M  V30 2753 H 261.897 -2.91663 6.30839 0
M  V30 2754 H 265.088 -2.22391 4.11898 0
M  V30 2755 H 265.261 -2.85394 5.81768 0
M  V30 2756 N 258.668 -1.30515 -0.883378 0
M  V30 2757 C 259.917 -1.18795 -1.63005 0
M  V30 2758 C 260.23 0.255923 -1.93919 0
M  V30 2759 O 261.436 0.494654 -2.66956 0
M  V30 2760 C 259.892 -2.07878 -2.93794 0
M  V30 2761 C 259.5 -3.57184 -2.70414 0
M  V30 2762 C 261.244 -2.04924 -3.71761 0
M  V30 2763 C 259.151 -4.38317 -3.97029 0
M  V30 2764 H 258.081 -0.441031 -0.611562 0
M  V30 2765 H 260.732 -1.55275 -0.977854 0
M  V30 2766 H 259.114 -1.64283 -3.60315 0
M  V30 2767 H 260.288 -4.08937 -2.12384 0
M  V30 2768 H 258.603 -3.61976 -2.0582 0
M  V30 2769 H 261.2 -2.62792 -4.65665 0
M  V30 2770 H 261.543 -1.0331 -4.03277 0
M  V30 2771 H 262.076 -2.46649 -3.12104 0
M  V30 2772 H 258.815 -5.40632 -3.70671 0
M  V30 2773 H 258.335 -3.91326 -4.54559 0
M  V30 2774 H 260.014 -4.49834 -4.65036 0
M  V30 2775 N 260.146 1.09593 -1.13257 0
M  V30 2776 C 261.374 1.855 -0.916378 0
M  V30 2777 C 261.789 1.81069 0.534738 0
M  V30 2778 O 261.146 1.20562 1.37007 0
M  V30 2779 C 261.197 3.33546 -1.39388 0
M  V30 2780 O 260.918 3.37927 -2.78813 0
M  V30 2781 C 262.419 4.26299 -1.21588 0
M  V30 2782 H 259.639 0.585991 -0.326887 0
M  V30 2783 H 262.183 1.38488 -1.5047 0
M  V30 2784 H 260.338 3.77992 -0.848597 0
M  V30 2785 H 260.752 4.30254 -2.9997 0
M  V30 2786 H 262.226 5.28341 -1.59876 0
M  V30 2787 H 262.703 4.38918 -0.157376 0
M  V30 2788 H 263.309 3.87668 -1.7491 0
M  V30 2789 N 261.624 0.925811 1.2754 0
M  V30 2790 C 262.849 0.580924 1.99098 0
M  V30 2791 C 263.274 -0.833555 1.68622 0
M  V30 2792 O 262.632 -1.55903 0.925422 0
M  V30 2793 C 262.68 0.811186 3.51358 0
M  V30 2794 O 261.784 -0.124129 4.12213 0
M  V30 2795 H 261.125 0.223873 0.625122 0
M  V30 2796 H 263.655 1.24455 1.62395 0
M  V30 2797 H 263.665 0.72601 4.01489 0
M  V30 2798 H 262.34 1.84227 3.72872 0
M  V30 2799 H 260.917 0.0108006 3.72898 0
M  V30 2800 N 263.102 -1.41638 0.69111 0
M  V30 2801 C 264.379 -1.95036 0.148421 0
M  V30 2802 C 264.759 -1.63072 -1.34055 0
M  V30 2803 O 264.107 -0.93538 -2.08478 0
M  V30 2804 C 264.317 -3.46279 0.434951 0
M  V30 2805 C 265.665 -4.23069 0.360275 0
M  V30 2806 O 266.689 -3.54277 0.369613 0
M  V30 2807 O 265.548 -5.45583 0.316534 0
M  V30 2808 H 262.642 -0.826908 0.0123654 0
M  V30 2809 H 265.188 -1.5138 0.766963 0
M  V30 2810 H 263.96 -3.6281 1.46576 0
M  V30 2811 H 263.583 -3.97019 -0.214787 0
M  V30 2812 N 264.58 -0.43555 -1.51462 0
M  V30 2813 C 265.827 0.131514 -2.02072 0
M  V30 2814 C 266.155 1.42868 -1.31981 0
M  V30 2815 O 265.41 1.91076 -0.422883 0
M  V30 2816 C 265.709 0.39942 -3.55161 0
M  V30 2817 C 265.375 -0.81172 -4.43533 0
M  V30 2818 C 264.037 -1.14387 -4.67407 0
M  V30 2819 C 266.389 -1.61976 -4.95392 0
M  V30 2820 C 263.717 -2.28477 -5.40384 0
M  V30 2821 C 266.069 -2.75164 -5.6962 0
M  V30 2822 C 264.733 -3.08835 -5.91758 0
M  V30 2823 H 264.003 0.0481244 -0.739436 0
M  V30 2824 H 266.65 -0.58238 -1.8243 0
M  V30 2825 H 264.955 1.19519 -3.73125 0
M  V30 2826 H 266.652 0.85157 -3.91854 0
M  V30 2827 H 263.242 -0.542898 -4.25148 0
M  V30 2828 H 267.426 -1.37637 -4.76833 0
M  V30 2829 H 262.682 -2.5488 -5.55739 0
M  V30 2830 H 266.856 -3.38147 -6.08793 0
M  V30 2831 H 264.483 -3.97353 -6.48086 0
M  V30 2832 N 266.058 1.56714 -0.166846 0
M  V30 2833 C 267.474 1.58473 0.189372 0
M  V30 2834 C 267.674 1.18201 1.63189 0
M  V30 2835 O 266.73 0.891528 2.36237 0
M  V30 2836 C 268.043 3.00573 -0.0873872 0
M  V30 2837 C 269.591 3.1299 -0.0252443 0
M  V30 2838 C 270.066 4.57174 -0.274934 0
M  V30 2839 N 271.557 4.62665 -0.222553 0
M  V30 2840 C 272.292 5.72072 -0.389985 0
M  V30 2841 N 271.788 6.90054 -0.616229 0
M  V30 2842 N 273.581 5.61153 -0.326202 0
M  V30 2843 H 265.732 1.8118 -1.10849 0
M  V30 2844 H 267.995 0.839525 -0.440342 0
M  V30 2845 H 267.701 3.34497 -1.0865 0
M  V30 2846 H 267.575 3.72019 0.623037 0
M  V30 2847 H 269.962 2.78895 0.96444 0
M  V30 2848 H 270.043 2.43989 -0.768309 0
M  V30 2849 H 269.687 4.91976 -1.26181 0
M  V30 2850 H 269.617 5.24328 0.48869 0
M  V30 2851 H 272.108 3.77863 -0.0531512 0
M  V30 2852 H 272.421 7.69311 -0.733559 0
M  V30 2853 H 270.766 6.91927 -0.652791 0
M  V30 2854 H 273.957 4.67859 -0.150072 0
M  V30 2855 H 274.13 6.46364 -0.460116 0
M  V30 2856 N 267.536 -0.106894 1.57237 0
M  V30 2857 C 268.785 -0.811163 1.8467 0
M  V30 2858 C 269.098 -1.80469 0.754342 0
M  V30 2859 O 270.304 -2.55601 0.915439 0
M  V30 2860 C 268.76 -1.49337 3.27454 0
M  V30 2861 C 268.368 -0.540217 4.44731 0
M  V30 2862 C 270.112 -2.18206 3.64124 0
M  V30 2863 C 268.019 -1.22634 5.78545 0
M  V30 2864 H 266.949 -0.306679 0.688813 0
M  V30 2865 H 269.6 -0.0639887 1.83388 0
M  V30 2866 H 267.982 -2.2876 3.23241 0
M  V30 2867 H 269.156 0.221659 4.60267 0
M  V30 2868 H 267.471 0.042146 4.16379 0
M  V30 2869 H 270.068 -2.70253 4.61376 0
M  V30 2870 H 270.411 -2.96562 2.92158 0
M  V30 2871 H 270.944 -1.45658 3.70174 0
M  V30 2872 H 267.683 -0.483832 6.53712 0
M  V30 2873 H 267.203 -1.95993 5.66874 0
M  V30 2874 H 268.882 -1.75615 6.2271 0
M  V30 2875 N 269.014 -1.53014 -0.377408 0
M  V30 2876 C 270.262 -1.6829 -1.11906 0
M  V30 2877 C 270.583 -0.431206 -1.90173 0
M  V30 2878 O 269.853 0.554595 -1.87886 0
M  V30 2879 H 268.433 -0.620371 -0.416112 0
M  V30 2880 H 271.095 -1.90167 -0.426893 0
M  V30 2881 H 270.191 -2.53862 -1.8155 0
M  V30 2882 N 270.492 0.636531 -1.44174 0
M  V30 2883 C 271.739 1.39619 -1.46672 0
M  V30 2884 C 272.067 1.94257 -0.0972691 0
M  V30 2885 O 271.322 1.73768 0.900175 0
M  V30 2886 C 271.621 2.58309 -2.47005 0
M  V30 2887 C 271.287 2.21992 -3.92467 0
M  V30 2888 C 269.949 2.118 -4.32081 0
M  V30 2889 C 272.301 1.9321 -4.84065 0
M  V30 2890 C 269.629 1.71007 -5.61225 0
M  V30 2891 C 271.981 1.53911 -6.13591 0
M  V30 2892 C 270.645 1.42257 -6.52165 0
M  V30 2893 H 269.915 0.510902 -0.536712 0
M  V30 2894 H 272.562 0.722328 -1.77355 0
M  V30 2895 H 270.867 3.30903 -2.09786 0
M  V30 2896 H 272.564 3.16533 -2.46186 0
M  V30 2897 H 269.154 2.30841 -3.61124 0
M  V30 2898 H 273.338 1.99997 -4.54219 0
M  V30 2899 H 268.594 1.60583 -5.89935 0
M  V30 2900 H 272.768 1.30677 -6.8403 0
M  V30 2901 H 270.395 1.10419 -7.52138 0
M  V30 2902 N 271.97 1.30982 0.876444 0
M  V30 2903 C 273.218 1.20058 1.62575 0
M  V30 2904 C 273.539 -0.242947 1.93481 0
M  V30 2905 O 272.809 -1.1619 1.57724 0
M  V30 2906 H 271.389 0.44135 0.602677 0
M  V30 2907 H 274.051 1.64222 1.04962 0
M  V30 2908 H 273.147 1.76762 2.57219 0
M  V30 2909 N 273.449 -1.08991 1.13837 0
M  V30 2910 C 274.674 -1.85551 0.926585 0
M  V30 2911 C 275.099 -1.80782 -0.519566 0
M  V30 2912 O 274.457 -1.18855 -1.36906 0
M  V30 2913 C 274.505 -3.31266 1.42462 0
M  V30 2914 O 273.609 -4.07822 0.612789 0
M  V30 2915 H 272.95 -0.575192 0.331738 0
M  V30 2916 H 275.48 -1.37604 1.51414 0
M  V30 2917 H 275.49 -3.82112 1.43019 0
M  V30 2918 H 274.165 -3.34052 2.47754 0
M  V30 2919 H 272.742 -3.66731 0.675463 0
M  V30 2920 N 274.927 -0.932562 -1.27047 0
M  V30 2921 C 276.174 -0.575559 -1.94148 0
M  V30 2922 C 276.502 0.883984 -1.73251 0
M  V30 2923 O 275.757 1.64655 -1.0577 0
M  V30 2924 C 276.056 -0.853713 -3.47054 0
M  V30 2925 C 275.722 -2.29577 -3.88079 0
M  V30 2926 C 274.384 -2.68999 -3.9899 0
M  V30 2927 C 276.736 -3.23331 -4.08787 0
M  V30 2928 C 274.064 -4.01289 -4.28 0
M  V30 2929 C 276.416 -4.55207 -4.39282 0
M  V30 2930 C 275.08 -4.94457 -4.48407 0
M  V30 2931 H 274.35 -0.210612 -0.710439 0
M  V30 2932 H 276.997 -1.17744 -1.51025 0
M  V30 2933 H 275.302 -0.169204 -3.91434 0
M  V30 2934 H 276.999 -0.55639 -3.97121 0
M  V30 2935 H 273.589 -1.97994 -3.80127 0
M  V30 2936 H 277.773 -2.94074 -3.99793 0
M  V30 2937 H 273.029 -4.31374 -4.33275 0
M  V30 2938 H 277.203 -5.27852 -4.54252 0
M  V30 2939 H 274.83 -5.96994 -4.7064 0
M  V30 2940 N 276.405 1.4127 -0.698611 0
M  V30 2941 C 277.651 2.01478 -0.231207 0
M  V30 2942 C 277.984 1.55215 1.16713 0
M  V30 2943 O 277.259 0.764672 1.78838 0
M  V30 2944 C 277.542 3.58912 -0.292281 0
M  V30 2945 C 277.395 4.15293 -1.72778 0
M  V30 2946 C 278.714 4.38736 0.346194 0
M  V30 2947 H 275.833 0.732025 -0.0854878 0
M  V30 2948 H 278.475 1.67977 -0.887906 0
M  V30 2949 H 276.625 3.87582 0.26686 0
M  V30 2950 H 278.297 3.97486 -2.341 0
M  V30 2951 H 276.54 3.7022 -2.26096 0
M  V30 2952 H 277.211 5.24452 -1.72202 0
M  V30 2953 H 279.687 4.15897 -0.130035 0
M  V30 2954 H 278.563 5.48221 0.272932 0
M  V30 2955 H 278.824 4.18425 1.42734 0
M  V30 2956 N 277.883 0.443576 1.51229 0
M  V30 2957 C 278.793 -0.370721 2.31652 0
M  V30 2958 C 279.809 -1.02186 1.40833 0
M  V30 2959 O 280.985 -1.01586 1.73903 0
M  V30 2960 C 278.05 -1.45376 3.14749 0
M  V30 2961 C 277.111 -0.822099 4.21355 0
M  V30 2962 C 276.344 -1.85353 5.0048 0
M  V30 2963 O 276.567 -3.07656 4.80316 0
M  V30 2964 O 275.501 -1.4406 5.84406 0
M  V30 2965 H 279.327 0.286002 3.0235 0
M  V30 2966 H 276.912 0.20598 1.47973 0
M  V30 2967 H 278.794 -2.08173 3.66391 0
M  V30 2968 H 277.469 -2.09445 2.46809 0
M  V30 2969 H 276.376 -0.155909 3.73775 0
M  V30 2970 H 277.709 -0.224797 4.91686 0
M  V30 2971 N 279.361 -1.56624 0.175154 0
M  V30 2972 C 280.308 -2.18149 -0.753634 0
M  V30 2973 C 281.278 -1.12265 -1.22417 0
M  V30 2974 O 282.463 -1.40432 -1.29165 0
M  V30 2975 C 279.603 -2.82933 -1.97592 0
M  V30 2976 C 278.716 -4.03289 -1.5486 0
M  V30 2977 C 277.851 -4.55988 -2.72485 0
M  V30 2978 C 276.89 -5.68746 -2.26262 0
M  V30 2979 N 276.027 -6.15938 -3.36994 0
M  V30 2980 H 280.867 -2.9717 -0.222195 0
M  V30 2981 H 278.404 -1.46774 -0.0979422 0
M  V30 2982 H 280.362 -3.18653 -2.69288 0
M  V30 2983 H 278.992 -2.06509 -2.481 0
M  V30 2984 H 278.044 -3.73364 -0.728246 0
M  V30 2985 H 279.356 -4.849 -1.16933 0
M  V30 2986 H 278.51 -4.9391 -3.52332 0
M  V30 2987 H 277.249 -3.73443 -3.13674 0
M  V30 2988 H 276.254 -5.30372 -1.44863 0
M  V30 2989 H 277.479 -6.53095 -1.86127 0
M  V30 2990 H 275.425 -5.36321 -3.77751 0
M  V30 2991 H 275.342 -6.92548 -3.03172 0
M  V30 2992 H 276.61 -6.58511 -4.17114 0
M  V30 2993 N 280.839 0.0985539 -1.57292 0
M  V30 2994 C 282.067 0.816318 -1.90115 0
M  V30 2995 C 282.482 1.72451 -0.768509 0
M  V30 2996 O 281.839 1.80643 0.259687 0
M  V30 2997 C 281.89 1.63259 -3.22535 0
M  V30 2998 O 281.611 0.760934 -4.31441 0
M  V30 2999 C 283.112 2.45372 -3.69199 0
M  V30 3000 H 280.332 0.233595 -0.629027 0
M  V30 3001 H 282.876 0.0768229 -2.04356 0
M  V30 3002 H 281.031 2.32463 -3.09903 0
M  V30 3003 H 281.445 1.32595 -5.07463 0
M  V30 3004 H 282.919 2.98144 -4.64558 0
M  V30 3005 H 283.396 3.23677 -2.96867 0
M  V30 3006 H 284.002 1.81373 -3.84687 0
M  V30 3007 N 282.317 1.53212 0.369288 0
M  V30 3008 C 283.563 1.69466 1.11397 0
M  V30 3009 C 283.896 0.443257 1.89074 0
M  V30 3010 O 283.171 -0.559386 1.86282 0
M  V30 3011 C 283.454 2.9422 2.07621 0
M  V30 3012 C 283.307 4.29508 1.33577 0
M  V30 3013 C 284.626 3.14565 3.07794 0
M  V30 3014 H 281.745 0.616667 0.403597 0
M  V30 3015 H 284.387 1.85845 0.395179 0
M  V30 3016 H 282.537 2.80387 2.68916 0
M  V30 3017 H 284.209 4.55147 0.750955 0
M  V30 3018 H 282.452 4.29088 0.637618 0
M  V30 3019 H 283.123 5.12926 2.03989 0
M  V30 3020 H 285.599 3.2756 2.56601 0
M  V30 3021 H 284.475 4.03297 3.72348 0
M  V30 3022 H 284.736 2.29675 3.77759 0
M  V30 3023 N 283.795 -0.628877 1.44509 0
M  V30 3024 C 284.728 -1.75367 1.46019 0
M  V30 3025 C 285.706 -1.59444 0.318787 0
M  V30 3026 O 286.89 -1.81297 0.516099 0
M  V30 3027 C 284.017 -3.12965 1.29501 0
M  V30 3028 C 283.063 -3.47532 2.47233 0
M  V30 3029 S 283.896 -3.44758 4.09758 0
M  V30 3030 C 285.052 -4.84973 3.95667 0
M  V30 3031 H 285.285 -1.7382 2.41193 0
M  V30 3032 H 282.818 -0.803686 1.31834 0
M  V30 3033 H 284.776 -3.92367 1.20658 0
M  V30 3034 H 283.437 -3.12049 0.358341 0
M  V30 3035 H 282.63 -4.47664 2.31544 0
M  V30 3036 H 282.232 -2.75598 2.52828 0
M  V30 3037 H 284.524 -5.74255 3.59496 0
M  V30 3038 H 285.467 -5.05716 4.95638 0
M  V30 3039 H 285.875 -4.59653 3.27688 0
M  V30 3040 N 285.273 -1.31445 -0.869486 0
M  V30 3041 C 286.684 -1.19042 -1.43826 0
M  V30 3042 C 287.035 0.202919 -1.95148 0
M  V30 3043 O 286.16 1.10071 -1.86315 0
M  V30 3044 C 286.755 -2.15499 -2.6143 0
M  V30 3045 C 285.314 -2.07028 -3.14351 0
M  V30 3046 C 284.461 -2.04701 -1.87063 0
M  V30 3047 H 287.412 -1.43489 -0.677984 0
M  V30 3048 H 287.433 -1.74488 -3.38134 0
M  V30 3049 H 286.945 -3.16899 -2.24046 0
M  V30 3050 H 285.046 -1.08825 -3.56354 0
M  V30 3051 H 285.159 -2.96157 -3.766 0
M  V30 3052 H 283.523 -1.49724 -2.06046 0
M  V30 3053 H 284.306 -3.07857 -1.51917 0
M  V30 3054 N 286.751 1.08385 -1.14413 0
M  V30 3055 C 287.981 1.8425 -0.934644 0
M  V30 3056 C 288.389 1.81907 0.520234 0
M  V30 3057 O 287.732 1.22126 1.37226 0
M  V30 3058 C 287.794 3.32853 -1.35828 0
M  V30 3059 C 287.458 3.5893 -2.82875 0
M  V30 3060 C 288.455 3.53756 -3.80989 0
M  V30 3061 C 286.14 3.86934 -3.20293 0
M  V30 3062 C 288.134 3.76216 -5.14529 0
M  V30 3063 C 285.821 4.09047 -4.54008 0
M  V30 3064 C 286.819 4.03682 -5.50936 0
M  V30 3065 O 286.507 4.25214 -6.82238 0
M  V30 3066 H 286.239 0.588502 -0.332628 0
M  V30 3067 H 288.793 1.37792 -1.52324 0
M  V30 3068 H 287.023 3.8007 -0.713019 0
M  V30 3069 H 288.712 3.90154 -1.11957 0
M  V30 3070 H 289.478 3.32135 -3.53428 0
M  V30 3071 H 285.357 3.9023 -2.45442 0
M  V30 3072 H 288.901 3.71943 -5.90173 0
M  V30 3073 H 284.798 4.30151 -4.8129 0
M  V30 3074 H 285.566 4.42619 -6.88499 0
M  V30 3075 N 288.23 0.939286 1.26551 0
M  V30 3076 C 289.479 0.581601 1.93133 0
M  V30 3077 C 289.792 -0.883224 1.74524 0
M  V30 3078 O 290.998 -1.3502 2.35546 0
M  V30 3079 C 289.454 0.989425 3.46032 0
M  V30 3080 C 289.062 2.47573 3.73379 0
M  V30 3081 C 290.806 0.703544 4.18629 0
M  V30 3082 C 288.713 2.82235 5.19709 0
M  V30 3083 H 287.643 0.213803 0.723052 0
M  V30 3084 H 290.294 1.14167 1.4366 0
M  V30 3085 H 288.676 0.357902 3.94379 0
M  V30 3086 H 289.85 3.15614 3.35744 0
M  V30 3087 H 288.165 2.73471 3.1401 0
M  V30 3088 H 290.762 0.938869 5.26393 0
M  V30 3089 H 291.105 -0.359639 4.14744 0
M  V30 3090 H 291.638 1.2947 3.76141 0
M  V30 3091 H 288.377 3.87509 5.28694 0
M  V30 3092 H 287.897 2.18854 5.58447 0
M  V30 3093 H 289.576 2.70599 5.87695 0
M  V30 3094 N 289.708 -1.40897 0.706093 0
M  V30 3095 C 290.933 -2.05895 0.249435 0
M  V30 3096 C 291.358 -1.52823 -1.09666 0
M  V30 3097 O 290.716 -0.659589 -1.68876 0
M  V30 3098 C 290.764 -3.59872 0.22904 0
M  V30 3099 O 289.868 -4.04708 -0.792784 0
M  V30 3100 H 289.209 -0.653206 0.119241 0
M  V30 3101 H 291.739 -1.80471 0.96391 0
M  V30 3102 H 291.749 -4.07951 0.0634791 0
M  V30 3103 H 290.424 -3.97866 1.21141 0
M  V30 3104 H 289.001 -3.68111 -0.59572 0
M  V30 3105 N 291.186 -0.45159 -1.50991 0
M  V30 3106 C 292.414 0.108334 -2.06616 0
M  V30 3107 C 292.829 1.35224 -1.31757 0
M  V30 3108 O 292.186 1.78475 -0.381174 0
M  V30 3109 C 292.237 0.41619 -3.59096 0
M  V30 3110 O 291.958 -0.778361 -4.3113 0
M  V30 3111 C 293.459 1.02523 -4.31282 0
M  V30 3112 H 290.679 0.00159995 -0.670998 0
M  V30 3113 H 293.223 -0.634771 -1.94399 0
M  V30 3114 H 291.378 1.10921 -3.71181 0
M  V30 3115 H 291.792 -0.511181 -5.22003 0
M  V30 3116 H 293.266 1.19053 -5.39009 0
M  V30 3117 H 293.743 2.01013 -3.905 0
M  V30 3118 H 294.349 0.371173 -4.23677 0
M  V30 3119 N 292.664 1.56529 -0.183458 0
M  V30 3120 C 293.892 2.01623 0.464285 0
M  V30 3121 C 294.307 1.06366 1.55986 0
M  V30 3122 O 293.664 0.0665398 1.82379 0
M  V30 3123 C 293.715 3.46475 1.03139 0
M  V30 3124 O 293.436 4.38095 -0.0204675 0
M  V30 3125 C 294.937 4.0703 1.75617 0
M  V30 3126 H 292.157 0.660596 0.117704 0
M  V30 3127 H 294.701 2.02451 -0.288751 0
M  V30 3128 H 292.856 3.46383 1.73486 0
M  V30 3129 H 293.27 5.22973 0.399952 0
M  V30 3130 H 294.744 5.10271 2.10542 0
M  V30 3131 H 295.221 3.49819 2.65563 0
M  V30 3132 H 295.827 4.1086 1.09882 0
M  V30 3133 N 294.142 -0.090211 1.57342 0
M  V30 3134 C 295.553 -0.644173 1.75235 0
M  V30 3135 C 295.904 -1.78865 0.806335 0
M  V30 3136 O 295.029 -2.16395 -0.0140128 0
M  V30 3137 C 295.624 -1.17532 3.1776 0
M  V30 3138 C 294.183 -1.67531 3.37061 0
M  V30 3139 C 293.33 -0.58693 2.71017 0
M  V30 3140 H 296.281 0.135884 1.58117 0
M  V30 3141 H 296.302 -2.04455 3.20902 0
M  V30 3142 H 295.814 -0.342138 3.86589 0
M  V30 3143 H 293.915 -2.53234 2.73319 0
M  V30 3144 H 294.028 -1.76493 4.45406 0
M  V30 3145 H 292.392 -1.02756 2.33052 0
M  V30 3146 H 293.175 0.235758 3.4249 0
M  V30 3147 N 295.62 -1.53406 -0.361157 0
M  V30 3148 C 296.583 -1.79479 -1.42548 0
M  V30 3149 C 297.583 -0.665327 -1.4639 0
M  V30 3150 O 298.773 -0.933549 -1.47073 0
M  V30 3151 C 295.905 -1.92087 -2.8163 0
M  V30 3152 H 297.098 -2.74538 -1.20701 0
M  V30 3153 H 294.651 -1.4455 -0.594546 0
M  V30 3154 H 295.386 -0.991099 -3.08784 0
M  V30 3155 H 295.171 -2.74241 -2.80239 0
M  V30 3156 H 296.661 -2.13836 -3.58697 0
M  V30 3157 N 297.098 0.621204 -1.44841 0
M  V30 3158 C 298.045 1.73267 -1.5247 0
M  V30 3159 C 299.015 1.6189 -0.371611 0
M  V30 3160 O 300.2 1.81668 -0.58321 0
M  V30 3161 C 297.34 3.11545 -1.48438 0
M  V30 3162 C 296.453 3.33827 -2.74196 0
M  V30 3163 C 295.588 4.62133 -2.61929 0
M  V30 3164 C 294.627 4.77627 -3.82804 0
M  V30 3165 N 293.764 5.97219 -3.69153 0
M  V30 3166 H 298.604 1.66082 -2.47428 0
M  V30 3167 H 296.141 0.810026 -1.22788 0
M  V30 3168 H 298.099 3.91528 -1.4409 0
M  V30 3169 H 296.729 3.1772 -0.570402 0
M  V30 3170 H 295.781 2.47715 -2.88689 0
M  V30 3171 H 297.093 3.41153 -3.6389 0
M  V30 3172 H 296.247 5.50291 -2.5547 0
M  V30 3173 H 294.986 4.57182 -1.69811 0
M  V30 3174 H 293.991 3.87896 -3.89637 0
M  V30 3175 H 295.216 4.84385 -4.75971 0
M  V30 3176 H 293.162 5.93339 -2.79794 0
M  V30 3177 H 293.079 6.05644 -4.52472 0
M  V30 3178 H 294.347 6.87912 -3.66603 0
M  V30 3179 N 298.576 1.31904 0.862503 0
M  V30 3180 C 299.506 1.22782 1.98612 0
M  V30 3181 C 300.487 0.113362 1.69722 0
M  V30 3182 O 301.672 0.299218 1.91881 0
M  V30 3183 C 298.802 0.942058 3.34279 0
M  V30 3184 C 297.756 2.0169 3.77499 0
M  V30 3185 C 297.082 1.58369 5.10709 0
M  V30 3186 C 298.382 3.43096 3.93805 0
M  V30 3187 H 300.076 2.16788 2.06502 0
M  V30 3188 H 297.622 1.04366 0.992154 0
M  V30 3189 H 299.575 0.864818 4.1243 0
M  V30 3190 H 298.299 -0.0336603 3.26583 0
M  V30 3191 H 296.958 2.08416 3.01593 0
M  V30 3192 H 296.606 0.595628 4.99461 0
M  V30 3193 H 296.306 2.30279 5.40597 0
M  V30 3194 H 297.83 1.52067 5.91361 0
M  V30 3195 H 299.244 3.39003 4.62331 0
M  V30 3196 H 297.641 4.13288 4.35101 0
M  V30 3197 H 298.711 3.83334 2.96957 0
M  V30 3198 N 300.054 -1.07777 1.14986 0
M  V30 3199 C 301.47 -1.32373 0.891596 0
M  V30 3200 C 301.67 -1.9609 -0.463788 0
M  V30 3201 O 300.726 -2.21801 -1.20667 0
M  V30 3202 C 302.039 -2.21905 2.02925 0
M  V30 3203 C 303.587 -2.35367 2.06329 0
M  V30 3204 C 304.062 -3.28245 3.19405 0
M  V30 3205 N 305.553 -3.35824 3.19024 0
M  V30 3206 C 306.288 -4.07739 4.03158 0
M  V30 3207 N 305.784 -4.82306 4.97346 0
M  V30 3208 N 307.577 -4.03635 3.91197 0
M  V30 3209 H 299.728 -0.648039 2.02273 0
M  V30 3210 H 301.991 -0.348149 0.881757 0
M  V30 3211 H 301.697 -1.82342 3.0074 0
M  V30 3212 H 301.571 -3.22407 1.95789 0
M  V30 3213 H 303.958 -2.74186 1.09116 0
M  V30 3214 H 304.039 -1.34585 2.17533 0
M  V30 3215 H 303.683 -2.90146 4.16867 0
M  V30 3216 H 303.613 -4.28971 3.05437 0
M  V30 3217 H 306.104 -2.8267 2.50811 0
M  V30 3218 H 306.417 -5.34661 5.57994 0
M  V30 3219 H 304.762 -4.81337 5.01338 0
M  V30 3220 H 307.953 -3.44491 3.16928 0
M  V30 3221 H 308.126 -4.59417 4.5699 0
M  V30 3222 N 301.532 -0.945985 -1.26051 0
M  V30 3223 C 302.48 -0.450259 -2.282 0
M  V30 3224 C 303.474 0.47497 -1.62605 0
M  V30 3225 O 304.68 0.352653 -1.76512 0
M  V30 3226 H 301.055 -0.127081 -0.741184 0
M  V30 3227 H 303.026 -1.32422 -2.67408 0
M  V30 3228 C 301.775 0.26467 -3.46691 0
M  V30 3229 H 301.098 -0.438123 -3.97392 0
M  V30 3230 H 302.538 0.575678 -4.20074 0
M  V30 3231 C 300.997 1.48416 -3.02447 0
M  V30 3232 O 301.527 2.58227 -3.07704 0
M  V30 3233 N 299.733 1.34243 -2.57735 0
M  V30 3234 H 299.28 0.448994 -2.53657 0
M  V30 3235 H 299.238 2.15957 -2.28495 0
M  V30 3236 N 303.011 1.40521 -0.713556 0
M  V30 3237 C 304.422 1.83853 -0.324807 0
M  V30 3238 C 304.773 1.59667 1.14021 0
M  V30 3239 O 303.898 1.07649 1.87725 0
M  V30 3240 C 304.493 3.33751 -0.582746 0
M  V30 3241 C 303.052 3.75584 -0.247727 0
M  V30 3242 C 302.199 2.63753 -0.856121 0
M  V30 3243 H 305.15 1.29817 -0.91286 0
M  V30 3244 H 305.171 3.80194 0.152682 0
M  V30 3245 H 304.683 3.51322 -1.64908 0
M  V30 3246 H 302.784 3.63608 0.813624 0
M  V30 3247 H 302.897 4.7373 -0.715307 0
M  V30 3248 H 301.261 2.53108 -0.28432 0
M  V30 3249 H 302.044 2.84137 -1.92668 0
M  V30 3250 N 304.489 0.459591 1.5075 0
M  V30 3251 C 305.729 -0.09824 2.04164 0
M  V30 3252 C 306.093 -1.3801 1.33481 0
M  V30 3253 O 307.294 -2.01959 1.77387 0
M  V30 3254 C 305.565 -0.289467 3.56226 0
M  V30 3255 S 307.124 -0.807507 4.31306 0
M  V30 3256 H 303.942 -0.0213845 0.710678 0
M  V30 3257 H 306.544 0.624098 1.85271 0
M  V30 3258 H 305.248 0.649461 4.05229 0
M  V30 3259 H 304.779 -1.03825 3.79452 0
M  V30 3260 H 306.794 -2.0824 4.50389 0
M  V30 3261 N 305.967 -1.56429 0.191757 0
M  V30 3262 C 307.195 -2.01867 -0.453586 0
M  V30 3263 C 307.61 -1.07191 -1.5542 0
M  V30 3264 O 306.967 -0.0762108 -1.82341 0
M  V30 3265 C 307.018 -3.47017 -1.013 0
M  V30 3266 O 306.739 -4.38078 0.0437005 0
M  V30 3267 C 308.24 -4.07956 -1.73456 0
M  V30 3268 H 305.46 -0.661211 -0.114199 0
M  V30 3269 H 308.004 -2.02295 0.299483 0
M  V30 3270 H 306.159 -3.47298 -1.71647 0
M  V30 3271 H 306.573 -5.23178 -0.372212 0
M  V30 3272 H 308.047 -5.1138 -2.07833 0
M  V30 3273 H 308.524 -3.51222 -2.63704 0
M  V30 3274 H 309.13 -4.11437 -1.07702 0
M  V30 3275 N 307.445 0.0818655 -1.57387 0
M  V30 3276 C 308.67 0.799946 -1.91352 0
M  V30 3277 C 309.095 1.70833 -0.787258 0
M  V30 3278 O 308.453 1.79419 0.26048 0
M  V30 3279 C 308.501 1.57812 -3.24234 0
M  V30 3280 O 307.605 2.68806 -3.12757 0
M  V30 3281 H 306.946 0.21891 -0.626877 0
M  V30 3282 H 309.476 0.0531256 -2.04531 0
M  V30 3283 H 309.486 1.95952 -3.57864 0
M  V30 3284 H 308.161 0.911548 -4.05788 0
M  V30 3285 H 306.738 2.33597 -2.90666 0
M  V30 3286 N 308.923 1.53595 0.353017 0
M  V30 3287 C 309.833 1.83897 1.45667 0
M  V30 3288 C 310.849 0.728334 1.58023 0
M  V30 3289 O 312.025 1.01968 1.73679 0
M  V30 3290 C 309.09 2.03383 2.80778 0
M  V30 3291 C 308.151 3.27262 2.77845 0
M  V30 3292 C 307.384 3.45809 4.06512 0
M  V30 3293 O 307.607 2.68387 5.03314 0
M  V30 3294 O 306.541 4.39207 4.11559 0
M  V30 3295 H 310.367 2.77686 1.2298 0
M  V30 3296 H 307.952 1.39132 0.544308 0
M  V30 3297 H 309.834 2.17698 3.60812 0
M  V30 3298 H 308.509 1.12783 3.03417 0
M  V30 3299 H 307.416 3.18359 1.96465 0
M  V30 3300 H 308.749 4.17824 2.60161 0
M  V30 3301 N 310.401 -0.613514 1.45168 0
M  V30 3302 C 311.333 -1.73825 1.4939 0
M  V30 3303 C 312.346 -1.58175 0.385304 0
M  V30 3304 O 313.535 -1.66165 0.652036 0
M  V30 3305 C 310.635 -3.11758 1.32891 0
M  V30 3306 C 309.808 -3.53704 2.57317 0
M  V30 3307 C 308.867 -4.70579 2.35462 0
M  V30 3308 O 307.893 -4.77996 3.09044 0
M  V30 3309 N 309.095 -5.63454 1.39644 0
M  V30 3310 H 311.86 -1.70669 2.46358 0
M  V30 3311 H 309.421 -0.79862 1.40832 0
M  V30 3312 H 311.413 -3.87692 1.1609 0
M  V30 3313 H 309.983 -3.09456 0.442218 0
M  V30 3314 H 309.203 -2.67794 2.89275 0
M  V30 3315 H 310.491 -3.78486 3.40038 0
M  V30 3316 H 309.889 -5.6017 0.789062 0
M  V30 3317 H 308.446 -6.38944 1.28816 0
M  V30 3318 N 311.879 -1.3236 -0.855495 0
M  V30 3319 C 312.827 -1.2118 -1.9854 0
M  V30 3320 C 313.821 -0.116788 -1.68997 0
M  V30 3321 O 315.027 -0.279657 -1.77814 0
M  V30 3322 H 311.402 -0.375608 -0.651477 0
M  V30 3323 H 313.373 -2.16743 -2.05098 0
M  V30 3324 C 312.122 -0.950849 -3.34446 0
M  V30 3325 H 311.445 -1.78563 -3.57708 0
M  V30 3326 H 312.885 -0.912863 -4.14057 0
M  V30 3327 C 311.344 0.346404 -3.35114 0
M  V30 3328 O 311.874 1.35855 -3.7803 0
M  V30 3329 N 310.08 0.36808 -2.88259 0
M  V30 3330 H 309.627 -0.456102 -2.5353 0
M  V30 3331 H 309.585 1.23591 -2.89089 0
M  V30 3332 N 313.357 1.07166 -1.15556 0
M  V30 3333 C 314.597 1.81391 -0.94216 0
M  V30 3334 C 314.961 1.84788 0.521272 0
M  V30 3335 O 316.162 2.54904 0.85307 0
M  V30 3336 C 314.433 3.22431 -1.54185 0
M  V30 3337 S 315.992 4.13379 -1.47183 0
M  V30 3338 H 312.81 0.624963 -0.339031 0
M  V30 3339 H 315.412 1.28725 -1.4714 0
M  V30 3340 H 314.116 3.17548 -2.59984 0
M  V30 3341 H 313.647 3.80172 -1.01156 0
M  V30 3342 H 315.662 4.94007 -0.466004 0
M  V30 3343 N 314.835 0.952656 1.25548 0
M  V30 3344 C 316.063 0.623496 1.97282 0
M  V30 3345 C 316.478 -0.803987 1.70826 0
M  V30 3346 O 315.835 -1.53755 0.983147 0
M  V30 3347 C 315.886 0.870209 3.5087 0
M  V30 3348 O 315.607 2.24156 3.76412 0
M  V30 3349 C 317.108 0.553164 4.39835 0
M  V30 3350 H 314.328 0.233931 0.628902 0
M  V30 3351 H 316.872 1.27649 1.59768 0
M  V30 3352 H 315.027 0.263652 3.86502 0
M  V30 3353 H 315.441 2.31021 4.70882 0
M  V30 3354 H 316.915 0.776342 5.46513 0
M  V30 3355 H 317.392 -0.512215 4.36203 0
M  V30 3356 H 317.998 1.13896 4.09766 0
M  V30 3357 N 316.313 -1.40141 0.720998 0
M  V30 3358 C 317.538 -2.05618 0.271258 0
M  V30 3359 C 317.963 -1.53978 -1.08039 0
M  V30 3360 O 317.321 -0.677463 -1.68167 0
M  V30 3361 C 317.369 -3.59609 0.267197 0
M  V30 3362 O 316.473 -4.05526 -0.749814 0
M  V30 3363 H 315.814 -0.651904 0.126162 0
M  V30 3364 H 318.344 -1.79439 0.982997 0
M  V30 3365 H 318.354 -4.0786 0.106744 0
M  V30 3366 H 317.029 -3.96559 1.25354 0
M  V30 3367 H 315.606 -3.68722 -0.556644 0
M  V30 3368 N 317.792 -0.46758 -1.50504 0
M  V30 3369 C 319.203 -0.0116166 -1.86696 0
M  V30 3370 C 319.554 1.39202 -1.38265 0
M  V30 3371 O 318.679 2.0313 -0.746132 0
M  V30 3372 C 319.274 -0.0143044 -3.38797 0
M  V30 3373 C 317.833 0.386175 -3.74414 0
M  V30 3374 C 316.98 -0.401287 -2.74381 0
M  V30 3375 H 319.931 -0.682022 -1.43297 0
M  V30 3376 H 319.952 0.788641 -3.72237 0
M  V30 3377 H 319.464 -1.03602 -3.74016 0
M  V30 3378 H 317.565 1.41237 -3.44794 0
M  V30 3379 H 317.678 0.0899596 -4.79016 0
M  V30 3380 H 316.042 0.144536 -2.5429 0
M  V30 3381 H 316.825 -1.42244 -3.12444 0
M  V30 3382 N 319.27 1.56325 -0.20005 0
M  V30 3383 C 320.517 1.97719 0.437411 0
M  V30 3384 C 320.845 1.08709 1.61284 0
M  V30 3385 O 320.1 0.127261 1.95286 0
M  V30 3386 C 320.399 3.4495 0.935103 0
M  V30 3387 C 320.065 4.5072 -0.12749 0
M  V30 3388 C 318.727 4.79368 -0.419451 0
M  V30 3389 C 321.079 5.14268 -0.847231 0
M  V30 3390 C 318.407 5.68854 -1.43604 0
M  V30 3391 C 320.759 6.04852 -1.85301 0
M  V30 3392 C 319.423 6.31855 -2.15211 0
M  V30 3393 H 318.693 0.723507 0.16006 0
M  V30 3394 H 321.34 1.89166 -0.298056 0
M  V30 3395 H 319.645 3.50599 1.74894 0
M  V30 3396 H 321.342 3.74337 1.43781 0
M  V30 3397 H 317.932 4.28458 0.11023 0
M  V30 3398 H 322.116 4.92222 -0.634901 0
M  V30 3399 H 317.372 5.88047 -1.67364 0
M  V30 3400 H 321.546 6.53152 -2.41591 0
M  V30 3401 H 319.173 7.00994 -2.94129 0
M  V30 3402 N 320.748 -0.0735177 1.57428 0
M  V30 3403 C 321.973 -0.789787 1.91774 0
M  V30 3404 C 322.398 -1.70413 0.796306 0
M  V30 3405 O 321.756 -1.79555 -0.250961 0
M  V30 3406 C 321.804 -1.5609 3.25067 0
M  V30 3407 O 320.908 -2.67144 3.14178 0
M  V30 3408 H 320.249 -0.215582 0.628029 0
M  V30 3409 H 322.779 -0.0422781 2.04556 0
M  V30 3410 H 322.789 -1.94052 3.58898 0
M  V30 3411 H 321.464 -0.890015 4.06265 0
M  V30 3412 H 320.041 -2.32052 2.91901 0
M  V30 3413 N 322.226 -1.5378 -0.344866 0
M  V30 3414 C 323.456 -1.74646 -1.10374 0
M  V30 3415 C 323.864 -0.48491 -1.8288 0
M  V30 3416 O 323.207 0.553062 -1.75177 0
M  V30 3417 C 323.269 -2.87145 -2.16306 0
M  V30 3418 C 322.933 -4.26795 -1.63386 0
M  V30 3419 C 323.93 -5.08412 -1.08688 0
M  V30 3420 C 321.615 -4.73276 -1.68272 0
M  V30 3421 C 323.609 -6.34609 -0.595792 0
M  V30 3422 C 321.296 -5.99446 -1.18776 0
M  V30 3423 C 322.294 -6.79946 -0.645215 0
M  V30 3424 O 321.982 -8.03745 -0.157626 0
M  V30 3425 H 321.714 -0.587112 -0.335075 0
M  V30 3426 H 324.268 -2.01403 -0.403252 0
M  V30 3427 H 322.498 -2.55909 -2.89909 0
M  V30 3428 H 324.187 -2.95992 -2.77747 0
M  V30 3429 H 324.953 -4.73666 -1.04236 0
M  V30 3430 H 320.832 -4.10677 -2.09442 0
M  V30 3431 H 324.376 -6.97389 -0.171654 0
M  V30 3432 H 320.273 -6.33687 -1.22928 0
M  V30 3433 H 321.041 -8.18038 -0.275037 0
M  V30 3434 N 323.704 0.605807 -1.45491 0
M  V30 3435 C 324.651 1.7164 -1.54299 0
M  V30 3436 C 325.621 1.61486 -0.388761 0
M  V30 3437 O 326.806 1.81039 -0.602445 0
M  V30 3438 C 323.946 3.09953 -1.51734 0
M  V30 3439 C 323.059 3.309 -2.77721 0
M  V30 3440 C 322.194 4.59329 -2.66816 0
M  V30 3441 C 321.233 4.7354 -3.87848 0
M  V30 3442 N 320.37 5.9327 -3.75467 0
M  V30 3443 H 325.21 1.63449 -2.49176 0
M  V30 3444 H 322.747 0.796957 -1.23641 0
M  V30 3445 H 324.705 3.89977 -1.48235 0
M  V30 3446 H 323.335 3.17098 -0.604068 0
M  V30 3447 H 322.387 2.44639 -2.913 0
M  V30 3448 H 323.699 3.37274 -3.67488 0
M  V30 3449 H 322.853 5.4755 -2.61292 0
M  V30 3450 H 321.592 4.55355 -1.74651 0
M  V30 3451 H 320.597 3.83741 -3.93729 0
M  V30 3452 H 321.822 4.79309 -4.81082 0
M  V30 3453 H 319.768 5.90338 -2.86072 0
M  V30 3454 H 319.685 6.00811 -4.5887 0
M  V30 3455 H 320.953 6.83984 -3.73879 0
M  V30 3456 N 325.182 1.32811 0.848464 0
M  V30 3457 C 326.13 1.22231 1.97895 0
M  V30 3458 C 327.124 0.125749 1.68933 0
M  V30 3459 O 328.33 0.289083 1.77663 0
M  V30 3460 H 324.705 0.379058 0.649476 0
M  V30 3461 H 326.676 2.17828 2.03945 0
M  V30 3462 C 325.425 0.968572 3.33937 0
M  V30 3463 H 324.748 1.80458 3.56756 0
M  V30 3464 H 326.188 0.934808 4.13567 0
M  V30 3465 C 324.647 -0.328628 3.35293 0
M  V30 3466 O 325.177 -1.33848 3.78745 0
M  V30 3467 N 323.383 -0.352788 2.88451 0
M  V30 3468 H 322.93 0.469541 2.53285 0
M  V30 3469 H 322.888 -1.22057 2.89741 0
M  V30 3470 N 326.66 -1.06551 1.16123 0
M  V30 3471 C 327.906 -1.79567 0.94252 0
M  V30 3472 C 328.239 -1.86869 -0.528547 0
M  V30 3473 O 327.514 -1.35838 -1.39206 0
M  V30 3474 C 327.797 -3.24195 1.56747 0
M  V30 3475 C 327.65 -3.24989 3.10969 0
M  V30 3476 C 328.969 -4.21678 1.25998 0
M  V30 3477 H 326.088 -0.651883 0.343828 0
M  V30 3478 H 328.73 -1.2463 1.43413 0
M  V30 3479 H 326.88 -3.71107 1.14942 0
M  V30 3480 H 328.552 -2.86258 3.61737 0
M  V30 3481 H 326.795 -2.63716 3.44436 0
M  V30 3482 H 327.466 -4.27005 3.49815 0
M  V30 3483 H 329.942 -3.83196 1.62174 0
M  V30 3484 H 328.818 -5.21146 1.7233 0
M  V30 3485 H 329.079 -4.4174 0.178367 0
M  V30 3486 N 328.138 -0.959301 -1.25041 0
M  V30 3487 C 329.068 -0.501388 -2.28053 0
M  V30 3488 C 330.049 0.454673 -1.63911 0
M  V30 3489 O 331.234 0.352618 -1.90972 0
M  V30 3490 C 328.364 0.217224 -3.4662 0
M  V30 3491 C 327.318 -0.654034 -4.22973 0
M  V30 3492 C 326.644 0.195589 -5.34342 0
M  V30 3493 C 327.944 -1.93447 -4.85155 0
M  V30 3494 H 329.638 -1.36238 -2.66608 0
M  V30 3495 H 327.184 -0.656534 -1.28163 0
M  V30 3496 H 329.137 0.548732 -4.17812 0
M  V30 3497 H 327.861 1.1125 -3.07068 0
M  V30 3498 H 326.52 -0.968693 -3.5357 0
M  V30 3499 H 326.168 1.09076 -4.91031 0
M  V30 3500 H 325.868 -0.384091 -5.86343 0
M  V30 3501 H 327.392 0.521958 -6.08365 0
M  V30 3502 H 328.806 -1.66908 -5.48466 0
M  V30 3503 H 327.203 -2.46018 -5.47353 0
M  V30 3504 H 328.273 -2.63466 -4.07079 0
M  V30 3505 N 329.616 1.39756 -0.72842 0
M  V30 3506 C 330.841 2.05472 -0.282159 0
M  V30 3507 C 331.266 1.54549 1.07221 0
M  V30 3508 O 330.624 0.686372 1.67805 0
M  V30 3509 C 330.672 3.59462 -0.286264 0
M  V30 3510 O 329.776 4.05918 0.728298 0
M  V30 3511 H 329.117 0.651226 -0.129618 0
M  V30 3512 H 331.647 1.78915 -0.992499 0
M  V30 3513 H 331.657 4.07798 -0.128373 0
M  V30 3514 H 330.332 3.95889 -1.27456 0
M  V30 3515 H 328.909 3.69012 0.537081 0
M  V30 3516 N 331.094 0.475555 1.50254 0
M  V30 3517 C 332.024 -0.30611 2.31485 0
M  V30 3518 C 333.005 -0.986228 1.38591 0
M  V30 3519 O 334.19 -0.982541 1.67511 0
M  V30 3520 C 331.32 -1.38588 3.1845 0
M  V30 3521 C 330.274 -0.827115 4.19932 0
M  V30 3522 C 329.6 -2.00551 4.95665 0
M  V30 3523 C 330.9 0.16463 5.2204 0
M  V30 3524 H 332.594 0.371866 2.97082 0
M  V30 3525 H 330.14 0.180282 1.42867 0
M  V30 3526 H 332.093 -1.94023 3.74076 0
M  V30 3527 H 330.817 -2.09269 2.50747 0
M  V30 3528 H 329.476 -0.294702 3.65414 0
M  V30 3529 H 329.124 -2.6994 4.2443 0
M  V30 3530 H 328.824 -1.63784 5.64313 0
M  V30 3531 H 330.348 -2.56468 5.54127 0
M  V30 3532 H 331.762 -0.300699 5.72511 0
M  V30 3533 H 330.159 0.446813 5.98434 0
M  V30 3534 H 331.229 1.08905 4.72512 0
M  V30 3535 N 332.573 -1.56217 0.208337 0
M  V30 3536 C 333.801 -2.02337 -0.43215 0
M  V30 3537 C 334.216 -1.08834 -1.54275 0
M  V30 3538 O 333.573 -0.0955462 -1.8225 0
M  V30 3539 C 333.624 -3.48072 -0.976138 0
M  V30 3540 O 333.345 -4.38007 0.0901621 0
M  V30 3541 C 334.846 -4.09773 -1.69119 0
M  V30 3542 H 332.066 -0.662385 -0.10718 0
M  V30 3543 H 334.61 -2.01966 0.320923 0
M  V30 3544 H 332.765 -3.49099 -1.67954 0
M  V30 3545 H 333.179 -5.23543 -0.316701 0
M  V30 3546 H 334.653 -5.13556 -2.02397 0
M  V30 3547 H 335.13 -3.53999 -2.59964 0
M  V30 3548 H 335.736 -4.12556 -1.03332 0
M  V30 3549 N 334.051 0.0651679 -1.57465 0
M  V30 3550 C 334.999 1.09542 -2.05191 0
M  V30 3551 C 335.993 1.39675 -0.958509 0
M  V30 3552 O 337.199 1.39003 -1.14359 0
M  V30 3553 H 333.574 0.370623 -0.654326 0
M  V30 3554 H 335.545 0.666802 -2.90854 0
M  V30 3555 C 334.294 2.39881 -2.51699 0
M  V30 3556 H 333.617 2.17547 -3.3543 0
M  V30 3557 H 335.057 3.104 -2.88839 0
M  V30 3558 C 333.516 3.0631 -1.40271 0
M  V30 3559 O 334.046 3.94664 -0.748523 0
M  V30 3560 N 332.252 2.67041 -1.14618 0
M  V30 3561 H 331.799 1.95281 -1.67997 0
M  V30 3562 H 331.757 3.1181 -0.402688 0
M  V30 3563 N 335.529 1.53961 0.336706 0
M  V30 3564 C 336.476 1.82428 1.41381 0
M  V30 3565 C 337.446 0.670444 1.51968 0
M  V30 3566 O 338.631 0.915565 1.67398 0
M  V30 3567 C 335.771 2.04564 2.77934 0
M  V30 3568 C 334.884 3.32267 2.76084 0
M  V30 3569 C 334.019 3.44434 4.04399 0
M  V30 3570 C 333.058 4.66061 3.96804 0
M  V30 3571 N 332.195 4.75224 5.16823 0
M  V30 3572 H 337.035 2.74324 1.16405 0
M  V30 3573 H 334.572 1.35869 0.563752 0
M  V30 3574 H 336.53 2.15388 3.57301 0
M  V30 3575 H 335.16 1.15974 3.01247 0
M  V30 3576 H 334.212 3.3025 1.88784 0
M  V30 3577 H 335.524 4.21733 2.66351 0
M  V30 3578 H 334.678 3.54728 4.92192 0
M  V30 3579 H 333.417 2.53037 4.16921 0
M  V30 3580 H 332.422 4.55838 3.07396 0
M  V30 3581 H 333.647 5.58829 3.85858 0
M  V30 3582 H 331.593 3.86739 5.29876 0
M  V30 3583 H 331.51 5.58636 5.09374 0
M  V30 3584 H 332.778 4.89835 6.06367 0
M  V30 3585 N 337.007 -0.598083 1.45811 0
M  V30 3586 C 338.255 -1.35413 1.50026 0
M  V30 3587 C 338.576 -1.94444 0.147177 0
M  V30 3588 O 337.846 -1.77701 -0.824571 0
M  V30 3589 H 336.426 -0.502727 0.552517 0
M  V30 3590 H 339.088 -0.701606 1.81834 0
M  V30 3591 H 338.184 -2.16871 2.2444 0
M  V30 3592 N 338.485 -1.33259 -0.841409 0
M  V30 3593 C 339.395 -1.25332 -1.98316 0
M  V30 3594 C 340.411 -0.164364 -1.73222 0
M  V30 3595 O 341.587 -0.387486 -1.97637 0
M  V30 3596 C 338.652 -0.990078 -3.32262 0
M  V30 3597 C 337.713 -2.16879 -3.70489 0
M  V30 3598 C 336.946 -1.91801 -4.98044 0
M  V30 3599 O 337.169 -0.867075 -5.63771 0
M  V30 3600 O 336.103 -2.78267 -5.33714 0
M  V30 3601 H 339.929 -2.21344 -2.07944 0
M  V30 3602 H 337.514 -1.1328 -0.974058 0
M  V30 3603 H 339.396 -0.860321 -4.12524 0
M  V30 3604 H 338.071 -0.0602155 -3.23644 0
M  V30 3605 H 336.978 -2.35407 -2.90748 0
M  V30 3606 H 338.311 -3.0819 -3.8377 0
M  V30 3607 N 339.963 1.05934 -1.16686 0
M  V30 3608 C 341.209 1.79065 -0.95203 0
M  V30 3609 C 341.542 1.87147 0.518629 0
M  V30 3610 O 340.817 1.36574 1.38484 0
M  V30 3611 C 341.1 3.23359 -1.58464 0
M  V30 3612 C 340.953 3.23336 -3.12689 0
M  V30 3613 C 342.272 4.21004 -1.28232 0
M  V30 3614 H 339.391 0.65005 -0.34728 0
M  V30 3615 H 342.033 1.23868 -1.44072 0
M  V30 3616 H 340.183 3.70493 -1.16908 0
M  V30 3617 H 341.855 2.84336 -3.6325 0
M  V30 3618 H 340.098 2.61886 -3.4583 0
M  V30 3619 H 340.769 4.25144 -3.52075 0
M  V30 3620 H 343.245 3.8233 -1.64203 0
M  V30 3621 H 342.121 5.20225 -1.75092 0
M  V30 3622 H 342.382 4.41639 -0.201791 0
M  V30 3623 N 341.441 0.965919 1.2453 0
M  V30 3624 C 342.688 0.626831 1.92554 0
M  V30 3625 C 343.016 -0.837739 1.75534 0
M  V30 3626 O 342.271 -1.61793 1.10098 0
M  V30 3627 C 342.57 0.945428 3.44669 0
M  V30 3628 C 342.236 2.39785 3.81856 0
M  V30 3629 C 340.898 2.79483 3.91718 0
M  V30 3630 C 343.25 3.34055 4.00071 0
M  V30 3631 C 340.578 4.12496 4.1721 0
M  V30 3632 C 342.93 4.66694 4.27059 0
M  V30 3633 C 341.594 5.06172 4.3514 0
M  V30 3634 H 340.864 0.229374 0.704605 0
M  V30 3635 H 343.511 1.21707 1.4785 0
M  V30 3636 H 341.816 0.272926 3.90848 0
M  V30 3637 H 343.513 0.661484 3.95507 0
M  V30 3638 H 340.103 2.08003 3.74743 0
M  V30 3639 H 344.287 3.04571 3.91855 0
M  V30 3640 H 339.543 4.42709 4.21685 0
M  V30 3641 H 343.717 5.3971 4.40097 0
M  V30 3642 H 341.344 6.09262 4.54646 0
M  V30 3643 N 342.919 -1.39368 0.735821 0
M  V30 3644 C 343.867 -2.32443 0.0855131 0
M  V30 3645 C 344.861 -1.53104 -0.724954 0
M  V30 3646 O 346.067 -1.68762 -0.626047 0
M  V30 3647 H 342.442 -0.751948 0.00885257 0
M  V30 3648 H 344.413 -2.84916 0.886883 0
M  V30 3649 C 343.162 -3.38206 -0.806983 0
M  V30 3650 H 342.485 -3.99335 -0.19274 0
M  V30 3651 H 343.925 -4.05779 -1.2296 0
M  V30 3652 C 342.384 -2.75321 -1.94165 0
M  V30 3653 O 342.914 -2.63231 -3.03435 0
M  V30 3654 N 341.12 -2.33396 -1.73132 0
M  V30 3655 H 340.667 -2.4343 -0.842596 0
M  V30 3656 H 340.625 -1.91661 -2.49225 0
M  V30 3657 N 344.397 -0.483516 -1.5 0
M  V30 3658 C 345.307 0.309172 -2.32554 0
M  V30 3659 C 346.323 0.984159 -1.43493 0
M  V30 3660 O 347.499 0.969399 -1.76535 0
M  V30 3661 C 344.564 1.36979 -3.18493 0
M  V30 3662 C 343.625 0.710095 -4.23387 0
M  V30 3663 C 342.858 1.72018 -5.05218 0
M  V30 3664 O 343.081 2.94813 -4.88305 0
M  V30 3665 O 342.015 1.28515 -5.8802 0
M  V30 3666 H 345.841 -0.366064 -3.01486 0
M  V30 3667 H 343.426 -0.24514 -1.47375 0
M  V30 3668 H 345.308 1.98385 -3.71781 0
M  V30 3669 H 343.983 2.02828 -2.52275 0
M  V30 3670 H 342.89 0.0567539 -3.74057 0
M  V30 3671 H 344.223 0.0943557 -4.9211 0
M  V30 3672 N 345.875 1.56104 -0.216619 0
M  V30 3673 C 346.805 2.23063 0.690296 0
M  V30 3674 C 347.786 1.20072 1.20485 0
M  V30 3675 O 348.971 1.48643 1.24976 0
M  V30 3676 C 346.101 2.90672 1.90072 0
M  V30 3677 C 345.055 4.00092 1.5202 0
M  V30 3678 C 344.381 4.54972 2.80899 0
M  V30 3679 C 345.681 5.17398 0.71391 0
M  V30 3680 H 347.375 2.99109 0.132038 0
M  V30 3681 H 344.921 1.43866 0.0620664 0
M  V30 3682 H 346.874 3.36204 2.54057 0
M  V30 3683 H 345.598 2.12066 2.48386 0
M  V30 3684 H 344.257 3.55283 0.903839 0
M  V30 3685 H 343.905 3.73102 3.37348 0
M  V30 3686 H 343.605 5.28817 2.56176 0
M  V30 3687 H 345.129 5.0322 3.45836 0
M  V30 3688 H 346.543 5.59342 1.25735 0
M  V30 3689 H 344.94 5.97444 0.563951 0
M  V30 3690 H 346.01 4.84088 -0.280527 0
M  V30 3691 N 347.353 -0.0568162 1.57498 0
M  V30 3692 C 348.599 -0.75422 1.88253 0
M  V30 3693 C 348.932 -1.76461 0.810865 0
M  V30 3694 O 348.207 -1.93691 -0.177259 0
M  V30 3695 C 348.49 -1.44878 3.2967 0
M  V30 3696 C 348.343 -0.453789 4.47505 0
M  V30 3697 C 349.662 -2.38994 3.69554 0
M  V30 3698 H 346.781 -0.272724 0.684683 0
M  V30 3699 H 349.423 -0.0172113 1.89992 0
M  V30 3700 H 347.573 -2.077 3.28318 0
M  V30 3701 H 349.245 0.170371 4.60985 0
M  V30 3702 H 347.488 0.229552 4.33192 0
M  V30 3703 H 348.159 -0.977699 5.43273 0
M  V30 3704 H 350.635 -1.86239 3.72095 0
M  V30 3705 H 349.511 -2.84587 4.69363 0
M  V30 3706 H 349.772 -3.24461 3.00296 0
M  V30 3707 N 348.832 -1.54138 -0.328536 0
M  V30 3708 C 350.08 -1.71765 -1.06496 0
M  V30 3709 C 350.401 -0.49149 -1.88704 0
M  V30 3710 O 349.671 0.494539 -1.89555 0
M  V30 3711 H 348.251 -0.633295 -0.396164 0
M  V30 3712 H 350.913 -1.91429 -0.366176 0
M  V30 3713 H 350.009 -2.5951 -1.73381 0
M  V30 3714 N 350.31 0.590341 -1.46126 0
M  V30 3715 C 351.257 1.69994 -1.56111 0
M  V30 3716 C 352.227 1.61065 -0.405867 0
M  V30 3717 O 353.412 1.8039 -0.621613 0
M  V30 3718 C 350.552 3.08326 -1.55013 0
M  V30 3719 C 349.665 3.27936 -2.81215 0
M  V30 3720 C 348.8 4.56473 -2.71673 0
M  V30 3721 C 347.839 4.694 -3.92849 0
M  V30 3722 N 346.976 5.89254 -3.81738 0
M  V30 3723 H 351.816 1.60797 -2.50895 0
M  V30 3724 H 349.353 0.783799 -1.24479 0
M  V30 3725 H 351.311 3.88383 -1.52362 0
M  V30 3726 H 349.941 3.16439 -0.637667 0
M  V30 3727 H 348.993 2.41536 -2.93879 0
M  V30 3728 H 350.305 3.33357 -3.71045 0
M  V30 3729 H 349.459 5.44748 -2.67085 0
M  V30 3730 H 348.198 4.53477 -1.7947 0
M  V30 3731 H 347.203 3.79544 -3.97777 0
M  V30 3732 H 348.428 4.7418 -4.86138 0
M  V30 3733 H 346.374 5.87271 -2.92317 0
M  V30 3734 H 346.291 5.95911 -4.65217 0
M  V30 3735 H 347.559 6.79981 -3.81112 0
M  V30 3736 N 351.788 1.33704 0.83433 0
M  V30 3737 C 352.72 1.20172 1.9517 0
M  V30 3738 C 353.733 0.131572 1.62267 0
M  V30 3739 O 354.922 0.382406 1.74356 0
M  V30 3740 C 352.022 0.821716 3.28787 0
M  V30 3741 C 351.195 1.98446 3.89792 0
M  V30 3742 C 350.254 1.58469 5.01771 0
M  V30 3743 O 349.28 2.29968 5.20676 0
M  V30 3744 N 350.482 0.492291 5.78409 0
M  V30 3745 H 353.247 2.16429 2.07313 0
M  V30 3746 H 350.808 1.26509 1.0103 0
M  V30 3747 H 352.8 0.536291 4.01131 0
M  V30 3748 H 351.37 -0.0503058 3.1256 0
M  V30 3749 H 350.59 2.43526 3.09982 0
M  V30 3750 H 351.878 2.76236 4.27283 0
M  V30 3751 H 351.276 -0.102349 5.65607 0
M  V30 3752 H 349.833 0.266555 6.51255 0
M  V30 3753 N 353.266 -1.05314 1.17247 0
M  V30 3754 C 354.682 -1.30452 0.919473 0
M  V30 3755 C 354.882 -1.9703 -0.42209 0
M  V30 3756 O 353.938 -2.24311 -1.15935 0
M  V30 3757 C 355.251 -2.17551 2.07586 0
M  V30 3758 C 356.799 -2.30937 2.11275 0
M  V30 3759 C 357.274 -3.21396 3.26296 0
M  V30 3760 N 358.765 -3.28981 3.26076 0
M  V30 3761 C 359.5 -3.99095 4.11716 0
M  V30 3762 N 358.996 -4.71648 5.07465 0
M  V30 3763 N 360.789 -3.95247 3.9967 0
M  V30 3764 H 352.94 -0.604988 2.03602 0
M  V30 3765 H 355.203 -0.329368 0.888944 0
M  V30 3766 H 354.909 -1.75921 3.0454 0
M  V30 3767 H 354.783 -3.18182 2.02584 0
M  V30 3768 H 357.17 -2.71809 1.14907 0
M  V30 3769 H 357.251 -1.2994 2.20339 0
M  V30 3770 H 356.895 -2.81238 4.22927 0
M  V30 3771 H 356.825 -4.22395 3.14467 0
M  V30 3772 H 359.316 -2.77286 2.5675 0
M  V30 3773 H 359.629 -5.22705 5.6921 0
M  V30 3774 H 357.974 -4.70594 5.11435 0
M  V30 3775 H 361.165 -3.37691 3.24164 0
M  V30 3776 H 361.338 -4.4962 4.66632 0
M  V30 3777 N 354.744 -0.972509 -1.24016 0
M  V30 3778 C 355.993 -0.632603 -1.91523 0
M  V30 3779 C 356.306 0.836641 -1.76804 0
M  V30 3780 O 357.512 1.28728 -2.39043 0
M  V30 3781 C 355.968 -1.08082 -3.43287 0
M  V30 3782 C 355.576 -2.57386 -3.66683 0
M  V30 3783 C 357.32 -0.814288 -4.16617 0
M  V30 3784 C 355.227 -2.95915 -5.12043 0
M  V30 3785 H 354.157 -0.232898 -0.717129 0
M  V30 3786 H 356.808 -1.17936 -1.40582 0
M  V30 3787 H 355.19 -0.462339 -3.93292 0
M  V30 3788 H 356.364 -3.24405 -3.27258 0
M  V30 3789 H 354.679 -2.81701 -3.06649 0
M  V30 3790 H 357.276 -1.0781 -5.23718 0
M  V30 3791 H 357.619 0.24955 -4.15551 0
M  V30 3792 H 358.152 -1.39397 -3.72577 0
M  V30 3793 H 354.891 -4.0139 -5.18234 0
M  V30 3794 H 354.411 -2.33584 -5.52448 0
M  V30 3795 H 356.09 -2.86086 -5.80314 0
M  V30 3796 N 356.222 1.38976 -0.743202 0
M  V30 3797 C 357.447 2.05161 -0.303936 0
M  V30 3798 C 357.872 1.55677 1.05576 0
M  V30 3799 O 357.23 0.704131 1.67068 0
M  V30 3800 C 357.278 3.59138 -0.324373 0
M  V30 3801 O 356.382 4.06668 0.685204 0
M  V30 3802 H 355.723 0.649815 -0.136518 0
M  V30 3803 H 358.253 1.77852 -1.01142 0
M  V30 3804 H 358.263 4.07639 -0.171618 0
M  V30 3805 H 356.938 3.94515 -1.31647 0
M  V30 3806 H 355.515 3.69561 0.497913 0
M  V30 3807 N 357.7 0.491464 1.49741 0
M  V30 3808 C 358.948 -0.0563141 2.02022 0
M  V30 3809 C 359.269 -1.38363 1.37407 0
M  V30 3810 O 358.539 -1.88702 0.526166 0
M  V30 3811 H 357.119 -0.0238014 0.746621 0
M  V30 3812 H 359.781 0.646533 1.83864 0
M  V30 3813 H 358.877 -0.192967 3.11503 0
M  V30 3814 N 359.178 -1.55987 0.224894 0
M  V30 3815 C 360.126 -2.21808 -0.700283 0
M  V30 3816 C 361.12 -1.19854 -1.19714 0
M  V30 3817 O 362.326 -1.37925 -1.15658 0
M  V30 3818 H 358.701 -0.711226 -0.244258 0
M  V30 3819 H 360.672 -2.98152 -0.121749 0
M  V30 3820 C 359.421 -2.91444 -1.8962 0
M  V30 3821 H 358.744 -3.69655 -1.52299 0
M  V30 3822 H 360.184 -3.40894 -2.52125 0
M  V30 3823 C 358.643 -1.94098 -2.75368 0
M  V30 3824 O 359.173 -1.46004 -3.74227 0
M  V30 3825 N 357.379 -1.61675 -2.41474 0
M  V30 3826 H 356.926 -2.00979 -1.61137 0
M  V30 3827 H 356.884 -0.968036 -2.99126 0
M  V30 3828 N 360.656 0.0484629 -1.57525 0
M  V30 3829 C 361.586 1.0549 -2.08313 0
M  V30 3830 C 362.567 1.38929 -0.981463 0
M  V30 3831 O 363.752 1.48151 -1.25558 0
M  V30 3832 C 360.882 2.36162 -2.54646 0
M  V30 3833 C 359.836 2.17016 -3.68901 0
M  V30 3834 C 359.162 3.53278 -4.01371 0
M  V30 3835 C 360.462 1.57219 -4.98076 0
M  V30 3836 H 362.156 0.632195 -2.92649 0
M  V30 3837 H 359.702 0.302654 -1.40784 0
M  V30 3838 H 361.655 3.06882 -2.88793 0
M  V30 3839 H 360.379 2.80456 -1.67368 0
M  V30 3840 H 359.038 1.48733 -3.35073 0
M  V30 3841 H 358.686 3.95185 -3.11188 0
M  V30 3842 H 358.386 3.41299 -4.78318 0
M  V30 3843 H 359.91 4.25391 -4.38035 0
M  V30 3844 H 361.324 2.17832 -5.30304 0
M  V30 3845 H 359.721 1.55871 -5.79503 0
M  V30 3846 H 360.791 0.535956 -4.81929 0
M  V30 3847 N 362.134 1.5431 0.320358 0
M  V30 3848 C 363.411 1.63322 1.07635 0
M  V30 3849 C 363.791 0.46912 2.05821 0
M  V30 3850 O 363.139 -0.536274 2.22118 0
M  V30 3851 C 363.349 3.00465 1.77544 0
M  V30 3852 C 364.697 3.56621 2.30449 0
M  V30 3853 O 365.721 3.02791 1.87606 0
M  V30 3854 O 364.58 4.5083 3.08892 0
M  V30 3855 H 361.674 0.661502 0.496331 0
M  V30 3856 H 364.22 1.66656 0.319992 0
M  V30 3857 H 362.992 3.76629 1.06143 0
M  V30 3858 H 362.615 3.00824 2.59982 0
M  V30 3859 N 363.613 -0.582584 1.46437 0
M  V30 3860 C 364.838 -1.37168 1.55563 0
M  V30 3861 C 365.263 -1.87061 0.19743 0
M  V30 3862 O 364.621 -1.61572 -0.822451 0
M  V30 3863 C 364.669 -2.53511 2.56446 0
M  V30 3864 O 363.773 -3.54953 2.09958 0
M  V30 3865 H 363.114 -0.408494 0.523477 0
M  V30 3866 H 365.644 -0.706646 1.9201 0
M  V30 3867 H 365.654 -3.00426 2.76058 0
M  V30 3868 H 364.329 -2.16549 3.55076 0
M  V30 3869 H 362.906 -3.14516 2.00334 0
M  V30 3870 N 365.091 -1.34144 -0.827227 0
M  V30 3871 C 366.502 -1.23557 -1.39966 0
M  V30 3872 C 366.853 0.140731 -1.95695 0
M  V30 3873 O 365.978 1.04087 -1.89723 0
M  V30 3874 C 366.573 -2.23708 -2.54441 0
M  V30 3875 C 365.132 -2.16924 -3.07605 0
M  V30 3876 C 364.279 -2.10549 -1.80456 0
M  V30 3877 H 367.23 -1.45573 -0.631991 0
M  V30 3878 H 367.251 -1.85157 -3.32411 0
M  V30 3879 H 366.763 -3.23866 -2.13851 0
M  V30 3880 H 364.864 -1.20107 -3.52711 0
M  V30 3881 H 364.977 -3.07988 -3.66988 0
M  V30 3882 H 363.341 -1.56203 -2.01178 0
M  V30 3883 H 364.124 -3.12535 -1.42046 0
M  V30 3884 N 366.569 1.04691 -1.17803 0
M  V30 3885 C 367.479 2.16057 -0.914151 0
M  V30 3886 C 368.495 1.73589 0.119503 0
M  V30 3887 O 369.671 2.01308 -0.0609468 0
M  V30 3888 C 366.736 3.4394 -0.436603 0
M  V30 3889 C 365.797 4.00825 -1.53746 0
M  V30 3890 C 365.03 5.22604 -1.0826 0
M  V30 3891 O 365.253 5.70367 0.0612244 0
M  V30 3892 O 364.187 5.7186 -1.87775 0
M  V30 3893 H 368.013 2.41169 -1.84584 0
M  V30 3894 H 365.598 1.1453 -0.959334 0
M  V30 3895 H 367.48 4.21024 -0.178057 0
M  V30 3896 H 366.155 3.20316 0.466869 0
M  V30 3897 H 365.062 3.25158 -1.84995 0
M  V30 3898 H 366.395 4.28778 -2.41683 0
M  V30 3899 N 368.047 0.979072 1.23499 0
M  V30 3900 C 369.295 0.645941 1.91499 0
M  V30 3901 C 369.616 -0.822948 1.76784 0
M  V30 3902 O 368.886 -1.58854 1.14639 0
M  V30 3903 H 367.466 0.235919 0.708767 0
M  V30 3904 H 370.128 1.2426 1.50152 0
M  V30 3905 H 369.224 0.896411 2.9895 0
M  V30 3906 N 369.525 -1.3858 0.750561 0
M  V30 3907 C 370.773 -1.99789 0.30477 0
M  V30 3908 C 371.094 -1.59874 -1.11649 0
M  V30 3909 O 370.364 -0.85417 -1.76297 0
M  V30 3910 H 368.944 -0.738902 0.109694 0
M  V30 3911 H 371.606 -1.69391 0.963983 0
M  V30 3912 H 370.702 -3.09952 0.365499 0
M  V30 3913 N 371.003 -0.499398 -1.49478 0
M  V30 3914 C 372.25 0.0456899 -2.02448 0
M  V30 3915 C 372.578 1.37142 -1.37921 0
M  V30 3916 O 371.833 1.89111 -0.503544 0
M  V30 3917 C 372.132 0.248424 -3.56536 0
M  V30 3918 C 371.798 -0.999107 -4.39692 0
M  V30 3919 C 370.46 -1.34108 -4.62135 0
M  V30 3920 C 372.812 -1.82842 -4.88076 0
M  V30 3921 C 370.14 -2.51191 -5.30208 0
M  V30 3922 C 372.492 -2.99076 -5.57437 0
M  V30 3923 C 371.156 -3.33655 -5.78127 0
M  V30 3924 H 370.426 0.0167191 -0.740811 0
M  V30 3925 H 373.073 -0.65923 -1.79795 0
M  V30 3926 H 371.378 1.03586 -3.77859 0
M  V30 3927 H 373.075 0.684605 -3.95113 0
M  V30 3928 H 369.665 -0.722729 -4.22463 0
M  V30 3929 H 373.849 -1.57737 -4.70566 0
M  V30 3930 H 369.105 -2.78221 -5.44429 0
M  V30 3931 H 373.279 -3.63664 -5.93904 0
M  V30 3932 H 370.906 -4.24483 -6.30649 0
M  V30 3933 N 372.481 1.55866 -0.233164 0
M  V30 3934 C 373.758 1.90471 0.444988 0
M  V30 3935 C 374.138 1.15209 1.7689 0
M  V30 3936 O 373.486 0.265119 2.26957 0
M  V30 3937 C 373.696 3.4333 0.626559 0
M  V30 3938 C 375.044 4.14319 0.92871 0
M  V30 3939 O 376.068 3.48993 0.712926 0
M  V30 3940 O 374.927 5.29846 1.33887 0
M  V30 3941 H 372.021 0.792347 0.236885 0
M  V30 3942 H 374.567 1.67437 -0.276211 0
M  V30 3943 H 373.339 3.90095 -0.306822 0
M  V30 3944 H 372.962 3.72181 1.39881 0
M  V30 3945 N 373.959 -0.0401083 1.57549 0
M  V30 3946 C 374.922 -1.02871 2.04817 0
M  V30 3947 C 375.922 -1.29708 0.950388 0
M  V30 3948 O 377.112 -1.24897 1.21435 0
M  V30 3949 C 374.244 -2.36443 2.45576 0
M  V30 3950 H 375.437 -0.620631 2.93408 0
M  V30 3951 H 372.99 -0.286667 1.53649 0
M  V30 3952 H 373.725 -2.82021 1.60108 0
M  V30 3953 H 373.51 -2.18296 3.25713 0
M  V30 3954 H 375 -3.07441 2.82612 0
M  V30 3955 N 375.437 -1.54477 -0.31217 0
M  V30 3956 C 376.686 -1.72438 -1.04633 0
M  V30 3957 C 376.999 -0.511163 -1.88803 0
M  V30 3958 O 378.205 -0.572341 -2.65399 0
M  V30 3959 C 376.661 -3.05043 -1.9099 0
M  V30 3960 C 376.269 -4.33806 -1.11877 0
M  V30 3961 C 378.013 -3.32364 -2.64073 0
M  V30 3962 C 375.92 -5.57467 -1.97445 0
M  V30 3963 H 374.85 -0.642647 -0.394361 0
M  V30 3964 H 377.501 -1.80966 -0.303929 0
M  V30 3965 H 375.883 -2.90451 -2.69173 0
M  V30 3966 H 377.057 -4.59199 -0.383843 0
M  V30 3967 H 375.372 -4.13336 -0.504252 0
M  V30 3968 H 377.969 -4.21951 -3.28423 0
M  V30 3969 H 378.312 -2.50745 -3.32314 0
M  V30 3970 H 378.845 -3.47875 -1.92944 0
M  V30 3971 H 375.584 -6.41722 -1.33692 0
M  V30 3972 H 375.104 -5.36277 -2.6864 0
M  V30 3973 H 376.783 -5.94303 -2.5576 0
M  V30 3974 N 376.915 0.57481 -1.46744 0
M  V30 3975 C 377.848 1.69827 -1.52427 0
M  V30 3976 C 378.826 1.58151 -0.377744 0
M  V30 3977 O 380.01 1.79257 -0.58303 0
M  V30 3978 C 377.137 3.07943 -1.41027 0
M  V30 3979 C 376.183 3.38116 -2.59961 0
M  V30 3980 S 377.016 3.29313 -4.22272 0
M  V30 3981 C 378.172 4.69953 -4.13394 0
M  V30 3982 H 378.405 1.64748 -2.47478 0
M  V30 3983 H 375.938 0.754203 -1.34726 0
M  V30 3984 H 377.896 3.87619 -1.35137 0
M  V30 3985 H 376.557 3.10504 -0.473909 0
M  V30 3986 H 375.75 4.38762 -2.47999 0
M  V30 3987 H 375.352 2.66024 -2.62882 0
M  V30 3988 H 377.644 5.60517 -3.80562 0
M  V30 3989 H 378.587 4.86972 -5.14066 0
M  V30 3990 H 378.995 4.47174 -3.44522 0
M  V30 3991 N 378.394 1.34581 0.820102 0
M  V30 3992 C 379.326 1.22236 1.93884 0
M  V30 3993 C 380.339 0.148776 1.62119 0
M  V30 3994 O 381.528 0.400877 1.7394 0
M  V30 3995 C 378.628 0.856542 3.27897 0
M  V30 3996 C 377.801 2.02569 3.87666 0
M  V30 3997 C 376.86 1.63782 5.00062 0
M  V30 3998 O 375.886 2.35477 5.18208 0
M  V30 3999 N 377.088 0.553611 5.77854 0
M  V30 4000 H 379.853 2.18615 2.05006 0
M  V30 4001 H 377.414 1.27573 0.99683 0
M  V30 4002 H 379.406 0.578806 4.0054 0
M  V30 4003 H 377.976 -0.0171518 3.12595 0
M  V30 4004 H 377.196 2.468 3.07382 0
M  V30 4005 H 378.484 2.80752 4.24329 0
M  V30 4006 H 377.882 -0.0423528 5.65684 0
M  V30 4007 H 376.439 0.335614 6.50935 0
M  V30 4008 N 379.872 -1.04064 1.18357 0
M  V30 4009 C 381.118 -1.77528 0.980397 0
M  V30 4010 C 381.451 -1.87948 -0.48879 0
M  V30 4011 O 380.726 -1.3876 -1.36293 0
M  V30 4012 C 381.009 -3.20797 1.63588 0
M  V30 4013 C 380.862 -3.1832 3.17793 0
M  V30 4014 C 382.181 -4.18911 1.34914 0
M  V30 4015 H 379.3 -0.644443 0.357578 0
M  V30 4016 H 381.942 -1.2156 1.46024 0
M  V30 4017 H 380.092 -3.68586 1.22788 0
M  V30 4018 H 381.764 -2.78521 3.67728 0
M  V30 4019 H 380.007 -2.56351 3.49952 0
M  V30 4020 H 380.678 -4.19489 3.58794 0
M  V30 4021 H 383.154 -3.7967 1.70265 0
M  V30 4022 H 382.03 -5.17374 1.83346 0
M  V30 4023 H 382.291 -4.41262 0.272027 0
M  V30 4024 N 381.35 -0.985608 -1.22978 0
M  V30 4025 C 382.313 -0.535071 -2.22867 0
M  V30 4026 C 383.313 0.378123 -1.56291 0
M  V30 4027 O 384.503 0.171092 -1.73358 0
M  V30 4028 C 381.635 0.222702 -3.40172 0
M  V30 4029 H 382.828 -1.41835 -2.6424 0
M  V30 4030 H 380.381 -0.772042 -1.35901 0
M  V30 4031 H 381.116 1.12229 -3.04262 0
M  V30 4032 H 380.901 -0.43288 -3.89703 0
M  V30 4033 H 382.391 0.526335 -4.1427 0
M  V30 4034 N 382.828 1.3818 -0.7579 0
M  V30 4035 C 384.074 2.00316 -0.316453 0
M  V30 4036 C 384.407 1.60026 1.10025 0
M  V30 4037 O 383.682 0.839835 1.75434 0
M  V30 4038 C 383.965 3.57349 -0.444245 0
M  V30 4039 C 383.818 4.07591 -1.90236 0
M  V30 4040 C 385.137 4.3981 0.1598 0
M  V30 4041 H 382.256 0.727741 -0.116459 0
M  V30 4042 H 384.898 1.6406 -0.958352 0
M  V30 4043 H 383.048 3.88365 0.102233 0
M  V30 4044 H 384.72 3.87199 -2.50748 0
M  V30 4045 H 382.963 3.60297 -2.41595 0
M  V30 4046 H 383.634 5.16677 -1.94291 0
M  V30 4047 H 386.11 4.14971 -0.306314 0
M  V30 4048 H 384.986 5.48885 0.0401675 0
M  V30 4049 H 385.247 4.24102 1.24859 0
M  V30 4050 N 384.306 0.507319 1.49211 0
M  V30 4051 C 385.546 -0.0332372 2.04373 0
M  V30 4052 C 385.91 -1.33694 1.37804 0
M  V30 4053 O 387.111 -1.96213 1.83722 0
M  V30 4054 C 385.382 -0.17599 3.56966 0
M  V30 4055 S 386.941 -0.669882 4.33657 0
M  V30 4056 H 383.759 0.00123603 0.710999 0
M  V30 4057 H 386.361 0.682725 1.83191 0
M  V30 4058 H 385.065 0.778053 4.02957 0
M  V30 4059 H 384.596 -0.917005 3.82563 0
M  V30 4060 H 386.611 -1.93806 4.56786 0
M  V30 4061 N 385.784 -1.5574 0.241426 0
M  V30 4062 C 387.032 -1.98417 -0.384075 0
M  V30 4063 C 387.353 -1.13078 -1.58866 0
M  V30 4064 O 386.623 -0.212312 -1.94746 0
M  V30 4065 H 385.203 -0.732813 -0.144894 0
M  V30 4066 H 387.865 -1.9193 0.338943 0
M  V30 4067 H 386.961 -3.04219 -0.696939 0
M  V30 4068 N 387.262 0.0317525 -1.57568 0
M  V30 4069 C 388.487 0.738664 -1.938 0
M  V30 4070 C 388.912 1.68242 -0.841208 0
M  V30 4071 O 388.27 1.80157 0.203267 0
M  V30 4072 C 388.318 1.47417 -3.29091 0
M  V30 4073 O 387.422 2.5872 -3.2115 0
M  V30 4074 H 386.763 0.198856 -0.633524 0
M  V30 4075 H 389.293 -0.0119713 -2.04596 0
M  V30 4076 H 389.303 1.84468 -3.63917 0
M  V30 4077 H 387.978 0.781988 -4.08482 0
M  V30 4078 H 386.555 2.24231 -2.97951 0
M  V30 4079 N 388.74 1.54641 0.303973 0
M  V30 4080 C 389.67 1.88386 1.3796 0
M  V30 4081 C 390.651 0.742485 1.5304 0
M  V30 4082 O 391.836 0.997959 1.66597 0
M  V30 4083 C 388.966 2.12854 2.74427 0
M  V30 4084 C 387.92 3.28702 2.74115 0
M  V30 4085 C 387.246 3.38582 4.13844 0
M  V30 4086 C 388.546 4.65881 2.3612 0
M  V30 4087 H 390.24 2.78474 1.09966 0
M  V30 4088 H 387.786 1.33988 0.527556 0
M  V30 4089 H 389.739 2.35047 3.49758 0
M  V30 4090 H 388.463 1.19535 3.03939 0
M  V30 4091 H 387.122 3.06428 2.0124 0
M  V30 4092 H 386.77 2.42784 4.40528 0
M  V30 4093 H 386.47 4.16453 4.14537 0
M  V30 4094 H 387.994 3.63031 4.90959 0
M  V30 4095 H 389.408 4.87823 3.01167 0
M  V30 4096 H 387.805 5.46444 2.48031 0
M  V30 4097 H 388.875 4.66799 1.3125 0
M  V30 4098 N 390.218 -0.567019 1.47046 0
M  V30 4099 C 391.467 -1.32091 1.5243 0
M  V30 4100 C 391.78 -1.94704 0.187021 0
M  V30 4101 O 392.986 -2.7124 0.118771 0
M  V30 4102 C 391.442 -2.39479 2.68659 0
M  V30 4103 C 391.05 -1.831 4.08874 0
M  V30 4104 C 392.794 -3.16111 2.83327 0
M  V30 4105 C 390.701 -2.8821 5.16419 0
M  V30 4106 H 389.631 -0.496629 0.56734 0
M  V30 4107 H 392.282 -0.603354 1.73297 0
M  V30 4108 H 390.664 -3.14105 2.41152 0
M  V30 4109 H 391.838 -1.14913 4.46242 0
M  V30 4110 H 390.153 -1.19085 3.99008 0
M  V30 4111 H 392.75 -3.94585 3.60842 0
M  V30 4112 H 393.093 -3.69686 1.91411 0
M  V30 4113 H 393.626 -2.48595 3.10556 0
M  V30 4114 H 390.365 -2.39504 6.10179 0
M  V30 4115 H 389.885 -3.54839 4.8358 0
M  V30 4116 H 391.564 -3.51881 5.42945 0
M  V30 4117 N 391.696 -1.35014 -0.812953 0
M  V30 4118 C 392.944 -1.27678 -1.56661 0
M  V30 4119 C 393.265 0.150359 -1.94419 0
M  V30 4120 O 392.535 1.08532 -1.63088 0
M  V30 4121 H 391.115 -0.469602 -0.580933 0
M  V30 4122 H 393.777 -1.69043 -0.970076 0
M  V30 4123 H 392.873 -1.88833 -2.48492 0
M  V30 4124 N 393.175 1.03435 -1.18907 0
M  V30 4125 C 394.421 1.7713 -0.99982 0
M  V30 4126 C 394.776 1.86695 0.465049 0
M  V30 4127 O 394.069 1.36866 1.34083 0
M  V30 4128 C 394.263 3.19792 -1.59586 0
M  V30 4129 C 394.092 3.24134 -3.11717 0
M  V30 4130 C 392.862 3.32398 -3.80578 0
M  V30 4131 C 395.06 3.11625 -4.09138 0
M  V30 4132 N 393.042 3.26055 -5.20155 0
M  V30 4133 C 394.413 3.12855 -5.35277 0
M  V30 4134 C 396.468 2.95713 -4.00572 0
M  V30 4135 C 395.171 2.99805 -6.53842 0
M  V30 4136 C 397.197 2.84011 -5.1874 0
M  V30 4137 C 396.559 2.8589 -6.43775 0
M  V30 4138 H 392.658 0.659683 -0.419931 0
M  V30 4139 H 395.242 1.2317 -1.50789 0
M  V30 4140 H 393.413 3.72085 -1.11389 0
M  V30 4141 H 395.145 3.81819 -1.3415 0
M  V30 4142 H 391.9 3.38392 -3.31342 0
M  V30 4143 H 392.324 3.26307 -5.93172 0
M  V30 4144 H 396.966 2.93086 -3.0473 0
M  V30 4145 H 394.684 3.01184 -7.49876 0
M  V30 4146 H 398.27 2.72744 -5.13909 0
M  V30 4147 H 397.15 2.76931 -7.33675 0
M  V30 4148 N 394.653 0.992116 1.22453 0
M  V30 4149 C 396.069 0.702713 1.43297 0
M  V30 4150 C 396.269 -0.726909 1.87932 0
M  V30 4151 O 395.325 -1.49792 2.0327 0
M  V30 4152 C 396.638 1.70762 2.47509 0
M  V30 4153 C 398.186 1.72298 2.61309 0
M  V30 4154 C 398.661 2.71649 3.68742 0
M  V30 4155 N 400.152 2.70239 3.76199 0
M  V30 4156 C 400.887 3.43778 4.58917 0
M  V30 4157 N 400.383 4.26914 5.45633 0
M  V30 4158 N 402.176 3.32487 4.5322 0
M  V30 4159 H 394.327 1.91543 0.917871 0
M  V30 4160 H 396.59 0.826031 0.465162 0
M  V30 4161 H 396.296 2.73059 2.21657 0
M  V30 4162 H 396.17 1.49985 3.46099 0
M  V30 4163 H 398.557 0.706989 2.86506 0
M  V30 4164 H 398.638 1.97143 1.62997 0
M  V30 4165 H 398.282 3.73397 3.44292 0
M  V30 4166 H 398.212 2.44074 4.66622 0
M  V30 4167 H 400.703 2.09912 3.14237 0
M  V30 4168 H 401.016 4.79855 6.05771 0
M  V30 4169 H 399.361 4.31002 5.45218 0
M  V30 4170 H 402.552 2.6698 3.84499 0
M  V30 4171 H 402.725 3.90058 5.17454 0
M  V30 4172 N 396.131 -1.37776 0.765217 0
M  V30 4173 C 397.079 -2.32209 0.134798 0
M  V30 4174 C 398.073 -1.54607 -0.692315 0
M  V30 4175 O 399.279 -1.70052 -0.590109 0
M  V30 4176 H 395.654 -0.751591 0.0248005 0
M  V30 4177 H 397.625 -2.8297 0.947119 0
M  V30 4178 C 396.374 -3.39841 -0.735063 0
M  V30 4179 H 395.697 -3.99654 -0.107991 0
M  V30 4180 H 397.137 -4.08296 -1.14326 0
M  V30 4181 C 395.596 -2.79378 -1.88281 0
M  V30 4182 O 396.126 -2.69608 -2.97783 0
M  V30 4183 N 394.332 -2.37016 -1.68142 0
M  V30 4184 H 393.879 -2.45162 -0.790772 0
M  V30 4185 H 393.837 -1.96905 -2.45104 0
M  V30 4186 N 397.609 -0.515225 -1.4894 0
M  V30 4187 C 398.855 0.0242508 -2.02785 0
M  V30 4188 C 399.188 1.35323 -1.39289 0
M  V30 4189 O 398.463 1.87041 -0.533469 0
M  V30 4190 C 398.746 0.16184 -3.59736 0
M  V30 4191 C 398.599 -1.19127 -4.33738 0
M  V30 4192 C 399.918 0.895719 -4.30888 0
M  V30 4193 H 397.037 0.00733914 -0.736963 0
M  V30 4194 H 399.679 -0.669395 -1.77818 0
M  V30 4195 H 397.829 0.752624 -3.8114 0
M  V30 4196 H 399.501 -1.82202 -4.23792 0
M  V30 4197 H 397.744 -1.77695 -3.95736 0
M  V30 4198 H 398.415 -1.04815 -5.41957 0
M  V30 4199 H 400.891 0.394528 -4.14225 0
M  V30 4200 H 399.767 0.960859 -5.40425 0
M  V30 4201 H 400.028 1.9427 -3.97129 0
M  V30 4202 N 399.087 1.5561 -0.249682 0
M  V30 4203 C 400.315 2.03411 0.378352 0
M  V30 4204 C 400.73 1.12886 1.51335 0
M  V30 4205 O 400.087 0.143833 1.81932 0
M  V30 4206 C 400.138 3.50537 0.88351 0
M  V30 4207 O 399.859 4.37614 -0.20626 0
M  V30 4208 C 401.36 4.14113 1.58195 0
M  V30 4209 H 398.58 0.664994 0.08958 0
M  V30 4210 H 401.124 2.01044 -0.374357 0
M  V30 4211 H 399.279 3.5343 1.58639 0
M  V30 4212 H 399.693 5.24199 0.177782 0
M  V30 4213 H 401.167 5.18741 1.8871 0
M  V30 4214 H 401.644 3.60767 2.50487 0
M  V30 4215 H 402.25 4.15151 0.923573 0
M  V30 4216 N 400.565 -0.0233959 1.57583 0
M  V30 4217 C 401.981 -0.379134 1.55031 0
M  V30 4218 C 402.181 -1.76255 0.976548 0
M  V30 4219 O 401.237 -2.45266 0.600078 0
M  V30 4220 C 402.55 -0.275792 2.99433 0
M  V30 4221 C 404.098 -0.352458 3.11009 0
M  V30 4222 C 404.573 -0.278501 4.57152 0
M  V30 4223 N 406.064 -0.337123 4.61972 0
M  V30 4224 C 406.799 -0.302876 5.726 0
M  V30 4225 N 406.295 -0.220589 6.92449 0
M  V30 4226 N 408.088 -0.353023 5.6099 0
M  V30 4227 H 400.239 0.881869 1.93227 0
M  V30 4228 H 402.502 0.335867 0.886509 0
M  V30 4229 H 402.208 0.675108 3.4516 0
M  V30 4230 H 402.082 -1.06721 3.61788 0
M  V30 4231 H 404.469 -1.29379 2.65226 0
M  V30 4232 H 404.55 0.468409 2.51475 0
M  V30 4233 H 404.194 0.659189 5.03604 0
M  V30 4234 H 404.124 -1.11755 5.14605 0
M  V30 4235 H 406.615 -0.403002 3.75745 0
M  V30 4236 H 406.928 -0.199713 7.72542 0
M  V30 4237 H 405.273 -0.186555 6.9475 0
M  V30 4238 H 408.464 -0.415339 4.66254 0
M  V30 4239 H 408.637 -0.322866 6.47195 0
M  V30 4240 N 402.043 -1.548 -0.295768 0
M  V30 4241 C 402.973 -1.89115 -1.36959 0
M  V30 4242 C 403.954 -0.75059 -1.52644 0
M  V30 4243 O 405.139 -1.00678 -1.66065 0
M  V30 4244 C 402.269 -2.14307 -2.73295 0
M  V30 4245 C 401.223 -3.30151 -2.72368 0
M  V30 4246 C 400.549 -3.40772 -4.12042 0
M  V30 4247 C 401.849 -4.67126 -2.33646 0
M  V30 4248 H 403.543 -2.79053 -1.08488 0
M  V30 4249 H 401.089 -1.34266 -0.520443 0
M  V30 4250 H 403.042 -2.36898 -3.48507 0
M  V30 4251 H 401.766 -1.21145 -3.03301 0
M  V30 4252 H 400.425 -3.0749 -1.99613 0
M  V30 4253 H 400.073 -2.45117 -4.39234 0
M  V30 4254 H 399.773 -4.18645 -4.12322 0
M  V30 4255 H 401.297 -3.6563 -4.89027 0
M  V30 4256 H 402.711 -4.89414 -2.98575 0
M  V30 4257 H 401.108 -5.47751 -2.45129 0
M  V30 4258 H 402.178 -4.67489 -1.28772 0
M  V30 4259 N 403.521 0.559213 -1.47345 0
M  V30 4260 C 404.451 1.67622 -1.62558 0
M  V30 4261 C 405.432 1.63331 -0.475087 0
M  V30 4262 O 406.617 1.80983 -0.704182 0
M  V30 4263 C 403.747 3.0626 -1.63774 0
M  V30 4264 C 402.701 3.25397 -2.7803 0
M  V30 4265 C 402.027 4.64801 -2.64318 0
M  V30 4266 C 403.327 3.10965 -4.19641 0
M  V30 4267 H 405.021 1.55146 -2.56067 0
M  V30 4268 H 402.567 0.744961 -1.23233 0
M  V30 4269 H 404.52 3.84247 -1.73008 0
M  V30 4270 H 403.244 3.1969 -0.66825 0
M  V30 4271 H 401.903 2.49817 -2.68304 0
M  V30 4272 H 401.551 4.75028 -1.65401 0
M  V30 4273 H 401.251 4.78555 -3.40968 0
M  V30 4274 H 402.775 5.44926 -2.75478 0
M  V30 4275 H 404.189 3.78772 -4.30354 0
M  V30 4276 H 402.586 3.36229 -4.97062 0
M  V30 4277 H 403.656 2.07736 -4.38148 0
M  V30 4278 N 404.999 1.35443 0.805782 0
M  V30 4279 C 406.245 1.28952 1.56522 0
M  V30 4280 C 406.578 -0.135597 1.93726 0
M  V30 4281 O 405.853 -1.08516 1.61414 0
M  V30 4282 C 406.136 2.19678 2.85331 0
M  V30 4283 C 405.989 3.7081 2.54598 0
M  V30 4284 C 407.308 2.09495 3.8704 0
M  V30 4285 H 404.427 0.469764 0.567883 0
M  V30 4286 H 407.069 1.65851 0.927001 0
M  V30 4287 H 405.219 1.8834 3.39795 0
M  V30 4288 H 406.891 4.12593 2.06312 0
M  V30 4289 H 405.134 3.91051 1.8778 0
M  V30 4290 H 405.805 4.29679 3.46525 0
M  V30 4291 H 408.281 2.37045 3.41978 0
M  V30 4292 H 407.157 2.75173 4.74943 0
M  V30 4293 H 407.418 1.07714 4.28777 0
M  V30 4294 N 406.477 -1.02803 1.19454 0
M  V30 4295 C 407.724 -1.76217 0.997693 0
M  V30 4296 C 408.052 -1.887 -0.47144 0
M  V30 4297 O 407.307 -1.4011 -1.3663 0
M  V30 4298 C 407.606 -3.18941 1.6128 0
M  V30 4299 C 407.272 -3.26463 3.11019 0
M  V30 4300 C 405.934 -3.28223 3.51885 0
M  V30 4301 C 408.286 -3.25542 4.07028 0
M  V30 4302 C 405.614 -3.26719 4.8731 0
M  V30 4303 C 407.966 -3.25579 5.42385 0
M  V30 4304 C 406.63 -3.25637 5.82681 0
M  V30 4305 H 405.9 -0.644823 0.365082 0
M  V30 4306 H 408.547 -1.20655 1.4871 0
M  V30 4307 H 406.852 -3.77587 1.04572 0
M  V30 4308 H 408.549 -3.74415 1.43577 0
M  V30 4309 H 405.139 -3.25822 2.78457 0
M  V30 4310 H 409.323 -3.23362 3.76498 0
M  V30 4311 H 404.579 -3.25089 5.1781 0
M  V30 4312 H 408.753 -3.23817 6.16535 0
M  V30 4313 H 406.38 -3.24226 6.87591 0
M  V30 4314 N 407.956 -0.998596 -1.21925 0
M  V30 4315 C 409.181 -0.696015 -1.95372 0
M  V30 4316 C 409.606 0.733826 -1.73195 0
M  V30 4317 O 408.964 1.50242 -1.01474 0
M  V30 4318 C 409.012 -1.01466 -3.4603 0
M  V30 4319 O 408.116 -0.116415 -4.12236 0
M  V30 4320 H 407.457 -0.259938 -0.611006 0
M  V30 4321 H 409.987 -1.33711 -1.54863 0
M  V30 4322 H 409.997 -0.958855 -3.96573 0
M  V30 4323 H 408.672 -2.05653 -3.61497 0
M  V30 4324 H 407.249 -0.228193 -3.72201 0
M  V30 4325 N 409.434 1.37368 -0.772513 0
M  V30 4326 C 410.662 2.03942 -0.348588 0
M  V30 4327 C 411.077 1.58264 1.02947 0
M  V30 4328 O 410.434 0.764246 1.65727 0
M  V30 4329 C 410.485 3.5946 -0.38351 0
M  V30 4330 O 410.206 4.03468 -1.70721 0
M  V30 4331 C 411.707 4.4327 0.0519152 0
M  V30 4332 H 408.927 0.654931 -0.145966 0
M  V30 4333 H 411.471 1.75686 -1.04665 0
M  V30 4334 H 409.626 3.86486 0.265978 0
M  V30 4335 H 410.04 4.97991 -1.64636 0
M  V30 4336 H 411.514 5.51995 -0.0236733 0
M  V30 4337 H 411.991 4.2514 1.10238 0
M  V30 4338 H 412.597 4.21471 -0.569415 0
M  V30 4339 N 410.912 0.523116 1.48665 0
M  V30 4340 C 412.189 -0.0775449 1.95446 0
M  V30 4341 C 412.569 -1.5197 1.4652 0
M  V30 4342 O 411.917 -2.17876 0.688657 0
M  V30 4343 C 412.127 0.0326135 3.48985 0
M  V30 4344 C 413.475 -0.130141 4.24401 0
M  V30 4345 O 414.499 -0.0415142 3.56176 0
M  V30 4346 O 413.358 -0.31491 5.45592 0
M  V30 4347 H 410.452 -0.0831012 0.822814 0
M  V30 4348 H 412.998 0.587227 1.59216 0
M  V30 4349 H 411.77 1.03748 3.77296 0
M  V30 4350 H 411.393 -0.671317 3.91892 0
M  V30 4351 N 412.39 -1.55475 0.257931 0
M  V30 4352 C 413.353 -2.20551 -0.623706 0
M  V30 4353 C 414.353 -1.17809 -1.09443 0
M  V30 4354 O 415.543 -1.42823 -0.997362 0
M  V30 4355 C 412.675 -2.85784 -1.8585 0
M  V30 4356 H 413.868 -2.99848 -0.0557743 0
M  V30 4357 H 411.421 -1.56298 0.0084422 0
M  V30 4358 H 412.156 -2.10453 -2.46739 0
M  V30 4359 H 411.941 -3.61057 -1.52907 0
M  V30 4360 H 413.431 -3.35553 -2.48584 0
M  V30 4361 N 413.868 0.0150385 -1.57593 0
M  V30 4362 C 415.116 0.701613 -1.8953 0
M  V30 4363 C 415.437 1.75139 -0.857396 0
M  V30 4364 O 414.707 1.95607 0.107194 0
M  V30 4365 H 413.287 0.26213 -0.699498 0
M  V30 4366 H 415.949 -0.0223304 -1.94887 0
M  V30 4367 H 415.045 1.18236 -2.88837 0
M  V30 4368 N 415.346 1.54954 0.287554 0
M  V30 4369 C 416.593 1.74873 1.02106 0
M  V30 4370 C 416.921 0.541829 1.86801 0
M  V30 4371 O 416.176 -0.475992 1.89823 0
M  V30 4372 C 416.475 2.99833 1.94512 0
M  V30 4373 C 416.141 4.33029 1.25686 0
M  V30 4374 C 414.803 4.69233 1.06649 0
M  V30 4375 C 417.155 5.15542 0.765913 0
M  V30 4376 C 414.483 5.85518 0.372222 0
M  V30 4377 C 416.835 6.32542 0.0853101 0
M  V30 4378 C 415.499 6.67398 -0.1169 0
M  V30 4379 H 414.769 0.639906 0.373632 0
M  V30 4380 H 417.416 1.89219 0.294665 0
M  V30 4381 H 415.721 2.80325 2.73725 0
M  V30 4382 H 417.418 3.1244 2.51361 0
M  V30 4383 H 414.008 4.04564 1.41512 0
M  V30 4384 H 418.192 4.88059 0.90066 0
M  V30 4385 H 413.448 6.11057 0.204695 0
M  V30 4386 H 417.622 6.95741 -0.302936 0
M  V30 4387 H 415.249 7.57357 -0.656859 0
M  V30 4388 N 416.824 -0.551391 1.4764 0
M  V30 4389 C 417.774 -1.65362 1.56969 0
M  V30 4390 C 418.758 -1.55098 0.428189 0
M  V30 4391 O 419.95 -1.63481 0.678441 0
M  V30 4392 C 417.079 -3.04129 1.59249 0
M  V30 4393 C 416.165 -3.19576 2.78804 0
M  V30 4394 N 416.556 -3.05067 4.03445 0
M  V30 4395 C 414.854 -3.50588 2.75688 0
M  V30 4396 C 415.555 -3.2336 4.83543 0
M  V30 4397 N 414.531 -3.4996 4.15968 0
M  V30 4398 H 418.333 -1.52722 2.51104 0
M  V30 4399 H 415.847 -0.756303 1.43714 0
M  V30 4400 H 417.844 -3.83278 1.64024 0
M  V30 4401 H 416.504 -3.17877 0.662148 0
M  V30 4402 H 417.515 -2.82273 4.34215 0
M  V30 4403 H 414.192 -3.70827 1.91817 0
M  V30 4404 H 415.582 -3.17061 5.92387 0
M  V30 4405 N 418.302 -1.35869 -0.798587 0
M  V30 4406 C 419.549 -1.29588 -1.55606 0
M  V30 4407 C 419.877 0.127456 -1.94082 0
M  V30 4408 O 419.132 1.09461 -1.62225 0
M  V30 4409 C 419.431 -2.1556 -2.85077 0
M  V30 4410 C 419.097 -3.6424 -2.65781 0
M  V30 4411 C 417.759 -4.04766 -2.60227 0
M  V30 4412 C 420.111 -4.58547 -2.47758 0
M  V30 4413 C 417.439 -5.37753 -2.34603 0
M  V30 4414 C 419.791 -5.91742 -2.23662 0
M  V30 4415 C 418.455 -6.31402 -2.16534 0
M  V30 4416 H 417.725 -0.474197 -0.569402 0
M  V30 4417 H 420.372 -1.67839 -0.922086 0
M  V30 4418 H 418.677 -1.70216 -3.52893 0
M  V30 4419 H 420.374 -2.08031 -3.42818 0
M  V30 4420 H 416.964 -3.32086 -2.70956 0
M  V30 4421 H 421.148 -4.28117 -2.51056 0
M  V30 4422 H 416.404 -5.67474 -2.2756 0
M  V30 4423 H 420.578 -6.6439 -2.08708 0
M  V30 4424 H 418.205 -7.34381 -1.96441 0
M  V30 4425 N 419.78 1.02168 -1.19998 0
M  V30 4426 C 420.743 2.08765 -0.94604 0
M  V30 4427 C 421.743 1.60618 0.0763846 0
M  V30 4428 O 422.933 1.73472 -0.159135 0
M  V30 4429 C 420.065 3.38262 -0.423255 0
M  V30 4430 H 421.258 2.32726 -1.89153 0
M  V30 4431 H 418.811 1.1889 -1.01464 0
M  V30 4432 H 419.546 3.19974 0.527938 0
M  V30 4433 H 419.331 3.74532 -1.16053 0
M  V30 4434 H 420.821 4.16759 -0.264911 0
M  V30 4435 N 421.258 1.00505 1.21394 0
M  V30 4436 C 422.506 0.686415 1.90086 0
M  V30 4437 C 422.827 -0.785264 1.7849 0
M  V30 4438 O 422.097 -1.56387 1.17983 0
M  V30 4439 H 420.677 0.2509 0.703604 0
M  V30 4440 H 423.339 1.27417 1.47482 0
M  V30 4441 H 422.435 0.959621 2.96981 0
M  V30 4442 N 422.737 -1.36956 0.779787 0
M  V30 4443 C 424.014 -1.93697 0.272156 0
M  V30 4444 C 424.394 -1.71267 -1.23413 0
M  V30 4445 O 423.742 -1.06607 -2.02107 0
M  V30 4446 C 423.952 -3.42812 0.654291 0
M  V30 4447 C 425.3 -4.19921 0.628602 0
M  V30 4448 O 426.324 -3.51209 0.594172 0
M  V30 4449 O 425.183 -5.42465 0.662864 0
M  V30 4450 H 422.277 -0.824447 0.0649286 0
M  V30 4451 H 424.823 -1.46196 0.861682 0
M  V30 4452 H 423.595 -3.52754 1.69353 0
M  V30 4453 H 423.218 -3.97582 0.0381369 0
M  V30 4454 N 424.215 -0.530993 -1.48385 0
M  V30 4455 C 425.463 0.00273189 -2.021 0
M  V30 4456 C 425.784 1.34672 -1.41027 0
M  V30 4457 O 425.054 1.8724 -0.576012 0
M  V30 4458 H 423.634 0.00399774 -0.746989 0
M  V30 4459 H 426.296 -0.695054 -1.82085 0
M  V30 4460 H 425.392 0.11031 -3.11905 0
M  V30 4461 N 425.693 1.55336 -0.266172 0
M  V30 4462 C 426.64 2.22172 0.625165 0
M  V30 4463 C 427.61 1.19211 1.15663 0
M  V30 4464 O 428.795 1.47723 1.20758 0
M  V30 4465 C 425.935 2.93972 1.8076 0
M  V30 4466 C 425.048 4.11632 1.31084 0
M  V30 4467 C 424.183 4.71099 2.45436 0
M  V30 4468 C 423.222 5.8097 1.92718 0
M  V30 4469 N 422.359 6.34538 3.00509 0
M  V30 4470 H 427.199 2.9796 0.0485582 0
M  V30 4471 H 424.736 1.47095 0.0122024 0
M  V30 4472 H 426.694 3.33811 2.50251 0
M  V30 4473 H 425.324 2.20623 2.35638 0
M  V30 4474 H 424.376 3.76975 0.509326 0
M  V30 4475 H 425.688 4.90893 0.884633 0
M  V30 4476 H 424.842 5.13612 3.22936 0
M  V30 4477 H 423.581 3.91096 2.91368 0
M  V30 4478 H 422.586 5.37916 1.13695 0
M  V30 4479 H 423.811 6.62836 1.47733 0
M  V30 4480 H 421.757 5.57433 3.45839 0
M  V30 4481 H 421.674 7.09046 2.62279 0
M  V30 4482 H 422.942 6.81709 3.78011 0
M  V30 4483 N 427.171 -0.0066808 1.57599 0
M  V30 4484 C 428.101 -0.999296 2.11036 0
M  V30 4485 C 429.082 -1.36278 1.01795 0
M  V30 4486 O 430.267 -1.4477 1.29442 0
M  V30 4487 C 427.397 -2.29328 2.60818 0
M  V30 4488 C 426.351 -2.07159 3.74525 0
M  V30 4489 C 425.677 -3.42512 4.10596 0
M  V30 4490 C 426.977 -1.43959 5.02069 0
M  V30 4491 H 428.671 -0.554382 2.94223 0
M  V30 4492 H 426.217 -0.265221 1.41536 0
M  V30 4493 H 428.17 -2.99117 2.96828 0
M  V30 4494 H 426.894 -2.7592 1.74745 0
M  V30 4495 H 425.553 -1.39797 3.38899 0
M  V30 4496 H 425.201 -3.86795 3.21556 0
M  V30 4497 H 424.901 -3.28498 4.87199 0
M  V30 4498 H 426.425 -4.13628 4.4916 0
M  V30 4499 H 427.839 -2.03696 5.35893 0
M  V30 4500 H 426.236 -1.40452 5.83432 0
M  V30 4501 H 427.306 -0.407992 4.83181 0
M  V30 4502 N 428.649 -1.55105 -0.279332 0
M  V30 4503 C 429.897 -1.75066 -1.00977 0
M  V30 4504 C 430.218 -0.551276 -1.87045 0
M  V30 4505 O 429.488 0.433984 -1.91032 0
M  V30 4506 H 428.068 -0.645578 -0.375816 0
M  V30 4507 H 430.73 -1.92497 -0.305089 0
M  V30 4508 H 429.826 -2.64894 -1.65038 0
M  V30 4509 N 430.127 0.543554 -1.4793 0
M  V30 4510 C 431.375 1.29752 -1.54948 0
M  V30 4511 C 431.696 1.93764 -0.219242 0
M  V30 4512 O 430.966 1.80639 0.75805 0
M  V30 4513 H 429.546 0.481874 -0.570795 0
M  V30 4514 H 432.208 0.633636 -1.84312 0
M  V30 4515 H 431.304 2.08392 -2.32334 0
M  V30 4516 N 431.605 1.3629 0.791371 0
M  V30 4517 C 432.854 1.29742 1.54434 0
M  V30 4518 C 433.167 -0.121729 1.95221 0
M  V30 4519 O 434.373 -0.309579 2.69729 0
M  V30 4520 C 432.829 2.27623 2.78776 0
M  V30 4521 C 432.437 3.74963 2.45166 0
M  V30 4522 C 434.181 2.30047 3.56761 0
M  V30 4523 C 432.088 4.64626 3.65891 0
M  V30 4524 H 431.018 0.482113 0.579727 0
M  V30 4525 H 433.669 1.61642 0.868565 0
M  V30 4526 H 432.051 1.88714 3.48142 0
M  V30 4527 H 433.225 4.22596 1.83709 0
M  V30 4528 H 431.54 3.75295 1.80396 0
M  V30 4529 H 434.137 2.94247 4.46456 0
M  V30 4530 H 434.48 1.30846 3.95203 0
M  V30 4531 H 435.013 2.67563 2.94372 0
M  V30 4532 H 431.752 5.64883 3.32547 0
M  V30 4533 H 431.272 4.2171 4.26521 0
M  V30 4534 H 432.951 4.80801 4.32943 0
M  V30 4535 N 433.083 -1.0153 1.20538 0
M  V30 4536 C 434.329 -1.75408 1.01783 0
M  V30 4537 C 434.662 -1.88943 -0.448814 0
M  V30 4538 O 433.937 -1.4162 -1.33319 0
M  V30 4539 C 434.22 -3.17255 1.70356 0
M  V30 4540 C 434.073 -3.11508 3.24473 0
M  V30 4541 C 435.392 -4.15955 1.43769 0
M  V30 4542 H 432.511 -0.636713 0.371167 0
M  V30 4543 H 435.153 -1.18436 1.4857 0
M  V30 4544 H 433.303 -3.65898 1.30578 0
M  V30 4545 H 434.975 -2.70658 3.73553 0
M  V30 4546 H 433.218 -2.4887 3.55311 0
M  V30 4547 H 433.889 -4.11784 3.67611 0
M  V30 4548 H 436.365 -3.75973 1.7828 0
M  V30 4549 H 435.241 -5.13368 1.94279 0
M  V30 4550 H 435.502 -4.40586 0.365564 0
M  V30 4551 N 434.561 -1.01147 -1.20859 0
M  V30 4552 C 435.491 -0.597663 -2.25722 0
M  V30 4553 C 436.472 0.384744 -1.65692 0
M  V30 4554 O 437.657 0.271303 -1.92296 0
M  V30 4555 C 434.787 0.0700149 -3.47229 0
M  V30 4556 C 433.741 -0.832843 -4.19819 0
M  V30 4557 C 433.067 -0.0312202 -5.34691 0
M  V30 4558 C 434.367 -2.1385 -4.76514 0
M  V30 4559 H 436.061 -1.47423 -2.60589 0
M  V30 4560 H 433.607 -0.710301 -1.25263 0
M  V30 4561 H 435.56 0.37103 -4.19763 0
M  V30 4562 H 434.284 0.981259 -3.11511 0
M  V30 4563 H 432.943 -1.11778 -3.49144 0
M  V30 4564 H 432.591 0.881515 -4.95215 0
M  V30 4565 H 432.291 -0.632434 -5.84187 0
M  V30 4566 H 433.815 0.26346 -6.10031 0
M  V30 4567 H 435.229 -1.9002 -5.40893 0
M  V30 4568 H 433.626 -2.69012 -5.36426 0
M  V30 4569 H 434.696 -2.80495 -3.95538 0
M  V30 4570 N 436.039 1.36541 -0.78704 0
M  V30 4571 C 437.45 1.81873 -0.421807 0
M  V30 4572 C 437.801 1.65487 1.05397 0
M  V30 4573 O 436.926 1.17448 1.81755 0
M  V30 4574 C 437.521 3.30192 -0.758841 0
M  V30 4575 C 436.08 3.73743 -0.446468 0
M  V30 4576 C 435.227 2.58844 -0.994728 0
M  V30 4577 H 438.178 1.24796 -0.98039 0
M  V30 4578 H 438.199 3.80468 -0.0490648 0
M  V30 4579 H 437.711 3.42087 -1.83299 0
M  V30 4580 H 435.812 3.6741 0.619739 0
M  V30 4581 H 435.925 4.69272 -0.965415 0
M  V30 4582 H 434.289 2.51245 -0.418087 0
M  V30 4583 H 435.072 2.73525 -2.07458 0
M  V30 4584 N 437.518 0.538854 1.48102 0
M  V30 4585 C 438.466 -0.232325 2.31437 0
M  V30 4586 C 439.46 -0.927004 1.41785 0
M  V30 4587 O 440.666 -0.850378 1.58646 0
M  V30 4588 H 437.041 -0.0937916 0.746128 0
M  V30 4589 H 439.012 0.489986 2.9435 0
M  V30 4590 C 437.761 -1.26074 3.24038 0
M  V30 4591 H 437.084 -0.735609 3.92974 0
M  V30 4592 H 438.524 -1.77157 3.85216 0
M  V30 4593 C 436.983 -2.29902 2.46265 0
M  V30 4594 O 437.513 -3.36502 2.19384 0
M  V30 4595 N 435.719 -2.03348 2.07601 0
M  V30 4596 H 435.266 -1.16675 2.29662 0
M  V30 4597 H 435.224 -2.73038 1.55877 0
M  V30 4598 N 438.996 -1.55193 0.274407 0
M  V30 4599 C 440.273 -1.91584 -0.394331 0
M  V30 4600 C 440.653 -1.19858 -1.73774 0
M  V30 4601 O 440.001 -0.3252 -2.26174 0
M  V30 4602 C 440.211 -3.4487 -0.535311 0
M  V30 4603 C 441.559 -4.16636 -0.818534 0
M  V30 4604 O 442.583 -3.5076 -0.620146 0
M  V30 4605 O 441.442 -5.33209 -1.19792 0
M  V30 4606 H 438.536 -0.798349 -0.215794 0
M  V30 4607 H 441.082 -1.66646 0.320507 0
M  V30 4608 H 439.854 -3.89145 0.410141 0
M  V30 4609 H 439.477 -3.75759 -1.29964 0
M  V30 4610 N 440.474 -0.00167713 -1.576 0
M  V30 4611 C 441.722 0.681471 -1.90264 0
M  V30 4612 C 442.043 1.7422 -0.875924 0
M  V30 4613 O 441.313 1.95709 0.0864412 0
M  V30 4614 H 439.893 0.254696 -0.702239 0
M  V30 4615 H 442.555 -0.0429996 -1.94853 0
M  V30 4616 H 441.651 1.15166 -2.90075 0
M  V30 4617 N 441.952 1.55251 0.271103 0
M  V30 4618 C 442.884 1.84675 1.35749 0
M  V30 4619 C 443.897 0.731366 1.45447 0
M  V30 4620 O 445.086 1.00924 1.4723 0
M  V30 4621 C 442.186 1.99638 2.73857 0
M  V30 4622 C 441.359 3.30312 2.86727 0
M  V30 4623 C 440.418 3.35318 4.05522 0
M  V30 4624 O 439.444 4.08682 3.96191 0
M  V30 4625 N 440.646 2.62857 5.17577 0
M  V30 4626 H 443.411 2.78445 1.10853 0
M  V30 4627 H 440.972 1.55191 0.461218 0
M  V30 4628 H 442.964 2.00355 3.51625 0
M  V30 4629 H 441.534 1.12725 2.91568 0
M  V30 4630 H 440.754 3.42118 1.95829 0
M  V30 4631 H 442.042 4.16488 2.92258 0
M  V30 4632 H 441.44 2.02939 5.28046 0
M  V30 4633 H 439.997 2.69295 5.93568 0
M  V30 4634 N 443.43 -0.535701 1.48216 0
M  V30 4635 C 444.67 -1.30238 1.57536 0
M  V30 4636 C 445.034 -1.90479 0.241229 0
M  V30 4637 O 446.235 -2.67983 0.20938 0
M  V30 4638 C 444.506 -2.3669 2.67792 0
M  V30 4639 S 446.065 -3.23159 2.9684 0
M  V30 4640 H 442.883 -0.443093 0.556048 0
M  V30 4641 H 445.485 -0.610937 1.85709 0
M  V30 4642 H 444.189 -1.90905 3.63296 0
M  V30 4643 H 443.72 -3.10548 2.41502 0
M  V30 4644 H 445.735 -4.36647 2.35699 0
M  V30 4645 N 444.908 -1.36708 -0.784132 0
M  V30 4646 C 445.858 -1.2799 -1.88686 0
M  V30 4647 C 446.842 -0.170282 -1.59996 0
M  V30 4648 O 448.034 -0.403571 -1.72338 0
M  V30 4649 C 445.163 -1.07674 -3.25977 0
M  V30 4650 C 444.249 -2.23127 -3.60659 0
M  V30 4651 N 444.64 -3.48467 -3.66612 0
M  V30 4652 C 442.938 -2.15009 -3.90752 0
M  V30 4653 C 443.639 -4.24525 -3.97685 0
M  V30 4654 N 442.615 -3.53524 -4.12943 0
M  V30 4655 H 446.417 -2.22927 -1.91522 0
M  V30 4656 H 443.931 -1.29503 -0.979933 0
M  V30 4657 H 445.928 -0.995151 -4.04849 0
M  V30 4658 H 444.588 -0.13643 -3.24413 0
M  V30 4659 H 445.599 -3.82534 -3.49125 0
M  V30 4660 H 442.276 -1.28963 -3.97083 0
M  V30 4661 H 443.666 -5.32944 -4.0917 0
M  V30 4662 N 446.386 1.0089 -1.21074 0
M  V30 4663 C 447.316 2.1145 -0.990523 0
M  V30 4664 C 448.297 1.69897 0.0831699 0
M  V30 4665 O 449.482 1.94052 -0.0758853 0
M  V30 4666 C 446.612 3.42914 -0.550177 0
M  V30 4667 C 445.566 3.98244 -1.56799 0
M  V30 4668 C 444.892 5.25568 -0.984013 0
M  V30 4669 C 446.192 4.30752 -2.95381 0
M  V30 4670 H 447.886 2.3013 -1.91521 0
M  V30 4671 H 445.432 1.10592 -0.92225 0
M  V30 4672 H 447.385 4.19653 -0.383305 0
M  V30 4673 H 446.109 3.24014 0.41015 0
M  V30 4674 H 444.768 3.23621 -1.72236 0
M  V30 4675 H 444.416 5.02998 -0.0155216 0
M  V30 4676 H 444.116 5.63551 -1.66384 0
M  V30 4677 H 445.64 6.04955 -0.828378 0
M  V30 4678 H 447.054 4.98349 -2.8341 0
M  V30 4679 H 445.451 4.79869 -3.60341 0
M  V30 4680 H 446.521 3.39192 -3.46521 0
M  V30 4681 N 447.864 1.01787 1.20321 0
M  V30 4682 C 448.774 0.598898 2.26827 0
M  V30 4683 C 449.79 -0.36418 1.70146 0
M  V30 4684 O 450.966 -0.224812 2.00141 0
M  V30 4685 C 448.031 -0.0549769 3.46656 0
M  V30 4686 C 447.092 0.954205 4.18561 0
M  V30 4687 C 446.325 0.331439 5.3267 0
M  V30 4688 O 446.548 -0.86851 5.63749 0
M  V30 4689 O 445.482 1.0488 5.92692 0
M  V30 4690 H 449.308 1.48562 2.64883 0
M  V30 4691 H 446.893 0.787434 1.26964 0
M  V30 4692 H 448.775 -0.420102 4.19301 0
M  V30 4693 H 447.45 -0.915876 3.10473 0
M  V30 4694 H 446.357 1.37072 3.48083 0
M  V30 4695 H 447.69 1.78511 4.58688 0
M  V30 4696 N 449.342 -1.36122 0.79427 0
M  V30 4697 C 450.29 -2.31871 0.184023 0
M  V30 4698 C 451.284 -1.56041 -0.659365 0
M  V30 4699 O 452.49 -1.71266 -0.553906 0
M  V30 4700 H 448.865 -0.750896 0.0407373 0
M  V30 4701 H 450.836 -2.80898 1.00693 0
M  V30 4702 C 449.585 -3.41324 -0.662813 0
M  V30 4703 H 448.908 -3.99793 -0.0231944 0
M  V30 4704 H 450.348 -4.10629 -1.05639 0
M  V30 4705 C 448.807 -2.83308 -1.82313 0
M  V30 4706 O 449.337 -2.75863 -2.91997 0
M  V30 4707 N 447.543 -2.40529 -1.63077 0
M  V30 4708 H 447.09 -2.46785 -0.738591 0
M  V30 4709 H 447.048 -2.02059 -2.40872 0
M  V30 4710 N 450.82 -0.546701 -1.47814 0
M  V30 4711 C 451.768 0.220048 -2.31557 0
M  V30 4712 C 452.762 0.919472 -1.42275 0
M  V30 4713 O 453.968 0.841953 -1.59095 0
M  V30 4714 H 450.343 0.0898334 -0.746615 0
M  V30 4715 H 452.314 -0.505589 -2.94086 0
M  V30 4716 C 451.063 1.24353 -3.24702 0
M  V30 4717 H 450.386 0.714758 -3.93359 0
M  V30 4718 H 451.826 1.75112 -3.8615 0
M  V30 4719 C 450.285 2.28593 -2.47481 0
M  V30 4720 O 450.815 3.35334 -2.21165 0
M  V30 4721 N 449.021 2.02244 -2.08676 0
M  V30 4722 H 448.568 1.15455 -2.30278 0
M  V30 4723 H 448.526 2.72207 -1.57323 0
M  V30 4724 N 452.299 1.55045 -0.282633 0
M  V30 4725 C 453.232 2.18951 0.64311 0
M  V30 4726 C 454.21 1.15287 1.14664 0
M  V30 4727 O 455.394 1.43846 1.21822 0
M  V30 4728 C 452.521 2.81874 1.87789 0
M  V30 4729 C 451.567 3.98906 1.50919 0
M  V30 4730 S 452.4 5.3234 0.580884 0
M  V30 4731 C 453.556 5.98737 1.82387 0
M  V30 4732 H 453.789 2.97131 0.100138 0
M  V30 4733 H 451.322 1.54255 -0.0668514 0
M  V30 4734 H 453.28 3.18757 2.58658 0
M  V30 4735 H 451.941 2.03573 2.392 0
M  V30 4736 H 451.134 4.4165 2.42819 0
M  V30 4737 H 450.736 3.63485 0.88061 0
M  V30 4738 H 453.028 6.18427 2.76684 0
M  V30 4739 H 453.971 6.93318 1.4393 0
M  V30 4740 H 454.379 5.28177 1.99223 0
M  V30 4741 N 453.777 0.010035 1.57597 0
M  V30 4742 C 455.007 -0.682422 1.95004 0
M  V30 4743 C 455.415 -1.67278 0.884014 0
M  V30 4744 O 454.758 -1.83129 -0.144672 0
M  V30 4745 C 454.82 -1.46141 3.28456 0
M  V30 4746 C 454.484 -0.631523 4.52615 0
M  V30 4747 C 455.481 0.0850905 5.1983 0
M  V30 4748 C 453.166 -0.574539 4.99003 0
M  V30 4749 C 455.16 0.847566 6.3174 0
M  V30 4750 C 452.847 0.191655 6.10799 0
M  V30 4751 C 453.845 0.901432 6.77025 0
M  V30 4752 O 453.533 1.65511 7.86677 0
M  V30 4753 H 453.265 -0.194361 0.647456 0
M  V30 4754 H 455.819 0.060312 2.05311 0
M  V30 4755 H 454.049 -2.24885 3.14585 0
M  V30 4756 H 455.738 -2.04016 3.50902 0
M  V30 4757 H 456.504 0.0502812 4.84974 0
M  V30 4758 H 452.383 -1.11654 4.47274 0
M  V30 4759 H 455.927 1.4021 6.83364 0
M  V30 4760 H 451.824 0.228249 6.45096 0
M  V30 4761 H 452.592 1.57287 8.03245 0
M  V30 4762 N 455.255 -1.55392 -0.262866 0
M  V30 4763 C 456.483 -1.80513 -1.01108 0
M  V30 4764 C 456.898 -0.583533 -1.79556 0
M  V30 4765 O 456.255 0.447585 -1.76926 0
M  V30 4766 C 456.306 -3.03648 -1.96164 0
M  V30 4767 O 456.027 -4.2109 -1.20893 0
M  V30 4768 C 457.528 -3.41448 -2.82715 0
M  V30 4769 H 454.748 -0.601079 -0.298236 0
M  V30 4770 H 457.292 -2.02425 -0.290582 0
M  V30 4771 H 455.447 -2.83832 -2.63663 0
M  V30 4772 H 455.861 -4.90771 -1.85051 0
M  V30 4773 H 457.335 -4.30751 -3.45192 0
M  V30 4774 H 457.812 -2.61308 -3.53008 0
M  V30 4775 H 458.418 -3.63559 -2.20693 0
M  V30 4776 N 456.733 0.527833 -1.48498 0
M  V30 4777 C 457.666 1.64892 -1.57753 0
M  V30 4778 C 458.644 1.5687 -0.427867 0
M  V30 4779 O 459.828 1.77311 -0.639764 0
M  V30 4780 C 456.955 3.03301 -1.50752 0
M  V30 4781 C 456.001 3.29675 -2.70586 0
M  V30 4782 S 456.834 3.15712 -4.32535 0
M  V30 4783 C 457.99 4.56564 -4.28136 0
M  V30 4784 H 458.223 1.56792 -2.52594 0
M  V30 4785 H 455.756 0.710959 -1.37057 0
M  V30 4786 H 457.714 3.83123 -1.474 0
M  V30 4787 H 456.375 3.08839 -0.572454 0
M  V30 4788 H 455.568 4.3065 -2.61833 0
M  V30 4789 H 455.17 2.57526 -2.71212 0
M  V30 4790 H 457.462 5.48126 -3.98201 0
M  V30 4791 H 458.405 4.70371 -5.29298 0
M  V30 4792 H 458.813 4.35987 -3.58574 0
M  V30 4793 N 458.211 1.37122 0.776871 0
M  V30 4794 C 459.436 1.354 1.57104 0
M  V30 4795 C 459.861 -0.0595562 1.88006 0
M  V30 4796 O 459.219 -1.03514 1.48844 0
M  V30 4797 C 459.267 2.19472 2.8612 0
M  V30 4798 O 458.371 1.59582 3.80273 0
M  V30 4799 H 457.712 0.462869 0.476076 0
M  V30 4800 H 460.242 1.80577 0.961932 0
M  V30 4801 H 460.252 2.32502 3.35271 0
M  V30 4802 H 458.927 3.22222 2.62956 0
M  V30 4803 H 457.504 1.55564 3.38902 0
M  V30 4804 N 459.689 -1.00246 1.21608 0
M  V30 4805 C 460.639 -2.07492 0.945051 0
M  V30 4806 C 461.623 -1.60585 -0.100675 0
M  V30 4807 O 462.815 -1.76667 0.10859 0
M  V30 4808 C 459.944 -3.39425 0.514342 0
M  V30 4809 C 459.03 -3.92993 1.59428 0
M  V30 4810 N 459.421 -4.19898 2.81991 0
M  V30 4811 C 457.719 -4.21297 1.46374 0
M  V30 4812 C 458.42 -4.63297 3.51754 0
M  V30 4813 N 457.396 -4.66421 2.79199 0
M  V30 4814 H 461.198 -2.26222 1.87619 0
M  V30 4815 H 458.712 -1.18339 1.11219 0
M  V30 4816 H 460.709 -4.15808 0.301527 0
M  V30 4817 H 459.369 -3.22101 -0.410008 0
M  V30 4818 H 460.38 -4.08377 3.1851 0
M  V30 4819 H 457.057 -4.13095 0.604863 0
M  V30 4820 H 458.447 -4.92816 4.56708 0
M  V30 4821 N 461.167 -1.02423 -1.1978 0
M  V30 4822 C 462.397 -0.736387 -1.93031 0
M  V30 4823 C 462.805 0.708023 -1.75453 0
M  V30 4824 O 462.148 1.4927 -1.07071 0
M  V30 4825 C 462.21 -1.00194 -3.45255 0
M  V30 4826 C 461.874 -2.43698 -3.86601 0
M  V30 4827 C 462.871 -3.41814 -3.91738 0
M  V30 4828 C 460.556 -2.77975 -4.18372 0
M  V30 4829 C 462.55 -4.72265 -4.28071 0
M  V30 4830 C 460.237 -4.08636 -4.54378 0
M  V30 4831 C 461.235 -5.05592 -4.59201 0
M  V30 4832 O 460.923 -6.33914 -4.94376 0
M  V30 4833 H 460.655 -0.269116 -0.620123 0
M  V30 4834 H 463.209 -1.37043 -1.52998 0
M  V30 4835 H 461.439 -0.310747 -3.85449 0
M  V30 4836 H 463.128 -0.704488 -3.9974 0
M  V30 4837 H 463.894 -3.16671 -3.67348 0
M  V30 4838 H 459.773 -2.0319 -4.13805 0
M  V30 4839 H 463.317 -5.4794 -4.3175 0
M  V30 4840 H 459.214 -4.33556 -4.78226 0
M  V30 4841 H 459.982 -6.38317 -5.12341 0
M  V30 4842 N 462.645 1.35699 -0.801477 0
M  V30 4843 C 463.875 2.02862 -0.3912 0
M  V30 4844 C 464.283 1.60552 1.00099 0
M  V30 4845 O 463.626 0.796215 1.65548 0
M  V30 4846 C 463.688 3.57386 -0.389299 0
M  V30 4847 C 463.352 4.22943 -1.73113 0
M  V30 4848 C 464.349 4.44984 -2.68859 0
M  V30 4849 C 462.034 4.60167 -2.01373 0
M  V30 4850 C 464.028 5.03345 -3.91053 0
M  V30 4851 C 461.715 5.18243 -3.23832 0
M  V30 4852 C 462.713 5.39773 -4.1849 0
M  V30 4853 O 462.401 5.96626 -5.38788 0
M  V30 4854 H 462.133 0.657341 -0.157732 0
M  V30 4855 H 464.687 1.74407 -1.08496 0
M  V30 4856 H 462.917 3.85011 0.361031 0
M  V30 4857 H 464.606 4.059 -0.0020365 0
M  V30 4858 H 465.372 4.1661 -2.48316 0
M  V30 4859 H 461.251 4.42726 -1.28508 0
M  V30 4860 H 464.795 5.20065 -4.64949 0
M  V30 4861 H 460.692 5.46044 -3.44248 0
M  V30 4862 H 461.46 6.15082 -5.40015 0
M  V30 4863 N 464.123 0.554532 1.47522 0
M  V30 4864 C 465.4 -0.0360704 1.95567 0
M  V30 4865 C 465.78 -1.48828 1.49711 0
M  V30 4866 O 465.128 -2.16366 0.734717 0
M  V30 4867 C 465.338 0.106631 3.48837 0
M  V30 4868 C 466.686 -0.0400899 4.24581 0
M  V30 4869 O 467.71 0.0340453 3.56184 0
M  V30 4870 O 466.569 -0.199111 5.46137 0
M  V30 4871 H 463.663 -0.0656294 0.824392 0
M  V30 4872 H 466.209 0.620867 1.57935 0
M  V30 4873 H 464.981 1.11727 3.7501 0
M  V30 4874 H 464.604 -0.58804 3.93227 0
M  V30 4875 N 465.601 -1.54893 0.290851 0
M  V30 4876 C 466.831 -2.04047 -0.323818 0
M  V30 4877 C 467.239 -1.16809 -1.48837 0
M  V30 4878 O 466.582 -0.184145 -1.82775 0
M  V30 4879 C 466.644 -3.49248 -0.852395 0
M  V30 4880 C 466.308 -4.56623 0.185557 0
M  V30 4881 C 467.305 -5.09985 1.01053 0
M  V30 4882 C 464.99 -5.01252 0.324332 0
M  V30 4883 C 466.984 -6.06507 1.96031 0
M  V30 4884 C 464.671 -5.97596 1.27757 0
M  V30 4885 C 465.669 -6.50107 2.09405 0
M  V30 4886 O 465.357 -7.44565 3.03114 0
M  V30 4887 H 465.089 -0.671735 -0.0758129 0
M  V30 4888 H 467.643 -2.00947 0.425393 0
M  V30 4889 H 465.873 -3.49639 -1.65195 0
M  V30 4890 H 467.562 -3.81654 -1.38185 0
M  V30 4891 H 468.328 -4.76307 0.914129 0
M  V30 4892 H 464.207 -4.60015 -0.301213 0
M  V30 4893 H 467.751 -6.47418 2.598 0
M  V30 4894 H 463.648 -6.30691 1.37473 0
M  V30 4895 H 464.416 -7.62334 2.97976 0
M  V30 4896 N 467.08 -0.0183926 -1.57589 0
M  V30 4897 C 468.491 0.521927 -1.79256 0
M  V30 4898 C 468.842 1.72885 -0.927636 0
M  V30 4899 O 467.967 2.15978 -0.135091 0
M  V30 4900 C 468.562 0.953632 -3.25102 0
M  V30 4901 C 467.121 1.43913 -3.47801 0
M  V30 4902 C 466.268 0.398837 -2.74417 0
M  V30 4903 H 469.219 -0.244485 -1.56805 0
M  V30 4904 H 469.24 1.81863 -3.34224 0
M  V30 4905 H 468.752 0.0750123 -3.88028 0
M  V30 4906 H 466.853 2.33804 -2.90115 0
M  V30 4907 H 466.966 1.45391 -4.56507 0
M  V30 4908 H 465.33 0.864572 -2.39577 0
M  V30 4909 H 466.113 -0.471132 -3.40052 0
M  V30 4910 N 468.558 1.5553 0.254621 0
M  V30 4911 C 469.783 1.81383 1.00573 0
M  V30 4912 C 470.208 0.594419 1.78461 0
M  V30 4913 O 469.566 -0.456403 1.75461 0
M  V30 4914 C 469.614 3.04892 1.92545 0
M  V30 4915 O 468.718 2.81266 3.01601 0
M  V30 4916 H 468.059 0.598969 0.286587 0
M  V30 4917 H 470.589 2.02703 0.277952 0
M  V30 4918 H 470.599 3.34119 2.34155 0
M  V30 4919 H 469.274 3.93287 1.3527 0
M  V30 4920 H 467.851 2.63185 2.64174 0
M  V30 4921 N 470.036 -0.519951 1.48776 0
M  V30 4922 C 471.285 -1.27175 1.56555 0
M  V30 4923 C 471.598 -1.9401 0.248869 0
M  V30 4924 O 472.804 -2.70725 0.205004 0
M  V30 4925 C 471.26 -2.30811 2.76142 0
M  V30 4926 C 470.868 -1.7 4.14493 0
M  V30 4927 C 472.612 -3.06937 2.9324 0
M  V30 4928 C 470.519 -2.71635 5.25327 0
M  V30 4929 H 469.449 -0.478329 0.582853 0
M  V30 4930 H 472.1 -0.547916 1.75129 0
M  V30 4931 H 470.482 -3.06274 2.51023 0
M  V30 4932 H 471.656 -1.00658 4.49672 0
M  V30 4933 H 469.971 -1.06331 4.02595 0
M  V30 4934 H 472.568 -3.82905 3.73213 0
M  V30 4935 H 472.911 -3.63409 2.03075 0
M  V30 4936 H 473.444 -2.38589 3.18308 0
M  V30 4937 H 470.183 -2.1997 6.1749 0
M  V30 4938 H 469.703 -3.39275 4.94624 0
M  V30 4939 H 471.382 -3.34429 5.53865 0
M  V30 4940 N 471.514 -1.37532 -0.769588 0
M  V30 4941 C 472.477 -1.33292 -1.86456 0
M  V30 4942 C 473.477 -0.236537 -1.59051 0
M  V30 4943 O 474.667 -0.492511 -1.67093 0
M  V30 4944 C 471.799 -1.07118 -3.23633 0
M  V30 4945 H 472.992 -2.30692 -1.91628 0
M  V30 4946 H 470.545 -1.22593 -0.969572 0
M  V30 4947 H 471.28 -0.102578 -3.24138 0
M  V30 4948 H 471.065 -1.86479 -3.44917 0
M  V30 4949 H 472.555 -1.06806 -4.03711 0
M  V30 4950 N 472.992 0.995999 -1.22138 0
M  V30 4951 C 473.942 2.06988 -0.956042 0
M  V30 4952 C 474.926 1.60636 0.0921576 0
M  V30 4953 O 476.118 1.76607 -0.117958 0
M  V30 4954 C 473.247 3.39148 -0.532335 0
M  V30 4955 C 472.333 3.92142 -1.61509 0
M  V30 4956 N 472.724 4.18397 -2.84214 0
M  V30 4957 C 471.022 4.20514 -1.48606 0
M  V30 4958 C 471.723 4.61425 -3.54206 0
M  V30 4959 N 470.699 4.64934 -2.81669 0
M  V30 4960 H 474.501 2.25223 -1.88816 0
M  V30 4961 H 472.015 1.17748 -1.11845 0
M  V30 4962 H 474.012 4.15642 -0.323574 0
M  V30 4963 H 472.672 3.22314 0.392921 0
M  V30 4964 H 473.683 4.06682 -3.20671 0
M  V30 4965 H 470.36 4.12769 -0.626762 0
M  V30 4966 H 471.75 4.90387 -4.59315 0
M  V30 4967 N 474.47 1.03057 1.19235 0
M  V30 4968 C 475.4 0.633497 2.24742 0
M  V30 4969 C 476.381 -0.358335 1.66283 0
M  V30 4970 O 477.566 -0.240676 1.92703 0
M  V30 4971 C 474.696 -0.0147648 3.47297 0
M  V30 4972 C 473.65 0.899527 4.18441 0
M  V30 4973 C 472.976 0.116281 5.34574 0
M  V30 4974 C 474.276 2.21404 4.73051 0
M  V30 4975 H 475.97 1.5155 2.58211 0
M  V30 4976 H 473.516 0.73014 1.24117 0
M  V30 4977 H 475.469 -0.304202 4.20301 0
M  V30 4978 H 474.193 -0.931577 3.13032 0
M  V30 4979 H 472.852 1.17319 3.47321 0
M  V30 4980 H 472.5 -0.802619 4.96555 0
M  V30 4981 H 472.2 0.725293 5.83107 0
M  V30 4982 H 473.724 -0.166376 6.10373 0
M  V30 4983 H 475.138 1.98601 5.37802 0
M  V30 4984 H 473.535 2.77512 5.32078 0
M  V30 4985 H 474.605 2.86752 3.91026 0
M  V30 4986 N 475.948 -1.35272 0.808662 0
M  V30 4987 C 477.194 -1.99003 0.390581 0
M  V30 4988 C 477.527 -1.63999 -1.0401 0
M  V30 4989 O 476.802 -0.904368 -1.72196 0
M  V30 4990 C 477.085 -3.55454 0.576566 0
M  V30 4991 C 476.938 -4.00249 2.05233 0
M  V30 4992 C 478.257 -4.401 0.00354277 0
M  V30 4993 H 475.376 -0.722917 0.143388 0
M  V30 4994 H 478.018 -1.6039 1.01858 0
M  V30 4995 H 476.168 -3.88477 0.0419766 0
M  V30 4996 H 477.84 -3.77626 2.64946 0
M  V30 4997 H 476.083 -3.51082 2.54801 0
M  V30 4998 H 476.754 -5.0911 2.13333 0
M  V30 4999 H 479.23 -4.13548 0.460117 0
M  V30 5000 H 478.106 -5.48656 0.163575 0
M  V30 5001 H 478.367 -4.28444 -1.09032 0
M  V30 5002 N 477.426 -0.562348 -1.47226 0
M  V30 5003 C 478.358 0.220011 -2.28142 0
M  V30 5004 C 479.371 0.874596 -1.37312 0
M  V30 5005 O 480.56 0.747583 -1.62091 0
M  V30 5006 C 477.66 1.32953 -3.11732 0
M  V30 5007 C 476.833 0.770759 -4.30556 0
M  V30 5008 C 475.892 1.76541 -4.95701 0
M  V30 5009 O 474.918 1.3095 -5.53932 0
M  V30 5010 N 476.12 3.09896 -4.90861 0
M  V30 5011 H 478.885 -0.474107 -2.95926 0
M  V30 5012 H 476.446 -0.398761 -1.56912 0
M  V30 5013 H 478.438 1.99378 -3.5218 0
M  V30 5014 H 477.008 1.92681 -2.46156 0
M  V30 5015 H 476.228 -0.0704056 -3.94137 0
M  V30 5016 H 477.516 0.376872 -5.07402 0
M  V30 5017 H 476.914 3.49577 -4.44761 0
M  V30 5018 H 475.471 3.71865 -5.35313 0
M  V30 5019 N 478.904 1.54736 -0.299062 0
M  V30 5020 C 479.851 2.23448 0.577899 0
M  V30 5021 C 480.821 1.21637 1.13109 0
M  V30 5022 O 482.006 1.50252 1.17597 0
M  V30 5023 C 479.146 2.9774 1.74484 0
M  V30 5024 C 478.259 4.1432 1.22323 0
M  V30 5025 C 477.394 4.76199 2.35388 0
M  V30 5026 C 476.433 5.84927 1.80351 0
M  V30 5027 N 475.57 6.4077 2.86982 0
M  V30 5028 H 480.41 2.97996 -0.0146545 0
M  V30 5029 H 477.947 1.47088 -0.0190013 0
M  V30 5030 H 479.905 3.39045 2.43114 0
M  V30 5031 H 478.535 2.25572 2.30905 0
M  V30 5032 H 477.587 3.7797 0.429249 0
M  V30 5033 H 478.899 4.92659 0.780309 0
M  V30 5034 H 478.053 5.20346 3.11969 0
M  V30 5035 H 476.792 3.97188 2.83006 0
M  V30 5036 H 475.797 5.40207 1.02259 0
M  V30 5037 H 477.022 6.65821 1.3364 0
M  V30 5038 H 474.968 5.64643 3.33938 0
M  V30 5039 H 474.885 7.1445 2.4718 0
M  V30 5040 H 476.153 6.89574 3.63466 0
M  V30 5041 N 480.382 0.0267497 1.57577 0
M  V30 5042 C 481.312 -0.954308 2.13108 0
M  V30 5043 C 482.293 -1.34088 1.04663 0
M  V30 5044 O 483.478 -1.41992 1.32484 0
M  V30 5045 C 480.608 -2.23744 2.65624 0
M  V30 5046 C 479.562 -1.99168 3.78835 0
M  V30 5047 C 478.888 -3.33726 4.17769 0
M  V30 5048 C 480.188 -1.33277 5.0501 0
M  V30 5049 H 481.882 -0.491848 2.95332 0
M  V30 5050 H 479.428 -0.23514 1.42067 0
M  V30 5051 H 481.381 -2.92754 3.03106 0
M  V30 5052 H 480.105 -2.72151 1.80558 0
M  V30 5053 H 478.764 -1.32577 3.41788 0
M  V30 5054 H 478.412 -3.79888 3.29688 0
M  V30 5055 H 478.112 -3.18089 4.94058 0
M  V30 5056 H 479.636 -4.04008 4.57832 0
M  V30 5057 H 481.05 -1.92283 5.40093 0
M  V30 5058 H 479.447 -1.28045 5.8628 0
M  V30 5059 H 480.517 -0.305411 4.83937 0
M  V30 5060 N 481.861 -1.55662 -0.24637 0
M  V30 5061 C 483.086 -1.81914 -0.996093 0
M  V30 5062 C 483.511 -0.603875 -1.78143 0
M  V30 5063 O 482.869 0.447091 -1.75701 0
M  V30 5064 C 482.917 -3.05908 -1.90925 0
M  V30 5065 O 482.021 -2.82861 -3.00105 0
M  V30 5066 H 481.362 -0.600481 -0.283406 0
M  V30 5067 H 483.892 -2.02848 -0.267199 0
M  V30 5068 H 483.902 -3.35356 -2.3238 0
M  V30 5069 H 482.577 -3.93999 -1.33183 0
M  V30 5070 H 481.154 -2.64583 -2.62775 0
M  V30 5071 N 483.339 0.512053 -1.4905 0
M  V30 5072 C 484.249 1.64139 -1.67617 0
M  V30 5073 C 485.265 1.64786 -0.558701 0
M  V30 5074 O 486.441 1.8341 -0.832034 0
M  V30 5075 C 483.506 3.00548 -1.72835 0
M  V30 5076 C 482.567 3.10615 -2.96339 0
M  V30 5077 C 481.8 4.40517 -3.01298 0
M  V30 5078 O 482.023 5.28671 -2.14157 0
M  V30 5079 O 480.957 4.55325 -3.93653 0
M  V30 5080 H 484.783 1.51407 -2.63267 0
M  V30 5081 H 482.368 0.687131 -1.32661 0
M  V30 5082 H 484.25 3.81641 -1.78683 0
M  V30 5083 H 482.925 3.13566 -0.803616 0
M  V30 5084 H 481.832 2.2875 -2.96014 0
M  V30 5085 H 483.165 3.0252 -3.88256 0
M  V30 5086 N 484.817 1.37938 0.762283 0
M  V30 5087 C 485.765 1.34569 1.89721 0
M  V30 5088 C 486.759 0.232929 1.67791 0
M  V30 5089 O 487.965 0.401485 1.75465 0
M  V30 5090 H 484.34 0.419594 0.624055 0
M  V30 5091 H 486.311 2.30357 1.8968 0
M  V30 5092 C 485.06 1.17898 3.27101 0
M  V30 5093 H 484.383 2.02781 3.44558 0
M  V30 5094 H 485.823 1.19593 4.06784 0
M  V30 5095 C 484.282 -0.114728 3.36705 0
M  V30 5096 O 484.812 -1.0949 3.8649 0
M  V30 5097 N 483.018 -0.16863 2.9011 0
M  V30 5098 H 482.565 0.62967 2.49786 0
M  V30 5099 H 482.523 -1.03383 2.96916 0
M  V30 5100 N 486.295 -0.989507 1.22664 0
M  V30 5101 C 487.243 -2.10148 0.997035 0
M  V30 5102 C 488.237 -1.6929 -0.0609783 0
M  V30 5103 O 489.443 -1.79766 0.0917523 0
M  V30 5104 H 485.818 -0.687256 0.305259 0
M  V30 5105 H 487.789 -2.26685 1.94053 0
M  V30 5106 C 486.538 -3.4257 0.595085 0
M  V30 5107 H 485.861 -3.74453 1.40089 0
M  V30 5108 H 487.301 -4.21344 0.473869 0
M  V30 5109 C 485.76 -3.29638 -0.695725 0
M  V30 5110 O 486.29 -3.61709 -1.74727 0
M  V30 5111 N 484.496 -2.82814 -0.668173 0
M  V30 5112 H 484.043 -2.56914 0.18787 0
M  V30 5113 H 484.001 -2.74544 -1.5321 0
M  V30 5114 N 487.773 -1.03688 -1.18687 0
M  V30 5115 C 489.022 -0.733235 -1.879 0
M  V30 5116 C 489.335 0.741745 -1.8099 0
M  V30 5117 O 490.541 1.15875 -2.4553 0
M  V30 5118 C 488.997 -1.26127 -3.37076 0
M  V30 5119 C 488.605 -2.76461 -3.52524 0
M  V30 5120 C 490.349 -1.03398 -4.11715 0
M  V30 5121 C 488.256 -3.22642 -4.95637 0
M  V30 5122 H 487.186 -0.270584 -0.703776 0
M  V30 5123 H 489.837 -1.25222 -1.34133 0
M  V30 5124 H 488.219 -0.670165 -3.90288 0
M  V30 5125 H 489.393 -3.41296 -3.09602 0
M  V30 5126 H 487.708 -2.97559 -2.91286 0
M  V30 5127 H 490.305 -1.3542 -5.17267 0
M  V30 5128 H 490.648 0.0289246 -4.1629 0
M  V30 5129 H 491.181 -1.5895 -3.64664 0
M  V30 5130 H 487.92 -4.28296 -4.96228 0
M  V30 5131 H 487.44 -2.62539 -5.39289 0
M  V30 5132 H 489.119 -3.16444 -5.64333 0
M  V30 5133 N 489.251 1.34841 -0.815825 0
M  V30 5134 C 490.183 2.28409 -0.190265 0
M  V30 5135 C 491.196 1.50705 0.615771 0
M  V30 5136 O 492.385 1.72822 0.446616 0
M  V30 5137 C 489.485 3.30441 0.752446 0
M  V30 5138 C 488.658 4.37399 -0.00922152 0
M  V30 5139 C 487.717 5.19234 0.853351 0
M  V30 5140 O 486.743 5.68404 0.300919 0
M  V30 5141 N 487.945 5.38248 2.17416 0
M  V30 5142 H 490.71 2.82732 -0.994114 0
M  V30 5143 H 488.271 1.47289 -0.672129 0
M  V30 5144 H 490.263 3.82084 1.33394 0
M  V30 5145 H 488.833 2.76565 1.45707 0
M  V30 5146 H 488.053 3.86567 -0.771979 0
M  V30 5147 H 489.341 5.05992 -0.533807 0
M  V30 5148 H 488.739 4.99961 2.6468 0
M  V30 5149 H 487.296 5.93035 2.70467 0
M  V30 5150 N 490.729 0.570148 1.46925 0
M  V30 5151 C 491.957 0.0561966 2.06824 0
M  V30 5152 C 492.372 -1.24326 1.42086 0
M  V30 5153 O 491.729 -1.74882 0.521794 0
M  V30 5154 C 491.78 -0.129517 3.61268 0
M  V30 5155 O 491.501 1.1185 4.23581 0
M  V30 5156 C 493.002 -0.679266 4.38065 0
M  V30 5157 H 490.222 0.0517261 0.669003 0
M  V30 5158 H 492.766 0.787243 1.8874 0
M  V30 5159 H 490.921 -0.810739 3.78822 0
M  V30 5160 H 491.335 0.924375 5.1629 0
M  V30 5161 H 492.809 -0.758445 5.46765 0
M  V30 5162 H 493.286 -1.69346 4.05239 0
M  V30 5163 H 493.892 -0.0333237 4.25287 0
M  V30 5164 N 492.207 -1.54576 0.307264 0
M  V30 5165 C 493.456 -1.99442 -0.300976 0
M  V30 5166 C 493.769 -1.19928 -1.5452 0
M  V30 5167 O 494.975 -1.55092 -2.22842 0
M  V30 5168 C 493.431 -3.55084 -0.586809 0
M  V30 5169 C 493.039 -4.43413 0.639438 0
M  V30 5170 C 494.783 -4.0846 -1.1559 0
M  V30 5171 C 492.69 -5.90499 0.326411 0
M  V30 5172 H 491.62 -0.744986 -0.116238 0
M  V30 5173 H 494.271 -1.787 0.416947 0
M  V30 5174 H 492.653 -3.71749 -1.36449 0
M  V30 5175 H 493.827 -4.38522 1.41545 0
M  V30 5176 H 492.142 -4.00842 1.1276 0
M  V30 5177 H 494.739 -5.15926 -1.40445 0
M  V30 5178 H 495.082 -3.59443 -2.10015 0
M  V30 5179 H 495.615 -3.95362 -0.439778 0
M  V30 5180 H 492.354 -6.43676 1.23939 0
M  V30 5181 H 491.874 -5.98382 -0.412212 0
M  V30 5182 H 493.553 -6.46962 -0.0697393 0
M  V30 5183 N 493.685 -0.035106 -1.57561 0
M  V30 5184 C 494.932 0.642229 -1.92046 0
M  V30 5185 C 495.26 1.7179 -0.91206 0
M  V30 5186 O 494.515 1.95544 0.0781153 0
M  V30 5187 C 494.814 1.29149 -3.3325 0
M  V30 5188 C 494.48 0.345604 -4.49574 0
M  V30 5189 C 493.142 0.0852775 -4.81124 0
M  V30 5190 C 495.494 -0.303569 -5.20315 0
M  V30 5191 C 492.822 -0.831927 -5.80772 0
M  V30 5192 C 495.174 -1.20886 -6.20942 0
M  V30 5193 C 493.838 -1.47802 -6.50931 0
M  V30 5194 H 493.108 0.235008 -0.702746 0
M  V30 5195 H 495.755 -0.0981529 -1.91248 0
M  V30 5196 H 494.06 2.10676 -3.30337 0
M  V30 5197 H 495.757 1.82223 -3.57205 0
M  V30 5198 H 492.347 0.558683 -4.24943 0
M  V30 5199 H 496.531 -0.115515 -4.96166 0
M  V30 5200 H 491.787 -1.0481 -6.02349 0
M  V30 5201 H 495.961 -1.71804 -6.74875 0
M  V30 5202 H 493.588 -2.19039 -7.2796 0
M  V30 5203 N 495.163 1.55791 0.238111 0
M  V30 5204 C 496.126 1.90239 1.27835 0
M  V30 5205 C 497.126 0.779552 1.4064 0
M  V30 5206 O 498.316 1.04747 1.3919 0
M  V30 5207 C 495.448 2.13859 2.65475 0
M  V30 5208 H 496.641 2.83262 0.985034 0
M  V30 5209 H 494.194 1.48818 0.477799 0
M  V30 5210 H 494.929 1.23334 2.99932 0
M  V30 5211 H 494.714 2.95643 2.57561 0
M  V30 5212 H 496.204 2.41664 3.40571 0
M  V30 5213 N 496.642 -0.504142 1.49319 0
M  V30 5214 C 497.888 -1.26033 1.58882 0
M  V30 5215 C 498.221 -1.92268 0.273274 0
M  V30 5216 O 497.496 -1.80567 -0.72291 0
M  V30 5217 C 497.779 -2.32976 2.7458 0
M  V30 5218 C 497.632 -1.71263 4.1592 0
M  V30 5219 C 498.951 -3.34561 2.85932 0
M  V30 5220 H 496.07 -0.456863 0.578312 0
M  V30 5221 H 498.712 -0.558965 1.81592 0
M  V30 5222 H 496.862 -2.92796 2.55348 0
M  V30 5223 H 498.534 -1.15294 4.4666 0
M  V30 5224 H 496.777 -1.01686 4.21714 0
M  V30 5225 H 497.448 -2.48816 4.92742 0
M  V30 5226 H 499.924 -2.84727 3.0343 0
M  V30 5227 H 498.8 -4.06754 3.68568 0
M  V30 5228 H 499.061 -3.96695 1.95154 0
M  V30 5229 N 498.12 -1.38341 -0.754957 0
M  V30 5230 C 499.348 -1.37704 -1.54419 0
M  V30 5231 C 499.763 0.0335243 -1.8877 0
M  V30 5232 O 499.12 0.999773 -1.52679 0
M  V30 5233 C 499.171 -2.23136 -2.84416 0
M  V30 5234 O 498.892 -3.58697 -2.51531 0
M  V30 5235 C 500.393 -2.30664 -3.78562 0
M  V30 5236 H 497.613 -0.471061 -0.477852 0
M  V30 5237 H 500.157 -1.81902 -0.934446 0
M  V30 5238 H 498.312 -1.82403 -3.41772 0
M  V30 5239 H 498.726 -4.03665 -3.34896 0
M  V30 5240 H 500.2 -2.9473 -4.66732 0
M  V30 5241 H 500.677 -1.3199 -4.18898 0
M  V30 5242 H 501.283 -2.71781 -3.27131 0
M  V30 5243 N 499.598 0.982988 -1.23187 0
M  V30 5244 C 500.508 2.10907 -1.02739 0
M  V30 5245 C 501.524 1.73979 0.0273188 0
M  V30 5246 O 502.7 2.00702 -0.16757 0
M  V30 5247 C 499.765 3.41142 -0.618304 0
M  V30 5248 C 498.826 3.92112 -1.74777 0
M  V30 5249 C 498.059 5.16131 -1.3581 0
M  V30 5250 O 498.282 5.6989 -0.241201 0
M  V30 5251 O 497.216 5.61103 -2.17824 0
M  V30 5252 H 501.042 2.31046 -1.97108 0
M  V30 5253 H 498.627 1.09284 -1.01869 0
M  V30 5254 H 500.509 4.19488 -0.400982 0
M  V30 5255 H 499.184 3.2234 0.296421 0
M  V30 5256 H 498.091 3.14895 -2.0197 0
M  V30 5257 H 499.424 4.15364 -2.64071 0
M  V30 5258 N 501.076 1.04316 1.18135 0
M  V30 5259 C 501.986 0.646876 2.25505 0
M  V30 5260 C 503.002 -0.328008 1.7088 0
M  V30 5261 O 504.178 -0.182309 2.00573 0
M  V30 5262 C 501.243 0.0185664 3.46695 0
M  V30 5263 C 500.304 1.04277 4.16443 0
M  V30 5264 C 499.537 0.444352 5.31847 0
M  V30 5265 O 499.76 -0.748735 5.65465 0
M  V30 5266 O 498.694 1.17428 5.90334 0
M  V30 5267 H 502.52 1.54147 2.61672 0
M  V30 5268 H 500.105 0.814188 1.25265 0
M  V30 5269 H 501.987 -0.331068 4.20097 0
M  V30 5270 H 500.662 -0.849814 3.12346 0
M  V30 5271 H 499.569 1.44425 3.45098 0
M  V30 5272 H 500.902 1.882 4.54798 0
M  V30 5273 N 502.554 -1.34406 0.822964 0
M  V30 5274 C 503.801 -1.98284 0.411057 0
M  V30 5275 C 504.129 -1.65245 -1.02588 0
M  V30 5276 O 503.384 -0.91619 -1.72929 0
M  V30 5277 C 503.683 -3.52981 0.560268 0
M  V30 5278 C 503.349 -4.05931 1.96293 0
M  V30 5279 C 502.011 -4.20103 2.34664 0
M  V30 5280 C 504.363 -4.34412 2.87985 0
M  V30 5281 C 501.691 -4.60082 3.64062 0
M  V30 5282 C 504.043 -4.75838 4.16847 0
M  V30 5283 C 502.707 -4.88215 4.55195 0
M  V30 5284 H 501.977 -0.725573 0.150416 0
M  V30 5285 H 504.624 -1.60349 1.04692 0
M  V30 5286 H 502.929 -3.91477 -0.158982 0
M  V30 5287 H 504.626 -4.00385 0.222087 0
M  V30 5288 H 501.216 -3.95363 1.65487 0
M  V30 5289 H 505.4 -4.23001 2.59584 0
M  V30 5290 H 500.656 -4.67856 3.93599 0
M  V30 5291 H 504.83 -4.96834 4.87984 0
M  V30 5292 H 502.457 -5.18952 5.55512 0
M  V30 5293 N 504.032 -0.577932 -1.46621 0
M  V30 5294 C 504.964 0.195801 -2.28362 0
M  V30 5295 C 505.977 0.859983 -1.38232 0
M  V30 5296 O 507.166 0.730349 -1.62875 0
M  V30 5297 C 504.266 1.29639 -3.13124 0
M  V30 5298 C 503.439 0.725049 -4.31349 0
M  V30 5299 C 502.498 1.71274 -4.97546 0
M  V30 5300 O 501.524 1.25067 -5.5529 0
M  V30 5301 N 502.726 3.04672 -4.94121 0
M  V30 5302 H 505.491 -0.505468 -2.95407 0
M  V30 5303 H 503.052 -0.415381 -1.56481 0
M  V30 5304 H 505.044 1.95631 -3.54275 0
M  V30 5305 H 503.614 1.90059 -2.48186 0
M  V30 5306 H 502.834 -0.112205 -3.9404 0
M  V30 5307 H 504.122 0.323034 -5.07774 0
M  V30 5308 H 503.52 3.4484 -4.48444 0
M  V30 5309 H 502.077 3.66166 -5.39227 0
M  V30 5310 N 505.51 1.54411 -0.315457 0
M  V30 5311 C 506.921 1.85885 0.174265 0
M  V30 5312 C 507.272 1.23723 1.52273 0
M  V30 5313 O 506.397 0.540246 2.09548 0
M  V30 5314 C 506.992 3.37257 0.322981 0
M  V30 5315 C 505.551 3.68711 0.756922 0
M  V30 5316 C 504.698 2.77013 -0.126195 0
M  V30 5317 H 507.649 1.49374 -0.536007 0
M  V30 5318 H 507.67 3.62539 1.15522 0
M  V30 5319 H 507.182 3.82471 -0.658602 0
M  V30 5320 H 505.283 3.29024 1.74854 0
M  V30 5321 H 505.396 4.75741 0.566291 0
M  V30 5322 H 503.76 2.51588 0.39692 0
M  V30 5323 H 504.543 3.25051 -1.1044 0
M  V30 5324 N 506.988 0.0434614 1.5754 0
M  V30 5325 C 508.234 -0.632971 1.92669 0
M  V30 5326 C 508.567 -1.70947 0.921446 0
M  V30 5327 O 507.842 -1.94426 -0.0537202 0
M  V30 5328 C 508.125 -1.23619 3.38216 0
M  V30 5329 C 507.978 -0.168274 4.49485 0
M  V30 5330 C 509.297 -2.15008 3.84005 0
M  V30 5331 H 506.416 -0.228629 0.700641 0
M  V30 5332 H 509.058 0.103651 1.89717 0
M  V30 5333 H 507.208 -1.864 3.40863 0
M  V30 5334 H 508.88 0.463196 4.58969 0
M  V30 5335 H 507.123 0.504581 4.30855 0
M  V30 5336 H 507.794 -0.630218 5.48391 0
M  V30 5337 H 510.27 -1.62198 3.83185 0
M  V30 5338 H 509.146 -2.54161 4.86511 0
M  V30 5339 H 509.407 -3.04707 3.20322 0
M  V30 5340 N 508.466 -1.55915 -0.229846 0
M  V30 5341 C 509.696 -1.82352 -0.971152 0
M  V30 5342 C 510.104 -0.619231 -1.7878 0
M  V30 5343 O 509.447 0.421597 -1.78797 0
M  V30 5344 C 509.509 -3.02399 -1.9441 0
M  V30 5345 C 509.173 -4.37739 -1.31277 0
M  V30 5346 C 510.17 -5.15074 -0.706757 0
M  V30 5347 C 507.855 -4.84454 -1.32702 0
M  V30 5348 C 509.849 -6.37281 -0.123413 0
M  V30 5349 C 507.536 -6.06605 -0.739831 0
M  V30 5350 C 508.534 -6.82858 -0.139071 0
M  V30 5351 O 508.222 -8.027 0.439007 0
M  V30 5352 H 507.954 -0.61035 -0.290601 0
M  V30 5353 H 510.508 -2.03839 -0.252746 0
M  V30 5354 H 508.738 -2.76709 -2.70128 0
M  V30 5355 H 510.427 -3.15779 -2.55026 0
M  V30 5356 H 511.193 -4.80093 -0.688131 0
M  V30 5357 H 507.072 -4.25081 -1.78402 0
M  V30 5358 H 510.616 -6.96741 0.346124 0
M  V30 5359 H 506.513 -6.4106 -0.755841 0
M  V30 5360 H 507.281 -8.17824 0.332521 0
M  V30 5361 N 509.944 0.496216 -1.49584 0
M  V30 5362 C 510.891 1.59722 -1.66606 0
M  V30 5363 C 511.861 1.58158 -0.507477 0
M  V30 5364 O 513.046 1.76072 -0.735076 0
M  V30 5365 C 510.186 2.97844 -1.74308 0
M  V30 5366 C 509.299 3.09388 -3.01502 0
M  V30 5367 C 508.434 4.38271 -3.00153 0
M  V30 5368 C 507.473 4.43466 -4.21906 0
M  V30 5369 N 506.61 5.63784 -4.1844 0
M  V30 5370 H 511.45 1.44515 -2.60613 0
M  V30 5371 H 508.987 0.703048 -1.29212 0
M  V30 5372 H 510.945 3.77907 -1.76754 0
M  V30 5373 H 509.575 3.11743 -0.837619 0
M  V30 5374 H 508.627 2.22357 -3.08645 0
M  V30 5375 H 509.939 3.09085 -3.91494 0
M  V30 5376 H 509.093 5.2666 -3.01188 0
M  V30 5377 H 507.832 4.41146 -2.07947 0
M  V30 5378 H 506.837 3.53478 -4.21109 0
M  V30 5379 H 508.062 4.42303 -5.1531 0
M  V30 5380 H 506.008 5.67491 -3.29074 0
M  V30 5381 H 505.925 5.65118 -5.02173 0
M  V30 5382 H 507.193 6.54367 -4.23585 0
M  V30 5383 N 511.423 1.38739 0.74761 0
M  V30 5384 C 512.333 1.38696 1.89211 0
M  V30 5385 C 513.349 0.283303 1.71678 0
M  V30 5386 O 514.525 0.522713 1.94498 0
M  V30 5387 C 511.59 1.21662 3.24653 0
M  V30 5388 C 510.651 2.41886 3.54669 0
M  V30 5389 C 509.884 2.25655 4.83648 0
M  V30 5390 O 510.107 1.25339 5.56459 0
M  V30 5391 O 509.041 3.14372 5.13277 0
M  V30 5392 H 512.867 2.35143 1.92202 0
M  V30 5393 H 510.452 1.19721 0.893708 0
M  V30 5394 H 512.334 1.14246 4.05618 0
M  V30 5395 H 511.009 0.283024 3.2246 0
M  V30 5396 H 509.916 2.54877 2.73841 0
M  V30 5397 H 511.249 3.33895 3.61628 0
M  V30 5398 N 512.901 -0.976442 1.23707 0
M  V30 5399 C 513.831 -2.08749 1.04624 0
M  V30 5400 C 514.812 -1.70057 -0.0380956 0
M  V30 5401 O 515.997 -1.93782 0.127308 0
M  V30 5402 C 513.127 -3.41335 0.640902 0
M  V30 5403 C 512.081 -3.93947 1.67302 0
M  V30 5404 C 511.407 -5.22774 1.12301 0
M  V30 5405 C 512.707 -4.22769 3.06697 0
M  V30 5406 H 514.401 -2.24972 1.97555 0
M  V30 5407 H 511.947 -1.08108 0.951247 0
M  V30 5408 H 513.9 -4.18489 0.494434 0
M  V30 5409 H 512.624 -3.24988 -0.324099 0
M  V30 5410 H 511.283 -3.18941 1.80755 0
M  V30 5411 H 510.931 -5.0278 0.148877 0
M  V30 5412 H 510.631 -5.58942 1.81267 0
M  V30 5413 H 512.155 -6.02546 0.988479 0
M  V30 5414 H 513.569 -4.90659 2.96524 0
M  V30 5415 H 511.966 -4.70147 3.72937 0
M  V30 5416 H 513.036 -3.29885 3.55392 0
M  V30 5417 N 514.379 -1.04941 -1.1758 0
M  V30 5418 C 515.326 -0.648155 -2.21512 0
M  V30 5419 C 516.296 0.348431 -1.62404 0
M  V30 5420 O 517.481 0.240419 -1.89279 0
M  V30 5421 C 514.621 -0.0264291 -3.4509 0
M  V30 5422 C 513.734 -1.07154 -4.185 0
M  V30 5423 C 512.869 -0.417403 -5.29558 0
M  V30 5424 C 511.908 -1.447 -5.94751 0
M  V30 5425 N 511.045 -0.817203 -6.97328 0
M  V30 5426 H 515.885 -1.53891 -2.55189 0
M  V30 5427 H 513.422 -0.769699 -1.25356 0
M  V30 5428 H 515.38 0.351456 -4.15717 0
M  V30 5429 H 514.01 0.827802 -3.12005 0
M  V30 5430 H 513.062 -1.56728 -3.46613 0
M  V30 5431 H 514.374 -1.8532 -4.63096 0
M  V30 5432 H 513.528 0.0142061 -6.06698 0
M  V30 5433 H 512.267 0.396265 -4.86087 0
M  V30 5434 H 511.272 -1.88865 -5.16343 0
M  V30 5435 H 512.497 -2.26252 -6.40302 0
M  V30 5436 H 510.443 -0.0239995 -6.55996 0
M  V30 5437 H 510.36 -1.53644 -7.40223 0
M  V30 5438 H 511.628 -0.410283 -7.7842 0
M  V30 5439 N 515.857 1.33968 -0.830081 0
M  V30 5440 C 516.805 2.31301 -0.245435 0
M  V30 5441 C 517.799 1.57734 0.617762 0
M  V30 5442 O 519.005 1.72674 0.508303 0
M  V30 5443 H 515.38 0.749552 -0.0606316 0
M  V30 5444 H 517.351 2.78129 -1.08105 0
M  V30 5445 C 516.1 3.42961 0.572084 0
M  V30 5446 H 515.423 3.99714 -0.0828118 0
M  V30 5447 H 516.863 4.13286 0.94715 0
M  V30 5448 C 515.322 2.88043 1.74737 0
M  V30 5449 O 515.852 2.83508 2.8458 0
M  V30 5450 N 514.058 2.44768 1.56642 0
M  V30 5451 H 513.605 2.48656 0.672901 0
M  V30 5452 H 513.563 2.08375 2.3543 0
M  V30 5453 N 517.335 0.585699 1.46312 0
M  V30 5454 C 518.265 -0.133556 2.33118 0
M  V30 5455 C 519.246 -0.880707 1.45525 0
M  V30 5456 O 520.431 -0.855579 1.74337 0
M  V30 5457 C 517.561 -1.14585 3.27853 0
M  V30 5458 C 516.515 -0.513341 4.2491 0
M  V30 5459 C 515.841 -1.63231 5.09175 0
M  V30 5460 C 517.141 0.551413 5.19381 0
M  V30 5461 H 518.835 0.59121 2.93505 0
M  V30 5462 H 516.381 0.285761 1.41136 0
M  V30 5463 H 518.334 -1.65741 3.87438 0
M  V30 5464 H 517.058 -1.90093 2.65579 0
M  V30 5465 H 515.717 -0.0228349 3.66593 0
M  V30 5466 H 515.365 -2.37713 4.43285 0
M  V30 5467 H 515.065 -1.21473 5.74907 0
M  V30 5468 H 516.589 -2.14658 5.71624 0
M  V30 5469 H 518.003 0.124804 5.73164 0
M  V30 5470 H 516.4 0.889486 5.93471 0
M  V30 5471 H 517.47 1.43655 4.63132 0
M  V30 5472 N 518.813 -1.54241 0.323641 0
M  V30 5473 C 520.062 -1.9975 -0.279806 0
M  V30 5474 C 520.375 -1.2156 -1.5324 0
M  V30 5475 O 521.581 -1.57447 -2.21185 0
M  V30 5476 C 520.037 -3.55686 -0.549115 0
M  V30 5477 C 519.645 -4.4271 0.686432 0
M  V30 5478 C 521.389 -4.09663 -1.11251 0
M  V30 5479 C 519.296 -5.90119 0.389022 0
M  V30 5480 H 518.226 -0.746177 -0.10833 0
M  V30 5481 H 520.877 -1.78248 0.435877 0
M  V30 5482 H 519.259 -3.73176 -1.32499 0
M  V30 5483 H 520.433 -4.36996 1.46188 0
M  V30 5484 H 518.748 -3.99623 1.17005 0
M  V30 5485 H 521.345 -5.17386 -1.34965 0
M  V30 5486 H 521.688 -3.61651 -2.06191 0
M  V30 5487 H 522.221 -3.95806 -0.39782 0
M  V30 5488 H 518.96 -6.42326 1.30759 0
M  V30 5489 H 518.48 -5.98785 -0.348722 0
M  V30 5490 H 520.159 -6.47 -0.0011164 0
M  V30 5491 N 520.291 -0.0518155 -1.57515 0
M  V30 5492 C 521.702 0.483787 -1.80323 0
M  V30 5493 C 522.053 1.70879 -0.964099 0
M  V30 5494 O 521.178 2.15643 -0.180872 0
M  V30 5495 C 521.773 0.884459 -3.27052 0
M  V30 5496 C 520.332 1.36504 -3.50776 0
M  V30 5497 C 519.479 0.340539 -2.75201 0
M  V30 5498 H 522.43 -0.277691 -1.56252 0
M  V30 5499 H 522.451 1.74733 -3.38007 0
M  V30 5500 H 521.963 -0.00731093 -3.88099 0
M  V30 5501 H 520.064 2.27598 -2.95009 0
M  V30 5502 H 520.177 1.35675 -4.59488 0
M  V30 5503 H 518.541 0.81356 -2.41357 0
M  V30 5504 H 519.324 -0.543156 -3.38976 0
M  V30 5505 N 521.769 1.56035 0.221574 0
M  V30 5506 C 522.716 1.92413 1.27459 0
M  V30 5507 C 523.686 0.781323 1.46576 0
M  V30 5508 O 524.871 1.03721 1.60145 0
M  V30 5509 C 522.011 2.24617 2.61995 0
M  V30 5510 C 521.124 3.51831 2.50677 0
M  V30 5511 C 520.259 3.73482 3.77736 0
M  V30 5512 C 519.298 4.94211 3.6114 0
M  V30 5513 N 518.435 5.12252 4.80148 0
M  V30 5514 H 523.275 2.82203 0.957355 0
M  V30 5515 H 520.812 1.39676 0.461415 0
M  V30 5516 H 522.77 2.41298 3.40339 0
M  V30 5517 H 521.4 1.38 2.91815 0
M  V30 5518 H 520.452 3.43343 1.63767 0
M  V30 5519 H 521.764 4.40328 2.34334 0
M  V30 5520 H 520.918 3.9026 4.64523 0
M  V30 5521 H 519.657 2.83266 3.97003 0
M  V30 5522 H 518.662 4.77384 2.72736 0
M  V30 5523 H 519.887 5.85912 3.43343 0
M  V30 5524 H 517.833 4.24978 4.99729 0
M  V30 5525 H 517.75 5.94881 4.66532 0
M  V30 5526 H 519.018 5.33465 5.68362 0
M  V30 5527 N 523.247 -0.488276 1.49845 0
M  V30 5528 C 524.472 -1.26997 1.63971 0
M  V30 5529 C 524.897 -1.85427 0.315994 0
M  V30 5530 O 524.255 -1.66475 -0.718032 0
M  V30 5531 C 524.303 -2.36689 2.72049 0
M  V30 5532 O 523.407 -3.40882 2.32107 0
M  V30 5533 H 522.748 -0.374376 0.548396 0
M  V30 5534 H 525.278 -0.583104 1.96115 0
M  V30 5535 H 525.288 -2.82262 2.94605 0
M  V30 5536 H 523.963 -1.93529 3.68129 0
M  V30 5537 H 522.54 -3.01139 2.19931 0
M  V30 5538 N 524.725 -1.39134 -0.740242 0
M  V30 5539 C 525.688 -1.37217 -1.83587 0
M  V30 5540 C 526.688 -0.270221 -1.58513 0
M  V30 5541 O 527.878 -0.527843 -1.6601 0
M  V30 5542 C 525.01 -1.13959 -3.21288 0
M  V30 5543 H 526.203 -2.34705 -1.86691 0
M  V30 5544 H 523.756 -1.24622 -0.94335 0
M  V30 5545 H 524.491 -0.17131 -3.23847 0
M  V30 5546 H 524.276 -1.93754 -3.40884 0
M  V30 5547 H 525.766 -1.15346 -4.01354 0
M  V30 5548 N 526.204 0.969867 -1.24223 0
M  V30 5549 C 527.45 1.7151 -1.08223 0
M  V30 5550 C 527.783 1.90478 0.37838 0
M  V30 5551 O 527.058 1.4647 1.27971 0
M  V30 5552 C 527.341 3.10714 -1.82013 0
M  V30 5553 C 527.194 2.9925 -3.35811 0
M  V30 5554 C 528.513 4.10332 -1.59108 0
M  V30 5555 H 525.632 0.622499 -0.394543 0
M  V30 5556 H 528.274 1.1284 -1.52863 0
M  V30 5557 H 526.424 3.608 -1.44068 0
M  V30 5558 H 528.096 2.56608 -3.83341 0
M  V30 5559 H 526.339 2.35512 -3.64303 0
M  V30 5560 H 527.01 3.97857 -3.82641 0
M  V30 5561 H 529.486 3.69097 -1.92111 0
M  V30 5562 H 528.362 5.05804 -2.13198 0
M  V30 5563 H 528.623 4.38926 -0.528832 0
M  V30 5564 N 527.682 1.05563 1.17022 0
M  V30 5565 C 528.93 0.76642 1.87004 0
M  V30 5566 C 529.251 -0.708854 1.8166 0
M  V30 5567 O 528.521 -1.51242 1.2451 0
M  V30 5568 H 527.101 0.280516 0.692329 0
M  V30 5569 H 529.763 1.33557 1.41945 0
M  V30 5570 H 528.859 1.08472 2.92644 0
M  V30 5571 N 529.16 -1.33526 0.837174 0
M  V30 5572 C 530.388 -2.02047 0.445494 0
M  V30 5573 C 530.803 -1.62995 -0.952788 0
M  V30 5574 O 530.16 -0.842447 -1.61892 0
M  V30 5575 C 530.211 -3.57221 0.554577 0
M  V30 5576 O 529.932 -3.94863 1.89776 0
M  V30 5577 C 531.433 -4.43012 0.159634 0
M  V30 5578 H 528.653 -0.647221 0.177048 0
M  V30 5579 H 531.197 -1.70492 1.12928 0
M  V30 5580 H 529.352 -3.87315 -0.0812781 0
M  V30 5581 H 529.766 -4.89569 1.88208 0
M  V30 5582 H 531.24 -5.51253 0.28701 0
M  V30 5583 H 531.717 -4.29916 -0.898289 0
M  V30 5584 H 532.323 -4.18274 0.769855 0
M  V30 5585 N 530.638 -0.59345 -1.46 0
M  V30 5586 C 531.568 0.121192 -2.33185 0
M  V30 5587 C 532.549 0.872977 -1.4599 0
M  V30 5588 O 533.734 0.846321 -1.74789 0
M  V30 5589 C 530.864 1.12844 -3.28456 0
M  V30 5590 C 529.818 0.4908 -4.25177 0
M  V30 5591 C 529.144 1.60529 -5.10034 0
M  V30 5592 C 530.444 -0.578949 -5.19081 0
M  V30 5593 H 532.138 -0.606767 -2.93187 0
M  V30 5594 H 529.684 -0.293242 -1.40983 0
M  V30 5595 H 531.637 1.63684 -3.88311 0
M  V30 5596 H 530.361 1.88681 -2.66584 0
M  V30 5597 H 529.02 0.00339328 -3.666 0
M  V30 5598 H 528.668 2.35359 -4.44539 0
M  V30 5599 H 528.368 1.18422 -5.75543 0
M  V30 5600 H 529.892 2.11623 -5.72755 0
M  V30 5601 H 531.306 -0.155199 -5.7309 0
M  V30 5602 H 529.703 -0.920947 -5.92991 0
M  V30 5603 H 530.773 -1.46109 -4.62364 0
M  V30 5604 N 532.116 1.54067 -0.331816 0
M  V30 5605 C 533.341 2.05599 0.272705 0
M  V30 5606 C 533.766 1.2059 1.44359 0
M  V30 5607 O 533.124 0.216907 1.79998 0
M  V30 5608 C 533.172 3.54188 0.677021 0
M  V30 5609 O 532.276 3.72082 1.77844 0
M  V30 5610 H 531.617 0.662286 0.0476801 0
M  V30 5611 H 534.147 1.98826 -0.482624 0
M  V30 5612 H 534.157 3.96608 0.957415 0
M  V30 5613 H 532.832 4.15513 -0.179325 0
M  V30 5614 H 531.409 3.41566 1.49622 0
M  V30 5615 N 533.594 0.0601682 1.57485 0
M  V30 5616 C 534.557 -0.896373 2.10945 0
M  V30 5617 C 535.557 -1.23402 1.03095 0
M  V30 5618 O 536.747 -1.16921 1.29132 0
M  V30 5619 C 533.879 -2.20346 2.60116 0
M  V30 5620 H 535.072 -0.432778 2.96761 0
M  V30 5621 H 532.625 -0.188372 1.55161 0
M  V30 5622 H 533.36 -2.71268 1.7772 0
M  V30 5623 H 533.145 -1.9714 3.38937 0
M  V30 5624 H 534.635 -2.88846 3.01592 0
M  V30 5625 N 535.072 -1.5615 -0.213296 0
M  V30 5626 C 536.02 -1.93953 -1.28394 0
M  V30 5627 C 537.014 -0.822592 -1.48087 0
M  V30 5628 O 538.22 -1.00748 -1.49164 0
M  V30 5629 H 534.595 -0.61648 -0.430646 0
M  V30 5630 H 536.566 -2.83275 -0.937977 0
M  V30 5631 C 535.315 -2.27969 -2.62537 0
M  V30 5632 H 534.638 -3.13432 -2.48194 0
M  V30 5633 H 536.078 -2.58297 -3.36242 0
M  V30 5634 C 534.537 -1.10775 -3.18167 0
M  V30 5635 O 535.067 -0.373201 -3.99963 0
M  V30 5636 N 533.273 -0.889377 -2.76656 0
M  V30 5637 H 532.82 -1.48843 -2.10246 0
M  V30 5638 H 532.778 -0.107 -3.14218 0
M  V30 5639 N 536.55 0.480323 -1.50102 0
M  V30 5640 C 537.775 1.26126 -1.64642 0
M  V30 5641 C 538.2 1.85257 -0.325823 0
M  V30 5642 O 537.558 1.66854 0.709194 0
M  V30 5643 C 537.606 2.35243 -2.73301 0
M  V30 5644 O 536.71 3.39646 -2.33911 0
M  V30 5645 H 536.051 0.371463 -0.550374 0
M  V30 5646 H 538.581 0.572696 -1.96421 0
M  V30 5647 H 538.591 2.80695 -2.96098 0
M  V30 5648 H 537.266 1.91574 -3.6915 0
M  V30 5649 H 535.843 2.99969 -2.21525 0
M  V30 5650 N 538.028 1.39524 0.732853 0
M  V30 5651 C 539.253 1.40329 1.52717 0
M  V30 5652 C 539.678 0.000286574 1.881 0
M  V30 5653 O 539.036 -0.987262 1.52062 0
M  V30 5654 C 539.084 2.28464 2.78992 0
M  V30 5655 O 538.188 1.716 3.75003 0
M  V30 5656 H 537.529 0.47778 0.461109 0
M  V30 5657 H 540.059 1.83546 0.903996 0
M  V30 5658 H 540.069 2.43051 3.27705 0
M  V30 5659 H 538.744 3.30425 2.52572 0
M  V30 5660 H 537.321 1.66267 3.33781 0
M  V30 5661 N 539.506 -0.963266 1.24736 0
M  V30 5662 C 540.454 -2.07985 1.04139 0
M  V30 5663 C 541.448 -1.69381 -0.0250556 0
M  V30 5664 O 542.654 -1.79531 0.129863 0
M  V30 5665 H 539.029 -0.680627 0.319768 0
M  V30 5666 H 541 -2.22517 1.98818 0
M  V30 5667 C 539.749 -3.4123 0.667615 0
M  V30 5668 H 539.072 -3.71397 1.48 0
M  V30 5669 H 540.512 -4.20244 0.563136 0
M  V30 5670 C 538.971 -3.3104 -0.625647 0
M  V30 5671 O 539.501 -3.65334 -1.67016 0
M  V30 5672 N 537.707 -2.84168 -0.608033 0
M  V30 5673 H 537.254 -2.56458 0.242323 0
M  V30 5674 H 537.212 -2.77732 -1.47352 0
M  V30 5675 N 540.985 -1.06182 -1.16461 0
M  V30 5676 C 542.231 -0.779015 -1.87241 0
M  V30 5677 C 542.564 0.692715 -1.81425 0
M  V30 5678 O 541.839 1.5074 -1.22913 0
M  V30 5679 C 542.122 -1.2728 -3.36856 0
M  V30 5680 C 541.975 -2.80821 -3.51368 0
M  V30 5681 C 543.294 -0.879799 -4.31216 0
M  V30 5682 H 540.413 -0.284464 -0.679889 0
M  V30 5683 H 543.055 -1.31755 -1.36896 0
M  V30 5684 H 541.205 -0.814673 -3.79862 0
M  V30 5685 H 542.877 -3.34833 -3.17308 0
M  V30 5686 H 541.12 -3.19606 -2.93316 0
M  V30 5687 H 541.791 -3.10435 -4.56436 0
M  V30 5688 H 544.267 -1.27436 -3.96105 0
M  V30 5689 H 543.143 -1.25278 -5.34412 0
M  V30 5690 H 543.404 0.215372 -4.41575 0
M  V30 5691 N 542.463 1.3308 -0.844243 0
M  V30 5692 C 543.712 1.96868 -0.438833 0
M  V30 5693 C 544.025 1.67599 1.00846 0
M  V30 5694 O 545.231 2.25043 1.51881 0
M  V30 5695 C 543.687 3.5234 -0.73377 0
M  V30 5696 C 543.295 3.90481 -2.1961 0
M  V30 5697 C 545.039 4.22653 -0.395574 0
M  V30 5698 C 542.946 5.38954 -2.43481 0
M  V30 5699 H 541.876 0.736749 -0.160364 0
M  V30 5700 H 544.527 1.51623 -1.03358 0
M  V30 5701 H 542.909 3.95941 -0.068589 0
M  V30 5702 H 544.083 3.57922 -2.90221 0
M  V30 5703 H 542.398 3.33165 -2.4978 0
M  V30 5704 H 544.995 5.31848 -0.551477 0
M  V30 5705 H 545.338 4.11004 0.661921 0
M  V30 5706 H 545.871 3.84601 -1.01621 0
M  V30 5707 H 542.61 5.55612 -3.47816 0
M  V30 5708 H 542.13 5.72954 -1.77437 0
M  V30 5709 H 543.809 6.05907 -2.26905 0
M  V30 5710 N 543.941 0.601185 1.45683 0
M  V30 5711 C 544.873 -0.159446 2.28645 0
M  V30 5712 C 545.886 -0.837882 1.39583 0
M  V30 5713 O 547.075 -0.704344 1.64016 0
M  V30 5714 C 544.175 -1.24641 3.15147 0
M  V30 5715 C 543.348 -0.656334 4.32448 0
M  V30 5716 C 542.407 -1.63337 5.00208 0
M  V30 5717 O 541.433 -1.16217 5.57209 0
M  V30 5718 N 542.635 -2.96773 4.98905 0
M  V30 5719 H 545.4 0.5524 2.94565 0
M  V30 5720 H 542.961 0.440223 1.558 0
M  V30 5721 H 544.953 -1.8997 3.57342 0
M  V30 5722 H 543.523 -1.86087 2.51178 0
M  V30 5723 H 542.743 0.174879 3.93812 0
M  V30 5724 H 544.031 -0.242211 5.08223 0
M  V30 5725 H 543.429 -3.37662 4.53873 0
M  V30 5726 H 541.986 -3.57541 5.44984 0
M  V30 5727 N 545.419 -1.53889 0.339982 0
M  V30 5728 C 546.349 -2.27843 -0.510856 0
M  V30 5729 C 547.33 -1.29267 -1.10563 0
M  V30 5730 O 548.515 -1.58104 -1.12768 0
M  V30 5731 C 545.645 -3.04857 -1.66372 0
M  V30 5732 C 544.599 -4.10907 -1.19746 0
M  V30 5733 C 543.925 -4.75855 -2.43857 0
M  V30 5734 C 545.225 -5.21435 -0.300501 0
M  V30 5735 H 546.919 -2.99212 0.106067 0
M  V30 5736 H 544.465 -1.43904 0.0524533 0
M  V30 5737 H 546.418 -3.5533 -2.26537 0
M  V30 5738 H 545.142 -2.31133 -2.30749 0
M  V30 5739 H 543.801 -3.61342 -0.618654 0
M  V30 5740 H 543.449 -3.9873 -3.06633 0
M  V30 5741 H 543.149 -5.47502 -2.13343 0
M  V30 5742 H 544.673 -5.2911 -3.04754 0
M  V30 5743 H 546.087 -5.67565 -0.80889 0
M  V30 5744 H 544.484 -6.00036 -0.0874076 0
M  V30 5745 H 545.554 -4.80328 0.664321 0
M  V30 5746 N 546.897 -0.0685191 -1.57451 0
M  V30 5747 C 548.146 0.600898 -1.92541 0
M  V30 5748 C 548.459 1.70967 -0.950239 0
M  V30 5749 O 549.665 2.43844 -1.19384 0
M  V30 5750 C 548.121 1.12019 -3.42023 0
M  V30 5751 C 547.729 0.0426028 -4.4798 0
M  V30 5752 C 549.473 1.76386 -3.86119 0
M  V30 5753 C 547.38 0.575759 -5.88591 0
M  V30 5754 H 546.31 0.228225 -0.71863 0
M  V30 5755 H 548.961 -0.140223 -1.82963 0
M  V30 5756 H 547.343 1.91418 -3.46663 0
M  V30 5757 H 548.517 -0.73182 -4.54952 0
M  V30 5758 H 546.832 -0.504642 -4.13331 0
M  V30 5759 H 549.429 2.17302 -4.88553 0
M  V30 5760 H 549.772 2.62255 -3.23308 0
M  V30 5761 H 550.305 1.03615 -3.84069 0
M  V30 5762 H 547.044 -0.245691 -6.55039 0
M  V30 5763 H 546.564 1.31778 -5.85145 0
M  V30 5764 H 548.243 1.0532 -6.3837 0
M  V30 5765 N 548.375 1.56261 0.205012 0
M  V30 5766 C 549.624 1.79236 0.925058 0
M  V30 5767 C 549.937 0.640011 1.84833 0
M  V30 5768 O 551.143 0.753809 2.60826 0
M  V30 5769 C 549.599 3.17475 1.69522 0
M  V30 5770 C 549.207 4.40482 0.817269 0
M  V30 5771 C 550.951 3.49766 2.4055 0
M  V30 5772 C 548.858 5.69744 1.58573 0
M  V30 5773 H 547.788 0.668287 0.349153 0
M  V30 5774 H 550.439 1.82629 0.178544 0
M  V30 5775 H 548.821 3.08304 2.48526 0
M  V30 5776 H 549.995 4.60752 0.0665988 0
M  V30 5777 H 548.31 4.15827 0.218316 0
M  V30 5778 H 550.907 4.43573 2.98575 0
M  V30 5779 H 551.25 2.73041 3.14252 0
M  V30 5780 H 551.783 3.60341 1.68522 0
M  V30 5781 H 548.522 6.49407 0.891679 0
M  V30 5782 H 548.042 5.53509 2.31059 0
M  V30 5783 H 549.721 6.1051 2.14212 0
M  V30 5784 N 549.853 -0.472356 1.50355 0
M  V30 5785 C 551.13 -1.23356 1.51798 0
M  V30 5786 C 551.51 -2.09469 0.26193 0
M  V30 5787 O 550.858 -2.15677 -0.754691 0
M  V30 5788 C 551.068 -2.06568 2.81302 0
M  V30 5789 C 552.416 -2.648 3.31913 0
M  V30 5790 O 553.44 -2.16812 2.82614 0
M  V30 5791 O 552.299 -3.52231 4.17846 0
M  V30 5792 H 549.393 -0.559707 0.608816 0
M  V30 5793 H 551.939 -0.48428 1.62643 0
M  V30 5794 H 550.711 -1.43103 3.64194 0
M  V30 5795 H 550.334 -2.88633 2.73454 0
M  V30 5796 N 551.331 -1.39911 -0.725443 0
M  V30 5797 C 552.294 -1.39156 -1.82121 0
M  V30 5798 C 553.294 -0.287018 -1.58218 0
M  V30 5799 O 554.484 -0.545421 -1.65441 0
M  V30 5800 C 551.616 -1.1736 -3.20062 0
M  V30 5801 H 552.809 -2.36672 -1.84191 0
M  V30 5802 H 550.362 -1.25615 -0.930079 0
M  V30 5803 H 551.097 -0.205648 -3.23647 0
M  V30 5804 H 550.882 -1.97358 -3.3881 0
M  V30 5805 H 552.372 -1.19596 -4.00108 0
M  V30 5806 N 552.809 0.956637 -1.25245 0
M  V30 5807 C 554.039 1.7332 -1.12445 0
M  V30 5808 C 554.447 1.86392 0.324732 0
M  V30 5809 O 553.79 1.35967 1.23526 0
M  V30 5810 C 553.852 3.16603 -1.70303 0
M  V30 5811 C 553.516 3.26966 -3.19284 0
M  V30 5812 C 554.513 3.11434 -4.16299 0
M  V30 5813 C 552.198 3.50851 -3.59456 0
M  V30 5814 C 554.192 3.1963 -5.51467 0
M  V30 5815 C 551.879 3.58684 -4.94761 0
M  V30 5816 C 552.877 3.43087 -5.90576 0
M  V30 5817 O 552.565 3.50598 -7.2342 0
M  V30 5818 H 552.297 0.549981 -0.393061 0
M  V30 5819 H 554.851 1.20892 -1.66055 0
M  V30 5820 H 553.081 3.70385 -1.11138 0
M  V30 5821 H 554.77 3.76109 -1.52632 0
M  V30 5822 H 555.536 2.92853 -3.86604 0
M  V30 5823 H 551.415 3.62053 -2.85375 0
M  V30 5824 H 554.959 3.07373 -6.26233 0
M  V30 5825 H 550.856 3.76782 -5.24124 0
M  V30 5826 H 551.624 3.67242 -7.31489 0
M  V30 5827 N 554.287 1.06798 1.15896 0
M  V30 5828 C 555.235 0.677525 2.22514 0
M  V30 5829 C 556.229 -0.308994 1.66558 0
M  V30 5830 O 557.435 -0.173308 1.79164 0
M  V30 5831 H 553.81 0.200994 0.724642 0
M  V30 5832 H 555.781 1.5865 2.52731 0
M  V30 5833 C 554.53 0.0854153 3.47595 0
M  V30 5834 H 553.853 0.835645 3.90969 0
M  V30 5835 H 555.293 -0.150199 4.23734 0
M  V30 5836 C 553.752 -1.1724 3.15843 0
M  V30 5837 O 554.282 -2.25965 3.32119 0
M  V30 5838 N 552.488 -1.07636 2.69931 0
M  V30 5839 H 552.035 -0.191559 2.56887 0
M  V30 5840 H 551.993 -1.91876 2.4906 0
M  V30 5841 N 555.766 -1.3263 0.851289 0
M  V30 5842 C 556.991 -2.02097 0.466006 0
M  V30 5843 C 557.416 -1.63574 -0.928709 0
M  V30 5844 O 556.774 -0.834665 -1.60944 0
M  V30 5845 C 556.822 -3.55425 0.608737 0
M  V30 5846 O 555.926 -4.10827 -0.359878 0
M  V30 5847 H 555.267 -0.636911 0.187724 0
M  V30 5848 H 557.797 -1.69253 1.14955 0
M  V30 5849 H 557.807 -4.04986 0.495006 0
M  V30 5850 H 556.482 -3.82806 1.62581 0
M  V30 5851 H 555.059 -3.72349 -0.202666 0
M  V30 5852 N 557.244 -0.608902 -1.45362 0
M  V30 5853 C 558.174 0.0964526 -2.33301 0
M  V30 5854 C 559.155 0.857444 -1.46908 0
M  V30 5855 O 560.34 0.827735 -1.75676 0
M  V30 5856 C 557.47 1.09354 -3.29635 0
M  V30 5857 C 556.424 0.445676 -4.25673 0
M  V30 5858 C 555.75 1.5511 -5.11708 0
M  V30 5859 C 557.05 -0.633972 -5.18438 0
M  V30 5860 H 558.744 -0.637829 -2.92527 0
M  V30 5861 H 556.29 -0.308178 -1.40664 0
M  V30 5862 H 558.243 1.59556 -3.90025 0
M  V30 5863 H 556.967 1.85843 -2.6857 0
M  V30 5864 H 555.626 -0.0354897 -3.66583 0
M  V30 5865 H 555.274 2.30631 -4.4701 0
M  V30 5866 H 554.974 1.12311 -5.76767 0
M  V30 5867 H 556.498 2.05537 -5.74967 0
M  V30 5868 H 557.912 -0.215974 -5.72893 0
M  V30 5869 H 556.309 -0.983789 -5.91981 0
M  V30 5870 H 557.379 -1.51005 -4.60788 0
M  V30 5871 N 558.722 1.53707 -0.348139 0
M  V30 5872 C 559.947 2.05877 0.250883 0
M  V30 5873 C 560.372 1.22115 1.43072 0
M  V30 5874 O 559.73 0.235986 1.79758 0
M  V30 5875 C 559.778 3.54886 0.639416 0
M  V30 5876 O 558.882 3.73948 1.73888 0
M  V30 5877 H 558.223 0.662754 0.040653 0
M  V30 5878 H 560.753 1.98303 -0.503685 0
M  V30 5879 H 560.763 3.97601 0.915295 0
M  V30 5880 H 559.438 4.153 -0.223386 0
M  V30 5881 H 558.015 3.43134 1.45991 0
M  V30 5882 N 560.2 0.0768682 1.57412 0
M  V30 5883 C 561.425 -0.603404 1.98428 0
M  V30 5884 C 561.85 -1.62047 0.955108 0
M  V30 5885 O 561.208 -1.81129 -0.0786778 0
M  V30 5886 C 561.256 -1.24396 3.38464 0
M  V30 5887 O 560.36 -2.35982 3.3821 0
M  V30 5888 H 559.701 -0.154741 0.645718 0
M  V30 5889 H 562.231 0.152885 2.04028 0
M  V30 5890 H 562.241 -1.5896 3.7576 0
M  V30 5891 H 560.916 -0.498735 4.12899 0
M  V30 5892 H 559.493 -2.03173 3.1269 0
M  V30 5893 N 561.678 -1.56367 -0.196722 0
M  V30 5894 C 562.588 -1.97617 -1.2643 0
M  V30 5895 C 563.604 -0.883598 -1.49895 0
M  V30 5896 O 564.78 -1.18921 -1.62541 0
M  V30 5897 C 561.845 -2.30595 -2.58895 0
M  V30 5898 C 560.906 -3.53551 -2.43516 0
M  V30 5899 C 560.139 -3.84946 -3.69665 0
M  V30 5900 O 560.362 -3.17655 -4.73763 0
M  V30 5901 O 559.296 -4.78379 -3.65291 0
M  V30 5902 H 563.122 -2.88648 -0.944233 0
M  V30 5903 H 560.707 -1.43901 -0.401592 0
M  V30 5904 H 562.589 -2.52889 -3.37083 0
M  V30 5905 H 561.264 -1.42732 -2.90533 0
M  V30 5906 H 560.171 -3.36507 -1.63445 0
M  V30 5907 H 561.504 -4.41875 -2.16812 0
M  V30 5908 N 563.156 0.464375 -1.50603 0
M  V30 5909 C 564.402 1.21776 -1.62168 0
M  V30 5910 C 564.735 1.91476 -0.324154 0
M  V30 5911 O 564.01 1.8242 0.674782 0
M  V30 5912 C 564.293 2.25614 -2.80661 0
M  V30 5913 C 564.146 1.60175 -4.20314 0
M  V30 5914 C 565.465 3.26862 -2.94702 0
M  V30 5915 H 562.584 0.44137 -0.590222 0
M  V30 5916 H 565.226 0.510623 -1.8301 0
M  V30 5917 H 563.376 2.85923 -2.63021 0
M  V30 5918 H 565.048 1.03411 -4.4956 0
M  V30 5919 H 563.291 0.904697 -4.24261 0
M  V30 5920 H 563.962 2.35665 -4.99165 0
M  V30 5921 H 566.438 2.76582 -3.10872 0
M  V30 5922 H 565.314 3.96839 -3.79223 0
M  V30 5923 H 565.575 3.91382 -2.05603 0
M  V30 5924 N 564.634 1.40294 0.718013 0
M  V30 5925 C 565.883 1.37746 1.4734 0
M  V30 5926 C 566.196 -0.0180754 1.95592 0
M  V30 5927 O 567.402 -0.166166 2.70991 0
M  V30 5928 C 565.858 2.4208 2.66318 0
M  V30 5929 C 565.466 3.87432 2.24945 0
M  V30 5930 C 567.21 2.48635 3.44065 0
M  V30 5931 C 565.117 4.83368 3.40748 0
M  V30 5932 H 564.047 0.512165 0.553356 0
M  V30 5933 H 566.698 1.66019 0.781661 0
M  V30 5934 H 565.08 2.06903 3.3765 0
M  V30 5935 H 566.254 4.3174 1.6105 0
M  V30 5936 H 564.569 3.8433 1.60249 0
M  V30 5937 H 567.166 3.17499 4.30231 0
M  V30 5938 H 567.509 1.51611 3.87711 0
M  V30 5939 H 568.042 2.82791 2.79775 0
M  V30 5940 H 564.781 5.81716 3.02136 0
M  V30 5941 H 564.301 4.43726 4.03568 0
M  V30 5942 H 565.98 5.03074 4.06848 0
M  V30 5943 N 566.112 -0.949982 1.2575 0
M  V30 5944 C 567.042 -2.06483 1.09028 0
M  V30 5945 C 568.023 -1.701 -0.00201532 0
M  V30 5946 O 569.208 -1.93469 0.168383 0
M  V30 5947 C 566.338 -3.39899 0.71316 0
M  V30 5948 C 565.292 -3.90309 1.75621 0
M  V30 5949 C 564.618 -5.20274 1.23365 0
M  V30 5950 C 565.918 -4.16169 3.15596 0
M  V30 5951 H 567.612 -2.20731 2.02283 0
M  V30 5952 H 565.158 -1.06066 0.973964 0
M  V30 5953 H 567.111 -4.17346 0.58309 0
M  V30 5954 H 565.835 -3.25602 -0.255091 0
M  V30 5955 H 564.494 -3.15035 1.8748 0
M  V30 5956 H 564.142 -5.02351 0.255491 0
M  V30 5957 H 563.842 -5.54971 1.93082 0
M  V30 5958 H 565.366 -6.00314 1.11607 0
M  V30 5959 H 566.78 -4.84259 3.06864 0
M  V30 5960 H 565.177 -4.62131 3.82825 0
M  V30 5961 H 566.247 -3.22273 3.6231 0
M  V30 5962 N 567.59 -1.07411 -1.15328 0
M  V30 5963 C 568.5 -0.706438 -2.23711 0
M  V30 5964 C 569.516 0.282586 -1.7169 0
M  V30 5965 O 570.692 0.129066 -2.00986 0
M  V30 5966 C 567.757 -0.11048 -3.46524 0
M  V30 5967 C 566.818 -1.15282 -4.13532 0
M  V30 5968 C 566.051 -0.585205 -5.30482 0
M  V30 5969 O 566.274 0.598549 -5.67251 0
M  V30 5970 O 565.208 -1.33039 -5.87013 0
M  V30 5971 H 569.034 -1.61031 -2.57493 0
M  V30 5972 H 566.619 -0.847113 -1.23062 0
M  V30 5973 H 568.501 0.21957 -4.20828 0
M  V30 5974 H 567.176 0.766703 -3.14489 0
M  V30 5975 H 566.083 -1.53523 -3.41147 0
M  V30 5976 H 567.416 -2.00192 -4.49649 0
M  V30 5977 N 569.068 1.32177 -0.85831 0
M  V30 5978 C 570.016 2.30729 -0.294442 0
M  V30 5979 C 571.01 1.59009 0.584165 0
M  V30 5980 O 572.216 1.73713 0.471562 0
M  V30 5981 H 568.591 0.748097 -0.0765171 0
M  V30 5982 H 570.562 2.75774 -1.1398 0
M  V30 5983 C 569.311 3.44098 0.499208 0
M  V30 5984 H 568.634 3.99449 -0.167579 0
M  V30 5985 H 570.074 4.15202 0.859273 0
M  V30 5986 C 568.533 2.91684 1.68588 0
M  V30 5987 O 569.063 2.89481 2.78503 0
M  V30 5988 N 567.269 2.48036 1.51415 0
M  V30 5989 H 566.816 2.50027 0.620006 0
M  V30 5990 H 566.774 2.13322 2.30957 0
M  V30 5991 N 570.547 0.616602 1.45037 0
M  V30 5992 C 571.795 0.115103 2.01772 0
M  V30 5993 C 572.116 -1.2622 1.48639 0
M  V30 5994 O 571.386 -1.83563 0.684199 0
M  V30 5995 H 569.966 0.0395607 0.745952 0
M  V30 5996 H 572.628 0.800032 1.77723 0
M  V30 5997 H 571.724 0.0717274 3.12018 0
M  V30 5998 N 572.025 -1.5352 0.356285 0
M  V30 5999 C 572.972 -2.25439 -0.494569 0
M  V30 6000 C 573.942 -1.25752 -1.08516 0
M  V30 6001 O 575.127 -1.54513 -1.1194 0
M  V30 6002 C 572.267 -3.04011 -1.63313 0
M  V30 6003 C 571.38 -4.18574 -1.06862 0
M  V30 6004 C 570.515 -4.84607 -2.17552 0
M  V30 6005 C 569.554 -5.91218 -1.58518 0
M  V30 6006 N 568.691 -6.50979 -2.63003 0
M  V30 6007 H 573.531 -2.97737 0.125244 0
M  V30 6008 H 571.068 -1.46916 0.0735789 0
M  V30 6009 H 573.026 -3.47834 -2.30363 0
M  V30 6010 H 571.656 -2.33986 -2.22374 0
M  V30 6011 H 570.708 -3.79303 -0.288672 0
M  V30 6012 H 572.02 -4.95215 -0.596924 0
M  V30 6013 H 571.174 -5.31566 -2.92442 0
M  V30 6014 H 569.913 -4.07418 -2.6807 0
M  V30 6015 H 568.918 -5.4363 -0.821391 0
M  V30 6016 H 570.143 -6.70322 -1.08836 0
M  V30 6017 H 568.089 -5.76648 -3.12751 0
M  V30 6018 H 568.006 -7.23131 -2.20493 0
M  V30 6019 H 569.274 -7.02589 -3.37623 0
M  V30 6020 N 573.503 -0.0852151 -1.57369 0
M  V30 6021 C 574.433 0.874556 -2.16503 0
M  V30 6022 C 575.414 1.30111 -1.09568 0
M  V30 6023 O 576.599 1.36977 -1.37662 0
M  V30 6024 C 573.729 2.13731 -2.73745 0
M  V30 6025 C 572.683 1.84971 -3.85966 0
M  V30 6026 C 572.009 3.17991 -4.29867 0
M  V30 6027 C 573.309 1.14442 -5.09608 0
M  V30 6028 H 575.003 0.381899 -2.96954 0
M  V30 6029 H 572.549 0.18225 -1.42842 0
M  V30 6030 H 574.502 2.81302 -3.13763 0
M  V30 6031 H 573.226 2.65263 -1.90534 0
M  V30 6032 H 571.885 1.19801 -3.46473 0
M  V30 6033 H 571.533 3.6739 -3.4356 0
M  V30 6034 H 571.233 2.99534 -5.05523 0
M  V30 6035 H 572.757 3.86737 -4.72511 0
M  V30 6036 H 574.171 1.72105 -5.46857 0
M  V30 6037 H 572.568 1.06197 -5.90629 0
M  V30 6038 H 573.638 0.12559 -4.84737 0
M  V30 6039 N 574.981 1.5647 0.188427 0
M  V30 6040 C 576.206 1.85486 0.927891 0
M  V30 6041 C 576.631 0.669575 1.75779 0
M  V30 6042 O 575.989 -0.381573 1.77239 0
M  V30 6043 C 576.037 3.12784 1.7944 0
M  V30 6044 O 575.141 2.93805 2.894 0
M  V30 6045 H 574.482 0.610585 0.260925 0
M  V30 6046 H 577.012 2.037 0.191729 0
M  V30 6047 H 577.022 3.43749 2.19774 0
M  V30 6048 H 575.697 3.98671 1.18468 0
M  V30 6049 H 574.274 2.74153 2.52774 0
M  V30 6050 N 576.459 -0.456382 1.50847 0
M  V30 6051 C 577.369 -1.57805 1.73594 0
M  V30 6052 C 578.385 -1.62599 0.619476 0
M  V30 6053 O 579.561 -1.80195 0.899532 0
M  V30 6054 C 576.626 -2.93926 1.8387 0
M  V30 6055 C 575.687 -2.99402 3.07663 0
M  V30 6056 C 574.92 -4.29031 3.1744 0
M  V30 6057 O 575.143 -5.20358 2.33631 0
M  V30 6058 O 574.077 -4.40401 4.10281 0
M  V30 6059 H 577.903 -1.41531 2.68705 0
M  V30 6060 H 575.488 -0.637422 1.3512 0
M  V30 6061 H 577.37 -3.74747 1.92725 0
M  V30 6062 H 576.045 -3.10368 0.91944 0
M  V30 6063 H 574.952 -2.17606 3.043 0
M  V30 6064 H 576.285 -2.87901 3.99216 0
M  V30 6065 N 577.937 -1.40673 -0.710563 0
M  V30 6066 C 579.185 -1.38947 -1.46759 0
M  V30 6067 C 579.506 0.00572879 -1.94999 0
M  V30 6068 O 578.776 0.961358 -1.70689 0
M  V30 6069 H 577.356 -0.5114 -0.544499 0
M  V30 6070 H 580.018 -1.75773 -0.842012 0
M  V30 6071 H 579.114 -2.06745 -2.33801 0
M  V30 6072 N 579.415 0.9433 -1.26252 0
M  V30 6073 C 580.661 1.69175 -1.11837 0
M  V30 6074 C 580.994 1.91238 0.337891 0
M  V30 6075 O 580.269 1.49152 1.24836 0
M  V30 6076 C 580.552 3.06783 -1.88563 0
M  V30 6077 C 580.405 2.9206 -3.42083 0
M  V30 6078 C 581.724 4.06865 -1.67776 0
M  V30 6079 H 578.843 0.61399 -0.407658 0
M  V30 6080 H 581.485 1.09572 -1.55222 0
M  V30 6081 H 579.635 3.57663 -1.51689 0
M  V30 6082 H 581.307 2.48419 -3.88698 0
M  V30 6083 H 579.55 2.27731 -3.69217 0
M  V30 6084 H 580.221 3.89651 -3.90994 0
M  V30 6085 H 582.697 3.64939 -1.99897 0
M  V30 6086 H 581.573 5.01168 -2.23879 0
M  V30 6087 H 581.834 4.37705 -0.621816 0
M  V30 6088 N 580.893 1.08022 1.14757 0
M  V30 6089 C 582.121 0.828847 1.89572 0
M  V30 6090 C 582.536 -0.618621 1.78377 0
M  V30 6091 O 581.893 -1.42482 1.1404 0
M  V30 6092 C 581.944 1.23677 3.39685 0
M  V30 6093 O 581.665 2.62746 3.50566 0
M  V30 6094 C 583.166 1.01569 4.31507 0
M  V30 6095 H 580.386 0.299196 0.600602 0
M  V30 6096 H 582.93 1.43846 1.45357 0
M  V30 6097 H 581.085 0.671347 3.81539 0
M  V30 6098 H 581.499 2.79573 4.43778 0
M  V30 6099 H 582.973 1.35055 5.35223 0
M  V30 6100 H 583.45 -0.0475433 4.39174 0
M  V30 6101 H 584.056 1.56636 3.95405 0
M  V30 6102 N 582.371 -1.3172 0.865308 0
M  V30 6103 C 583.62 -1.96145 0.470098 0
M  V30 6104 C 583.933 -1.69182 -0.981674 0
M  V30 6105 O 585.139 -2.27431 -1.48281 0
M  V30 6106 C 583.595 -3.51129 0.789732 0
M  V30 6107 C 583.203 -3.86938 2.25795 0
M  V30 6108 C 584.947 -4.2197 0.462765 0
M  V30 6109 C 582.854 -5.35012 2.52024 0
M  V30 6110 H 581.784 -0.734105 0.172065 0
M  V30 6111 H 584.435 -1.49959 1.05757 0
M  V30 6112 H 582.817 -3.95781 0.131571 0
M  V30 6113 H 583.991 -3.5326 2.95879 0
M  V30 6114 H 582.306 -3.29149 2.55049 0
M  V30 6115 H 584.903 -5.30904 0.636019 0
M  V30 6116 H 585.246 -4.12005 -0.59645 0
M  V30 6117 H 585.779 -3.82936 1.07727 0
M  V30 6118 H 582.518 -5.50008 3.56611 0
M  V30 6119 H 582.038 -5.70058 1.8653 0
M  V30 6120 H 583.717 -6.0222 2.36515 0
M  V30 6121 N 583.85 -0.624285 -1.44708 0
M  V30 6122 C 585.075 -0.131171 -2.06985 0
M  V30 6123 C 585.5 1.18234 -1.46295 0
M  V30 6124 O 584.858 1.72375 -0.561842 0
M  V30 6125 C 584.906 -0.0226724 -3.60593 0
M  V30 6126 O 584.01 1.02314 -3.99507 0
M  V30 6127 H 583.351 -0.0816556 -0.65896 0
M  V30 6128 H 585.88 -0.859027 -1.85693 0
M  V30 6129 H 585.891 0.170138 -4.07645 0
M  V30 6130 H 584.566 -0.981685 -4.04148 0
M  V30 6131 H 583.143 0.805452 -3.64097 0
M  V30 6132 N 585.328 1.53329 -0.364422 0
M  V30 6133 C 586.558 2.05359 0.226096 0
M  V30 6134 C 586.966 1.23777 1.43094 0
M  V30 6135 O 586.309 0.271139 1.81688 0
M  V30 6136 C 586.371 3.52918 0.684794 0
M  V30 6137 C 586.035 4.55218 -0.403206 0
M  V30 6138 C 587.032 5.04583 -1.2527 0
M  V30 6139 C 584.717 4.99134 -0.563117 0
M  V30 6140 C 586.711 5.96463 -2.24745 0
M  V30 6141 C 584.398 5.9082 -1.56124 0
M  V30 6142 C 585.396 6.39375 -2.40184 0
M  V30 6143 O 585.084 7.29255 -3.38293 0
M  V30 6144 H 584.816 0.674588 0.0436772 0
M  V30 6145 H 587.37 1.98688 -0.520782 0
M  V30 6146 H 585.6 3.57122 1.48326 0
M  V30 6147 H 587.289 3.87812 1.19818 0
M  V30 6148 H 588.055 4.71403 -1.14034 0
M  V30 6149 H 583.934 4.60928 0.0813909 0
M  V30 6150 H 587.478 6.34285 -2.90393 0
M  V30 6151 H 583.375 6.23414 -1.67407 0
M  V30 6152 H 584.143 7.47249 -3.34009 0
M  V30 6153 N 586.806 0.0935595 1.57322 0
M  V30 6154 C 587.753 -0.865935 2.1394 0
M  V30 6155 C 588.723 -1.28083 1.05754 0
M  V30 6156 O 589.908 -1.36285 1.33533 0
M  V30 6157 C 587.048 -2.12023 2.72287 0
M  V30 6158 C 586.161 -1.756 3.94701 0
M  V30 6159 C 585.296 -2.95804 4.41218 0
M  V30 6160 C 584.335 -2.555 5.56225 0
M  V30 6161 N 583.472 -3.68534 5.97601 0
M  V30 6162 H 588.312 -0.376261 2.95615 0
M  V30 6163 H 585.849 -0.174052 1.46067 0
M  V30 6164 H 587.807 -2.85477 3.04235 0
M  V30 6165 H 586.437 -2.58492 1.93343 0
M  V30 6166 H 585.489 -0.921208 3.69077 0
M  V30 6167 H 586.801 -1.41964 4.78171 0
M  V30 6168 H 585.955 -3.77513 4.74941 0
M  V30 6169 H 584.694 -3.32649 3.56645 0
M  V30 6170 H 583.699 -1.72218 5.22131 0
M  V30 6171 H 584.924 -2.19801 6.42545 0
M  V30 6172 H 582.87 -4.051 5.15974 0
M  V30 6173 H 582.787 -3.38737 6.75865 0
M  V30 6174 H 584.055 -4.50757 6.35955 0
M  V30 6175 N 588.284 -1.56567 -0.180126 0
M  V30 6176 C 589.509 -1.85975 -0.918041 0
M  V30 6177 C 589.934 -0.678888 -1.75422 0
M  V30 6178 O 589.292 0.372168 -1.77439 0
M  V30 6179 C 589.34 -3.13731 -1.77779 0
M  V30 6180 O 588.444 -2.95335 -2.87838 0
M  V30 6181 H 587.785 -0.61196 -0.257683 0
M  V30 6182 H 590.315 -2.03798 -0.180923 0
M  V30 6183 H 590.325 -3.4491 -2.17948 0
M  V30 6184 H 589 -3.99293 -1.16352 0
M  V30 6185 H 587.577 -2.7549 -2.51316 0
M  V30 6186 N 589.762 0.448376 -1.51087 0
M  V30 6187 C 590.992 1.21965 -1.66757 0
M  V30 6188 C 591.4 1.85748 -0.359753 0
M  V30 6189 O 590.743 1.71022 0.670604 0
M  V30 6190 C 590.805 2.35284 -2.71812 0
M  V30 6191 C 590.469 1.91957 -4.1473 0
M  V30 6192 C 591.466 1.42921 -4.9987 0
M  V30 6193 C 589.151 1.99985 -4.60772 0
M  V30 6194 C 591.145 1.02485 -6.29107 0
M  V30 6195 C 588.832 1.5916 -5.90009 0
M  V30 6196 C 589.83 1.10491 -6.74004 0
M  V30 6197 O 589.518 0.702413 -8.00825 0
M  V30 6198 H 589.25 0.374125 -0.563034 0
M  V30 6199 H 591.804 0.538927 -1.98204 0
M  V30 6200 H 590.034 3.06599 -2.35657 0
M  V30 6201 H 591.723 2.97184 -2.76472 0
M  V30 6202 H 592.489 1.36123 -4.65506 0
M  V30 6203 H 588.368 2.36814 -3.95525 0
M  V30 6204 H 591.912 0.644271 -6.94619 0
M  V30 6205 H 587.809 1.65626 -6.2389 0
M  V30 6206 H 588.577 0.829248 -8.14288 0
M  V30 6207 N 591.24 1.41047 0.703093 0
M  V30 6208 C 592.48 1.41461 1.4754 0
M  V30 6209 C 592.844 0.0199013 1.9199 0
M  V30 6210 O 594.045 -0.101138 2.6861 0
M  V30 6211 C 592.316 2.38703 2.66 0
M  V30 6212 S 593.875 2.57582 3.55242 0
M  V30 6213 H 590.693 0.501226 0.504275 0
M  V30 6214 H 593.295 1.77422 0.821074 0
M  V30 6215 H 591.999 3.3885 2.31536 0
M  V30 6216 H 591.53 2.04069 3.36333 0
M  V30 6217 H 593.545 1.83758 4.6092 0
M  V30 6218 N 592.718 -0.936591 1.26751 0
M  V30 6219 C 593.665 -2.03597 1.08706 0
M  V30 6220 C 594.635 -1.66097 -0.00926542 0
M  V30 6221 O 595.82 -1.90199 0.151377 0
M  V30 6222 C 592.96 -3.3727 0.73094 0
M  V30 6223 C 592.073 -3.87778 1.90399 0
M  V30 6224 C 591.208 -5.09859 1.49056 0
M  V30 6225 C 590.247 -5.5264 2.63164 0
M  V30 6226 N 589.384 -6.65921 2.22471 0
M  V30 6227 H 594.224 -2.18364 2.02784 0
M  V30 6228 H 591.761 -1.06985 1.00958 0
M  V30 6229 H 593.719 -4.14128 0.505328 0
M  V30 6230 H 592.349 -3.22337 -0.172868 0
M  V30 6231 H 591.401 -3.07279 2.2424 0
M  V30 6232 H 592.713 -4.15464 2.76028 0
M  V30 6233 H 591.867 -5.9419 1.22567 0
M  V30 6234 H 590.606 -4.8393 0.60524 0
M  V30 6235 H 589.611 -4.66863 2.90377 0
M  V30 6236 H 590.836 -5.80568 3.52303 0
M  V30 6237 H 588.782 -6.41667 1.36379 0
M  V30 6238 H 588.699 -6.93216 3.01641 0
M  V30 6239 H 589.967 -7.53616 1.99205 0
M  V30 6240 N 594.196 -1.08629 -1.14182 0
M  V30 6241 C 595.144 -0.71284 -2.21408 0
M  V30 6242 C 596.138 0.282457 -1.67029 0
M  V30 6243 O 597.344 0.144783 -1.79417 0
M  V30 6244 H 593.719 -0.212497 -0.721352 0
M  V30 6245 H 595.69 -1.6265 -2.50175 0
M  V30 6246 C 594.439 -0.140704 -3.47415 0
M  V30 6247 H 593.762 -0.897739 -3.8959 0
M  V30 6248 H 595.202 0.0827677 -4.23919 0
M  V30 6249 C 593.661 1.122 -3.17668 0
M  V30 6250 O 594.191 2.20652 -3.35672 0
M  V30 6251 N 592.397 1.03328 -2.71609 0
M  V30 6252 H 591.944 0.150666 -2.57159 0
M  V30 6253 H 591.902 1.8789 -2.52081 0
M  V30 6254 N 595.674 1.31259 -0.872281 0
M  V30 6255 C 596.922 1.96233 -0.483409 0
M  V30 6256 C 597.243 1.69276 0.968012 0
M  V30 6257 O 596.513 1.00943 1.67891 0
M  V30 6258 H 595.093 0.726025 -0.175774 0
M  V30 6259 H 597.755 1.60024 -1.11258 0
M  V30 6260 H 596.851 3.05403 -0.643075 0
M  V30 6261 N 597.152 0.631951 1.44375 0
M  V30 6262 C 598.398 0.13697 2.02337 0
M  V30 6263 C 598.731 -1.23826 1.49602 0
M  V30 6264 O 598.006 -1.8221 0.680415 0
M  V30 6265 C 598.289 0.124536 3.59885 0
M  V30 6266 C 598.142 1.53217 4.229 0
M  V30 6267 C 599.461 -0.550481 4.36644 0
M  V30 6268 H 596.58 0.051247 0.735216 0
M  V30 6269 H 599.222 0.808581 1.71936 0
M  V30 6270 H 597.372 -0.44737 3.85916 0
M  V30 6271 H 599.044 2.15303 4.07973 0
M  V30 6272 H 597.287 2.0858 3.80364 0
M  V30 6273 H 597.958 1.4755 5.31914 0
M  V30 6274 H 600.434 -0.0641154 4.16051 0
M  V30 6275 H 599.31 -0.528371 5.46351 0
M  V30 6276 H 599.571 -1.62097 4.11311 0
M  V30 6277 N 598.631 -1.53133 0.372548 0
M  V30 6278 C 599.579 -2.27473 -0.485681 0
M  V30 6279 C 600.573 -1.30719 -1.07745 0
M  V30 6280 O 601.779 -1.48321 -1.01985 0
M  V30 6281 H 598.154 -0.731269 -0.175356 0
M  V30 6282 H 600.125 -2.97955 0.162986 0
M  V30 6283 C 598.874 -3.08191 -1.60978 0
M  V30 6284 H 598.197 -3.82488 -1.16373 0
M  V30 6285 H 599.637 -3.63373 -2.18485 0
M  V30 6286 C 598.096 -2.19461 -2.55614 0
M  V30 6287 O 598.626 -1.81008 -3.58607 0
M  V30 6288 N 596.832 -1.83955 -2.24965 0
M  V30 6289 H 596.379 -2.15423 -1.41247 0
M  V30 6290 H 596.337 -1.24874 -2.88538 0
M  V30 6291 N 600.109 -0.101901 -1.5727 0
M  V30 6292 C 601.357 0.559091 -1.94213 0
M  V30 6293 C 601.678 1.68297 -0.984948 0
M  V30 6294 O 600.948 1.95863 -0.0381975 0
M  V30 6295 H 599.528 0.20952 -0.717015 0
M  V30 6296 H 602.19 -0.166831 -1.94185 0
M  V30 6297 H 601.286 0.96485 -2.96811 0
M  V30 6298 N 601.587 1.56661 0.17182 0
M  V30 6299 C 602.815 1.861 0.904115 0
M  V30 6300 C 603.23 0.687227 1.75848 0
M  V30 6301 O 602.587 -0.343671 1.79235 0
M  V30 6302 C 602.638 3.14568 1.78127 0
M  V30 6303 O 602.359 4.27422 0.961366 0
M  V30 6304 C 603.86 3.5735 2.62327 0
M  V30 6305 H 601.08 0.617445 0.262684 0
M  V30 6306 H 603.624 2.03775 0.172068 0
M  V30 6307 H 601.779 2.98721 2.46666 0
M  V30 6308 H 602.193 5.00725 1.56123 0
M  V30 6309 H 603.667 4.50144 3.1949 0
M  V30 6310 H 604.144 2.81445 3.37173 0
M  V30 6311 H 604.75 3.75807 1.99121 0
M  V30 6312 N 603.065 -0.440357 1.51323 0
M  V30 6313 C 604.313 -1.18769 1.63518 0
M  V30 6314 C 604.634 -1.91793 0.352201 0
M  V30 6315 O 603.904 -1.85432 -0.631811 0
M  V30 6316 H 602.484 -0.441408 0.602634 0
M  V30 6317 H 605.146 -0.505162 1.8824 0
M  V30 6318 H 604.242 -1.91892 2.46138 0
M  V30 6319 N 604.543 -1.41418 -0.695603 0
M  V30 6320 C 605.453 -1.45622 -1.83933 0
M  V30 6321 C 606.469 -0.346825 -1.70508 0
M  V30 6322 O 607.645 -0.59454 -1.92424 0
M  V30 6323 C 604.71 -1.33627 -3.19914 0
M  V30 6324 C 603.771 -2.54882 -3.45447 0
M  V30 6325 C 603.004 -2.43449 -4.7494 0
M  V30 6326 O 603.227 -1.45905 -5.51424 0
M  V30 6327 O 602.161 -3.33206 -5.01256 0
M  V30 6328 H 605.987 -2.42114 -1.83342 0
M  V30 6329 H 603.572 -1.22956 -0.848658 0
M  V30 6330 H 605.454 -1.29221 -4.01098 0
M  V30 6331 H 604.129 -0.402508 -3.21188 0
M  V30 6332 H 603.036 -2.64865 -2.64192 0
M  V30 6333 H 604.369 -3.47087 -3.48987 0
M  V30 6334 N 606.021 0.929856 -1.27246 0
M  V30 6335 C 606.969 2.05151 -1.09616 0
M  V30 6336 C 607.963 1.69388 -0.0198617 0
M  V30 6337 O 609.169 1.79124 -0.177417 0
M  V30 6338 H 605.544 0.671909 -0.337701 0
M  V30 6339 H 607.515 2.17168 -2.04648 0
M  V30 6340 C 606.264 3.3934 -0.757851 0
M  V30 6341 H 605.587 3.67343 -1.57795 0
M  V30 6342 H 607.027 4.18603 -0.674358 0
M  V30 6343 C 605.486 3.32582 0.537658 0
M  V30 6344 O 606.016 3.69633 1.57271 0
M  V30 6345 N 604.222 2.8568 0.532478 0
M  V30 6346 H 603.769 2.55725 -0.310233 0
M  V30 6347 H 603.727 2.81541 1.39936 0
M  V30 6348 N 607.499 1.09233 1.13605 0
M  V30 6349 C 608.747 0.825525 1.84471 0
M  V30 6350 C 609.068 -0.650702 1.83823 0
M  V30 6351 O 608.338 -1.47204 1.29259 0
M  V30 6352 H 606.918 0.3024 0.683054 0
M  V30 6353 H 609.58 1.38006 1.37624 0
M  V30 6354 H 608.676 1.17727 2.89045 0
M  V30 6355 N 608.977 -1.30795 0.87923 0
M  V30 6356 C 610.393 -1.48981 0.57243 0
M  V30 6357 C 610.593 -1.80719 -0.891236 0
M  V30 6358 O 609.649 -1.89136 -1.67283 0
M  V30 6359 C 610.962 -2.61721 1.48063 0
M  V30 6360 C 612.51 -2.75603 1.48365 0
M  V30 6361 C 612.985 -3.91449 2.37763 0
M  V30 6362 N 614.476 -3.98751 2.35695 0
M  V30 6363 C 615.211 -4.87684 3.01583 0
M  V30 6364 N 614.707 -5.81454 3.76674 0
M  V30 6365 N 616.5 -4.81005 2.90844 0
M  V30 6366 H 608.651 -1.08465 1.82617 0
M  V30 6367 H 610.914 -0.536813 0.781368 0
M  V30 6368 H 610.62 -2.45073 2.52254 0
M  V30 6369 H 610.494 -3.58071 1.18596 0
M  V30 6370 H 612.881 -2.9166 0.44927 0
M  V30 6371 H 612.962 -1.79891 1.81859 0
M  V30 6372 H 612.606 -3.76149 3.41283 0
M  V30 6373 H 612.536 -4.86487 2.01589 0
M  V30 6374 H 615.027 -3.31668 1.81121 0
M  V30 6375 H 615.34 -6.46063 4.24054 0
M  V30 6376 H 613.685 -5.81403 3.80782 0
M  V30 6377 H 616.876 -4.06728 2.31711 0
M  V30 6378 H 617.049 -5.50107 3.42471 0
M  V30 6379 N 610.455 -0.639598 -1.44038 0
M  V30 6380 C 611.402 0.0602458 -2.30721 0
M  V30 6381 C 612.372 0.828352 -1.43971 0
M  V30 6382 O 613.557 0.807693 -1.72861 0
M  V30 6383 C 610.697 1.03008 -3.29368 0
M  V30 6384 C 609.81 0.259502 -4.3122 0
M  V30 6385 C 608.945 1.22191 -5.16955 0
M  V30 6386 C 607.984 0.440978 -6.10509 0
M  V30 6387 N 607.121 1.35428 -6.88915 0
M  V30 6388 H 611.961 -0.684867 -2.90023 0
M  V30 6389 H 609.498 -0.349509 -1.42888 0
M  V30 6390 H 611.456 1.60583 -3.85057 0
M  V30 6391 H 610.086 1.74222 -2.71747 0
M  V30 6392 H 609.138 -0.432317 -3.77935 0
M  V30 6393 H 610.45 -0.348347 -4.97582 0
M  V30 6394 H 609.604 1.86873 -5.77203 0
M  V30 6395 H 608.343 1.86367 -4.50687 0
M  V30 6396 H 607.348 -0.219279 -5.49363 0
M  V30 6397 H 608.573 -0.196192 -6.78817 0
M  V30 6398 H 606.519 1.9831 -6.25307 0
M  V30 6399 H 606.436 0.800657 -7.51748 0
M  V30 6400 H 607.704 1.98967 -7.53679 0
M  V30 6401 N 611.933 1.52934 -0.380664 0
M  V30 6402 C 613.173 2.03378 0.204161 0
M  V30 6403 C 613.537 1.26132 1.44758 0
M  V30 6404 O 614.738 1.66657 2.109 0
M  V30 6405 C 613.009 3.54241 0.474118 0
M  V30 6406 S 614.568 4.26529 1.03046 0
M  V30 6407 H 611.386 0.708608 0.0582719 0
M  V30 6408 H 613.988 1.88263 -0.527017 0
M  V30 6409 H 612.692 4.08055 -0.438088 0
M  V30 6410 H 612.223 3.73547 1.23396 0
M  V30 6411 H 614.238 4.38964 2.31354 0
M  V30 6412 N 613.412 0.11024 1.57214 0
M  V30 6413 C 614.637 -0.561179 1.99664 0
M  V30 6414 C 615.062 -1.59985 0.989266 0
M  V30 6415 O 614.42 -1.81255 -0.0402399 0
M  V30 6416 C 614.468 -1.17189 3.41027 0
M  V30 6417 O 613.572 -2.28755 3.4314 0
M  V30 6418 H 612.913 -0.14101 0.648855 0
M  V30 6419 H 615.443 0.196128 2.03658 0
M  V30 6420 H 615.453 -1.50954 3.79047 0
M  V30 6421 H 614.128 -0.411041 4.13864 0
M  V30 6422 H 612.705 -1.96495 3.16929 0
M  V30 6423 N 614.89 -1.56749 -0.16351 0
M  V30 6424 C 615.838 -1.97939 -1.22159 0
M  V30 6425 C 616.832 -0.869288 -1.45395 0
M  V30 6426 O 618.038 -1.05443 -1.45883 0
M  V30 6427 H 614.413 -0.629869 -0.410815 0
M  V30 6428 H 616.384 -2.86115 -0.847381 0
M  V30 6429 C 615.133 -2.36206 -2.55151 0
M  V30 6430 H 614.456 -3.2117 -2.38097 0
M  V30 6431 H 615.896 -2.68863 -3.27854 0
M  V30 6432 C 614.355 -1.20841 -3.14482 0
M  V30 6433 O 614.885 -0.500258 -3.98573 0
M  V30 6434 N 613.091 -0.976943 -2.73686 0
M  V30 6435 H 612.638 -1.55457 -2.05404 0
M  V30 6436 H 612.596 -0.206912 -3.13718 0
M  V30 6437 N 616.368 0.432326 -1.51554 0
M  V30 6438 C 617.617 1.17831 -1.63703 0
M  V30 6439 C 617.93 1.92229 -0.36156 0
M  V30 6440 O 619.136 2.69069 -0.362495 0
M  V30 6441 C 617.592 2.14318 -2.89129 0
M  V30 6442 C 617.2 1.45544 -4.23699 0
M  V30 6443 C 618.944 2.89319 -3.10636 0
M  V30 6444 C 616.851 2.40545 -5.4027 0
M  V30 6445 H 615.781 0.443533 -0.60975 0
M  V30 6446 H 618.432 0.444878 -1.78026 0
M  V30 6447 H 616.814 2.91117 -2.68452 0
M  V30 6448 H 617.988 0.742693 -4.54775 0
M  V30 6449 H 616.303 0.826772 -4.0811 0
M  V30 6450 H 618.9 3.60495 -3.94902 0
M  V30 6451 H 619.243 3.50951 -2.23918 0
M  V30 6452 H 619.776 2.19625 -3.31677 0
M  V30 6453 H 616.515 1.83594 -6.29264 0
M  V30 6454 H 616.035 3.09859 -5.13563 0
M  V30 6455 H 617.714 3.01569 -5.72421 0
M  V30 6456 N 617.846 1.41785 0.688094 0
M  V30 6457 C 619.071 1.45117 1.48175 0
M  V30 6458 C 619.496 0.060129 1.88004 0
M  V30 6459 O 618.854 -0.938385 1.55126 0
M  V30 6460 C 618.902 2.37224 2.71583 0
M  V30 6461 O 618.006 1.83443 3.69354 0
M  V30 6462 H 617.347 0.492208 0.445676 0
M  V30 6463 H 619.877 1.86329 0.845145 0
M  V30 6464 H 619.887 2.53353 3.19806 0
M  V30 6465 H 618.562 3.38293 2.41931 0
M  V30 6466 H 617.139 1.76802 3.28322 0
M  V30 6467 N 619.324 -0.923095 1.27737 0
M  V30 6468 C 620.573 -1.66581 1.13727 0
M  V30 6469 C 620.886 -1.9304 -0.315433 0
M  V30 6470 O 622.092 -2.65309 -0.57651 0
M  V30 6471 C 620.548 -3.00047 1.98745 0
M  V30 6472 C 620.156 -2.8127 3.48699 0
M  V30 6473 C 621.9 -3.77887 1.93395 0
M  V30 6474 C 619.807 -4.1032 4.25901 0
M  V30 6475 H 618.737 -0.624834 0.422017 0
M  V30 6476 H 621.388 -1.02514 1.52194 0
M  V30 6477 H 619.77 -3.65197 1.53125 0
M  V30 6478 H 620.944 -2.24859 4.02213 0
M  V30 6479 H 619.259 -2.16854 3.55476 0
M  V30 6480 H 621.856 -4.73526 2.48348 0
M  V30 6481 H 622.199 -4.06264 0.908605 0
M  V30 6482 H 622.732 -3.19541 2.36935 0
M  V30 6483 H 619.471 -3.8712 5.28978 0
M  V30 6484 H 618.991 -4.66377 3.77163 0
M  V30 6485 H 620.67 -4.78648 4.35321 0
M  V30 6486 N 620.802 -1.09834 -1.13024 0
M  V30 6487 C 622.05 -0.835297 -1.8403 0
M  V30 6488 C 622.371 0.640944 -1.84165 0
M  V30 6489 O 621.641 1.46517 -1.30037 0
M  V30 6490 H 620.221 -0.306018 -0.681441 0
M  V30 6491 H 622.883 -1.38734 -1.36891 0
M  V30 6492 H 621.979 -1.19258 -2.88416 0
M  V30 6493 N 622.28 1.30327 -0.886154 0
M  V30 6494 C 623.557 1.90922 -0.425217 0
M  V30 6495 C 623.937 1.80533 1.09413 0
M  V30 6496 O 623.285 1.2233 1.92996 0
M  V30 6497 C 623.495 3.36529 -0.924638 0
M  V30 6498 C 624.843 4.13598 -0.960305 0
M  V30 6499 O 625.867 3.45377 -0.871382 0
M  V30 6500 O 624.726 5.35482 -1.09184 0
M  V30 6501 H 621.82 0.81668 -0.130238 0
M  V30 6502 H 624.366 1.38886 -0.975132 0
M  V30 6503 H 623.138 3.38181 -1.96849 0
M  V30 6504 H 622.761 3.96021 -0.353955 0
M  V30 6505 N 623.758 0.647228 1.43697 0
M  V30 6506 C 624.668 -0.0487997 2.34549 0
M  V30 6507 C 625.684 -0.818586 1.53542 0
M  V30 6508 O 626.86 -0.767195 1.86215 0
M  V30 6509 C 623.925 -1.00734 3.31743 0
M  V30 6510 C 622.986 -0.23515 4.28655 0
M  V30 6511 C 622.219 -1.14803 5.21206 0
M  V30 6512 O 622.442 -2.38717 5.18045 0
M  V30 6513 O 621.376 -0.623667 5.9866 0
M  V30 6514 H 625.202 0.698863 2.9555 0
M  V30 6515 H 622.787 0.407412 1.43738 0
M  V30 6516 H 624.669 -1.55837 3.91526 0
M  V30 6517 H 623.344 -1.73534 2.73254 0
M  V30 6518 H 622.251 0.359319 3.7237 0
M  V30 6519 H 623.584 0.453152 4.9011 0
M  V30 6520 N 625.236 -1.5273 0.388769 0
M  V30 6521 C 626.482 -2.01871 -0.193877 0
M  V30 6522 C 626.815 -1.27475 -1.46505 0
M  V30 6523 O 626.09 -0.375063 -1.90849 0
M  V30 6524 C 626.373 -3.5712 -0.462336 0
M  V30 6525 C 626.226 -4.42186 0.824091 0
M  V30 6526 C 627.545 -4.21881 -1.25319 0
M  V30 6527 H 624.664 -0.733764 -0.0689899 0
M  V30 6528 H 627.306 -1.82796 0.518231 0
M  V30 6529 H 625.456 -3.73504 -1.06896 0
M  V30 6530 H 627.128 -4.37554 1.46096 0
M  V30 6531 H 625.371 -4.09219 1.43952 0
M  V30 6532 H 626.042 -5.48828 0.590905 0
M  V30 6533 H 628.518 -4.0947 -0.73981 0
M  V30 6534 H 627.394 -5.30487 -1.40977 0
M  V30 6535 H 627.655 -3.79478 -2.26824 0
M  V30 6536 N 626.714 -0.118576 -1.57153 0
M  V30 6537 C 627.646 0.862247 -2.12363 0
M  V30 6538 C 628.659 1.23025 -1.06625 0
M  V30 6539 O 629.848 1.17927 -1.33998 0
M  V30 6540 C 626.948 2.16425 -2.60794 0
M  V30 6541 C 626.121 1.96801 -3.90626 0
M  V30 6542 C 625.18 3.10726 -4.2466 0
M  V30 6543 O 624.206 2.83659 -4.93484 0
M  V30 6544 N 625.408 4.37147 -3.81946 0
M  V30 6545 H 628.173 0.390564 -2.97144 0
M  V30 6546 H 625.734 0.0658591 -1.61766 0
M  V30 6547 H 627.726 2.91633 -2.80593 0
M  V30 6548 H 626.296 2.54943 -1.80895 0
M  V30 6549 H 625.516 1.05787 -3.7974 0
M  V30 6550 H 626.804 1.80993 -4.7552 0
M  V30 6551 H 626.202 4.62014 -3.26435 0
M  V30 6552 H 624.759 5.09229 -4.06853 0
M  V30 6553 N 628.193 1.56834 0.155195 0
M  V30 6554 C 629.44 1.82898 0.869179 0
M  V30 6555 C 629.768 0.698194 1.81537 0
M  V30 6556 O 629.023 -0.313404 1.93174 0
M  V30 6557 C 629.322 3.15239 1.68402 0
M  V30 6558 C 628.988 4.42123 0.885341 0
M  V30 6559 C 627.65 4.76583 0.664971 0
M  V30 6560 C 630.002 5.20178 0.326234 0
M  V30 6561 C 627.33 5.86566 -0.125346 0
M  V30 6562 C 629.682 6.3099 -0.45108 0
M  V30 6563 C 628.346 6.64006 -0.682102 0
M  V30 6564 H 627.616 0.66927 0.318055 0
M  V30 6565 H 630.263 1.91036 0.133241 0
M  V30 6566 H 628.568 3.02515 2.48982 0
M  V30 6567 H 630.265 3.32618 2.23978 0
M  V30 6568 H 626.855 4.15102 1.06716 0
M  V30 6569 H 631.039 4.93936 0.483787 0
M  V30 6570 H 626.295 6.10594 -0.313915 0
M  V30 6571 H 630.469 6.9067 -0.89149 0
M  V30 6572 H 628.096 7.49065 -1.29636 0
M  V30 6573 N 629.671 -0.424282 1.51781 0
M  V30 6574 C 630.581 -1.54087 1.76902 0
M  V30 6575 C 631.597 -1.61249 0.653826 0
M  V30 6576 O 632.773 -1.78247 0.937552 0
M  V30 6577 C 629.838 -2.8996 1.90063 0
M  V30 6578 C 628.899 -2.92809 3.13945 0
M  V30 6579 C 628.132 -4.22201 3.26469 0
M  V30 6580 O 628.355 -5.15286 2.44616 0
M  V30 6581 O 627.289 -4.31599 4.1953 0
M  V30 6582 H 631.115 -1.358 2.71647 0
M  V30 6583 H 628.7 -0.608618 1.36441 0
M  V30 6584 H 630.582 -3.70575 2.0063 0
M  V30 6585 H 629.257 -3.08347 0.985067 0
M  V30 6586 H 628.164 -2.11102 3.08847 0
M  V30 6587 H 629.497 -2.79369 4.05233 0
M  V30 6588 N 631.149 -1.42148 -0.680565 0
M  V30 6589 C 632.398 -1.41604 -1.43636 0
M  V30 6590 C 632.711 -0.0337887 -1.95571 0
M  V30 6591 O 633.917 0.0942588 -2.71336 0
M  V30 6592 C 632.373 -2.49056 -2.59806 0
M  V30 6593 C 631.981 -3.9326 -2.14594 0
M  V30 6594 C 633.725 -2.5767 -3.37352 0
M  V30 6595 C 631.632 -4.92232 -3.27813 0
M  V30 6596 H 630.562 -0.526656 -0.539583 0
M  V30 6597 H 633.213 -1.68033 -0.737369 0
M  V30 6598 H 631.595 -2.15782 -3.32045 0
M  V30 6599 H 632.769 -4.35858 -1.49546 0
M  V30 6600 H 631.084 -3.88443 -1.50002 0
M  V30 6601 H 633.681 -3.28794 -4.21662 0
M  V30 6602 H 634.024 -1.61837 -3.83555 0
M  V30 6603 H 634.557 -2.90109 -2.72179 0
M  V30 6604 H 631.296 -5.89522 -2.86607 0
M  V30 6605 H 630.816 -4.5427 -3.91661 0
M  V30 6606 H 632.495 -5.13684 -3.93367 0
M  V30 6607 N 632.627 0.916307 -1.28225 0
M  V30 6608 C 633.852 1.7043 -1.18188 0
M  V30 6609 C 634.277 1.86346 0.256274 0
M  V30 6610 O 633.635 1.37175 1.18544 0
M  V30 6611 C 633.683 3.07546 -1.88275 0
M  V30 6612 O 632.787 3.94904 -1.18848 0
M  V30 6613 H 632.128 0.521967 -0.410423 0
M  V30 6614 H 634.658 1.14589 -1.69501 0
M  V30 6615 H 634.668 3.57793 -1.96082 0
M  V30 6616 H 633.343 2.95279 -2.92887 0
M  V30 6617 H 631.92 3.53339 -1.19187 0
M  V30 6618 N 634.105 1.10431 1.1244 0
M  V30 6619 C 635.354 0.841539 1.83306 0
M  V30 6620 C 635.667 -0.634961 1.85007 0
M  V30 6621 O 636.873 -1.01363 2.51869 0
M  V30 6622 C 635.329 1.45565 3.29149 0
M  V30 6623 C 634.937 2.96544 3.35806 0
M  V30 6624 C 636.681 1.27227 4.04986 0
M  V30 6625 C 634.588 3.5099 4.75983 0
M  V30 6626 H 633.518 0.311156 0.686803 0
M  V30 6627 H 636.169 1.32829 1.26604 0
M  V30 6628 H 634.551 0.896574 3.85717 0
M  V30 6629 H 635.725 3.58766 2.89177 0
M  V30 6630 H 634.04 3.14036 2.73442 0
M  V30 6631 H 636.637 1.65348 5.08492 0
M  V30 6632 H 636.98 0.213834 4.1575 0
M  V30 6633 H 637.513 1.79941 3.54776 0
M  V30 6634 H 634.252 4.56499 4.70413 0
M  V30 6635 H 633.772 2.93535 5.23065 0
M  V30 6636 H 635.451 3.48808 5.44924 0
M  V30 6637 N 635.583 -1.29855 0.893053 0
M  V30 6638 C 636.811 -1.99976 0.530788 0
M  V30 6639 C 637.226 -1.66889 -0.882799 0
M  V30 6640 O 636.583 -0.910352 -1.58173 0
M  V30 6641 C 636.634 -3.54547 0.705587 0
M  V30 6642 O 636.355 -3.86458 2.06353 0
M  V30 6643 C 637.856 -4.41937 0.347387 0
M  V30 6644 H 635.076 -0.639129 0.204339 0
M  V30 6645 H 637.62 -1.65549 1.20057 0
M  V30 6646 H 635.775 -3.87311 0.0830685 0
M  V30 6647 H 636.189 -4.81146 2.08803 0
M  V30 6648 H 637.663 -5.4954 0.520557 0
M  V30 6649 H 638.14 -4.33339 -0.715139 0
M  V30 6650 H 638.746 -4.14633 0.946567 0
M  V30 6651 N 637.061 -0.65484 -1.43351 0
M  V30 6652 C 638.286 -0.175046 -2.0666 0
M  V30 6653 C 638.711 1.15104 -1.4877 0
M  V30 6654 O 638.069 1.71144 -0.598279 0
M  V30 6655 C 638.117 -0.0991544 -3.60464 0
M  V30 6656 O 637.221 0.938169 -4.01587 0
M  V30 6657 H 636.562 -0.0956148 -0.65708 0
M  V30 6658 H 639.092 -0.898222 -1.83829 0
M  V30 6659 H 639.102 0.083632 -4.07914 0
M  V30 6660 H 637.777 -1.06719 -4.01975 0
M  V30 6661 H 636.354 0.72804 -3.65724 0
M  V30 6662 N 638.539 1.52521 -0.396863 0
M  V30 6663 C 639.487 2.28217 0.44943 0
M  V30 6664 C 640.481 1.32416 1.05652 0
M  V30 6665 O 641.687 1.49925 0.996124 0
M  V30 6666 H 638.062 0.733966 0.1637 0
M  V30 6667 H 640.033 2.97658 -0.210367 0
M  V30 6668 C 638.782 3.10713 1.56054 0
M  V30 6669 H 638.105 3.84291 1.10273 0
M  V30 6670 H 639.545 3.66803 2.12677 0
M  V30 6671 C 638.004 2.23499 2.52091 0
M  V30 6672 O 638.534 1.8669 3.55682 0
M  V30 6673 N 636.74 1.8751 2.2201 0
M  V30 6674 H 636.287 2.17643 1.37802 0
M  V30 6675 H 636.245 1.29448 2.86514 0
M  V30 6676 N 640.017 0.126909 1.57088 0
M  V30 6677 C 640.964 -0.82036 2.15728 0
M  V30 6678 C 641.934 -1.25811 1.08447 0
M  V30 6679 O 643.119 -1.33422 1.36393 0
M  V30 6680 C 640.259 -2.06199 2.76724 0
M  V30 6681 C 639.372 -1.67188 3.98337 0
M  V30 6682 C 638.507 -2.86378 4.47393 0
M  V30 6683 C 637.546 -2.43644 5.61519 0
M  V30 6684 N 636.683 -3.55775 6.05284 0
M  V30 6685 H 641.523 -0.313472 2.96347 0
M  V30 6686 H 639.06 -0.14303 1.46403 0
M  V30 6687 H 641.018 -2.78959 3.10222 0
M  V30 6688 H 639.648 -2.54333 1.98782 0
M  V30 6689 H 638.7 -0.842714 3.70948 0
M  V30 6690 H 640.012 -1.31789 4.81075 0
M  V30 6691 H 639.166 -3.67353 4.82842 0
M  V30 6692 H 637.905 -3.25009 3.63621 0
M  V30 6693 H 636.91 -1.61104 5.25667 0
M  V30 6694 H 638.135 -2.06122 6.47063 0
M  V30 6695 H 636.081 -3.94065 5.24451 0
M  V30 6696 H 635.998 -3.24325 6.82898 0
M  V30 6697 H 637.266 -4.37166 6.45373 0
M  V30 6698 N 641.495 -1.56914 -0.146875 0
M  V30 6699 C 642.735 -1.85163 -0.86568 0
M  V30 6700 C 643.099 -0.711215 -1.78342 0
M  V30 6701 O 644.3 -0.874754 -2.54168 0
M  V30 6702 C 642.571 -3.18593 -1.61967 0
M  V30 6703 S 644.13 -3.68397 -2.38388 0
M  V30 6704 H 640.948 -0.6494 -0.289483 0
M  V30 6705 H 643.55 -1.95096 -0.125679 0
M  V30 6706 H 642.254 -3.99562 -0.93694 0
M  V30 6707 H 641.785 -3.11666 -2.40058 0
M  V30 6708 H 643.8 -3.37672 -3.63582 0
M  V30 6709 N 642.974 0.416227 -1.52004 0
M  V30 6710 C 644.385 0.995319 -1.57957 0
M  V30 6711 C 644.736 1.91744 -0.415754 0
M  V30 6712 O 643.861 2.11349 0.464808 0
M  V30 6713 C 644.456 1.81191 -2.86278 0
M  V30 6714 C 643.015 2.34115 -2.94732 0
M  V30 6715 C 642.162 1.139 -2.52828 0
M  V30 6716 H 645.113 0.196716 -1.57476 0
M  V30 6717 H 645.134 2.66859 -2.71231 0
M  V30 6718 H 644.646 1.14051 -3.70963 0
M  V30 6719 H 642.747 3.04647 -2.14525 0
M  V30 6720 H 642.86 2.65466 -3.98829 0
M  V30 6721 H 641.224 1.49081 -2.06511 0
M  V30 6722 H 642.007 0.483383 -3.3988 0
M  V30 6723 N 644.452 1.42507 0.673017 0
M  V30 6724 C 645.399 1.46124 1.78651 0
M  V30 6725 C 646.369 0.313007 1.63124 0
M  V30 6726 O 647.554 0.517337 1.83653 0
M  V30 6727 C 644.694 1.3711 3.16694 0
M  V30 6728 C 643.807 2.61983 3.43495 0
M  V30 6729 C 642.942 2.45098 4.71275 0
M  V30 6730 C 641.981 3.65336 4.91117 0
M  V30 6731 N 641.118 3.47383 6.10139 0
M  V30 6732 H 645.958 2.4128 1.74895 0
M  V30 6733 H 643.495 1.19788 0.853766 0
M  V30 6734 H 645.453 1.29881 3.96468 0
M  V30 6735 H 644.083 0.45549 3.1957 0
M  V30 6736 H 643.135 2.79571 2.57961 0
M  V30 6737 H 644.447 3.51355 3.5405 0
M  V30 6738 H 643.601 2.35466 5.59143 0
M  V30 6739 H 642.34 1.53219 4.63007 0
M  V30 6740 H 641.345 3.754 4.0169 0
M  V30 6741 H 642.57 4.58199 5.01229 0
M  V30 6742 H 640.516 2.58222 6.0304 0
M  V30 6743 H 640.433 4.30344 6.21563 0
M  V30 6744 H 641.701 3.41565 7.00681 0
M  V30 6745 N 645.93 -0.909495 1.28709 0
M  V30 6746 C 646.877 -2.01245 1.13 0
M  V30 6747 C 647.847 -1.6608 0.0259684 0
M  V30 6748 O 649.032 -1.89835 0.191687 0
M  V30 6749 C 646.172 -3.35644 0.802315 0
M  V30 6750 C 645.285 -3.83653 1.98582 0
M  V30 6751 C 644.42 -5.06582 1.59837 0
M  V30 6752 C 643.459 -5.46934 2.74827 0
M  V30 6753 N 642.596 -6.61053 2.36546 0
M  V30 6754 H 647.436 -2.14013 2.0737 0
M  V30 6755 H 644.973 -1.0482 1.03205 0
M  V30 6756 H 646.931 -4.12963 0.593057 0
M  V30 6757 H 645.561 -3.22631 -0.104457 0
M  V30 6758 H 644.613 -3.02454 2.30708 0
M  V30 6759 H 645.925 -4.09515 2.84779 0
M  V30 6760 H 645.079 -5.91457 1.35143 0
M  V30 6761 H 643.818 -4.82537 0.707753 0
M  V30 6762 H 642.823 -4.60599 3.00215 0
M  V30 6763 H 644.048 -5.72965 3.64538 0
M  V30 6764 H 641.994 -6.3863 1.49959 0
M  V30 6765 H 641.911 -6.86662 3.16277 0
M  V30 6766 H 643.179 -7.49221 2.15146 0
M  V30 6767 N 647.408 -1.11026 -1.11852 0
M  V30 6768 C 648.685 -0.768347 -1.79877 0
M  V30 6769 C 649.065 0.744261 -1.97545 0
M  V30 6770 O 648.413 1.67271 -1.55669 0
M  V30 6771 C 648.623 -1.52648 -3.13846 0
M  V30 6772 C 649.971 -1.70297 -3.88953 0
M  V30 6773 O 650.995 -1.49037 -3.23522 0
M  V30 6774 O 649.854 -2.05593 -5.06353 0
M  V30 6775 H 646.948 -0.277891 -0.778913 0
M  V30 6776 H 649.494 -1.21343 -1.18633 0
M  V30 6777 H 648.266 -2.55564 -2.96315 0
M  V30 6778 H 647.889 -1.07466 -3.82801 0
M  V30 6779 N 648.886 1.2938 -0.899927 0
M  V30 6780 C 650.111 2.00228 -0.540692 0
M  V30 6781 C 650.536 1.66909 0.867359 0
M  V30 6782 O 649.894 0.893824 1.57735 0
M  V30 6783 C 649.942 3.52921 -0.740232 0
M  V30 6784 O 649.046 4.11879 0.207154 0
M  V30 6785 H 648.387 0.629505 -0.211233 0
M  V30 6786 H 650.917 1.6487 -1.21158 0
M  V30 6787 H 650.927 4.0287 -0.644973 0
M  V30 6788 H 649.602 3.76508 -1.76677 0
M  V30 6789 H 648.179 3.72845 0.0643315 0
M  V30 6790 N 650.364 0.662433 1.43002 0
M  V30 6791 C 651.641 0.109096 1.95296 0
M  V30 6792 C 652.021 -1.37313 1.60338 0
M  V30 6793 O 651.369 -2.1032 0.893187 0
M  V30 6794 C 651.579 0.365096 3.47085 0
M  V30 6795 C 652.927 0.274964 4.23709 0
M  V30 6796 O 653.951 0.29816 3.5495 0
M  V30 6797 O 652.81 0.206549 5.4611 0
M  V30 6798 H 649.904 -0.00429724 0.826989 0
M  V30 6799 H 652.45 0.736308 1.52894 0
M  V30 6800 H 651.222 1.39237 3.65689 0
M  V30 6801 H 650.845 -0.294733 3.96506 0
M  V30 6802 N 651.842 -1.52309 0.404946 0
M  V30 6803 C 653.067 -2.06666 -0.1743 0
M  V30 6804 C 653.492 -1.27341 -1.38441 0
M  V30 6805 O 652.85 -0.302539 -1.78758 0
M  V30 6806 C 652.898 -3.57014 -0.507262 0
M  V30 6807 O 652.002 -3.80144 -1.59889 0
M  V30 6808 H 651.343 -0.663807 -0.0160273 0
M  V30 6809 H 653.873 -1.96297 0.576937 0
M  V30 6810 H 653.883 -4.00724 -0.767098 0
M  V30 6811 H 652.558 -4.14184 0.377368 0
M  V30 6812 H 651.135 -3.48316 -1.33155 0
M  V30 6813 N 653.32 -0.135238 -1.57019 0
M  V30 6814 C 654.567 0.518794 -1.95742 0
M  V30 6815 C 654.895 1.65642 -1.01947 0
M  V30 6816 O 654.15 1.95645 -0.0464016 0
M  V30 6817 C 654.449 1.07694 -3.40788 0
M  V30 6818 C 654.115 0.058992 -4.50861 0
M  V30 6819 C 652.777 -0.220872 -4.80693 0
M  V30 6820 C 655.129 -0.633856 -5.17331 0
M  V30 6821 C 652.457 -1.19959 -5.74305 0
M  V30 6822 C 654.809 -1.60131 -6.11997 0
M  V30 6823 C 653.473 -1.889 -6.40213 0
M  V30 6824 H 652.743 0.18984 -0.716269 0
M  V30 6825 H 655.39 -0.219581 -1.90237 0
M  V30 6826 H 653.695 1.89241 -3.43067 0
M  V30 6827 H 655.392 1.59137 -3.68071 0
M  V30 6828 H 651.982 0.287304 -4.27636 0
M  V30 6829 H 656.166 -0.430823 -4.94427 0
M  V30 6830 H 651.422 -1.42905 -5.94465 0
M  V30 6831 H 655.596 -2.14376 -6.62583 0
M  V30 6832 H 653.223 -2.64891 -7.12556 0
M  V30 6833 N 654.798 1.5699 0.138552 0
M  V30 6834 C 655.745 1.98899 1.17081 0
M  V30 6835 C 656.715 0.857922 1.42228 0
M  V30 6836 O 657.9 1.12065 1.54422 0
M  V30 6837 C 655.04 2.38189 2.4972 0
M  V30 6838 C 654.153 3.64624 2.31674 0
M  V30 6839 C 653.288 3.9298 3.57407 0
M  V30 6840 C 652.327 5.1266 3.34435 0
M  V30 6841 N 651.464 5.36983 4.5232 0
M  V30 6842 H 656.304 2.86881 0.80642 0
M  V30 6843 H 653.841 1.41925 0.386727 0
M  V30 6844 H 655.799 2.59 3.2707 0
M  V30 6845 H 654.429 1.53275 2.84089 0
M  V30 6846 H 653.481 3.51542 1.45337 0
M  V30 6847 H 654.793 4.52131 2.10664 0
M  V30 6848 H 653.947 4.14335 4.43183 0
M  V30 6849 H 652.686 3.03912 3.8143 0
M  V30 6850 H 651.691 4.9117 2.47048 0
M  V30 6851 H 652.916 6.03288 3.11802 0
M  V30 6852 H 650.862 4.50871 4.76499 0
M  V30 6853 H 650.779 6.18775 4.34343 0
M  V30 6854 H 652.047 5.62842 5.39285 0
M  V30 6855 N 656.276 -0.40816 1.52223 0
M  V30 6856 C 657.525 -1.15212 1.65557 0
M  V30 6857 C 657.838 -1.9163 0.392096 0
M  V30 6858 O 659.044 -2.68458 0.405256 0
M  V30 6859 C 657.5 -2.09691 2.92502 0
M  V30 6860 C 657.108 -1.38785 4.25961 0
M  V30 6861 C 658.852 -2.8434 3.152 0
M  V30 6862 C 656.759 -2.31919 5.44029 0
M  V30 6863 H 655.689 -0.433776 0.616729 0
M  V30 6864 H 658.34 -0.4165 1.78711 0
M  V30 6865 H 656.722 -2.8681 2.7305 0
M  V30 6866 H 657.896 -0.670248 4.55899 0
M  V30 6867 H 656.211 -0.761741 4.09373 0
M  V30 6868 H 658.808 -3.54166 4.00587 0
M  V30 6869 H 659.151 -3.47344 2.29473 0
M  V30 6870 H 659.684 -2.14321 3.35129 0
M  V30 6871 H 656.423 -1.7356 6.32105 0
M  V30 6872 H 655.943 -3.0165 5.18428 0
M  V30 6873 H 657.622 -2.92424 5.77146 0
M  V30 6874 N 657.755 -1.42862 -0.66545 0
M  V30 6875 C 659.171 -1.25993 -0.979687 0
M  V30 6876 C 659.371 -0.170831 -2.00775 0
M  V30 6877 O 658.427 0.454827 -2.4837 0
M  V30 6878 C 659.74 -2.62005 -1.47559 0
M  V30 6879 C 661.288 -2.69437 -1.59288 0
M  V30 6880 C 661.763 -4.05838 -2.12272 0
M  V30 6881 N 663.254 -4.0784 -2.19592 0
M  V30 6882 C 663.989 -5.10205 -2.61684 0
M  V30 6883 N 663.485 -6.22949 -3.03161 0
M  V30 6884 N 665.278 -4.9756 -2.61516 0
M  V30 6885 H 657.429 -2.12395 0.0150493 0
M  V30 6886 H 659.692 -0.946355 -0.0558187 0
M  V30 6887 H 659.398 -3.42605 -0.794654 0
M  V30 6888 H 659.272 -2.86566 -2.45275 0
M  V30 6889 H 661.659 -1.89178 -2.26486 0
M  V30 6890 H 661.74 -2.48655 -0.600374 0
M  V30 6891 H 661.384 -4.86559 -1.4568 0
M  V30 6892 H 661.314 -4.23977 -3.12331 0
M  V30 6893 H 663.805 -3.26452 -1.90361 0
M  V30 6894 H 664.118 -6.96899 -3.33993 0
M  V30 6895 H 662.463 -6.2644 -3.00995 0
M  V30 6896 H 665.654 -4.08551 -2.28481 0
M  V30 6897 H 665.827 -5.77468 -2.93999 0
M  V30 6898 N 659.233 0.902656 -1.29189 0
M  V30 6899 C 660.644 1.46809 -1.15343 0
M  V30 6900 C 660.995 1.94568 0.252517 0
M  V30 6901 O 660.12 1.83454 1.14777 0
M  V30 6902 C 660.715 2.66829 -2.08776 0
M  V30 6903 C 659.274 3.19518 -1.98961 0
M  V30 6904 C 658.421 1.92212 -1.99874 0
M  V30 6905 H 661.372 0.714282 -1.41717 0
M  V30 6906 H 661.393 3.42465 -1.65826 0
M  V30 6907 H 660.905 2.32039 -3.11094 0
M  V30 6908 H 659.006 3.59008 -0.99721 0
M  V30 6909 H 659.119 3.84016 -2.86477 0
M  V30 6910 H 657.483 2.0979 -1.44431 0
M  V30 6911 H 658.266 1.59702 -3.03891 0
M  V30 6912 N 660.711 1.11618 1.11262 0
M  V30 6913 C 661.641 0.79846 2.19424 0
M  V30 6914 C 662.622 -0.234003 1.68483 0
M  V30 6915 O 663.807 -0.0970704 1.93957 0
M  V30 6916 C 660.937 0.242892 3.4645 0
M  V30 6917 C 659.891 1.20744 4.10615 0
M  V30 6918 C 659.217 0.512494 5.32238 0
M  V30 6919 C 660.517 2.55884 4.55325 0
M  V30 6920 H 662.211 1.70286 2.46258 0
M  V30 6921 H 659.757 0.820195 1.18359 0
M  V30 6922 H 661.71 0.00840447 4.21399 0
M  V30 6923 H 660.434 -0.696811 3.1908 0
M  V30 6924 H 659.093 1.42759 3.37662 0
M  V30 6925 H 658.741 -0.432075 5.01141 0
M  V30 6926 H 658.441 1.15583 5.7612 0
M  V30 6927 H 659.965 0.286842 6.09926 0
M  V30 6928 H 661.379 2.37946 5.21588 0
M  V30 6929 H 659.776 3.16216 5.10027 0
M  V30 6930 H 660.846 3.14968 3.68678 0
M  V30 6931 N 662.189 -1.289 0.906776 0
M  V30 6932 C 663.437 -1.94883 0.535266 0
M  V30 6933 C 663.758 -1.71784 -0.922791 0
M  V30 6934 O 663.028 -1.05359 -1.65156 0
M  V30 6935 H 661.608 -0.721109 0.194962 0
M  V30 6936 H 664.27 -1.57018 1.15461 0
M  V30 6937 H 663.366 -3.03591 0.723821 0
M  V30 6938 N 663.667 -0.670007 -1.42649 0
M  V30 6939 C 664.914 -0.190286 -2.01604 0
M  V30 6940 C 665.242 1.20155 -1.52948 0
M  V30 6941 O 664.497 1.81964 -0.72026 0
M  V30 6942 C 664.796 -0.168298 -3.57004 0
M  V30 6943 C 664.462 -1.50415 -4.25072 0
M  V30 6944 C 663.124 -1.86992 -4.43382 0
M  V30 6945 C 665.476 -2.38414 -4.63474 0
M  V30 6946 C 662.804 -3.11203 -4.97363 0
M  V30 6947 C 665.156 -3.61933 -5.18833 0
M  V30 6948 C 663.82 -3.98685 -5.35356 0
M  V30 6949 H 663.09 -0.0696305 -0.737721 0
M  V30 6950 H 665.737 -0.864044 -1.70899 0
M  V30 6951 H 664.042 0.588958 -3.87348 0
M  V30 6952 H 665.739 0.22001 -4.00396 0
M  V30 6953 H 662.329 -1.20959 -4.11177 0
M  V30 6954 H 666.513 -2.11442 -4.49006 0
M  V30 6955 H 661.769 -3.39705 -5.08341 0
M  V30 6956 H 665.943 -4.30326 -5.47533 0
M  V30 6957 H 663.57 -4.95009 -5.76949 0
M  V30 6958 N 665.145 1.52092 -0.413018 0
M  V30 6959 C 666.373 2.06274 0.160881 0
M  V30 6960 C 666.788 1.28273 1.38533 0
M  V30 6961 O 666.145 0.33563 1.79387 0
M  V30 6962 C 666.196 3.57921 0.507443 0
M  V30 6963 O 665.917 4.32971 -0.668388 0
M  V30 6964 C 667.418 4.28533 1.13465 0
M  V30 6965 H 664.638 0.67074 0.0186759 0
M  V30 6966 H 667.182 1.95951 -0.585092 0
M  V30 6967 H 665.337 3.68238 1.20331 0
M  V30 6968 H 665.751 5.23135 -0.378169 0
M  V30 6969 H 667.225 5.35804 1.32732 0
M  V30 6970 H 667.702 3.85258 2.10886 0
M  V30 6971 H 668.308 4.22595 0.478876 0
M  V30 6972 N 666.623 0.143563 1.56945 0
M  V30 6973 C 667.533 -0.810562 2.20152 0
M  V30 6974 C 668.549 -1.27431 1.1848 0
M  V30 6975 O 669.725 -1.33221 1.51044 0
M  V30 6976 C 666.79 -2.03353 2.80799 0
M  V30 6977 C 665.851 -1.61936 3.97587 0
M  V30 6978 C 665.084 -2.78403 4.55332 0
M  V30 6979 O 665.307 -3.94521 4.11958 0
M  V30 6980 O 664.241 -2.54073 5.45647 0
M  V30 6981 H 668.067 -0.30253 3.02189 0
M  V30 6982 H 665.652 -0.0832925 1.49168 0
M  V30 6983 H 667.534 -2.74932 3.19359 0
M  V30 6984 H 666.209 -2.53116 2.01777 0
M  V30 6985 H 665.116 -0.873904 3.6375 0
M  V30 6986 H 666.449 -1.16892 4.78118 0
M  V30 6987 N 668.101 -1.57061 -0.130224 0
M  V30 6988 C 669.011 -2.02802 -1.17934 0
M  V30 6989 C 670.027 -0.946378 -1.46013 0
M  V30 6990 O 671.203 -1.25708 -1.57351 0
M  V30 6991 C 668.268 -2.41368 -2.48882 0
M  V30 6992 C 667.329 -3.63561 -2.28301 0
M  V30 6993 C 666.562 -4.00279 -3.53005 0
M  V30 6994 O 666.785 -3.37463 -4.59864 0
M  V30 6995 O 665.719 -4.93441 -3.44673 0
M  V30 6996 H 669.545 -2.92394 -0.820958 0
M  V30 6997 H 667.13 -1.45475 -0.340197 0
M  V30 6998 H 669.012 -2.66958 -3.26054 0
M  V30 6999 H 667.687 -1.54926 -2.84217 0
M  V30 7000 H 666.594 -3.43136 -1.49025 0
M  V30 7001 H 667.927 -4.50673 -1.97875 0
M  V30 7002 N 669.579 0.400081 -1.52437 0
M  V30 7003 C 670.825 1.14788 -1.67187 0
M  V30 7004 C 671.158 1.89928 -0.405074 0
M  V30 7005 O 670.433 1.85118 0.596804 0
M  V30 7006 C 670.716 2.13507 -2.89977 0
M  V30 7007 C 670.569 1.42204 -4.2673 0
M  V30 7008 C 671.888 3.14069 -3.083 0
M  V30 7009 H 669.007 0.415939 -0.608411 0
M  V30 7010 H 671.649 0.432542 -1.85011 0
M  V30 7011 H 669.799 2.7451 -2.74912 0
M  V30 7012 H 671.471 0.842503 -4.53541 0
M  V30 7013 H 669.714 0.723939 -4.27717 0
M  V30 7014 H 670.385 2.14281 -5.08712 0
M  V30 7015 H 672.861 2.63148 -3.22323 0
M  V30 7016 H 671.737 3.80398 -3.95713 0
M  V30 7017 H 671.998 3.82309 -2.22018 0
M  V30 7018 N 671.057 1.43213 0.657864 0
M  V30 7019 C 671.967 1.50448 1.80007 0
M  V30 7020 C 672.983 0.39191 1.69529 0
M  V30 7021 O 674.159 0.645349 1.90781 0
M  V30 7022 C 671.224 1.42062 3.16258 0
M  V30 7023 C 670.285 2.63951 3.38568 0
M  V30 7024 C 669.518 2.55956 4.68318 0
M  V30 7025 O 669.741 1.60473 5.47361 0
M  V30 7026 O 668.675 3.46378 4.92245 0
M  V30 7027 H 672.501 2.4689 1.76858 0
M  V30 7028 H 670.086 1.25163 0.81576 0
M  V30 7029 H 671.968 1.3981 3.97531 0
M  V30 7030 H 670.643 0.487524 3.20008 0
M  V30 7031 H 669.55 2.71776 2.57077 0
M  V30 7032 H 670.883 3.56217 3.39662 0
M  V30 7033 N 672.536 -0.895792 1.29666 0
M  V30 7034 C 673.782 -1.64908 1.18039 0
M  V30 7035 C 674.115 -1.9236 -0.266682 0
M  V30 7036 O 673.39 -1.53682 -1.19214 0
M  V30 7037 C 673.673 -2.99574 1.99819 0
M  V30 7038 C 673.526 -2.79163 3.52687 0
M  V30 7039 C 674.845 -4.00358 1.82761 0
M  V30 7040 H 671.964 -0.598437 0.430165 0
M  V30 7041 H 674.606 -1.03736 1.59182 0
M  V30 7042 H 672.756 -3.51786 1.64859 0
M  V30 7043 H 674.428 -2.33821 3.9765 0
M  V30 7044 H 672.671 -2.13871 3.77414 0
M  V30 7045 H 673.342 -3.74871 4.05186 0
M  V30 7046 H 675.818 -3.57268 2.13304 0
M  V30 7047 H 674.694 -4.92514 2.42325 0
M  V30 7048 H 674.955 -4.35096 0.783839 0
M  V30 7049 N 674.014 -1.12206 -1.10668 0
M  V30 7050 C 675.263 -0.870595 -1.81944 0
M  V30 7051 C 675.576 0.605447 -1.85994 0
M  V30 7052 O 676.782 0.973433 -2.53449 0
M  V30 7053 C 675.238 -1.50783 -3.26791 0
M  V30 7054 C 674.846 -3.01849 -3.31046 0
M  V30 7055 C 676.59 -1.33653 -4.02911 0
M  V30 7056 C 674.497 -3.58518 -4.70339 0
M  V30 7057 H 673.427 -0.322043 -0.681765 0
M  V30 7058 H 676.078 -1.34827 -1.24475 0
M  V30 7059 H 674.46 -0.957825 -3.84242 0
M  V30 7060 H 675.634 -3.63321 -2.83433 0
M  V30 7061 H 673.949 -3.18346 -2.68411 0
M  V30 7062 H 676.546 -1.73416 -5.05797 0
M  V30 7063 H 676.889 -0.279949 -4.15358 0
M  V30 7064 H 677.422 -1.85562 -3.51868 0
M  V30 7065 H 674.161 -4.63925 -4.63091 0
M  V30 7066 H 673.681 -3.01819 -5.18329 0
M  V30 7067 H 675.36 -3.57434 -5.39305 0
M  V30 7068 N 675.492 1.28418 -0.913599 0
M  V30 7069 C 676.422 2.29713 -0.418847 0
M  V30 7070 C 677.403 1.62165 0.513469 0
M  V30 7071 O 678.588 1.89576 0.421235 0
M  V30 7072 C 675.718 3.45612 0.342042 0
M  V30 7073 C 674.672 4.25056 -0.501123 0
M  V30 7074 C 673.998 5.3329 0.388097 0
M  V30 7075 C 675.298 4.91814 -1.75831 0
M  V30 7076 H 676.992 2.71346 -1.26538 0
M  V30 7077 H 674.538 1.30446 -0.609903 0
M  V30 7078 H 676.491 4.15562 0.699 0
M  V30 7079 H 675.215 3.02858 1.22248 0
M  V30 7080 H 673.874 3.56833 -0.840598 0
M  V30 7081 H 673.522 4.8678 1.26707 0
M  V30 7082 H 673.222 5.87347 -0.172459 0
M  V30 7083 H 674.746 6.06088 0.74094 0
M  V30 7084 H 676.16 5.54126 -1.47026 0
M  V30 7085 H 674.557 5.55866 -2.26126 0
M  V30 7086 H 675.627 4.16313 -2.4862 0
M  V30 7087 N 676.97 0.677563 1.42291 0
M  V30 7088 C 677.902 -0.0380218 2.29168 0
M  V30 7089 C 678.915 -0.762714 1.43828 0
M  V30 7090 O 680.104 -0.616413 1.67519 0
M  V30 7091 C 677.204 -1.07761 3.21311 0
M  V30 7092 C 676.377 -0.42618 4.35319 0
M  V30 7093 C 675.436 -1.36592 5.08162 0
M  V30 7094 O 674.462 -0.865174 5.62586 0
M  V30 7095 N 675.664 -2.69909 5.13935 0
M  V30 7096 H 678.429 0.707766 2.91223 0
M  V30 7097 H 675.99 0.52219 1.53247 0
M  V30 7098 H 677.982 -1.70761 3.6691 0
M  V30 7099 H 676.552 -1.72511 2.60689 0
M  V30 7100 H 675.772 0.383385 3.92331 0
M  V30 7101 H 677.06 0.0275277 5.08793 0
M  V30 7102 H 676.458 -3.13129 4.71134 0
M  V30 7103 H 675.015 -3.2815 5.6317 0
M  V30 7104 N 678.448 -1.51871 0.421078 0
M  V30 7105 C 679.678 -2.06057 -0.149723 0
M  V30 7106 C 680.086 -1.29002 -1.38402 0
M  V30 7107 O 679.429 -0.338385 -1.80556 0
M  V30 7108 C 679.491 -3.55216 -0.553339 0
M  V30 7109 C 679.155 -4.53408 0.571879 0
M  V30 7110 C 680.152 -4.99586 1.4391 0
M  V30 7111 C 677.837 -4.967 0.747979 0
M  V30 7112 C 679.831 -5.87711 2.46727 0
M  V30 7113 C 677.518 -5.84619 1.77944 0
M  V30 7114 C 678.516 -6.30021 2.63748 0
M  V30 7115 O 678.204 -7.16197 3.65126 0
M  V30 7116 H 677.936 -0.675744 -0.0186102 0
M  V30 7117 H 680.49 -1.96618 0.594166 0
M  V30 7118 H 678.72 -3.62381 -1.34969 0
M  V30 7119 H 680.409 -3.91992 -1.05342 0
M  V30 7120 H 681.175 -4.66846 1.31451 0
M  V30 7121 H 677.054 -4.60913 0.0897357 0
M  V30 7122 H 680.598 -6.2307 3.13734 0
M  V30 7123 H 676.495 -6.16771 1.90429 0
M  V30 7124 H 677.263 -7.34337 3.61512 0
M  V30 7125 N 679.926 -0.151884 -1.56866 0
M  V30 7126 C 681.175 0.497992 -1.95456 0
M  V30 7127 C 681.488 1.6569 -1.03953 0
M  V30 7128 O 682.694 2.37173 -1.32142 0
M  V30 7129 C 681.15 0.93732 -3.4748 0
M  V30 7130 C 680.758 -0.194921 -4.47576 0
M  V30 7131 C 682.502 1.55671 -3.94926 0
M  V30 7132 C 680.409 0.26295 -5.90815 0
M  V30 7133 H 679.339 0.189811 -0.729717 0
M  V30 7134 H 681.99 -0.237011 -1.81963 0
M  V30 7135 H 680.372 1.72773 -3.56322 0
M  V30 7136 H 681.546 -0.971951 -4.50433 0
M  V30 7137 H 679.861 -0.72303 -4.10075 0
M  V30 7138 H 682.458 1.91099 -4.99385 0
M  V30 7139 H 682.801 2.44748 -3.36755 0
M  V30 7140 H 683.334 0.831109 -3.89021 0
M  V30 7141 H 680.073 -0.592568 -6.52816 0
M  V30 7142 H 679.593 1.00575 -5.91308 0
M  V30 7143 H 681.272 0.713333 -6.43056 0
M  V30 7144 N 681.404 1.57128 0.121893 0
M  V30 7145 C 682.644 1.86517 0.836113 0
M  V30 7146 C 683.008 0.739497 1.77188 0
M  V30 7147 O 684.209 0.91508 2.52744 0
M  V30 7148 C 682.48 3.21129 1.56878 0
M  V30 7149 S 684.039 3.72143 2.32497 0
M  V30 7150 H 680.857 0.653923 0.279115 0
M  V30 7151 H 683.459 1.95271 0.0946254 0
M  V30 7152 H 682.163 4.01002 0.873255 0
M  V30 7153 H 681.694 3.15446 2.35069 0
M  V30 7154 H 683.709 3.43413 3.58164 0
M  V30 7155 N 682.882 -0.391992 1.52647 0
M  V30 7156 C 683.792 -1.503 1.80131 0
M  V30 7157 C 684.808 -1.59825 0.687882 0
M  V30 7158 O 685.984 -1.76218 0.975149 0
M  V30 7159 C 683.049 -2.85863 1.96171 0
M  V30 7160 C 682.11 -2.86084 3.20085 0
M  V30 7161 C 681.343 -4.15181 3.35351 0
M  V30 7162 O 681.566 -5.09981 2.55491 0
M  V30 7163 O 680.5 -4.22603 4.28591 0
M  V30 7164 H 684.326 -1.30007 2.74466 0
M  V30 7165 H 681.911 -0.579539 1.37701 0
M  V30 7166 H 683.793 -3.66236 2.08445 0
M  V30 7167 H 682.468 -3.06189 1.05025 0
M  V30 7168 H 681.375 -2.04504 3.13256 0
M  V30 7169 H 682.708 -2.7071 4.11068 0
M  V30 7170 N 684.36 -1.4356 -0.65026 0
M  V30 7171 C 685.6 -1.46839 -1.42188 0
M  V30 7172 C 685.964 -0.0911433 -1.91784 0
M  V30 7173 O 687.165 0.00137545 -2.688 0
M  V30 7174 C 685.436 -2.48411 -2.56957 0
M  V30 7175 S 686.995 -2.70589 -3.45438 0
M  V30 7176 H 683.813 -0.519596 -0.485325 0
M  V30 7177 H 686.415 -1.80347 -0.75466 0
M  V30 7178 H 685.119 -3.47209 -2.18801 0
M  V30 7179 H 684.65 -2.16411 -3.28527 0
M  V30 7180 H 686.665 -2.00738 -4.53782 0
M  V30 7181 N 685.838 0.888903 -1.30139 0
M  V30 7182 C 686.748 2.02705 -1.18101 0
M  V30 7183 C 687.764 1.73702 -0.101809 0
M  V30 7184 O 688.94 1.98906 -0.315984 0
M  V30 7185 C 686.005 3.35616 -0.869651 0
M  V30 7186 C 685.066 3.78067 -2.03381 0
M  V30 7187 C 684.299 5.04635 -1.73721 0
M  V30 7188 O 684.522 5.66531 -0.663267 0
M  V30 7189 O 683.456 5.43399 -2.58845 0
M  V30 7190 H 687.282 2.15788 -2.13704 0
M  V30 7191 H 684.867 1.01426 -1.09695 0
M  V30 7192 H 686.749 4.15358 -0.711043 0
M  V30 7193 H 685.424 3.23651 0.0565002 0
M  V30 7194 H 684.331 2.99046 -2.24772 0
M  V30 7195 H 685.664 3.94631 -2.94155 0
M  V30 7196 N 687.317 1.12792 1.10072 0
M  V30 7197 C 688.557 0.895691 1.8373 0
M  V30 7198 C 688.921 -0.568131 1.83402 0
M  V30 7199 O 690.122 -0.917666 2.52651 0
M  V30 7200 C 688.393 1.4593 3.2625 0
M  V30 7201 S 689.952 1.36615 4.16991 0
M  V30 7202 H 686.77 0.323017 0.633389 0
M  V30 7203 H 689.372 1.43816 1.32428 0
M  V30 7204 H 688.076 2.51818 3.24062 0
M  V30 7205 H 687.607 0.914478 3.82624 0
M  V30 7206 H 689.622 0.340131 4.95033 0
M  V30 7207 N 688.795 -1.27931 0.920396 0
M  V30 7208 C 689.727 -2.26175 0.371169 0
M  V30 7209 C 690.74 -1.55122 -0.494065 0
M  V30 7210 O 691.929 -1.75825 -0.30787 0
M  V30 7211 C 689.029 -3.35376 -0.487481 0
M  V30 7212 C 688.202 -4.35943 0.356772 0
M  V30 7213 C 687.261 -5.24374 -0.438042 0
M  V30 7214 O 686.287 -5.68998 0.151715 0
M  V30 7215 N 687.489 -5.53823 -1.73956 0
M  V30 7216 H 690.254 -2.73938 1.21564 0
M  V30 7217 H 687.815 -1.41482 0.787047 0
M  V30 7218 H 689.807 -3.91476 -1.02609 0
M  V30 7219 H 688.377 -2.87269 -1.23269 0
M  V30 7220 H 687.597 -3.7921 1.07672 0
M  V30 7221 H 688.885 -5.0015 0.934206 0
M  V30 7222 H 688.283 -5.19413 -2.24114 0
M  V30 7223 H 686.84 -6.12653 -2.22486 0
M  V30 7224 N 690.273 -0.685099 -1.4193 0
M  V30 7225 C 691.498 -0.218842 -2.06242 0
M  V30 7226 C 691.923 1.11923 -1.51178 0
M  V30 7227 O 691.281 1.69837 -0.634446 0
M  V30 7228 C 691.329 -0.175592 -3.60172 0
M  V30 7229 O 690.433 0.852776 -4.03487 0
M  V30 7230 H 689.774 -0.109531 -0.654904 0
M  V30 7231 H 692.304 -0.937013 -1.81882 0
M  V30 7232 H 692.314 -0.00291151 -4.08 0
M  V30 7233 H 690.989 -1.15222 -3.99621 0
M  V30 7234 H 689.566 0.650301 -3.67186 0
M  V30 7235 N 691.751 1.51645 -0.429126 0
M  V30 7236 C 692.661 2.31288 0.392809 0
M  V30 7237 C 693.677 1.39852 1.03525 0
M  V30 7238 O 694.853 1.72926 1.03241 0
M  V30 7239 C 691.918 3.13347 1.48372 0
M  V30 7240 C 690.979 4.20551 0.862268 0
M  V30 7241 C 690.212 4.98688 1.9012 0
M  V30 7242 O 690.435 4.77359 3.12225 0
M  V30 7243 O 689.369 5.83005 1.4963 0
M  V30 7244 H 693.195 3.02609 -0.257138 0
M  V30 7245 H 690.78 1.48163 -0.191851 0
M  V30 7246 H 692.662 3.64387 2.1166 0
M  V30 7247 H 691.337 2.44799 2.1179 0
M  V30 7248 H 690.244 3.73609 0.191568 0
M  V30 7249 H 691.577 4.91449 0.271704 0
M  V30 7250 N 693.229 0.160201 1.56784 0
M  V30 7251 C 694.477 -0.486625 1.96154 0
M  V30 7252 C 694.798 -1.64525 1.04673 0
M  V30 7253 O 694.068 -1.95586 0.110864 0
M  V30 7254 H 692.648 -0.182764 0.724297 0
M  V30 7255 H 695.31 0.238787 1.93432 0
M  V30 7256 H 694.406 -0.854025 3.00188 0
M  V30 7257 N 694.707 -1.5719 -0.113559 0
M  V30 7258 C 695.956 -1.84325 -0.818984 0
M  V30 7259 C 696.269 -0.746685 -1.80787 0
M  V30 7260 O 697.475 -0.904596 -2.55987 0
M  V30 7261 C 695.931 -3.26818 -1.50724 0
M  V30 7262 C 695.539 -4.44498 -0.559065 0
M  V30 7263 C 697.283 -3.63196 -2.19748 0
M  V30 7264 C 695.19 -5.7802 -1.25086 0
M  V30 7265 H 694.12 -0.687507 -0.309596 0
M  V30 7266 H 696.771 -1.8336 -0.0717621 0
M  V30 7267 H 695.153 -3.22269 -2.30128 0
M  V30 7268 H 696.327 -4.60356 0.202146 0
M  V30 7269 H 694.642 -4.16393 0.024495 0
M  V30 7270 H 697.239 -4.60226 -2.72206 0
M  V30 7271 H 697.582 -2.90899 -2.97798 0
M  V30 7272 H 698.115 -3.69553 -1.47226 0
M  V30 7273 H 694.854 -6.53501 -0.511539 0
M  V30 7274 H 694.374 -5.66038 -1.98395 0
M  V30 7275 H 696.053 -6.2196 -1.78253 0
M  V30 7276 N 696.185 0.383891 -1.52853 0
M  V30 7277 C 697.596 0.961591 -1.60032 0
M  V30 7278 C 697.947 1.90819 -0.456333 0
M  V30 7279 O 697.072 2.12288 0.419873 0
M  V30 7280 C 697.667 1.75078 -2.90057 0
M  V30 7281 C 696.226 2.2781 -2.99632 0
M  V30 7282 C 695.373 1.08512 -2.55187 0
M  V30 7283 H 698.324 0.163269 -1.57858 0
M  V30 7284 H 698.345 2.61046 -2.7683 0
M  V30 7285 H 697.857 1.06157 -3.73299 0
M  V30 7286 H 695.958 3.00028 -2.20939 0
M  V30 7287 H 696.071 2.56947 -4.0437 0
M  V30 7288 H 694.435 1.44667 -2.09627 0
M  V30 7289 H 695.218 0.41118 -3.40829 0
M  V30 7290 N 697.663 1.43903 0.642637 0
M  V30 7291 C 698.573 1.52349 1.78401 0
M  V30 7292 C 699.589 0.409869 1.69104 0
M  V30 7293 O 700.765 0.665548 1.90085 0
M  V30 7294 C 697.83 1.45408 3.14734 0
M  V30 7295 C 696.891 2.67528 3.35749 0
M  V30 7296 C 696.124 2.60909 4.65577 0
M  V30 7297 O 696.347 1.6627 5.45628 0
M  V30 7298 O 695.281 3.5158 4.88544 0
M  V30 7299 H 699.107 2.48752 1.7423 0
M  V30 7300 H 696.692 1.26021 0.802439 0
M  V30 7301 H 698.574 1.44019 3.96026 0
M  V30 7302 H 697.249 0.521437 3.19473 0
M  V30 7303 H 696.156 2.74487 2.5418 0
M  V30 7304 H 697.489 3.598 3.35864 0
M  V30 7305 N 699.141 -0.881989 1.30609 0
M  V30 7306 C 700.366 -1.67236 1.22665 0
M  V30 7307 C 700.791 -1.8696 -0.206777 0
M  V30 7308 O 700.149 -1.4027 -1.14865 0
M  V30 7309 C 700.197 -3.02446 1.96363 0
M  V30 7310 O 699.301 -3.91614 1.29276 0
M  V30 7311 H 698.642 -0.510902 0.424117 0
M  V30 7312 H 701.172 -1.10055 1.72479 0
M  V30 7313 H 701.182 -3.52468 2.055 0
M  V30 7314 H 699.857 -2.8741 3.00613 0
M  V30 7315 H 698.434 -3.50055 1.28514 0
M  V30 7316 N 700.619 -1.13374 -1.09472 0
M  V30 7317 C 702.03 -0.90801 -1.63132 0
M  V30 7318 C 702.381 0.555576 -1.8817 0
M  V30 7319 O 701.506 1.42218 -1.63104 0
M  V30 7320 C 702.101 -1.64182 -2.96361 0
M  V30 7321 C 700.66 -1.46197 -3.46848 0
M  V30 7322 C 699.807 -1.67134 -2.21273 0
M  V30 7323 H 702.758 -1.2871 -0.928411 0
M  V30 7324 H 702.779 -1.09863 -3.64294 0
M  V30 7325 H 702.291 -2.707 -2.78106 0
M  V30 7326 H 700.392 -0.419788 -3.70228 0
M  V30 7327 H 700.505 -2.22472 -4.24315 0
M  V30 7328 H 698.869 -1.09616 -2.29905 0
M  V30 7329 H 699.652 -2.74971 -2.05538 0
M  V30 7330 N 702.098 1.27442 -0.927168 0
M  V30 7331 C 703.045 2.26863 -0.424459 0
M  V30 7332 C 704.015 1.5813 0.508346 0
M  V30 7333 O 705.2 1.85946 0.42762 0
M  V30 7334 C 702.34 3.43639 0.31718 0
M  V30 7335 C 701.453 4.27087 -0.649675 0
M  V30 7336 C 700.588 5.31082 0.111753 0
M  V30 7337 C 699.627 6.062 -0.847843 0
M  V30 7338 N 698.764 7.01999 -0.119074 0
M  V30 7339 H 703.604 2.69239 -1.27728 0
M  V30 7340 H 701.141 1.32394 -0.641106 0
M  V30 7341 H 703.099 4.10155 0.763486 0
M  V30 7342 H 701.729 3.02217 1.13424 0
M  V30 7343 H 700.781 3.60491 -1.21451 0
M  V30 7344 H 702.093 4.79242 -1.38307 0
M  V30 7345 H 701.247 6.03544 0.618 0
M  V30 7346 H 699.986 4.7973 0.878114 0
M  V30 7347 H 698.991 5.32577 -1.36534 0
M  V30 7348 H 700.216 6.59642 -1.61398 0
M  V30 7349 H 698.162 6.52977 0.629051 0
M  V30 7350 H 698.079 7.5184 -0.792046 0
M  V30 7351 H 699.347 7.78638 0.366537 0
M  V30 7352 N 703.576 0.692616 1.41565 0
M  V30 7353 C 704.816 0.226453 2.03142 0
M  V30 7354 C 705.18 -1.1512 1.5366 0
M  V30 7355 O 706.381 -1.71305 2.07143 0
M  V30 7356 C 704.652 0.27855 3.56313 0
M  V30 7357 S 706.211 -0.114001 4.38652 0
M  V30 7358 H 703.029 0.0914767 0.705091 0
M  V30 7359 H 705.631 0.909737 1.73043 0
M  V30 7360 H 704.335 1.28325 3.89821 0
M  V30 7361 H 703.866 -0.423981 3.91109 0
M  V30 7362 H 705.881 -1.34256 4.77692 0
M  V30 7363 N 705.054 -1.51416 0.437162 0
M  V30 7364 C 706.004 -2.24599 -0.392311 0
M  V30 7365 C 706.988 -1.2682 -0.990221 0
M  V30 7366 O 708.18 -1.51912 -0.908391 0
M  V30 7367 C 705.309 -3.09134 -1.49301 0
M  V30 7368 C 704.395 -4.14342 -0.904503 0
M  V30 7369 N 704.786 -5.0578 -0.0451511 0
M  V30 7370 C 703.084 -4.30323 -1.1721 0
M  V30 7371 C 703.785 -5.81 0.285344 0
M  V30 7372 N 702.761 -5.42591 -0.330993 0
M  V30 7373 H 706.563 -2.92655 0.270221 0
M  V30 7374 H 704.077 -1.60476 0.249226 0
M  V30 7375 H 706.074 -3.6014 -2.10011 0
M  V30 7376 H 704.734 -2.42622 -2.15788 0
M  V30 7377 H 705.745 -5.16903 0.321271 0
M  V30 7378 H 702.422 -3.75037 -1.83448 0
M  V30 7379 H 703.812 -6.64646 0.984626 0
M  V30 7380 N 706.532 -0.168513 -1.56696 0
M  V30 7381 C 707.442 0.775435 -2.21414 0
M  V30 7382 C 708.458 1.25529 -1.20492 0
M  V30 7383 O 709.634 1.30801 -1.53144 0
M  V30 7384 C 706.699 1.9886 -2.83999 0
M  V30 7385 C 705.76 1.5559 -4.00113 0
M  V30 7386 C 704.993 2.71124 -4.59704 0
M  V30 7387 O 705.216 3.87917 -4.18182 0
M  V30 7388 O 704.15 2.4536 -5.4962 0
M  V30 7389 H 707.976 0.254416 -3.02632 0
M  V30 7390 H 705.561 0.0595507 -1.49281 0
M  V30 7391 H 707.443 2.69816 -3.23693 0
M  V30 7392 H 706.118 2.49874 -2.05779 0
M  V30 7393 H 705.025 0.815924 -3.65094 0
M  V30 7394 H 706.358 1.09271 -4.79917 0
M  V30 7395 N 708.01 1.57248 0.105221 0
M  V30 7396 C 709.258 1.85204 0.808951 0
M  V30 7397 C 709.579 0.75574 1.7976 0
M  V30 7398 O 708.849 -0.218984 1.94672 0
M  V30 7399 H 707.429 0.683346 0.301739 0
M  V30 7400 H 710.091 1.94695 0.0892605 0
M  V30 7401 H 709.187 2.81595 1.34575 0
M  V30 7402 N 709.488 -0.375779 1.53054 0
M  V30 7403 C 710.436 -1.48015 1.79428 0
M  V30 7404 C 711.43 -1.55893 0.662854 0
M  V30 7405 O 712.636 -1.58901 0.845599 0
M  V30 7406 H 709.011 -0.492887 0.56795 0
M  V30 7407 H 710.982 -1.22971 2.71884 0
M  V30 7408 C 709.731 -2.84984 1.99197 0
M  V30 7409 H 709.054 -2.79677 2.85693 0
M  V30 7410 H 710.494 -3.61462 2.21633 0
M  V30 7411 C 708.953 -3.28025 0.768183 0
M  V30 7412 O 709.483 -4.01671 -0.0480482 0
M  V30 7413 N 707.689 -2.84454 0.594521 0
M  V30 7414 H 707.236 -2.24688 1.25988 0
M  V30 7415 H 707.194 -3.13609 -0.222916 0
M  V30 7416 N 710.966 -1.44241 -0.634997 0
M  V30 7417 C 712.214 -1.46531 -1.39187 0
M  V30 7418 C 712.535 -0.0976441 -1.94755 0
M  V30 7419 O 711.805 0.869528 -1.75545 0
M  V30 7420 H 710.385 -0.539544 -0.516625 0
M  V30 7421 H 713.047 -1.79989 -0.747655 0
M  V30 7422 H 712.143 -2.18848 -2.22513 0
M  V30 7423 N 712.444 0.87505 -1.31075 0
M  V30 7424 C 713.672 1.66058 -1.23419 0
M  V30 7425 C 714.087 1.87723 0.201347 0
M  V30 7426 O 713.444 1.43178 1.13165 0
M  V30 7427 C 713.495 3.03142 -1.96945 0
M  V30 7428 O 713.216 2.82448 -3.34895 0
M  V30 7429 C 714.717 3.97583 -1.96067 0
M  V30 7430 H 711.937 0.517868 -0.426677 0
M  V30 7431 H 714.481 1.09258 -1.72867 0
M  V30 7432 H 712.636 3.56645 -1.51271 0
M  V30 7433 H 713.05 3.69483 -3.72267 0
M  V30 7434 H 714.524 4.91104 -2.52034 0
M  V30 7435 H 715.001 4.2898 -0.941961 0
M  V30 7436 H 715.607 3.50015 -2.41597 0
M  V30 7437 N 713.922 1.13953 1.08869 0
M  V30 7438 C 715.169 0.90481 1.81161 0
M  V30 7439 C 715.497 -0.568824 1.85996 0
M  V30 7440 O 714.752 -1.43723 1.32823 0
M  V30 7441 C 715.051 1.44495 3.26888 0
M  V30 7442 C 714.717 2.93641 3.42178 0
M  V30 7443 C 713.379 3.34361 3.46059 0
M  V30 7444 C 715.731 3.89568 3.46246 0
M  V30 7445 C 713.059 4.69681 3.51592 0
M  V30 7446 C 715.411 5.2474 3.53314 0
M  V30 7447 C 714.075 5.64979 3.55465 0
M  V30 7448 H 713.345 0.331094 0.662916 0
M  V30 7449 H 715.992 1.42242 1.28217 0
M  V30 7450 H 714.297 0.848169 3.82509 0
M  V30 7451 H 715.994 1.23934 3.81368 0
M  V30 7452 H 712.584 2.61156 3.39846 0
M  V30 7453 H 716.768 3.59192 3.42483 0
M  V30 7454 H 712.024 5.00224 3.51547 0
M  V30 7455 H 716.198 5.98882 3.55406 0
M  V30 7456 H 713.825 6.69821 3.59505 0
M  V30 7457 N 715.4 -1.26948 0.933913 0
M  V30 7458 C 716.31 -2.30366 0.443671 0
M  V30 7459 C 717.326 -1.67284 -0.478745 0
M  V30 7460 O 718.502 -1.98156 -0.360043 0
M  V30 7461 C 715.567 -3.45485 -0.289974 0
M  V30 7462 C 714.628 -4.24069 0.668114 0
M  V30 7463 C 713.861 -5.33691 -0.0306138 0
M  V30 7464 O 714.084 -5.5656 -1.24888 0
M  V30 7465 O 713.018 -5.98441 0.644384 0
M  V30 7466 H 716.844 -2.74349 1.30254 0
M  V30 7467 H 714.429 -1.32012 0.699506 0
M  V30 7468 H 716.311 -4.15486 -0.70353 0
M  V30 7469 H 714.986 -3.03546 -1.12435 0
M  V30 7470 H 713.893 -3.56579 1.13147 0
M  V30 7471 H 715.226 -4.69739 1.46989 0
M  V30 7472 N 716.879 -0.700114 -1.41195 0
M  V30 7473 C 718.119 -0.237223 -2.03019 0
M  V30 7474 C 718.483 1.14304 -1.54268 0
M  V30 7475 O 719.684 1.70204 -2.08048 0
M  V30 7476 C 717.955 -0.297442 -3.5616 0
M  V30 7477 S 719.514 0.0907367 -4.38706 0
M  V30 7478 H 716.332 -0.0952147 -0.704596 0
M  V30 7479 H 718.934 -0.918901 -1.72559 0
M  V30 7480 H 717.638 -1.30391 -3.89135 0
M  V30 7481 H 717.169 0.403233 -3.91328 0
M  V30 7482 H 719.184 1.31721 -4.78397 0
M  V30 7483 N 718.357 1.51182 -0.445186 0
M  V30 7484 C 719.605 2.01753 0.11841 0
M  V30 7485 C 719.926 1.33087 1.42523 0
M  V30 7486 O 719.196 0.467891 1.9023 0
M  V30 7487 H 717.776 0.745536 0.0467492 0
M  V30 7488 H 720.438 1.85765 -0.589688 0
M  V30 7489 H 719.534 3.10762 0.288665 0
M  V30 7490 N 719.835 0.176821 1.56605 0
M  V30 7491 C 720.798 -0.737429 2.17013 0
M  V30 7492 C 721.798 -1.15414 1.11965 0
M  V30 7493 O 722.988 -1.0702 1.37449 0
M  V30 7494 C 720.12 -2.00445 2.75744 0
M  V30 7495 H 721.313 -0.211455 2.99154 0
M  V30 7496 H 718.866 -0.0727582 1.56131 0
M  V30 7497 H 719.601 -2.57338 1.97352 0
M  V30 7498 H 719.386 -1.71456 3.52626 0
M  V30 7499 H 720.876 -2.65679 3.22187 0
M  V30 7500 N 721.313 -1.57302 -0.09688 0
M  V30 7501 C 722.553 -1.87823 -0.806334 0
M  V30 7502 C 722.917 -0.767593 -1.75989 0
M  V30 7503 O 724.118 -0.955173 -2.51257 0
M  V30 7504 C 722.389 -3.23585 -1.51749 0
M  V30 7505 S 723.948 -3.75795 -2.26547 0
M  V30 7506 H 720.766 -0.658281 -0.268676 0
M  V30 7507 H 723.368 -1.95397 -0.0635476 0
M  V30 7508 H 722.072 -4.0234 -0.809348 0
M  V30 7509 H 721.603 -3.19145 -2.30021 0
M  V30 7510 H 723.618 -3.49068 -3.52656 0
M  V30 7511 N 722.791 0.367657 -1.53252 0
M  V30 7512 C 724.207 0.709191 -1.42978 0
M  V30 7513 C 724.407 1.93352 -0.567193 0
M  V30 7514 O 723.463 2.52453 -0.0488349 0
M  V30 7515 C 724.776 0.924338 -2.86141 0
M  V30 7516 C 726.324 1.02448 -2.95759 0
M  V30 7517 C 726.799 1.27211 -4.39979 0
M  V30 7518 N 728.29 1.33986 -4.43398 0
M  V30 7519 C 729.025 1.54852 -5.52095 0
M  V30 7520 N 728.521 1.73049 -6.7084 0
M  V30 7521 N 730.314 1.57205 -5.39669 0
M  V30 7522 H 722.465 -0.437669 -2.07842 0
M  V30 7523 H 724.728 -0.133737 -0.938519 0
M  V30 7524 H 724.434 0.0965455 -3.51567 0
M  V30 7525 H 724.308 1.83302 -3.29667 0
M  V30 7526 H 726.695 1.84282 -2.30487 0
M  V30 7527 H 726.776 0.0932301 -2.5563 0
M  V30 7528 H 726.42 0.458792 -5.05824 0
M  V30 7529 H 726.35 2.21654 -4.77679 0
M  V30 7530 H 728.841 1.21545 -3.5782 0
M  V30 7531 H 729.154 1.88538 -7.49449 0
M  V30 7532 H 727.499 1.70231 -6.7383 0
M  V30 7533 H 730.69 1.42555 -4.45865 0
M  V30 7534 H 730.863 1.73126 -6.24445 0
M  V30 7535 N 724.269 1.44576 0.627338 0
M  V30 7536 C 725.509 1.49083 1.39834 0
M  V30 7537 C 725.873 0.121643 1.91614 0
M  V30 7538 O 727.074 0.0413885 2.68768 0
M  V30 7539 C 725.345 2.52467 2.52973 0
M  V30 7540 S 726.904 2.7605 3.41089 0
M  V30 7541 H 723.722 0.527252 0.476997 0
M  V30 7542 H 726.324 1.81525 0.725872 0
M  V30 7543 H 725.028 3.50646 2.13249 0
M  V30 7544 H 724.559 2.2161 3.25042 0
M  V30 7545 H 726.574 2.07932 4.50531 0
M  V30 7546 N 725.747 -0.868086 1.31537 0
M  V30 7547 C 726.695 -1.99688 1.1928 0
M  V30 7548 C 727.689 -1.69101 0.100656 0
M  V30 7549 O 728.895 -1.78073 0.262677 0
M  V30 7550 H 725.27 -0.655032 0.369374 0
M  V30 7551 H 727.241 -2.07157 2.14776 0
M  V30 7552 C 725.99 -3.35338 0.918892 0
M  V30 7553 H 725.313 -3.59396 1.75142 0
M  V30 7554 H 726.753 -4.14909 0.873311 0
M  V30 7555 C 725.212 -3.34769 -0.378366 0
M  V30 7556 O 725.742 -3.76716 -1.39456 0
M  V30 7557 N 723.948 -2.87895 -0.39557 0
M  V30 7558 H 723.495 -2.53954 0.431889 0
M  V30 7559 H 723.453 -2.87897 -1.26344 0
M  V30 7560 N 727.225 -1.14528 -1.08264 0
M  V30 7561 C 728.135 -0.84728 -2.18765 0
M  V30 7562 C 729.151 0.172826 -1.7314 0
M  V30 7563 O 730.327 0.000985336 -2.014 0
M  V30 7564 C 727.392 -0.330633 -3.4512 0
M  V30 7565 C 726.453 -1.41348 -4.05363 0
M  V30 7566 C 725.686 -0.921387 -5.25686 0
M  V30 7567 O 725.909 0.236587 -5.69909 0
M  V30 7568 O 724.843 -1.70101 -5.77364 0
M  V30 7569 H 728.669 -1.7708 -2.46731 0
M  V30 7570 H 726.254 -0.923661 -1.17426 0
M  V30 7571 H 728.136 -0.0485053 -4.21372 0
M  V30 7572 H 726.811 0.565147 -3.18728 0
M  V30 7573 H 725.718 -1.74908 -3.30693 0
M  V30 7574 H 727.051 -2.28383 -4.36007 0
M  V30 7575 N 728.703 1.26451 -0.940633 0
M  V30 7576 C 729.951 1.93395 -0.586748 0
M  V30 7577 C 730.272 1.7417 0.876921 0
M  V30 7578 O 729.542 1.097 1.62304 0
M  V30 7579 H 728.122 0.715687 -0.214012 0
M  V30 7580 H 730.784 1.53902 -1.19584 0
M  V30 7581 H 729.88 3.01565 -0.804059 0
M  V30 7582 N 730.181 0.707592 1.40822 0
M  V30 7583 C 731.597 0.38034 1.55002 0
M  V30 7584 C 731.797 -1.11163 1.68062 0
M  V30 7585 O 730.853 -1.89761 1.66574 0
M  V30 7586 C 732.166 1.1394 2.78277 0
M  V30 7587 C 733.714 1.12492 2.92087 0
M  V30 7588 C 734.189 1.86597 4.18265 0
M  V30 7589 N 735.68 1.83626 4.25248 0
M  V30 7590 C 736.415 2.37794 5.21768 0
M  V30 7591 N 735.911 3.00485 6.24244 0
M  V30 7592 N 737.704 2.27982 5.13791 0
M  V30 7593 H 729.855 1.67511 1.3059 0
M  V30 7594 H 732.118 0.707579 0.630901 0
M  V30 7595 H 731.824 2.19398 2.74877 0
M  V30 7596 H 731.698 0.725793 3.70151 0
M  V30 7597 H 734.085 0.0785564 2.94995 0
M  V30 7598 H 734.166 1.57768 2.01353 0
M  V30 7599 H 733.81 2.91219 4.16118 0
M  V30 7600 H 733.74 1.38746 5.07993 0
M  V30 7601 H 736.231 1.3793 3.51829 0
M  V30 7602 H 736.544 3.39355 6.94304 0
M  V30 7603 H 734.889 3.04567 6.24711 0
M  V30 7604 H 738.08 1.78669 4.3266 0
M  V30 7605 H 738.253 2.70499 5.88841 0
M  V30 7606 N 731.66 -1.50943 0.453197 0
M  V30 7607 C 732.906 -2.02512 -0.108082 0
M  V30 7608 C 733.239 -1.33574 -1.40967 0
M  V30 7609 O 732.514 -0.455671 -1.89087 0
M  V30 7610 C 732.797 -3.58759 -0.310453 0
M  V30 7611 C 732.65 -4.38293 1.0109 0
M  V30 7612 C 733.969 -4.26816 -1.07313 0
M  V30 7613 H 731.088 -0.73603 -0.0378064 0
M  V30 7614 H 733.73 -1.80433 0.595295 0
M  V30 7615 H 731.88 -3.77702 -0.909582 0
M  V30 7616 H 733.552 -4.30964 1.64523 0
M  V30 7617 H 731.795 -4.02745 1.61179 0
M  V30 7618 H 732.466 -5.45828 0.82315 0
M  V30 7619 H 734.942 -4.1224 -0.565473 0
M  V30 7620 H 733.818 -5.35989 -1.1835 0
M  V30 7621 H 734.079 -3.88757 -2.10525 0
M  V30 7622 N 733.138 -0.185124 -1.56509 0
M  V30 7623 C 734.386 0.455357 -1.96903 0
M  V30 7624 C 734.707 1.62839 -1.07277 0
M  V30 7625 O 733.977 1.95385 -0.141966 0
M  V30 7626 H 732.557 0.171218 -0.727113 0
M  V30 7627 H 735.219 -0.26953 -1.93027 0
M  V30 7628 H 734.315 0.80616 -3.01509 0
M  V30 7629 N 734.616 1.57351 0.0885366 0
M  V30 7630 C 736.032 1.53331 0.442916 0
M  V30 7631 C 736.232 0.902831 1.80142 0
M  V30 7632 O 735.288 0.498147 2.47537 0
M  V30 7633 C 736.601 2.98036 0.399372 0
M  V30 7634 C 738.149 3.09286 0.480759 0
M  V30 7635 C 738.624 4.5561 0.467296 0
M  V30 7636 N 740.115 4.60182 0.52786 0
M  V30 7637 C 740.85 5.70857 0.539388 0
M  V30 7638 N 740.346 6.90944 0.506729 0
M  V30 7639 N 742.139 5.59051 0.584691 0
M  V30 7640 H 734.29 1.96709 -0.801215 0
M  V30 7641 H 736.553 0.899639 -0.298922 0
M  V30 7642 H 736.259 3.47656 -0.531806 0
M  V30 7643 H 736.133 3.57066 1.21589 0
M  V30 7644 H 738.52 2.5965 1.40236 0
M  V30 7645 H 738.601 2.53197 -0.364023 0
M  V30 7646 H 738.245 5.05899 -0.450384 0
M  V30 7647 H 738.175 5.09544 1.32938 0
M  V30 7648 H 740.666 3.73757 0.558028 0
M  V30 7649 H 740.979 7.71055 0.518989 0
M  V30 7650 H 739.324 6.93384 0.473675 0
M  V30 7651 H 742.515 4.64138 0.607781 0
M  V30 7652 H 742.688 6.45307 0.590206 0
M  V30 7653 N 736.094 -0.359525 1.53444 0
M  V30 7654 C 737.044 -1.441 1.7669 0
M  V30 7655 C 738.028 -1.48408 0.621599 0
M  V30 7656 O 739.22 -1.53547 0.880468 0
M  V30 7657 C 736.349 -2.81455 1.96566 0
M  V30 7658 C 735.435 -2.81601 3.17115 0
M  V30 7659 N 735.826 -2.51388 4.38905 0
M  V30 7660 C 734.124 -3.12758 3.1796 0
M  V30 7661 C 734.825 -2.59365 5.20677 0
M  V30 7662 N 733.801 -2.94328 4.57025 0
M  V30 7663 H 737.603 -1.19613 2.68458 0
M  V30 7664 H 735.117 -0.567761 1.52152 0
M  V30 7665 H 737.114 -3.59357 2.11348 0
M  V30 7666 H 735.774 -3.06901 1.06029 0
M  V30 7667 H 736.785 -2.24873 4.66533 0
M  V30 7668 H 733.462 -3.43479 2.37336 0
M  V30 7669 H 734.852 -2.39301 6.27841 0
M  V30 7670 N 737.572 -1.44907 -0.619662 0
M  V30 7671 C 738.812 -1.49822 -1.39042 0
M  V30 7672 C 739.176 -0.131803 -1.91547 0
M  V30 7673 O 740.377 -0.0556413 -2.68742 0
M  V30 7674 C 738.648 -2.53805 -2.5163 0
M  V30 7675 S 740.207 -2.77855 -3.3962 0
M  V30 7676 H 737.025 -0.529774 -0.474195 0
M  V30 7677 H 739.627 -1.81907 -0.716236 0
M  V30 7678 H 738.331 -3.51772 -2.11387 0
M  V30 7679 H 737.862 -2.23331 -3.23863 0
M  V30 7680 H 739.877 -2.10319 -4.49422 0
M  V30 7681 N 739.05 0.861098 -1.31996 0
M  V30 7682 C 739.96 2.00154 -1.22374 0
M  V30 7683 C 740.976 1.73447 -0.138631 0
M  V30 7684 O 742.152 1.98191 -0.358104 0
M  V30 7685 C 739.217 3.33696 -0.940645 0
M  V30 7686 C 738.278 3.73668 -2.11355 0
M  V30 7687 C 737.511 5.00837 -1.84386 0
M  V30 7688 O 737.734 5.64996 -0.783287 0
M  V30 7689 O 736.668 5.37787 -2.70313 0
M  V30 7690 H 740.494 2.11207 -2.18233 0
M  V30 7691 H 738.079 0.990768 -1.11822 0
M  V30 7692 H 739.961 4.13756 -0.798987 0
M  V30 7693 H 738.636 3.23698 -0.0121636 0
M  V30 7694 H 737.543 2.94211 -2.31065 0
M  V30 7695 H 738.876 3.88303 -3.02459 0
M  V30 7696 N 740.528 1.15101 1.07655 0
M  V30 7697 C 741.768 0.934462 1.81789 0
M  V30 7698 C 742.132 -0.529101 1.84566 0
M  V30 7699 O 743.333 -0.863868 2.5454 0
M  V30 7700 C 741.604 1.52817 3.23082 0
M  V30 7701 S 743.163 1.45429 4.14 0
M  V30 7702 H 739.981 0.336379 0.626395 0
M  V30 7703 H 742.583 1.46593 1.29347 0
M  V30 7704 H 741.287 2.58635 3.18647 0
M  V30 7705 H 740.818 0.995432 3.80598 0
M  V30 7706 H 742.833 0.445058 4.942 0
M  V30 7707 N 742.006 -1.2595 0.947325 0
M  V30 7708 C 743.231 -1.98083 0.614633 0
M  V30 7709 C 743.656 -1.70013 -0.804815 0
M  V30 7710 O 743.014 -0.95175 -1.54309 0
M  V30 7711 C 743.062 -3.4993 0.870706 0
M  V30 7712 O 742.166 -4.12364 -0.0541451 0
M  V30 7713 H 741.507 -0.621232 0.234451 0
M  V30 7714 H 744.037 -1.60259 1.27193 0
M  V30 7715 H 744.047 -4.00198 0.794051 0
M  V30 7716 H 742.722 -3.69691 1.90529 0
M  V30 7717 H 741.299 -3.72826 0.0740917 0
M  V30 7718 N 743.484 -0.715051 -1.40445 0
M  V30 7719 C 744.712 -0.263959 -2.05209 0
M  V30 7720 C 745.127 1.09403 -1.53871 0
M  V30 7721 O 744.484 1.68746 -0.695064 0
M  V30 7722 C 744.535 -0.234545 -3.60738 0
M  V30 7723 O 744.256 -1.53891 -4.10182 0
M  V30 7724 C 745.757 0.235164 -4.42676 0
M  V30 7725 H 742.977 -0.11876 -0.660407 0
M  V30 7726 H 745.521 -0.973107 -1.79864 0
M  V30 7727 H 743.676 0.425563 -3.85055 0
M  V30 7728 H 744.09 -1.43903 -5.04373 0
M  V30 7729 H 745.564 0.204598 -5.51621 0
M  V30 7730 H 746.041 1.27724 -4.20218 0
M  V30 7731 H 746.647 -0.394649 -4.23465 0
M  V30 7732 N 744.962 1.50701 -0.461195 0
M  V30 7733 C 746.239 1.94958 0.158296 0
M  V30 7734 C 746.619 1.40111 1.57899 0
M  V30 7735 O 745.967 0.597976 2.20537 0
M  V30 7736 C 746.177 3.48821 0.11172 0
M  V30 7737 C 747.525 4.23499 0.30552 0
M  V30 7738 O 748.549 3.557 0.188758 0
M  V30 7739 O 747.408 5.43823 0.540244 0
M  V30 7740 H 744.502 0.818674 0.117054 0
M  V30 7741 H 747.048 1.61508 -0.520888 0
M  V30 7742 H 745.82 3.81263 -0.880577 0
M  V30 7743 H 745.443 3.88781 0.832791 0
M  V30 7744 N 746.441 0.193421 1.56409 0
M  V30 7745 C 747.351 -0.740112 2.2262 0
M  V30 7746 C 748.367 -1.23597 1.22474 0
M  V30 7747 O 749.543 -1.28348 1.55206 0
M  V30 7748 C 746.608 -1.94317 2.87127 0
M  V30 7749 C 745.669 -1.49205 4.02538 0
M  V30 7750 C 744.902 -2.63776 4.63959 0
M  V30 7751 O 745.125 -3.81215 4.24301 0
M  V30 7752 O 744.059 -2.36585 5.53454 0
M  V30 7753 H 747.885 -0.206238 3.02999 0
M  V30 7754 H 745.47 -0.0357938 1.49357 0
M  V30 7755 H 747.352 -2.64633 3.27944 0
M  V30 7756 H 746.027 -2.46568 2.09728 0
M  V30 7757 H 744.934 -0.757738 3.66346 0
M  V30 7758 H 746.267 -1.01622 4.81595 0
M  V30 7759 N 747.919 -1.57396 -0.0801906 0
M  V30 7760 C 749.165 -1.87113 -0.782083 0
M  V30 7761 C 749.498 -0.78458 -1.77646 0
M  V30 7762 O 748.773 0.205993 -1.93406 0
M  V30 7763 C 749.056 -3.27483 -1.49756 0
M  V30 7764 C 748.909 -4.46782 -0.520171 0
M  V30 7765 C 750.228 -3.65965 -2.44454 0
M  V30 7766 H 747.347 -0.680559 -0.282858 0
M  V30 7767 H 749.989 -1.89946 -0.0454139 0
M  V30 7768 H 748.139 -3.25199 -2.12551 0
M  V30 7769 H 749.811 -4.61187 0.101919 0
M  V30 7770 H 748.054 -4.33485 0.165219 0
M  V30 7771 H 748.725 -5.41761 -1.05824 0
M  V30 7772 H 751.201 -3.69289 -1.91742 0
M  V30 7773 H 750.077 -4.65086 -2.91524 0
M  V30 7774 H 750.338 -2.95446 -3.28883 0
M  V30 7775 N 749.397 0.351382 -1.53633 0
M  V30 7776 C 750.345 1.45142 -1.8176 0
M  V30 7777 C 751.339 1.54819 -0.687571 0
M  V30 7778 O 752.545 1.57536 -0.870772 0
M  V30 7779 H 748.92 0.483789 -0.575719 0
M  V30 7780 H 750.891 1.1863 -2.73806 0
M  V30 7781 C 749.64 2.81779 -2.03706 0
M  V30 7782 H 748.963 2.75097 -2.90107 0
M  V30 7783 H 750.403 3.5789 -2.27356 0
M  V30 7784 C 748.862 3.26762 -0.820271 0
M  V30 7785 O 749.392 4.01697 -0.0158603 0
M  V30 7786 N 747.598 2.83472 -0.639699 0
M  V30 7787 H 747.145 2.22655 -1.29547 0
M  V30 7788 H 747.103 3.13924 0.172995 0
M  V30 7789 N 750.875 1.45233 0.611969 0
M  V30 7790 C 752.1 1.52767 1.40274 0
M  V30 7791 C 752.525 0.159701 1.87421 0
M  V30 7792 O 751.883 -0.854837 1.59882 0
M  V30 7793 C 751.931 2.51286 2.58626 0
M  V30 7794 O 751.035 2.02764 3.59111 0
M  V30 7795 H 750.376 0.515141 0.418958 0
M  V30 7796 H 752.906 1.90547 0.745188 0
M  V30 7797 H 752.916 2.69949 3.05927 0
M  V30 7798 H 751.591 3.50641 2.23659 0
M  V30 7799 H 750.168 1.93957 3.18489 0
M  V30 7800 N 752.353 -0.854086 1.3245 0
M  V30 7801 C 753.263 -1.99503 1.23434 0
M  V30 7802 C 754.279 -1.73371 0.147828 0
M  V30 7803 O 755.455 -1.97998 0.368609 0
M  V30 7804 C 752.52 -3.33192 0.958328 0
M  V30 7805 C 751.581 -3.72542 2.13333 0
M  V30 7806 C 750.814 -4.99852 1.8704 0
M  V30 7807 O 751.037 -5.64573 0.813239 0
M  V30 7808 O 749.971 -5.36345 2.73161 0
M  V30 7809 H 753.797 -2.10046 2.1935 0
M  V30 7810 H 751.382 -0.984823 1.12346 0
M  V30 7811 H 753.264 -4.13327 0.820918 0
M  V30 7812 H 751.939 -3.23687 0.0293299 0
M  V30 7813 H 750.846 -2.92981 2.32622 0
M  V30 7814 H 752.179 -3.86694 3.04514 0
M  V30 7815 N 753.831 -1.1567 -1.07043 0
M  V30 7816 C 755.108 -0.843948 -1.76456 0
M  V30 7817 C 755.488 0.659806 -2.00524 0
M  V30 7818 O 754.836 1.60518 -1.62623 0
M  V30 7819 C 755.046 -1.65822 -3.0709 0
M  V30 7820 C 756.394 -1.8664 -3.8138 0
M  V30 7821 O 757.418 -1.62624 -3.1691 0
M  V30 7822 O 756.277 -2.26884 -4.97178 0
M  V30 7823 H 753.371 -0.310677 -0.766426 0
M  V30 7824 H 755.917 -1.26266 -1.1338 0
M  V30 7825 H 754.689 -2.67902 -2.85209 0
M  V30 7826 H 754.312 -1.23605 -3.77899 0
M  V30 7827 N 755.309 1.25446 -0.953992 0
M  V30 7828 C 756.242 2.24341 -0.417912 0
M  V30 7829 C 757.22 1.54709 0.5004 0
M  V30 7830 O 758.404 1.83414 0.434923 0
M  V30 7831 C 755.531 3.36352 0.398155 0
M  V30 7832 C 754.577 4.24007 -0.460461 0
M  V30 7833 S 755.41 5.00951 -1.89231 0
M  V30 7834 C 756.566 6.1643 -1.08465 0
M  V30 7835 H 756.799 2.69465 -1.25602 0
M  V30 7836 H 754.332 1.34512 -0.758018 0
M  V30 7837 H 756.29 4.01325 0.863059 0
M  V30 7838 H 754.951 2.89813 1.21108 0
M  V30 7839 H 754.144 5.03728 0.165415 0
M  V30 7840 H 753.746 3.63965 -0.860549 0
M  V30 7841 H 756.038 6.76681 -0.333017 0
M  V30 7842 H 756.981 6.8335 -1.85577 0
M  V30 7843 H 757.389 5.61139 -0.615062 0
M  V30 7844 N 756.787 0.722489 1.40064 0
M  V30 7845 C 758.064 0.191829 1.94657 0
M  V30 7846 C 758.444 -1.30389 1.66018 0
M  V30 7847 O 757.792 -2.06342 0.981588 0
M  V30 7848 C 758.002 0.511978 3.45224 0
M  V30 7849 C 759.35 0.454426 4.22161 0
M  V30 7850 O 760.374 0.448438 3.53366 0
M  V30 7851 O 759.233 0.437986 5.44742 0
M  V30 7852 H 756.327 0.0307821 0.826427 0
M  V30 7853 H 758.873 0.800493 1.49634 0
M  V30 7854 H 757.645 1.54622 3.59455 0
M  V30 7855 H 757.268 -0.126296 3.97399 0
M  V30 7856 N 758.265 -1.50454 0.469181 0
M  V30 7857 C 759.228 -2.2703 -0.314643 0
M  V30 7858 C 760.228 -1.31734 -0.922111 0
M  V30 7859 O 761.418 -1.55176 -0.791588 0
M  V30 7860 C 758.55 -3.08616 -1.44806 0
M  V30 7861 H 759.743 -2.97769 0.356892 0
M  V30 7862 H 757.296 -1.54698 0.223191 0
M  V30 7863 H 758.031 -2.42369 -2.1547 0
M  V30 7864 H 757.816 -3.78647 -1.01829 0
M  V30 7865 H 759.306 -3.66536 -2.00103 0
M  V30 7866 N 759.743 -0.201713 -1.56304 0
M  V30 7867 C 760.973 0.440084 -2.01858 0
M  V30 7868 C 761.381 1.55279 -1.08098 0
M  V30 7869 O 760.724 1.83529 -0.0792216 0
M  V30 7870 C 760.786 1.05091 -3.43797 0
M  V30 7871 C 760.45 0.0761208 -4.56937 0
M  V30 7872 C 761.447 -0.716951 -5.14933 0
M  V30 7873 C 759.132 -0.0368815 -5.02286 0
M  V30 7874 C 761.126 -1.60993 -6.16733 0
M  V30 7875 C 758.813 -0.933409 -6.03929 0
M  V30 7876 C 759.811 -1.71849 -6.61027 0
M  V30 7877 O 759.499 -2.59998 -7.60695 0
M  V30 7878 H 759.231 0.114139 -0.666294 0
M  V30 7879 H 761.785 -0.309672 -2.03052 0
M  V30 7880 H 760.015 1.84938 -3.3961 0
M  V30 7881 H 761.704 1.59804 -3.73118 0
M  V30 7882 H 762.47 -0.63999 -4.80759 0
M  V30 7883 H 758.349 0.564034 -4.57537 0
M  V30 7884 H 761.893 -2.22315 -6.61227 0
M  V30 7885 H 757.79 -1.01146 -6.37526 0
M  V30 7886 H 758.558 -2.53851 -7.7814 0
M  V30 7887 N 761.222 1.57436 0.0718424 0
M  V30 7888 C 762.462 1.89082 0.776351 0
M  V30 7889 C 762.826 0.795494 1.74745 0
M  V30 7890 O 764.027 0.995025 2.49705 0
M  V30 7891 C 762.298 3.25958 1.46582 0
M  V30 7892 S 763.857 3.79352 2.2054 0
M  V30 7893 H 760.675 0.662472 0.25817 0
M  V30 7894 H 763.277 1.95473 0.0324536 0
M  V30 7895 H 761.981 4.03577 0.745237 0
M  V30 7896 H 761.512 3.22764 2.24915 0
M  V30 7897 H 763.527 3.54634 3.47058 0
M  V30 7898 N 762.7 -0.34323 1.53817 0
M  V30 7899 C 764.116 -0.686355 1.44088 0
M  V30 7900 C 764.316 -1.92426 0.597882 0
M  V30 7901 O 763.372 -2.52343 0.0889918 0
M  V30 7902 C 764.685 -0.878698 2.87575 0
M  V30 7903 C 766.233 -0.977296 2.97352 0
M  V30 7904 C 766.708 -1.20195 4.41947 0
M  V30 7905 N 768.199 -1.26915 4.45474 0
M  V30 7906 C 768.934 -1.46049 5.54488 0
M  V30 7907 N 768.43 -1.62354 6.73508 0
M  V30 7908 N 770.223 -1.48599 5.42102 0
M  V30 7909 H 762.374 0.470679 2.07119 0
M  V30 7910 H 764.637 0.148652 0.936273 0
M  V30 7911 H 764.343 -0.040602 3.51677 0
M  V30 7912 H 764.217 -1.78034 3.32541 0
M  V30 7913 H 766.604 -1.80591 2.3339 0
M  V30 7914 H 766.685 -0.0525498 2.55746 0
M  V30 7915 H 766.329 -0.378262 5.06489 0
M  V30 7916 H 766.259 -2.14027 4.81145 0
M  V30 7917 H 768.75 -1.15837 3.59708 0
M  V30 7918 H 769.063 -1.76591 7.52353 0
M  V30 7919 H 767.408 -1.5949 6.76453 0
M  V30 7920 H 770.599 -1.35443 4.48077 0
M  V30 7921 H 770.772 -1.6317 6.2712 0
M  V30 7922 N 764.178 -1.45556 -0.604258 0
M  V30 7923 C 765.125 -1.54482 -1.71476 0
M  V30 7924 C 766.095 -0.390479 -1.61445 0
M  V30 7925 O 767.28 -0.604371 -1.80975 0
M  V30 7926 C 764.42 -1.52064 -3.09791 0
M  V30 7927 C 763.533 -2.78073 -3.30604 0
M  V30 7928 C 762.668 -2.67304 -4.59044 0
M  V30 7929 C 761.707 -3.88352 -4.73127 0
M  V30 7930 N 760.844 -3.76098 -5.9287 0
M  V30 7931 H 765.684 -2.49349 -1.63184 0
M  V30 7932 H 763.221 -1.23725 -0.795641 0
M  V30 7933 H 765.179 -1.48649 -3.89819 0
M  V30 7934 H 763.809 -0.607442 -3.17033 0
M  V30 7935 H 762.861 -2.91561 -2.44329 0
M  V30 7936 H 764.173 -3.67847 -3.36883 0
M  V30 7937 H 763.327 -2.61875 -5.47272 0
M  V30 7938 H 762.066 -1.75135 -4.55169 0
M  V30 7939 H 761.071 -3.94137 -3.83322 0
M  V30 7940 H 762.296 -4.81591 -4.78797 0
M  V30 7941 H 760.242 -2.867 -5.90033 0
M  V30 7942 H 760.159 -4.59509 -6.00323 0
M  V30 7943 H 761.427 -3.74607 -6.83586 0
M  V30 7944 N 765.656 0.84705 -1.32902 0
M  V30 7945 C 766.566 1.98845 -1.2449 0
M  V30 7946 C 767.582 1.7329 -0.15702 0
M  V30 7947 O 768.758 1.978 -0.379104 0
M  V30 7948 C 765.823 3.32679 -0.975985 0
M  V30 7949 C 764.884 3.71405 -2.15306 0
M  V30 7950 C 764.117 4.98853 -1.89688 0
M  V30 7951 O 764.34 5.64134 -0.843168 0
M  V30 7952 O 763.274 5.34889 -2.76002 0
M  V30 7953 H 767.1 2.0888 -2.2046 0
M  V30 7954 H 764.685 0.978852 -1.12867 0
M  V30 7955 H 766.567 4.12885 -0.842826 0
M  V30 7956 H 765.242 3.23667 -0.0464954 0
M  V30 7957 H 764.149 2.91743 -2.34172 0
M  V30 7958 H 765.482 3.85073 -3.06561 0
M  V30 7959 N 767.134 1.16236 1.06428 0
M  V30 7960 C 768.082 0.863669 2.15971 0
M  V30 7961 C 769.076 -0.166723 1.68578 0
M  V30 7962 O 770.282 -0.0208425 1.79988 0
M  V30 7963 H 766.657 0.261684 0.705 0
M  V30 7964 H 768.628 1.79498 2.38376 0
M  V30 7965 C 767.377 0.379697 3.45621 0
M  V30 7966 H 766.7 1.16399 3.82481 0
M  V30 7967 H 768.14 0.209458 4.23482 0
M  V30 7968 C 766.599 -0.900499 3.24642 0
M  V30 7969 O 767.129 -1.97004 3.50074 0
M  V30 7970 N 765.335 -0.843721 2.78082 0
M  V30 7971 H 764.882 0.0268429 2.57586 0
M  V30 7972 H 764.84 -1.70078 2.64425 0
M  V30 7973 N 768.612 -1.24939 0.960631 0
M  V30 7974 C 769.837 -1.9742 0.635608 0
M  V30 7975 C 770.262 -1.70857 -0.786737 0
M  V30 7976 O 769.62 -0.968063 -1.53291 0
M  V30 7977 C 769.668 -3.48987 0.907771 0
M  V30 7978 O 768.772 -4.12399 -0.0104053 0
M  V30 7979 H 768.113 -0.61871 0.241027 0
M  V30 7980 H 770.643 -1.58901 1.28886 0
M  V30 7981 H 770.653 -3.99334 0.836453 0
M  V30 7982 H 769.328 -3.6765 1.94439 0
M  V30 7983 H 767.905 -3.72727 0.113631 0
M  V30 7984 N 770.09 -0.729906 -1.39679 0
M  V30 7985 C 771.315 -0.284345 -2.05442 0
M  V30 7986 C 771.74 1.07056 -1.54663 0
M  V30 7987 O 771.098 1.67732 -0.688157 0
M  V30 7988 C 771.146 -0.290089 -3.59431 0
M  V30 7989 O 770.25 0.723978 -4.05995 0
M  V30 7990 H 769.591 -0.130311 -0.651088 0
M  V30 7991 H 772.121 -0.994403 -1.78809 0
M  V30 7992 H 772.131 -0.132712 -4.07784 0
M  V30 7993 H 770.806 -1.27877 -3.95753 0
M  V30 7994 H 769.383 0.533154 -3.69069 0
M  V30 7995 N 771.568 1.50203 -0.477153 0
M  V30 7996 C 772.478 2.32421 0.319027 0
M  V30 7997 C 773.494 1.43075 0.990233 0
M  V30 7998 O 774.67 1.76123 0.976873 0
M  V30 7999 C 771.735 3.17909 1.38328 0
M  V30 8000 C 770.796 4.23082 0.728036 0
M  V30 8001 C 770.029 5.04484 1.74158 0
M  V30 8002 O 770.252 4.8705 2.96881 0
M  V30 8003 O 769.186 5.8747 1.31006 0
M  V30 8004 H 773.012 3.01638 -0.353281 0
M  V30 8005 H 770.597 1.47478 -0.238891 0
M  V30 8006 H 772.479 3.70937 1.9996 0
M  V30 8007 H 771.154 2.51413 2.03895 0
M  V30 8008 H 770.061 3.7403 0.07261 0
M  V30 8009 H 771.394 4.92065 0.115216 0
M  V30 8010 N 773.046 0.209999 1.56195 0
M  V30 8011 C 774.295 -0.425106 1.97169 0
M  V30 8012 C 774.608 -1.61718 1.10031 0
M  V30 8013 O 775.814 -2.32105 1.40853 0
M  V30 8014 C 774.27 -0.80771 3.50719 0
M  V30 8015 C 773.878 0.360902 4.46544 0
M  V30 8016 C 775.622 -1.40906 4.00432 0
M  V30 8017 C 773.529 -0.0434919 5.91384 0
M  V30 8018 H 772.459 -0.162598 0.736259 0
M  V30 8019 H 775.11 0.304382 1.80958 0
M  V30 8020 H 773.492 -1.59429 3.62489 0
M  V30 8021 H 774.666 1.13846 4.46515 0
M  V30 8022 H 772.981 0.874729 4.07109 0
M  V30 8023 H 775.578 -1.72433 5.06133 0
M  V30 8024 H 775.921 -2.32081 3.45607 0
M  V30 8025 H 776.454 -0.686154 3.91838 0
M  V30 8026 H 773.193 0.834448 6.50167 0
M  V30 8027 H 772.713 -0.785598 5.94633 0
M  V30 8028 H 774.392 -0.474176 6.4526 0
M  V30 8029 N 774.524 -1.57472 -0.0634922 0
M  V30 8030 C 775.764 -1.89491 -0.766312 0
M  V30 8031 C 776.128 -0.80475 -1.74321 0
M  V30 8032 O 777.329 -1.00825 -2.49174 0
M  V30 8033 C 775.6 -3.26731 -1.44851 0
M  V30 8034 S 777.159 -3.80516 -2.18525 0
M  V30 8035 H 773.977 -0.663832 -0.254653 0
M  V30 8036 H 776.579 -1.95488 -0.0220867 0
M  V30 8037 H 775.283 -4.03967 -0.723824 0
M  V30 8038 H 774.814 -3.23953 -2.232 0
M  V30 8039 H 776.829 -3.5647 -3.45172 0
M  V30 8040 N 776.003 0.335068 -1.53997 0
M  V30 8041 C 777.228 1.09859 -1.75914 0
M  V30 8042 C 777.653 1.81308 -0.500915 0
M  V30 8043 O 777.011 1.72854 0.54693 0
M  V30 8044 C 777.059 2.08122 -2.94478 0
M  V30 8045 O 776.163 3.15805 -2.65219 0
M  V30 8046 H 775.504 0.317313 -0.583274 0
M  V30 8047 H 778.034 0.382872 -2.00986 0
M  V30 8048 H 778.044 2.51195 -3.21504 0
M  V30 8049 H 776.719 1.55517 -3.8573 0
M  V30 8050 H 775.296 2.77489 -2.49107 0
M  V30 8051 N 777.481 1.45874 0.596531 0
M  V30 8052 C 778.429 1.55739 1.72766 0
M  V30 8053 C 779.423 0.426666 1.63939 0
M  V30 8054 O 780.629 0.60301 1.69599 0
M  V30 8055 H 777.004 0.489386 0.570968 0
M  V30 8056 H 778.975 2.50871 1.61575 0
M  V30 8057 C 777.724 1.55174 3.11153 0
M  V30 8058 H 777.047 2.41511 3.1861 0
M  V30 8059 H 778.487 1.66133 3.90097 0
M  V30 8060 C 776.946 0.278001 3.35751 0
M  V30 8061 O 777.476 -0.637557 3.96608 0
M  V30 8062 N 775.682 0.170227 2.90101 0
M  V30 8063 H 775.229 0.916159 2.40758 0
M  V30 8064 H 775.187 -0.68117 3.06932 0
M  V30 8065 N 778.959 -0.83999 1.33349 0
M  V30 8066 C 779.907 -1.97113 1.23488 0
M  V30 8067 C 780.901 -1.68849 0.136503 0
M  V30 8068 O 782.107 -1.77476 0.300389 0
M  V30 8069 H 778.482 -0.647049 0.383185 0
M  V30 8070 H 780.453 -2.02554 2.19122 0
M  V30 8071 C 779.202 -3.33314 0.989815 0
M  V30 8072 H 778.525 -3.556 1.82726 0
M  V30 8073 H 779.965 -4.12963 0.961123 0
M  V30 8074 C 778.424 -3.35496 -0.307272 0
M  V30 8075 O 778.954 -3.79589 -1.31434 0
M  V30 8076 N 777.16 -2.88669 -0.334414 0
M  V30 8077 H 776.707 -2.5298 0.485659 0
M  V30 8078 H 776.665 -2.90512 -1.20209 0
M  V30 8079 N 780.437 -1.16799 -1.0581 0
M  V30 8080 C 781.685 -0.950642 -1.78346 0
M  V30 8081 C 782.006 0.522524 -1.87869 0
M  V30 8082 O 781.276 1.3795 -1.39092 0
M  V30 8083 H 779.856 -0.348736 -0.6606 0
M  V30 8084 H 782.518 -1.47158 -1.27791 0
M  V30 8085 H 781.614 -1.37359 -2.80248 0
M  V30 8086 N 781.915 1.24427 -0.967243 0
M  V30 8087 C 782.825 2.29109 -0.504592 0
M  V30 8088 C 783.841 1.68495 0.434224 0
M  V30 8089 O 785.017 1.99041 0.307379 0
M  V30 8090 C 782.082 3.46133 0.198273 0
M  V30 8091 C 781.143 4.22149 -0.780313 0
M  V30 8092 C 780.376 5.33585 -0.110896 0
M  V30 8093 O 780.599 5.59676 1.10088 0
M  V30 8094 O 779.533 5.96522 -0.802823 0
M  V30 8095 H 783.359 2.708 -1.37482 0
M  V30 8096 H 780.944 1.30111 -0.73426 0
M  V30 8097 H 782.826 4.17205 0.593124 0
M  V30 8098 H 781.501 3.0642 1.04347 0
M  V30 8099 H 780.408 3.53454 -1.22561 0
M  V30 8100 H 781.741 4.65677 -1.59392 0
M  V30 8101 N 783.393 0.737304 1.3929 0
M  V30 8102 C 784.633 0.290966 2.02318 0
M  V30 8103 C 784.997 -1.10174 1.57244 0
M  V30 8104 O 786.198 -1.64628 2.12488 0
M  V30 8105 C 784.469 0.391767 3.55246 0
M  V30 8106 S 786.028 0.0256103 4.38793 0
M  V30 8107 H 782.846 0.113862 0.701824 0
M  V30 8108 H 785.448 0.964329 1.70062 0
M  V30 8109 H 784.152 1.40662 3.85542 0
M  V30 8110 H 783.683 -0.299338 3.9226 0
M  V30 8111 H 785.698 -1.18991 4.81722 0
M  V30 8112 N 784.871 -1.49948 0.485112 0
M  V30 8113 C 786.117 -2.02695 -0.0651022 0
M  V30 8114 C 786.45 -1.36534 -1.38102 0
M  V30 8115 O 785.725 -0.495677 -1.88078 0
M  V30 8116 C 786.008 -3.59337 -0.234285 0
M  V30 8117 C 785.861 -4.3605 1.10364 0
M  V30 8118 C 787.18 -4.28996 -0.982351 0
M  V30 8119 H 784.299 -0.736666 -0.0221856 0
M  V30 8120 H 786.941 -1.7913 0.633433 0
M  V30 8121 H 785.091 -3.79546 -0.829262 0
M  V30 8122 H 786.763 -4.27377 1.73627 0
M  V30 8123 H 785.006 -3.99236 1.69686 0
M  V30 8124 H 785.677 -5.43959 0.938743 0
M  V30 8125 H 788.153 -4.13346 -0.477904 0
M  V30 8126 H 787.029 -5.38379 -1.06955 0
M  V30 8127 H 787.29 -3.93135 -2.02231 0
M  V30 8128 N 786.349 -0.21828 -1.56081 0
M  V30 8129 C 787.589 0.416193 -2.00118 0
M  V30 8130 C 787.953 1.5718 -1.10265 0
M  V30 8131 O 789.154 2.27206 -1.43635 0
M  V30 8132 C 787.425 0.842781 -3.47321 0
M  V30 8133 S 788.984 1.47182 -4.1338 0
M  V30 8134 H 785.802 0.132219 -0.698598 0
M  V30 8135 H 788.404 -0.326799 -1.92749 0
M  V30 8136 H 787.108 -0.00799925 -4.10399 0
M  V30 8137 H 786.639 1.61867 -3.58556 0
M  V30 8138 H 788.654 2.76087 -4.12299 0
M  V30 8139 N 787.827 1.57504 0.0551401 0
M  V30 8140 C 789.075 1.87684 0.74962 0
M  V30 8141 C 789.396 0.812547 1.77264 0
M  V30 8142 O 788.666 -0.15694 1.9527 0
M  V30 8143 H 787.246 0.6926 0.279846 0
M  V30 8144 H 789.908 1.94881 0.0272745 0
M  V30 8145 H 789.004 2.85734 1.25548 0
M  V30 8146 N 789.305 -0.326896 1.54172 0
M  V30 8147 C 790.237 -1.42319 1.79661 0
M  V30 8148 C 791.25 -1.47989 0.678456 0
M  V30 8149 O 792.439 -1.50773 0.955503 0
M  V30 8150 C 789.539 -2.80876 1.89636 0
M  V30 8151 C 788.712 -2.98449 3.19761 0
M  V30 8152 C 787.771 -4.17347 3.2048 0
M  V30 8153 O 786.797 -4.10667 3.94134 0
M  V30 8154 N 787.999 -5.26717 2.44027 0
M  V30 8155 H 790.764 -1.20819 2.74268 0
M  V30 8156 H 788.325 -0.516866 1.53428 0
M  V30 8157 H 790.317 -3.58619 1.87549 0
M  V30 8158 H 788.887 -2.95442 1.02141 0
M  V30 8159 H 788.107 -2.08035 3.34836 0
M  V30 8160 H 789.395 -3.07083 4.05681 0
M  V30 8161 H 788.793 -5.35019 1.8377 0
M  V30 8162 H 787.35 -6.02891 2.47721 0
M  V30 8163 N 790.784 -1.46188 -0.588786 0
M  V30 8164 C 792.024 -1.52738 -1.35833 0
M  V30 8165 C 792.388 -0.172403 -1.91224 0
M  V30 8166 O 793.589 -0.112633 -2.68564 0
M  V30 8167 C 791.86 -2.59085 -2.4619 0
M  V30 8168 S 793.419 -2.84997 -3.3365 0
M  V30 8169 H 790.237 -0.539713 -0.462851 0
M  V30 8170 H 792.839 -1.83386 -0.677489 0
M  V30 8171 H 791.543 -3.56177 -2.03878 0
M  V30 8172 H 791.074 -2.3015 -3.19053 0
M  V30 8173 H 793.089 -2.19804 -4.4486 0
M  V30 8174 N 792.262 0.832906 -1.33792 0
M  V30 8175 C 793.508 1.59089 -1.25772 0
M  V30 8176 C 793.841 1.93414 0.174601 0
M  V30 8177 O 793.116 1.59195 1.11746 0
M  V30 8178 C 793.399 2.89699 -2.13885 0
M  V30 8179 C 793.252 2.62017 -3.65605 0
M  V30 8180 C 794.571 3.91182 -2.01654 0
M  V30 8181 H 791.69 0.577232 -0.458227 0
M  V30 8182 H 794.332 0.960227 -1.6395 0
M  V30 8183 H 792.482 3.4352 -1.81456 0
M  V30 8184 H 794.154 2.14582 -4.08353 0
M  V30 8185 H 792.397 1.95621 -3.87189 0
M  V30 8186 H 793.068 3.55112 -4.2261 0
M  V30 8187 H 795.544 3.46684 -2.30107 0
M  V30 8188 H 794.42 4.80391 -2.65548 0
M  V30 8189 H 794.681 4.30861 -0.990536 0
M  V30 8190 N 793.74 1.17359 1.05189 0
M  V30 8191 C 794.98 0.972812 1.79766 0
M  V30 8192 C 795.344 -0.489832 1.85647 0
M  V30 8193 O 796.545 -0.809682 2.56315 0
M  V30 8194 C 794.816 1.59636 3.19767 0
M  V30 8195 S 796.375 1.54178 4.10822 0
M  V30 8196 H 793.193 0.34959 0.619119 0
M  V30 8197 H 795.795 1.49304 1.26209 0
M  V30 8198 H 794.499 2.65336 3.13089 0
M  V30 8199 H 794.03 1.07594 3.78401 0
M  V30 8200 H 796.045 0.549785 4.93145 0
M  V30 8201 N 795.218 -1.23913 0.973828 0
M  V30 8202 C 796.634 -1.44325 0.681363 0
M  V30 8203 C 796.834 -1.86832 -0.754728 0
M  V30 8204 O 795.89 -2.01024 -1.52793 0
M  V30 8205 C 797.203 -2.50017 1.67069 0
M  V30 8206 C 798.751 -2.63838 1.68399 0
M  V30 8207 C 799.226 -3.72734 2.66145 0
M  V30 8208 N 800.717 -3.80169 2.64624 0
M  V30 8209 C 801.452 -4.6397 3.36927 0
M  V30 8210 N 800.948 -5.51911 4.18767 0
M  V30 8211 N 802.741 -4.58106 3.25722 0
M  V30 8212 H 794.892 -0.946204 1.9016 0
M  V30 8213 H 797.155 -0.477374 0.819035 0
M  V30 8214 H 796.861 -2.25686 2.69738 0
M  V30 8215 H 796.735 -3.48287 1.4483 0
M  V30 8216 H 799.122 -2.87524 0.664379 0
M  V30 8217 H 799.203 -1.65906 1.94702 0
M  V30 8218 H 798.847 -3.49797 3.68245 0
M  V30 8219 H 798.777 -4.70193 2.3712 0
M  V30 8220 H 801.268 -3.17319 2.05224 0
M  V30 8221 H 801.581 -6.12828 4.70809 0
M  V30 8222 H 799.926 -5.51556 4.2286 0
M  V30 8223 H 803.117 -3.8842 2.61242 0
M  V30 8224 H 803.29 -5.23188 3.82333 0
M  V30 8225 N 796.696 -0.74468 -1.38897 0
M  V30 8226 C 797.643 -0.111064 -2.30533 0
M  V30 8227 C 798.613 0.719276 -1.49719 0
M  V30 8228 O 799.798 0.677244 -1.78376 0
M  V30 8229 C 796.938 0.78292 -3.36102 0
M  V30 8230 C 796.051 -0.0610817 -4.31957 0
M  V30 8231 C 795.186 0.835075 -5.24595 0
M  V30 8232 C 794.225 -0.0130974 -6.12099 0
M  V30 8233 N 793.362 0.839525 -6.97063 0
M  V30 8234 H 798.202 -0.898113 -2.84144 0
M  V30 8235 H 795.739 -0.454537 -1.39901 0
M  V30 8236 H 797.697 1.31578 -3.95908 0
M  V30 8237 H 796.327 1.53585 -2.83922 0
M  V30 8238 H 795.379 -0.711469 -3.73687 0
M  V30 8239 H 796.691 -0.716482 -4.93627 0
M  V30 8240 H 795.845 1.43542 -5.89475 0
M  V30 8241 H 794.584 1.52423 -4.63269 0
M  V30 8242 H 793.589 -0.626179 -5.46223 0
M  V30 8243 H 794.814 -0.699181 -6.75491 0
M  V30 8244 H 792.76 1.5138 -6.38295 0
M  V30 8245 H 792.677 0.240823 -7.55616 0
M  V30 8246 H 793.945 1.42513 -7.66362 0
M  V30 8247 N 798.174 1.49689 -0.493057 0
M  V30 8248 C 799.59 1.58907 -0.148526 0
M  V30 8249 C 799.79 1.4991 1.34645 0
M  V30 8250 O 798.846 1.36893 2.12171 0
M  V30 8251 C 800.159 2.91996 -0.718265 0
M  V30 8252 C 801.707 3.05443 -0.683658 0
M  V30 8253 C 802.182 4.41138 -1.23132 0
M  V30 8254 N 803.673 4.47608 -1.19167 0
M  V30 8255 C 804.408 5.51038 -1.5857 0
M  V30 8256 N 803.904 6.61612 -2.05528 0
M  V30 8257 N 805.697 5.41706 -1.50036 0
M  V30 8258 H 797.848 1.5378 -1.46511 0
M  V30 8259 H 800.111 0.727996 -0.607228 0
M  V30 8260 H 799.817 3.04123 -1.7664 0
M  V30 8261 H 799.691 3.76798 -0.17419 0
M  V30 8262 H 802.078 2.92949 0.355626 0
M  V30 8263 H 802.159 2.22344 -1.26479 0
M  V30 8264 H 801.803 4.54382 -2.26935 0
M  V30 8265 H 801.733 5.22864 -0.626201 0
M  V30 8266 H 804.224 3.68274 -0.847524 0
M  V30 8267 H 804.537 7.36622 -2.33685 0
M  V30 8268 H 802.882 6.62674 -2.09497 0
M  V30 8269 H 806.073 4.54212 -1.13176 0
M  V30 8270 H 806.246 6.22188 -1.81068 0
M  V30 8271 N 799.652 0.226554 1.55963 0
M  V30 8272 C 800.929 -0.453058 1.90281 0
M  V30 8273 C 801.309 -1.77377 1.14458 0
M  V30 8274 O 800.657 -2.27067 0.255496 0
M  V30 8275 C 800.867 -0.641108 3.43061 0
M  V30 8276 C 802.215 -0.946265 4.13921 0
M  V30 8277 O 803.239 -0.727713 3.48687 0
M  V30 8278 O 802.098 -1.36131 5.29274 0
M  V30 8279 H 799.192 -0.240242 0.791336 0
M  V30 8280 H 801.738 0.26911 1.67553 0
M  V30 8281 H 800.51 0.290283 3.90222 0
M  V30 8282 H 800.133 -1.41458 3.71585 0
M  V30 8283 N 801.13 -1.57531 -0.0467866 0
M  V30 8284 C 802.078 -2.06455 -1.0714 0
M  V30 8285 C 803.072 -0.974744 -1.38546 0
M  V30 8286 O 804.278 -1.15974 -1.37659 0
M  V30 8287 H 800.653 -0.658607 -0.362962 0
M  V30 8288 H 802.624 -2.91613 -0.632813 0
M  V30 8289 C 801.373 -2.54481 -2.36927 0
M  V30 8290 H 800.696 -3.37946 -2.13617 0
M  V30 8291 H 802.136 -2.92442 -3.07007 0
M  V30 8292 C 800.595 -1.43836 -3.04652 0
M  V30 8293 O 801.125 -0.794531 -3.93764 0
M  V30 8294 N 799.331 -1.17727 -2.65686 0
M  V30 8295 H 798.878 -1.70265 -1.93307 0
M  V30 8296 H 798.836 -0.439051 -3.11319 0
M  V30 8297 N 802.608 0.318715 -1.54344 0
M  V30 8298 C 803.836 1.0755 -1.7675 0
M  V30 8299 C 804.251 1.81543 -0.518422 0
M  V30 8300 O 803.608 1.75198 0.511078 0
M  V30 8301 C 803.659 2.06983 -2.96378 0
M  V30 8302 O 803.38 1.35995 -4.16458 0
M  V30 8303 C 804.881 2.94841 -3.31034 0
M  V30 8304 H 802.101 0.319711 -0.589937 0
M  V30 8305 H 804.645 0.363369 -2.01246 0
M  V30 8306 H 802.8 2.73724 -2.74142 0
M  V30 8307 H 803.214 2.02623 -4.83781 0
M  V30 8308 H 804.688 3.60496 -4.18027 0
M  V30 8309 H 805.165 3.62199 -2.48412 0
M  V30 8310 H 805.771 2.33656 -3.55366 0
M  V30 8311 N 804.086 1.46499 0.581025 0
M  V30 8312 C 805.034 1.57562 1.71105 0
M  V30 8313 C 806.028 0.44403 1.63477 0
M  V30 8314 O 807.234 0.620964 1.6895 0
M  V30 8315 H 803.609 0.495415 0.565746 0
M  V30 8316 H 805.58 2.5257 1.58905 0
M  V30 8317 C 804.329 1.58465 3.0949 0
M  V30 8318 H 803.652 2.44877 3.16031 0
M  V30 8319 H 805.092 1.70261 3.88313 0
M  V30 8320 C 803.551 0.313596 3.35437 0
M  V30 8321 O 804.081 -0.595456 3.97262 0
M  V30 8322 N 802.287 0.200986 2.89904 0
M  V30 8323 H 801.834 0.941643 2.39773 0
M  V30 8324 H 801.792 -0.648577 3.07638 0
M  V30 8325 N 805.565 -0.825799 1.34232 0
M  V30 8326 C 806.475 -1.9684 1.27638 0
M  V30 8327 C 807.491 -1.73018 0.184569 0
M  V30 8328 O 808.667 -1.97172 0.410525 0
M  V30 8329 C 805.732 -3.31084 1.02879 0
M  V30 8330 C 804.793 -3.67933 2.21188 0
M  V30 8331 C 804.026 -4.95772 1.976 0
M  V30 8332 O 804.249 -5.62721 0.93281 0
M  V30 8333 O 803.183 -5.30431 2.84477 0
M  V30 8334 H 807.009 -2.05346 2.23756 0
M  V30 8335 H 804.594 -0.960772 1.1441 0
M  V30 8336 H 806.476 -4.11492 0.908406 0
M  V30 8337 H 805.151 -3.23552 0.0979821 0
M  V30 8338 H 804.058 -2.87981 2.38784 0
M  V30 8339 H 805.391 -3.80147 3.12648 0
M  V30 8340 N 807.043 -1.17915 -1.04565 0
M  V30 8341 C 808.292 -0.965816 -1.77073 0
M  V30 8342 C 808.605 0.506005 -1.88942 0
M  V30 8343 O 809.811 0.837717 -2.58253 0
M  V30 8344 C 808.267 -1.67894 -3.18339 0
M  V30 8345 C 807.875 -3.18972 -3.1458 0
M  V30 8346 C 809.619 -1.54823 -3.9526 0
M  V30 8347 C 807.526 -3.82946 -4.50674 0
M  V30 8348 H 806.456 -0.357729 -0.663736 0
M  V30 8349 H 809.107 -1.41235 -1.17153 0
M  V30 8350 H 807.489 -1.16016 -3.78624 0
M  V30 8351 H 808.663 -3.77835 -2.63776 0
M  V30 8352 H 806.978 -3.32127 -2.51159 0
M  V30 8353 H 809.575 -1.99984 -4.95894 0
M  V30 8354 H 809.918 -0.499727 -4.1329 0
M  V30 8355 H 810.451 -2.03953 -3.41538 0
M  V30 8356 H 807.19 -4.8782 -4.37849 0
M  V30 8357 H 806.71 -3.2887 -5.01602 0
M  V30 8358 H 808.389 -3.85518 -5.196 0
M  V30 8359 N 808.521 1.23394 -0.980386 0
M  V30 8360 C 809.751 1.9556 -0.666319 0
M  V30 8361 C 810.159 1.72786 0.770815 0
M  V30 8362 O 809.502 1.0162 1.53033 0
M  V30 8363 C 809.564 3.48643 -0.876825 0
M  V30 8364 C 809.228 3.95135 -2.29602 0
M  V30 8365 C 810.225 4.03806 -3.2747 0
M  V30 8366 C 807.91 4.28122 -2.62711 0
M  V30 8367 C 809.904 4.44818 -4.56526 0
M  V30 8368 C 807.591 4.68814 -3.9199 0
M  V30 8369 C 808.589 4.77129 -4.88709 0
M  V30 8370 O 808.277 5.16908 -6.15679 0
M  V30 8371 H 808.009 0.629422 -0.246585 0
M  V30 8372 H 810.563 1.57839 -1.31438 0
M  V30 8373 H 808.793 3.86319 -0.171587 0
M  V30 8374 H 810.482 4.0202 -0.55992 0
M  V30 8375 H 811.248 3.78526 -3.03222 0
M  V30 8376 H 807.127 4.20861 -1.8814 0
M  V30 8377 H 810.671 4.51223 -5.32018 0
M  V30 8378 H 806.568 4.93545 -4.16033 0
M  V30 8379 H 807.336 5.3502 -6.19432 0
M  V30 8380 N 809.999 0.752036 1.385 0
M  V30 8381 C 811.224 0.316993 2.04963 0
M  V30 8382 C 811.649 -1.04582 1.56346 0
M  V30 8383 O 811.007 -1.66616 0.714755 0
M  V30 8384 C 811.055 0.347235 3.58924 0
M  V30 8385 O 810.159 -0.659296 4.07096 0
M  V30 8386 H 809.5 0.140652 0.648932 0
M  V30 8387 H 812.03 1.02272 1.77205 0
M  V30 8388 H 812.04 0.19757 4.07521 0
M  V30 8389 H 810.715 1.34157 3.93668 0
M  V30 8390 H 809.292 -0.474371 3.6987 0
M  V30 8391 N 811.477 -1.49425 0.500989 0
M  V30 8392 C 812.725 -2.02053 -0.0434495 0
M  V30 8393 C 813.046 -1.38285 -1.37486 0
M  V30 8394 O 812.316 -0.538171 -1.88363 0
M  V30 8395 H 810.896 -0.746757 -0.0190469 0
M  V30 8396 H 813.558 -1.83449 0.658227 0
M  V30 8397 H 812.654 -3.11619 -0.173129 0
M  V30 8398 N 812.955 -0.234822 -1.55841 0
M  V30 8399 C 813.902 0.6698 -2.20867 0
M  V30 8400 C 814.872 1.18042 -1.16856 0
M  V30 8401 O 816.057 1.23709 -1.45261 0
M  V30 8402 C 813.197 1.86646 -2.90271 0
M  V30 8403 C 812.31 1.39351 -4.08908 0
M  V30 8404 C 811.445 2.54878 -4.66059 0
M  V30 8405 C 810.484 2.04384 -5.76969 0
M  V30 8406 N 809.621 3.13233 -6.28355 0
M  V30 8407 H 814.461 0.10858 -2.97802 0
M  V30 8408 H 811.998 0.041836 -1.4704 0
M  V30 8409 H 813.956 2.56926 -3.28702 0
M  V30 8410 H 812.586 2.40035 -2.15831 0
M  V30 8411 H 811.638 0.585173 -3.75872 0
M  V30 8412 H 812.95 0.983356 -4.89011 0
M  V30 8413 H 812.104 3.33219 -5.07001 0
M  V30 8414 H 810.843 2.99188 -3.85146 0
M  V30 8415 H 809.848 1.24509 -5.35516 0
M  V30 8416 H 811.073 1.61057 -6.59725 0
M  V30 8417 H 809.019 3.57 -5.50352 0
M  V30 8418 H 808.936 2.76511 -7.03618 0
M  V30 8419 H 810.204 3.91669 -6.73955 0
M  V30 8420 N 814.433 1.57553 0.0384317 0
M  V30 8421 C 815.68 1.88841 0.731116 0
M  V30 8422 C 816.008 0.83093 1.75857 0
M  V30 8423 O 815.263 -0.169248 1.94967 0
M  V30 8424 C 815.562 3.26862 1.44554 0
M  V30 8425 C 815.228 4.47472 0.554946 0
M  V30 8426 C 813.89 4.80203 0.309621 0
M  V30 8427 C 816.242 5.21165 -0.0605204 0
M  V30 8428 C 813.57 5.8402 -0.560101 0
M  V30 8429 C 815.922 6.25905 -0.91789 0
M  V30 8430 C 814.586 6.57117 -1.17277 0
M  V30 8431 H 813.856 0.691018 0.267534 0
M  V30 8432 H 816.503 1.91498 -0.00883195 0
M  V30 8433 H 814.808 3.2015 2.25856 0
M  V30 8434 H 816.505 3.48316 1.98688 0
M  V30 8435 H 813.095 4.21874 0.756304 0
M  V30 8436 H 817.279 4.96164 0.116064 0
M  V30 8437 H 812.535 6.06583 -0.765974 0
M  V30 8438 H 816.709 6.82155 -1.40136 0
M  V30 8439 H 814.336 7.37385 -1.84843 0
M  V30 8440 N 815.911 -0.310526 1.54511 0
M  V30 8441 C 817.151 -1.05498 1.7507 0
M  V30 8442 C 817.515 -1.84814 0.520381 0
M  V30 8443 O 818.716 -2.61937 0.603547 0
M  V30 8444 C 816.987 -1.94466 2.99863 0
M  V30 8445 S 818.546 -2.75686 3.41383 0
M  V30 8446 H 815.364 -0.355951 0.615483 0
M  V30 8447 H 817.966 -0.329464 1.92704 0
M  V30 8448 H 816.67 -1.35055 3.87541 0
M  V30 8449 H 816.201 -2.71401 2.84789 0
M  V30 8450 H 818.216 -3.96971 2.97706 0
M  V30 8451 N 817.389 -1.46805 -0.573248 0
M  V30 8452 C 818.299 -1.60687 -1.70929 0
M  V30 8453 C 819.315 -0.490084 -1.66956 0
M  V30 8454 O 820.491 -0.755482 -1.86693 0
M  V30 8455 C 817.556 -1.60259 -3.07438 0
M  V30 8456 C 816.617 -2.83242 -3.22603 0
M  V30 8457 C 815.85 -2.82825 -4.52599 0
M  V30 8458 O 816.073 -1.92113 -5.37074 0
M  V30 8459 O 815.007 -3.74489 -4.71213 0
M  V30 8460 H 818.833 -2.56782 -1.62163 0
M  V30 8461 H 816.418 -1.29706 -0.741399 0
M  V30 8462 H 818.3 -1.6275 -3.88704 0
M  V30 8463 H 816.975 -0.673268 -3.16621 0
M  V30 8464 H 815.882 -2.86302 -2.40794 0
M  V30 8465 H 817.215 -3.75415 -3.18315 0
M  V30 8466 N 818.867 0.818669 -1.34668 0
M  V30 8467 C 820.107 1.58862 -1.28617 0
M  V30 8468 C 820.471 1.91483 0.140845 0
M  V30 8469 O 821.672 2.66821 0.325583 0
M  V30 8470 C 819.943 2.85044 -2.15604 0
M  V30 8471 S 821.502 3.75553 -2.26948 0
M  V30 8472 H 818.32 0.544454 -0.457265 0
M  V30 8473 H 820.922 0.966679 -1.69928 0
M  V30 8474 H 819.626 2.59083 -3.18284 0
M  V30 8475 H 819.157 3.52231 -1.75205 0
M  V30 8476 H 821.172 4.74682 -1.44539 0
M  V30 8477 N 820.346 1.18468 1.03938 0
M  V30 8478 C 821.623 0.890435 1.74157 0
M  V30 8479 C 822.003 -0.606409 2.02203 0
M  V30 8480 O 821.351 -1.5615 1.66822 0
M  V30 8481 C 821.561 1.73906 3.02585 0
M  V30 8482 C 822.909 1.96686 3.76297 0
M  V30 8483 O 823.933 1.70969 3.12487 0
M  V30 8484 O 822.792 2.39986 4.90988 0
M  V30 8485 H 819.886 0.330889 0.757919 0
M  V30 8486 H 822.432 1.29228 1.09992 0
M  V30 8487 H 821.204 2.75369 2.78006 0
M  V30 8488 H 820.827 1.33581 3.74489 0
M  V30 8489 N 821.824 -1.22873 0.986916 0
M  V30 8490 C 822.772 -2.26597 0.525043 0
M  V30 8491 C 823.766 -1.64079 -0.421252 0
M  V30 8492 O 824.972 -1.77576 -0.294429 0
M  V30 8493 H 821.347 -0.736606 0.151381 0
M  V30 8494 H 823.318 -2.62909 1.41142 0
M  V30 8495 C 822.067 -3.47374 -0.150542 0
M  V30 8496 H 821.39 -3.95737 0.568541 0
M  V30 8497 H 822.83 -4.21739 -0.437256 0
M  V30 8498 C 821.289 -3.07163 -1.38392 0
M  V30 8499 O 821.819 -3.16028 -2.47971 0
M  V30 8500 N 820.025 -2.62009 -1.25697 0
M  V30 8501 H 819.572 -2.54996 -0.365355 0
M  V30 8502 H 819.53 -2.35472 -2.08327 0
M  V30 8503 N 823.302 -0.75937 -1.38099 0
M  V30 8504 C 824.549 -0.318113 -1.99986 0
M  V30 8505 C 824.877 1.10184 -1.6028 0
M  V30 8506 O 824.132 1.77015 -0.834524 0
M  V30 8507 C 824.431 -0.394999 -3.55211 0
M  V30 8508 C 824.097 -1.77143 -4.14646 0
M  V30 8509 C 822.759 -2.14811 -4.30592 0
M  V30 8510 C 825.111 -2.67407 -4.47373 0
M  V30 8511 C 822.439 -3.42203 -4.76565 0
M  V30 8512 C 824.791 -3.94196 -4.94765 0
M  V30 8513 C 823.455 -4.31925 -5.08918 0
M  V30 8514 H 822.725 -0.116406 -0.7318 0
M  V30 8515 H 825.372 -0.97098 -1.65058 0
M  V30 8516 H 823.677 0.341426 -3.9031 0
M  V30 8517 H 825.374 -0.0350722 -4.00985 0
M  V30 8518 H 821.964 -1.46864 -4.02652 0
M  V30 8519 H 826.148 -2.39569 -4.3465 0
M  V30 8520 H 821.404 -3.71346 -4.85708 0
M  V30 8521 H 825.578 -4.64276 -5.19057 0
M  V30 8522 H 823.205 -5.30699 -5.443 0
M  V30 8523 N 824.78 1.49157 -0.508906 0
M  V30 8524 C 825.728 2.30922 0.278906 0
M  V30 8525 C 826.722 1.39889 0.955382 0
M  V30 8526 O 827.928 1.56901 0.882169 0
M  V30 8527 H 824.303 0.744087 0.108805 0
M  V30 8528 H 826.274 2.95277 -0.430583 0
M  V30 8529 C 825.023 3.21432 1.32576 0
M  V30 8530 H 824.346 3.91413 0.814634 0
M  V30 8531 H 825.786 3.81568 1.84882 0
M  V30 8532 C 824.245 2.41583 2.34817 0
M  V30 8533 O 824.775 2.1256 3.40854 0
M  V30 8534 N 822.981 2.03462 2.07489 0
M  V30 8535 H 822.528 2.27265 1.21278 0
M  V30 8536 H 822.486 1.50345 2.76123 0
M  V30 8537 N 826.258 0.243083 1.55714 0
M  V30 8538 C 827.498 -0.384303 2.00755 0
M  V30 8539 C 827.862 -1.55406 1.12752 0
M  V30 8540 O 829.063 -2.24892 1.47231 0
M  V30 8541 C 827.334 -0.787419 3.48618 0
M  V30 8542 S 828.893 -1.40587 4.15669 0
M  V30 8543 H 825.711 -0.121088 0.700613 0
M  V30 8544 H 828.313 0.357423 1.92205 0
M  V30 8545 H 827.017 0.0732892 4.10335 0
M  V30 8546 H 826.548 -1.56142 3.61086 0
M  V30 8547 H 828.563 -2.69493 4.16639 0
M  V30 8548 N 827.736 -1.57571 -0.0300757 0
M  V30 8549 C 829.013 -1.80381 -0.756447 0
M  V30 8550 C 829.393 -0.840906 -1.93628 0
M  V30 8551 O 828.741 0.117143 -2.282 0
M  V30 8552 C 828.951 -3.2807 -1.19043 0
M  V30 8553 C 830.299 -3.93025 -1.60676 0
M  V30 8554 O 831.323 -3.32213 -1.28503 0
M  V30 8555 O 830.182 -5.00092 -2.20386 0
M  V30 8556 H 827.276 -0.741737 -0.365725 0
M  V30 8557 H 829.822 -1.69699 -0.00693177 0
M  V30 8558 H 828.594 -3.89748 -0.348128 0
M  V30 8559 H 828.217 -3.43637 -1.99999 0
M  V30 8560 N 829.214 0.302327 -1.54673 0
M  V30 8561 C 830.63 0.647911 -1.45857 0
M  V30 8562 C 830.83 1.90773 -0.64869 0
M  V30 8563 O 829.886 2.52018 -0.155865 0
M  V30 8564 C 831.199 0.802144 -2.89804 0
M  V30 8565 C 832.747 0.898114 -2.99838 0
M  V30 8566 C 833.222 1.08436 -4.44978 0
M  V30 8567 N 834.713 1.15059 -4.48682 0
M  V30 8568 C 835.448 1.31296 -5.58166 0
M  V30 8569 N 834.944 1.4444 -6.77576 0
M  V30 8570 N 836.737 1.34174 -5.45851 0
M  V30 8571 H 828.888 -0.525428 -2.05798 0
M  V30 8572 H 831.151 -0.173423 -0.932002 0
M  V30 8573 H 830.857 -0.0526531 -3.51661 0
M  V30 8574 H 830.731 1.69155 -3.37145 0
M  V30 8575 H 833.118 1.7434 -2.38096 0
M  V30 8576 H 833.199 -0.0152752 -2.55795 0
M  V30 8577 H 832.843 0.243843 -5.07314 0
M  V30 8578 H 832.773 2.01195 -4.8665 0
M  V30 8579 H 835.264 1.0626 -3.62653 0
M  V30 8580 H 835.577 1.56582 -7.56771 0
M  V30 8581 H 833.922 1.41499 -6.80443 0
M  V30 8582 H 837.113 1.23516 -4.5151 0
M  V30 8583 H 837.286 1.46485 -6.31226 0
M  V30 8584 N 830.692 1.47107 0.565454 0
M  V30 8585 C 831.917 1.57153 1.35343 0
M  V30 8586 C 832.342 0.219247 1.86818 0
M  V30 8587 O 831.7 -0.803539 1.62521 0
M  V30 8588 C 831.748 2.59387 2.50501 0
M  V30 8589 O 830.852 2.14086 3.52478 0
M  V30 8590 H 830.193 0.528209 0.402357 0
M  V30 8591 H 832.723 1.92821 0.684189 0
M  V30 8592 H 832.733 2.79546 2.97184 0
M  V30 8593 H 831.408 3.57579 2.12391 0
M  V30 8594 H 829.985 2.03991 3.12157 0
M  V30 8595 N 832.17 -0.811516 1.35101 0
M  V30 8596 C 833.118 -1.94449 1.27642 0
M  V30 8597 C 834.112 -1.68522 0.172287 0
M  V30 8598 O 835.318 -1.76799 0.337967 0
M  V30 8599 H 831.693 -0.638776 0.396824 0
M  V30 8600 H 833.664 -1.97861 2.23369 0
M  V30 8601 C 832.413 -3.31139 1.06029 0
M  V30 8602 H 831.736 -3.51644 1.90227 0
M  V30 8603 H 833.176 -4.10831 1.0485 0
M  V30 8604 C 831.635 -3.36072 -0.236039 0
M  V30 8605 O 832.165 -3.82292 -1.23353 0
M  V30 8606 N 830.371 -2.89314 -0.273107 0
M  V30 8607 H 829.918 -2.51893 0.539211 0
M  V30 8608 H 829.876 -2.92996 -1.1402 0
M  V30 8609 N 833.648 -1.19017 -1.03309 0
M  V30 8610 C 834.896 -0.988258 -1.76289 0
M  V30 8611 C 835.217 0.482557 -1.88935 0
M  V30 8612 O 834.487 1.34969 -1.41987 0
M  V30 8613 H 833.067 -0.36267 -0.653054 0
M  V30 8614 H 835.729 -1.49836 -1.2464 0
M  V30 8615 H 834.825 -1.43273 -2.77271 0
M  V30 8616 N 835.127 1.22348 -0.993418 0
M  V30 8617 C 836.057 2.26584 -0.564088 0
M  V30 8618 C 837.038 1.65102 0.409298 0
M  V30 8619 O 838.223 1.91872 0.299819 0
M  V30 8620 C 835.353 3.47087 0.121554 0
M  V30 8621 C 834.307 4.21009 -0.770429 0
M  V30 8622 C 833.633 5.34678 0.0481586 0
M  V30 8623 C 834.933 4.79636 -2.06752 0
M  V30 8624 H 836.627 2.62749 -1.43538 0
M  V30 8625 H 834.173 1.26303 -0.691628 0
M  V30 8626 H 836.126 4.19166 0.433303 0
M  V30 8627 H 834.85 3.1002 1.0274 0
M  V30 8628 H 833.509 3.50764 -1.06583 0
M  V30 8629 H 833.157 4.93852 0.954933 0
M  V30 8630 H 832.857 5.85061 -0.545641 0
M  V30 8631 H 834.381 6.09573 0.353991 0
M  V30 8632 H 835.795 5.43654 -1.81969 0
M  V30 8633 H 834.192 5.4036 -2.61019 0
M  V30 8634 H 835.262 3.99659 -2.74592 0
M  V30 8635 N 836.605 0.766683 1.37694 0
M  V30 8636 C 837.854 0.325425 1.99057 0
M  V30 8637 C 838.167 -1.10275 1.61551 0
M  V30 8638 O 839.373 -1.64513 2.1598 0
M  V30 8639 C 837.829 0.530886 3.55963 0
M  V30 8640 C 837.437 1.96899 4.02411 0
M  V30 8641 C 839.181 0.152997 4.24224 0
M  V30 8642 C 837.088 2.12232 5.52007 0
M  V30 8643 H 836.018 0.117929 0.744721 0
M  V30 8644 H 838.669 0.945091 1.5729 0
M  V30 8645 H 837.051 -0.158162 3.95684 0
M  V30 8646 H 838.225 2.69258 3.73948 0
M  V30 8647 H 836.54 2.303 3.46916 0
M  V30 8648 H 839.137 0.24614 5.34133 0
M  V30 8649 H 839.48 -0.896096 4.06541 0
M  V30 8650 H 840.013 0.794398 3.89787 0
M  V30 8651 H 836.752 3.15442 5.7461 0
M  V30 8652 H 836.272 1.4435 5.82171 0
M  V30 8653 H 837.951 1.9185 6.17902 0
M  V30 8654 N 838.083 -1.48885 0.516809 0
M  V30 8655 C 839.323 -2.0439 -0.0202232 0
M  V30 8656 C 839.687 -1.38652 -1.32814 0
M  V30 8657 O 840.888 -1.84968 -1.95039 0
M  V30 8658 C 839.159 -3.57071 -0.153257 0
M  V30 8659 S 840.718 -4.34074 -0.642256 0
M  V30 8660 H 837.536 -0.710977 0.00576322 0
M  V30 8661 H 840.138 -1.82753 0.694376 0
M  V30 8662 H 838.842 -4.02454 0.803695 0
M  V30 8663 H 838.373 -3.83139 -0.892627 0
M  V30 8664 H 840.388 -4.58011 -1.90893 0
M  V30 8665 N 839.561 -0.251338 -1.55583 0
M  V30 8666 C 840.809 0.371434 -1.98657 0
M  V30 8667 C 841.13 1.58143 -1.14087 0
M  V30 8668 O 840.4 1.94607 -0.224708 0
M  V30 8669 H 838.98 0.140225 -0.733721 0
M  V30 8670 H 841.642 -0.351157 -1.9171 0
M  V30 8671 H 840.738 0.677554 -3.04657 0
M  V30 8672 N 841.039 1.57585 0.0217189 0
M  V30 8673 C 842.287 1.89231 0.709641 0
M  V30 8674 C 842.608 0.849964 1.75501 0
M  V30 8675 O 841.878 -0.115485 1.95559 0
M  V30 8676 H 840.458 0.69838 0.265092 0
M  V30 8677 H 843.12 1.94895 -0.0140688 0
M  V30 8678 H 842.216 2.88333 1.19459 0
M  V30 8679 N 842.517 -0.29412 1.54831 0
M  V30 8680 C 843.465 -1.38296 1.87021 0
M  V30 8681 C 844.459 -1.5216 0.744557 0
M  V30 8682 O 845.665 -1.54196 0.92864 0
M  V30 8683 H 842.04 -0.462088 0.593278 0
M  V30 8684 H 844.011 -1.08386 2.7802 0
M  V30 8685 C 842.76 -2.74024 2.14023 0
M  V30 8686 H 842.083 -2.6414 3.00117 0
M  V30 8687 H 843.523 -3.49205 2.40482 0
M  V30 8688 C 841.982 -3.23492 0.940982 0
M  V30 8689 O 842.512 -4.01361 0.164937 0
M  V30 8690 N 840.718 -2.80902 0.744467 0
M  V30 8691 H 840.265 -2.17694 1.37721 0
M  V30 8692 H 840.223 -3.14349 -0.0563652 0
M  V30 8693 N 843.995 -1.47404 -0.557645 0
M  V30 8694 C 845.243 -1.53703 -1.31224 0
M  V30 8695 C 845.564 -0.200742 -1.93964 0
M  V30 8696 O 844.834 0.775253 -1.79907 0
M  V30 8697 H 843.414 -0.566171 -0.487299 0
M  V30 8698 H 846.076 -1.83699 -0.651195 0
M  V30 8699 H 845.172 -2.30335 -2.10599 0
M  V30 8700 N 845.473 0.80434 -1.35529 0
M  V30 8701 C 846.719 1.56385 -1.29118 0
M  V30 8702 C 847.052 1.9374 0.133536 0
M  V30 8703 O 846.327 1.6153 1.08344 0
M  V30 8704 C 846.61 2.85097 -2.19981 0
M  V30 8705 C 846.463 2.54204 -3.7108 0
M  V30 8706 C 847.782 3.86817 -2.09907 0
M  V30 8707 H 844.901 0.567382 -0.470368 0
M  V30 8708 H 847.543 0.925235 -1.6595 0
M  V30 8709 H 845.693 3.39594 -1.88701 0
M  V30 8710 H 847.365 2.05872 -4.12813 0
M  V30 8711 H 845.608 1.87364 -3.91251 0
M  V30 8712 H 846.279 3.46068 -4.30048 0
M  V30 8713 H 848.755 3.41725 -2.37409 0
M  V30 8714 H 847.631 4.7465 -2.75678 0
M  V30 8715 H 847.892 4.28663 -1.08171 0
M  V30 8716 N 846.951 1.19563 1.02676 0
M  V30 8717 C 848.191 1.01072 1.77662 0
M  V30 8718 C 848.555 -0.450344 1.86644 0
M  V30 8719 O 849.756 -0.755132 2.57975 0
M  V30 8720 C 848.027 1.66383 3.16309 0
M  V30 8721 S 849.586 1.62858 4.07459 0
M  V30 8722 H 846.404 0.362644 0.611564 0
M  V30 8723 H 849.006 1.51947 1.23014 0
M  V30 8724 H 847.71 2.71917 3.07391 0
M  V30 8725 H 847.241 1.15596 3.76033 0
M  V30 8726 H 849.256 0.654265 4.91868 0
M  V30 8727 N 848.429 -1.21819 0.999893 0
M  V30 8728 C 849.376 -2.24003 0.556005 0
M  V30 8729 C 850.346 -1.60825 -0.415287 0
M  V30 8730 O 851.531 -1.88123 -0.318481 0
M  V30 8731 C 848.671 -3.44904 -0.116289 0
M  V30 8732 C 847.784 -4.22573 0.897574 0
M  V30 8733 C 846.919 -5.30831 0.198073 0
M  V30 8734 C 845.958 -6.00225 1.19983 0
M  V30 8735 N 845.095 -7.00111 0.528157 0
M  V30 8736 H 849.935 -2.61334 1.43208 0
M  V30 8737 H 847.472 -1.28431 0.717205 0
M  V30 8738 H 849.43 -4.13908 -0.523055 0
M  V30 8739 H 848.06 -3.08315 -0.956108 0
M  V30 8740 H 847.112 -3.52797 1.42262 0
M  V30 8741 H 848.424 -4.70363 1.66013 0
M  V30 8742 H 847.578 -6.06121 -0.265065 0
M  V30 8743 H 846.317 -4.84033 -0.596924 0
M  V30 8744 H 845.322 -5.23711 1.67353 0
M  V30 8745 H 846.547 -6.4911 1.99582 0
M  V30 8746 H 844.493 -6.55534 -0.247276 0
M  V30 8747 H 844.41 -7.45943 1.22904 0
M  V30 8748 H 845.678 -7.7945 0.0880543 0
M  V30 8749 N 849.908 -0.773975 -1.37286 0
M  V30 8750 C 851.148 -0.344505 -2.01476 0
M  V30 8751 C 851.512 1.05966 -1.6011 0
M  V30 8752 O 852.713 1.58937 -2.16778 0
M  V30 8753 C 850.984 -0.485816 -3.54083 0
M  V30 8754 S 852.543 -0.141939 -4.3857 0
M  V30 8755 H 849.361 -0.13243 -0.698558 0
M  V30 8756 H 851.963 -1.00908 -1.67445 0
M  V30 8757 H 850.667 -1.50835 -3.81677 0
M  V30 8758 H 850.198 0.195232 -3.92915 0
M  V30 8759 H 852.213 1.06177 -4.84707 0
M  V30 8760 N 851.386 1.48609 -0.524698 0
M  V30 8761 C 852.802 1.58557 -0.182199 0
M  V30 8762 C 853.002 1.52732 1.31435 0
M  V30 8763 O 852.058 1.41362 2.0922 0
M  V30 8764 C 853.371 2.90406 -0.78004 0
M  V30 8765 C 854.919 3.03924 -0.748293 0
M  V30 8766 C 855.394 4.38427 -1.32462 0
M  V30 8767 N 856.885 4.4498 -1.28635 0
M  V30 8768 C 857.62 5.47551 -1.70223 0
M  V30 8769 N 857.116 6.57103 -2.19515 0
M  V30 8770 N 858.909 5.38402 -1.61493 0
M  V30 8771 H 851.06 1.50638 -1.4974 0
M  V30 8772 H 853.323 0.714952 -0.622533 0
M  V30 8773 H 853.029 3.00308 -1.83052 0
M  V30 8774 H 852.903 3.76343 -0.254075 0
M  V30 8775 H 855.29 2.93638 0.293407 0
M  V30 8776 H 855.371 2.19611 -1.31167 0
M  V30 8777 H 855.015 4.49466 -2.36522 0
M  V30 8778 H 854.945 5.21418 -0.736967 0
M  V30 8779 H 857.436 3.66393 -0.92545 0
M  V30 8780 H 857.749 7.31499 -2.49257 0
M  V30 8781 H 856.094 6.58081 -2.23506 0
M  V30 8782 H 859.285 4.5171 -1.22785 0
M  V30 8783 H 859.458 6.18208 -1.94225 0
M  V30 8784 N 852.864 0.259585 1.55447 0
M  V30 8785 C 854.11 -0.362143 1.9954 0
M  V30 8786 C 854.443 -1.5666 1.14767 0
M  V30 8787 O 853.718 -1.93319 0.214025 0
M  V30 8788 C 854.001 -0.759588 3.51998 0
M  V30 8789 C 853.854 0.451134 4.47532 0
M  V30 8790 C 855.173 -1.60186 4.09913 0
M  V30 8791 H 852.292 -0.130157 0.725416 0
M  V30 8792 H 854.934 0.363431 1.86492 0
M  V30 8793 H 853.084 -1.3778 3.63248 0
M  V30 8794 H 854.756 1.08965 4.48246 0
M  V30 8795 H 852.999 1.092 4.19831 0
M  V30 8796 H 853.67 0.129518 5.51848 0
M  V30 8797 H 856.146 -1.0799 4.01842 0
M  V30 8798 H 855.022 -1.84879 5.16828 0
M  V30 8799 H 855.283 -2.57787 3.59163 0
M  V30 8800 N 854.342 -1.57594 -0.0133615 0
M  V30 8801 C 855.582 -1.91834 -0.705639 0
M  V30 8802 C 855.946 -0.859801 -1.71672 0
M  V30 8803 O 857.147 -1.08702 -2.4584 0
M  V30 8804 C 855.418 -3.31174 -1.34383 0
M  V30 8805 S 856.977 -3.87275 -2.06309 0
M  V30 8806 H 853.795 -0.671598 -0.233404 0
M  V30 8807 H 856.397 -1.95459 0.0401173 0
M  V30 8808 H 855.101 -4.06065 -0.594939 0
M  V30 8809 H 854.632 -3.3089 -2.12781 0
M  V30 8810 H 856.647 -3.67271 -3.33657 0
M  V30 8811 N 855.82 0.285905 -1.54985 0
M  V30 8812 C 856.73 1.37534 -1.90057 0
M  V30 8813 C 857.746 1.54707 -0.796348 0
M  V30 8814 O 858.922 1.69082 -1.09423 0
M  V30 8815 C 855.987 2.7167 -2.15398 0
M  V30 8816 C 855.048 2.63354 -3.39033 0
M  V30 8817 C 854.281 3.91093 -3.63155 0
M  V30 8818 O 854.504 4.91169 -2.90015 0
M  V30 8819 O 853.438 3.92075 -4.56685 0
M  V30 8820 H 857.264 1.10791 -2.8277 0
M  V30 8821 H 854.849 0.483303 -1.41367 0
M  V30 8822 H 856.731 3.51006 -2.33179 0
M  V30 8823 H 855.406 2.98226 -1.25868 0
M  V30 8824 H 854.313 1.82438 -3.26599 0
M  V30 8825 H 855.646 2.41749 -4.2874 0
M  V30 8826 N 857.298 1.47698 0.54982 0
M  V30 8827 C 858.538 1.56286 1.31735 0
M  V30 8828 C 858.902 0.223042 1.907 0
M  V30 8829 O 860.103 0.183798 2.68171 0
M  V30 8830 C 858.374 2.65522 2.39234 0
M  V30 8831 S 859.933 2.93742 3.25977 0
M  V30 8832 H 856.751 0.551795 0.448378 0
M  V30 8833 H 859.353 1.85118 0.628629 0
M  V30 8834 H 858.057 3.61457 1.94362 0
M  V30 8835 H 857.588 2.38528 3.12838 0
M  V30 8836 H 859.603 2.31522 4.38876 0
M  V30 8837 N 858.776 -0.797141 1.35954 0
M  V30 8838 C 859.724 -1.93084 1.29697 0
M  V30 8839 C 860.718 -1.68329 0.190152 0
M  V30 8840 O 861.924 -1.7643 0.3567 0
M  V30 8841 H 858.299 -0.634531 0.403577 0
M  V30 8842 H 860.27 -1.95481 2.25455 0
M  V30 8843 C 859.019 -3.29996 1.09536 0
M  V30 8844 H 858.342 -3.49607 1.93946 0
M  V30 8845 H 859.782 -4.09696 1.09202 0
M  V30 8846 C 858.241 -3.36304 -0.200381 0
M  V30 8847 O 858.771 -3.83579 -1.19291 0
M  V30 8848 N 856.977 -2.89587 -0.242406 0
M  V30 8849 H 856.524 -2.51307 0.565897 0
M  V30 8850 H 856.482 -2.94189 -1.10906 0
M  V30 8851 N 860.254 -1.20106 -1.0204 0
M  V30 8852 C 861.665 -1.00992 -1.57027 0
M  V30 8853 C 862.016 0.434782 -1.91322 0
M  V30 8854 O 861.141 1.31557 -1.71819 0
M  V30 8855 C 861.736 -1.82697 -2.85319 0
M  V30 8856 C 860.295 -1.67959 -3.36848 0
M  V30 8857 C 859.442 -1.80868 -2.10195 0
M  V30 8858 H 862.393 -1.34354 -0.844676 0
M  V30 8859 H 862.414 -1.32809 -3.5657 0
M  V30 8860 H 861.926 -2.87839 -2.60328 0
M  V30 8861 H 860.027 -0.654389 -3.66809 0
M  V30 8862 H 860.14 -2.49006 -4.09308 0
M  V30 8863 H 858.504 -1.24015 -2.22469 0
M  V30 8864 H 859.287 -2.87486 -1.87635 0
M  V30 8865 N 861.732 1.21287 -1.00634 0
M  V30 8866 C 862.68 2.25733 -0.561026 0
M  V30 8867 C 863.674 1.64728 0.395095 0
M  V30 8868 O 864.88 1.78022 0.266141 0
M  V30 8869 H 861.255 0.734104 -0.163081 0
M  V30 8870 H 863.226 2.60631 -1.45307 0
M  V30 8871 C 861.975 3.47569 0.0952587 0
M  V30 8872 H 861.298 3.94782 -0.631427 0
M  V30 8873 H 862.738 4.22382 0.370105 0
M  V30 8874 C 861.197 3.09326 1.33488 0
M  V30 8875 O 861.727 3.19933 2.42912 0
M  V30 8876 N 859.933 2.63976 1.21512 0
M  V30 8877 H 859.48 2.55545 0.324741 0
M  V30 8878 H 859.438 2.38757 2.04555 0
M  V30 8879 N 863.21 0.781244 1.36873 0
M  V30 8880 C 864.44 0.361042 2.03421 0
M  V30 8881 C 864.848 -1.02471 1.59048 0
M  V30 8882 O 864.191 -1.66712 0.771552 0
M  V30 8883 C 864.253 0.336202 3.57924 0
M  V30 8884 C 863.917 1.66815 4.25467 0
M  V30 8885 C 864.914 2.62224 4.48926 0
M  V30 8886 C 862.599 1.9452 4.63106 0
M  V30 8887 C 864.593 3.83538 5.09095 0
M  V30 8888 C 862.28 3.16103 5.22994 0
M  V30 8889 C 863.278 4.10431 5.45926 0
M  V30 8890 O 862.966 5.29871 6.04559 0
M  V30 8891 H 862.698 0.147956 0.65961 0
M  V30 8892 H 865.252 1.05895 1.75998 0
M  V30 8893 H 863.482 -0.418147 3.84433 0
M  V30 8894 H 865.171 -0.0582199 4.05858 0
M  V30 8895 H 865.937 2.42104 4.20251 0
M  V30 8896 H 861.816 1.21921 4.44585 0
M  V30 8897 H 865.36 4.57178 5.2691 0
M  V30 8898 H 861.257 3.36104 5.51094 0
M  V30 8899 H 862.025 5.30825 6.23031 0
M  V30 8900 N 864.689 -1.48329 0.532571 0
M  V30 8901 C 865.917 -2.069 0.00354299 0
M  V30 8902 C 866.332 -1.38876 -1.27902 0
M  V30 8903 O 865.689 -0.477119 -1.76153 0
M  V30 8904 C 865.74 -3.60821 -0.221416 0
M  V30 8905 O 865.461 -4.26291 1.01034 0
M  V30 8906 C 866.962 -4.36194 -0.790531 0
M  V30 8907 H 864.182 -0.670103 0.0346836 0
M  V30 8908 H 866.726 -1.90682 0.738955 0
M  V30 8909 H 864.881 -3.76636 -0.906884 0
M  V30 8910 H 865.295 -5.18475 0.792683 0
M  V30 8911 H 866.769 -5.44657 -0.897347 0
M  V30 8912 H 867.246 -4.00798 -1.79605 0
M  V30 8913 H 867.852 -4.25064 -0.141546 0
M  V30 8914 N 866.167 -0.267825 -1.55308 0
M  V30 8915 C 867.415 0.350343 -1.9904 0
M  V30 8916 C 867.736 1.56924 -1.15758 0
M  V30 8917 O 867.006 1.94358 -0.245336 0
M  V30 8918 H 865.586 0.132435 -0.735167 0
M  V30 8919 H 868.248 -0.371471 -1.91327 0
M  V30 8920 H 867.344 0.645203 -3.05358 0
M  V30 8921 N 867.645 1.57599 0.00500368 0
M  V30 8922 C 868.87 1.95026 0.705663 0
M  V30 8923 C 869.295 0.869643 1.6679 0
M  V30 8924 O 868.653 -0.172659 1.80476 0
M  V30 8925 C 868.701 3.31545 1.4181 0
M  V30 8926 O 867.805 3.25495 2.53232 0
M  V30 8927 H 867.146 0.636808 0.188074 0
M  V30 8928 H 869.676 2.04547 -0.046696 0
M  V30 8929 H 869.686 3.66996 1.78265 0
M  V30 8930 H 868.361 4.09751 0.712543 0
M  V30 8931 H 866.938 3.01714 2.19142 0
M  V30 8932 N 869.123 -0.277682 1.55134 0
M  V30 8933 C 870.086 -1.32635 1.86924 0
M  V30 8934 C 871.086 -1.42578 0.743507 0
M  V30 8935 O 872.276 -1.4181 1.01171 0
M  V30 8936 C 869.408 -2.70832 2.07034 0
M  V30 8937 H 870.601 -1.0568 2.80663 0
M  V30 8938 H 868.154 -0.515517 1.47554 0
M  V30 8939 H 868.889 -3.02974 1.15661 0
M  V30 8940 H 868.674 -2.65001 2.88993 0
M  V30 8941 H 870.164 -3.46611 2.32918 0
M  V30 8942 N 870.601 -1.47988 -0.541979 0
M  V30 8943 C 871.841 -1.56982 -1.30905 0
M  V30 8944 C 872.205 -0.233153 -1.90579 0
M  V30 8945 O 873.406 -0.198018 -2.6807 0
M  V30 8946 C 871.677 -2.66787 -2.37823 0
M  V30 8947 S 873.236 -2.95467 -3.24414 0
M  V30 8948 H 870.054 -0.554165 -0.445446 0
M  V30 8949 H 872.656 -1.85448 -0.618803 0
M  V30 8950 H 871.36 -3.62483 -1.92443 0
M  V30 8951 H 870.891 -2.40184 -3.11569 0
M  V30 8952 H 872.906 -2.33846 -4.37642 0
M  V30 8953 N 872.079 0.78992 -1.36375 0
M  V30 8954 C 873.356 1.53584 -1.21126 0
M  V30 8955 C 873.736 2.10124 0.202785 0
M  V30 8956 O 873.084 1.93936 1.20835 0
M  V30 8957 C 873.294 2.63117 -2.29282 0
M  V30 8958 C 874.642 3.31013 -2.65924 0
M  V30 8959 O 875.666 2.734 -2.28321 0
M  V30 8960 O 874.525 4.35129 -3.30643 0
M  V30 8961 H 871.619 0.679366 -0.471583 0
M  V30 8962 H 874.165 0.828446 -1.48104 0
M  V30 8963 H 872.937 2.19329 -3.24053 0
M  V30 8964 H 872.56 3.41476 -2.03666 0
M  V30 8965 N 873.557 1.20646 1.01402 0
M  V30 8966 C 874.797 1.02951 1.7658 0
M  V30 8967 C 875.161 -0.430522 1.87111 0
M  V30 8968 O 876.362 -0.727727 2.58762 0
M  V30 8969 C 874.633 1.69728 3.14527 0
M  V30 8970 S 876.192 1.6717 4.05709 0
M  V30 8971 H 873.01 0.36911 0.607683 0
M  V30 8972 H 875.612 1.53243 1.21395 0
M  V30 8973 H 874.316 2.75162 3.0449 0
M  V30 8974 H 873.847 1.19578 3.74786 0
M  V30 8975 H 875.862 0.706397 4.91146 0
M  V30 8976 N 875.035 -1.20752 1.01276 0
M  V30 8977 C 876.26 -1.94547 0.718769 0
M  V30 8978 C 876.685 -1.7404 -0.713563 0
M  V30 8979 O 876.043 -1.03221 -1.49047 0
M  V30 8980 C 876.091 -3.44823 1.05497 0
M  V30 8981 O 875.195 -4.12072 0.164516 0
M  V30 8982 H 874.536 -0.607931 0.267051 0
M  V30 8983 H 877.066 -1.53292 1.35509 0
M  V30 8984 H 877.076 -3.95427 1.00507 0
M  V30 8985 H 875.751 -3.59072 2.09858 0
M  V30 8986 H 874.328 -3.71909 0.271615 0
M  V30 8987 N 876.513 -0.788492 -1.36457 0
M  V30 8988 C 877.443 -0.200468 -2.32638 0
M  V30 8989 C 878.424 0.664031 -1.56603 0
M  V30 8990 O 879.609 0.598045 -1.84762 0
M  V30 8991 C 876.739 0.666274 -3.40849 0
M  V30 8992 C 875.693 -0.0982574 -4.27887 0
M  V30 8993 C 875.019 0.889018 -5.27258 0
M  V30 8994 C 876.319 -1.28692 -5.06197 0
M  V30 8995 H 878.013 -1.00399 -2.82065 0
M  V30 8996 H 875.559 -0.484237 -1.35614 0
M  V30 8997 H 877.512 1.08757 -4.07124 0
M  V30 8998 H 876.236 1.50249 -2.89987 0
M  V30 8999 H 874.895 -0.500525 -3.63167 0
M  V30 9000 H 874.543 1.72024 -4.7267 0
M  V30 9001 H 874.243 0.381909 -5.86358 0
M  V30 9002 H 875.767 1.30891 -5.96406 0
M  V30 9003 H 877.181 -0.941429 -5.65517 0
M  V30 9004 H 875.578 -1.72726 -5.74705 0
M  V30 9005 H 876.648 -2.08273 -4.37893 0
M  V30 9006 N 877.991 1.48044 -0.54043 0
M  V30 9007 C 879.268 1.95523 0.0547302 0
M  V30 9008 C 879.648 1.48284 1.5025 0
M  V30 9009 O 878.996 0.714037 2.17057 0
M  V30 9010 C 879.206 3.48923 -0.0733393 0
M  V30 9011 C 880.554 4.24523 0.0806026 0
M  V30 9012 O 881.578 3.562 -5.58687e-05 0
M  V30 9013 O 880.437 5.45922 0.251216 0
M  V30 9014 H 877.531 0.823728 0.073493 0
M  V30 9015 H 880.077 1.5852 -0.605768 0
M  V30 9016 H 878.849 3.76059 -1.08144 0
M  V30 9017 H 878.472 3.92648 0.625536 0
M  V30 9018 N 879.47 0.276058 1.55163 0
M  V30 9019 C 880.698 -0.343772 2.04024 0
M  V30 9020 C 881.113 -1.49397 1.15438 0
M  V30 9021 O 880.47 -1.81662 0.174692 0
M  V30 9022 C 880.521 -0.823885 3.51986 0
M  V30 9023 O 880.242 0.280507 4.37201 0
M  V30 9024 C 881.743 -1.51143 4.16738 0
M  V30 9025 H 878.963 -0.07828 0.666418 0
M  V30 9026 H 881.507 0.408427 2.0038 0
M  V30 9027 H 879.662 -1.52617 3.56071 0
M  V30 9028 H 880.076 -0.0887831 5.24425 0
M  V30 9029 H 881.55 -1.79878 5.2187 0
M  V30 9030 H 882.027 -2.44327 3.64967 0
M  V30 9031 H 882.633 -0.852975 4.16659 0
M  V30 9032 N 880.948 -1.576 0.00335426 0
M  V30 9033 C 882.173 -1.95398 -0.695311 0
M  V30 9034 C 882.598 -0.878476 -1.66326 0
M  V30 9035 O 881.956 0.163086 -1.80565 0
M  V30 9036 C 882.004 -3.32293 -1.40049 0
M  V30 9037 O 881.108 -3.26834 -2.51502 0
M  V30 9038 H 880.449 -0.637796 -0.184694 0
M  V30 9039 H 882.979 -2.04519 0.057543 0
M  V30 9040 H 882.989 -3.67936 -1.76316 0
M  V30 9041 H 881.664 -4.10123 -0.690803 0
M  V30 9042 H 880.241 -3.02872 -2.17539 0
M  V30 9043 N 882.426 0.269451 -1.5528 0
M  V30 9044 C 883.654 1.01872 -1.80082 0
M  V30 9045 C 884.069 1.79802 -0.575917 0
M  V30 9046 O 883.426 1.76735 0.455081 0
M  V30 9047 C 883.477 1.9745 -3.02813 0
M  V30 9048 O 883.198 1.22677 -4.20573 0
M  V30 9049 C 884.699 2.8416 -3.40247 0
M  V30 9050 H 881.919 0.300781 -0.59981 0
M  V30 9051 H 884.463 0.29916 -2.023 0
M  V30 9052 H 882.618 2.64864 -2.82712 0
M  V30 9053 H 883.032 1.87129 -4.89982 0
M  V30 9054 H 884.506 3.47014 -4.29284 0
M  V30 9055 H 884.983 3.54113 -2.59809 0
M  V30 9056 H 885.589 2.22232 -3.6262 0
M  V30 9057 N 883.904 1.48273 0.534124 0
M  V30 9058 C 885.144 1.57674 1.3007 0
M  V30 9059 C 885.508 0.243256 1.90453 0
M  V30 9060 O 886.709 0.212231 2.67961 0
M  V30 9061 C 884.98 2.68044 2.36405 0
M  V30 9062 S 886.539 2.97183 3.22843 0
M  V30 9063 H 883.357 0.55652 0.442501 0
M  V30 9064 H 885.959 1.85774 0.60896 0
M  V30 9065 H 884.663 3.63498 1.90518 0
M  V30 9066 H 884.194 2.41833 3.10291 0
M  V30 9067 H 886.209 2.36164 4.36396 0
M  V30 9068 N 885.382 -0.782676 1.36792 0
M  V30 9069 C 886.292 -1.92679 1.33835 0
M  V30 9070 C 887.308 -1.72344 0.23952 0
M  V30 9071 O 888.484 -1.95766 0.473045 0
M  V30 9072 C 885.549 -3.27644 1.1336 0
M  V30 9073 C 884.61 -3.6071 2.32781 0
M  V30 9074 C 883.843 -4.89234 2.13273 0
M  V30 9075 O 884.066 -5.59468 1.11136 0
M  V30 9076 O 883 -5.21112 3.01208 0
M  V30 9077 H 886.826 -1.98124 2.30175 0
M  V30 9078 H 884.411 -0.923887 1.17408 0
M  V30 9079 H 886.293 -4.08394 1.03886 0
M  V30 9080 H 884.968 -3.23076 0.200868 0
M  V30 9081 H 883.875 -2.80238 2.47825 0
M  V30 9082 H 885.208 -3.70008 3.24584 0
M  V30 9083 N 886.86 -1.21182 -1.00761 0
M  V30 9084 C 887.823 -0.970339 -2.07646 0
M  V30 9085 C 888.823 0.0576345 -1.60697 0
M  V30 9086 O 890.013 -0.179369 -1.73274 0
M  V30 9087 C 887.145 -0.462703 -3.37745 0
M  V30 9088 H 888.338 -1.91856 -2.30502 0
M  V30 9089 H 885.891 -1.02844 -1.17698 0
M  V30 9090 H 886.626 0.490559 -3.20568 0
M  V30 9091 H 886.411 -1.20416 -3.73152 0
M  V30 9092 H 887.901 -0.313531 -4.16421 0
M  V30 9093 N 888.338 1.20213 -1.01915 0
M  V30 9094 C 889.563 1.94163 -0.729076 0
M  V30 9095 C 889.988 1.74416 0.704323 0
M  V30 9096 O 889.346 1.0401 1.48498 0
M  V30 9097 C 889.394 3.44258 -1.07324 0
M  V30 9098 O 888.498 4.11979 -0.186367 0
M  V30 9099 H 887.839 0.606506 -0.270272 0
M  V30 9100 H 890.369 1.52571 -1.3632 0
M  V30 9101 H 890.379 3.94888 -1.02603 0
M  V30 9102 H 889.054 3.57954 -2.11759 0
M  V30 9103 H 887.631 3.7176 -0.291334 0
M  V30 9104 N 889.816 0.795718 1.36037 0
M  V30 9105 C 890.764 0.18649 2.31851 0
M  V30 9106 C 891.758 -0.657704 1.56111 0
M  V30 9107 O 892.964 -0.552083 1.71324 0
M  V30 9108 H 889.339 0.0415363 0.750852 0
M  V30 9109 H 891.31 1.00992 2.8079 0
M  V30 9110 C 890.059 -0.65918 3.41394 0
M  V30 9111 H 889.382 -0.01894 3.99796 0
M  V30 9112 H 890.822 -1.05202 4.10741 0
M  V30 9113 C 889.281 -1.82011 2.83502 0
M  V30 9114 O 889.811 -2.91703 2.76174 0
M  V30 9115 N 888.017 -1.62821 2.40703 0
M  V30 9116 H 887.564 -0.735965 2.46863 0
M  V30 9117 H 887.522 -2.40657 2.02316 0
M  V30 9118 N 891.294 -1.47756 0.548274 0
M  V30 9119 C 892.542 -2.02089 0.0208542 0
M  V30 9120 C 892.863 -1.42589 -1.33017 0
M  V30 9121 O 892.133 -0.597825 -1.86555 0
M  V30 9122 H 890.713 -0.746985 0.00472023 0
M  V30 9123 H 893.375 -1.81262 0.716257 0
M  V30 9124 H 892.471 -3.12012 -0.0739016 0
M  V30 9125 N 892.772 -0.284283 -1.55015 0
M  V30 9126 C 893.704 0.63258 -2.20298 0
M  V30 9127 C 894.717 1.11045 -1.1905 0
M  V30 9128 O 895.906 1.03078 -1.4573 0
M  V30 9129 C 893.006 1.87599 -2.82241 0
M  V30 9130 C 892.179 1.5434 -4.09265 0
M  V30 9131 C 891.238 2.64023 -4.55169 0
M  V30 9132 O 890.264 2.29821 -5.20741 0
M  V30 9133 N 891.466 3.94255 -4.26079 0
M  V30 9134 H 894.231 0.0737928 -2.99609 0
M  V30 9135 H 891.792 -0.105767 -1.61554 0
M  V30 9136 H 893.784 2.60289 -3.0989 0
M  V30 9137 H 892.354 2.3436 -2.06868 0
M  V30 9138 H 891.574 0.649912 -3.88806 0
M  V30 9139 H 892.862 1.29634 -4.92009 0
M  V30 9140 H 892.26 4.24859 -3.73512 0
M  V30 9141 H 890.817 4.63295 -4.58477 0
M  V30 9142 N 894.251 1.57596 -0.0117121 0
M  V30 9143 C 895.5 1.9025 0.669921 0
M  V30 9144 C 895.813 0.887986 1.74282 0
M  V30 9145 O 897.019 1.10516 2.47989 0
M  V30 9146 C 895.475 3.37762 1.24277 0
M  V30 9147 C 895.083 4.47535 0.204076 0
M  V30 9148 C 896.827 3.79509 1.90192 0
M  V30 9149 C 894.734 5.86132 0.787577 0
M  V30 9150 H 893.664 0.709935 0.253984 0
M  V30 9151 H 896.315 1.8335 -0.0741718 0
M  V30 9152 H 894.697 3.39537 2.03791 0
M  V30 9153 H 895.871 4.57294 -0.56733 0
M  V30 9154 H 894.186 4.14881 -0.355305 0
M  V30 9155 H 896.783 4.80402 2.34773 0
M  V30 9156 H 897.126 3.13643 2.7374 0
M  V30 9157 H 897.659 3.80084 1.17394 0
M  V30 9158 H 894.398 6.55499 -0.00938418 0
M  V30 9159 H 893.918 5.80014 1.52787 0
M  V30 9160 H 895.597 6.34158 1.28265 0
M  V30 9161 N 895.729 -0.261212 1.5542 0
M  V30 9162 C 896.969 -0.998748 1.78338 0
M  V30 9163 C 897.333 -1.83064 0.578914 0
M  V30 9164 O 898.534 -2.59884 0.686575 0
M  V30 9165 C 896.805 -1.84828 3.05898 0
M  V30 9166 S 898.364 -2.64686 3.49981 0
M  V30 9167 H 895.182 -0.33619 0.626496 0
M  V30 9168 H 897.784 -0.26799 1.93655 0
M  V30 9169 H 896.488 -1.22658 3.91642 0
M  V30 9170 H 896.019 -2.62203 2.9328 0
M  V30 9171 H 898.034 -3.87299 3.10184 0
M  V30 9172 N 897.207 -1.48554 -0.526253 0
M  V30 9173 C 898.155 -1.63804 -1.65139 0
M  V30 9174 C 899.149 -0.504398 -1.61716 0
M  V30 9175 O 900.355 -0.683241 -1.66529 0
M  V30 9176 H 896.73 -0.516071 -0.546969 0
M  V30 9177 H 898.701 -2.58294 -1.49421 0
M  V30 9178 C 897.45 -1.69843 -3.03395 0
M  V30 9179 H 896.773 -2.56438 -3.06724 0
M  V30 9180 H 898.213 -1.84555 -3.81727 0
M  V30 9181 C 896.672 -0.437875 -3.34042 0
M  V30 9182 O 897.202 0.447604 -3.99198 0
M  V30 9183 N 895.408 -0.308444 -2.88958 0
M  V30 9184 H 894.955 -1.02998 -2.36112 0
M  V30 9185 H 894.913 0.533952 -3.09833 0
M  V30 9186 N 898.685 0.775411 -1.37205 0
M  V30 9187 C 899.933 1.53081 -1.3195 0
M  V30 9188 C 900.254 1.9476 0.0966864 0
M  V30 9189 O 899.524 1.66019 1.03993 0
M  V30 9190 H 898.104 0.567762 -0.485444 0
M  V30 9191 H 900.766 0.92309 -1.71654 0
M  V30 9192 H 899.862 2.4319 -1.95614 0
M  V30 9193 N 900.163 1.21714 1.00117 0
M  V30 9194 C 901.579 0.97532 1.26332 0
M  V30 9195 C 901.779 -0.336029 1.98678 0
M  V30 9196 O 900.835 -1.06073 2.29139 0
M  V30 9197 C 902.148 2.16848 2.0832 0
M  V30 9198 C 903.696 2.21115 2.21533 0
M  V30 9199 C 904.171 3.3996 3.06906 0
M  V30 9200 N 905.662 3.40071 3.14494 0
M  V30 9201 C 906.397 4.28678 3.80818 0
M  V30 9202 N 905.893 5.2749 4.49139 0
M  V30 9203 N 907.686 4.16476 3.77497 0
M  V30 9204 H 899.837 2.06039 0.515897 0
M  V30 9205 H 902.1 0.902423 0.290408 0
M  V30 9206 H 901.806 3.119 1.62515 0
M  V30 9207 H 901.68 2.16226 3.09073 0
M  V30 9208 H 904.067 1.26616 2.66557 0
M  V30 9209 H 904.148 2.2578 1.20238 0
M  V30 9210 H 903.792 4.34755 2.62585 0
M  V30 9211 H 903.722 3.32534 4.08324 0
M  V30 9212 H 906.213 2.68563 2.65861 0
M  V30 9213 H 906.526 5.91397 4.97463 0
M  V30 9214 H 904.871 5.31412 4.47914 0
M  V30 9215 H 908.062 3.38539 3.23278 0
M  V30 9216 H 908.235 4.85739 4.28908 0
M  V30 9217 N 901.641 -1.19671 1.02551 0
M  V30 9218 C 902.889 -1.88894 0.71858 0
M  V30 9219 C 903.21 -1.79797 -0.754856 0
M  V30 9220 O 902.48 -1.20621 -1.54362 0
M  V30 9221 H 901.06 -0.699244 0.262806 0
M  V30 9222 H 903.722 -1.45298 1.29902 0
M  V30 9223 H 902.818 -2.95309 1.00989 0
M  V30 9224 N 903.119 -0.802921 -1.35613 0
M  V30 9225 C 904.368 -0.378087 -1.98125 0
M  V30 9226 C 904.681 1.05953 -1.64418 0
M  V30 9227 O 905.887 1.58729 -2.20266 0
M  V30 9228 C 904.343 -0.625077 -3.5443 0
M  V30 9229 C 903.951 -2.07499 -3.97049 0
M  V30 9230 C 905.695 -0.265419 -4.23669 0
M  V30 9231 C 903.602 -2.26793 -5.46186 0
M  V30 9232 H 902.532 -0.137633 -0.741332 0
M  V30 9233 H 905.183 -0.986461 -1.54729 0
M  V30 9234 H 903.565 0.0531975 -3.95964 0
M  V30 9235 H 904.739 -2.79077 -3.66678 0
M  V30 9236 H 903.054 -2.39417 -3.40688 0
M  V30 9237 H 905.651 -0.387669 -5.33293 0
M  V30 9238 H 905.994 0.787994 -4.08774 0
M  V30 9239 H 906.527 -0.897464 -3.87544 0
M  V30 9240 H 903.266 -3.30566 -5.66045 0
M  V30 9241 H 902.786 -1.59735 -5.78139 0
M  V30 9242 H 904.465 -2.08165 -6.12598 0
M  V30 9243 N 904.597 1.47463 -0.556102 0
M  V30 9244 C 905.837 2.04372 -0.0339743 0
M  V30 9245 C 906.201 1.42125 1.29091 0
M  V30 9246 O 907.402 1.90074 1.90066 0
M  V30 9247 C 905.673 3.57352 0.0585316 0
M  V30 9248 S 907.232 4.35625 0.526943 0
M  V30 9249 H 904.05 0.710574 -0.0246115 0
M  V30 9250 H 906.652 1.80848 -0.742585 0
M  V30 9251 H 905.356 4.00181 -0.910116 0
M  V30 9252 H 904.887 3.85371 0.790731 0
M  V30 9253 H 906.902 4.62911 1.78683 0
M  V30 9254 N 906.075 0.2925 1.54862 0
M  V30 9255 C 906.985 -0.597036 2.26876 0
M  V30 9256 C 908.001 -1.15558 1.30086 0
M  V30 9257 O 909.177 -1.18217 1.63054 0
M  V30 9258 C 906.242 -1.75664 2.98903 0
M  V30 9259 C 905.303 -1.23303 4.11212 0
M  V30 9260 C 904.536 -2.33736 4.79795 0
M  V30 9261 O 904.759 -3.53459 4.47686 0
M  V30 9262 O 903.693 -2.00908 5.67379 0
M  V30 9263 H 907.519 -0.0131242 3.03697 0
M  V30 9264 H 905.104 0.0592642 1.49282 0
M  V30 9265 H 906.986 -2.43241 3.4411 0
M  V30 9266 H 905.661 -2.32731 2.24984 0
M  V30 9267 H 904.568 -0.523222 3.70423 0
M  V30 9268 H 905.901 -0.707887 4.87083 0
M  V30 9269 N 907.553 -1.57587 0.0200696 0
M  V30 9270 C 908.793 -1.93287 -0.66479 0
M  V30 9271 C 909.157 -0.896022 -1.6981 0
M  V30 9272 O 910.358 -1.13892 -2.43479 0
M  V30 9273 C 908.629 -3.33949 -1.27328 0
M  V30 9274 S 910.188 -3.91564 -1.98047 0
M  V30 9275 H 907.006 -0.676397 -0.219106 0
M  V30 9276 H 909.608 -1.9533 0.081568 0
M  V30 9277 H 908.312 -4.07235 -0.508673 0
M  V30 9278 H 907.843 -3.35329 -2.05714 0
M  V30 9279 H 909.858 -3.74265 -3.25791 0
M  V30 9280 N 909.032 0.252966 -1.55557 0
M  V30 9281 C 910.28 0.979912 -1.76754 0
M  V30 9282 C 910.601 1.86083 -0.582944 0
M  V30 9283 O 909.871 1.91742 0.401497 0
M  V30 9284 H 908.451 0.364805 -0.651864 0
M  V30 9285 H 911.113 0.272372 -1.92987 0
M  V30 9286 H 910.209 1.60518 -2.67657 0
M  V30 9287 N 910.51 1.48831 0.518367 0
M  V30 9288 C 911.756 1.57672 1.27543 0
M  V30 9289 C 912.089 0.254915 1.9252 0
M  V30 9290 O 911.364 -0.740107 1.79868 0
M  V30 9291 C 911.647 2.72345 2.35585 0
M  V30 9292 C 911.5 4.14267 1.75224 0
M  V30 9293 C 912.819 2.82726 3.37274 0
M  V30 9294 H 909.938 0.573926 0.462361 0
M  V30 9295 H 912.58 1.8105 0.576267 0
M  V30 9296 H 910.73 2.52543 2.95219 0
M  V30 9297 H 912.402 4.45539 1.19551 0
M  V30 9298 H 910.645 4.20724 1.05706 0
M  V30 9299 H 911.316 4.90345 2.53507 0
M  V30 9300 H 913.792 3.00699 2.8761 0
M  V30 9301 H 912.668 3.6467 4.10252 0
M  V30 9302 H 912.929 1.9136 3.9854 0
M  V30 9303 N 911.988 -0.768124 1.37614 0
M  V30 9304 C 913.228 -1.53979 1.34424 0
M  V30 9305 C 913.592 -1.91874 -0.0696803 0
M  V30 9306 O 914.793 -2.67845 -0.22633 0
M  V30 9307 C 913.064 -2.76845 2.26034 0
M  V30 9308 S 914.623 -3.66871 2.4073 0
M  V30 9309 H 911.441 -0.527108 0.477157 0
M  V30 9310 H 914.043 -0.902945 1.73399 0
M  V30 9311 H 912.747 -2.47091 3.2768 0
M  V30 9312 H 912.278 -3.45486 1.88157 0
M  V30 9313 H 914.293 -4.6899 1.62057 0
M  V30 9314 N 913.466 -1.22244 -0.994698 0
M  V30 9315 C 914.413 -0.990906 -2.08446 0
M  V30 9316 C 915.383 0.086737 -1.65873 0
M  V30 9317 O 916.568 -0.0624882 -1.90698 0
M  V30 9318 C 913.708 -0.572813 -3.40313 0
M  V30 9319 C 912.821 -1.72103 -3.96238 0
M  V30 9320 C 911.956 -1.2511 -5.16257 0
M  V30 9321 C 910.995 -2.37098 -5.64315 0
M  V30 9322 N 910.132 -1.91164 -6.75574 0
M  V30 9323 H 914.972 -1.92377 -2.27585 0
M  V30 9324 H 912.509 -0.958576 -1.11578 0
M  V30 9325 H 914.467 -0.311594 -4.16035 0
M  V30 9326 H 913.097 0.323044 -3.21179 0
M  V30 9327 H 912.149 -2.09662 -3.17405 0
M  V30 9328 H 913.461 -2.56347 -4.27888 0
M  V30 9329 H 912.615 -0.947152 -5.99261 0
M  V30 9330 H 911.354 -0.378836 -4.86226 0
M  V30 9331 H 910.359 -2.68283 -4.799 0
M  V30 9332 H 911.584 -3.24837 -5.96371 0
M  V30 9333 H 909.53 -1.06298 -6.47331 0
M  V30 9334 H 909.447 -2.68975 -7.06533 0
M  V30 9335 H 910.715 -1.63833 -7.62088 0
M  V30 9336 N 914.944 1.19125 -1.03184 0
M  V30 9337 C 916.184 1.90582 -0.738785 0
M  V30 9338 C 916.548 1.78004 0.719627 0
M  V30 9339 O 917.749 2.44084 1.12589 0
M  V30 9340 C 916.02 3.37319 -1.18114 0
M  V30 9341 S 917.579 4.26962 -1.01238 0
M  V30 9342 H 914.397 0.6582 -0.268875 0
M  V30 9343 H 916.999 1.43999 -1.32229 0
M  V30 9344 H 915.703 3.43999 -2.23814 0
M  V30 9345 H 915.234 3.88935 -0.591051 0
M  V30 9346 H 917.249 4.96143 0.0753558 0
M  V30 9347 N 916.422 0.810101 1.35185 0
M  V30 9348 C 917.65 0.404696 2.02903 0
M  V30 9349 C 918.065 -0.985434 1.61042 0
M  V30 9350 O 917.422 -1.63557 0.809658 0
M  V30 9351 C 917.473 0.482493 3.58266 0
M  V30 9352 O 917.194 1.81782 3.98606 0
M  V30 9353 C 918.695 0.070345 4.43244 0
M  V30 9354 H 915.915 0.163972 0.650657 0
M  V30 9355 H 918.459 1.0947 1.72733 0
M  V30 9356 H 916.614 -0.159296 3.87072 0
M  V30 9357 H 917.028 1.78306 4.93262 0
M  V30 9358 H 918.502 0.175888 5.5172 0
M  V30 9359 H 918.979 -0.984724 4.28018 0
M  V30 9360 H 919.585 0.685427 4.1974 0
M  V30 9361 N 917.9 -1.47166 0.563914 0
M  V30 9362 C 919.177 -1.95586 -0.0236172 0
M  V30 9363 C 919.557 -1.50655 -1.47872 0
M  V30 9364 O 918.905 -0.748479 -2.15894 0
M  V30 9365 C 919.115 -3.48762 0.128841 0
M  V30 9366 C 920.463 -4.24598 -0.0130544 0
M  V30 9367 O 921.487 -3.56155 0.0567242 0
M  V30 9368 O 920.346 -5.46253 -0.164332 0
M  V30 9369 H 917.44 -0.824793 -0.0603789 0
M  V30 9370 H 919.986 -1.57536 0.63091 0
M  V30 9371 H 918.758 -3.74291 1.14113 0
M  V30 9372 H 918.381 -3.93594 -0.56299 0
M  V30 9373 N 919.378 -0.300708 -1.54705 0
M  V30 9374 C 920.789 0.191995 -1.8571 0
M  V30 9375 C 921.14 1.53447 -1.22264 0
M  V30 9376 O 920.265 2.10054 -0.520226 0
M  V30 9377 C 920.86 0.355148 -3.36933 0
M  V30 9378 C 919.419 0.792071 -3.67972 0
M  V30 9379 C 918.566 -0.099756 -2.77121 0
M  V30 9380 H 921.517 -0.521729 -1.49879 0
M  V30 9381 H 921.538 1.18977 -3.61421 0
M  V30 9382 H 921.05 -0.622075 -3.83082 0
M  V30 9383 H 919.151 1.77986 -3.27341 0
M  V30 9384 H 919.264 0.611661 -4.75179 0
M  V30 9385 H 917.628 0.420909 -2.51198 0
M  V30 9386 H 918.411 -1.07333 -3.2609 0
M  V30 9387 N 920.856 1.57574 -0.0284266 0
M  V30 9388 C 921.803 2.10176 0.953658 0
M  V30 9389 C 922.773 1.00367 1.32347 0
M  V30 9390 O 923.958 1.27783 1.4169 0
M  V30 9391 C 921.098 2.63287 2.231 0
M  V30 9392 C 920.211 3.87102 1.91771 0
M  V30 9393 C 919.346 4.28609 3.13795 0
M  V30 9394 C 918.385 5.45184 2.78282 0
M  V30 9395 N 917.522 5.81851 3.92929 0
M  V30 9396 H 922.362 2.93806 0.498176 0
M  V30 9397 H 919.899 1.45222 0.234302 0
M  V30 9398 H 921.857 2.9217 2.97813 0
M  V30 9399 H 920.487 1.82489 2.66266 0
M  V30 9400 H 919.539 3.64952 1.07303 0
M  V30 9401 H 920.851 4.71892 1.61615 0
M  V30 9402 H 920.005 4.58925 3.96829 0
M  V30 9403 H 918.744 3.42585 3.47112 0
M  V30 9404 H 917.749 5.14563 1.93661 0
M  V30 9405 H 918.974 6.32907 2.46182 0
M  V30 9406 H 916.92 4.98782 4.2609 0
M  V30 9407 H 916.837 6.6128 3.66395 0
M  V30 9408 H 918.105 6.16772 4.76669 0
M  V30 9409 N 922.334 -0.244713 1.55689 0
M  V30 9410 C 923.581 -0.972446 1.77622 0
M  V30 9411 C 923.909 -1.85235 0.593137 0
M  V30 9412 O 923.164 -1.91064 -0.423464 0
M  V30 9413 C 923.463 -1.8617 3.05083 0
M  V30 9414 C 923.129 -1.13696 4.3633 0
M  V30 9415 C 921.791 -0.936679 4.71996 0
M  V30 9416 C 924.143 -0.623451 5.17458 0
M  V30 9417 C 921.471 -0.210612 5.86322 0
M  V30 9418 C 923.823 0.0891587 6.32537 0
M  V30 9419 C 922.487 0.300904 6.66821 0
M  V30 9420 H 921.757 -0.355843 0.649967 0
M  V30 9421 H 924.404 -0.242372 1.8996 0
M  V30 9422 H 922.709 -2.6589 2.87767 0
M  V30 9423 H 924.406 -2.4265 3.19253 0
M  V30 9424 H 920.996 -1.30301 4.08313 0
M  V30 9425 H 925.18 -0.765725 4.90357 0
M  V30 9426 H 920.436 -0.0361062 6.11389 0
M  V30 9427 H 924.61 0.494685 6.94641 0
M  V30 9428 H 922.237 0.865466 7.55257 0
M  V30 9429 N 923.813 -1.49104 -0.510467 0
M  V30 9430 C 924.745 -1.61183 -1.6295 0
M  V30 9431 C 925.758 -0.495003 -1.55092 0
M  V30 9432 O 926.947 -0.766671 -1.61197 0
M  V30 9433 C 924.047 -1.54373 -3.01699 0
M  V30 9434 C 923.22 -2.81428 -3.34838 0
M  V30 9435 C 922.279 -2.67802 -4.52956 0
M  V30 9436 O 921.305 -3.41723 -4.55208 0
M  V30 9437 N 922.507 -1.78715 -5.52305 0
M  V30 9438 H 925.272 -2.57693 -1.53018 0
M  V30 9439 H 922.833 -1.46073 -0.698152 0
M  V30 9440 H 924.825 -1.42924 -3.78622 0
M  V30 9441 H 923.395 -0.657597 -3.05605 0
M  V30 9442 H 922.615 -3.07299 -2.46903 0
M  V30 9443 H 923.903 -3.6568 -3.53773 0
M  V30 9444 H 923.301 -1.17897 -5.53278 0
M  V30 9445 H 921.858 -1.73194 -6.28369 0
M  V30 9446 N 925.291 0.760815 -1.38019 0
M  V30 9447 C 926.539 1.51673 -1.33566 0
M  V30 9448 C 926.86 1.94852 0.076024 0
M  V30 9449 O 926.13 1.67112 1.02227 0
M  V30 9450 H 924.71 0.562581 -0.491438 0
M  V30 9451 H 927.372 0.904832 -1.72623 0
M  V30 9452 H 926.468 2.41102 -1.98182 0
M  V30 9453 N 926.769 1.22769 0.988202 0
M  V30 9454 C 927.701 0.959757 2.08138 0
M  V30 9455 C 928.714 -0.0633787 1.62677 0
M  V30 9456 O 929.903 0.171203 1.77677 0
M  V30 9457 C 927.003 0.422724 3.36253 0
M  V30 9458 C 926.176 1.50419 4.10722 0
M  V30 9459 C 925.235 0.973407 5.17118 0
M  V30 9460 O 924.261 1.66066 5.44436 0
M  V30 9461 N 925.463 -0.202787 5.80146 0
M  V30 9462 H 928.228 1.9009 2.31702 0
M  V30 9463 H 925.789 1.13522 1.15431 0
M  V30 9464 H 927.781 0.0528514 4.04665 0
M  V30 9465 H 926.351 -0.423642 3.09716 0
M  V30 9466 H 925.571 2.04718 3.36874 0
M  V30 9467 H 926.859 2.23169 4.57245 0
M  V30 9468 H 926.257 -0.777856 5.60327 0
M  V30 9469 H 924.814 -0.513998 6.4977 0
M  V30 9470 N 928.247 -1.18576 1.03814 0
M  V30 9471 C 929.475 -1.92437 0.759966 0
M  V30 9472 C 929.89 -1.76031 -0.682526 0
M  V30 9473 O 929.247 -1.08829 -1.46501 0
M  V30 9474 C 929.298 -3.43923 1.11351 0
M  V30 9475 O 929.019 -3.5981 2.49937 0
M  V30 9476 C 930.52 -4.34888 0.859472 0
M  V30 9477 H 927.74 -0.610998 0.277349 0
M  V30 9478 H 930.284 -1.50448 1.38512 0
M  V30 9479 H 928.439 -3.83711 0.533362 0
M  V30 9480 H 928.853 -4.53569 2.63393 0
M  V30 9481 H 930.327 -5.39744 1.15672 0
M  V30 9482 H 930.804 -4.38717 -0.205839 0
M  V30 9483 H 931.41 -4.00795 1.42279 0
M  V30 9484 N 929.725 -0.817259 -1.34754 0
M  V30 9485 C 930.965 -0.408429 -2.00278 0
M  V30 9486 C 931.329 1.00818 -1.634 0
M  V30 9487 O 932.53 1.51959 -2.21725 0
M  V30 9488 C 930.801 -0.598219 -3.52358 0
M  V30 9489 S 932.36 -0.281395 -4.37897 0
M  V30 9490 H 929.178 -0.154587 -0.693991 0
M  V30 9491 H 931.78 -1.06184 -1.6415 0
M  V30 9492 H 930.484 -1.62901 -3.76685 0
M  V30 9493 H 930.015 0.0701299 -3.93337 0
M  V30 9494 H 932.03 0.907024 -4.8784 0
M  V30 9495 N 931.203 1.46865 -0.571711 0
M  V30 9496 C 932.113 2.33979 0.170571 0
M  V30 9497 C 933.129 1.49083 0.897239 0
M  V30 9498 O 934.305 1.81979 0.862888 0
M  V30 9499 C 931.37 3.26063 1.17831 0
M  V30 9500 C 930.431 4.26855 0.457499 0
M  V30 9501 C 929.664 5.14539 1.41722 0
M  V30 9502 O 929.887 5.04945 2.65305 0
M  V30 9503 O 928.821 5.94612 0.9338 0
M  V30 9504 H 932.647 2.98781 -0.544396 0
M  V30 9505 H 930.232 1.4566 -0.332198 0
M  V30 9506 H 932.114 3.82903 1.75965 0
M  V30 9507 H 930.789 2.63871 1.87493 0
M  V30 9508 H 929.696 3.73734 -0.165406 0
M  V30 9509 H 931.029 4.91802 -0.197953 0
M  V30 9510 N 932.681 0.308908 1.54543 0
M  V30 9511 C 933.614 -0.605854 2.20011 0
M  V30 9512 C 934.592 -1.1269 1.17216 0
M  V30 9513 O 935.776 -1.19363 1.45893 0
M  V30 9514 C 932.903 -1.82977 2.85021 0
M  V30 9515 C 931.949 -1.44126 4.0141 0
M  V30 9516 S 932.782 -0.490445 5.33249 0
M  V30 9517 C 933.938 -1.72198 6.01746 0
M  V30 9518 H 934.171 -0.0496911 2.97258 0
M  V30 9519 H 931.704 0.0930238 1.5412 0
M  V30 9520 H 933.662 -2.53211 3.23102 0
M  V30 9521 H 932.323 -2.35711 2.07604 0
M  V30 9522 H 931.516 -2.35288 4.45708 0
M  V30 9523 H 931.118 -0.818788 3.64927 0
M  V30 9524 H 933.41 -2.66147 6.23034 0
M  V30 9525 H 934.353 -1.32142 6.95661 0
M  V30 9526 H 934.761 -1.90229 5.31482 0
M  V30 9527 N 934.159 -1.57557 0.0367827 0
M  V30 9528 C 935.399 -1.93981 -0.644252 0
M  V30 9529 C 935.763 -0.913982 -1.6885 0
M  V30 9530 O 936.964 -1.16468 -2.42257 0
M  V30 9531 C 935.235 -3.35281 -1.23779 0
M  V30 9532 S 936.794 -3.93643 -1.93883 0
M  V30 9533 H 933.612 -0.678683 -0.21192 0
M  V30 9534 H 936.214 -1.95232 0.102281 0
M  V30 9535 H 934.918 -4.07752 -0.465451 0
M  V30 9536 H 934.449 -3.37492 -2.02146 0
M  V30 9537 H 936.464 -3.777 -3.21803 0
M  V30 9538 N 935.637 0.236453 -1.55816 0
M  V30 9539 C 936.569 1.31602 -1.87653 0
M  V30 9540 C 937.582 1.43782 -0.763584 0
M  V30 9541 O 938.771 1.44945 -1.04178 0
M  V30 9542 C 935.871 2.69342 -2.05689 0
M  V30 9543 C 935.044 2.79298 -3.36617 0
M  V30 9544 C 934.103 3.97952 -3.44268 0
M  V30 9545 O 933.129 3.86989 -4.17406 0
M  V30 9546 N 934.331 5.11594 -2.74321 0
M  V30 9547 H 937.096 1.04623 -2.80845 0
M  V30 9548 H 934.657 0.426534 -1.5618 0
M  V30 9549 H 936.649 3.47074 -2.08138 0
M  V30 9550 H 935.219 2.88984 -1.19192 0
M  V30 9551 H 934.439 1.8816 -3.46395 0
M  V30 9552 H 935.727 2.82908 -4.22895 0
M  V30 9553 H 935.125 5.23394 -2.14651 0
M  V30 9554 H 933.682 5.87422 -2.8245 0
M  V30 9555 N 937.115 1.49373 0.502552 0
M  V30 9556 C 938.343 1.62488 1.28084 0
M  V30 9557 C 938.758 0.295667 1.86471 0
M  V30 9558 O 938.115 -0.718664 1.67754 0
M  V30 9559 C 938.166 2.69249 2.4122 0
M  V30 9560 O 937.887 3.97014 1.85234 0
M  V30 9561 C 939.388 2.93054 3.32617 0
M  V30 9562 H 936.608 0.547068 0.388533 0
M  V30 9563 H 939.152 1.95394 0.603452 0
M  V30 9564 H 937.307 2.39125 3.04792 0
M  V30 9565 H 937.721 4.55809 2.59496 0
M  V30 9566 H 939.195 3.71493 4.08285 0
M  V30 9567 H 939.672 2.02911 3.89517 0
M  V30 9568 H 940.278 3.24589 2.74813 0
M  V30 9569 N 938.594 -0.753485 1.38421 0
M  V30 9570 C 939.834 -1.52544 1.3605 0
M  V30 9571 C 940.198 -1.91937 -0.0493257 0
M  V30 9572 O 941.399 -2.6807 -0.197908 0
M  V30 9573 C 939.67 -2.74432 2.28958 0
M  V30 9574 S 941.229 -3.64297 2.44607 0
M  V30 9575 H 938.047 -0.522017 0.48272 0
M  V30 9576 H 940.649 -0.884503 1.74347 0
M  V30 9577 H 939.353 -2.43602 3.30282 0
M  V30 9578 H 938.884 -3.43471 1.91811 0
M  V30 9579 H 940.899 -4.67245 1.67022 0
M  V30 9580 N 940.072 -1.23292 -0.981677 0
M  V30 9581 C 941.002 -1.03738 -2.09191 0
M  V30 9582 C 941.983 0.0453041 -1.7004 0
M  V30 9583 O 943.168 -0.119092 -1.93834 0
M  V30 9584 C 940.298 -0.626426 -3.41604 0
M  V30 9585 C 939.252 -1.65631 -3.94652 0
M  V30 9586 C 938.578 -1.10084 -5.23245 0
M  V30 9587 C 939.878 -3.04903 -4.24066 0
M  V30 9588 H 941.572 -1.966 -2.25807 0
M  V30 9589 H 939.118 -0.946656 -1.0851 0
M  V30 9590 H 941.071 -0.476689 -4.18695 0
M  V30 9591 H 939.795 0.337873 -3.24848 0
M  V30 9592 H 938.454 -1.79402 -3.19704 0
M  V30 9593 H 938.102 -0.127562 -5.02838 0
M  V30 9594 H 937.802 -1.78896 -5.59705 0
M  V30 9595 H 939.326 -0.962928 -6.02959 0
M  V30 9596 H 940.74 -2.94441 -4.91912 0
M  V30 9597 H 939.137 -3.70941 -4.71724 0
M  V30 9598 H 940.207 -3.53991 -3.31389 0
M  V30 9599 N 941.55 1.18024 -1.04442 0
M  V30 9600 C 942.798 1.87727 -0.74854 0
M  V30 9601 C 943.119 1.80975 0.726156 0
M  V30 9602 O 942.389 1.23061 1.52423 0
M  V30 9603 H 940.969 0.694974 -0.273897 0
M  V30 9604 H 943.631 1.43213 -1.32197 0
M  V30 9605 H 942.727 2.93665 -1.05674 0
M  V30 9606 N 943.028 0.824394 1.34319 0
M  V30 9607 C 944.274 0.413779 1.98534 0
M  V30 9608 C 944.607 -1.02089 1.65201 0
M  V30 9609 O 943.882 -1.71129 0.924402 0
M  V30 9610 C 944.165 0.61801 3.54757 0
M  V30 9611 C 944.018 2.0989 3.97827 0
M  V30 9612 C 945.337 0.0549041 4.40066 0
M  V30 9613 H 942.456 0.151815 0.721194 0
M  V30 9614 H 945.098 1.03723 1.5919 0
M  V30 9615 H 943.248 0.0873107 3.88402 0
M  V30 9616 H 944.92 2.69335 3.74508 0
M  V30 9617 H 943.163 2.58881 3.48085 0
M  V30 9618 H 943.834 2.1926 5.06586 0
M  V30 9619 H 946.31 0.508348 4.12983 0
M  V30 9620 H 945.186 0.227595 5.48428 0
M  V30 9621 H 945.447 -1.04025 4.29687 0
M  V30 9622 N 944.506 -1.46559 0.579492 0
M  V30 9623 C 945.746 -2.04292 0.0664837 0
M  V30 9624 C 946.11 -1.44161 -1.26814 0
M  V30 9625 O 947.311 -1.93074 -1.87018 0
M  V30 9626 C 945.582 -3.574 -0.00167254 0
M  V30 9627 S 947.141 -4.36408 -0.457572 0
M  V30 9628 H 943.959 -0.710092 0.035913 0
M  V30 9629 H 946.561 -1.79644 0.771263 0
M  V30 9630 H 945.265 -3.98683 0.973666 0
M  V30 9631 H 944.796 -3.8658 -0.729321 0
M  V30 9632 H 946.811 -4.65695 -1.71296 0
M  V30 9633 N 945.984 -0.3171 -1.54377 0
M  V30 9634 C 946.947 0.53905 -2.22771 0
M  V30 9635 C 947.947 1.04865 -1.21901 0
M  V30 9636 O 949.137 0.942108 -1.46526 0
M  V30 9637 C 946.269 1.74804 -2.92671 0
M  V30 9638 H 947.462 -0.0587417 -2.99842 0
M  V30 9639 H 945.015 -0.068107 -1.56152 0
M  V30 9640 H 945.75 2.38524 -2.1972 0
M  V30 9641 H 945.535 1.39011 -3.66631 0
M  V30 9642 H 947.025 2.35592 -3.44799 0
M  V30 9643 N 947.462 1.57535 -0.0451378 0
M  V30 9644 C 948.372 2.14653 0.946646 0
M  V30 9645 C 949.388 1.10279 1.3459 0
M  V30 9646 O 950.564 1.42417 1.42405 0
M  V30 9647 C 947.629 2.67533 2.20515 0
M  V30 9648 C 946.69 3.86682 1.86481 0
M  V30 9649 C 945.923 4.37031 3.06332 0
M  V30 9650 O 946.146 3.86481 4.1951 0
M  V30 9651 O 945.08 5.28691 2.87697 0
M  V30 9652 H 948.906 2.99706 0.49091 0
M  V30 9653 H 946.491 1.48355 0.17641 0
M  V30 9654 H 948.373 3.01542 2.94365 0
M  V30 9655 H 947.048 1.85554 2.65238 0
M  V30 9656 H 945.955 3.57573 1.09966 0
M  V30 9657 H 947.288 4.69873 1.46562 0
M  V30 9658 N 948.94 -0.228186 1.55939 0
M  V30 9659 C 949.89 -1.28607 1.88267 0
M  V30 9660 C 950.874 -1.42606 0.745139 0
M  V30 9661 O 952.066 -1.45533 1.00743 0
M  V30 9662 C 949.195 -2.63783 2.19712 0
M  V30 9663 C 948.281 -2.53712 3.3984 0
M  V30 9664 N 948.672 -2.13287 4.58631 0
M  V30 9665 C 946.97 -2.84686 3.43322 0
M  V30 9666 C 947.671 -2.14305 5.40785 0
M  V30 9667 N 946.647 -2.54536 4.80325 0
M  V30 9668 H 950.449 -0.964307 2.7763 0
M  V30 9669 H 947.963 -0.436769 1.56416 0
M  V30 9670 H 949.96 -3.40152 2.41044 0
M  V30 9671 H 948.62 -2.9681 1.31657 0
M  V30 9672 H 949.631 -1.84525 4.83912 0
M  V30 9673 H 946.308 -3.22129 2.65592 0
M  V30 9674 H 947.698 -1.85231 6.45863 0
M  V30 9675 N 950.418 -1.49637 -0.494624 0
M  V30 9676 C 951.365 -1.66776 -1.59545 0
M  V30 9677 C 952.335 -0.509159 -1.58104 0
M  V30 9678 O 953.52 -0.736949 -1.75993 0
M  V30 9679 C 950.66 -1.74624 -2.97658 0
M  V30 9680 C 949.773 -3.01831 -3.09067 0
M  V30 9681 C 948.908 -3.00619 -4.37952 0
M  V30 9682 C 947.947 -4.22378 -4.43016 0
M  V30 9683 N 947.084 -4.1904 -5.63339 0
M  V30 9684 H 951.924 -2.60767 -1.44238 0
M  V30 9685 H 949.461 -1.29286 -0.701673 0
M  V30 9686 H 951.419 -1.77156 -3.77719 0
M  V30 9687 H 950.049 -0.840936 -3.11654 0
M  V30 9688 H 949.101 -3.08881 -2.22029 0
M  V30 9689 H 950.413 -3.91823 -3.08669 0
M  V30 9690 H 949.567 -3.01749 -5.26339 0
M  V30 9691 H 948.306 -2.08416 -4.40924 0
M  V30 9692 H 947.311 -4.21485 -3.5303 0
M  V30 9693 H 948.536 -5.15781 -4.41755 0
M  V30 9694 H 946.482 -3.29677 -5.67141 0
M  V30 9695 H 946.399 -5.02774 -5.64583 0
M  V30 9696 H 947.667 -4.24281 -6.53916 0
M  V30 9697 N 951.896 0.746133 -1.38819 0
M  V30 9698 C 952.806 1.89063 -1.38897 0
M  V30 9699 C 953.822 1.71648 -0.28513 0
M  V30 9700 O 954.998 1.94443 -0.524783 0
M  V30 9701 C 952.063 3.24523 -1.22007 0
M  V30 9702 C 951.124 3.54411 -2.42263 0
M  V30 9703 C 950.357 4.83408 -2.26169 0
M  V30 9704 O 950.58 5.56325 -1.25931 0
M  V30 9705 O 949.514 5.12943 -3.14918 0
M  V30 9706 H 953.34 1.91951 -2.35347 0
M  V30 9707 H 950.925 0.892433 -1.19816 0
M  V30 9708 H 952.807 4.05496 -1.14677 0
M  V30 9709 H 951.482 3.2243 -0.286455 0
M  V30 9710 H 950.389 2.73569 -2.55168 0
M  V30 9711 H 951.722 3.61273 -3.3428 0
M  V30 9712 N 953.375 1.23811 0.975125 0
M  V30 9713 C 954.615 1.08517 1.73215 0
M  V30 9714 C 954.979 -0.370777 1.88386 0
M  V30 9715 O 956.18 -0.645036 2.60946 0
M  V30 9716 C 954.451 1.79649 3.08968 0
M  V30 9717 S 956.01 1.79993 4.00185 0
M  V30 9718 H 952.828 0.388256 0.595633 0
M  V30 9719 H 955.43 1.57028 1.16458 0
M  V30 9720 H 954.134 2.8471 2.95581 0
M  V30 9721 H 953.665 1.31441 3.70792 0
M  V30 9722 H 955.68 0.862294 4.8865 0
M  V30 9723 N 954.853 -1.17469 1.05066 0
M  V30 9724 C 956.099 -1.87976 0.761113 0
M  V30 9725 C 956.432 -1.80756 -0.709995 0
M  V30 9726 O 955.707 -1.21469 -1.51906 0
M  V30 9727 C 955.99 -3.38055 1.2406 0
M  V30 9728 C 955.843 -3.54032 2.77455 0
M  V30 9729 C 957.162 -4.32036 0.838612 0
M  V30 9730 H 954.281 -0.682573 0.277963 0
M  V30 9731 H 956.923 -1.38147 1.30443 0
M  V30 9732 H 955.073 -3.80622 0.778388 0
M  V30 9733 H 956.745 -3.20489 3.3179 0
M  V30 9734 H 954.988 -2.96352 3.16793 0
M  V30 9735 H 955.659 -4.59377 3.06066 0
M  V30 9736 H 958.135 -3.97303 1.23651 0
M  V30 9737 H 957.011 -5.35583 1.20173 0
M  V30 9738 H 957.272 -4.41349 -0.257498 0
M  V30 9739 N 956.331 -0.831506 -1.3388 0
M  V30 9740 C 957.263 -0.216908 -2.28171 0
M  V30 9741 C 958.276 0.598141 -1.51414 0
M  V30 9742 O 959.465 0.426416 -1.73332 0
M  V30 9743 C 956.565 0.713831 -3.31297 0
M  V30 9744 C 955.738 -0.0602673 -4.37358 0
M  V30 9745 C 954.797 0.792696 -5.20195 0
M  V30 9746 O 953.823 0.234564 -5.68716 0
M  V30 9747 N 955.025 2.11119 -5.40748 0
M  V30 9748 H 957.79 -1.02704 -2.81553 0
M  V30 9749 H 955.351 -0.689272 -1.46495 0
M  V30 9750 H 957.343 1.28925 -3.83615 0
M  V30 9751 H 955.913 1.42469 -2.78247 0
M  V30 9752 H 955.133 -0.817041 -3.8564 0
M  V30 9753 H 956.421 -0.592822 -5.05335 0
M  V30 9754 H 955.819 2.58828 -5.03016 0
M  V30 9755 H 954.376 2.63527 -5.96151 0
M  V30 9756 N 957.809 1.4625 -0.587256 0
M  V30 9757 C 959.049 2.04254 -0.0773169 0
M  V30 9758 C 959.413 1.44831 1.26047 0
M  V30 9759 O 960.614 1.94063 1.85992 0
M  V30 9760 C 958.885 3.57396 -0.0172813 0
M  V30 9761 S 960.444 4.36644 0.434422 0
M  V30 9762 H 957.262 0.709892 -0.0396783 0
M  V30 9763 H 959.864 1.79232 -0.780779 0
M  V30 9764 H 958.568 3.98161 -0.994795 0
M  V30 9765 H 958.099 3.86962 0.70881 0
M  V30 9766 H 960.114 4.66597 1.68824 0
M  V30 9767 N 959.287 0.325282 1.54207 0
M  V30 9768 C 960.703 -0.0273036 1.59577 0
M  V30 9769 C 960.903 -1.50329 1.34177 0
M  V30 9770 O 959.959 -2.25951 1.12705 0
M  V30 9771 C 961.272 0.392468 2.98128 0
M  V30 9772 C 962.82 0.343269 3.11112 0
M  V30 9773 C 963.295 0.738229 4.52011 0
M  V30 9774 N 964.786 0.691701 4.58006 0
M  V30 9775 C 965.521 0.969479 5.65145 0
M  V30 9776 N 965.017 1.31448 6.80216 0
M  V30 9777 N 966.81 0.894926 5.5493 0
M  V30 9778 H 958.961 1.28692 1.68974 0
M  V30 9779 H 961.224 0.523399 0.790416 0
M  V30 9780 H 960.93 1.42089 3.2172 0
M  V30 9781 H 960.804 -0.241651 3.76425 0
M  V30 9782 H 963.191 -0.675946 2.87254 0
M  V30 9783 H 963.272 1.01235 2.34915 0
M  V30 9784 H 962.916 1.75537 4.76602 0
M  V30 9785 H 962.846 0.0468226 5.26579 0
M  V30 9786 H 965.337 0.436975 3.75365 0
M  V30 9787 H 965.65 1.51177 7.57869 0
M  V30 9788 H 963.995 1.35276 6.81708 0
M  V30 9789 H 967.186 0.624876 4.6391 0
M  V30 9790 H 967.359 1.11476 6.38339 0
M  V30 9791 N 960.765 -1.57509 0.0534917 0
M  V30 9792 C 961.728 -2.10563 -0.905307 0
M  V30 9793 C 962.728 -1.02571 -1.23838 0
M  V30 9794 O 963.918 -1.28635 -1.17468 0
M  V30 9795 C 961.05 -2.5918 -2.21447 0
M  V30 9796 H 962.243 -2.96575 -0.445354 0
M  V30 9797 H 959.796 -1.55079 -0.194947 0
M  V30 9798 H 960.531 -1.76568 -2.72019 0
M  V30 9799 H 960.316 -3.38098 -1.98575 0
M  V30 9800 H 961.806 -3.00365 -2.90122 0
M  V30 9801 N 962.243 0.219913 -1.56058 0
M  V30 9802 C 963.49 0.944064 -1.79147 0
M  V30 9803 C 963.818 1.84268 -0.622531 0
M  V30 9804 O 963.073 1.91713 0.393013 0
M  V30 9805 C 963.372 1.81293 -3.08006 0
M  V30 9806 C 963.038 1.0674 -4.38084 0
M  V30 9807 C 961.7 0.86147 -4.73426 0
M  V30 9808 C 964.052 0.541049 -5.18384 0
M  V30 9809 C 961.38 0.117307 -5.86583 0
M  V30 9810 C 963.732 -0.189779 -6.32315 0
M  V30 9811 C 962.396 -0.406951 -6.66258 0
M  V30 9812 H 961.666 0.345458 -0.655546 0
M  V30 9813 H 964.313 0.212121 -1.90322 0
M  V30 9814 H 962.618 2.61278 -2.9196 0
M  V30 9815 H 964.315 2.3754 -3.23072 0
M  V30 9816 H 960.905 1.23789 -4.10334 0
M  V30 9817 H 965.089 0.687617 -4.91514 0
M  V30 9818 H 960.345 -0.0611651 -6.11369 0
M  V30 9819 H 964.519 -0.605134 -6.93766 0
M  V30 9820 H 962.146 -0.985511 -7.53785 0
M  V30 9821 N 963.721 1.49897 0.486681 0
M  V30 9822 C 964.669 1.68125 1.60738 0
M  V30 9823 C 965.663 0.547097 1.60322 0
M  V30 9824 O 966.869 0.727153 1.64659 0
M  V30 9825 H 963.244 0.530391 0.533094 0
M  V30 9826 H 965.215 2.62165 1.42521 0
M  V30 9827 C 963.964 1.77827 2.98786 0
M  V30 9828 H 963.287 2.6448 2.99818 0
M  V30 9829 H 964.727 1.94611 3.76699 0
M  V30 9830 C 963.186 0.526287 3.32764 0
M  V30 9831 O 963.716 -0.341607 4.00245 0
M  V30 9832 N 961.922 0.384947 2.88039 0
M  V30 9833 H 961.469 1.09222 2.33299 0
M  V30 9834 H 961.427 -0.451618 3.11139 0
M  V30 9835 N 965.199 -0.738761 1.39212 0
M  V30 9836 C 966.146 -1.85273 1.37631 0
M  V30 9837 C 967.116 -1.64407 0.236572 0
M  V30 9838 O 968.301 -1.85866 0.431104 0
M  V30 9839 C 965.441 -3.22745 1.22188 0
M  V30 9840 C 964.554 -3.55342 2.45674 0
M  V30 9841 C 963.689 -4.82195 2.22847 0
M  V30 9842 C 962.728 -5.07625 3.42029 0
M  V30 9843 N 961.865 -6.25679 3.18543 0
M  V30 9844 H 966.705 -1.85959 2.32859 0
M  V30 9845 H 964.242 -0.908716 1.15675 0
M  V30 9846 H 966.2 -4.02095 1.11245 0
M  V30 9847 H 964.83 -3.21347 0.30592 0
M  V30 9848 H 963.882 -2.70722 2.67233 0
M  V30 9849 H 965.194 -3.70054 3.34457 0
M  V30 9850 H 964.348 -5.69518 2.09126 0
M  V30 9851 H 963.087 -4.6965 1.31454 0
M  V30 9852 H 962.092 -4.18765 3.56253 0
M  V30 9853 H 963.317 -5.22058 4.34319 0
M  V30 9854 H 961.263 -6.14429 2.2981 0
M  V30 9855 H 961.18 -6.40961 4.0088 0
M  V30 9856 H 962.448 -7.15851 3.08508 0
M  V30 9857 N 966.677 -1.24326 -0.968545 0
M  V30 9858 C 967.925 -1.08032 -1.70803 0
M  V30 9859 C 968.246 0.381728 -1.91227 0
M  V30 9860 O 967.516 1.27253 -1.48942 0
M  V30 9861 H 966.096 -0.396777 -0.632912 0
M  V30 9862 H 968.758 -1.56232 -1.16523 0
M  V30 9863 H 967.854 -1.57769 -2.69287 0
M  V30 9864 N 968.156 1.1691 -1.05688 0
M  V30 9865 C 969.066 2.24735 -0.67315 0
M  V30 9866 C 970.082 1.71252 0.308043 0
M  V30 9867 O 971.258 2.00772 0.158889 0
M  V30 9868 C 968.323 3.4665 -0.059026 0
M  V30 9869 C 967.384 4.15198 -1.0913 0
M  V30 9870 C 966.617 5.31292 -0.50639 0
M  V30 9871 O 966.84 5.663 0.682692 0
M  V30 9872 O 965.774 5.88923 -1.2431 0
M  V30 9873 H 969.6 2.59855 -1.57191 0
M  V30 9874 H 967.185 1.24306 -0.828751 0
M  V30 9875 H 969.067 4.20455 0.282018 0
M  V30 9876 H 967.742 3.13316 0.813304 0
M  V30 9877 H 966.649 3.43389 -1.48442 0
M  V30 9878 H 967.982 4.52571 -1.93495 0
M  V30 9879 N 969.634 0.838594 1.33437 0
M  V30 9880 C 970.581 0.269609 2.2922 0
M  V30 9881 C 971.551 -0.614429 1.54318 0
M  V30 9882 O 972.736 -0.552756 1.82618 0
M  V30 9883 C 969.876 -0.549527 3.40697 0
M  V30 9884 C 968.989 0.358502 4.3051 0
M  V30 9885 C 968.124 -0.471709 5.29101 0
M  V30 9886 C 967.163 0.434728 6.10554 0
M  V30 9887 N 966.3 -0.357339 7.0119 0
M  V30 9888 H 971.14 1.09172 2.77282 0
M  V30 9889 H 968.677 0.549832 1.36438 0
M  V30 9890 H 970.635 -1.03992 4.04032 0
M  V30 9891 H 969.265 -1.33661 2.93828 0
M  V30 9892 H 968.317 0.967204 3.67899 0
M  V30 9893 H 969.629 1.05483 4.87519 0
M  V30 9894 H 968.783 -1.02594 5.97963 0
M  V30 9895 H 967.522 -1.20147 4.72669 0
M  V30 9896 H 966.527 1.00097 5.40611 0
M  V30 9897 H 967.752 1.16285 6.6907 0
M  V30 9898 H 965.698 -1.07049 6.47207 0
M  V30 9899 H 965.615 0.280277 7.5548 0
M  V30 9900 H 966.883 -0.893814 7.74359 0
M  V30 9901 N 971.112 -1.45937 0.595003 0
M  V30 9902 C 972.059 -2.30427 -0.131165 0
M  V30 9903 C 973.029 -1.41355 -0.872232 0
M  V30 9904 O 974.214 -1.70296 -0.860467 0
M  V30 9905 C 971.354 -3.26045 -1.13087 0
M  V30 9906 C 970.467 -4.30218 -0.391982 0
M  V30 9907 C 969.602 -5.12953 -1.3803 0
M  V30 9908 C 968.641 -6.08865 -0.628505 0
M  V30 9909 N 967.778 -6.84425 -1.56548 0
M  V30 9910 H 972.618 -2.91992 0.595359 0
M  V30 9911 H 970.155 -1.43895 0.305405 0
M  V30 9912 H 972.113 -3.79937 -1.72348 0
M  V30 9913 H 970.743 -2.66261 -1.82496 0
M  V30 9914 H 969.795 -3.79086 0.315895 0
M  V30 9915 H 971.107 -4.98418 0.195173 0
M  V30 9916 H 970.261 -5.71184 -2.04534 0
M  V30 9917 H 969 -4.44743 -2.00138 0
M  V30 9918 H 968.005 -5.49777 0.0502431 0
M  V30 9919 H 969.23 -6.79099 -0.012641 0
M  V30 9920 H 967.176 -6.18913 -2.17444 0
M  V30 9921 H 967.093 -7.48931 -1.03145 0
M  V30 9922 H 968.361 -7.47204 -2.22049 0
M  V30 9923 N 972.59 -0.333456 -1.54032 0
M  V30 9924 C 973.867 0.320902 -1.9295 0
M  V30 9925 C 974.247 1.69071 -1.26405 0
M  V30 9926 O 973.595 2.24768 -0.411311 0
M  V30 9927 C 973.805 0.403257 -3.46662 0
M  V30 9928 C 975.153 0.658875 -4.19457 0
M  V30 9929 O 976.177 0.485781 -3.52872 0
M  V30 9930 O 975.036 0.993475 -5.37394 0
M  V30 9931 H 972.13 0.185158 -0.806006 0
M  V30 9932 H 974.676 -0.383895 -1.65301 0
M  V30 9933 H 973.448 -0.558409 -3.87295 0
M  V30 9934 H 973.071 1.15524 -3.80447 0
M  V30 9935 N 974.068 1.57479 -0.061844 0
M  V30 9936 C 975.296 1.97429 0.618837 0
M  V30 9937 C 975.711 0.939826 1.63746 0
M  V30 9938 O 975.068 -0.0747173 1.82347 0
M  V30 9939 C 975.119 3.3746 1.29628 0
M  V30 9940 O 974.84 4.36941 0.318431 0
M  V30 9941 C 976.341 3.92228 2.06572 0
M  V30 9942 H 973.561 0.649513 0.168444 0
M  V30 9943 H 976.105 2.04078 -0.131303 0
M  V30 9944 H 974.26 3.31928 1.99757 0
M  V30 9945 H 974.674 5.18313 0.803239 0
M  V30 9946 H 976.148 4.92458 2.49377 0
M  V30 9947 H 976.625 3.28231 2.91824 0
M  V30 9948 H 977.231 4.01131 1.4133 0
M  V30 9949 N 975.546 -0.211634 1.56173 0
M  V30 9950 C 976.786 -0.941505 1.81425 0
M  V30 9951 C 977.15 -1.8113 0.636862 0
M  V30 9952 O 978.351 -2.57568 0.768907 0
M  V30 9953 C 976.622 -1.75002 3.11623 0
M  V30 9954 S 978.181 -2.53418 3.58225 0
M  V30 9955 H 974.999 -0.316088 0.636875 0
M  V30 9956 H 977.601 -0.206244 1.94409 0
M  V30 9957 H 976.305 -1.10136 3.95346 0
M  V30 9958 H 975.836 -2.5274 3.01473 0
M  V30 9959 H 977.851 -3.77234 3.22349 0
M  V30 9960 N 977.024 -1.50153 -0.478725 0
M  V30 9961 C 978.252 -1.64505 -1.25482 0
M  V30 9962 C 978.667 -0.325295 -1.85977 0
M  V30 9963 O 978.024 0.691885 -1.68876 0
M  V30 9964 C 978.075 -2.73052 -2.36906 0
M  V30 9965 O 977.796 -3.99911 -1.78894 0
M  V30 9966 C 979.297 -2.98309 -3.27912 0
M  V30 9967 H 976.517 -0.55318 -0.379781 0
M  V30 9968 H 979.061 -1.96329 -0.57229 0
M  V30 9969 H 977.216 -2.43944 -3.00949 0
M  V30 9970 H 977.63 -4.5988 -2.52211 0
M  V30 9971 H 979.104 -3.77942 -4.02323 0
M  V30 9972 H 979.581 -2.09082 -3.8624 0
M  V30 9973 H 980.187 -3.2892 -2.69614 0
M  V30 9974 N 978.502 0.731368 -1.39602 0
M  V30 9975 C 979.434 1.85575 -1.34516 0
M  V30 9976 C 980.447 1.60818 -0.253287 0
M  V30 9977 O 981.636 1.70984 -0.512505 0
M  V30 9978 C 978.736 3.21673 -1.06676 0
M  V30 9979 C 977.909 3.73757 -2.27211 0
M  V30 9980 C 976.968 4.88426 -1.95773 0
M  V30 9981 O 975.994 5.01898 -2.68491 0
M  V30 9982 N 977.196 5.73065 -0.926083 0
M  V30 9983 H 979.961 1.90442 -2.31413 0
M  V30 9984 H 977.522 0.912258 -1.33752 0
M  V30 9985 H 979.514 3.95959 -0.836577 0
M  V30 9986 H 978.084 3.12052 -0.185003 0
M  V30 9987 H 977.304 2.90781 -2.66158 0
M  V30 9988 H 978.592 4.05289 -3.07601 0
M  V30 9989 H 977.99 5.64774 -0.323497 0
M  V30 9990 H 976.547 6.47403 -0.755795 0
M  V30 9991 N 979.98 1.24838 0.961938 0
M  V30 9992 C 980.89 1.06304 2.09133 0
M  V30 9993 C 981.906 0.00221475 1.74 0
M  V30 9994 O 983.082 0.201611 2.00388 0
M  V30 9995 C 980.147 0.676117 3.40043 0
M  V30 9996 C 979.208 1.81407 3.89089 0
M  V30 9997 C 978.441 1.44551 5.13752 0
M  V30 9998 O 978.664 0.337894 5.69398 0
M  V30 9999 O 977.598 2.27316 5.57325 0
M  V30 10000 H 981.424 2.01001 2.27667 0
M  V30 10001 H 979.009 1.0371 1.07539 0
M  V30 10002 H 980.891 0.472124 4.18747 0
M  V30 10003 H 979.566 -0.241667 3.22797 0
M  V30 10004 H 978.473 2.07286 3.11421 0
M  V30 10005 H 979.806 2.71083 4.10822 0
M  V30 10006 N 981.458 -1.16348 1.06306 0
M  V30 10007 C 982.698 -1.88556 0.789055 0
M  V30 10008 C 983.062 -1.79849 -0.672179 0
M  V30 10009 O 984.263 -2.46984 -1.06078 0
M  V30 10010 C 982.534 -3.34069 1.27016 0
M  V30 10011 S 984.093 -4.24128 1.12522 0
M  V30 10012 H 980.911 -0.65084 0.286232 0
M  V30 10013 H 983.513 -1.40443 1.36 0
M  V30 10014 H 982.217 -3.37944 2.32856 0
M  V30 10015 H 981.748 -3.87231 0.693963 0
M  V30 10016 H 983.763 -4.96168 0.0562142 0
M  V30 10017 N 982.937 -0.845659 -1.3299 0
M  V30 10018 C 984.162 -0.457435 -2.02293 0
M  V30 10019 C 984.587 0.935634 -1.63179 0
M  V30 10020 O 983.945 1.61297 -0.827835 0
M  V30 10021 C 983.993 -0.593665 -3.5568 0
M  V30 10022 O 983.097 0.37729 -4.10671 0
M  V30 10023 H 982.438 -0.185022 -0.637701 0
M  V30 10024 H 984.968 -1.14237 -1.69738 0
M  V30 10025 H 984.978 -0.477834 -4.05192 0
M  V30 10026 H 983.653 -1.60957 -3.83491 0
M  V30 10027 H 982.23 0.218448 -3.7226 0
M  V30 10028 N 984.415 1.45619 -0.602734 0
M  V30 10029 C 985.645 2.06348 -0.102105 0
M  V30 10030 C 986.053 1.44884 1.21677 0
M  V30 10031 O 985.396 0.555559 1.75098 0
M  V30 10032 C 985.458 3.59309 0.117026 0
M  V30 10033 C 985.122 4.43081 -1.11931 0
M  V30 10034 C 986.119 4.78364 -2.03627 0
M  V30 10035 C 983.804 4.83908 -1.34677 0
M  V30 10036 C 985.798 5.53325 -3.16403 0
M  V30 10037 C 983.485 5.58624 -2.47754 0
M  V30 10038 C 984.483 5.93249 -3.38445 0
M  V30 10039 O 984.171 6.6645 -4.49555 0
M  V30 10040 H 983.903 0.672988 -0.0637478 0
M  V30 10041 H 986.457 1.87928 -0.828983 0
M  V30 10042 H 984.687 3.76111 0.898742 0
M  V30 10043 H 986.376 4.01897 0.568649 0
M  V30 10044 H 987.142 4.47384 -1.87277 0
M  V30 10045 H 983.021 4.56396 -0.649875 0
M  V30 10046 H 986.565 5.80268 -3.87214 0
M  V30 10047 H 982.462 5.89019 -2.64059 0
M  V30 10048 H 983.23 6.84895 -4.48175 0
M  V30 10049 N 985.893 0.34162 1.53853 0
M  V30 10050 C 987.14 -0.255484 2.00882 0
M  V30 10051 C 987.468 -1.50711 1.22949 0
M  V30 10052 O 986.723 -1.93315 0.304625 0
M  V30 10053 C 987.022 -0.616989 3.52034 0
M  V30 10054 C 986.688 0.537536 4.47684 0
M  V30 10055 C 985.35 0.854379 4.73554 0
M  V30 10056 C 987.702 1.31217 5.04412 0
M  V30 10057 C 985.03 1.94826 5.53407 0
M  V30 10058 C 987.382 2.39628 5.85458 0
M  V30 10059 C 986.046 2.71874 6.09623 0
M  V30 10060 H 985.316 -0.0934881 0.735079 0
M  V30 10061 H 987.963 0.469135 1.85665 0
M  V30 10062 H 986.268 -1.42229 3.65073 0
M  V30 10063 H 987.965 -1.09084 3.85878 0
M  V30 10064 H 984.555 0.280524 4.27681 0
M  V30 10065 H 988.739 1.08064 4.84392 0
M  V30 10066 H 983.995 2.20235 5.70356 0
M  V30 10067 H 988.169 3.00084 6.28429 0
M  V30 10068 H 985.796 3.56762 6.71286 0
M  V30 10069 N 987.371 -1.57444 0.0701946 0
M  V30 10070 C 988.319 -2.13834 -0.915302 0
M  V30 10071 C 989.313 -1.07483 -1.30934 0
M  V30 10072 O 990.519 -1.25865 -1.28678 0
M  V30 10073 H 986.894 -0.683716 -0.313108 0
M  V30 10074 H 988.865 -2.95503 -0.414758 0
M  V30 10075 C 987.614 -2.71355 -2.17398 0
M  V30 10076 H 986.937 -3.52861 -1.87961 0
M  V30 10077 H 988.377 -3.1441 -2.84469 0
M  V30 10078 C 986.836 -1.66038 -2.93143 0
M  V30 10079 O 987.366 -1.08443 -3.86786 0
M  V30 10080 N 985.572 -1.3711 -2.56221 0
M  V30 10081 H 985.119 -1.84135 -1.80145 0
M  V30 10082 H 985.077 -0.66877 -3.07205 0
M  V30 10083 N 988.849 0.203349 -1.56283 0
M  V30 10084 C 990.098 0.92315 -1.79334 0
M  V30 10085 C 990.411 1.84765 -0.641977 0
M  V30 10086 O 991.617 2.60745 -0.756584 0
M  V30 10087 C 990.073 1.69184 -3.17655 0
M  V30 10088 C 989.681 0.812581 -4.40569 0
M  V30 10089 C 991.425 2.40177 -3.50022 0
M  V30 10090 C 989.332 1.57967 -5.69913 0
M  V30 10091 H 988.262 0.348442 -0.668659 0
M  V30 10092 H 990.913 0.1766 -1.82648 0
M  V30 10093 H 989.295 2.48197 -3.08568 0
M  V30 10094 H 990.469 0.0616956 -4.60759 0
M  V30 10095 H 988.784 0.21389 -4.1585 0
M  V30 10096 H 991.381 2.98103 -4.4389 0
M  V30 10097 H 991.724 3.13961 -2.73376 0
M  V30 10098 H 992.257 1.68138 -3.6052 0
M  V30 10099 H 988.996 0.884767 -6.49501 0
M  V30 10100 H 988.516 2.3047 -5.53754 0
M  V30 10101 H 990.195 2.13562 -6.10737 0
M  V30 10102 N 990.327 1.50405 0.470755 0
M  V30 10103 C 991.555 1.65168 1.24608 0
M  V30 10104 C 991.97 0.335153 1.85801 0
M  V30 10105 O 991.327 -0.682919 1.69241 0
M  V30 10106 C 991.378 2.74305 2.35455 0
M  V30 10107 O 991.099 4.00854 1.76771 0
M  V30 10108 C 992.6 3.00044 3.26326 0
M  V30 10109 H 989.82 0.555186 0.376842 0
M  V30 10110 H 992.364 1.9663 0.56187 0
M  V30 10111 H 990.519 2.45536 2.99651 0
M  V30 10112 H 990.933 4.61211 2.49769 0
M  V30 10113 H 992.407 3.8007 4.00313 0
M  V30 10114 H 992.884 2.11128 3.85126 0
M  V30 10115 H 993.49 3.30345 2.67866 0
M  V30 10116 N 991.805 -0.723954 1.39988 0
M  V30 10117 C 992.752 -1.83803 1.39589 0
M  V30 10118 C 993.722 -1.64146 0.253996 0
M  V30 10119 O 994.907 -1.85398 0.450793 0
M  V30 10120 C 992.047 -3.21431 1.25604 0
M  V30 10121 C 991.16 -3.52717 2.49429 0
M  V30 10122 C 990.295 -4.79805 2.27949 0
M  V30 10123 C 989.334 -5.03968 3.47394 0
M  V30 10124 N 988.471 -6.22266 3.25161 0
M  V30 10125 H 993.311 -1.83479 2.34818 0
M  V30 10126 H 990.848 -0.896396 1.16633 0
M  V30 10127 H 992.806 -4.00892 1.15504 0
M  V30 10128 H 991.436 -3.21005 0.339986 0
M  V30 10129 H 990.488 -2.67872 2.7009 0
M  V30 10130 H 991.8 -3.66486 3.38363 0
M  V30 10131 H 990.954 -5.67268 2.15155 0
M  V30 10132 H 989.693 -4.68229 1.36428 0
M  V30 10133 H 988.698 -4.14963 3.60674 0
M  V30 10134 H 989.923 -5.17422 4.39831 0
M  V30 10135 H 987.869 -6.11957 2.36314 0
M  V30 10136 H 987.786 -6.36673 4.07656 0
M  V30 10137 H 989.054 -7.12539 3.16083 0
M  V30 10138 N 993.283 -1.25346 -0.955304 0
M  V30 10139 C 994.529 -1.10218 -1.70235 0
M  V30 10140 C 994.862 0.356124 -1.90907 0
M  V30 10141 O 994.137 1.26253 -1.47954 0
M  V30 10142 C 994.42 -1.85627 -3.08569 0
M  V30 10143 C 994.273 -3.39281 -2.95311 0
M  V30 10144 C 995.592 -1.63886 -4.08448 0
M  V30 10145 H 992.711 -0.401781 -0.617852 0
M  V30 10146 H 995.353 -1.5417 -1.11048 0
M  V30 10147 H 993.503 -1.48269 -3.59094 0
M  V30 10148 H 995.175 -3.8631 -2.52116 0
M  V30 10149 H 993.418 -3.67027 -2.31244 0
M  V30 10150 H 994.089 -3.87258 -3.93364 0
M  V30 10151 H 996.565 -1.96406 -3.6683 0
M  V30 10152 H 995.441 -2.19087 -5.03281 0
M  V30 10153 H 995.702 -0.580021 -4.38279 0
M  V30 10154 N 994.761 1.15782 -1.06922 0
M  V30 10155 C 995.671 2.24008 -0.696948 0
M  V30 10156 C 996.687 1.71569 0.289862 0
M  V30 10157 O 997.863 2.00929 0.137585 0
M  V30 10158 C 994.928 3.46568 -0.0957895 0
M  V30 10159 C 993.989 4.14017 -1.13528 0
M  V30 10160 C 993.222 5.30725 -0.562713 0
M  V30 10161 O 993.445 5.66992 0.62259 0
M  V30 10162 O 992.379 5.87572 -1.30549 0
M  V30 10163 H 996.205 2.58174 -1.59938 0
M  V30 10164 H 993.79 1.2342 -0.841889 0
M  V30 10165 H 995.672 4.20731 0.237407 0
M  V30 10166 H 994.347 3.14161 0.780027 0
M  V30 10167 H 993.254 3.41795 -1.52076 0
M  V30 10168 H 994.587 4.50493 -1.98285 0
M  V30 10169 N 996.239 0.8527 1.3254 0
M  V30 10170 C 997.464 0.468157 2.02047 0
M  V30 10171 C 997.889 -0.926967 1.63673 0
M  V30 10172 O 997.247 -1.60855 0.836378 0
M  V30 10173 C 997.295 0.612519 3.5536 0
M  V30 10174 O 996.399 -0.355506 4.10865 0
M  V30 10175 H 995.74 0.188401 0.636711 0
M  V30 10176 H 998.27 1.15135 1.6913 0
M  V30 10177 H 998.28 0.499315 4.04933 0
M  V30 10178 H 996.955 1.62988 3.82632 0
M  V30 10179 H 995.532 -0.198703 3.7237 0
M  V30 10180 N 997.718 -1.45297 0.610449 0
M  V30 10181 C 999.134 -1.57225 0.274332 0
M  V30 10182 C 999.334 -1.60136 -1.22306 0
M  V30 10183 O 998.39 -1.5332 -2.00622 0
M  V30 10184 C 999.703 -2.85365 0.948028 0
M  V30 10185 C 1001.25 -2.99044 0.924216 0
M  V30 10186 C 1001.73 -4.29958 1.57798 0
M  V30 10187 N 1003.22 -4.36723 1.5436 0
M  V30 10188 C 1003.95 -5.36695 2.01857 0
M  V30 10189 N 1003.45 -6.43187 2.57453 0
M  V30 10190 N 1005.24 -5.28071 1.92608 0
M  V30 10191 H 997.392 -1.41651 1.58268 0
M  V30 10192 H 999.655 -0.67744 0.663158 0
M  V30 10193 H 999.361 -2.89125 2.00249 0
M  V30 10194 H 999.235 -3.74222 0.473062 0
M  V30 10195 H 1001.62 -2.94849 -0.121709 0
M  V30 10196 H 1001.7 -2.1159 1.43748 0
M  V30 10197 H 1001.35 -4.34912 2.62325 0
M  V30 10198 H 1001.28 -5.16234 1.03972 0
M  V30 10199 H 1003.77 -3.60374 1.13749 0
M  V30 10200 H 1004.08 -7.15722 2.91482 0
M  V30 10201 H 1002.43 -6.4393 2.61493 0
M  V30 10202 H 1005.62 -4.43783 1.48912 0
M  V30 10203 H 1005.79 -6.05832 2.29938 0
M  V30 10204 N 999.196 -0.349774 -1.5367 0
M  V30 10205 C 1000.47 0.300419 -1.93279 0
M  V30 10206 C 1000.85 1.67721 -1.28191 0
M  V30 10207 O 1000.2 2.24319 -0.435127 0
M  V30 10208 C 1000.41 0.366466 -3.47071 0
M  V30 10209 C 1001.76 0.614349 -4.20132 0
M  V30 10210 O 1002.78 0.448327 -3.53367 0
M  V30 10211 O 1001.64 0.936421 -5.38417 0
M  V30 10212 H 998.736 0.176599 -0.807924 0
M  V30 10213 H 1001.28 -0.401405 -1.64884 0
M  V30 10214 H 1000.05 -0.599455 -3.86681 0
M  V30 10215 H 999.677 1.11482 -3.81651 0
M  V30 10216 N 1000.67 1.57404 -0.0785433 0
M  V30 10217 C 1001.62 2.13104 0.88631 0
M  V30 10218 C 1002.59 1.04527 1.29086 0
M  V30 10219 O 1003.78 1.32226 1.37553 0
M  V30 10220 C 1000.92 2.70252 2.14611 0
M  V30 10221 C 1000.03 3.93007 1.79358 0
M  V30 10222 C 999.164 4.38376 3 0
M  V30 10223 C 998.203 5.53761 2.60796 0
M  V30 10224 N 997.34 5.94058 3.74219 0
M  V30 10225 H 1002.18 2.95243 0.404452 0
M  V30 10226 H 999.717 1.45894 0.187982 0
M  V30 10227 H 1001.67 3.01497 2.88367 0
M  V30 10228 H 1000.3 1.90868 2.60326 0
M  V30 10229 H 999.357 3.68181 0.956384 0
M  V30 10230 H 1000.67 4.76795 1.4652 0
M  V30 10231 H 999.823 4.71317 3.82027 0
M  V30 10232 H 998.562 3.53455 3.36037 0
M  V30 10233 H 997.567 5.20464 1.77192 0
M  V30 10234 H 998.792 6.40419 2.25922 0
M  V30 10235 H 996.738 5.12085 4.10005 0
M  V30 10236 H 996.655 6.72602 3.45171 0
M  V30 10237 H 997.923 6.31624 4.56805 0
M  V30 10238 N 1002.15 -0.195058 1.56388 0
M  V30 10239 C 1003.08 -1.24444 1.97575 0
M  V30 10240 C 1004.06 -1.47471 0.847717 0
M  V30 10241 O 1005.25 -1.59208 1.11205 0
M  V30 10242 C 1002.38 -2.58866 2.31529 0
M  V30 10243 C 1001.33 -2.50451 3.47071 0
M  V30 10244 C 1000.66 -3.89146 3.667 0
M  V30 10245 C 1001.96 -2.02953 4.81256 0
M  V30 10246 H 1003.65 -0.902178 2.85484 0
M  V30 10247 H 1001.2 -0.43254 1.3735 0
M  V30 10248 H 1003.15 -3.3246 2.58936 0
M  V30 10249 H 1001.87 -2.94833 1.40502 0
M  V30 10250 H 1000.53 -1.79313 3.19754 0
M  V30 10251 H 1000.18 -4.22466 2.73004 0
M  V30 10252 H 999.882 -3.84391 4.44429 0
M  V30 10253 H 1001.41 -4.64363 3.96484 0
M  V30 10254 H 1002.82 -2.66306 5.07695 0
M  V30 10255 H 1001.22 -2.092 5.62455 0
M  V30 10256 H 1002.29 -0.982757 4.74837 0
M  V30 10257 N 1003.63 -1.50653 -0.462772 0
M  V30 10258 C 1005.04 -1.54821 -1.04342 0
M  V30 10259 C 1005.39 -0.356595 -1.92932 0
M  V30 10260 O 1004.52 0.529579 -2.0982 0
M  V30 10261 C 1005.11 -2.80571 -1.89909 0
M  V30 10262 C 1003.67 -2.87394 -2.43067 0
M  V30 10263 C 1002.82 -2.49206 -1.21621 0
M  V30 10264 H 1005.77 -1.56797 -0.245048 0
M  V30 10265 H 1005.79 -2.62897 -2.75074 0
M  V30 10266 H 1005.3 -3.67281 -1.25405 0
M  V30 10267 H 1003.4 -2.05055 -3.111 0
M  V30 10268 H 1003.52 -3.90477 -2.77605 0
M  V30 10269 H 1001.88 -2.01829 -1.55361 0
M  V30 10270 H 1002.66 -3.38233 -0.587669 0
M  V30 10271 N 1005.11 0.71652 -1.4037 0
M  V30 10272 C 1006.04 1.84138 -1.36477 0
M  V30 10273 C 1007.05 1.6054 -0.27033 0
M  V30 10274 O 1008.24 1.70431 -0.530612 0
M  V30 10275 C 1005.34 3.20523 -1.10082 0
M  V30 10276 C 1004.52 3.71326 -2.31162 0
M  V30 10277 C 1003.57 4.86322 -2.00942 0
M  V30 10278 O 1002.6 4.99022 -2.73799 0
M  V30 10279 N 1003.8 5.72051 -0.986812 0
M  V30 10280 H 1006.57 1.87977 -2.3342 0
M  V30 10281 H 1004.13 0.89802 -1.34712 0
M  V30 10282 H 1006.12 3.95049 -0.878526 0
M  V30 10283 H 1004.69 3.11838 -0.21809 0
M  V30 10284 H 1003.91 2.87941 -2.69227 0
M  V30 10285 H 1005.2 4.02003 -3.11883 0
M  V30 10286 H 1004.6 5.64399 -0.383381 0
M  V30 10287 H 1003.15 6.46565 -0.824419 0
M  V30 10288 N 1006.59 1.25851 0.948643 0
M  V30 10289 C 1008 1.09975 1.50872 0
M  V30 10290 C 1008.35 -0.322497 1.93531 0
M  V30 10291 O 1007.47 -1.21316 1.79197 0
M  V30 10292 C 1008.07 1.99021 2.74182 0
M  V30 10293 C 1006.63 1.87313 3.26483 0
M  V30 10294 C 1005.77 1.92815 1.99293 0
M  V30 10295 H 1008.73 1.3905 0.764908 0
M  V30 10296 H 1008.75 1.53372 3.4822 0
M  V30 10297 H 1008.26 3.02527 2.43103 0
M  V30 10298 H 1006.36 0.867136 3.62369 0
M  V30 10299 H 1006.47 2.72446 3.94094 0
M  V30 10300 H 1004.84 1.36774 2.1486 0
M  V30 10301 H 1005.62 2.97936 1.70554 0
M  V30 10302 N 1008.06 -1.15214 1.07534 0
M  V30 10303 C 1009.31 -1.86319 0.800814 0
M  V30 10304 C 1009.64 -1.82221 -0.671494 0
M  V30 10305 O 1008.92 -1.24664 -1.49295 0
M  V30 10306 C 1009.2 -3.35347 1.31203 0
M  V30 10307 C 1009.05 -3.48067 2.84902 0
M  V30 10308 C 1010.37 -4.3016 0.930064 0
M  V30 10309 H 1007.49 -0.676523 0.292379 0
M  V30 10310 H 1010.13 -1.35349 1.33344 0
M  V30 10311 H 1008.28 -3.78886 0.858949 0
M  V30 10312 H 1009.96 -3.13379 3.38514 0
M  V30 10313 H 1008.2 -2.89566 3.23008 0
M  V30 10314 H 1008.87 -4.52782 3.15741 0
M  V30 10315 H 1011.35 -3.94591 1.3205 0
M  V30 10316 H 1010.22 -5.32914 1.31507 0
M  V30 10317 H 1010.48 -4.41796 -0.163824 0
M  V30 10318 N 1009.54 -0.859717 -1.32086 0
M  V30 10319 C 1010.47 -0.265258 -2.2766 0
M  V30 10320 C 1011.49 0.565889 -1.52648 0
M  V30 10321 O 1012.68 0.389554 -1.74197 0
M  V30 10322 C 1009.78 0.643397 -3.32737 0
M  V30 10323 C 1008.95 -0.153024 -4.37132 0
M  V30 10324 C 1008.01 0.682176 -5.21759 0
M  V30 10325 O 1007.03 0.113878 -5.69086 0
M  V30 10326 N 1008.24 1.99602 -5.45105 0
M  V30 10327 H 1011 -1.08653 -2.79311 0
M  V30 10328 H 1008.56 -0.720191 -1.45 0
M  V30 10329 H 1010.55 1.20759 -3.86263 0
M  V30 10330 H 1009.12 1.36535 -2.81206 0
M  V30 10331 H 1008.34 -0.898657 -3.8382 0
M  V30 10332 H 1009.63 -0.699877 -5.03963 0
M  V30 10333 H 1009.03 2.481 -5.08393 0
M  V30 10334 H 1007.59 2.50823 -6.01607 0
M  V30 10335 N 1011.02 1.44971 -0.618145 0
M  V30 10336 C 1012.43 1.85611 -0.201334 0
M  V30 10337 C 1012.78 1.51698 1.24427 0
M  V30 10338 O 1011.91 0.94875 1.94493 0
M  V30 10339 C 1012.5 3.36897 -0.358619 0
M  V30 10340 C 1011.06 3.764 0.00358196 0
M  V30 10341 C 1010.21 2.68881 -0.678118 0
M  V30 10342 H 1013.16 1.35622 -0.824152 0
M  V30 10343 H 1013.18 3.78326 0.406176 0
M  V30 10344 H 1012.69 3.61548 -1.41084 0
M  V30 10345 H 1010.79 3.57365 1.05457 0
M  V30 10346 H 1010.91 4.77449 -0.397427 0
M  V30 10347 H 1009.27 2.54442 -0.114699 0
M  V30 10348 H 1010.05 2.96367 -1.73268 0
M  V30 10349 N 1012.5 0.357919 1.53482 0
M  V30 10350 C 1013.78 -0.290164 1.93436 0
M  V30 10351 C 1014.16 -1.67039 1.29079 0
M  V30 10352 O 1013.5 -2.24085 0.447017 0
M  V30 10353 C 1013.71 -0.348055 3.4726 0
M  V30 10354 C 1015.06 -0.59206 4.20452 0
M  V30 10355 O 1016.09 -0.429581 3.536 0
M  V30 10356 O 1014.94 -0.907855 5.38907 0
M  V30 10357 H 1012.04 -0.172312 0.80885 0
M  V30 10358 H 1014.58 0.410144 1.64669 0
M  V30 10359 H 1013.36 0.619953 3.86358 0
M  V30 10360 H 1012.98 -1.09457 3.82237 0
M  V30 10361 N 1013.98 -1.5736 0.0868897 0
M  V30 10362 C 1015.39 -1.81356 -0.443499 0
M  V30 10363 C 1015.74 -1.00192 -1.68689 0
M  V30 10364 O 1014.86 -0.228863 -2.15186 0
M  V30 10365 C 1015.46 -3.28941 -0.811387 0
M  V30 10366 C 1014.02 -3.53729 -1.28656 0
M  V30 10367 C 1013.16 -2.75891 -0.279153 0
M  V30 10368 H 1016.12 -1.55594 0.312427 0
M  V30 10369 H 1016.14 -3.41815 -1.6716 0
M  V30 10370 H 1015.65 -3.87987 0.0937598 0
M  V30 10371 H 1013.75 -3.00005 -2.2097 0
M  V30 10372 H 1013.86 -4.62396 -1.25406 0
M  V30 10373 H 1012.23 -2.4311 -0.759595 0
M  V30 10374 H 1013.01 -3.37682 0.618529 0
M  V30 10375 N 1015.45 0.186762 -1.56489 0
M  V30 10376 C 1016.7 0.907194 -1.81378 0
M  V30 10377 C 1017.03 1.82558 -0.662283 0
M  V30 10378 O 1016.31 1.91564 0.336699 0
M  V30 10379 C 1016.59 1.71624 -3.16571 0
M  V30 10380 C 1016.44 0.822009 -4.42225 0
M  V30 10381 C 1017.76 2.68713 -3.48542 0
M  V30 10382 H 1014.88 0.328366 -0.659806 0
M  V30 10383 H 1017.52 0.174142 -1.892 0
M  V30 10384 H 1015.67 2.34119 -3.10033 0
M  V30 10385 H 1017.35 0.211122 -4.60817 0
M  V30 10386 H 1015.59 0.129178 -4.33608 0
M  V30 10387 H 1016.26 1.42326 -5.33336 0
M  V30 10388 H 1018.74 2.16348 -3.55433 0
M  V30 10389 H 1017.61 3.22397 -4.44242 0
M  V30 10390 H 1017.87 3.48165 -2.72459 0
M  V30 10391 N 1016.93 1.50896 0.454776 0
M  V30 10392 C 1018.16 1.66759 1.23313 0
M  V30 10393 C 1018.58 0.35722 1.84677 0
M  V30 10394 O 1017.94 -0.680771 1.68033 0
M  V30 10395 C 1017.99 2.77254 2.3057 0
M  V30 10396 O 1017.09 2.39642 3.35627 0
M  V30 10397 H 1016.43 0.556599 0.362068 0
M  V30 10398 H 1018.96 1.97365 0.539274 0
M  V30 10399 H 1018.97 3.0082 2.75629 0
M  V30 10400 H 1017.65 3.72349 1.85281 0
M  V30 10401 H 1016.23 2.26584 2.96165 0
M  V30 10402 N 1018.41 -0.709066 1.40748 0
M  V30 10403 C 1019.36 -1.8149 1.38005 0
M  V30 10404 C 1020.34 -1.58842 0.256544 0
M  V30 10405 O 1021.54 -1.69904 0.496164 0
M  V30 10406 C 1018.67 -3.19678 1.25143 0
M  V30 10407 C 1017.75 -3.48067 2.42301 0
M  V30 10408 N 1018.14 -3.47234 3.6778 0
M  V30 10409 C 1016.44 -3.78555 2.35822 0
M  V30 10410 C 1017.14 -3.74149 4.45407 0
M  V30 10411 N 1016.12 -3.93224 3.75335 0
M  V30 10412 H 1019.92 -1.79188 2.32957 0
M  V30 10413 H 1017.43 -0.908477 1.34612 0
M  V30 10414 H 1019.43 -3.98875 1.2126 0
M  V30 10415 H 1018.09 -3.23201 0.311642 0
M  V30 10416 H 1019.1 -3.2793 4.00852 0
M  V30 10417 H 1015.78 -3.89529 1.50245 0
M  V30 10418 H 1017.17 -3.79755 5.54289 0
M  V30 10419 N 1019.89 -1.26353 -0.941956 0
M  V30 10420 C 1021.13 -1.13071 -1.70277 0
M  V30 10421 C 1021.49 0.320699 -1.89303 0
M  V30 10422 O 1022.69 0.575624 -2.62564 0
M  V30 10423 C 1020.97 -1.87777 -3.04096 0
M  V30 10424 S 1022.52 -1.9054 -3.95272 0
M  V30 10425 H 1019.34 -0.403912 -0.585129 0
M  V30 10426 H 1021.94 -1.6006 -1.12254 0
M  V30 10427 H 1020.65 -2.92447 -2.87929 0
M  V30 10428 H 1020.18 -1.41226 -3.67177 0
M  V30 10429 H 1022.19 -0.991548 -4.86192 0
M  V30 10430 N 1021.37 1.14642 -1.08144 0
M  V30 10431 C 1022.31 2.1964 -0.708995 0
M  V30 10432 C 1023.28 1.63303 0.303512 0
M  V30 10433 O 1024.47 1.8987 0.18813 0
M  V30 10434 C 1021.61 3.44886 -0.121585 0
M  V30 10435 C 1020.72 4.15386 -1.18654 0
M  V30 10436 C 1019.86 5.28205 -0.56328 0
M  V30 10437 C 1018.9 5.90534 -1.61046 0
M  V30 10438 N 1018.03 6.94809 -1.00919 0
M  V30 10439 H 1022.87 2.50848 -1.6087 0
M  V30 10440 H 1020.41 1.23185 -0.803975 0
M  V30 10441 H 1022.37 4.16528 0.23668 0
M  V30 10442 H 1021 3.14169 0.741445 0
M  V30 10443 H 1020.05 3.42159 -1.66227 0
M  V30 10444 H 1021.36 4.57809 -1.9802 0
M  V30 10445 H 1020.52 6.06507 -0.153109 0
M  V30 10446 H 1019.26 4.86995 0.262066 0
M  V30 10447 H 1018.26 5.10938 -2.03033 0
M  V30 10448 H 1019.49 6.33819 -2.43824 0
M  V30 10449 H 1017.43 6.5568 -0.204894 0
M  V30 10450 H 1017.35 7.35704 -1.73999 0
M  V30 10451 H 1018.62 7.76992 -0.624792 0
M  V30 10452 N 1022.85 0.866709 1.31628 0
M  V30 10453 C 1023.76 0.323408 2.3236 0
M  V30 10454 C 1024.77 -0.564995 1.64572 0
M  V30 10455 O 1025.95 -0.462489 1.96018 0
M  V30 10456 C 1023.01 -0.469045 3.43513 0
M  V30 10457 C 1022.07 0.446928 4.26967 0
M  V30 10458 C 1021.31 -0.307799 5.32812 0
M  V30 10459 O 1021.53 -1.5363 5.49321 0
M  V30 10460 O 1020.46 0.332653 6.0098 0
M  V30 10461 H 1024.29 1.15827 2.80745 0
M  V30 10462 H 1021.87 0.629987 1.35468 0
M  V30 10463 H 1023.76 -0.918405 4.1127 0
M  V30 10464 H 1022.43 -1.28051 2.97296 0
M  V30 10465 H 1021.34 0.944719 3.61975 0
M  V30 10466 H 1022.67 1.2239 4.76741 0
M  V30 10467 N 1024.32 -1.44642 0.625825 0
M  V30 10468 C 1025.27 -2.30653 -0.082259 0
M  V30 10469 C 1026.24 -1.43174 -0.842052 0
M  V30 10470 O 1027.43 -1.72082 -0.824151 0
M  V30 10471 C 1024.57 -3.2837 -1.06146 0
M  V30 10472 C 1023.68 -4.30953 -0.300638 0
M  V30 10473 C 1022.81 -5.15766 -1.27118 0
M  V30 10474 C 1021.85 -6.10061 -0.499215 0
M  V30 10475 N 1020.99 -6.87591 -1.41995 0
M  V30 10476 H 1025.83 -2.90664 0.657161 0
M  V30 10477 H 1023.37 -1.43215 0.335859 0
M  V30 10478 H 1025.32 -3.83507 -1.6425 0
M  V30 10479 H 1023.95 -2.70072 -1.76807 0
M  V30 10480 H 1023.01 -3.78331 0.396234 0
M  V30 10481 H 1024.32 -4.97892 0.300851 0
M  V30 10482 H 1023.47 -5.75394 -1.92372 0
M  V30 10483 H 1022.21 -4.48888 -1.9066 0
M  V30 10484 H 1021.22 -5.49547 0.166848 0
M  V30 10485 H 1022.44 -6.78973 0.131409 0
M  V30 10486 H 1020.39 -6.23387 -2.04267 0
M  V30 10487 H 1020.3 -7.5095 -0.872354 0
M  V30 10488 H 1021.57 -7.51746 -2.0615 0
M  V30 10489 N 1025.8 -0.366053 -1.5329 0
M  V30 10490 C 1027.08 0.279902 -1.93587 0
M  V30 10491 C 1027.46 1.66352 -1.29963 0
M  V30 10492 O 1026.81 2.23845 -0.458895 0
M  V30 10493 C 1027.02 0.329634 -3.4744 0
M  V30 10494 C 1028.36 0.569754 -4.2076 0
M  V30 10495 O 1029.39 0.410823 -3.53823 0
M  V30 10496 O 1028.25 0.879262 -5.3938 0
M  V30 10497 H 1025.34 0.16802 -0.809752 0
M  V30 10498 H 1027.89 -0.418871 -1.64449 0
M  V30 10499 H 1026.66 -0.640434 -3.86023 0
M  V30 10500 H 1026.28 1.07428 -3.82812 0
M  V30 10501 N 1027.28 1.57312 -0.0952337 0
M  V30 10502 C 1028.53 1.94646 0.569284 0
M  V30 10503 C 1028.86 0.977152 1.67825 0
M  V30 10504 O 1028.13 0.0102318 1.94497 0
M  V30 10505 C 1028.42 3.42098 1.12433 0
M  V30 10506 C 1028.27 4.49795 0.0204016 0
M  V30 10507 C 1029.59 3.90866 2.02266 0
M  V30 10508 H 1026.71 0.707779 0.205469 0
M  V30 10509 H 1029.35 1.89274 -0.16597 0
M  V30 10510 H 1027.5 3.46807 1.75092 0
M  V30 10511 H 1029.17 4.57198 -0.613845 0
M  V30 10512 H 1027.41 4.28964 -0.645965 0
M  V30 10513 H 1028.09 5.50166 0.449579 0
M  V30 10514 H 1030.56 3.88311 1.49512 0
M  V30 10515 H 1029.44 4.94604 2.38029 0
M  V30 10516 H 1029.7 3.30167 2.9401 0
M  V30 10517 N 1028.76 -0.17846 1.56586 0
M  V30 10518 C 1030.03 -0.923096 1.72448 0
M  V30 10519 C 1030.41 -2.00692 0.654659 0
M  V30 10520 O 1029.76 -2.26079 -0.33171 0
M  V30 10521 C 1029.97 -1.49435 3.15389 0
M  V30 10522 C 1031.32 -1.97005 3.76131 0
M  V30 10523 O 1032.34 -1.59244 3.18622 0
M  V30 10524 O 1031.2 -2.66541 4.77094 0
M  V30 10525 H 1028.3 -0.434009 0.703964 0
M  V30 10526 H 1030.84 -0.16685 1.68878 0
M  V30 10527 H 1029.62 -0.713933 3.84732 0
M  V30 10528 H 1029.24 -2.31498 3.23256 0
M  V30 10529 N 1030.24 -1.51135 -0.446768 0
M  V30 10530 C 1031.51 -1.5387 -1.20762 0
M  V30 10531 C 1031.89 -0.297446 -2.08994 0
M  V30 10532 O 1031.24 0.717975 -2.16927 0
M  V30 10533 C 1031.45 -2.84767 -2.01764 0
M  V30 10534 C 1032.8 -3.3636 -2.59128 0
M  V30 10535 O 1033.82 -2.86254 -2.11984 0
M  V30 10536 O 1032.68 -4.23765 -3.45088 0
M  V30 10537 H 1029.78 -0.618228 -0.549293 0
M  V30 10538 H 1032.32 -1.63442 -0.456605 0
M  V30 10539 H 1031.09 -3.6657 -1.36901 0
M  V30 10540 H 1030.72 -2.78313 -2.8395 0
M  V30 10541 N 1031.71 0.701592 -1.41122 0
M  V30 10542 C 1032.95 1.4739 -1.41618 0
M  V30 10543 C 1033.32 1.91987 -0.0219443 0
M  V30 10544 O 1034.52 2.6862 0.0982793 0
M  V30 10545 C 1032.79 2.65745 -2.38986 0
M  V30 10546 S 1034.35 3.54968 -2.5796 0
M  V30 10547 H 1031.17 0.503742 -0.501762 0
M  V30 10548 H 1033.77 0.819186 -1.77509 0
M  V30 10549 H 1032.47 2.31176 -3.39096 0
M  V30 10550 H 1032 3.36115 -2.04426 0
M  V30 10551 H 1034.02 4.60724 -1.84249 0
M  V30 10552 N 1033.19 1.2685 0.935242 0
M  V30 10553 C 1034.44 1.13921 1.68504 0
M  V30 10554 C 1034.79 -0.313201 1.89834 0
M  V30 10555 O 1034.09 -1.22626 1.47219 0
M  V30 10556 C 1034.28 1.8482 3.05903 0
M  V30 10557 C 1034.11 3.36806 2.9798 0
M  V30 10558 C 1032.88 4.06109 3.00672 0
M  V30 10559 C 1035.08 4.32904 2.77667 0
M  V30 10560 N 1033.06 5.44722 2.83111 0
M  V30 10561 C 1034.43 5.58732 2.68735 0
M  V30 10562 C 1036.48 4.23084 2.62496 0
M  V30 10563 C 1035.19 6.75861 2.4618 0
M  V30 10564 C 1037.21 5.39926 2.41317 0
M  V30 10565 C 1036.58 6.64706 2.33121 0
M  V30 10566 H 1032.67 0.471689 0.623725 0
M  V30 10567 H 1035.26 1.60217 1.10628 0
M  V30 10568 H 1033.43 1.40989 3.61907 0
M  V30 10569 H 1035.16 1.64461 3.69777 0
M  V30 10570 H 1031.92 3.57516 3.10611 0
M  V30 10571 H 1032.34 6.17522 2.77481 0
M  V30 10572 H 1036.98 3.27341 2.67596 0
M  V30 10573 H 1034.7 7.71694 2.39821 0
M  V30 10574 H 1038.29 5.34203 2.30475 0
M  V30 10575 H 1037.17 7.53592 2.16952 0
M  V30 10576 N 1034.67 -1.14067 1.0875 0
M  V30 10577 C 1035.92 -1.85185 0.819317 0
M  V30 10578 C 1036.25 -1.8314 -0.654969 0
M  V30 10579 O 1035.5 -1.25974 -1.49763 0
M  V30 10580 C 1035.8 -3.33273 1.29089 0
M  V30 10581 C 1035.47 -3.55504 2.77359 0
M  V30 10582 C 1034.13 -3.61279 3.17853 0
M  V30 10583 C 1036.48 -3.64041 3.72992 0
M  V30 10584 C 1033.81 -3.73119 4.52768 0
M  V30 10585 C 1036.16 -3.77407 5.07687 0
M  V30 10586 C 1034.82 -3.81433 5.47782 0
M  V30 10587 H 1034.09 -0.67764 0.299809 0
M  V30 10588 H 1036.74 -1.34713 1.36106 0
M  V30 10589 H 1035.05 -3.86049 0.668811 0
M  V30 10590 H 1036.74 -3.86734 1.06009 0
M  V30 10591 H 1033.33 -3.51659 2.45019 0
M  V30 10592 H 1037.52 -3.58866 3.42825 0
M  V30 10593 H 1032.77 -3.74499 4.83281 0
M  V30 10594 H 1036.95 -3.82956 5.81651 0
M  V30 10595 H 1034.57 -3.9036 6.52321 0
M  V30 10596 N 1036.15 -0.873678 -1.31166 0
M  V30 10597 C 1037.38 -0.500317 -2.0045 0
M  V30 10598 C 1037.79 0.912716 -1.65729 0
M  V30 10599 O 1037.13 1.61001 -0.884563 0
M  V30 10600 C 1037.19 -0.58197 -3.54758 0
M  V30 10601 C 1036.86 -1.95728 -4.12964 0
M  V30 10602 C 1037.85 -2.92526 -4.29796 0
M  V30 10603 C 1035.54 -2.2596 -4.48606 0
M  V30 10604 C 1037.53 -4.17697 -4.81464 0
M  V30 10605 C 1035.22 -3.5138 -4.99976 0
M  V30 10606 C 1036.22 -4.47064 -5.16356 0
M  V30 10607 O 1035.9 -5.70259 -5.66621 0
M  V30 10608 H 1035.64 -0.193044 -0.64785 0
M  V30 10609 H 1038.19 -1.17768 -1.68285 0
M  V30 10610 H 1036.42 0.152326 -3.864 0
M  V30 10611 H 1038.11 -0.221506 -4.05295 0
M  V30 10612 H 1038.88 -2.70479 -4.02574 0
M  V30 10613 H 1034.75 -1.52258 -4.3513 0
M  V30 10614 H 1038.3 -4.92389 -4.94165 0
M  V30 10615 H 1034.2 -3.73269 -5.26631 0
M  V30 10616 H 1034.96 -5.72483 -5.84983 0
M  V30 10617 N 1037.63 1.44308 -0.633487 0
M  V30 10618 C 1038.87 2.02023 -0.138917 0
M  V30 10619 C 1039.2 1.49841 1.24008 0
M  V30 10620 O 1038.46 0.673718 1.83738 0
M  V30 10621 C 1038.76 3.57316 -0.0773886 0
M  V30 10622 C 1038.42 4.28762 -1.39548 0
M  V30 10623 C 1037.08 4.47997 -1.75648 0
M  V30 10624 C 1039.44 4.69391 -2.26542 0
M  V30 10625 C 1036.76 5.05121 -2.98445 0
M  V30 10626 C 1039.12 5.27876 -3.48612 0
M  V30 10627 C 1037.78 5.45329 -3.84932 0
M  V30 10628 H 1037.05 0.739254 -0.0508333 0
M  V30 10629 H 1039.7 1.73043 -0.820271 0
M  V30 10630 H 1038 3.85724 0.687345 0
M  V30 10631 H 1039.7 3.99706 0.321837 0
M  V30 10632 H 1036.29 4.14122 -1.10456 0
M  V30 10633 H 1040.47 4.54241 -1.99946 0
M  V30 10634 H 1035.73 5.16821 -3.26658 0
M  V30 10635 H 1039.9 5.58307 -4.16253 0
M  V30 10636 H 1037.53 5.8936 -4.80166 0
M  V30 10637 N 1039.1 0.374177 1.53094 0
M  V30 10638 C 1040.33 -0.213325 2.05797 0
M  V30 10639 C 1040.75 -1.41753 1.24706 0
M  V30 10640 O 1040.1 -1.80183 0.289868 0
M  V30 10641 C 1040.16 -0.598367 3.56513 0
M  V30 10642 O 1039.88 0.557983 4.34532 0
M  V30 10643 C 1041.38 -1.24334 4.25507 0
M  V30 10644 H 1038.6 -0.0357398 0.670048 0
M  V30 10645 H 1041.14 0.535035 1.97377 0
M  V30 10646 H 1039.3 -1.29663 3.65056 0
M  V30 10647 H 1039.71 0.244911 5.23928 0
M  V30 10648 H 1041.18 -1.46325 5.32253 0
M  V30 10649 H 1041.66 -2.20622 3.79766 0
M  V30 10650 H 1042.27 -0.586269 4.2124 0
M  V30 10651 N 1040.58 -1.57259 0.103575 0
M  V30 10652 C 1041.81 -1.98711 -0.565454 0
M  V30 10653 C 1042.22 -0.981759 -1.61735 0
M  V30 10654 O 1041.56 0.0357019 -1.83665 0
M  V30 10655 C 1041.63 -3.36552 -1.26384 0
M  V30 10656 C 1041.29 -4.55566 -0.361714 0
M  V30 10657 C 1042.29 -5.18408 0.393539 0
M  V30 10658 C 1039.97 -5.01534 -0.277292 0
M  V30 10659 C 1041.97 -6.25594 1.2211 0
M  V30 10660 C 1039.65 -6.08584 0.553919 0
M  V30 10661 C 1040.65 -6.7048 1.30176 0
M  V30 10662 O 1040.34 -7.75464 2.1192 0
M  V30 10663 H 1040.07 -0.657853 -0.155582 0
M  V30 10664 H 1042.62 -2.04591 0.182089 0
M  V30 10665 H 1040.85 -3.2738 -2.05813 0
M  V30 10666 H 1042.54 -3.62395 -1.82824 0
M  V30 10667 H 1043.31 -4.8382 0.338098 0
M  V30 10668 H 1039.19 -4.53114 -0.849047 0
M  V30 10669 H 1042.73 -6.73836 1.80531 0
M  V30 10670 H 1038.63 -6.42604 0.610809 0
M  V30 10671 H 1039.4 -7.92491 2.04694 0
M  V30 10672 N 1042.06 0.170153 -1.56679 0
M  V30 10673 C 1043.29 0.90618 -1.86556 0
M  V30 10674 C 1043.71 1.74986 -0.690044 0
M  V30 10675 O 1043.07 1.77672 0.360862 0
M  V30 10676 C 1043.12 1.75777 -3.14857 0
M  V30 10677 O 1042.22 2.85952 -2.97162 0
M  V30 10678 H 1041.56 0.253781 -0.613589 0
M  V30 10679 H 1044.09 0.167943 -2.0391 0
M  V30 10680 H 1044.1 2.15747 -3.46291 0
M  V30 10681 H 1042.78 1.13807 -4.00026 0
M  V30 10682 H 1041.35 2.49557 -2.77084 0
M  V30 10683 N 1043.54 1.5137 0.438746 0
M  V30 10684 C 1044.78 1.64211 1.19006 0
M  V30 10685 C 1045.12 0.356607 1.90898 0
M  V30 10686 O 1044.39 -0.643722 1.83539 0
M  V30 10687 C 1044.68 2.8445 2.20817 0
M  V30 10688 C 1044.53 4.22972 1.53018 0
M  V30 10689 C 1045.85 3.00207 3.21813 0
M  V30 10690 H 1042.97 0.597628 0.431288 0
M  V30 10691 H 1045.61 1.8385 0.479487 0
M  V30 10692 H 1043.76 2.67836 2.81418 0
M  V30 10693 H 1045.43 4.5125 0.957654 0
M  V30 10694 H 1043.67 4.25736 0.832556 0
M  V30 10695 H 1044.34 5.03094 2.27158 0
M  V30 10696 H 1046.82 3.15522 2.71266 0
M  V30 10697 H 1045.7 3.85904 3.90345 0
M  V30 10698 H 1045.96 2.12216 3.87836 0
M  V30 10699 N 1045.02 -0.694098 1.41492 0
M  V30 10700 C 1045.96 -1.82932 1.43662 0
M  V30 10701 C 1046.96 -1.66455 0.31449 0
M  V30 10702 O 1048.16 -1.73298 0.486589 0
M  V30 10703 H 1044.54 -0.602847 0.449533 0
M  V30 10704 H 1046.51 -1.78218 2.39334 0
M  V30 10705 C 1045.26 -3.20962 1.33712 0
M  V30 10706 H 1044.58 -3.34257 2.19345 0
M  V30 10707 H 1046.02 -4.00467 1.39291 0
M  V30 10708 C 1044.48 -3.36863 0.0496332 0
M  V30 10709 O 1045.01 -3.91371 -0.905093 0
M  V30 10710 N 1043.22 -2.90588 -0.0269299 0
M  V30 10711 H 1042.76 -2.46417 0.750752 0
M  V30 10712 H 1042.72 -3.01605 -0.887781 0
M  V30 10713 N 1046.49 -1.27344 -0.928501 0
M  V30 10714 C 1047.74 -1.13411 -1.67279 0
M  V30 10715 C 1048.06 0.320698 -1.92345 0
M  V30 10716 O 1047.33 1.2245 -1.52915 0
M  V30 10717 H 1045.91 -0.416712 -0.619968 0
M  V30 10718 H 1048.58 -1.5986 -1.11493 0
M  V30 10719 H 1047.67 -1.66256 -2.64131 0
M  V30 10720 N 1047.97 1.13488 -1.09353 0
M  V30 10721 C 1048.92 2.20949 -0.726923 0
M  V30 10722 C 1049.91 1.67205 0.271816 0
M  V30 10723 O 1051.12 1.79505 0.133356 0
M  V30 10724 H 1047.5 0.719985 -0.217086 0
M  V30 10725 H 1049.47 2.49134 -1.6424 0
M  V30 10726 C 1048.22 3.47319 -0.162822 0
M  V30 10727 H 1047.54 3.89011 -0.922527 0
M  V30 10728 H 1048.98 4.23963 0.0557734 0
M  V30 10729 C 1047.44 3.18376 1.10175 0
M  V30 10730 O 1047.97 3.3707 2.18511 0
M  V30 10731 N 1046.17 2.72262 1.01597 0
M  V30 10732 H 1045.72 2.5725 0.134289 0
M  V30 10733 H 1045.68 2.53272 1.86281 0
M  V30 10734 N 1049.45 0.880621 1.30701 0
M  V30 10735 C 1050.4 0.333562 2.30196 0
M  V30 10736 C 1051.39 -0.557092 1.59978 0
M  V30 10737 O 1052.6 -0.442009 1.74489 0
M  V30 10738 H 1048.97 0.0892036 0.746691 0
M  V30 10739 H 1050.95 1.18644 2.73799 0
M  V30 10740 C 1049.69 -0.440731 3.44895 0
M  V30 10741 H 1049.02 0.235353 3.99107 0
M  V30 10742 H 1050.46 -0.788676 4.166 0
M  V30 10743 C 1048.92 -1.63613 2.94504 0
M  V30 10744 O 1049.45 -2.73549 2.94166 0
M  V30 10745 N 1047.65 -1.47183 2.5057 0
M  V30 10746 H 1047.2 -0.577479 2.51044 0
M  V30 10747 H 1047.16 -2.27303 2.17211 0
M  V30 10748 N 1050.93 -1.4397 0.641131 0
M  V30 10749 C 1051.84 -2.34526 -0.058742 0
M  V30 10750 C 1052.86 -1.53194 -0.825088 0
M  V30 10751 O 1054.03 -1.85888 -0.775081 0
M  V30 10752 C 1051.1 -3.31313 -1.02139 0
M  V30 10753 C 1050.16 -4.28552 -0.253319 0
M  V30 10754 C 1049.39 -5.20715 -1.17012 0
M  V30 10755 O 1049.61 -5.17028 -2.40911 0
M  V30 10756 O 1048.55 -5.9839 -0.649039 0
M  V30 10757 H 1052.37 -2.95843 0.686329 0
M  V30 10758 H 1049.96 -1.43909 0.401316 0
M  V30 10759 H 1051.84 -3.90862 -1.57496 0
M  V30 10760 H 1050.52 -2.72516 -1.7469 0
M  V30 10761 H 1049.42 -3.72519 0.343531 0
M  V30 10762 H 1050.76 -4.90297 0.432372 0
M  V30 10763 N 1052.41 -0.382291 -1.52893 0
M  V30 10764 C 1053.65 0.202433 -2.01787 0
M  V30 10765 C 1053.99 1.47044 -1.26853 0
M  V30 10766 O 1053.26 1.91007 -0.366969 0
M  V30 10767 C 1053.54 0.477471 -3.5692 0
M  V30 10768 C 1053.4 -0.805339 -4.42532 0
M  V30 10769 C 1054.72 1.27106 -4.21346 0
M  V30 10770 H 1051.84 0.0720998 -0.733465 0
M  V30 10771 H 1054.48 -0.510478 -1.83014 0
M  V30 10772 H 1052.63 1.08478 -3.73048 0
M  V30 10773 H 1054.3 -1.4424 -4.3817 0
M  V30 10774 H 1052.54 -1.42216 -4.09826 0
M  V30 10775 H 1053.21 -0.567635 -5.49074 0
M  V30 10776 H 1055.69 0.757161 -4.09153 0
M  V30 10777 H 1054.57 1.43225 -5.29885 0
M  V30 10778 H 1054.83 2.28431 -3.78513 0
M  V30 10779 N 1053.89 1.57202 -0.111913 0
M  V30 10780 C 1054.82 2.10634 0.877983 0
M  V30 10781 C 1055.8 1.02098 1.26549 0
M  V30 10782 O 1056.98 1.29707 1.36779 0
M  V30 10783 C 1054.11 2.59721 2.174 0
M  V30 10784 C 1053.15 3.80074 1.93509 0
M  V30 10785 S 1053.99 5.22834 1.1578 0
M  V30 10786 C 1055.14 5.75284 2.46576 0
M  V30 10787 H 1055.38 2.94268 0.423483 0
M  V30 10788 H 1052.91 1.54065 0.101721 0
M  V30 10789 H 1054.87 2.88657 2.91868 0
M  V30 10790 H 1053.53 1.76281 2.59969 0
M  V30 10791 H 1052.72 4.12545 2.89522 0
M  V30 10792 H 1052.32 3.51718 1.27164 0
M  V30 10793 H 1054.61 5.84576 3.42457 0
M  V30 10794 H 1055.56 6.73493 2.1866 0
M  V30 10795 H 1055.97 5.03308 2.55619 0
M  V30 10796 N 1055.36 -0.161842 1.56767 0
M  V30 10797 C 1056.61 -0.878224 1.82798 0
M  V30 10798 C 1056.94 -1.81481 0.691242 0
M  V30 10799 O 1056.22 -1.92075 -0.30618 0
M  V30 10800 C 1056.5 -1.66565 3.19262 0
M  V30 10801 C 1056.35 -0.751551 4.43477 0
M  V30 10802 C 1057.67 -2.63134 3.52773 0
M  V30 10803 H 1054.79 -0.317828 0.664947 0
M  V30 10804 H 1057.43 -0.14402 1.89453 0
M  V30 10805 H 1055.58 -2.29157 3.13719 0
M  V30 10806 H 1057.26 -0.137783 4.61094 0
M  V30 10807 H 1055.5 -0.0601785 4.33758 0
M  V30 10808 H 1056.17 -1.33823 5.35533 0
M  V30 10809 H 1058.65 -2.10666 3.5883 0
M  V30 10810 H 1057.52 -3.15289 4.49315 0
M  V30 10811 H 1057.78 -3.43786 2.77963 0
M  V30 10812 N 1056.84 -1.516 -0.430713 0
M  V30 10813 C 1057.79 -1.69776 -1.52185 0
M  V30 10814 C 1058.78 -0.551692 -1.51146 0
M  V30 10815 O 1059.97 -0.807883 -1.57487 0
M  V30 10816 C 1057.1 -1.83222 -2.90318 0
M  V30 10817 C 1056.18 -3.03633 -2.96087 0
M  V30 10818 N 1056.57 -4.267 -2.71589 0
M  V30 10819 C 1054.87 -3.03024 -3.2725 0
M  V30 10820 C 1055.57 -5.08011 -2.83372 0
M  V30 10821 N 1054.55 -4.42798 -3.15327 0
M  V30 10822 H 1058.35 -2.62586 -1.32006 0
M  V30 10823 H 1055.86 -1.49338 -0.63812 0
M  V30 10824 H 1057.86 -1.94355 -3.68825 0
M  V30 10825 H 1056.52 -0.915971 -3.11513 0
M  V30 10826 H 1057.53 -4.55535 -2.46391 0
M  V30 10827 H 1054.21 -2.21055 -3.54176 0
M  V30 10828 H 1055.6 -6.15995 -2.68329 0
M  V30 10829 N 1058.32 0.686584 -1.41858 0
M  V30 10830 C 1059.57 1.44879 -1.41908 0
M  V30 10831 C 1059.9 1.94175 -0.0311408 0
M  V30 10832 O 1059.17 1.70131 0.942646 0
M  V30 10833 C 1059.46 2.65428 -2.43352 0
M  V30 10834 C 1059.31 2.2184 -3.91289 0
M  V30 10835 C 1060.63 3.67635 -2.41934 0
M  V30 10836 H 1057.75 0.525477 -0.516762 0
M  V30 10837 H 1060.39 0.781263 -1.73194 0
M  V30 10838 H 1058.54 3.2238 -2.16803 0
M  V30 10839 H 1060.21 1.70146 -4.28775 0
M  V30 10840 H 1058.45 1.53531 -4.05722 0
M  V30 10841 H 1059.13 3.08376 -4.5783 0
M  V30 10842 H 1061.6 3.20376 -2.65516 0
M  V30 10843 H 1060.48 4.49579 -3.14913 0
M  V30 10844 H 1060.74 4.17953 -1.44111 0
M  V30 10845 N 1059.8 1.27835 0.921735 0
M  V30 10846 C 1061.04 1.14692 1.67253 0
M  V30 10847 C 1061.38 -0.305384 1.91784 0
M  V30 10848 O 1060.65 -1.22286 1.51249 0
M  V30 10849 C 1060.93 1.93743 3.03539 0
M  V30 10850 C 1060.79 3.46991 2.86212 0
M  V30 10851 C 1062.11 1.74658 4.03959 0
M  V30 10852 H 1059.23 0.418021 0.606983 0
M  V30 10853 H 1061.87 1.5706 1.06922 0
M  V30 10854 H 1060.02 1.57738 3.55037 0
M  V30 10855 H 1061.69 3.92858 2.41785 0
M  V30 10856 H 1059.93 3.73029 2.21432 0
M  V30 10857 H 1060.6 3.97551 3.82958 0
M  V30 10858 H 1063.08 2.06063 3.61493 0
M  V30 10859 H 1061.96 2.32353 4.97296 0
M  V30 10860 H 1062.22 0.696019 4.36587 0
M  V30 10861 N 1061.28 -1.12907 1.09954 0
M  V30 10862 C 1062.19 -2.22082 0.756095 0
M  V30 10863 C 1063.2 -1.72277 -0.244272 0
M  V30 10864 O 1064.38 -2.01224 -0.0842637 0
M  V30 10865 C 1061.44 -3.46192 0.187642 0
M  V30 10866 C 1060.5 -4.10861 1.24465 0
M  V30 10867 C 1059.74 -5.29047 0.703227 0
M  V30 10868 O 1059.96 -5.68443 -0.472043 0
M  V30 10869 O 1058.89 -5.83904 1.46082 0
M  V30 10870 H 1062.72 -2.53842 1.66727 0
M  V30 10871 H 1060.3 -1.21145 0.874316 0
M  V30 10872 H 1062.19 -4.21212 -0.125774 0
M  V30 10873 H 1060.86 -3.16119 -0.696459 0
M  V30 10874 H 1059.77 -3.37643 1.61085 0
M  V30 10875 H 1061.1 -4.45078 2.10159 0
M  V30 10876 N 1062.75 -0.88754 -1.30232 0
M  V30 10877 C 1063.7 -0.345765 -2.30016 0
M  V30 10878 C 1064.7 0.5486 -1.60271 0
M  V30 10879 O 1065.9 0.43275 -1.74721 0
M  V30 10880 H 1062.28 -0.0931623 -0.746207 0
M  V30 10881 H 1064.25 -1.20095 -2.73166 0
M  V30 10882 C 1063 0.422435 -3.45124 0
M  V30 10883 H 1062.32 -0.256516 -3.98976 0
M  V30 10884 H 1063.76 0.766572 -4.17013 0
M  V30 10885 C 1062.22 1.62049 -2.95367 0
M  V30 10886 O 1062.75 2.71985 -2.95613 0
M  V30 10887 N 1060.95 1.45852 -2.51347 0
M  V30 10888 H 1060.5 0.564158 -2.51346 0
M  V30 10889 H 1060.46 2.26148 -2.18413 0
M  V30 10890 N 1064.23 1.43628 -0.648757 0
M  V30 10891 C 1065.64 1.85142 -0.24066 0
M  V30 10892 C 1065.99 1.54304 1.21181 0
M  V30 10893 O 1065.12 0.989792 1.92437 0
M  V30 10894 C 1065.71 3.3606 -0.429999 0
M  V30 10895 C 1064.27 3.76323 -0.0762588 0
M  V30 10896 C 1063.42 2.67382 -0.734999 0
M  V30 10897 H 1066.37 1.33844 -0.852734 0
M  V30 10898 H 1066.39 3.79102 0.325836 0
M  V30 10899 H 1065.9 3.58474 -1.48721 0
M  V30 10900 H 1064.01 3.59521 0.978529 0
M  V30 10901 H 1064.12 4.76498 -0.498612 0
M  V30 10902 H 1062.48 2.54141 -0.168644 0
M  V30 10903 H 1063.27 2.92625 -1.79515 0
M  V30 10904 N 1065.71 0.390394 1.52688 0
M  V30 10905 C 1066.62 -0.451543 2.30213 0
M  V30 10906 C 1067.64 -1.07051 1.37172 0
M  V30 10907 O 1068.81 -1.07609 1.70242 0
M  V30 10908 C 1065.88 -1.56299 3.0947 0
M  V30 10909 C 1064.94 -0.969017 4.18221 0
M  V30 10910 C 1064.17 -2.0275 4.93688 0
M  V30 10911 O 1064.39 -3.24273 4.69258 0
M  V30 10912 O 1063.33 -1.64418 5.79008 0
M  V30 10913 H 1067.15 0.180042 3.03166 0
M  V30 10914 H 1064.74 0.154082 1.48603 0
M  V30 10915 H 1066.62 -2.20864 3.58883 0
M  V30 10916 H 1065.3 -2.17952 2.3933 0
M  V30 10917 H 1064.2 -0.286587 3.73001 0
M  V30 10918 H 1065.54 -0.396687 4.90599 0
M  V30 10919 N 1067.19 -1.57141 0.120249 0
M  V30 10920 C 1068.43 -1.97124 -0.540521 0
M  V30 10921 C 1068.79 -1.0022 -1.63768 0
M  V30 10922 O 1069.99 -1.29146 -2.35743 0
M  V30 10923 C 1068.26 -3.41371 -1.05833 0
M  V30 10924 S 1069.82 -4.03367 -1.72745 0
M  V30 10925 H 1066.64 -0.688962 -0.175646 0
M  V30 10926 H 1069.24 -1.94416 0.205625 0
M  V30 10927 H 1067.95 -4.09646 -0.248656 0
M  V30 10928 H 1067.48 -3.47732 -1.83972 0
M  V30 10929 H 1069.49 -3.94227 -3.0133 0
M  V30 10930 N 1068.67 0.153526 -1.5685 0
M  V30 10931 C 1070.08 0.714247 -1.72498 0
M  V30 10932 C 1070.43 1.81968 -0.733621 0
M  V30 10933 O 1069.55 2.16163 0.10118 0
M  V30 10934 C 1070.15 1.30238 -3.12767 0
M  V30 10935 C 1068.71 1.80974 -3.30038 0
M  V30 10936 C 1067.85 0.695638 -2.68433 0
M  V30 10937 H 1070.81 -0.0720733 -1.58536 0
M  V30 10938 H 1070.83 2.17217 -3.12405 0
M  V30 10939 H 1070.34 0.497605 -3.84897 0
M  V30 10940 H 1068.44 2.64039 -2.62895 0
M  V30 10941 H 1068.55 1.94294 -4.37934 0
M  V30 10942 H 1066.92 1.12061 -2.28723 0
M  V30 10943 H 1067.7 -0.0975885 -3.43161 0
M  V30 10944 N 1070.14 1.51827 0.422667 0
M  V30 10945 C 1071.37 1.69049 1.1929 0
M  V30 10946 C 1071.79 0.394095 1.84641 0
M  V30 10947 O 1071.14 -0.628731 1.71328 0
M  V30 10948 C 1071.2 2.81657 2.26609 0
M  V30 10949 O 1070.92 4.06275 1.63929 0
M  V30 10950 C 1072.42 3.10274 3.16615 0
M  V30 10951 H 1069.64 0.566894 0.358988 0
M  V30 10952 H 1072.18 1.98318 0.499029 0
M  V30 10953 H 1070.34 2.54945 2.91688 0
M  V30 10954 H 1070.75 4.68924 2.3497 0
M  V30 10955 H 1072.22 3.92613 3.88019 0
M  V30 10956 H 1072.7 2.23273 3.78214 0
M  V30 10957 H 1073.31 3.387 2.57221 0
M  V30 10958 N 1071.62 -0.679052 1.4222 0
M  V30 10959 C 1072.87 -1.43627 1.42182 0
M  V30 10960 C 1073.19 -1.94964 0.0377095 0
M  V30 10961 O 1072.46 -1.72788 -0.923098 0
M  V30 10962 H 1071.04 -0.532972 0.523402 0
M  V30 10963 H 1073.7 -0.802649 1.77605 0
M  V30 10964 H 1072.8 -2.29137 2.11902 0
M  V30 10965 N 1073.1 -1.28322 -0.914942 0
M  V30 10966 C 1074.51 -1.13937 -1.47903 0
M  V30 10967 C 1074.86 0.271072 -1.94318 0
M  V30 10968 O 1073.99 1.16522 -1.8235 0
M  V30 10969 C 1074.58 -2.06221 -2.68809 0
M  V30 10970 C 1073.14 -1.95903 -3.21402 0
M  V30 10971 C 1072.29 -1.98031 -1.94111 0
M  V30 10972 H 1075.24 -1.41029 -0.727772 0
M  V30 10973 H 1075.26 -1.6255 -3.44031 0
M  V30 10974 H 1074.77 -3.08866 -2.34997 0
M  V30 10975 H 1072.87 -0.962907 -3.59943 0
M  V30 10976 H 1072.99 -2.82799 -3.86732 0
M  V30 10977 H 1071.35 -1.42423 -2.11158 0
M  V30 10978 H 1072.13 -3.02354 -1.62595 0
M  V30 10979 N 1074.58 1.12322 -1.10551 0
M  V30 10980 C 1075.86 1.80201 -0.760715 0
M  V30 10981 C 1076.24 1.97228 0.752628 0
M  V30 10982 O 1075.58 1.54958 1.67929 0
M  V30 10983 C 1075.79 3.14491 -1.51316 0
M  V30 10984 C 1077.14 3.89671 -1.68647 0
M  V30 10985 O 1078.17 3.24151 -1.47664 0
M  V30 10986 O 1077.02 5.0722 -2.03445 0
M  V30 10987 H 1074.12 0.780084 -0.274587 0
M  V30 10988 H 1076.66 1.19147 -1.20839 0
M  V30 10989 H 1075.44 2.97396 -2.54306 0
M  V30 10990 H 1075.06 3.83253 -1.05842 0
M  V30 10991 N 1076.06 0.894434 1.2976 0
M  V30 10992 C 1077.31 0.513673 1.95049 0
M  V30 10993 C 1077.62 -0.943744 1.71327 0
M  V30 10994 O 1078.82 -1.43179 2.30678 0
M  V30 10995 C 1077.28 0.867751 3.49282 0
M  V30 10996 C 1076.89 2.34358 3.81812 0
M  V30 10997 C 1078.63 0.556645 4.20835 0
M  V30 10998 C 1076.54 2.63879 5.29265 0
M  V30 10999 H 1075.47 0.188375 0.73009 0
M  V30 11000 H 1078.12 1.09071 1.47566 0
M  V30 11001 H 1076.5 0.2197 3.9539 0
M  V30 11002 H 1077.68 3.03674 3.46581 0
M  V30 11003 H 1075.99 2.62318 3.23386 0
M  V30 11004 H 1078.59 0.754123 5.29355 0
M  V30 11005 H 1078.93 -0.504526 4.13231 0
M  V30 11006 H 1079.46 1.1623 3.80441 0
M  V30 11007 H 1076.2 3.68774 5.41928 0
M  V30 11008 H 1075.72 1.99182 5.65762 0
M  V30 11009 H 1077.4 2.49871 5.96803 0
M  V30 11010 N 1077.53 -1.43282 0.656365 0
M  V30 11011 C 1078.78 -2.00996 0.168354 0
M  V30 11012 C 1079.1 -1.52408 -1.22601 0
M  V30 11013 O 1080.3 -2.02417 -1.80941 0
M  V30 11014 C 1078.76 -3.5903 0.250161 0
M  V30 11015 C 1078.37 -4.1661 1.64742 0
M  V30 11016 C 1080.11 -4.24118 -0.180084 0
M  V30 11017 C 1078.02 -5.66948 1.68299 0
M  V30 11018 H 1076.95 -0.751674 0.0591769 0
M  V30 11019 H 1079.6 -1.64216 0.818859 0
M  V30 11020 H 1077.98 -3.93226 -0.467908 0
M  V30 11021 H 1079.15 -3.93908 2.3911 0
M  V30 11022 H 1077.47 -3.63905 2.02391 0
M  V30 11023 H 1080.07 -5.34419 -0.173401 0
M  V30 11024 H 1080.41 -3.98264 -1.21208 0
M  V30 11025 H 1080.94 -3.94816 0.486343 0
M  V30 11026 H 1077.68 -5.97573 2.69419 0
M  V30 11027 H 1077.2 -5.91697 0.98261 0
M  V30 11028 H 1078.88 -6.31041 1.42813 0
M  V30 11029 N 1079.01 -0.398486 -1.52479 0
M  V30 11030 C 1080.42 0.0735015 -1.86555 0
M  V30 11031 C 1080.78 1.45361 -1.31775 0
M  V30 11032 O 1079.9 2.0632 -0.652759 0
M  V30 11033 C 1080.5 0.140152 -3.3851 0
M  V30 11034 C 1079.05 0.556451 -3.72264 0
M  V30 11035 C 1078.2 -0.275792 -2.75925 0
M  V30 11036 H 1081.15 -0.615991 -1.46257 0
M  V30 11037 H 1081.17 0.957507 -3.68255 0
M  V30 11038 H 1080.69 -0.864442 -3.7835 0
M  V30 11039 H 1078.79 1.56808 -3.37997 0
M  V30 11040 H 1078.9 0.308227 -4.78107 0
M  V30 11041 H 1077.26 0.260304 -2.53366 0
M  V30 11042 H 1078.05 -1.27854 -3.18604 0
M  V30 11043 N 1080.49 1.57075 -0.12858 0
M  V30 11044 C 1081.74 1.94695 0.526952 0
M  V30 11045 C 1082.05 1.01482 1.67215 0
M  V30 11046 O 1083.26 1.28606 2.39108 0
M  V30 11047 C 1081.72 3.4605 0.988801 0
M  V30 11048 C 1081.32 4.47816 -0.128457 0
M  V30 11049 C 1083.07 3.92572 1.61517 0
M  V30 11050 C 1080.97 5.9036 0.350628 0
M  V30 11051 H 1079.9 0.726819 0.200623 0
M  V30 11052 H 1082.56 1.82295 -0.209972 0
M  V30 11053 H 1080.94 3.53718 1.78043 0
M  V30 11054 H 1082.11 4.51826 -0.904976 0
M  V30 11055 H 1080.43 4.11103 -0.662075 0
M  V30 11056 H 1083.02 4.96493 1.98491 0
M  V30 11057 H 1083.37 3.33085 2.49721 0
M  V30 11058 H 1083.9 3.87744 0.888768 0
M  V30 11059 H 1080.64 6.53624 -0.495592 0
M  V30 11060 H 1080.16 5.89749 1.09342 0
M  V30 11061 H 1081.84 6.41926 0.808717 0
M  V30 11062 N 1081.97 -0.145205 1.5693 0
M  V30 11063 C 1083.22 -0.858786 1.83719 0
M  V30 11064 C 1083.55 -1.80738 0.710452 0
M  V30 11065 O 1082.82 -1.92389 -0.285791 0
M  V30 11066 C 1083.11 -1.6317 3.2101 0
M  V30 11067 C 1082.96 -0.704472 4.44249 0
M  V30 11068 C 1084.28 -2.59377 3.55544 0
M  V30 11069 H 1081.4 -0.310757 0.66828 0
M  V30 11070 H 1084.04 -0.123918 1.89595 0
M  V30 11071 H 1082.19 -2.25816 3.16132 0
M  V30 11072 H 1083.86 -0.08887 4.61214 0
M  V30 11073 H 1082.1 -0.0141693 4.33798 0
M  V30 11074 H 1082.78 -1.28135 5.36922 0
M  V30 11075 H 1085.25 -2.06848 3.61044 0
M  V30 11076 H 1084.13 -3.10506 4.52634 0
M  V30 11077 H 1084.39 -3.40819 2.81594 0
M  V30 11078 N 1083.45 -1.52049 -0.414609 0
M  V30 11079 C 1084.41 -1.74382 -1.4874 0
M  V30 11080 C 1085.41 -0.613701 -1.48628 0
M  V30 11081 O 1086.6 -0.88152 -1.50249 0
M  V30 11082 C 1083.73 -1.82116 -2.88178 0
M  V30 11083 H 1084.93 -2.70147 -1.30233 0
M  V30 11084 H 1082.48 -1.42382 -0.644756 0
M  V30 11085 H 1083.21 -0.882457 -3.12063 0
M  V30 11086 H 1083 -2.64268 -2.89663 0
M  V30 11087 H 1084.49 -2.01155 -3.65959 0
M  V30 11088 N 1084.93 0.6715 -1.42579 0
M  V30 11089 C 1086.17 1.42871 -1.42941 0
M  V30 11090 C 1086.49 1.94941 -0.0480483 0
M  V30 11091 O 1085.76 1.73275 0.913921 0
M  V30 11092 H 1084.34 0.530189 -0.526221 0
M  V30 11093 H 1087.01 0.793219 -1.78028 0
M  V30 11094 H 1086.1 2.2801 -2.13114 0
M  V30 11095 N 1086.4 1.28806 0.908124 0
M  V30 11096 C 1087.65 1.1646 1.66027 0
M  V30 11097 C 1087.98 -0.285025 1.92097 0
M  V30 11098 O 1087.26 -1.20675 1.52538 0
M  V30 11099 C 1087.54 1.96951 3.01467 0
M  V30 11100 C 1087.39 3.50007 2.82515 0
M  V30 11101 C 1088.71 1.78932 4.02084 0
M  V30 11102 H 1085.83 0.424435 0.602515 0
M  V30 11103 H 1088.47 1.58185 1.0525 0
M  V30 11104 H 1086.62 1.61495 3.53344 0
M  V30 11105 H 1088.3 3.95401 2.37605 0
M  V30 11106 H 1086.54 3.75356 2.17463 0
M  V30 11107 H 1087.21 4.01591 3.7872 0
M  V30 11108 H 1089.69 2.09885 3.59287 0
M  V30 11109 H 1088.56 2.37615 4.94803 0
M  V30 11110 H 1088.82 0.742286 4.35824 0
M  V30 11111 N 1087.88 -1.11734 1.11145 0
M  V30 11112 C 1089.13 -1.83677 0.859684 0
M  V30 11113 C 1089.46 -1.84265 -0.613182 0
M  V30 11114 O 1088.74 -1.29351 -1.45254 0
M  V30 11115 C 1089.02 -3.31003 1.41805 0
M  V30 11116 C 1088.87 -3.38827 2.95831 0
M  V30 11117 C 1090.19 -4.26984 1.06645 0
M  V30 11118 H 1087.31 -0.666879 0.313754 0
M  V30 11119 H 1089.95 -1.31038 1.37583 0
M  V30 11120 H 1088.1 -3.75961 0.979054 0
M  V30 11121 H 1089.77 -3.02451 3.48312 0
M  V30 11122 H 1088.02 -2.79143 3.32056 0
M  V30 11123 H 1088.69 -4.42508 3.29986 0
M  V30 11124 H 1091.16 -3.9019 1.44537 0
M  V30 11125 H 1090.04 -5.2846 1.48394 0
M  V30 11126 H 1090.3 -4.42094 -0.0231866 0
M  V30 11127 N 1089.36 -0.901303 -1.29284 0
M  V30 11128 C 1090.32 -0.385081 -2.25942 0
M  V30 11129 C 1091.32 0.481626 -1.53418 0
M  V30 11130 O 1092.51 0.286451 -1.71829 0
M  V30 11131 C 1089.64 0.449319 -3.37926 0
M  V30 11132 H 1090.84 -1.23877 -2.7312 0
M  V30 11133 H 1088.39 -0.679586 -1.40753 0
M  V30 11134 H 1089.13 1.32292 -2.9609 0
M  V30 11135 H 1088.91 -0.171731 -3.91724 0
M  V30 11136 H 1090.4 0.801746 -4.09831 0
M  V30 11137 N 1090.84 1.42931 -0.663954 0
M  V30 11138 C 1092.09 2.01284 -0.181379 0
M  V30 11139 C 1092.41 1.52708 1.21265 0
M  V30 11140 O 1091.68 0.744181 1.81215 0
M  V30 11141 H 1090.26 0.744248 -0.0640646 0
M  V30 11142 H 1092.92 1.74997 -0.858031 0
M  V30 11143 H 1092.01 3.11613 -0.174273 0
M  V30 11144 N 1092.32 0.406567 1.52266 0
M  V30 11145 C 1093.56 -0.171391 2.00971 0
M  V30 11146 C 1093.88 -1.46443 1.29668 0
M  V30 11147 O 1095.08 -2.12348 1.69176 0
M  V30 11148 C 1093.54 -0.35599 3.58135 0
M  V30 11149 C 1093.15 0.924803 4.38351 0
M  V30 11150 C 1094.89 -0.889378 4.15079 0
M  V30 11151 C 1092.8 0.707534 5.87152 0
M  V30 11152 H 1091.73 -0.0678253 0.750943 0
M  V30 11153 H 1094.38 0.531619 1.7563 0
M  V30 11154 H 1092.76 -1.12127 3.79794 0
M  V30 11155 H 1093.94 1.69603 4.28452 0
M  V30 11156 H 1092.25 1.38442 3.92712 0
M  V30 11157 H 1094.85 -1.06792 5.23927 0
M  V30 11158 H 1095.19 -1.86334 3.7227 0
M  V30 11159 H 1095.72 -0.183224 3.97378 0
M  V30 11160 H 1092.46 1.65299 6.34316 0
M  V30 11161 H 1091.98 -0.024446 5.99795 0
M  V30 11162 H 1093.66 0.348721 6.4606 0
M  V30 11163 N 1093.79 -1.57004 0.136909 0
M  V30 11164 C 1095.04 -1.96087 -0.517477 0
M  V30 11165 C 1095.37 -1.0213 -1.65176 0
M  V30 11166 O 1094.65 -0.0617958 -1.94402 0
M  V30 11167 C 1094.93 -3.44958 -1.03323 0
M  V30 11168 C 1094.78 -4.49691 0.0988609 0
M  V30 11169 C 1096.1 -3.96091 -1.91832 0
M  V30 11170 H 1093.22 -0.712978 -0.186632 0
M  V30 11171 H 1095.86 -1.88767 0.216095 0
M  V30 11172 H 1094.01 -3.51327 -1.65836 0
M  V30 11173 H 1095.69 -4.55409 0.734847 0
M  V30 11174 H 1093.93 -4.271 0.75947 0
M  V30 11175 H 1094.6 -5.51165 -0.303554 0
M  V30 11176 H 1097.08 -3.92139 -1.39164 0
M  V30 11177 H 1095.95 -5.00742 -2.24831 0
M  V30 11178 H 1096.21 -3.37846 -2.85153 0
M  V30 11179 N 1095.27 0.136881 -1.57004 0
M  V30 11180 C 1096.2 1.17026 -2.02057 0
M  V30 11181 C 1097.18 1.44223 -0.901866 0
M  V30 11182 O 1098.37 1.54971 -1.17037 0
M  V30 11183 C 1095.5 2.50095 -2.40977 0
M  V30 11184 C 1094.45 2.37398 -3.56127 0
M  V30 11185 C 1093.78 3.75268 -3.80891 0
M  V30 11186 C 1095.08 1.84952 -4.88457 0
M  V30 11187 H 1096.77 0.795601 -2.88636 0
M  V30 11188 H 1094.32 0.381266 -1.38861 0
M  V30 11189 H 1096.27 3.22621 -2.71097 0
M  V30 11190 H 1095 2.89416 -1.51348 0
M  V30 11191 H 1093.65 1.67322 -3.26188 0
M  V30 11192 H 1093.3 4.12043 -2.88496 0
M  V30 11193 H 1093 3.67631 -4.5839 0
M  V30 11194 H 1094.53 4.49327 -4.13446 0
M  V30 11195 H 1095.94 2.4728 -5.17229 0
M  V30 11196 H 1094.34 1.88181 -5.69832 0
M  V30 11197 H 1095.41 0.805848 -4.78157 0
M  V30 11198 N 1096.75 1.52266 0.40654 0
M  V30 11199 C 1098 1.6568 1.15035 0
M  V30 11200 C 1098.31 0.394135 1.91588 0
M  V30 11201 O 1099.52 0.408113 2.68415 0
M  V30 11202 C 1097.97 2.92725 2.0938 0
M  V30 11203 C 1097.58 4.26108 1.38332 0
M  V30 11204 C 1099.33 3.15502 2.84004 0
M  V30 11205 C 1097.23 5.44275 2.3134 0
M  V30 11206 H 1096.16 0.61719 0.43312 0
M  V30 11207 H 1098.81 1.78755 0.414598 0
M  V30 11208 H 1097.2 2.73355 2.86519 0
M  V30 11209 H 1098.37 4.55971 0.665396 0
M  V30 11210 H 1096.69 4.09454 0.757384 0
M  V30 11211 H 1099.28 4.00964 3.5374 0
M  V30 11212 H 1099.63 2.29842 3.471 0
M  V30 11213 H 1100.16 3.35357 2.13964 0
M  V30 11214 H 1096.9 6.3229 1.72887 0
M  V30 11215 H 1096.42 5.18749 3.01098 0
M  V30 11216 H 1098.1 5.77457 2.91809 0
M  V30 11217 N 1098.23 -0.663929 1.42933 0
M  V30 11218 C 1099.48 -1.42111 1.43697 0
M  V30 11219 C 1099.8 -1.94913 0.0583858 0
M  V30 11220 O 1099.07 -1.73757 -0.904719 0
M  V30 11221 H 1097.65 -0.527391 0.529026 0
M  V30 11222 H 1100.31 -0.783766 1.78446 0
M  V30 11223 H 1099.41 -2.26877 2.1432 0
M  V30 11224 N 1099.71 -1.29285 -0.901281 0
M  V30 11225 C 1100.64 -1.16832 -2.0217 0
M  V30 11226 C 1101.62 -0.0629265 -1.69984 0
M  V30 11227 O 1102.8 -0.242123 -1.92685 0
M  V30 11228 C 1099.93 -0.842406 -3.36929 0
M  V30 11229 C 1098.89 -1.90394 -3.8332 0
M  V30 11230 C 1098.21 -1.43138 -5.15185 0
M  V30 11231 C 1099.51 -3.31254 -4.03817 0
M  V30 11232 H 1101.21 -2.10562 -2.12847 0
M  V30 11233 H 1098.75 -1.01375 -1.0227 0
M  V30 11234 H 1100.71 -0.741999 -4.14816 0
M  V30 11235 H 1099.43 0.130598 -3.26339 0
M  V30 11236 H 1098.09 -1.99371 -3.07647 0
M  V30 11237 H 1097.74 -0.447091 -5.01009 0
M  V30 11238 H 1097.44 -2.14129 -5.47195 0
M  V30 11239 H 1098.96 -1.34444 -5.95615 0
M  V30 11240 H 1100.37 -3.25129 -4.72191 0
M  V30 11241 H 1098.77 -4.00189 -4.47178 0
M  V30 11242 H 1099.84 -3.74349 -3.08206 0
M  V30 11243 N 1101.18 1.11143 -1.11736 0
M  V30 11244 C 1102.15 2.15456 -0.78174 0
M  V30 11245 C 1103.15 1.59547 0.200383 0
M  V30 11246 O 1104.34 1.74183 -0.0244893 0
M  V30 11247 C 1101.47 3.40523 -0.160364 0
M  V30 11248 H 1102.66 2.46658 -1.70586 0
M  V30 11249 H 1100.22 1.26381 -0.919644 0
M  V30 11250 H 1100.95 3.14932 0.773835 0
M  V30 11251 H 1100.74 3.82386 -0.867378 0
M  V30 11252 H 1102.23 4.17559 0.0582175 0
M  V30 11253 N 1102.66 0.908147 1.28804 0
M  V30 11254 C 1103.59 0.409106 2.29888 0
M  V30 11255 C 1104.57 -0.520338 1.61946 0
M  V30 11256 O 1105.76 -0.429268 1.89396 0
M  V30 11257 C 1102.89 -0.35669 3.45463 0
M  V30 11258 C 1101.84 0.4831 4.25265 0
M  V30 11259 C 1101.17 -0.4107 5.3312 0
M  V30 11260 C 1102.47 1.73744 4.92555 0
M  V30 11261 H 1104.16 1.25386 2.7188 0
M  V30 11262 H 1101.71 0.604368 1.30703 0
M  V30 11263 H 1103.66 -0.71661 4.15262 0
M  V30 11264 H 1102.39 -1.2353 3.02337 0
M  V30 11265 H 1101.04 0.825464 3.57186 0
M  V30 11266 H 1100.69 -1.28769 4.86238 0
M  V30 11267 H 1100.39 0.14756 5.87415 0
M  V30 11268 H 1101.92 -0.766626 6.05768 0
M  V30 11269 H 1103.33 1.44676 5.54745 0
M  V30 11270 H 1101.73 2.23767 5.5682 0
M  V30 11271 H 1102.8 2.46853 4.17363 0
M  V30 11272 N 1104.14 -1.42577 0.671525 0
M  V30 11273 C 1105.07 -2.33499 0.00506984 0
M  V30 11274 C 1106.05 -1.50497 -0.792763 0
M  V30 11275 O 1107.24 -1.79109 -0.750574 0
M  V30 11276 C 1104.37 -3.34077 -0.949194 0
M  V30 11277 C 1103.32 -4.27208 -0.260187 0
M  V30 11278 C 1102.65 -5.17968 -1.32716 0
M  V30 11279 C 1103.95 -5.15192 0.858772 0
M  V30 11280 H 1105.64 -2.89477 0.764407 0
M  V30 11281 H 1103.19 -1.39191 0.369043 0
M  V30 11282 H 1105.14 -3.96594 -1.42448 0
M  V30 11283 H 1103.86 -2.76396 -1.73991 0
M  V30 11284 H 1102.52 -3.66082 0.194834 0
M  V30 11285 H 1102.17 -4.56615 -2.10979 0
M  V30 11286 H 1101.87 -5.81104 -0.871293 0
M  V30 11287 H 1103.39 -5.83359 -1.80345 0
M  V30 11288 H 1104.81 -5.71412 0.464844 0
M  V30 11289 H 1103.21 -5.87144 1.24023 0
M  V30 11290 H 1104.28 -4.53787 1.70895 0
M  V30 11291 N 1105.62 -0.414636 -1.52048 0
M  V30 11292 C 1106.55 0.399119 -2.30064 0
M  V30 11293 C 1107.53 1.04126 -1.34506 0
M  V30 11294 O 1108.71 1.04923 -1.63416 0
M  V30 11295 C 1105.84 1.51305 -3.12608 0
M  V30 11296 C 1104.8 0.995621 -4.16259 0
M  V30 11297 C 1104.12 2.20357 -4.87183 0
M  V30 11298 C 1105.42 0.0458178 -5.2228 0
M  V30 11299 H 1107.12 -0.251879 -2.98339 0
M  V30 11300 H 1104.66 -0.122579 -1.43477 0
M  V30 11301 H 1106.62 2.08936 -3.65956 0
M  V30 11302 H 1105.34 2.19201 -2.42113 0
M  V30 11303 H 1104 0.441676 -3.6393 0
M  V30 11304 H 1103.65 2.8682 -4.13211 0
M  V30 11305 H 1103.35 1.86385 -5.57256 0
M  V30 11306 H 1104.87 2.78584 -5.43345 0
M  V30 11307 H 1106.29 0.531102 -5.70835 0
M  V30 11308 H 1104.68 -0.20536 -5.99749 0
M  V30 11309 H 1105.75 -0.897807 -4.76516 0
M  V30 11310 N 1107.1 1.56929 -0.145233 0
M  V30 11311 C 1108.35 1.95243 0.506273 0
M  V30 11312 C 1108.66 1.0325 1.66129 0
M  V30 11313 O 1109.86 1.31135 2.37731 0
M  V30 11314 C 1108.32 3.47079 0.952042 0
M  V30 11315 C 1107.93 4.47654 -0.175947 0
M  V30 11316 C 1109.67 3.94263 1.57344 0
M  V30 11317 C 1107.58 5.90698 0.287993 0
M  V30 11318 H 1106.51 0.728906 0.192903 0
M  V30 11319 H 1109.16 1.82062 -0.229295 0
M  V30 11320 H 1107.54 3.55587 1.74282 0
M  V30 11321 H 1108.72 4.50841 -0.952848 0
M  V30 11322 H 1107.03 4.10377 -0.70564 0
M  V30 11323 H 1109.63 4.9857 1.93214 0
M  V30 11324 H 1109.97 3.35714 2.46174 0
M  V30 11325 H 1110.5 3.88665 0.847593 0
M  V30 11326 H 1107.24 6.53061 -0.564889 0
M  V30 11327 H 1106.76 5.90876 1.03081 0
M  V30 11328 H 1108.44 6.42747 0.740586 0
M  V30 11329 N 1108.58 -0.128553 1.57075 0
M  V30 11330 C 1109.82 -0.834322 1.85501 0
M  V30 11331 C 1110.18 -1.77943 0.731725 0
M  V30 11332 O 1109.47 -1.89702 -0.269003 0
M  V30 11333 C 1109.66 -1.63027 3.18052 0
M  V30 11334 C 1109.49 -0.763737 4.43167 0
M  V30 11335 C 1108.26 -0.42224 5.03533 0
M  V30 11336 C 1110.46 -0.0856773 5.14229 0
M  V30 11337 N 1108.44 0.455954 6.12204 0
M  V30 11338 C 1109.81 0.651902 6.16563 0
M  V30 11339 C 1111.87 -0.00826404 4.97899 0
M  V30 11340 C 1110.57 1.45961 7.04335 0
M  V30 11341 C 1112.6 0.786239 5.8615 0
M  V30 11342 C 1111.96 1.51204 6.8798 0
M  V30 11343 H 1108.06 -0.282535 0.729176 0
M  V30 11344 H 1110.64 -0.0985924 1.9445 0
M  V30 11345 H 1108.81 -2.3371 3.10216 0
M  V30 11346 H 1110.55 -2.28063 3.34319 0
M  V30 11347 H 1107.3 -0.76229 4.67425 0
M  V30 11348 H 1107.72 0.886619 6.71169 0
M  V30 11349 H 1112.37 -0.555051 4.19141 0
M  V30 11350 H 1110.08 2.01759 7.82508 0
M  V30 11351 H 1113.67 0.848372 5.75581 0
M  V30 11352 H 1112.55 2.11694 7.55086 0
M  V30 11353 N 1110.05 -1.5248 -0.398459 0
M  V30 11354 C 1111 -1.76585 -1.48615 0
M  V30 11355 C 1111.97 -0.608677 -1.54546 0
M  V30 11356 O 1113.16 -0.847383 -1.7095 0
M  V30 11357 C 1110.3 -1.93201 -2.8595 0
M  V30 11358 C 1109.41 -3.20875 -2.89246 0
M  V30 11359 C 1108.54 -3.27862 -4.17947 0
M  V30 11360 C 1107.58 -4.49697 -4.15258 0
M  V30 11361 N 1106.72 -4.54017 -5.35549 0
M  V30 11362 H 1111.56 -2.69412 -1.27362 0
M  V30 11363 H 1109.1 -1.33487 -0.618031 0
M  V30 11364 H 1111.05 -2.00819 -3.65688 0
M  V30 11365 H 1109.68 -1.03743 -3.05675 0
M  V30 11366 H 1108.74 -3.22376 -2.01935 0
M  V30 11367 H 1110.05 -4.1066 -2.83125 0
M  V30 11368 H 1109.2 -3.34611 -5.06083 0
M  V30 11369 H 1107.94 -2.36035 -4.26777 0
M  V30 11370 H 1106.95 -4.43083 -3.25511 0
M  V30 11371 H 1108.17 -5.42831 -4.08059 0
M  V30 11372 H 1106.12 -3.65078 -5.45027 0
M  V30 11373 H 1106.03 -5.37661 -5.31466 0
M  V30 11374 H 1107.3 -4.65009 -6.25609 0
M  V30 11375 N 1111.53 0.65634 -1.43283 0
M  V30 11376 C 1112.46 1.78101 -1.51004 0
M  V30 11377 C 1113.44 1.66138 -0.36498 0
M  V30 11378 O 1114.63 1.85281 -0.581778 0
M  V30 11379 C 1111.76 3.16511 -1.42961 0
M  V30 11380 C 1110.71 3.43233 -2.55685 0
M  V30 11381 C 1110.04 4.81411 -2.32696 0
M  V30 11382 C 1111.34 3.38288 -3.97943 0
M  V30 11383 H 1113.03 1.71896 -2.45137 0
M  V30 11384 H 1110.58 0.825575 -1.17984 0
M  V30 11385 H 1112.53 3.94941 -1.46968 0
M  V30 11386 H 1111.25 3.23439 -0.45332 0
M  V30 11387 H 1109.91 2.67173 -2.51026 0
M  V30 11388 H 1109.56 4.85011 -1.33317 0
M  V30 11389 H 1109.26 5.00251 -3.08257 0
M  V30 11390 H 1110.79 5.62102 -2.38481 0
M  V30 11391 H 1112.2 4.06659 -4.04106 0
M  V30 11392 H 1110.6 3.68664 -4.73505 0
M  V30 11393 H 1111.67 2.36525 -4.23301 0
M  V30 11394 N 1113.01 1.29761 0.894412 0
M  V30 11395 C 1113.94 1.17902 2.01547 0
M  V30 11396 C 1114.92 0.0719402 1.69948 0
M  V30 11397 O 1116.11 0.252338 1.92554 0
M  V30 11398 C 1113.24 0.860262 3.36477 0
M  V30 11399 C 1112.19 1.92424 3.82305 0
M  V30 11400 C 1111.52 1.45868 5.14419 0
M  V30 11401 C 1112.82 3.33391 4.02054 0
M  V30 11402 H 1114.51 2.11688 2.11727 0
M  V30 11403 H 1112.06 1.01916 1.01731 0
M  V30 11404 H 1114.01 0.763987 4.14417 0
M  V30 11405 H 1112.73 -0.113289 3.26403 0
M  V30 11406 H 1111.39 2.00999 3.06586 0
M  V30 11407 H 1111.04 0.473654 5.00765 0
M  V30 11408 H 1110.74 2.17028 5.46052 0
M  V30 11409 H 1112.26 1.37601 5.94894 0
M  V30 11410 H 1113.68 3.27628 4.7046 0
M  V30 11411 H 1112.07 4.02555 4.4505 0
M  V30 11412 H 1113.14 3.75978 3.06216 0
M  V30 11413 N 1114.49 -1.10549 1.12324 0
M  V30 11414 C 1115.42 -2.16081 0.733768 0
M  V30 11415 C 1116.4 -1.60266 -0.274511 0
M  V30 11416 O 1117.58 -1.87743 -0.168742 0
M  V30 11417 C 1114.71 -3.38591 0.0858914 0
M  V30 11418 C 1113.76 -4.13097 1.0608 0
M  V30 11419 S 1114.59 -4.68821 2.5878 0
M  V30 11420 C 1115.74 -5.94644 1.95319 0
M  V30 11421 H 1115.98 -2.48784 1.62769 0
M  V30 11422 H 1113.51 -1.22318 0.942209 0
M  V30 11423 H 1115.47 -4.09533 -0.281538 0
M  V30 11424 H 1114.13 -3.04129 -0.785122 0
M  V30 11425 H 1113.32 -5.00934 0.555095 0
M  V30 11426 H 1112.92 -3.4796 1.37112 0
M  V30 11427 H 1115.22 -6.65004 1.29523 0
M  V30 11428 H 1116.16 -6.49875 2.81191 0
M  V30 11429 H 1116.57 -5.4662 1.40951 0
M  V30 11430 N 1115.97 -0.914965 -1.28321 0
M  V30 11431 C 1117.21 -0.544639 -1.94208 0
M  V30 11432 C 1117.53 0.916368 -1.72806 0
M  V30 11433 O 1118.73 1.39491 -2.32926 0
M  V30 11434 C 1117.19 -0.923209 -3.47858 0
M  V30 11435 C 1116.8 -2.40403 -3.78035 0
M  V30 11436 C 1118.54 -0.623526 -4.19896 0
M  V30 11437 C 1116.45 -2.72266 -5.25 0
M  V30 11438 H 1115.38 -0.199966 -0.727 0
M  V30 11439 H 1118.03 -1.11405 -1.45812 0
M  V30 11440 H 1116.41 -0.282576 -3.94991 0
M  V30 11441 H 1117.59 -3.09149 -3.41706 0
M  V30 11442 H 1115.9 -2.67429 -3.19172 0
M  V30 11443 H 1118.5 -0.838243 -5.28089 0
M  V30 11444 H 1118.84 0.438721 -4.13982 0
M  V30 11445 H 1119.37 -1.22268 -3.78544 0
M  V30 11446 H 1116.11 -3.77349 -5.35993 0
M  V30 11447 H 1115.63 -2.08157 -5.62522 0
M  V30 11448 H 1117.31 -2.59334 -5.92752 0
M  V30 11449 N 1117.44 1.42219 -0.679077 0
M  V30 11450 C 1118.69 2.00703 -0.200309 0
M  V30 11451 C 1119.01 1.54339 1.20161 0
M  V30 11452 O 1120.21 2.0527 1.77698 0
M  V30 11453 C 1118.67 3.58586 -0.307248 0
M  V30 11454 C 1118.28 4.13937 -1.71349 0
M  V30 11455 C 1120.02 4.24351 0.112588 0
M  V30 11456 C 1117.93 5.64198 -1.77297 0
M  V30 11457 H 1116.86 0.750638 -0.0711279 0
M  V30 11458 H 1119.51 1.62893 -0.844881 0
M  V30 11459 H 1117.89 3.93921 0.40529 0
M  V30 11460 H 1119.06 3.90054 -2.45346 0
M  V30 11461 H 1117.38 3.60639 -2.08155 0
M  V30 11462 H 1119.98 5.34627 0.0883578 0
M  V30 11463 H 1120.32 4.00142 1.14857 0
M  V30 11464 H 1120.85 3.93992 -0.549093 0
M  V30 11465 H 1117.59 5.93211 -2.78892 0
M  V30 11466 H 1117.11 5.90058 -1.07662 0
M  V30 11467 H 1118.79 6.2869 -1.52835 0
M  V30 11468 N 1118.92 0.422693 1.51826 0
M  V30 11469 C 1119.87 -0.413725 2.24215 0
M  V30 11470 C 1120.86 -1.00228 1.2587 0
M  V30 11471 O 1122.05 -0.922845 1.51038 0
M  V30 11472 C 1119.18 -1.52244 3.07696 0
M  V30 11473 C 1118.26 -0.943999 4.1346 0
M  V30 11474 N 1118.65 -0.0934117 5.05714 0
M  V30 11475 C 1116.95 -1.21311 4.29185 0
M  V30 11476 C 1117.65 0.229891 5.81246 0
M  V30 11477 N 1116.63 -0.382753 5.42251 0
M  V30 11478 H 1120.43 0.242283 2.929 0
M  V30 11479 H 1117.94 0.233902 1.60707 0
M  V30 11480 H 1119.94 -2.13438 3.5812 0
M  V30 11481 H 1118.6 -2.18093 2.40552 0
M  V30 11482 H 1119.61 0.271932 5.17186 0
M  V30 11483 H 1116.29 -1.87018 3.7327 0
M  V30 11484 H 1117.68 0.921159 6.65556 0
M  V30 11485 N 1120.4 -1.5685 0.153553 0
M  V30 11486 C 1121.68 -1.8796 -0.541328 0
M  V30 11487 C 1122.06 -1.06059 -1.82523 0
M  V30 11488 O 1121.4 -0.149295 -2.28012 0
M  V30 11489 C 1121.61 -3.39697 -0.800442 0
M  V30 11490 C 1122.96 -4.09057 -1.13832 0
M  V30 11491 O 1123.99 -3.44913 -0.889578 0
M  V30 11492 O 1122.85 -5.22347 -1.60673 0
M  V30 11493 H 1119.94 -0.779268 -0.276895 0
M  V30 11494 H 1122.49 -1.68626 0.190657 0
M  V30 11495 H 1121.26 -3.91151 0.107935 0
M  V30 11496 H 1120.88 -3.64582 -1.58638 0
M  V30 11497 N 1121.88 0.120221 -1.57141 0
M  V30 11498 C 1123.29 0.473718 -1.52408 0
M  V30 11499 C 1123.49 1.81925 -0.866354 0
M  V30 11500 O 1122.55 2.48491 -0.448173 0
M  V30 11501 C 1123.86 0.459338 -2.97171 0
M  V30 11502 C 1125.41 0.542975 -3.08254 0
M  V30 11503 C 1125.89 0.558996 -4.54576 0
M  V30 11504 N 1127.38 0.620469 -4.59026 0
M  V30 11505 C 1128.11 0.654292 -5.69655 0
M  V30 11506 N 1127.61 0.645835 -6.89783 0
M  V30 11507 N 1129.4 0.697208 -5.57759 0
M  V30 11508 H 1121.55 -0.76142 -1.98283 0
M  V30 11509 H 1123.81 -0.280736 -0.905479 0
M  V30 11510 H 1123.52 -0.461654 -3.48657 0
M  V30 11511 H 1123.39 1.28759 -3.54543 0
M  V30 11512 H 1125.78 1.45439 -2.56772 0
M  V30 11513 H 1125.86 -0.312936 -2.53879 0
M  V30 11514 H 1125.51 -0.348367 -5.06704 0
M  V30 11515 H 1125.44 1.43177 -5.06762 0
M  V30 11516 H 1127.93 0.633218 -3.72557 0
M  V30 11517 H 1128.24 0.674233 -7.69853 0
M  V30 11518 H 1126.59 0.613279 -6.92289 0
M  V30 11519 H 1129.78 0.70117 -4.62819 0
M  V30 11520 H 1129.95 0.7201 -6.43986 0
M  V30 11521 N 1123.36 1.52689 0.390367 0
M  V30 11522 C 1124.77 1.41909 0.730338 0
M  V30 11523 C 1124.97 0.538427 1.94173 0
M  V30 11524 O 1124.03 0.0113527 2.52497 0
M  V30 11525 C 1125.34 2.84737 0.966714 0
M  V30 11526 C 1126.89 2.94206 1.06827 0
M  V30 11527 C 1127.36 4.38042 1.33728 0
M  V30 11528 N 1128.86 4.4136 1.40553 0
M  V30 11529 C 1129.59 5.49735 1.63031 0
M  V30 11530 N 1129.09 6.68197 1.82988 0
M  V30 11531 N 1130.88 5.37276 1.65199 0
M  V30 11532 H 1123.03 2.08469 -0.406766 0
M  V30 11533 H 1125.29 0.940401 -0.11979 0
M  V30 11534 H 1125 3.51385 0.148725 0
M  V30 11535 H 1124.87 3.26909 1.88176 0
M  V30 11536 H 1127.26 2.27726 1.87683 0
M  V30 11537 H 1127.34 2.55463 0.131168 0
M  V30 11538 H 1126.99 5.05087 0.533832 0
M  V30 11539 H 1126.92 4.74336 2.28721 0
M  V30 11540 H 1129.41 3.55976 1.26844 0
M  V30 11541 H 1129.72 7.46567 1.99643 0
M  V30 11542 H 1128.06 6.71228 1.80215 0
M  V30 11543 H 1131.26 4.437 1.49158 0
M  V30 11544 H 1131.43 6.21806 1.82377 0
M  V30 11545 N 1124.83 -0.648732 1.43629 0
M  V30 11546 C 1125.74 -1.79046 1.51591 0
M  V30 11547 C 1126.76 -1.69276 0.402697 0
M  V30 11548 O 1127.94 -1.90366 0.657484 0
M  V30 11549 C 1125 -3.15347 1.44073 0
M  V30 11550 C 1124.06 -3.3688 2.66102 0
M  V30 11551 C 1123.3 -4.66679 2.58933 0
M  V30 11552 O 1123.52 -5.46328 1.63956 0
M  V30 11553 O 1122.45 -4.9003 3.49506 0
M  V30 11554 H 1126.28 -1.75283 2.48011 0
M  V30 11555 H 1123.86 -0.807774 1.2568 0
M  V30 11556 H 1125.75 -3.96633 1.42339 0
M  V30 11557 H 1124.42 -3.19691 0.50789 0
M  V30 11558 H 1123.33 -2.55341 2.73407 0
M  V30 11559 H 1124.66 -3.37386 3.58373 0
M  V30 11560 N 1126.31 -1.30234 -0.887518 0
M  V30 11561 C 1127.56 -1.1891 -1.6391 0
M  V30 11562 C 1127.89 0.256749 -1.92798 0
M  V30 11563 O 1127.14 1.20047 -1.54555 0
M  V30 11564 C 1127.44 -1.96046 -2.98832 0
M  V30 11565 C 1127.11 -3.45683 -2.89507 0
M  V30 11566 C 1125.77 -3.86489 -2.8667 0
M  V30 11567 C 1128.12 -4.40983 -2.7782 0
M  V30 11568 C 1125.45 -5.2089 -2.69982 0
M  V30 11569 C 1127.8 -5.75489 -2.6267 0
M  V30 11570 C 1126.47 -6.15537 -2.58207 0
M  V30 11571 H 1125.74 -0.435123 -0.599791 0
M  V30 11572 H 1128.38 -1.61308 -1.03209 0
M  V30 11573 H 1126.69 -1.46275 -3.6347 0
M  V30 11574 H 1128.38 -1.84678 -3.55942 0
M  V30 11575 H 1124.97 -3.13255 -2.92523 0
M  V30 11576 H 1129.16 -4.10401 -2.79079 0
M  V30 11577 H 1124.41 -5.51014 -2.6494 0
M  V30 11578 H 1128.59 -6.48973 -2.526 0
M  V30 11579 H 1126.22 -7.19627 -2.45034 0
M  V30 11580 N 1127.79 1.09952 -1.12909 0
M  V30 11581 C 1128.75 2.14615 -0.804548 0
M  V30 11582 C 1129.75 1.5975 0.18345 0
M  V30 11583 O 1130.94 1.74147 -0.0429623 0
M  V30 11584 C 1128.08 3.40333 -0.196471 0
M  V30 11585 H 1129.27 2.44835 -1.73193 0
M  V30 11586 H 1126.82 1.25399 -0.932997 0
M  V30 11587 H 1127.56 3.15735 0.740388 0
M  V30 11588 H 1127.34 3.81444 -0.907886 0
M  V30 11589 H 1128.83 4.17598 0.0139264 0
M  V30 11590 N 1129.27 0.921757 1.27833 0
M  V30 11591 C 1130.22 0.414838 2.27041 0
M  V30 11592 C 1131.19 -0.515045 1.57913 0
M  V30 11593 O 1132.37 -0.435499 1.85763 0
M  V30 11594 C 1129.51 -0.331744 3.43502 0
M  V30 11595 C 1128.62 0.631565 4.27358 0
M  V30 11596 C 1127.76 -0.134265 5.3103 0
M  V30 11597 C 1126.8 0.822138 6.06554 0
M  V30 11598 N 1125.93 0.0893149 7.02043 0
M  V30 11599 H 1130.77 1.26585 2.69778 0
M  V30 11600 H 1128.31 0.635488 1.32665 0
M  V30 11601 H 1130.27 -0.780866 4.09827 0
M  V30 11602 H 1128.9 -1.14704 3.01733 0
M  V30 11603 H 1127.95 1.19922 3.61003 0
M  V30 11604 H 1129.26 1.36274 4.79824 0
M  V30 11605 H 1128.42 -0.643579 6.03277 0
M  V30 11606 H 1127.16 -0.898443 4.79353 0
M  V30 11607 H 1126.16 1.34275 5.33151 0
M  V30 11608 H 1127.39 1.586 6.6032 0
M  V30 11609 H 1125.33 -0.656725 6.52704 0
M  V30 11610 H 1125.25 0.760167 7.52169 0
M  V30 11611 H 1126.52 -0.399541 7.78475 0
M  V30 11612 N 1130.75 -1.41857 0.686609 0
M  V30 11613 C 1131.99 -2.01368 0.213801 0
M  V30 11614 C 1132.32 -1.5434 -1.18361 0
M  V30 11615 O 1131.58 -0.741447 -1.81111 0
M  V30 11616 C 1131.88 -3.56783 0.209951 0
M  V30 11617 C 1131.54 -4.23288 1.55365 0
M  V30 11618 C 1130.2 -4.41169 1.92154 0
M  V30 11619 C 1132.56 -4.6066 2.43807 0
M  V30 11620 C 1129.88 -4.93697 3.16986 0
M  V30 11621 C 1132.24 -5.14573 3.67963 0
M  V30 11622 C 1130.9 -5.30667 4.04906 0
M  V30 11623 H 1130.17 -0.736858 0.0782352 0
M  V30 11624 H 1132.82 -1.69879 0.88393 0
M  V30 11625 H 1131.12 -3.88009 -0.543712 0
M  V30 11626 H 1132.82 -4.00625 -0.173267 0
M  V30 11627 H 1129.41 -4.09738 1.2575 0
M  V30 11628 H 1133.59 -4.46507 2.16668 0
M  V30 11629 H 1128.85 -5.04342 3.45615 0
M  V30 11630 H 1133.02 -5.42473 4.36687 0
M  V30 11631 H 1130.65 -5.71133 5.01709 0
M  V30 11632 N 1132.22 -0.430739 -1.51599 0
M  V30 11633 C 1133.13 0.390347 -2.3133 0
M  V30 11634 C 1134.15 1.03376 -1.39962 0
M  V30 11635 O 1135.33 1.03057 -1.73035 0
M  V30 11636 C 1132.39 1.48039 -3.13505 0
M  V30 11637 C 1131.45 0.857792 -4.20643 0
M  V30 11638 C 1130.69 1.89589 -4.9889 0
M  V30 11639 O 1130.91 3.11717 -4.77691 0
M  V30 11640 O 1129.84 1.49009 -5.83164 0
M  V30 11641 H 1133.67 -0.260358 -3.02582 0
M  V30 11642 H 1131.25 -0.193428 -1.48143 0
M  V30 11643 H 1133.14 2.11272 -3.64612 0
M  V30 11644 H 1131.81 2.1153 -2.45024 0
M  V30 11645 H 1130.72 0.187592 -3.73629 0
M  V30 11646 H 1132.05 0.266474 -4.91478 0
M  V30 11647 N 1133.7 1.56767 -0.161869 0
M  V30 11648 C 1134.65 2.17502 0.772102 0
M  V30 11649 C 1135.62 1.11223 1.23364 0
M  V30 11650 O 1136.8 1.39332 1.30351 0
M  V30 11651 C 1133.94 2.81248 1.99984 0
M  V30 11652 C 1133.06 4.01962 1.58274 0
M  V30 11653 C 1132.19 4.53662 2.76341 0
M  V30 11654 C 1131.23 5.66807 2.31076 0
M  V30 11655 N 1130.37 6.13059 3.42203 0
M  V30 11656 H 1135.21 2.96971 0.247382 0
M  V30 11657 H 1132.75 1.46685 0.110382 0
M  V30 11658 H 1134.7 3.16359 2.7198 0
M  V30 11659 H 1133.33 2.04398 2.49842 0
M  V30 11660 H 1132.39 3.72733 0.759874 0
M  V30 11661 H 1133.7 4.83891 1.2104 0
M  V30 11662 H 1132.85 4.90905 3.56507 0
M  V30 11663 H 1131.59 3.7077 3.16829 0
M  V30 11664 H 1130.6 5.29125 1.49354 0
M  V30 11665 H 1131.82 6.51494 1.91657 0
M  V30 11666 H 1129.77 5.33099 3.82285 0
M  V30 11667 H 1129.68 6.89953 3.09033 0
M  V30 11668 H 1130.95 6.54951 4.22682 0
M  V30 11669 N 1135.18 -0.111886 1.57202 0
M  V30 11670 C 1136.09 -1.1556 2.04165 0
M  V30 11671 C 1137.11 -1.44898 0.963354 0
M  V30 11672 O 1138.28 -1.55873 1.27536 0
M  V30 11673 C 1135.35 -2.46048 2.44256 0
M  V30 11674 C 1134.41 -2.24043 3.66201 0
M  V30 11675 C 1133.64 -3.4831 4.04371 0
M  V30 11676 O 1133.86 -4.55895 3.42806 0
M  V30 11677 O 1132.8 -3.38891 4.9743 0
M  V30 11678 H 1136.62 -0.786778 2.93332 0
M  V30 11679 H 1134.21 -0.323196 1.45862 0
M  V30 11680 H 1136.09 -3.22916 2.70745 0
M  V30 11681 H 1134.77 -2.8239 1.58233 0
M  V30 11682 H 1133.67 -1.4501 3.44852 0
M  V30 11683 H 1135.01 -1.92602 4.52952 0
M  V30 11684 N 1136.66 -1.52894 -0.382264 0
M  V30 11685 C 1137.61 -1.78151 -1.46734 0
M  V30 11686 C 1138.58 -0.625034 -1.53891 0
M  V30 11687 O 1139.76 -0.865467 -1.70042 0
M  V30 11688 C 1136.9 -1.96223 -2.83885 0
M  V30 11689 C 1136.01 -3.23925 -2.85826 0
M  V30 11690 C 1135.15 -3.32277 -4.14446 0
M  V30 11691 C 1134.19 -4.54076 -4.10465 0
M  V30 11692 N 1133.32 -4.59672 -5.30703 0
M  V30 11693 H 1138.16 -2.70748 -1.24497 0
M  V30 11694 H 1135.7 -1.34135 -0.603838 0
M  V30 11695 H 1137.66 -2.04686 -3.63537 0
M  V30 11696 H 1136.29 -1.0698 -3.04557 0
M  V30 11697 H 1135.34 -3.245 -1.98505 0
M  V30 11698 H 1136.65 -4.1364 -2.78754 0
M  V30 11699 H 1135.81 -3.3996 -5.02506 0
M  V30 11700 H 1134.55 -2.40548 -4.2425 0
M  V30 11701 H 1133.55 -4.46511 -3.20793 0
M  V30 11702 H 1134.78 -5.47128 -4.02278 0
M  V30 11703 H 1132.72 -3.70838 -5.41124 0
M  V30 11704 H 1132.64 -5.43268 -5.25734 0
M  V30 11705 H 1133.91 -4.71618 -6.20642 0
M  V30 11706 N 1138.14 0.641106 -1.43971 0
M  V30 11707 C 1139.07 1.76599 -1.44527 0
M  V30 11708 C 1140.05 1.59709 -0.305257 0
M  V30 11709 O 1141.23 1.81728 -0.50071 0
M  V30 11710 C 1138.36 3.14052 -1.26843 0
M  V30 11711 C 1137.41 3.49615 -2.44278 0
M  V30 11712 S 1138.24 3.4822 -4.06821 0
M  V30 11713 C 1139.39 4.8831 -3.91541 0
M  V30 11714 H 1139.63 1.75858 -2.3971 0
M  V30 11715 H 1137.16 0.814834 -1.31148 0
M  V30 11716 H 1139.12 3.93376 -1.17327 0
M  V30 11717 H 1137.78 3.12342 -0.331872 0
M  V30 11718 H 1136.97 4.49611 -2.2774 0
M  V30 11719 H 1136.57 2.77732 -2.50482 0
M  V30 11720 H 1138.87 5.77282 -3.54615 0
M  V30 11721 H 1139.81 5.099 -4.91333 0
M  V30 11722 H 1140.22 4.62414 -3.2378 0
M  V30 11723 N 1139.62 1.30703 0.880598 0
M  V30 11724 C 1140.56 1.17369 2.00817 0
M  V30 11725 C 1141.56 0.0845159 1.69189 0
M  V30 11726 O 1142.76 0.245673 1.78316 0
M  V30 11727 H 1139.14 0.363107 0.658527 0
M  V30 11728 H 1141.11 2.12789 2.09197 0
M  V30 11729 C 1139.86 0.886851 3.362 0
M  V30 11730 H 1139.18 1.71704 3.61051 0
M  V30 11731 H 1140.62 0.83368 4.15723 0
M  V30 11732 C 1139.08 -0.410293 3.34392 0
M  V30 11733 O 1139.61 -1.43044 3.75368 0
M  V30 11734 N 1137.82 -0.423023 2.87505 0
M  V30 11735 H 1137.36 0.407637 2.54354 0
M  V30 11736 H 1137.32 -1.29086 2.86678 0
M  V30 11737 N 1141.09 -1.09351 1.1349 0
M  V30 11738 C 1142.06 -2.14185 0.815919 0
M  V30 11739 C 1143.06 -1.59845 -0.174976 0
M  V30 11740 O 1144.25 -1.74122 0.0521971 0
M  V30 11741 C 1141.38 -3.40224 0.214517 0
M  V30 11742 H 1142.57 -2.43913 1.74489 0
M  V30 11743 H 1140.12 -1.24902 0.939634 0
M  V30 11744 H 1140.86 -3.16123 -0.723634 0
M  V30 11745 H 1140.64 -3.80958 0.928102 0
M  V30 11746 H 1142.13 -4.17599 0.00821999 0
M  V30 11747 N 1142.57 -0.928524 -1.27343 0
M  V30 11748 C 1143.52 -0.426873 -2.26818 0
M  V30 11749 C 1144.49 0.506663 -1.58184 0
M  V30 11750 O 1145.67 0.425641 -1.85992 0
M  V30 11751 C 1142.81 0.313523 -3.43673 0
M  V30 11752 C 1141.93 -0.65422 -4.27018 0
M  V30 11753 C 1141.06 0.106102 -5.31094 0
M  V30 11754 C 1140.1 -0.854293 -6.06109 0
M  V30 11755 N 1139.24 -0.126545 -7.01986 0
M  V30 11756 H 1144.08 -1.28014 -2.69103 0
M  V30 11757 H 1141.61 -0.642515 -1.32326 0
M  V30 11758 H 1143.57 0.75912 -4.10236 0
M  V30 11759 H 1142.2 1.13102 -3.02337 0
M  V30 11760 H 1141.25 -1.21834 -3.60362 0
M  V30 11761 H 1142.57 -1.38817 -4.79094 0
M  V30 11762 H 1141.72 0.611577 -6.0361 0
M  V30 11763 H 1140.46 0.873009 -4.79823 0
M  V30 11764 H 1139.46 -1.37101 -5.32432 0
M  V30 11765 H 1140.69 -1.621 -6.5947 0
M  V30 11766 H 1138.64 0.622102 -6.53044 0
M  V30 11767 H 1138.55 -0.800046 -7.51755 0
M  V30 11768 H 1139.82 0.358251 -7.78676 0
M  V30 11769 N 1144.05 1.41491 -0.694123 0
M  V30 11770 C 1145.3 2.02055 -0.233559 0
M  V30 11771 C 1145.65 1.53987 1.1535 0
M  V30 11772 O 1144.94 0.740611 1.76707 0
M  V30 11773 C 1145.14 3.56666 -0.228869 0
M  V30 11774 C 1144.97 4.1974 -1.61394 0
M  V30 11775 C 1143.74 4.54095 -2.21643 0
M  V30 11776 C 1145.93 4.46043 -2.56028 0
M  V30 11777 N 1143.92 5.02449 -3.5273 0
M  V30 11778 C 1145.29 4.96156 -3.71792 0
M  V30 11779 C 1147.34 4.28053 -2.54313 0
M  V30 11780 C 1146.05 5.3017 -4.8612 0
M  V30 11781 C 1148.07 4.63155 -3.67752 0
M  V30 11782 C 1147.43 5.13438 -4.82246 0
M  V30 11783 H 1143.53 0.77098 -0.130821 0
M  V30 11784 H 1146.12 1.72057 -0.91129 0
M  V30 11785 H 1144.29 3.8614 0.418344 0
M  V30 11786 H 1146.02 4.03949 0.246387 0
M  V30 11787 H 1142.77 4.40501 -1.73943 0
M  V30 11788 H 1143.2 5.31033 -4.1992 0
M  V30 11789 H 1147.84 3.88416 -1.67011 0
M  V30 11790 H 1145.56 5.68731 -5.74083 0
M  V30 11791 H 1149.14 4.50895 -3.67675 0
M  V30 11792 H 1148.02 5.4009 -5.6857 0
M  V30 11793 N 1145.53 0.438773 1.51369 0
M  V30 11794 C 1146.8 -0.18722 1.94702 0
M  V30 11795 C 1147.18 -1.59962 1.37752 0
M  V30 11796 O 1146.53 -2.214 0.565171 0
M  V30 11797 C 1146.74 -0.163491 3.48617 0
M  V30 11798 C 1148.09 -0.368355 4.22999 0
M  V30 11799 O 1149.11 -0.241541 3.5538 0
M  V30 11800 O 1147.97 -0.620916 5.42961 0
M  V30 11801 H 1145.07 -0.129194 0.816846 0
M  V30 11802 H 1147.61 0.496855 1.62263 0
M  V30 11803 H 1146.39 0.823882 3.82528 0
M  V30 11804 H 1146.01 -0.890414 3.87501 0
M  V30 11805 N 1147.01 -1.56678 0.170181 0
M  V30 11806 C 1148.23 -2.01223 -0.481362 0
M  V30 11807 C 1148.65 -1.05039 -1.56883 0
M  V30 11808 O 1148.01 -0.0510751 -1.82429 0
M  V30 11809 C 1148.06 -3.45588 -1.06073 0
M  V30 11810 O 1147.78 -4.38097 -0.0166754 0
M  V30 11811 C 1149.28 -4.05527 -1.79061 0
M  V30 11812 H 1146.5 -0.659574 -0.1233 0
M  V30 11813 H 1149.04 -2.02689 0.271576 0
M  V30 11814 H 1147.2 -3.449 -1.76417 0
M  V30 11815 H 1147.61 -5.22615 -0.444276 0
M  V30 11816 H 1149.09 -5.08467 -2.1486 0
M  V30 11817 H 1149.56 -3.47554 -2.68519 0
M  V30 11818 H 1150.17 -4.09914 -1.13361 0
M  V30 11819 N 1148.48 0.103547 -1.57259 0
M  V30 11820 C 1149.73 0.806979 -1.8529 0
M  V30 11821 C 1150.05 1.79679 -0.757653 0
M  V30 11822 O 1149.32 1.94695 0.216913 0
M  V30 11823 H 1147.9 0.301012 -0.683667 0
M  V30 11824 H 1150.56 0.0871886 -1.94705 0
M  V30 11825 H 1149.66 1.34275 -2.81738 0
M  V30 11826 N 1149.96 1.53094 0.37415 0
M  V30 11827 C 1150.87 1.81872 1.48188 0
M  V30 11828 C 1151.89 0.706487 1.59012 0
M  V30 11829 O 1153.06 0.995648 1.75068 0
M  V30 11830 C 1150.13 1.99494 2.83554 0
M  V30 11831 C 1149.19 3.23402 2.82329 0
M  V30 11832 C 1148.42 3.40174 4.11239 0
M  V30 11833 O 1148.65 2.61425 5.06965 0
M  V30 11834 O 1147.58 4.33493 4.17573 0
M  V30 11835 H 1151.41 2.75965 1.26795 0
M  V30 11836 H 1148.99 1.38368 0.56343 0
M  V30 11837 H 1150.87 2.12705 3.63778 0
M  V30 11838 H 1149.55 1.08591 3.04942 0
M  V30 11839 H 1148.45 3.15621 2.00834 0
M  V30 11840 H 1149.79 4.14199 2.65894 0
M  V30 11841 N 1151.44 -0.633461 1.44309 0
M  V30 11842 C 1152.39 -1.76674 1.51292 0
M  V30 11843 C 1153.38 -1.64972 0.384807 0
M  V30 11844 O 1154.59 -1.71079 0.559653 0
M  V30 11845 H 1150.96 -0.583238 0.474697 0
M  V30 11846 H 1152.93 -1.67907 2.46678 0
M  V30 11847 C 1151.68 -3.15002 1.47205 0
M  V30 11848 H 1151.01 -3.24653 2.33325 0
M  V30 11849 H 1152.45 -3.94199 1.56151 0
M  V30 11850 C 1150.9 -3.3635 0.192464 0
M  V30 11851 O 1151.43 -3.94857 -0.738285 0
M  V30 11852 N 1149.64 -2.9044 0.0963424 0
M  V30 11853 H 1149.19 -2.43011 0.85459 0
M  V30 11854 H 1149.15 -3.05099 -0.759061 0
M  V30 11855 N 1152.92 -1.31168 -0.873655 0
M  V30 11856 C 1154.33 -1.18584 -1.44203 0
M  V30 11857 C 1154.68 0.209114 -1.95082 0
M  V30 11858 O 1153.81 1.10662 -1.85965 0
M  V30 11859 C 1154.4 -2.14668 -2.62112 0
M  V30 11860 C 1152.96 -2.06029 -3.15006 0
M  V30 11861 C 1152.11 -2.04106 -1.87712 0
M  V30 11862 H 1155.06 -1.43273 -0.682536 0
M  V30 11863 H 1155.08 -1.73413 -3.38686 0
M  V30 11864 H 1154.59 -3.16186 -2.25051 0
M  V30 11865 H 1152.69 -1.07693 -3.56697 0
M  V30 11866 H 1152.8 -2.9496 -3.77539 0
M  V30 11867 H 1151.17 -1.49069 -2.0652 0
M  V30 11868 H 1151.95 -3.07373 -1.52894 0
M  V30 11869 N 1154.4 1.08748 -1.14068 0
M  V30 11870 C 1155.65 1.8044 -0.901352 0
M  V30 11871 C 1155.96 1.86995 0.573791 0
M  V30 11872 O 1157.16 2.55065 0.930275 0
M  V30 11873 C 1155.62 3.24185 -1.56308 0
M  V30 11874 C 1155.23 3.25875 -3.07424 0
M  V30 11875 C 1156.97 4.00584 -1.40473 0
M  V30 11876 C 1154.88 4.64186 -3.66449 0
M  V30 11877 H 1153.81 0.676201 -0.333569 0
M  V30 11878 H 1156.46 1.22169 -1.3692 0
M  V30 11879 H 1154.84 3.82561 -1.0229 0
M  V30 11880 H 1156.02 2.77225 -3.6808 0
M  V30 11881 H 1154.33 2.62969 -3.22856 0
M  V30 11882 H 1156.93 5.02781 -1.81976 0
M  V30 11883 H 1157.27 4.14823 -0.350408 0
M  V30 11884 H 1157.8 3.48668 -1.91508 0
M  V30 11885 H 1154.54 4.5515 -4.71719 0
M  V30 11886 H 1154.06 5.13132 -3.10574 0
M  V30 11887 H 1155.74 5.33161 -3.66536 0
M  V30 11888 N 1155.87 0.935264 1.26849 0
M  V30 11889 C 1157.1 0.595384 1.97835 0
M  V30 11890 C 1157.51 -0.832605 1.69895 0
M  V30 11891 O 1156.86 -1.56597 0.960371 0
M  V30 11892 C 1156.92 0.750567 3.51578 0
M  V30 11893 C 1156.58 2.15208 4.03156 0
M  V30 11894 C 1157.58 3.12699 4.15349 0
M  V30 11895 C 1155.26 2.47106 4.37314 0
M  V30 11896 C 1157.26 4.40193 4.60987 0
M  V30 11897 C 1154.94 3.74834 4.82641 0
M  V30 11898 C 1155.94 4.7119 4.94438 0
M  V30 11899 O 1155.63 5.96644 5.38768 0
M  V30 11900 H 1155.36 0.223734 0.637902 0
M  V30 11901 H 1157.92 1.25663 1.62475 0
M  V30 11902 H 1156.15 0.0322039 3.86687 0
M  V30 11903 H 1157.84 0.414625 4.03777 0
M  V30 11904 H 1158.6 2.89378 3.89211 0
M  V30 11905 H 1154.48 1.72846 4.2737 0
M  V30 11906 H 1158.02 5.15406 4.70109 0
M  V30 11907 H 1153.92 3.9797 5.08222 0
M  V30 11908 H 1154.69 5.99741 5.57003 0
M  V30 11909 N 1157.35 -1.41121 0.701616 0
M  V30 11910 C 1158.3 -2.30765 0.040121 0
M  V30 11911 C 1159.27 -1.47436 -0.764975 0
M  V30 11912 O 1160.45 -1.76209 -0.731775 0
M  V30 11913 C 1157.59 -3.33535 -0.885903 0
M  V30 11914 C 1156.71 -4.3194 -0.0717765 0
M  V30 11915 C 1155.84 -5.21779 -0.995996 0
M  V30 11916 C 1154.88 -6.11849 -0.175133 0
M  V30 11917 N 1154.02 -6.94151 -1.05348 0
M  V30 11918 H 1158.86 -2.86772 0.810312 0
M  V30 11919 H 1156.4 -1.41233 0.411301 0
M  V30 11920 H 1158.35 -3.91675 -1.4369 0
M  V30 11921 H 1156.98 -2.79065 -1.62243 0
M  V30 11922 H 1156.04 -3.75698 0.596221 0
M  V30 11923 H 1157.35 -4.95597 0.56435 0
M  V30 11924 H 1156.5 -5.84782 -1.61601 0
M  V30 11925 H 1155.24 -4.58363 -1.66597 0
M  V30 11926 H 1154.25 -5.4789 0.457916 0
M  V30 11927 H 1155.47 -6.77322 0.491133 0
M  V30 11928 H 1153.42 -6.33338 -1.70936 0
M  V30 11929 H 1153.33 -7.54518 -0.473065 0
M  V30 11930 H 1154.6 -7.61617 -1.66012 0
M  V30 11931 N 1158.83 -0.446794 -1.51134 0
M  V30 11932 C 1160.06 0.117242 -2.07068 0
M  V30 11933 C 1160.48 1.34877 -1.3111 0
M  V30 11934 O 1159.84 1.77856 -0.35172 0
M  V30 11935 C 1159.89 0.408616 -3.58277 0
M  V30 11936 O 1158.99 1.49345 -3.84408 0
M  V30 11937 H 1158.33 -0.00228458 -0.663996 0
M  V30 11938 H 1160.86 -0.63085 -1.94632 0
M  V30 11939 H 1160.87 0.656298 -4.02687 0
M  V30 11940 H 1159.55 -0.491444 -4.12986 0
M  V30 11941 H 1158.12 1.23499 -3.51856 0
M  V30 11942 N 1160.31 1.56586 -0.178487 0
M  V30 11943 C 1161.27 2.17091 0.73512 0
M  V30 11944 C 1162.27 1.12088 1.15295 0
M  V30 11945 O 1163.46 1.37563 1.06874 0
M  V30 11946 C 1160.59 2.75957 2.00151 0
M  V30 11947 H 1161.79 2.99176 0.208272 0
M  V30 11948 H 1159.34 1.56138 0.0710967 0
M  V30 11949 H 1160.07 1.97626 2.57127 0
M  V30 11950 H 1159.86 3.52809 1.7108 0
M  V30 11951 H 1161.35 3.2247 2.65335 0
M  V30 11952 N 1161.79 -0.095206 1.57312 0
M  V30 11953 C 1163.03 -0.799903 1.86358 0
M  V30 11954 C 1163.37 -1.78386 0.767593 0
M  V30 11955 O 1162.64 -1.93201 -0.224439 0
M  V30 11956 C 1162.92 -1.52875 3.26039 0
M  V30 11957 C 1162.78 -0.562781 4.46265 0
M  V30 11958 C 1164.1 -2.47935 3.63616 0
M  V30 11959 H 1161.21 -0.289339 0.677829 0
M  V30 11960 H 1163.86 -0.0635369 1.89894 0
M  V30 11961 H 1162.01 -2.15645 3.23156 0
M  V30 11962 H 1163.68 0.0579068 4.61264 0
M  V30 11963 H 1161.92 0.123847 4.33623 0
M  V30 11964 H 1162.59 -1.10989 5.40727 0
M  V30 11965 H 1165.07 -1.95257 3.67442 0
M  V30 11966 H 1163.94 -2.95948 4.62283 0
M  V30 11967 H 1164.21 -3.31687 2.92294 0
M  V30 11968 N 1163.26 -1.53291 -0.366026 0
M  V30 11969 C 1164.49 -1.73359 -1.12934 0
M  V30 11970 C 1164.91 -0.462352 -1.83051 0
M  V30 11971 O 1164.26 0.564711 -1.73543 0
M  V30 11972 C 1164.32 -2.89873 -2.15999 0
M  V30 11973 O 1164.04 -4.12079 -1.48737 0
M  V30 11974 C 1165.54 -3.21811 -3.04881 0
M  V30 11975 H 1162.76 -0.579827 -0.337701 0
M  V30 11976 H 1165.3 -2.00033 -0.425081 0
M  V30 11977 H 1163.46 -2.65595 -2.82025 0
M  V30 11978 H 1163.87 -4.77322 -2.17404 0
M  V30 11979 H 1165.34 -4.06744 -3.7318 0
M  V30 11980 H 1165.82 -2.37156 -3.69667 0
M  V30 11981 H 1166.43 -3.48013 -2.44473 0
M  V30 11982 N 1164.74 0.6258 -1.44643 0
M  V30 11983 C 1165.97 1.41233 -1.51198 0
M  V30 11984 C 1166.39 1.88291 -0.138572 0
M  V30 11985 O 1165.74 1.61151 0.856537 0
M  V30 11986 C 1165.79 2.62908 -2.48117 0
M  V30 11987 O 1165.51 2.1781 -3.80119 0
M  V30 11988 C 1167.02 3.55976 -2.6419 0
M  V30 11989 H 1164.24 0.432954 -0.512632 0
M  V30 11990 H 1166.78 0.76486 -1.89658 0
M  V30 11991 H 1164.93 3.23735 -2.12778 0
M  V30 11992 H 1165.35 2.96732 -4.32493 0
M  V30 11993 H 1166.82 4.37943 -3.3602 0
M  V30 11994 H 1167.3 4.05133 -1.696 0
M  V30 11995 H 1167.91 3.01014 -3.00451 0
M  V30 11996 N 1166.22 1.31629 0.866686 0
M  V30 11997 C 1167.47 1.21683 1.62238 0
M  V30 11998 C 1167.8 -0.223767 1.92907 0
M  V30 11999 O 1167.07 -1.15761 1.563 0
M  V30 12000 C 1167.36 2.06443 2.95048 0
M  V30 12001 C 1167.21 3.58818 2.71237 0
M  V30 12002 C 1168.53 1.91634 3.96187 0
M  V30 12003 H 1165.65 0.443389 0.588707 0
M  V30 12004 H 1168.29 1.61453 1.00164 0
M  V30 12005 H 1166.44 1.72654 3.48027 0
M  V30 12006 H 1168.11 4.0276 2.24905 0
M  V30 12007 H 1166.36 3.82085 2.05411 0
M  V30 12008 H 1167.03 4.13436 3.65752 0
M  V30 12009 H 1169.5 2.21209 3.52428 0
M  V30 12010 H 1168.38 2.53236 4.86993 0
M  V30 12011 H 1168.64 0.880564 4.33242 0
M  V30 12012 N 1167.7 -1.08142 1.14644 0
M  V30 12013 C 1168.95 -1.80849 0.917685 0
M  V30 12014 C 1169.28 -1.86123 -0.554249 0
M  V30 12015 O 1168.55 -1.33907 -1.41065 0
M  V30 12016 C 1168.84 -3.26325 1.52264 0
M  V30 12017 C 1168.69 -3.29244 3.06461 0
M  V30 12018 C 1170.01 -4.23375 1.20175 0
M  V30 12019 H 1167.13 -0.656559 0.334812 0
M  V30 12020 H 1169.77 -1.26595 1.41682 0
M  V30 12021 H 1167.92 -3.72656 1.09817 0
M  V30 12022 H 1169.59 -2.91216 3.57758 0
M  V30 12023 H 1167.83 -2.68438 3.40769 0
M  V30 12024 H 1168.51 -4.31785 3.43897 0
M  V30 12025 H 1170.98 -3.85394 1.56877 0
M  V30 12026 H 1169.86 -5.23472 1.65132 0
M  V30 12027 H 1170.12 -4.41944 0.117474 0
M  V30 12028 N 1169.18 -0.941978 -1.26351 0
M  V30 12029 C 1170.13 -0.443011 -2.28342 0
M  V30 12030 C 1171.12 0.48013 -1.62453 0
M  V30 12031 O 1172.33 0.358255 -1.76399 0
M  V30 12032 H 1168.7 -0.124728 -0.741584 0
M  V30 12033 H 1170.67 -1.31573 -2.67827 0
M  V30 12034 C 1169.42 0.275675 -3.46605 0
M  V30 12035 H 1168.74 -0.425504 -3.97529 0
M  V30 12036 H 1170.18 0.589012 -4.19889 0
M  V30 12037 C 1168.64 1.49376 -3.01974 0
M  V30 12038 O 1169.17 2.59203 -3.06883 0
M  V30 12039 N 1167.38 1.35061 -2.57307 0
M  V30 12040 H 1166.93 0.457045 -2.53513 0
M  V30 12041 H 1166.88 2.16681 -2.27809 0
M  V30 12042 N 1170.66 1.40747 -0.709091 0
M  V30 12043 C 1172.07 1.83955 -0.318968 0
M  V30 12044 C 1172.42 1.59304 1.14527 0
M  V30 12045 O 1171.54 1.07052 1.88066 0
M  V30 12046 C 1172.14 3.33934 -0.572147 0
M  V30 12047 C 1170.7 3.75661 -0.235802 0
M  V30 12048 C 1169.84 2.64024 -0.847743 0
M  V30 12049 H 1172.79 1.30107 -0.908734 0
M  V30 12050 H 1172.82 3.80143 0.164752 0
M  V30 12051 H 1172.33 3.51844 -1.63791 0
M  V30 12052 H 1170.43 3.63348 0.825164 0
M  V30 12053 H 1170.54 4.73955 -0.700263 0
M  V30 12054 H 1168.91 2.53197 -0.276283 0
M  V30 12055 H 1169.69 2.84748 -1.91765 0
M  V30 12056 N 1172.13 0.454803 1.50895 0
M  V30 12057 C 1173.08 -0.347769 2.28165 0
M  V30 12058 C 1174.05 -1.00158 1.32505 0
M  V30 12059 O 1175.24 -1.01715 1.61427 0
M  V30 12060 C 1172.38 -1.43315 3.13934 0
M  V30 12061 C 1171.49 -0.795736 4.24608 0
M  V30 12062 C 1170.62 -1.85763 4.9766 0
M  V30 12063 C 1169.66 -1.19959 6.0023 0
M  V30 12064 N 1168.8 -2.20361 6.66622 0
M  V30 12065 H 1173.64 0.317493 2.96304 0
M  V30 12066 H 1171.18 0.168418 1.46133 0
M  V30 12067 H 1173.13 -2.07391 3.62001 0
M  V30 12068 H 1171.76 -2.0678 2.47875 0
M  V30 12069 H 1170.82 -0.0428173 3.80376 0
M  V30 12070 H 1172.13 -0.275477 4.98039 0
M  V30 12071 H 1171.28 -2.5746 5.49363 0
M  V30 12072 H 1170.02 -2.41166 4.23899 0
M  V30 12073 H 1169.03 -0.46817 5.47803 0
M  V30 12074 H 1170.25 -0.652666 6.75956 0
M  V30 12075 H 1168.2 -2.74812 5.95663 0
M  V30 12076 H 1168.11 -1.73275 7.35875 0
M  V30 12077 H 1169.38 -2.91488 7.22949 0
M  V30 12078 N 1173.61 -1.56489 0.186789 0
M  V30 12079 C 1174.84 -2.01429 -0.459326 0
M  V30 12080 C 1175.25 -1.06611 -1.56303 0
M  V30 12081 O 1174.59 -0.0617053 -1.83596 0
M  V30 12082 C 1174.65 -3.42778 -1.08367 0
M  V30 12083 C 1174.32 -4.56843 -0.119719 0
M  V30 12084 C 1175.32 -5.15594 0.667782 0
M  V30 12085 C 1173 -5.02299 -0.0110494 0
M  V30 12086 C 1174.99 -6.18242 1.551 0
M  V30 12087 C 1172.68 -6.04793 0.875738 0
M  V30 12088 C 1173.68 -6.62637 1.65534 0
M  V30 12089 O 1173.37 -7.63141 2.52728 0
M  V30 12090 H 1173.1 -0.665175 -0.120492 0
M  V30 12091 H 1175.65 -2.03338 0.290283 0
M  V30 12092 H 1173.88 -3.3783 -1.8817 0
M  V30 12093 H 1175.57 -3.71577 -1.63357 0
M  V30 12094 H 1176.34 -4.81348 0.594085 0
M  V30 12095 H 1172.22 -4.56977 -0.607667 0
M  V30 12096 H 1175.76 -6.63319 2.15995 0
M  V30 12097 H 1171.66 -6.38462 0.950581 0
M  V30 12098 H 1172.43 -7.80527 2.46415 0
M  V30 12099 N 1175.09 0.086862 -1.5736 0
M  V30 12100 C 1176 1.12297 -2.05977 0
M  V30 12101 C 1177.02 1.43347 -0.986284 0
M  V30 12102 O 1178.19 1.53825 -1.3 0
M  V30 12103 C 1175.26 2.42131 -2.4814 0
M  V30 12104 C 1174.32 2.18189 -3.69719 0
M  V30 12105 C 1173.55 3.41833 -4.09861 0
M  V30 12106 O 1173.77 4.50383 -3.50016 0
M  V30 12107 O 1172.71 3.30934 -5.02759 0
M  V30 12108 H 1176.53 0.740012 -2.94546 0
M  V30 12109 H 1174.12 0.29995 -1.46358 0
M  V30 12110 H 1176 3.18568 -2.75848 0
M  V30 12111 H 1174.68 2.79837 -1.62705 0
M  V30 12112 H 1173.58 1.39506 -3.47115 0
M  V30 12113 H 1174.92 1.85372 -4.55959 0
M  V30 12114 N 1176.57 1.53483 0.357892 0
M  V30 12115 C 1177.82 1.69701 1.09754 0
M  V30 12116 C 1178.14 0.455389 1.89608 0
M  V30 12117 O 1177.41 -0.530623 1.88577 0
M  V30 12118 H 1175.99 0.62562 0.408178 0
M  V30 12119 H 1178.65 1.90696 0.402641 0
M  V30 12120 H 1177.74 2.56154 1.78302 0
M  V30 12121 N 1178.05 -0.61812 1.44973 0
M  V30 12122 C 1178.99 -1.72942 1.52838 0
M  V30 12123 C 1179.96 -1.6181 0.375056 0
M  V30 12124 O 1181.15 -1.81544 0.587075 0
M  V30 12125 C 1178.29 -3.11228 1.49101 0
M  V30 12126 C 1177.4 -3.33243 2.74906 0
M  V30 12127 C 1176.54 -4.61574 2.62912 0
M  V30 12128 C 1175.57 -4.76811 3.8382 0
M  V30 12129 N 1174.71 -5.96432 3.70424 0
M  V30 12130 H 1179.55 -1.65556 2.47781 0
M  V30 12131 H 1177.09 -0.807411 1.2296 0
M  V30 12132 H 1179.05 -3.9122 1.44923 0
M  V30 12133 H 1177.68 -3.17598 0.577163 0
M  V30 12134 H 1176.73 -2.471 2.89216 0
M  V30 12135 H 1178.04 -3.40377 3.64616 0
M  V30 12136 H 1177.19 -5.49746 2.56641 0
M  V30 12137 H 1175.93 -4.5682 1.70784 0
M  V30 12138 H 1174.94 -3.87066 3.90461 0
M  V30 12139 H 1176.16 -4.83371 4.77001 0
M  V30 12140 H 1174.11 -5.92742 2.81057 0
M  V30 12141 H 1174.03 -6.0468 4.5376 0
M  V30 12142 H 1175.29 -6.8713 3.68067 0
M  V30 12143 O 1179.56 -1.42403 -0.761819 0
M  V30 12144 H 1180.25 -1.3282 -1.40992 0
M  V30 END ATOM
M  V30 BEGIN BOND
M  V30 END BOND
M  V30 END CTAB
M  END
$$$$
