drugbank_target|P0A7E1 Dihydroorotate dehydrogenase (quinone) (DB01942; DB02262; DB03247)
 OpenBabel12092119553D

  0  0  0     0  0            999 V3000
M  V30 BEGIN CTAB
M  V30 COUNTS 5239 5284 0 0 0
M  V30 BEGIN ATOM
M  V30 1 H -0.908 1.98254 -0.117106 0
M  V30 2 N 0 1.576 0 0
M  V30 3 C 0.933 2.03868 1.02534 0
M  V30 4 C 1.911 0.928543 1.3348 0
M  V30 5 O 3.095 1.19667 1.45644 0
M  V30 6 C 0.222 2.43627 2.35294 0
M  V30 7 C -0.732 3.65373 2.2001 0
M  V30 8 S 0.101 5.13292 1.52614 0
M  V30 9 C 1.257 5.56322 2.86805 0
M  V30 10 H 1.49 2.90518 0.631377 0
M  V30 11 H -0.977 1.52953 0.210867 0
M  V30 12 H 0.981 2.67203 3.11629 0
M  V30 13 H -0.358 1.57376 2.7183 0
M  V30 14 H -1.165 3.90944 3.18086 0
M  V30 15 H -1.563 3.418 1.51819 0
M  V30 16 H 0.729 5.58782 3.83104 0
M  V30 17 H 1.672 6.56266 2.65933 0
M  V30 18 H 2.08 4.83886 2.90714 0
M  V30 19 N 1.4781 -0.272755 1.55222 0
M  V30 20 C 2.7081 -1.02107 1.79604 0
M  V30 21 C 3.1161 -1.80419 0.569693 0
M  V30 22 O 2.4591 -1.77566 -0.470743 0
M  V30 23 C 2.5211 -2.02675 2.96922 0
M  V30 24 C 2.1851 -1.43299 4.33952 0
M  V30 25 C 3.1821 -0.84853 5.12929 0
M  V30 26 C 0.8671 -1.46012 4.8061 0
M  V30 27 C 2.8611 -0.299109 6.36698 0
M  V30 28 C 0.5481 -0.906833 6.04334 0
M  V30 29 C 1.5461 -0.32733 6.82215 0
M  V30 30 O 1.2341 0.217479 8.03606 0
M  V30 31 H 0.9661 -0.307322 0.602104 0
M  V30 32 H 3.5201 -0.308862 2.03065 0
M  V30 33 H 1.7501 -2.77656 2.69155 0
M  V30 34 H 3.4391 -2.63637 3.08626 0
M  V30 35 H 4.2051 -0.820265 4.78013 0
M  V30 36 H 0.0841 -1.90056 4.2 0
M  V30 37 H 3.6281 0.153852 6.9743 0
M  V30 38 H -0.4749 -0.932339 6.38731 0
M  V30 39 H 0.2931 0.106863 8.1843 0
M  V30 40 N 2.9562 -1.48159 -0.537278 0
M  V30 41 C 4.1862 -1.59223 -1.3165 0
M  V30 42 C 4.5942 -0.248849 -1.87556 0
M  V30 43 O 3.9372 0.770949 -1.6674 0
M  V30 44 C 3.9992 -2.57365 -2.51005 0
M  V30 45 C 3.6632 -4.02603 -2.16239 0
M  V30 46 C 4.6602 -4.90503 -1.72344 0
M  V30 47 C 2.3452 -4.48088 -2.26986 0
M  V30 48 C 4.3392 -6.21913 -1.39651 0
M  V30 49 C 2.0262 -5.7952 -1.93906 0
M  V30 50 C 3.0242 -6.66255 -1.50309 0
M  V30 51 O 2.7122 -7.95243 -1.17659 0
M  V30 52 H 2.4442 -0.539831 -0.406889 0
M  V30 53 H 4.9982 -1.94655 -0.655641 0
M  V30 54 H 3.2282 -2.1704 -3.20048 0
M  V30 55 H 4.9172 -2.58342 -3.13072 0
M  V30 56 H 5.6832 -4.56604 -1.63517 0
M  V30 57 H 1.5622 -3.80769 -2.59877 0
M  V30 58 H 5.1062 -6.89569 -1.0555 0
M  V30 59 H 1.0032 -6.12957 -2.02371 0
M  V30 60 H 1.7712 -8.0793 -1.31119 0
M  V30 61 N 4.4343 0.785586 -1.36625 0
M  V30 62 C 5.8453 1.36101 -1.27803 0
M  V30 63 C 6.1963 1.96035 0.0804875 0
M  V30 64 O 5.3213 1.92834 0.982042 0
M  V30 65 C 5.9163 2.47442 -2.31426 0
M  V30 66 C 4.4753 3.00789 -2.26281 0
M  V30 67 C 3.6223 1.73896 -2.15999 0
M  V30 68 H 6.5733 0.586928 -1.47448 0
M  V30 69 H 6.5943 3.2656 -1.95291 0
M  V30 70 H 6.1063 2.03791 -3.30289 0
M  V30 71 H 4.2073 3.48851 -1.30896 0
M  V30 72 H 4.3203 3.57343 -3.19128 0
M  V30 73 H 2.6843 1.9628 -1.62316 0
M  V30 74 H 3.4673 1.32368 -3.16755 0
M  V30 75 N 5.9124 1.20967 1.01018 0
M  V30 76 C 7.1594 1.02374 1.74716 0
M  V30 77 C 7.4874 -0.443375 1.89379 0
M  V30 78 O 6.7424 -1.34535 1.42123 0
M  V30 79 C 7.0414 1.65997 3.16512 0
M  V30 80 C 6.7074 3.15831 3.2181 0
M  V30 81 C 5.3694 3.56719 3.22963 0
M  V30 82 C 7.7214 4.11816 3.19464 0
M  V30 83 C 5.0494 4.92107 3.19449 0
M  V30 84 C 7.4014 5.47158 3.17491 0
M  V30 85 C 6.0654 5.87451 3.16951 0
M  V30 86 H 5.3354 0.374614 0.639332 0
M  V30 87 H 7.9824 1.50485 1.18434 0
M  V30 88 H 6.2874 1.10166 3.75993 0
M  V30 89 H 7.9844 1.49119 3.72242 0
M  V30 90 H 4.5744 2.83263 3.21652 0
M  V30 91 H 8.7584 3.81257 3.17737 0
M  V30 92 H 4.0144 5.22579 3.17366 0
M  V30 93 H 8.1884 6.21274 3.14629 0
M  V30 94 H 5.8154 6.92329 3.13983 0
M  V30 95 N 7.3905 -1.2043 1.01659 0
M  V30 96 C 8.6365 -1.90079 0.706963 0
M  V30 97 C 8.9695 -1.78648 -0.761474 0
M  V30 98 O 8.2445 -1.17069 -1.55323 0
M  V30 99 C 8.5275 -3.41469 1.14327 0
M  V30 100 C 8.3805 -3.61833 2.67201 0
M  V30 101 C 9.6995 -4.34261 0.714529 0
M  V30 102 H 6.8185 -0.690254 0.2583 0
M  V30 103 H 9.4605 -1.41826 1.26433 0
M  V30 104 H 7.6105 -3.82696 0.669056 0
M  V30 105 H 9.2825 -3.2986 3.22475 0
M  V30 106 H 7.5255 -3.05304 3.08175 0
M  V30 107 H 8.1965 -4.67955 2.92783 0
M  V30 108 H 10.6725 -4.00682 1.12221 0
M  V30 109 H 9.5485 -5.38806 1.04784 0
M  V30 110 H 9.8095 -4.40431 -0.383799 0
M  V30 111 N 8.8686 -0.792821 -1.36206 0
M  V30 112 C 10.2846 -0.474903 -1.52371 0
M  V30 113 C 10.4846 1.00622 -1.74578 0
M  V30 114 O 9.5406 1.79162 -1.77924 0
M  V30 115 C 10.8536 -1.3083 -2.70747 0
M  V30 116 C 12.4016 -1.30234 -2.84619 0
M  V30 117 C 12.8766 -2.11956 -4.06004 0
M  V30 118 N 14.3676 -2.09419 -4.13156 0
M  V30 119 C 15.1026 -2.69419 -5.06163 0
M  V30 120 N 14.5986 -3.3829 -6.04592 0
M  V30 121 N 16.3916 -2.59134 -4.98804 0
M  V30 122 H 8.5426 -1.75222 -1.20046 0
M  V30 123 H 10.8056 -0.745024 -0.586211 0
M  V30 124 H 10.5116 -2.35881 -2.6087 0
M  V30 125 H 10.3856 -0.95196 -3.6499 0
M  V30 126 H 12.7726 -0.259748 -2.93955 0
M  V30 127 H 12.8536 -1.69847 -1.91274 0
M  V30 128 H 12.4976 -3.16248 -3.97429 0
M  V30 129 H 12.4276 -1.69711 -4.98503 0
M  V30 130 H 14.9186 -1.59297 -3.42685 0
M  V30 131 H 15.2316 -3.81394 -6.7213 0
M  V30 132 H 13.5766 -3.42393 -6.04807 0
M  V30 133 H 16.7676 -2.04927 -4.20859 0
M  V30 134 H 16.9406 -3.06185 -5.711 0
M  V30 135 N 10.3467 1.47872 -0.545128 0
M  V30 136 C 11.2937 2.29849 0.2093 0
M  V30 137 C 12.2637 1.38313 0.919707 0
M  V30 138 O 13.4487 1.67277 0.917772 0
M  V30 139 C 10.5887 3.22019 1.24088 0
M  V30 140 C 9.7017 4.2864 0.537778 0
M  V30 141 C 8.8367 5.07973 1.5536 0
M  V30 142 C 7.8757 6.06381 0.8348 0
M  V30 143 N 7.0127 6.78717 1.79688 0
M  V30 144 H 11.8527 2.93845 -0.49591 0
M  V30 145 H 9.3897 1.44848 -0.256389 0
M  V30 146 H 11.3477 3.73868 1.85144 0
M  V30 147 H 9.9777 2.59914 1.91428 0
M  V30 148 H 9.0297 3.7994 -0.187046 0
M  V30 149 H 10.3417 4.98793 -0.0258907 0
M  V30 150 H 9.4957 5.63912 2.23803 0
M  V30 151 H 8.2347 4.37693 2.15118 0
M  V30 152 H 7.2397 5.49631 0.136388 0
M  V30 153 H 8.4647 6.78665 0.24313 0
M  V30 154 H 6.4107 6.11177 2.38326 0
M  V30 155 H 6.3277 7.44998 1.28505 0
M  V30 156 H 7.5957 7.39237 2.47282 0
M  V30 157 N 11.8248 0.280983 1.55075 0
M  V30 158 C 12.7878 -0.590896 2.21452 0
M  V30 159 C 13.7878 -1.07682 1.19421 0
M  V30 160 O 14.9778 -0.97605 1.44288 0
M  V30 161 C 12.1098 -1.81587 2.88511 0
M  V30 162 H 13.3028 -0.0112554 2.99898 0
M  V30 163 H 10.8558 0.0316438 1.56268 0
M  V30 164 H 11.5908 -2.43587 2.14093 0
M  V30 165 H 11.3758 -1.4753 3.63287 0
M  V30 166 H 12.8658 -2.43575 3.39206 0
M  V30 167 N 13.3029 -1.57598 0.00835791 0
M  V30 168 C 14.2329 -2.1198 -0.979113 0
M  V30 169 C 15.2139 -1.03091 -1.35301 0
M  V30 170 O 16.3989 -1.30818 -1.43528 0
M  V30 171 C 13.5289 -2.62995 -2.26828 0
M  V30 172 C 12.4829 -3.76485 -2.03576 0
M  V30 173 C 11.8089 -4.13846 -3.38579 0
M  V30 174 C 13.1089 -5.0342 -1.39161 0
M  V30 175 H 14.8029 -2.94738 -0.526281 0
M  V30 176 H 12.3489 -1.41783 -0.251704 0
M  V30 177 H 14.3019 -2.99669 -2.96271 0
M  V30 178 H 13.0259 -1.7737 -2.7424 0
M  V30 179 H 11.6849 -3.40217 -1.36557 0
M  V30 180 H 11.3329 -3.25232 -3.83709 0
M  V30 181 H 11.0329 -4.90312 -3.23834 0
M  V30 182 H 12.5569 -4.53086 -4.09323 0
M  V30 183 H 13.9709 -5.37812 -1.98573 0
M  V30 184 H 12.3679 -5.84746 -1.34878 0
M  V30 185 H 13.4379 -4.83548 -0.361868 0
M  V30 186 N 14.781 0.264519 -1.55364 0
M  V30 187 C 16.028 0.994986 -1.7637 0
M  V30 188 C 16.356 1.85976 -0.5695 0
M  V30 189 O 15.611 1.90509 0.44776 0
M  V30 190 C 15.91 1.9004 -3.02687 0
M  V30 191 C 15.576 1.19243 -4.34847 0
M  V30 192 C 14.238 0.996709 -4.70764 0
M  V30 193 C 16.59 0.689296 -5.16622 0
M  V30 194 C 13.918 0.285261 -5.86006 0
M  V30 195 C 16.27 -0.00860079 -6.32599 0
M  V30 196 C 14.934 -0.215963 -6.67151 0
M  V30 197 H 14.204 0.364091 -0.645383 0
M  V30 198 H 16.851 0.266543 -1.89636 0
M  V30 199 H 15.156 2.69533 -2.84357 0
M  V30 200 H 16.853 2.46695 -3.16137 0
M  V30 201 H 13.443 1.3549 -4.06621 0
M  V30 202 H 17.627 0.828108 -4.89342 0
M  V30 203 H 12.883 0.113961 -6.11294 0
M  V30 204 H 17.057 -0.406186 -6.95214 0
M  V30 205 H 14.684 -0.769217 -7.56298 0
M  V30 206 N 16.2591 1.48442 0.529413 0
M  V30 207 C 17.1911 1.59095 1.64989 0
M  V30 208 C 18.2041 0.475212 1.5571 0
M  V30 209 O 19.3931 0.746081 1.6216 0
M  V30 210 C 16.4931 1.50518 3.0364 0
M  V30 211 C 15.6661 2.77142 3.38395 0
M  V30 212 C 14.7251 2.62012 4.56329 0
M  V30 213 O 13.7511 3.35898 4.59522 0
M  V30 214 N 14.9531 1.71667 5.54536 0
M  V30 215 H 17.7181 2.55723 1.56287 0
M  V30 216 H 15.2791 1.45173 0.716697 0
M  V30 217 H 17.2711 1.38091 3.80412 0
M  V30 218 H 15.8411 0.618627 3.06418 0
M  V30 219 H 15.0611 3.0413 2.50796 0
M  V30 220 H 16.3491 3.61146 3.58401 0
M  V30 221 H 15.7471 1.10841 5.54735 0
M  V30 222 H 14.3041 1.65178 6.30523 0
M  V30 223 N 17.7372 -0.778329 1.37039 0
M  V30 224 C 18.6672 -1.90546 1.34962 0
M  V30 225 C 19.6482 -1.68681 0.219274 0
M  V30 226 O 20.8332 -1.89634 0.418624 0
M  V30 227 C 17.9632 -3.27734 1.14925 0
M  V30 228 C 16.9172 -3.64147 2.24902 0
M  V30 229 C 16.2432 -4.99806 1.89996 0
M  V30 230 C 17.5432 -3.71579 3.67051 0
M  V30 231 H 19.2372 -1.92541 2.29277 0
M  V30 232 H 16.7832 -0.924948 1.10366 0
M  V30 233 H 18.7362 -4.06215 1.12104 0
M  V30 234 H 17.4602 -3.26154 0.170631 0
M  V30 235 H 16.1192 -2.8797 2.26868 0
M  V30 236 H 15.7672 -4.94759 0.906796 0
M  V30 237 H 15.4672 -5.25139 2.63634 0
M  V30 238 H 16.9912 -5.80694 1.88749 0
M  V30 239 H 18.4052 -4.40227 3.67251 0
M  V30 240 H 16.8022 -4.08405 4.39688 0
M  V30 241 H 17.8722 -2.72404 4.01154 0
M  V30 242 N 19.2153 -1.21501 -1.00376 0
M  V30 243 C 20.4923 -0.941745 -1.71437 0
M  V30 244 C 20.8723 0.546114 -2.03914 0
M  V30 245 O 20.2203 1.51128 -1.71384 0
M  V30 246 C 20.4303 -1.82812 -2.97289 0
M  V30 247 C 21.7783 -2.07771 -3.70292 0
M  V30 248 O 22.8023 -1.80171 -3.07273 0
M  V30 249 O 21.6613 -2.54456 -4.83647 0
M  V30 250 H 18.7553 -0.353243 -0.747762 0
M  V30 251 H 21.3013 -1.32436 -1.06108 0
M  V30 252 H 20.0733 -2.83501 -2.69709 0
M  V30 253 H 19.6963 -1.4464 -3.70358 0
M  V30 254 N 20.6934 1.19889 -1.02296 0
M  V30 255 C 22.1044 1.71124 -0.746568 0
M  V30 256 C 22.4554 1.81939 0.734335 0
M  V30 257 O 21.5804 1.48639 1.57275 0
M  V30 258 C 22.1754 3.10804 -1.34857 0
M  V30 259 C 20.7344 3.59323 -1.1209 0
M  V30 260 C 19.8814 2.3635 -1.45031 0
M  V30 261 H 22.8324 1.04813 -1.19163 0
M  V30 262 H 22.8534 3.73186 -0.742437 0
M  V30 263 H 22.3654 3.029 -2.42638 0
M  V30 264 H 20.4664 3.7255 -0.0610337 0
M  V30 265 H 20.5794 4.4378 -1.80544 0
M  V30 266 H 18.9434 2.39399 -0.869487 0
M  V30 267 H 19.7264 2.31081 -2.53883 0
M  V30 268 N 22.1715 0.800033 1.35784 0
M  V30 269 C 23.0815 0.207204 2.33683 0
M  V30 270 C 24.0975 -0.64631 1.61551 0
M  V30 271 O 25.2735 -0.559604 1.93469 0
M  V30 272 C 22.3385 -0.639659 3.40748 0
M  V30 273 C 21.3995 0.233585 4.28664 0
M  V30 274 C 20.6325 -0.572954 5.30616 0
M  V30 275 O 20.8555 -1.80816 5.40982 0
M  V30 276 O 19.7895 0.0327285 6.01891 0
M  V30 277 H 23.6155 1.01692 2.86169 0
M  V30 278 H 21.2005 0.561691 1.38439 0
M  V30 279 H 23.0825 -1.12223 4.06182 0
M  V30 280 H 21.7575 -1.42708 2.90544 0
M  V30 281 H 20.6645 0.763147 3.66233 0
M  V30 282 H 21.9975 0.984784 4.82248 0
M  V30 283 N 23.6496 -1.47581 0.552962 0
M  V30 284 C 25.0656 -1.5818 0.212424 0
M  V30 285 C 25.2656 -1.55213 -1.28496 0
M  V30 286 O 24.3216 -1.45329 -2.06484 0
M  V30 287 C 25.6346 -2.88865 0.835318 0
M  V30 288 C 27.1826 -3.0244 0.806156 0
M  V30 289 C 27.6576 -4.35819 1.40804 0
M  V30 290 N 29.1486 -4.42444 1.37103 0
M  V30 291 C 29.8836 -5.44202 1.80641 0
M  V30 292 N 29.3796 -6.52795 2.32015 0
M  V30 293 N 31.1726 -5.35222 1.71738 0
M  V30 294 H 23.3236 -1.47753 1.52587 0
M  V30 295 H 25.5866 -0.702941 0.636064 0
M  V30 296 H 25.2926 -2.9676 1.88749 0
M  V30 297 H 25.1666 -3.7579 0.325848 0
M  V30 298 H 27.5536 -2.94144 -0.237317 0
M  V30 299 H 27.6346 -2.17068 1.35334 0
M  V30 300 H 27.2786 -4.44871 2.45056 0
M  V30 301 H 27.2086 -5.19916 0.836338 0
M  V30 302 H 29.6996 -3.6456 0.995202 0
M  V30 303 H 30.0126 -7.26609 2.63171 0
M  V30 304 H 28.3576 -6.53696 2.36023 0
M  V30 305 H 31.5486 -4.49284 1.31382 0
M  V30 306 H 31.7216 -6.14389 2.05987 0
M  V30 307 N 25.1277 -0.289203 -1.54924 0
M  V30 308 C 26.0907 0.579144 -2.21762 0
M  V30 309 C 27.0907 1.07047 -1.1999 0
M  V30 310 O 28.2807 0.968384 -1.44803 0
M  V30 311 C 25.4127 1.80055 -2.8947 0
M  V30 312 H 26.6057 -0.00464908 -2.999 0
M  V30 313 H 24.1587 -0.0399306 -1.56249 0
M  V30 314 H 24.8937 2.42449 -2.15381 0
M  V30 315 H 24.6787 1.45602 -3.64064 0
M  V30 316 H 26.1687 2.41773 -3.40493 0
M  V30 317 N 26.6058 1.57591 -0.0167156 0
M  V30 318 C 27.5558 2.05953 0.978137 0
M  V30 319 C 28.5398 0.957532 1.29306 0
M  V30 320 O 29.7318 1.22119 1.28125 0
M  V30 321 C 26.8608 2.58006 2.26468 0
M  V30 322 C 25.9468 3.75113 1.97867 0
M  V30 323 N 26.3378 4.86187 1.39486 0
M  V30 324 C 24.6358 3.83363 2.27924 0
M  V30 325 C 25.3368 5.67502 1.27735 0
M  V30 326 N 24.3128 5.14023 1.76866 0
M  V30 327 H 28.1148 2.89236 0.521522 0
M  V30 328 H 25.6288 1.61301 0.188596 0
M  V30 329 H 27.6258 2.90937 2.98599 0
M  V30 330 H 26.2858 1.76148 2.72767 0
M  V30 331 H 27.2968 5.06695 1.07147 0
M  V30 332 H 23.9738 3.1239 2.76982 0
M  V30 333 H 25.3638 6.66791 0.826978 0
M  V30 334 N 28.0839 -0.256276 1.55502 0
M  V30 335 C 28.9939 -1.33882 1.92647 0
M  V30 336 C 30.0099 -1.53159 0.825727 0
M  V30 337 O 31.1859 -1.66963 1.12629 0
M  V30 338 C 28.2509 -2.6751 2.20543 0
M  V30 339 C 27.3119 -2.56836 3.43997 0
M  V30 340 C 26.5449 -3.84092 3.70553 0
M  V30 341 O 26.7679 -4.85545 2.99336 0
M  V30 342 O 25.7019 -3.83288 4.64084 0
M  V30 343 H 29.5279 -1.05374 2.84833 0
M  V30 344 H 27.1129 -0.456237 1.42263 0
M  V30 345 H 28.9949 -3.46492 2.39835 0
M  V30 346 H 27.6699 -2.9577 1.31536 0
M  V30 347 H 26.5769 -1.76172 3.30021 0
M  V30 348 H 27.9099 -2.33523 4.33275 0
M  V30 349 N 29.562 -1.4872 -0.521534 0
M  V30 350 C 30.809 -1.57168 -1.27689 0
M  V30 351 C 31.137 -0.249275 -1.92896 0
M  V30 352 O 30.392 0.761162 -1.80291 0
M  V30 353 C 30.691 -2.66497 -2.38148 0
M  V30 354 C 30.357 -4.08664 -1.90538 0
M  V30 355 C 29.019 -4.47357 -1.77271 0
M  V30 356 C 31.371 -4.97724 -1.54663 0
M  V30 357 C 28.699 -5.72905 -1.26478 0
M  V30 358 C 31.051 -6.2377 -1.05329 0
M  V30 359 C 29.715 -6.61311 -0.906861 0
M  V30 360 H 28.985 -0.575117 -0.467249 0
M  V30 361 H 31.632 -1.82472 -0.581051 0
M  V30 362 H 29.937 -2.35085 -3.13437 0
M  V30 363 H 31.634 -2.70246 -2.96257 0
M  V30 364 H 28.224 -3.78111 -2.01816 0
M  V30 365 H 32.408 -4.68501 -1.63768 0
M  V30 366 H 27.664 -6.00709 -1.13835 0
M  V30 367 H 31.838 -6.9217 -0.76644 0
M  V30 368 H 29.465 -7.5848 -0.511083 0
M  V30 369 N 31.0401 0.771051 -1.3745 0
M  V30 370 C 32.2681 1.56015 -1.35893 0
M  V30 371 C 32.6831 1.88718 0.0555523 0
M  V30 372 O 32.0401 1.51502 1.01752 0
M  V30 373 C 32.0911 2.87001 -2.19801 0
M  V30 374 O 31.8121 2.557 -3.55738 0
M  V30 375 C 33.3131 3.81228 -2.26231 0
M  V30 376 H 30.5331 0.483317 -0.465453 0
M  V30 377 H 33.0771 0.955611 -1.80799 0
M  V30 378 H 31.2321 3.43877 -1.78402 0
M  V30 379 H 31.6461 3.39584 -3.99729 0
M  V30 380 H 33.1201 4.70139 -2.89263 0
M  V30 381 H 33.5971 4.20409 -1.27093 0
M  V30 382 H 34.2031 3.30281 -2.67945 0
M  V30 383 N 32.5182 1.22032 0.997298 0
M  V30 384 C 33.7652 1.04222 1.73621 0
M  V30 385 C 34.0932 -0.423264 1.89839 0
M  V30 386 O 33.3482 -1.3302 1.43542 0
M  V30 387 C 33.6472 1.69345 3.14733 0
M  V30 388 C 33.3132 3.19226 3.18442 0
M  V30 389 C 31.9752 3.60124 3.19161 0
M  V30 390 C 34.3272 4.15181 3.15078 0
M  V30 391 C 31.6552 4.95467 3.14212 0
M  V30 392 C 34.0072 5.50495 3.1167 0
M  V30 393 C 32.6712 5.90779 3.10703 0
M  V30 394 H 31.9412 0.381374 0.635323 0
M  V30 395 H 34.5882 1.51732 1.16831 0
M  V30 396 H 32.8932 1.14147 3.74803 0
M  V30 397 H 34.5902 1.53059 3.7064 0
M  V30 398 H 31.1802 2.86659 3.18629 0
M  V30 399 H 35.3642 3.84605 3.13676 0
M  V30 400 H 30.6202 5.25916 3.11805 0
M  V30 401 H 34.7942 6.24576 3.08022 0
M  V30 402 H 32.4212 6.9562 3.06622 0
M  V30 403 N 33.9963 -1.19345 1.0293 0
M  V30 404 C 34.9283 -2.22036 0.56857 0
M  V30 405 C 35.9413 -1.58865 -0.355779 0
M  V30 406 O 37.1303 -1.77851 -0.152103 0
M  V30 407 C 34.2303 -3.38363 -0.190752 0
M  V30 408 C 33.4033 -4.31118 0.738643 0
M  V30 409 C 32.4623 -5.26194 0.0246497 0
M  V30 410 O 31.4883 -5.65461 0.651354 0
M  V30 411 N 32.6903 -5.66971 -1.24594 0
M  V30 412 H 35.4553 -2.6219 1.45177 0
M  V30 413 H 33.0163 -1.34015 0.908381 0
M  V30 414 H 35.0083 -3.98981 -0.677961 0
M  V30 415 H 33.5783 -2.96994 -0.975366 0
M  V30 416 H 32.7983 -3.68276 1.40593 0
M  V30 417 H 34.0863 -4.90001 1.37029 0
M  V30 418 H 33.4843 -5.37104 -1.77583 0
M  V30 419 H 32.0413 -6.2984 -1.67764 0
M  V30 420 N 35.4744 -0.807222 -1.35358 0
M  V30 421 C 36.4064 -0.175717 -2.28525 0
M  V30 422 C 37.4194 0.625354 -1.5031 0
M  V30 423 O 38.6084 0.457611 -1.72535 0
M  V30 424 C 35.7084 0.773471 -3.29956 0
M  V30 425 C 34.8814 0.0186296 -4.37396 0
M  V30 426 C 33.9404 0.886395 -5.18681 0
M  V30 427 O 32.9664 0.337106 -5.68201 0
M  V30 428 N 34.1684 2.20839 -5.36852 0
M  V30 429 H 36.9334 -0.976091 -2.83359 0
M  V30 430 H 34.4944 -0.662737 -1.47714 0
M  V30 431 H 36.4864 1.35824 -3.81227 0
M  V30 432 H 35.0564 1.47465 -2.75632 0
M  V30 433 H 34.2764 -0.747349 -3.87051 0
M  V30 434 H 35.5644 -0.501577 -5.06322 0
M  V30 435 H 34.9624 2.67858 -4.98265 0
M  V30 436 H 33.5194 2.74237 -5.91301 0
M  V30 437 N 36.9525 1.47285 -0.560781 0
M  V30 438 C 37.8825 2.32857 0.173105 0
M  V30 439 C 38.8635 1.44009 0.905281 0
M  V30 440 O 40.0485 1.7286 0.885046 0
M  V30 441 C 37.1785 3.25861 1.20133 0
M  V30 442 C 36.1325 4.23978 0.585388 0
M  V30 443 C 35.4585 5.06332 1.7185 0
M  V30 444 C 36.7585 5.20242 -0.463178 0
M  V30 445 H 38.4525 2.94466 -0.541307 0
M  V30 446 H 35.9985 1.41601 -0.261764 0
M  V30 447 H 37.9515 3.84569 1.72293 0
M  V30 448 H 36.6755 2.62315 1.94573 0
M  V30 449 H 35.3345 3.66501 0.085054 0
M  V30 450 H 34.9825 4.39186 2.45203 0
M  V30 451 H 34.6825 5.72762 1.31213 0
M  V30 452 H 36.2065 5.67899 2.24329 0
M  V30 453 H 37.6205 5.73293 -0.027502 0
M  V30 454 H 36.0175 5.94896 -0.788627 0
M  V30 455 H 37.0875 4.65504 -1.35773 0
M  V30 456 N 38.4306 0.297415 1.54768 0
M  V30 457 C 39.8466 -0.0560823 1.59501 0
M  V30 458 C 40.0466 -1.52725 1.31444 0
M  V30 459 O 39.1026 -2.27947 1.08611 0
M  V30 460 C 40.4156 0.338631 2.98787 0
M  V30 461 C 41.9636 0.287097 3.11681 0
M  V30 462 C 42.4386 0.656579 4.53269 0
M  V30 463 N 43.9296 0.608977 4.59179 0
M  V30 464 C 44.6646 0.867385 5.66802 0
M  V30 465 N 44.1606 1.19157 6.82476 0
M  V30 466 N 45.9536 0.794687 5.56454 0
M  V30 467 H 38.1046 1.25624 1.71267 0
M  V30 468 H 40.3676 0.509057 0.799728 0
M  V30 469 H 40.0736 1.36263 3.2423 0
M  V30 470 H 39.9476 -0.309508 3.75928 0
M  V30 471 H 42.3346 -0.727649 2.85988 0
M  V30 472 H 42.4156 0.969809 2.36703 0
M  V30 473 H 42.0596 1.66912 4.7969 0
M  V30 474 H 41.9896 -0.0481649 5.26578 0
M  V30 475 H 44.4806 0.369198 3.76092 0
M  V30 476 H 44.7936 1.37482 7.60473 0
M  V30 477 H 43.1386 1.22958 6.84037 0
M  V30 478 H 46.3296 0.541098 4.64962 0
M  V30 479 H 46.5026 0.999445 6.40246 0
M  V30 480 N 39.9087 -1.5758 0.0250728 0
M  V30 481 C 41.3247 -1.56124 -0.331282 0
M  V30 482 C 41.5247 -1.03029 -1.73169 0
M  V30 483 O 40.5807 -0.675215 -2.43305 0
M  V30 484 C 41.8937 -3.00139 -0.183584 0
M  V30 485 C 43.4417 -3.11946 -0.256654 0
M  V30 486 C 43.9167 -4.57793 -0.137792 0
M  V30 487 N 45.4077 -4.6279 -0.194904 0
M  V30 488 C 46.1427 -5.7326 -0.126655 0
M  V30 489 N 45.6387 -6.928 -0.00755288 0
M  V30 490 N 47.4317 -5.61811 -0.180348 0
M  V30 491 H 39.5827 -1.90424 0.94087 0
M  V30 492 H 41.8457 -0.875761 0.362968 0
M  V30 493 H 41.5517 -3.4292 0.780927 0
M  V30 494 H 41.4257 -3.64899 -0.955448 0
M  V30 495 H 43.8127 -2.69079 -1.21162 0
M  V30 496 H 43.8937 -2.49915 0.545517 0
M  V30 497 H 43.5377 -5.01339 0.813739 0
M  V30 498 H 43.4677 -5.17798 -0.958775 0
M  V30 499 H 45.9587 -3.76807 -0.287267 0
M  V30 500 H 46.2717 -7.72791 0.0379428 0
M  V30 501 H 44.6167 -6.94995 0.0271731 0
M  V30 502 H 47.8077 -4.6731 -0.271767 0
M  V30 503 H 47.9807 -6.47882 -0.123697 0
M  V30 504 N 41.3868 0.248026 -1.55636 0
M  V30 505 C 42.6358 0.974134 -1.76617 0
M  V30 506 C 42.9488 1.86528 -0.588796 0
M  V30 507 O 44.1548 2.62805 -0.681594 0
M  V30 508 C 42.6108 1.78213 -3.12679 0
M  V30 509 C 42.2188 0.93843 -4.38061 0
M  V30 510 C 43.9628 2.50104 -3.42999 0
M  V30 511 C 41.8698 1.74225 -5.65155 0
M  V30 512 H 40.7998 0.36745 -0.658405 0
M  V30 513 H 43.4508 0.22884 -1.82067 0
M  V30 514 H 41.8328 2.56933 -3.01333 0
M  V30 515 H 43.0068 0.193635 -4.60393 0
M  V30 516 H 41.3218 0.332905 -4.15067 0
M  V30 517 H 43.9188 3.10694 -4.3517 0
M  V30 518 H 44.2618 3.21662 -2.64271 0
M  V30 519 H 44.7948 1.78395 -3.55556 0
M  V30 520 H 41.5338 1.07043 -6.46701 0
M  V30 521 H 41.0538 2.46235 -5.46926 0
M  V30 522 H 42.7328 2.30967 -6.0437 0
M  V30 523 N 42.8649 1.48995 0.513639 0
M  V30 524 C 44.0929 1.61531 1.29288 0
M  V30 525 C 44.5079 0.281801 1.86685 0
M  V30 526 O 43.8649 -0.731111 1.67215 0
M  V30 527 C 43.9159 2.67449 2.43215 0
M  V30 528 O 43.6369 3.95626 1.88179 0
M  V30 529 C 45.1379 2.90575 3.34785 0
M  V30 530 H 42.3579 0.544165 0.392588 0
M  V30 531 H 44.9019 1.9494 0.617956 0
M  V30 532 H 43.0569 2.36853 3.0656 0
M  V30 533 H 43.4709 4.53868 2.62876 0
M  V30 534 H 44.9449 3.68449 4.11035 0
M  V30 535 H 45.4219 2.00011 3.91015 0
M  V30 536 H 46.0279 3.22538 2.77218 0
M  V30 537 N 44.343 -0.763751 1.37857 0
M  V30 538 C 45.591 -1.51957 1.33243 0
M  V30 539 C 45.912 -1.94835 -0.0801709 0
M  V30 540 O 45.182 -1.66894 -1.02582 0
M  V30 541 H 43.762 -0.563626 0.49024 0
M  V30 542 H 46.424 -0.908504 1.7243 0
M  V30 543 H 45.52 -2.41523 1.97669 0
M  V30 544 N 45.8211 -1.22559 -0.990812 0
M  V30 545 C 47.0491 -1.07779 -1.76611 0
M  V30 546 C 47.4641 0.371513 -1.85109 0
M  V30 547 O 46.8211 1.25737 -1.32274 0
M  V30 548 C 46.8721 -1.68512 -3.19822 0
M  V30 549 O 46.5931 -3.07774 -3.1178 0
M  V30 550 C 48.0941 -1.59035 -4.13791 0
M  V30 551 H 45.3141 -0.377729 -0.554583 0
M  V30 552 H 47.8581 -1.62195 -1.24551 0
M  V30 553 H 46.0131 -1.18154 -3.68942 0
M  V30 554 H 46.4271 -3.37062 -4.01858 0
M  V30 555 H 47.9011 -2.0625 -5.1202 0
M  V30 556 H 48.3781 -0.547273 -4.35777 0
M  V30 557 H 48.9841 -2.08709 -3.70568 0
M  V30 558 N 47.2992 1.18797 -1.03562 0
M  V30 559 C 48.7102 1.70322 -0.764676 0
M  V30 560 C 49.0612 1.82708 0.714996 0
M  V30 561 O 48.1862 1.50299 1.55689 0
M  V30 562 C 48.7812 3.09356 -1.38145 0
M  V30 563 C 47.3402 3.58114 -1.15895 0
M  V30 564 C 46.4872 2.34798 -1.4753 0
M  V30 565 H 49.4382 1.03543 -1.20268 0
M  V30 566 H 49.4592 3.72378 -0.781977 0
M  V30 567 H 48.9712 3.00309 -2.45837 0
M  V30 568 H 47.0722 3.72464 -0.100544 0
M  V30 569 H 47.1852 4.4184 -1.8524 0
M  V30 570 H 45.5492 2.38464 -0.894829 0
M  V30 571 H 46.3322 2.28375 -2.56319 0
M  V30 572 N 48.7773 0.814389 1.34928 0
M  V30 573 C 50.0243 0.398423 1.98542 0
M  V30 574 C 50.3523 -1.03638 1.64589 0
M  V30 575 O 49.6073 -1.73509 0.90516 0
M  V30 576 C 49.9063 0.537781 3.53331 0
M  V30 577 C 49.5723 1.93704 4.07172 0
M  V30 578 C 48.2343 2.31984 4.21589 0
M  V30 579 C 50.5863 2.85213 4.36237 0
M  V30 580 C 47.9143 3.61125 4.62391 0
M  V30 581 C 50.2663 4.13809 4.78482 0
M  V30 582 C 48.9303 4.52077 4.91104 0
M  V30 583 H 48.2003 0.145793 0.726516 0
M  V30 584 H 50.8473 1.03669 1.61012 0
M  V30 585 H 49.1523 -0.183906 3.91368 0
M  V30 586 H 50.8493 0.196588 4.00518 0
M  V30 587 H 47.4393 1.62966 3.96409 0
M  V30 588 H 51.6233 2.56885 4.24645 0
M  V30 589 H 46.8793 3.90612 4.70353 0
M  V30 590 H 51.0533 4.84811 4.99932 0
M  V30 591 H 48.6803 5.52196 5.22478 0
M  V30 592 N 50.2554 -1.46986 0.568584 0
M  V30 593 C 51.1654 -2.33942 -0.17555 0
M  V30 594 C 52.1814 -1.48891 -0.90041 0
M  V30 595 O 53.3574 -1.81794 -0.86676 0
M  V30 596 C 50.4224 -3.25811 -1.18524 0
M  V30 597 C 49.4834 -4.26757 -0.466582 0
M  V30 598 C 48.7164 -5.14236 -1.42817 0
M  V30 599 O 48.9394 -5.04379 -2.66379 0
M  V30 600 O 47.8734 -5.94412 -0.946453 0
M  V30 601 H 51.6994 -2.98896 0.538036 0
M  V30 602 H 49.2844 -1.4573 0.329097 0
M  V30 603 H 51.1664 -3.82527 -1.76779 0
M  V30 604 H 49.8414 -2.63471 -1.88055 0
M  V30 605 H 48.7484 -3.73769 0.157451 0
M  V30 606 H 50.0814 -4.91843 0.187485 0
M  V30 607 N 51.7335 -0.305618 -1.54608 0
M  V30 608 C 52.6965 0.555591 -2.22364 0
M  V30 609 C 53.6965 1.05768 -1.21119 0
M  V30 610 O 54.8865 0.952972 -1.45822 0
M  V30 611 C 52.0185 1.76974 -2.91364 0
M  V30 612 H 53.2115 -0.0364572 -2.99878 0
M  V30 613 H 50.7645 -0.0565007 -1.56198 0
M  V30 614 H 51.4995 2.40151 -2.17941 0
M  V30 615 H 51.2845 1.41732 -3.65588 0
M  V30 616 H 52.7745 2.38148 -3.43038 0
M  V30 617 N 53.2116 1.57565 -0.0334293 0
M  V30 618 C 54.1416 2.13511 0.945265 0
M  V30 619 C 55.1226 1.05231 1.33643 0
M  V30 620 O 56.3076 1.33084 1.41429 0
M  V30 621 C 53.4376 2.6657 2.22616 0
M  V30 622 C 52.3916 3.79676 1.97561 0
M  V30 623 C 51.7176 4.1918 3.31952 0
M  V30 624 C 53.0176 5.0557 1.31135 0
M  V30 625 H 54.7116 2.95538 0.479325 0
M  V30 626 H 52.2576 1.42166 0.229115 0
M  V30 627 H 54.2106 3.04344 2.91466 0
M  V30 628 H 52.9346 1.8171 2.71384 0
M  V30 629 H 51.5936 3.42347 1.31127 0
M  V30 630 H 51.2416 3.31296 3.78487 0
M  V30 631 H 50.9416 4.95402 3.15992 0
M  V30 632 H 52.4656 4.59541 4.02063 0
M  V30 633 H 53.8796 5.40903 1.89992 0
M  V30 634 H 52.2766 5.86818 1.25559 0
M  V30 635 H 53.3466 4.84062 0.284894 0
M  V30 636 N 54.6897 -0.239769 1.55765 0
M  V30 637 C 55.9357 -0.968234 1.78194 0
M  V30 638 C 56.2687 -1.84701 0.599938 0
M  V30 639 O 55.5437 -1.9031 -0.401524 0
M  V30 640 C 55.8267 -1.8227 3.10564 0
M  V30 641 C 55.6797 -0.971633 4.3918 0
M  V30 642 C 56.9987 -2.80388 3.39221 0
M  V30 643 H 54.1177 -0.350572 0.648281 0
M  V30 644 H 56.7597 -0.238259 1.885 0
M  V30 645 H 54.9097 -2.44507 3.01908 0
M  V30 646 H 56.5817 -0.367408 4.59835 0
M  V30 647 H 54.8247 -0.276276 4.32919 0
M  V30 648 H 55.4957 -1.60346 5.28198 0
M  V30 649 H 57.9717 -2.28287 3.47885 0
M  V30 650 H 56.8477 -3.3729 4.33044 0
M  V30 651 H 57.1087 -3.57212 2.60484 0
M  V30 652 N 56.1678 -1.49265 -0.50573 0
M  V30 653 C 57.5838 -1.35923 -0.836486 0
M  V30 654 C 57.7838 -0.388704 -1.97715 0
M  V30 655 O 56.8398 0.181336 -2.51848 0
M  V30 656 C 58.1528 -2.76531 -1.18115 0
M  V30 657 C 59.7008 -2.85197 -1.28964 0
M  V30 658 C 60.1758 -4.26561 -1.66761 0
M  V30 659 N 61.6668 -4.2935 -1.73819 0
M  V30 660 C 62.4018 -5.35693 -2.045 0
M  V30 661 N 61.8978 -6.52287 -2.33438 0
M  V30 662 N 63.6908 -5.23105 -2.05711 0
M  V30 663 H 55.8418 -2.10965 0.246519 0
M  V30 664 H 58.1048 -0.9468 0.0476887 0
M  V30 665 H 57.8108 -3.49226 -0.416398 0
M  V30 666 H 57.6848 -3.11599 -2.1257 0
M  V30 667 H 60.0718 -2.12742 -2.04511 0
M  V30 668 H 60.1528 -2.53718 -0.325704 0
M  V30 669 H 59.7968 -4.99541 -0.917656 0
M  V30 670 H 59.7268 -4.55502 -2.64246 0
M  V30 671 H 62.2178 -3.4526 -1.53635 0
M  V30 672 H 62.5308 -7.29158 -2.56024 0
M  V30 673 H 60.8758 -6.55521 -2.30905 0
M  V30 674 H 64.0668 -4.31026 -1.82577 0
M  V30 675 H 64.2398 -6.06078 -2.29289 0
M  V30 676 N 57.6459 0.756429 -1.3826 0
M  V30 677 C 58.5779 1.87971 -1.31147 0
M  V30 678 C 59.5909 1.61248 -0.224239 0
M  V30 679 O 60.7799 1.71881 -0.481581 0
M  V30 680 C 57.8799 3.23545 -1.00857 0
M  V30 681 C 57.0529 3.77794 -2.20432 0
M  V30 682 C 56.1119 4.91877 -1.86931 0
M  V30 683 O 55.1379 5.06659 -2.59395 0
M  V30 684 N 56.3399 5.74643 -0.822568 0
M  V30 685 H 59.1049 1.94585 -2.2794 0
M  V30 686 H 56.6659 0.936234 -1.32084 0
M  V30 687 H 58.6579 3.97403 -0.765021 0
M  V30 688 H 57.2279 3.12335 -0.128687 0
M  V30 689 H 56.4479 2.95534 -2.6087 0
M  V30 690 H 57.7359 4.10771 -3.00241 0
M  V30 691 H 57.1339 5.65266 -0.221575 0
M  V30 692 H 55.6909 6.48661 -0.638899 0
M  V30 693 N 59.124 1.23083 0.984299 0
M  V30 694 C 60.071 1.00854 2.07598 0
M  V30 695 C 61.041 -0.0726709 1.65941 0
M  V30 696 O 62.226 0.0786535 1.90638 0
M  V30 697 C 59.366 0.601645 3.39815 0
M  V30 698 C 58.479 1.75456 3.94765 0
M  V30 699 C 57.614 1.29482 5.15177 0
M  V30 700 C 56.653 2.41873 5.62284 0
M  V30 701 N 55.79 1.96885 6.73929 0
M  V30 702 H 60.63 1.943 2.25946 0
M  V30 703 H 58.167 0.968001 1.10762 0
M  V30 704 H 60.125 0.346854 4.15756 0
M  V30 705 H 58.755 -0.295803 3.21442 0
M  V30 706 H 57.807 2.12346 3.15616 0
M  V30 707 H 59.119 2.59965 4.25699 0
M  V30 708 H 58.273 0.997923 5.98437 0
M  V30 709 H 57.012 0.420046 4.85888 0
M  V30 710 H 56.017 2.72342 4.77608 0
M  V30 711 H 57.242 3.29881 5.93595 0
M  V30 712 H 55.188 1.11782 6.46406 0
M  V30 713 H 55.105 2.74956 7.04227 0
M  V30 714 H 56.373 1.70289 7.60672 0
M  V30 715 N 60.6021 -1.18246 1.0419 0
M  V30 716 C 61.8481 -1.88536 0.747122 0
M  V30 717 C 62.1811 -1.80223 -0.723409 0
M  V30 718 O 61.4561 -1.20337 -1.52804 0
M  V30 719 C 61.7391 -3.38968 1.21544 0
M  V30 720 C 61.5921 -3.56084 2.74816 0
M  V30 721 C 62.9111 -4.32648 0.806482 0
M  V30 722 H 60.0301 -0.684619 0.272883 0
M  V30 723 H 62.6721 -1.39113 1.29413 0
M  V30 724 H 60.8221 -3.8119 0.750081 0
M  V30 725 H 62.4941 -3.22946 3.29399 0
M  V30 726 H 60.7371 -2.98699 3.14582 0
M  V30 727 H 61.4081 -4.61639 3.02644 0
M  V30 728 H 63.8841 -3.98211 1.20695 0
M  V30 729 H 62.7601 -5.36462 1.1619 0
M  V30 730 H 63.0211 -4.41146 -0.29029 0
M  V30 731 N 62.0802 -0.821533 -1.34494 0
M  V30 732 C 63.4912 -0.467956 -1.8074 0
M  V30 733 C 63.8422 1.01151 -1.68116 0
M  V30 734 O 62.9672 1.78707 -1.22036 0
M  V30 735 C 63.5622 -0.842627 -3.28154 0
M  V30 736 C 62.1212 -0.541439 -3.72485 0
M  V30 737 C 61.2682 -1.06028 -2.56229 0
M  V30 738 H 64.2192 -1.01183 -1.22261 0
M  V30 739 H 64.2402 -0.145876 -3.8022 0
M  V30 740 H 63.7522 -1.91945 -3.37311 0
M  V30 741 H 61.8532 0.526034 -3.68868 0
M  V30 742 H 61.9662 -1.08453 -4.66663 0
M  V30 743 H 60.3302 -0.481892 -2.501 0
M  V30 744 H 61.1132 -2.14352 -2.68157 0
M  V30 745 N 63.5583 1.46682 -0.576371 0
M  V30 746 C 64.5213 2.28707 0.150239 0
M  V30 747 C 65.5213 1.38035 0.824794 0
M  V30 748 O 66.7113 1.60476 0.677719 0
M  V30 749 C 63.8433 3.18248 1.22192 0
M  V30 750 H 65.0363 2.94423 -0.570521 0
M  V30 751 H 62.5893 1.52688 -0.334078 0
M  V30 752 H 63.3243 2.57265 1.97447 0
M  V30 753 H 63.1093 3.85 0.742812 0
M  V30 754 H 64.5993 3.80001 1.73172 0
M  V30 755 N 65.0364 0.313813 1.54444 0
M  V30 756 C 65.9834 -0.55655 2.23989 0
M  V30 757 C 66.9534 -1.11943 1.22711 0
M  V30 758 O 68.1384 -1.16158 1.51367 0
M  V30 759 C 65.2784 -1.71635 2.99392 0
M  V30 760 C 64.3914 -1.18364 4.15468 0
M  V30 761 C 63.5264 -2.30834 4.78424 0
M  V30 762 C 62.5654 -1.74762 5.86622 0
M  V30 763 N 61.7024 -2.80855 6.43479 0
M  V30 764 H 66.5424 0.0430893 2.97969 0
M  V30 765 H 64.0794 0.0330359 1.47063 0
M  V30 766 H 66.0374 -2.39868 3.41349 0
M  V30 767 H 64.6674 -2.28742 2.27765 0
M  V30 768 H 63.7194 -0.393163 3.78363 0
M  V30 769 H 65.0314 -0.733262 4.93381 0
M  V30 770 H 64.1854 -3.0699 5.23299 0
M  V30 771 H 62.9244 -2.79204 3.99871 0
M  V30 772 H 61.9294 -0.970995 5.41158 0
M  V30 773 H 63.1544 -1.2728 6.67066 0
M  V30 774 H 61.1004 -3.28535 5.67804 0
M  V30 775 H 61.0174 -2.40351 7.16776 0
M  V30 776 H 62.2854 -3.5687 6.93011 0
M  V30 777 N 66.5145 -1.57545 0.0417849 0
M  V30 778 C 67.9255 -1.80011 -0.495259 0
M  V30 779 C 68.2765 -0.953199 -1.71489 0
M  V30 780 O 67.4015 -0.167138 -2.15754 0
M  V30 781 C 67.9965 -3.26482 -0.905265 0
M  V30 782 C 66.5555 -3.499 -1.38734 0
M  V30 783 C 65.7025 -2.74979 -0.358056 0
M  V30 784 H 68.6535 -1.56425 0.267736 0
M  V30 785 H 68.6745 -3.36887 -1.76882 0
M  V30 786 H 68.1865 -3.88096 -0.017401 0
M  V30 787 H 66.2875 -2.93553 -2.29471 0
M  V30 788 H 66.4005 -4.58615 -1.38598 0
M  V30 789 H 64.7645 -2.40834 -0.828912 0
M  V30 790 H 65.5475 -3.39315 0.521561 0
M  V30 791 N 67.9926 0.231505 -1.5589 0
M  V30 792 C 69.2386 0.95877 -1.78705 0
M  V30 793 C 69.5716 1.8438 -0.609725 0
M  V30 794 O 68.8466 1.90521 0.391426 0
M  V30 795 C 69.1296 1.8062 -3.11526 0
M  V30 796 C 68.9826 0.948328 -4.39689 0
M  V30 797 C 70.3016 2.78585 -3.40703 0
M  V30 798 H 67.4206 0.347129 -0.650131 0
M  V30 799 H 70.0626 0.228259 -1.88624 0
M  V30 800 H 68.2126 2.42902 -3.03201 0
M  V30 801 H 69.8846 0.343016 -4.60023 0
M  V30 802 H 68.1276 0.253314 -4.3306 0
M  V30 803 H 68.7986 1.57543 -5.29041 0
M  V30 804 H 71.2746 2.26439 -3.49091 0
M  V30 805 H 70.1506 3.34988 -4.34826 0
M  V30 806 H 70.4116 3.55825 -2.62375 0
M  V30 807 N 69.4707 1.49531 0.497807 0
M  V30 808 C 70.4187 1.66926 1.61983 0
M  V30 809 C 71.4127 0.535167 1.60724 0
M  V30 810 O 72.6187 0.714896 1.65195 0
M  V30 811 H 68.9937 0.526415 0.537021 0
M  V30 812 H 70.9647 2.61098 1.44465 0
M  V30 813 C 69.7137 1.75602 3.00099 0
M  V30 814 H 69.0367 2.62244 3.01775 0
M  V30 815 H 70.4767 1.91807 3.78135 0
M  V30 816 C 68.9357 0.501543 3.33146 0
M  V30 817 O 69.4657 -0.371342 3.9998 0
M  V30 818 N 67.6717 0.363531 2.88317 0
M  V30 819 H 67.2187 1.07485 2.34104 0
M  V30 820 H 67.1767 -0.474728 3.10795 0
M  V30 821 N 70.9488 -0.749086 1.3866 0
M  V30 822 C 72.1888 -1.52112 1.36534 0
M  V30 823 C 72.5528 -1.91951 -0.0432316 0
M  V30 824 O 73.7538 -2.68132 -0.189396 0
M  V30 825 C 72.0248 -2.73704 2.29828 0
M  V30 826 S 73.5838 -3.63519 2.45763 0
M  V30 827 H 70.4018 -0.520482 0.484375 0
M  V30 828 H 73.0038 -0.878963 1.74627 0
M  V30 829 H 71.7078 -2.42552 3.31054 0
M  V30 830 H 71.2388 -3.4286 1.929 0
M  V30 831 H 73.2538 -4.66712 1.68505 0
M  V30 832 N 72.4269 -1.23603 -0.977757 0
M  V30 833 C 73.3599 -0.962772 -2.06896 0
M  V30 834 C 74.3379 0.0998743 -1.62293 0
M  V30 835 O 75.5219 -0.0349421 -1.88468 0
M  V30 836 C 72.6489 -0.45095 -3.35685 0
M  V30 837 C 71.6949 -1.50061 -3.99229 0
M  V30 838 S 72.5279 -3.07884 -4.38142 0
M  V30 839 C 73.6839 -2.58378 -5.7008 0
M  V30 840 H 73.9169 -1.88677 -2.29757 0
M  V30 841 H 71.4499 -1.06876 -1.11431 0
M  V30 842 H 73.4079 -0.162261 -4.10179 0
M  V30 843 H 72.0689 0.452179 -3.10828 0
M  V30 844 H 71.2619 -1.09269 -4.92013 0
M  V30 845 H 70.8639 -1.73878 -3.31123 0
M  V30 846 H 73.1559 -2.00563 -6.47133 0
M  V30 847 H 74.0989 -3.49711 -6.15717 0
M  V30 848 H 74.5069 -1.99143 -5.28207 0
M  V30 849 N 73.905 1.17692 -1.04816 0
M  V30 850 C 75.153 1.87488 -0.754497 0
M  V30 851 C 75.474 1.81205 0.720407 0
M  V30 852 O 74.744 1.23544 1.52032 0
M  V30 853 H 73.324 0.694101 -0.276102 0
M  V30 854 H 75.986 1.42793 -1.32651 0
M  V30 855 H 75.082 2.93328 -1.06606 0
M  V30 856 N 75.3831 0.828654 1.34056 0
M  V30 857 C 76.3131 0.269443 2.3194 0
M  V30 858 C 77.2941 -0.617247 1.58506 0
M  V30 859 O 78.4791 -0.542931 1.86456 0
M  V30 860 C 75.6091 -0.564793 3.42677 0
M  V30 861 C 74.5631 0.225241 4.27407 0
M  V30 862 C 73.8891 -0.7321 5.29664 0
M  V30 863 C 75.1891 1.43663 5.02154 0
M  V30 864 H 76.8831 1.08728 2.7896 0
M  V30 865 H 74.4291 0.524283 1.34117 0
M  V30 866 H 76.3821 -0.966233 4.10173 0
M  V30 867 H 75.1061 -1.41574 2.9432 0
M  V30 868 H 73.7651 0.608117 3.61521 0
M  V30 869 H 73.4131 -1.57916 4.77568 0
M  V30 870 H 73.1131 -0.20767 5.87233 0
M  V30 871 H 74.6371 -1.13128 6.00029 0
M  V30 872 H 76.0511 1.1089 5.62473 0
M  V30 873 H 74.4481 1.89711 5.69324 0
M  V30 874 H 75.5181 2.21181 4.31517 0
M  V30 875 N 76.8612 -1.46375 0.584142 0
M  V30 876 C 78.0892 -2.06761 0.0759296 0
M  V30 877 C 78.5042 -1.43266 -1.22965 0
M  V30 878 O 77.8612 -0.538458 -1.74376 0
M  V30 879 C 77.9122 -3.61375 -0.0950384 0
M  V30 880 O 77.6332 -4.22495 1.15887 0
M  V30 881 C 79.1342 -4.38693 -0.637434 0
M  V30 882 H 76.3542 -0.668479 0.0581075 0
M  V30 883 H 78.8982 -1.8798 0.805218 0
M  V30 884 H 77.0532 -3.79578 -0.774554 0
M  V30 885 H 77.4672 -5.15385 0.973598 0
M  V30 886 H 78.9412 -5.47464 -0.706237 0
M  V30 887 H 79.4182 -4.06836 -1.65472 0
M  V30 888 H 80.0242 -4.25299 0.00725967 0
M  V30 889 N 78.3393 -0.321999 -1.54275 0
M  V30 890 C 79.5863 0.281044 -2.0054 0
M  V30 891 C 79.9143 1.52265 -1.21019 0
M  V30 892 O 79.1693 1.93687 -0.279982 0
M  V30 893 C 79.4683 0.661769 -3.5122 0
M  V30 894 C 79.1343 -0.480482 -4.48333 0
M  V30 895 C 77.7963 -0.794005 -4.74604 0
M  V30 896 C 80.1483 -1.24783 -5.06042 0
M  V30 897 C 77.4763 -1.87763 -5.55844 0
M  V30 898 C 79.8283 -2.32153 -5.88462 0
M  V30 899 C 78.4923 -2.64089 -6.13036 0
M  V30 900 H 77.7623 0.102841 -0.733829 0
M  V30 901 H 80.4093 -0.445453 -1.86247 0
M  V30 902 H 78.7143 1.46867 -3.63232 0
M  V30 903 H 80.4113 1.13989 -3.84457 0
M  V30 904 H 77.0013 -0.226039 -4.28004 0
M  V30 905 H 81.1853 -1.01887 -4.85729 0
M  V30 906 H 76.4413 -2.12954 -5.73115 0
M  V30 907 H 80.6153 -2.92057 -6.32199 0
M  V30 908 H 78.2423 -3.48185 -6.75775 0
M  V30 909 N 79.8174 1.5752 -0.0501392 0
M  V30 910 C 80.7644 2.1147 0.924603 0
M  V30 911 C 81.7344 1.02182 1.30951 0
M  V30 912 O 82.9194 1.29723 1.39916 0
M  V30 913 C 80.0594 2.66337 2.19451 0
M  V30 914 C 79.1724 3.89708 1.86418 0
M  V30 915 C 78.3074 4.32893 3.07859 0
M  V30 916 C 77.3464 5.48967 2.70742 0
M  V30 917 N 76.4834 5.87211 3.84874 0
M  V30 918 H 81.3234 2.94465 0.457639 0
M  V30 919 H 78.8604 1.45531 0.214266 0
M  V30 920 H 80.8184 2.96247 2.93758 0
M  V30 921 H 79.4484 1.86141 2.63726 0
M  V30 922 H 78.5004 3.66396 1.02264 0
M  V30 923 H 79.8124 4.74074 1.55096 0
M  V30 924 H 78.9664 4.6435 3.90466 0
M  V30 925 H 77.7054 3.47336 3.42358 0
M  V30 926 H 76.7104 5.17183 1.86551 0
M  V30 927 H 77.9354 6.3624 2.37436 0
M  V30 928 H 75.8814 5.04607 4.19175 0
M  V30 929 H 75.7984 6.66266 3.57247 0
M  V30 930 H 77.0664 6.23282 4.68123 0
M  V30 931 N 81.2955 -0.223234 1.56011 0
M  V30 932 C 82.2435 -1.29627 1.93131 0
M  V30 933 C 83.2375 -1.48608 0.813146 0
M  V30 934 O 84.4435 -1.49802 0.997966 0
M  V30 935 H 80.8185 -0.434563 0.613726 0
M  V30 936 H 82.7895 -0.955995 2.82672 0
M  V30 937 C 81.5385 -2.63983 2.26292 0
M  V30 938 H 80.8615 -2.50185 3.11846 0
M  V30 939 H 82.3015 -3.3788 2.56151 0
M  V30 940 C 80.7605 -3.18866 1.08747 0
M  V30 941 O 81.2905 -4.00192 0.347727 0
M  V30 942 N 79.4965 -2.77217 0.871743 0
M  V30 943 H 79.0435 -2.1119 1.47501 0
M  V30 944 H 79.0015 -3.1428 0.0869905 0
M  V30 945 N 82.7736 -1.49793 -0.48987 0
M  V30 946 C 84.1846 -1.52914 -1.07118 0
M  V30 947 C 84.5356 -0.321738 -1.93544 0
M  V30 948 O 83.6606 0.567338 -2.08831 0
M  V30 949 C 84.2556 -2.771 -1.94938 0
M  V30 950 C 82.8146 -2.82963 -2.48212 0
M  V30 951 C 81.9616 -2.46972 -1.26096 0
M  V30 952 H 84.9126 -1.56329 -0.273289 0
M  V30 953 H 84.9336 -2.57892 -2.79771 0
M  V30 954 H 84.4456 -3.64959 -1.32009 0
M  V30 955 H 82.5466 -1.99411 -3.14748 0
M  V30 956 H 82.6596 -3.85406 -2.84603 0
M  V30 957 H 81.0236 -1.98994 -1.58976 0
M  V30 958 H 81.8066 -3.37118 -0.648581 0
M  V30 959 N 84.2517 0.741722 -1.39055 0
M  V30 960 C 85.1817 1.869 -1.39966 0
M  V30 961 C 86.1627 1.6804 -0.26392 0
M  V30 962 O 87.3477 1.88458 -0.468755 0
M  V30 963 C 84.4777 3.24572 -1.23574 0
M  V30 964 C 83.4317 3.58056 -2.34477 0
M  V30 965 C 82.7577 4.94593 -2.0318 0
M  V30 966 C 84.0577 3.61716 -3.76774 0
M  V30 967 H 85.7517 1.86395 -2.34302 0
M  V30 968 H 83.2977 0.895361 -1.1278 0
M  V30 969 H 85.2507 4.031 -1.22834 0
M  V30 970 H 83.9747 3.25587 -0.257045 0
M  V30 971 H 82.6337 2.81854 -2.34423 0
M  V30 972 H 82.2817 4.92181 -1.03765 0
M  V30 973 H 81.9817 5.17964 -2.77465 0
M  V30 974 H 83.5057 5.75486 -2.04079 0
M  V30 975 H 84.9197 4.30335 -3.78794 0
M  V30 976 H 83.3167 3.96603 -4.50362 0
M  V30 977 H 84.3867 2.61672 -4.08235 0
M  V30 978 N 85.7298 1.2412 0.971189 0
M  V30 979 C 86.9778 1.07668 1.71032 0
M  V30 980 C 87.2988 -0.385797 1.91146 0
M  V30 981 O 86.5688 -1.27569 1.4867 0
M  V30 982 H 85.1488 0.395429 0.633755 0
M  V30 983 H 87.8108 1.55984 1.16855 0
M  V30 984 H 86.9068 1.57195 2.69622 0
M  V30 985 N 87.2079 -1.17134 1.05439 0
M  V30 986 C 88.1379 -2.2342 0.678649 0
M  V30 987 C 89.1189 -1.66971 -0.32476 0
M  V30 988 O 90.3039 -1.93149 -0.201802 0
M  V30 989 C 87.4339 -3.47256 0.0552099 0
M  V30 990 C 86.3879 -4.16543 0.98365 0
M  V30 991 C 85.7139 -5.34231 0.223961 0
M  V30 992 C 87.0139 -4.68495 2.3089 0
M  V30 993 H 88.7079 -2.55105 1.56722 0
M  V30 994 H 86.2539 -1.2262 0.754998 0
M  V30 995 H 88.2069 -4.20828 -0.21946 0
M  V30 996 H 86.9309 -3.14846 -0.868319 0
M  V30 997 H 85.5899 -3.44887 1.24293 0
M  V30 998 H 85.2379 -4.98071 -0.702412 0
M  V30 999 H 84.9379 -5.81527 0.842627 0
M  V30 1000 H 86.4619 -6.10585 -0.0433671 0
M  V30 1001 H 87.8759 -5.33691 2.09396 0
M  V30 1002 H 86.2729 -5.26379 2.88176 0
M  V30 1003 H 87.3429 -3.85169 2.94572 0
M  V30 1004 N 88.686 -0.835752 -1.33615 0
M  V30 1005 C 89.649 -0.272 -2.2758 0
M  V30 1006 C 90.649 0.557487 -1.50827 0
M  V30 1007 O 91.839 0.37173 -1.70188 0
M  V30 1008 C 88.971 0.617173 -3.35267 0
M  V30 1009 H 90.164 -1.10111 -2.78954 0
M  V30 1010 H 87.717 -0.608594 -1.43965 0
M  V30 1011 H 88.452 1.46884 -2.89129 0
M  V30 1012 H 88.237 0.0237066 -3.92093 0
M  V30 1013 H 89.727 1.005 -4.05326 0
M  V30 1014 N 90.1641 1.46063 -0.591896 0
M  V30 1015 C 91.1271 2.28854 0.125973 0
M  V30 1016 C 92.1271 1.38903 0.810107 0
M  V30 1017 O 93.3171 1.61186 0.66066 0
M  V30 1018 C 90.4491 3.19526 1.1881 0
M  V30 1019 H 91.6421 2.93802 -0.601717 0
M  V30 1020 H 89.1951 1.52325 -0.350254 0
M  V30 1021 H 89.9301 2.59345 1.94707 0
M  V30 1022 H 89.7151 3.85766 0.701936 0
M  V30 1023 H 91.2051 3.81817 1.69132 0
M  V30 1024 N 91.6422 0.330177 1.54103 0
M  V30 1025 C 92.8902 -0.269871 2.0029 0
M  V30 1026 C 93.2112 -1.52133 1.21986 0
M  V30 1027 O 92.4812 -1.93212 0.323438 0
M  V30 1028 H 91.0612 -0.10271 0.739905 0
M  V30 1029 H 93.7232 0.448249 1.89675 0
M  V30 1030 H 92.8192 -0.52166 3.07709 0
M  V30 1031 N 93.1203 -1.57491 0.0584922 0
M  V30 1032 C 94.0503 -2.14988 -0.911178 0
M  V30 1033 C 95.0313 -1.07343 -1.31952 0
M  V30 1034 O 96.2163 -1.35318 -1.39294 0
M  V30 1035 C 93.3463 -2.70078 -2.18347 0
M  V30 1036 C 92.3003 -3.82771 -1.91495 0
M  V30 1037 C 91.6263 -4.24408 -3.25241 0
M  V30 1038 C 92.9263 -5.07592 -1.23075 0
M  V30 1039 H 94.6203 -2.96263 -0.432246 0
M  V30 1040 H 92.1663 -1.42512 -0.206469 0
M  V30 1041 H 94.1193 -3.08943 -2.86587 0
M  V30 1042 H 92.8433 -1.86005 -2.68458 0
M  V30 1043 H 91.5023 -3.44389 -1.25664 0
M  V30 1044 H 91.1503 -3.37275 -3.73168 0
M  V30 1045 H 90.8503 -5.00366 -3.08071 0
M  V30 1046 H 92.3743 -4.65879 -3.94701 0
M  V30 1047 H 93.7883 -5.43857 -1.81362 0
M  V30 1048 H 92.1853 -5.88741 -1.16207 0
M  V30 1049 H 93.2553 -4.84454 -0.207847 0
M  V30 1050 N 94.5984 0.214957 -1.56127 0
M  V30 1051 C 95.8754 0.963093 -1.70247 0
M  V30 1052 C 96.2554 2.02166 -0.60764 0
M  V30 1053 O 95.6034 2.25244 0.384385 0
M  V30 1054 C 95.8134 1.56756 -3.11815 0
M  V30 1055 C 97.1614 2.0573 -3.7143 0
M  V30 1056 O 98.1854 1.66637 -3.14818 0
M  V30 1057 O 97.0444 2.77603 -4.70743 0
M  V30 1058 H 94.1384 0.450321 -0.693643 0
M  V30 1059 H 96.6844 0.206219 -1.68442 0
M  V30 1060 H 95.4564 0.803533 -3.82961 0
M  V30 1061 H 95.0794 2.3898 -3.17765 0
M  V30 1062 N 96.0765 1.50051 0.48192 0
M  V30 1063 C 97.0235 1.68122 1.58125 0
M  V30 1064 C 97.9935 0.522545 1.57666 0
M  V30 1065 O 99.1785 0.751844 1.75362 0
M  V30 1066 C 96.3185 1.77142 2.96167 0
M  V30 1067 C 95.4315 3.0444 3.06497 0
M  V30 1068 C 94.5665 3.04321 4.35387 0
M  V30 1069 C 93.6055 4.26118 4.3942 0
M  V30 1070 N 92.7425 4.238 5.59766 0
M  V30 1071 H 97.5825 2.6198 1.42022 0
M  V30 1072 H 95.1195 1.29877 0.690687 0
M  V30 1073 H 97.0775 1.80352 3.76203 0
M  V30 1074 H 95.7075 0.867329 3.1093 0
M  V30 1075 H 94.7595 3.10752 2.19402 0
M  V30 1076 H 96.0715 3.94426 3.05336 0
M  V30 1077 H 95.2255 3.062 5.23762 0
M  V30 1078 H 93.9645 2.12147 4.39141 0
M  V30 1079 H 92.9695 4.24463 3.49444 0
M  V30 1080 H 94.1945 5.19507 4.37366 0
M  V30 1081 H 92.1405 3.34474 5.64326 0
M  V30 1082 H 92.0575 5.07542 5.60301 0
M  V30 1083 H 93.3255 4.2981 6.50295 0
M  V30 1084 N 97.5546 -0.734337 1.39446 0
M  V30 1085 C 98.8316 -1.48579 1.27215 0
M  V30 1086 C 99.2116 -2.1077 -0.117968 0
M  V30 1087 O 98.5596 -1.98646 -1.12924 0
M  V30 1088 C 98.7696 -2.53667 2.39696 0
M  V30 1089 C 100.118 -3.20031 2.79044 0
M  V30 1090 O 101.142 -2.6398 2.39151 0
M  V30 1091 O 100.001 -4.21455 3.47905 0
M  V30 1092 H 97.0946 -0.659816 0.49857 0
M  V30 1093 H 99.6406 -0.768106 1.51322 0
M  V30 1094 H 98.4126 -2.06096 3.32626 0
M  V30 1095 H 98.0356 -3.32994 2.17258 0
M  V30 1096 N 99.0327 -1.24633 -0.964593 0
M  V30 1097 C 100.281 -1.08573 -1.70459 0
M  V30 1098 C 100.602 0.375655 -1.91347 0
M  V30 1099 O 99.8717 1.26779 -1.49345 0
M  V30 1100 H 98.4517 -0.398784 -0.631649 0
M  V30 1101 H 101.114 -1.56601 -1.16026 0
M  V30 1102 H 100.21 -1.58623 -2.68785 0
M  V30 1103 N 100.511 1.16574 -1.06058 0
M  V30 1104 C 101.421 2.2452 -0.680282 0
M  V30 1105 C 102.437 1.71348 0.302604 0
M  V30 1106 O 103.613 2.00822 0.152513 0
M  V30 1107 C 100.678 3.46629 -0.0700315 0
M  V30 1108 C 99.7388 4.14849 -1.10448 0
M  V30 1109 C 98.9718 5.31129 -0.523256 0
M  V30 1110 O 99.1948 5.66514 0.664709 0
M  V30 1111 O 98.1288 5.88526 -1.26179 0
M  V30 1112 H 101.955 2.59355 -1.58015 0
M  V30 1113 H 99.5398 1.24043 -0.832694 0
M  V30 1114 H 101.422 4.20543 0.268667 0
M  V30 1115 H 100.097 3.13573 0.803353 0
M  V30 1116 H 99.0038 3.42916 -1.49532 0
M  V30 1117 H 100.337 4.51954 -1.94931 0
M  V30 1118 N 101.989 0.842826 1.3317 0
M  V30 1119 C 103.229 0.446574 1.99462 0
M  V30 1120 C 103.593 -0.976818 1.65295 0
M  V30 1121 O 104.794 -1.477 2.24584 0
M  V30 1122 C 103.065 0.665353 3.51152 0
M  V30 1123 S 104.624 0.364911 4.3728 0
M  V30 1124 H 101.442 0.167803 0.690915 0
M  V30 1125 H 104.044 1.09297 1.62094 0
M  V30 1126 H 102.748 1.7006 3.73507 0
M  V30 1127 H 102.279 0.00494568 3.934 0
M  V30 1128 H 104.294 -0.813761 4.89482 0
M  V30 1129 N 103.467 -1.45747 0.599634 0
M  V30 1130 C 104.716 -2.01502 0.0893511 0
M  V30 1131 C 105.029 -1.4748 -1.28488 0
M  V30 1132 O 106.235 -1.95161 -1.88745 0
M  V30 1133 C 104.691 -3.59735 0.109082 0
M  V30 1134 C 104.299 -4.22754 1.48267 0
M  V30 1135 C 106.043 -4.23085 -0.346374 0
M  V30 1136 C 103.95 -5.73115 1.45921 0
M  V30 1137 H 102.88 -0.753417 0.0296347 0
M  V30 1138 H 105.531 -1.67303 0.753788 0
M  V30 1139 H 103.913 -3.91087 -0.621854 0
M  V30 1140 H 105.087 -4.02987 2.23468 0
M  V30 1141 H 103.402 -3.71567 1.87955 0
M  V30 1142 H 105.999 -5.33327 -0.38298 0
M  V30 1143 H 106.342 -3.93201 -1.36743 0
M  V30 1144 H 106.875 -3.9642 0.331038 0
M  V30 1145 H 103.614 -6.07685 2.45762 0
M  V30 1146 H 103.134 -5.95097 0.749665 0
M  V30 1147 H 104.813 -6.3616 1.17941 0
M  V30 1148 N 104.945 -0.338344 -1.53925 0
M  V30 1149 C 106.222 0.314774 -1.93051 0
M  V30 1150 C 106.602 1.68669 -1.26941 0
M  V30 1151 O 105.95 2.24636 -0.418445 0
M  V30 1152 C 106.16 0.392249 -3.46789 0
M  V30 1153 C 107.508 0.645554 -4.19664 0
M  V30 1154 O 108.532 0.474575 -3.53024 0
M  V30 1155 O 107.391 0.976408 -5.37707 0
M  V30 1156 H 104.485 0.182598 -0.80659 0
M  V30 1157 H 107.031 -0.389141 -1.65178 0
M  V30 1158 H 105.803 -0.570702 -3.87116 0
M  V30 1159 H 105.426 1.14316 -3.80812 0
M  V30 1160 N 106.423 1.57458 -0.0668435 0
M  V30 1161 C 107.386 2.11323 0.887422 0
M  V30 1162 C 108.386 1.03618 1.22964 0
M  V30 1163 O 109.576 1.29626 1.16373 0
M  V30 1164 C 106.708 2.61048 2.19242 0
M  V30 1165 H 107.901 2.96942 0.420194 0
M  V30 1166 H 105.454 1.55239 0.181793 0
M  V30 1167 H 106.189 1.78868 2.70512 0
M  V30 1168 H 105.974 3.39769 1.95702 0
M  V30 1169 H 107.464 3.02814 2.87565 0
M  V30 1170 N 107.901 -0.206675 1.56239 0
M  V30 1171 C 108.831 -1.25909 1.96645 0
M  V30 1172 C 109.812 -1.48097 0.836734 0
M  V30 1173 O 110.997 -1.6003 1.10019 0
M  V30 1174 C 108.127 -2.6058 2.29599 0
M  V30 1175 C 107.081 -2.53024 3.452 0
M  V30 1176 C 106.407 -3.91861 3.63798 0
M  V30 1177 C 107.707 -2.06524 4.79734 0
M  V30 1178 H 109.401 -0.923369 2.84806 0
M  V30 1179 H 106.947 -0.442735 1.37025 0
M  V30 1180 H 108.9 -3.34375 2.56459 0
M  V30 1181 H 107.624 -2.95869 1.38307 0
M  V30 1182 H 106.283 -1.81684 3.18412 0
M  V30 1183 H 105.931 -4.24483 2.69857 0
M  V30 1184 H 105.631 -3.87683 4.4156 0
M  V30 1185 H 107.155 -4.67296 3.93022 0
M  V30 1186 H 108.569 -2.70072 5.05702 0
M  V30 1187 H 106.966 -2.13374 5.60885 0
M  V30 1188 H 108.036 -1.01802 4.74093 0
M  V30 1189 N 109.379 -1.50304 -0.473955 0
M  V30 1190 C 110.627 -1.60832 -1.22382 0
M  V30 1191 C 110.948 -0.30939 -1.9253 0
M  V30 1192 O 110.218 0.67296 -1.83978 0
M  V30 1193 H 108.798 -0.592652 -0.454723 0
M  V30 1194 H 111.46 -1.87068 -0.546968 0
M  V30 1195 H 110.556 -2.41803 -1.97327 0
M  V30 1196 N 110.857 0.726932 -1.39834 0
M  V30 1197 C 111.82 1.82269 -1.38962 0
M  V30 1198 C 112.82 1.58248 -0.285334 0
M  V30 1199 O 114.01 1.65499 -0.54366 0
M  V30 1200 C 111.142 3.20186 -1.17019 0
M  V30 1201 H 112.335 1.84443 -2.36476 0
M  V30 1202 H 109.888 0.931416 -1.25516 0
M  V30 1203 H 110.623 3.23669 -0.202204 0
M  V30 1204 H 110.408 3.3902 -1.96998 0
M  V30 1205 H 111.898 4.00235 -1.1917 0
M  V30 1206 N 112.336 1.25143 0.95797 0
M  V30 1207 C 113.269 0.995565 2.05338 0
M  V30 1208 C 114.247 -0.0740423 1.62431 0
M  V30 1209 O 115.431 0.0649212 1.88388 0
M  V30 1210 C 112.558 0.504298 3.34925 0
M  V30 1211 C 111.604 1.56393 3.96792 0
M  V30 1212 S 112.437 3.14815 4.33188 0
M  V30 1213 C 113.593 2.67415 5.65898 0
M  V30 1214 H 113.826 1.92309 2.26726 0
M  V30 1215 H 111.359 1.08635 1.09716 0
M  V30 1216 H 113.317 0.227497 4.09869 0
M  V30 1217 H 111.978 -0.402671 3.11508 0
M  V30 1218 H 111.171 1.17082 4.90212 0
M  V30 1219 H 110.773 1.79124 3.28315 0
M  V30 1220 H 113.065 2.10833 6.4386 0
M  V30 1221 H 114.008 3.59463 6.10076 0
M  V30 1222 H 114.416 2.07521 5.24972 0
M  V30 1223 N 113.814 -1.1601 1.06675 0
M  V30 1224 C 115.062 -1.86264 0.784229 0
M  V30 1225 C 115.383 -1.82328 -0.691488 0
M  V30 1226 O 114.653 -1.25947 -1.50047 0
M  V30 1227 H 113.233 -0.689621 0.28711 0
M  V30 1228 H 115.895 -1.40664 1.34906 0
M  V30 1229 H 114.991 -2.91595 1.11259 0
M  V30 1230 N 115.292 -0.849877 -1.32721 0
M  V30 1231 C 116.539 -0.450923 -1.97416 0
M  V30 1232 C 116.867 0.992376 -1.67279 0
M  V30 1233 O 116.122 1.71048 -0.950845 0
M  V30 1234 C 116.421 -0.631272 -3.51781 0
M  V30 1235 C 116.087 -2.04432 -4.01894 0
M  V30 1236 C 114.749 -2.4308 -4.1529 0
M  V30 1237 C 117.101 -2.96679 -4.28522 0
M  V30 1238 C 114.429 -3.73257 -4.52654 0
M  V30 1239 C 116.781 -4.26349 -4.67343 0
M  V30 1240 C 115.445 -4.64939 -4.78945 0
M  V30 1241 H 114.715 -0.165004 -0.722395 0
M  V30 1242 H 117.362 -1.07901 -1.58207 0
M  V30 1243 H 115.667 0.0800767 -3.91718 0
M  V30 1244 H 117.364 -0.302709 -3.99856 0
M  V30 1245 H 113.954 -1.73419 -3.91949 0
M  V30 1246 H 118.138 -2.68054 -4.17685 0
M  V30 1247 H 113.394 -4.02946 -4.59831 0
M  V30 1248 H 117.568 -4.97895 -4.86902 0
M  V30 1249 H 115.195 -5.65855 -5.07654 0
M  V30 1250 N 116.77 1.45427 -0.607355 0
M  V30 1251 C 118.018 2.01841 -0.102253 0
M  V30 1252 C 118.339 1.47832 1.27164 0
M  V30 1253 O 117.609 0.672497 1.83995 0
M  V30 1254 H 116.189 0.746188 -0.0348101 0
M  V30 1255 H 118.851 1.78229 -0.7887 0
M  V30 1256 H 117.947 3.12057 -0.0518585 0
M  V30 1257 N 118.248 0.346503 1.53744 0
M  V30 1258 C 119.473 -0.253074 2.0585 0
M  V30 1259 C 119.898 -1.43202 1.21962 0
M  V30 1260 O 119.256 -1.79783 0.234073 0
M  V30 1261 C 119.304 -0.643193 3.54817 0
M  V30 1262 O 118.408 -1.74286 3.73762 0
M  V30 1263 H 117.749 -0.0413583 0.662711 0
M  V30 1264 H 120.279 0.501574 1.98357 0
M  V30 1265 H 120.289 -0.919526 3.97503 0
M  V30 1266 H 118.964 0.218966 4.15323 0
M  V30 1267 H 117.541 -1.46356 3.42979 0
M  V30 1268 N 119.726 -1.57421 0.075193 0
M  V30 1269 C 120.975 -1.92794 -0.592731 0
M  V30 1270 C 121.288 -0.957478 -1.70563 0
M  V30 1271 O 122.494 -1.20417 -2.43335 0
M  V30 1272 C 120.95 -3.42495 -1.10569 0
M  V30 1273 C 120.558 -4.47994 -0.0236121 0
M  V30 1274 C 122.302 -3.86864 -1.74748 0
M  V30 1275 C 120.209 -5.88829 -0.550803 0
M  V30 1276 H 119.139 -0.719591 -0.225177 0
M  V30 1277 H 121.79 -1.82902 0.147978 0
M  V30 1278 H 120.172 -3.47471 -1.89947 0
M  V30 1279 H 121.346 -4.54637 0.751099 0
M  V30 1280 H 119.661 -4.13113 0.522159 0
M  V30 1281 H 122.258 -4.8947 -2.15229 0
M  V30 1282 H 122.601 -3.24417 -2.60882 0
M  V30 1283 H 123.134 -3.84504 -1.01986 0
M  V30 1284 H 119.873 -6.54929 0.273457 0
M  V30 1285 H 119.393 -5.85698 -1.29296 0
M  V30 1286 H 121.072 -6.38811 -1.02613 0
M  V30 1287 N 121.204 0.198386 -1.56346 0
M  V30 1288 C 122.114 1.2664 -1.97483 0
M  V30 1289 C 123.13 1.49989 -0.882002 0
M  V30 1290 O 124.306 1.62668 -1.18748 0
M  V30 1291 C 121.371 2.59141 -2.30319 0
M  V30 1292 C 120.432 2.43892 -3.53292 0
M  V30 1293 C 119.665 3.70074 -3.84553 0
M  V30 1294 O 119.888 4.74101 -3.1715 0
M  V30 1295 O 118.822 3.658 -4.7799 0
M  V30 1296 H 122.648 0.947304 -2.88548 0
M  V30 1297 H 120.233 0.403123 -1.43859 0
M  V30 1298 H 122.115 3.37352 -2.5253 0
M  V30 1299 H 120.79 2.90684 -1.42423 0
M  V30 1300 H 119.697 1.63803 -3.36332 0
M  V30 1301 H 121.03 2.17282 -4.41644 0
M  V30 1302 N 122.682 1.50554 0.465978 0
M  V30 1303 C 123.931 1.61038 1.21448 0
M  V30 1304 C 124.244 0.31865 1.92987 0
M  V30 1305 O 125.45 0.302469 2.6981 0
M  V30 1306 C 123.906 2.84283 2.20706 0
M  V30 1307 C 123.514 4.20352 1.54946 0
M  V30 1308 C 125.258 3.04115 2.96166 0
M  V30 1309 C 123.165 5.34778 2.5252 0
M  V30 1310 H 122.095 0.599718 0.457005 0
M  V30 1311 H 124.746 1.7699 0.484424 0
M  V30 1312 H 123.128 2.61901 2.97025 0
M  V30 1313 H 124.302 4.53008 0.843811 0
M  V30 1314 H 122.617 4.06167 0.917475 0
M  V30 1315 H 125.214 3.86774 3.69202 0
M  V30 1316 H 125.557 2.16045 3.55852 0
M  V30 1317 H 126.09 3.26702 2.26959 0
M  V30 1318 H 122.829 6.25018 1.97566 0
M  V30 1319 H 122.349 5.06534 3.21222 0
M  V30 1320 H 124.028 5.65561 3.14245 0
M  V30 1321 N 124.16 -0.719506 1.40217 0
M  V30 1322 C 125.408 -1.47641 1.3801 0
M  V30 1323 C 125.729 -1.94992 -0.018145 0
M  V30 1324 O 124.999 -1.70073 -0.972207 0
M  V30 1325 H 123.579 -0.547744 0.507923 0
M  V30 1326 H 126.241 -0.853187 1.75233 0
M  V30 1327 H 125.337 -2.35112 2.05253 0
M  V30 1328 N 125.638 -1.25649 -0.95132 0
M  V30 1329 C 126.866 -1.13343 -1.73092 0
M  V30 1330 C 127.281 0.312434 -1.86197 0
M  V30 1331 O 126.638 1.21465 -1.36207 0
M  V30 1332 C 126.689 -1.78602 -3.14299 0
M  V30 1333 O 126.41 -3.17537 -3.01831 0
M  V30 1334 C 127.911 -1.72119 -4.08522 0
M  V30 1335 H 125.131 -0.395181 -0.542285 0
M  V30 1336 H 127.675 -1.66076 -1.19328 0
M  V30 1337 H 125.83 -1.29832 -3.64996 0
M  V30 1338 H 126.244 -3.49676 -3.90931 0
M  V30 1339 H 127.718 -2.22435 -5.052 0
M  V30 1340 H 128.195 -0.685635 -4.33815 0
M  V30 1341 H 128.801 -2.20393 -3.63741 0
M  V30 1342 N 127.117 1.15442 -1.07289 0
M  V30 1343 C 128.363 1.86489 -0.796846 0
M  V30 1344 C 128.696 1.82078 0.675371 0
M  V30 1345 O 127.971 1.24346 1.4956 0
M  V30 1346 C 128.254 3.35626 -1.30489 0
M  V30 1347 C 128.107 3.48673 -2.84161 0
M  V30 1348 C 129.426 4.30357 -0.920907 0
M  V30 1349 H 126.545 0.677144 -0.290939 0
M  V30 1350 H 129.187 1.35633 -1.33056 0
M  V30 1351 H 127.337 3.79068 -0.850883 0
M  V30 1352 H 129.009 3.14099 -3.37846 0
M  V30 1353 H 127.252 2.90253 -3.22391 0
M  V30 1354 H 127.923 4.53453 -3.14777 0
M  V30 1355 H 130.399 3.94871 -1.3121 0
M  V30 1356 H 129.275 5.33193 -1.30372 0
M  V30 1357 H 129.536 4.4176 0.173226 0
M  V30 1358 N 128.595 0.856903 1.32268 0
M  V30 1359 C 129.823 0.475439 2.01363 0
M  V30 1360 C 130.238 -0.928486 1.64392 0
M  V30 1361 O 129.595 -1.60624 0.866387 0
M  V30 1362 C 129.646 0.607545 3.56358 0
M  V30 1363 O 129.367 1.95617 3.92002 0
M  V30 1364 C 130.868 0.225382 4.42727 0
M  V30 1365 H 128.088 0.186636 0.644521 0
M  V30 1366 H 130.632 1.15446 1.68797 0
M  V30 1367 H 128.787 -0.0237719 3.87393 0
M  V30 1368 H 129.201 1.95455 4.86721 0
M  V30 1369 H 130.675 0.368813 5.50767 0
M  V30 1370 H 131.152 -0.834369 4.31202 0
M  V30 1371 H 131.758 0.831864 4.17085 0
M  V30 1372 N 130.073 -1.45103 0.615059 0
M  V30 1373 C 131.484 -1.85654 0.197383 0
M  V30 1374 C 131.835 -1.51433 -1.24749 0
M  V30 1375 O 130.96 -0.944608 -1.94695 0
M  V30 1376 C 131.555 -3.36972 0.351448 0
M  V30 1377 C 130.114 -3.76398 -0.011593 0
M  V30 1378 C 129.261 -2.69024 0.672394 0
M  V30 1379 H 132.212 -1.35797 0.821263 0
M  V30 1380 H 132.233 -3.78239 -0.414227 0
M  V30 1381 H 131.745 -3.61847 1.40314 0
M  V30 1382 H 129.846 -3.5714 -1.06217 0
M  V30 1383 H 129.959 -4.77532 0.387265 0
M  V30 1384 H 128.323 -2.54465 0.109284 0
M  V30 1385 H 129.106 -2.96735 1.72636 0
M  V30 1386 N 131.551 -0.354651 -1.53558 0
M  V30 1387 C 132.967 -0.00315426 -1.596 0
M  V30 1388 C 133.167 1.47741 -1.37021 0
M  V30 1389 O 132.223 2.23759 -1.16996 0
M  V30 1390 C 133.536 -0.44929 -2.97325 0
M  V30 1391 C 135.084 -0.402578 -3.104 0
M  V30 1392 C 135.559 -0.824355 -4.5052 0
M  V30 1393 N 137.05 -0.778979 -4.56603 0
M  V30 1394 C 137.785 -1.07715 -5.63192 0
M  V30 1395 N 137.281 -1.44405 -6.77583 0
M  V30 1396 N 139.074 -1.00066 -5.53121 0
M  V30 1397 H 131.225 -1.31893 -1.66487 0
M  V30 1398 H 133.488 -0.538388 -0.780284 0
M  V30 1399 H 133.194 -1.48202 -3.1895 0
M  V30 1400 H 133.068 0.169772 -3.76818 0
M  V30 1401 H 135.455 0.621004 -2.88492 0
M  V30 1402 H 135.536 -1.05699 -2.32941 0
M  V30 1403 H 135.18 -1.846 -4.73165 0
M  V30 1404 H 135.11 -0.147304 -5.26394 0
M  V30 1405 H 137.601 -0.508528 -3.74463 0
M  V30 1406 H 137.914 -1.65612 -7.54846 0
M  V30 1407 H 136.259 -1.4826 -6.79002 0
M  V30 1408 H 139.45 -0.713293 -4.62633 0
M  V30 1409 H 139.623 -1.23638 -6.36096 0
M  V30 1410 N 133.029 1.57378 -0.0835403 0
M  V30 1411 C 134.44 1.81261 0.447358 0
M  V30 1412 C 134.791 0.998331 1.68902 0
M  V30 1413 O 133.916 0.224282 2.15235 0
M  V30 1414 C 134.511 3.28767 0.818386 0
M  V30 1415 C 133.07 3.53455 1.29409 0
M  V30 1416 C 132.217 2.75831 0.285024 0
M  V30 1417 H 135.168 1.5566 -0.309115 0
M  V30 1418 H 135.189 3.41459 1.67887 0
M  V30 1419 H 134.701 3.88006 -0.0855019 0
M  V30 1420 H 132.802 2.99534 2.21608 0
M  V30 1421 H 132.915 4.62128 1.2639 0
M  V30 1422 H 131.279 2.42947 0.764767 0
M  V30 1423 H 132.062 3.37813 -0.611341 0
M  V30 1424 N 134.507 -0.190092 1.56449 0
M  V30 1425 C 135.439 -1.25973 1.91477 0
M  V30 1426 C 136.452 -1.41452 0.805931 0
M  V30 1427 O 137.641 -1.41789 1.08435 0
M  V30 1428 C 134.741 -2.63117 2.13594 0
M  V30 1429 C 133.914 -2.69182 3.4476 0
M  V30 1430 C 132.973 -3.87557 3.5593 0
M  V30 1431 O 131.999 -3.74427 4.28711 0
M  V30 1432 N 133.201 -5.03224 2.89388 0
M  V30 1433 H 135.966 -0.962394 2.83828 0
M  V30 1434 H 133.527 -0.379981 1.57378 0
M  V30 1435 H 135.519 -3.40742 2.1835 0
M  V30 1436 H 134.089 -2.85319 1.27719 0
M  V30 1437 H 133.309 -1.77793 3.51828 0
M  V30 1438 H 134.597 -2.70229 4.31107 0
M  V30 1439 H 133.995 -5.16791 2.30094 0
M  V30 1440 H 132.552 -5.78778 2.99764 0
M  V30 1441 N 135.985 -1.50799 -0.457987 0
M  V30 1442 C 137.396 -1.55152 -1.0385 0
M  V30 1443 C 137.747 -0.362719 -1.92818 0
M  V30 1444 O 136.872 0.522915 -2.09987 0
M  V30 1445 C 137.467 -2.81173 -1.89017 0
M  V30 1446 C 136.026 -2.88164 -2.42154 0
M  V30 1447 C 135.173 -2.49591 -1.20829 0
M  V30 1448 H 138.124 -1.56874 -0.240068 0
M  V30 1449 H 138.145 -2.63769 -2.74238 0
M  V30 1450 H 137.657 -3.67677 -1.24238 0
M  V30 1451 H 135.758 -2.06042 -3.10447 0
M  V30 1452 H 135.871 -3.91356 -2.76364 0
M  V30 1453 H 134.235 -2.02322 -1.54719 0
M  V30 1454 H 135.018 -3.38418 -0.576927 0
M  V30 1455 N 137.463 0.71206 -1.40597 0
M  V30 1456 C 138.711 1.46907 -1.38791 0
M  V30 1457 C 139.032 1.94998 0.00780391 0
M  V30 1458 O 138.302 1.70587 0.963174 0
M  V30 1459 H 136.882 0.545043 -0.51082 0
M  V30 1460 H 139.544 0.843882 -1.75683 0
M  V30 1461 H 138.64 2.34021 -2.06496 0
M  V30 1462 N 138.941 1.26152 0.944643 0
M  V30 1463 C 139.889 1.07215 2.06417 0
M  V30 1464 C 140.883 9.2007e-05 1.694 0
M  V30 1465 O 142.089 0.1565 1.79318 0
M  V30 1466 H 138.464 0.329837 0.675805 0
M  V30 1467 H 140.435 2.02099 2.19541 0
M  V30 1468 C 139.184 0.718197 3.40202 0
M  V30 1469 H 138.507 1.53497 3.69159 0
M  V30 1470 H 139.947 0.625459 4.19361 0
M  V30 1471 C 138.406 -0.576435 3.31932 0
M  V30 1472 O 138.936 -1.61574 3.67773 0
M  V30 1473 N 137.142 -0.565781 2.85039 0
M  V30 1474 H 136.689 0.280367 2.5607 0
M  V30 1475 H 136.647 -1.43213 2.79888 0
M  V30 1476 N 140.419 -1.14872 1.07899 0
M  V30 1477 C 141.696 -1.81928 0.71845 0
M  V30 1478 C 142.076 -1.95417 -0.798455 0
M  V30 1479 O 141.424 -1.50997 -1.715 0
M  V30 1480 C 141.634 -3.17937 1.43935 0
M  V30 1481 C 142.982 -3.93501 1.59506 0
M  V30 1482 O 144.006 -3.27509 1.40058 0
M  V30 1483 O 142.865 -5.1183 1.91551 0
M  V30 1484 H 139.959 -0.78628 0.256305 0
M  V30 1485 H 142.505 -1.21934 1.18026 0
M  V30 1486 H 141.277 -3.0325 2.47295 0
M  V30 1487 H 140.9 -3.85619 0.968687 0
M  V30 1488 N 141.898 -0.863906 -1.31812 0
M  V30 1489 C 142.845 -0.313303 -2.28664 0
M  V30 1490 C 143.815 0.584868 -1.55462 0
M  V30 1491 O 145 0.517805 -1.83639 0
M  V30 1492 C 142.14 0.48441 -3.41683 0
M  V30 1493 C 141.253 -0.440594 -4.29747 0
M  V30 1494 C 140.388 0.370652 -5.29905 0
M  V30 1495 C 139.427 -0.551164 -6.09613 0
M  V30 1496 N 138.564 0.223462 -7.01744 0
M  V30 1497 H 143.404 -1.14444 -2.75148 0
M  V30 1498 H 140.941 -0.575769 -1.35364 0
M  V30 1499 H 142.899 0.962627 -4.05943 0
M  V30 1500 H 141.529 1.28029 -2.96325 0
M  V30 1501 H 140.581 -1.03724 -3.65986 0
M  V30 1502 H 141.893 -1.14767 -4.85417 0
M  V30 1503 H 141.047 0.911638 -5.99812 0
M  V30 1504 H 139.786 1.11105 -4.74876 0
M  V30 1505 H 138.791 -1.10396 -5.38603 0
M  V30 1506 H 140.016 -1.29032 -6.66729 0
M  V30 1507 H 137.962 0.946787 -6.49132 0
M  V30 1508 H 137.879 -0.424399 -7.54808 0
M  V30 1509 H 139.147 0.745876 -7.75923 0
M  V30 1510 N 143.376 1.44774 -0.622745 0
M  V30 1511 C 144.787 1.85546 -0.207226 0
M  V30 1512 C 145.138 1.52093 1.23944 0
M  V30 1513 O 144.263 0.95492 1.94191 0
M  V30 1514 C 144.858 3.36781 -0.369313 0
M  V30 1515 C 143.417 3.76399 -0.00836847 0
M  V30 1516 C 142.564 2.68664 -0.686651 0
M  V30 1517 H 145.515 1.3536 -0.828454 0
M  V30 1518 H 145.536 3.78453 0.394162 0
M  V30 1519 H 145.048 3.61098 -1.42231 0
M  V30 1520 H 143.149 3.57698 1.04322 0
M  V30 1521 H 143.262 4.7732 -0.412584 0
M  V30 1522 H 141.626 2.54404 -0.122777 0
M  V30 1523 H 142.409 2.95815 -1.74208 0
M  V30 1524 N 144.854 0.36279 1.53368 0
M  V30 1525 C 146.27 0.0116182 1.59596 0
M  V30 1526 C 146.47 -1.47012 1.37803 0
M  V30 1527 O 145.526 -2.23136 1.18181 0
M  V30 1528 C 146.839 0.465052 2.97082 0
M  V30 1529 C 148.387 0.419033 3.10182 0
M  V30 1530 C 148.862 0.848235 4.50077 0
M  V30 1531 N 150.353 0.803183 4.56183 0
M  V30 1532 C 151.088 1.107 5.62613 0
M  V30 1533 N 150.584 1.47996 6.76808 0
M  V30 1534 N 152.377 1.02998 5.52583 0
M  V30 1535 H 144.528 1.32775 1.65785 0
M  V30 1536 H 146.791 0.542518 0.777417 0
M  V30 1537 H 146.497 1.49892 3.18159 0
M  V30 1538 H 146.371 -0.149786 3.76902 0
M  V30 1539 H 148.758 -0.605696 2.88817 0
M  V30 1540 H 148.839 1.06933 2.32377 0
M  V30 1541 H 148.483 1.87107 4.7218 0
M  V30 1542 H 148.413 0.175218 5.26308 0
M  V30 1543 H 150.904 0.52838 3.74188 0
M  V30 1544 H 151.217 1.69613 7.53957 0
M  V30 1545 H 149.562 1.51859 6.78206 0
M  V30 1546 H 152.753 0.737817 4.62249 0
M  V30 1547 H 152.926 1.2701 6.35431 0
M  V30 1548 N 146.332 -1.57332 0.0918853 0
M  V30 1549 C 147.262 -2.16872 -0.865371 0
M  V30 1550 C 148.243 -1.10118 -1.29646 0
M  V30 1551 O 149.428 -1.38242 -1.36392 0
M  V30 1552 C 146.558 -2.74649 -2.12569 0
M  V30 1553 C 145.512 -3.86747 -1.83333 0
M  V30 1554 C 144.838 -4.31212 -3.16166 0
M  V30 1555 C 146.138 -5.10089 -1.1228 0
M  V30 1556 H 147.832 -2.97114 -0.369307 0
M  V30 1557 H 145.378 -1.42918 -0.176194 0
M  V30 1558 H 147.331 -3.14952 -2.7997 0
M  V30 1559 H 146.055 -1.91657 -2.64452 0
M  V30 1560 H 144.714 -3.46978 -1.18331 0
M  V30 1561 H 144.362 -3.45115 -3.6593 0
M  V30 1562 H 144.062 -5.06788 -2.97388 0
M  V30 1563 H 145.586 -4.74146 -3.84731 0
M  V30 1564 H 147 -5.47582 -1.69785 0
M  V30 1565 H 145.397 -5.91073 -1.03693 0
M  V30 1566 H 146.467 -4.84786 -0.105041 0
M  V30 1567 N 147.81 0.181792 -1.56548 0
M  V30 1568 C 149.057 0.900097 -1.81396 0
M  V30 1569 C 149.385 1.82695 -0.667281 0
M  V30 1570 O 148.64 1.92614 0.346146 0
M  V30 1571 C 148.939 1.73728 -3.12335 0
M  V30 1572 C 148.605 0.960255 -4.40556 0
M  V30 1573 C 147.267 0.745766 -4.75386 0
M  V30 1574 C 149.619 0.414477 -5.19549 0
M  V30 1575 C 146.947 -0.0257694 -5.86694 0
M  V30 1576 C 149.299 -0.343916 -6.31664 0
M  V30 1577 C 147.963 -0.569301 -6.65068 0
M  V30 1578 H 147.233 0.329369 -0.663775 0
M  V30 1579 H 149.88 0.165647 -1.90782 0
M  V30 1580 H 148.185 2.54081 -2.98245 0
M  V30 1581 H 149.882 2.29591 -3.28769 0
M  V30 1582 H 146.472 1.13746 -4.13231 0
M  V30 1583 H 150.656 0.567554 -4.93044 0
M  V30 1584 H 145.912 -0.210233 -6.11038 0
M  V30 1585 H 150.086 -0.774133 -6.92084 0
M  V30 1586 H 147.713 -1.16903 -7.51158 0
M  V30 1587 N 149.288 1.51039 0.449983 0
M  V30 1588 C 150.704 1.38934 0.785462 0
M  V30 1589 C 150.904 0.461817 1.96136 0
M  V30 1590 O 149.96 -0.0877389 2.52348 0
M  V30 1591 C 151.273 2.80724 1.0777 0
M  V30 1592 C 152.821 2.89787 1.1829 0
M  V30 1593 C 153.296 4.32457 1.50815 0
M  V30 1594 N 154.787 4.35505 1.57764 0
M  V30 1595 C 155.522 5.42914 1.84477 0
M  V30 1596 N 155.018 6.60502 2.09068 0
M  V30 1597 N 156.811 5.3038 1.86155 0
M  V30 1598 H 148.962 2.09904 -0.324647 0
M  V30 1599 H 151.225 0.944378 -0.0827957 0
M  V30 1600 H 150.931 3.50531 0.286498 0
M  V30 1601 H 150.805 3.19273 2.00859 0
M  V30 1602 H 153.192 2.20186 1.96474 0
M  V30 1603 H 153.273 2.54752 0.231314 0
M  V30 1604 H 152.917 5.02603 0.731622 0
M  V30 1605 H 152.847 4.64995 2.47158 0
M  V30 1606 H 155.338 3.50724 1.40715 0
M  V30 1607 H 155.651 7.38158 2.28785 0
M  V30 1608 H 153.996 6.63639 2.06416 0
M  V30 1609 H 157.187 4.37505 1.66454 0
M  V30 1610 H 157.36 6.1417 2.06637 0
M  V30 1611 N 150.766 -0.704594 1.40972 0
M  V30 1612 C 151.696 -1.83124 1.44872 0
M  V30 1613 C 152.677 -1.67281 0.30838 0
M  V30 1614 O 153.862 -1.87149 0.518556 0
M  V30 1615 C 150.992 -3.21181 1.32136 0
M  V30 1616 C 149.946 -3.51714 2.43888 0
M  V30 1617 C 149.272 -4.89032 2.16222 0
M  V30 1618 C 150.572 -3.516 3.86232 0
M  V30 1619 H 152.266 -1.80117 2.39161 0
M  V30 1620 H 149.812 -0.865145 1.15114 0
M  V30 1621 H 151.765 -3.99702 1.33479 0
M  V30 1622 H 150.489 -3.24791 0.343279 0
M  V30 1623 H 149.148 -2.75539 2.41813 0
M  V30 1624 H 148.796 -4.89256 1.16778 0
M  V30 1625 H 148.496 -5.10426 2.911 0
M  V30 1626 H 150.02 -5.69873 2.19265 0
M  V30 1627 H 151.434 -4.2014 3.9007 0
M  V30 1628 H 149.831 -3.84523 4.60719 0
M  V30 1629 H 150.901 -2.50757 4.15029 0
M  V30 1630 N 152.244 -1.26651 -0.937939 0
M  V30 1631 C 153.49 -1.12553 -1.687 0
M  V30 1632 C 153.823 0.329782 -1.91379 0
M  V30 1633 O 153.098 1.24202 -1.4968 0
M  V30 1634 C 153.381 -1.89862 -3.05981 0
M  V30 1635 C 153.234 -3.43318 -2.90607 0
M  V30 1636 C 154.553 -1.69499 -4.0615 0
M  V30 1637 H 151.672 -0.410257 -0.612257 0
M  V30 1638 H 154.314 -1.55685 -1.08913 0
M  V30 1639 H 152.464 -1.53204 -3.57017 0
M  V30 1640 H 154.136 -3.89747 -2.46769 0
M  V30 1641 H 152.379 -3.70179 -2.26164 0
M  V30 1642 H 153.05 -3.92642 -3.8799 0
M  V30 1643 H 155.526 -2.01442 -3.64088 0
M  V30 1644 H 154.402 -2.26002 -5.00214 0
M  V30 1645 H 154.663 -0.640365 -4.37438 0
M  V30 1646 N 153.722 1.14298 -1.08507 0
M  V30 1647 C 154.999 1.81544 -0.728088 0
M  V30 1648 C 155.379 1.95838 0.78808 0
M  V30 1649 O 154.727 1.51904 1.70697 0
M  V30 1650 C 154.937 3.17169 -1.45619 0
M  V30 1651 C 156.285 3.9265 -1.61591 0
M  V30 1652 O 157.309 3.26762 -1.41793 0
M  V30 1653 O 156.168 5.10807 -1.94263 0
M  V30 1654 H 153.262 0.78491 -0.260471 0
M  V30 1655 H 155.808 1.21307 -1.18671 0
M  V30 1656 H 154.58 3.01934 -2.489 0
M  V30 1657 H 154.203 3.851 -0.989124 0
M  V30 1658 N 155.201 0.870884 1.31352 0
M  V30 1659 C 156.164 0.332243 2.26779 0
M  V30 1660 C 157.164 -0.517302 1.52252 0
M  V30 1661 O 158.354 -0.326477 1.71113 0
M  V30 1662 C 155.486 -0.528066 3.36785 0
M  V30 1663 H 156.679 1.17469 2.75937 0
M  V30 1664 H 154.232 0.64655 1.423 0
M  V30 1665 H 154.967 -1.39167 2.92922 0
M  V30 1666 H 154.752 0.0802582 3.92018 0
M  V30 1667 H 156.242 -0.897179 4.07849 0
M  V30 1668 N 156.679 -1.44442 0.630414 0
M  V30 1669 C 157.589 -2.34476 -0.0761693 0
M  V30 1670 C 158.605 -1.52576 -0.836449 0
M  V30 1671 O 159.781 -1.85307 -0.788874 0
M  V30 1672 C 156.846 -3.30545 -1.04599 0
M  V30 1673 C 155.907 -4.28352 -0.28516 0
M  V30 1674 C 155.14 -5.19831 -1.20878 0
M  V30 1675 O 155.363 -5.15223 -2.44747 0
M  V30 1676 O 154.297 -5.97892 -0.693491 0
M  V30 1677 H 158.123 -2.96345 0.664324 0
M  V30 1678 H 155.708 -1.44203 0.39061 0
M  V30 1679 H 157.59 -3.89681 -1.60396 0
M  V30 1680 H 156.265 -2.7121 -1.76711 0
M  V30 1681 H 155.172 -3.72764 0.315837 0
M  V30 1682 H 156.505 -4.90605 0.395924 0
M  V30 1683 N 158.157 -0.370918 -1.53173 0
M  V30 1684 C 159.405 0.216673 -2.00935 0
M  V30 1685 C 159.726 1.48845 -1.25977 0
M  V30 1686 O 158.996 1.92286 -0.374551 0
M  V30 1687 H 157.576 0.0830565 -0.742368 0
M  V30 1688 H 160.238 -0.49838 -1.8842 0
M  V30 1689 H 159.334 0.439893 -3.08984 0
M  V30 1690 N 159.635 1.57281 -0.100228 0
M  V30 1691 C 160.565 2.17328 0.853857 0
M  V30 1692 C 161.546 1.10804 1.2906 0
M  V30 1693 O 162.731 1.38963 1.35657 0
M  V30 1694 C 159.861 2.75772 2.11109 0
M  V30 1695 C 158.815 3.87713 1.81279 0
M  V30 1696 C 158.141 4.32882 3.13874 0
M  V30 1697 C 159.441 5.10677 1.09574 0
M  V30 1698 H 161.135 2.97305 0.353545 0
M  V30 1699 H 158.681 1.43009 0.168612 0
M  V30 1700 H 160.634 3.16433 2.78296 0
M  V30 1701 H 159.358 1.93057 2.63432 0
M  V30 1702 H 158.017 3.476 1.16489 0
M  V30 1703 H 157.665 3.47051 3.64095 0
M  V30 1704 H 157.365 5.08358 2.94696 0
M  V30 1705 H 158.889 4.7618 3.82211 0
M  V30 1706 H 160.303 5.48474 1.66879 0
M  V30 1707 H 158.7 5.91615 1.00557 0
M  V30 1708 H 159.77 4.84835 0.0793299 0
M  V30 1709 N 161.113 -0.173488 1.56642 0
M  V30 1710 C 162.362 -0.888758 1.81063 0
M  V30 1711 C 162.675 -1.83506 0.67712 0
M  V30 1712 O 163.881 -2.59254 0.806206 0
M  V30 1713 C 162.337 -1.63091 3.20826 0
M  V30 1714 C 161.945 -0.728357 4.4204 0
M  V30 1715 C 163.689 -2.33454 3.54541 0
M  V30 1716 C 161.596 -1.47062 5.72823 0
M  V30 1717 H 160.526 -0.335618 0.675186 0
M  V30 1718 H 163.177 -0.141712 1.82952 0
M  V30 1719 H 161.559 -2.42263 3.13248 0
M  V30 1720 H 162.733 0.0262449 4.60793 0
M  V30 1721 H 161.048 -0.134492 4.16183 0
M  V30 1722 H 163.645 -2.89578 4.49498 0
M  V30 1723 H 163.988 -3.08687 2.79317 0
M  V30 1724 H 164.521 -1.61227 3.63663 0
M  V30 1725 H 161.26 -0.760658 6.51072 0
M  V30 1726 H 160.78 -2.1986 5.58052 0
M  V30 1727 H 162.459 -2.01868 6.14702 0
M  V30 1728 N 162.591 -1.51276 -0.441967 0
M  V30 1729 C 163.539 -1.72823 -1.55676 0
M  V30 1730 C 164.533 -0.59445 -1.58627 0
M  V30 1731 O 165.739 -0.775715 -1.62427 0
M  V30 1732 H 162.114 -0.545983 -0.517113 0
M  V30 1733 H 164.085 -2.6628 -1.34675 0
M  V30 1734 C 162.834 -1.86619 -2.93375 0
M  V30 1735 H 162.157 -2.73264 -2.91834 0
M  V30 1736 H 163.597 -2.05709 -3.70756 0
M  V30 1737 C 162.056 -0.624842 -3.31055 0
M  V30 1738 O 162.586 0.222636 -4.01083 0
M  V30 1739 N 160.792 -0.470288 -2.86769 0
M  V30 1740 H 160.339 -1.161 -2.29953 0
M  V30 1741 H 160.297 0.359051 -3.12343 0
M  V30 1742 N 164.069 0.697108 -1.41344 0
M  V30 1743 C 165.485 1.00751 -1.2378 0
M  V30 1744 C 165.685 2.01105 -0.126066 0
M  V30 1745 O 164.741 2.47295 0.51004 0
M  V30 1746 C 166.054 1.53359 -2.58653 0
M  V30 1747 C 167.602 1.6525 -2.65822 0
M  V30 1748 C 168.077 2.2126 -4.01009 0
M  V30 1749 N 169.568 2.28622 -4.02847 0
M  V30 1750 C 170.303 2.72984 -5.04249 0
M  V30 1751 N 169.799 3.16962 -6.16041 0
M  V30 1752 N 171.592 2.72534 -4.91611 0
M  V30 1753 H 163.743 0.0322662 -2.12375 0
M  V30 1754 H 166.006 0.0768853 -0.944877 0
M  V30 1755 H 165.712 0.870773 -3.4075 0
M  V30 1756 H 165.586 2.51597 -2.81032 0
M  V30 1757 H 167.973 2.30644 -1.84086 0
M  V30 1758 H 168.054 0.655614 -2.47256 0
M  V30 1759 H 167.698 1.56482 -4.83193 0
M  V30 1760 H 167.628 3.21698 -4.16915 0
M  V30 1761 H 170.119 1.97585 -3.22131 0
M  V30 1762 H 170.432 3.49434 -6.89287 0
M  V30 1763 H 168.777 3.14875 -6.1958 0
M  V30 1764 H 171.968 2.37525 -4.0336 0
M  V30 1765 H 172.141 3.06789 -5.70775 0
M  V30 1766 N 165.547 1.27147 0.931209 0
M  V30 1767 C 166.48 1.0389 2.0318 0
M  V30 1768 C 167.458 -0.0395716 1.62552 0
M  V30 1769 O 168.642 0.104867 1.88208 0
M  V30 1770 C 165.769 0.575227 3.3378 0
M  V30 1771 C 164.815 1.64774 3.93385 0
M  V30 1772 S 165.648 3.23933 4.26413 0
M  V30 1773 C 166.804 2.79358 5.60098 0
M  V30 1774 H 167.037 1.97075 2.22596 0
M  V30 1775 H 164.57 1.10938 1.07387 0
M  V30 1776 H 166.528 0.314385 4.09294 0
M  V30 1777 H 165.189 -0.336505 3.12292 0
M  V30 1778 H 164.382 1.27454 4.87618 0
M  V30 1779 H 163.984 1.86048 3.24441 0
M  V30 1780 H 166.276 2.24443 6.39243 0
M  V30 1781 H 167.219 3.72322 6.02314 0
M  V30 1782 H 167.627 2.1861 5.20452 0
M  V30 1783 N 167.025 -1.13721 1.09112 0
M  V30 1784 C 168.273 -1.84559 0.823562 0
M  V30 1785 C 168.594 -1.83754 -0.652658 0
M  V30 1786 O 167.864 -1.29102 -1.47342 0
M  V30 1787 H 166.444 -0.683376 0.301673 0
M  V30 1788 H 169.106 -1.37771 1.37859 0
M  V30 1789 H 168.202 -2.8917 1.17419 0
M  V30 1790 N 168.503 -0.877838 -1.30888 0
M  V30 1791 C 169.75 -0.492696 -1.96415 0
M  V30 1792 C 170.078 0.956671 -1.69346 0
M  V30 1793 O 169.333 1.68993 -0.986913 0
M  V30 1794 C 169.632 -0.705748 -3.50363 0
M  V30 1795 C 169.298 -2.1291 -3.97467 0
M  V30 1796 C 167.96 -2.51834 -4.1004 0
M  V30 1797 C 170.312 -3.05702 -4.22132 0
M  V30 1798 C 167.64 -3.82775 -4.44635 0
M  V30 1799 C 169.992 -4.36166 -4.58194 0
M  V30 1800 C 168.656 -4.74993 -4.68975 0
M  V30 1801 H 167.926 -0.18029 -0.718733 0
M  V30 1802 H 170.573 -1.11233 -1.55883 0
M  V30 1803 H 168.878 -0.00303058 -3.918 0
M  V30 1804 H 170.575 -0.387456 -3.99124 0
M  V30 1805 H 167.165 -1.81694 -3.88182 0
M  V30 1806 H 171.349 -2.76853 -4.11906 0
M  V30 1807 H 166.605 -4.12609 -4.51181 0
M  V30 1808 H 170.779 -5.08111 -4.76231 0
M  V30 1809 H 168.406 -5.76495 -4.95537 0
M  V30 1810 N 169.982 1.44106 -0.638065 0
M  V30 1811 C 170.93 2.3248 0.0748149 0
M  V30 1812 C 171.924 1.47746 0.828702 0
M  V30 1813 O 173.13 1.64049 0.740816 0
M  V30 1814 H 169.505 0.750771 0.0429686 0
M  V30 1815 H 171.476 2.90348 -0.688504 0
M  V30 1816 C 170.225 3.31843 1.03805 0
M  V30 1817 H 169.548 3.97059 0.467375 0
M  V30 1818 H 170.988 3.96345 1.50622 0
M  V30 1819 C 169.447 2.61291 2.1267 0
M  V30 1820 O 169.977 2.41702 3.20847 0
M  V30 1821 N 168.183 2.20915 1.88798 0
M  V30 1822 H 167.73 2.37047 1.00829 0
M  V30 1823 H 167.688 1.74038 2.61836 0
M  V30 1824 N 171.46 0.379036 1.52974 0
M  V30 1825 C 172.408 -0.476033 2.27677 0
M  V30 1826 C 173.402 -1.0719 1.31174 0
M  V30 1827 O 174.608 -1.01355 1.48752 0
M  V30 1828 H 170.983 -0.172255 0.732006 0
M  V30 1829 H 172.954 0.175615 2.97883 0
M  V30 1830 C 171.703 -1.5967 3.0887 0
M  V30 1831 H 171.026 -1.1475 3.82978 0
M  V30 1832 H 172.466 -2.16943 3.64296 0
M  V30 1833 C 170.925 -2.54682 2.20542 0
M  V30 1834 O 171.455 -3.57836 1.82527 0
M  V30 1835 N 169.661 -2.24183 1.84907 0
M  V30 1836 H 169.208 -1.40333 2.1602 0
M  V30 1837 H 169.166 -2.88006 1.26096 0
M  V30 1838 N 172.938 -1.57226 0.108567 0
M  V30 1839 C 173.868 -2.17778 -0.84232 0
M  V30 1840 C 174.849 -1.11487 -1.2847 0
M  V30 1841 O 176.034 -1.39681 -1.34918 0
M  V30 1842 C 173.164 -2.76888 -2.09644 0
M  V30 1843 C 172.118 -3.88669 -1.79221 0
M  V30 1844 C 171.444 -4.34541 -3.11574 0
M  V30 1845 C 172.744 -5.11251 -1.06864 0
M  V30 1846 H 174.438 -2.97489 -0.337774 0
M  V30 1847 H 171.984 -1.43097 -0.161025 0
M  V30 1848 H 173.937 -3.17904 -2.76614 0
M  V30 1849 H 172.661 -1.94451 -2.62405 0
M  V30 1850 H 171.32 -3.48213 -1.14644 0
M  V30 1851 H 170.968 -3.48977 -3.62249 0
M  V30 1852 H 170.668 -5.09914 -2.91996 0
M  V30 1853 H 172.192 -4.782 -3.7968 0
M  V30 1854 H 173.606 -5.49352 -1.63968 0
M  V30 1855 H 172.003 -5.9214 -0.974178 0
M  V30 1856 H 173.073 -4.8487 -0.0536168 0
M  V30 1857 N 174.416 0.165178 -1.56732 0
M  V30 1858 C 175.664 0.879068 -1.8198 0
M  V30 1859 C 175.985 1.82514 -0.686561 0
M  V30 1860 O 175.255 1.93694 0.293146 0
M  V30 1861 H 173.835 0.327608 -0.671329 0
M  V30 1862 H 176.497 0.163526 -1.94213 0
M  V30 1863 H 175.593 1.45228 -2.76252 0
M  V30 1864 N 175.894 1.51508 0.433938 0
M  V30 1865 C 177.14 1.64588 1.18484 0
M  V30 1866 C 177.473 0.362666 1.90784 0
M  V30 1867 O 176.748 -0.637892 1.83742 0
M  V30 1868 C 177.031 2.85149 2.19913 0
M  V30 1869 C 176.884 4.23456 1.51674 0
M  V30 1870 C 178.203 3.01227 3.20858 0
M  V30 1871 H 175.322 0.598994 0.429389 0
M  V30 1872 H 177.964 1.84002 0.473647 0
M  V30 1873 H 176.114 2.68729 2.80566 0
M  V30 1874 H 177.786 4.51552 0.943322 0
M  V30 1875 H 176.029 4.25998 0.819035 0
M  V30 1876 H 176.7 5.03812 2.2556 0
M  V30 1877 H 179.176 3.16382 2.70263 0
M  V30 1878 H 178.052 3.87141 3.89118 0
M  V30 1879 H 178.313 2.13447 3.8716 0
M  V30 1880 N 177.372 -0.689602 1.41712 0
M  V30 1881 C 178.649 -1.44457 1.31877 0
M  V30 1882 C 179.029 -2.11039 -0.0508537 0
M  V30 1883 O 178.377 -2.02138 -1.06547 0
M  V30 1884 C 178.587 -2.45913 2.47645 0
M  V30 1885 C 179.935 -3.10991 2.89084 0
M  V30 1886 O 180.959 -2.56238 2.47428 0
M  V30 1887 O 179.818 -4.10174 3.61137 0
M  V30 1888 H 176.912 -0.64362 0.519309 0
M  V30 1889 H 179.458 -0.719576 1.53689 0
M  V30 1890 H 178.23 -1.95409 3.39015 0
M  V30 1891 H 177.853 -3.25913 2.27742 0
M  V30 1892 N 178.85 -1.27639 -0.924453 0
M  V30 1893 C 179.798 -1.10485 -2.04685 0
M  V30 1894 C 180.792 -0.0270421 -1.69378 0
M  V30 1895 O 181.998 -0.185008 -1.79047 0
M  V30 1896 H 178.373 -0.340546 -0.670472 0
M  V30 1897 H 180.344 -2.05566 -2.16298 0
M  V30 1898 C 179.093 -0.772229 -3.39016 0
M  V30 1899 H 178.416 -1.59351 -3.66671 0
M  V30 1900 H 179.856 -0.692097 -4.18313 0
M  V30 1901 C 178.315 0.523554 -3.32807 0
M  V30 1902 O 178.845 1.55702 -3.70297 0
M  V30 1903 N 177.051 0.520363 -2.85903 0
M  V30 1904 H 176.598 -0.32107 -2.55591 0
M  V30 1905 H 176.556 1.38742 -2.82131 0
M  V30 1906 N 180.328 1.1314 -1.09713 0
M  V30 1907 C 181.258 2.20748 -0.761102 0
M  V30 1908 C 182.239 1.68061 0.262566 0
M  V30 1909 O 183.424 1.93765 0.129977 0
M  V30 1910 C 180.554 3.46812 -0.184054 0
M  V30 1911 C 179.508 4.12606 -1.13757 0
M  V30 1912 C 178.834 5.33031 -0.422083 0
M  V30 1913 C 180.134 4.59603 -2.48118 0
M  V30 1914 H 181.828 2.49113 -1.66082 0
M  V30 1915 H 179.374 1.19734 -0.799987 0
M  V30 1916 H 181.327 4.21353 0.0631215 0
M  V30 1917 H 180.051 3.17851 0.750868 0
M  V30 1918 H 178.71 3.40036 -1.37007 0
M  V30 1919 H 178.358 5.00335 0.517072 0
M  V30 1920 H 178.058 5.77999 -1.05788 0
M  V30 1921 H 179.582 6.10325 -0.183277 0
M  V30 1922 H 180.996 5.25552 -2.29059 0
M  V30 1923 H 179.393 5.15321 -3.07514 0
M  V30 1924 H 180.463 3.73971 -3.08665 0
M  V30 1925 N 181.806 0.884767 1.30421 0
M  V30 1926 C 183.052 0.503851 1.96441 0
M  V30 1927 C 183.385 -0.944518 1.69684 0
M  V30 1928 O 182.66 -1.66737 1.00145 0
M  V30 1929 C 182.943 0.779085 3.51571 0
M  V30 1930 C 182.796 2.27807 3.87846 0
M  V30 1931 C 184.115 0.255452 4.39358 0
M  V30 1932 H 181.234 0.184533 0.713524 0
M  V30 1933 H 183.876 1.10872 1.54297 0
M  V30 1934 H 182.026 0.264274 3.876 0
M  V30 1935 H 183.698 2.86127 3.61841 0
M  V30 1936 H 181.941 2.74479 3.35922 0
M  V30 1937 H 182.612 2.42125 4.96064 0
M  V30 1938 H 185.088 0.696079 4.10236 0
M  V30 1939 H 183.964 0.477361 5.4682 0
M  V30 1940 H 184.225 -0.843293 4.33983 0
M  V30 1941 N 183.284 -1.43765 0.645699 0
M  V30 1942 C 184.194 -2.34544 -0.0512957 0
M  V30 1943 C 185.21 -1.53455 -0.82022 0
M  V30 1944 O 186.386 -1.86133 -0.769176 0
M  V30 1945 C 183.451 -3.31636 -1.01087 0
M  V30 1946 C 182.512 -4.2863 -0.239712 0
M  V30 1947 C 181.745 -5.21084 -1.15358 0
M  V30 1948 O 181.968 -5.1779 -2.39269 0
M  V30 1949 O 180.902 -5.98593 -0.630038 0
M  V30 1950 H 184.728 -2.95624 0.695718 0
M  V30 1951 H 182.313 -1.43781 0.405882 0
M  V30 1952 H 184.195 -3.9136 -1.56254 0
M  V30 1953 H 182.87 -2.73069 -1.73824 0
M  V30 1954 H 181.777 -3.72408 0.355356 0
M  V30 1955 H 183.11 -4.90157 0.447936 0
M  V30 1956 N 184.763 -0.387143 -1.52771 0
M  V30 1957 C 185.711 0.463953 -2.27926 0
M  V30 1958 C 186.705 1.06493 -1.31741 0
M  V30 1959 O 187.911 1.00565 -1.49287 0
M  V30 1960 H 184.286 0.16837 -0.732909 0
M  V30 1961 H 186.257 -0.19141 -2.97785 0
M  V30 1962 C 185.006 1.5803 -3.09713 0
M  V30 1963 H 184.329 1.12718 -3.83581 0
M  V30 1964 H 185.769 2.15008 -3.65442 0
M  V30 1965 C 184.228 2.53509 -2.2189 0
M  V30 1966 O 184.758 3.56863 -1.84422 0
M  V30 1967 N 182.964 2.23199 -1.86093 0
M  V30 1968 H 182.511 1.39185 -2.16761 0
M  V30 1969 H 182.469 2.87333 -1.27621 0
M  V30 1970 N 186.241 1.57166 -0.116904 0
M  V30 1971 C 187.487 1.95412 0.542405 0
M  V30 1972 C 187.82 1.00019 1.66463 0
M  V30 1973 O 187.095 0.0370346 1.94465 0
M  V30 1974 C 187.378 3.43615 1.07708 0
M  V30 1975 C 187.231 4.49781 -0.0415868 0
M  V30 1976 C 188.55 3.93616 1.96861 0
M  V30 1977 H 185.669 0.710543 0.195696 0
M  V30 1978 H 188.311 1.89027 -0.192038 0
M  V30 1979 H 186.461 3.49187 1.70296 0
M  V30 1980 H 188.133 4.56308 -0.676793 0
M  V30 1981 H 186.376 4.28033 -0.705019 0
M  V30 1982 H 187.047 5.50733 0.373717 0
M  V30 1983 H 189.523 3.90335 1.44146 0
M  V30 1984 H 188.399 4.97838 2.3119 0
M  V30 1985 H 188.66 3.34188 2.89432 0
M  V30 1986 N 187.719 -0.156864 1.56817 0
M  V30 1987 C 188.666 -1.19394 1.97519 0
M  V30 1988 C 189.636 -1.4322 0.841265 0
M  V30 1989 O 190.821 -1.55719 1.10255 0
M  V30 1990 C 187.961 -2.52483 2.35258 0
M  V30 1991 C 187.074 -2.35914 3.61896 0
M  V30 1992 C 186.209 -3.61969 3.88782 0
M  V30 1993 C 185.248 -3.40395 5.08722 0
M  V30 1994 N 184.385 -4.58556 5.31668 0
M  V30 1995 H 189.225 -0.839845 2.85921 0
M  V30 1996 H 186.762 -0.403264 1.41464 0
M  V30 1997 H 188.72 -3.30071 2.55165 0
M  V30 1998 H 187.35 -2.85859 1.49949 0
M  V30 1999 H 186.402 -1.49429 3.49821 0
M  V30 2000 H 187.714 -2.15926 4.49641 0
M  V30 2001 H 186.868 -4.47989 4.09135 0
M  V30 2002 H 185.607 -3.84951 2.9944 0
M  V30 2003 H 184.612 -2.52763 4.88253 0
M  V30 2004 H 185.837 -3.18822 5.99608 0
M  V30 2005 H 183.783 -4.81729 4.45279 0
M  V30 2006 H 183.7 -4.41535 6.13664 0
M  V30 2007 H 184.968 -5.45817 5.5651 0
M  V30 2008 N 189.197 -1.51736 -0.425897 0
M  V30 2009 C 190.144 -1.73875 -1.51776 0
M  V30 2010 C 191.114 -0.580702 -1.55618 0
M  V30 2011 O 192.299 -0.81641 -1.72451 0
M  V30 2012 C 189.439 -1.88012 -2.89388 0
M  V30 2013 C 188.552 -3.15606 -2.94986 0
M  V30 2014 C 187.687 -3.20271 -4.23793 0
M  V30 2015 C 186.726 -4.42134 -4.23302 0
M  V30 2016 N 185.863 -4.44284 -5.43651 0
M  V30 2017 H 190.703 -2.67071 -1.32201 0
M  V30 2018 H 188.24 -1.32351 -0.642008 0
M  V30 2019 H 190.198 -1.9419 -3.69251 0
M  V30 2020 H 188.828 -0.98213 -3.07496 0
M  V30 2021 H 187.88 -3.18681 -2.07717 0
M  V30 2022 H 189.192 -4.05486 -2.90486 0
M  V30 2023 H 188.346 -3.25428 -5.12036 0
M  V30 2024 H 187.085 -2.28299 -4.30965 0
M  V30 2025 H 186.09 -4.3714 -3.3345 0
M  V30 2026 H 187.315 -5.35382 -4.17783 0
M  V30 2027 H 185.261 -3.55188 -5.51523 0
M  V30 2028 H 185.178 -5.27988 -5.41078 0
M  V30 2029 H 186.446 -4.53649 -6.33895 0
M  V30 2030 N 190.675 0.682077 -1.42076 0
M  V30 2031 C 191.638 1.77756 -1.44691 0
M  V30 2032 C 192.638 1.5726 -0.335535 0
M  V30 2033 O 193.828 1.63686 -0.596037 0
M  V30 2034 C 190.96 3.16301 -1.27146 0
M  V30 2035 H 192.153 1.76826 -2.42224 0
M  V30 2036 H 189.706 0.891012 -1.28416 0
M  V30 2037 H 190.441 3.22862 -0.305075 0
M  V30 2038 H 190.226 3.32581 -2.07683 0
M  V30 2039 H 191.716 3.96241 -1.31843 0
M  V30 2040 N 192.153 1.28127 0.917671 0
M  V30 2041 C 193.103 1.08361 2.00604 0
M  V30 2042 C 194.087 0.00847518 1.60898 0
M  V30 2043 O 195.279 0.228167 1.75523 0
M  V30 2044 C 192.408 0.743376 3.35155 0
M  V30 2045 C 191.494 1.85716 3.81275 0
M  V30 2046 N 191.885 3.09822 3.99805 0
M  V30 2047 C 190.183 1.74612 4.10398 0
M  V30 2048 C 190.884 3.82368 4.38372 0
M  V30 2049 N 189.86 3.10192 4.4641 0
M  V30 2050 H 193.662 2.02531 2.12975 0
M  V30 2051 H 191.176 1.18989 1.10523 0
M  V30 2052 H 193.173 0.582859 4.12805 0
M  V30 2053 H 191.833 -0.190595 3.2414 0
M  V30 2054 H 192.844 3.45475 3.85833 0
M  V30 2055 H 189.521 0.883657 4.08041 0
M  V30 2056 H 190.911 4.89082 4.60704 0
M  V30 2057 N 193.631 -1.12557 1.10312 0
M  V30 2058 C 194.861 -1.87592 0.865617 0
M  V30 2059 C 195.269 -1.79851 -0.587389 0
M  V30 2060 O 194.612 -1.16949 -1.41664 0
M  V30 2061 C 194.674 -3.37665 1.23381 0
M  V30 2062 C 194.338 -3.69181 2.69359 0
M  V30 2063 C 195.335 -3.67652 3.67597 0
M  V30 2064 C 193.02 -3.98555 3.05711 0
M  V30 2065 C 195.014 -3.95053 5.00212 0
M  V30 2066 C 192.701 -4.25616 4.38514 0
M  V30 2067 C 193.699 -4.23851 5.35574 0
M  V30 2068 O 193.387 -4.50242 6.65986 0
M  V30 2069 H 193.119 -0.600442 0.310557 0
M  V30 2070 H 195.673 -1.4335 1.47105 0
M  V30 2071 H 193.903 -3.82454 0.571467 0
M  V30 2072 H 195.592 -3.94041 0.973994 0
M  V30 2073 H 196.358 -3.45024 3.40857 0
M  V30 2074 H 192.237 -3.99071 2.30789 0
M  V30 2075 H 195.781 -3.93591 5.75962 0
M  V30 2076 H 191.678 -4.47718 4.64994 0
M  V30 2077 H 192.446 -4.67867 6.71597 0
M  V30 2078 N 195.109 -0.891671 -1.2995 0
M  V30 2079 C 196.386 -0.433307 -1.9074 0
M  V30 2080 C 196.766 1.08646 -1.80995 0
M  V30 2081 O 196.114 1.92476 -1.23147 0
M  V30 2082 C 196.324 -0.938895 -3.36134 0
M  V30 2083 C 197.672 -0.977829 -4.13187 0
M  V30 2084 O 198.696 -0.886015 -3.45005 0
M  V30 2085 O 197.555 -1.11453 -5.35015 0
M  V30 2086 H 194.649 -0.133699 -0.816121 0
M  V30 2087 H 197.195 -0.981011 -1.38471 0
M  V30 2088 H 195.967 -1.98281 -3.37343 0
M  V30 2089 H 195.59 -0.37074 -3.95868 0
M  V30 2090 N 196.587 1.43421 -0.653314 0
M  V30 2091 C 197.835 2.01414 -0.166415 0
M  V30 2092 C 198.156 1.51803 1.22397 0
M  V30 2093 O 197.426 0.730693 1.81763 0
M  V30 2094 H 196.006 0.744703 -0.0585319 0
M  V30 2095 H 198.668 1.75629 -0.845003 0
M  V30 2096 H 197.764 3.11734 -0.151111 0
M  V30 2097 N 198.065 0.39524 1.52563 0
M  V30 2098 C 199.311 -0.185318 2.01952 0
M  V30 2099 C 199.644 -1.45964 1.28095 0
M  V30 2100 O 198.919 -1.90689 0.38315 0
M  V30 2101 C 199.202 -0.447193 3.57312 0
M  V30 2102 C 199.055 0.842828 4.41833 0
M  V30 2103 C 200.374 -1.23529 4.22408 0
M  V30 2104 H 197.493 -0.0658788 0.73405 0
M  V30 2105 H 200.135 0.525975 1.82575 0
M  V30 2106 H 198.285 -1.05312 3.73954 0
M  V30 2107 H 199.957 1.4795 4.36931 0
M  V30 2108 H 198.2 1.45686 4.08605 0
M  V30 2109 H 198.871 0.614165 5.48573 0
M  V30 2110 H 201.347 -0.722445 4.0978 0
M  V30 2111 H 200.223 -1.38727 5.3108 0
M  V30 2112 H 200.484 -2.25213 3.80436 0
M  V30 2113 N 199.544 -1.57102 0.125237 0
M  V30 2114 C 200.474 -2.18659 -0.819174 0
M  V30 2115 C 201.455 -1.12843 -1.27281 0
M  V30 2116 O 202.64 -1.41104 -1.33429 0
M  V30 2117 C 199.77 -2.79096 -2.06695 0
M  V30 2118 C 198.724 -3.90548 -1.75088 0
M  V30 2119 C 198.05 -4.37821 -3.06948 0
M  V30 2120 C 199.35 -5.12356 -1.01435 0
M  V30 2121 H 201.044 -2.9783 -0.306202 0
M  V30 2122 H 198.59 -1.4326 -0.145839 0
M  V30 2123 H 200.543 -3.2082 -2.73226 0
M  V30 2124 H 199.267 -1.97223 -2.60328 0
M  V30 2125 H 197.926 -3.49409 -1.10944 0
M  V30 2126 H 197.574 -3.52799 -3.58527 0
M  V30 2127 H 197.274 -5.12982 -2.86571 0
M  V30 2128 H 198.798 -4.822 -3.74587 0
M  V30 2129 H 200.212 -5.5106 -1.58132 0
M  V30 2130 H 198.609 -5.9314 -0.911319 0
M  V30 2131 H 199.679 -4.849 -0.00218681 0
M  V30 2132 N 201.022 0.148545 -1.56898 0
M  V30 2133 C 202.27 0.859717 -1.82902 0
M  V30 2134 C 202.591 1.81775 -0.70588 0
M  V30 2135 O 201.861 1.93994 0.272586 0
M  V30 2136 H 200.441 0.320469 -0.674766 0
M  V30 2137 H 203.103 0.142918 -1.94375 0
M  V30 2138 H 202.199 1.4229 -2.77777 0
M  V30 2139 N 202.5 1.5196 0.417844 0
M  V30 2140 C 203.749 1.6482 1.16264 0
M  V30 2141 C 204.062 0.379886 1.91876 0
M  V30 2142 O 205.268 0.388154 2.68711 0
M  V30 2143 C 203.724 2.91161 2.1155 0
M  V30 2144 C 203.332 4.25068 1.41495 0
M  V30 2145 C 205.076 3.13383 2.86341 0
M  V30 2146 C 202.983 5.42541 2.35379 0
M  V30 2147 H 201.913 0.613954 0.437694 0
M  V30 2148 H 204.564 1.78442 0.427871 0
M  V30 2149 H 202.946 2.71218 2.88543 0
M  V30 2150 H 204.12 4.55463 0.699263 0
M  V30 2151 H 202.435 4.0888 0.787792 0
M  V30 2152 H 205.032 3.98324 3.5671 0
M  V30 2153 H 205.375 2.27256 3.48798 0
M  V30 2154 H 205.908 3.33757 2.1645 0
M  V30 2155 H 202.647 6.30987 1.77582 0
M  V30 2156 H 202.167 5.16497 3.04945 0
M  V30 2157 H 203.846 5.75272 2.96093 0
M  V30 2158 N 203.978 -0.674533 1.42435 0
M  V30 2159 C 204.926 -1.80934 1.46169 0
M  V30 2160 C 205.92 -1.66006 0.3374 0
M  V30 2161 O 207.126 -1.72611 0.510425 0
M  V30 2162 H 203.501 -0.596594 0.457798 0
M  V30 2163 H 205.472 -1.74903 2.41767 0
M  V30 2164 C 204.221 -3.19088 1.38123 0
M  V30 2165 H 203.544 -3.31203 2.23931 0
M  V30 2166 H 204.984 -3.9851 1.44797 0
M  V30 2167 C 203.443 -3.36763 0.0960517 0
M  V30 2168 O 203.973 -3.92581 -0.851073 0
M  V30 2169 N 202.179 -2.90597 0.0131186 0
M  V30 2170 H 201.726 -2.45359 0.784639 0
M  V30 2171 H 201.684 -3.028 -0.846133 0
M  V30 2172 N 205.456 -1.28612 -0.910864 0
M  V30 2173 C 206.705 -1.15311 -1.65488 0
M  V30 2174 C 207.018 0.296999 -1.93332 0
M  V30 2175 O 208.224 0.551168 -2.65847 0
M  V30 2176 C 206.68 -2.01599 -2.98137 0
M  V30 2177 C 206.288 -3.51367 -2.7793 0
M  V30 2178 C 208.032 -1.96993 -3.76024 0
M  V30 2179 C 205.939 -4.29797 -4.06237 0
M  V30 2180 H 204.869 -0.42796 -0.620779 0
M  V30 2181 H 207.52 -1.53166 -1.01057 0
M  V30 2182 H 205.902 -1.56603 -3.63719 0
M  V30 2183 H 207.076 -4.0434 -2.21011 0
M  V30 2184 H 205.391 -3.57529 -2.13452 0
M  V30 2185 H 207.988 -2.52856 -4.71135 0
M  V30 2186 H 208.331 -0.94733 -4.05378 0
M  V30 2187 H 208.864 -2.39973 -3.17266 0
M  V30 2188 H 205.603 -5.32648 -3.82055 0
M  V30 2189 H 205.123 -3.81596 -4.62757 0
M  V30 2190 H 206.802 -4.39869 -4.74473 0
M  V30 2191 N 206.934 1.1197 -1.10907 0
M  V30 2192 C 208.182 1.83225 -0.852819 0
M  V30 2193 C 208.503 1.84769 0.623341 0
M  V30 2194 O 207.773 1.3143 1.45269 0
M  V30 2195 H 206.353 0.67849 -0.312507 0
M  V30 2196 H 209.015 1.3556 -1.40033 0
M  V30 2197 H 208.111 2.87265 -1.22005 0
M  V30 2198 N 208.412 0.89855 1.29475 0
M  V30 2199 C 209.359 0.373819 2.27753 0
M  V30 2200 C 210.329 -0.543444 1.56958 0
M  V30 2201 O 211.514 -0.468934 1.84948 0
M  V30 2202 C 208.654 -0.393648 3.42848 0
M  V30 2203 C 207.767 0.554379 4.28428 0
M  V30 2204 C 206.902 -0.230026 5.30702 0
M  V30 2205 C 205.941 0.712599 6.07938 0
M  V30 2206 N 205.078 -0.0373283 7.0209 0
M  V30 2207 H 209.918 1.21699 2.72017 0
M  V30 2208 H 207.455 0.611456 1.33789 0
M  V30 2209 H 209.413 -0.85466 4.08352 0
M  V30 2210 H 208.043 -1.20128 2.99615 0
M  V30 2211 H 207.095 1.13391 3.63107 0
M  V30 2212 H 208.407 1.27597 4.82204 0
M  V30 2213 H 207.561 -0.752288 6.02018 0
M  V30 2214 H 206.3 -0.984758 4.77654 0
M  V30 2215 H 205.305 1.24637 5.35486 0
M  V30 2216 H 206.53 1.46664 6.63074 0
M  V30 2217 H 204.476 -0.774348 6.51414 0
M  V30 2218 H 204.393 0.624374 7.53417 0
M  V30 2219 H 205.661 -0.539891 7.77628 0
M  V30 2220 N 209.89 -1.43072 0.660911 0
M  V30 2221 C 210.838 -2.32569 -0.0378199 0
M  V30 2222 C 211.832 -1.49046 -0.805092 0
M  V30 2223 O 213.038 -1.65206 -0.714624 0
M  V30 2224 H 209.413 -0.75136 -0.031019 0
M  V30 2225 H 211.384 -2.89216 0.734609 0
M  V30 2226 C 210.133 -3.33453 -0.985124 0
M  V30 2227 H 209.456 -3.97752 -0.404147 0
M  V30 2228 H 210.896 -3.98691 -1.44297 0
M  V30 2229 C 209.355 -2.64642 -2.08486 0
M  V30 2230 O 209.885 -2.46776 -3.16961 0
M  V30 2231 N 208.091 -2.23891 -1.8526 0
M  V30 2232 H 207.638 -2.38621 -0.970449 0
M  V30 2233 H 207.596 -1.78181 -2.59034 0
M  V30 2234 N 211.368 -0.403325 -1.52352 0
M  V30 2235 C 212.315 0.425011 -2.26853 0
M  V30 2236 C 213.285 1.04598 -1.29029 0
M  V30 2237 O 214.47 1.07135 -1.57882 0
M  V30 2238 C 211.61 1.53888 -3.08889 0
M  V30 2239 C 210.723 0.939396 -4.21663 0
M  V30 2240 C 209.858 2.02547 -4.91068 0
M  V30 2241 C 208.897 1.40263 -5.95813 0
M  V30 2242 N 208.034 2.4286 -6.58759 0
M  V30 2243 H 212.874 -0.21674 -2.97211 0
M  V30 2244 H 210.411 -0.118722 -1.4662 0
M  V30 2245 H 212.369 2.19558 -3.54753 0
M  V30 2246 H 210.999 2.15074 -2.40714 0
M  V30 2247 H 210.051 0.171898 -3.80011 0
M  V30 2248 H 211.363 0.44436 -4.96817 0
M  V30 2249 H 210.517 2.75958 -5.40308 0
M  V30 2250 H 209.256 2.55415 -4.15469 0
M  V30 2251 H 208.261 0.653833 -5.45898 0
M  V30 2252 H 209.486 0.881719 -6.73352 0
M  V30 2253 H 207.432 2.94871 -5.85992 0
M  V30 2254 H 207.349 1.98152 -7.2957 0
M  V30 2255 H 208.617 3.15858 -7.12639 0
M  V30 2256 N 212.846 1.57033 -0.133567 0
M  V30 2257 C 214.123 1.87256 0.56522 0
M  V30 2258 C 214.503 1.03726 1.83859 0
M  V30 2259 O 213.851 0.120247 2.28183 0
M  V30 2260 C 214.061 3.3865 0.843636 0
M  V30 2261 C 215.409 4.07574 1.19032 0
M  V30 2262 O 216.433 3.43752 0.933429 0
M  V30 2263 O 215.292 5.20259 1.67312 0
M  V30 2264 H 212.386 0.775678 0.286796 0
M  V30 2265 H 214.932 1.68855 -0.169168 0
M  V30 2266 H 213.704 3.91257 -0.0581149 0
M  V30 2267 H 213.327 3.62532 1.63268 0
M  V30 2268 N 214.325 -0.140222 1.56975 0
M  V30 2269 C 215.553 -0.866437 1.87884 0
M  V30 2270 C 215.968 -1.74428 0.722517 0
M  V30 2271 O 215.325 -1.79891 -0.30749 0
M  V30 2272 C 215.376 -1.71753 3.18093 0
M  V30 2273 O 215.097 -0.875056 4.29272 0
M  V30 2274 C 216.598 -2.55074 3.62563 0
M  V30 2275 H 213.818 -0.25019 0.622612 0
M  V30 2276 H 216.362 -0.130977 2.0408 0
M  V30 2277 H 214.517 -2.40598 3.03631 0
M  V30 2278 H 214.931 -1.46002 5.03769 0
M  V30 2279 H 216.405 -3.10356 4.5649 0
M  V30 2280 H 216.882 -3.31434 2.88181 0
M  V30 2281 H 217.488 -1.91509 3.79743 0
M  V30 2282 N 215.803 -1.52179 -0.40978 0
M  V30 2283 C 217.214 -1.58377 -0.988615 0
M  V30 2284 C 217.565 -0.423879 -1.91566 0
M  V30 2285 O 216.69 0.455844 -2.11544 0
M  V30 2286 C 217.285 -2.87044 -1.79976 0
M  V30 2287 C 215.844 -2.95722 -2.32863 0
M  V30 2288 C 214.991 -2.53309 -1.12828 0
M  V30 2289 H 217.942 -1.57558 -0.190039 0
M  V30 2290 H 217.963 -2.7236 -2.65707 0
M  V30 2291 H 217.475 -3.71444 -1.12478 0
M  V30 2292 H 215.576 -2.15814 -3.03735 0
M  V30 2293 H 215.689 -3.99951 -2.63773 0
M  V30 2294 H 214.053 -2.07142 -1.48204 0
M  V30 2295 H 214.836 -3.40082 -0.46897 0
M  V30 2296 N 217.281 0.66697 -1.42791 0
M  V30 2297 C 218.527 1.4291 -1.43891 0
M  V30 2298 C 218.86 1.94114 -0.0578972 0
M  V30 2299 O 218.135 1.71414 0.91911 0
M  V30 2300 C 218.418 2.62049 -2.46987 0
M  V30 2301 C 218.271 2.16426 -3.94309 0
M  V30 2302 C 219.59 3.64266 -2.46978 0
M  V30 2303 H 216.709 0.518306 -0.523954 0
M  V30 2304 H 219.351 0.757321 -1.74255 0
M  V30 2305 H 217.501 3.19361 -2.21225 0
M  V30 2306 H 219.173 1.64221 -4.31079 0
M  V30 2307 H 217.416 1.47925 -4.078 0
M  V30 2308 H 218.087 3.02038 -4.62036 0
M  V30 2309 H 220.563 3.16686 -2.69906 0
M  V30 2310 H 219.439 4.45196 -3.21079 0
M  V30 2311 H 219.7 4.15927 -1.49857 0
M  V30 2312 N 218.759 1.29093 0.90403 0
M  V30 2313 C 219.669 1.15727 2.0407 0
M  V30 2314 C 220.685 0.0815308 1.73809 0
M  V30 2315 O 221.861 0.292749 1.99261 0
M  V30 2316 C 218.926 0.830424 3.36608 0
M  V30 2317 C 217.987 1.98955 3.80415 0
M  V30 2318 C 217.22 1.6782 5.06628 0
M  V30 2319 O 217.443 0.597105 5.67266 0
M  V30 2320 O 216.377 2.52486 5.46383 0
M  V30 2321 H 220.203 2.11171 2.18267 0
M  V30 2322 H 217.788 1.08504 1.027 0
M  V30 2323 H 219.67 0.662521 4.16159 0
M  V30 2324 H 218.345 -0.0942678 3.23563 0
M  V30 2325 H 217.252 2.21267 3.01648 0
M  V30 2326 H 218.585 2.89529 3.98037 0
M  V30 2327 N 220.237 -1.11381 1.11499 0
M  V30 2328 C 221.169 -2.17207 0.731704 0
M  V30 2329 C 222.182 -1.61066 -0.236957 0
M  V30 2330 O 223.371 -1.78489 -0.0197591 0
M  V30 2331 C 220.471 -3.38846 0.0607624 0
M  V30 2332 C 219.644 -4.24451 1.0564 0
M  V30 2333 C 218.703 -5.24562 0.4149 0
M  V30 2334 O 217.729 -5.59071 1.069 0
M  V30 2335 N 218.931 -5.74651 -0.821943 0
M  V30 2336 H 221.696 -2.50699 1.64225 0
M  V30 2337 H 219.257 -1.26908 1.00529 0
M  V30 2338 H 221.249 -4.02911 -0.380139 0
M  V30 2339 H 219.819 -3.03411 -0.752376 0
M  V30 2340 H 219.039 -3.56833 1.67524 0
M  V30 2341 H 220.327 -4.78486 1.72998 0
M  V30 2342 H 219.725 -5.48797 -1.37252 0
M  V30 2343 H 218.282 -6.40549 -1.20582 0
M  V30 2344 N 221.715 -0.905404 -1.28997 0
M  V30 2345 C 222.963 -0.533192 -1.9494 0
M  V30 2346 C 223.284 0.924618 -1.71685 0
M  V30 2347 O 222.554 1.65268 -1.05183 0
M  V30 2348 H 221.134 -0.194194 -0.721317 0
M  V30 2349 H 223.796 -1.15294 -1.57141 0
M  V30 2350 H 222.892 -0.72059 -3.03667 0
M  V30 2351 N 223.193 1.4272 -0.668489 0
M  V30 2352 C 224.14 2.30796 0.0137489 0
M  V30 2353 C 225.11 1.4561 0.799177 0
M  V30 2354 O 226.295 1.74453 0.772702 0
M  V30 2355 C 223.435 3.31377 0.963507 0
M  V30 2356 C 222.548 4.31655 0.172569 0
M  V30 2357 C 221.683 5.19312 1.1175 0
M  V30 2358 C 220.722 6.11274 0.317886 0
M  V30 2359 N 219.859 6.91504 1.2152 0
M  V30 2360 H 224.699 2.88585 -0.743161 0
M  V30 2361 H 222.236 1.42154 -0.378226 0
M  V30 2362 H 224.194 3.88214 1.52792 0
M  V30 2363 H 222.824 2.75202 1.68712 0
M  V30 2364 H 221.876 3.76988 -0.508374 0
M  V30 2365 H 223.188 4.96779 -0.448527 0
M  V30 2366 H 222.342 5.80851 1.75206 0
M  V30 2367 H 221.081 4.5435 1.77249 0
M  V30 2368 H 220.086 5.48809 -0.329918 0
M  V30 2369 H 221.311 6.78283 -0.332917 0
M  V30 2370 H 219.257 6.29176 1.85671 0
M  V30 2371 H 219.174 7.53209 0.649036 0
M  V30 2372 H 220.442 7.57535 1.83742 0
M  V30 2373 N 224.671 0.411399 1.52136 0
M  V30 2374 C 225.948 -0.222308 1.94333 0
M  V30 2375 C 226.328 -1.6242 1.34844 0
M  V30 2376 O 225.676 -2.22384 0.525145 0
M  V30 2377 C 225.886 -0.226345 3.48265 0
M  V30 2378 C 227.234 -0.444592 4.22266 0
M  V30 2379 O 228.258 -0.305602 3.54887 0
M  V30 2380 O 227.117 -0.718749 5.41753 0
M  V30 2381 H 224.211 -0.143907 0.814383 0
M  V30 2382 H 226.757 0.467506 1.63133 0
M  V30 2383 H 225.529 0.75475 3.83952 0
M  V30 2384 H 225.152 -0.960163 3.85832 0
M  V30 2385 N 226.149 -1.5696 0.141893 0
M  V30 2386 C 227.426 -1.87553 -0.555281 0
M  V30 2387 C 227.806 -1.04699 -1.83306 0
M  V30 2388 O 227.154 -0.132346 -2.28116 0
M  V30 2389 C 227.364 -3.39093 -0.825664 0
M  V30 2390 C 228.712 -4.08199 -1.16869 0
M  V30 2391 O 229.736 -3.44242 -0.915185 0
M  V30 2392 O 228.595 -5.21139 -1.6455 0
M  V30 2393 H 225.689 -0.777188 -0.282679 0
M  V30 2394 H 228.235 -1.68763 0.17812 0
M  V30 2395 H 227.007 -3.91221 0.0788633 0
M  V30 2396 H 226.63 -3.63393 -1.61343 0
M  V30 2397 N 227.627 0.131896 -1.57047 0
M  V30 2398 C 228.857 0.855219 -1.88068 0
M  V30 2399 C 229.265 1.74557 -0.729817 0
M  V30 2400 O 228.608 1.81083 0.308962 0
M  V30 2401 C 228.67 1.75119 -3.13964 0
M  V30 2402 C 228.334 1.03646 -4.45091 0
M  V30 2403 C 229.331 0.383276 -5.18485 0
M  V30 2404 C 227.016 1.02148 -4.91804 0
M  V30 2405 C 229.01 -0.275347 -6.36805 0
M  V30 2406 C 226.697 0.359047 -6.10044 0
M  V30 2407 C 227.695 -0.288222 -6.82392 0
M  V30 2408 O 227.383 -0.94011 -7.98384 0
M  V30 2409 H 227.115 0.251864 -0.627328 0
M  V30 2410 H 229.669 0.124782 -2.05021 0
M  V30 2411 H 227.899 2.52295 -2.9306 0
M  V30 2412 H 229.588 2.3478 -3.31109 0
M  V30 2413 H 230.354 0.386562 -4.83457 0
M  V30 2414 H 226.233 1.5147 -4.35405 0
M  V30 2415 H 229.777 -0.781148 -6.93213 0
M  V30 2416 H 225.674 0.35348 -6.44531 0
M  V30 2417 H 226.442 -0.84329 -8.14144 0
M  V30 2418 N 229.106 1.52395 0.401703 0
M  V30 2419 C 230.036 1.79231 1.49661 0
M  V30 2420 C 231.017 0.643654 1.57452 0
M  V30 2421 O 232.202 0.889989 1.72606 0
M  V30 2422 C 229.332 1.94971 2.87409 0
M  V30 2423 C 228.286 3.10604 2.94465 0
M  V30 2424 C 227.612 3.11577 4.34538 0
M  V30 2425 C 228.912 4.49921 2.6527 0
M  V30 2426 H 230.606 2.70917 1.27454 0
M  V30 2427 H 228.152 1.30362 0.6117 0
M  V30 2428 H 230.105 2.12328 3.63999 0
M  V30 2429 H 228.829 0.999632 3.10926 0
M  V30 2430 H 227.488 2.93009 2.20321 0
M  V30 2431 H 227.136 2.14277 4.55076 0
M  V30 2432 H 226.836 3.89247 4.40183 0
M  V30 2433 H 228.36 3.31073 5.13053 0
M  V30 2434 H 229.774 4.67683 3.31581 0
M  V30 2435 H 228.171 5.29564 2.82281 0
M  V30 2436 H 229.241 4.57507 1.60671 0
M  V30 2437 N 230.584 -0.659388 1.43143 0
M  V30 2438 C 231.833 -1.41518 1.43721 0
M  V30 2439 C 232.146 -1.95499 0.0628176 0
M  V30 2440 O 233.352 -2.71446 -0.0539683 0
M  V30 2441 C 231.808 -2.5608 2.52885 0
M  V30 2442 C 231.416 -2.08733 3.96402 0
M  V30 2443 C 233.16 -3.3349 2.62649 0
M  V30 2444 C 231.067 -3.20469 4.97045 0
M  V30 2445 H 229.997 -0.531705 0.534608 0
M  V30 2446 H 232.648 -0.712343 1.69109 0
M  V30 2447 H 231.03 -3.28805 2.20688 0
M  V30 2448 H 232.204 -1.43059 4.3803 0
M  V30 2449 H 230.519 -1.44219 3.90627 0
M  V30 2450 H 233.116 -4.16734 3.35017 0
M  V30 2451 H 233.459 -3.8111 1.67513 0
M  V30 2452 H 233.992 -2.67842 2.94118 0
M  V30 2453 H 230.731 -2.77824 5.93712 0
M  V30 2454 H 230.251 -3.84874 4.60034 0
M  V30 2455 H 231.93 -3.85698 5.19467 0
M  V30 2456 N 232.062 -1.29571 -0.897171 0
M  V30 2457 C 233.302 -1.18959 -1.66217 0
M  V30 2458 C 233.666 0.254271 -1.90309 0
M  V30 2459 O 234.867 0.483407 -2.64417 0
M  V30 2460 C 233.138 -1.98302 -2.9734 0
M  V30 2461 S 234.697 -2.04253 -3.88364 0
M  V30 2462 H 231.515 -0.424137 -0.570639 0
M  V30 2463 H 234.117 -1.6389 -1.06585 0
M  V30 2464 H 232.821 -3.02342 -2.77521 0
M  V30 2465 H 232.352 -1.53986 -3.62011 0
M  V30 2466 H 234.367 -1.16105 -4.82425 0
M  V30 2467 N 233.54 1.10788 -1.12088 0
M  V30 2468 C 234.473 2.16237 -0.729168 0
M  V30 2469 C 235.451 1.60207 0.277921 0
M  V30 2470 O 236.635 1.87707 0.172737 0
M  V30 2471 C 233.762 3.38609 -0.0786848 0
M  V30 2472 C 232.808 4.13322 -1.05201 0
M  V30 2473 S 233.641 4.69371 -2.57781 0
M  V30 2474 C 234.797 5.95058 -1.94053 0
M  V30 2475 H 235.03 2.4913 -1.62239 0
M  V30 2476 H 232.563 1.22519 -0.939603 0
M  V30 2477 H 234.521 4.09473 0.290254 0
M  V30 2478 H 233.182 3.03962 0.791593 0
M  V30 2479 H 232.375 5.01051 -0.544433 0
M  V30 2480 H 231.977 3.48251 -1.36371 0
M  V30 2481 H 234.269 6.65278 -1.28107 0
M  V30 2482 H 235.212 6.50472 -2.79807 0
M  V30 2483 H 235.62 5.46918 -1.39787 0
M  V30 2484 N 235.018 0.912232 1.28515 0
M  V30 2485 C 235.928 0.404506 2.31086 0
M  V30 2486 C 236.944 -0.50707 1.66448 0
M  V30 2487 O 238.12 -0.393624 1.97516 0
M  V30 2488 C 235.185 -0.348572 3.44943 0
M  V30 2489 C 234.246 0.59604 4.25142 0
M  V30 2490 C 233.479 -0.121194 5.33562 0
M  V30 2491 O 233.702 -1.34317 5.5436 0
M  V30 2492 O 232.636 0.542716 5.99448 0
M  V30 2493 H 236.462 1.25579 2.76521 0
M  V30 2494 H 234.047 0.676998 1.33181 0
M  V30 2495 H 235.929 -0.77395 4.14232 0
M  V30 2496 H 234.604 -1.17571 3.01594 0
M  V30 2497 H 233.511 1.07079 3.58448 0
M  V30 2498 H 234.844 1.38995 4.72167 0
M  V30 2499 N 236.496 -1.42363 0.676048 0
M  V30 2500 C 237.443 -2.308 -0.00150904 0
M  V30 2501 C 238.413 -1.46032 -0.791444 0
M  V30 2502 O 239.598 -1.74861 -0.76344 0
M  V30 2503 C 236.738 -3.31883 -0.945919 0
M  V30 2504 C 235.851 -4.31741 -0.149675 0
M  V30 2505 C 234.986 -5.19898 -1.08995 0
M  V30 2506 C 234.025 -6.11434 -0.285465 0
M  V30 2507 N 233.162 -6.92138 -1.17851 0
M  V30 2508 H 238.002 -2.88187 0.758455 0
M  V30 2509 H 235.539 -1.41952 0.38576 0
M  V30 2510 H 237.497 -3.89019 -1.50731 0
M  V30 2511 H 236.127 -2.76093 -1.6725 0
M  V30 2512 H 235.179 -3.76713 0.528359 0
M  V30 2513 H 236.491 -4.96534 0.474866 0
M  V30 2514 H 235.645 -5.81772 -1.72123 0
M  V30 2515 H 234.384 -4.55284 -1.74837 0
M  V30 2516 H 233.389 -5.48627 0.359018 0
M  V30 2517 H 234.614 -6.78097 0.368883 0
M  V30 2518 H 232.56 -6.30152 -1.82332 0
M  V30 2519 H 232.477 -7.53542 -0.609082 0
M  V30 2520 H 233.745 -7.58499 -1.79722 0
M  V30 2521 N 237.974 -0.419461 -1.51915 0
M  V30 2522 C 239.223 0.154346 -2.01109 0
M  V30 2523 C 239.536 1.45338 -1.30905 0
M  V30 2524 O 240.742 2.10906 -1.7097 0
M  V30 2525 C 239.198 0.325615 -3.58424 0
M  V30 2526 C 238.806 -0.961934 -4.37551 0
M  V30 2527 C 240.55 0.854155 -4.15818 0
M  V30 2528 C 238.457 -0.757287 -5.86531 0
M  V30 2529 H 237.387 0.0614563 -0.751491 0
M  V30 2530 H 240.038 -0.54649 -1.75173 0
M  V30 2531 H 238.42 1.08903 -3.80731 0
M  V30 2532 H 239.594 -1.7323 -4.26999 0
M  V30 2533 H 237.909 -1.41766 -3.91524 0
M  V30 2534 H 240.506 1.02346 -5.24814 0
M  V30 2535 H 240.849 1.83172 -3.73837 0
M  V30 2536 H 241.382 0.149528 -3.97519 0
M  V30 2537 H 238.121 -1.70671 -6.32892 0
M  V30 2538 H 237.641 -0.0264061 -5.99794 0
M  V30 2539 H 239.32 -0.403482 -6.45741 0
M  V30 2540 N 239.452 1.56882 -0.150215 0
M  V30 2541 C 240.682 2.00302 0.506213 0
M  V30 2542 C 241.09 1.02934 1.58749 0
M  V30 2543 O 240.433 0.0188384 1.8369 0
M  V30 2544 C 240.495 3.40156 1.16337 0
M  V30 2545 C 240.159 4.56439 0.226311 0
M  V30 2546 C 241.156 5.17012 -0.547265 0
M  V30 2547 C 238.841 5.02136 0.128279 0
M  V30 2548 C 240.835 6.21693 -1.40629 0
M  V30 2549 C 238.522 6.06672 -0.734345 0
M  V30 2550 C 239.52 6.6632 -1.50023 0
M  V30 2551 O 239.208 7.68831 -2.34848 0
M  V30 2552 H 238.94 0.662182 0.135984 0
M  V30 2553 H 241.494 2.03961 -0.242746 0
M  V30 2554 H 239.724 3.33346 1.96004 0
M  V30 2555 H 241.413 3.67663 1.71985 0
M  V30 2556 H 242.179 4.82603 -0.48158 0
M  V30 2557 H 238.058 4.55435 0.714157 0
M  V30 2558 H 241.602 6.68179 -2.00455 0
M  V30 2559 H 237.499 6.40507 -0.801309 0
M  V30 2560 H 238.267 7.86065 -2.28131 0
M  V30 2561 N 240.93 -0.123565 1.57115 0
M  V30 2562 C 241.893 -1.13583 1.99076 0
M  V30 2563 C 242.893 -1.34564 0.880296 0
M  V30 2564 O 244.083 -1.31158 1.14644 0
M  V30 2565 C 241.215 -2.49128 2.32698 0
M  V30 2566 H 242.408 -0.775287 2.89706 0
M  V30 2567 H 239.961 -0.36771 1.51913 0
M  V30 2568 H 240.696 -2.90111 1.44934 0
M  V30 2569 H 240.481 -2.35255 3.13684 0
M  V30 2570 H 241.971 -3.2199 2.65918 0
M  V30 2571 N 242.408 -1.52605 -0.393616 0
M  V30 2572 C 243.638 -1.71046 -1.15874 0
M  V30 2573 C 244.046 -0.426483 -1.84331 0
M  V30 2574 O 243.389 0.608513 -1.73329 0
M  V30 2575 C 243.451 -2.80118 -2.25332 0
M  V30 2576 C 243.115 -4.21381 -1.76881 0
M  V30 2577 C 244.112 -5.04697 -1.24808 0
M  V30 2578 C 241.797 -4.67683 -1.83244 0
M  V30 2579 C 243.791 -6.32393 -0.797387 0
M  V30 2580 C 241.478 -5.95364 -1.37787 0
M  V30 2581 C 242.476 -6.77549 -0.861208 0
M  V30 2582 O 242.164 -8.02837 -0.413252 0
M  V30 2583 H 241.896 -0.576155 -0.353583 0
M  V30 2584 H 244.45 -2.00018 -0.467123 0
M  V30 2585 H 242.68 -2.46557 -2.97904 0
M  V30 2586 H 244.369 -2.87006 -2.87023 0
M  V30 2587 H 245.135 -4.70111 -1.19252 0
M  V30 2588 H 241.014 -4.03805 -2.22401 0
M  V30 2589 H 244.558 -6.9649 -0.393437 0
M  V30 2590 H 240.455 -6.29455 -1.43026 0
M  V30 2591 H 241.223 -8.16749 -0.53515 0
M  V30 2592 N 243.887 0.651787 -1.4349 0
M  V30 2593 C 244.85 1.74647 -1.48429 0
M  V30 2594 C 245.85 1.56513 -0.368817 0
M  V30 2595 O 247.04 1.62385 -0.630623 0
M  V30 2596 C 244.172 3.13533 -1.33827 0
M  V30 2597 H 245.365 1.71649 -2.4592 0
M  V30 2598 H 242.918 0.863573 -1.30277 0
M  V30 2599 H 243.653 3.22142 -0.37349 0
M  V30 2600 H 243.438 3.28101 -2.14691 0
M  V30 2601 H 244.928 3.93356 -1.40218 0
M  V30 2602 N 245.365 1.30045 0.890287 0
M  V30 2603 C 246.613 1.18327 1.63839 0
M  V30 2604 C 246.934 -0.263455 1.93212 0
M  V30 2605 O 246.204 -1.17856 1.56482 0
M  V30 2606 H 244.784 0.434933 0.607324 0
M  V30 2607 H 247.446 1.631 1.06698 0
M  V30 2608 H 246.542 1.74024 2.59079 0
M  V30 2609 N 246.843 -1.10192 1.12674 0
M  V30 2610 C 248.073 -1.85713 0.905213 0
M  V30 2611 C 248.481 -1.81056 -0.549108 0
M  V30 2612 O 247.824 -1.19927 -1.39151 0
M  V30 2613 C 247.886 -3.34972 1.30516 0
M  V30 2614 C 247.55 -3.63385 2.77129 0
M  V30 2615 C 248.547 -3.59772 3.75313 0
M  V30 2616 C 246.232 -3.91981 3.14096 0
M  V30 2617 C 248.226 -3.84354 5.08479 0
M  V30 2618 C 245.913 -4.16218 4.47443 0
M  V30 2619 C 246.911 -4.12395 5.44444 0
M  V30 2620 O 246.599 -4.36014 6.75387 0
M  V30 2621 H 246.331 -0.593719 0.323223 0
M  V30 2622 H 248.885 -1.40198 1.50112 0
M  V30 2623 H 247.115 -3.81156 0.652463 0
M  V30 2624 H 248.804 -3.91886 1.05736 0
M  V30 2625 H 249.57 -3.37716 3.48099 0
M  V30 2626 H 245.449 -3.94085 2.39202 0
M  V30 2627 H 248.993 -3.81285 5.84181 0
M  V30 2628 H 244.89 -4.37754 4.74386 0
M  V30 2629 H 245.658 -4.53516 6.8137 0
M  V30 2630 N 248.321 -0.919034 -1.28029 0
M  V30 2631 C 249.57 -0.550802 -1.94034 0
M  V30 2632 C 249.883 0.910877 -1.73096 0
M  V30 2633 O 251.089 1.3875 -2.33368 0
M  V30 2634 C 249.545 -0.934249 -3.47563 0
M  V30 2635 C 249.153 -2.41602 -3.7727 0
M  V30 2636 C 250.897 -0.636854 -4.19696 0
M  V30 2637 C 248.804 -2.73932 -5.24133 0
M  V30 2638 H 247.734 -0.202273 -0.726362 0
M  V30 2639 H 250.385 -1.11867 -1.45458 0
M  V30 2640 H 248.767 -0.295115 -3.94899 0
M  V30 2641 H 249.941 -3.10233 -3.40723 0
M  V30 2642 H 248.256 -2.68441 -3.18321 0
M  V30 2643 H 250.853 -0.855005 -5.2782 0
M  V30 2644 H 251.196 0.425575 -4.14119 0
M  V30 2645 H 251.729 -1.23469 -3.78154 0
M  V30 2646 H 248.468 -3.79049 -5.34792 0
M  V30 2647 H 247.988 -2.09942 -5.61858 0
M  V30 2648 H 249.667 -2.61215 -5.91925 0
M  V30 2649 N 249.799 1.42003 -0.683588 0
M  V30 2650 C 250.762 2.29191 -0.0198243 0
M  V30 2651 C 251.762 1.43773 0.72013 0
M  V30 2652 O 252.952 1.65061 0.556815 0
M  V30 2653 C 250.084 3.26435 0.982487 0
M  V30 2654 H 251.277 2.8938 -0.787345 0
M  V30 2655 H 248.83 1.49789 -0.446418 0
M  V30 2656 H 249.565 2.71203 1.77819 0
M  V30 2657 H 249.35 3.89449 0.455182 0
M  V30 2658 H 250.84 3.918 1.44508 0
M  V30 2659 N 251.277 0.427512 1.51691 0
M  V30 2660 C 252.526 -0.143679 2.01188 0
M  V30 2661 C 252.839 -1.44642 1.31674 0
M  V30 2662 O 254.045 -2.09997 1.72086 0
M  V30 2663 C 252.501 -0.306602 3.58592 0
M  V30 2664 C 252.109 0.985125 4.37035 0
M  V30 2665 C 253.853 -0.832091 4.16265 0
M  V30 2666 C 251.76 0.788382 5.86122 0
M  V30 2667 H 250.69 -0.0574701 0.751807 0
M  V30 2668 H 253.341 0.555772 1.74881 0
M  V30 2669 H 251.723 -1.06882 3.81303 0
M  V30 2670 H 252.897 1.75492 4.26074 0
M  V30 2671 H 251.212 1.4384 3.90767 0
M  V30 2672 H 253.809 -0.995617 5.25349 0
M  V30 2673 H 254.152 -1.81186 3.74803 0
M  V30 2674 H 254.685 -0.128444 3.97593 0
M  V30 2675 H 251.424 1.74025 6.31978 0
M  V30 2676 H 250.944 0.0582143 5.99772 0
M  V30 2677 H 252.623 0.437722 6.45518 0
M  V30 2678 N 252.755 -1.56801 0.158532 0
M  V30 2679 C 253.703 -2.18638 -0.793729 0
M  V30 2680 C 254.697 -1.14669 -1.24689 0
M  V30 2681 O 255.903 -1.32895 -1.21403 0
M  V30 2682 H 252.278 -0.700226 -0.274204 0
M  V30 2683 H 254.249 -2.97367 -0.248095 0
M  V30 2684 C 252.998 -2.83139 -2.0181 0
M  V30 2685 H 252.321 -3.62863 -1.67841 0
M  V30 2686 H 253.761 -3.29894 -2.66357 0
M  V30 2687 C 252.22 -1.82244 -2.83353 0
M  V30 2688 O 252.75 -1.3 -3.80083 0
M  V30 2689 N 250.956 -1.51288 -2.48114 0
M  V30 2690 H 250.503 -1.93964 -1.69516 0
M  V30 2691 H 250.461 -0.840296 -3.02963 0
M  V30 2692 N 254.233 0.115231 -1.57178 0
M  V30 2693 C 255.482 0.820945 -1.84237 0
M  V30 2694 C 255.795 1.80866 -0.744761 0
M  V30 2695 O 257.001 2.56083 -0.901871 0
M  V30 2696 C 255.457 1.51072 -3.26658 0
M  V30 2697 C 255.065 0.563795 -4.44438 0
M  V30 2698 C 256.809 2.20134 -3.62962 0
M  V30 2699 C 254.716 1.25701 -5.77887 0
M  V30 2700 H 253.646 0.310328 -0.687177 0
M  V30 2701 H 256.297 0.0737134 -1.83352 0
M  V30 2702 H 254.679 2.30471 -3.22024 0
M  V30 2703 H 255.853 -0.197247 -4.60378 0
M  V30 2704 H 254.168 -0.0200638 -4.16395 0
M  V30 2705 H 256.765 2.72696 -4.59936 0
M  V30 2706 H 257.108 2.98107 -2.90582 0
M  V30 2707 H 257.641 1.47619 -3.69396 0
M  V30 2708 H 254.38 0.518493 -6.53446 0
M  V30 2709 H 253.9 1.98997 -5.65827 0
M  V30 2710 H 255.579 1.78915 -6.2177 0
M  V30 2711 N 255.711 1.52812 0.385517 0
M  V30 2712 C 256.936 1.72207 1.15583 0
M  V30 2713 C 257.361 0.441034 1.82857 0
M  V30 2714 O 256.719 -0.603465 1.70962 0
M  V30 2715 C 256.767 2.87476 2.17692 0
M  V30 2716 O 255.871 2.54693 3.24354 0
M  V30 2717 H 255.212 0.572526 0.336319 0
M  V30 2718 H 257.742 1.99618 0.448744 0
M  V30 2719 H 257.752 3.13072 2.6163 0
M  V30 2720 H 256.427 3.80408 1.68115 0
M  V30 2721 H 255.004 2.3985 2.85529 0
M  V30 2722 N 257.189 -0.644168 1.43834 0
M  V30 2723 C 258.414 -1.43642 1.49605 0
M  V30 2724 C 258.839 -1.8773 0.117913 0
M  V30 2725 O 258.197 -1.57938 -0.890239 0
M  V30 2726 C 258.245 -2.6416 2.45463 0
M  V30 2727 O 257.349 -3.63538 1.94714 0
M  V30 2728 H 256.69 -0.430329 0.50568 0
M  V30 2729 H 259.22 -0.787448 1.8884 0
M  V30 2730 H 259.23 -3.11864 2.63068 0
M  V30 2731 H 257.905 -2.31414 3.45572 0
M  V30 2732 H 256.482 -3.2273 1.86814 0
M  V30 2733 N 258.668 -1.30515 -0.883378 0
M  V30 2734 C 260.079 -1.17509 -1.45081 0
M  V30 2735 C 260.43 0.223605 -1.94922 0
M  V30 2736 O 259.555 1.12041 -1.85137 0
M  V30 2737 C 260.15 -2.12715 -2.63701 0
M  V30 2738 C 258.709 -2.03682 -3.16529 0
M  V30 2739 C 257.856 -2.02706 -1.89224 0
M  V30 2740 H 260.807 -1.42762 -0.693165 0
M  V30 2741 H 260.828 -1.70891 -3.39965 0
M  V30 2742 H 260.34 -3.14505 -2.27395 0
M  V30 2743 H 258.441 -1.05039 -3.57488 0
M  V30 2744 H 258.554 -2.92146 -3.7972 0
M  V30 2745 H 256.918 -1.4753 -2.07622 0
M  V30 2746 H 257.701 -3.06229 -1.55174 0
M  V30 2747 N 260.146 1.09593 -1.13257 0
M  V30 2748 C 261.094 2.18271 -0.803783 0
M  V30 2749 C 262.088 1.68054 0.213148 0
M  V30 2750 O 263.294 1.79862 0.0704699 0
M  V30 2751 H 259.669 0.711949 -0.242143 0
M  V30 2752 H 261.64 2.43235 -1.72856 0
M  V30 2753 C 260.389 3.46536 -0.28424 0
M  V30 2754 H 259.712 3.85545 -1.05807 0
M  V30 2755 H 261.152 4.23899 -0.0925945 0
M  V30 2756 C 259.611 3.22036 0.989684 0
M  V30 2757 O 260.141 3.44509 2.06584 0
M  V30 2758 N 258.347 2.7565 0.920086 0
M  V30 2759 H 257.894 2.57562 0.0442019 0
M  V30 2760 H 257.852 2.59635 1.77306 0
M  V30 2761 N 261.624 0.925811 1.2754 0
M  V30 2762 C 262.852 0.581509 1.9856 0
M  V30 2763 C 263.267 -0.840041 1.69082 0
M  V30 2764 O 262.624 -1.55805 0.950312 0
M  V30 2765 C 262.675 0.795589 3.52637 0
M  V30 2766 O 262.396 2.16121 3.81082 0
M  V30 2767 C 263.897 0.459744 4.4091 0
M  V30 2768 H 261.117 0.220538 0.633722 0
M  V30 2769 H 263.661 1.24232 1.6244 0
M  V30 2770 H 261.816 0.18161 3.86974 0
M  V30 2771 H 262.23 2.2098 4.75676 0
M  V30 2772 H 263.704 0.660244 5.48037 0
M  V30 2773 H 264.181 -0.604625 4.35018 0
M  V30 2774 H 264.787 1.05178 4.12089 0
M  V30 2775 N 263.102 -1.41638 0.69111 0
M  V30 2776 C 264.513 -1.84346 0.295517 0
M  V30 2777 C 264.864 -1.57833 -1.16547 0
M  V30 2778 O 263.989 -1.04648 -1.89414 0
M  V30 2779 C 264.584 -3.34636 0.529575 0
M  V30 2780 C 263.143 -3.7593 0.187944 0
M  V30 2781 C 262.29 -2.65082 0.814052 0
M  V30 2782 H 265.241 -1.31253 0.892092 0
M  V30 2783 H 265.262 -3.79903 -0.213148 0
M  V30 2784 H 264.774 -3.53901 1.59297 0
M  V30 2785 H 262.875 -3.62268 -0.871367 0
M  V30 2786 H 262.988 -4.74808 0.63985 0
M  V30 2787 H 261.352 -2.53528 0.244017 0
M  V30 2788 H 262.135 -2.87167 1.88123 0
M  V30 2789 N 264.58 -0.43555 -1.51462 0
M  V30 2790 C 265.828 0.131254 -2.01673 0
M  V30 2791 C 266.149 1.43368 -1.32177 0
M  V30 2792 O 265.419 1.90524 -0.455769 0
M  V30 2793 H 263.999 0.0514954 -0.745223 0
M  V30 2794 H 266.661 -0.577847 -1.86137 0
M  V30 2795 H 265.757 0.308446 -3.10572 0
M  V30 2796 N 266.058 1.56714 -0.166846 0
M  V30 2797 C 266.988 2.20754 0.760913 0
M  V30 2798 C 267.969 1.16178 1.24244 0
M  V30 2799 O 269.154 1.44592 1.29641 0
M  V30 2800 C 266.284 2.84478 1.99223 0
M  V30 2801 C 265.238 3.95053 1.64672 0
M  V30 2802 C 264.564 4.45805 2.95232 0
M  V30 2803 C 265.864 5.14865 0.878155 0
M  V30 2804 H 267.558 2.98537 0.22713 0
M  V30 2805 H 265.104 1.43596 0.107805 0
M  V30 2806 H 267.057 3.27951 2.64624 0
M  V30 2807 H 265.781 2.04056 2.55007 0
M  V30 2808 H 264.44 3.52228 1.01641 0
M  V30 2809 H 264.088 3.62181 3.49047 0
M  V30 2810 H 263.788 5.204 2.7287 0
M  V30 2811 H 265.312 4.91962 3.6167 0
M  V30 2812 H 266.726 5.55059 1.43466 0
M  V30 2813 H 265.123 5.95348 0.753738 0
M  V30 2814 H 266.193 4.84735 -0.126377 0
M  V30 2815 N 267.536 -0.106894 1.57237 0
M  V30 2816 C 268.952 -0.46078 1.52804 0
M  V30 2817 C 269.152 -1.81184 0.881746 0
M  V30 2818 O 268.208 -2.48102 0.469224 0
M  V30 2819 C 269.521 -0.434127 2.9755 0
M  V30 2820 C 271.069 -0.516821 3.08704 0
M  V30 2821 C 271.544 -0.520436 4.55033 0
M  V30 2822 N 273.035 -0.58153 4.59535 0
M  V30 2823 C 273.77 -0.605973 5.70189 0
M  V30 2824 N 273.266 -0.587331 6.90306 0
M  V30 2825 N 275.059 -0.649895 5.5833 0
M  V30 2826 H 267.21 0.778203 1.9763 0
M  V30 2827 H 269.473 0.288403 0.903066 0
M  V30 2828 H 269.179 0.491197 3.48253 0
M  V30 2829 H 269.053 -1.25748 3.55622 0
M  V30 2830 H 271.44 -1.43256 2.57995 0
M  V30 2831 H 271.521 0.334449 2.53604 0
M  V30 2832 H 271.165 0.391313 5.0639 0
M  V30 2833 H 271.095 -1.38876 5.07958 0
M  V30 2834 H 273.586 -0.60161 3.73081 0
M  V30 2835 H 273.899 -0.60894 7.70397 0
M  V30 2836 H 272.244 -0.554564 6.92784 0
M  V30 2837 H 275.435 -0.661907 4.63397 0
M  V30 2838 H 275.608 -0.665476 6.44574 0
M  V30 2839 N 269.014 -1.53014 -0.377408 0
M  V30 2840 C 270.242 -1.72515 -1.14219 0
M  V30 2841 C 270.657 -0.448735 -1.8339 0
M  V30 2842 O 270.014 0.577592 -1.73119 0
M  V30 2843 C 270.065 -2.8826 -2.18148 0
M  V30 2844 O 269.786 -4.10962 -1.51795 0
M  V30 2845 C 271.287 -3.19536 -3.07264 0
M  V30 2846 H 268.507 -0.577301 -0.342001 0
M  V30 2847 H 271.051 -1.99712 -0.439935 0
M  V30 2848 H 269.206 -2.63492 -2.83991 0
M  V30 2849 H 269.62 -4.75693 -2.20945 0
M  V30 2850 H 271.094 -4.03959 -3.76193 0
M  V30 2851 H 271.571 -2.34403 -3.71419 0
M  V30 2852 H 272.177 -3.46186 -2.47053 0
M  V30 2853 N 270.492 0.636531 -1.44174 0
M  V30 2854 C 271.422 1.76003 -1.53444 0
M  V30 2855 C 272.403 1.65619 -0.387841 0
M  V30 2856 O 273.588 1.84461 -0.607257 0
M  V30 2857 C 270.718 3.14511 -1.4731 0
M  V30 2858 C 269.672 3.39677 -2.60391 0
M  V30 2859 C 268.998 4.78159 -2.39308 0
M  V30 2860 C 270.298 3.32772 -4.02567 0
M  V30 2861 H 271.992 1.68501 -2.47483 0
M  V30 2862 H 269.538 0.809237 -1.19111 0
M  V30 2863 H 271.491 3.92878 -1.52397 0
M  V30 2864 H 270.215 3.22783 -0.49785 0
M  V30 2865 H 268.874 2.63688 -2.54684 0
M  V30 2866 H 268.522 4.83128 -1.39988 0
M  V30 2867 H 268.222 4.95956 -3.15122 0
M  V30 2868 H 269.746 5.58762 -2.46205 0
M  V30 2869 H 271.16 4.01051 -4.09672 0
M  V30 2870 H 269.557 3.62104 -4.7854 0
M  V30 2871 H 270.627 2.30669 -4.2652 0
M  V30 2872 N 271.97 1.30982 0.876444 0
M  V30 2873 C 272.902 1.13902 1.98894 0
M  V30 2874 C 273.915 0.0798815 1.62604 0
M  V30 2875 O 275.104 0.326743 1.75484 0
M  V30 2876 C 272.204 0.716699 3.31235 0
M  V30 2877 C 271.377 1.85945 3.95908 0
M  V30 2878 C 270.436 1.42426 5.06558 0
M  V30 2879 O 269.462 2.13287 5.27729 0
M  V30 2880 N 270.664 0.308025 5.79682 0
M  V30 2881 H 273.429 2.09724 2.14094 0
M  V30 2882 H 270.99 1.2323 1.05004 0
M  V30 2883 H 272.982 0.408403 4.02634 0
M  V30 2884 H 271.552 -0.149719 3.12241 0
M  V30 2885 H 270.772 2.33541 3.17573 0
M  V30 2886 H 272.06 2.62503 4.35855 0
M  V30 2887 H 271.458 -0.282241 5.64995 0
M  V30 2888 H 270.015 0.0592282 6.51773 0
M  V30 2889 N 273.449 -1.08991 1.13837 0
M  V30 2890 C 274.679 -1.84743 0.924859 0
M  V30 2891 C 275.087 -1.81629 -0.529874 0
M  V30 2892 O 274.43 -1.21397 -1.37872 0
M  V30 2893 C 274.492 -3.33568 1.34061 0
M  V30 2894 C 274.156 -3.60425 2.80968 0
M  V30 2895 C 275.153 -3.55771 3.79108 0
M  V30 2896 C 272.838 -3.88627 3.18236 0
M  V30 2897 C 274.832 -3.78939 5.12527 0
M  V30 2898 C 272.519 -4.11449 4.51833 0
M  V30 2899 C 273.517 -4.06598 5.48787 0
M  V30 2900 O 273.205 -4.28826 6.79973 0
M  V30 2901 H 272.937 -0.590258 0.329502 0
M  V30 2902 H 275.491 -1.38598 1.51591 0
M  V30 2903 H 273.721 -3.80442 0.692853 0
M  V30 2904 H 275.41 -3.90743 1.09886 0
M  V30 2905 H 276.176 -3.34005 3.51661 0
M  V30 2906 H 272.055 -3.91526 2.43369 0
M  V30 2907 H 275.599 -3.75068 5.88192 0
M  V30 2908 H 271.496 -4.32698 4.79002 0
M  V30 2909 H 272.264 -4.46264 6.86142 0
M  V30 2910 N 274.927 -0.932562 -1.27047 0
M  V30 2911 C 276.175 -0.574422 -1.93765 0
M  V30 2912 C 276.496 0.887993 -1.73608 0
M  V30 2913 O 275.766 1.62999 -1.08665 0
M  V30 2914 H 274.346 -0.209451 -0.717035 0
M  V30 2915 H 277.008 -1.18601 -1.5466 0
M  V30 2916 H 276.104 -0.784841 -3.02071 0
M  V30 2917 N 276.405 1.4127 -0.698611 0
M  V30 2918 C 277.315 2.34573 -0.0357891 0
M  V30 2919 C 278.331 1.56393 0.762701 0
M  V30 2920 O 279.507 1.8886 0.699564 0
M  V30 2921 C 276.572 3.35159 0.887089 0
M  V30 2922 C 275.633 4.29225 0.0804634 0
M  V30 2923 C 274.866 5.25006 0.959387 0
M  V30 2924 O 275.089 5.26314 2.19886 0
M  V30 2925 O 274.023 6.00519 0.407439 0
M  V30 2926 H 277.849 2.92838 -0.804957 0
M  V30 2927 H 275.434 1.42175 -0.458966 0
M  V30 2928 H 277.316 3.9689 1.41621 0
M  V30 2929 H 275.991 2.79333 1.6357 0
M  V30 2930 H 274.898 3.70833 -0.493328 0
M  V30 2931 H 276.231 4.88157 -0.629547 0
M  V30 2932 N 277.883 0.443576 1.51229 0
M  V30 2933 C 278.846 -0.353132 2.26463 0
M  V30 2934 C 279.846 -0.944338 1.3015 0
M  V30 2935 O 281.036 -0.817813 1.5381 0
M  V30 2936 C 278.168 -1.50023 3.06114 0
M  V30 2937 H 279.361 0.3063 2.98332 0
M  V30 2938 H 276.914 0.196902 1.55055 0
M  V30 2939 H 277.649 -2.19553 2.38677 0
M  V30 2940 H 277.434 -1.08241 3.76864 0
M  V30 2941 H 278.924 -2.06296 3.63087 0
M  V30 2942 N 279.361 -1.56624 0.175154 0
M  V30 2943 C 280.291 -2.21155 -0.749195 0
M  V30 2944 C 281.272 -1.16836 -1.23626 0
M  V30 2945 O 282.457 -1.45277 -1.28873 0
M  V30 2946 C 279.587 -2.8553 -1.97711 0
M  V30 2947 C 278.541 -3.95921 -1.62575 0
M  V30 2948 C 277.867 -4.47365 -2.92864 0
M  V30 2949 C 279.167 -5.15323 -0.850838 0
M  V30 2950 H 280.861 -2.98653 -0.211295 0
M  V30 2951 H 278.407 -1.43651 -0.100188 0
M  V30 2952 H 280.36 -3.2935 -2.62881 0
M  V30 2953 H 279.084 -2.05406 -2.53921 0
M  V30 2954 H 277.743 -3.52762 -0.997719 0
M  V30 2955 H 277.391 -3.64027 -3.47122 0
M  V30 2956 H 277.091 -5.21839 -2.70106 0
M  V30 2957 H 278.615 -4.93873 -3.59056 0
M  V30 2958 H 280.029 -5.55812 -1.40521 0
M  V30 2959 H 278.426 -5.95739 -0.722154 0
M  V30 2960 H 279.496 -4.84661 0.152082 0
M  V30 2961 N 280.839 0.0985539 -1.57292 0
M  V30 2962 C 282.116 0.834155 -1.76921 0
M  V30 2963 C 282.496 1.97101 -0.755928 0
M  V30 2964 O 281.844 2.27474 0.216245 0
M  V30 2965 C 282.054 1.33194 -3.22584 0
M  V30 2966 C 283.402 1.77611 -3.85668 0
M  V30 2967 O 284.426 1.42825 -3.26312 0
M  V30 2968 O 283.285 2.4192 -4.90038 0
M  V30 2969 H 280.379 0.397628 -0.725135 0
M  V30 2970 H 282.925 0.0807044 -1.69508 0
M  V30 2971 H 281.697 0.517248 -3.87866 0
M  V30 2972 H 281.32 2.1475 -3.34616 0
M  V30 2973 N 282.317 1.53212 0.369288 0
M  V30 2974 C 283.594 1.59815 1.12776 0
M  V30 2975 C 283.974 0.403402 2.0721 0
M  V30 2976 O 283.322 -0.606667 2.20299 0
M  V30 2977 C 283.532 2.94664 1.87013 0
M  V30 2978 C 284.88 3.49109 2.41677 0
M  V30 2979 O 285.904 2.96669 1.97144 0
M  V30 2980 O 284.763 4.40775 3.23079 0
M  V30 2981 H 281.857 0.645376 0.517125 0
M  V30 2982 H 284.403 1.65553 0.37285 0
M  V30 2983 H 283.175 3.73061 1.18071 0
M  V30 2984 H 282.798 2.92401 2.69421 0
M  V30 2985 N 283.795 -0.628877 1.44509 0
M  V30 2986 C 284.725 -1.75187 1.54376 0
M  V30 2987 C 285.706 -1.65411 0.396618 0
M  V30 2988 O 286.891 -1.84137 0.617031 0
M  V30 2989 C 284.021 -3.13725 1.48976 0
M  V30 2990 C 282.975 -3.38291 2.62189 0
M  V30 2991 C 282.301 -4.76883 2.41841 0
M  V30 2992 C 283.601 -3.30632 4.04326 0
M  V30 2993 H 285.295 -1.67187 2.48373 0
M  V30 2994 H 282.841 -0.802909 1.19538 0
M  V30 2995 H 284.794 -3.92064 1.54478 0
M  V30 2996 H 283.518 -3.22515 0.514961 0
M  V30 2997 H 282.177 -2.62334 2.56079 0
M  V30 2998 H 281.825 -4.82378 1.42548 0
M  V30 2999 H 281.525 -4.94278 3.17747 0
M  V30 3000 H 283.049 -5.57449 2.49165 0
M  V30 3001 H 284.463 -3.98873 4.11793 0
M  V30 3002 H 282.86 -3.59561 4.80454 0
M  V30 3003 H 283.93 -2.28404 4.27738 0
M  V30 3004 N 285.273 -1.31445 -0.869486 0
M  V30 3005 C 286.203 -1.21727 -1.99261 0
M  V30 3006 C 287.184 -0.104359 -1.6978 0
M  V30 3007 O 288.369 -0.289038 -1.92037 0
M  V30 3008 C 285.499 -0.924317 -3.34774 0
M  V30 3009 C 284.453 -1.99685 -3.78563 0
M  V30 3010 C 283.779 -1.55658 -5.11541 0
M  V30 3011 C 285.079 -3.41003 -3.95619 0
M  V30 3012 H 286.773 -2.1569 -2.07649 0
M  V30 3013 H 284.319 -1.03839 -0.997675 0
M  V30 3014 H 286.272 -0.842934 -4.12883 0
M  V30 3015 H 284.996 0.0509793 -3.2656 0
M  V30 3016 H 283.655 -2.06813 -3.02694 0
M  V30 3017 H 283.303 -0.569132 -4.9977 0
M  V30 3018 H 283.003 -2.27409 -5.41811 0
M  V30 3019 H 284.527 -1.48928 -5.92159 0
M  V30 3020 H 285.941 -3.36547 -4.64122 0
M  V30 3021 H 284.338 -4.10975 -4.37286 0
M  V30 3022 H 285.408 -3.81754 -2.98985 0
M  V30 3023 N 286.751 1.08385 -1.14413 0
M  V30 3024 C 287.979 1.84517 -0.936001 0
M  V30 3025 C 288.394 1.81626 0.515503 0
M  V30 3026 O 287.751 1.22008 1.35721 0
M  V30 3027 C 287.802 3.32049 -1.42918 0
M  V30 3028 O 287.523 3.34951 -2.82381 0
M  V30 3029 C 289.024 4.24986 -1.26103 0
M  V30 3030 H 286.244 0.582491 -0.333084 0
M  V30 3031 H 288.788 1.36885 -1.5193 0
M  V30 3032 H 286.943 3.7707 -0.888641 0
M  V30 3033 H 287.357 4.27048 -3.04517 0
M  V30 3034 H 288.831 5.26615 -1.6547 0
M  V30 3035 H 289.308 4.38726 -0.20392 0
M  V30 3036 H 289.914 3.85791 -1.79012 0
M  V30 3037 N 288.23 0.939286 1.26551 0
M  V30 3038 C 289.193 0.451987 2.24699 0
M  V30 3039 C 290.193 -0.435869 1.5478 0
M  V30 3040 O 291.383 -0.235314 1.72603 0
M  V30 3041 C 288.515 -0.348801 3.39111 0
M  V30 3042 H 289.708 1.3193 2.69322 0
M  V30 3043 H 287.261 0.721072 1.38673 0
M  V30 3044 H 287.996 -1.23444 2.99887 0
M  V30 3045 H 287.781 0.287945 3.91041 0
M  V30 3046 H 289.271 -0.679726 4.12031 0
M  V30 3047 N 289.708 -1.40897 0.706093 0
M  V30 3048 C 290.957 -2.00284 0.238574 0
M  V30 3049 C 291.27 -1.56604 -1.17194 0
M  V30 3050 O 292.476 -2.08624 -1.73748 0
M  V30 3051 C 290.932 -3.57934 0.375623 0
M  V30 3052 C 290.54 -4.10591 1.79217 0
M  V30 3053 C 292.284 -4.24488 -0.0315857 0
M  V30 3054 C 290.191 -5.60712 1.88032 0
M  V30 3055 H 289.121 -0.749144 0.0854398 0
M  V30 3056 H 291.772 -1.61251 0.875813 0
M  V30 3057 H 290.154 -3.94622 -0.330042 0
M  V30 3058 H 291.328 -3.85301 2.52745 0
M  V30 3059 H 289.643 -3.56601 2.15 0
M  V30 3060 H 292.24 -5.34698 0.0136842 0
M  V30 3061 H 292.583 -4.02261 -1.072 0
M  V30 3062 H 293.116 -3.92873 0.624181 0
M  V30 3063 H 289.855 -5.87781 2.90161 0
M  V30 3064 H 289.375 -5.87896 1.18903 0
M  V30 3065 H 291.054 -6.25658 1.64805 0
M  V30 3066 N 291.186 -0.45159 -1.50991 0
M  V30 3067 C 292.133 0.352625 -2.2809 0
M  V30 3068 C 293.103 1.0044 -1.32291 0
M  V30 3069 O 294.288 1.02058 -1.6121 0
M  V30 3070 C 291.428 1.43983 -3.13629 0
M  V30 3071 C 290.541 0.804772 -4.24438 0
M  V30 3072 C 289.676 1.86822 -4.97263 0
M  V30 3073 C 288.715 1.21236 -5.99973 0
M  V30 3074 N 287.852 2.2178 -6.66152 0
M  V30 3075 H 292.692 -0.311186 -2.96371 0
M  V30 3076 H 290.229 -0.165308 -1.46168 0
M  V30 3077 H 292.187 2.08161 -3.61559 0
M  V30 3078 H 290.817 2.07307 -2.47434 0
M  V30 3079 H 289.869 0.0509129 -3.80366 0
M  V30 3080 H 291.181 0.286076 -4.97979 0
M  V30 3081 H 290.335 2.58628 -5.48813 0
M  V30 3082 H 289.074 2.42068 -4.23385 0
M  V30 3083 H 288.079 0.479828 -5.47702 0
M  V30 3084 H 289.304 0.667051 -6.75816 0
M  V30 3085 H 287.25 2.76079 -5.95077 0
M  V30 3086 H 287.167 1.74841 -7.35504 0
M  V30 3087 H 288.435 2.93026 -7.22327 0
M  V30 3088 N 292.664 1.56529 -0.183458 0
M  V30 3089 C 293.612 2.19873 0.758845 0
M  V30 3090 C 294.606 1.16638 1.22849 0
M  V30 3091 O 295.812 1.3481 1.19274 0
M  V30 3092 H 292.187 0.7045 0.263029 0
M  V30 3093 H 294.158 2.97724 0.200755 0
M  V30 3094 C 292.907 2.86314 1.9728 0
M  V30 3095 H 292.23 3.65487 1.62047 0
M  V30 3096 H 293.67 3.3409 2.61075 0
M  V30 3097 C 292.129 1.86729 2.80418 0
M  V30 3098 O 292.659 1.36031 3.77966 0
M  V30 3099 N 290.865 1.55216 2.45675 0
M  V30 3100 H 290.412 1.96636 1.66409 0
M  V30 3101 H 290.37 0.888388 3.01588 0
M  V30 3102 N 294.142 -0.090211 1.57342 0
M  V30 3103 C 295.089 -1.10909 2.02405 0
M  V30 3104 C 296.059 -1.39523 0.901252 0
M  V30 3105 O 297.244 -1.50903 1.1676 0
M  V30 3106 C 294.384 -2.42277 2.45755 0
M  V30 3107 C 293.497 -2.20352 3.71576 0
M  V30 3108 C 292.632 -3.45154 4.03785 0
M  V30 3109 C 291.671 -3.18512 5.22701 0
M  V30 3110 N 290.808 -4.35593 5.50639 0
M  V30 3111 H 295.648 -0.71782 2.89225 0
M  V30 3112 H 293.185 -0.342901 1.43048 0
M  V30 3113 H 295.143 -3.18951 2.68935 0
M  V30 3114 H 293.773 -2.79242 1.61938 0
M  V30 3115 H 292.825 -1.34458 3.55844 0
M  V30 3116 H 294.137 -1.96661 4.58395 0
M  V30 3117 H 293.291 -4.30233 4.27767 0
M  V30 3118 H 292.03 -3.71904 3.15498 0
M  V30 3119 H 291.035 -2.31827 4.98534 0
M  V30 3120 H 292.26 -2.93103 6.12591 0
M  V30 3121 H 290.206 -4.6241 4.6531 0
M  V30 3122 H 290.123 -4.1511 6.31838 0
M  V30 3123 H 291.391 -5.21723 5.7916 0
M  V30 3124 N 295.62 -1.53406 -0.361157 0
M  V30 3125 C 296.552 -1.76446 -1.46286 0
M  V30 3126 C 297.565 -0.645322 -1.49464 0
M  V30 3127 O 298.754 -0.921681 -1.52864 0
M  V30 3128 C 295.854 -1.83332 -2.85031 0
M  V30 3129 C 295.027 -3.13033 -3.05498 0
M  V30 3130 C 294.086 -3.11104 -4.24383 0
M  V30 3131 O 293.112 -3.84888 -4.19344 0
M  V30 3132 N 294.314 -2.32234 -5.32022 0
M  V30 3133 H 297.079 -2.71508 -1.26899 0
M  V30 3134 H 294.64 -1.52238 -0.550915 0
M  V30 3135 H 296.632 -1.79514 -3.62708 0
M  V30 3136 H 295.202 -0.955342 -2.97644 0
M  V30 3137 H 294.422 -3.30119 -2.15442 0
M  V30 3138 H 295.71 -3.9874 -3.16044 0
M  V30 3139 H 295.108 -1.71807 -5.38979 0
M  V30 3140 H 293.665 -2.3423 -6.08259 0
M  V30 3141 N 297.098 0.621204 -1.44841 0
M  V30 3142 C 298.046 1.75385 -1.52784 0
M  V30 3143 C 299.04 1.64639 -0.398779 0
M  V30 3144 O 300.246 1.70598 -0.574137 0
M  V30 3145 H 296.621 0.579193 -0.479625 0
M  V30 3146 H 298.592 1.6581 -2.48092 0
M  V30 3147 C 297.341 3.13742 -1.4987 0
M  V30 3148 H 296.664 3.22663 -2.36069 0
M  V30 3149 H 298.104 3.92861 -1.59487 0
M  V30 3150 C 296.563 3.36175 -0.220973 0
M  V30 3151 O 297.093 3.95469 0.704782 0
M  V30 3152 N 295.299 2.90348 -0.120963 0
M  V30 3153 H 294.846 2.42278 -0.875162 0
M  V30 3154 H 294.804 3.05732 0.733168 0
M  V30 3155 N 298.576 1.31904 0.862503 0
M  V30 3156 C 299.853 1.12644 1.59908 0
M  V30 3157 C 300.233 -0.316104 2.0872 0
M  V30 3158 O 299.581 -1.31145 1.87118 0
M  V30 3159 C 299.791 2.1472 2.7513 0
M  V30 3160 C 301.139 2.47637 3.44907 0
M  V30 3161 O 302.163 2.13205 2.85346 0
M  V30 3162 O 301.022 3.06632 4.52371 0
M  V30 3163 H 298.116 0.43416 0.703871 0
M  V30 3164 H 300.662 1.43408 0.907314 0
M  V30 3165 H 299.434 3.1172 2.3653 0
M  V30 3166 H 299.057 1.84905 3.51989 0
M  V30 3167 N 300.054 -1.07777 1.14986 0
M  V30 3168 C 300.984 -2.16865 0.865557 0
M  V30 3169 C 301.965 -1.69123 -0.182083 0
M  V30 3170 O 303.15 -1.94164 -0.0373815 0
M  V30 3171 C 300.28 -3.45539 0.349313 0
M  V30 3172 C 299.234 -4.06708 1.33313 0
M  V30 3173 C 298.56 -5.30411 0.675918 0
M  V30 3174 C 299.86 -4.47241 2.69764 0
M  V30 3175 H 301.554 -2.40905 1.77778 0
M  V30 3176 H 299.1 -1.15781 0.856203 0
M  V30 3177 H 301.053 -4.21174 0.137983 0
M  V30 3178 H 299.777 -3.21072 -0.598362 0
M  V30 3179 H 298.436 -3.33112 1.53075 0
M  V30 3180 H 298.084 -5.02232 -0.277767 0
M  V30 3181 H 297.784 -5.72293 1.33244 0
M  V30 3182 H 299.308 -6.08755 0.474262 0
M  V30 3183 H 300.722 -5.14025 2.53873 0
M  V30 3184 H 299.119 -5.00062 3.3175 0
M  V30 3185 H 300.189 -3.58818 3.26156 0
M  V30 3186 N 301.532 -0.945985 -1.26051 0
M  V30 3187 C 302.464 -0.416662 -2.25381 0
M  V30 3188 C 303.477 0.462712 -1.56086 0
M  V30 3189 O 304.666 0.272383 -1.7641 0
M  V30 3190 C 301.766 0.419812 -3.3629 0
M  V30 3191 C 300.939 -0.444531 -4.35135 0
M  V30 3192 C 299.998 0.332305 -5.2515 0
M  V30 3193 O 299.024 -0.266324 -5.68577 0
M  V30 3194 N 300.226 1.62763 -5.57215 0
M  V30 3195 H 302.991 -1.27059 -2.71433 0
M  V30 3196 H 300.552 -0.815392 -1.39868 0
M  V30 3197 H 302.544 0.947013 -3.93464 0
M  V30 3198 H 301.114 1.17456 -2.89694 0
M  V30 3199 H 300.334 -1.15291 -3.76964 0
M  V30 3200 H 301.622 -1.03478 -4.98166 0
M  V30 3201 H 301.02 2.13603 -5.23823 0
M  V30 3202 H 299.577 2.10097 -6.17011 0
M  V30 3203 N 303.011 1.40521 -0.713556 0
M  V30 3204 C 303.974 2.29098 -0.0684347 0
M  V30 3205 C 304.974 1.45268 0.689472 0
M  V30 3206 O 306.164 1.66205 0.521677 0
M  V30 3207 C 303.296 3.28446 0.913024 0
M  V30 3208 H 304.489 2.87645 -0.84855 0
M  V30 3209 H 302.042 1.48809 -0.47809 0
M  V30 3210 H 302.777 2.74913 1.72027 0
M  V30 3211 H 302.562 3.90327 0.372472 0
M  V30 3212 H 304.052 3.94777 1.36165 0
M  V30 3213 N 304.489 0.459591 1.5075 0
M  V30 3214 C 305.422 -0.386257 2.24907 0
M  V30 3215 C 306.4 -1.006 1.27744 0
M  V30 3216 O 307.584 -1.04416 1.56938 0
M  V30 3217 C 304.711 -1.54021 3.01654 0
M  V30 3218 C 303.757 -1.03898 4.13651 0
M  V30 3219 S 304.59 0.0370501 5.35487 0
M  V30 3220 C 305.746 -1.12105 6.15779 0
M  V30 3221 H 305.979 0.243272 2.96303 0
M  V30 3222 H 303.512 0.244339 1.52454 0
M  V30 3223 H 305.47 -2.20163 3.46466 0
M  V30 3224 H 304.131 -2.14121 2.29806 0
M  V30 3225 H 303.324 -1.90254 4.66711 0
M  V30 3226 H 302.926 -0.45545 3.71216 0
M  V30 3227 H 305.218 -2.03501 6.46215 0
M  V30 3228 H 306.161 -0.62995 7.05292 0
M  V30 3229 H 306.569 -1.36967 5.47631 0
M  V30 3230 N 305.967 -1.56429 0.191757 0
M  V30 3231 C 306.917 -2.15548 -0.743184 0
M  V30 3232 C 307.901 -1.09531 -1.17863 0
M  V30 3233 O 309.093 -1.35602 -1.13759 0
M  V30 3234 C 306.222 -2.81577 -1.96391 0
M  V30 3235 C 305.308 -3.9478 -1.54951 0
M  V30 3236 N 305.699 -4.98677 -0.845876 0
M  V30 3237 C 303.997 -4.06319 -1.83905 0
M  V30 3238 C 304.698 -5.78183 -0.638724 0
M  V30 3239 N 303.674 -5.30495 -1.18643 0
M  V30 3240 H 307.476 -2.9324 -0.196839 0
M  V30 3241 H 304.99 -1.62398 -0.0081603 0
M  V30 3242 H 306.987 -3.22321 -2.64415 0
M  V30 3243 H 305.647 -2.05371 -2.51501 0
M  V30 3244 H 306.658 -5.15464 -0.501704 0
M  V30 3245 H 303.335 -3.41238 -2.40548 0
M  V30 3246 H 304.725 -6.71851 -0.0807929 0
M  V30 3247 N 307.445 0.0818655 -1.57387 0
M  V30 3248 C 308.395 1.10501 -1.99433 0
M  V30 3249 C 309.379 1.35041 -0.874798 0
M  V30 3250 O 310.571 1.35511 -1.13868 0
M  V30 3251 C 307.7 2.42159 -2.43339 0
M  V30 3252 C 306.786 2.20937 -3.62005 0
M  V30 3253 N 307.177 1.69616 -4.76512 0
M  V30 3254 C 305.475 2.51451 -3.68359 0
M  V30 3255 C 306.176 1.62973 -5.58404 0
M  V30 3256 N 305.152 2.08664 -5.01956 0
M  V30 3257 H 308.954 0.701373 -2.85408 0
M  V30 3258 H 306.468 0.289096 -1.59806 0
M  V30 3259 H 308.465 3.16208 -2.71695 0
M  V30 3260 H 307.125 2.83249 -1.58746 0
M  V30 3261 H 308.136 1.38624 -4.99003 0
M  V30 3262 H 304.813 2.95975 -2.94457 0
M  V30 3263 H 306.203 1.24233 -6.60315 0
M  V30 3264 N 308.923 1.53595 0.353017 0
M  V30 3265 C 309.87 1.80919 1.43308 0
M  V30 3266 C 310.84 0.654288 1.5267 0
M  V30 3267 O 312.025 0.897759 1.6836 0
M  V30 3268 C 309.165 2.01605 2.80089 0
M  V30 3269 C 308.278 3.29321 2.79593 0
M  V30 3270 C 307.413 3.40125 4.0803 0
M  V30 3271 C 306.452 4.61826 4.01725 0
M  V30 3272 N 305.589 4.69716 5.21834 0
M  V30 3273 H 310.429 2.73074 1.19308 0
M  V30 3274 H 307.966 1.35263 0.578131 0
M  V30 3275 H 309.924 2.11586 3.59565 0
M  V30 3276 H 308.554 1.12772 3.0246 0
M  V30 3277 H 307.606 3.28229 1.92276 0
M  V30 3278 H 308.918 4.18884 2.70809 0
M  V30 3279 H 308.072 3.49488 4.95927 0
M  V30 3280 H 306.811 2.48601 4.19582 0
M  V30 3281 H 305.816 4.52552 3.12213 0
M  V30 3282 H 307.041 5.54705 3.91764 0
M  V30 3283 H 304.987 3.81097 5.33948 0
M  V30 3284 H 304.904 5.53202 5.1527 0
M  V30 3285 H 306.172 4.83376 6.11529 0
M  V30 3286 N 310.401 -0.613514 1.45168 0
M  V30 3287 C 311.631 -1.39743 1.52169 0
M  V30 3288 C 312.039 -1.88596 0.151086 0
M  V30 3289 O 311.382 -1.6251 -0.856521 0
M  V30 3290 C 311.444 -2.64035 2.43979 0
M  V30 3291 C 311.108 -2.36861 3.90827 0
M  V30 3292 C 312.105 -1.97591 4.80889 0
M  V30 3293 C 309.79 -2.49956 4.35692 0
M  V30 3294 C 311.784 -1.71768 6.1382 0
M  V30 3295 C 309.471 -2.23747 5.68665 0
M  V30 3296 C 310.469 -1.84714 6.57548 0
M  V30 3297 O 310.157 -1.58809 7.88058 0
M  V30 3298 H 309.889 -0.434382 0.517966 0
M  V30 3299 H 312.443 -0.75587 1.90986 0
M  V30 3300 H 310.673 -3.3089 2.00122 0
M  V30 3301 H 312.362 -3.26069 2.41731 0
M  V30 3302 H 313.128 -1.87015 4.47493 0
M  V30 3303 H 309.007 -2.79305 3.66756 0
M  V30 3304 H 312.551 -1.41227 6.83155 0
M  V30 3305 H 308.448 -2.33938 6.01617 0
M  V30 3306 H 309.216 -1.7291 8.00028 0
M  V30 3307 N 311.879 -1.3236 -0.855495 0
M  V30 3308 C 313.125 -1.23054 -1.612 0
M  V30 3309 C 313.458 0.207404 -1.93089 0
M  V30 3310 O 312.733 1.14432 -1.57275 0
M  V30 3311 C 313.016 -2.08937 -2.93287 0
M  V30 3312 C 312.869 -3.61105 -2.68185 0
M  V30 3313 C 314.188 -1.94986 -3.94549 0
M  V30 3314 H 311.307 -0.448364 -0.584926 0
M  V30 3315 H 313.949 -1.62297 -0.987917 0
M  V30 3316 H 312.099 -1.75599 -3.46551 0
M  V30 3317 H 313.771 -4.04652 -2.21483 0
M  V30 3318 H 312.014 -3.83813 -2.02164 0
M  V30 3319 H 312.685 -4.16522 -3.62234 0
M  V30 3320 H 315.161 -2.24189 -3.5054 0
M  V30 3321 H 314.037 -2.57356 -4.84829 0
M  V30 3322 H 314.298 -0.917263 -4.3248 0
M  V30 3323 N 313.357 1.07166 -1.15556 0
M  V30 3324 C 314.768 1.6127 -0.940693 0
M  V30 3325 C 315.119 1.89251 0.517551 0
M  V30 3326 O 314.244 1.65937 1.38903 0
M  V30 3327 C 314.839 2.92993 -1.7012 0
M  V30 3328 C 313.398 3.43832 -1.53156 0
M  V30 3329 C 312.545 2.1786 -1.71558 0
M  V30 3330 H 315.496 0.90229 -1.30554 0
M  V30 3331 H 315.517 3.62007 -1.17181 0
M  V30 3332 H 315.029 2.72596 -2.76248 0
M  V30 3333 H 313.13 3.69307 -0.494294 0
M  V30 3334 H 313.243 4.19747 -2.30975 0
M  V30 3335 H 311.607 2.2765 -1.14225 0
M  V30 3336 H 312.39 1.99956 -2.79056 0
M  V30 3337 N 314.835 0.952656 1.25548 0
M  V30 3338 C 316.084 0.602053 1.92505 0
M  V30 3339 C 316.397 -0.864663 1.75451 0
M  V30 3340 O 317.603 -1.32514 2.36965 0
M  V30 3341 C 316.059 1.02607 3.44963 0
M  V30 3342 C 315.667 2.51519 3.70732 0
M  V30 3343 C 317.411 0.747905 4.1786 0
M  V30 3344 C 315.318 2.87732 5.16686 0
M  V30 3345 H 314.248 0.22146 0.720744 0
M  V30 3346 H 316.899 1.15684 1.42441 0
M  V30 3347 H 315.281 0.399712 3.93978 0
M  V30 3348 H 316.455 3.19157 3.32378 0
M  V30 3349 H 314.77 2.76786 3.11092 0
M  V30 3350 H 317.367 0.994647 5.25367 0
M  V30 3351 H 317.71 -0.315629 4.15102 0
M  V30 3352 H 318.243 1.33452 3.74747 0
M  V30 3353 H 314.982 3.93095 5.24554 0
M  V30 3354 H 314.502 2.24765 5.56094 0
M  V30 3355 H 316.181 2.76817 5.84792 0
M  V30 3356 N 316.313 -1.40141 0.720998 0
M  V30 3357 C 317.276 -2.29058 0.0805834 0
M  V30 3358 C 318.276 -1.45632 -0.681758 0
M  V30 3359 O 319.466 -1.6648 -0.512856 0
M  V30 3360 C 316.598 -3.28925 -0.895593 0
M  V30 3361 H 317.791 -2.87191 0.863793 0
M  V30 3362 H 315.344 -1.48553 0.485975 0
M  V30 3363 H 316.079 -2.75822 -1.70566 0
M  V30 3364 H 315.864 -3.90519 -0.351766 0
M  V30 3365 H 317.354 -3.95494 -1.34069 0
M  V30 3366 N 317.792 -0.46758 -1.50504 0
M  V30 3367 C 319.038 0.0887532 -2.02606 0
M  V30 3368 C 319.371 1.39686 -1.34913 0
M  V30 3369 O 318.646 1.88644 -0.473694 0
M  V30 3370 C 318.929 0.276206 -3.59039 0
M  V30 3371 C 318.782 -1.05267 -4.37309 0
M  V30 3372 C 320.101 1.03235 -4.27821 0
M  V30 3373 H 317.22 0.0307814 -0.736357 0
M  V30 3374 H 319.862 -0.612485 -1.79857 0
M  V30 3375 H 318.012 0.8735 -3.78553 0
M  V30 3376 H 319.684 -1.68628 -4.29374 0
M  V30 3377 H 317.927 -1.65015 -4.01189 0
M  V30 3378 H 318.598 -0.875197 -5.45018 0
M  V30 3379 H 321.074 0.526111 -4.12761 0
M  V30 3380 H 319.95 1.1323 -5.37094 0
M  V30 3381 H 320.211 2.06806 -3.90748 0
M  V30 3382 N 319.27 1.56325 -0.20005 0
M  V30 3383 C 320.217 2.1932 0.718833 0
M  V30 3384 C 321.187 1.14198 1.20615 0
M  V30 3385 O 322.372 1.42469 1.26914 0
M  V30 3386 C 319.512 2.86041 1.93066 0
M  V30 3387 C 318.625 4.05702 1.48425 0
M  V30 3388 C 317.76 4.60266 2.65196 0
M  V30 3389 C 316.799 5.72273 2.17185 0
M  V30 3390 N 315.936 6.21221 3.27152 0
M  V30 3391 H 320.776 2.97486 0.17489 0
M  V30 3392 H 318.313 1.46911 0.0745794 0
M  V30 3393 H 320.271 3.22897 2.64184 0
M  V30 3394 H 318.901 2.1043 2.44783 0
M  V30 3395 H 317.953 3.74475 0.668755 0
M  V30 3396 H 319.265 4.86699 1.09204 0
M  V30 3397 H 318.419 4.99453 3.4443 0
M  V30 3398 H 317.158 3.78386 3.07693 0
M  V30 3399 H 316.163 5.3261 1.36407 0
M  V30 3400 H 317.388 6.55974 1.75713 0
M  V30 3401 H 315.334 5.42263 3.69171 0
M  V30 3402 H 315.251 6.97284 2.92116 0
M  V30 3403 H 316.519 6.65063 4.06585 0
M  V30 3404 N 320.748 -0.0735177 1.57428 0
M  V30 3405 C 321.997 -0.771809 1.86349 0
M  V30 3406 C 322.31 -1.78828 0.792452 0
M  V30 3407 O 323.516 -2.53602 0.96945 0
M  V30 3408 C 321.972 -1.42358 3.30548 0
M  V30 3409 C 321.58 -0.445761 4.45777 0
M  V30 3410 C 323.324 -2.10434 3.6867 0
M  V30 3411 C 321.231 -1.10335 5.81016 0
M  V30 3412 H 320.161 -0.291999 0.695164 0
M  V30 3413 H 322.812 -0.0250749 1.83483 0
M  V30 3414 H 321.194 -2.21852 3.28021 0
M  V30 3415 H 322.368 0.319239 4.59693 0
M  V30 3416 H 320.683 0.130457 4.16196 0
M  V30 3417 H 323.28 -2.60405 4.67004 0
M  V30 3418 H 323.623 -2.90298 2.98383 0
M  V30 3419 H 324.156 -1.37773 3.7318 0
M  V30 3420 H 320.895 -0.345061 6.54591 0
M  V30 3421 H 320.415 -1.83925 5.70904 0
M  V30 3422 H 322.094 -1.62367 6.26295 0
M  V30 3423 N 322.226 -1.5378 -0.344866 0
M  V30 3424 C 323.189 -1.80981 -1.40637 0
M  V30 3425 C 324.189 -0.680816 -1.45676 0
M  V30 3426 O 325.379 -0.949095 -1.46075 0
M  V30 3427 C 322.511 -1.95063 -2.79577 0
M  V30 3428 H 323.704 -2.75803 -1.17783 0
M  V30 3429 H 321.257 -1.45173 -0.579181 0
M  V30 3430 H 321.992 -1.02379 -3.07716 0
M  V30 3431 H 321.777 -2.77198 -2.77315 0
M  V30 3432 H 323.267 -2.17629 -3.56409 0
M  V30 3433 N 323.704 0.605807 -1.45491 0
M  V30 3434 C 325.115 1.18777 -1.44045 0
M  V30 3435 C 325.466 1.95471 -0.169001 0
M  V30 3436 O 324.591 2.0374 0.729324 0
M  V30 3437 C 325.186 2.16064 -2.60963 0
M  V30 3438 C 323.745 2.69633 -2.62631 0
M  V30 3439 C 322.892 1.45072 -2.36325 0
M  V30 3440 H 325.843 0.395017 -1.53705 0
M  V30 3441 H 325.864 2.9913 -2.35163 0
M  V30 3442 H 325.376 1.60217 -3.53486 0
M  V30 3443 H 323.477 3.29414 -1.74119 0
M  V30 3444 H 323.59 3.13944 -3.61906 0
M  V30 3445 H 321.954 1.74089 -1.85917 0
M  V30 3446 H 322.737 0.910899 -3.30995 0
M  V30 3447 N 325.182 1.32811 0.848464 0
M  V30 3448 C 326.459 1.14334 1.58704 0
M  V30 3449 C 326.839 -0.293948 2.09043 0
M  V30 3450 O 326.187 -1.29153 1.88499 0
M  V30 3451 C 326.397 2.17626 2.72837 0
M  V30 3452 C 327.745 2.51282 3.42261 0
M  V30 3453 O 328.769 2.16219 2.83068 0
M  V30 3454 O 327.628 3.11413 4.49093 0
M  V30 3455 H 324.722 0.441601 0.699226 0
M  V30 3456 H 327.268 1.44362 0.892053 0
M  V30 3457 H 326.04 3.14211 2.3321 0
M  V30 3458 H 325.663 1.88628 3.50008 0
M  V30 3459 N 326.66 -1.06551 1.16123 0
M  V30 3460 C 327.59 -2.15935 0.88851 0
M  V30 3461 C 328.571 -1.69306 -0.164135 0
M  V30 3462 O 329.756 -1.94193 -0.0167857 0
M  V30 3463 C 326.886 -3.45149 0.385942 0
M  V30 3464 C 325.84 -4.05271 1.3762 0
M  V30 3465 C 325.166 -5.29664 0.732137 0
M  V30 3466 C 326.466 -4.44355 2.74493 0
M  V30 3467 H 328.16 -2.39006 1.80323 0
M  V30 3468 H 325.706 -1.14866 0.868435 0
M  V30 3469 H 327.659 -4.21004 0.182647 0
M  V30 3470 H 326.383 -3.21689 -0.564274 0
M  V30 3471 H 325.042 -3.3147 1.56599 0
M  V30 3472 H 324.69 -5.02499 -0.224483 0
M  V30 3473 H 324.39 -5.70848 1.39307 0
M  V30 3474 H 325.914 -6.08218 0.538802 0
M  V30 3475 H 327.328 -5.11303 2.59311 0
M  V30 3476 H 325.725 -4.96515 3.37035 0
M  V30 3477 H 326.795 -3.55339 3.29943 0
M  V30 3478 N 328.138 -0.959301 -1.25041 0
M  V30 3479 C 329.363 -0.633507 -1.97488 0
M  V30 3480 C 329.788 0.788555 -1.70773 0
M  V30 3481 O 329.146 1.53394 -0.966431 0
M  V30 3482 C 329.194 -0.904057 -3.49083 0
M  V30 3483 O 328.298 0.0147939 -4.12397 0
M  V30 3484 H 327.639 -0.240368 -0.618966 0
M  V30 3485 H 330.169 -1.28717 -1.59038 0
M  V30 3486 H 330.179 -0.832203 -3.99423 0
M  V30 3487 H 328.854 -1.94048 -3.67856 0
M  V30 3488 H 327.431 -0.109664 -3.72739 0
M  V30 3489 N 329.616 1.39756 -0.72842 0
M  V30 3490 C 330.526 2.34444 -0.0855374 0
M  V30 3491 C 331.542 1.57976 0.729356 0
M  V30 3492 O 332.718 1.90301 0.659346 0
M  V30 3493 C 329.783 3.36965 0.815798 0
M  V30 3494 C 328.844 4.29299 -0.0105996 0
M  V30 3495 C 328.077 5.26923 0.84781 0
M  V30 3496 O 328.3 5.30859 2.08673 0
M  V30 3497 O 327.234 6.01249 0.279969 0
M  V30 3498 H 331.06 2.91065 -0.866892 0
M  V30 3499 H 328.645 1.4117 -0.48902 0
M  V30 3500 H 330.527 3.99804 1.33171 0
M  V30 3501 H 329.202 2.82739 1.57608 0
M  V30 3502 H 328.109 3.69703 -0.571877 0
M  V30 3503 H 329.442 4.86712 -0.73295 0
M  V30 3504 N 331.094 0.475555 1.50254 0
M  V30 3505 C 332.004 -0.321501 2.32387 0
M  V30 3506 C 333.02 -0.991755 1.42969 0
M  V30 3507 O 334.196 -0.978747 1.76018 0
M  V30 3508 C 331.261 -1.38667 3.17762 0
M  V30 3509 C 330.322 -0.732538 4.23004 0
M  V30 3510 C 329.555 -1.74695 5.04299 0
M  V30 3511 O 329.778 -2.97399 4.86734 0
M  V30 3512 O 328.712 -1.31631 5.8733 0
M  V30 3513 H 332.538 0.350071 3.01676 0
M  V30 3514 H 330.123 0.237321 1.47503 0
M  V30 3515 H 332.005 -2.00354 3.70724 0
M  V30 3516 H 330.68 -2.04163 2.51196 0
M  V30 3517 H 329.587 -0.0765902 3.74022 0
M  V30 3518 H 330.92 -0.120452 4.92053 0
M  V30 3519 N 332.573 -1.56217 0.208337 0
M  V30 3520 C 333.483 -2.23316 -0.718836 0
M  V30 3521 C 334.499 -1.23648 -1.22422 0
M  V30 3522 O 335.675 -1.56423 -1.26861 0
M  V30 3523 C 332.74 -2.88968 -1.91568 0
M  V30 3524 C 331.801 -4.03943 -1.45357 0
M  V30 3525 C 331.034 -4.66455 -2.59337 0
M  V30 3526 O 331.257 -4.27919 -3.77149 0
M  V30 3527 O 330.191 -5.55686 -2.31293 0
M  V30 3528 H 334.017 -3.03182 -0.177315 0
M  V30 3529 H 331.602 -1.49384 -0.0215402 0
M  V30 3530 H 333.484 -3.30455 -2.61491 0
M  V30 3531 H 332.159 -2.12071 -2.44556 0
M  V30 3532 H 331.066 -3.67052 -0.722746 0
M  V30 3533 H 332.399 -4.82543 -0.970219 0
M  V30 3534 N 334.051 0.0651679 -1.57465 0
M  V30 3535 C 334.981 1.07693 -2.07182 0
M  V30 3536 C 335.962 1.39962 -0.966673 0
M  V30 3537 O 337.147 1.49475 -1.2398 0
M  V30 3538 C 334.277 2.3885 -2.52127 0
M  V30 3539 C 333.231 2.20917 -3.66579 0
M  V30 3540 C 332.557 3.57515 -3.97601 0
M  V30 3541 C 333.857 1.62493 -4.9638 0
M  V30 3542 H 335.551 0.663199 -2.91962 0
M  V30 3543 H 333.097 0.317569 -1.40455 0
M  V30 3544 H 335.05 3.09928 -2.85522 0
M  V30 3545 H 333.774 2.82215 -1.64384 0
M  V30 3546 H 332.433 1.52279 -3.33477 0
M  V30 3547 H 332.081 3.98463 -3.06979 0
M  V30 3548 H 331.781 3.46353 -4.74672 0
M  V30 3549 H 333.305 4.30013 -4.33499 0
M  V30 3550 H 334.719 2.23445 -5.27963 0
M  V30 3551 H 333.116 1.62009 -5.77818 0
M  V30 3552 H 334.186 0.587041 -4.81333 0
M  V30 3553 N 335.529 1.53961 0.336706 0
M  V30 3554 C 336.778 1.70751 1.07363 0
M  V30 3555 C 337.091 0.481061 1.89592 0
M  V30 3556 O 338.297 0.530046 2.66276 0
M  V30 3557 C 336.753 3.01965 1.95818 0
M  V30 3558 C 336.361 4.31971 1.18764 0
M  V30 3559 C 338.105 3.28121 2.69327 0
M  V30 3560 C 336.012 5.54255 2.06289 0
M  V30 3561 H 334.942 0.636292 0.404535 0
M  V30 3562 H 337.593 1.80459 0.332681 0
M  V30 3563 H 335.975 2.86132 2.7376 0
M  V30 3564 H 337.149 4.5853 0.456849 0
M  V30 3565 H 335.464 4.12481 0.569946 0
M  V30 3566 H 338.061 4.16673 3.35094 0
M  V30 3567 H 338.404 2.45426 3.36261 0
M  V30 3568 H 338.937 3.44762 1.98454 0
M  V30 3569 H 335.676 6.39513 1.43885 0
M  V30 3570 H 335.196 5.31935 2.77138 0
M  V30 3571 H 336.875 5.90159 2.65182 0
M  V30 3572 N 337.007 -0.598083 1.45811 0
M  V30 3573 C 337.939 -1.72231 1.51225 0
M  V30 3574 C 338.952 -1.57757 0.402059 0
M  V30 3575 O 340.141 -1.65464 0.669624 0
M  V30 3576 C 337.241 -3.10331 1.3619 0
M  V30 3577 C 336.414 -3.50955 2.61054 0
M  V30 3578 C 335.473 -4.68055 2.40439 0
M  V30 3579 O 334.499 -4.74691 3.14097 0
M  V30 3580 N 335.701 -5.61941 1.45612 0
M  V30 3581 H 338.466 -1.68046 2.48154 0
M  V30 3582 H 336.027 -0.783637 1.41671 0
M  V30 3583 H 338.019 -3.86439 1.20195 0
M  V30 3584 H 336.589 -3.0897 0.475015 0
M  V30 3585 H 335.809 -2.64711 2.92099 0
M  V30 3586 H 337.097 -3.74858 3.44034 0
M  V30 3587 H 336.495 -5.59301 0.848431 0
M  V30 3588 H 335.052 -6.37542 1.35585 0
M  V30 3589 N 338.485 -1.33259 -0.841409 0
M  V30 3590 C 339.731 -1.24757 -1.59886 0
M  V30 3591 C 340.064 0.186913 -1.93298 0
M  V30 3592 O 339.339 1.12757 -1.5848 0
M  V30 3593 C 339.622 -2.12036 -2.91055 0
M  V30 3594 C 339.475 -3.63929 -2.6434 0
M  V30 3595 C 340.794 -1.9916 -3.92458 0
M  V30 3596 H 337.913 -0.454542 -0.580138 0
M  V30 3597 H 340.555 -1.63335 -0.970647 0
M  V30 3598 H 338.705 -1.79265 -3.44669 0
M  V30 3599 H 340.377 -4.06978 -2.17178 0
M  V30 3600 H 338.62 -3.85935 -1.98082 0
M  V30 3601 H 339.291 -4.20341 -3.57796 0
M  V30 3602 H 341.767 -2.27895 -3.48143 0
M  V30 3603 H 340.643 -2.62484 -4.82072 0
M  V30 3604 H 340.904 -0.963082 -4.31482 0
M  V30 3605 N 339.963 1.05934 -1.16686 0
M  V30 3606 C 340.926 2.11669 -0.879144 0
M  V30 3607 C 341.926 1.60294 0.127445 0
M  V30 3608 O 343.116 1.7389 -0.103865 0
M  V30 3609 C 340.248 3.39438 -0.315425 0
M  V30 3610 H 341.441 2.38626 -1.81653 0
M  V30 3611 H 338.994 1.22058 -0.976299 0
M  V30 3612 H 339.729 3.18132 0.629468 0
M  V30 3613 H 339.514 3.78034 -1.04079 0
M  V30 3614 H 341.004 4.17391 -0.132189 0
M  V30 3615 N 341.441 0.965919 1.2453 0
M  V30 3616 C 342.718 0.543777 1.87889 0
M  V30 3617 C 343.098 -0.97909 1.87021 0
M  V30 3618 O 342.446 -1.84969 1.3416 0
M  V30 3619 C 342.656 1.13327 3.30088 0
M  V30 3620 C 344.004 1.21707 4.06783 0
M  V30 3621 O 345.028 1.08566 3.39252 0
M  V30 3622 O 343.887 1.42456 5.27606 0
M  V30 3623 H 340.981 0.181054 0.806938 0
M  V30 3624 H 343.527 1.06007 1.32516 0
M  V30 3625 H 342.299 2.17612 3.25209 0
M  V30 3626 H 341.922 0.600911 3.93033 0
M  V30 3627 N 342.919 -1.39368 0.735821 0
M  V30 3628 C 344.144 -2.05319 0.293052 0
M  V30 3629 C 344.569 -1.55115 -1.064 0
M  V30 3630 O 343.927 -0.695261 -1.67439 0
M  V30 3631 C 343.975 -3.59305 0.305323 0
M  V30 3632 O 343.079 -4.06299 -0.706761 0
M  V30 3633 H 342.42 -0.650529 0.13307 0
M  V30 3634 H 344.95 -1.78386 1.00197 0
M  V30 3635 H 344.96 -4.07724 0.149997 0
M  V30 3636 H 343.635 -3.95207 1.29553 0
M  V30 3637 H 342.212 -3.69292 -0.517504 0
M  V30 3638 N 344.397 -0.483516 -1.5 0
M  V30 3639 C 345.327 0.293829 -2.31644 0
M  V30 3640 C 346.308 0.978864 -1.39112 0
M  V30 3641 O 347.493 0.973644 -1.68029 0
M  V30 3642 C 344.623 1.36897 -3.19181 0
M  V30 3643 C 343.577 0.804833 -4.20365 0
M  V30 3644 C 342.903 1.9792 -4.96721 0
M  V30 3645 C 344.203 -0.192313 -5.21946 0
M  V30 3646 H 345.897 -0.387616 -2.9688 0
M  V30 3647 H 343.443 -0.187856 -1.42769 0
M  V30 3648 H 345.396 1.92037 -3.751 0
M  V30 3649 H 344.12 2.07936 -2.51853 0
M  V30 3650 H 342.779 0.275319 -3.65565 0
M  V30 3651 H 342.427 2.67686 -4.25856 0
M  V30 3652 H 342.127 1.60789 -5.65173 0
M  V30 3653 H 343.651 2.53526 -5.55479 0
M  V30 3654 H 345.065 0.270333 -5.72662 0
M  V30 3655 H 343.462 -0.478543 -5.98189 0
M  V30 3656 H 344.532 -1.11409 -4.71928 0
M  V30 3657 N 345.875 1.56104 -0.216619 0
M  V30 3658 C 347.121 1.98466 0.417033 0
M  V30 3659 C 347.454 1.10403 1.59765 0
M  V30 3660 O 346.729 0.160632 1.93836 0
M  V30 3661 C 347.012 3.49769 0.85637 0
M  V30 3662 C 346.865 4.48606 -0.327546 0
M  V30 3663 C 348.184 4.05339 1.7143 0
M  V30 3664 H 345.303 0.721551 0.150112 0
M  V30 3665 H 347.945 1.87423 -0.311864 0
M  V30 3666 H 346.095 3.5931 1.47745 0
M  V30 3667 H 347.767 4.5108 -0.965618 0
M  V30 3668 H 346.01 4.22682 -0.975805 0
M  V30 3669 H 346.681 5.51995 0.0227149 0
M  V30 3670 H 349.157 3.98712 1.19031 0
M  V30 3671 H 348.033 5.11533 1.99061 0
M  V30 3672 H 348.294 3.51918 2.67593 0
M  V30 3673 N 347.353 -0.0568162 1.57498 0
M  V30 3674 C 348.769 -0.411933 1.54192 0
M  V30 3675 C 348.969 -1.78287 0.938942 0
M  V30 3676 O 348.025 -2.46483 0.547919 0
M  V30 3677 C 349.338 -0.339244 2.9878 0
M  V30 3678 C 350.886 -0.418348 3.10192 0
M  V30 3679 C 351.361 -0.375407 4.56459 0
M  V30 3680 N 352.852 -0.435038 4.61153 0
M  V30 3681 C 353.587 -0.424265 5.71828 0
M  V30 3682 N 353.083 -0.367418 6.91825 0
M  V30 3683 N 354.876 -0.471938 5.60115 0
M  V30 3684 H 347.027 0.840684 1.95055 0
M  V30 3685 H 349.29 0.316987 0.893433 0
M  V30 3686 H 348.996 0.601742 3.46514 0
M  V30 3687 H 348.87 -1.14371 3.59443 0
M  V30 3688 H 351.257 -1.34976 2.62422 0
M  V30 3689 H 351.338 0.414962 2.52412 0
M  V30 3690 H 350.982 0.552219 5.04889 0
M  V30 3691 H 350.912 -1.22645 5.12119 0
M  V30 3692 H 353.403 -0.482612 3.74806 0
M  V30 3693 H 353.716 -0.363535 7.71944 0
M  V30 3694 H 352.061 -0.333879 6.94198 0
M  V30 3695 H 355.252 -0.514145 4.65268 0
M  V30 3696 H 355.425 -0.460073 6.46365 0
M  V30 3697 N 348.832 -1.54138 -0.328536 0
M  V30 3698 C 349.782 -1.79557 -1.4051 0
M  V30 3699 C 350.766 -0.651373 -1.47126 0
M  V30 3700 O 351.958 -0.911226 -1.51742 0
M  V30 3701 C 349.087 -2.02196 -2.77438 0
M  V30 3702 C 348.173 -3.22724 -2.75155 0
M  V30 3703 N 348.564 -4.43881 -2.42494 0
M  V30 3704 C 346.862 -3.24196 -3.06289 0
M  V30 3705 C 347.563 -5.25797 -2.48822 0
M  V30 3706 N 346.539 -4.62862 -2.8506 0
M  V30 3707 H 350.341 -2.70814 -1.1418 0
M  V30 3708 H 347.855 -1.53265 -0.536991 0
M  V30 3709 H 349.852 -2.18546 -3.55026 0
M  V30 3710 H 348.512 -1.12191 -3.04702 0
M  V30 3711 H 349.523 -4.70969 -2.15428 0
M  V30 3712 H 346.2 -2.44208 -3.38627 0
M  V30 3713 H 347.59 -6.32535 -2.26603 0
M  V30 3714 N 350.31 0.590341 -1.46126 0
M  V30 3715 C 351.258 1.72105 -1.5647 0
M  V30 3716 C 352.252 1.63756 -0.433612 0
M  V30 3717 O 353.458 1.69342 -0.610194 0
M  V30 3718 H 349.833 0.568889 -0.491802 0
M  V30 3719 H 351.804 1.6051 -2.51553 0
M  V30 3720 C 350.553 3.10493 -1.56491 0
M  V30 3721 H 349.876 3.17583 -2.4286 0
M  V30 3722 H 351.316 3.8939 -1.67785 0
M  V30 3723 C 349.775 3.3563 -0.292231 0
M  V30 3724 O 350.305 3.96875 0.620739 0
M  V30 3725 N 348.511 2.90026 -0.182523 0
M  V30 3726 H 348.058 2.40367 -0.926356 0
M  V30 3727 H 348.016 3.07218 0.668152 0
M  V30 3728 N 351.788 1.33704 0.83433 0
M  V30 3729 C 353.037 1.24763 1.58484 0
M  V30 3730 C 353.35 -0.183775 1.94735 0
M  V30 3731 O 354.556 -0.395234 2.68608 0
M  V30 3732 C 353.012 2.18638 2.85876 0
M  V30 3733 C 352.62 3.66974 2.56971 0
M  V30 3734 C 354.364 2.18581 3.63899 0
M  V30 3735 C 352.271 4.5275 3.80488 0
M  V30 3736 H 351.201 0.463425 0.594772 0
M  V30 3737 H 353.852 1.58797 0.919551 0
M  V30 3738 H 352.234 1.77542 3.5397 0
M  V30 3739 H 353.408 4.16538 1.9706 0
M  V30 3740 H 351.723 3.69366 1.92244 0
M  V30 3741 H 354.32 2.79894 4.55591 0
M  V30 3742 H 354.663 1.18207 3.99165 0
M  V30 3743 H 355.196 2.58062 3.02735 0
M  V30 3744 H 351.935 5.54017 3.5035 0
M  V30 3745 H 351.455 4.07927 4.39722 0
M  V30 3746 H 353.134 4.66784 4.4802 0
M  V30 3747 N 353.266 -1.05314 1.17247 0
M  V30 3748 C 354.543 -1.75184 0.87005 0
M  V30 3749 C 354.923 -2.01481 -0.629965 0
M  V30 3750 O 354.271 -1.64988 -1.58086 0
M  V30 3751 C 354.481 -3.04594 1.70363 0
M  V30 3752 C 355.829 -3.78567 1.92281 0
M  V30 3753 O 356.853 -3.14461 1.67311 0
M  V30 3754 O 355.712 -4.93755 2.3424 0
M  V30 3755 H 352.806 -0.761729 0.322021 0
M  V30 3756 H 355.352 -1.11493 1.27935 0
M  V30 3757 H 354.124 -2.81201 2.72106 0
M  V30 3758 H 353.747 -3.76022 1.29202 0
M  V30 3759 N 354.744 -0.972509 -1.24016 0
M  V30 3760 C 355.992 -0.635776 -1.91839 0
M  V30 3761 C 356.313 0.832312 -1.76345 0
M  V30 3762 O 355.583 1.5946 -1.13795 0
M  V30 3763 H 354.163 -0.232157 -0.710009 0
M  V30 3764 H 356.825 -1.23462 -1.50809 0
M  V30 3765 H 355.921 -0.880545 -2.99421 0
M  V30 3766 N 356.222 1.38976 -0.743202 0
M  V30 3767 C 357.468 2.0064 -0.295189 0
M  V30 3768 C 357.801 1.5885 1.11716 0
M  V30 3769 O 357.076 0.821181 1.76315 0
M  V30 3770 C 357.359 3.578 -0.406318 0
M  V30 3771 C 357.212 4.09586 -1.85903 0
M  V30 3772 C 358.531 4.39616 0.206439 0
M  V30 3773 H 355.65 0.728935 -0.108733 0
M  V30 3774 H 358.292 1.65067 -0.940897 0
M  V30 3775 H 356.442 3.88235 0.143419 0
M  V30 3776 H 358.114 3.89837 -2.46627 0
M  V30 3777 H 356.357 3.6284 -2.3776 0
M  V30 3778 H 357.028 5.18708 -1.888 0
M  V30 3779 H 359.504 4.15273 -0.262283 0
M  V30 3780 H 358.38 5.48812 0.0983819 0
M  V30 3781 H 358.641 4.22754 1.2935 0
M  V30 3782 N 357.7 0.491464 1.49741 0
M  V30 3783 C 358.949 -0.0582189 2.01616 0
M  V30 3784 C 359.262 -1.38927 1.3769 0
M  V30 3785 O 360.468 -2.02509 1.80838 0
M  V30 3786 C 358.924 -0.154235 3.59569 0
M  V30 3787 C 358.532 1.1696 4.32463 0
M  V30 3788 C 360.276 -0.65479 4.1942 0
M  V30 3789 C 358.183 1.03627 5.8225 0
M  V30 3790 H 357.113 -0.0255317 0.753568 0
M  V30 3791 H 359.764 0.629445 1.72367 0
M  V30 3792 H 358.146 -0.906138 3.85493 0
M  V30 3793 H 359.32 1.93405 4.18248 0
M  V30 3794 H 357.635 1.60285 3.84315 0
M  V30 3795 H 360.232 -0.771903 5.29099 0
M  V30 3796 H 360.575 -1.65127 3.8215 0
M  V30 3797 H 361.108 0.040304 3.9778 0
M  V30 3798 H 357.847 2.00672 6.24028 0
M  V30 3799 H 357.367 0.312546 5.98985 0
M  V30 3800 H 359.046 0.711114 6.4308 0
M  V30 3801 N 359.178 -1.55987 0.224894 0
M  V30 3802 C 360.141 -2.19178 -0.670348 0
M  V30 3803 C 361.141 -1.15461 -1.11917 0
M  V30 3804 O 362.331 -1.40675 -1.02743 0
M  V30 3805 C 359.463 -2.81777 -1.9187 0
M  V30 3806 H 360.656 -2.99662 -0.119364 0
M  V30 3807 H 358.209 -1.5628 -0.0247128 0
M  V30 3808 H 358.944 -2.05172 -2.51147 0
M  V30 3809 H 358.729 -3.57732 -1.60531 0
M  V30 3810 H 360.219 -3.30205 -2.55645 0
M  V30 3811 N 360.656 0.0484629 -1.57525 0
M  V30 3812 C 361.884 0.755421 -1.92616 0
M  V30 3813 C 362.299 1.69919 -0.822984 0
M  V30 3814 O 361.656 1.81378 0.202085 0
M  V30 3815 C 361.707 1.52915 -3.27566 0
M  V30 3816 O 361.428 0.62329 -4.33644 0
M  V30 3817 C 362.929 2.33502 -3.76818 0
M  V30 3818 H 360.149 0.213465 -0.63614 0
M  V30 3819 H 362.693 0.0117698 -2.04497 0
M  V30 3820 H 360.848 2.22486 -3.17142 0
M  V30 3821 H 361.262 1.16383 -5.11425 0
M  V30 3822 H 362.736 2.83214 -4.73808 0
M  V30 3823 H 363.213 3.14068 -3.07014 0
M  V30 3824 H 363.819 1.69043 -3.90262 0
M  V30 3825 N 362.134 1.5431 0.320358 0
M  V30 3826 C 363.082 1.84647 1.4145 0
M  V30 3827 C 364.076 0.718624 1.53402 0
M  V30 3828 O 365.282 0.902335 1.5575 0
M  V30 3829 H 361.657 0.585349 0.472091 0
M  V30 3830 H 363.628 2.7614 1.13089 0
M  V30 3831 C 362.377 2.09341 2.77617 0
M  V30 3832 H 361.7 2.9559 2.69196 0
M  V30 3833 H 363.14 2.3452 3.53237 0
M  V30 3834 C 361.599 0.885939 3.25043 0
M  V30 3835 O 362.129 0.0967891 4.01583 0
M  V30 3836 N 360.335 0.696682 2.82125 0
M  V30 3837 H 359.882 1.34006 2.2 0
M  V30 3838 H 359.84 -0.109712 3.14209 0
M  V30 3839 N 363.613 -0.582584 1.46437 0
M  V30 3840 C 364.841 -1.36682 1.55324 0
M  V30 3841 C 365.256 -1.87796 0.194409 0
M  V30 3842 O 364.613 -1.63623 -0.808318 0
M  V30 3843 C 364.664 -2.55426 2.55812 0
M  V30 3844 O 364.385 -2.0643 3.86417 0
M  V30 3845 C 365.886 -3.47976 2.74641 0
M  V30 3846 H 363.106 -0.417545 0.525259 0
M  V30 3847 H 365.65 -0.708219 1.91845 0
M  V30 3848 H 363.805 -3.17275 2.22295 0
M  V30 3849 H 364.219 -2.83762 4.41111 0
M  V30 3850 H 365.693 -4.27775 3.48874 0
M  V30 3851 H 366.17 -3.99919 1.81553 0
M  V30 3852 H 366.776 -2.91962 3.09255 0
M  V30 3853 N 365.091 -1.34144 -0.827227 0
M  V30 3854 C 366.319 -1.29325 -1.61501 0
M  V30 3855 C 366.734 0.13354 -1.88327 0
M  V30 3856 O 366.091 1.0793 -1.47164 0
M  V30 3857 C 366.142 -2.07746 -2.95844 0
M  V30 3858 O 365.863 -3.4486 -2.70191 0
M  V30 3859 C 367.364 -2.10273 -3.90256 0
M  V30 3860 H 364.584 -0.445069 -0.50215 0
M  V30 3861 H 367.128 -1.76693 -1.02955 0
M  V30 3862 H 365.283 -1.6403 -3.5096 0
M  V30 3863 H 365.697 -3.85345 -3.55822 0
M  V30 3864 H 367.171 -2.69575 -4.81698 0
M  V30 3865 H 367.648 -1.096 -4.25305 0
M  V30 3866 H 368.254 -2.54059 -3.41078 0
M  V30 3867 N 366.569 1.04691 -1.17803 0
M  V30 3868 C 367.499 2.14494 -0.92275 0
M  V30 3869 C 368.48 1.69546 0.137179 0
M  V30 3870 O 369.665 1.94195 -0.0141108 0
M  V30 3871 C 366.795 3.44491 -0.440803 0
M  V30 3872 C 365.749 4.03031 -1.4405 0
M  V30 3873 C 365.075 5.28432 -0.81631 0
M  V30 3874 C 366.375 4.39932 -2.81527 0
M  V30 3875 H 368.069 2.36107 -1.84103 0
M  V30 3876 H 365.615 1.1347 -0.886599 0
M  V30 3877 H 367.568 4.2066 -0.249602 0
M  V30 3878 H 366.292 3.22546 0.513025 0
M  V30 3879 H 364.951 3.28937 -1.61853 0
M  V30 3880 H 364.599 5.02792 0.144511 0
M  V30 3881 H 364.299 5.68559 -1.48371 0
M  V30 3882 H 365.823 6.07284 -0.635496 0
M  V30 3883 H 367.237 5.07113 -2.67412 0
M  V30 3884 H 365.634 4.9109 -3.44892 0
M  V30 3885 H 366.704 3.50045 -3.35554 0
M  V30 3886 N 368.047 0.979072 1.23499 0
M  V30 3887 C 369.324 0.563674 1.87302 0
M  V30 3888 C 369.704 -0.959199 1.88049 0
M  V30 3889 O 369.052 -1.83535 1.36114 0
M  V30 3890 C 369.262 1.16822 3.28867 0
M  V30 3891 C 370.61 1.26014 4.0547 0
M  V30 3892 O 371.634 1.12158 3.38082 0
M  V30 3893 O 370.493 1.48044 5.26066 0
M  V30 3894 H 367.587 0.189602 0.804972 0
M  V30 3895 H 370.133 1.07407 1.31384 0
M  V30 3896 H 368.905 2.21049 3.22883 0
M  V30 3897 H 368.528 0.642564 3.92373 0
M  V30 3898 N 369.525 -1.3858 0.750561 0
M  V30 3899 C 370.941 -1.53759 0.427824 0
M  V30 3900 C 371.141 -1.71401 -1.05943 0
M  V30 3901 O 370.197 -1.72331 -1.84549 0
M  V30 3902 C 371.51 -2.74642 1.22443 0
M  V30 3903 C 373.058 -2.88489 1.2142 0
M  V30 3904 C 373.533 -4.12329 1.9937 0
M  V30 3905 N 375.024 -4.194 1.96616 0
M  V30 3906 C 375.759 -5.14209 2.53727 0
M  V30 3907 N 375.255 -6.14709 3.19539 0
M  V30 3908 N 377.048 -5.06537 2.43673 0
M  V30 3909 H 369.199 -1.25377 1.71447 0
M  V30 3910 H 371.462 -0.608844 0.726645 0
M  V30 3911 H 371.168 -2.68 2.27747 0
M  V30 3912 H 371.042 -3.67745 0.839273 0
M  V30 3913 H 373.429 -2.94614 0.169232 0
M  V30 3914 H 373.51 -1.96406 1.63885 0
M  V30 3915 H 373.154 -4.06966 3.03877 0
M  V30 3916 H 373.084 -5.03486 1.54302 0
M  V30 3917 H 375.575 -3.47421 1.48684 0
M  V30 3918 H 375.888 -6.8354 3.60545 0
M  V30 3919 H 374.233 -6.1505 3.23633 0
M  V30 3920 H 377.424 -4.26962 1.91889 0
M  V30 3921 H 377.597 -5.80245 2.88479 0
M  V30 3922 N 371.003 -0.499398 -1.49478 0
M  V30 3923 C 372.228 0.044722 -2.07352 0
M  V30 3924 C 372.653 1.30207 -1.35749 0
M  V30 3925 O 372.011 1.76516 -0.413732 0
M  V30 3926 C 372.059 0.283013 -3.59488 0
M  V30 3927 O 371.163 1.35804 -3.89398 0
M  V30 3928 H 370.504 -0.0255147 -0.66351 0
M  V30 3929 H 373.034 -0.698561 -1.92305 0
M  V30 3930 H 373.044 0.515007 -4.04737 0
M  V30 3931 H 371.719 -0.635636 -4.11014 0
M  V30 3932 H 370.296 1.11113 -3.55961 0
M  V30 3933 N 372.481 1.55866 -0.233164 0
M  V30 3934 C 373.411 2.23783 0.666599 0
M  V30 3935 C 374.392 1.21343 1.19205 0
M  V30 3936 O 375.577 1.4996 1.23392 0
M  V30 3937 C 372.707 2.92671 1.86978 0
M  V30 3938 C 371.661 4.01682 1.47768 0
M  V30 3939 C 370.987 4.57926 2.76058 0
M  V30 3940 C 372.287 5.18126 0.658993 0
M  V30 3941 H 373.981 2.99232 0.100306 0
M  V30 3942 H 371.527 1.43924 0.046804 0
M  V30 3943 H 373.48 3.3888 2.50476 0
M  V30 3944 H 372.204 2.14688 2.46123 0
M  V30 3945 H 370.863 3.56222 0.866106 0
M  V30 3946 H 370.511 3.76659 3.33372 0
M  V30 3947 H 370.211 5.31505 2.50552 0
M  V30 3948 H 371.735 5.06859 3.40479 0
M  V30 3949 H 373.149 5.60644 1.19795 0
M  V30 3950 H 371.546 5.98009 0.500552 0
M  V30 3951 H 372.616 4.83763 -0.331856 0
M  V30 3952 N 373.959 -0.0401083 1.57549 0
M  V30 3953 C 375.205 -0.734211 1.89043 0
M  V30 3954 C 375.538 -1.75591 0.829535 0
M  V30 3955 O 374.813 -1.93868 -0.156706 0
M  V30 3956 C 375.096 -1.41374 3.31188 0
M  V30 3957 C 374.949 -0.406299 4.47961 0
M  V30 3958 C 376.268 -2.35061 3.72068 0
M  V30 3959 H 373.387 -0.265447 0.687537 0
M  V30 3960 H 376.029 0.00294087 1.9 0
M  V30 3961 H 374.179 -2.04206 3.30503 0
M  V30 3962 H 375.851 0.219255 4.60779 0
M  V30 3963 H 374.094 0.275485 4.32924 0
M  V30 3964 H 374.765 -0.920022 5.44279 0
M  V30 3965 H 377.241 -1.82282 3.74049 0
M  V30 3966 H 376.117 -2.79593 4.72355 0
M  V30 3967 H 376.378 -3.21258 3.0372 0
M  V30 3968 N 375.437 -1.54477 -0.31217 0
M  V30 3969 C 376.369 -1.81011 -1.40598 0
M  V30 3970 C 377.382 -0.692546 -1.47335 0
M  V30 3971 O 378.571 -0.969847 -1.49854 0
M  V30 3972 C 375.671 -1.92307 -2.79054 0
M  V30 3973 C 374.844 -3.22594 -2.95384 0
M  V30 3974 C 373.903 -3.24448 -4.1427 0
M  V30 3975 O 372.929 -3.98035 -4.06887 0
M  V30 3976 N 374.131 -2.49042 -5.24365 0
M  V30 3977 H 376.896 -2.75408 -1.18196 0
M  V30 3978 H 374.457 -1.53914 -0.502202 0
M  V30 3979 H 376.449 -1.90962 -3.56813 0
M  V30 3980 H 375.019 -1.04955 -2.94454 0
M  V30 3981 H 374.239 -3.36806 -2.04831 0
M  V30 3982 H 375.527 -4.08593 -3.03198 0
M  V30 3983 H 374.925 -1.88867 -5.33241 0
M  V30 3984 H 373.482 -2.53463 -6.005 0
M  V30 3985 N 376.915 0.57481 -1.46744 0
M  V30 3986 C 378.163 1.33009 -1.52161 0
M  V30 3987 C 378.484 1.94185 -0.178092 0
M  V30 3988 O 377.754 1.7899 0.796196 0
M  V30 3989 H 376.334 0.493873 -0.560445 0
M  V30 3990 H 378.996 0.672589 -1.82927 0
M  V30 3991 H 378.092 2.13273 -2.27862 0
M  V30 3992 N 378.394 1.34581 0.820102 0
M  V30 3993 C 379.327 1.20735 1.93644 0
M  V30 3994 C 380.305 0.0983343 1.62302 0
M  V30 3995 O 381.489 0.263997 1.86642 0
M  V30 3996 C 378.616 0.856037 3.27704 0
M  V30 3997 C 377.662 1.97521 3.78005 0
M  V30 3998 S 378.495 3.58906 3.97425 0
M  V30 3999 C 379.651 3.25822 5.34407 0
M  V30 4000 H 379.884 2.15231 2.05093 0
M  V30 4001 H 377.417 1.1964 0.97599 0
M  V30 4002 H 379.375 0.660133 4.05157 0
M  V30 4003 H 378.036 -0.0706253 3.14021 0
M  V30 4004 H 377.229 1.68321 4.75062 0
M  V30 4005 H 376.831 2.12875 3.07507 0
M  V30 4006 H 379.123 2.77812 6.17922 0
M  V30 4007 H 380.066 4.22029 5.68592 0
M  V30 4008 H 380.474 2.61932 5.00052 0
M  V30 4009 N 379.872 -1.04064 1.18357 0
M  V30 4010 C 380.819 -2.12077 0.910603 0
M  V30 4011 C 381.789 -1.65421 -0.15 0
M  V30 4012 O 382.974 -1.90797 -0.0103614 0
M  V30 4013 C 380.114 -3.42252 0.442472 0
M  V30 4014 C 379.227 -4.0252 1.5685 0
M  V30 4015 C 378.362 -5.20657 1.05309 0
M  V30 4016 C 377.401 -5.72955 2.1538 0
M  V30 4017 N 376.538 -6.8238 1.65233 0
M  V30 4018 H 381.378 -2.34764 1.83548 0
M  V30 4019 H 378.915 -1.15157 0.915279 0
M  V30 4020 H 380.873 -4.16921 0.152534 0
M  V30 4021 H 379.503 -3.19712 -0.445428 0
M  V30 4022 H 378.555 -3.25178 1.97391 0
M  V30 4023 H 379.867 -4.37362 2.39824 0
M  V30 4024 H 379.021 -6.0244 0.717677 0
M  V30 4025 H 377.76 -4.87318 0.19293 0
M  V30 4026 H 376.765 -4.89793 2.49766 0
M  V30 4027 H 377.99 -6.08337 3.01832 0
M  V30 4028 H 375.936 -6.50917 0.815064 0
M  V30 4029 H 375.853 -7.16286 2.41805 0
M  V30 4030 H 377.121 -7.67788 1.34619 0
M  V30 4031 N 381.35 -0.985608 -1.22978 0
M  V30 4032 C 382.298 -0.522631 -2.26652 0
M  V30 4033 C 383.292 0.422998 -1.64034 0
M  V30 4034 O 384.498 0.296319 -1.77544 0
M  V30 4035 H 380.873 -0.150597 -0.736766 0
M  V30 4036 H 382.844 -1.40863 -2.63059 0
M  V30 4037 C 381.593 0.154238 -3.47358 0
M  V30 4038 H 380.916 -0.564329 -3.95797 0
M  V30 4039 H 382.356 0.441744 -4.21693 0
M  V30 4040 C 380.815 1.38719 -3.07016 0
M  V30 4041 O 381.345 2.48307 -3.15764 0
M  V30 4042 N 379.551 1.25975 -2.61875 0
M  V30 4043 H 379.098 0.368068 -2.54957 0
M  V30 4044 H 379.056 2.08578 -2.3525 0
M  V30 4045 N 382.828 1.3818 -0.7579 0
M  V30 4046 C 384.068 2.01864 -0.320968 0
M  V30 4047 C 384.432 1.58863 1.07827 0
M  V30 4048 O 385.633 2.14908 1.61456 0
M  V30 4049 C 383.904 3.54626 -0.44446 0
M  V30 4050 S 385.463 4.38706 -0.0907467 0
M  V30 4051 H 382.281 0.700056 -0.124268 0
M  V30 4052 H 384.883 1.68611 -0.989468 0
M  V30 4053 H 383.587 3.83411 -1.4637 0
M  V30 4054 H 383.118 3.92661 0.241073 0
M  V30 4055 H 385.133 4.83435 1.11826 0
M  V30 4056 N 384.306 0.507319 1.49211 0
M  V30 4057 C 385.583 -0.0982702 1.95353 0
M  V30 4058 C 385.963 -1.53516 1.449 0
M  V30 4059 O 385.311 -2.18594 0.66551 0
M  V30 4060 C 385.521 -0.00440283 3.49 0
M  V30 4061 C 386.869 -0.175147 4.24239 0
M  V30 4062 O 387.893 -0.0792891 3.56112 0
M  V30 4063 O 386.752 -0.37276 5.45227 0
M  V30 4064 H 383.846 -0.0918236 0.821887 0
M  V30 4065 H 386.392 0.570307 1.5983 0
M  V30 4066 H 385.164 0.997402 3.78375 0
M  V30 4067 H 384.787 -0.712845 3.91158 0
M  V30 4068 N 385.784 -1.5574 0.241426 0
M  V30 4069 C 386.716 -2.18469 -0.693091 0
M  V30 4070 C 387.729 -1.15942 -1.14286 0
M  V30 4071 O 388.918 -1.42832 -1.07058 0
M  V30 4072 C 386.018 -2.7696 -1.95311 0
M  V30 4073 C 385.191 -4.04853 -1.65568 0
M  V30 4074 C 384.25 -4.47715 -2.76474 0
M  V30 4075 O 383.276 -5.14205 -2.44094 0
M  V30 4076 N 384.478 -4.15044 -4.05855 0
M  V30 4077 H 387.243 -2.99292 -0.156388 0
M  V30 4078 H 384.804 -1.61784 0.0611752 0
M  V30 4079 H 386.796 -3.02594 -2.68736 0
M  V30 4080 H 385.366 -2.00326 -2.39975 0
M  V30 4081 H 384.586 -3.86865 -0.756886 0
M  V30 4082 H 385.874 -4.88246 -1.43153 0
M  V30 4083 H 385.272 -3.61654 -4.34998 0
M  V30 4084 H 383.829 -4.45526 -4.75762 0
M  V30 4085 N 387.262 0.0317525 -1.57568 0
M  V30 4086 C 388.49 0.734949 -1.93407 0
M  V30 4087 C 388.905 1.69036 -0.84096 0
M  V30 4088 O 388.262 1.81582 0.182836 0
M  V30 4089 C 388.313 1.49432 -3.29169 0
M  V30 4090 O 388.034 0.577261 -4.3428 0
M  V30 4091 C 389.535 2.29492 -3.79273 0
M  V30 4092 H 386.755 0.206706 -0.638368 0
M  V30 4093 H 389.299 -0.00992046 -2.04498 0
M  V30 4094 H 387.454 2.1911 -3.19483 0
M  V30 4095 H 387.868 1.10952 -5.1263 0
M  V30 4096 H 389.342 2.78172 -4.76785 0
M  V30 4097 H 389.819 3.10794 -3.10328 0
M  V30 4098 H 390.425 1.64894 -3.92033 0
M  V30 4099 N 388.74 1.54641 0.303973 0
M  V30 4100 C 389.988 1.73437 1.0375 0
M  V30 4101 C 390.309 0.521449 1.87899 0
M  V30 4102 O 389.579 -0.46432 1.90318 0
M  V30 4103 H 388.159 0.639518 0.386039 0
M  V30 4104 H 390.821 1.91988 0.335675 0
M  V30 4105 H 389.917 2.62235 1.69231 0
M  V30 4106 N 390.218 -0.567019 1.47046 0
M  V30 4107 C 391.466 -1.322 1.52864 0
M  V30 4108 C 391.787 -1.94088 0.188388 0
M  V30 4109 O 391.057 -1.7941 -0.786693 0
M  V30 4110 H 389.637 -0.490894 0.563056 0
M  V30 4111 H 392.299 -0.662879 1.83281 0
M  V30 4112 H 391.395 -2.12062 2.2899 0
M  V30 4113 N 391.696 -1.35014 -0.812953 0
M  V30 4114 C 392.626 -1.30069 -1.93919 0
M  V30 4115 C 393.607 -0.176275 -1.69184 0
M  V30 4116 O 394.792 -0.370227 -1.90638 0
M  V30 4117 C 391.922 -1.06547 -3.30552 0
M  V30 4118 C 390.876 -2.15561 -3.69753 0
M  V30 4119 C 390.202 -1.77214 -5.04479 0
M  V30 4120 C 391.502 -3.57476 -3.808 0
M  V30 4121 H 393.196 -2.24303 -1.98314 0
M  V30 4122 H 390.742 -1.07977 -0.952736 0
M  V30 4123 H 392.695 -1.01729 -4.08937 0
M  V30 4124 H 391.419 -0.0875719 -3.26483 0
M  V30 4125 H 390.078 -2.19466 -2.9365 0
M  V30 4126 H 389.726 -0.780589 -4.96906 0
M  V30 4127 H 389.426 -2.50184 -5.31678 0
M  V30 4128 H 390.95 -1.7391 -5.8531 0
M  V30 4129 H 392.364 -3.55929 -4.4943 0
M  V30 4130 H 390.761 -4.29152 -4.19462 0
M  V30 4131 H 391.831 -3.94091 -2.82525 0
M  V30 4132 N 393.175 1.03435 -1.18907 0
M  V30 4133 C 394.4 1.80919 -1.01406 0
M  V30 4134 C 394.825 1.83055 0.432721 0
M  V30 4135 O 394.183 1.25252 1.31079 0
M  V30 4136 C 394.231 3.24091 -1.58105 0
M  V30 4137 O 393.335 4.04434 -0.806669 0
M  V30 4138 H 392.676 0.558709 -0.358803 0
M  V30 4139 H 395.206 1.30223 -1.57807 0
M  V30 4140 H 395.216 3.74853 -1.61087 0
M  V30 4141 H 393.891 3.21851 -2.6341 0
M  V30 4142 H 392.468 3.63091 -0.849666 0
M  V30 4143 N 394.653 0.992116 1.22453 0
M  V30 4144 C 395.901 0.666215 1.90804 0
M  V30 4145 C 396.222 -0.804152 1.77647 0
M  V30 4146 O 395.492 -1.57629 1.16318 0
M  V30 4147 H 394.072 0.243423 0.706225 0
M  V30 4148 H 396.734 1.25845 1.48825 0
M  V30 4149 H 395.83 0.928069 2.97982 0
M  V30 4150 N 396.131 -1.37776 0.765217 0
M  V30 4151 C 397.547 -1.53297 0.444108 0
M  V30 4152 C 397.747 -1.72515 -1.04119 0
M  V30 4153 O 396.803 -1.74278 -1.82711 0
M  V30 4154 C 398.116 -2.73328 1.25349 0
M  V30 4155 C 399.664 -2.87185 1.24473 0
M  V30 4156 C 400.139 -4.10191 2.03733 0
M  V30 4157 N 401.63 -4.17291 2.01053 0
M  V30 4158 C 402.365 -5.11488 2.59166 0
M  V30 4159 N 401.861 -6.11285 3.26041 0
M  V30 4160 N 403.654 -5.03924 2.49032 0
M  V30 4161 H 395.805 -1.23552 1.72768 0
M  V30 4162 H 398.068 -0.601103 0.733062 0
M  V30 4163 H 397.774 -2.6557 2.30577 0
M  V30 4164 H 397.648 -3.66834 0.87823 0
M  V30 4165 H 400.035 -2.94418 0.20047 0
M  V30 4166 H 400.116 -1.94657 1.65959 0
M  V30 4167 H 399.76 -4.0372 3.08176 0
M  V30 4168 H 399.69 -5.01821 1.59633 0
M  V30 4169 H 402.181 -3.45825 1.5236 0
M  V30 4170 H 402.494 -6.79678 3.67774 0
M  V30 4171 H 400.839 -6.11583 3.30138 0
M  V30 4172 H 404.03 -4.24902 1.96407 0
M  V30 4173 H 404.203 -5.77152 2.94617 0
M  V30 4174 N 397.609 -0.515225 -1.4894 0
M  V30 4175 C 399.02 -0.0710067 -1.86565 0
M  V30 4176 C 399.371 1.34733 -1.42623 0
M  V30 4177 O 398.496 2.00653 -0.810379 0
M  V30 4178 C 399.091 -0.122083 -3.3858 0
M  V30 4179 C 397.65 0.266863 -3.75453 0
M  V30 4180 C 396.797 -0.488376 -2.72966 0
M  V30 4181 H 399.748 -0.727266 -1.41055 0
M  V30 4182 H 399.769 0.669818 -3.74558 0
M  V30 4183 H 399.281 -1.15448 -3.70531 0
M  V30 4184 H 397.382 1.30196 -3.49113 0
M  V30 4185 H 397.495 -0.0624811 -4.79059 0
M  V30 4186 H 395.859 0.0635622 -2.54621 0
M  V30 4187 H 396.642 -1.52113 -3.07761 0
M  V30 4188 N 399.087 1.5561 -0.249682 0
M  V30 4189 C 400.017 2.24477 0.642826 0
M  V30 4190 C 400.998 1.22601 1.17911 0
M  V30 4191 O 402.183 1.5126 1.21795 0
M  V30 4192 C 399.313 2.94638 1.83863 0
M  V30 4193 C 398.267 4.03227 1.435 0
M  V30 4194 C 397.593 4.60828 2.71186 0
M  V30 4195 C 398.893 5.18796 0.604002 0
M  V30 4196 H 400.587 2.99321 0.0685625 0
M  V30 4197 H 398.133 1.43965 0.0315363 0
M  V30 4198 H 400.086 3.41517 2.46868 0
M  V30 4199 H 398.81 2.17287 2.43832 0
M  V30 4200 H 397.469 3.57121 0.828275 0
M  V30 4201 H 397.117 3.80174 3.29358 0
M  V30 4202 H 396.817 5.34132 2.44901 0
M  V30 4203 H 398.341 5.10442 3.35084 0
M  V30 4204 H 399.755 5.61883 1.13842 0
M  V30 4205 H 398.152 5.98506 0.437097 0
M  V30 4206 H 399.222 4.83384 -0.383147 0
M  V30 4207 N 400.565 -0.0233959 1.57583 0
M  V30 4208 C 401.497 -1.04994 2.03737 0
M  V30 4209 C 402.51 -1.32125 0.951152 0
M  V30 4210 O 403.699 -1.29512 1.22837 0
M  V30 4211 C 400.799 -2.39026 2.40249 0
M  V30 4212 C 399.972 -2.31171 3.7132 0
M  V30 4213 C 399.031 -3.47698 3.94959 0
M  V30 4214 O 398.057 -3.26937 4.65941 0
M  V30 4215 N 399.259 -4.6976 3.41037 0
M  V30 4216 H 402.024 -0.656507 2.92421 0
M  V30 4217 H 399.585 -0.211235 1.60516 0
M  V30 4218 H 401.577 -3.15712 2.53196 0
M  V30 4219 H 400.147 -2.70194 1.57207 0
M  V30 4220 H 399.367 -1.39547 3.68674 0
M  V30 4221 H 400.655 -2.23071 4.57293 0
M  V30 4222 H 400.053 -4.89528 2.83512 0
M  V30 4223 H 398.61 -5.43791 3.59353 0
M  V30 4224 N 402.043 -1.548 -0.295768 0
M  V30 4225 C 402.973 -1.89115 -1.36959 0
M  V30 4226 C 403.954 -0.75059 -1.52644 0
M  V30 4227 O 405.139 -1.00678 -1.66065 0
M  V30 4228 C 402.269 -2.14307 -2.73295 0
M  V30 4229 C 401.223 -3.30151 -2.72368 0
M  V30 4230 C 400.549 -3.40772 -4.12042 0
M  V30 4231 C 401.849 -4.67126 -2.33646 0
M  V30 4232 H 403.543 -2.79053 -1.08488 0
M  V30 4233 H 401.089 -1.34266 -0.520443 0
M  V30 4234 H 403.042 -2.36898 -3.48507 0
M  V30 4235 H 401.766 -1.21145 -3.03301 0
M  V30 4236 H 400.425 -3.0749 -1.99613 0
M  V30 4237 H 400.073 -2.45117 -4.39234 0
M  V30 4238 H 399.773 -4.18645 -4.12322 0
M  V30 4239 H 401.297 -3.6563 -4.89027 0
M  V30 4240 H 402.711 -4.89414 -2.98575 0
M  V30 4241 H 401.108 -5.47751 -2.45129 0
M  V30 4242 H 402.178 -4.67489 -1.28772 0
M  V30 4243 N 403.521 0.559213 -1.47345 0
M  V30 4244 C 404.468 1.66645 -1.59682 0
M  V30 4245 C 405.438 1.60168 -0.43994 0
M  V30 4246 O 406.623 1.79031 -0.659736 0
M  V30 4247 C 403.763 3.04969 -1.61518 0
M  V30 4248 C 402.876 3.21897 -2.88108 0
M  V30 4249 C 402.011 4.50608 -2.81294 0
M  V30 4250 C 401.05 4.60961 -4.02717 0
M  V30 4251 N 400.187 5.81024 -3.94151 0
M  V30 4252 H 405.027 1.55439 -2.54249 0
M  V30 4253 H 402.564 0.757219 -1.26113 0
M  V30 4254 H 404.522 3.85064 -1.60566 0
M  V30 4255 H 403.152 3.15015 -0.704645 0
M  V30 4256 H 402.204 2.35248 -2.98936 0
M  V30 4257 H 403.516 3.25412 -3.78032 0
M  V30 4258 H 402.67 5.3896 -2.7858 0
M  V30 4259 H 401.409 4.49568 -1.89049 0
M  V30 4260 H 400.414 3.71021 -4.05738 0
M  V30 4261 H 401.639 4.63761 -4.96087 0
M  V30 4262 H 399.585 5.80938 -3.04708 0
M  V30 4263 H 399.502 5.85909 -4.77752 0
M  V30 4264 H 400.77 6.71744 -3.9545 0
M  V30 4265 N 404.999 1.35443 0.805782 0
M  V30 4266 C 406.224 1.32037 1.59941 0
M  V30 4267 C 406.649 -0.0994215 1.87837 0
M  V30 4268 O 406.007 -1.06648 1.46615 0
M  V30 4269 C 406.055 2.13354 2.90711 0
M  V30 4270 O 405.159 1.5148 3.83572 0
M  V30 4271 H 404.5 0.452666 0.485787 0
M  V30 4272 H 407.03 1.78496 1.00002 0
M  V30 4273 H 407.04 2.25338 3.40128 0
M  V30 4274 H 405.715 3.16572 2.69732 0
M  V30 4275 H 404.292 1.4834 3.42125 0
M  V30 4276 N 406.477 -1.02803 1.19454 0
M  V30 4277 C 407.705 -1.79841 1.02297 0
M  V30 4278 C 408.12 -1.83879 -0.428259 0
M  V30 4279 O 407.477 -1.28345 -1.29745 0
M  V30 4280 C 407.528 -3.24852 1.58598 0
M  V30 4281 O 407.249 -3.21097 2.98041 0
M  V30 4282 C 408.75 -4.18485 1.46236 0
M  V30 4283 H 405.97 -0.565936 0.360496 0
M  V30 4284 H 408.514 -1.2948 1.58288 0
M  V30 4285 H 406.669 -3.72401 1.06753 0
M  V30 4286 H 407.083 -4.12033 3.24545 0
M  V30 4287 H 408.557 -5.18121 1.90407 0
M  V30 4288 H 409.034 -4.37254 0.41301 0
M  V30 4289 H 409.64 -3.76811 1.97215 0
M  V30 4290 N 407.956 -0.998596 -1.21925 0
M  V30 4291 C 408.866 -0.562736 -2.27751 0
M  V30 4292 C 409.882 0.391203 -1.69545 0
M  V30 4293 O 411.058 0.256625 -1.99758 0
M  V30 4294 C 408.123 0.11012 -3.46525 0
M  V30 4295 C 407.184 -0.887495 -4.20026 0
M  V30 4296 C 406.417 -0.246654 -5.3313 0
M  V30 4297 O 406.64 0.958088 -5.62296 0
M  V30 4298 O 405.574 -0.954374 -5.94286 0
M  V30 4299 H 409.4 -1.44329 -2.67213 0
M  V30 4300 H 406.985 -0.767135 -1.28201 0
M  V30 4301 H 408.867 0.486756 -4.18579 0
M  V30 4302 H 407.542 0.965154 -3.08976 0
M  V30 4303 H 406.449 -1.31517 -3.5022 0
M  V30 4304 H 407.782 -1.71191 -4.6147 0
M  V30 4305 N 409.434 1.37368 -0.772513 0
M  V30 4306 C 410.683 1.98918 -0.333861 0
M  V30 4307 C 410.996 1.62017 1.09589 0
M  V30 4308 O 412.202 2.16676 1.63596 0
M  V30 4309 C 410.658 3.55735 -0.545971 0
M  V30 4310 C 410.266 4.01573 -1.98603 0
M  V30 4311 C 412.01 4.24156 -0.170979 0
M  V30 4312 C 409.917 5.51102 -2.1457 0
M  V30 4313 H 408.847 0.744214 -0.121085 0
M  V30 4314 H 411.498 1.56888 -0.95175 0
M  V30 4315 H 409.88 3.95748 0.141387 0
M  V30 4316 H 411.054 3.72803 -2.7084 0
M  V30 4317 H 409.369 3.45937 -2.31769 0
M  V30 4318 H 411.966 5.34024 -0.26878 0
M  V30 4319 H 412.309 4.06917 0.878855 0
M  V30 4320 H 412.842 3.89447 -0.810914 0
M  V30 4321 H 409.581 5.73268 -3.17875 0
M  V30 4322 H 409.101 5.81554 -1.46817 0
M  V30 4323 H 410.78 6.17083 -1.94468 0
M  V30 4324 N 410.912 0.523116 1.48665 0
M  V30 4325 C 412.161 -0.01544 2.01694 0
M  V30 4326 C 412.474 -1.35975 1.40606 0
M  V30 4327 O 413.68 -1.98627 1.85093 0
M  V30 4328 C 412.136 -0.0779303 3.59816 0
M  V30 4329 C 411.744 1.26107 4.29885 0
M  V30 4330 C 413.488 -0.565678 4.20714 0
M  V30 4331 C 411.395 1.15954 5.79921 0
M  V30 4332 H 410.325 -0.00954163 0.75394 0
M  V30 4333 H 412.976 0.665865 1.70993 0
M  V30 4334 H 411.358 -0.824165 3.87329 0
M  V30 4335 H 412.532 2.02233 4.14051 0
M  V30 4336 H 410.847 1.68401 3.80828 0
M  V30 4337 H 413.444 -0.6595 5.30617 0
M  V30 4338 H 413.787 -1.56984 3.85567 0
M  V30 4339 H 414.32 0.12467 3.97605 0
M  V30 4340 H 411.059 2.13864 6.19631 0
M  V30 4341 H 410.579 0.439529 5.98187 0
M  V30 4342 H 412.258 0.847361 6.41427 0
M  V30 4343 N 412.39 -1.55475 0.257931 0
M  V30 4344 C 413.806 -1.59307 -0.0966563 0
M  V30 4345 C 414.006 -1.27514 -1.5602 0
M  V30 4346 O 413.062 -1.02774 -2.30637 0
M  V30 4347 C 414.375 -2.99552 0.262481 0
M  V30 4348 C 415.923 -3.1231 0.207683 0
M  V30 4349 C 416.398 -4.54793 0.541012 0
M  V30 4350 N 417.889 -4.6058 0.491921 0
M  V30 4351 C 418.624 -5.68825 0.722857 0
M  V30 4352 N 418.12 -6.85287 1.0175 0
M  V30 4353 N 419.913 -5.58296 0.652815 0
M  V30 4354 H 412.064 -1.74409 1.21224 0
M  V30 4355 H 414.327 -0.812424 0.48854 0
M  V30 4356 H 414.033 -3.27593 1.27967 0
M  V30 4357 H 413.907 -3.75019 -0.40508 0
M  V30 4358 H 416.294 -2.84044 -0.800195 0
M  V30 4359 H 416.375 -2.39095 0.909255 0
M  V30 4360 H 416.019 -4.83783 1.5465 0
M  V30 4361 H 415.949 -5.26285 -0.18216 0
M  V30 4362 H 418.44 -3.7691 0.273366 0
M  V30 4363 H 418.753 -7.63725 1.18084 0
M  V30 4364 H 417.098 -6.86945 1.05509 0
M  V30 4365 H 420.289 -4.66189 0.422592 0
M  V30 4366 H 420.462 -6.42582 0.836182 0
M  V30 4367 N 413.868 0.0150385 -1.57593 0
M  V30 4368 C 415.284 0.370907 -1.5523 0
M  V30 4369 C 415.484 1.75735 -0.985882 0
M  V30 4370 O 414.54 2.44944 -0.613077 0
M  V30 4371 C 415.853 0.259908 -2.99575 0
M  V30 4372 C 417.401 0.335959 -3.11192 0
M  V30 4373 C 417.876 0.254253 -4.57294 0
M  V30 4374 N 419.367 0.312618 -4.62144 0
M  V30 4375 C 420.102 0.272505 -5.72752 0
M  V30 4376 N 419.598 0.183864 -6.92556 0
M  V30 4377 N 421.391 0.323267 -5.6117 0
M  V30 4378 H 413.542 -0.892104 -1.92757 0
M  V30 4379 H 415.805 -0.340563 -0.884715 0
M  V30 4380 H 415.511 -0.693403 -3.44797 0
M  V30 4381 H 415.385 1.048 -3.62349 0
M  V30 4382 H 417.772 1.27971 -2.65909 0
M  V30 4383 H 417.853 -0.481739 -2.51223 0
M  V30 4384 H 417.497 -0.685887 -5.03247 0
M  V30 4385 H 417.427 1.09024 -5.15191 0
M  V30 4386 H 419.918 0.38307 -3.75953 0
M  V30 4387 H 420.231 0.15874 -7.72637 0
M  V30 4388 H 418.576 0.149708 -6.94839 0
M  V30 4389 H 421.767 0.390607 -4.66467 0
M  V30 4390 H 421.94 0.288539 -6.47357 0
M  V30 4391 N 415.346 1.54954 0.287554 0
M  V30 4392 C 416.276 1.89839 1.35954 0
M  V30 4393 C 417.257 0.758675 1.52244 0
M  V30 4394 O 418.442 1.01557 1.65529 0
M  V30 4395 C 415.572 2.15753 2.72154 0
M  V30 4396 C 414.526 3.3159 2.70614 0
M  V30 4397 C 413.852 3.42952 4.10229 0
M  V30 4398 C 415.152 4.68359 2.31165 0
M  V30 4399 H 416.846 2.79625 1.07007 0
M  V30 4400 H 414.392 1.3454 0.513316 0
M  V30 4401 H 416.345 2.38743 3.47246 0
M  V30 4402 H 415.069 1.22752 3.02654 0
M  V30 4403 H 413.728 3.08545 1.97979 0
M  V30 4404 H 413.376 2.47443 4.37928 0
M  V30 4405 H 413.076 4.20826 4.10097 0
M  V30 4406 H 414.6 3.68218 4.87081 0
M  V30 4407 H 416.014 4.9099 2.95976 0
M  V30 4408 H 414.411 5.49044 2.42221 0
M  V30 4409 H 415.481 4.68165 1.26291 0
M  V30 4410 N 416.824 -0.551391 1.4764 0
M  V30 4411 C 418.049 -1.33837 1.58437 0
M  V30 4412 C 418.474 -1.866 0.237063 0
M  V30 4413 O 417.832 -1.6328 -0.787994 0
M  V30 4414 C 417.88 -2.48014 2.61766 0
M  V30 4415 O 416.984 -3.50419 2.1744 0
M  V30 4416 H 416.325 -0.397299 0.532024 0
M  V30 4417 H 418.855 -0.665759 1.93465 0
M  V30 4418 H 418.865 -2.94503 2.82369 0
M  V30 4419 H 417.54 -2.08969 3.5959 0
M  V30 4420 H 416.117 -3.10196 2.06961 0
M  V30 4421 N 418.302 -1.35869 -0.798587 0
M  V30 4422 C 419.232 -1.32118 -1.92528 0
M  V30 4423 C 420.213 -0.194209 -1.68988 0
M  V30 4424 O 421.398 -0.390426 -1.90235 0
M  V30 4425 C 418.528 -1.10047 -3.29404 0
M  V30 4426 C 417.482 -2.19471 -3.67446 0
M  V30 4427 C 416.808 -1.82555 -5.02571 0
M  V30 4428 C 418.108 -3.61495 -3.76987 0
M  V30 4429 H 419.802 -2.26394 -1.95924 0
M  V30 4430 H 417.348 -1.08981 -0.94123 0
M  V30 4431 H 419.301 -1.06061 -4.07835 0
M  V30 4432 H 418.025 -0.122195 -3.26371 0
M  V30 4433 H 416.684 -2.22568 -2.91306 0
M  V30 4434 H 416.332 -0.833249 -4.9605 0
M  V30 4435 H 416.032 -2.5581 -5.28995 0
M  V30 4436 H 417.556 -1.80108 -5.83432 0
M  V30 4437 H 418.97 -3.60676 -4.4563 0
M  V30 4438 H 417.367 -4.33577 -4.14887 0
M  V30 4439 H 418.437 -3.97065 -2.78329 0
M  V30 4440 N 419.78 1.02168 -1.19998 0
M  V30 4441 C 420.69 2.14069 -0.959774 0
M  V30 4442 C 421.706 1.73804 0.082655 0
M  V30 4443 O 422.882 2.01133 -0.103633 0
M  V30 4444 C 419.947 3.42936 -0.509459 0
M  V30 4445 C 419.008 3.97474 -1.62213 0
M  V30 4446 C 418.241 5.2019 -1.19321 0
M  V30 4447 O 418.464 5.70369 -0.0597726 0
M  V30 4448 O 417.398 5.67749 -1.99863 0
M  V30 4449 H 421.224 2.37199 -1.89658 0
M  V30 4450 H 418.809 1.12469 -0.983411 0
M  V30 4451 H 420.691 4.20551 -0.267322 0
M  V30 4452 H 419.366 3.21234 0.398821 0
M  V30 4453 H 418.273 3.21161 -1.9185 0
M  V30 4454 H 419.606 4.23555 -2.50723 0
M  V30 4455 N 421.258 1.00505 1.21394 0
M  V30 4456 C 422.188 0.585684 2.26035 0
M  V30 4457 C 423.169 -0.393525 1.65485 0
M  V30 4458 O 424.354 -0.281497 1.92149 0
M  V30 4459 C 421.484 -0.0884283 3.47187 0
M  V30 4460 C 420.438 0.810567 4.20254 0
M  V30 4461 C 419.764 0.00286382 5.347 0
M  V30 4462 C 421.064 2.1132 4.77641 0
M  V30 4463 H 422.758 1.46039 2.61368 0
M  V30 4464 H 420.304 0.703648 1.25638 0
M  V30 4465 H 422.257 -0.393286 4.19561 0
M  V30 4466 H 420.981 -0.997766 3.10986 0
M  V30 4467 H 419.64 1.09925 3.49731 0
M  V30 4468 H 419.288 -0.907765 4.94741 0
M  V30 4469 H 418.988 0.601444 5.84514 0
M  V30 4470 H 420.512 -0.295808 6.09883 0
M  V30 4471 H 421.926 1.87148 5.41893 0
M  V30 4472 H 420.323 2.66164 5.37845 0
M  V30 4473 H 421.393 2.78393 3.9702 0
M  V30 4474 N 422.737 -1.36956 0.779787 0
M  V30 4475 C 423.685 -2.32053 0.15942 0
M  V30 4476 C 424.679 -1.55333 -0.675878 0
M  V30 4477 O 425.885 -1.70668 -0.57204 0
M  V30 4478 H 422.26 -0.751286 0.0327707 0
M  V30 4479 H 424.231 -2.8195 0.977078 0
M  V30 4480 C 422.98 -3.40602 -0.698977 0
M  V30 4481 H 422.303 -3.99746 -0.0655966 0
M  V30 4482 H 423.743 -4.09486 -1.09989 0
M  V30 4483 C 422.202 -2.81359 -1.85307 0
M  V30 4484 O 422.732 -2.72751 -2.94906 0
M  V30 4485 N 420.938 -2.38786 -1.65619 0
M  V30 4486 H 420.485 -2.45987 -0.764725 0
M  V30 4487 H 420.443 -1.99493 -2.43002 0
M  V30 4488 N 424.215 -0.530993 -1.48385 0
M  V30 4489 C 425.463 0.00273189 -2.021 0
M  V30 4490 C 425.784 1.34672 -1.41027 0
M  V30 4491 O 425.054 1.8724 -0.576012 0
M  V30 4492 H 423.634 0.00399774 -0.746989 0
M  V30 4493 H 426.296 -0.695054 -1.82085 0
M  V30 4494 H 425.392 0.11031 -3.11905 0
M  V30 4495 N 425.693 1.55336 -0.266172 0
M  V30 4496 C 427.109 1.59356 0.0882065 0
M  V30 4497 C 427.309 1.2834 1.55342 0
M  V30 4498 O 426.365 1.03996 2.30089 0
M  V30 4499 C 427.678 2.99409 -0.278364 0
M  V30 4500 C 429.226 3.12196 -0.224243 0
M  V30 4501 C 429.701 4.545 -0.565123 0
M  V30 4502 N 431.192 4.60313 -0.51634 0
M  V30 4503 C 431.927 5.68434 -0.753013 0
M  V30 4504 N 431.423 6.84738 -1.05383 0
M  V30 4505 N 433.216 5.57942 -0.682414 0
M  V30 4506 H 425.367 1.73764 -1.22147 0
M  V30 4507 H 427.63 0.809822 -0.492841 0
M  V30 4508 H 427.336 3.2691 -1.29703 0
M  V30 4509 H 427.21 3.75228 0.385186 0
M  V30 4510 H 429.597 2.84464 0.78512 0
M  V30 4511 H 429.678 2.38609 -0.921922 0
M  V30 4512 H 429.322 4.82956 -1.57213 0
M  V30 4513 H 429.252 5.26374 0.154248 0
M  V30 4514 H 431.743 3.7676 -0.29335 0
M  V30 4515 H 432.056 7.63088 -1.22133 0
M  V30 4516 H 430.401 6.86375 -1.09151 0
M  V30 4517 H 433.592 4.65958 -0.44731 0
M  V30 4518 H 433.765 6.4213 -0.870248 0
M  V30 4519 N 427.171 -0.0066808 1.57599 0
M  V30 4520 C 428.101 -0.999296 2.11036 0
M  V30 4521 C 429.082 -1.36278 1.01795 0
M  V30 4522 O 430.267 -1.4477 1.29442 0
M  V30 4523 C 427.397 -2.29328 2.60818 0
M  V30 4524 C 426.351 -2.07159 3.74525 0
M  V30 4525 C 425.677 -3.42512 4.10596 0
M  V30 4526 C 426.977 -1.43959 5.02069 0
M  V30 4527 H 428.671 -0.554382 2.94223 0
M  V30 4528 H 426.217 -0.265221 1.41536 0
M  V30 4529 H 428.17 -2.99117 2.96828 0
M  V30 4530 H 426.894 -2.7592 1.74745 0
M  V30 4531 H 425.553 -1.39797 3.38899 0
M  V30 4532 H 425.201 -3.86795 3.21556 0
M  V30 4533 H 424.901 -3.28498 4.87199 0
M  V30 4534 H 426.425 -4.13628 4.4916 0
M  V30 4535 H 427.839 -2.03696 5.35893 0
M  V30 4536 H 426.236 -1.40452 5.83432 0
M  V30 4537 H 427.306 -0.407992 4.83181 0
M  V30 4538 N 428.649 -1.55105 -0.279332 0
M  V30 4539 C 430.06 -1.66186 -0.850832 0
M  V30 4540 C 430.411 -0.584707 -1.87285 0
M  V30 4541 O 429.536 0.274919 -2.14647 0
M  V30 4542 C 430.131 -3.01264 -1.55001 0
M  V30 4543 C 428.69 -3.14394 -2.06963 0
M  V30 4544 C 427.837 -2.61959 -0.909536 0
M  V30 4545 H 430.788 -1.58602 -0.0558235 0
M  V30 4546 H 430.809 -2.93899 -2.41669 0
M  V30 4547 H 430.321 -3.7964 -0.805931 0
M  V30 4548 H 428.422 -2.4078 -2.84352 0
M  V30 4549 H 428.535 -4.20867 -2.28928 0
M  V30 4550 H 426.899 -2.18957 -1.30116 0
M  V30 4551 H 427.682 -3.42833 -0.179062 0
M  V30 4552 N 430.127 0.543554 -1.4793 0
M  V30 4553 C 431.376 1.29649 -1.54512 0
M  V30 4554 C 431.689 1.94382 -0.217973 0
M  V30 4555 O 432.895 2.71017 -0.161908 0
M  V30 4556 C 431.351 2.35175 -2.72435 0
M  V30 4557 C 430.959 1.76572 -4.11736 0
M  V30 4558 C 432.703 3.11564 -2.8832 0
M  V30 4559 C 430.61 2.79958 -5.20939 0
M  V30 4560 H 429.54 0.487541 -0.57517 0
M  V30 4561 H 432.191 0.575708 -1.74235 0
M  V30 4562 H 430.573 3.10229 -2.46118 0
M  V30 4563 H 431.747 1.07799 -4.48013 0
M  V30 4564 H 430.062 1.12722 -4.00852 0
M  V30 4565 H 432.659 3.88794 -3.67074 0
M  V30 4566 H 433.002 3.66594 -1.97268 0
M  V30 4567 H 433.535 2.43623 -3.14472 0
M  V30 4568 H 430.274 2.29766 -6.13912 0
M  V30 4569 H 429.794 3.47101 -4.89164 0
M  V30 4570 H 431.473 3.43198 -5.48474 0
M  V30 4571 N 431.605 1.3629 0.791371 0
M  V30 4572 C 432.854 1.29742 1.54434 0
M  V30 4573 C 433.167 -0.121729 1.95221 0
M  V30 4574 O 434.373 -0.309579 2.69729 0
M  V30 4575 C 432.829 2.27623 2.78776 0
M  V30 4576 C 432.437 3.74963 2.45166 0
M  V30 4577 C 434.181 2.30047 3.56761 0
M  V30 4578 C 432.088 4.64626 3.65891 0
M  V30 4579 H 431.018 0.482113 0.579727 0
M  V30 4580 H 433.669 1.61642 0.868565 0
M  V30 4581 H 432.051 1.88714 3.48142 0
M  V30 4582 H 433.225 4.22596 1.83709 0
M  V30 4583 H 431.54 3.75295 1.80396 0
M  V30 4584 H 434.137 2.94247 4.46456 0
M  V30 4585 H 434.48 1.30846 3.95203 0
M  V30 4586 H 435.013 2.67563 2.94372 0
M  V30 4587 H 431.752 5.64883 3.32547 0
M  V30 4588 H 431.272 4.2171 4.26521 0
M  V30 4589 H 432.951 4.80801 4.32943 0
M  V30 4590 N 433.083 -1.0153 1.20538 0
M  V30 4591 C 434.331 -1.74803 1.01432 0
M  V30 4592 C 434.652 -1.8963 -0.454456 0
M  V30 4593 O 433.922 -1.43975 -1.32846 0
M  V30 4594 H 432.502 -0.647598 0.372324 0
M  V30 4595 H 435.164 -1.22402 1.5167 0
M  V30 4596 H 434.26 -2.75114 1.47373 0
M  V30 4597 N 434.561 -1.01147 -1.20859 0
M  V30 4598 C 435.807 -0.698899 -1.90377 0
M  V30 4599 C 436.14 0.76904 -1.78324 0
M  V30 4600 O 435.415 1.55817 -1.16409 0
M  V30 4601 C 435.698 -1.12878 -3.41951 0
M  V30 4602 C 435.551 -2.65665 -3.62963 0
M  V30 4603 C 436.87 -0.696114 -4.3456 0
M  V30 4604 H 433.989 -0.255372 -0.691342 0
M  V30 4605 H 436.631 -1.25831 -1.42361 0
M  V30 4606 H 434.781 -0.652827 -3.82976 0
M  V30 4607 H 436.453 -3.21074 -3.31224 0
M  V30 4608 H 434.696 -3.06878 -3.06608 0
M  V30 4609 H 435.367 -2.90797 -4.69192 0
M  V30 4610 H 437.843 -1.10521 -4.01154 0
M  V30 4611 H 436.719 -1.025 -5.39245 0
M  V30 4612 H 436.98 0.402465 -4.40264 0
M  V30 4613 N 436.039 1.36541 -0.78704 0
M  V30 4614 C 437.287 1.98911 -0.357633 0
M  V30 4615 C 437.608 1.62778 1.07371 0
M  V30 4616 O 436.878 0.900612 1.73971 0
M  V30 4617 H 435.458 0.735734 -0.129246 0
M  V30 4618 H 438.12 1.66776 -1.00855 0
M  V30 4619 H 437.216 3.08874 -0.447549 0
M  V30 4620 N 437.518 0.538854 1.48102 0
M  V30 4621 C 438.766 0.00798599 2.02098 0
M  V30 4622 C 439.087 -1.33922 1.41739 0
M  V30 4623 O 438.357 -1.86932 0.585934 0
M  V30 4624 H 436.937 -3.62179e-05 0.747 0
M  V30 4625 H 439.599 0.7047 1.81714 0
M  V30 4626 H 438.695 -0.0937672 3.11959 0
M  V30 4627 N 438.996 -1.55193 0.274407 0
M  V30 4628 C 440.245 -1.98758 -0.343213 0
M  V30 4629 C 440.558 -1.16624 -1.5703 0
M  V30 4630 O 441.764 -1.5033 -2.26082 0
M  V30 4631 C 440.22 -3.53759 -0.661996 0
M  V30 4632 C 439.828 -4.4467 0.54524 0
M  V30 4633 C 441.572 -4.05916 -1.24228 0
M  V30 4634 C 439.479 -5.91058 0.201084 0
M  V30 4635 H 438.409 -0.742353 -0.132014 0
M  V30 4636 H 441.06 -1.79545 0.378948 0
M  V30 4637 H 439.442 -3.68772 -1.44304 0
M  V30 4638 H 440.616 -4.41426 1.32212 0
M  V30 4639 H 438.931 -4.03143 1.04232 0
M  V30 4640 H 441.528 -5.12831 -1.51357 0
M  V30 4641 H 441.871 -3.54908 -2.17592 0
M  V30 4642 H 442.404 -3.9434 -0.523542 0
M  V30 4643 H 439.143 -6.46161 1.10258 0
M  V30 4644 H 438.663 -5.97373 -0.539045 0
M  V30 4645 H 440.342 -6.46669 -0.206954 0
M  V30 4646 N 440.474 -0.00167713 -1.576 0
M  V30 4647 C 441.751 0.719951 -1.81868 0
M  V30 4648 C 442.131 1.91895 -0.879747 0
M  V30 4649 O 441.479 2.28389 0.0711423 0
M  V30 4650 C 441.689 1.12409 -3.30402 0
M  V30 4651 C 443.037 1.52724 -3.96182 0
M  V30 4652 O 444.061 1.21784 -3.34734 0
M  V30 4653 O 442.92 2.10265 -5.04431 0
M  V30 4654 H 440.014 0.350707 -0.748955 0
M  V30 4655 H 442.56 -0.0272597 -1.69678 0
M  V30 4656 H 441.332 0.269532 -3.90371 0
M  V30 4657 H 440.955 1.93035 -3.47596 0
M  V30 4658 N 441.952 1.55251 0.271103 0
M  V30 4659 C 443.177 1.80306 1.02491 0
M  V30 4660 C 443.602 0.575457 1.79081 0
M  V30 4661 O 442.96 -0.474987 1.74967 0
M  V30 4662 C 443.008 3.02832 1.95768 0
M  V30 4663 O 442.112 2.78051 3.04568 0
M  V30 4664 H 441.453 0.595896 0.292923 0
M  V30 4665 H 443.983 2.02397 0.299436 0
M  V30 4666 H 443.993 3.31616 2.37686 0
M  V30 4667 H 442.668 3.9183 1.39434 0
M  V30 4668 H 441.245 2.60369 2.66951 0
M  V30 4669 N 443.43 -0.535701 1.48216 0
M  V30 4670 C 444.676 -1.29375 1.56173 0
M  V30 4671 C 445.009 -1.92804 0.232429 0
M  V30 4672 O 444.284 -1.78992 -0.761048 0
M  V30 4673 C 444.567 -2.38747 2.69577 0
M  V30 4674 C 444.42 -1.80046 4.12193 0
M  V30 4675 C 445.739 -3.40551 2.78771 0
M  V30 4676 H 442.858 -0.469027 0.568491 0
M  V30 4677 H 445.5 -0.597358 1.80365 0
M  V30 4678 H 443.65 -2.98147 2.4908 0
M  V30 4679 H 445.322 -1.24742 4.44114 0
M  V30 4680 H 443.565 -1.10609 4.19462 0
M  V30 4681 H 444.236 -2.59212 4.87353 0
M  V30 4682 H 446.712 -2.91099 2.97322 0
M  V30 4683 H 445.588 -4.1448 3.59857 0
M  V30 4684 H 445.849 -4.00746 1.86696 0
M  V30 4685 N 444.908 -1.36708 -0.784132 0
M  V30 4686 C 446.157 -1.30559 -1.53744 0
M  V30 4687 C 446.47 0.111374 -1.95283 0
M  V30 4688 O 447.676 0.29527 -2.6989 0
M  V30 4689 C 446.132 -2.29098 -2.77565 0
M  V30 4690 C 445.74 -3.76258 -2.43174 0
M  V30 4691 C 447.484 -2.31936 -3.55536 0
M  V30 4692 C 445.391 -4.6656 -3.63422 0
M  V30 4693 H 444.321 -0.48518 -0.577162 0
M  V30 4694 H 446.972 -1.62101 -0.859981 0
M  V30 4695 H 445.354 -1.90557 -3.47137 0
M  V30 4696 H 446.528 -4.23565 -1.81465 0
M  V30 4697 H 444.843 -3.76246 -1.78403 0
M  V30 4698 H 447.44 -2.9661 -4.44889 0
M  V30 4699 H 447.783 -1.3294 -3.94503 0
M  V30 4700 H 448.316 -2.6912 -2.92949 0
M  V30 4701 H 445.055 -5.66638 -3.29547 0
M  V30 4702 H 444.575 -4.23966 -4.24279 0
M  V30 4703 H 446.254 -4.8309 -4.30387 0
M  V30 4704 N 446.386 1.0089 -1.21074 0
M  V30 4705 C 447.349 2.0775 -0.968129 0
M  V30 4706 C 448.349 1.6069 0.0593445 0
M  V30 4707 O 449.539 1.73293 -0.177525 0
M  V30 4708 C 446.671 3.37794 -0.459108 0
M  V30 4709 H 447.864 2.30707 -1.9161 0
M  V30 4710 H 445.417 1.17807 -1.02719 0
M  V30 4711 H 446.152 3.20516 0.49397 0
M  V30 4712 H 445.937 3.7328 -1.20019 0
M  V30 4713 H 447.427 4.16454 -0.309099 0
M  V30 4714 N 447.864 1.01787 1.20321 0
M  V30 4715 C 448.827 0.593972 2.2137 0
M  V30 4716 C 449.827 -0.336553 1.57239 0
M  V30 4717 O 451.017 -0.125069 1.7375 0
M  V30 4718 C 448.149 -0.132433 3.40643 0
M  V30 4719 H 449.342 1.48791 2.60387 0
M  V30 4720 H 446.895 0.807803 1.33807 0
M  V30 4721 H 447.63 -1.04123 3.0713 0
M  V30 4722 H 447.415 0.53605 3.88418 0
M  V30 4723 H 448.905 -0.416314 4.1552 0
M  V30 4724 N 449.342 -1.36122 0.79427 0
M  V30 4725 C 450.758 -1.5232 0.476525 0
M  V30 4726 C 450.958 -1.74685 -1.00436 0
M  V30 4727 O 450.014 -1.78115 -1.78973 0
M  V30 4728 C 451.327 -2.70607 1.31119 0
M  V30 4729 C 452.875 -2.8448 1.30537 0
M  V30 4730 C 453.35 -4.05778 2.12387 0
M  V30 4731 N 454.841 -4.12933 2.09859 0
M  V30 4732 C 455.576 -5.05876 2.69957 0
M  V30 4733 N 455.072 -6.04232 3.38934 0
M  V30 4734 N 456.865 -4.98528 2.59665 0
M  V30 4735 H 449.016 -1.1986 1.75349 0
M  V30 4736 H 451.279 -0.585418 0.745647 0
M  V30 4737 H 450.985 -2.60619 2.36158 0
M  V30 4738 H 450.859 -3.64888 0.955843 0
M  V30 4739 H 453.246 -2.93927 0.262876 0
M  V30 4740 H 453.327 -1.91093 1.70051 0
M  V30 4741 H 452.971 -3.97092 3.1667 0
M  V30 4742 H 452.901 -4.98323 1.70242 0
M  V30 4743 H 455.392 -3.42515 1.59662 0
M  V30 4744 H 455.705 -6.71724 3.82109 0
M  V30 4745 H 454.05 -6.04443 3.43036 0
M  V30 4746 H 457.241 -4.20641 2.05375 0
M  V30 4747 H 457.414 -5.70773 3.06793 0
M  V30 4748 N 450.82 -0.546701 -1.47814 0
M  V30 4749 C 451.73 0.21026 -2.33656 0
M  V30 4750 C 452.746 0.922413 -1.47538 0
M  V30 4751 O 453.922 0.893652 -1.80488 0
M  V30 4752 C 450.987 1.23348 -3.24016 0
M  V30 4753 C 450.048 0.529883 -4.26017 0
M  V30 4754 C 449.281 1.50435 -5.12059 0
M  V30 4755 O 449.504 2.73837 -5.00369 0
M  V30 4756 O 448.438 1.03459 -5.92942 0
M  V30 4757 H 452.264 -0.493605 -2.99662 0
M  V30 4758 H 449.849 -0.307427 -1.46203 0
M  V30 4759 H 451.731 1.82438 -3.79861 0
M  V30 4760 H 450.406 1.91945 -2.60651 0
M  V30 4761 H 449.313 -0.101948 -3.73961 0
M  V30 4762 H 450.646 -0.11445 -4.92067 0
M  V30 4763 N 452.299 1.55045 -0.282633 0
M  V30 4764 C 453.246 2.22822 0.601566 0
M  V30 4765 C 454.216 1.20431 1.14392 0
M  V30 4766 O 455.401 1.48996 1.19184 0
M  V30 4767 C 452.541 2.95873 1.77632 0
M  V30 4768 C 451.654 4.12999 1.26711 0
M  V30 4769 C 450.789 4.73676 2.40426 0
M  V30 4770 C 449.828 5.82981 1.86545 0
M  V30 4771 N 448.965 6.3769 2.93762 0
M  V30 4772 H 453.805 2.97995 0.0169528 0
M  V30 4773 H 451.342 1.471 -0.00339964 0
M  V30 4774 H 453.3 3.36447 2.46697 0
M  V30 4775 H 451.93 2.2311 2.33285 0
M  V30 4776 H 450.982 3.77494 0.469314 0
M  V30 4777 H 452.294 4.91803 0.832518 0
M  V30 4778 H 451.448 5.17008 3.17471 0
M  V30 4779 H 450.187 3.94164 2.87203 0
M  V30 4780 H 449.192 5.39092 1.07983 0
M  V30 4781 H 450.417 6.64366 1.40694 0
M  V30 4782 H 448.363 5.61069 3.39908 0
M  V30 4783 H 448.28 7.11788 2.54744 0
M  V30 4784 H 449.548 6.8568 3.7076 0
M  V30 4785 N 453.777 0.010035 1.57597 0
M  V30 4786 C 455.026 -0.671945 1.90178 0
M  V30 4787 C 455.339 -1.74376 0.886131 0
M  V30 4788 O 456.545 -2.48107 1.10252 0
M  V30 4789 C 455.001 -1.24636 3.3763 0
M  V30 4790 C 454.609 -0.208838 4.47513 0
M  V30 4791 C 456.353 -1.90595 3.79307 0
M  V30 4792 C 454.26 -0.793814 5.86048 0
M  V30 4793 H 453.19 -0.25474 0.709665 0
M  V30 4794 H 455.841 0.0722206 1.83358 0
M  V30 4795 H 454.223 -2.04152 3.3932 0
M  V30 4796 H 455.397 0.562463 4.57354 0
M  V30 4797 H 453.712 0.350889 4.14919 0
M  V30 4798 H 456.309 -2.35284 4.80151 0
M  V30 4799 H 456.652 -2.74074 3.13352 0
M  V30 4800 H 457.185 -1.17798 3.79958 0
M  V30 4801 H 453.924 0.00240855 6.555 0
M  V30 4802 H 453.444 -1.53404 5.79851 0
M  V30 4803 H 455.123 -1.2894 6.34022 0
M  V30 4804 N 455.255 -1.55392 -0.262866 0
M  V30 4805 C 456.218 -1.88181 -1.30846 0
M  V30 4806 C 457.218 -0.757079 -1.41862 0
M  V30 4807 O 458.408 -1.02519 -1.40838 0
M  V30 4808 C 455.54 -2.09609 -2.68844 0
M  V30 4809 H 456.733 -2.81659 -1.02997 0
M  V30 4810 H 454.286 -1.48039 -0.501414 0
M  V30 4811 H 455.021 -1.18547 -3.01856 0
M  V30 4812 H 454.806 -2.91508 -2.62231 0
M  V30 4813 H 456.296 -2.36215 -3.44372 0
M  V30 4814 N 456.733 0.527833 -1.48498 0
M  V30 4815 C 457.696 1.61439 -1.62696 0
M  V30 4816 C 458.696 1.52824 -0.500136 0
M  V30 4817 O 459.886 1.56456 -0.765976 0
M  V30 4818 C 457.018 3.01063 -1.59918 0
M  V30 4819 H 458.211 1.50189 -2.59583 0
M  V30 4820 H 455.764 0.750055 -1.37127 0
M  V30 4821 H 456.499 3.17818 -0.645163 0
M  V30 4822 H 456.284 3.08725 -2.41726 0
M  V30 4823 H 457.774 3.80057 -1.73051 0
M  V30 4824 N 458.211 1.37122 0.776871 0
M  V30 4825 C 459.459 1.31787 1.53221 0
M  V30 4826 C 459.78 -0.0987589 1.9475 0
M  V30 4827 O 459.05 -1.0417 1.65908 0
M  V30 4828 H 457.63 0.484839 0.568278 0
M  V30 4829 H 460.292 1.71556 0.924917 0
M  V30 4830 H 459.388 1.95355 2.43398 0
M  V30 4831 N 459.689 -1.00246 1.21608 0
M  V30 4832 C 460.652 -2.07233 0.979133 0
M  V30 4833 C 461.652 -1.6072 -0.0508219 0
M  V30 4834 O 462.842 -1.73196 0.186712 0
M  V30 4835 C 459.974 -3.37546 0.477016 0
M  V30 4836 H 461.167 -2.29687 1.92831 0
M  V30 4837 H 458.72 -1.17261 1.03342 0
M  V30 4838 H 459.455 -3.20773 -0.476966 0
M  V30 4839 H 459.24 -3.72638 1.21997 0
M  V30 4840 H 460.73 -4.16285 0.331181 0
M  V30 4841 N 461.167 -1.02423 -1.1978 0
M  V30 4842 C 462.392 -0.7373 -1.93852 0
M  V30 4843 C 462.817 0.696923 -1.74713 0
M  V30 4844 O 462.175 1.48056 -1.04638 0
M  V30 4845 C 462.223 -1.08783 -3.438 0
M  V30 4846 O 461.327 -0.20383 -4.11896 0
M  V30 4847 H 460.668 -0.27284 -0.605355 0
M  V30 4848 H 463.198 -1.36966 -1.51992 0
M  V30 4849 H 463.208 -1.04276 -3.9445 0
M  V30 4850 H 461.883 -2.13274 -3.57053 0
M  V30 4851 H 460.46 -0.307091 -3.71633 0
M  V30 4852 N 462.645 1.35699 -0.801477 0
M  V30 4853 C 463.575 2.32436 -0.222658 0
M  V30 4854 C 464.556 1.5723 0.649057 0
M  V30 4855 O 465.741 1.85324 0.580387 0
M  V30 4856 C 462.871 3.41469 0.633719 0
M  V30 4857 C 461.825 4.27774 -0.139083 0
M  V30 4858 C 461.151 5.28082 0.838666 0
M  V30 4859 C 462.451 5.04946 -1.33517 0
M  V30 4860 H 464.145 2.81094 -1.03086 0
M  V30 4861 H 461.691 1.35146 -0.497155 0
M  V30 4862 H 463.644 4.08143 1.04868 0
M  V30 4863 H 462.368 2.91408 1.47475 0
M  V30 4864 H 461.027 3.62673 -0.535156 0
M  V30 4865 H 460.675 4.7429 1.67506 0
M  V30 4866 H 460.375 5.86695 0.32594 0
M  V30 4867 H 461.899 5.97628 1.25194 0
M  V30 4868 H 463.313 5.64593 -0.995349 0
M  V30 4869 H 461.71 5.7303 -1.78202 0
M  V30 4870 H 462.78 4.35886 -2.12442 0
M  V30 4871 N 464.123 0.554532 1.47522 0
M  V30 4872 C 465.369 0.0295227 2.02779 0
M  V30 4873 C 465.702 -1.31582 1.42828 0
M  V30 4874 O 464.977 -1.85561 0.582872 0
M  V30 4875 C 465.26 -0.0664057 3.60039 0
M  V30 4876 C 465.113 1.30585 4.30427 0
M  V30 4877 C 466.432 -0.781162 4.33112 0
M  V30 4878 H 463.551 0.0122027 0.736899 0
M  V30 4879 H 466.193 0.716305 1.7598 0
M  V30 4880 H 464.343 -0.651307 3.83002 0
M  V30 4881 H 466.015 1.93374 4.18813 0
M  V30 4882 H 464.258 1.88125 3.90886 0
M  V30 4883 H 464.929 1.19147 5.38988 0
M  V30 4884 H 467.405 -0.284565 4.15126 0
M  V30 4885 H 466.281 -0.817237 5.42782 0
M  V30 4886 H 466.542 -1.83672 4.0214 0
M  V30 4887 N 465.601 -1.54893 0.290851 0
M  V30 4888 C 466.533 -2.20564 -0.623236 0
M  V30 4889 C 467.546 -1.19519 -1.1054 0
M  V30 4890 O 468.735 -1.46165 -1.02459 0
M  V30 4891 C 465.835 -2.83033 -1.86401 0
M  V30 4892 C 465.008 -4.09916 -1.52604 0
M  V30 4893 C 464.067 -4.56284 -2.62091 0
M  V30 4894 O 463.093 -5.2171 -2.27612 0
M  V30 4895 N 464.295 -4.27746 -3.92446 0
M  V30 4896 H 467.06 -2.99638 -0.0610915 0
M  V30 4897 H 464.621 -1.61508 0.112615 0
M  V30 4898 H 466.613 -3.1099 -2.58973 0
M  V30 4899 H 465.183 -2.0786 -2.33481 0
M  V30 4900 H 464.403 -3.89078 -0.633424 0
M  V30 4901 H 465.691 -4.92554 -1.27547 0
M  V30 4902 H 465.089 -3.7531 -4.23272 0
M  V30 4903 H 463.646 -4.60437 -4.61347 0
M  V30 4904 N 467.08 -0.0183926 -1.57589 0
M  V30 4905 C 468.329 0.66185 -1.90532 0
M  V30 4906 C 468.642 1.73904 -0.895366 0
M  V30 4907 O 469.848 2.47518 -1.11566 0
M  V30 4908 C 468.304 1.22844 -3.38286 0
M  V30 4909 C 467.912 0.185103 -4.47617 0
M  V30 4910 C 469.656 1.88581 -3.80312 0
M  V30 4911 C 467.563 0.762723 -5.86461 0
M  V30 4912 H 466.493 0.250972 -0.711006 0
M  V30 4913 H 469.144 -0.0819435 -1.83317 0
M  V30 4914 H 467.526 2.0235 -3.40398 0
M  V30 4915 H 468.7 -0.58671 -4.5705 0
M  V30 4916 H 467.015 -0.372889 -4.14727 0
M  V30 4917 H 469.612 2.32735 -4.81392 0
M  V30 4918 H 469.955 2.72408 -3.14801 0
M  V30 4919 H 470.488 1.15782 -3.80578 0
M  V30 4920 H 467.227 -0.0371713 -6.55489 0
M  V30 4921 H 466.747 1.50327 -5.80656 0
M  V30 4922 H 468.426 1.25576 -6.34697 0
M  V30 4923 N 468.558 1.5553 0.254621 0
M  V30 4924 C 469.788 1.80784 1.00004 0
M  V30 4925 C 470.196 0.59071 1.79742 0
M  V30 4926 O 469.539 -0.449988 1.78103 0
M  V30 4927 C 469.601 2.99268 1.99196 0
M  V30 4928 C 469.265 4.35595 1.38224 0
M  V30 4929 C 470.262 5.13884 0.788611 0
M  V30 4930 C 467.947 4.82281 1.40393 0
M  V30 4931 C 469.941 6.37004 0.224783 0
M  V30 4932 C 467.628 6.05351 0.836243 0
M  V30 4933 C 468.626 6.82551 0.24769 0
M  V30 4934 O 468.314 8.03297 -0.311249 0
M  V30 4935 H 468.046 0.60565 0.300274 0
M  V30 4936 H 470.6 2.03411 0.285143 0
M  V30 4937 H 468.83 2.72377 2.74496 0
M  V30 4938 H 470.519 3.11682 2.60018 0
M  V30 4939 H 471.285 4.78938 0.764423 0
M  V30 4940 H 467.164 4.22189 1.85142 0
M  V30 4941 H 470.708 6.97203 -0.235235 0
M  V30 4942 H 466.605 6.39776 0.857733 0
M  V30 4943 H 467.373 8.1825 -0.20237 0
M  V30 4944 N 470.036 -0.519951 1.48776 0
M  V30 4945 C 471.261 -1.30447 1.6124 0
M  V30 4946 C 471.686 -1.86055 0.276591 0
M  V30 4947 O 471.044 -1.64915 -0.753183 0
M  V30 4948 C 471.092 -2.42406 2.66967 0
M  V30 4949 O 470.196 -3.45728 2.24824 0
M  V30 4950 H 469.537 -0.385924 0.540332 0
M  V30 4951 H 472.067 -0.624572 1.94834 0
M  V30 4952 H 472.077 -2.88447 2.88552 0
M  V30 4953 H 470.752 -2.01294 3.63941 0
M  V30 4954 H 469.329 -3.05737 2.13494 0
M  V30 4955 N 471.514 -1.37532 -0.769588 0
M  V30 4956 C 472.762 -1.32597 -1.5252 0
M  V30 4957 C 473.083 0.0884294 -1.94799 0
M  V30 4958 O 472.353 1.03289 -1.66458 0
M  V30 4959 H 470.933 -0.487846 -0.565699 0
M  V30 4960 H 473.595 -1.72044 -0.915806 0
M  V30 4961 H 472.691 -1.96643 -2.42359 0
M  V30 4962 N 472.992 0.995999 -1.22138 0
M  V30 4963 C 474.239 1.7351 -1.04406 0
M  V30 4964 C 474.567 1.89884 0.421244 0
M  V30 4965 O 473.822 1.43683 1.32867 0
M  V30 4966 C 474.121 3.14553 -1.6968 0
M  V30 4967 C 473.787 3.18102 -3.19565 0
M  V30 4968 C 472.449 3.18778 -3.60464 0
M  V30 4969 C 474.801 3.14636 -4.15516 0
M  V30 4970 C 472.129 3.13684 -4.95801 0
M  V30 4971 C 474.481 3.11084 -5.50826 0
M  V30 4972 C 473.145 3.10074 -5.91109 0
M  V30 4973 H 472.415 0.634916 -0.38205 0
M  V30 4974 H 475.062 1.1667 -1.51857 0
M  V30 4975 H 473.367 3.74682 -1.14546 0
M  V30 4976 H 475.064 3.70477 -1.53454 0
M  V30 4977 H 471.654 3.18324 -2.86998 0
M  V30 4978 H 475.838 3.13266 -3.84939 0
M  V30 4979 H 471.094 3.11245 -5.26247 0
M  V30 4980 H 475.268 3.07357 -6.24904 0
M  V30 4981 H 472.895 3.05882 -6.95946 0
M  V30 4982 N 474.47 1.03057 1.19235 0
M  V30 4983 C 475.719 0.72326 1.88287 0
M  V30 4984 C 476.032 -0.751333 1.80594 0
M  V30 4985 O 477.238 -1.17176 2.44912 0
M  V30 4986 C 475.694 1.24338 3.3774 0
M  V30 4987 C 475.302 2.74587 3.53986 0
M  V30 4988 C 477.046 1.01213 4.12257 0
M  V30 4989 C 474.953 3.20009 4.97341 0
M  V30 4990 H 473.883 0.266848 0.705201 0
M  V30 4991 H 476.534 1.24509 1.34795 0
M  V30 4992 H 474.916 0.649457 3.90638 0
M  V30 4993 H 476.09 3.39649 3.11408 0
M  V30 4994 H 474.405 2.9601 2.9286 0
M  V30 4995 H 477.002 1.32675 5.17978 0
M  V30 4996 H 477.345 -0.051001 4.16269 0
M  V30 4997 H 477.878 1.57014 3.65501 0
M  V30 4998 H 474.617 4.25659 4.98493 0
M  V30 4999 H 474.137 2.59676 5.40674 0
M  V30 5000 H 475.816 3.13447 5.66003 0
M  V30 5001 N 475.948 -1.35272 0.808662 0
M  V30 5002 C 477.195 -1.98709 0.390003 0
M  V30 5003 C 477.523 -1.64148 -1.04335 0
M  V30 5004 O 476.778 -0.897797 -1.73891 0
M  V30 5005 C 477.077 -3.53556 0.522798 0
M  V30 5006 C 476.743 -4.0799 1.91977 0
M  V30 5007 C 475.405 -4.22568 2.30195 0
M  V30 5008 C 477.757 -4.37442 2.83361 0
M  V30 5009 C 475.085 -4.63918 3.59162 0
M  V30 5010 C 477.437 -4.80232 4.11776 0
M  V30 5011 C 476.101 -4.93016 4.49991 0
M  V30 5012 H 475.371 -0.727127 0.142712 0
M  V30 5013 H 478.018 -1.6145 1.02985 0
M  V30 5014 H 476.323 -3.91287 -0.200494 0
M  V30 5015 H 478.02 -4.00598 0.179608 0
M  V30 5016 H 474.61 -3.97096 1.61284 0
M  V30 5017 H 478.794 -4.25731 2.55083 0
M  V30 5018 H 474.05 -4.72005 3.88615 0
M  V30 5019 H 478.224 -5.01982 4.82687 0
M  V30 5020 H 475.851 -5.24814 5.49976 0
M  V30 5021 N 477.426 -0.562348 -1.47226 0
M  V30 5022 C 478.373 0.182461 -2.30078 0
M  V30 5023 C 479.343 0.903503 -1.39377 0
M  V30 5024 O 480.528 0.898188 -1.68337 0
M  V30 5025 C 477.668 1.20322 -3.23445 0
M  V30 5026 C 476.781 0.487717 -4.29238 0
M  V30 5027 C 475.916 1.49422 -5.09752 0
M  V30 5028 C 474.955 0.763976 -6.07314 0
M  V30 5029 N 474.092 1.71755 -6.80768 0
M  V30 5030 H 478.932 -0.530169 -2.93246 0
M  V30 5031 H 476.469 -0.273276 -1.44539 0
M  V30 5032 H 478.427 1.80768 -3.76004 0
M  V30 5033 H 477.057 1.88382 -2.6213 0
M  V30 5034 H 476.109 -0.231374 -3.79696 0
M  V30 5035 H 477.421 -0.0841003 -4.98729 0
M  V30 5036 H 476.575 2.17206 -5.66486 0
M  V30 5037 H 475.314 2.09995 -4.40174 0
M  V30 5038 H 474.319 0.0722344 -5.49753 0
M  V30 5039 H 475.544 0.16391 -6.78902 0
M  V30 5040 H 473.49 2.31177 -6.13916 0
M  V30 5041 H 473.407 1.19802 -7.46447 0
M  V30 5042 H 474.675 2.38638 -7.42073 0
M  V30 5043 N 478.904 1.54736 -0.299062 0
M  V30 5044 C 480.152 1.99706 0.31017 0
M  V30 5045 C 480.473 1.18896 1.54559 0
M  V30 5046 O 479.743 0.284445 1.93824 0
M  V30 5047 H 478.323 0.737686 0.117596 0
M  V30 5048 H 480.985 1.9054 -0.409943 0
M  V30 5049 H 480.081 3.06596 0.58355 0
M  V30 5050 N 480.382 0.0267497 1.57577 0
M  V30 5051 C 481.793 -0.512413 1.79531 0
M  V30 5052 C 482.144 -1.72391 0.936791 0
M  V30 5053 O 481.269 -2.15903 0.146543 0
M  V30 5054 C 481.864 -0.936378 3.25603 0
M  V30 5055 C 480.423 -1.42067 3.4856 0
M  V30 5056 C 479.57 -0.384278 2.74624 0
M  V30 5057 H 482.521 0.252797 1.56674 0
M  V30 5058 H 482.542 -1.80088 3.35184 0
M  V30 5059 H 482.054 -0.0544332 3.88062 0
M  V30 5060 H 480.155 -2.32262 2.9135 0
M  V30 5061 H 480.268 -1.42968 4.57271 0
M  V30 5062 H 478.632 -0.851855 2.40032 0
M  V30 5063 H 479.415 0.489159 3.39797 0
M  V30 5064 N 481.861 -1.55662 -0.24637 0
M  V30 5065 C 483.272 -1.67953 -0.81539 0
M  V30 5066 C 483.623 -0.624302 -1.86002 0
M  V30 5067 O 482.748 0.229328 -2.15181 0
M  V30 5068 C 483.343 -3.04484 -1.48576 0
M  V30 5069 C 481.902 -3.18713 -2.00248 0
M  V30 5070 C 481.049 -2.6383 -0.853766 0
M  V30 5071 H 484 -1.58685 -0.0221692 0
M  V30 5072 H 484.021 -2.98959 -2.3538 0
M  V30 5073 H 483.533 -3.81264 -0.725222 0
M  V30 5074 H 481.634 -2.46757 -2.79181 0
M  V30 5075 H 481.747 -4.25628 -2.1995 0
M  V30 5076 H 480.111 -2.21667 -1.25442 0
M  V30 5077 H 480.894 -3.43135 -0.106302 0
M  V30 5078 N 483.339 0.512053 -1.4905 0
M  V30 5079 C 484.269 1.62365 -1.67809 0
M  V30 5080 C 485.25 1.61737 -0.526809 0
M  V30 5081 O 486.435 1.78651 -0.761404 0
M  V30 5082 C 483.565 3.00895 -1.73435 0
M  V30 5083 C 482.519 3.16387 -2.88242 0
M  V30 5084 C 481.845 4.56157 -2.78971 0
M  V30 5085 C 483.145 2.97457 -4.29321 0
M  V30 5086 H 484.839 1.46921 -2.60873 0
M  V30 5087 H 482.385 0.705379 -1.2554 0
M  V30 5088 H 484.338 3.78549 -1.85145 0
M  V30 5089 H 483.062 3.17403 -0.769619 0
M  V30 5090 H 481.721 2.41155 -2.76116 0
M  V30 5091 H 481.369 4.69525 -1.8043 0
M  V30 5092 H 481.069 4.67465 -3.5602 0
M  V30 5093 H 482.593 5.35886 -2.92675 0
M  V30 5094 H 484.007 3.64888 -4.42187 0
M  V30 5095 H 482.404 3.20245 -5.07507 0
M  V30 5096 H 483.474 1.93692 -4.44535 0
M  V30 5097 N 484.817 1.37938 0.762283 0
M  V30 5098 C 486.066 1.32989 1.51647 0
M  V30 5099 C 486.379 -0.0802922 1.95435 0
M  V30 5100 O 487.585 -0.252295 2.70325 0
M  V30 5101 C 486.041 2.33485 2.73885 0
M  V30 5102 C 485.649 3.80079 2.37157 0
M  V30 5103 C 487.393 2.37563 3.51801 0
M  V30 5104 C 485.3 4.72283 3.55954 0
M  V30 5105 H 484.23 0.494301 0.56937 0
M  V30 5106 H 486.881 1.63448 0.834083 0
M  V30 5107 H 485.263 1.96056 3.44061 0
M  V30 5108 H 486.437 4.26398 1.74704 0
M  V30 5109 H 484.752 3.79037 1.72395 0
M  V30 5110 H 487.349 3.0365 4.40114 0
M  V30 5111 H 487.692 1.39199 3.92338 0
M  V30 5112 H 488.225 2.73747 2.8863 0
M  V30 5113 H 484.964 5.7181 3.2049 0
M  V30 5114 H 484.484 4.30663 4.1748 0
M  V30 5115 H 486.163 4.89876 4.22647 0
M  V30 5116 N 486.295 -0.989507 1.22664 0
M  V30 5117 C 487.242 -2.08024 0.999733 0
M  V30 5118 C 488.212 -1.65909 -0.0797047 0
M  V30 5119 O 489.397 -1.90669 0.0705715 0
M  V30 5120 C 486.537 -3.40067 0.587234 0
M  V30 5121 C 485.65 -3.95505 1.73781 0
M  V30 5122 C 484.785 -5.15722 1.27297 0
M  V30 5123 C 483.824 -5.63305 2.39488 0
M  V30 5124 N 482.961 -6.74758 1.94026 0
M  V30 5125 H 487.801 -2.26768 1.9334 0
M  V30 5126 H 485.338 -1.11171 0.963297 0
M  V30 5127 H 487.296 -4.15899 0.329227 0
M  V30 5128 H 485.926 -3.21314 -0.309426 0
M  V30 5129 H 484.978 -3.16513 2.11006 0
M  V30 5130 H 486.29 -4.26797 2.58158 0
M  V30 5131 H 485.444 -5.98854 0.972546 0
M  V30 5132 H 484.183 -4.86061 0.399445 0
M  V30 5133 H 483.188 -4.78759 2.70315 0
M  V30 5134 H 484.413 -5.94988 3.27362 0
M  V30 5135 H 482.359 -6.46874 1.09041 0
M  V30 5136 H 482.276 -7.05386 2.71968 0
M  V30 5137 H 483.544 -7.61387 1.67062 0
M  V30 5138 N 487.773 -1.03688 -1.18687 0
M  V30 5139 C 488.683 -0.634908 -2.25845 0
M  V30 5140 C 489.699 0.337065 -1.70704 0
M  V30 5141 O 490.875 0.192943 -2.00474 0
M  V30 5142 C 487.94 -0.000180054 -3.467 0
M  V30 5143 C 487.001 -1.02067 -4.1699 0
M  V30 5144 C 486.234 -0.41614 -5.32075 0
M  V30 5145 O 486.457 0.778712 -5.65059 0
M  V30 5146 O 485.391 -1.14296 -5.90948 0
M  V30 5147 H 489.217 -1.52757 -2.62486 0
M  V30 5148 H 486.802 -0.807533 -1.25695 0
M  V30 5149 H 488.684 0.353342 -4.19916 0
M  V30 5150 H 487.359 0.866367 -3.11891 0
M  V30 5151 H 486.266 -1.42592 -3.45859 0
M  V30 5152 H 487.599 -1.85786 -4.5579 0
M  V30 5153 N 489.251 1.34841 -0.815825 0
M  V30 5154 C 490.5 1.97755 -0.396976 0
M  V30 5155 C 490.813 1.65422 1.04379 0
M  V30 5156 O 492.019 2.21771 1.5662 0
M  V30 5157 C 490.475 3.53818 -0.658869 0
M  V30 5158 C 490.083 3.95051 -2.11278 0
M  V30 5159 C 491.827 4.23397 -0.305834 0
M  V30 5160 C 489.734 5.43997 -2.31994 0
M  V30 5161 H 488.664 0.739985 -0.1447 0
M  V30 5162 H 491.315 1.53781 -1.00118 0
M  V30 5163 H 489.697 3.95997 0.0154112 0
M  V30 5164 H 490.871 3.63998 -2.82564 0
M  V30 5165 H 489.186 3.38388 -2.42657 0
M  V30 5166 H 491.783 5.32899 -0.43854 0
M  V30 5167 H 492.126 4.09508 0.748952 0
M  V30 5168 H 492.659 3.8667 -0.934403 0
M  V30 5169 H 489.398 5.62865 -3.35952 0
M  V30 5170 H 488.918 5.76589 -1.65244 0
M  V30 5171 H 490.597 6.10584 -2.14001 0
M  V30 5172 N 490.729 0.570148 1.46925 0
M  V30 5173 C 491.975 0.0510284 2.02736 0
M  V30 5174 C 492.308 -1.3006 1.44215 0
M  V30 5175 O 491.583 -1.84932 0.602521 0
M  V30 5176 C 491.866 -0.028215 3.60089 0
M  V30 5177 C 491.719 1.35142 4.29018 0
M  V30 5178 C 493.038 -0.735181 4.33916 0
M  V30 5179 H 490.157 0.0200178 0.736728 0
M  V30 5180 H 492.799 0.73493 1.75211 0
M  V30 5181 H 490.949 -0.610648 3.83671 0
M  V30 5182 H 492.621 1.97806 4.16738 0
M  V30 5183 H 490.864 1.9226 3.88868 0
M  V30 5184 H 491.535 1.24857 5.37694 0
M  V30 5185 H 494.011 -0.240519 4.15404 0
M  V30 5186 H 492.887 -0.759622 5.43618 0
M  V30 5187 H 493.148 -1.79397 4.04066 0
M  V30 5188 N 492.207 -1.54576 0.307264 0
M  V30 5189 C 493.435 -2.04675 -0.302597 0
M  V30 5190 C 493.85 -1.18425 -1.47041 0
M  V30 5191 O 493.207 -0.211257 -1.81273 0
M  V30 5192 C 493.258 -3.53575 -0.752801 0
M  V30 5193 O 492.979 -4.36547 0.368536 0
M  V30 5194 C 494.48 -4.19699 -1.42717 0
M  V30 5195 H 491.7 -0.66786 -0.0648374 0
M  V30 5196 H 494.244 -1.99516 0.448716 0
M  V30 5197 H 492.399 -3.59074 -1.45412 0
M  V30 5198 H 492.813 -5.24497 0.0168937 0
M  V30 5199 H 494.287 -5.25388 -1.69327 0
M  V30 5200 H 494.764 -3.69815 -2.36925 0
M  V30 5201 H 495.37 -4.18293 -0.768856 0
M  V30 5202 N 493.685 -0.035106 -1.57561 0
M  V30 5203 C 494.635 0.954034 -2.0708 0
M  V30 5204 C 495.619 1.2818 -0.972558 0
M  V30 5205 O 496.811 1.26691 -1.23606 0
M  V30 5206 C 493.94 2.23442 -2.60631 0
M  V30 5207 C 493.026 1.93475 -3.77396 0
M  V30 5208 N 493.417 1.33802 -4.87781 0
M  V30 5209 C 491.715 2.23434 -3.85996 0
M  V30 5210 C 492.416 1.21103 -5.68954 0
M  V30 5211 N 491.392 1.70855 -5.16052 0
M  V30 5212 H 495.194 0.487731 -2.89825 0
M  V30 5213 H 492.708 0.169759 -1.6151 0
M  V30 5214 H 494.705 2.95183 -2.94402 0
M  V30 5215 H 493.365 2.70693 -1.79319 0
M  V30 5216 H 494.376 1.01227 -5.07911 0
M  V30 5217 H 491.053 2.73317 -3.15601 0
M  V30 5218 H 492.443 0.749105 -6.67711 0
M  V30 5219 N 495.163 1.55791 0.238111 0
M  V30 5220 C 496.412 1.77234 0.962868 0
M  V30 5221 C 496.725 0.600661 1.86149 0
M  V30 5222 O 497.931 0.698315 2.62366 0
M  V30 5223 C 496.387 3.13808 1.76218 0
M  V30 5224 C 495.995 4.3865 0.910518 0
M  V30 5225 C 497.739 3.44585 2.47914 0
M  V30 5226 C 495.646 5.66252 1.70623 0
M  V30 5227 H 494.576 0.660731 0.36325 0
M  V30 5228 H 497.227 1.8221 0.217242 0
M  V30 5229 H 495.609 3.02963 2.55009 0
M  V30 5230 H 496.783 4.60507 0.164316 0
M  V30 5231 H 495.098 4.15271 0.30647 0
M  V30 5232 H 497.695 4.3714 3.07917 0
M  V30 5233 H 498.038 2.66314 3.19973 0
M  V30 5234 H 498.571 3.56685 1.76127 0
M  V30 5235 H 495.31 6.47369 1.02923 0
M  V30 5236 H 494.83 5.48483 2.42748 0
M  V30 5237 H 496.509 6.05829 2.27114 0
M  V30 5238 O 496.68 -0.383686 1.56876 0
M  V30 5239 H 497.371 -1.03525 1.63714 0
M  V30 END ATOM
M  V30 BEGIN BOND
M  V30 END BOND
M  V30 END CTAB
M  END
$$$$
