drugbank_target|A5X5Y0 5-hydroxytryptamine receptor 3E (DB00715; DB01049; DB01239; DB09304; DB11273; DB12141; DB13025; DB13345)
 OpenBabel12092120593D

  0  0  0     0  0            999 V3000
M  V30 BEGIN CTAB
M  V30 COUNTS 7257 7358 0 0 0
M  V30 BEGIN ATOM
M  V30 1 H -0.908 1.98254 -0.117106 0
M  V30 2 N 0 1.576 0 0
M  V30 3 C 0.933 2.03868 1.02534 0
M  V30 4 C 1.911 0.928543 1.3348 0
M  V30 5 O 3.095 1.19667 1.45644 0
M  V30 6 C 0.222 2.43627 2.35294 0
M  V30 7 C -0.732 3.65373 2.2001 0
M  V30 8 S 0.101 5.13292 1.52614 0
M  V30 9 C 1.257 5.56322 2.86805 0
M  V30 10 H 1.49 2.90518 0.631377 0
M  V30 11 H -0.977 1.52953 0.210867 0
M  V30 12 H 0.981 2.67203 3.11629 0
M  V30 13 H -0.358 1.57376 2.7183 0
M  V30 14 H -1.165 3.90944 3.18086 0
M  V30 15 H -1.563 3.418 1.51819 0
M  V30 16 H 0.729 5.58782 3.83104 0
M  V30 17 H 1.672 6.56266 2.65933 0
M  V30 18 H 2.08 4.83886 2.90714 0
M  V30 19 N 1.4781 -0.272755 1.55222 0
M  V30 20 C 2.3881 -1.35918 1.91216 0
M  V30 21 C 3.4041 -1.54026 0.809436 0
M  V30 22 O 4.5801 -1.68148 1.10852 0
M  V30 23 C 1.6451 -2.69834 2.17693 0
M  V30 24 C 0.7061 -2.6047 3.41253 0
M  V30 25 C -0.0609 -3.88 3.66458 0
M  V30 26 O 0.1621 -4.88693 2.94169 0
M  V30 27 O -0.9039 -3.88189 4.59992 0
M  V30 28 H 2.9221 -1.0839 2.83699 0
M  V30 29 H 0.5071 -0.471301 1.41771 0
M  V30 30 H 2.3891 -3.49017 2.36147 0
M  V30 31 H 1.0641 -2.97148 1.28392 0
M  V30 32 H -0.0289 -1.79663 3.28134 0
M  V30 33 H 1.3041 -2.38106 4.30774 0
M  V30 34 N 2.9562 -1.48159 -0.537278 0
M  V30 35 C 4.2042 -1.55497 -1.29094 0
M  V30 36 C 4.5252 -0.227454 -1.93669 0
M  V30 37 O 3.7952 0.750386 -1.80959 0
M  V30 38 H 2.3752 -0.572832 -0.47945 0
M  V30 39 H 5.0372 -1.84579 -0.625818 0
M  V30 40 H 4.1332 -2.33216 -2.07405 0
M  V30 41 N 4.4343 0.785586 -1.36625 0
M  V30 42 C 5.6593 1.57963 -1.34397 0
M  V30 43 C 6.0843 1.87964 0.071526 0
M  V30 44 O 5.4423 1.48182 1.0446 0
M  V30 45 C 5.4903 2.87511 -2.17646 0
M  V30 46 O 4.5943 3.81281 -1.57158 0
M  V30 47 H 3.9353 0.479014 -0.459828 0
M  V30 48 H 6.4653 0.973411 -1.79961 0
M  V30 49 H 6.4753 3.36745 -2.30362 0
M  V30 50 H 5.1503 2.65002 -3.20541 0
M  V30 51 H 3.7273 3.39885 -1.53403 0
M  V30 52 N 5.9124 1.20967 1.01018 0
M  V30 53 C 7.1584 1.0353 1.7508 0
M  V30 54 C 7.5134 -0.42734 1.87594 0
M  V30 55 O 6.8064 -1.31298 1.3954 0
M  V30 56 C 7.0004 1.65997 3.16512 0
M  V30 57 C 6.8294 3.18184 3.17788 0
M  V30 58 C 5.5994 3.87198 3.24662 0
M  V30 59 C 7.7974 4.15334 3.03319 0
M  V30 60 N 5.7794 5.26618 3.15509 0
M  V30 61 C 7.1504 5.41472 3.02007 0
M  V30 62 C 9.2054 4.06449 2.87583 0
M  V30 63 C 7.9084 6.5975 2.86571 0
M  V30 64 C 9.9344 5.24357 2.73503 0
M  V30 65 C 9.2964 6.49404 2.72862 0
M  V30 66 H 5.3954 0.433137 0.651089 0
M  V30 67 H 7.9794 1.5324 1.20107 0
M  V30 68 H 6.1504 1.18863 3.69765 0
M  V30 69 H 7.8824 1.41816 3.79039 0
M  V30 70 H 4.6374 3.38093 3.31648 0
M  V30 71 H 5.0614 5.99626 3.14289 0
M  V30 72 H 9.7034 3.10573 2.86887 0
M  V30 73 H 7.4214 7.55792 2.86015 0
M  V30 74 H 11.0074 5.19299 2.62334 0
M  V30 75 H 9.8874 7.39105 2.62093 0
M  V30 76 N 7.3905 -1.2043 1.01659 0
M  V30 77 C 8.6375 -1.89797 0.705917 0
M  V30 78 C 8.9655 -1.78848 -0.764439 0
M  V30 79 O 8.2205 -1.16694 -1.57102 0
M  V30 80 C 8.5195 -3.40464 1.08714 0
M  V30 81 C 8.1855 -3.71614 2.5537 0
M  V30 82 C 6.8475 -3.79826 2.95441 0
M  V30 83 C 9.1995 -3.85915 3.50313 0
M  V30 84 C 6.5275 -3.99797 4.29394 0
M  V30 85 C 8.8795 -4.07396 4.83954 0
M  V30 86 C 7.5435 -4.13837 5.23732 0
M  V30 87 H 6.8135 -0.694518 0.258313 0
M  V30 88 H 9.4605 -1.42691 1.27717 0
M  V30 89 H 7.7655 -3.89385 0.434309 0
M  V30 90 H 9.4625 -3.92433 0.824461 0
M  V30 91 H 6.0525 -3.65822 2.23321 0
M  V30 92 H 10.2365 -3.78926 3.20513 0
M  V30 93 H 5.4925 -4.03018 4.59768 0
M  V30 94 H 9.6665 -4.17404 5.57447 0
M  V30 95 H 7.2935 -4.29064 6.27541 0
M  V30 96 N 8.8686 -0.792821 -1.36206 0
M  V30 97 C 9.8186 -0.166598 -2.27391 0
M  V30 98 C 10.8026 0.651479 -1.47121 0
M  V30 99 O 11.9946 0.510994 -1.69463 0
M  V30 100 C 9.1236 0.695033 -3.36191 0
M  V30 101 C 8.2096 -0.132019 -4.23894 0
M  V30 102 N 8.6006 -1.18822 -4.91645 0
M  V30 103 C 6.8986 0.0885952 -4.45912 0
M  V30 104 C 7.5996 -1.69198 -5.56549 0
M  V30 105 N 6.5756 -1.00065 -5.34311 0
M  V30 106 H 10.3776 -0.974947 -2.77258 0
M  V30 107 H 7.8916 -0.632616 -1.49572 0
M  V30 108 H 9.8886 1.1596 -4.00448 0
M  V30 109 H 8.5486 1.50189 -2.87877 0
M  V30 110 H 9.5596 -1.57069 -4.93507 0
M  V30 111 H 6.2366 0.865688 -4.08426 0
M  V30 112 H 7.6266 -2.57395 -6.20643 0
M  V30 113 N 10.3467 1.47872 -0.545128 0
M  V30 114 C 11.7627 1.5829 -0.204032 0
M  V30 115 C 11.9627 1.54529 1.29317 0
M  V30 116 O 11.0187 1.44232 2.07252 0
M  V30 117 C 12.3317 2.89304 -0.819987 0
M  V30 118 C 13.8797 3.02864 -0.790105 0
M  V30 119 C 14.3547 4.3656 -1.38491 0
M  V30 120 N 15.8457 4.43165 -1.34755 0
M  V30 121 C 16.5807 5.45153 -1.77753 0
M  V30 122 N 16.0767 6.54016 -2.2855 0
M  V30 123 N 17.8697 5.36125 -1.68897 0
M  V30 124 H 10.0207 1.4856 -1.51802 0
M  V30 125 H 12.2837 0.706305 -0.632327 0
M  V30 126 H 11.9897 2.97757 -1.87173 0
M  V30 127 H 11.8637 3.75957 -0.305915 0
M  V30 128 H 14.2507 2.94014 0.252913 0
M  V30 129 H 14.3317 2.17782 -1.34181 0
M  V30 130 H 13.9757 4.46164 -2.42693 0
M  V30 131 H 13.9057 5.20353 -0.808754 0
M  V30 132 H 16.3967 3.65083 -0.975855 0
M  V30 133 H 16.7097 7.27994 -2.59314 0
M  V30 134 H 15.0547 6.54938 -2.32553 0
M  V30 135 H 18.2457 4.49975 -1.28998 0
M  V30 136 H 18.4187 6.15472 -2.02726 0
M  V30 137 N 11.8248 0.280983 1.55075 0
M  V30 138 C 12.7718 -0.603937 2.22758 0
M  V30 139 C 13.7418 -1.1452 1.20309 0
M  V30 140 O 14.9268 -1.19343 1.48869 0
M  V30 141 C 12.0668 -1.77947 2.95684 0
M  V30 142 C 11.1798 -1.2715 4.12864 0
M  V30 143 C 10.3148 -2.4093 4.7342 0
M  V30 144 C 9.3538 -1.87165 5.82783 0
M  V30 145 N 8.4908 -2.94441 6.37377 0
M  V30 146 H 13.3308 -0.020124 2.97993 0
M  V30 147 H 10.8678 0.00183425 1.471 0
M  V30 148 H 12.8258 -2.47055 3.36184 0
M  V30 149 H 11.4558 -2.33522 2.22861 0
M  V30 150 H 10.5078 -0.473331 3.77444 0
M  V30 151 H 11.8198 -0.837751 4.91715 0
M  V30 152 H 10.9738 -3.18021 5.1667 0
M  V30 153 H 9.7128 -2.87623 3.93859 0
M  V30 154 H 8.7178 -1.08556 5.38976 0
M  V30 155 H 9.9428 -1.41401 6.64216 0
M  V30 156 H 7.8888 -3.40505 5.60707 0
M  V30 157 H 7.8058 -2.55501 7.11516 0
M  V30 158 H 9.0738 -3.71489 6.85285 0
M  V30 159 N 13.3029 -1.57598 0.00835791 0
M  V30 160 C 14.7189 -1.55764 -0.347822 0
M  V30 161 C 14.9189 -1.01186 -1.74252 0
M  V30 162 O 13.9749 -0.649371 -2.44007 0
M  V30 163 C 15.2879 -2.99927 -0.215407 0
M  V30 164 C 16.8359 -3.11656 -0.289725 0
M  V30 165 C 17.3109 -4.57621 -0.18634 0
M  V30 166 N 18.8019 -4.62557 -0.243978 0
M  V30 167 C 19.5369 -5.73094 -0.18745 0
M  V30 168 N 19.0329 -6.92753 -0.0810331 0
M  V30 169 N 20.8259 -5.61588 -0.239925 0
M  V30 170 H 12.9769 -1.91411 0.92062 0
M  V30 171 H 15.2399 -0.879562 0.353659 0
M  V30 172 H 14.9459 -3.43729 0.744512 0
M  V30 173 H 14.8199 -3.63865 -0.994097 0
M  V30 174 H 17.2069 -2.67779 -1.24009 0
M  V30 175 H 17.2879 -2.5048 0.51898 0
M  V30 176 H 16.9319 -5.02174 0.760519 0
M  V30 177 H 16.8619 -5.16752 -1.01364 0
M  V30 178 H 19.3529 -3.76481 -0.327217 0
M  V30 179 H 19.6659 -7.72787 -0.0440241 0
M  V30 180 H 18.0109 -6.94984 -0.0465419 0
M  V30 181 H 21.2019 -4.66996 -0.321317 0
M  V30 182 H 21.3749 -6.47714 -0.192407 0
M  V30 183 N 14.781 0.264519 -1.55364 0
M  V30 184 C 16.028 0.994986 -1.7637 0
M  V30 185 C 16.356 1.85976 -0.5695 0
M  V30 186 O 15.611 1.90509 0.44776 0
M  V30 187 C 15.91 1.9004 -3.02687 0
M  V30 188 C 15.576 1.19243 -4.34847 0
M  V30 189 C 14.238 0.996709 -4.70764 0
M  V30 190 C 16.59 0.689296 -5.16622 0
M  V30 191 C 13.918 0.285261 -5.86006 0
M  V30 192 C 16.27 -0.00860079 -6.32599 0
M  V30 193 C 14.934 -0.215963 -6.67151 0
M  V30 194 H 14.204 0.364091 -0.645383 0
M  V30 195 H 16.851 0.266543 -1.89636 0
M  V30 196 H 15.156 2.69533 -2.84357 0
M  V30 197 H 16.853 2.46695 -3.16137 0
M  V30 198 H 13.443 1.3549 -4.06621 0
M  V30 199 H 17.627 0.828108 -4.89342 0
M  V30 200 H 12.883 0.113961 -6.11294 0
M  V30 201 H 17.057 -0.406186 -6.95214 0
M  V30 202 H 14.684 -0.769217 -7.56298 0
M  V30 203 N 16.2591 1.48442 0.529413 0
M  V30 204 C 17.4841 1.60406 1.31471 0
M  V30 205 C 17.9091 0.264738 1.86228 0
M  V30 206 O 17.2671 -0.763668 1.64432 0
M  V30 207 C 17.3151 2.65419 2.44101 0
M  V30 208 O 16.4191 2.22618 3.47153 0
M  V30 209 H 15.7601 0.537863 0.389357 0
M  V30 210 H 18.2901 1.94432 0.636965 0
M  V30 211 H 18.3001 2.86709 2.90279 0
M  V30 212 H 16.9751 3.62652 2.03608 0
M  V30 213 H 15.5521 2.11543 3.0709 0
M  V30 214 N 17.7372 -0.778329 1.37039 0
M  V30 215 C 18.9842 -1.53665 1.31884 0
M  V30 216 C 19.3122 -1.9425 -0.0986303 0
M  V30 217 O 18.5672 -1.63832 -1.07041 0
M  V30 218 C 18.8662 -2.81845 2.19768 0
M  V30 219 C 18.5322 -2.60345 3.68146 0
M  V30 220 C 17.1942 -2.5419 4.08584 0
M  V30 221 C 19.5462 -2.40923 4.62175 0
M  V30 222 C 16.8742 -2.26594 5.41177 0
M  V30 223 C 19.2262 -2.14852 5.94997 0
M  V30 224 C 17.8902 -2.07137 6.34547 0
M  V30 225 H 17.1602 -0.562299 0.482598 0
M  V30 226 H 19.8072 -0.897069 1.69189 0
M  V30 227 H 18.1122 -3.50328 1.75436 0
M  V30 228 H 19.8092 -3.39692 2.13097 0
M  V30 229 H 16.3992 -2.65996 3.36072 0
M  V30 230 H 20.5832 -2.44673 4.31797 0
M  V30 231 H 15.8392 -2.19111 5.70789 0
M  V30 232 H 20.0132 -1.98822 6.67415 0
M  V30 233 H 17.6402 -1.85518 7.37216 0
M  V30 234 N 19.2153 -1.21501 -1.00376 0
M  V30 235 C 20.4453 -1.05746 -1.77486 0
M  V30 236 C 20.8533 0.395655 -1.85017 0
M  V30 237 O 20.1963 1.28626 -1.31152 0
M  V30 238 C 20.2583 -1.58092 -3.22873 0
M  V30 239 C 19.9223 -3.06568 -3.38917 0
M  V30 240 C 20.9193 -4.04106 -3.271 0
M  V30 241 C 18.6043 -3.45799 -3.64319 0
M  V30 242 C 20.5983 -5.38862 -3.40451 0
M  V30 243 C 18.2853 -4.80707 -3.77311 0
M  V30 244 C 19.2833 -5.77047 -3.65384 0
M  V30 245 O 18.9713 -7.09507 -3.77961 0
M  V30 246 H 18.7033 -0.371778 -0.564586 0
M  V30 247 H 21.2573 -1.61319 -1.27143 0
M  V30 248 H 19.4873 -0.969163 -3.74358 0
M  V30 249 H 21.1763 -1.38162 -3.81662 0
M  V30 250 H 21.9423 -3.75141 -3.07399 0
M  V30 251 H 17.8213 -2.71344 -3.72684 0
M  V30 252 H 21.3653 -6.14041 -3.31058 0
M  V30 253 H 17.2623 -5.09357 -3.96517 0
M  V30 254 H 18.0303 -7.16935 -3.94901 0
M  V30 255 N 20.6934 1.19889 -1.02296 0
M  V30 256 C 21.6234 2.25141 -0.619174 0
M  V30 257 C 22.6044 1.66051 0.368915 0
M  V30 258 O 23.7894 1.92546 0.252941 0
M  V30 259 C 20.9194 3.4728 0.0368783 0
M  V30 260 C 19.8734 4.19005 -0.872865 0
M  V30 261 C 19.1994 5.34637 -0.0822402 0
M  V30 262 C 20.4994 4.74452 -2.18387 0
M  V30 263 H 22.1934 2.59171 -1.49903 0
M  V30 264 H 19.7394 1.24579 -0.722222 0
M  V30 265 H 21.6924 4.20098 0.330958 0
M  V30 266 H 20.4164 3.12433 0.95149 0
M  V30 267 H 19.0754 3.48061 -1.15105 0
M  V30 268 H 18.7234 4.96034 0.83422 0
M  V30 269 H 18.4234 5.83557 -0.688149 0
M  V30 270 H 19.9474 6.10255 0.205238 0
M  V30 271 H 21.3614 5.39055 -1.95172 0
M  V30 272 H 19.7584 5.33834 -2.74119 0
M  V30 273 H 20.8284 3.92844 -2.84257 0
M  V30 274 N 22.1715 0.800033 1.35784 0
M  V30 275 C 23.1015 0.220184 2.3246 0
M  V30 276 C 24.0825 -0.65073 1.57161 0
M  V30 277 O 25.2675 -0.582359 1.85263 0
M  V30 278 C 22.3975 -0.637353 3.41402 0
M  V30 279 C 21.3515 0.134531 4.27789 0
M  V30 280 C 20.6775 -0.844285 5.27992 0
M  V30 281 C 21.9775 1.32979 5.05088 0
M  V30 282 H 23.6715 1.02787 2.81203 0
M  V30 283 H 21.2175 0.495717 1.35199 0
M  V30 284 H 23.1705 -1.05302 4.08031 0
M  V30 285 H 21.8945 -1.47785 2.91251 0
M  V30 286 H 20.5535 0.531296 3.6273 0
M  V30 287 H 20.2015 -1.68011 4.74111 0
M  V30 288 H 19.9015 -0.332184 5.8666 0
M  V30 289 H 21.4255 -1.2583 5.97494 0
M  V30 290 H 22.8395 0.98934 5.64699 0
M  V30 291 H 21.2365 1.77593 5.7322 0
M  V30 292 H 22.3065 2.11978 4.36111 0
M  V30 293 N 23.6496 -1.47581 0.552962 0
M  V30 294 C 24.5796 -2.32762 -0.185451 0
M  V30 295 C 25.5606 -1.43527 -0.912905 0
M  V30 296 O 26.7456 -1.72388 -0.894201 0
M  V30 297 C 23.8756 -3.25219 -1.21859 0
M  V30 298 C 22.8296 -4.23661 -0.607864 0
M  V30 299 C 22.1556 -5.05413 -1.74533 0
M  V30 300 C 23.4556 -5.20481 0.435582 0
M  V30 301 H 25.1496 -2.94749 0.525684 0
M  V30 302 H 22.6956 -1.41738 0.254251 0
M  V30 303 H 24.6486 -3.8365 -1.7433 0
M  V30 304 H 23.3726 -2.61279 -1.95961 0
M  V30 305 H 22.0316 -3.66451 -0.104489 0
M  V30 306 H 21.6796 -4.3788 -2.47529 0
M  V30 307 H 21.3796 -5.72059 -1.34249 0
M  V30 308 H 22.9036 -5.66701 -2.27338 0
M  V30 309 H 24.3176 -5.733 -0.00290157 0
M  V30 310 H 22.7146 -5.95305 0.757067 0
M  V30 311 H 23.7846 -4.66217 1.33303 0
M  V30 312 N 25.1277 -0.289203 -1.54924 0
M  V30 313 C 26.3757 0.322879 -1.99504 0
M  V30 314 C 26.6967 1.55313 -1.1791 0
M  V30 315 O 25.9667 1.94001 -0.272097 0
M  V30 316 H 24.5467 0.122291 -0.736922 0
M  V30 317 H 27.2087 -0.397802 -1.90797 0
M  V30 318 H 26.3047 0.603061 -3.06218 0
M  V30 319 N 26.6058 1.57591 -0.0167156 0
M  V30 320 C 27.8528 1.91283 0.664597 0
M  V30 321 C 28.1808 0.891949 1.72842 0
M  V30 322 O 27.4358 -0.100931 1.9544 0
M  V30 323 C 27.7348 3.3172 1.33029 0
M  V30 324 C 27.4008 4.4914 0.398047 0
M  V30 325 C 26.0628 4.80992 0.141421 0
M  V30 326 C 28.4148 5.20634 -0.242825 0
M  V30 327 C 25.7428 5.81703 -0.764092 0
M  V30 328 C 28.0948 6.22311 -1.13632 0
M  V30 329 C 26.7588 6.52611 -1.40196 0
M  V30 330 H 26.0288 0.699956 0.243193 0
M  V30 331 H 28.6758 1.9135 -0.0758267 0
M  V30 332 H 26.9808 3.27856 2.14517 0
M  V30 333 H 28.6778 3.55055 1.86379 0
M  V30 334 H 25.2678 4.24262 0.608238 0
M  V30 335 H 29.4518 4.96267 -0.0576019 0
M  V30 336 H 24.7078 6.03532 -0.977732 0
M  V30 337 H 28.8818 6.76834 -1.63917 0
M  V30 338 H 26.5088 7.30467 -2.10529 0
M  V30 339 N 28.0839 -0.256276 1.55502 0
M  V30 340 C 29.0139 -1.32102 1.92539 0
M  V30 341 C 29.9949 -1.50684 0.789194 0
M  V30 342 O 31.1799 -1.63449 1.04872 0
M  V30 343 C 28.3099 -2.67752 2.21192 0
M  V30 344 C 27.2639 -2.63878 3.36975 0
M  V30 345 C 26.5899 -4.03236 3.51147 0
M  V30 346 C 27.8899 -2.21682 4.72921 0
M  V30 347 H 29.5839 -1.01351 2.81724 0
M  V30 348 H 27.1299 -0.486105 1.35547 0
M  V30 349 H 29.0829 -3.42365 2.45691 0
M  V30 350 H 27.8069 -3.0012 1.28824 0
M  V30 351 H 26.4659 -1.91722 3.12471 0
M  V30 352 H 26.1139 -4.32854 2.56216 0
M  V30 353 H 25.8139 -4.01535 4.29003 0
M  V30 354 H 27.3379 -4.79563 3.77957 0
M  V30 355 H 28.7519 -2.86023 4.96854 0
M  V30 356 H 27.1489 -2.3111 5.53812 0
M  V30 357 H 28.2189 -1.16833 4.70615 0
M  V30 358 N 29.562 -1.4872 -0.521534 0
M  V30 359 C 30.492 -1.66771 -1.63431 0
M  V30 360 C 31.473 -0.516499 -1.62069 0
M  V30 361 O 32.658 -0.750013 -1.79132 0
M  V30 362 C 29.788 -1.71515 -3.01993 0
M  V30 363 C 28.742 -2.86222 -3.18216 0
M  V30 364 C 28.068 -2.76061 -4.57924 0
M  V30 365 C 29.368 -4.27419 -3.00184 0
M  V30 366 H 31.062 -2.59932 -1.48579 0
M  V30 367 H 28.608 -1.25089 -0.713358 0
M  V30 368 H 30.561 -1.82731 -3.7972 0
M  V30 369 H 29.285 -0.749393 -3.17886 0
M  V30 370 H 27.944 -2.74575 -2.42908 0
M  V30 371 H 27.592 -1.77437 -4.70665 0
M  V30 372 H 27.292 -3.53037 -4.69722 0
M  V30 373 H 28.816 -2.89256 -5.37739 0
M  V30 374 H 30.23 -4.39855 -3.67697 0
M  V30 375 H 28.627 -5.05458 -3.2347 0
M  V30 376 H 29.697 -4.43293 -1.96518 0
M  V30 377 N 31.0401 0.771051 -1.3745 0
M  V30 378 C 31.9721 1.89352 -1.29146 0
M  V30 379 C 32.9851 1.61477 -0.207124 0
M  V30 380 O 34.1741 1.72382 -0.463324 0
M  V30 381 C 31.2741 3.24596 -0.974195 0
M  V30 382 C 30.4471 3.80111 -2.16413 0
M  V30 383 C 29.5061 4.93832 -1.81703 0
M  V30 384 O 28.5321 5.09382 -2.54006 0
M  V30 385 N 29.7341 5.75483 -0.761573 0
M  V30 386 H 32.4991 1.96991 -2.25864 0
M  V30 387 H 30.0601 0.950191 -1.31084 0
M  V30 388 H 32.0521 3.98193 -0.722828 0
M  V30 389 H 30.6221 3.12454 -0.0955527 0
M  V30 390 H 29.8421 2.98284 -2.57721 0
M  V30 391 H 31.1301 4.13932 -2.95867 0
M  V30 392 H 30.5281 5.65469 -0.161609 0
M  V30 393 H 29.0851 6.49302 -0.570064 0
M  V30 394 N 32.5182 1.22032 0.997298 0
M  V30 395 C 33.7662 1.04016 1.73278 0
M  V30 396 C 34.0872 -0.426255 1.90284 0
M  V30 397 O 33.3572 -1.30694 1.45931 0
M  V30 398 H 31.9372 0.381897 0.642 0
M  V30 399 H 34.5992 1.5347 1.20137 0
M  V30 400 H 33.6952 1.51441 2.72896 0
M  V30 401 N 33.9963 -1.19345 1.0293 0
M  V30 402 C 35.4123 -1.41069 0.746446 0
M  V30 403 C 35.6123 -1.90078 -0.668776 0
M  V30 404 O 34.6683 -2.0778 -1.4347 0
M  V30 405 C 35.9813 -2.42141 1.78292 0
M  V30 406 C 37.5293 -2.55887 1.80252 0
M  V30 407 C 38.0043 -3.60214 2.8286 0
M  V30 408 N 39.4953 -3.67711 2.81679 0
M  V30 409 C 40.2303 -4.48128 3.57727 0
M  V30 410 N 39.7263 -5.32248 4.43491 0
M  V30 411 N 41.5193 -4.42782 3.46267 0
M  V30 412 H 33.6703 -0.858536 1.94275 0
M  V30 413 H 35.9333 -0.439541 0.839945 0
M  V30 414 H 35.6393 -2.13155 2.79746 0
M  V30 415 H 35.5133 -3.41323 1.60557 0
M  V30 416 H 37.9003 -2.84196 0.794757 0
M  V30 417 H 37.9813 -1.56858 2.02062 0
M  V30 418 H 37.6253 -3.32647 3.83807 0
M  V30 419 H 37.5553 -4.58895 2.58307 0
M  V30 420 H 40.0463 -3.07634 2.19476 0
M  V30 421 H 40.3593 -5.90729 4.98256 0
M  V30 422 H 38.7043 -5.31707 4.47564 0
M  V30 423 H 41.8953 -3.76107 2.78677 0
M  V30 424 H 42.0683 -5.05215 4.05785 0
M  V30 425 N 35.4744 -0.807222 -1.35358 0
M  V30 426 C 36.7224 -0.387122 -1.98358 0
M  V30 427 C 37.0434 1.04942 -1.64354 0
M  V30 428 O 36.3134 1.72615 -0.926339 0
M  V30 429 H 34.8934 -0.140154 -0.733734 0
M  V30 430 H 37.5554 -1.0332 -1.6526 0
M  V30 431 H 36.6514 -0.493352 -3.08176 0
M  V30 432 N 36.9525 1.47285 -0.560781 0
M  V30 433 C 38.1985 2.02764 -0.0381184 0
M  V30 434 C 38.5315 1.43384 1.30976 0
M  V30 435 O 37.8065 0.590733 1.85312 0
M  V30 436 C 38.0895 3.60064 0.0511427 0
M  V30 437 C 37.9425 4.2987 -1.32408 0
M  V30 438 C 39.2615 4.33439 0.762795 0
M  V30 439 H 36.3805 0.736841 -0.0153264 0
M  V30 440 H 39.0225 1.75675 -0.723759 0
M  V30 441 H 37.1725 3.83274 0.635065 0
M  V30 442 H 38.8445 4.17989 -1.95148 0
M  V30 443 H 37.0875 3.90085 -1.8978 0
M  V30 444 H 37.7585 5.38478 -1.21431 0
M  V30 445 H 40.2345 4.15243 0.266965 0
M  V30 446 H 39.1105 5.43124 0.794221 0
M  V30 447 H 39.3715 4.02915 1.81966 0
M  V30 448 N 38.4306 0.297415 1.54768 0
M  V30 449 C 39.6586 -0.315623 2.04478 0
M  V30 450 C 40.0736 -1.47792 1.17486 0
M  V30 451 O 39.4306 -1.81404 0.19971 0
M  V30 452 C 39.4816 -0.7753 3.53088 0
M  V30 453 O 39.2026 0.340732 4.36773 0
M  V30 454 C 40.7036 -1.45386 4.18781 0
M  V30 455 H 37.9236 -0.0690887 0.667434 0
M  V30 456 H 40.4676 0.436003 1.99798 0
M  V30 457 H 38.6226 -1.47696 3.58141 0
M  V30 458 H 39.0366 -0.0165035 5.24497 0
M  V30 459 H 40.5106 -1.72669 5.24299 0
M  V30 460 H 40.9876 -2.39275 3.68299 0
M  V30 461 H 41.5936 -0.795475 4.17795 0
M  V30 462 N 39.9087 -1.5758 0.0250728 0
M  V30 463 C 41.1557 -1.91633 -0.654444 0
M  V30 464 C 41.4837 -0.901103 -1.72367 0
M  V30 465 O 40.7387 0.0905647 -1.9549 0
M  V30 466 C 41.0377 -3.32421 -1.31268 0
M  V30 467 C 40.7037 -4.49344 -0.374223 0
M  V30 468 C 39.3657 -4.8106 -0.115911 0
M  V30 469 C 41.7177 -5.20498 0.270432 0
M  V30 470 C 39.0457 -5.8129 0.79493 0
M  V30 471 C 41.3977 -6.21699 1.1693 0
M  V30 472 C 40.0617 -6.51859 1.43655 0
M  V30 473 H 39.3317 -0.701236 -0.239478 0
M  V30 474 H 41.9787 -1.91307 0.0859734 0
M  V30 475 H 40.2837 -3.28989 -2.12775 0
M  V30 476 H 41.9807 -3.56038 -1.84494 0
M  V30 477 H 38.5707 -4.24579 -0.58573 0
M  V30 478 H 42.7547 -4.96229 0.0839194 0
M  V30 479 H 38.0107 -6.03005 1.00973 0
M  V30 480 H 42.1847 -6.75955 1.67504 0
M  V30 481 H 39.8117 -7.2934 2.144 0
M  V30 482 N 41.3868 0.248026 -1.55636 0
M  V30 483 C 42.6148 0.993808 -1.81469 0
M  V30 484 C 43.0298 1.78991 -0.60064 0
M  V30 485 O 42.3868 1.77345 0.430682 0
M  V30 486 C 42.4378 1.93258 -3.05506 0
M  V30 487 O 42.1588 1.16869 -4.22224 0
M  V30 488 C 43.6598 2.79444 -3.4413 0
M  V30 489 H 40.8798 0.292486 -0.603898 0
M  V30 490 H 43.4238 0.271253 -2.02693 0
M  V30 491 H 41.5788 2.60943 -2.86335 0
M  V30 492 H 41.9928 1.80359 -4.92515 0
M  V30 493 H 43.4668 3.41066 -4.34026 0
M  V30 494 H 43.9438 3.50499 -2.64665 0
M  V30 495 H 44.5498 2.17214 -3.65648 0
M  V30 496 N 42.8649 1.48995 0.513639 0
M  V30 497 C 44.1139 1.57093 1.2651 0
M  V30 498 C 44.4269 0.257091 1.93903 0
M  V30 499 O 45.6329 0.216478 2.70636 0
M  V30 500 C 44.0889 2.77118 2.29638 0
M  V30 501 C 43.6969 4.15209 1.68241 0
M  V30 502 C 45.4409 2.94538 3.05692 0
M  V30 503 C 43.3479 5.26474 2.69406 0
M  V30 504 H 42.2779 0.584876 0.475854 0
M  V30 505 H 44.9289 1.7536 0.540487 0
M  V30 506 H 43.3109 2.52319 3.05207 0
M  V30 507 H 44.4849 4.50094 0.987505 0
M  V30 508 H 42.7999 4.03042 1.04623 0
M  V30 509 H 45.3969 3.74832 3.8132 0
M  V30 510 H 45.7399 2.04614 3.62545 0
M  V30 511 H 46.2729 3.19316 2.37238 0
M  V30 512 H 43.0119 6.18417 2.17351 0
M  V30 513 H 42.5319 4.96058 3.37175 0
M  V30 514 H 44.2109 5.55277 3.32078 0
M  V30 515 N 44.343 -0.763751 1.37857 0
M  V30 516 C 45.291 -1.89864 1.34367 0
M  V30 517 C 46.285 -1.67816 0.231143 0
M  V30 518 O 47.491 -1.75508 0.399617 0
M  V30 519 H 43.866 -0.624501 0.41893 0
M  V30 520 H 45.837 -1.89925 2.30155 0
M  V30 521 C 44.586 -3.27227 1.1755 0
M  V30 522 H 43.909 -3.44773 2.02414 0
M  V30 523 H 45.349 -4.06911 1.1916 0
M  V30 524 C 43.808 -3.36692 -0.118311 0
M  V30 525 O 44.338 -3.86374 -1.09902 0
M  V30 526 N 42.544 -2.90092 -0.171717 0
M  V30 527 H 42.091 -2.49853 0.627012 0
M  V30 528 H 42.049 -2.96806 -1.03699 0
M  V30 529 N 45.8211 -1.22559 -0.990812 0
M  V30 530 C 47.0611 -1.06302 -1.74583 0
M  V30 531 C 47.4251 0.394737 -1.87898 0
M  V30 532 O 48.6261 0.678214 -2.60103 0
M  V30 533 C 46.8971 -1.75699 -3.11231 0
M  V30 534 S 48.4561 -1.74882 -4.02445 0
M  V30 535 H 45.2741 -0.380639 -0.600529 0
M  V30 536 H 47.8761 -1.55532 -1.18449 0
M  V30 537 H 46.5801 -2.80923 -2.99183 0
M  V30 538 H 46.1111 -1.26708 -3.72436 0
M  V30 539 H 48.1261 -0.799997 -4.89709 0
M  V30 540 N 47.2992 1.18797 -1.03562 0
M  V30 541 C 48.5242 1.9314 -0.755764 0
M  V30 542 C 48.9492 1.7537 0.68022 0
M  V30 543 O 48.3072 1.06046 1.47051 0
M  V30 544 C 48.3552 3.42747 -1.12058 0
M  V30 545 O 47.4592 4.11683 -0.243124 0
M  V30 546 H 46.8002 0.602724 -0.278604 0
M  V30 547 H 49.3302 1.50678 -1.3841 0
M  V30 548 H 49.3402 3.93437 -1.08035 0
M  V30 549 H 48.0152 3.55002 -2.16672 0
M  V30 550 H 46.5922 3.71323 -0.342539 0
M  V30 551 N 48.7773 0.814389 1.34928 0
M  V30 552 C 50.0253 0.397636 1.9815 0
M  V30 553 C 50.3463 -1.04069 1.64908 0
M  V30 554 O 49.6163 -1.72121 0.93548 0
M  V30 555 H 48.1963 0.144043 0.732981 0
M  V30 556 H 50.8583 1.04195 1.6471 0
M  V30 557 H 49.9543 0.509688 3.0791 0
M  V30 558 N 50.2554 -1.46986 0.568584 0
M  V30 559 C 51.5024 -2.02441 0.0487986 0
M  V30 560 C 51.8304 -1.44169 -1.30559 0
M  V30 561 O 51.0854 -0.591213 -1.86556 0
M  V30 562 C 51.3844 -3.57306 -0.081836 0
M  V30 563 C 51.0504 -4.34552 1.20313 0
M  V30 564 C 49.7124 -4.55376 1.5552 0
M  V30 565 C 52.0644 -4.79016 2.05411 0
M  V30 566 C 49.3924 -5.17913 2.7565 0
M  V30 567 C 51.7444 -5.42879 3.24754 0
M  V30 568 C 50.4084 -5.61933 3.60261 0
M  V30 569 H 49.6784 -0.740785 0.0178567 0
M  V30 570 H 52.3254 -1.76525 0.742384 0
M  V30 571 H 50.6304 -3.8228 -0.858463 0
M  V30 572 H 52.3274 -3.97876 -0.499546 0
M  V30 573 H 48.9174 -4.18631 0.919014 0
M  V30 574 H 53.1014 -4.62696 1.79516 0
M  V30 575 H 48.3574 -5.30858 3.03315 0
M  V30 576 H 52.5314 -5.76293 3.90973 0
M  V30 577 H 50.1584 -6.10161 4.53439 0
M  V30 578 N 51.7335 -0.305618 -1.54608 0
M  V30 579 C 52.9815 0.301701 -1.99835 0
M  V30 580 C 53.3025 1.54054 -1.19551 0
M  V30 581 O 52.5725 1.93702 -0.292658 0
M  V30 582 H 51.1525 0.114468 -0.738178 0
M  V30 583 H 53.8145 -0.418016 -1.90364 0
M  V30 584 H 52.9105 0.570548 -3.06841 0
M  V30 585 N 53.2116 1.57565 -0.0334293 0
M  V30 586 C 54.1436 2.0739 0.975811 0
M  V30 587 C 55.1566 0.998166 1.2861 0
M  V30 588 O 56.3456 1.27426 1.25 0
M  V30 589 C 53.4456 2.4871 2.30209 0
M  V30 590 C 52.6186 3.79413 2.17634 0
M  V30 591 C 51.6776 4.07237 3.33233 0
M  V30 592 O 50.7036 4.77425 3.09927 0
M  V30 593 N 51.9056 3.5775 4.5716 0
M  V30 594 H 54.6706 2.94598 0.55066 0
M  V30 595 H 52.2316 1.61173 0.15323 0
M  V30 596 H 54.2236 2.64413 3.06378 0
M  V30 597 H 52.7936 1.66845 2.64351 0
M  V30 598 H 52.0136 3.73465 1.26165 0
M  V30 599 H 53.3016 4.65038 2.0644 0
M  V30 600 H 52.6996 3.00976 4.78989 0
M  V30 601 H 51.2566 3.78724 5.30482 0
M  V30 602 N 54.6897 -0.239769 1.55765 0
M  V30 603 C 55.6397 -1.30002 1.87306 0
M  V30 604 C 56.6237 -1.43156 0.73452 0
M  V30 605 O 57.8157 -1.46277 0.99659 0
M  V30 606 C 54.9447 -2.65409 2.17745 0
M  V30 607 C 54.0307 -2.56231 3.37945 0
M  V30 608 N 54.4217 -2.16689 4.57033 0
M  V30 609 C 52.7197 -2.87229 3.41197 0
M  V30 610 C 53.4207 -2.18318 5.39177 0
M  V30 611 N 52.3967 -2.58098 4.78421 0
M  V30 612 H 56.1987 -0.984912 2.76906 0
M  V30 613 H 53.7127 -0.448381 1.56087 0
M  V30 614 H 55.7097 -3.41934 2.38509 0
M  V30 615 H 54.3697 -2.97781 1.29448 0
M  V30 616 H 55.3807 -1.88116 4.82528 0
M  V30 617 H 52.0577 -3.24094 2.63191 0
M  V30 618 H 53.4477 -1.90025 6.44469 0
M  V30 619 N 56.1678 -1.49265 -0.50573 0
M  V30 620 C 57.4158 -1.582 -1.25766 0
M  V30 621 C 57.7368 -0.268482 -1.93143 0
M  V30 622 O 57.0068 0.711833 -1.8251 0
M  V30 623 H 55.5868 -0.582873 -0.467191 0
M  V30 624 H 58.2488 -1.85865 -0.586525 0
M  V30 625 H 57.3448 -2.37563 -2.02412 0
M  V30 626 N 57.6459 0.756429 -1.3826 0
M  V30 627 C 58.6089 1.85176 -1.35065 0
M  V30 628 C 59.6089 1.58818 -0.251703 0
M  V30 629 O 60.7989 1.66615 -0.508433 0
M  V30 630 C 57.9309 3.22596 -1.10201 0
M  V30 631 H 59.1239 1.89417 -2.3251 0
M  V30 632 H 56.6769 0.95783 -1.23512 0
M  V30 633 H 57.4119 3.24025 -0.133504 0
M  V30 634 H 57.1969 3.43122 -1.89762 0
M  V30 635 H 58.6869 4.02673 -1.10654 0
M  V30 636 N 59.124 1.23083 0.984299 0
M  V30 637 C 60.401 0.9689 1.69917 0
M  V30 638 C 60.781 -0.513604 2.04757 0
M  V30 639 O 60.129 -1.48383 1.73767 0
M  V30 640 C 60.339 1.87518 2.94343 0
M  V30 641 C 61.687 2.13636 3.6694 0
M  V30 642 O 62.711 1.85036 3.04368 0
M  V30 643 O 61.57 2.62119 4.79537 0
M  V30 644 H 58.664 0.365095 0.742048 0
M  V30 645 H 61.21 1.34107 1.03987 0
M  V30 646 H 59.982 2.87756 2.65164 0
M  V30 647 H 59.605 1.50514 3.6801 0
M  V30 648 N 60.6021 -1.18246 1.0419 0
M  V30 649 C 62.0131 -1.69914 0.773698 0
M  V30 650 C 62.3641 -1.83085 -0.705297 0
M  V30 651 O 61.4891 -1.51123 -1.5489 0
M  V30 652 C 62.0841 -3.08619 1.39784 0
M  V30 653 C 60.6431 -3.57494 1.17792 0
M  V30 654 C 59.7901 -2.34013 1.48773 0
M  V30 655 H 62.7411 -1.02904 1.20816 0
M  V30 656 H 62.7621 -3.71958 0.801714 0
M  V30 657 H 62.2741 -2.99001 2.47426 0
M  V30 658 H 60.3751 -3.72406 0.120295 0
M  V30 659 H 60.4881 -4.40852 1.87581 0
M  V30 660 H 58.8521 -2.37986 0.907463 0
M  V30 661 H 59.6351 -2.27013 2.57527 0
M  V30 662 N 62.0802 -0.821533 -1.34494 0
M  V30 663 C 63.3082 -0.421884 -2.02553 0
M  V30 664 C 63.7232 0.971745 -1.61872 0
M  V30 665 O 63.0802 1.62864 -0.823496 0
M  V30 666 C 63.1312 -0.51285 -3.57844 0
M  V30 667 O 62.8522 -1.85155 -3.97051 0
M  V30 668 C 64.3532 -0.107921 -4.43169 0
M  V30 669 H 61.5732 -0.169482 -0.649243 0
M  V30 670 H 64.1172 -1.1093 -1.71798 0
M  V30 671 H 62.2722 0.126474 -3.87193 0
M  V30 672 H 62.6862 -1.82482 -4.91732 0
M  V30 673 H 64.1602 -0.222657 -5.51551 0
M  V30 674 H 64.6372 0.948401 -4.28838 0
M  V30 675 H 65.2432 -0.720989 -4.19144 0
M  V30 676 N 63.5583 1.46682 -0.576371 0
M  V30 677 C 64.5213 2.28707 0.150239 0
M  V30 678 C 65.5213 1.38035 0.824794 0
M  V30 679 O 66.7113 1.60476 0.677719 0
M  V30 680 C 63.8433 3.18248 1.22192 0
M  V30 681 H 65.0363 2.94423 -0.570521 0
M  V30 682 H 62.5893 1.52688 -0.334078 0
M  V30 683 H 63.3243 2.57265 1.97447 0
M  V30 684 H 63.1093 3.85 0.742812 0
M  V30 685 H 64.5993 3.80001 1.73172 0
M  V30 686 N 65.0364 0.313813 1.54444 0
M  V30 687 C 65.9664 -0.549454 2.26943 0
M  V30 688 C 66.9474 -1.12741 1.27372 0
M  V30 689 O 68.1324 -1.15436 1.56167 0
M  V30 690 C 65.2624 -1.71523 3.01989 0
M  V30 691 C 64.2164 -1.26703 4.08816 0
M  V30 692 C 63.5424 -2.51898 4.71647 0
M  V30 693 C 64.8424 -0.388962 5.2085 0
M  V30 694 H 66.5364 0.0552661 2.99349 0
M  V30 695 H 64.0824 0.0280207 1.43973 0
M  V30 696 H 66.0354 -2.32535 3.51433 0
M  V30 697 H 64.7594 -2.34639 2.27183 0
M  V30 698 H 63.4184 -0.679896 3.6024 0
M  V30 699 H 63.0664 -3.13356 3.93468 0
M  V30 700 H 62.7664 -2.22605 5.43802 0
M  V30 701 H 64.2904 -3.1369 5.23861 0
M  V30 702 H 65.7044 -0.905107 5.6611 0
M  V30 703 H 64.1014 -0.18924 5.99802 0
M  V30 704 H 65.1714 0.582699 4.81386 0
M  V30 705 N 66.5145 -1.57545 0.0417849 0
M  V30 706 C 67.4625 -2.12148 -0.953723 0
M  V30 707 C 68.4565 -1.05104 -1.32852 0
M  V30 708 O 69.6625 -1.23524 -1.30927 0
M  V30 709 H 66.0375 -0.677957 -0.325389 0
M  V30 710 H 68.0085 -2.94707 -0.467991 0
M  V30 711 C 66.7575 -2.6739 -2.22257 0
M  V30 712 H 66.0805 -3.49413 -1.94295 0
M  V30 713 H 67.5205 -3.09227 -2.90094 0
M  V30 714 C 65.9795 -1.60723 -2.96091 0
M  V30 715 O 66.5095 -1.01449 -3.88679 0
M  V30 716 N 64.7155 -1.32466 -2.58652 0
M  V30 717 H 64.2625 -1.80856 -1.83437 0
M  V30 718 H 64.2205 -0.61325 -3.08361 0
M  V30 719 N 67.9926 0.231505 -1.5589 0
M  V30 720 C 69.2176 0.978689 -1.82856 0
M  V30 721 C 69.6426 1.77559 -0.620846 0
M  V30 722 O 69.0006 1.76119 0.430305 0
M  V30 723 C 69.0486 1.87997 -3.07716 0
M  V30 724 O 68.1526 2.97393 -2.85712 0
M  V30 725 H 67.4936 0.277663 -0.603158 0
M  V30 726 H 70.0236 0.24783 -2.03093 0
M  V30 727 H 70.0336 2.2917 -3.37558 0
M  V30 728 H 68.7086 1.29417 -3.95252 0
M  V30 729 H 67.2856 2.60238 -2.67078 0
M  V30 730 N 69.4707 1.49531 0.497807 0
M  V30 731 C 70.7167 1.59415 1.25358 0
M  V30 732 C 71.0497 0.281422 1.9215 0
M  V30 733 O 70.3247 -0.715249 1.80871 0
M  V30 734 C 70.6077 2.75566 2.3181 0
M  V30 735 C 70.4607 4.16642 1.69498 0
M  V30 736 C 71.7797 2.87347 3.33346 0
M  V30 737 H 68.8987 0.580244 0.454408 0
M  V30 738 H 71.5407 1.81827 0.551262 0
M  V30 739 H 69.6907 2.56587 2.91711 0
M  V30 740 H 71.3627 4.47145 1.13399 0
M  V30 741 H 69.6057 4.22141 0.998978 0
M  V30 742 H 70.2767 4.93792 2.46725 0
M  V30 743 H 72.7527 3.04634 2.83438 0
M  V30 744 H 71.6287 3.70289 4.05188 0
M  V30 745 H 71.8897 1.96834 3.95865 0
M  V30 746 N 70.9488 -0.749086 1.3866 0
M  V30 747 C 72.1958 -1.50833 1.35114 0
M  V30 748 C 72.5238 -1.94415 -0.0574049 0
M  V30 749 O 71.7788 -1.66065 -1.03541 0
M  V30 750 C 72.0778 -2.7712 2.25697 0
M  V30 751 C 71.7438 -2.52477 3.73585 0
M  V30 752 C 70.4058 -2.45466 4.13884 0
M  V30 753 C 72.7578 -2.31066 4.67181 0
M  V30 754 C 70.0858 -2.15064 5.45861 0
M  V30 755 C 72.4378 -2.02183 5.9942 0
M  V30 756 C 71.1018 -1.93631 6.38798 0
M  V30 757 H 70.3718 -0.551936 0.494416 0
M  V30 758 H 73.0188 -0.860979 1.71054 0
M  V30 759 H 71.3238 -3.46528 1.82827 0
M  V30 760 H 73.0208 -3.35096 2.20254 0
M  V30 761 H 69.6108 -2.58807 3.41638 0
M  V30 762 H 73.7948 -2.35459 4.3689 0
M  V30 763 H 69.0508 -2.06954 5.75308 0
M  V30 764 H 73.2248 -1.8462 6.71482 0
M  V30 765 H 70.8518 -1.69839 7.40985 0
M  V30 766 N 72.4269 -1.23603 -0.977757 0
M  V30 767 C 73.3749 -1.01704 -2.09187 0
M  V30 768 C 74.3689 0.0448214 -1.69341 0
M  V30 769 O 75.5749 -0.108902 -1.7967 0
M  V30 770 H 71.9499 -0.311803 -0.684312 0
M  V30 771 H 73.9209 -1.96207 -2.24823 0
M  V30 772 C 72.6699 -0.627746 -3.41986 0
M  V30 773 H 71.9929 -1.43656 -3.73099 0
M  V30 774 H 73.4329 -0.514053 -4.20872 0
M  V30 775 C 71.8919 0.664238 -3.30287 0
M  V30 776 O 72.4219 1.71268 -3.6336 0
M  V30 777 N 70.6279 0.641156 -2.83439 0
M  V30 778 H 70.1749 -0.212376 -2.56723 0
M  V30 779 H 70.1329 1.50583 -2.75993 0
M  V30 780 N 73.905 1.17692 -1.04816 0
M  V30 781 C 75.321 1.39863 -0.768794 0
M  V30 782 C 75.521 1.91118 0.638451 0
M  V30 783 O 74.577 2.10036 1.40146 0
M  V30 784 C 75.89 2.39274 -1.82122 0
M  V30 785 C 77.438 2.52987 -1.843 0
M  V30 786 C 77.913 3.55669 -2.88555 0
M  V30 787 N 79.404 3.63183 -2.87493 0
M  V30 788 C 80.139 4.42381 -3.64811 0
M  V30 789 N 79.635 5.25125 -4.51903 0
M  V30 790 N 81.428 4.37217 -3.53267 0
M  V30 791 H 73.579 0.82752 -1.95617 0
M  V30 792 H 75.842 0.426123 -0.846831 0
M  V30 793 H 75.548 2.08678 -2.83102 0
M  V30 794 H 75.422 3.38725 -1.65967 0
M  V30 795 H 77.809 2.82896 -0.839869 0
M  V30 796 H 77.89 1.53623 -2.04532 0
M  V30 797 H 77.534 3.26499 -3.89051 0
M  V30 798 H 77.464 4.54728 -2.65575 0
M  V30 799 H 79.955 3.04103 -2.24343 0
M  V30 800 H 80.268 5.82728 -5.07591 0
M  V30 801 H 78.613 5.24519 -4.55966 0
M  V30 802 H 81.804 3.71626 -2.84625 0
M  V30 803 H 81.977 4.98696 -4.13771 0
M  V30 804 N 75.3831 0.828654 1.34056 0
M  V30 805 C 76.3301 0.252567 2.29414 0
M  V30 806 C 77.3001 -0.62588 1.53857 0
M  V30 807 O 78.4851 -0.566312 1.82202 0
M  V30 808 C 75.6251 -0.574831 3.40279 0
M  V30 809 C 74.7381 0.326499 4.30764 0
M  V30 810 C 73.8731 -0.511016 5.28736 0
M  V30 811 C 72.9121 0.389342 6.1086 0
M  V30 812 N 72.0491 -0.409439 7.00905 0
M  V30 813 H 76.8891 1.07108 2.78086 0
M  V30 814 H 74.4261 0.539677 1.36843 0
M  V30 815 H 76.3841 -1.06992 4.03248 0
M  V30 816 H 75.0141 -1.35841 2.92826 0
M  V30 817 H 74.0661 0.939837 3.68607 0
M  V30 818 H 75.3781 1.01857 4.88289 0
M  V30 819 H 74.5321 -1.07035 5.97184 0
M  V30 820 H 73.2711 -1.23657 4.71763 0
M  V30 821 H 72.2761 0.960769 5.4134 0
M  V30 822 H 73.5011 1.1131 6.69916 0
M  V30 823 H 71.4471 -1.11856 6.46393 0
M  V30 824 H 71.3641 0.224126 7.55668 0
M  V30 825 H 72.6321 -0.951336 7.73673 0
M  V30 826 N 76.8612 -1.46375 0.584142 0
M  V30 827 C 78.2722 -1.86031 0.157959 0
M  V30 828 C 78.6232 -1.48753 -1.27933 0
M  V30 829 O 77.7482 -0.903098 -1.96655 0
M  V30 830 C 78.3432 -3.37642 0.279892 0
M  V30 831 C 76.9022 -3.76289 -0.09143 0
M  V30 832 C 76.0492 -2.7039 0.615178 0
M  V30 833 H 79.0002 -1.37509 0.792274 0
M  V30 834 H 79.0212 -3.77275 -0.494364 0
M  V30 835 H 78.5332 -3.64742 1.32607 0
M  V30 836 H 76.6342 -3.54806 -1.13769 0
M  V30 837 H 76.7472 -4.78246 0.285886 0
M  V30 838 H 75.1112 -2.5464 0.0552833 0
M  V30 839 H 75.8942 -3.0033 1.66303 0
M  V30 840 N 78.3393 -0.321999 -1.54275 0
M  V30 841 C 79.5863 0.281044 -2.0054 0
M  V30 842 C 79.9143 1.52265 -1.21019 0
M  V30 843 O 79.1693 1.93687 -0.279982 0
M  V30 844 C 79.4683 0.661769 -3.5122 0
M  V30 845 C 79.1343 -0.480482 -4.48333 0
M  V30 846 C 77.7963 -0.794005 -4.74604 0
M  V30 847 C 80.1483 -1.24783 -5.06042 0
M  V30 848 C 77.4763 -1.87763 -5.55844 0
M  V30 849 C 79.8283 -2.32153 -5.88462 0
M  V30 850 C 78.4923 -2.64089 -6.13036 0
M  V30 851 H 77.7623 0.102841 -0.733829 0
M  V30 852 H 80.4093 -0.445453 -1.86247 0
M  V30 853 H 78.7143 1.46867 -3.63232 0
M  V30 854 H 80.4113 1.13989 -3.84457 0
M  V30 855 H 77.0013 -0.226039 -4.28004 0
M  V30 856 H 81.1853 -1.01887 -4.85729 0
M  V30 857 H 76.4413 -2.12954 -5.73115 0
M  V30 858 H 80.6153 -2.92057 -6.32199 0
M  V30 859 H 78.2423 -3.48185 -6.75775 0
M  V30 860 N 79.8174 1.5752 -0.0501392 0
M  V30 861 C 81.2334 1.56631 0.306402 0
M  V30 862 C 81.4334 1.0577 1.71508 0
M  V30 863 O 80.4894 0.713837 2.422 0
M  V30 864 C 81.8024 3.00393 0.135811 0
M  V30 865 C 83.3504 3.12315 0.206993 0
M  V30 866 C 83.8254 4.57954 0.064944 0
M  V30 867 N 85.3164 4.63041 0.121254 0
M  V30 868 C 86.0514 5.73389 0.0354381 0
M  V30 869 N 85.5474 6.92724 -0.102666 0
M  V30 870 N 87.3404 5.62026 0.090946 0
M  V30 871 H 79.4914 1.88903 -0.971046 0
M  V30 872 H 81.7544 0.869876 -0.376855 0
M  V30 873 H 81.4604 3.41635 -0.835384 0
M  V30 874 H 81.3344 3.66373 0.897275 0
M  V30 875 H 83.7214 2.70973 1.16866 0
M  V30 876 H 83.8024 2.49016 -0.585208 0
M  V30 877 H 83.4464 4.99981 -0.893394 0
M  V30 878 H 83.3764 5.19258 0.876277 0
M  V30 879 H 85.8674 3.77216 0.227284 0
M  V30 880 H 86.1804 7.72633 -0.160882 0
M  V30 881 H 84.5254 6.94864 -0.137737 0
M  V30 882 H 87.7164 4.67684 0.197388 0
M  V30 883 H 87.8894 6.47997 0.0206089 0
M  V30 884 N 81.2955 -0.223234 1.56011 0
M  V30 885 C 82.7065 -0.790368 1.69145 0
M  V30 886 C 83.0575 -1.85055 0.651845 0
M  V30 887 O 82.1825 -2.15498 -0.197359 0
M  V30 888 C 82.7775 -1.4404 3.06656 0
M  V30 889 C 81.3365 -1.95494 3.2165 0
M  V30 890 C 80.4835 -0.814506 2.65068 0
M  V30 891 H 83.4345 0.00139011 1.587 0
M  V30 892 H 83.4555 -2.30916 3.0242 0
M  V30 893 H 82.9675 -0.668543 3.82298 0
M  V30 894 H 81.0685 -2.75487 2.50874 0
M  V30 895 H 81.1815 -2.13607 4.28846 0
M  V30 896 H 79.5455 -1.22137 2.23505 0
M  V30 897 H 80.3285 -0.0553515 3.43255 0
M  V30 898 N 82.7736 -1.49793 -0.48987 0
M  V30 899 C 84.0196 -1.60078 -1.24511 0
M  V30 900 C 84.3526 -0.291608 -1.91998 0
M  V30 901 O 83.6276 0.705647 -1.81248 0
M  V30 902 C 83.9106 -2.76791 -2.30345 0
M  V30 903 C 83.7636 -4.17535 -1.67286 0
M  V30 904 C 85.0826 -2.89111 -3.31817 0
M  V30 905 H 82.2016 -0.582645 -0.451324 0
M  V30 906 H 84.8436 -1.82117 -0.541612 0
M  V30 907 H 82.9936 -2.5813 -2.90346 0
M  V30 908 H 84.6656 -4.4774 -1.11026 0
M  V30 909 H 82.9086 -4.22665 -0.976577 0
M  V30 910 H 83.5796 -4.95094 -2.44103 0
M  V30 911 H 86.0556 -3.06133 -2.81819 0
M  V30 912 H 84.9316 -3.72433 -4.03219 0
M  V30 913 H 85.1926 -1.9893 -3.94815 0
M  V30 914 N 84.2517 0.741722 -1.39055 0
M  V30 915 C 85.4797 1.53098 -1.39171 0
M  V30 916 C 85.8947 1.88794 0.0155099 0
M  V30 917 O 85.2517 1.53626 0.985159 0
M  V30 918 C 85.3027 2.82274 -2.2584 0
M  V30 919 O 85.0237 2.48097 -3.61081 0
M  V30 920 C 86.5247 3.76343 -2.34266 0
M  V30 921 H 83.7447 0.473335 -0.4756 0
M  V30 922 H 86.2887 0.917045 -1.82785 0
M  V30 923 H 84.4437 3.40015 -1.85656 0
M  V30 924 H 84.8577 3.31029 -4.06842 0
M  V30 925 H 86.3317 4.63898 -2.9917 0
M  V30 926 H 86.8087 4.17619 -1.35982 0
M  V30 927 H 87.4147 3.24523 -2.74891 0
M  V30 928 N 85.7298 1.2412 0.971189 0
M  V30 929 C 86.6778 1.02812 2.08644 0
M  V30 930 C 87.6718 -0.0358403 1.69362 0
M  V30 931 O 88.8778 0.118429 1.7961 0
M  V30 932 H 85.2528 0.315428 0.682649 0
M  V30 933 H 87.2238 1.97397 2.23779 0
M  V30 934 C 85.9728 0.645874 3.41649 0
M  V30 935 H 85.2958 1.45632 3.72332 0
M  V30 936 H 86.7358 0.536366 4.20594 0
M  V30 937 C 85.1948 -0.646713 3.30635 0
M  V30 938 O 85.7248 -1.69338 3.64263 0
M  V30 939 N 83.9308 -0.626115 2.83775 0
M  V30 940 H 83.4778 0.225988 2.56607 0
M  V30 941 H 83.4358 -1.49117 2.76788 0
M  V30 942 N 87.2079 -1.17134 1.05439 0
M  V30 943 C 88.4569 -1.86791 0.761049 0
M  V30 944 C 88.7699 -1.82072 -0.714795 0
M  V30 945 O 89.9759 -2.47223 -1.12218 0
M  V30 946 C 88.4319 -3.35166 1.31117 0
M  V30 947 C 88.0399 -3.48381 2.81664 0
M  V30 948 C 89.7839 -4.10134 1.09499 0
M  V30 949 C 87.6909 -4.90793 3.29964 0
M  V30 950 H 86.6209 -0.699681 0.281002 0
M  V30 951 H 89.2719 -1.3226 1.27199 0
M  V30 952 H 87.6539 -3.8925 0.72803 0
M  V30 953 H 88.8279 -3.04502 3.45855 0
M  V30 954 H 87.1429 -2.86836 3.01851 0
M  V30 955 H 89.7399 -5.152 1.43084 0
M  V30 956 H 90.0829 -4.16287 0.0328772 0
M  V30 957 H 90.6159 -3.62264 1.64346 0
M  V30 958 H 87.3549 -4.89816 4.35616 0
M  V30 959 H 86.8749 -5.35333 2.70516 0
M  V30 960 H 88.5539 -5.59573 3.24787 0
M  V30 961 N 88.686 -0.835752 -1.33615 0
M  V30 962 C 89.911 -0.442389 -2.02627 0
M  V30 963 C 90.336 0.947735 -1.62479 0
M  V30 964 O 89.694 1.61907 -0.815826 0
M  V30 965 C 89.742 -0.567216 -3.56111 0
M  V30 966 O 88.846 0.407799 -4.10379 0
M  V30 967 H 88.187 -0.180278 -0.639059 0
M  V30 968 H 90.717 -1.12972 -1.70583 0
M  V30 969 H 90.727 -0.447708 -4.05536 0
M  V30 970 H 89.402 -1.58103 -3.84677 0
M  V30 971 H 87.979 0.246107 -3.72087 0
M  V30 972 N 90.1641 1.46063 -0.591896 0
M  V30 973 C 91.4101 2.02638 -0.0811191 0
M  V30 974 C 91.7431 1.4613 1.27905 0
M  V30 975 O 91.0181 0.629908 1.84017 0
M  V30 976 C 91.3011 3.60091 -0.0252436 0
M  V30 977 C 91.1541 4.26965 -1.41496 0
M  V30 978 C 92.4731 4.3496 0.670685 0
M  V30 979 H 89.5921 0.73635 -0.0309524 0
M  V30 980 H 92.2341 1.741 -0.760859 0
M  V30 981 H 90.3841 3.84535 0.553624 0
M  V30 982 H 92.0561 4.13756 -2.0397 0
M  V30 983 H 90.2991 3.85971 -1.98011 0
M  V30 984 H 90.9701 5.35781 -1.32825 0
M  V30 985 H 93.4461 4.15716 0.178825 0
M  V30 986 H 92.3221 5.44686 0.678837 0
M  V30 987 H 92.5831 4.06685 1.73379 0
M  V30 988 N 91.6422 0.330177 1.54103 0
M  V30 989 C 93.0532 -0.15652 1.86043 0
M  V30 990 C 93.4042 -1.51086 1.2517 0
M  V30 991 O 92.5292 -2.09023 0.560217 0
M  V30 992 C 93.1242 -0.290784 3.3755 0
M  V30 993 C 91.6832 -0.721705 3.69416 0
M  V30 994 C 90.8302 0.152622 2.7688 0
M  V30 995 H 93.7812 0.550237 1.48856 0
M  V30 996 H 93.8022 -1.12058 3.63625 0
M  V30 997 H 93.3142 0.695068 3.81825 0
M  V30 998 H 91.4152 -1.71706 3.30678 0
M  V30 999 H 91.5282 -0.520869 4.7626 0
M  V30 1000 H 89.8922 -0.372894 2.51956 0
M  V30 1001 H 90.6752 1.13536 3.23982 0
M  V30 1002 N 93.1203 -1.57491 0.0584922 0
M  V30 1003 C 94.3483 -1.97296 -0.623037 0
M  V30 1004 C 94.7633 -0.936338 -1.63946 0
M  V30 1005 O 94.1203 0.0785981 -1.82331 0
M  V30 1006 C 94.1713 -3.37183 -1.30345 0
M  V30 1007 O 93.8923 -4.36872 -0.32773 0
M  V30 1008 C 95.3933 -3.91788 -2.07406 0
M  V30 1009 H 92.6133 -0.649153 -0.169826 0
M  V30 1010 H 95.1573 -2.04106 0.12696 0
M  V30 1011 H 93.3123 -3.31502 -2.00463 0
M  V30 1012 H 93.7263 -5.18141 -0.814269 0
M  V30 1013 H 95.2003 -4.91926 -2.50425 0
M  V30 1014 H 95.6773 -3.27609 -2.92521 0
M  V30 1015 H 96.2833 -4.00829 -1.42184 0
M  V30 1016 N 94.5984 0.214957 -1.56127 0
M  V30 1017 C 95.5304 1.29004 -1.89448 0
M  V30 1018 C 96.5434 1.42716 -0.783326 0
M  V30 1019 O 97.7324 1.43496 -1.06166 0
M  V30 1020 C 94.8324 2.66482 -2.09381 0
M  V30 1021 C 94.0054 2.74633 -3.40434 0
M  V30 1022 C 93.0644 3.9317 -3.49719 0
M  V30 1023 O 92.0904 3.812 -4.227 0
M  V30 1024 N 93.2924 5.07765 -2.81346 0
M  V30 1025 H 96.0574 1.00743 -2.82261 0
M  V30 1026 H 93.6184 0.40497 -1.56753 0
M  V30 1027 H 95.6104 3.44173 -2.12901 0
M  V30 1028 H 94.1804 2.87314 -1.23163 0
M  V30 1029 H 93.4004 1.83368 -3.48955 0
M  V30 1030 H 94.6884 2.77054 -4.26754 0
M  V30 1031 H 94.0864 5.20386 -2.21843 0
M  V30 1032 H 92.6434 5.83474 -2.90519 0
M  V30 1033 N 96.0765 1.50051 0.48192 0
M  V30 1034 C 97.3225 1.60736 1.2366 0
M  V30 1035 C 97.6555 0.301786 1.91841 0
M  V30 1036 O 96.9305 -0.696025 1.8162 0
M  V30 1037 C 97.2135 2.78009 2.28874 0
M  V30 1038 C 97.0665 4.18416 1.65069 0
M  V30 1039 C 98.3855 2.90867 3.30279 0
M  V30 1040 H 95.5045 0.585031 0.448228 0
M  V30 1041 H 98.1465 1.82402 0.531946 0
M  V30 1042 H 96.2965 2.59667 2.88973 0
M  V30 1043 H 97.9685 4.48322 1.0865 0
M  V30 1044 H 96.2115 4.23177 0.954148 0
M  V30 1045 H 96.8825 4.96381 2.41474 0
M  V30 1046 H 99.3585 3.07623 2.80191 0
M  V30 1047 H 98.2345 3.74566 4.01238 0
M  V30 1048 H 98.4955 2.01021 3.93755 0
M  V30 1049 N 97.5546 -0.734337 1.39446 0
M  V30 1050 C 98.5026 -1.86971 1.38364 0
M  V30 1051 C 99.4966 -1.67288 0.266687 0
M  V30 1052 O 100.703 -1.74621 0.436755 0
M  V30 1053 H 97.0776 -0.615474 0.432082 0
M  V30 1054 H 99.0486 -1.85 2.34132 0
M  V30 1055 C 97.7976 -3.2466 1.24465 0
M  V30 1056 H 97.1206 -3.40402 2.09682 0
M  V30 1057 H 98.5606 -4.04292 1.27764 0
M  V30 1058 C 97.0196 -3.36867 -0.0468674 0
M  V30 1059 O 97.5496 -3.88618 -1.01681 0
M  V30 1060 N 95.7556 -2.90391 -0.110145 0
M  V30 1061 H 95.3026 -2.48466 0.679868 0
M  V30 1062 H 95.2606 -2.98939 -0.973799 0
M  V30 1063 N 99.0327 -1.24633 -0.964593 0
M  V30 1064 C 100.282 -1.08188 -1.7023 0
M  V30 1065 C 100.595 0.37873 -1.91898 0
M  V30 1066 O 101.801 0.663427 -2.6327 0
M  V30 1067 C 100.257 -1.88773 -3.06419 0
M  V30 1068 C 99.8647 -3.39263 -2.92582 0
M  V30 1069 C 101.609 -1.80867 -3.84041 0
M  V30 1070 C 99.5157 -4.1218 -4.24101 0
M  V30 1071 H 98.4457 -0.401245 -0.638372 0
M  V30 1072 H 101.097 -1.48742 -1.07462 0
M  V30 1073 H 99.4787 -1.41035 -3.70034 0
M  V30 1074 H 100.653 -3.94603 -2.37961 0
M  V30 1075 H 98.9677 -3.48154 -2.28424 0
M  V30 1076 H 101.565 -2.32646 -4.81435 0
M  V30 1077 H 101.908 -0.774543 -4.09031 0
M  V30 1078 H 102.441 -2.26301 -3.27159 0
M  V30 1079 H 99.1797 -5.15965 -4.04303 0
M  V30 1080 H 98.6997 -3.61626 -4.78526 0
M  V30 1081 H 100.379 -4.19349 -4.92702 0
M  V30 1082 N 100.511 1.16574 -1.06058 0
M  V30 1083 C 101.736 1.91493 -0.796562 0
M  V30 1084 C 102.161 1.76773 0.642868 0
M  V30 1085 O 101.519 1.09142 1.44768 0
M  V30 1086 C 101.567 3.40293 -1.19303 0
M  V30 1087 O 100.671 4.11074 -0.330394 0
M  V30 1088 H 100.012 0.596678 -0.291326 0
M  V30 1089 H 102.542 1.47708 -1.41575 0
M  V30 1090 H 102.552 3.91057 -1.16356 0
M  V30 1091 H 101.227 3.50326 -2.24153 0
M  V30 1092 H 99.8038 3.70513 -0.421225 0
M  V30 1093 N 101.989 0.842826 1.3317 0
M  V30 1094 C 103.236 0.440447 1.97652 0
M  V30 1095 C 103.564 -1.00123 1.6675 0
M  V30 1096 O 102.819 -1.7155 0.941761 0
M  V30 1097 C 103.118 0.612607 3.52111 0
M  V30 1098 C 102.784 2.02297 4.02972 0
M  V30 1099 C 101.446 2.40874 4.16573 0
M  V30 1100 C 103.798 2.94402 4.30089 0
M  V30 1101 C 101.126 3.70852 4.54627 0
M  V30 1102 C 103.478 4.23865 4.69597 0
M  V30 1103 C 102.142 4.62392 4.81404 0
M  V30 1104 H 101.412 0.161171 0.72326 0
M  V30 1105 H 104.059 1.07061 1.58777 0
M  V30 1106 H 102.364 -0.100849 3.9167 0
M  V30 1107 H 104.061 0.2815 4.00011 0
M  V30 1108 H 100.651 1.71338 3.92863 0
M  V30 1109 H 104.835 2.65835 4.19101 0
M  V30 1110 H 100.091 4.00501 4.61962 0
M  V30 1111 H 104.265 4.95306 4.89536 0
M  V30 1112 H 101.892 5.63154 5.10648 0
M  V30 1113 N 103.467 -1.45747 0.599634 0
M  V30 1114 C 104.43 -2.28917 -0.113835 0
M  V30 1115 C 105.43 -1.3933 -0.802729 0
M  V30 1116 O 106.62 -1.61534 -0.652103 0
M  V30 1117 C 103.752 -3.20152 -1.17114 0
M  V30 1118 H 104.945 -2.93478 0.617289 0
M  V30 1119 H 102.498 -1.52137 0.358327 0
M  V30 1120 H 103.233 -2.60374 -1.93329 0
M  V30 1121 H 103.018 -3.86133 -0.681468 0
M  V30 1122 H 104.508 -3.82708 -1.67105 0
M  V30 1123 N 104.945 -0.338344 -1.53925 0
M  V30 1124 C 105.878 0.563758 -2.21127 0
M  V30 1125 C 106.856 1.10433 -1.19345 0
M  V30 1126 O 108.04 1.16557 -1.48144 0
M  V30 1127 C 105.167 1.77505 -2.88461 0
M  V30 1128 C 104.213 1.3644 -4.04087 0
M  V30 1129 S 105.046 0.388593 -5.34088 0
M  V30 1130 C 106.202 1.60683 -6.04923 0
M  V30 1131 H 106.435 -0.00704546 -2.97299 0
M  V30 1132 H 103.968 -0.122418 -1.53914 0
M  V30 1133 H 105.926 2.46999 -3.27875 0
M  V30 1134 H 104.587 2.31706 -2.12064 0
M  V30 1135 H 103.78 2.26739 -4.50117 0
M  V30 1136 H 103.382 0.748998 -3.66423 0
M  V30 1137 H 105.674 2.54209 -6.28 0
M  V30 1138 H 106.617 1.18842 -6.98056 0
M  V30 1139 H 107.025 1.80052 -5.35015 0
M  V30 1140 N 106.423 1.57458 -0.0668435 0
M  V30 1141 C 107.648 1.9804 0.616027 0
M  V30 1142 C 108.073 0.944771 1.62652 0
M  V30 1143 O 107.431 -0.0902094 1.81075 0
M  V30 1144 C 107.479 3.37665 1.26549 0
M  V30 1145 O 106.583 3.36701 2.38131 0
M  V30 1146 H 105.924 0.644719 0.158849 0
M  V30 1147 H 108.454 2.04121 -0.139891 0
M  V30 1148 H 108.464 3.7474 1.6135 0
M  V30 1149 H 107.139 4.12573 0.525016 0
M  V30 1150 H 105.716 3.1139 2.0516 0
M  V30 1151 N 107.901 -0.206675 1.56239 0
M  V30 1152 C 108.864 -1.23976 1.92776 0
M  V30 1153 C 109.864 -1.39041 0.807729 0
M  V30 1154 O 111.054 -1.37051 1.0753 0
M  V30 1155 C 108.186 -2.61112 2.19165 0
M  V30 1156 H 109.379 -0.927764 2.85189 0
M  V30 1157 H 106.932 -0.447718 1.4975 0
M  V30 1158 H 107.667 -2.97386 1.29352 0
M  V30 1159 H 107.452 -2.51552 3.00772 0
M  V30 1160 H 108.942 -3.35633 2.48476 0
M  V30 1161 N 109.379 -1.50304 -0.473955 0
M  V30 1162 C 110.628 -1.60392 -1.22301 0
M  V30 1163 C 110.941 -0.308411 -1.93153 0
M  V30 1164 O 112.147 -0.288156 -2.69966 0
M  V30 1165 C 110.603 -2.83109 -2.2221 0
M  V30 1166 C 110.211 -4.19524 -1.57173 0
M  V30 1167 C 111.955 -3.0254 -2.97775 0
M  V30 1168 C 109.862 -5.33431 -2.55353 0
M  V30 1169 H 108.792 -0.597286 -0.460179 0
M  V30 1170 H 111.443 -1.76731 -0.493803 0
M  V30 1171 H 109.825 -2.60322 -2.9841 0
M  V30 1172 H 110.999 -4.52554 -0.867824 0
M  V30 1173 H 109.314 -4.05674 -0.939002 0
M  V30 1174 H 111.911 -3.84811 -3.71248 0
M  V30 1175 H 112.254 -2.14154 -3.56992 0
M  V30 1176 H 112.787 -3.25494 -2.28688 0
M  V30 1177 H 109.526 -6.23962 -2.00878 0
M  V30 1178 H 109.046 -5.04823 -3.23904 0
M  V30 1179 H 110.725 -5.63887 -3.17239 0
M  V30 1180 N 110.857 0.726932 -1.39834 0
M  V30 1181 C 111.787 1.85405 -1.41941 0
M  V30 1182 C 112.768 1.67751 -0.281728 0
M  V30 1183 O 113.953 1.8795 -0.488717 0
M  V30 1184 C 111.083 3.23243 -1.2701 0
M  V30 1185 C 110.037 3.55549 -2.38262 0
M  V30 1186 C 109.363 4.9241 -2.08415 0
M  V30 1187 C 110.663 3.577 -3.80589 0
M  V30 1188 H 112.357 1.83899 -2.36266 0
M  V30 1189 H 109.903 0.883349 -1.13723 0
M  V30 1190 H 111.856 4.01775 -1.27103 0
M  V30 1191 H 110.58 3.25296 -0.291564 0
M  V30 1192 H 109.239 2.79351 -2.37399 0
M  V30 1193 H 108.887 4.91052 -1.0898 0
M  V30 1194 H 108.587 5.14992 -2.82943 0
M  V30 1195 H 110.111 5.73289 -2.10171 0
M  V30 1196 H 111.525 4.26293 -3.83337 0
M  V30 1197 H 109.922 3.91804 -4.54543 0
M  V30 1198 H 110.992 2.57328 -4.10987 0
M  V30 1199 N 112.336 1.25143 0.95797 0
M  V30 1200 C 113.613 1.00472 1.67823 0
M  V30 1201 C 113.993 -0.470056 2.058 0
M  V30 1202 O 113.341 -1.44663 1.76875 0
M  V30 1203 C 113.551 1.9372 2.90299 0
M  V30 1204 C 114.899 2.21371 3.62326 0
M  V30 1205 O 115.923 1.91451 3.00375 0
M  V30 1206 O 114.782 2.72231 4.7387 0
M  V30 1207 H 111.876 0.380752 0.734137 0
M  V30 1208 H 114.422 1.36283 1.01119 0
M  V30 1209 H 113.194 2.93316 2.59001 0
M  V30 1210 H 112.817 1.58286 3.64735 0
M  V30 1211 N 113.814 -1.1601 1.06675 0
M  V30 1212 C 115.06 -1.86909 0.786945 0
M  V30 1213 C 115.393 -1.81717 -0.685018 0
M  V30 1214 O 114.668 -1.23551 -1.50218 0
M  V30 1215 C 114.951 -3.36313 1.28707 0
M  V30 1216 C 114.804 -3.50175 2.82308 0
M  V30 1217 C 116.123 -4.3084 0.898071 0
M  V30 1218 H 113.242 -0.678677 0.287343 0
M  V30 1219 H 115.884 -1.36336 1.32334 0
M  V30 1220 H 114.034 -3.79513 0.830768 0
M  V30 1221 H 115.706 -3.15886 3.36175 0
M  V30 1222 H 113.949 -2.91959 3.20847 0
M  V30 1223 H 114.62 -4.55116 3.12368 0
M  V30 1224 H 117.096 -3.95561 1.29114 0
M  V30 1225 H 115.972 -5.33876 1.27543 0
M  V30 1226 H 116.233 -4.41662 -0.196651 0
M  V30 1227 N 115.292 -0.849877 -1.32721 0
M  V30 1228 C 116.24 -0.279745 -2.30912 0
M  V30 1229 C 117.234 0.594278 -1.58634 0
M  V30 1230 O 118.44 0.482613 -1.73409 0
M  V30 1231 H 114.815 -0.0717521 -0.748569 0
M  V30 1232 H 116.786 -1.12222 -2.76494 0
M  V30 1233 C 115.535 0.521108 -3.43773 0
M  V30 1234 H 114.858 -0.142141 -3.99547 0
M  V30 1235 H 116.298 0.885693 -4.14646 0
M  V30 1236 C 114.757 1.70442 -2.90605 0
M  V30 1237 O 115.287 2.8034 -2.87702 0
M  V30 1238 N 113.493 1.52991 -2.47067 0
M  V30 1239 H 113.04 0.635914 -2.49628 0
M  V30 1240 H 112.998 2.32311 -2.11847 0
M  V30 1241 N 116.77 1.45427 -0.607355 0
M  V30 1242 C 117.68 2.34325 0.113463 0
M  V30 1243 C 118.696 1.51226 0.860617 0
M  V30 1244 O 119.872 1.84029 0.818255 0
M  V30 1245 C 116.937 3.28839 1.09844 0
M  V30 1246 C 115.998 4.27844 0.353271 0
M  V30 1247 C 115.231 5.17842 1.29133 0
M  V30 1248 O 115.454 5.11264 2.52913 0
M  V30 1249 O 114.388 5.96713 0.788523 0
M  V30 1250 H 118.214 2.97364 -0.617094 0
M  V30 1251 H 115.799 1.44807 -0.367619 0
M  V30 1252 H 117.681 3.8708 1.66575 0
M  V30 1253 H 116.356 2.68365 1.81003 0
M  V30 1254 H 115.263 3.7322 -0.256494 0
M  V30 1255 H 116.596 4.91173 -0.317822 0
M  V30 1256 N 118.248 0.346503 1.53744 0
M  V30 1257 C 119.18 -0.543316 2.22667 0
M  V30 1258 C 120.193 -1.06159 1.23427 0
M  V30 1259 O 121.382 -0.971235 1.49764 0
M  V30 1260 C 118.482 -1.76076 2.89569 0
M  V30 1261 C 117.655 -1.37727 4.15151 0
M  V30 1262 C 116.714 -2.45471 4.65436 0
M  V30 1263 O 115.74 -2.08655 5.29577 0
M  V30 1264 N 116.942 -3.7677 4.41616 0
M  V30 1265 H 119.707 0.0469703 2.99663 0
M  V30 1266 H 117.268 0.170766 1.60997 0
M  V30 1267 H 119.26 -2.47593 3.20125 0
M  V30 1268 H 117.83 -2.25835 2.16142 0
M  V30 1269 H 117.05 -0.492746 3.91108 0
M  V30 1270 H 118.338 -1.09708 4.96832 0
M  V30 1271 H 117.736 -4.09467 3.90325 0
M  V30 1272 H 116.293 -4.44448 4.7677 0
M  V30 1273 N 119.726 -1.57421 0.075193 0
M  V30 1274 C 120.656 -2.15942 -0.888324 0
M  V30 1275 C 121.637 -1.08737 -1.30806 0
M  V30 1276 O 122.822 -1.36787 -1.37851 0
M  V30 1277 C 119.952 -2.72379 -2.1547 0
M  V30 1278 C 118.906 -3.8478 -1.87425 0
M  V30 1279 C 118.232 -4.27834 -3.20721 0
M  V30 1280 C 119.532 -5.08869 -1.17684 0
M  V30 1281 H 121.226 -2.96705 -0.400799 0
M  V30 1282 H 118.772 -1.42723 -0.191342 0
M  V30 1283 H 120.725 -3.11965 -2.83295 0
M  V30 1284 H 119.449 -1.88841 -2.6647 0
M  V30 1285 H 118.108 -3.45703 -1.22004 0
M  V30 1286 H 117.756 -3.41214 -3.6957 0
M  V30 1287 H 117.456 -5.03605 -3.02746 0
M  V30 1288 H 118.98 -4.70039 -3.89738 0
M  V30 1289 H 120.394 -5.4575 -1.75584 0
M  V30 1290 H 118.791 -5.8994 -1.09956 0
M  V30 1291 H 119.861 -4.84648 -0.156453 0
M  V30 1292 N 121.204 0.198386 -1.56346 0
M  V30 1293 C 122.154 1.2499 -1.90687 0
M  V30 1294 C 123.138 1.41158 -0.772217 0
M  V30 1295 O 124.33 1.43584 -1.03502 0
M  V30 1296 C 121.459 2.59542 -2.24706 0
M  V30 1297 C 120.545 2.47181 -3.44619 0
M  V30 1298 N 120.936 2.04495 -4.62618 0
M  V30 1299 C 119.234 2.78082 -3.48692 0
M  V30 1300 C 119.935 2.03945 -5.44776 0
M  V30 1301 N 118.911 2.45323 -4.85095 0
M  V30 1302 H 122.713 0.911149 -2.7942 0
M  V30 1303 H 120.227 0.40684 -1.57221 0
M  V30 1304 H 122.224 3.3549 -2.47491 0
M  V30 1305 H 120.884 2.94244 -1.37298 0
M  V30 1306 H 121.895 1.75256 -4.87345 0
M  V30 1307 H 118.572 3.17002 -2.71691 0
M  V30 1308 H 119.962 1.72872 -6.4928 0
M  V30 1309 N 122.682 1.50554 0.465978 0
M  V30 1310 C 123.612 1.72722 1.57128 0
M  V30 1311 C 124.593 0.576294 1.6004 0
M  V30 1312 O 125.778 0.81598 1.76225 0
M  V30 1313 C 122.908 1.82605 2.95419 0
M  V30 1314 C 121.862 2.97835 3.07373 0
M  V30 1315 C 121.188 2.92867 4.47363 0
M  V30 1316 C 122.488 4.38265 2.84114 0
M  V30 1317 H 124.182 2.65267 1.38829 0
M  V30 1318 H 121.728 1.2765 0.666441 0
M  V30 1319 H 123.681 1.96698 3.72677 0
M  V30 1320 H 122.405 0.866858 3.14886 0
M  V30 1321 H 121.064 2.83401 2.3255 0
M  V30 1322 H 120.712 1.94783 4.63755 0
M  V30 1323 H 120.412 3.70227 4.56296 0
M  V30 1324 H 121.936 3.09015 5.26633 0
M  V30 1325 H 123.35 4.53198 3.51118 0
M  V30 1326 H 121.747 5.17115 3.04487 0
M  V30 1327 H 122.817 4.50281 1.7993 0
M  V30 1328 N 124.16 -0.719506 1.40217 0
M  V30 1329 C 125.09 -1.8465 1.42922 0
M  V30 1330 C 126.071 -1.67599 0.29062 0
M  V30 1331 O 127.256 -1.87688 0.498677 0
M  V30 1332 C 124.386 -3.22565 1.28722 0
M  V30 1333 C 123.34 -3.54281 2.40144 0
M  V30 1334 C 122.666 -4.91298 2.11023 0
M  V30 1335 C 123.966 -3.55676 3.82481 0
M  V30 1336 H 125.66 -1.82644 2.37237 0
M  V30 1337 H 123.206 -0.877305 1.1419 0
M  V30 1338 H 125.159 -4.01095 1.29232 0
M  V30 1339 H 123.883 -3.25137 0.308811 0
M  V30 1340 H 122.542 -2.78088 2.38877 0
M  V30 1341 H 122.19 -4.90468 1.11582 0
M  V30 1342 H 121.89 -5.13485 2.8567 0
M  V30 1343 H 123.414 -5.72166 2.13209 0
M  V30 1344 H 124.828 -4.24254 3.85592 0
M  V30 1345 H 123.225 -3.89388 4.56614 0
M  V30 1346 H 124.295 -2.55144 4.12346 0
M  V30 1347 N 125.638 -1.25649 -0.95132 0
M  V30 1348 C 126.863 -1.13443 -1.73624 0
M  V30 1349 C 127.288 0.307565 -1.85568 0
M  V30 1350 O 126.646 1.22282 -1.33854 0
M  V30 1351 C 126.694 -1.79723 -3.12621 0
M  V30 1352 O 125.798 -1.07912 -3.98031 0
M  V30 1353 H 125.139 -0.395872 -0.533086 0
M  V30 1354 H 127.669 -1.66276 -1.1922 0
M  V30 1355 H 127.679 -1.86141 -3.63064 0
M  V30 1356 H 126.354 -2.84633 -3.03244 0
M  V30 1357 H 124.931 -1.09398 -3.56492 0
M  V30 1358 N 127.117 1.15442 -1.07289 0
M  V30 1359 C 128.342 1.90638 -0.816828 0
M  V30 1360 C 128.767 1.77445 0.624083 0
M  V30 1361 O 128.125 1.10671 1.43602 0
M  V30 1362 C 128.173 3.39008 -1.22906 0
M  V30 1363 O 127.277 4.10701 -0.373975 0
M  V30 1364 H 126.618 0.593555 -0.297638 0
M  V30 1365 H 129.148 1.46198 -1.43134 0
M  V30 1366 H 129.158 3.89801 -1.20497 0
M  V30 1367 H 127.833 3.47929 -2.27856 0
M  V30 1368 H 126.41 3.70046 -0.460499 0
M  V30 1369 N 128.595 0.856903 1.32268 0
M  V30 1370 C 129.842 0.461386 1.97174 0
M  V30 1371 C 130.17 -0.983491 1.67803 0
M  V30 1372 O 129.425 -1.70541 0.959903 0
M  V30 1373 C 129.724 0.649919 3.51441 0
M  V30 1374 C 129.39 2.0656 4.00804 0
M  V30 1375 C 128.052 2.45279 4.13995 0
M  V30 1376 C 130.404 2.98947 4.26943 0
M  V30 1377 C 127.732 3.75653 4.50668 0
M  V30 1378 C 130.084 4.28822 4.65075 0
M  V30 1379 C 128.748 4.67472 4.76472 0
M  V30 1380 H 128.018 0.168833 0.72151 0
M  V30 1381 H 130.665 1.08739 1.57633 0
M  V30 1382 H 128.97 -0.0593018 3.91755 0
M  V30 1383 H 130.667 0.32391 3.9969 0
M  V30 1384 H 127.257 1.75495 3.91024 0
M  V30 1385 H 131.441 2.70265 4.16258 0
M  V30 1386 H 126.697 4.05379 4.57688 0
M  V30 1387 H 130.871 5.0047 4.84255 0
M  V30 1388 H 128.498 5.68539 5.04646 0
M  V30 1389 N 130.073 -1.45103 0.615059 0
M  V30 1390 C 131.003 -2.33339 -0.0865619 0
M  V30 1391 C 131.984 -1.4727 -0.851209 0
M  V30 1392 O 133.169 -1.76026 -0.820281 0
M  V30 1393 C 130.299 -3.30095 -1.07956 0
M  V30 1394 C 129.253 -4.25858 -0.427628 0
M  V30 1395 C 128.579 -5.12361 -1.5294 0
M  V30 1396 C 129.879 -5.18165 0.655944 0
M  V30 1397 H 131.573 -2.92254 0.650224 0
M  V30 1398 H 129.119 -1.40532 0.314138 0
M  V30 1399 H 131.072 -3.90698 -1.57901 0
M  V30 1400 H 129.796 -2.69355 -1.84703 0
M  V30 1401 H 128.455 -3.66564 0.0510292 0
M  V30 1402 H 128.103 -4.47984 -2.28734 0
M  V30 1403 H 127.803 -5.77238 -1.09865 0
M  V30 1404 H 129.327 -5.75833 -2.03098 0
M  V30 1405 H 130.741 -5.72796 0.240257 0
M  V30 1406 H 129.138 -5.91559 1.00888 0
M  V30 1407 H 130.208 -4.60144 1.52957 0
M  V30 1408 N 131.551 -0.354651 -1.53558 0
M  V30 1409 C 132.797 0.231422 -2.02079 0
M  V30 1410 C 133.152 1.47308 -1.23767 0
M  V30 1411 O 132.445 1.8891 -0.319947 0
M  V30 1412 C 132.639 0.587121 -3.52545 0
M  V30 1413 C 132.468 -0.618513 -4.45426 0
M  V30 1414 C 131.238 -1.12724 -4.92566 0
M  V30 1415 C 133.436 -1.48039 -4.92533 0
M  V30 1416 N 131.418 -2.29404 -5.69427 0
M  V30 1417 C 132.789 -2.49397 -5.67628 0
M  V30 1418 C 134.844 -1.50454 -4.74624 0
M  V30 1419 C 133.547 -3.53013 -6.26717 0
M  V30 1420 C 135.573 -2.52958 -5.34571 0
M  V30 1421 C 134.935 -3.5304 -6.09543 0
M  V30 1422 H 131.034 0.0476909 -0.780544 0
M  V30 1423 H 133.618 -0.496727 -1.88257 0
M  V30 1424 H 131.789 1.28436 -3.6655 0
M  V30 1425 H 133.521 1.15734 -3.87799 0
M  V30 1426 H 130.276 -0.693577 -4.68494 0
M  V30 1427 H 130.7 -2.88347 -6.12524 0
M  V30 1428 H 135.342 -0.744356 -4.16196 0
M  V30 1429 H 133.06 -4.2992 -6.84247 0
M  V30 1430 H 136.646 -2.55667 -5.22614 0
M  V30 1431 H 135.526 -4.31056 -6.55103 0
M  V30 1432 N 133.029 1.57378 -0.0835403 0
M  V30 1433 C 133.959 2.1641 0.87686 0
M  V30 1434 C 134.94 1.09429 1.30228 0
M  V30 1435 O 136.125 1.37516 1.37124 0
M  V30 1436 C 133.255 2.73517 2.14022 0
M  V30 1437 C 132.209 3.85769 1.85381 0
M  V30 1438 C 131.535 4.29529 3.18448 0
M  V30 1439 C 132.835 5.09486 1.14984 0
M  V30 1440 H 134.529 2.96914 0.385059 0
M  V30 1441 H 132.075 1.42823 0.18377 0
M  V30 1442 H 134.028 3.13463 2.81636 0
M  V30 1443 H 132.752 1.90252 2.65465 0
M  V30 1444 H 131.411 3.46345 1.20169 0
M  V30 1445 H 131.059 3.43169 3.67755 0
M  V30 1446 H 130.759 5.05204 3.00071 0
M  V30 1447 H 132.283 4.72099 3.8724 0
M  V30 1448 H 133.697 5.46674 1.72687 0
M  V30 1449 H 132.094 5.90515 1.06826 0
M  V30 1450 H 133.164 4.84724 0.130749 0
M  V30 1451 N 134.507 -0.190092 1.56449 0
M  V30 1452 C 135.417 -1.25591 1.98152 0
M  V30 1453 C 136.433 -1.49519 0.889944 0
M  V30 1454 O 137.609 -1.62036 1.19609 0
M  V30 1455 C 134.674 -2.57916 2.3169 0
M  V30 1456 C 133.735 -2.42015 3.5458 0
M  V30 1457 C 132.968 -3.6803 3.8651 0
M  V30 1458 O 133.191 -4.72413 3.1966 0
M  V30 1459 O 132.125 -3.6326 4.79923 0
M  V30 1460 H 135.951 -0.931988 2.89046 0
M  V30 1461 H 133.536 -0.395488 1.4407 0
M  V30 1462 H 135.418 -3.36008 2.54316 0
M  V30 1463 H 134.093 -2.89925 1.43963 0
M  V30 1464 H 133 -1.62017 3.37196 0
M  V30 1465 H 134.333 -2.14937 4.4279 0
M  V30 1466 N 135.985 -1.50799 -0.457987 0
M  V30 1467 C 136.918 -1.65273 -1.57353 0
M  V30 1468 C 137.896 -0.500578 -1.54703 0
M  V30 1469 O 139.08 -0.721781 -1.74134 0
M  V30 1470 C 136.207 -1.64737 -2.95938 0
M  V30 1471 C 135.253 -2.8567 -3.16693 0
M  V30 1472 S 136.086 -4.46791 -2.95191 0
M  V30 1473 C 137.242 -4.48968 -4.36095 0
M  V30 1474 H 137.475 -2.59633 -1.44838 0
M  V30 1475 H 135.008 -1.40225 -0.64625 0
M  V30 1476 H 136.966 -1.65112 -3.7583 0
M  V30 1477 H 135.627 -0.715899 -3.05833 0
M  V30 1478 H 134.82 -2.81637 -4.17967 0
M  V30 1479 H 134.422 -2.8293 -2.44594 0
M  V30 1480 H 136.714 -4.23337 -5.28954 0
M  V30 1481 H 137.657 -5.50664 -4.45168 0
M  V30 1482 H 138.065 -3.78522 -4.18786 0
M  V30 1483 N 137.463 0.71206 -1.40597 0
M  V30 1484 C 138.709 1.47416 -1.39271 0
M  V30 1485 C 139.042 1.942 0.00388791 0
M  V30 1486 O 138.317 1.68403 0.973179 0
M  V30 1487 C 138.6 2.69774 -2.38525 0
M  V30 1488 C 138.453 2.28861 -3.87224 0
M  V30 1489 C 139.772 3.71939 -2.35264 0
M  V30 1490 H 136.891 0.534713 -0.5072 0
M  V30 1491 H 139.533 0.812375 -1.71757 0
M  V30 1492 H 137.683 3.26238 -2.10953 0
M  V30 1493 H 139.355 1.77852 -4.25636 0
M  V30 1494 H 137.598 1.60824 -4.02887 0
M  V30 1495 H 138.269 3.16584 -4.52193 0
M  V30 1496 H 140.745 3.25113 -2.59694 0
M  V30 1497 H 139.621 4.55186 -3.06753 0
M  V30 1498 H 139.882 4.20484 -1.36549 0
M  V30 1499 N 138.941 1.26152 0.944643 0
M  V30 1500 C 140.187 1.12665 1.69346 0
M  V30 1501 C 140.542 -0.3273 1.89596 0
M  V30 1502 O 139.835 -1.23717 1.46303 0
M  V30 1503 C 140.029 1.82541 3.07268 0
M  V30 1504 C 139.858 3.34582 3.00475 0
M  V30 1505 C 138.628 4.03863 3.03681 0
M  V30 1506 C 140.826 4.30828 2.80877 0
M  V30 1507 N 138.808 5.42603 2.87151 0
M  V30 1508 C 140.179 5.5672 2.7288 0
M  V30 1509 C 142.234 4.21122 2.65633 0
M  V30 1510 C 140.937 6.74013 2.51196 0
M  V30 1511 C 142.963 5.38118 2.45323 0
M  V30 1512 C 142.325 6.62955 2.38055 0
M  V30 1513 H 138.424 0.467041 0.627214 0
M  V30 1514 H 141.008 1.59391 1.11815 0
M  V30 1515 H 139.179 1.38296 3.62945 0
M  V30 1516 H 140.911 1.61708 3.70989 0
M  V30 1517 H 137.666 3.55198 3.1326 0
M  V30 1518 H 138.09 6.15443 2.82063 0
M  V30 1519 H 142.732 3.25344 2.70021 0
M  V30 1520 H 140.45 7.6989 2.4555 0
M  V30 1521 H 144.036 5.32475 2.34439 0
M  V30 1522 H 142.916 7.51959 2.22546 0
M  V30 1523 N 140.419 -1.14872 1.07899 0
M  V30 1524 C 141.696 -1.81928 0.71845 0
M  V30 1525 C 142.076 -1.95417 -0.798455 0
M  V30 1526 O 141.424 -1.50997 -1.715 0
M  V30 1527 C 141.634 -3.17937 1.43935 0
M  V30 1528 C 142.982 -3.93501 1.59506 0
M  V30 1529 O 144.006 -3.27509 1.40058 0
M  V30 1530 O 142.865 -5.1183 1.91551 0
M  V30 1531 H 139.959 -0.78628 0.256305 0
M  V30 1532 H 142.505 -1.21934 1.18026 0
M  V30 1533 H 141.277 -3.0325 2.47295 0
M  V30 1534 H 140.9 -3.85619 0.968687 0
M  V30 1535 N 141.898 -0.863906 -1.31812 0
M  V30 1536 C 142.846 -0.30422 -2.30602 0
M  V30 1537 C 143.84 0.577419 -1.59255 0
M  V30 1538 O 145.046 0.464194 -1.73912 0
M  V30 1539 H 141.421 -0.0796877 -0.747766 0
M  V30 1540 H 143.392 -1.15148 -2.75288 0
M  V30 1541 C 142.141 0.484617 -3.44306 0
M  V30 1542 H 141.464 -0.18451 -3.99374 0
M  V30 1543 H 142.904 0.841664 -4.15562 0
M  V30 1544 C 141.363 1.6735 -2.92396 0
M  V30 1545 O 141.893 2.77273 -2.90659 0
M  V30 1546 N 140.099 1.50362 -2.48676 0
M  V30 1547 H 139.646 0.609402 -2.50288 0
M  V30 1548 H 139.604 2.30051 -2.14299 0
M  V30 1549 N 143.376 1.44774 -0.622745 0
M  V30 1550 C 144.787 1.85546 -0.207226 0
M  V30 1551 C 145.138 1.52093 1.23944 0
M  V30 1552 O 144.263 0.95492 1.94191 0
M  V30 1553 C 144.858 3.36781 -0.369313 0
M  V30 1554 C 143.417 3.76399 -0.00836847 0
M  V30 1555 C 142.564 2.68664 -0.686651 0
M  V30 1556 H 145.515 1.3536 -0.828454 0
M  V30 1557 H 145.536 3.78453 0.394162 0
M  V30 1558 H 145.048 3.61098 -1.42231 0
M  V30 1559 H 143.149 3.57698 1.04322 0
M  V30 1560 H 143.262 4.7732 -0.412584 0
M  V30 1561 H 141.626 2.54404 -0.122777 0
M  V30 1562 H 142.409 2.95815 -1.74208 0
M  V30 1563 N 144.854 0.36279 1.53368 0
M  V30 1564 C 146.101 -0.227776 2.01215 0
M  V30 1565 C 146.429 -1.49003 1.25014 0
M  V30 1566 O 145.684 -1.92876 0.331236 0
M  V30 1567 C 145.983 -0.568417 3.52851 0
M  V30 1568 C 145.649 0.59918 4.46901 0
M  V30 1569 C 144.311 0.919559 4.72332 0
M  V30 1570 C 146.663 1.38156 5.02556 0
M  V30 1571 C 143.991 2.02434 5.5067 0
M  V30 1572 C 146.343 2.47674 5.821 0
M  V30 1573 C 145.007 2.8025 6.05819 0
M  V30 1574 H 144.277 -0.083349 0.736297 0
M  V30 1575 H 146.924 0.494677 1.85001 0
M  V30 1576 H 145.229 -1.37185 3.66998 0
M  V30 1577 H 146.926 -1.03756 3.87344 0
M  V30 1578 H 143.516 0.339437 4.27254 0
M  V30 1579 H 147.7 1.14729 4.82857 0
M  V30 1580 H 142.956 2.28075 5.67267 0
M  V30 1581 H 147.13 3.08716 6.24234 0
M  V30 1582 H 144.757 3.65979 6.66306 0
M  V30 1583 N 146.332 -1.57332 0.0918853 0
M  V30 1584 C 147.581 -1.93412 -0.572249 0
M  V30 1585 C 147.894 -0.975515 -1.69538 0
M  V30 1586 O 149.1 -1.22991 -2.42045 0
M  V30 1587 C 147.556 -3.43648 -1.0693 0
M  V30 1588 C 147.164 -4.47994 0.0239049 0
M  V30 1589 C 148.908 -3.88695 -1.70635 0
M  V30 1590 C 146.815 -5.89381 -0.488319 0
M  V30 1591 H 145.745 -0.721939 -0.217532 0
M  V30 1592 H 148.396 -1.82735 0.167369 0
M  V30 1593 H 146.778 -3.49466 -1.8625 0
M  V30 1594 H 147.952 -4.53815 0.799277 0
M  V30 1595 H 146.267 -4.12536 0.565946 0
M  V30 1596 H 148.864 -4.91725 -2.10025 0
M  V30 1597 H 149.207 -3.27166 -2.57426 0
M  V30 1598 H 149.74 -3.85564 -0.979023 0
M  V30 1599 H 146.479 -6.54602 0.342906 0
M  V30 1600 H 145.999 -5.87037 -1.23077 0
M  V30 1601 H 147.678 -6.39863 -0.958317 0
M  V30 1602 N 147.81 0.181792 -1.56548 0
M  V30 1603 C 149.035 0.920019 -1.85877 0
M  V30 1604 C 149.46 1.75494 -0.677021 0
M  V30 1605 O 148.818 1.77399 0.374056 0
M  V30 1606 C 148.866 1.78112 -3.13542 0
M  V30 1607 O 147.97 2.88152 -2.95029 0
M  V30 1608 H 147.311 0.258334 -0.611686 0
M  V30 1609 H 149.841 0.183092 -2.03779 0
M  V30 1610 H 149.851 2.18314 -3.44678 0
M  V30 1611 H 148.526 1.16777 -3.99169 0
M  V30 1612 H 147.103 2.51609 -2.75222 0
M  V30 1613 N 149.288 1.51039 0.449983 0
M  V30 1614 C 150.534 1.64287 1.19923 0
M  V30 1615 C 150.889 0.348701 1.89214 0
M  V30 1616 O 150.182 -0.654751 1.80065 0
M  V30 1617 C 150.376 2.77556 2.25161 0
M  V30 1618 C 150.205 4.17862 1.66198 0
M  V30 1619 C 148.975 4.83976 1.45243 0
M  V30 1620 C 151.173 5.01388 1.14519 0
M  V30 1621 N 149.155 6.08433 0.817437 0
M  V30 1622 C 150.526 6.16743 0.634705 0
M  V30 1623 C 152.581 4.87008 1.03574 0
M  V30 1624 C 151.284 7.19295 0.0255452 0
M  V30 1625 C 153.31 5.89757 0.440489 0
M  V30 1626 C 152.672 7.04375 -0.0595112 0
M  V30 1627 H 148.771 0.655161 0.426952 0
M  V30 1628 H 151.355 1.88228 0.49781 0
M  V30 1629 H 149.526 2.553 2.92706 0
M  V30 1630 H 151.258 2.80049 2.92155 0
M  V30 1631 H 148.013 4.41627 1.71063 0
M  V30 1632 H 148.437 6.75017 0.517747 0
M  V30 1633 H 153.079 3.9866 1.4082 0
M  V30 1634 H 150.797 8.07302 -0.359071 0
M  V30 1635 H 154.383 5.80698 0.35788 0
M  V30 1636 H 153.263 7.82521 -0.512882 0
M  V30 1637 N 150.766 -0.704594 1.40972 0
M  V30 1638 C 151.714 -1.83994 1.42299 0
M  V30 1639 C 152.708 -1.66684 0.302111 0
M  V30 1640 O 153.914 -1.73655 0.473697 0
M  V30 1641 H 150.289 -0.606171 0.44504 0
M  V30 1642 H 152.26 -1.79992 2.38003 0
M  V30 1643 C 151.009 -3.21946 1.31323 0
M  V30 1644 H 150.332 -3.35878 2.16855 0
M  V30 1645 H 151.772 -4.01491 1.36311 0
M  V30 1646 C 150.231 -3.36891 0.0245977 0
M  V30 1647 O 150.761 -3.90687 -0.934153 0
M  V30 1648 N 148.967 -2.90559 -0.0485243 0
M  V30 1649 H 148.514 -2.46968 0.732419 0
M  V30 1650 H 148.472 -3.00937 -0.910171 0
M  V30 1651 N 152.244 -1.26651 -0.937939 0
M  V30 1652 C 153.655 -1.1125 -1.49934 0
M  V30 1653 C 154.006 0.306077 -1.93798 0
M  V30 1654 O 153.131 1.19792 -1.80219 0
M  V30 1655 C 153.726 -2.01339 -2.72485 0
M  V30 1656 C 152.285 -1.90074 -3.24883 0
M  V30 1657 C 151.432 -1.94498 -1.97651 0
M  V30 1658 H 154.383 -1.39693 -0.753091 0
M  V30 1659 H 154.404 -1.56319 -3.46907 0
M  V30 1660 H 153.916 -3.04577 -2.40529 0
M  V30 1661 H 152.017 -0.897827 -3.61621 0
M  V30 1662 H 152.13 -2.75778 -3.9177 0
M  V30 1663 H 150.494 -1.38591 -2.13693 0
M  V30 1664 H 151.277 -2.99372 -1.68022 0
M  V30 1665 N 153.722 1.14298 -1.08507 0
M  V30 1666 C 154.632 2.23027 -0.727753 0
M  V30 1667 C 155.648 1.71952 0.26619 0
M  V30 1668 O 156.824 2.011 0.109882 0
M  V30 1669 C 153.889 3.46403 -0.143541 0
M  V30 1670 C 152.95 4.12413 -1.19223 0
M  V30 1671 C 152.183 5.29899 -0.635798 0
M  V30 1672 O 152.406 5.67796 0.544393 0
M  V30 1673 O 151.34 5.85717 -1.38634 0
M  V30 1674 H 155.166 2.55945 -1.63481 0
M  V30 1675 H 152.751 1.22248 -0.858817 0
M  V30 1676 H 154.633 4.21018 0.179404 0
M  V30 1677 H 153.308 3.15206 0.736659 0
M  V30 1678 H 152.215 3.39667 -1.56772 0
M  V30 1679 H 153.548 4.47718 -2.04474 0
M  V30 1680 N 155.201 0.870884 1.31352 0
M  V30 1681 C 156.111 0.330783 2.32256 0
M  V30 1682 C 157.127 -0.559767 1.6475 0
M  V30 1683 O 158.303 -0.456263 1.96164 0
M  V30 1684 C 155.368 -0.458137 3.4366 0
M  V30 1685 C 154.429 0.460482 4.26823 0
M  V30 1686 C 153.662 -0.290881 5.32907 0
M  V30 1687 O 153.885 -1.51885 5.49806 0
M  V30 1688 O 152.819 0.351732 6.00871 0
M  V30 1689 H 156.645 1.16718 2.80376 0
M  V30 1690 H 154.23 0.634285 1.35267 0
M  V30 1691 H 156.112 -0.905343 4.1156 0
M  V30 1692 H 154.787 -1.27106 2.97701 0
M  V30 1693 H 153.694 0.956207 3.61673 0
M  V30 1694 H 155.027 1.23903 4.7635 0
M  V30 1695 N 156.679 -1.44442 0.630414 0
M  V30 1696 C 157.919 -2.03934 0.137919 0
M  V30 1697 C 158.283 -1.48509 -1.21692 0
M  V30 1698 O 159.484 -1.99499 -1.80149 0
M  V30 1699 C 157.755 -3.57187 0.123373 0
M  V30 1700 S 159.314 -4.37741 -0.304604 0
M  V30 1701 H 156.132 -0.708401 0.0607353 0
M  V30 1702 H 158.734 -1.76835 0.833643 0
M  V30 1703 H 157.438 -3.95032 1.11256 0
M  V30 1704 H 156.969 -3.88895 -0.59362 0
M  V30 1705 H 158.984 -4.71403 -1.54897 0
M  V30 1706 N 158.157 -0.370918 -1.53173 0
M  V30 1707 C 159.067 0.480823 -2.2962 0
M  V30 1708 C 160.083 1.08789 -1.35798 0
M  V30 1709 O 161.259 1.09768 -1.68858 0
M  V30 1710 C 158.324 1.60227 -3.07454 0
M  V30 1711 C 157.385 1.0222 -4.16953 0
M  V30 1712 C 156.618 2.0902 -4.91066 0
M  V30 1713 O 156.841 3.30222 -4.65091 0
M  V30 1714 O 155.775 1.71778 -5.76867 0
M  V30 1715 H 159.601 -0.141421 -3.03371 0
M  V30 1716 H 157.186 -0.135146 -1.48787 0
M  V30 1717 H 159.068 2.25417 -3.56041 0
M  V30 1718 H 157.743 2.20982 -2.36535 0
M  V30 1719 H 156.65 0.334064 -3.72605 0
M  V30 1720 H 157.983 0.459131 -4.90054 0
M  V30 1721 N 159.635 1.57281 -0.100228 0
M  V30 1722 C 160.883 1.94153 0.561157 0
M  V30 1723 C 161.204 0.983157 1.68401 0
M  V30 1724 O 160.474 0.0361132 1.95867 0
M  V30 1725 H 159.054 0.716791 0.210283 0
M  V30 1726 H 161.716 1.94202 -0.164765 0
M  V30 1727 H 160.812 2.96709 0.968008 0
M  V30 1728 N 161.113 -0.173488 1.56642 0
M  V30 1729 C 162.362 -0.888758 1.81063 0
M  V30 1730 C 162.675 -1.83506 0.67712 0
M  V30 1731 O 163.881 -2.59254 0.806206 0
M  V30 1732 C 162.337 -1.63091 3.20826 0
M  V30 1733 C 161.945 -0.728357 4.4204 0
M  V30 1734 C 163.689 -2.33454 3.54541 0
M  V30 1735 C 161.596 -1.47062 5.72823 0
M  V30 1736 H 160.526 -0.335618 0.675186 0
M  V30 1737 H 163.177 -0.141712 1.82952 0
M  V30 1738 H 161.559 -2.42263 3.13248 0
M  V30 1739 H 162.733 0.0262449 4.60793 0
M  V30 1740 H 161.048 -0.134492 4.16183 0
M  V30 1741 H 163.645 -2.89578 4.49498 0
M  V30 1742 H 163.988 -3.08687 2.79317 0
M  V30 1743 H 164.521 -1.61227 3.63663 0
M  V30 1744 H 161.26 -0.760658 6.51072 0
M  V30 1745 H 160.78 -2.1986 5.58052 0
M  V30 1746 H 162.459 -2.01868 6.14702 0
M  V30 1747 N 162.591 -1.51276 -0.441967 0
M  V30 1748 C 163.819 -1.67516 -1.21434 0
M  V30 1749 C 164.234 -0.37055 -1.85128 0
M  V30 1750 O 163.591 0.650498 -1.70513 0
M  V30 1751 C 163.642 -2.78748 -2.30177 0
M  V30 1752 O 163.363 -4.04154 -1.69089 0
M  V30 1753 C 164.864 -3.06217 -3.20541 0
M  V30 1754 H 162.084 -0.562276 -0.366178 0
M  V30 1755 H 164.628 -1.97666 -0.524244 0
M  V30 1756 H 162.783 -2.5121 -2.94911 0
M  V30 1757 H 163.197 -4.65894 -2.40922 0
M  V30 1758 H 164.671 -3.8764 -3.92987 0
M  V30 1759 H 165.148 -2.18439 -3.81026 0
M  V30 1760 H 165.754 -3.35397 -2.61513 0
M  V30 1761 N 164.069 0.697108 -1.41344 0
M  V30 1762 C 165.016 1.81106 -1.43071 0
M  V30 1763 C 165.986 1.63632 -0.285275 0
M  V30 1764 O 167.171 1.84504 -0.486091 0
M  V30 1765 C 164.311 3.18975 -1.31715 0
M  V30 1766 C 163.424 3.47892 -2.56115 0
M  V30 1767 C 162.559 4.75367 -2.37064 0
M  V30 1768 C 161.598 4.97247 -3.56948 0
M  V30 1769 N 160.735 6.15947 -3.36977 0
M  V30 1770 H 165.575 1.78965 -2.38276 0
M  V30 1771 H 163.112 0.873975 -1.18322 0
M  V30 1772 H 165.07 3.98615 -1.23133 0
M  V30 1773 H 163.7 3.20297 -0.401183 0
M  V30 1774 H 162.752 2.62669 -2.75153 0
M  V30 1775 H 164.064 3.59962 -3.45295 0
M  V30 1776 H 163.218 5.63059 -2.25941 0
M  V30 1777 H 161.957 4.65541 -1.45338 0
M  V30 1778 H 160.962 4.08004 -3.68527 0
M  V30 1779 H 162.187 5.08934 -4.49626 0
M  V30 1780 H 160.133 6.07336 -2.47949 0
M  V30 1781 H 160.05 6.28777 -4.19732 0
M  V30 1782 H 161.318 7.06377 -3.29623 0
M  V30 1783 N 165.547 1.27147 0.931209 0
M  V30 1784 C 166.48 1.0389 2.0318 0
M  V30 1785 C 167.458 -0.0395716 1.62552 0
M  V30 1786 O 168.642 0.104867 1.88208 0
M  V30 1787 C 165.769 0.575227 3.3378 0
M  V30 1788 C 164.815 1.64774 3.93385 0
M  V30 1789 S 165.648 3.23933 4.26413 0
M  V30 1790 C 166.804 2.79358 5.60098 0
M  V30 1791 H 167.037 1.97075 2.22596 0
M  V30 1792 H 164.57 1.10938 1.07387 0
M  V30 1793 H 166.528 0.314385 4.09294 0
M  V30 1794 H 165.189 -0.336505 3.12292 0
M  V30 1795 H 164.382 1.27454 4.87618 0
M  V30 1796 H 163.984 1.86048 3.24441 0
M  V30 1797 H 166.276 2.24443 6.39243 0
M  V30 1798 H 167.219 3.72322 6.02314 0
M  V30 1799 H 167.627 2.1861 5.20452 0
M  V30 1800 N 167.025 -1.13721 1.09112 0
M  V30 1801 C 168.25 -1.89314 0.847053 0
M  V30 1802 C 168.675 -1.78416 -0.595774 0
M  V30 1803 O 168.033 -1.12942 -1.41823 0
M  V30 1804 C 168.081 -3.3701 1.28284 0
M  V30 1805 O 167.185 -4.10054 0.439267 0
M  V30 1806 H 166.526 -0.588745 0.307044 0
M  V30 1807 H 169.056 -1.43902 1.45442 0
M  V30 1808 H 169.066 -3.87834 1.26683 0
M  V30 1809 H 167.741 -3.4426 2.33363 0
M  V30 1810 H 166.318 -3.69266 0.519312 0
M  V30 1811 N 168.503 -0.877838 -1.30888 0
M  V30 1812 C 169.436 -0.283995 -2.26426 0
M  V30 1813 C 170.414 0.591361 -1.51465 0
M  V30 1814 O 171.598 0.54304 -1.80509 0
M  V30 1815 C 168.725 0.597129 -3.33395 0
M  V30 1816 C 167.771 -0.207937 -4.25993 0
M  V30 1817 S 168.604 -1.59158 -5.11301 0
M  V30 1818 C 169.76 -0.716791 -6.21782 0
M  V30 1819 H 169.993 -1.09383 -2.76446 0
M  V30 1820 H 167.526 -0.676828 -1.38775 0
M  V30 1821 H 169.484 1.09978 -3.95493 0
M  V30 1822 H 168.145 1.38099 -2.82113 0
M  V30 1823 H 167.338 0.464163 -5.01858 0
M  V30 1824 H 166.94 -0.642963 -3.68432 0
M  V30 1825 H 169.232 0.0692833 -6.77465 0
M  V30 1826 H 170.175 -1.44682 -6.93161 0
M  V30 1827 H 170.583 -0.280855 -5.63801 0
M  V30 1828 N 169.982 1.44106 -0.638065 0
M  V30 1829 C 170.945 2.29138 0.0531013 0
M  V30 1830 C 171.945 1.41409 0.765506 0
M  V30 1831 O 173.135 1.63206 0.609046 0
M  V30 1832 C 170.267 3.23144 1.08584 0
M  V30 1833 H 171.46 2.91739 -0.694883 0
M  V30 1834 H 169.013 1.51134 -0.398538 0
M  V30 1835 H 169.748 2.65408 1.86357 0
M  V30 1836 H 169.533 3.87804 0.578852 0
M  V30 1837 H 171.023 3.87004 1.56899 0
M  V30 1838 N 171.46 0.379036 1.52974 0
M  V30 1839 C 172.423 -0.448865 2.24762 0
M  V30 1840 C 173.423 -0.998689 1.26027 0
M  V30 1841 O 174.613 -0.882313 1.50203 0
M  V30 1842 C 171.745 -1.62872 2.99476 0
M  V30 1843 H 172.938 0.179491 2.99362 0
M  V30 1844 H 170.491 0.13096 1.5575 0
M  V30 1845 H 171.226 -2.29479 2.29151 0
M  V30 1846 H 171.011 -1.24128 3.71934 0
M  V30 1847 H 172.501 -2.2151 3.5401 0
M  V30 1848 N 172.938 -1.57226 0.108567 0
M  V30 1849 C 173.885 -2.14756 -0.845481 0
M  V30 1850 C 174.855 -1.06971 -1.27068 0
M  V30 1851 O 176.04 -1.34827 -1.35005 0
M  V30 1852 C 173.18 -2.74298 -2.09415 0
M  V30 1853 C 172.293 -3.96358 -1.71826 0
M  V30 1854 C 171.428 -4.44021 -2.9158 0
M  V30 1855 C 170.467 -5.58637 -2.50181 0
M  V30 1856 N 169.604 -6.01091 -3.62814 0
M  V30 1857 H 174.444 -2.95961 -0.348035 0
M  V30 1858 H 171.981 -1.46226 -0.160106 0
M  V30 1859 H 173.939 -3.06945 -2.82561 0
M  V30 1860 H 172.569 -1.95801 -2.56636 0
M  V30 1861 H 171.621 -3.69939 -0.885947 0
M  V30 1862 H 172.933 -4.79504 -1.37394 0
M  V30 1863 H 172.087 -4.78522 -3.72963 0
M  V30 1864 H 170.826 -3.59803 -3.29231 0
M  V30 1865 H 169.831 -5.23751 -1.67228 0
M  V30 1866 H 171.056 -6.44613 -2.13659 0
M  V30 1867 H 169.002 -5.19817 -4.00158 0
M  V30 1868 H 168.919 -6.79066 -3.32273 0
M  V30 1869 H 170.187 -6.40227 -4.44668 0
M  V30 1870 N 174.416 0.165178 -1.56732 0
M  V30 1871 C 175.364 1.22369 -1.97809 0
M  V30 1872 C 176.358 1.45488 -0.867741 0
M  V30 1873 O 177.564 1.45995 -1.05288 0
M  V30 1874 H 173.939 0.411486 -0.629431 0
M  V30 1875 H 175.91 0.850425 -2.86025 0
M  V30 1876 C 174.659 2.55403 -2.35934 0
M  V30 1877 H 173.982 2.38438 -3.20916 0
M  V30 1878 H 175.422 3.2814 -2.68514 0
M  V30 1879 C 173.881 3.14611 -1.20506 0
M  V30 1880 O 174.411 3.98626 -0.496016 0
M  V30 1881 N 172.617 2.7379 -0.97403 0
M  V30 1882 H 172.164 2.0557 -1.55238 0
M  V30 1883 H 172.122 3.1374 -0.203573 0
M  V30 1884 N 175.894 1.51508 0.433938 0
M  V30 1885 C 176.824 1.76016 1.53429 0
M  V30 1886 C 177.805 0.610112 1.58782 0
M  V30 1887 O 178.99 0.853177 1.74455 0
M  V30 1888 C 176.12 1.88831 2.9148 0
M  V30 1889 C 175.074 3.04288 3.00987 0
M  V30 1890 C 174.4 3.0229 4.4105 0
M  V30 1891 C 175.7 4.44193 2.74754 0
M  V30 1892 H 177.394 2.68152 1.33171 0
M  V30 1893 H 174.94 1.29035 0.639214 0
M  V30 1894 H 176.893 2.04559 3.6842 0
M  V30 1895 H 175.617 0.933455 3.12976 0
M  V30 1896 H 174.276 2.8827 2.26486 0
M  V30 1897 H 173.924 2.04576 4.59519 0
M  V30 1898 H 173.624 3.79822 4.4834 0
M  V30 1899 H 175.148 3.20116 5.1996 0
M  V30 1900 H 176.562 4.60544 3.41426 0
M  V30 1901 H 174.959 5.23457 2.9345 0
M  V30 1902 H 176.029 4.53996 1.70339 0
M  V30 1903 N 177.372 -0.689602 1.41712 0
M  V30 1904 C 178.618 -1.45041 1.42599 0
M  V30 1905 C 178.973 -1.92366 0.0363764 0
M  V30 1906 O 178.266 -1.67022 -0.938844 0
M  V30 1907 C 178.46 -2.67298 2.37247 0
M  V30 1908 C 178.289 -2.31935 3.85274 0
M  V30 1909 C 177.059 -2.2201 4.53916 0
M  V30 1910 C 179.257 -1.94526 4.76093 0
M  V30 1911 N 177.239 -1.79594 5.87043 0
M  V30 1912 C 178.61 -1.62915 5.98213 0
M  V30 1913 C 180.665 -1.81388 4.63684 0
M  V30 1914 C 179.368 -1.19486 7.09306 0
M  V30 1915 C 181.394 -1.39364 5.74745 0
M  V30 1916 C 180.756 -1.08668 6.95967 0
M  V30 1917 H 176.855 -0.527806 0.577014 0
M  V30 1918 H 179.439 -0.797266 1.77628 0
M  V30 1919 H 177.61 -3.30325 2.04304 0
M  V30 1920 H 179.342 -3.33806 2.28814 0
M  V30 1921 H 176.097 -2.406 4.07932 0
M  V30 1922 H 176.521 -1.60851 6.57614 0
M  V30 1923 H 181.163 -2.03772 3.70455 0
M  V30 1924 H 178.881 -0.958477 8.02396 0
M  V30 1925 H 182.467 -1.2974 5.6715 0
M  V30 1926 H 181.347 -0.766417 7.80446 0
M  V30 1927 N 178.85 -1.27639 -0.924453 0
M  V30 1928 C 179.78 -1.13166 -2.04244 0
M  V30 1929 C 180.761 -0.032256 -1.70069 0
M  V30 1930 O 181.946 -0.207328 -1.9309 0
M  V30 1931 C 179.076 -0.781496 -3.38393 0
M  V30 1932 C 178.03 -1.83449 -3.86692 0
M  V30 1933 C 177.356 -1.33822 -5.17683 0
M  V30 1934 C 178.656 -3.23917 -4.09726 0
M  V30 1935 H 180.35 -2.06689 -2.1661 0
M  V30 1936 H 177.896 -0.995136 -1.04082 0
M  V30 1937 H 179.849 -0.667057 -4.16087 0
M  V30 1938 H 178.573 0.189439 -3.2605 0
M  V30 1939 H 177.232 -1.93789 -3.11193 0
M  V30 1940 H 176.88 -0.35665 -5.01734 0
M  V30 1941 H 176.58 -2.04224 -5.50968 0
M  V30 1942 H 178.104 -1.23679 -5.97943 0
M  V30 1943 H 179.518 -3.16559 -4.77978 0
M  V30 1944 H 177.915 -3.92059 -4.54324 0
M  V30 1945 H 178.985 -3.68729 -3.14908 0
M  V30 1946 N 180.328 1.1314 -1.09713 0
M  V30 1947 C 181.739 1.66029 -0.853885 0
M  V30 1948 C 182.09 1.86241 0.617142 0
M  V30 1949 O 181.215 1.5834 1.47503 0
M  V30 1950 C 181.81 3.01599 -1.5435 0
M  V30 1951 C 180.369 3.51467 -1.34714 0
M  V30 1952 C 179.516 2.26648 -1.59769 0
M  V30 1953 H 182.467 0.970226 -1.25588 0
M  V30 1954 H 182.488 3.67709 -0.978267 0
M  V30 1955 H 182 2.86856 -2.6141 0
M  V30 1956 H 180.101 3.71408 -0.297838 0
M  V30 1957 H 180.214 4.314 -2.08401 0
M  V30 1958 H 178.578 2.33385 -1.01998 0
M  V30 1959 H 179.361 2.14467 -2.68065 0
M  V30 1960 N 181.806 0.884767 1.30421 0
M  V30 1961 C 183.083 0.423185 1.90967 0
M  V30 1962 C 183.463 -1.09605 1.80416 0
M  V30 1963 O 182.811 -1.93126 1.22125 0
M  V30 1964 C 183.021 0.921056 3.36627 0
M  V30 1965 C 184.369 0.955903 4.137 0
M  V30 1966 O 185.393 0.867706 3.4547 0
M  V30 1967 O 184.252 1.08614 5.35598 0
M  V30 1968 H 181.346 0.129369 0.816819 0
M  V30 1969 H 183.892 0.973653 1.3899 0
M  V30 1970 H 182.664 1.96489 3.3839 0
M  V30 1971 H 182.287 0.349741 3.96059 0
M  V30 1972 N 183.284 -1.43765 0.645699 0
M  V30 1973 C 184.533 -2.01116 0.153412 0
M  V30 1974 C 184.846 -1.51493 -1.23731 0
M  V30 1975 O 186.052 -2.01067 -1.8244 0
M  V30 1976 C 184.508 -3.59206 0.223473 0
M  V30 1977 C 184.116 -4.17823 1.61642 0
M  V30 1978 C 185.86 -4.23972 -0.211597 0
M  V30 1979 C 183.767 -5.68183 1.64081 0
M  V30 1980 H 182.697 -0.752093 0.0535891 0
M  V30 1981 H 185.348 -1.6482 0.806633 0
M  V30 1982 H 183.73 -3.92867 -0.497118 0
M  V30 1983 H 184.904 -3.95674 2.36176 0
M  V30 1984 H 183.219 -3.65399 1.99681 0
M  V30 1985 H 185.816 -5.34275 -0.213112 0
M  V30 1986 H 186.159 -3.97352 -1.24165 0
M  V30 1987 H 186.692 -3.95166 0.456988 0
M  V30 1988 H 183.431 -5.99559 2.64971 0
M  V30 1989 H 182.951 -5.9241 0.938611 0
M  V30 1990 H 184.63 -6.32085 1.3812 0
M  V30 1991 N 184.763 -0.387143 -1.52771 0
M  V30 1992 C 186.01 0.195735 -2.01552 0
M  V30 1993 C 186.338 1.46995 -1.27369 0
M  V30 1994 O 185.593 1.92325 -0.361879 0
M  V30 1995 C 185.892 0.512209 -3.53711 0
M  V30 1996 C 185.558 -0.670202 -4.45891 0
M  V30 1997 C 184.22 -0.994586 -4.70809 0
M  V30 1998 C 186.572 -1.46134 -5.00294 0
M  V30 1999 C 183.9 -2.11169 -5.4738 0
M  V30 2000 C 186.252 -2.56903 -5.78086 0
M  V30 2001 C 184.916 -2.89852 -6.01284 0
M  V30 2002 H 184.186 0.0716246 -0.73753 0
M  V30 2003 H 186.833 -0.524046 -1.8419 0
M  V30 2004 H 185.138 1.31329 -3.69134 0
M  V30 2005 H 186.835 0.975804 -3.88946 0
M  V30 2006 H 183.425 -0.407366 -4.2666 0
M  V30 2007 H 187.609 -1.22397 -4.80971 0
M  V30 2008 H 182.865 -2.3707 -5.63567 0
M  V30 2009 H 187.039 -3.18608 -6.19243 0
M  V30 2010 H 184.666 -3.76533 -6.60399 0
M  V30 2011 N 186.241 1.57166 -0.116904 0
M  V30 2012 C 187.49 1.94298 0.541407 0
M  V30 2013 C 187.803 1.00236 1.67964 0
M  V30 2014 O 189.009 1.26826 2.40057 0
M  V30 2015 C 187.465 3.45306 1.01449 0
M  V30 2016 C 187.073 4.47899 -0.0951738 0
M  V30 2017 C 188.817 3.91361 1.6443 0
M  V30 2018 C 186.724 5.90083 0.394491 0
M  V30 2019 H 185.654 0.725308 0.206019 0
M  V30 2020 H 188.305 1.82446 -0.196419 0
M  V30 2021 H 186.687 3.52385 1.80667 0
M  V30 2022 H 187.861 4.52486 -0.871374 0
M  V30 2023 H 186.176 4.11583 -0.631505 0
M  V30 2024 H 188.773 4.95004 2.02176 0
M  V30 2025 H 189.116 3.3122 2.52189 0
M  V30 2026 H 189.649 3.87073 0.917559 0
M  V30 2027 H 186.388 6.53974 -0.447004 0
M  V30 2028 H 185.908 5.88921 1.13722 0
M  V30 2029 H 187.587 6.41307 0.856399 0
M  V30 2030 N 187.719 -0.156864 1.56817 0
M  V30 2031 C 188.968 -0.869504 1.81996 0
M  V30 2032 C 189.281 -1.82777 0.696545 0
M  V30 2033 O 190.487 -2.58384 0.833658 0
M  V30 2034 C 188.943 -1.59679 3.22538 0
M  V30 2035 C 188.551 -0.681431 4.42787 0
M  V30 2036 C 190.295 -2.2968 3.56997 0
M  V30 2037 C 188.202 -1.40978 5.74351 0
M  V30 2038 H 187.132 -0.328438 0.678708 0
M  V30 2039 H 189.783 -0.1223 1.83092 0
M  V30 2040 H 188.165 -2.38927 3.158 0
M  V30 2041 H 189.339 0.0751166 4.60739 0
M  V30 2042 H 187.654 -0.0903431 4.16302 0
M  V30 2043 H 190.251 -2.84794 4.52544 0
M  V30 2044 H 190.594 -3.05707 2.82576 0
M  V30 2045 H 191.127 -1.57361 3.65352 0
M  V30 2046 H 187.866 -0.691561 6.51842 0
M  V30 2047 H 187.386 -2.13929 5.60352 0
M  V30 2048 H 189.065 -1.95337 6.16808 0
M  V30 2049 N 189.197 -1.51736 -0.425897 0
M  V30 2050 C 190.107 -1.76738 -1.54275 0
M  V30 2051 C 191.123 -0.65211 -1.61318 0
M  V30 2052 O 192.299 -0.935654 -1.78346 0
M  V30 2053 C 189.364 -1.89755 -2.90162 0
M  V30 2054 C 188.425 -3.13633 -2.93143 0
M  V30 2055 C 187.658 -3.2602 -4.22548 0
M  V30 2056 O 187.881 -2.44067 -5.15546 0
M  V30 2057 O 186.815 -4.19071 -4.32046 0
M  V30 2058 H 190.641 -2.71502 -1.36089 0
M  V30 2059 H 188.226 -1.36376 -0.610069 0
M  V30 2060 H 190.108 -2.00236 -3.70788 0
M  V30 2061 H 188.783 -0.981785 -3.08452 0
M  V30 2062 H 187.69 -3.08622 -2.11431 0
M  V30 2063 H 189.023 -4.04936 -2.798 0
M  V30 2064 N 190.675 0.682077 -1.42076 0
M  V30 2065 C 191.605 1.80796 -1.47767 0
M  V30 2066 C 192.586 1.6677 -0.334954 0
M  V30 2067 O 193.771 1.863 -0.548264 0
M  V30 2068 C 190.901 3.19038 -1.37229 0
M  V30 2069 C 189.855 3.47789 -2.49453 0
M  V30 2070 C 189.181 4.8553 -2.23975 0
M  V30 2071 C 190.481 3.45411 -3.91776 0
M  V30 2072 H 192.175 1.7629 -2.41997 0
M  V30 2073 H 189.721 0.846721 -1.16476 0
M  V30 2074 H 191.674 3.97528 -1.39821 0
M  V30 2075 H 190.398 3.24204 -0.394907 0
M  V30 2076 H 189.057 2.71657 -2.46166 0
M  V30 2077 H 188.705 4.87337 -1.24547 0
M  V30 2078 H 188.405 5.0573 -2.99184 0
M  V30 2079 H 189.929 5.66312 -2.28304 0
M  V30 2080 H 191.343 4.13882 -3.96705 0
M  V30 2081 H 189.74 3.77145 -4.66778 0
M  V30 2082 H 190.81 2.44122 -4.18966 0
M  V30 2083 N 192.153 1.28127 0.917671 0
M  V30 2084 C 193.086 1.06039 2.02067 0
M  V30 2085 C 194.064 -0.0223285 1.62585 0
M  V30 2086 O 195.248 0.124823 1.88086 0
M  V30 2087 C 192.375 0.610596 3.33151 0
M  V30 2088 C 191.421 1.68937 3.91615 0
M  V30 2089 S 192.254 3.28437 4.22953 0
M  V30 2090 C 193.41 2.85283 5.57103 0
M  V30 2091 H 193.643 1.99425 2.20493 0
M  V30 2092 H 191.176 1.12071 1.06205 0
M  V30 2093 H 193.134 0.357778 4.08938 0
M  V30 2094 H 191.795 -0.303364 3.12632 0
M  V30 2095 H 190.988 1.32619 4.86239 0
M  V30 2096 H 190.59 1.89478 3.2245 0
M  V30 2097 H 192.882 2.3121 6.36827 0
M  V30 2098 H 193.825 3.7869 5.98331 0
M  V30 2099 H 194.233 2.24118 5.18104 0
M  V30 2100 N 193.631 -1.12557 1.10312 0
M  V30 2101 C 194.908 -1.80363 0.756878 0
M  V30 2102 C 195.288 -1.97067 -0.756824 0
M  V30 2103 O 194.636 -1.54601 -1.68259 0
M  V30 2104 C 194.846 -3.14812 1.50647 0
M  V30 2105 C 196.194 -3.90029 1.67817 0
M  V30 2106 O 197.218 -3.24464 1.46974 0
M  V30 2107 O 196.077 -5.07652 2.02365 0
M  V30 2108 H 193.171 -0.780667 0.272926 0
M  V30 2109 H 195.717 -1.19404 1.20586 0
M  V30 2110 H 194.489 -2.97936 2.53672 0
M  V30 2111 H 194.112 -3.83478 1.05026 0
M  V30 2112 N 195.109 -0.891671 -1.2995 0
M  V30 2113 C 196.355 -0.514261 -1.96171 0
M  V30 2114 C 196.688 0.935506 -1.70182 0
M  V30 2115 O 195.963 1.66204 -1.01028 0
M  V30 2116 C 196.246 -0.797719 -3.51153 0
M  V30 2117 C 196.099 -2.2986 -3.86632 0
M  V30 2118 C 197.418 -0.278749 -4.39216 0
M  V30 2119 H 194.537 -0.188314 -0.712535 0
M  V30 2120 H 197.179 -1.11689 -1.53706 0
M  V30 2121 H 195.329 -0.284826 -3.87455 0
M  V30 2122 H 197.001 -2.88042 -3.60319 0
M  V30 2123 H 195.244 -2.76257 -3.34462 0
M  V30 2124 H 195.915 -2.44753 -4.94773 0
M  V30 2125 H 198.391 -0.717825 -4.09862 0
M  V30 2126 H 197.267 -0.506353 -5.46559 0
M  V30 2127 H 197.528 0.820266 -4.34424 0
M  V30 2128 N 196.587 1.43421 -0.653314 0
M  V30 2129 C 197.864 1.95361 -0.0966581 0
M  V30 2130 C 198.244 1.59461 1.38331 0
M  V30 2131 O 197.592 0.879777 2.10884 0
M  V30 2132 C 197.802 3.47311 -0.342988 0
M  V30 2133 C 199.15 4.23875 -0.24798 0
M  V30 2134 O 200.174 3.55133 -0.275553 0
M  V30 2135 O 199.033 5.4623 -0.171771 0
M  V30 2136 H 196.127 0.826945 0.00956291 0
M  V30 2137 H 198.673 1.5336 -0.726558 0
M  V30 2138 H 197.445 3.66569 -1.36906 0
M  V30 2139 H 197.068 3.9631 0.319975 0
M  V30 2140 N 198.065 0.39524 1.52563 0
M  V30 2141 C 199.012 -0.437036 2.26624 0
M  V30 2142 C 199.982 -1.05281 1.28472 0
M  V30 2143 O 201.167 -1.07971 1.57311 0
M  V30 2144 C 198.307 -1.55524 3.08069 0
M  V30 2145 C 197.42 -0.961745 4.21158 0
M  V30 2146 C 196.555 -2.05149 4.89987 0
M  V30 2147 C 195.594 -1.4342 5.95061 0
M  V30 2148 N 194.731 -2.46351 6.57462 0
M  V30 2149 H 199.571 0.200976 2.97322 0
M  V30 2150 H 197.108 0.110944 1.46681 0
M  V30 2151 H 199.066 -2.21437 3.53584 0
M  V30 2152 H 197.696 -2.16348 2.3957 0
M  V30 2153 H 196.748 -0.192048 3.79915 0
M  V30 2154 H 198.06 -0.470701 4.96574 0
M  V30 2155 H 197.214 -2.78819 5.38837 0
M  V30 2156 H 195.953 -2.57615 4.14109 0
M  V30 2157 H 194.958 -0.682774 5.45544 0
M  V30 2158 H 196.183 -0.917416 6.72875 0
M  V30 2159 H 194.129 -2.97975 5.8442 0
M  V30 2160 H 194.046 -2.02019 7.28508 0
M  V30 2161 H 195.314 -3.19633 7.10954 0
M  V30 2162 N 199.544 -1.57102 0.125237 0
M  V30 2163 C 200.772 -1.99761 -0.538797 0
M  V30 2164 C 201.187 -1.00503 -1.59827 0
M  V30 2165 O 200.544 0.00119474 -1.825 0
M  V30 2166 C 200.595 -3.42408 -1.15927 0
M  V30 2167 O 200.316 -4.37869 -0.142143 0
M  V30 2168 C 201.817 -4.00232 -1.90602 0
M  V30 2169 H 199.037 -0.655772 -0.14214 0
M  V30 2170 H 201.581 -2.03383 0.213413 0
M  V30 2171 H 199.736 -3.39706 -1.86223 0
M  V30 2172 H 200.15 -5.21128 -0.593775 0
M  V30 2173 H 201.624 -5.02105 -2.29335 0
M  V30 2174 H 202.101 -3.39721 -2.78363 0
M  V30 2175 H 202.707 -4.06499 -1.25055 0
M  V30 2176 N 201.022 0.148545 -1.56898 0
M  V30 2177 C 202.433 0.708766 -1.72723 0
M  V30 2178 C 202.784 1.81734 -0.739395 0
M  V30 2179 O 201.909 2.16194 0.0943169 0
M  V30 2180 C 202.504 1.29245 -3.13179 0
M  V30 2181 C 201.063 1.79925 -3.30611 0
M  V30 2182 C 200.21 0.687111 -2.68652 0
M  V30 2183 H 203.161 -0.0771063 -1.58513 0
M  V30 2184 H 203.182 2.16224 -3.13093 0
M  V30 2185 H 202.694 0.485382 -3.85053 0
M  V30 2186 H 200.795 2.63203 -2.63732 0
M  V30 2187 H 200.908 1.92903 -4.38549 0
M  V30 2188 H 199.272 1.11335 -2.29078 0
M  V30 2189 H 200.055 -0.108483 -3.43129 0
M  V30 2190 N 202.5 1.5196 0.417844 0
M  V30 2191 C 203.447 1.74678 1.50852 0
M  V30 2192 C 204.417 0.588947 1.55308 0
M  V30 2193 O 205.602 0.825544 1.72016 0
M  V30 2194 C 202.742 1.89544 2.88387 0
M  V30 2195 C 201.855 3.17166 2.93309 0
M  V30 2196 C 200.99 3.22513 4.22088 0
M  V30 2197 C 200.029 4.44372 4.20951 0
M  V30 2198 N 199.166 4.47161 5.41287 0
M  V30 2199 H 204.006 2.67768 1.30783 0
M  V30 2200 H 201.543 1.32689 0.63498 0
M  V30 2201 H 203.501 1.96146 3.68216 0
M  V30 2202 H 202.131 0.998424 3.06971 0
M  V30 2203 H 201.183 3.19778 2.06024 0
M  V30 2204 H 202.495 4.07021 2.88332 0
M  V30 2205 H 201.649 3.28139 5.10303 0
M  V30 2206 H 200.388 2.30581 4.29748 0
M  V30 2207 H 199.393 4.38902 3.31127 0
M  V30 2208 H 200.618 5.3759 4.14938 0
M  V30 2209 H 198.564 3.58108 5.49632 0
M  V30 2210 H 198.481 5.3085 5.3827 0
M  V30 2211 H 199.749 4.57005 6.3148 0
M  V30 2212 N 203.978 -0.674533 1.42435 0
M  V30 2213 C 205.226 -1.43175 1.42637 0
M  V30 2214 C 205.547 -1.94951 0.0438992 0
M  V30 2215 O 204.817 -1.7308 -0.917607 0
M  V30 2216 H 203.397 -0.531307 0.525092 0
M  V30 2217 H 206.059 -0.797006 1.77859 0
M  V30 2218 H 205.155 -2.28463 2.12629 0
M  V30 2219 N 205.456 -1.28612 -0.910864 0
M  V30 2220 C 206.386 -1.15326 -2.03032 0
M  V30 2221 C 207.367 -0.0502924 -1.70026 0
M  V30 2222 O 208.552 -0.227797 -1.92859 0
M  V30 2223 C 205.682 -0.817343 -3.37545 0
M  V30 2224 C 204.636 -1.8754 -3.84724 0
M  V30 2225 C 203.962 -1.39305 -5.16235 0
M  V30 2226 C 205.262 -3.28244 -4.06267 0
M  V30 2227 H 206.956 -2.08975 -2.14406 0
M  V30 2228 H 204.502 -1.00612 -1.03021 0
M  V30 2229 H 206.455 -0.711151 -4.15356 0
M  V30 2230 H 205.179 0.154846 -3.26233 0
M  V30 2231 H 203.838 -1.97079 -3.09121 0
M  V30 2232 H 203.486 -0.409846 -5.01328 0
M  V30 2233 H 203.186 -2.10057 -5.48771 0
M  V30 2234 H 204.71 -1.30014 -5.96598 0
M  V30 2235 H 206.124 -3.21611 -4.74594 0
M  V30 2236 H 204.521 -3.96855 -4.5014 0
M  V30 2237 H 205.591 -3.72048 -3.10979 0
M  V30 2238 N 206.934 1.1197 -1.10907 0
M  V30 2239 C 208.162 1.87402 -0.876824 0
M  V30 2240 C 208.577 1.79894 0.573025 0
M  V30 2241 O 207.934 1.17629 1.39534 0
M  V30 2242 C 207.985 3.36428 -1.32282 0
M  V30 2243 O 207.706 3.43765 -2.71582 0
M  V30 2244 C 209.207 4.28783 -1.12518 0
M  V30 2245 H 206.427 0.592793 -0.314384 0
M  V30 2246 H 208.971 1.41649 -1.47499 0
M  V30 2247 H 207.126 3.79706 -0.768229 0
M  V30 2248 H 207.54 4.3652 -2.90776 0
M  V30 2249 H 209.014 5.31613 -1.48633 0
M  V30 2250 H 209.491 4.39153 -0.0642394 0
M  V30 2251 H 210.097 3.91291 -1.66648 0
M  V30 2252 N 208.412 0.89855 1.29475 0
M  V30 2253 C 209.375 0.380272 2.26023 0
M  V30 2254 C 210.375 -0.484891 1.53315 0
M  V30 2255 O 211.565 -0.290108 1.71767 0
M  V30 2256 C 208.697 -0.45651 3.3783 0
M  V30 2257 H 209.89 1.23295 2.73383 0
M  V30 2258 H 207.443 0.676589 1.40897 0
M  V30 2259 H 208.178 -1.32922 2.95808 0
M  V30 2260 H 207.963 0.163393 3.91759 0
M  V30 2261 H 209.453 -0.810466 4.0966 0
M  V30 2262 N 209.89 -1.43072 0.660911 0
M  V30 2263 C 211.12 -2.05769 0.185153 0
M  V30 2264 C 211.528 -1.49668 -1.15742 0
M  V30 2265 O 210.871 -0.625649 -1.72717 0
M  V30 2266 C 210.933 -3.59489 0.0278237 0
M  V30 2267 C 210.597 -4.38212 1.2969 0
M  V30 2268 C 211.594 -4.69772 2.22734 0
M  V30 2269 C 209.279 -4.7809 1.54063 0
M  V30 2270 C 211.273 -5.40129 3.38437 0
M  V30 2271 C 208.96 -5.4819 2.70058 0
M  V30 2272 C 209.958 -5.79132 3.62071 0
M  V30 2273 O 209.646 -6.47798 4.76039 0
M  V30 2274 H 209.378 -0.669873 0.0908086 0
M  V30 2275 H 211.932 -1.84436 0.90402 0
M  V30 2276 H 210.162 -3.79426 -0.746489 0
M  V30 2277 H 211.851 -4.03862 -0.406275 0
M  V30 2278 H 212.617 -4.39476 2.05149 0
M  V30 2279 H 208.496 -4.53408 0.833215 0
M  V30 2280 H 212.04 -5.64198 4.10277 0
M  V30 2281 H 207.937 -5.77902 2.87574 0
M  V30 2282 H 208.705 -6.66283 4.75404 0
M  V30 2283 N 211.368 -0.403325 -1.52352 0
M  V30 2284 C 212.614 0.174605 -2.02047 0
M  V30 2285 C 212.947 1.45282 -1.28867 0
M  V30 2286 O 212.222 1.90483 -0.393257 0
M  V30 2287 C 212.505 0.428238 -3.57545 0
M  V30 2288 C 212.358 -0.866248 -4.4138 0
M  V30 2289 C 213.677 1.21287 -4.23057 0
M  V30 2290 H 210.796 0.0619851 -0.734389 0
M  V30 2291 H 213.438 -0.53565 -1.82293 0
M  V30 2292 H 211.588 1.03327 -3.74507 0
M  V30 2293 H 213.26 -1.50265 -4.3614 0
M  V30 2294 H 211.503 -1.47851 -4.07827 0
M  V30 2295 H 212.174 -0.643249 -5.48239 0
M  V30 2296 H 214.65 0.700703 -4.10158 0
M  V30 2297 H 213.526 1.35909 -5.31808 0
M  V30 2298 H 213.787 2.23193 -3.81625 0
M  V30 2299 N 212.846 1.57033 -0.133567 0
M  V30 2300 C 214.071 2.00475 0.531477 0
M  V30 2301 C 214.496 1.01291 1.58499 0
M  V30 2302 O 213.854 -0.0133279 1.81295 0
M  V30 2303 C 213.902 3.42729 1.12113 0
M  V30 2304 O 213.006 3.46498 2.23636 0
M  V30 2305 H 212.347 0.650876 0.131362 0
M  V30 2306 H 214.877 2.03344 -0.22634 0
M  V30 2307 H 214.887 3.81246 1.4531 0
M  V30 2308 H 213.562 4.14428 0.349557 0
M  V30 2309 H 212.139 3.19811 1.91769 0
M  V30 2310 N 214.325 -0.140222 1.56975 0
M  V30 2311 C 215.273 -1.19207 1.99731 0
M  V30 2312 C 216.267 -1.44089 0.890777 0
M  V30 2313 O 217.473 -1.44301 1.07597 0
M  V30 2314 H 213.848 -0.40142 0.635898 0
M  V30 2315 H 215.819 -0.804813 2.87342 0
M  V30 2316 C 214.568 -2.51617 2.39967 0
M  V30 2317 H 213.891 -2.33303 3.24669 0
M  V30 2318 H 215.331 -3.23827 2.73701 0
M  V30 2319 C 213.79 -3.12654 1.25496 0
M  V30 2320 O 214.32 -3.97786 0.559371 0
M  V30 2321 N 212.526 -2.72206 1.01746 0
M  V30 2322 H 212.073 -2.03074 1.58489 0
M  V30 2323 H 212.031 -3.13377 0.253461 0
M  V30 2324 N 215.803 -1.52179 -0.40978 0
M  V30 2325 C 216.713 -1.78364 -1.52392 0
M  V30 2326 C 217.729 -0.669183 -1.60617 0
M  V30 2327 O 218.905 -0.954518 -1.77344 0
M  V30 2328 C 215.97 -1.92822 -2.88133 0
M  V30 2329 C 215.031 -3.16725 -2.898 0
M  V30 2330 C 214.264 -3.30483 -4.19067 0
M  V30 2331 O 214.487 -2.49522 -5.12928 0
M  V30 2332 O 213.421 -4.2363 -4.27576 0
M  V30 2333 H 217.247 -2.72931 -1.33201 0
M  V30 2334 H 214.832 -1.37016 -0.59557 0
M  V30 2335 H 216.714 -2.04157 -3.68643 0
M  V30 2336 H 215.389 -1.01444 -3.07393 0
M  V30 2337 H 214.296 -3.10848 -2.08146 0
M  V30 2338 H 215.629 -4.07881 -2.75489 0
M  V30 2339 N 217.281 0.66697 -1.42791 0
M  V30 2340 C 218.529 1.42417 -1.43394 0
M  V30 2341 C 218.85 1.94925 -0.0542373 0
M  V30 2342 O 218.12 1.73564 0.908415 0
M  V30 2343 H 216.7 0.528515 -0.527902 0
M  V30 2344 H 219.362 0.787562 -1.78279 0
M  V30 2345 H 218.458 2.27333 -2.13837 0
M  V30 2346 N 218.759 1.29093 0.90403 0
M  V30 2347 C 220.175 1.07011 1.1841 0
M  V30 2348 C 220.375 -0.181358 2.00682 0
M  V30 2349 O 219.431 -0.880331 2.36657 0
M  V30 2350 C 220.744 2.32311 1.90924 0
M  V30 2351 C 222.292 2.37587 2.03768 0
M  V30 2352 C 222.767 3.62679 2.79693 0
M  V30 2353 N 224.258 3.63376 2.87249 0
M  V30 2354 C 224.993 4.56848 3.46522 0
M  V30 2355 N 224.489 5.60648 4.06996 0
M  V30 2356 N 226.282 4.44426 3.44154 0
M  V30 2357 H 218.433 2.09412 0.354993 0
M  V30 2358 H 220.696 0.922181 0.219742 0
M  V30 2359 H 220.402 3.23536 1.37905 0
M  V30 2360 H 220.276 2.39483 2.91424 0
M  V30 2361 H 222.663 1.46853 2.55965 0
M  V30 2362 H 222.744 2.34403 1.02415 0
M  V30 2363 H 222.388 4.53762 2.28173 0
M  V30 2364 H 222.318 3.63119 3.81381 0
M  V30 2365 H 224.809 2.88321 2.44293 0
M  V30 2366 H 225.122 6.28101 4.50232 0
M  V30 2367 H 223.467 5.64463 4.05471 0
M  V30 2368 H 226.658 3.62529 2.96126 0
M  V30 2369 H 226.831 5.17457 3.90054 0
M  V30 2370 N 220.237 -1.11381 1.11499 0
M  V30 2371 C 221.486 -1.82494 0.858993 0
M  V30 2372 C 221.799 -1.85605 -0.617278 0
M  V30 2373 O 223.005 -2.52824 -0.989552 0
M  V30 2374 C 221.461 -3.27745 1.48699 0
M  V30 2375 C 221.069 -3.32961 2.99735 0
M  V30 2376 C 222.813 -4.03754 1.31085 0
M  V30 2377 C 220.72 -4.72612 3.55516 0
M  V30 2378 H 219.65 -0.683802 0.317696 0
M  V30 2379 H 222.301 -1.25331 1.34031 0
M  V30 2380 H 220.683 -3.84844 0.933339 0
M  V30 2381 H 221.857 -2.85741 3.61509 0
M  V30 2382 H 220.172 -2.70433 3.16631 0
M  V30 2383 H 222.769 -5.06891 1.70192 0
M  V30 2384 H 223.112 -4.15527 0.253496 0
M  V30 2385 H 223.645 -3.53043 1.83318 0
M  V30 2386 H 220.384 -4.66036 4.60967 0
M  V30 2387 H 219.904 -5.2024 2.98513 0
M  V30 2388 H 221.583 -5.4157 3.53992 0
M  V30 2389 N 221.715 -0.905404 -1.28997 0
M  V30 2390 C 223.131 -0.60233 -1.47798 0
M  V30 2391 C 223.331 0.854645 -1.82478 0
M  V30 2392 O 222.387 1.63439 -1.92468 0
M  V30 2393 C 223.7 -1.53306 -2.58685 0
M  V30 2394 C 225.248 -1.53887 -2.72558 0
M  V30 2395 C 225.723 -2.45602 -3.86579 0
M  V30 2396 N 227.214 -2.43681 -3.93921 0
M  V30 2397 C 227.949 -3.11347 -4.81509 0
M  V30 2398 N 227.445 -3.88313 -5.73746 0
M  V30 2399 N 229.238 -3.00476 -4.75048 0
M  V30 2400 H 221.389 -1.84765 -1.04764 0
M  V30 2401 H 223.652 -0.792025 -0.520961 0
M  V30 2402 H 223.358 -2.57141 -2.39941 0
M  V30 2403 H 223.232 -1.25787 -3.55609 0
M  V30 2404 H 225.619 -0.507941 -2.90696 0
M  V30 2405 H 225.7 -1.85447 -1.76191 0
M  V30 2406 H 225.344 -3.48792 -3.69197 0
M  V30 2407 H 225.274 -2.11349 -4.82327 0
M  V30 2408 H 227.765 -1.87767 -3.27951 0
M  V30 2409 H 228.078 -4.36985 -6.37389 0
M  V30 2410 H 226.423 -3.92419 -5.73614 0
M  V30 2411 H 229.614 -2.39858 -4.01977 0
M  V30 2412 H 229.787 -3.53485 -5.43095 0
M  V30 2413 N 223.193 1.4272 -0.668489 0
M  V30 2414 C 224.423 2.05668 -0.196063 0
M  V30 2415 C 224.831 1.5028 1.14946 0
M  V30 2416 O 224.174 0.6348 1.72383 0
M  V30 2417 C 224.236 3.59469 -0.0468879 0
M  V30 2418 C 223.9 4.37518 -1.32012 0
M  V30 2419 C 224.897 4.68584 -2.25222 0
M  V30 2420 C 222.582 4.77266 -1.56596 0
M  V30 2421 C 224.576 5.38326 -3.41297 0
M  V30 2422 C 222.263 5.4675 -2.72962 0
M  V30 2423 C 223.261 5.77204 -3.65137 0
M  V30 2424 O 222.949 6.45264 -4.79468 0
M  V30 2425 H 222.681 0.669382 -0.0943599 0
M  V30 2426 H 225.235 1.83954 -0.913788 0
M  V30 2427 H 223.465 3.79817 0.726357 0
M  V30 2428 H 225.154 4.04071 0.384852 0
M  V30 2429 H 225.92 4.38382 -2.07477 0
M  V30 2430 H 221.799 4.52959 -0.857249 0
M  V30 2431 H 225.343 5.62014 -4.13263 0
M  V30 2432 H 221.24 5.76369 -2.90635 0
M  V30 2433 H 222.008 6.63753 -4.78931 0
M  V30 2434 N 224.671 0.411399 1.52136 0
M  V30 2435 C 225.618 -0.412975 2.27075 0
M  V30 2436 C 226.588 -1.03912 1.29582 0
M  V30 2437 O 227.773 -1.06296 1.58448 0
M  V30 2438 C 224.913 -1.52247 3.09701 0
M  V30 2439 C 224.026 -0.917021 4.22155 0
M  V30 2440 C 223.161 -1.9994 4.92135 0
M  V30 2441 C 222.2 -1.37101 5.96548 0
M  V30 2442 N 221.337 -2.39364 6.60038 0
M  V30 2443 H 226.177 0.232499 2.97092 0
M  V30 2444 H 223.714 0.126496 1.46555 0
M  V30 2445 H 225.672 -2.17674 3.55913 0
M  V30 2446 H 224.302 -2.13794 2.41851 0
M  V30 2447 H 223.354 -0.151742 3.80097 0
M  V30 2448 H 224.666 -0.418006 4.97045 0
M  V30 2449 H 223.82 -2.73088 5.41763 0
M  V30 2450 H 222.559 -2.53208 4.16818 0
M  V30 2451 H 221.564 -0.624873 5.46237 0
M  V30 2452 H 222.789 -0.845998 6.7381 0
M  V30 2453 H 220.735 -2.91759 5.87548 0
M  V30 2454 H 220.652 -1.9428 7.3061 0
M  V30 2455 H 221.92 -3.12074 7.14304 0
M  V30 2456 N 226.149 -1.5696 0.141893 0
M  V30 2457 C 227.096 -2.16501 -0.799737 0
M  V30 2458 C 228.066 -1.09643 -1.24771 0
M  V30 2459 O 229.251 -1.3766 -1.32115 0
M  V30 2460 C 226.391 -2.78679 -2.03549 0
M  V30 2461 C 225.504 -3.99914 -1.6338 0
M  V30 2462 C 224.639 -4.50106 -2.82096 0
M  V30 2463 C 223.678 -5.63819 -2.38275 0
M  V30 2464 N 222.815 -6.08651 -3.49983 0
M  V30 2465 H 227.655 -2.96632 -0.285179 0
M  V30 2466 H 225.192 -1.46533 -0.129053 0
M  V30 2467 H 227.15 -3.1287 -2.75986 0
M  V30 2468 H 225.78 -2.012 -2.52425 0
M  V30 2469 H 224.832 -3.71735 -0.807279 0
M  V30 2470 H 226.144 -4.82311 -1.27192 0
M  V30 2471 H 225.298 -4.86325 -3.62729 0
M  V30 2472 H 224.037 -3.66706 -3.21525 0
M  V30 2473 H 223.042 -5.2718 -1.56081 0
M  V30 2474 H 224.267 -6.49 -1.99938 0
M  V30 2475 H 222.213 -5.28188 -3.89042 0
M  V30 2476 H 222.13 -6.85961 -3.17794 0
M  V30 2477 H 223.398 -6.49515 -4.30988 0
M  V30 2478 N 227.627 0.131896 -1.57047 0
M  V30 2479 C 229.038 0.690407 -1.73465 0
M  V30 2480 C 229.389 1.8094 -0.758629 0
M  V30 2481 O 228.514 2.16282 0.0713813 0
M  V30 2482 C 229.109 1.25916 -3.14532 0
M  V30 2483 C 227.668 1.76409 -3.32501 0
M  V30 2484 C 226.815 0.658579 -2.69366 0
M  V30 2485 H 229.766 -0.0939144 -1.58422 0
M  V30 2486 H 229.787 2.12892 -3.15369 0
M  V30 2487 H 229.299 0.444515 -3.85546 0
M  V30 2488 H 227.4 2.60391 -2.66509 0
M  V30 2489 H 227.513 1.88241 -4.4057 0
M  V30 2490 H 225.877 1.08899 -2.30246 0
M  V30 2491 H 226.66 -0.14487 -3.42994 0
M  V30 2492 N 229.106 1.52395 0.401703 0
M  V30 2493 C 230.039 1.70999 1.51111 0
M  V30 2494 C 231.017 0.55765 1.52738 0
M  V30 2495 O 232.201 0.785912 1.71335 0
M  V30 2496 C 229.328 1.75607 2.8962 0
M  V30 2497 C 228.374 2.97227 3.05873 0
M  V30 2498 S 229.207 4.57439 2.78405 0
M  V30 2499 C 230.363 4.64844 4.19131 0
M  V30 2500 H 230.596 2.6483 1.35102 0
M  V30 2501 H 228.129 1.42527 0.593762 0
M  V30 2502 H 230.087 1.78947 3.69443 0
M  V30 2503 H 228.748 0.828914 3.02965 0
M  V30 2504 H 227.941 2.96955 4.07227 0
M  V30 2505 H 227.543 2.91813 2.33925 0
M  V30 2506 H 229.835 4.42677 5.12877 0
M  V30 2507 H 230.778 5.66807 4.24424 0
M  V30 2508 H 231.186 3.93804 4.04448 0
M  V30 2509 N 230.584 -0.659388 1.43143 0
M  V30 2510 C 231.531 -1.77249 1.47822 0
M  V30 2511 C 232.501 -1.62818 0.328558 0
M  V30 2512 O 233.686 -1.83151 0.534838 0
M  V30 2513 C 230.826 -3.15371 1.40126 0
M  V30 2514 C 229.939 -3.4098 2.65249 0
M  V30 2515 C 229.074 -4.68915 2.49584 0
M  V30 2516 C 228.113 -4.87608 3.70006 0
M  V30 2517 N 227.25 -6.06796 3.53189 0
M  V30 2518 H 232.09 -1.72584 2.42938 0
M  V30 2519 H 229.627 -0.842297 1.20598 0
M  V30 2520 H 231.585 -3.9521 1.33659 0
M  V30 2521 H 230.215 -3.19121 0.485964 0
M  V30 2522 H 229.267 -2.55282 2.8202 0
M  V30 2523 H 230.579 -3.50681 3.54717 0
M  V30 2524 H 229.733 -5.56871 2.4079 0
M  V30 2525 H 228.472 -4.61524 1.5763 0
M  V30 2526 H 227.477 -3.9809 3.79215 0
M  V30 2527 H 228.702 -4.96834 4.62961 0
M  V30 2528 H 226.648 -6.00549 2.63965 0
M  V30 2529 H 226.565 -6.17428 4.36255 0
M  V30 2530 H 227.833 -6.9739 3.48236 0
M  V30 2531 N 232.062 -1.29571 -0.897171 0
M  V30 2532 C 233.308 -1.17863 -1.65034 0
M  V30 2533 C 233.641 0.268729 -1.92332 0
M  V30 2534 O 232.916 1.19378 -1.53555 0
M  V30 2535 C 233.199 -1.995 -2.99786 0
M  V30 2536 C 233.052 -3.5239 -2.79538 0
M  V30 2537 C 234.371 -1.82335 -4.00552 0
M  V30 2538 H 231.49 -0.429528 -0.598895 0
M  V30 2539 H 234.132 -1.59072 -1.03905 0
M  V30 2540 H 232.282 -1.64485 -3.51962 0
M  V30 2541 H 233.954 -3.97401 -2.34244 0
M  V30 2542 H 232.197 -3.77187 -2.14273 0
M  V30 2543 H 232.868 -4.04787 -3.75302 0
M  V30 2544 H 235.344 -2.12924 -3.57495 0
M  V30 2545 H 234.22 -2.41801 -4.92771 0
M  V30 2546 H 234.481 -0.779209 -4.35179 0
M  V30 2547 N 233.54 1.10788 -1.12088 0
M  V30 2548 C 234.817 1.79136 -0.785476 0
M  V30 2549 C 235.197 1.98246 0.725377 0
M  V30 2550 O 234.545 1.57258 1.65778 0
M  V30 2551 C 234.755 3.12375 -1.55636 0
M  V30 2552 C 236.103 3.8731 -1.74001 0
M  V30 2553 O 237.127 3.22085 -1.52117 0
M  V30 2554 O 235.986 5.04369 -2.10415 0
M  V30 2555 H 233.08 0.776226 -0.285311 0
M  V30 2556 H 235.626 1.1747 -1.2247 0
M  V30 2557 H 234.398 2.93863 -2.5838 0
M  V30 2558 H 234.021 3.81758 -1.11114 0
M  V30 2559 N 235.018 0.912232 1.28515 0
M  V30 2560 C 236.243 0.559774 1.99703 0
M  V30 2561 C 236.668 -0.851393 1.67729 0
M  V30 2562 O 236.026 -1.56875 0.908834 0
M  V30 2563 C 236.074 0.773874 3.52198 0
M  V30 2564 O 235.178 -0.167842 4.12058 0
M  V30 2565 H 234.519 0.21723 0.627461 0
M  V30 2566 H 237.049 1.22725 1.63706 0
M  V30 2567 H 237.059 0.683386 4.02236 0
M  V30 2568 H 235.734 1.80261 3.74805 0
M  V30 2569 H 234.311 -0.0287509 3.72889 0
M  V30 2570 N 236.496 -1.42363 0.676048 0
M  V30 2571 C 237.745 -2.00745 0.196037 0
M  V30 2572 C 238.058 -1.54083 -1.20489 0
M  V30 2573 O 239.264 -2.04891 -1.78134 0
M  V30 2574 C 237.72 -3.58651 0.299616 0
M  V30 2575 C 237.328 -4.143 1.70468 0
M  V30 2576 C 239.072 -4.24326 -0.121619 0
M  V30 2577 C 236.979 -5.64574 1.76096 0
M  V30 2578 H 235.909 -0.750787 0.0695301 0
M  V30 2579 H 238.56 -1.63072 0.841412 0
M  V30 2580 H 236.942 -3.93833 -0.413673 0
M  V30 2581 H 238.116 -3.90575 2.44515 0
M  V30 2582 H 236.431 -3.61081 2.07387 0
M  V30 2583 H 239.028 -5.34607 -0.0997362 0
M  V30 2584 H 239.371 -3.99897 -1.15708 0
M  V30 2585 H 239.904 -3.94108 0.540706 0
M  V30 2586 H 236.643 -5.93804 2.77628 0
M  V30 2587 H 236.163 -5.90286 1.06406 0
M  V30 2588 H 237.842 -6.29013 1.51496 0
M  V30 2589 N 237.974 -0.419461 -1.51915 0
M  V30 2590 C 239.214 0.152336 -2.03832 0
M  V30 2591 C 239.578 1.41501 -1.29775 0
M  V30 2592 O 240.779 2.06591 -1.7197 0
M  V30 2593 C 239.05 0.383812 -3.55333 0
M  V30 2594 S 240.609 0.921577 -4.29013 0
M  V30 2595 H 237.427 0.0402193 -0.709862 0
M  V30 2596 H 240.029 -0.574758 -1.8686 0
M  V30 2597 H 238.733 -0.541794 -4.06808 0
M  V30 2598 H 238.264 1.13849 -3.76566 0
M  V30 2599 H 240.279 2.20108 -4.4471 0
M  V30 2600 N 239.452 1.56882 -0.150215 0
M  V30 2601 C 240.4 2.18214 0.805313 0
M  V30 2602 C 241.394 1.14006 1.25296 0
M  V30 2603 O 242.6 1.3225 1.22107 0
M  V30 2604 H 238.975 0.698762 0.277913 0
M  V30 2605 H 240.946 2.97231 0.263862 0
M  V30 2606 C 239.695 2.82065 2.03309 0
M  V30 2607 H 239.018 3.61968 1.69763 0
M  V30 2608 H 240.458 3.28477 2.68103 0
M  V30 2609 C 238.917 1.80739 2.84315 0
M  V30 2610 O 239.447 1.27983 3.80767 0
M  V30 2611 N 237.653 1.4997 2.48913 0
M  V30 2612 H 237.2 1.93062 1.70542 0
M  V30 2613 H 237.158 0.824217 3.03404 0
M  V30 2614 N 240.93 -0.123565 1.57115 0
M  V30 2615 C 241.86 -1.15309 2.03042 0
M  V30 2616 C 242.841 -1.43454 0.914061 0
M  V30 2617 O 244.026 -1.53973 1.18347 0
M  V30 2618 C 241.156 -2.48043 2.43089 0
M  V30 2619 C 240.11 -2.3437 3.58127 0
M  V30 2620 C 239.436 -3.72026 3.84059 0
M  V30 2621 C 240.736 -1.80804 4.90007 0
M  V30 2622 H 242.43 -0.771102 2.893 0
M  V30 2623 H 239.976 -0.369479 1.39179 0
M  V30 2624 H 241.929 -3.20311 2.73823 0
M  V30 2625 H 240.653 -2.88122 1.53796 0
M  V30 2626 H 239.312 -1.64551 3.27595 0
M  V30 2627 H 238.96 -4.09582 2.91979 0
M  V30 2628 H 238.66 -3.63732 4.6149 0
M  V30 2629 H 240.184 -4.45806 4.1724 0
M  V30 2630 H 241.598 -2.42886 5.19307 0
M  V30 2631 H 239.995 -1.83343 5.71407 0
M  V30 2632 H 241.065 -0.76528 4.78823 0
M  V30 2633 N 242.408 -1.52605 -0.393616 0
M  V30 2634 C 243.685 -1.58001 -1.15304 0
M  V30 2635 C 244.065 -0.370385 -2.07825 0
M  V30 2636 O 243.413 0.641638 -2.19306 0
M  V30 2637 C 243.623 -2.91652 -1.91677 0
M  V30 2638 C 244.971 -3.4522 -2.47201 0
M  V30 2639 O 245.995 -2.93495 -2.01839 0
M  V30 2640 O 244.854 -4.35579 -3.3005 0
M  V30 2641 H 241.948 -0.637068 -0.527327 0
M  V30 2642 H 244.494 -1.64939 -0.399141 0
M  V30 2643 H 243.266 -3.71136 -1.23992 0
M  V30 2644 H 242.889 -2.88077 -2.74039 0
M  V30 2645 N 243.887 0.651787 -1.4349 0
M  V30 2646 C 245.136 1.40754 -1.44469 0
M  V30 2647 C 245.449 1.95463 -0.0731845 0
M  V30 2648 O 246.655 2.71471 0.0395721 0
M  V30 2649 C 245.111 2.54735 -2.5424 0
M  V30 2650 C 244.719 2.06628 -3.97504 0
M  V30 2651 C 246.463 3.32092 -2.64414 0
M  V30 2652 C 244.37 3.17829 -4.98737 0
M  V30 2653 H 243.3 0.528862 -0.53742 0
M  V30 2654 H 245.951 0.703365 -1.69485 0
M  V30 2655 H 244.333 3.2763 -2.22428 0
M  V30 2656 H 245.507 1.40734 -4.38783 0
M  V30 2657 H 243.822 1.42146 -3.91387 0
M  V30 2658 H 246.419 4.14952 -3.37223 0
M  V30 2659 H 246.762 3.80217 -1.69532 0
M  V30 2660 H 247.295 2.66279 -2.95534 0
M  V30 2661 H 244.034 2.74671 -5.95177 0
M  V30 2662 H 243.554 3.82429 -4.62069 0
M  V30 2663 H 245.233 3.82937 -5.21505 0
M  V30 2664 N 245.365 1.30045 0.890287 0
M  V30 2665 C 246.612 1.18561 1.64163 0
M  V30 2666 C 246.94 -0.260852 1.92743 0
M  V30 2667 O 246.195 -1.20376 1.54299 0
M  V30 2668 C 246.494 1.95409 2.99249 0
M  V30 2669 C 246.16 3.45066 2.90242 0
M  V30 2670 C 244.822 3.85878 2.87492 0
M  V30 2671 C 247.174 4.4039 2.78758 0
M  V30 2672 C 244.502 5.20314 2.7109 0
M  V30 2673 C 246.854 5.74928 2.63894 0
M  V30 2674 C 245.518 6.14986 2.59516 0
M  V30 2675 H 244.788 0.433846 0.600715 0
M  V30 2676 H 247.435 1.61088 1.03552 0
M  V30 2677 H 245.74 1.45501 3.63781 0
M  V30 2678 H 247.437 1.8392 3.56334 0
M  V30 2679 H 244.027 3.12631 2.93189 0
M  V30 2680 H 248.211 4.09806 2.79952 0
M  V30 2681 H 243.467 5.50449 2.66112 0
M  V30 2682 H 247.641 6.48434 2.53981 0
M  V30 2683 H 245.268 7.19104 2.46565 0
M  V30 2684 N 246.843 -1.10192 1.12674 0
M  V30 2685 C 248.073 -1.85713 0.905213 0
M  V30 2686 C 248.481 -1.81056 -0.549108 0
M  V30 2687 O 247.824 -1.19927 -1.39151 0
M  V30 2688 C 247.886 -3.34972 1.30516 0
M  V30 2689 C 247.55 -3.63385 2.77129 0
M  V30 2690 C 248.547 -3.59772 3.75313 0
M  V30 2691 C 246.232 -3.91981 3.14096 0
M  V30 2692 C 248.226 -3.84354 5.08479 0
M  V30 2693 C 245.913 -4.16218 4.47443 0
M  V30 2694 C 246.911 -4.12395 5.44444 0
M  V30 2695 O 246.599 -4.36014 6.75387 0
M  V30 2696 H 246.331 -0.593719 0.323223 0
M  V30 2697 H 248.885 -1.40198 1.50112 0
M  V30 2698 H 247.115 -3.81156 0.652463 0
M  V30 2699 H 248.804 -3.91886 1.05736 0
M  V30 2700 H 249.57 -3.37716 3.48099 0
M  V30 2701 H 245.449 -3.94085 2.39202 0
M  V30 2702 H 248.993 -3.81285 5.84181 0
M  V30 2703 H 244.89 -4.37754 4.74386 0
M  V30 2704 H 245.658 -4.53516 6.8137 0
M  V30 2705 N 248.321 -0.919034 -1.28029 0
M  V30 2706 C 249.568 -0.554934 -1.94748 0
M  V30 2707 C 249.896 0.90231 -1.72304 0
M  V30 2708 O 249.151 1.65767 -1.04018 0
M  V30 2709 C 249.45 -0.816855 -3.4794 0
M  V30 2710 C 249.116 -2.25448 -3.90492 0
M  V30 2711 C 247.778 -2.64752 -4.01821 0
M  V30 2712 C 250.13 -3.18977 -4.12193 0
M  V30 2713 C 247.458 -3.96727 -4.32232 0
M  V30 2714 C 249.81 -4.50523 -4.44086 0
M  V30 2715 C 248.474 -4.89673 -4.53626 0
M  V30 2716 H 247.744 -0.203065 -0.712633 0
M  V30 2717 H 250.391 -1.16136 -1.52265 0
M  V30 2718 H 248.696 -0.127677 -3.91592 0
M  V30 2719 H 250.393 -0.514238 -3.97689 0
M  V30 2720 H 246.983 -1.93952 -3.82205 0
M  V30 2721 H 251.167 -2.89817 -4.02889 0
M  V30 2722 H 246.423 -4.26754 -4.37825 0
M  V30 2723 H 250.597 -5.23005 -4.59825 0
M  V30 2724 H 248.224 -5.91969 -4.76946 0
M  V30 2725 N 249.799 1.42003 -0.683588 0
M  V30 2726 C 251.21 1.84501 -0.285736 0
M  V30 2727 C 251.561 1.57213 1.17382 0
M  V30 2728 O 250.686 1.03642 1.89966 0
M  V30 2729 C 251.281 3.34912 -0.511821 0
M  V30 2730 C 249.84 3.76025 -0.168005 0
M  V30 2731 C 248.987 2.6551 -0.799983 0
M  V30 2732 H 251.938 1.31724 -0.885119 0
M  V30 2733 H 251.959 3.79784 0.233292 0
M  V30 2734 H 251.471 3.54741 -1.57418 0
M  V30 2735 H 249.572 3.61801 0.890567 0
M  V30 2736 H 249.685 4.75141 -0.614661 0
M  V30 2737 H 248.049 2.53654 -0.230568 0
M  V30 2738 H 248.832 2.8816 -1.86597 0
M  V30 2739 N 251.277 0.427512 1.51691 0
M  V30 2740 C 252.524 -0.142229 2.02 0
M  V30 2741 C 252.852 -1.43566 1.31221 0
M  V30 2742 O 252.107 -1.91298 0.412744 0
M  V30 2743 C 252.406 -0.418249 3.54944 0
M  V30 2744 C 252.072 0.788187 4.43958 0
M  V30 2745 C 250.734 1.11906 4.68007 0
M  V30 2746 C 253.086 1.59347 4.96244 0
M  V30 2747 C 250.414 2.25608 5.41588 0
M  V30 2748 C 252.766 2.7214 5.71072 0
M  V30 2749 C 251.43 3.05692 5.93387 0
M  V30 2750 H 250.7 -0.0520451 0.73917 0
M  V30 2751 H 253.347 0.572697 1.82736 0
M  V30 2752 H 251.652 -1.21496 3.72486 0
M  V30 2753 H 253.349 -0.872339 3.91397 0
M  V30 2754 H 249.939 0.520344 4.2543 0
M  V30 2755 H 254.123 1.35106 4.77556 0
M  V30 2756 H 249.379 2.51929 5.57083 0
M  V30 2757 H 253.553 3.34914 6.10578 0
M  V30 2758 H 251.18 3.9391 6.50184 0
M  V30 2759 N 252.755 -1.56801 0.158532 0
M  V30 2760 C 254.032 -1.88131 -0.535357 0
M  V30 2761 C 254.412 -1.06638 -1.82186 0
M  V30 2762 O 253.76 -0.156533 -2.27963 0
M  V30 2763 C 253.97 -3.39949 -0.789653 0
M  V30 2764 C 255.318 -4.09416 -1.12533 0
M  V30 2765 O 256.342 -3.45194 -0.878622 0
M  V30 2766 O 255.201 -5.22855 -1.59014 0
M  V30 2767 H 252.295 -0.780143 -0.27442 0
M  V30 2768 H 254.841 -1.68564 0.19601 0
M  V30 2769 H 253.613 -3.91115 0.120353 0
M  V30 2770 H 253.236 -3.65084 -1.57479 0
M  V30 2771 N 254.233 0.115231 -1.57178 0
M  V30 2772 C 255.165 1.16694 -1.97269 0
M  V30 2773 C 256.178 1.37445 -0.872502 0
M  V30 2774 O 257.367 1.36454 -1.15077 0
M  V30 2775 C 254.467 2.52627 -2.25905 0
M  V30 2776 C 253.64 2.52427 -3.57211 0
M  V30 2777 C 252.699 3.70134 -3.74016 0
M  V30 2778 O 251.725 3.53546 -4.46087 0
M  V30 2779 N 252.927 4.88844 -3.13068 0
M  V30 2780 H 255.692 0.82588 -2.88096 0
M  V30 2781 H 253.253 0.304461 -1.59011 0
M  V30 2782 H 255.245 3.29937 -2.34359 0
M  V30 2783 H 253.815 2.789 -1.41186 0
M  V30 2784 H 253.035 1.60805 -3.5991 0
M  V30 2785 H 254.323 2.49353 -4.43509 0
M  V30 2786 H 253.721 5.05225 -2.54489 0
M  V30 2787 H 252.278 5.63817 -3.27037 0
M  V30 2788 N 255.711 1.52812 0.385517 0
M  V30 2789 C 256.643 1.74096 1.49074 0
M  V30 2790 C 257.656 0.621462 1.50472 0
M  V30 2791 O 258.845 0.897245 1.54311 0
M  V30 2792 C 255.945 1.78774 2.87911 0
M  V30 2793 C 255.118 3.08134 3.10439 0
M  V30 2794 C 254.177 3.04313 4.29278 0
M  V30 2795 O 253.203 3.78168 4.25415 0
M  V30 2796 N 254.405 2.23741 5.35649 0
M  V30 2797 H 257.17 2.69455 1.31202 0
M  V30 2798 H 254.731 1.51343 0.575065 0
M  V30 2799 H 256.723 1.73721 3.65518 0
M  V30 2800 H 255.293 0.907869 2.99126 0
M  V30 2801 H 254.513 3.26649 2.20667 0
M  V30 2802 H 255.801 3.93662 3.22347 0
M  V30 2803 H 255.199 1.63211 5.41645 0
M  V30 2804 H 253.756 2.24524 6.11909 0
M  V30 2805 N 257.189 -0.644168 1.43834 0
M  V30 2806 C 258.137 -1.77793 1.49974 0
M  V30 2807 C 259.131 -1.65253 0.372536 0
M  V30 2808 O 260.337 -1.7149 0.546924 0
M  V30 2809 H 256.712 -0.58675 0.47035 0
M  V30 2810 H 258.683 -1.69736 2.45423 0
M  V30 2811 C 257.432 -3.16087 1.4486 0
M  V30 2812 H 256.755 -3.26378 2.30905 0
M  V30 2813 H 258.195 -3.95349 1.53217 0
M  V30 2814 C 256.654 -3.36484 0.167463 0
M  V30 2815 O 257.184 -3.94298 -0.767609 0
M  V30 2816 N 255.39 -2.90504 0.0747556 0
M  V30 2817 H 254.937 -2.4364 0.836507 0
M  V30 2818 H 254.895 -3.04527 -0.781714 0
M  V30 2819 N 258.668 -1.30515 -0.883378 0
M  V30 2820 C 259.908 -1.20716 -1.64946 0
M  V30 2821 C 260.272 0.234072 -1.90568 0
M  V30 2822 O 261.473 0.455335 -2.64915 0
M  V30 2823 C 259.744 -2.01444 -2.9522 0
M  V30 2824 S 261.303 -2.0836 -3.86175 0
M  V30 2825 H 258.121 -0.430165 -0.566109 0
M  V30 2826 H 260.723 -1.65011 -1.04841 0
M  V30 2827 H 259.427 -3.05268 -2.74298 0
M  V30 2828 H 258.958 -1.57817 -3.60357 0
M  V30 2829 H 260.973 -1.21215 -4.81167 0
M  V30 2830 N 260.146 1.09593 -1.13257 0
M  V30 2831 C 261.374 1.855 -0.916378 0
M  V30 2832 C 261.789 1.81069 0.534738 0
M  V30 2833 O 261.146 1.20562 1.37007 0
M  V30 2834 C 261.197 3.33546 -1.39388 0
M  V30 2835 O 260.918 3.37927 -2.78813 0
M  V30 2836 C 262.419 4.26299 -1.21588 0
M  V30 2837 H 259.639 0.585991 -0.326887 0
M  V30 2838 H 262.183 1.38488 -1.5047 0
M  V30 2839 H 260.338 3.77992 -0.848597 0
M  V30 2840 H 260.752 4.30254 -2.9997 0
M  V30 2841 H 262.226 5.28341 -1.59876 0
M  V30 2842 H 262.703 4.38918 -0.157376 0
M  V30 2843 H 263.309 3.87668 -1.7491 0
M  V30 2844 N 261.624 0.925811 1.2754 0
M  V30 2845 C 262.554 0.440748 2.29303 0
M  V30 2846 C 263.535 -0.497971 1.62648 0
M  V30 2847 O 264.72 -0.403126 1.8997 0
M  V30 2848 C 261.85 -0.309048 3.45922 0
M  V30 2849 C 260.804 0.54166 4.24559 0
M  V30 2850 C 260.13 -0.337191 5.33636 0
M  V30 2851 C 261.43 1.80516 4.90114 0
M  V30 2852 H 263.124 1.29121 2.70126 0
M  V30 2853 H 260.67 0.622323 1.29858 0
M  V30 2854 H 262.623 -0.659315 4.1621 0
M  V30 2855 H 261.347 -1.19352 3.04011 0
M  V30 2856 H 260.006 0.874609 3.56014 0
M  V30 2857 H 259.654 -1.22056 4.87966 0
M  V30 2858 H 259.354 0.228497 5.87156 0
M  V30 2859 H 260.878 -0.683072 6.06767 0
M  V30 2860 H 262.292 1.52307 5.52698 0
M  V30 2861 H 260.689 2.3142 5.53683 0
M  V30 2862 H 261.759 2.52581 4.13921 0
M  V30 2863 N 263.102 -1.41638 0.69111 0
M  V30 2864 C 264.33 -2.05628 0.22909 0
M  V30 2865 C 264.745 -1.51992 -1.11999 0
M  V30 2866 O 264.102 -0.666322 -1.69901 0
M  V30 2867 C 264.153 -3.61084 0.173283 0
M  V30 2868 O 263.874 -4.12735 1.46907 0
M  V30 2869 C 265.375 -4.42213 -0.310266 0
M  V30 2870 H 262.595 -0.662327 0.107534 0
M  V30 2871 H 265.139 -1.81489 0.942438 0
M  V30 2872 H 263.294 -3.84278 -0.490858 0
M  V30 2873 H 263.708 -5.06743 1.35322 0
M  V30 2874 H 265.182 -5.51194 -0.298196 0
M  V30 2875 H 265.659 -4.1799 -1.34838 0
M  V30 2876 H 266.265 -4.24074 0.322716 0
M  V30 2877 N 264.58 -0.43555 -1.51462 0
M  V30 2878 C 265.827 0.131514 -2.02072 0
M  V30 2879 C 266.155 1.42868 -1.31981 0
M  V30 2880 O 265.41 1.91076 -0.422883 0
M  V30 2881 C 265.709 0.39942 -3.55161 0
M  V30 2882 C 265.375 -0.81172 -4.43533 0
M  V30 2883 C 264.037 -1.14387 -4.67407 0
M  V30 2884 C 266.389 -1.61976 -4.95392 0
M  V30 2885 C 263.717 -2.28477 -5.40384 0
M  V30 2886 C 266.069 -2.75164 -5.6962 0
M  V30 2887 C 264.733 -3.08835 -5.91758 0
M  V30 2888 H 264.003 0.0481244 -0.739436 0
M  V30 2889 H 266.65 -0.58238 -1.8243 0
M  V30 2890 H 264.955 1.19519 -3.73125 0
M  V30 2891 H 266.652 0.85157 -3.91854 0
M  V30 2892 H 263.242 -0.542898 -4.25148 0
M  V30 2893 H 267.426 -1.37637 -4.76833 0
M  V30 2894 H 262.682 -2.5488 -5.55739 0
M  V30 2895 H 266.856 -3.38147 -6.08793 0
M  V30 2896 H 264.483 -3.97353 -6.48086 0
M  V30 2897 N 266.058 1.56714 -0.166846 0
M  V30 2898 C 267.283 2.01557 0.488833 0
M  V30 2899 C 267.708 1.0463 1.56314 0
M  V30 2900 O 267.066 0.0251304 1.81283 0
M  V30 2901 C 267.114 3.4503 1.04818 0
M  V30 2902 O 266.218 3.51163 2.16236 0
M  V30 2903 H 265.559 0.653516 0.117526 0
M  V30 2904 H 268.089 2.02818 -0.269421 0
M  V30 2905 H 268.099 3.84243 1.37191 0
M  V30 2906 H 266.774 4.15077 0.261572 0
M  V30 2907 H 265.351 3.23807 1.84942 0
M  V30 2908 N 267.536 -0.106894 1.57237 0
M  V30 2909 C 268.761 -0.830287 1.90055 0
M  V30 2910 C 269.186 -1.72064 0.75998 0
M  V30 2911 O 268.544 -1.78982 -0.288991 0
M  V30 2912 C 268.592 -1.6295 3.21683 0
M  V30 2913 O 267.696 -2.73748 3.08441 0
M  V30 2914 H 267.037 -0.228855 0.623315 0
M  V30 2915 H 269.567 -0.085658 2.04421 0
M  V30 2916 H 269.577 -2.01621 3.54701 0
M  V30 2917 H 268.252 -0.975989 4.04286 0
M  V30 2918 H 266.829 -2.38192 2.86913 0
M  V30 2919 N 269.014 -1.53014 -0.377408 0
M  V30 2920 C 270.261 -1.68623 -1.12128 0
M  V30 2921 C 270.589 -0.431997 -1.89642 0
M  V30 2922 O 269.844 0.585855 -1.86725 0
M  V30 2923 C 270.143 -2.87982 -2.11663 0
M  V30 2924 C 269.809 -4.24964 -1.50719 0
M  V30 2925 C 268.471 -4.62217 -1.33825 0
M  V30 2926 C 270.823 -5.10199 -1.06519 0
M  V30 2927 C 268.151 -5.82352 -0.712963 0
M  V30 2928 C 270.503 -6.30969 -0.453955 0
M  V30 2929 C 269.167 -6.66944 -0.272411 0
M  V30 2930 H 268.437 -0.617034 -0.410305 0
M  V30 2931 H 271.084 -1.8718 -0.404484 0
M  V30 2932 H 269.389 -2.63889 -2.89603 0
M  V30 2933 H 271.086 -2.97253 -2.6915 0
M  V30 2934 H 267.676 -3.95626 -1.64858 0
M  V30 2935 H 271.86 -4.81978 -1.18368 0
M  V30 2936 H 267.116 -6.08824 -0.560611 0
M  V30 2937 H 271.29 -6.96324 -0.103217 0
M  V30 2938 H 268.917 -7.59898 0.214181 0
M  V30 2939 N 270.492 0.636531 -1.44174 0
M  V30 2940 C 271.422 1.76003 -1.53444 0
M  V30 2941 C 272.403 1.65619 -0.387841 0
M  V30 2942 O 273.588 1.84461 -0.607257 0
M  V30 2943 C 270.718 3.14511 -1.4731 0
M  V30 2944 C 269.672 3.39677 -2.60391 0
M  V30 2945 C 268.998 4.78159 -2.39308 0
M  V30 2946 C 270.298 3.32772 -4.02567 0
M  V30 2947 H 271.992 1.68501 -2.47483 0
M  V30 2948 H 269.538 0.809237 -1.19111 0
M  V30 2949 H 271.491 3.92878 -1.52397 0
M  V30 2950 H 270.215 3.22783 -0.49785 0
M  V30 2951 H 268.874 2.63688 -2.54684 0
M  V30 2952 H 268.522 4.83128 -1.39988 0
M  V30 2953 H 268.222 4.95956 -3.15122 0
M  V30 2954 H 269.746 5.58762 -2.46205 0
M  V30 2955 H 271.16 4.01051 -4.09672 0
M  V30 2956 H 269.557 3.62104 -4.7854 0
M  V30 2957 H 270.627 2.30669 -4.2652 0
M  V30 2958 N 271.97 1.30982 0.876444 0
M  V30 2959 C 273.2 1.23063 1.65949 0
M  V30 2960 C 273.608 -0.207537 1.88058 0
M  V30 2961 O 272.951 -1.14781 1.43426 0
M  V30 2962 C 273.013 1.89768 3.05333 0
M  V30 2963 C 272.677 3.39106 3.0636 0
M  V30 2964 C 273.674 4.3496 2.84791 0
M  V30 2965 C 271.359 3.80693 3.27686 0
M  V30 2966 C 273.353 5.70375 2.84519 0
M  V30 2967 C 271.04 5.16223 3.27043 0
M  V30 2968 C 272.038 6.10875 3.05485 0
M  V30 2969 O 271.726 7.43928 3.04674 0
M  V30 2970 H 271.458 0.426685 0.524324 0
M  V30 2971 H 274.012 1.7329 1.10271 0
M  V30 2972 H 272.242 1.34082 3.6271 0
M  V30 2973 H 273.931 1.75853 3.65829 0
M  V30 2974 H 274.697 4.0416 2.68103 0
M  V30 2975 H 270.576 3.07457 3.43499 0
M  V30 2976 H 274.12 6.44228 2.67611 0
M  V30 2977 H 270.017 5.4666 3.43269 0
M  V30 2978 H 270.785 7.53022 3.2078 0
M  V30 2979 N 273.449 -1.08991 1.13837 0
M  V30 2980 C 274.677 -1.85011 0.926202 0
M  V30 2981 C 275.092 -1.8135 -0.525127 0
M  V30 2982 O 274.449 -1.21287 -1.36366 0
M  V30 2983 C 274.5 -3.32802 1.41155 0
M  V30 2984 O 274.221 -3.36444 2.80601 0
M  V30 2985 C 275.722 -4.25649 1.23847 0
M  V30 2986 H 272.942 -0.584249 0.32999 0
M  V30 2987 H 275.486 -1.37688 1.51202 0
M  V30 2988 H 273.641 -3.77536 0.868631 0
M  V30 2989 H 274.055 -4.28657 3.02248 0
M  V30 2990 H 275.529 -5.27485 1.62675 0
M  V30 2991 H 276.006 -4.38828 0.18065 0
M  V30 2992 H 276.612 -3.86735 1.76964 0
M  V30 2993 N 274.927 -0.932562 -1.27047 0
M  V30 2994 C 276.173 -0.576412 -1.94436 0
M  V30 2995 C 276.506 0.880891 -1.73072 0
M  V30 2996 O 275.781 1.62905 -1.06264 0
M  V30 2997 C 276.064 -0.909031 -3.48437 0
M  V30 2998 C 275.917 -2.42044 -3.79123 0
M  V30 2999 C 277.236 -0.418341 -4.38107 0
M  V30 3000 H 274.355 -0.210888 -0.706184 0
M  V30 3001 H 276.997 -1.16522 -1.50075 0
M  V30 3002 H 275.147 -0.407947 -3.86352 0
M  V30 3003 H 276.819 -2.99359 -3.50973 0
M  V30 3004 H 275.062 -2.86758 -3.25503 0
M  V30 3005 H 275.733 -2.6037 -4.86736 0
M  V30 3006 H 278.209 -0.847856 -4.0737 0
M  V30 3007 H 277.085 -0.679981 -5.44672 0
M  V30 3008 H 277.346 0.681642 -4.36814 0
M  V30 3009 N 276.405 1.4127 -0.698611 0
M  V30 3010 C 277.682 1.94955 -0.158762 0
M  V30 3011 C 278.062 1.63781 1.33188 0
M  V30 3012 O 277.41 0.946423 2.07979 0
M  V30 3013 C 277.62 3.46044 -0.453309 0
M  V30 3014 C 278.968 4.22872 -0.382707 0
M  V30 3015 O 279.992 3.54076 -0.388396 0
M  V30 3016 O 278.851 5.45407 -0.345463 0
M  V30 3017 H 275.945 0.82683 -0.0167505 0
M  V30 3018 H 278.491 1.50971 -0.77498 0
M  V30 3019 H 277.263 3.62028 -1.48498 0
M  V30 3020 H 276.886 3.97128 0.19373 0
M  V30 3021 N 277.883 0.443576 1.51229 0
M  V30 3022 C 279.108 -0.121648 2.07043 0
M  V30 3023 C 279.533 -1.35156 1.30823 0
M  V30 3024 O 278.891 -1.7793 0.347934 0
M  V30 3025 C 278.939 -0.41624 3.5819 0
M  V30 3026 O 278.043 -1.50163 3.8409 0
M  V30 3027 H 277.384 0.000871367 0.663999 0
M  V30 3028 H 279.914 0.626706 1.94765 0
M  V30 3029 H 279.924 -0.664867 4.02546 0
M  V30 3030 H 278.599 0.482653 4.1309 0
M  V30 3031 H 277.176 -1.24248 3.51592 0
M  V30 3032 N 279.361 -1.56624 0.175154 0
M  V30 3033 C 280.294 -2.14 -0.792412 0
M  V30 3034 C 281.272 -1.07114 -1.22333 0
M  V30 3035 O 282.456 -1.35112 -1.31442 0
M  V30 3036 C 279.583 -2.68268 -2.0676 0
M  V30 3037 C 278.629 -3.87562 -1.7804 0
M  V30 3038 S 279.462 -5.27074 -0.946222 0
M  V30 3039 C 280.618 -5.8475 -2.23199 0
M  V30 3040 H 280.851 -2.95736 -0.304588 0
M  V30 3041 H 278.384 -1.54349 -0.0395705 0
M  V30 3042 H 280.342 -3.00182 -2.80002 0
M  V30 3043 H 279.003 -1.86612 -2.52656 0
M  V30 3044 H 278.196 -4.23874 -2.72666 0
M  V30 3045 H 277.798 -3.56555 -1.12891 0
M  V30 3046 H 280.09 -5.97898 -3.18629 0
M  V30 3047 H 281.033 -6.81756 -1.91349 0
M  V30 3048 H 281.441 -5.13198 -2.35134 0
M  V30 3049 N 280.839 0.0985539 -1.57292 0
M  V30 3050 C 281.769 1.12064 -2.04851 0
M  V30 3051 C 282.75 1.41981 -0.936767 0
M  V30 3052 O 283.935 1.52071 -1.20781 0
M  V30 3053 C 281.065 2.44144 -2.47004 0
M  V30 3054 C 280.019 2.28643 -3.6181 0
M  V30 3055 C 279.345 3.65869 -3.89929 0
M  V30 3056 C 280.645 1.72986 -4.92822 0
M  V30 3057 H 282.339 0.724979 -2.9049 0
M  V30 3058 H 279.885 0.34729 -1.39749 0
M  V30 3059 H 281.838 3.15914 -2.78884 0
M  V30 3060 H 280.562 2.85639 -1.5836 0
M  V30 3061 H 279.221 1.59318 -3.30172 0
M  V30 3062 H 278.869 4.04885 -2.98458 0
M  V30 3063 H 278.569 3.56344 -4.67218 0
M  V30 3064 H 280.093 4.39112 -4.2428 0
M  V30 3065 H 281.507 2.34593 -5.23105 0
M  V30 3066 H 279.904 1.74229 -5.74251 0
M  V30 3067 H 280.974 0.689007 -4.7998 0
M  V30 3068 N 282.317 1.53212 0.369288 0
M  V30 3069 C 283.247 1.82365 1.45826 0
M  V30 3070 C 284.228 0.676907 1.56051 0
M  V30 3071 O 285.413 0.926401 1.70679 0
M  V30 3072 C 282.543 2.01023 2.83208 0
M  V30 3073 C 281.497 3.1678 2.8781 0
M  V30 3074 C 280.823 3.20724 4.27832 0
M  V30 3075 C 282.123 4.55447 2.55667 0
M  V30 3076 H 283.817 2.73559 1.21678 0
M  V30 3077 H 281.363 1.3163 0.583911 0
M  V30 3078 H 283.316 2.20001 3.59413 0
M  V30 3079 H 282.04 1.06536 3.08736 0
M  V30 3080 H 280.699 2.97616 2.14056 0
M  V30 3081 H 280.347 2.23882 4.50429 0
M  V30 3082 H 280.047 3.98496 4.31827 0
M  V30 3083 H 281.571 3.41881 5.05915 0
M  V30 3084 H 282.985 4.74611 3.21586 0
M  V30 3085 H 281.382 5.35432 2.70984 0
M  V30 3086 H 282.452 4.60812 1.5093 0
M  V30 3087 N 283.795 -0.628877 1.44509 0
M  V30 3088 C 285.072 -1.38733 1.37886 0
M  V30 3089 C 285.452 -2.11065 0.0387008 0
M  V30 3090 O 284.8 -2.06476 -0.97878 0
M  V30 3091 C 285.01 -2.35188 2.57852 0
M  V30 3092 C 286.358 -2.9845 3.02014 0
M  V30 3093 O 287.382 -2.45513 2.58073 0
M  V30 3094 O 286.241 -3.94487 3.78209 0
M  V30 3095 H 283.335 -0.621015 0.54614 0
M  V30 3096 H 285.881 -0.653744 1.56602 0
M  V30 3097 H 284.653 -1.80855 3.46998 0
M  V30 3098 H 284.276 -3.1596 2.4136 0
M  V30 3099 N 285.273 -1.31445 -0.869486 0
M  V30 3100 C 286.206 -1.13465 -1.97992 0
M  V30 3101 C 287.184 -0.0380291 -1.62556 0
M  V30 3102 O 288.368 -0.194544 -1.87493 0
M  V30 3103 C 285.495 -0.733822 -3.30655 0
M  V30 3104 C 284.541 -1.83356 -3.85075 0
M  V30 3105 S 285.374 -3.43909 -4.10472 0
M  V30 3106 C 286.53 -3.05763 -5.46132 0
M  V30 3107 H 286.763 -2.07471 -2.1294 0
M  V30 3108 H 284.296 -1.15936 -1.01972 0
M  V30 3109 H 286.254 -0.509306 -4.07328 0
M  V30 3110 H 284.915 0.187123 -3.13542 0
M  V30 3111 H 284.108 -1.50574 -4.80982 0
M  V30 3112 H 283.71 -2.01315 -3.15195 0
M  V30 3113 H 286.002 -2.54686 -6.27807 0
M  V30 3114 H 286.945 -4.00635 -5.83864 0
M  V30 3115 H 287.353 -2.43192 -5.09429 0
M  V30 3116 N 286.751 1.08385 -1.14413 0
M  V30 3117 C 287.661 2.18856 -0.844951 0
M  V30 3118 C 288.677 1.73121 0.174668 0
M  V30 3119 O 289.853 2.014 0.00312857 0
M  V30 3120 C 286.918 3.45155 -0.32696 0
M  V30 3121 C 285.979 4.05513 -1.40916 0
M  V30 3122 C 285.212 5.25784 -0.915793 0
M  V30 3123 O 285.435 5.69884 0.242651 0
M  V30 3124 O 284.369 5.77545 -1.69487 0
M  V30 3125 H 288.195 2.46919 -1.76818 0
M  V30 3126 H 285.78 1.17524 -0.922411 0
M  V30 3127 H 287.662 4.21377 -0.0440211 0
M  V30 3128 H 286.337 3.18668 0.568539 0
M  V30 3129 H 285.244 3.30879 -1.74556 0
M  V30 3130 H 286.577 4.3625 -2.27919 0
M  V30 3131 N 288.23 0.939286 1.26551 0
M  V30 3132 C 289.177 0.446088 2.26448 0
M  V30 3133 C 290.147 -0.493234 1.58608 0
M  V30 3134 O 291.332 -0.409857 1.86346 0
M  V30 3135 C 288.472 -0.284375 3.43926 0
M  V30 3136 C 287.585 0.690399 4.26448 0
M  V30 3137 C 286.72 -0.0610712 5.31165 0
M  V30 3138 C 285.759 0.905649 6.05363 0
M  V30 3139 N 284.896 0.186055 7.01853 0
M  V30 3140 H 289.736 1.30291 2.68008 0
M  V30 3141 H 287.273 0.65371 1.31776 0
M  V30 3142 H 289.231 -0.724313 4.10864 0
M  V30 3143 H 287.861 -1.10535 3.03285 0
M  V30 3144 H 286.913 1.24885 3.59316 0
M  V30 3145 H 288.225 1.42873 4.779 0
M  V30 3146 H 287.379 -0.56038 6.04106 0
M  V30 3147 H 286.118 -0.832297 4.80546 0
M  V30 3148 H 285.123 1.4161 5.3125 0
M  V30 3149 H 286.348 1.67685 6.58072 0
M  V30 3150 H 284.294 -0.566714 6.53548 0
M  V30 3151 H 284.211 0.863752 7.51049 0
M  V30 3152 H 285.479 -0.292221 7.78952 0
M  V30 3153 N 289.708 -1.40897 0.706093 0
M  V30 3154 C 290.618 -2.3455 0.0482286 0
M  V30 3155 C 291.634 -1.56796 -0.754396 0
M  V30 3156 O 292.81 -1.89228 -0.689538 0
M  V30 3157 C 289.875 -3.35625 -0.869303 0
M  V30 3158 C 288.936 -4.29261 -0.0576994 0
M  V30 3159 C 288.169 -5.25508 -0.931531 0
M  V30 3160 O 288.392 -5.27472 -2.17092 0
M  V30 3161 O 287.326 -6.00727 -0.375587 0
M  V30 3162 H 291.152 -2.92407 0.820476 0
M  V30 3163 H 288.737 -1.4193 0.4665 0
M  V30 3164 H 290.619 -3.97635 -1.39514 0
M  V30 3165 H 289.294 -2.80196 -1.62086 0
M  V30 3166 H 288.201 -3.70566 0.512988 0
M  V30 3167 H 289.534 -4.87817 0.655426 0
M  V30 3168 N 291.186 -0.45159 -1.50991 0
M  V30 3169 C 292.432 0.110237 -2.025 0
M  V30 3170 C 292.765 1.41109 -1.33424 0
M  V30 3171 O 292.04 1.89135 -0.453659 0
M  V30 3172 C 292.323 0.314271 -3.58726 0
M  V30 3173 C 292.176 -1.00623 -4.38401 0
M  V30 3174 C 293.495 1.07767 -4.26702 0
M  V30 3175 H 290.614 0.0385897 -0.735989 0
M  V30 3176 H 293.256 -0.593374 -1.80497 0
M  V30 3177 H 291.406 0.913601 -3.77605 0
M  V30 3178 H 293.078 -1.64064 -4.31139 0
M  V30 3179 H 291.321 -1.6075 -4.02917 0
M  V30 3180 H 291.992 -0.817341 -5.45915 0
M  V30 3181 H 294.468 0.56986 -4.12179 0
M  V30 3182 H 293.344 1.18921 -5.35863 0
M  V30 3183 H 293.605 2.10939 -3.88532 0
M  V30 3184 N 292.664 1.56529 -0.183458 0
M  V30 3185 C 293.91 1.98304 0.452466 0
M  V30 3186 C 294.265 1.06799 1.60037 0
M  V30 3187 O 293.558 0.110049 1.91284 0
M  V30 3188 C 293.752 3.43939 0.971637 0
M  V30 3189 C 293.581 4.49528 -0.124425 0
M  V30 3190 C 292.351 5.01981 -0.578168 0
M  V30 3191 C 294.549 5.05836 -0.929207 0
M  V30 3192 N 292.531 5.91219 -1.65327 0
M  V30 3193 C 293.902 5.91632 -1.85396 0
M  V30 3194 C 295.957 4.88302 -0.972929 0
M  V30 3195 C 294.66 6.61768 -2.81878 0
M  V30 3196 C 296.686 5.59168 -1.92574 0
M  V30 3197 C 296.048 6.44701 -2.83795 0
M  V30 3198 H 292.147 0.770551 0.133324 0
M  V30 3199 H 294.731 1.92581 -0.286473 0
M  V30 3200 H 292.902 3.50184 1.68006 0
M  V30 3201 H 294.634 3.72702 1.5772 0
M  V30 3202 H 291.389 4.73282 -0.173639 0
M  V30 3203 H 291.813 6.40543 -2.19167 0
M  V30 3204 H 296.455 4.21861 -0.28168 0
M  V30 3205 H 294.173 7.27415 -3.51984 0
M  V30 3206 H 297.759 5.47582 -1.96583 0
M  V30 3207 H 296.639 6.98573 -3.56322 0
M  V30 3208 N 294.142 -0.090211 1.57342 0
M  V30 3209 C 295.052 -1.12735 2.05738 0
M  V30 3210 C 296.068 -1.43557 0.983231 0
M  V30 3211 O 297.244 -1.54101 1.29672 0
M  V30 3212 C 294.309 -2.42659 2.47624 0
M  V30 3213 C 293.37 -2.18975 3.69254 0
M  V30 3214 C 292.603 -3.42704 4.09133 0
M  V30 3215 O 292.826 -4.51127 3.49057 0
M  V30 3216 O 291.76 -3.32003 5.02053 0
M  V30 3217 H 295.586 -0.746279 2.94388 0
M  V30 3218 H 293.171 -0.303064 1.46294 0
M  V30 3219 H 295.053 -3.19155 2.7517 0
M  V30 3220 H 293.728 -2.80182 1.62109 0
M  V30 3221 H 292.635 -1.40244 3.46818 0
M  V30 3222 H 293.968 -1.86342 4.55563 0
M  V30 3223 N 295.62 -1.53406 -0.361157 0
M  V30 3224 C 296.869 -1.69022 -1.10066 0
M  V30 3225 C 297.182 -0.450838 -1.90333 0
M  V30 3226 O 298.388 -0.487617 -2.67085 0
M  V30 3227 C 296.844 -2.98812 -2.00598 0
M  V30 3228 C 296.452 -4.30027 -1.25621 0
M  V30 3229 C 298.196 -3.23795 -2.74513 0
M  V30 3230 C 296.103 -5.50903 -2.1508 0
M  V30 3231 H 295.033 -0.629776 -0.414606 0
M  V30 3232 H 297.684 -1.79907 -0.361348 0
M  V30 3233 H 296.066 -2.8174 -2.78278 0
M  V30 3234 H 297.24 -4.57745 -0.529739 0
M  V30 3235 H 295.555 -4.11522 -0.635496 0
M  V30 3236 H 298.152 -4.11289 -3.41681 0
M  V30 3237 H 298.495 -2.40045 -3.40123 0
M  V30 3238 H 299.028 -3.41561 -2.03914 0
M  V30 3239 H 295.767 -6.37143 -1.54041 0
M  V30 3240 H 295.287 -5.27459 -2.85565 0
M  V30 3241 H 296.966 -5.85865 -2.74538 0
M  V30 3242 N 297.098 0.621204 -1.44841 0
M  V30 3243 C 298.326 1.40752 -1.51646 0
M  V30 3244 C 298.741 1.88246 -0.144549 0
M  V30 3245 O 298.098 1.61422 0.851416 0
M  V30 3246 C 298.149 2.62119 -2.4895 0
M  V30 3247 O 297.87 2.16602 -3.80808 0
M  V30 3248 C 299.371 3.55135 -2.65319 0
M  V30 3249 H 296.591 0.431325 -0.514004 0
M  V30 3250 H 299.135 0.758835 -1.899 0
M  V30 3251 H 297.29 3.23058 -2.13805 0
M  V30 3252 H 297.704 2.95358 -4.33433 0
M  V30 3253 H 299.178 4.36874 -3.37409 0
M  V30 3254 H 299.655 4.04592 -1.70886 0
M  V30 3255 H 300.261 3.00058 -3.01405 0
M  V30 3256 N 298.576 1.31904 0.862503 0
M  V30 3257 C 299.853 1.12644 1.59908 0
M  V30 3258 C 300.233 -0.316104 2.0872 0
M  V30 3259 O 299.581 -1.31145 1.87118 0
M  V30 3260 C 299.791 2.1472 2.7513 0
M  V30 3261 C 301.139 2.47637 3.44907 0
M  V30 3262 O 302.163 2.13205 2.85346 0
M  V30 3263 O 301.022 3.06632 4.52371 0
M  V30 3264 H 298.116 0.43416 0.703871 0
M  V30 3265 H 300.662 1.43408 0.907314 0
M  V30 3266 H 299.434 3.1172 2.3653 0
M  V30 3267 H 299.057 1.84905 3.51989 0
M  V30 3268 N 300.054 -1.07777 1.14986 0
M  V30 3269 C 301.017 -2.13041 0.845358 0
M  V30 3270 C 302.017 -1.60071 -0.152931 0
M  V30 3271 O 303.207 -1.74033 0.0761879 0
M  V30 3272 C 300.339 -3.39896 0.261383 0
M  V30 3273 H 301.532 -2.41485 1.77834 0
M  V30 3274 H 299.085 -1.23595 0.956757 0
M  V30 3275 H 299.82 -3.17091 -0.68 0
M  V30 3276 H 299.605 -3.79642 0.980514 0
M  V30 3277 H 301.095 -4.17548 0.0657687 0
M  V30 3278 N 301.532 -0.945985 -1.26051 0
M  V30 3279 C 302.757 -0.612525 -1.98149 0
M  V30 3280 C 303.182 0.806623 -1.69927 0
M  V30 3281 O 302.54 1.54411 -0.950108 0
M  V30 3282 C 302.588 -0.866981 -3.50023 0
M  V30 3283 O 301.692 0.0585333 -4.12358 0
M  V30 3284 H 301.033 -0.23379 -0.621481 0
M  V30 3285 H 303.563 -1.27023 -1.60395 0
M  V30 3286 H 303.573 -0.789792 -4.00283 0
M  V30 3287 H 302.248 -1.90135 -3.69894 0
M  V30 3288 H 300.825 -0.0701241 -3.72834 0
M  V30 3289 N 303.011 1.40521 -0.713556 0
M  V30 3290 C 304.427 1.54839 -0.386907 0
M  V30 3291 C 304.627 1.68532 1.1045 0
M  V30 3292 O 303.683 1.67377 1.89053 0
M  V30 3293 C 304.996 2.77792 -1.15118 0
M  V30 3294 C 306.544 2.91607 -1.13729 0
M  V30 3295 C 307.019 4.1747 -1.88368 0
M  V30 3296 N 308.51 4.24466 -1.85427 0
M  V30 3297 C 309.245 5.20755 -2.40004 0
M  V30 3298 N 308.741 6.22965 -3.03129 0
M  V30 3299 N 310.534 5.1282 -2.30158 0
M  V30 3300 H 302.685 1.29879 -1.68063 0
M  V30 3301 H 304.948 0.627896 -0.710247 0
M  V30 3302 H 304.654 2.73944 -2.20561 0
M  V30 3303 H 304.528 3.6984 -0.741477 0
M  V30 3304 H 306.915 2.94959 -0.0910608 0
M  V30 3305 H 306.996 2.00682 -1.5862 0
M  V30 3306 H 306.64 4.1488 -2.9298 0
M  V30 3307 H 306.57 5.074 -1.40898 0
M  V30 3308 H 309.061 3.51241 -1.3942 0
M  V30 3309 H 309.374 6.92859 -3.42295 0
M  V30 3310 H 307.719 6.23415 -3.07212 0
M  V30 3311 H 310.91 4.31899 -1.80501 0
M  V30 3312 H 311.083 5.87689 -2.72993 0
M  V30 3313 N 304.489 0.459591 1.5075 0
M  V30 3314 C 305.437 -0.354678 2.2988 0
M  V30 3315 C 306.431 -1.00086 1.36672 0
M  V30 3316 O 307.637 -0.933277 1.53915 0
M  V30 3317 H 304.012 -0.13321 0.740107 0
M  V30 3318 H 305.983 0.333269 2.96533 0
M  V30 3319 C 304.732 -1.43073 3.169 0
M  V30 3320 H 304.055 -0.942882 3.88523 0
M  V30 3321 H 305.495 -1.97328 3.75284 0
M  V30 3322 C 303.954 -2.42633 2.33732 0
M  V30 3323 O 304.484 -3.47658 2.01238 0
M  V30 3324 N 302.69 -2.14066 1.9653 0
M  V30 3325 H 302.237 -1.28685 2.23155 0
M  V30 3326 H 302.195 -2.80917 1.41185 0
M  V30 3327 N 305.967 -1.56429 0.191757 0
M  V30 3328 C 307.216 -1.9666 -0.448088 0
M  V30 3329 C 307.529 -1.08136 -1.62991 0
M  V30 3330 O 308.735 -1.38135 -2.33733 0
M  V30 3331 C 307.191 -3.49753 -0.848585 0
M  V30 3332 C 306.799 -4.46935 0.308764 0
M  V30 3333 C 308.543 -3.9876 -1.4557 0
M  V30 3334 C 306.45 -5.91293 -0.112506 0
M  V30 3335 H 305.38 -0.734312 -0.171179 0
M  V30 3336 H 308.031 -1.81301 0.283242 0
M  V30 3337 H 306.413 -3.60604 -1.63649 0
M  V30 3338 H 307.587 -4.47813 1.08627 0
M  V30 3339 H 305.902 -4.08102 0.827158 0
M  V30 3340 H 308.499 -5.04086 -1.78328 0
M  V30 3341 H 308.842 -3.42875 -2.36099 0
M  V30 3342 H 309.375 -3.9101 -0.731836 0
M  V30 3343 H 306.114 -6.51097 0.758514 0
M  V30 3344 H 305.634 -5.93676 -0.854941 0
M  V30 3345 H 307.313 -6.44663 -0.549448 0
M  V30 3346 N 307.445 0.0818655 -1.57387 0
M  V30 3347 C 308.375 1.09885 -2.06028 0
M  V30 3348 C 309.356 1.4098 -0.951774 0
M  V30 3349 O 310.541 1.50781 -1.22387 0
M  V30 3350 C 307.671 2.4151 -2.4958 0
M  V30 3351 C 306.625 2.24792 -3.64215 0
M  V30 3352 C 305.951 3.61712 -3.93787 0
M  V30 3353 C 307.251 1.67749 -4.94629 0
M  V30 3354 H 308.945 0.694128 -2.91243 0
M  V30 3355 H 306.491 0.332448 -1.4011 0
M  V30 3356 H 308.444 3.12939 -2.82219 0
M  V30 3357 H 307.168 2.83943 -1.61381 0
M  V30 3358 H 305.827 1.55807 -3.31843 0
M  V30 3359 H 305.475 4.01697 -3.02735 0
M  V30 3360 H 305.175 3.51368 -4.70971 0
M  V30 3361 H 306.699 4.34587 -4.28913 0
M  V30 3362 H 308.113 2.29032 -5.25564 0
M  V30 3363 H 306.51 1.68128 -5.76067 0
M  V30 3364 H 307.58 0.638059 -4.80684 0
M  V30 3365 N 308.923 1.53595 0.353017 0
M  V30 3366 C 309.855 1.77219 1.45348 0
M  V30 3367 C 310.868 0.65324 1.49119 0
M  V30 3368 O 312.057 0.929775 1.52373 0
M  V30 3369 C 309.157 1.84841 2.84055 0
M  V30 3370 C 308.33 3.14649 3.03833 0
M  V30 3371 C 307.389 3.13351 4.22727 0
M  V30 3372 O 306.415 3.87107 4.17297 0
M  V30 3373 N 307.617 2.35052 5.30783 0
M  V30 3374 H 310.382 2.72178 1.25457 0
M  V30 3375 H 307.943 1.52528 0.542833 0
M  V30 3376 H 309.935 1.81435 3.61751 0
M  V30 3377 H 308.505 0.971114 2.97133 0
M  V30 3378 H 307.725 3.31256 2.13689 0
M  V30 3379 H 309.013 4.00411 3.13925 0
M  V30 3380 H 308.411 1.74663 5.38061 0
M  V30 3381 H 306.968 2.37453 6.07009 0
M  V30 3382 N 310.401 -0.613514 1.45168 0
M  V30 3383 C 311.629 -1.39946 1.5239 0
M  V30 3384 C 312.044 -1.88167 0.154531 0
M  V30 3385 O 311.401 -1.61872 -0.842843 0
M  V30 3386 C 311.452 -2.60795 2.50337 0
M  V30 3387 O 311.173 -2.1458 3.81952 0
M  V30 3388 C 312.674 -3.53723 2.67198 0
M  V30 3389 H 309.894 -0.428593 0.516284 0
M  V30 3390 H 312.438 -0.748753 1.903 0
M  V30 3391 H 310.593 -3.21919 2.15515 0
M  V30 3392 H 311.007 -2.93055 4.34993 0
M  V30 3393 H 312.481 -4.35079 3.39721 0
M  V30 3394 H 312.958 -4.0368 1.73029 0
M  V30 3395 H 313.564 -2.98456 3.02992 0
M  V30 3396 N 311.879 -1.3236 -0.855495 0
M  V30 3397 C 312.829 -1.17809 -1.95205 0
M  V30 3398 C 313.813 -0.0852319 -1.60674 0
M  V30 3399 O 315.005 -0.311651 -1.74235 0
M  V30 3400 C 312.134 -0.902437 -3.31226 0
M  V30 3401 C 311.22 -2.03695 -3.7198 0
M  V30 3402 N 311.611 -3.28544 -3.84568 0
M  V30 3403 C 309.909 -1.93993 -4.016 0
M  V30 3404 C 310.61 -4.02847 -4.19629 0
M  V30 3405 N 309.586 -3.31138 -4.31102 0
M  V30 3406 H 313.388 -2.12462 -2.0307 0
M  V30 3407 H 310.902 -1.24127 -1.0472 0
M  V30 3408 H 312.899 -0.77915 -4.09554 0
M  V30 3409 H 311.559 0.0357267 -3.2468 0
M  V30 3410 H 312.57 -3.6349 -3.68911 0
M  V30 3411 H 309.247 -1.07733 -4.03361 0
M  V30 3412 H 310.637 -5.10506 -4.36845 0
M  V30 3413 N 313.357 1.07166 -1.15556 0
M  V30 3414 C 314.605 1.79443 -0.929764 0
M  V30 3415 C 314.926 1.87246 0.544414 0
M  V30 3416 O 314.196 1.37473 1.39564 0
M  V30 3417 H 312.776 0.664625 -0.341003 0
M  V30 3418 H 315.438 1.29499 -1.45657 0
M  V30 3419 H 314.534 2.81832 -1.34079 0
M  V30 3420 N 314.835 0.952656 1.25548 0
M  V30 3421 C 315.745 0.47782 2.29682 0
M  V30 3422 C 316.761 -0.453859 1.67977 0
M  V30 3423 O 317.937 -0.330587 1.98668 0
M  V30 3424 C 315.002 -0.238655 3.45878 0
M  V30 3425 C 314.063 0.730994 4.23031 0
M  V30 3426 C 313.296 0.0486165 5.33678 0
M  V30 3427 O 313.519 -1.16612 5.58353 0
M  V30 3428 O 312.453 0.733152 5.97418 0
M  V30 3429 H 316.279 1.34312 2.72386 0
M  V30 3430 H 313.864 0.719026 1.30959 0
M  V30 3431 H 315.746 -0.641774 4.16484 0
M  V30 3432 H 314.421 -1.07916 3.05181 0
M  V30 3433 H 313.328 1.18428 3.5486 0
M  V30 3434 H 314.661 1.53946 4.67506 0
M  V30 3435 N 316.313 -1.40141 0.720998 0
M  V30 3436 C 317.559 -2.01572 0.272075 0
M  V30 3437 C 317.914 -1.5616 -1.12391 0
M  V30 3438 O 317.207 -0.774198 -1.75262 0
M  V30 3439 C 317.401 -3.56165 0.296892 0
M  V30 3440 C 317.23 -4.16584 1.69375 0
M  V30 3441 C 316 -4.49783 2.30269 0
M  V30 3442 C 318.198 -4.41076 2.64493 0
M  V30 3443 N 316.18 -4.95626 3.62254 0
M  V30 3444 C 317.551 -4.88971 3.81192 0
M  V30 3445 C 319.606 -4.23122 2.62435 0
M  V30 3446 C 318.309 -5.20796 4.96149 0
M  V30 3447 C 320.335 -4.56052 3.76524 0
M  V30 3448 C 319.697 -5.04141 4.91956 0
M  V30 3449 H 315.796 -0.768343 0.145511 0
M  V30 3450 H 318.38 -1.70287 0.943959 0
M  V30 3451 H 316.551 -3.86868 -0.344578 0
M  V30 3452 H 318.283 -4.04346 -0.169254 0
M  V30 3453 H 315.038 -4.37101 1.82318 0
M  V30 3454 H 315.462 -5.22923 4.29977 0
M  V30 3455 H 320.104 -3.85158 1.74393 0
M  V30 3456 H 317.822 -5.57672 5.84831 0
M  V30 3457 H 321.408 -4.43796 3.76213 0
M  V30 3458 H 320.288 -5.29142 5.78774 0
M  V30 3459 N 317.792 -0.46758 -1.50504 0
M  V30 3460 C 318.702 0.33382 -2.32213 0
M  V30 3461 C 319.718 0.999323 -1.42441 0
M  V30 3462 O 320.894 0.988068 -1.75497 0
M  V30 3463 C 317.959 1.4035 -3.17022 0
M  V30 3464 C 317.02 0.754961 -4.2261 0
M  V30 3465 C 316.253 1.77367 -5.03365 0
M  V30 3466 O 316.476 2.99976 -4.8515 0
M  V30 3467 O 315.41 1.34744 -5.86624 0
M  V30 3468 H 319.236 -0.334067 -3.01857 0
M  V30 3469 H 316.821 -0.229496 -1.47627 0
M  V30 3470 H 318.703 2.02318 -3.69656 0
M  V30 3471 H 317.378 2.05492 -2.5011 0
M  V30 3472 H 316.285 0.0964244 -3.73976 0
M  V30 3473 H 317.618 0.146545 -4.91982 0
M  V30 3474 N 319.27 1.56325 -0.20005 0
M  V30 3475 C 320.2 2.22318 0.713916 0
M  V30 3476 C 321.181 1.18788 1.21752 0
M  V30 3477 O 322.366 1.47309 1.26545 0
M  V30 3478 C 319.496 2.88639 1.93144 0
M  V30 3479 C 318.45 3.98457 1.56255 0
M  V30 3480 C 317.776 4.51967 2.85709 0
M  V30 3481 C 319.076 5.16612 0.768747 0
M  V30 3482 H 320.77 2.98952 0.163755 0
M  V30 3483 H 318.316 1.43792 0.0773219 0
M  V30 3484 H 320.269 3.33491 2.57608 0
M  V30 3485 H 318.993 2.09419 2.50621 0
M  V30 3486 H 317.652 3.54305 0.941471 0
M  V30 3487 H 317.3 3.69503 3.41287 0
M  V30 3488 H 317 5.26071 2.6177 0
M  V30 3489 H 318.524 4.99523 3.51154 0
M  V30 3490 H 319.938 5.57977 1.3166 0
M  V30 3491 H 318.335 5.96812 0.627286 0
M  V30 3492 H 319.405 4.84358 -0.229168 0
M  V30 3493 N 320.748 -0.0735177 1.57428 0
M  V30 3494 C 321.678 -1.0879 2.06608 0
M  V30 3495 C 322.659 -1.40473 0.959237 0
M  V30 3496 O 323.844 -1.5013 1.23185 0
M  V30 3497 C 320.974 -2.40183 2.50857 0
M  V30 3498 C 319.928 -2.22858 3.65402 0
M  V30 3499 C 319.254 -3.59619 3.957 0
M  V30 3500 C 320.554 -1.65123 4.95511 0
M  V30 3501 H 322.248 -0.678673 2.91607 0
M  V30 3502 H 319.794 -0.325013 1.40284 0
M  V30 3503 H 321.747 -3.11437 2.83874 0
M  V30 3504 H 320.471 -2.83083 1.62885 0
M  V30 3505 H 319.13 -1.54045 3.32664 0
M  V30 3506 H 318.778 -4.00086 3.04861 0
M  V30 3507 H 318.478 -3.48866 4.72828 0
M  V30 3508 H 320.002 -4.32306 4.31212 0
M  V30 3509 H 321.416 -2.26241 5.26771 0
M  V30 3510 H 319.813 -1.65071 5.7695 0
M  V30 3511 H 320.883 -0.612559 4.81015 0
M  V30 3512 N 322.226 -1.5378 -0.344866 0
M  V30 3513 C 323.474 -1.70625 -1.08311 0
M  V30 3514 C 323.795 -0.471447 -1.89215 0
M  V30 3515 O 323.065 0.514616 -1.8902 0
M  V30 3516 H 321.645 -0.629058 -0.402859 0
M  V30 3517 H 324.307 -1.9103 -0.386459 0
M  V30 3518 H 323.403 -2.57656 -1.76124 0
M  V30 3519 N 323.704 0.605807 -1.45491 0
M  V30 3520 C 324.634 1.72709 -1.57143 0
M  V30 3521 C 325.615 1.6476 -0.422884 0
M  V30 3522 O 326.8 1.83132 -0.646247 0
M  V30 3523 C 323.93 3.11316 -1.53948 0
M  V30 3524 C 322.884 3.34077 -2.67537 0
M  V30 3525 C 322.21 4.72975 -2.49397 0
M  V30 3526 C 323.51 3.24158 -4.09535 0
M  V30 3527 H 325.204 1.63214 -2.51001 0
M  V30 3528 H 322.75 0.78379 -1.208 0
M  V30 3529 H 324.703 3.89557 -1.60696 0
M  V30 3530 H 323.427 3.21655 -0.566205 0
M  V30 3531 H 322.086 2.58227 -2.6022 0
M  V30 3532 H 321.734 4.8005 -1.50205 0
M  V30 3533 H 321.434 4.8916 -3.25571 0
M  V30 3534 H 322.958 5.53414 -2.58002 0
M  V30 3535 H 324.372 3.92271 -4.18086 0
M  V30 3536 H 322.769 3.51872 -4.86113 0
M  V30 3537 H 323.839 2.2157 -4.31317 0
M  V30 3538 N 325.182 1.32811 0.848464 0
M  V30 3539 C 326.407 1.26882 1.6406 0
M  V30 3540 C 326.832 -0.15913 1.87426 0
M  V30 3541 O 326.19 -1.11258 1.43148 0
M  V30 3542 C 326.238 2.03997 2.97351 0
M  V30 3543 O 325.342 1.39201 3.88197 0
M  V30 3544 H 324.683 0.436982 0.499943 0
M  V30 3545 H 327.213 1.75224 1.0563 0
M  V30 3546 H 327.223 2.14403 3.47124 0
M  V30 3547 H 325.898 3.0783 2.79666 0
M  V30 3548 H 324.475 1.37381 3.46671 0
M  V30 3549 N 326.66 -1.06551 1.16123 0
M  V30 3550 C 327.607 -2.13961 0.865414 0
M  V30 3551 C 328.577 -1.65066 -0.185055 0
M  V30 3552 O 329.762 -1.90732 -0.05083 0
M  V30 3553 C 326.902 -3.43113 0.369776 0
M  V30 3554 C 326.015 -4.05756 1.48276 0
M  V30 3555 C 325.15 -5.22773 0.942414 0
M  V30 3556 C 324.189 -5.77395 2.03179 0
M  V30 3557 N 323.326 -6.85731 1.50721 0
M  V30 3558 H 328.166 -2.38605 1.78527 0
M  V30 3559 H 325.703 -1.17072 0.890646 0
M  V30 3560 H 327.661 -4.17151 0.0640643 0
M  V30 3561 H 326.291 -3.18695 -0.513143 0
M  V30 3562 H 325.343 -3.29292 1.9045 0
M  V30 3563 H 326.655 -4.42351 2.30493 0
M  V30 3564 H 325.809 -6.03827 0.589729 0
M  V30 3565 H 324.548 -4.87618 0.0895191 0
M  V30 3566 H 323.553 -4.94981 2.3932 0
M  V30 3567 H 324.778 -6.14603 2.8886 0
M  V30 3568 H 322.724 -6.52499 0.676811 0
M  V30 3569 H 322.641 -7.21254 2.26557 0
M  V30 3570 H 323.909 -7.7047 1.18303 0
M  V30 3571 N 328.138 -0.959301 -1.25041 0
M  V30 3572 C 329.101 -0.487677 -2.23952 0
M  V30 3573 C 330.101 0.41119 -1.55454 0
M  V30 3574 O 331.291 0.207825 -1.72956 0
M  V30 3575 C 328.423 0.294807 -3.39623 0
M  V30 3576 H 329.616 -1.36198 -2.67189 0
M  V30 3577 H 327.169 -0.743042 -1.37508 0
M  V30 3578 H 327.904 1.18658 -3.01813 0
M  V30 3579 H 327.689 -0.35012 -3.90534 0
M  V30 3580 H 329.179 0.614089 -4.1306 0
M  V30 3581 N 329.616 1.39756 -0.72842 0
M  V30 3582 C 330.844 2.04948 -0.283528 0
M  V30 3583 C 331.259 1.54908 1.0793 0
M  V30 3584 O 330.616 0.711135 1.68075 0
M  V30 3585 C 330.667 3.60498 -0.268957 0
M  V30 3586 O 330.388 4.08695 -1.57798 0
M  V30 3587 C 331.889 4.4288 0.192912 0
M  V30 3588 H 329.109 0.659243 -0.125056 0
M  V30 3589 H 331.653 1.78927 -0.990226 0
M  V30 3590 H 329.808 3.85444 0.388801 0
M  V30 3591 H 330.222 5.02977 -1.48709 0
M  V30 3592 H 331.696 5.51791 0.151952 0
M  V30 3593 H 332.173 4.21418 1.23708 0
M  V30 3594 H 332.779 4.23069 -0.435039 0
M  V30 3595 N 331.094 0.475555 1.50254 0
M  V30 3596 C 332.057 -0.305016 2.27161 0
M  V30 3597 C 333.057 -0.916519 1.32123 0
M  V30 3598 O 334.247 -0.785003 1.5551 0
M  V30 3599 C 331.379 -1.43496 3.09227 0
M  V30 3600 H 332.572 0.369511 2.97615 0
M  V30 3601 H 330.125 0.229747 1.54602 0
M  V30 3602 H 330.86 -2.14441 2.43281 0
M  V30 3603 H 330.645 -1.00223 3.79075 0
M  V30 3604 H 332.135 -1.98548 3.67381 0
M  V30 3605 N 332.573 -1.56217 0.208337 0
M  V30 3606 C 333.52 -2.19699 -0.707192 0
M  V30 3607 C 334.49 -1.14836 -1.20008 0
M  V30 3608 O 335.675 -1.4314 -1.26157 0
M  V30 3609 C 332.815 -2.87061 -1.91546 0
M  V30 3610 C 331.928 -4.06483 -1.46271 0
M  V30 3611 C 331.063 -4.61665 -2.62752 0
M  V30 3612 C 330.102 -5.73417 -2.14147 0
M  V30 3613 N 329.239 -6.22948 -3.23853 0
M  V30 3614 H 334.079 -2.97575 -0.159111 0
M  V30 3615 H 331.616 -1.46948 -0.0667874 0
M  V30 3616 H 333.574 -3.24294 -2.62468 0
M  V30 3617 H 332.204 -2.11725 -2.43664 0
M  V30 3618 H 331.256 -3.74825 -0.648886 0
M  V30 3619 H 332.568 -4.87271 -1.06622 0
M  V30 3620 H 331.722 -5.01272 -3.41776 0
M  V30 3621 H 330.461 -3.80013 -3.05682 0
M  V30 3622 H 329.466 -5.33326 -1.33581 0
M  V30 3623 H 330.691 -6.56897 -1.72232 0
M  V30 3624 H 328.637 -5.44213 -3.6629 0
M  V30 3625 H 328.554 -6.98823 -2.88414 0
M  V30 3626 H 329.822 -6.6721 -4.03052 0
M  V30 3627 N 334.051 0.0651679 -1.57465 0
M  V30 3628 C 334.981 1.07693 -2.07182 0
M  V30 3629 C 335.962 1.39962 -0.966673 0
M  V30 3630 O 337.147 1.49475 -1.2398 0
M  V30 3631 C 334.277 2.3885 -2.52127 0
M  V30 3632 C 333.231 2.20917 -3.66579 0
M  V30 3633 C 332.557 3.57515 -3.97601 0
M  V30 3634 C 333.857 1.62493 -4.9638 0
M  V30 3635 H 335.551 0.663199 -2.91962 0
M  V30 3636 H 333.097 0.317569 -1.40455 0
M  V30 3637 H 335.05 3.09928 -2.85522 0
M  V30 3638 H 333.774 2.82215 -1.64384 0
M  V30 3639 H 332.433 1.52279 -3.33477 0
M  V30 3640 H 332.081 3.98463 -3.06979 0
M  V30 3641 H 331.781 3.46353 -4.74672 0
M  V30 3642 H 333.305 4.30013 -4.33499 0
M  V30 3643 H 334.719 2.23445 -5.27963 0
M  V30 3644 H 333.116 1.62009 -5.77818 0
M  V30 3645 H 334.186 0.587041 -4.81333 0
M  V30 3646 N 335.529 1.53961 0.336706 0
M  V30 3647 C 336.754 1.75797 1.10046 0
M  V30 3648 C 337.179 0.498985 1.81361 0
M  V30 3649 O 336.537 -0.548769 1.72795 0
M  V30 3650 C 336.585 2.94257 2.08436 0
M  V30 3651 O 335.689 2.64883 3.16087 0
M  V30 3652 H 335.03 0.582936 0.317934 0
M  V30 3653 H 337.56 2.00945 0.38501 0
M  V30 3654 H 337.57 3.21237 2.51537 0
M  V30 3655 H 336.245 3.85564 1.55927 0
M  V30 3656 H 334.822 2.48812 2.77753 0
M  V30 3657 N 337.007 -0.598083 1.45811 0
M  V30 3658 C 338.423 -0.919847 1.30426 0
M  V30 3659 C 338.623 -1.99759 0.264303 0
M  V30 3660 O 337.679 -2.50221 -0.338472 0
M  V30 3661 C 338.992 -1.35176 2.68603 0
M  V30 3662 C 340.54 -1.46546 2.76574 0
M  V30 3663 C 341.015 -1.9311 4.15298 0
M  V30 3664 N 342.506 -2.00328 4.1764 0
M  V30 3665 C 343.241 -2.37599 5.21856 0
M  V30 3666 N 342.737 -2.73771 6.36413 0
M  V30 3667 N 344.53 -2.38021 5.09218 0
M  V30 3668 H 336.681 0.114111 2.12093 0
M  V30 3669 H 338.944 -0.0116121 0.947929 0
M  V30 3670 H 338.65 -0.633969 3.45939 0
M  V30 3671 H 338.524 -2.3164 2.97696 0
M  V30 3672 H 340.911 -2.17415 1.99537 0
M  V30 3673 H 340.992 -0.483727 2.51185 0
M  V30 3674 H 340.636 -1.22824 4.92825 0
M  V30 3675 H 340.566 -2.92213 4.38086 0
M  V30 3676 H 343.057 -1.74925 3.34977 0
M  V30 3677 H 343.37 -3.0112 7.11721 0
M  V30 3678 H 341.715 -2.71445 6.39799 0
M  V30 3679 H 344.906 -2.09174 4.18765 0
M  V30 3680 H 345.079 -2.66741 5.90554 0
M  V30 3681 N 338.485 -1.33259 -0.841409 0
M  V30 3682 C 339.733 -1.24326 -1.59334 0
M  V30 3683 C 340.054 0.191564 -1.94057 0
M  V30 3684 O 339.324 1.11967 -1.60749 0
M  V30 3685 H 337.904 -0.457174 -0.590763 0
M  V30 3686 H 340.566 -1.66947 -1.00571 0
M  V30 3687 H 339.662 -1.8352 -2.52442 0
M  V30 3688 N 339.963 1.05934 -1.16686 0
M  V30 3689 C 341.211 1.78447 -0.948744 0
M  V30 3690 C 341.532 1.87813 0.524523 0
M  V30 3691 O 340.802 1.38945 1.38098 0
M  V30 3692 H 339.382 0.660971 -0.348033 0
M  V30 3693 H 342.044 1.27947 -1.47022 0
M  V30 3694 H 341.14 2.80394 -1.37061 0
M  V30 3695 N 341.441 0.965919 1.2453 0
M  V30 3696 C 342.389 0.486506 2.27455 0
M  V30 3697 C 343.383 -0.449041 1.6334 0
M  V30 3698 O 344.589 -0.324527 1.7705 0
M  V30 3699 H 340.964 0.138857 0.739069 0
M  V30 3700 H 342.935 1.3666 2.65267 0
M  V30 3701 C 341.684 -0.209481 3.47068 0
M  V30 3702 H 341.007 0.50129 3.96645 0
M  V30 3703 H 342.447 -0.508775 4.20936 0
M  V30 3704 C 340.906 -1.43586 3.0477 0
M  V30 3705 O 341.436 -2.53299 3.11773 0
M  V30 3706 N 339.642 -1.30126 2.59838 0
M  V30 3707 H 339.189 -0.408583 2.54339 0
M  V30 3708 H 339.147 -2.12294 2.31902 0
M  V30 3709 N 342.919 -1.39368 0.735821 0
M  V30 3710 C 343.849 -2.33234 0.111506 0
M  V30 3711 C 344.83 -1.53954 -0.723334 0
M  V30 3712 O 346.015 -1.82344 -0.668147 0
M  V30 3713 C 343.145 -3.38057 -0.795917 0
M  V30 3714 C 342.099 -4.2795 -0.065172 0
M  V30 3715 C 341.425 -5.23479 -1.08967 0
M  V30 3716 C 342.725 -5.10741 1.09273 0
M  V30 3717 H 344.419 -2.85692 0.895571 0
M  V30 3718 H 341.965 -1.37364 0.432109 0
M  V30 3719 H 343.918 -4.02675 -1.24221 0
M  V30 3720 H 342.642 -2.8404 -1.61211 0
M  V30 3721 H 341.301 -3.64813 0.361511 0
M  V30 3722 H 340.949 -4.65758 -1.89944 0
M  V30 3723 H 340.649 -5.84472 -0.605489 0
M  V30 3724 H 342.173 -5.90974 -1.53565 0
M  V30 3725 H 343.587 -5.68699 0.724841 0
M  V30 3726 H 341.984 -5.8088 1.50659 0
M  V30 3727 H 343.054 -4.45525 1.91404 0
M  V30 3728 N 344.397 -0.483516 -1.5 0
M  V30 3729 C 345.627 0.0643896 -2.065 0
M  V30 3730 C 346.035 1.32949 -1.34615 0
M  V30 3731 O 345.378 1.79003 -0.412756 0
M  V30 3732 C 345.44 0.405983 -3.572 0
M  V30 3733 C 345.104 -0.758875 -4.50655 0
M  V30 3734 C 346.101 -1.64445 -4.93208 0
M  V30 3735 C 343.786 -0.952725 -4.93182 0
M  V30 3736 C 345.78 -2.70818 -5.77006 0
M  V30 3737 C 343.467 -2.01966 -5.76761 0
M  V30 3738 C 344.465 -2.89574 -6.18576 0
M  V30 3739 O 344.153 -3.94429 -7.00486 0
M  V30 3740 H 343.885 -0.00934786 -0.675935 0
M  V30 3741 H 346.439 -0.674959 -1.93993 0
M  V30 3742 H 344.669 1.19869 -3.67652 0
M  V30 3743 H 346.358 0.890433 -3.96013 0
M  V30 3744 H 347.124 -1.50643 -4.61012 0
M  V30 3745 H 343.003 -0.280247 -4.60147 0
M  V30 3746 H 346.547 -3.3923 -6.09565 0
M  V30 3747 H 342.444 -2.1577 -6.0837 0
M  V30 3748 H 343.212 -3.91568 -7.1876 0
M  V30 3749 N 345.875 1.56104 -0.216619 0
M  V30 3750 C 347.152 1.89988 0.465165 0
M  V30 3751 C 347.532 1.13326 1.78102 0
M  V30 3752 O 346.88 0.241033 2.27225 0
M  V30 3753 C 347.09 3.42646 0.662939 0
M  V30 3754 C 348.438 4.13311 0.972602 0
M  V30 3755 O 349.462 3.48217 0.749901 0
M  V30 3756 O 348.321 5.28396 1.39499 0
M  V30 3757 H 345.415 0.78979 0.245276 0
M  V30 3758 H 347.961 1.67721 -0.258436 0
M  V30 3759 H 346.733 3.90399 -0.26543 0
M  V30 3760 H 346.356 3.70677 1.43821 0
M  V30 3761 N 347.353 -0.0568162 1.57498 0
M  V30 3762 C 348.285 -1.09292 2.01464 0
M  V30 3763 C 349.298 -1.34112 0.922913 0
M  V30 3764 O 350.487 -1.32089 1.20062 0
M  V30 3765 C 347.587 -2.44068 2.35125 0
M  V30 3766 C 346.76 -2.38995 3.66333 0
M  V30 3767 C 345.819 -3.55997 3.87495 0
M  V30 3768 O 344.845 -3.36746 4.58901 0
M  V30 3769 N 346.047 -4.76888 3.30996 0
M  V30 3770 H 348.812 -0.718386 2.90963 0
M  V30 3771 H 346.373 -0.245235 1.60032 0
M  V30 3772 H 348.365 -3.21011 2.46443 0
M  V30 3773 H 346.935 -2.73468 1.5144 0
M  V30 3774 H 346.155 -1.47336 3.65631 0
M  V30 3775 H 347.443 -2.3272 4.52458 0
M  V30 3776 H 346.841 -4.95431 2.73065 0
M  V30 3777 H 345.398 -5.51291 3.47738 0
M  V30 3778 N 348.832 -1.54138 -0.328536 0
M  V30 3779 C 350.081 -1.71318 -1.06456 0
M  V30 3780 C 350.394 -0.491109 -1.89334 0
M  V30 3781 O 351.6 -0.54416 -2.65991 0
M  V30 3782 C 350.056 -3.03 -1.94214 0
M  V30 3783 C 349.664 -4.32595 -1.16471 0
M  V30 3784 C 351.408 -3.29544 -2.67583 0
M  V30 3785 C 349.315 -5.55341 -2.03347 0
M  V30 3786 H 348.245 -0.638429 -0.401155 0
M  V30 3787 H 350.896 -1.80633 -0.323106 0
M  V30 3788 H 349.278 -2.87579 -2.72239 0
M  V30 3789 H 350.452 -4.58766 -0.432525 0
M  V30 3790 H 348.767 -4.12777 -0.548063 0
M  V30 3791 H 351.364 -4.18444 -3.3288 0
M  V30 3792 H 351.707 -2.47206 -3.34955 0
M  V30 3793 H 352.24 -3.45809 -1.96623 0
M  V30 3794 H 348.979 -6.40268 -1.40491 0
M  V30 3795 H 348.499 -5.33397 -2.74313 0
M  V30 3796 H 350.178 -5.91557 -2.62049 0
M  V30 3797 N 350.31 0.590341 -1.46126 0
M  V30 3798 C 351.556 1.35082 -1.51264 0
M  V30 3799 C 351.889 1.93534 -0.160711 0
M  V30 3800 O 351.164 1.76045 0.826956 0
M  V30 3801 C 351.447 2.48588 -2.6053 0
M  V30 3802 C 351.3 1.95221 -4.05227 0
M  V30 3803 C 352.619 3.50662 -2.6594 0
M  V30 3804 H 349.738 0.489803 -0.550692 0
M  V30 3805 H 352.38 0.663887 -1.78024 0
M  V30 3806 H 350.53 3.07186 -2.37843 0
M  V30 3807 H 352.202 1.41139 -4.39178 0
M  V30 3808 H 350.445 1.26101 -4.15068 0
M  V30 3809 H 351.116 2.77121 -4.77397 0
M  V30 3810 H 353.592 3.01934 -2.86313 0
M  V30 3811 H 352.468 4.27551 -3.44226 0
M  V30 3812 H 352.729 4.07399 -1.71694 0
M  V30 3813 N 351.788 1.33704 0.83433 0
M  V30 3814 C 353.035 1.25417 1.58987 0
M  V30 3815 C 353.363 -0.178869 1.93676 0
M  V30 3816 O 352.618 -1.13723 1.59265 0
M  V30 3817 C 352.917 2.07926 2.90692 0
M  V30 3818 C 352.583 3.57066 2.75345 0
M  V30 3819 C 351.245 3.97724 2.70867 0
M  V30 3820 C 353.597 4.51817 2.59828 0
M  V30 3821 C 350.925 5.31344 2.48778 0
M  V30 3822 C 353.277 5.85604 2.39272 0
M  V30 3823 C 351.941 6.25439 2.33199 0
M  V30 3824 H 351.211 0.458934 0.581774 0
M  V30 3825 H 353.858 1.65335 0.966261 0
M  V30 3826 H 352.163 1.608 3.57282 0
M  V30 3827 H 353.86 1.98868 3.48213 0
M  V30 3828 H 350.45 3.24785 2.79665 0
M  V30 3829 H 354.634 4.21311 2.62319 0
M  V30 3830 H 349.89 5.61241 2.42526 0
M  V30 3831 H 354.064 6.58623 2.2625 0
M  V30 3832 H 351.691 7.28914 2.15843 0
M  V30 3833 N 353.266 -1.05314 1.17247 0
M  V30 3834 C 354.496 -1.81707 0.983166 0
M  V30 3835 C 354.904 -1.83222 -0.471822 0
M  V30 3836 O 354.247 -1.25721 -1.3394 0
M  V30 3837 C 354.309 -3.29134 1.44606 0
M  V30 3838 C 353.973 -3.51304 2.92292 0
M  V30 3839 C 354.97 -3.4353 3.90235 0
M  V30 3840 C 352.655 -3.78306 3.30439 0
M  V30 3841 C 354.649 -3.62442 5.24323 0
M  V30 3842 C 352.336 -3.96866 4.64694 0
M  V30 3843 C 353.334 -3.88933 5.61445 0
M  V30 3844 O 353.022 -4.06976 6.93272 0
M  V30 3845 H 352.754 -0.579476 0.348114 0
M  V30 3846 H 355.308 -1.33705 1.55924 0
M  V30 3847 H 353.538 -3.78046 0.813537 0
M  V30 3848 H 355.227 -3.87049 1.22262 0
M  V30 3849 H 355.993 -3.22648 3.62109 0
M  V30 3850 H 351.872 -3.83585 2.55702 0
M  V30 3851 H 355.416 -3.56165 5.99827 0
M  V30 3852 H 351.313 -4.1724 4.92525 0
M  V30 3853 H 352.081 -4.24209 6.99992 0
M  V30 3854 N 354.744 -0.972509 -1.24016 0
M  V30 3855 C 355.99 -0.637978 -1.92504 0
M  V30 3856 C 356.323 0.825383 -1.75787 0
M  V30 3857 O 355.598 1.59442 -1.11393 0
M  V30 3858 C 355.881 -1.01942 -3.45369 0
M  V30 3859 C 355.734 -2.53983 -3.71231 0
M  V30 3860 C 357.053 -0.55751 -4.36555 0
M  V30 3861 H 354.172 -0.233248 -0.699117 0
M  V30 3862 H 356.814 -1.21238 -1.46292 0
M  V30 3863 H 354.964 -0.530656 -3.84859 0
M  V30 3864 H 356.636 -3.10374 -3.41271 0
M  V30 3865 H 354.879 -2.96968 -3.16216 0
M  V30 3866 H 355.55 -2.75723 -4.78206 0
M  V30 3867 H 358.026 -0.977029 -4.04467 0
M  V30 3868 H 356.902 -0.85292 -5.42233 0
M  V30 3869 H 357.163 0.542328 -4.38761 0
M  V30 3870 N 356.222 1.38976 -0.743202 0
M  V30 3871 C 357.185 2.28901 -0.117014 0
M  V30 3872 C 358.185 1.46698 0.658503 0
M  V30 3873 O 359.375 1.67274 0.486305 0
M  V30 3874 C 356.507 3.30309 0.84315 0
M  V30 3875 H 357.7 2.8578 -0.909373 0
M  V30 3876 H 355.253 1.47761 -0.509547 0
M  V30 3877 H 355.988 2.785 1.66157 0
M  V30 3878 H 355.773 3.91029 0.289594 0
M  V30 3879 H 357.263 3.97577 1.2776 0
M  V30 3880 N 357.7 0.491464 1.49741 0
M  V30 3881 C 358.949 -0.0582189 2.01616 0
M  V30 3882 C 359.262 -1.38927 1.3769 0
M  V30 3883 O 360.468 -2.02509 1.80838 0
M  V30 3884 C 358.924 -0.154235 3.59569 0
M  V30 3885 C 358.532 1.1696 4.32463 0
M  V30 3886 C 360.276 -0.65479 4.1942 0
M  V30 3887 C 358.183 1.03627 5.8225 0
M  V30 3888 H 357.113 -0.0255317 0.753568 0
M  V30 3889 H 359.764 0.629445 1.72367 0
M  V30 3890 H 358.146 -0.906138 3.85493 0
M  V30 3891 H 359.32 1.93405 4.18248 0
M  V30 3892 H 357.635 1.60285 3.84315 0
M  V30 3893 H 360.232 -0.771903 5.29099 0
M  V30 3894 H 360.575 -1.65127 3.8215 0
M  V30 3895 H 361.108 0.040304 3.9778 0
M  V30 3896 H 357.847 2.00672 6.24028 0
M  V30 3897 H 357.367 0.312546 5.98985 0
M  V30 3898 H 359.046 0.711114 6.4308 0
M  V30 3899 N 359.178 -1.55987 0.224894 0
M  V30 3900 C 360.594 -1.59066 -0.130426 0
M  V30 3901 C 360.794 -1.24176 -1.5869 0
M  V30 3902 O 359.85 -0.978592 -2.32766 0
M  V30 3903 C 361.163 -3.00042 0.198883 0
M  V30 3904 C 362.711 -3.1268 0.141391 0
M  V30 3905 C 363.186 -4.55839 0.444422 0
M  V30 3906 N 364.677 -4.6152 0.394115 0
M  V30 3907 C 365.412 -5.70231 0.602038 0
M  V30 3908 N 364.908 -6.87291 0.871914 0
M  V30 3909 N 366.701 -5.59555 0.534245 0
M  V30 3910 H 358.852 -1.76941 1.17497 0
M  V30 3911 H 361.115 -0.822604 0.471197 0
M  V30 3912 H 360.821 -3.30234 1.2099 0
M  V30 3913 H 360.695 -3.74075 -0.484535 0
M  V30 3914 H 363.082 -2.82283 -0.860265 0
M  V30 3915 H 363.163 -2.40969 0.858335 0
M  V30 3916 H 362.807 -4.86954 1.44353 0
M  V30 3917 H 362.737 -5.2578 -0.293752 0
M  V30 3918 H 365.228 -3.77405 0.193356 0
M  V30 3919 H 365.541 -7.66058 1.01858 0
M  V30 3920 H 363.886 -6.89028 0.909145 0
M  V30 3921 H 367.077 -4.6698 0.323612 0
M  V30 3922 H 367.25 -6.44211 0.699693 0
M  V30 3923 N 360.656 0.0484629 -1.57525 0
M  V30 3924 C 362.072 0.40375 -1.54409 0
M  V30 3925 C 362.272 1.77786 -0.948384 0
M  V30 3926 O 361.328 2.46189 -0.560983 0
M  V30 3927 C 362.641 0.323394 -2.98956 0
M  V30 3928 C 364.189 0.401892 -3.10409 0
M  V30 3929 C 364.664 0.351195 -4.56652 0
M  V30 3930 N 366.155 0.410576 -4.61377 0
M  V30 3931 C 366.89 0.393933 -5.72045 0
M  V30 3932 N 366.386 0.330724 -6.9201 0
M  V30 3933 N 368.179 0.442227 -5.60358 0
M  V30 3934 H 360.33 -0.851016 -1.94606 0
M  V30 3935 H 362.593 -0.321721 -0.89174 0
M  V30 3936 H 362.299 -0.62011 -3.4619 0
M  V30 3937 H 362.173 1.12463 -3.60044 0
M  V30 3938 H 364.56 1.33582 -2.63134 0
M  V30 3939 H 364.641 -0.428342 -2.52188 0
M  V30 3940 H 364.285 -0.578987 -5.04589 0
M  V30 3941 H 364.215 1.19928 -5.12762 0
M  V30 3942 H 366.706 0.462729 -3.75056 0
M  V30 3943 H 367.019 0.322592 -7.72126 0
M  V30 3944 H 365.364 0.29706 -6.94365 0
M  V30 3945 H 368.555 0.489464 -4.65534 0
M  V30 3946 H 368.728 0.425788 -6.466 0
M  V30 3947 N 362.134 1.5431 0.320358 0
M  V30 3948 C 363.55 1.45091 0.664889 0
M  V30 3949 C 363.75 0.626382 1.91517 0
M  V30 3950 O 362.806 0.126443 2.52183 0
M  V30 3951 C 364.119 2.88848 0.83591 0
M  V30 3952 C 365.667 2.9877 0.933046 0
M  V30 3953 C 366.142 4.43683 1.13621 0
M  V30 3954 N 367.633 4.47309 1.20287 0
M  V30 3955 C 368.368 5.56595 1.37801 0
M  V30 3956 N 367.864 6.75844 1.52338 0
M  V30 3957 N 369.657 5.44248 1.40535 0
M  V30 3958 H 361.808 2.06398 -0.501374 0
M  V30 3959 H 364.071 0.933963 -0.162534 0
M  V30 3960 H 363.777 3.51698 -0.0116092 0
M  V30 3961 H 363.651 3.35148 1.73078 0
M  V30 3962 H 366.038 2.36045 1.77107 0
M  V30 3963 H 366.119 2.55796 0.0145782 0
M  V30 3964 H 365.763 5.06995 0.303032 0
M  V30 3965 H 365.693 4.84269 2.0686 0
M  V30 3966 H 368.184 3.61388 1.10485 0
M  V30 3967 H 368.497 7.54892 1.65403 0
M  V30 3968 H 366.842 6.78746 1.4943 0
M  V30 3969 H 370.033 4.50038 1.28777 0
M  V30 3970 H 370.206 6.29473 1.53842 0
M  V30 3971 N 363.613 -0.582584 1.46437 0
M  V30 3972 C 365.024 -1.1647 1.45916 0
M  V30 3973 C 365.375 -1.95177 0.200077 0
M  V30 3974 O 364.5 -2.04874 -0.696819 0
M  V30 3975 C 365.095 -2.11885 2.64367 0
M  V30 3976 C 363.654 -2.65421 2.66887 0
M  V30 3977 C 362.801 -1.41294 2.38603 0
M  V30 3978 H 365.752 -0.370514 1.54314 0
M  V30 3979 H 365.773 -2.9535 2.39892 0
M  V30 3980 H 365.285 -1.54573 3.5599 0
M  V30 3981 H 363.386 -3.26602 1.79338 0
M  V30 3982 H 363.499 -3.08147 3.66854 0
M  V30 3983 H 361.863 -1.71109 1.88663 0
M  V30 3984 H 362.646 -0.858125 3.32402 0
M  V30 3985 N 365.091 -1.34144 -0.827227 0
M  V30 3986 C 366.316 -1.29476 -1.62021 0
M  V30 3987 C 366.741 0.129292 -1.87655 0
M  V30 3988 O 366.099 1.08967 -1.449 0
M  V30 3989 C 366.147 -2.08702 -2.94068 0
M  V30 3990 O 365.251 -1.45359 -3.85933 0
M  V30 3991 H 364.592 -0.444881 -0.492927 0
M  V30 3992 H 367.122 -1.76882 -1.02829 0
M  V30 3993 H 367.132 -2.19898 -3.43669 0
M  V30 3994 H 365.807 -3.12241 -2.74734 0
M  V30 3995 H 364.384 -1.42879 -3.44442 0
M  V30 3996 N 366.569 1.04691 -1.17803 0
M  V30 3997 C 367.499 2.14494 -0.92275 0
M  V30 3998 C 368.48 1.69546 0.137179 0
M  V30 3999 O 369.665 1.94195 -0.0141108 0
M  V30 4000 C 366.795 3.44491 -0.440803 0
M  V30 4001 C 365.749 4.03031 -1.4405 0
M  V30 4002 C 365.075 5.28432 -0.81631 0
M  V30 4003 C 366.375 4.39932 -2.81527 0
M  V30 4004 H 368.069 2.36107 -1.84103 0
M  V30 4005 H 365.615 1.1347 -0.886599 0
M  V30 4006 H 367.568 4.2066 -0.249602 0
M  V30 4007 H 366.292 3.22546 0.513025 0
M  V30 4008 H 364.951 3.28937 -1.61853 0
M  V30 4009 H 364.599 5.02792 0.144511 0
M  V30 4010 H 364.299 5.68559 -1.48371 0
M  V30 4011 H 365.823 6.07284 -0.635496 0
M  V30 4012 H 367.237 5.07113 -2.67412 0
M  V30 4013 H 365.634 4.9109 -3.44892 0
M  V30 4014 H 366.704 3.50045 -3.35554 0
M  V30 4015 N 368.047 0.979072 1.23499 0
M  V30 4016 C 369.277 0.664237 1.95631 0
M  V30 4017 C 369.685 -0.772653 1.72704 0
M  V30 4018 O 369.028 -1.53141 1.01457 0
M  V30 4019 C 369.09 0.873115 3.48736 0
M  V30 4020 C 368.754 2.29182 3.95379 0
M  V30 4021 C 369.751 3.2704 4.04155 0
M  V30 4022 C 367.436 2.62256 4.28401 0
M  V30 4023 C 369.43 4.56052 4.45304 0
M  V30 4024 C 367.117 3.91491 4.69231 0
M  V30 4025 C 368.115 4.88201 4.77649 0
M  V30 4026 O 367.803 6.15129 5.17563 0
M  V30 4027 H 367.535 0.245915 0.629684 0
M  V30 4028 H 370.089 1.3127 1.57979 0
M  V30 4029 H 368.319 0.167476 3.86337 0
M  V30 4030 H 370.008 0.555642 4.02079 0
M  V30 4031 H 370.774 3.02819 3.78848 0
M  V30 4032 H 366.653 1.87692 4.21061 0
M  V30 4033 H 370.197 5.31538 4.51789 0
M  V30 4034 H 366.094 4.15508 4.93987 0
M  V30 4035 H 366.862 6.18862 5.35679 0
M  V30 4036 N 369.525 -1.3858 0.750561 0
M  V30 4037 C 370.771 -2.00481 0.305825 0
M  V30 4038 C 371.104 -1.5944 -1.10872 0
M  V30 4039 O 370.379 -0.83052 -1.75877 0
M  V30 4040 C 370.662 -3.5758 0.425287 0
M  V30 4041 C 370.515 -4.08594 1.88072 0
M  V30 4042 C 371.834 -4.39719 -0.183122 0
M  V30 4043 H 368.953 -0.728348 0.112598 0
M  V30 4044 H 371.595 -1.64566 0.949638 0
M  V30 4045 H 369.745 -3.88306 -0.122828 0
M  V30 4046 H 371.417 -3.88523 2.48691 0
M  V30 4047 H 369.66 -3.61574 2.39681 0
M  V30 4048 H 370.331 -5.177 1.91548 0
M  V30 4049 H 372.807 -4.15128 0.284303 0
M  V30 4050 H 371.683 -5.48856 -0.0692757 0
M  V30 4051 H 371.944 -4.23434 -1.27106 0
M  V30 4052 N 371.003 -0.499398 -1.49478 0
M  V30 4053 C 372.252 0.0475259 -2.01644 0
M  V30 4054 C 372.565 1.38195 -1.38425 0
M  V30 4055 O 373.771 2.01547 -1.8191 0
M  V30 4056 C 372.227 0.135164 -3.59646 0
M  V30 4057 C 371.835 -1.19252 -4.31837 0
M  V30 4058 C 373.579 0.632538 -4.19761 0
M  V30 4059 C 371.486 -1.06713 -5.81693 0
M  V30 4060 H 370.416 0.0215349 -0.753692 0
M  V30 4061 H 373.067 -0.638577 -1.7203 0
M  V30 4062 H 371.449 0.885681 -3.85969 0
M  V30 4063 H 372.623 -1.9562 -4.17216 0
M  V30 4064 H 370.938 -1.62321 -3.83459 0
M  V30 4065 H 373.535 0.743833 -5.29501 0
M  V30 4066 H 373.878 1.63098 -3.83021 0
M  V30 4067 H 374.411 -0.0613987 -3.97753 0
M  V30 4068 H 371.15 -2.03979 -6.22955 0
M  V30 4069 H 370.67 -0.344307 -5.98811 0
M  V30 4070 H 372.349 -0.745208 -6.42694 0
M  V30 4071 N 372.481 1.55866 -0.233164 0
M  V30 4072 C 373.429 2.22176 0.68851 0
M  V30 4073 C 374.423 1.20487 1.19076 0
M  V30 4074 O 375.629 1.38536 1.14925 0
M  V30 4075 H 372.004 0.712511 0.240483 0
M  V30 4076 H 373.975 2.98212 0.105935 0
M  V30 4077 C 372.724 2.92446 1.88071 0
M  V30 4078 H 372.047 3.70458 1.50337 0
M  V30 4079 H 373.487 3.42226 2.50314 0
M  V30 4080 C 371.946 1.95555 2.74335 0
M  V30 4081 O 372.476 1.47986 3.73447 0
M  V30 4082 N 370.682 1.62953 2.40613 0
M  V30 4083 H 370.229 2.01831 1.60069 0
M  V30 4084 H 370.187 0.983886 2.98609 0
M  V30 4085 N 373.959 -0.0401083 1.57549 0
M  V30 4086 C 374.889 -1.04384 2.08869 0
M  V30 4087 C 375.87 -1.38407 0.988817 0
M  V30 4088 O 377.055 -1.47483 1.26342 0
M  V30 4089 C 374.185 -2.34808 2.55895 0
M  V30 4090 C 373.139 -2.15057 3.70047 0
M  V30 4091 C 372.465 -3.51145 4.03239 0
M  V30 4092 C 373.765 -1.54576 4.98902 0
M  V30 4093 H 375.459 -0.616666 2.92981 0
M  V30 4094 H 373.005 -0.295184 1.40942 0
M  V30 4095 H 374.958 -3.05346 2.90417 0
M  V30 4096 H 373.682 -2.79565 1.68853 0
M  V30 4097 H 372.341 -1.46954 3.35857 0
M  V30 4098 H 371.989 -3.93529 3.13279 0
M  V30 4099 H 371.689 -3.38758 4.80122 0
M  V30 4100 H 373.213 -4.23062 4.40285 0
M  V30 4101 H 374.627 -2.15017 5.31451 0
M  V30 4102 H 373.024 -1.52796 5.80322 0
M  V30 4103 H 374.094 -0.51039 4.82206 0
M  V30 4104 N 375.437 -1.54477 -0.31217 0
M  V30 4105 C 376.367 -1.87652 -1.38957 0
M  V30 4106 C 377.348 -0.734358 -1.53431 0
M  V30 4107 O 378.533 -0.98911 -1.67123 0
M  V30 4108 C 375.663 -2.11396 -2.75552 0
M  V30 4109 C 374.617 -3.27243 -2.75855 0
M  V30 4110 C 373.943 -3.36382 -4.15633 0
M  V30 4111 C 375.243 -4.64622 -2.38587 0
M  V30 4112 H 376.937 -2.77887 -1.11442 0
M  V30 4113 H 374.483 -1.33707 -0.534655 0
M  V30 4114 H 376.436 -2.33189 -3.51 0
M  V30 4115 H 375.16 -1.17921 -3.04569 0
M  V30 4116 H 373.819 -3.05356 -2.02863 0
M  V30 4117 H 373.467 -2.40445 -4.41809 0
M  V30 4118 H 373.167 -4.14249 -4.1674 0
M  V30 4119 H 374.691 -3.60422 -4.92877 0
M  V30 4120 H 376.105 -4.86219 -3.03749 0
M  V30 4121 H 374.502 -5.45121 -2.50925 0
M  V30 4122 H 375.572 -4.66097 -1.33723 0
M  V30 4123 N 376.915 0.57481 -1.46744 0
M  V30 4124 C 378.161 1.3347 -1.52688 0
M  V30 4125 C 378.494 1.93353 -0.181229 0
M  V30 4126 O 377.769 1.76912 0.808237 0
M  V30 4127 C 378.052 2.45811 -2.63152 0
M  V30 4128 C 377.905 1.90912 -4.07275 0
M  V30 4129 C 379.224 3.47822 -2.69644 0
M  V30 4130 H 376.343 0.483935 -0.555856 0
M  V30 4131 H 378.985 0.644968 -1.78718 0
M  V30 4132 H 377.135 3.04646 -2.41088 0
M  V30 4133 H 378.807 1.36473 -4.4065 0
M  V30 4134 H 377.05 1.21691 -4.16382 0
M  V30 4135 H 377.721 2.72042 -4.80309 0
M  V30 4136 H 380.197 2.9888 -2.895 0
M  V30 4137 H 379.073 4.23876 -3.48742 0
M  V30 4138 H 379.334 4.05555 -1.76005 0
M  V30 4139 N 378.394 1.34581 0.820102 0
M  V30 4140 C 379.805 1.24298 1.39309 0
M  V30 4141 C 380.156 -0.130351 1.95767 0
M  V30 4142 O 379.281 -1.0308 1.90272 0
M  V30 4143 C 379.876 2.25054 2.53251 0
M  V30 4144 C 378.435 2.18552 3.0645 0
M  V30 4145 C 377.582 2.11503 1.79337 0
M  V30 4146 H 380.533 1.45906 0.624262 0
M  V30 4147 H 380.554 1.86917 3.31425 0
M  V30 4148 H 380.066 3.24996 2.1213 0
M  V30 4149 H 378.167 1.21976 3.52069 0
M  V30 4150 H 378.28 3.0993 3.65349 0
M  V30 4151 H 376.644 1.57268 2.00347 0
M  V30 4152 H 377.427 3.13284 1.40386 0
M  V30 4153 N 379.872 -1.04064 1.18357 0
M  V30 4154 C 381.097 -1.81454 1.00445 0
M  V30 4155 C 381.522 -1.82823 -0.442423 0
M  V30 4156 O 380.88 -1.24555 -1.31741 0
M  V30 4157 C 380.928 -3.24925 1.56384 0
M  V30 4158 O 380.032 -4.04856 0.785209 0
M  V30 4159 H 379.373 -0.560604 0.355835 0
M  V30 4160 H 381.903 -1.31059 1.57114 0
M  V30 4161 H 381.913 -3.75702 1.59097 0
M  V30 4162 H 380.588 -3.23244 2.61699 0
M  V30 4163 H 379.165 -3.63537 0.830399 0
M  V30 4164 N 381.35 -0.985608 -1.22978 0
M  V30 4165 C 382.598 -0.656087 -1.91154 0
M  V30 4166 C 382.919 0.813561 -1.77218 0
M  V30 4167 O 382.189 1.58244 -1.1548 0
M  V30 4168 H 380.769 -0.239674 -0.707506 0
M  V30 4169 H 383.431 -1.25054 -1.49491 0
M  V30 4170 H 382.527 -0.912253 -2.9847 0
M  V30 4171 N 382.828 1.3818 -0.7579 0
M  V30 4172 C 384.075 2.00019 -0.315985 0
M  V30 4173 C 384.403 1.60163 1.10355 0
M  V30 4174 O 383.658 0.83264 1.77103 0
M  V30 4175 C 383.957 3.55252 -0.391218 0
M  V30 4176 C 383.623 4.14834 -1.76702 0
M  V30 4177 C 382.285 4.30821 -2.14353 0
M  V30 4178 C 384.637 4.47658 -2.66931 0
M  V30 4179 C 381.965 4.76928 -3.41696 0
M  V30 4180 C 384.317 4.95184 -3.93669 0
M  V30 4181 C 382.981 5.09377 -4.31383 0
M  V30 4182 H 382.251 0.731923 -0.115627 0
M  V30 4183 H 384.898 1.65161 -0.969223 0
M  V30 4184 H 383.203 3.90273 0.34558 0
M  V30 4185 H 384.9 4.00988 -0.030805 0
M  V30 4186 H 381.49 4.02808 -1.46435 0
M  V30 4187 H 385.674 4.34904 -2.39106 0
M  V30 4188 H 380.93 4.86103 -3.70829 0
M  V30 4189 H 385.104 5.19551 -4.63724 0
M  V30 4190 H 382.731 5.44865 -5.30119 0
M  V30 4191 N 384.306 0.507319 1.49211 0
M  V30 4192 C 385.236 -0.256939 2.32082 0
M  V30 4193 C 386.217 -0.956609 1.40652 0
M  V30 4194 O 387.402 -0.946788 1.69557 0
M  V30 4195 C 384.532 -1.31802 3.21318 0
M  V30 4196 C 383.486 -0.737855 4.21592 0
M  V30 4197 C 382.812 -1.89992 4.99807 0
M  V30 4198 C 384.112 0.275325 5.21574 0
M  V30 4199 H 385.806 0.434798 2.96226 0
M  V30 4200 H 383.352 0.210546 1.42452 0
M  V30 4201 H 385.305 -1.86045 3.78107 0
M  V30 4202 H 384.029 -2.03903 2.5513 0
M  V30 4203 H 382.688 -0.217126 3.65956 0
M  V30 4204 H 382.336 -2.60877 4.30061 0
M  V30 4205 H 382.036 -1.51777 5.6766 0
M  V30 4206 H 383.56 -2.44657 5.59442 0
M  V30 4207 H 384.974 -0.179193 5.7302 0
M  V30 4208 H 383.371 0.573649 5.97352 0
M  V30 4209 H 384.441 1.18903 4.70096 0
M  V30 4210 N 385.784 -1.5574 0.241426 0
M  V30 4211 C 387.03 -1.99104 -0.385406 0
M  V30 4212 C 387.363 -1.1293 -1.57988 0
M  V30 4213 O 386.638 -0.191449 -1.93555 0
M  V30 4214 C 386.921 -3.51087 -0.800616 0
M  V30 4215 C 386.774 -4.48028 0.398874 0
M  V30 4216 C 388.093 -4.08015 -1.64959 0
M  V30 4217 H 385.212 -0.723848 -0.138614 0
M  V30 4218 H 387.854 -1.86903 0.341642 0
M  V30 4219 H 386.004 -3.61615 -1.4201 0
M  V30 4220 H 387.676 -4.49487 1.03726 0
M  V30 4221 H 385.919 -4.21077 1.04293 0
M  V30 4222 H 386.59 -5.51962 0.0651056 0
M  V30 4223 H 389.066 -4.00555 -1.12672 0
M  V30 4224 H 387.942 -5.14635 -1.90898 0
M  V30 4225 H 388.203 -3.56131 -2.61961 0
M  V30 4226 N 387.262 0.0317525 -1.57568 0
M  V30 4227 C 388.225 1.01783 -2.0536 0
M  V30 4228 C 389.225 1.29203 -0.957253 0
M  V30 4229 O 390.415 1.24251 -1.22095 0
M  V30 4230 C 387.547 2.35137 -2.46827 0
M  V30 4231 H 388.74 0.605062 -2.93733 0
M  V30 4232 H 386.293 0.278514 -1.53799 0
M  V30 4233 H 387.028 2.81168 -1.61602 0
M  V30 4234 H 386.813 2.16566 -3.26866 0
M  V30 4235 H 388.303 3.05938 -2.84239 0
M  V30 4236 N 388.74 1.54641 0.303973 0
M  V30 4237 C 389.989 1.7299 1.03717 0
M  V30 4238 C 390.302 0.521168 1.88529 0
M  V30 4239 O 391.508 0.586408 2.65092 0
M  V30 4240 C 389.964 3.06051 1.89369 0
M  V30 4241 C 389.572 4.34393 1.09574 0
M  V30 4242 C 391.316 3.3376 2.62306 0
M  V30 4243 C 389.223 5.58506 1.94486 0
M  V30 4244 H 388.153 0.64473 0.390947 0
M  V30 4245 H 390.804 1.81124 0.294328 0
M  V30 4246 H 389.186 2.91874 2.67629 0
M  V30 4247 H 390.36 4.59396 0.359485 0
M  V30 4248 H 388.675 4.13597 0.482324 0
M  V30 4249 H 391.272 4.23687 3.26181 0
M  V30 4250 H 391.615 2.52503 3.3098 0
M  V30 4251 H 392.148 3.48894 1.91097 0
M  V30 4252 H 388.887 6.42422 1.30287 0
M  V30 4253 H 388.407 5.37694 2.65792 0
M  V30 4254 H 390.086 5.95651 2.52605 0
M  V30 4255 N 390.218 -0.567019 1.47046 0
M  V30 4256 C 391.495 -1.3276 1.43646 0
M  V30 4257 C 391.875 -2.1071 0.128186 0
M  V30 4258 O 391.223 -2.10441 -0.890326 0
M  V30 4259 C 391.433 -2.2404 2.67595 0
M  V30 4260 C 392.781 -2.85372 3.14401 0
M  V30 4261 O 393.805 -2.34346 2.68254 0
M  V30 4262 O 392.664 -3.78091 3.946 0
M  V30 4263 H 389.758 -0.597293 0.571988 0
M  V30 4264 H 392.304 -0.586735 1.59234 0
M  V30 4265 H 391.076 -1.65975 3.54356 0
M  V30 4266 H 390.699 -3.05439 2.54544 0
M  V30 4267 N 391.696 -1.35014 -0.812953 0
M  V30 4268 C 392.659 -1.27292 -1.90602 0
M  V30 4269 C 393.659 -0.185817 -1.59723 0
M  V30 4270 O 394.849 -0.439102 -1.68575 0
M  V30 4271 C 391.981 -0.967676 -3.26877 0
M  V30 4272 H 393.174 -2.24479 -1.9887 0
M  V30 4273 H 390.727 -1.19446 -1.00808 0
M  V30 4274 H 391.462 0.0005954 -3.243 0
M  V30 4275 H 391.247 -1.75412 -3.50675 0
M  V30 4276 H 392.737 -0.939085 -4.06904 0
M  V30 4277 N 393.175 1.03435 -1.18907 0
M  V30 4278 C 394.105 2.13503 -0.945448 0
M  V30 4279 C 395.086 1.69682 0.119189 0
M  V30 4280 O 396.271 1.94169 -0.034707 0
M  V30 4281 C 393.401 3.44004 -0.477316 0
M  V30 4282 C 392.355 4.0148 -1.48316 0
M  V30 4283 C 391.681 5.27537 -0.872311 0
M  V30 4284 C 392.981 4.36921 -2.86177 0
M  V30 4285 H 394.675 2.34141 -1.86597 0
M  V30 4286 H 392.221 1.12523 -0.898584 0
M  V30 4287 H 394.174 4.20372 -0.294204 0
M  V30 4288 H 392.898 3.23072 0.478786 0
M  V30 4289 H 391.557 3.27201 -1.65332 0
M  V30 4290 H 391.205 5.02917 0.0911752 0
M  V30 4291 H 390.905 5.66954 -1.54393 0
M  V30 4292 H 392.429 6.06576 -0.699871 0
M  V30 4293 H 393.843 5.04248 -2.72776 0
M  V30 4294 H 392.24 4.87405 -3.50081 0
M  V30 4295 H 393.31 3.46466 -3.39248 0
M  V30 4296 N 394.653 0.992116 1.22453 0
M  V30 4297 C 395.878 0.685644 1.95739 0
M  V30 4298 C 396.303 -0.743 1.72804 0
M  V30 4299 O 395.661 -1.50778 1.00676 0
M  V30 4300 C 395.709 0.996293 3.46564 0
M  V30 4301 O 394.813 0.0945512 4.12292 0
M  V30 4302 H 394.154 0.256694 0.612376 0
M  V30 4303 H 396.684 1.32888 1.5557 0
M  V30 4304 H 396.694 0.93781 3.97076 0
M  V30 4305 H 395.369 2.03733 3.62582 0
M  V30 4306 H 393.946 0.208451 3.72317 0
M  V30 4307 N 396.131 -1.37776 0.765217 0
M  V30 4308 C 397.378 -1.99849 0.326588 0
M  V30 4309 C 397.706 -1.60746 -1.09504 0
M  V30 4310 O 396.961 -0.84202 -1.76659 0
M  V30 4311 C 397.26 -3.5504 0.410053 0
M  V30 4312 C 396.926 -4.13891 1.78899 0
M  V30 4313 C 395.588 -4.29678 2.16635 0
M  V30 4314 C 397.94 -4.46236 2.69301 0
M  V30 4315 C 395.268 -4.7511 3.44221 0
M  V30 4316 C 397.62 -4.93089 3.9629 0
M  V30 4317 C 396.284 -5.07082 4.34078 0
M  V30 4318 H 395.554 -0.7313 0.119507 0
M  V30 4319 H 398.201 -1.64645 0.977968 0
M  V30 4320 H 396.506 -3.90451 -0.324878 0
M  V30 4321 H 398.203 -4.00966 0.0520699 0
M  V30 4322 H 394.793 -4.02026 1.48569 0
M  V30 4323 H 398.977 -4.3363 2.41409 0
M  V30 4324 H 394.233 -4.84129 3.73402 0
M  V30 4325 H 398.407 -5.17084 4.66472 0
M  V30 4326 H 396.034 -5.42046 5.33001 0
M  V30 4327 N 397.609 -0.515225 -1.4894 0
M  V30 4328 C 398.839 0.0205735 -2.0659 0
M  V30 4329 C 399.247 1.30064 -1.37405 0
M  V30 4330 O 398.59 1.78087 -0.450632 0
M  V30 4331 C 398.652 0.330124 -3.57981 0
M  V30 4332 C 398.316 -0.854295 -4.48944 0
M  V30 4333 C 399.313 -1.7487 -4.89609 0
M  V30 4334 C 396.998 -1.05712 -4.9105 0
M  V30 4335 C 398.992 -2.82996 -5.71132 0
M  V30 4336 C 396.679 -2.14154 -5.72347 0
M  V30 4337 C 397.677 -3.0263 -6.12294 0
M  V30 4338 O 397.365 -4.09198 -6.91962 0
M  V30 4339 H 397.097 -0.0236833 -0.675585 0
M  V30 4340 H 399.651 -0.715956 -1.92518 0
M  V30 4341 H 397.881 1.12044 -3.70112 0
M  V30 4342 H 399.57 0.806233 -3.97812 0
M  V30 4343 H 400.336 -1.60388 -4.57712 0
M  V30 4344 H 396.215 -0.377788 -4.59449 0
M  V30 4345 H 399.759 -3.52083 -6.02232 0
M  V30 4346 H 395.656 -2.28626 -6.03656 0
M  V30 4347 H 396.424 -4.06726 -7.10293 0
M  V30 4348 N 399.087 1.5561 -0.249682 0
M  V30 4349 C 400.017 2.24477 0.642826 0
M  V30 4350 C 400.998 1.22601 1.17911 0
M  V30 4351 O 402.183 1.5126 1.21795 0
M  V30 4352 C 399.313 2.94638 1.83863 0
M  V30 4353 C 398.267 4.03227 1.435 0
M  V30 4354 C 397.593 4.60828 2.71186 0
M  V30 4355 C 398.893 5.18796 0.604002 0
M  V30 4356 H 400.587 2.99321 0.0685625 0
M  V30 4357 H 398.133 1.43965 0.0315363 0
M  V30 4358 H 400.086 3.41517 2.46868 0
M  V30 4359 H 398.81 2.17287 2.43832 0
M  V30 4360 H 397.469 3.57121 0.828275 0
M  V30 4361 H 397.117 3.80174 3.29358 0
M  V30 4362 H 396.817 5.34132 2.44901 0
M  V30 4363 H 398.341 5.10442 3.35084 0
M  V30 4364 H 399.755 5.61883 1.13842 0
M  V30 4365 H 398.152 5.98506 0.437097 0
M  V30 4366 H 399.222 4.83384 -0.383147 0
M  V30 4367 N 400.565 -0.0233959 1.57583 0
M  V30 4368 C 401.976 -0.56927 1.77809 0
M  V30 4369 C 402.327 -1.75284 0.881472 0
M  V30 4370 O 401.452 -2.1626 0.0777805 0
M  V30 4371 C 402.047 -1.03949 3.22459 0
M  V30 4372 C 400.606 -1.53084 3.43864 0
M  V30 4373 C 399.753 -0.471454 2.73263 0
M  V30 4374 H 402.704 0.202825 1.57399 0
M  V30 4375 H 402.725 -1.90661 3.29285 0
M  V30 4376 H 402.237 -0.177865 3.87692 0
M  V30 4377 H 400.338 -2.41414 2.83814 0
M  V30 4378 H 400.451 -1.57443 4.52491 0
M  V30 4379 H 398.815 -0.927788 2.37201 0
M  V30 4380 H 399.598 0.380808 3.41181 0
M  V30 4381 N 402.043 -1.548 -0.295768 0
M  V30 4382 C 403.289 -1.74588 -1.03184 0
M  V30 4383 C 403.622 -0.532962 -1.86744 0
M  V30 4384 O 402.897 0.469872 -1.88739 0
M  V30 4385 C 403.18 -3.03791 -1.93347 0
M  V30 4386 C 403.033 -4.35392 -1.12933 0
M  V30 4387 C 404.352 -3.28892 -2.92435 0
M  V30 4388 H 401.471 -0.635221 -0.373715 0
M  V30 4389 H 404.113 -1.87519 -0.30606 0
M  V30 4390 H 402.263 -2.92898 -2.55232 0
M  V30 4391 H 403.935 -4.58211 -0.532943 0
M  V30 4392 H 402.178 -4.31642 -0.432168 0
M  V30 4393 H 402.849 -5.22074 -1.79284 0
M  V30 4394 H 405.325 -3.39429 -2.4068 0
M  V30 4395 H 404.201 -4.20603 -3.52682 0
M  V30 4396 H 404.462 -2.47437 -3.6637 0
M  V30 4397 N 403.521 0.559213 -1.47345 0
M  V30 4398 C 404.468 1.66645 -1.59682 0
M  V30 4399 C 405.438 1.60168 -0.43994 0
M  V30 4400 O 406.623 1.79031 -0.659736 0
M  V30 4401 C 403.763 3.04969 -1.61518 0
M  V30 4402 C 402.876 3.21897 -2.88108 0
M  V30 4403 C 402.011 4.50608 -2.81294 0
M  V30 4404 C 401.05 4.60961 -4.02717 0
M  V30 4405 N 400.187 5.81024 -3.94151 0
M  V30 4406 H 405.027 1.55439 -2.54249 0
M  V30 4407 H 402.564 0.757219 -1.26113 0
M  V30 4408 H 404.522 3.85064 -1.60566 0
M  V30 4409 H 403.152 3.15015 -0.704645 0
M  V30 4410 H 402.204 2.35248 -2.98936 0
M  V30 4411 H 403.516 3.25412 -3.78032 0
M  V30 4412 H 402.67 5.3896 -2.7858 0
M  V30 4413 H 401.409 4.49568 -1.89049 0
M  V30 4414 H 400.414 3.71021 -4.05738 0
M  V30 4415 H 401.639 4.63761 -4.96087 0
M  V30 4416 H 399.585 5.80938 -3.04708 0
M  V30 4417 H 399.502 5.85909 -4.77752 0
M  V30 4418 H 400.77 6.71744 -3.9545 0
M  V30 4419 N 404.999 1.35443 0.805782 0
M  V30 4420 C 406.224 1.32037 1.59941 0
M  V30 4421 C 406.649 -0.0994215 1.87837 0
M  V30 4422 O 406.007 -1.06648 1.46615 0
M  V30 4423 C 406.055 2.13354 2.90711 0
M  V30 4424 O 405.159 1.5148 3.83572 0
M  V30 4425 H 404.5 0.452666 0.485787 0
M  V30 4426 H 407.03 1.78496 1.00002 0
M  V30 4427 H 407.04 2.25338 3.40128 0
M  V30 4428 H 405.715 3.16572 2.69732 0
M  V30 4429 H 404.292 1.4834 3.42125 0
M  V30 4430 N 406.477 -1.02803 1.19454 0
M  V30 4431 C 407.725 -1.75869 0.995722 0
M  V30 4432 C 408.046 -1.89138 -0.474543 0
M  V30 4433 O 407.316 -1.42558 -1.34366 0
M  V30 4434 H 405.896 -0.651511 0.365435 0
M  V30 4435 H 408.558 -1.24004 1.50363 0
M  V30 4436 H 407.654 -2.76661 1.44447 0
M  V30 4437 N 407.956 -0.998596 -1.21925 0
M  V30 4438 C 408.904 -0.546641 -2.26085 0
M  V30 4439 C 409.898 0.405576 -1.64473 0
M  V30 4440 O 411.104 0.277471 -1.77849 0
M  V30 4441 H 407.479 -0.158403 -0.735127 0
M  V30 4442 H 409.45 -1.43645 -2.61551 0
M  V30 4443 C 408.199 0.117388 -3.47502 0
M  V30 4444 H 407.522 -0.606277 -3.95176 0
M  V30 4445 H 408.962 0.396993 -4.22137 0
M  V30 4446 C 407.421 1.35455 -3.0847 0
M  V30 4447 O 407.951 2.44944 -3.18379 0
M  V30 4448 N 406.157 1.23191 -2.63196 0
M  V30 4449 H 405.704 0.341006 -2.55333 0
M  V30 4450 H 405.662 2.06071 -2.37449 0
M  V30 4451 N 409.434 1.37368 -0.772513 0
M  V30 4452 C 410.85 1.53059 -0.452231 0
M  V30 4453 C 411.05 1.73065 1.03203 0
M  V30 4454 O 410.106 1.75245 1.81784 0
M  V30 4455 C 411.419 2.72659 -1.26797 0
M  V30 4456 C 412.967 2.86521 -1.25995 0
M  V30 4457 C 413.442 4.09105 -2.05905 0
M  V30 4458 N 414.933 4.16219 -2.03263 0
M  V30 4459 C 415.668 5.10107 -2.61875 0
M  V30 4460 N 415.164 6.09547 -3.29278 0
M  V30 4461 N 416.957 5.02596 -2.51701 0
M  V30 4462 H 409.108 1.22634 -1.7342 0
M  V30 4463 H 411.371 0.597206 -0.736239 0
M  V30 4464 H 411.077 2.64343 -2.31982 0
M  V30 4465 H 410.951 3.66363 -0.897672 0
M  V30 4466 H 413.338 2.94308 -0.216081 0
M  V30 4467 H 413.419 1.93774 -1.66989 0
M  V30 4468 H 413.063 4.0208 -3.10313 0
M  V30 4469 H 412.993 5.00968 -1.62292 0
M  V30 4470 H 415.484 3.45012 -1.54192 0
M  V30 4471 H 415.797 6.77718 -3.71374 0
M  V30 4472 H 414.142 6.09824 -3.33377 0
M  V30 4473 H 417.333 4.23855 -1.98657 0
M  V30 4474 H 417.506 5.75582 -2.97673 0
M  V30 4475 N 410.912 0.523116 1.48665 0
M  V30 4476 C 412.158 -0.0134963 2.02796 0
M  V30 4477 C 412.491 -1.34582 1.40004 0
M  V30 4478 O 411.766 -1.86756 0.543381 0
M  V30 4479 C 412.049 -0.14276 3.59817 0
M  V30 4480 C 411.902 1.21425 4.331 0
M  V30 4481 C 413.221 -0.872856 4.31357 0
M  V30 4482 H 410.34 -0.00343074 0.736992 0
M  V30 4483 H 412.982 0.678816 1.7746 0
M  V30 4484 H 411.132 -0.732401 3.81534 0
M  V30 4485 H 412.804 1.84447 4.2282 0
M  V30 4486 H 411.047 1.79791 3.94788 0
M  V30 4487 H 411.718 1.07687 5.41394 0
M  V30 4488 H 414.194 -0.372555 4.14429 0
M  V30 4489 H 413.07 -0.932185 5.40927 0
M  V30 4490 H 413.331 -1.92161 3.98154 0
M  V30 4491 N 412.39 -1.55475 0.257931 0
M  V30 4492 C 413.801 -1.8511 -0.243135 0
M  V30 4493 C 414.152 -1.17986 -1.5676 0
M  V30 4494 O 413.277 -0.462102 -2.11409 0
M  V30 4495 C 413.872 -3.35826 -0.447929 0
M  V30 4496 C 412.431 -3.65647 -0.893245 0
M  V30 4497 C 411.578 -2.7729 0.0232965 0
M  V30 4498 H 414.529 -1.51261 0.480199 0
M  V30 4499 H 414.55 -3.58002 -1.28898 0
M  V30 4500 H 414.062 -3.84652 0.516196 0
M  V30 4501 H 412.163 -3.22308 -1.86945 0
M  V30 4502 H 412.276 -4.73312 -0.742469 0
M  V30 4503 H 410.64 -2.49942 -0.490021 0
M  V30 4504 H 411.423 -3.28926 0.982994 0
M  V30 4505 N 413.868 0.0150385 -1.57593 0
M  V30 4506 C 415.115 0.703001 -1.89906 0
M  V30 4507 C 415.443 1.74604 -0.856944 0
M  V30 4508 O 414.698 1.95197 0.140287 0
M  V30 4509 C 414.997 1.39686 -3.28972 0
M  V30 4510 C 414.663 0.488457 -4.48246 0
M  V30 4511 C 413.325 0.2383 -4.8061 0
M  V30 4512 C 415.677 -0.137881 -5.21018 0
M  V30 4513 C 413.005 -0.646738 -5.83125 0
M  V30 4514 C 415.357 -1.0107 -6.24474 0
M  V30 4515 C 414.021 -1.27019 -6.55303 0
M  V30 4516 H 413.291 0.257246 -0.694914 0
M  V30 4517 H 415.938 -0.037259 -1.91464 0
M  V30 4518 H 414.243 2.21079 -3.23468 0
M  V30 4519 H 415.94 1.93495 -3.51227 0
M  V30 4520 H 412.53 0.693593 -4.22951 0
M  V30 4521 H 416.714 0.0423953 -4.96282 0
M  V30 4522 H 411.97 -0.855937 -6.05379 0
M  V30 4523 H 416.144 -1.50247 -6.79999 0
M  V30 4524 H 413.771 -1.95769 -7.3456 0
M  V30 4525 N 415.346 1.54954 0.287554 0
M  V30 4526 C 416.293 1.86834 1.35505 0
M  V30 4527 C 417.263 0.718452 1.49758 0
M  V30 4528 O 418.448 0.968358 1.644 0
M  V30 4529 C 415.588 2.13303 2.71286 0
M  V30 4530 C 414.701 3.40883 2.65373 0
M  V30 4531 C 413.836 3.57125 3.93236 0
M  V30 4532 C 412.875 4.78449 3.81776 0
M  V30 4533 N 412.012 4.91426 5.01443 0
M  V30 4534 H 416.852 2.77889 1.07619 0
M  V30 4535 H 414.389 1.37593 0.520241 0
M  V30 4536 H 416.347 2.26646 3.50267 0
M  V30 4537 H 414.977 1.25499 2.97405 0
M  V30 4538 H 414.029 3.36088 1.78182 0
M  V30 4539 H 415.341 4.29993 2.52799 0
M  V30 4540 H 414.495 3.70207 4.80658 0
M  V30 4541 H 413.234 2.66173 4.0866 0
M  V30 4542 H 412.239 4.65386 2.92738 0
M  V30 4543 H 413.464 5.70822 3.67884 0
M  V30 4544 H 411.41 4.03401 5.17304 0
M  V30 4545 H 411.327 5.74559 4.91343 0
M  V30 4546 H 412.595 5.08879 5.90477 0
M  V30 4547 N 416.824 -0.551391 1.4764 0
M  V30 4548 C 418.073 -1.30467 1.53822 0
M  V30 4549 C 418.386 -1.94495 0.207661 0
M  V30 4550 O 419.592 -2.71099 0.147533 0
M  V30 4551 C 418.048 -2.36616 2.71184 0
M  V30 4552 C 417.656 -1.78754 4.10793 0
M  V30 4553 C 419.4 -3.13088 2.86663 0
M  V30 4554 C 417.307 -2.82717 5.19447 0
M  V30 4555 H 416.237 -0.490584 0.572576 0
M  V30 4556 H 418.888 -0.58494 1.73927 0
M  V30 4557 H 417.27 -3.11529 2.4447 0
M  V30 4558 H 418.444 -1.10173 4.47435 0
M  V30 4559 H 416.759 -1.14846 4.00249 0
M  V30 4560 H 419.356 -3.90736 3.65007 0
M  V30 4561 H 419.699 -3.67635 1.95321 0
M  V30 4562 H 420.232 -2.45288 3.13175 0
M  V30 4563 H 416.971 -2.33018 6.12685 0
M  V30 4564 H 416.491 -3.4969 4.87316 0
M  V30 4565 H 418.17 -3.46102 5.46646 0
M  V30 4566 N 418.302 -1.35869 -0.798587 0
M  V30 4567 C 419.53 -1.32722 -1.58722 0
M  V30 4568 C 419.945 0.0935631 -1.88568 0
M  V30 4569 O 419.302 1.04784 -1.49421 0
M  V30 4570 C 419.353 -2.13974 -2.91371 0
M  V30 4571 O 419.074 -3.50514 -2.62815 0
M  V30 4572 C 420.575 -2.18504 -3.85708 0
M  V30 4573 H 417.795 -0.45562 -0.492596 0
M  V30 4574 H 420.339 -1.78837 -0.991843 0
M  V30 4575 H 418.494 -1.71438 -3.47402 0
M  V30 4576 H 418.908 -3.92806 -3.47568 0
M  V30 4577 H 420.382 -2.79732 -4.75872 0
M  V30 4578 H 420.859 -1.18597 -4.22885 0
M  V30 4579 H 421.465 -2.61236 -3.35612 0
M  V30 4580 N 419.78 1.02168 -1.19998 0
M  V30 4581 C 420.71 2.12488 -0.96804 0
M  V30 4582 C 421.691 1.69799 0.101185 0
M  V30 4583 O 422.876 1.94121 -0.0552993 0
M  V30 4584 C 420.006 3.43479 -0.513776 0
M  V30 4585 C 418.96 3.99884 -1.52566 0
M  V30 4586 C 418.286 5.26582 -0.928214 0
M  V30 4587 C 419.586 4.33861 -2.90795 0
M  V30 4588 H 421.28 2.32149 -1.89069 0
M  V30 4589 H 418.826 1.11564 -0.910468 0
M  V30 4590 H 420.779 4.20036 -0.338774 0
M  V30 4591 H 419.503 3.23561 0.444493 0
M  V30 4592 H 418.162 3.25429 -1.68794 0
M  V30 4593 H 417.81 5.02986 0.0378289 0
M  V30 4594 H 417.51 5.65284 -1.60397 0
M  V30 4595 H 419.034 6.05799 -0.764167 0
M  V30 4596 H 420.448 5.01327 -2.78109 0
M  V30 4597 H 418.845 4.83664 -3.55231 0
M  V30 4598 H 419.915 3.42848 -3.42904 0
M  V30 4599 N 421.258 1.00505 1.21394 0
M  V30 4600 C 422.188 0.585684 2.26035 0
M  V30 4601 C 423.169 -0.393525 1.65485 0
M  V30 4602 O 424.354 -0.281497 1.92149 0
M  V30 4603 C 421.484 -0.0884283 3.47187 0
M  V30 4604 C 420.438 0.810567 4.20254 0
M  V30 4605 C 419.764 0.00286382 5.347 0
M  V30 4606 C 421.064 2.1132 4.77641 0
M  V30 4607 H 422.758 1.46039 2.61368 0
M  V30 4608 H 420.304 0.703648 1.25638 0
M  V30 4609 H 422.257 -0.393286 4.19561 0
M  V30 4610 H 420.981 -0.997766 3.10986 0
M  V30 4611 H 419.64 1.09925 3.49731 0
M  V30 4612 H 419.288 -0.907765 4.94741 0
M  V30 4613 H 418.988 0.601444 5.84514 0
M  V30 4614 H 420.512 -0.295808 6.09883 0
M  V30 4615 H 421.926 1.87148 5.41893 0
M  V30 4616 H 420.323 2.66164 5.37845 0
M  V30 4617 H 421.393 2.78393 3.9702 0
M  V30 4618 N 422.737 -1.36956 0.779787 0
M  V30 4619 C 423.667 -2.32761 0.185651 0
M  V30 4620 C 424.648 -1.56177 -0.673989 0
M  V30 4621 O 425.833 -1.84378 -0.609797 0
M  V30 4622 C 422.963 -3.40418 -0.687964 0
M  V30 4623 C 421.917 -4.27941 0.0710102 0
M  V30 4624 C 421.243 -5.26681 -0.922573 0
M  V30 4625 C 422.543 -5.07006 1.25467 0
M  V30 4626 H 424.237 -2.82698 0.986008 0
M  V30 4627 H 421.783 -1.3592 0.475592 0
M  V30 4628 H 423.736 -4.06423 -1.11348 0
M  V30 4629 H 422.46 -2.89025 -1.52093 0
M  V30 4630 H 421.119 -3.63478 0.47739 0
M  V30 4631 H 420.767 -4.71565 -1.7503 0
M  V30 4632 H 420.467 -5.86103 -0.419237 0
M  V30 4633 H 421.991 -5.9556 -1.34686 0
M  V30 4634 H 423.405 -5.66105 0.905401 0
M  V30 4635 H 421.802 -5.75793 1.69063 0
M  V30 4636 H 422.872 -4.3921 2.05481 0
M  V30 4637 N 424.215 -0.530993 -1.48385 0
M  V30 4638 C 425.463 0.00273189 -2.021 0
M  V30 4639 C 425.784 1.34672 -1.41027 0
M  V30 4640 O 425.054 1.8724 -0.576012 0
M  V30 4641 H 423.634 0.00399774 -0.746989 0
M  V30 4642 H 426.296 -0.695054 -1.82085 0
M  V30 4643 H 425.392 0.11031 -3.11905 0
M  V30 4644 N 425.693 1.55336 -0.266172 0
M  V30 4645 C 426.923 2.03506 0.356239 0
M  V30 4646 C 427.331 1.14426 1.50676 0
M  V30 4647 O 426.674 0.155043 1.83045 0
M  V30 4648 C 426.736 3.47848 0.90785 0
M  V30 4649 C 426.4 4.56861 -0.112888 0
M  V30 4650 C 427.397 5.11528 -0.929264 0
M  V30 4651 C 425.082 5.01704 -0.244546 0
M  V30 4652 C 427.076 6.09549 -1.86357 0
M  V30 4653 C 424.763 5.99553 -1.18234 0
M  V30 4654 C 425.761 6.53356 -1.99036 0
M  V30 4655 O 425.449 7.49293 -2.91231 0
M  V30 4656 H 425.181 0.670444 0.08649 0
M  V30 4657 H 427.735 2.01598 -0.39337 0
M  V30 4658 H 425.965 3.46967 1.70737 0
M  V30 4659 H 427.654 3.79407 1.44239 0
M  V30 4660 H 428.42 4.77701 -0.838237 0
M  V30 4661 H 424.299 4.59477 0.374359 0
M  V30 4662 H 427.843 6.51469 -2.49467 0
M  V30 4663 H 423.74 6.32799 -1.27421 0
M  V30 4664 H 424.508 7.66978 -2.8581 0
M  V30 4665 N 427.171 -0.0066808 1.57599 0
M  V30 4666 C 428.119 -1.01851 2.09115 0
M  V30 4667 C 429.113 -1.36021 1.00969 0
M  V30 4668 O 430.319 -1.34663 1.19439 0
M  V30 4669 H 426.694 -0.346083 0.667631 0
M  V30 4670 H 428.665 -0.558394 2.93129 0
M  V30 4671 C 427.414 -2.30374 2.60429 0
M  V30 4672 H 426.737 -2.04947 3.43273 0
M  V30 4673 H 428.177 -2.99466 3.00161 0
M  V30 4674 C 426.636 -3.00893 1.51542 0
M  V30 4675 O 427.166 -3.91614 0.894484 0
M  V30 4676 N 425.372 -2.62603 1.2445 0
M  V30 4677 H 424.919 -1.88911 1.75129 0
M  V30 4678 H 424.877 -3.10101 0.518137 0
M  V30 4679 N 428.649 -1.55105 -0.279332 0
M  V30 4680 C 429.895 -1.75672 -1.01327 0
M  V30 4681 C 430.228 -0.552739 -1.86168 0
M  V30 4682 O 429.503 0.449827 -1.89227 0
M  V30 4683 C 429.786 -3.05825 -1.90114 0
M  V30 4684 C 429.639 -4.36565 -1.08309 0
M  V30 4685 C 430.958 -3.31975 -2.8893 0
M  V30 4686 H 428.077 -0.639149 -0.366957 0
M  V30 4687 H 430.719 -1.87833 -0.286154 0
M  V30 4688 H 428.869 -2.95588 -2.52111 0
M  V30 4689 H 430.541 -4.58751 -0.484314 0
M  V30 4690 H 428.784 -4.32076 -0.386362 0
M  V30 4691 H 429.455 -5.23946 -1.73737 0
M  V30 4692 H 431.931 -3.41963 -2.37067 0
M  V30 4693 H 430.807 -4.2432 -3.48201 0
M  V30 4694 H 431.068 -2.51309 -3.63725 0
M  V30 4695 N 430.127 0.543554 -1.4793 0
M  V30 4696 C 431.374 1.30008 -1.55255 0
M  V30 4697 C 431.702 1.93245 -0.220612 0
M  V30 4698 O 430.957 1.79141 0.787843 0
M  V30 4699 C 431.256 2.42078 -2.62932 0
M  V30 4700 C 430.922 1.96583 -4.0579 0
M  V30 4701 C 429.584 1.83893 -4.44676 0
M  V30 4702 C 431.936 1.62034 -4.95373 0
M  V30 4703 C 429.264 1.34969 -5.70964 0
M  V30 4704 C 431.616 1.14577 -6.22137 0
M  V30 4705 C 430.28 1.00493 -6.59892 0
M  V30 4706 H 429.55 0.475735 -0.568117 0
M  V30 4707 H 432.197 0.608075 -1.81589 0
M  V30 4708 H 430.502 3.16892 -2.30406 0
M  V30 4709 H 432.199 3.00236 -2.65818 0
M  V30 4710 H 428.789 2.07407 -3.75074 0
M  V30 4711 H 432.973 1.70705 -4.66019 0
M  V30 4712 H 428.229 1.2274 -5.98953 0
M  V30 4713 H 432.403 0.869109 -6.90955 0
M  V30 4714 H 430.03 0.623624 -7.57638 0
M  V30 4715 N 431.605 1.3629 0.791371 0
M  V30 4716 C 432.535 1.33137 1.91825 0
M  V30 4717 C 433.516 0.203168 1.68882 0
M  V30 4718 O 434.701 0.400509 1.90025 0
M  V30 4719 C 431.831 1.11793 3.28816 0
M  V30 4720 C 430.785 2.21417 3.66277 0
M  V30 4721 C 430.111 1.85218 5.01596 0
M  V30 4722 C 431.411 3.63489 3.75064 0
M  V30 4723 H 433.105 2.2743 1.9472 0
M  V30 4724 H 430.651 1.09479 0.935437 0
M  V30 4725 H 432.604 1.08222 4.07266 0
M  V30 4726 H 431.328 0.139501 3.26302 0
M  V30 4727 H 429.987 2.2411 2.90121 0
M  V30 4728 H 429.635 0.859544 4.95602 0
M  V30 4729 H 429.335 2.58611 5.27631 0
M  V30 4730 H 430.859 1.832 5.82469 0
M  V30 4731 H 432.273 3.63034 4.43711 0
M  V30 4732 H 430.67 4.35771 4.12582 0
M  V30 4733 H 431.74 3.98536 2.76219 0
M  V30 4734 N 433.083 -1.0153 1.20538 0
M  V30 4735 C 434.013 -2.11972 0.979295 0
M  V30 4736 C 434.994 -1.6985 -0.0921787 0
M  V30 4737 O 436.179 -1.94089 0.0655932 0
M  V30 4738 C 433.309 -3.43201 0.531984 0
M  V30 4739 C 432.263 -3.9907 1.54685 0
M  V30 4740 C 431.589 -5.26082 0.956127 0
M  V30 4741 C 432.889 -4.32313 2.93092 0
M  V30 4742 H 434.583 -2.31143 1.90298 0
M  V30 4743 H 432.129 -1.11079 0.916372 0
M  V30 4744 H 434.082 -4.1985 0.361044 0
M  V30 4745 H 432.806 -3.23792 -0.427327 0
M  V30 4746 H 431.465 -3.2453 1.70517 0
M  V30 4747 H 431.113 -5.02999 -0.0111538 0
M  V30 4748 H 430.813 -5.64426 1.63393 0
M  V30 4749 H 432.337 -6.05386 0.796284 0
M  V30 4750 H 433.751 -4.99845 2.80763 0
M  V30 4751 H 432.148 -4.81774 3.57791 0
M  V30 4752 H 433.218 -3.41025 3.44717 0
M  V30 4753 N 434.561 -1.01147 -1.20859 0
M  V30 4754 C 435.494 -0.522108 -2.22147 0
M  V30 4755 C 436.472 0.427686 -1.56874 0
M  V30 4756 O 437.656 0.34889 -1.85243 0
M  V30 4757 C 434.783 0.240819 -3.37843 0
M  V30 4758 C 433.829 -0.657752 -4.21398 0
M  V30 4759 S 434.662 -2.12393 -4.91578 0
M  V30 4760 C 435.818 -1.37102 -6.10699 0
M  V30 4761 H 436.051 -1.38035 -2.63313 0
M  V30 4762 H 433.584 -0.819941 -1.30829 0
M  V30 4763 H 435.542 0.674908 -4.04914 0
M  V30 4764 H 434.203 1.07457 -2.95147 0
M  V30 4765 H 433.396 -0.0697456 -5.03952 0
M  V30 4766 H 432.998 -1.0294 -3.59555 0
M  V30 4767 H 435.29 -0.648315 -6.74391 0
M  V30 4768 H 436.233 -2.17252 -6.73949 0
M  V30 4769 H 436.641 -0.876154 -5.57659 0
M  V30 4770 N 436.039 1.36541 -0.78704 0
M  V30 4771 C 436.972 2.27831 -0.129765 0
M  V30 4772 C 437.95 1.47105 0.692732 0
M  V30 4773 O 439.134 1.7641 0.664222 0
M  V30 4774 C 436.261 3.28577 0.821883 0
M  V30 4775 C 435.307 4.26422 0.0814771 0
M  V30 4776 S 436.14 5.20919 -1.24112 0
M  V30 4777 C 437.296 6.25212 -0.293409 0
M  V30 4778 H 437.529 2.83229 -0.903811 0
M  V30 4779 H 435.062 1.43046 -0.581144 0
M  V30 4780 H 437.02 3.87123 1.3655 0
M  V30 4781 H 435.681 2.72096 1.56916 0
M  V30 4782 H 434.874 4.97554 0.803485 0
M  V30 4783 H 434.476 3.71944 -0.391589 0
M  V30 4784 H 436.768 6.75435 0.528622 0
M  V30 4785 H 437.711 7.01378 -0.973344 0
M  V30 4786 H 438.119 5.64407 0.102196 0
M  V30 4787 N 437.518 0.538854 1.48102 0
M  V30 4788 C 438.743 0.0102694 2.07397 0
M  V30 4789 C 439.168 -1.26562 1.39153 0
M  V30 4790 O 438.526 -1.75357 0.460387 0
M  V30 4791 C 438.574 -0.187602 3.60112 0
M  V30 4792 O 437.678 -1.25432 3.92862 0
M  V30 4793 H 437.019 0.0430975 0.6626 0
M  V30 4794 H 439.549 0.749301 1.90385 0
M  V30 4795 H 439.559 -0.407517 4.0596 0
M  V30 4796 H 438.234 0.744386 4.09184 0
M  V30 4797 H 436.811 -1.01636 3.58782 0
M  V30 4798 N 438.996 -1.55193 0.274407 0
M  V30 4799 C 440.273 -1.91584 -0.394331 0
M  V30 4800 C 440.653 -1.19858 -1.73774 0
M  V30 4801 O 440.001 -0.3252 -2.26174 0
M  V30 4802 C 440.211 -3.4487 -0.535311 0
M  V30 4803 C 441.559 -4.16636 -0.818534 0
M  V30 4804 O 442.583 -3.5076 -0.620146 0
M  V30 4805 O 441.442 -5.33209 -1.19792 0
M  V30 4806 H 438.536 -0.798349 -0.215794 0
M  V30 4807 H 441.082 -1.66646 0.320507 0
M  V30 4808 H 439.854 -3.89145 0.410141 0
M  V30 4809 H 439.477 -3.75759 -1.29964 0
M  V30 4810 N 440.474 -0.00167713 -1.576 0
M  V30 4811 C 441.404 0.988091 -2.11563 0
M  V30 4812 C 442.385 1.35736 -1.02517 0
M  V30 4813 O 443.57 1.44082 -1.30208 0
M  V30 4814 C 440.7 2.27941 -2.62031 0
M  V30 4815 C 439.654 2.0517 -3.75619 0
M  V30 4816 C 438.98 3.4033 -4.12407 0
M  V30 4817 C 440.28 1.41294 -5.02825 0
M  V30 4818 H 441.974 0.538771 -2.94513 0
M  V30 4819 H 439.52 0.257712 -1.41675 0
M  V30 4820 H 441.473 2.97539 -2.9841 0
M  V30 4821 H 440.197 2.74989 -1.76205 0
M  V30 4822 H 438.856 1.37998 -3.39635 0
M  V30 4823 H 438.504 3.85085 -3.23603 0
M  V30 4824 H 438.204 3.25909 -4.88935 0
M  V30 4825 H 439.728 4.1124 -4.51347 0
M  V30 4826 H 441.142 2.00851 -5.36965 0
M  V30 4827 H 439.539 1.37356 -5.84169 0
M  V30 4828 H 440.609 0.382362 -4.8339 0
M  V30 4829 N 441.952 1.55251 0.271103 0
M  V30 4830 C 442.882 1.9127 1.33933 0
M  V30 4831 C 443.863 0.77478 1.5143 0
M  V30 4832 O 445.048 1.03307 1.64442 0
M  V30 4833 C 442.178 2.18627 2.69851 0
M  V30 4834 C 441.132 3.34442 2.67081 0
M  V30 4835 C 440.458 3.47284 4.06569 0
M  V30 4836 C 441.758 4.70784 2.26185 0
M  V30 4837 H 443.452 2.80744 1.04035 0
M  V30 4838 H 440.998 1.35077 0.499017 0
M  V30 4839 H 442.951 2.42413 3.44694 0
M  V30 4840 H 441.675 1.25955 3.01335 0
M  V30 4841 H 440.334 3.10627 1.94695 0
M  V30 4842 H 439.982 2.52074 4.35279 0
M  V30 4843 H 439.682 4.25152 4.0561 0
M  V30 4844 H 441.206 3.73363 4.83148 0
M  V30 4845 H 442.62 4.94102 2.90751 0
M  V30 4846 H 441.017 5.51582 2.36384 0
M  V30 4847 H 442.087 4.69478 1.21319 0
M  V30 4848 N 443.43 -0.535701 1.48216 0
M  V30 4849 C 444.841 -1.11769 1.49548 0
M  V30 4850 C 445.192 -1.94442 0.26207 0
M  V30 4851 O 444.317 -2.06987 -0.631287 0
M  V30 4852 C 444.912 -2.03367 2.70975 0
M  V30 4853 C 443.471 -2.56795 2.75196 0
M  V30 4854 C 442.618 -1.33631 2.42977 0
M  V30 4855 H 445.569 -0.321232 1.55415 0
M  V30 4856 H 445.59 -2.87569 2.49167 0
M  V30 4857 H 445.102 -1.43169 3.60727 0
M  V30 4858 H 443.203 -3.20731 1.89638 0
M  V30 4859 H 443.316 -2.9632 3.76472 0
M  V30 4860 H 441.68 -1.6502 1.94012 0
M  V30 4861 H 442.463 -0.75194 3.34964 0
M  V30 4862 N 444.908 -1.36708 -0.784132 0
M  V30 4863 C 446.136 -1.34398 -1.57305 0
M  V30 4864 C 446.551 0.0735577 -1.88657 0
M  V30 4865 O 445.908 1.03193 -1.50524 0
M  V30 4866 C 445.959 -2.17053 -2.89085 0
M  V30 4867 O 445.68 -3.53281 -2.59083 0
M  V30 4868 C 447.181 -2.22583 -3.83369 0
M  V30 4869 H 444.401 -0.460819 -0.487736 0
M  V30 4870 H 446.945 -1.79879 -0.972819 0
M  V30 4871 H 445.1 -1.75113 -3.45564 0
M  V30 4872 H 445.514 -3.9647 -3.43383 0
M  V30 4873 H 446.988 -2.84763 -4.72878 0
M  V30 4874 H 447.465 -1.23075 -4.21603 0
M  V30 4875 H 448.071 -2.64781 -3.32823 0
M  V30 4876 N 446.386 1.0089 -1.21074 0
M  V30 4877 C 447.611 1.78727 -1.05221 0
M  V30 4878 C 448.036 1.83932 0.393795 0
M  V30 4879 O 447.394 1.28004 1.28393 0
M  V30 4880 C 447.442 3.20665 -1.64944 0
M  V30 4881 O 446.546 4.02632 -0.892273 0
M  V30 4882 H 445.887 0.550973 -0.370574 0
M  V30 4883 H 448.417 1.26847 -1.60534 0
M  V30 4884 H 448.427 3.71352 -1.69002 0
M  V30 4885 H 447.102 3.16191 -2.70177 0
M  V30 4886 H 445.679 3.61207 -0.926492 0
M  V30 4887 N 447.864 1.01787 1.20321 0
M  V30 4888 C 449.112 0.706538 1.89347 0
M  V30 4889 C 449.433 -0.766289 1.79313 0
M  V30 4890 O 448.703 -1.55126 1.19635 0
M  V30 4891 H 447.283 0.258348 0.700903 0
M  V30 4892 H 449.945 1.28974 1.46122 0
M  V30 4893 H 449.041 0.991066 2.95946 0
M  V30 4894 N 449.342 -1.36122 0.79427 0
M  V30 4895 C 450.57 -2.03362 0.380989 0
M  V30 4896 C 450.985 -1.59881 -1.00416 0
M  V30 4897 O 450.342 -0.790515 -1.6449 0
M  V30 4898 C 450.393 -3.58804 0.440649 0
M  V30 4899 O 450.114 -4.007 1.77118 0
M  V30 4900 C 451.615 -4.43296 0.0186117 0
M  V30 4901 H 448.835 -0.652526 0.156367 0
M  V30 4902 H 451.379 -1.73998 1.07447 0
M  V30 4903 H 449.534 -3.8686 -0.204458 0
M  V30 4904 H 449.948 -4.95309 1.72538 0
M  V30 4905 H 451.422 -5.51887 0.111488 0
M  V30 4906 H 451.899 -4.2684 -1.03461 0
M  V30 4907 H 452.505 -4.20512 0.636395 0
M  V30 4908 N 450.82 -0.546701 -1.47814 0
M  V30 4909 C 452.231 -0.110564 -1.86372 0
M  V30 4910 C 452.582 1.31678 -1.45449 0
M  V30 4911 O 451.707 1.98889 -0.852758 0
M  V30 4912 C 452.302 -0.193873 -3.38245 0
M  V30 4913 C 450.861 0.187164 -3.75934 0
M  V30 4914 C 450.008 -0.546166 -2.71868 0
M  V30 4915 H 452.959 -0.757022 -1.39481 0
M  V30 4916 H 452.98 0.590218 -3.75895 0
M  V30 4917 H 452.492 -1.23282 -3.67999 0
M  V30 4918 H 450.593 1.22762 -3.51796 0
M  V30 4919 H 450.706 -0.164083 -4.78819 0
M  V30 4920 H 449.07 0.00953904 -2.54698 0
M  V30 4921 H 449.853 -1.58606 -3.04465 0
M  V30 4922 N 452.299 1.55045 -0.282633 0
M  V30 4923 C 453.229 2.2579 0.595066 0
M  V30 4924 C 454.21 1.25074 1.15284 0
M  V30 4925 O 455.395 1.5381 1.18559 0
M  V30 4926 C 452.525 2.98472 1.77572 0
M  V30 4927 C 451.479 4.0618 1.34914 0
M  V30 4928 C 450.805 4.66477 2.6135 0
M  V30 4929 C 452.105 5.1996 0.493821 0
M  V30 4930 H 453.799 2.994 0.00505653 0
M  V30 4931 H 451.345 1.44 0.000992001 0
M  V30 4932 H 453.298 3.46677 2.39568 0
M  V30 4933 H 452.022 2.2241 2.39168 0
M  V30 4934 H 450.681 3.58797 0.752338 0
M  V30 4935 H 450.329 3.87074 3.2122 0
M  V30 4936 H 450.029 5.39207 2.33516 0
M  V30 4937 H 451.553 5.17435 3.24181 0
M  V30 4938 H 452.967 5.64172 1.01898 0
M  V30 4939 H 451.364 5.99299 0.310047 0
M  V30 4940 H 452.434 4.82462 -0.485593 0
M  V30 4941 N 453.777 0.010035 1.57597 0
M  V30 4942 C 455.026 -0.671945 1.90178 0
M  V30 4943 C 455.339 -1.74376 0.886131 0
M  V30 4944 O 456.545 -2.48107 1.10252 0
M  V30 4945 C 455.001 -1.24636 3.3763 0
M  V30 4946 C 454.609 -0.208838 4.47513 0
M  V30 4947 C 456.353 -1.90595 3.79307 0
M  V30 4948 C 454.26 -0.793814 5.86048 0
M  V30 4949 H 453.19 -0.25474 0.709665 0
M  V30 4950 H 455.841 0.0722206 1.83358 0
M  V30 4951 H 454.223 -2.04152 3.3932 0
M  V30 4952 H 455.397 0.562463 4.57354 0
M  V30 4953 H 453.712 0.350889 4.14919 0
M  V30 4954 H 456.309 -2.35284 4.80151 0
M  V30 4955 H 456.652 -2.74074 3.13352 0
M  V30 4956 H 457.185 -1.17798 3.79958 0
M  V30 4957 H 453.924 0.00240855 6.555 0
M  V30 4958 H 453.444 -1.53404 5.79851 0
M  V30 4959 H 455.123 -1.2894 6.34022 0
M  V30 4960 N 455.255 -1.55392 -0.262866 0
M  V30 4961 C 456.503 -1.76127 -0.991147 0
M  V30 4962 C 456.824 -0.571083 -1.8645 0
M  V30 4963 O 456.094 0.413698 -1.91482 0
M  V30 4964 H 454.674 -0.649528 -0.368948 0
M  V30 4965 H 457.336 -1.9281 -0.284655 0
M  V30 4966 H 456.432 -2.6663 -1.62219 0
M  V30 4967 N 456.733 0.527833 -1.48498 0
M  V30 4968 C 457.979 1.28545 -1.56857 0
M  V30 4969 C 458.312 1.92678 -0.242651 0
M  V30 4970 O 457.587 1.79394 0.751545 0
M  V30 4971 C 457.87 2.37314 -2.70839 0
M  V30 4972 C 457.723 1.77858 -4.13142 0
M  V30 4973 C 459.042 3.39068 -2.80573 0
M  V30 4974 H 456.161 0.466006 -0.570971 0
M  V30 4975 H 458.803 0.587784 -1.8068 0
M  V30 4976 H 456.953 2.96821 -2.50658 0
M  V30 4977 H 458.625 1.22385 -4.44769 0
M  V30 4978 H 456.868 1.08383 -4.20042 0
M  V30 4979 H 457.539 2.56624 -4.88721 0
M  V30 4980 H 460.015 2.89518 -2.98862 0
M  V30 4981 H 458.891 4.12566 -3.6205 0
M  V30 4982 H 459.152 3.9975 -1.88818 0
M  V30 4983 N 458.211 1.37122 0.776871 0
M  V30 4984 C 459.441 1.35034 1.56363 0
M  V30 4985 C 459.849 -0.0674681 1.8908 0
M  V30 4986 O 459.192 -1.03826 1.51545 0
M  V30 4987 C 459.254 2.11894 2.90415 0
M  V30 4988 C 458.918 3.60897 2.80362 0
M  V30 4989 C 459.915 4.54887 2.51742 0
M  V30 4990 C 457.6 4.03951 2.98545 0
M  V30 4991 C 459.594 5.89909 2.41426 0
M  V30 4992 C 457.281 5.3906 2.87849 0
M  V30 4993 C 458.279 6.31852 2.5933 0
M  V30 4994 O 457.967 7.64479 2.48651 0
M  V30 4995 H 457.699 0.464402 0.49123 0
M  V30 4996 H 460.253 1.80992 0.971127 0
M  V30 4997 H 458.483 1.60618 3.51765 0
M  V30 4998 H 460.172 2.02505 3.51776 0
M  V30 4999 H 460.938 4.22934 2.37385 0
M  V30 5000 H 456.817 3.3209 3.19746 0
M  V30 5001 H 460.361 6.62304 2.19086 0
M  V30 5002 H 456.258 5.70617 3.01773 0
M  V30 5003 H 457.026 7.74742 2.64039 0
M  V30 5004 N 459.689 -1.00246 1.21608 0
M  V30 5005 C 460.936 -1.74061 1.03485 0
M  V30 5006 C 461.264 -1.89658 -0.431308 0
M  V30 5007 O 460.519 -1.42976 -1.33627 0
M  V30 5008 C 460.818 -3.15448 1.68009 0
M  V30 5009 C 460.484 -3.19792 3.17874 0
M  V30 5010 C 459.146 -3.20685 3.58768 0
M  V30 5011 C 461.498 -3.16835 4.13842 0
M  V30 5012 C 458.826 -3.16309 4.94131 0
M  V30 5013 C 461.178 -3.14001 5.49169 0
M  V30 5014 C 459.842 -3.13204 5.89457 0
M  V30 5015 H 459.112 -0.636934 0.378677 0
M  V30 5016 H 461.759 -1.17473 1.51236 0
M  V30 5017 H 460.064 -3.75284 1.12557 0
M  V30 5018 H 461.761 -3.71285 1.51487 0
M  V30 5019 H 458.351 -3.19842 2.85305 0
M  V30 5020 H 462.535 -3.15303 3.83272 0
M  V30 5021 H 457.791 -3.14032 5.24589 0
M  V30 5022 H 461.965 -3.10667 6.23265 0
M  V30 5023 H 459.592 -3.09568 6.94314 0
M  V30 5024 N 461.167 -1.02423 -1.1978 0
M  V30 5025 C 462.13 -0.605703 -2.21052 0
M  V30 5026 C 463.13 0.328209 -1.57415 0
M  V30 5027 O 464.32 0.115853 -1.73814 0
M  V30 5028 C 461.452 0.114366 -3.40708 0
M  V30 5029 H 462.645 -1.5017 -2.59594 0
M  V30 5030 H 460.198 -0.814888 -1.33376 0
M  V30 5031 H 460.933 1.02492 -3.07678 0
M  V30 5032 H 460.718 -0.556641 -3.88129 0
M  V30 5033 H 462.208 0.394272 -4.15735 0
M  V30 5034 N 462.645 1.35699 -0.801477 0
M  V30 5035 C 463.575 2.32436 -0.222658 0
M  V30 5036 C 464.556 1.5723 0.649057 0
M  V30 5037 O 465.741 1.85324 0.580387 0
M  V30 5038 C 462.871 3.41469 0.633719 0
M  V30 5039 C 461.825 4.27774 -0.139083 0
M  V30 5040 C 461.151 5.28082 0.838666 0
M  V30 5041 C 462.451 5.04946 -1.33517 0
M  V30 5042 H 464.145 2.81094 -1.03086 0
M  V30 5043 H 461.691 1.35146 -0.497155 0
M  V30 5044 H 463.644 4.08143 1.04868 0
M  V30 5045 H 462.368 2.91408 1.47475 0
M  V30 5046 H 461.027 3.62673 -0.535156 0
M  V30 5047 H 460.675 4.7429 1.67506 0
M  V30 5048 H 460.375 5.86695 0.32594 0
M  V30 5049 H 461.899 5.97628 1.25194 0
M  V30 5050 H 463.313 5.64593 -0.995349 0
M  V30 5051 H 461.71 5.7303 -1.78202 0
M  V30 5052 H 462.78 4.35886 -2.12442 0
M  V30 5053 N 464.123 0.554532 1.47522 0
M  V30 5054 C 465.363 0.0317994 2.04375 0
M  V30 5055 C 465.727 -1.29242 1.41988 0
M  V30 5056 O 466.928 -1.90269 1.89872 0
M  V30 5057 C 465.199 -0.0623344 3.57346 0
M  V30 5058 S 466.758 -0.531578 4.35568 0
M  V30 5059 H 463.576 0.0238553 0.7106 0
M  V30 5060 H 466.178 0.74066 1.80927 0
M  V30 5061 H 464.882 0.905857 4.00278 0
M  V30 5062 H 464.413 -0.794831 3.85287 0
M  V30 5063 H 466.428 -1.79175 4.62721 0
M  V30 5064 N 465.601 -1.54893 0.290851 0
M  V30 5065 C 466.531 -2.26103 -0.583084 0
M  V30 5066 C 467.512 -1.25684 -1.14619 0
M  V30 5067 O 468.697 -1.54436 -1.17741 0
M  V30 5068 C 465.827 -2.99409 -1.75987 0
M  V30 5069 C 464.781 -4.0689 -1.32758 0
M  V30 5070 C 464.107 -4.67856 -2.58872 0
M  V30 5071 C 465.407 -5.20215 -0.46624 0
M  V30 5072 H 467.101 -2.99398 0.0108214 0
M  V30 5073 H 464.647 -1.43998 0.00664468 0
M  V30 5074 H 466.6 -3.47943 -2.37727 0
M  V30 5075 H 465.324 -2.23675 -2.37985 0
M  V30 5076 H 463.983 -3.59191 -0.733299 0
M  V30 5077 H 463.631 -3.88772 -3.19163 0
M  V30 5078 H 463.331 -5.40438 -2.30653 0
M  V30 5079 H 464.855 -5.19147 -3.21433 0
M  V30 5080 H 466.269 -5.64704 -0.989047 0
M  V30 5081 H 464.666 -5.99455 -0.27826 0
M  V30 5082 H 465.736 -4.82198 0.511173 0
M  V30 5083 N 467.08 -0.0183926 -1.57589 0
M  V30 5084 C 468.305 0.676634 -1.96052 0
M  V30 5085 C 468.73 1.6548 -0.894307 0
M  V30 5086 O 468.088 1.80712 0.145849 0
M  V30 5087 C 468.136 1.36872 -3.33614 0
M  V30 5088 O 467.24 2.48372 -3.29219 0
M  V30 5089 H 466.581 0.1786 -0.63953 0
M  V30 5090 H 469.111 -0.077056 -2.04455 0
M  V30 5091 H 469.121 1.72797 -3.69601 0
M  V30 5092 H 467.796 0.651636 -4.10763 0
M  V30 5093 H 466.373 2.14639 -3.04934 0
M  V30 5094 N 468.558 1.5553 0.254621 0
M  V30 5095 C 469.488 1.9268 1.31897 0
M  V30 5096 C 470.469 0.790797 1.506 0
M  V30 5097 O 471.654 1.05045 1.63337 0
M  V30 5098 C 468.784 2.21477 2.67517 0
M  V30 5099 C 467.738 3.37256 2.63519 0
M  V30 5100 C 467.064 3.51576 4.02862 0
M  V30 5101 C 468.364 4.73157 2.21179 0
M  V30 5102 H 470.058 2.81832 1.01051 0
M  V30 5103 H 467.604 1.35599 0.484662 0
M  V30 5104 H 469.557 2.46055 3.42104 0
M  V30 5105 H 468.281 1.29144 2.99982 0
M  V30 5106 H 466.94 3.12675 1.9139 0
M  V30 5107 H 466.588 2.56676 4.32581 0
M  V30 5108 H 466.288 4.2943 4.01078 0
M  V30 5109 H 467.812 3.78467 4.79161 0
M  V30 5110 H 469.226 4.97158 2.85494 0
M  V30 5111 H 467.623 5.54058 2.30521 0
M  V30 5112 H 468.693 4.70739 1.16332 0
M  V30 5113 N 470.036 -0.519951 1.48776 0
M  V30 5114 C 470.969 -1.64053 1.58625 0
M  V30 5115 C 471.947 -1.5664 0.43618 0
M  V30 5116 O 473.131 -1.76969 0.649159 0
M  V30 5117 C 470.258 -3.02497 1.52359 0
M  V30 5118 C 469.304 -3.28235 2.72331 0
M  V30 5119 S 470.137 -3.13414 4.34203 0
M  V30 5120 C 471.293 -4.54287 4.30551 0
M  V30 5121 H 471.526 -1.5545 2.53422 0
M  V30 5122 H 469.059 -0.703681 1.37433 0
M  V30 5123 H 471.017 -3.82336 1.4943 0
M  V30 5124 H 469.678 -3.08531 0.588824 0
M  V30 5125 H 468.871 -4.29256 2.64113 0
M  V30 5126 H 468.473 -2.56085 2.72574 0
M  V30 5127 H 470.765 -5.46006 4.01103 0
M  V30 5128 H 471.708 -4.67558 5.31785 0
M  V30 5129 H 472.116 -4.34079 3.60881 0
M  V30 5130 N 471.514 -1.37532 -0.769588 0
M  V30 5131 C 472.76 -1.33057 -1.53048 0
M  V30 5132 C 473.093 0.0841865 -1.94017 0
M  V30 5133 O 472.368 1.04198 -1.64235 0
M  V30 5134 C 472.651 -2.27166 -2.79406 0
M  V30 5135 C 472.504 -3.77429 -2.44677 0
M  V30 5136 C 473.823 -2.19683 -3.81349 0
M  V30 5137 H 470.942 -0.484655 -0.555228 0
M  V30 5138 H 473.584 -1.68251 -0.882702 0
M  V30 5139 H 471.734 -1.97283 -3.34682 0
M  V30 5140 H 473.406 -4.17918 -1.953 0
M  V30 5141 H 471.649 -3.95892 -1.77346 0
M  V30 5142 H 472.32 -4.38716 -3.35011 0
M  V30 5143 H 474.796 -2.46029 -3.35573 0
M  V30 5144 H 473.672 -2.87668 -4.67481 0
M  V30 5145 H 473.933 -1.19045 -4.25771 0
M  V30 5146 N 472.992 0.995999 -1.22138 0
M  V30 5147 C 474.24 1.73167 -1.042 0
M  V30 5148 C 474.561 1.90329 0.42423 0
M  V30 5149 O 473.831 1.4607 1.30539 0
M  V30 5150 H 472.411 0.641593 -0.38258 0
M  V30 5151 H 475.073 1.19974 -1.53598 0
M  V30 5152 H 474.169 2.72734 -1.51731 0
M  V30 5153 N 474.47 1.03057 1.19235 0
M  V30 5154 C 475.695 0.74757 1.93458 0
M  V30 5155 C 476.12 -0.687648 1.7508 0
M  V30 5156 O 475.478 -1.47499 1.05422 0
M  V30 5157 C 475.526 1.10604 3.43219 0
M  V30 5158 O 474.63 0.225671 4.11782 0
M  V30 5159 H 473.971 0.276047 0.603899 0
M  V30 5160 H 476.501 1.3777 1.51263 0
M  V30 5161 H 476.511 1.06366 3.93891 0
M  V30 5162 H 475.186 2.15165 3.55917 0
M  V30 5163 H 473.763 0.326795 3.71465 0
M  V30 5164 N 475.948 -1.35272 0.808662 0
M  V30 5165 C 476.878 -2.32315 0.234981 0
M  V30 5166 C 477.859 -1.57572 -0.64071 0
M  V30 5167 O 479.044 -1.8563 -0.570551 0
M  V30 5168 C 476.174 -3.41801 -0.615601 0
M  V30 5169 C 475.128 -4.27694 0.161767 0
M  V30 5170 C 474.454 -5.28519 -0.810649 0
M  V30 5171 C 475.754 -5.04231 1.36193 0
M  V30 5172 H 477.448 -2.80543 1.04575 0
M  V30 5173 H 474.994 -1.3488 0.504315 0
M  V30 5174 H 476.947 -4.08693 -1.02702 0
M  V30 5175 H 475.671 -2.92186 -1.45928 0
M  V30 5176 H 474.33 -3.62384 0.554382 0
M  V30 5177 H 473.978 -4.75171 -1.64988 0
M  V30 5178 H 473.678 -5.8686 -0.294822 0
M  V30 5179 H 475.202 -5.98283 -1.22023 0
M  V30 5180 H 476.616 -5.64058 1.02528 0
M  V30 5181 H 475.013 -5.72077 1.81239 0
M  V30 5182 H 476.083 -4.34753 2.14751 0
M  V30 5183 N 477.426 -0.562348 -1.47226 0
M  V30 5184 C 478.356 0.170627 -2.32876 0
M  V30 5185 C 479.337 0.903748 -1.44106 0
M  V30 5186 O 480.522 0.883206 -1.72954 0
M  V30 5187 C 477.652 1.19786 -3.25989 0
M  V30 5188 C 476.606 0.580875 -4.2404 0
M  V30 5189 C 475.932 1.71311 -5.06514 0
M  V30 5190 C 477.232 -0.468714 -5.20193 0
M  V30 5191 H 478.926 -0.544441 -2.94408 0
M  V30 5192 H 476.472 -0.263271 -1.41573 0
M  V30 5193 H 478.425 1.71884 -3.84752 0
M  V30 5194 H 477.149 1.94294 -2.62521 0
M  V30 5195 H 475.808 0.0811538 -3.6651 0
M  V30 5196 H 475.456 2.44736 -4.39447 0
M  V30 5197 H 475.156 1.30604 -5.72902 0
M  V30 5198 H 476.68 2.23725 -5.68137 0
M  V30 5199 H 478.094 -0.0336028 -5.7329 0
M  V30 5200 H 476.491 -0.794957 -5.94811 0
M  V30 5201 H 477.561 -1.36269 -4.65359 0
M  V30 5202 N 478.904 1.54736 -0.299062 0
M  V30 5203 C 479.814 2.27127 0.587413 0
M  V30 5204 C 480.83 1.30575 1.15005 0
M  V30 5205 O 482.006 1.63554 1.17525 0
M  V30 5206 C 479.071 2.99645 1.74395 0
M  V30 5207 C 478.132 4.11731 1.21559 0
M  V30 5208 C 477.365 4.80781 2.317 0
M  V30 5209 O 477.588 4.4918 3.51558 0
M  V30 5210 O 476.522 5.68226 1.98501 0
M  V30 5211 H 480.348 3.037 0.000250109 0
M  V30 5212 H 477.933 1.49256 -0.0655919 0
M  V30 5213 H 479.815 3.45138 2.4178 0
M  V30 5214 H 478.49 2.25969 2.31775 0
M  V30 5215 H 477.397 3.70641 0.507514 0
M  V30 5216 H 478.73 4.87379 0.687233 0
M  V30 5217 N 480.382 0.0267497 1.57577 0
M  V30 5218 C 481.61 -0.662661 1.96001 0
M  V30 5219 C 482.025 -1.65799 0.903117 0
M  V30 5220 O 481.382 -1.82135 -0.115317 0
M  V30 5221 C 481.433 -1.37112 3.34488 0
M  V30 5222 O 481.154 -0.415683 4.36123 0
M  V30 5223 C 482.655 -2.15257 3.8753 0
M  V30 5224 H 479.875 -0.18287 0.6456 0
M  V30 5225 H 482.419 0.0858116 2.0432 0
M  V30 5226 H 480.574 -2.07101 3.27395 0
M  V30 5227 H 480.988 -0.918496 5.16395 0
M  V30 5228 H 482.462 -2.60285 4.86781 0
M  V30 5229 H 482.939 -2.99063 3.21649 0
M  V30 5230 H 483.545 -1.50231 3.97883 0
M  V30 5231 N 481.861 -1.55662 -0.24637 0
M  V30 5232 C 483.11 -1.7672 -0.972254 0
M  V30 5233 C 483.423 -0.59078 -1.86465 0
M  V30 5234 O 484.629 -0.684391 -2.62732 0
M  V30 5235 C 483.085 -3.12869 -1.7788 0
M  V30 5236 C 482.693 -4.38161 -0.933768 0
M  V30 5237 C 484.437 -3.43265 -2.49738 0
M  V30 5238 C 482.344 -5.6534 -1.73623 0
M  V30 5239 H 481.274 -0.658795 -0.366749 0
M  V30 5240 H 483.925 -1.82092 -0.226902 0
M  V30 5241 H 482.307 -3.01606 -2.56612 0
M  V30 5242 H 483.481 -4.60413 -0.188736 0
M  V30 5243 H 481.796 -4.15102 -0.328488 0
M  V30 5244 H 484.393 -4.35501 -3.10231 0
M  V30 5245 H 484.736 -2.64614 -3.2138 0
M  V30 5246 H 485.269 -3.55746 -1.78016 0
M  V30 5247 H 482.008 -6.46814 -1.06354 0
M  V30 5248 H 481.528 -5.47188 -2.45653 0
M  V30 5249 H 483.207 -6.04616 -2.30323 0
M  V30 5250 N 483.339 0.512053 -1.4905 0
M  V30 5251 C 484.586 1.26686 -1.57978 0
M  V30 5252 C 484.914 1.92733 -0.261553 0
M  V30 5253 O 484.169 1.80772 0.749667 0
M  V30 5254 C 484.468 2.36446 -2.68008 0
M  V30 5255 C 484.134 1.87932 -4.09869 0
M  V30 5256 C 482.796 1.74419 -4.48477 0
M  V30 5257 C 485.148 1.5149 -4.98698 0
M  V30 5258 C 482.476 1.22827 -5.73699 0
M  V30 5259 C 484.828 1.01355 -6.24428 0
M  V30 5260 C 483.492 0.864735 -6.61875 0
M  V30 5261 H 482.762 0.463577 -0.578081 0
M  V30 5262 H 485.409 0.569421 -1.82838 0
M  V30 5263 H 483.714 3.11933 -2.37076 0
M  V30 5264 H 485.411 2.9453 -2.72127 0
M  V30 5265 H 482.001 1.99405 -3.79389 0
M  V30 5266 H 486.185 1.60782 -4.69535 0
M  V30 5267 H 481.441 1.10008 -6.01422 0
M  V30 5268 H 485.615 0.722351 -6.92644 0
M  V30 5269 H 483.242 0.462777 -7.5879 0
M  V30 5270 N 484.817 1.37938 0.762283 0
M  V30 5271 C 486.066 1.32989 1.51647 0
M  V30 5272 C 486.379 -0.0802922 1.95435 0
M  V30 5273 O 487.585 -0.252295 2.70325 0
M  V30 5274 C 486.041 2.33485 2.73885 0
M  V30 5275 C 485.649 3.80079 2.37157 0
M  V30 5276 C 487.393 2.37563 3.51801 0
M  V30 5277 C 485.3 4.72283 3.55954 0
M  V30 5278 H 484.23 0.494301 0.56937 0
M  V30 5279 H 486.881 1.63448 0.834083 0
M  V30 5280 H 485.263 1.96056 3.44061 0
M  V30 5281 H 486.437 4.26398 1.74704 0
M  V30 5282 H 484.752 3.79037 1.72395 0
M  V30 5283 H 487.349 3.0365 4.40114 0
M  V30 5284 H 487.692 1.39199 3.92338 0
M  V30 5285 H 488.225 2.73747 2.8863 0
M  V30 5286 H 484.964 5.7181 3.2049 0
M  V30 5287 H 484.484 4.30663 4.1748 0
M  V30 5288 H 486.163 4.89876 4.22647 0
M  V30 5289 N 486.295 -0.989507 1.22664 0
M  V30 5290 C 487.523 -1.76496 1.07967 0
M  V30 5291 C 487.938 -1.85148 -0.369543 0
M  V30 5292 O 487.295 -1.32408 -1.25596 0
M  V30 5293 C 487.346 -3.19642 1.68853 0
M  V30 5294 O 487.067 -3.11453 3.08105 0
M  V30 5295 C 488.568 -4.13621 1.59475 0
M  V30 5296 H 485.788 -0.55418 0.378319 0
M  V30 5297 H 488.332 -1.24378 1.62328 0
M  V30 5298 H 486.487 -3.68816 1.18547 0
M  V30 5299 H 486.901 -4.01499 3.37489 0
M  V30 5300 H 488.375 -5.11801 2.06795 0
M  V30 5301 H 488.852 -4.35718 0.55191 0
M  V30 5302 H 489.458 -3.70346 2.09103 0
M  V30 5303 N 487.773 -1.03688 -1.18687 0
M  V30 5304 C 488.723 -0.595067 -2.20098 0
M  V30 5305 C 489.707 0.360465 -1.5681 0
M  V30 5306 O 490.899 0.180136 -1.76081 0
M  V30 5307 C 488.028 0.0444495 -3.43271 0
M  V30 5308 C 487.114 -0.934002 -4.13687 0
M  V30 5309 N 487.505 -2.09957 -4.60165 0
M  V30 5310 C 485.803 -0.759177 -4.39491 0
M  V30 5311 C 486.504 -2.71735 -5.1433 0
M  V30 5312 N 485.48 -1.99638 -5.05614 0
M  V30 5313 H 489.282 -1.48336 -2.5372 0
M  V30 5314 H 486.796 -0.904949 -1.3485 0
M  V30 5315 H 488.793 0.37864 -4.15177 0
M  V30 5316 H 487.453 0.928325 -3.11147 0
M  V30 5317 H 488.464 -2.47863 -4.54735 0
M  V30 5318 H 485.141 0.0749292 -4.17433 0
M  V30 5319 H 486.531 -3.70492 -5.60523 0
M  V30 5320 N 489.251 1.34841 -0.815825 0
M  V30 5321 C 490.181 2.32187 -0.247298 0
M  V30 5322 C 491.162 1.5791 0.632344 0
M  V30 5323 O 492.347 1.8593 0.560698 0
M  V30 5324 C 489.477 3.42122 0.597466 0
M  V30 5325 C 488.431 4.27602 -0.184446 0
M  V30 5326 C 487.757 5.28942 0.782609 0
M  V30 5327 C 489.057 5.03502 -1.38865 0
M  V30 5328 H 490.751 2.79985 -1.06061 0
M  V30 5329 H 488.297 1.34611 -0.511461 0
M  V30 5330 H 490.25 4.09232 1.00533 0
M  V30 5331 H 488.974 2.92956 1.44376 0
M  V30 5332 H 487.633 3.62085 -0.573592 0
M  V30 5333 H 487.281 4.7604 1.62466 0
M  V30 5334 H 486.981 5.87008 0.263695 0
M  V30 5335 H 488.505 5.98922 1.18848 0
M  V30 5336 H 489.919 5.63506 -1.05518 0
M  V30 5337 H 488.316 5.71108 -1.8427 0
M  V30 5338 H 489.386 4.33608 -2.17054 0
M  V30 5339 N 490.729 0.570148 1.46925 0
M  V30 5340 C 491.659 -0.158274 2.32963 0
M  V30 5341 C 492.64 -0.896093 1.44583 0
M  V30 5342 O 493.825 -0.874022 1.7342 0
M  V30 5343 C 490.955 -1.18055 3.26619 0
M  V30 5344 C 489.909 -0.558379 4.24342 0
M  V30 5345 C 489.235 -1.68623 5.07415 0
M  V30 5346 C 490.535 0.496295 5.19937 0
M  V30 5347 H 492.229 0.560046 2.94115 0
M  V30 5348 H 489.775 0.270775 1.41431 0
M  V30 5349 H 491.728 -1.69841 3.85658 0
M  V30 5350 H 490.452 -1.92899 2.63548 0
M  V30 5351 H 489.111 -0.0617157 3.66548 0
M  V30 5352 H 488.759 -2.42402 4.40738 0
M  V30 5353 H 488.459 -1.27564 5.73586 0
M  V30 5354 H 489.983 -2.20709 5.69315 0
M  V30 5355 H 491.397 0.0640052 5.73264 0
M  V30 5356 H 489.794 0.82649 5.94381 0
M  V30 5357 H 490.864 1.38735 4.6463 0
M  V30 5358 N 492.207 -1.54576 0.307264 0
M  V30 5359 C 493.157 -2.20467 -0.581249 0
M  V30 5360 C 494.141 -1.17972 -1.09414 0
M  V30 5361 O 495.333 -1.43667 -1.03387 0
M  V30 5362 C 492.462 -2.95369 -1.74963 0
M  V30 5363 C 491.548 -4.05186 -1.25241 0
M  V30 5364 N 491.939 -5.03577 -0.47364 0
M  V30 5365 C 490.237 -4.18841 -1.53259 0
M  V30 5366 C 490.938 -5.81328 -0.208083 0
M  V30 5367 N 489.914 -5.37834 -0.789651 0
M  V30 5368 H 493.716 -2.93892 0.0212221 0
M  V30 5369 H 491.23 -1.62011 0.112325 0
M  V30 5370 H 493.227 -3.41046 -2.39777 0
M  V30 5371 H 491.887 -2.23461 -2.35574 0
M  V30 5372 H 492.898 -5.17766 -0.117963 0
M  V30 5373 H 489.575 -3.58141 -2.14573 0
M  V30 5374 H 490.965 -6.706 0.417793 0
M  V30 5375 N 493.685 -0.035106 -1.57561 0
M  V30 5376 C 494.931 0.64318 -1.92331 0
M  V30 5377 C 495.264 1.71434 -0.912368 0
M  V30 5378 O 494.539 1.94395 0.0640303 0
M  V30 5379 C 494.822 1.25411 -3.37556 0
M  V30 5380 C 494.675 0.192109 -4.4939 0
M  V30 5381 C 495.994 2.17041 -3.82859 0
M  V30 5382 H 493.113 0.232341 -0.699419 0
M  V30 5383 H 495.755 -0.0935889 -1.89769 0
M  V30 5384 H 493.905 1.88205 -3.39869 0
M  V30 5385 H 495.577 -0.438849 -4.59208 0
M  V30 5386 H 493.82 -0.481725 -4.31117 0
M  V30 5387 H 494.491 0.659292 -5.48049 0
M  V30 5388 H 496.967 1.64228 -3.8232 0
M  V30 5389 H 495.843 2.56738 -4.85157 0
M  V30 5390 H 496.104 3.06401 -3.18702 0
M  V30 5391 N 495.163 1.55791 0.238111 0
M  V30 5392 C 496.126 1.90239 1.27835 0
M  V30 5393 C 497.126 0.779552 1.4064 0
M  V30 5394 O 498.316 1.04747 1.3919 0
M  V30 5395 C 495.448 2.13859 2.65475 0
M  V30 5396 H 496.641 2.83262 0.985034 0
M  V30 5397 H 494.194 1.48818 0.477799 0
M  V30 5398 H 494.929 1.23334 2.99932 0
M  V30 5399 H 494.714 2.95643 2.57561 0
M  V30 5400 H 496.204 2.41664 3.40571 0
M  V30 5401 N 496.642 -0.504142 1.49319 0
M  V30 5402 C 497.87 -1.28256 1.62351 0
M  V30 5403 C 498.285 -1.86502 0.293682 0
M  V30 5404 O 497.642 -1.67678 -0.720449 0
M  V30 5405 C 497.693 -2.41507 2.68992 0
M  V30 5406 O 497.414 -1.85656 3.96817 0
M  V30 5407 C 498.915 -3.32929 2.927 0
M  V30 5408 H 496.135 -0.389115 0.546654 0
M  V30 5409 H 498.679 -0.605531 1.95329 0
M  V30 5410 H 496.834 -3.05046 2.38801 0
M  V30 5411 H 497.248 -2.59981 4.55533 0
M  V30 5412 H 498.722 -4.0868 3.71058 0
M  V30 5413 H 499.199 -3.89733 2.02496 0
M  V30 5414 H 499.805 -2.75158 3.24296 0
M  V30 5415 N 498.12 -1.38341 -0.754957 0
M  V30 5416 C 499.348 -1.37704 -1.54419 0
M  V30 5417 C 499.763 0.0335243 -1.8877 0
M  V30 5418 O 499.12 0.999773 -1.52679 0
M  V30 5419 C 499.171 -2.23136 -2.84416 0
M  V30 5420 O 498.892 -3.58697 -2.51531 0
M  V30 5421 C 500.393 -2.30664 -3.78562 0
M  V30 5422 H 497.613 -0.471061 -0.477852 0
M  V30 5423 H 500.157 -1.81902 -0.934446 0
M  V30 5424 H 498.312 -1.82403 -3.41772 0
M  V30 5425 H 498.726 -4.03665 -3.34896 0
M  V30 5426 H 500.2 -2.9473 -4.66732 0
M  V30 5427 H 500.677 -1.3199 -4.18898 0
M  V30 5428 H 501.283 -2.71781 -3.27131 0
M  V30 5429 N 499.598 0.982988 -1.23187 0
M  V30 5430 C 500.53 2.07729 -0.968572 0
M  V30 5431 C 501.543 1.62702 0.0564821 0
M  V30 5432 O 502.732 1.77603 -0.178733 0
M  V30 5433 C 499.832 3.36071 -0.436974 0
M  V30 5434 C 499.005 4.10081 -1.52159 0
M  V30 5435 C 498.064 5.16701 -0.99532 0
M  V30 5436 O 497.09 5.43727 -1.68373 0
M  V30 5437 N 498.292 5.80226 0.178192 0
M  V30 5438 H 501.057 2.30894 -1.9107 0
M  V30 5439 H 498.618 1.14949 -1.1401 0
M  V30 5440 H 500.61 4.04639 -0.0700051 0
M  V30 5441 H 499.18 3.09893 0.410509 0
M  V30 5442 H 498.4 3.36004 -2.06144 0
M  V30 5443 H 499.688 4.56295 -2.25105 0
M  V30 5444 H 499.086 5.60651 0.754096 0
M  V30 5445 H 497.643 6.49982 0.486449 0
M  V30 5446 N 501.076 1.04316 1.18135 0
M  V30 5447 C 502.487 0.775505 1.69832 0
M  V30 5448 C 502.838 -0.703348 1.8316 0
M  V30 5449 O 501.963 -1.54729 1.51287 0
M  V30 5450 C 502.558 1.40112 3.0847 0
M  V30 5451 C 501.117 1.18172 3.57368 0
M  V30 5452 C 500.264 1.49022 2.33854 0
M  V30 5453 H 503.215 1.20925 1.02775 0
M  V30 5454 H 503.236 0.805672 3.71873 0
M  V30 5455 H 502.748 2.47744 2.98738 0
M  V30 5456 H 500.849 0.124258 3.72393 0
M  V30 5457 H 500.962 1.8805 4.40652 0
M  V30 5458 H 499.326 0.909995 2.37889 0
M  V30 5459 H 500.109 2.57768 2.26738 0
M  V30 5460 N 502.554 -1.34406 0.822964 0
M  V30 5461 C 503.965 -1.8069 0.469879 0
M  V30 5462 C 504.316 -1.68223 -1.00972 0
M  V30 5463 O 503.441 -1.22226 -1.78577 0
M  V30 5464 C 504.036 -3.28064 0.846118 0
M  V30 5465 C 502.595 -3.72428 0.545402 0
M  V30 5466 C 501.742 -2.56116 1.06301 0
M  V30 5467 H 504.693 -1.22153 1.01313 0
M  V30 5468 H 504.714 -3.80205 0.149922 0
M  V30 5469 H 504.226 -3.37107 1.92304 0
M  V30 5470 H 502.327 -3.68924 -0.522109 0
M  V30 5471 H 502.44 -4.66548 1.0895 0
M  V30 5472 H 500.804 -2.50048 0.484554 0
M  V30 5473 H 501.587 -2.67928 2.14638 0
M  V30 5474 N 504.032 -0.577932 -1.46621 0
M  V30 5475 C 505.443 -0.150071 -1.86096 0
M  V30 5476 C 505.794 1.28563 -1.48209 0
M  V30 5477 O 504.919 1.97036 -0.894754 0
M  V30 5478 C 505.514 -0.265576 -3.37758 0
M  V30 5479 C 504.073 0.10738 -3.76247 0
M  V30 5480 C 503.22 -0.603711 -2.70649 0
M  V30 5481 H 506.171 -0.786438 -1.37844 0
M  V30 5482 H 506.192 0.510352 -3.77062 0
M  V30 5483 H 505.704 -1.3106 -3.65301 0
M  V30 5484 H 503.805 1.15272 -3.54321 0
M  V30 5485 H 503.918 -0.26561 -4.78363 0
M  V30 5486 H 502.282 -0.0444884 -2.54661 0
M  V30 5487 H 503.065 -1.65029 -3.01032 0
M  V30 5488 N 505.51 1.54411 -0.315457 0
M  V30 5489 C 506.44 2.27002 0.547039 0
M  V30 5490 C 507.421 1.27492 1.12605 0
M  V30 5491 O 508.606 1.5629 1.15269 0
M  V30 5492 C 505.736 3.02171 1.71201 0
M  V30 5493 C 504.69 4.0895 1.26268 0
M  V30 5494 C 504.016 4.71915 2.51396 0
M  V30 5495 C 505.316 5.20891 0.383419 0
M  V30 5496 H 507.01 2.99343 -0.0584517 0
M  V30 5497 H 504.556 1.4397 -0.0295527 0
M  V30 5498 H 506.509 3.51681 2.32161 0
M  V30 5499 H 505.233 2.27433 2.34397 0
M  V30 5500 H 503.892 3.60312 0.676062 0
M  V30 5501 H 503.54 3.93801 3.12937 0
M  V30 5502 H 503.24 5.44039 2.22026 0
M  V30 5503 H 504.764 5.24195 3.13133 0
M  V30 5504 H 506.178 5.66206 0.899082 0
M  V30 5505 H 504.575 5.99821 0.182857 0
M  V30 5506 H 505.645 4.81324 -0.587821 0
M  V30 5507 N 506.988 0.0434614 1.5754 0
M  V30 5508 C 508.399 -0.493343 1.80064 0
M  V30 5509 C 508.75 -1.71388 0.955023 0
M  V30 5510 O 507.875 -2.15736 0.169434 0
M  V30 5511 C 508.47 -0.90179 3.26578 0
M  V30 5512 C 507.029 -1.38362 3.50047 0
M  V30 5513 C 506.176 -0.355129 2.75017 0
M  V30 5514 H 509.127 0.2694 1.56397 0
M  V30 5515 H 509.148 -1.76523 3.37075 0
M  V30 5516 H 508.66 -0.013271 3.88098 0
M  V30 5517 H 506.761 -2.29159 2.93798 0
M  V30 5518 H 506.874 -1.3811 4.58762 0
M  V30 5519 H 505.238 -0.826348 2.40922 0
M  V30 5520 H 506.021 0.525172 3.39259 0
M  V30 5521 N 508.466 -1.55915 -0.229846 0
M  V30 5522 C 509.882 -1.48721 -0.579166 0
M  V30 5523 C 510.082 -0.736976 -1.87539 0
M  V30 5524 O 509.138 -0.273258 -2.51017 0
M  V30 5525 C 510.451 -2.9323 -0.666082 0
M  V30 5526 C 511.999 -3.03701 -0.757267 0
M  V30 5527 C 512.474 -4.49552 -0.8756 0
M  V30 5528 N 513.965 -4.53561 -0.940035 0
M  V30 5529 C 514.7 -5.63683 -1.05116 0
M  V30 5530 N 514.196 -6.83576 -1.12675 0
M  V30 5531 N 515.989 -5.51516 -1.08565 0
M  V30 5532 H 508.14 -2.03123 0.620857 0
M  V30 5533 H 510.403 -0.922898 0.21671 0
M  V30 5534 H 510.109 -3.51032 0.21664 0
M  V30 5535 H 509.983 -3.44668 -1.53243 0
M  V30 5536 H 512.37 -2.45969 -1.63043 0
M  V30 5537 H 512.451 -2.55446 0.134583 0
M  V30 5538 H 512.095 -5.079 -0.00692351 0
M  V30 5539 H 512.025 -4.95506 -1.78274 0
M  V30 5540 H 514.516 -3.67215 -0.892269 0
M  V30 5541 H 514.829 -7.63251 -1.21109 0
M  V30 5542 H 513.174 -6.86303 -1.09603 0
M  V30 5543 H 516.365 -4.5678 -1.02319 0
M  V30 5544 H 516.538 -6.37372 -1.1688 0
M  V30 5545 N 509.944 0.496216 -1.49584 0
M  V30 5546 C 511.19 1.24918 -1.60521 0
M  V30 5547 C 511.545 1.90197 -0.290352 0
M  V30 5548 O 510.838 1.77967 0.709813 0
M  V30 5549 C 511.032 2.3359 -2.705 0
M  V30 5550 C 510.861 1.78969 -4.12553 0
M  V30 5551 C 509.631 1.60057 -4.79281 0
M  V30 5552 C 511.829 1.29883 -4.97629 0
M  V30 5553 N 509.811 1.00415 -6.05632 0
M  V30 5554 C 511.182 0.824057 -6.14499 0
M  V30 5555 C 513.237 1.18501 -4.83593 0
M  V30 5556 C 511.94 0.246721 -7.18877 0
M  V30 5557 C 513.966 0.621634 -5.88124 0
M  V30 5558 C 513.328 0.157116 -7.04225 0
M  V30 5559 H 509.427 0.446896 -0.641722 0
M  V30 5560 H 512.011 0.555456 -1.86609 0
M  V30 5561 H 510.182 3.00418 -2.46178 0
M  V30 5562 H 511.914 3.00628 -2.70933 0
M  V30 5563 H 508.669 1.84562 -4.36158 0
M  V30 5564 H 509.093 0.725074 -6.73106 0
M  V30 5565 H 513.735 1.53012 -3.94141 0
M  V30 5566 H 511.453 -0.110651 -8.08024 0
M  V30 5567 H 515.039 0.536279 -5.79323 0
M  V30 5568 H 513.919 -0.272009 -7.83728 0
M  V30 5569 N 511.423 1.38739 0.74761 0
M  V30 5570 C 512.353 1.39173 1.87492 0
M  V30 5571 C 513.334 0.256794 1.6815 0
M  V30 5572 O 514.519 0.460762 1.88655 0
M  V30 5573 C 511.649 1.22197 3.25093 0
M  V30 5574 C 510.603 2.32957 3.59047 0
M  V30 5575 C 509.929 2.01082 4.95449 0
M  V30 5576 C 511.229 3.75237 3.6331 0
M  V30 5577 H 512.923 2.3351 1.87386 0
M  V30 5578 H 510.469 1.12399 0.900134 0
M  V30 5579 H 512.422 1.21124 4.03617 0
M  V30 5580 H 511.146 0.243241 3.25693 0
M  V30 5581 H 509.805 2.33226 2.82845 0
M  V30 5582 H 509.453 1.01678 4.92616 0
M  V30 5583 H 509.153 2.75267 5.19136 0
M  V30 5584 H 510.677 2.01638 5.76346 0
M  V30 5585 H 512.091 3.76966 4.31937 0
M  V30 5586 H 510.488 4.48677 3.98509 0
M  V30 5587 H 511.558 4.07122 2.634 0
M  V30 5588 N 512.901 -0.976442 1.23707 0
M  V30 5589 C 513.851 -2.0544 0.988851 0
M  V30 5590 C 514.835 -1.60762 -0.0665901 0
M  V30 5591 O 516.027 -1.76396 0.14604 0
M  V30 5592 C 513.156 -3.38258 0.586223 0
M  V30 5593 C 512.242 -3.89523 1.67728 0
M  V30 5594 N 512.633 -4.13823 2.90834 0
M  V30 5595 C 510.931 -4.18097 1.55277 0
M  V30 5596 C 511.632 -4.55731 3.61502 0
M  V30 5597 N 510.608 -4.60394 2.8903 0
M  V30 5598 H 514.41 -2.22191 1.92376 0
M  V30 5599 H 511.924 -1.15954 1.13704 0
M  V30 5600 H 513.921 -4.15075 0.389658 0
M  V30 5601 H 512.581 -3.22898 -0.341594 0
M  V30 5602 H 513.592 -4.01529 3.271 0
M  V30 5603 H 510.269 -4.11719 0.692351 0
M  V30 5604 H 511.659 -4.83018 4.67059 0
M  V30 5605 N 514.379 -1.04941 -1.1758 0
M  V30 5606 C 515.604 -0.778253 -1.92245 0
M  V30 5607 C 516.029 0.659707 -1.76152 0
M  V30 5608 O 515.387 1.45803 -1.07755 0
M  V30 5609 C 515.435 -1.16051 -3.41416 0
M  V30 5610 O 514.539 -0.291153 -4.11371 0
M  V30 5611 H 513.88 -0.285619 -0.599431 0
M  V30 5612 H 516.41 -1.40159 -1.49052 0
M  V30 5613 H 516.42 -1.12619 -3.92149 0
M  V30 5614 H 515.095 -2.208 -3.52449 0
M  V30 5615 H 513.672 -0.385851 -3.70898 0
M  V30 5616 N 515.857 1.33968 -0.830081 0
M  V30 5617 C 516.787 2.31911 -0.271911 0
M  V30 5618 C 517.768 1.58571 0.61556 0
M  V30 5619 O 518.953 1.86514 0.540946 0
M  V30 5620 C 516.083 3.42737 0.561146 0
M  V30 5621 C 515.037 4.27383 -0.229789 0
M  V30 5622 C 514.363 5.29742 0.726463 0
M  V30 5623 C 515.663 5.02 -1.44197 0
M  V30 5624 H 517.357 2.78844 -1.09025 0
M  V30 5625 H 514.903 1.34061 -0.52571 0
M  V30 5626 H 516.856 4.10276 0.961867 0
M  V30 5627 H 515.58 2.94471 1.41261 0
M  V30 5628 H 514.239 3.61456 -0.611964 0
M  V30 5629 H 513.887 4.77736 1.57408 0
M  V30 5630 H 513.587 5.87255 0.20142 0
M  V30 5631 H 515.111 6.00149 1.12489 0
M  V30 5632 H 516.525 5.62355 -1.11488 0
M  V30 5633 H 514.922 5.69122 -1.90317 0
M  V30 5634 H 515.992 4.31281 -2.2164 0
M  V30 5635 N 517.335 0.585699 1.46312 0
M  V30 5636 C 518.265 -0.133556 2.33118 0
M  V30 5637 C 519.246 -0.880707 1.45525 0
M  V30 5638 O 520.431 -0.855579 1.74337 0
M  V30 5639 C 517.561 -1.14585 3.27853 0
M  V30 5640 C 516.515 -0.513341 4.2491 0
M  V30 5641 C 515.841 -1.63231 5.09175 0
M  V30 5642 C 517.141 0.551413 5.19381 0
M  V30 5643 H 518.835 0.59121 2.93505 0
M  V30 5644 H 516.381 0.285761 1.41136 0
M  V30 5645 H 518.334 -1.65741 3.87438 0
M  V30 5646 H 517.058 -1.90093 2.65579 0
M  V30 5647 H 515.717 -0.0228349 3.66593 0
M  V30 5648 H 515.365 -2.37713 4.43285 0
M  V30 5649 H 515.065 -1.21473 5.74907 0
M  V30 5650 H 516.589 -2.14658 5.71624 0
M  V30 5651 H 518.003 0.124804 5.73164 0
M  V30 5652 H 516.4 0.889486 5.93471 0
M  V30 5653 H 517.47 1.43655 4.63132 0
M  V30 5654 N 518.813 -1.54241 0.323641 0
M  V30 5655 C 519.743 -2.27289 -0.534993 0
M  V30 5656 C 520.724 -1.28087 -1.11927 0
M  V30 5657 O 521.909 -1.56899 -1.14439 0
M  V30 5658 C 519.039 -3.03075 -1.69596 0
M  V30 5659 C 517.993 -4.09614 -1.24098 0
M  V30 5660 C 517.319 -4.73242 -2.4889 0
M  V30 5661 C 518.619 -5.21087 -0.355789 0
M  V30 5662 H 520.313 -2.99308 0.0743257 0
M  V30 5663 H 517.859 -1.43952 0.0371874 0
M  V30 5664 H 519.812 -3.52907 -2.30293 0
M  V30 5665 H 518.536 -2.28673 -2.33187 0
M  V30 5666 H 517.195 -3.60666 -0.656945 0
M  V30 5667 H 516.843 -3.95455 -3.10845 0
M  V30 5668 H 516.543 -5.45209 -2.19138 0
M  V30 5669 H 518.067 -5.25848 -3.10348 0
M  V30 5670 H 519.481 -5.66675 -0.869042 0
M  V30 5671 H 517.878 -5.9991 -0.151045 0
M  V30 5672 H 518.948 -4.81005 0.613339 0
M  V30 5673 N 520.291 -0.0518155 -1.57515 0
M  V30 5674 C 521.241 0.932017 -2.0808 0
M  V30 5675 C 522.225 1.27141 -0.986098 0
M  V30 5676 O 523.417 1.25373 -1.24943 0
M  V30 5677 C 520.546 2.20665 -2.62986 0
M  V30 5678 C 519.632 1.89462 -3.79427 0
M  V30 5679 N 520.023 1.28621 -4.89173 0
M  V30 5680 C 518.321 2.19327 -3.88345 0
M  V30 5681 C 519.022 1.15062 -5.70207 0
M  V30 5682 N 517.998 1.65372 -5.17835 0
M  V30 5683 H 521.8 0.456964 -2.90326 0
M  V30 5684 H 519.314 0.152619 -1.61681 0
M  V30 5685 H 521.311 2.92044 -2.97516 0
M  V30 5686 H 519.971 2.68776 -1.8218 0
M  V30 5687 H 520.982 0.958341 -5.08956 0
M  V30 5688 H 517.659 2.69955 -3.18482 0
M  V30 5689 H 519.049 0.678243 -6.68468 0
M  V30 5690 N 521.769 1.56035 0.221574 0
M  V30 5691 C 523.009 1.80822 0.953038 0
M  V30 5692 C 523.373 0.625316 1.81532 0
M  V30 5693 O 524.574 0.752491 2.58052 0
M  V30 5694 C 522.845 3.10503 1.76983 0
M  V30 5695 S 524.404 3.56604 2.55693 0
M  V30 5696 H 521.222 0.634849 0.320137 0
M  V30 5697 H 523.824 1.94274 0.218619 0
M  V30 5698 H 522.528 3.94636 1.12651 0
M  V30 5699 H 522.059 2.99858 2.54655 0
M  V30 5700 H 524.074 3.1994 3.79279 0
M  V30 5701 N 523.247 -0.488276 1.49845 0
M  V30 5702 C 524.195 -1.60917 1.67954 0
M  V30 5703 C 525.189 -1.6038 0.54539 0
M  V30 5704 O 526.395 -1.64736 0.7254 0
M  V30 5705 H 522.77 -0.533658 0.529824 0
M  V30 5706 H 524.741 -1.428 2.62013 0
M  V30 5707 C 523.49 -2.98975 1.77509 0
M  V30 5708 H 522.813 -3.00099 2.6416 0
M  V30 5709 H 524.253 -3.76906 1.9421 0
M  V30 5710 C 522.712 -3.3282 0.522745 0
M  V30 5711 O 523.242 -4.00208 -0.345866 0
M  V30 5712 N 521.448 -2.8808 0.381882 0
M  V30 5713 H 520.995 -2.33415 1.08974 0
M  V30 5714 H 520.953 -3.11091 -0.454929 0
M  V30 5715 N 524.725 -1.39134 -0.740242 0
M  V30 5716 C 525.95 -1.39518 -1.53459 0
M  V30 5717 C 526.375 0.00968883 -1.88098 0
M  V30 5718 O 525.733 0.995312 -1.51536 0
M  V30 5719 C 525.781 -2.26981 -2.802 0
M  V30 5720 O 524.885 -1.69609 -3.75908 0
M  V30 5721 H 524.226 -0.475328 -0.463637 0
M  V30 5722 H 526.756 -1.83064 -0.913717 0
M  V30 5723 H 526.766 -2.41309 -3.28989 0
M  V30 5724 H 525.441 -3.29081 -2.5432 0
M  V30 5725 H 524.018 -1.64495 -3.34658 0
M  V30 5726 N 526.204 0.969867 -1.24223 0
M  V30 5727 C 527.615 1.52717 -1.07399 0
M  V30 5728 C 527.966 1.92956 0.355298 0
M  V30 5729 O 527.091 1.77112 1.2434 0
M  V30 5730 C 527.686 2.77521 -1.94339 0
M  V30 5731 C 526.245 3.29615 -1.81744 0
M  V30 5732 C 525.392 2.02537 -1.89405 0
M  V30 5733 H 528.343 0.788399 -1.37732 0
M  V30 5734 H 528.364 3.50773 -1.47439 0
M  V30 5735 H 527.876 2.48203 -2.98357 0
M  V30 5736 H 525.977 3.63789 -0.805505 0
M  V30 5737 H 526.09 3.98661 -2.65718 0
M  V30 5738 H 524.454 2.17151 -1.33108 0
M  V30 5739 H 525.237 1.75587 -2.94999 0
M  V30 5740 N 527.682 1.05563 1.17022 0
M  V30 5741 C 528.93 0.76642 1.87004 0
M  V30 5742 C 529.251 -0.708854 1.8166 0
M  V30 5743 O 528.521 -1.51242 1.2451 0
M  V30 5744 H 527.101 0.280516 0.692329 0
M  V30 5745 H 529.763 1.33557 1.41945 0
M  V30 5746 H 528.859 1.08472 2.92644 0
M  V30 5747 N 529.16 -1.33526 0.837174 0
M  V30 5748 C 530.576 -1.50727 0.524743 0
M  V30 5749 C 530.776 -1.77792 -0.948279 0
M  V30 5750 O 529.832 -1.83719 -1.73216 0
M  V30 5751 C 531.145 -2.66299 1.39661 0
M  V30 5752 C 532.693 -2.80183 1.39521 0
M  V30 5753 C 533.168 -3.98815 2.25189 0
M  V30 5754 N 534.659 -4.06047 2.2289 0
M  V30 5755 C 535.394 -4.97032 2.85915 0
M  V30 5756 N 534.89 -5.93143 3.57985 0
M  V30 5757 N 536.683 -4.90015 2.75394 0
M  V30 5758 H 528.834 -1.1422 1.79074 0
M  V30 5759 H 531.097 -0.561399 0.763894 0
M  V30 5760 H 530.803 -2.52974 2.4433 0
M  V30 5761 H 530.677 -3.61663 1.07145 0
M  V30 5762 H 533.064 -2.92942 0.356253 0
M  V30 5763 H 533.145 -1.85586 1.76044 0
M  V30 5764 H 532.789 -3.86817 3.29143 0
M  V30 5765 H 532.719 -4.92654 1.86009 0
M  V30 5766 H 535.21 -3.37262 1.70478 0
M  V30 5767 H 535.523 -6.59227 4.03286 0
M  V30 5768 H 533.868 -5.93223 3.62093 0
M  V30 5769 H 537.059 -4.13894 2.18654 0
M  V30 5770 H 537.232 -5.60724 3.24796 0
M  V30 5771 N 530.638 -0.59345 -1.46 0
M  V30 5772 C 531.878 -0.0859747 -2.04219 0
M  V30 5773 C 532.242 1.25432 -1.45364 0
M  V30 5774 O 533.443 1.85168 -1.9485 0
M  V30 5775 C 531.714 -0.0324314 -3.57385 0
M  V30 5776 S 533.273 0.415908 -4.36824 0
M  V30 5777 H 530.091 -0.0426872 -0.709717 0
M  V30 5778 H 532.693 -0.788369 -1.78899 0
M  V30 5779 H 531.397 -1.01166 -3.97735 0
M  V30 5780 H 530.928 0.6924 -3.87259 0
M  V30 5781 H 532.943 1.66844 -4.67309 0
M  V30 5782 N 532.116 1.54067 -0.331816 0
M  V30 5783 C 533.356 2.02625 0.26876 0
M  V30 5784 C 533.72 1.21462 1.48697 0
M  V30 5785 O 534.921 1.59863 2.16096 0
M  V30 5786 C 533.192 3.52554 0.586577 0
M  V30 5787 S 534.751 4.23035 1.16563 0
M  V30 5788 H 531.569 0.706395 0.0807862 0
M  V30 5789 H 534.171 1.89844 -0.466856 0
M  V30 5790 H 532.875 4.09242 -0.308046 0
M  V30 5791 H 532.406 3.69432 1.35217 0
M  V30 5792 H 534.421 4.31382 2.45203 0
M  V30 5793 N 533.594 0.0601682 1.57485 0
M  V30 5794 C 535.005 -0.474217 1.80577 0
M  V30 5795 C 535.356 -1.70365 0.973147 0
M  V30 5796 O 534.481 -2.15544 0.192306 0
M  V30 5797 C 535.076 -0.867102 3.27516 0
M  V30 5798 C 533.635 -1.34642 3.51495 0
M  V30 5799 C 532.782 -0.32594 2.75378 0
M  V30 5800 H 535.733 0.285973 1.56102 0
M  V30 5801 H 535.754 -1.72938 3.38929 0
M  V30 5802 H 535.266 0.0278927 3.8809 0
M  V30 5803 H 533.367 -2.2603 2.96212 0
M  V30 5804 H 533.48 -1.33237 4.60201 0
M  V30 5805 H 531.844 -0.800749 2.41785 0
M  V30 5806 H 532.627 0.561125 3.38683 0
M  V30 5807 N 535.072 -1.5615 -0.213296 0
M  V30 5808 C 536.3 -1.83638 -0.953139 0
M  V30 5809 C 536.715 -0.640362 -1.77609 0
M  V30 5810 O 536.072 0.391071 -1.78261 0
M  V30 5811 C 536.123 -3.09735 -1.86405 0
M  V30 5812 O 535.844 -4.24723 -1.07435 0
M  V30 5813 C 537.345 -3.5027 -2.71709 0
M  V30 5814 H 534.565 -0.610263 -0.278962 0
M  V30 5815 H 537.109 -2.03247 -0.226035 0
M  V30 5816 H 535.264 -2.92077 -2.545 0
M  V30 5817 H 535.678 -4.9641 -1.69343 0
M  V30 5818 H 537.152 -4.41515 -3.31313 0
M  V30 5819 H 537.629 -2.72406 -3.44516 0
M  V30 5820 H 538.235 -3.70396 -2.09015 0
M  V30 5821 N 536.55 0.480323 -1.50102 0
M  V30 5822 C 537.513 1.56181 -1.6775 0
M  V30 5823 C 538.513 1.51156 -0.548503 0
M  V30 5824 O 539.703 1.5394 -0.815363 0
M  V30 5825 C 536.835 2.95823 -1.69415 0
M  V30 5826 H 538.028 1.41855 -2.6423 0
M  V30 5827 H 535.581 0.70605 -1.39444 0
M  V30 5828 H 536.316 3.15604 -0.745948 0
M  V30 5829 H 536.101 3.00878 -2.51425 0
M  V30 5830 H 537.591 3.74359 -1.85054 0
M  V30 5831 N 538.028 1.39524 0.732853 0
M  V30 5832 C 539.439 1.32905 1.31122 0
M  V30 5833 C 539.79 -0.00558708 1.96199 0
M  V30 5834 O 538.915 -0.907706 1.96443 0
M  V30 5835 C 539.51 2.40704 2.38426 0
M  V30 5836 C 538.069 2.37599 2.91931 0
M  V30 5837 C 537.216 2.2248 1.65523 0
M  V30 5838 H 540.167 1.49581 0.530207 0
M  V30 5839 H 540.188 2.07616 3.18867 0
M  V30 5840 H 539.7 3.37829 1.91033 0
M  V30 5841 H 537.801 1.44119 3.43599 0
M  V30 5842 H 537.914 3.32538 3.44899 0
M  V30 5843 H 536.278 1.69691 1.8994 0
M  V30 5844 H 537.061 3.21577 1.20178 0
M  V30 5845 N 539.506 -0.963266 1.24736 0
M  V30 5846 C 540.438 -2.06162 1.0015 0
M  V30 5847 C 541.451 -1.62771 -0.0305905 0
M  V30 5848 O 542.64 -1.77296 0.206966 0
M  V30 5849 C 539.74 -3.35333 0.490385 0
M  V30 5850 C 538.913 -4.07609 1.58663 0
M  V30 5851 C 537.972 -5.15052 1.0774 0
M  V30 5852 O 536.998 -5.4098 1.77002 0
M  V30 5853 N 538.2 -5.80436 -0.0858605 0
M  V30 5854 H 540.965 -2.27825 1.94719 0
M  V30 5855 H 538.526 -1.13121 1.15825 0
M  V30 5856 H 540.518 -4.04477 0.134371 0
M  V30 5857 H 539.088 -3.10507 -0.361155 0
M  V30 5858 H 538.308 -3.32681 2.11463 0
M  V30 5859 H 539.596 -4.52656 2.32336 0
M  V30 5860 H 538.994 -5.6178 -0.664806 0
M  V30 5861 H 537.551 -6.50674 -0.382981 0
M  V30 5862 N 540.985 -1.06182 -1.16461 0
M  V30 5863 C 541.932 -0.671613 -2.20812 0
M  V30 5864 C 542.902 0.331186 -1.62765 0
M  V30 5865 O 544.087 0.22033 -1.89524 0
M  V30 5866 C 541.227 -0.063029 -3.45042 0
M  V30 5867 C 540.34 -1.11587 -4.1734 0
M  V30 5868 C 539.475 -0.473546 -5.29085 0
M  V30 5869 C 538.514 -1.51 -5.93182 0
M  V30 5870 N 537.651 -0.891118 -6.96422 0
M  V30 5871 H 542.491 -1.56589 -2.53542 0
M  V30 5872 H 540.028 -0.782951 -1.24532 0
M  V30 5873 H 541.986 0.307344 -4.16066 0
M  V30 5874 H 540.616 0.794663 -3.12866 0
M  V30 5875 H 539.668 -1.60396 -3.44931 0
M  V30 5876 H 540.98 -1.90221 -4.61104 0
M  V30 5877 H 540.134 -0.0501432 -6.06679 0
M  V30 5878 H 538.873 0.344687 -4.8648 0
M  V30 5879 H 537.878 -1.94331 -5.14311 0
M  V30 5880 H 539.103 -2.33031 -6.37866 0
M  V30 5881 H 537.049 -0.0935753 -6.55933 0
M  V30 5882 H 536.966 -1.61486 -7.38551 0
M  V30 5883 H 538.234 -0.492822 -7.77941 0
M  V30 5884 N 542.463 1.3308 -0.844243 0
M  V30 5885 C 543.373 2.32876 -0.283922 0
M  V30 5886 C 544.389 1.63589 0.592846 0
M  V30 5887 O 545.565 1.95205 0.495693 0
M  V30 5888 C 542.63 3.42667 0.527283 0
M  V30 5889 C 541.691 4.27664 -0.374394 0
M  V30 5890 C 540.924 5.32212 0.39819 0
M  V30 5891 O 541.147 5.46635 1.62932 0
M  V30 5892 O 540.081 6.01458 -0.2306 0
M  V30 5893 H 543.907 2.82671 -1.11045 0
M  V30 5894 H 541.492 1.36518 -0.606903 0
M  V30 5895 H 543.374 4.09652 0.988078 0
M  V30 5896 H 542.049 2.95079 1.33078 0
M  V30 5897 H 540.956 3.63526 -0.883144 0
M  V30 5898 H 542.289 4.78749 -1.1428 0
M  V30 5899 N 543.941 0.601185 1.45683 0
M  V30 5900 C 544.889 -0.133955 2.32214 0
M  V30 5901 C 545.883 -0.866034 1.45589 0
M  V30 5902 O 547.089 -0.782326 1.6211 0
M  V30 5903 H 543.464 -0.0620613 0.749435 0
M  V30 5904 H 545.435 0.614389 2.92007 0
M  V30 5905 C 544.184 -1.12216 3.29094 0
M  V30 5906 H 543.507 -0.568273 3.95741 0
M  V30 5907 H 544.947 -1.60659 3.92383 0
M  V30 5908 C 543.406 -2.19251 2.55794 0
M  V30 5909 O 543.936 -3.26894 2.33459 0
M  V30 5910 N 542.142 -1.9436 2.16039 0
M  V30 5911 H 541.689 -1.06829 2.34404 0
M  V30 5912 H 541.647 -2.66181 1.67318 0
M  V30 5913 N 545.419 -1.53889 0.339982 0
M  V30 5914 C 546.366 -2.24902 -0.518452 0
M  V30 5915 C 547.336 -1.24593 -1.09844 0
M  V30 5916 O 548.521 -1.53317 -1.13572 0
M  V30 5917 C 545.661 -3.02262 -1.66529 0
M  V30 5918 C 544.774 -4.17418 -1.11295 0
M  V30 5919 C 543.909 -4.82273 -2.2268 0
M  V30 5920 C 542.948 -5.89503 -1.6478 0
M  V30 5921 N 542.085 -6.48153 -2.69893 0
M  V30 5922 H 546.925 -2.97853 0.0936579 0
M  V30 5923 H 544.462 -1.46986 0.0579924 0
M  V30 5924 H 546.42 -3.45371 -2.3404 0
M  V30 5925 H 545.05 -2.31614 -2.24844 0
M  V30 5926 H 544.102 -3.78976 -0.328886 0
M  V30 5927 H 545.414 -4.94554 -0.649414 0
M  V30 5928 H 544.568 -5.28435 -2.98063 0
M  V30 5929 H 543.307 -4.04552 -2.72376 0
M  V30 5930 H 542.312 -5.42728 -0.879004 0
M  V30 5931 H 543.537 -6.6913 -1.1594 0
M  V30 5932 H 541.483 -5.73298 -3.1885 0
M  V30 5933 H 541.4 -7.20752 -2.28151 0
M  V30 5934 H 542.668 -6.98968 -3.45056 0
M  V30 5935 N 546.897 -0.0685191 -1.57451 0
M  V30 5936 C 548.145 0.60016 -1.92983 0
M  V30 5937 C 548.466 1.70348 -0.949028 0
M  V30 5938 O 547.736 1.959 0.00335647 0
M  V30 5939 H 546.316 0.224682 -0.712409 0
M  V30 5940 H 548.978 -0.125605 -1.94495 0
M  V30 5941 H 548.074 1.02759 -2.94698 0
M  V30 5942 N 548.375 1.56261 0.205012 0
M  V30 5943 C 549.786 1.70056 0.770574 0
M  V30 5944 C 550.137 0.673398 1.84282 0
M  V30 5945 O 549.262 -0.172196 2.15714 0
M  V30 5946 C 549.857 3.08316 1.40451 0
M  V30 5947 C 548.416 3.2391 1.91727 0
M  V30 5948 C 547.563 2.66001 0.783516 0
M  V30 5949 H 550.514 1.58688 -0.019911 0
M  V30 5950 H 550.535 3.05094 2.27371 0
M  V30 5951 H 550.047 3.83053 0.623882 0
M  V30 5952 H 548.148 2.54072 2.7254 0
M  V30 5953 H 548.261 4.3131 2.08588 0
M  V30 5954 H 546.625 2.24915 1.19521 0
M  V30 5955 H 547.408 3.43297 0.0152883 0
M  V30 5956 N 549.853 -0.472356 1.50355 0
M  V30 5957 C 551.101 -1.22211 1.60962 0
M  V30 5958 C 551.422 -1.92497 0.311439 0
M  V30 5959 O 550.692 -1.8405 -0.671002 0
M  V30 5960 H 549.272 -0.454092 0.593135 0
M  V30 5961 H 551.934 -0.544977 1.87126 0
M  V30 5962 H 551.03 -1.9707 2.42012 0
M  V30 5963 N 551.331 -1.39911 -0.725443 0
M  V30 5964 C 552.261 -1.42138 -1.85254 0
M  V30 5965 C 553.242 -0.283513 -1.67721 0
M  V30 5966 O 554.427 -0.490717 -1.87898 0
M  V30 5967 C 551.557 -1.27354 -3.23107 0
M  V30 5968 C 550.511 -2.3864 -3.55296 0
M  V30 5969 C 549.837 -2.08939 -4.92188 0
M  V30 5970 C 551.137 -3.8097 -3.57295 0
M  V30 5971 H 552.831 -2.36461 -1.83648 0
M  V30 5972 H 550.377 -1.13817 -0.882138 0
M  V30 5973 H 552.33 -1.2753 -4.01639 0
M  V30 5974 H 551.054 -0.295025 -3.25265 0
M  V30 5975 H 549.713 -2.37696 -2.79099 0
M  V30 5976 H 549.361 -1.09502 -4.90936 0
M  V30 5977 H 549.061 -2.83491 -5.14691 0
M  V30 5978 H 550.585 -2.10781 -5.73065 0
M  V30 5979 H 551.999 -3.8379 -4.25885 0
M  V30 5980 H 550.396 -4.5496 -3.9132 0
M  V30 5981 H 551.466 -4.11261 -2.5689 0
M  V30 5982 N 552.809 0.956637 -1.25245 0
M  V30 5983 C 554.037 1.73571 -1.12608 0
M  V30 5984 C 554.452 1.86063 0.320324 0
M  V30 5985 O 553.809 1.35691 1.22042 0
M  V30 5986 C 553.86 3.15053 -1.77268 0
M  V30 5987 O 553.581 3.03174 -3.16255 0
M  V30 5988 C 555.082 4.09248 -1.70386 0
M  V30 5989 H 552.302 0.543955 -0.392879 0
M  V30 5990 H 554.846 1.20031 -1.65568 0
M  V30 5991 H 553.001 3.65543 -1.28284 0
M  V30 5992 H 553.415 3.9241 -3.48015 0
M  V30 5993 H 554.889 5.06138 -2.20291 0
M  V30 5994 H 555.366 4.34102 -0.667239 0
M  V30 5995 H 555.972 3.64672 -2.18849 0
M  V30 5996 N 554.287 1.06798 1.15896 0
M  V30 5997 C 555.698 0.811355 1.68149 0
M  V30 5998 C 556.049 -0.664339 1.8461 0
M  V30 5999 O 555.174 -1.51485 1.54535 0
M  V30 6000 C 555.769 1.46624 3.05429 0
M  V30 6001 C 554.328 1.25726 3.54781 0
M  V30 6002 C 553.475 1.53949 2.3064 0
M  V30 6003 H 556.426 1.23078 1.00187 0
M  V30 6004 H 556.447 0.88437 3.7008 0
M  V30 6005 H 555.959 2.54025 2.93416 0
M  V30 6006 H 554.06 0.20322 3.72045 0
M  V30 6007 H 554.173 1.97354 4.36564 0
M  V30 6008 H 552.537 0.96025 2.35905 0
M  V30 6009 H 553.32 2.6252 2.2122 0
M  V30 6010 N 555.766 -1.3263 0.851289 0
M  V30 6011 C 556.994 -2.01563 0.466899 0
M  V30 6012 C 557.409 -1.63996 -0.935447 0
M  V30 6013 O 556.766 -0.85957 -1.6099 0
M  V30 6014 C 556.817 -3.56613 0.592433 0
M  V30 6015 O 556.538 -3.92828 1.93954 0
M  V30 6016 C 558.039 -4.42818 0.206612 0
M  V30 6017 H 555.259 -0.645307 0.183902 0
M  V30 6018 H 557.803 -1.69285 1.1473 0
M  V30 6019 H 555.958 -3.87379 -0.0401936 0
M  V30 6020 H 556.372 -4.87545 1.9339 0
M  V30 6021 H 557.846 -5.50918 0.345462 0
M  V30 6022 H 558.323 -4.30844 -0.85264 0
M  V30 6023 H 558.929 -4.17434 0.814176 0
M  V30 6024 N 557.244 -0.608902 -1.45362 0
M  V30 6025 C 558.194 0.130616 -2.27626 0
M  V30 6026 C 559.178 0.837323 -1.37396 0
M  V30 6027 O 560.37 0.727096 -1.61376 0
M  V30 6028 C 557.499 1.12646 -3.24293 0
M  V30 6029 C 556.585 0.42052 -4.2201 0
M  V30 6030 N 556.976 -0.538569 -5.02925 0
M  V30 6031 C 555.274 0.667901 -4.40971 0
M  V30 6032 C 555.975 -0.953625 -5.7383 0
M  V30 6033 N 554.951 -0.297097 -5.42788 0
M  V30 6034 H 558.753 -0.605996 -2.87585 0
M  V30 6035 H 556.267 -0.432672 -1.5653 0
M  V30 6036 H 558.264 1.67066 -3.81961 0
M  V30 6037 H 556.924 1.86361 -2.65894 0
M  V30 6038 H 557.935 -0.915375 -5.09746 0
M  V30 6039 H 554.612 1.38963 -3.93695 0
M  V30 6040 H 556.002 -1.74473 -6.48852 0
M  V30 6041 N 558.722 1.53707 -0.348139 0
M  V30 6042 C 559.652 2.28111 0.498766 0
M  V30 6043 C 560.633 1.29851 1.09876 0
M  V30 6044 O 561.818 1.587 1.11928 0
M  V30 6045 C 558.948 3.05735 1.64753 0
M  V30 6046 C 557.902 4.11537 1.17565 0
M  V30 6047 C 557.228 4.77142 2.4133 0
M  V30 6048 C 558.528 5.21587 0.272844 0
M  V30 6049 H 560.222 2.99152 -0.121934 0
M  V30 6050 H 557.768 1.43875 -0.0600842 0
M  V30 6051 H 559.721 3.56526 2.24649 0
M  V30 6052 H 558.445 2.32354 2.2952 0
M  V30 6053 H 557.104 3.61665 0.599483 0
M  V30 6054 H 556.752 4.0035 3.04514 0
M  V30 6055 H 556.452 5.48626 2.10436 0
M  V30 6056 H 557.976 5.30719 3.01943 0
M  V30 6057 H 559.39 5.67986 0.778779 0
M  V30 6058 H 557.787 6.00074 0.0555849 0
M  V30 6059 H 558.857 4.79969 -0.689785 0
M  V30 6060 N 560.2 0.0768682 1.57412 0
M  V30 6061 C 561.611 -0.455037 1.8107 0
M  V30 6062 C 561.962 -1.69323 0.991162 0
M  V30 6063 O 561.087 -2.15328 0.215156 0
M  V30 6064 C 561.682 -0.832316 3.28417 0
M  V30 6065 C 560.241 -1.30906 3.52903 0
M  V30 6066 C 559.388 -0.296714 2.75708 0
M  V30 6067 H 562.339 0.302514 1.5579 0
M  V30 6068 H 562.36 -1.69333 3.40744 0
M  V30 6069 H 561.872 0.0690532 3.88039 0
M  V30 6070 H 559.973 -2.22875 2.98592 0
M  V30 6071 H 560.086 -1.28348 4.61588 0
M  V30 6072 H 558.45 -0.775059 2.42621 0
M  V30 6073 H 559.233 0.597015 3.38069 0
M  V30 6074 N 561.678 -1.56367 -0.196722 0
M  V30 6075 C 562.926 -1.80172 -0.915554 0
M  V30 6076 C 563.247 -0.649649 -1.8386 0
M  V30 6077 O 562.517 0.332111 -1.93064 0
M  V30 6078 H 561.097 -0.664592 -0.341067 0
M  V30 6079 H 563.759 -1.93844 -0.202622 0
M  V30 6080 H 562.855 -2.7327 -1.50764 0
M  V30 6081 N 563.156 0.464375 -1.50603 0
M  V30 6082 C 564.402 1.21776 -1.62168 0
M  V30 6083 C 564.735 1.91476 -0.324154 0
M  V30 6084 O 564.01 1.8242 0.674782 0
M  V30 6085 C 564.293 2.25614 -2.80661 0
M  V30 6086 C 564.146 1.60175 -4.20314 0
M  V30 6087 C 565.465 3.26862 -2.94702 0
M  V30 6088 H 562.584 0.44137 -0.590222 0
M  V30 6089 H 565.226 0.510623 -1.8301 0
M  V30 6090 H 563.376 2.85923 -2.63021 0
M  V30 6091 H 565.048 1.03411 -4.4956 0
M  V30 6092 H 563.291 0.904697 -4.24261 0
M  V30 6093 H 563.962 2.35665 -4.99165 0
M  V30 6094 H 566.438 2.76582 -3.10872 0
M  V30 6095 H 565.314 3.96839 -3.79223 0
M  V30 6096 H 565.575 3.91382 -2.05603 0
M  V30 6097 N 564.634 1.40294 0.718013 0
M  V30 6098 C 565.581 1.40367 1.8321 0
M  V30 6099 C 566.551 0.260952 1.64037 0
M  V30 6100 O 567.736 0.458648 1.85205 0
M  V30 6101 C 564.876 1.26965 3.20895 0
M  V30 6102 C 563.989 2.50922 3.51656 0
M  V30 6103 C 563.124 2.29981 4.78834 0
M  V30 6104 C 562.163 3.49527 5.02491 0
M  V30 6105 N 561.3 3.27796 6.20882 0
M  V30 6106 H 566.14 2.35593 1.82482 0
M  V30 6107 H 563.677 1.17012 0.891444 0
M  V30 6108 H 565.635 1.17202 4.00399 0
M  V30 6109 H 564.265 0.353591 3.20858 0
M  V30 6110 H 563.317 2.71223 2.66725 0
M  V30 6111 H 564.629 3.39913 3.65048 0
M  V30 6112 H 563.783 2.17558 5.66351 0
M  V30 6113 H 562.522 1.38411 4.67647 0
M  V30 6114 H 561.527 3.6243 4.1343 0
M  V30 6115 H 562.752 4.42021 5.15553 0
M  V30 6116 H 560.698 2.38906 6.1095 0
M  V30 6117 H 560.615 4.10351 6.34939 0
M  V30 6118 H 561.883 3.19101 7.11193 0
M  V30 6119 N 566.112 -0.949982 1.2575 0
M  V30 6120 C 567.022 -2.08109 1.08295 0
M  V30 6121 C 568.038 -1.7399 0.0188181 0
M  V30 6122 O 569.214 -2.00187 0.220724 0
M  V30 6123 C 566.279 -3.39383 0.708534 0
M  V30 6124 C 565.34 -3.8734 1.85111 0
M  V30 6125 C 564.573 -5.12349 1.49447 0
M  V30 6126 O 564.796 -5.6905 0.392212 0
M  V30 6127 O 563.73 -5.5513 2.32624 0
M  V30 6128 H 567.556 -2.25738 2.03165 0
M  V30 6129 H 565.141 -1.06545 1.04731 0
M  V30 6130 H 567.023 -4.18277 0.512061 0
M  V30 6131 H 565.698 -3.23013 -0.210854 0
M  V30 6132 H 564.605 -3.09429 2.10248 0
M  V30 6133 H 565.938 -4.08216 2.74991 0
M  V30 6134 N 567.59 -1.07411 -1.15328 0
M  V30 6135 C 569.001 -0.820261 -1.67716 0
M  V30 6136 C 569.352 0.654539 -1.8496 0
M  V30 6137 O 568.477 1.50664 -1.55337 0
M  V30 6138 C 569.072 -1.48242 -3.04647 0
M  V30 6139 C 567.631 -1.27606 -3.5411 0
M  V30 6140 C 566.778 -1.5517 -2.29821 0
M  V30 6141 H 569.729 -1.23608 -0.995332 0
M  V30 6142 H 569.75 -0.903984 -3.69606 0
M  V30 6143 H 569.262 -2.55578 -2.92064 0
M  V30 6144 H 567.363 -0.222948 -3.71932 0
M  V30 6145 H 567.476 -1.99667 -4.35511 0
M  V30 6146 H 565.84 -0.972747 -2.35393 0
M  V30 6147 H 566.623 -2.63689 -2.19824 0
M  V30 6148 N 569.068 1.32177 -0.85831 0
M  V30 6149 C 569.978 2.32561 -0.308606 0
M  V30 6150 C 570.994 1.64209 0.575462 0
M  V30 6151 O 572.17 1.95719 0.474961 0
M  V30 6152 C 569.235 3.43207 0.490909 0
M  V30 6153 C 568.296 4.27243 -0.419733 0
M  V30 6154 C 567.529 5.32605 0.341719 0
M  V30 6155 O 567.752 5.48332 1.57125 0
M  V30 6156 O 566.686 6.0118 -0.294379 0
M  V30 6157 H 570.512 2.81477 -1.14037 0
M  V30 6158 H 568.097 1.35866 -0.621349 0
M  V30 6159 H 569.979 4.10677 0.944574 0
M  V30 6160 H 568.654 2.96474 1.29941 0
M  V30 6161 H 567.561 3.62569 -0.921652 0
M  V30 6162 H 568.894 4.7751 -1.19352 0
M  V30 6163 N 570.547 0.616602 1.45037 0
M  V30 6164 C 571.793 0.115501 2.02471 0
M  V30 6165 C 572.126 -1.25406 1.4828 0
M  V30 6166 O 571.401 -1.82922 0.661051 0
M  V30 6167 C 571.684 0.0863588 3.59996 0
M  V30 6168 C 571.537 1.48723 4.24501 0
M  V30 6169 C 572.856 -0.596762 4.36035 0
M  V30 6170 H 569.975 0.0434461 0.735718 0
M  V30 6171 H 572.617 0.7903 1.72784 0
M  V30 6172 H 570.767 -0.488277 3.85419 0
M  V30 6173 H 572.439 2.10964 4.10234 0
M  V30 6174 H 570.682 2.04534 3.82555 0
M  V30 6175 H 571.353 1.419 5.3345 0
M  V30 6176 H 573.829 -0.10824 4.15959 0
M  V30 6177 H 572.705 -0.586289 5.4576 0
M  V30 6178 H 572.966 -1.66451 4.09569 0
M  V30 6179 N 572.025 -1.5352 0.356285 0
M  V30 6180 C 573.25 -2.06007 -0.239961 0
M  V30 6181 C 573.675 -1.22872 -1.42422 0
M  V30 6182 O 573.033 -0.245516 -1.7963 0
M  V30 6183 C 573.081 -3.5522 -0.620587 0
M  V30 6184 O 572.185 -3.74864 -1.71902 0
M  V30 6185 H 571.526 -0.662961 -0.0371377 0
M  V30 6186 H 574.056 -1.98033 0.514194 0
M  V30 6187 H 574.066 -3.98081 -0.894197 0
M  V30 6188 H 572.741 -4.15175 0.245407 0
M  V30 6189 H 571.318 -3.43904 -1.44169 0
M  V30 6190 N 573.503 -0.0852151 -1.57369 0
M  V30 6191 C 574.466 0.8627 -2.12344 0
M  V30 6192 C 575.466 1.21746 -1.05046 0
M  V30 6193 O 576.656 1.14852 -1.30976 0
M  V30 6194 C 573.788 2.1618 -2.63589 0
M  V30 6195 H 574.981 0.385511 -2.97412 0
M  V30 6196 H 572.534 0.163663 -1.55441 0
M  V30 6197 H 573.269 2.68406 -1.82013 0
M  V30 6198 H 573.054 1.91723 -3.4203 0
M  V30 6199 H 574.544 2.84011 -3.06149 0
M  V30 6200 N 574.981 1.5647 0.188427 0
M  V30 6201 C 576.229 1.80655 0.905986 0
M  V30 6202 C 576.55 0.659391 1.83513 0
M  V30 6203 O 575.82 -0.321868 1.93238 0
M  V30 6204 H 574.4 0.666391 0.337538 0
M  V30 6205 H 577.062 1.93949 0.192339 0
M  V30 6206 H 576.158 2.74066 1.49313 0
M  V30 6207 N 576.459 -0.456382 1.50847 0
M  V30 6208 C 577.391 -1.57033 1.66953 0
M  V30 6209 C 578.404 -1.53207 0.550593 0
M  V30 6210 O 579.593 -1.58328 0.824285 0
M  V30 6211 C 576.693 -2.95937 1.65149 0
M  V30 6212 C 575.866 -3.24475 2.93317 0
M  V30 6213 C 574.925 -4.43007 2.83957 0
M  V30 6214 O 573.951 -4.42592 3.57912 0
M  V30 6215 N 575.153 -5.45503 1.9851 0
M  V30 6216 H 577.918 -1.43629 2.63042 0
M  V30 6217 H 575.479 -0.645037 1.48495 0
M  V30 6218 H 577.471 -3.73224 1.56481 0
M  V30 6219 H 576.041 -3.03036 0.767343 0
M  V30 6220 H 575.261 -2.35664 3.16 0
M  V30 6221 H 576.549 -3.4036 3.78196 0
M  V30 6222 H 575.947 -5.48668 1.37766 0
M  V30 6223 H 574.504 -6.21716 1.95735 0
M  V30 6224 N 577.937 -1.40673 -0.710563 0
M  V30 6225 C 578.87 -1.35742 -1.83438 0
M  V30 6226 C 579.848 -0.226997 -1.61008 0
M  V30 6227 O 581.032 -0.411477 -1.83954 0
M  V30 6228 C 578.159 -1.11374 -3.19865 0
M  V30 6229 C 577.205 -2.26935 -3.61113 0
M  V30 6230 S 578.038 -3.89352 -3.67648 0
M  V30 6231 C 579.194 -3.67258 -5.06826 0
M  V30 6232 H 579.427 -2.30848 -1.87341 0
M  V30 6233 H 576.96 -1.27018 -0.877831 0
M  V30 6234 H 578.918 -0.980004 -3.9863 0
M  V30 6235 H 577.579 -0.179135 -3.13589 0
M  V30 6236 H 576.772 -2.0554 -4.60184 0
M  V30 6237 H 576.374 -2.36638 -2.89618 0
M  V30 6238 H 578.666 -3.26036 -5.93891 0
M  V30 6239 H 579.609 -4.65878 -5.33257 0
M  V30 6240 H 580.017 -3.0084 -4.77656 0
M  V30 6241 N 579.415 0.9433 -1.26252 0
M  V30 6242 C 580.826 1.50404 -1.10614 0
M  V30 6243 C 581.177 1.93666 0.31429 0
M  V30 6244 O 580.302 1.79709 1.20555 0
M  V30 6245 C 580.897 2.73336 -2.00182 0
M  V30 6246 C 579.456 3.25686 -1.88695 0
M  V30 6247 C 578.603 1.98474 -1.93658 0
M  V30 6248 H 581.554 0.759006 -1.39373 0
M  V30 6249 H 581.575 3.47567 -1.54847 0
M  V30 6250 H 581.087 2.41818 -3.03555 0
M  V30 6251 H 579.188 3.61998 -0.882489 0
M  V30 6252 H 579.301 3.92935 -2.74115 0
M  V30 6253 H 577.665 2.14278 -1.37684 0
M  V30 6254 H 578.448 1.6929 -2.98657 0
M  V30 6255 N 580.893 1.08022 1.14757 0
M  V30 6256 C 582.141 0.805913 1.85336 0
M  V30 6257 C 582.462 -0.670162 1.83122 0
M  V30 6258 O 581.732 -1.48567 1.2769 0
M  V30 6259 H 580.312 0.295138 0.686223 0
M  V30 6260 H 582.974 1.36538 1.3908 0
M  V30 6261 H 582.07 1.14655 2.90277 0
M  V30 6262 N 582.371 -1.3172 0.865308 0
M  V30 6263 C 583.782 -1.79104 0.527126 0
M  V30 6264 C 584.133 -1.7135 -0.955695 0
M  V30 6265 O 583.258 -1.27845 -1.74598 0
M  V30 6266 C 583.853 -3.25207 0.950061 0
M  V30 6267 C 582.412 -3.70504 0.663611 0
M  V30 6268 C 581.559 -2.52605 1.14395 0
M  V30 6269 H 584.51 -1.18868 1.05148 0
M  V30 6270 H 584.531 -3.79535 0.270805 0
M  V30 6271 H 584.043 -3.30818 2.02931 0
M  V30 6272 H 582.144 -3.70398 -0.404474 0
M  V30 6273 H 582.257 -4.62845 1.23737 0
M  V30 6274 H 580.621 -2.4838 0.563859 0
M  V30 6275 H 581.404 -2.60964 2.23053 0
M  V30 6276 N 583.85 -0.624285 -1.44708 0
M  V30 6277 C 584.812 0.0749638 -2.29077 0
M  V30 6278 C 585.812 0.778965 -1.40673 0
M  V30 6279 O 587.003 0.624591 -1.62618 0
M  V30 6280 C 584.135 1.11663 -3.22094 0
M  V30 6281 H 585.327 -0.667013 -2.92388 0
M  V30 6282 H 582.88 -0.384098 -1.51507 0
M  V30 6283 H 583.615 1.88881 -2.63618 0
M  V30 6284 H 583.401 0.61583 -3.87234 0
M  V30 6285 H 584.891 1.60585 -3.8549 0
M  V30 6286 N 585.328 1.53329 -0.364422 0
M  V30 6287 C 586.238 2.29414 0.490552 0
M  V30 6288 C 587.254 1.35335 1.09363 0
M  V30 6289 O 588.43 1.68391 1.10483 0
M  V30 6290 C 585.495 3.06772 1.61529 0
M  V30 6291 C 584.556 4.16516 1.03986 0
M  V30 6292 C 583.789 4.90176 2.111 0
M  V30 6293 O 584.012 4.63687 3.32191 0
M  V30 6294 O 582.946 5.76134 1.74222 0
M  V30 6295 H 586.772 3.03428 -0.12856 0
M  V30 6296 H 584.357 1.48843 -0.128837 0
M  V30 6297 H 586.239 3.55082 2.26924 0
M  V30 6298 H 584.914 2.35596 2.21983 0
M  V30 6299 H 583.821 3.7246 0.349856 0
M  V30 6300 H 585.154 4.89855 0.4799 0
M  V30 6301 N 586.806 0.0935595 1.57322 0
M  V30 6302 C 587.769 -0.851426 2.12799 0
M  V30 6303 C 588.769 -1.21187 1.0569 0
M  V30 6304 O 589.959 -1.14156 1.31583 0
M  V30 6305 C 587.091 -2.14779 2.64731 0
M  V30 6306 H 588.284 -0.369733 2.97612 0
M  V30 6307 H 585.837 -0.155417 1.55525 0
M  V30 6308 H 586.572 -2.67437 1.83434 0
M  V30 6309 H 586.357 -1.89907 3.43042 0
M  V30 6310 H 587.847 -2.82383 3.07651 0
M  V30 6311 N 588.284 -1.56567 -0.180126 0
M  V30 6312 C 589.194 -1.98947 -1.24327 0
M  V30 6313 C 590.21 -0.899446 -1.4895 0
M  V30 6314 O 591.386 -1.20639 -1.61271 0
M  V30 6315 C 588.451 -2.33328 -2.56435 0
M  V30 6316 C 587.512 -3.56114 -2.39752 0
M  V30 6317 C 586.745 -3.88845 -3.65561 0
M  V30 6318 O 586.968 -3.22662 -4.70368 0
M  V30 6319 O 585.902 -4.82226 -3.60197 0
M  V30 6320 H 589.728 -2.89634 -0.913565 0
M  V30 6321 H 587.313 -1.44319 -0.386306 0
M  V30 6322 H 589.195 -2.5645 -3.34382 0
M  V30 6323 H 587.87 -1.45806 -2.89002 0
M  V30 6324 H 586.777 -3.38221 -1.59866 0
M  V30 6325 H 588.11 -4.4415 -2.12113 0
M  V30 6326 N 589.762 0.448376 -1.51087 0
M  V30 6327 C 590.692 1.55102 -1.74544 0
M  V30 6328 C 591.673 1.59357 -0.594932 0
M  V30 6329 O 592.858 1.75261 -0.836491 0
M  V30 6330 C 589.988 2.93268 -1.86041 0
M  V30 6331 C 588.942 3.03877 -3.01402 0
M  V30 6332 C 588.268 4.43914 -2.98068 0
M  V30 6333 C 589.568 2.7898 -4.41551 0
M  V30 6334 H 591.262 1.35724 -2.66869 0
M  V30 6335 H 588.808 0.651498 -1.28419 0
M  V30 6336 H 590.761 3.70356 -2.01034 0
M  V30 6337 H 589.485 3.13853 -0.903548 0
M  V30 6338 H 588.144 2.29227 -2.86096 0
M  V30 6339 H 587.792 4.6145 -2.00182 0
M  V30 6340 H 587.492 4.51944 -3.75527 0
M  V30 6341 H 589.016 5.22991 -3.1514 0
M  V30 6342 H 590.43 3.45805 -4.57265 0
M  V30 6343 H 588.827 2.98431 -5.20633 0
M  V30 6344 H 589.897 1.74663 -4.5235 0
M  V30 6345 N 591.24 1.41047 0.703093 0
M  V30 6346 C 592.468 1.4334 1.49202 0
M  V30 6347 C 592.883 0.0365596 1.88765 0
M  V30 6348 O 592.24 -0.942419 1.56284 0
M  V30 6349 C 592.291 2.33538 2.75939 0
M  V30 6350 O 592.012 3.67786 2.38045 0
M  V30 6351 C 593.513 2.44555 3.6974 0
M  V30 6352 H 590.733 0.488472 0.460039 0
M  V30 6353 H 593.277 1.85245 0.86629 0
M  V30 6354 H 591.432 1.94962 3.34766 0
M  V30 6355 H 591.846 4.15816 3.19683 0
M  V30 6356 H 593.32 3.11849 4.55471 0
M  V30 6357 H 593.797 1.47447 4.1371 0
M  V30 6358 H 594.403 2.83735 3.16819 0
M  V30 6359 N 592.718 -0.936591 1.26751 0
M  V30 6360 C 593.966 -1.67998 1.12343 0
M  V30 6361 C 594.287 -1.92137 -0.332938 0
M  V30 6362 O 593.557 -1.52132 -1.23421 0
M  V30 6363 H 592.137 -0.622609 0.412756 0
M  V30 6364 H 594.799 -1.12509 1.59147 0
M  V30 6365 H 593.895 -2.65185 1.64571 0
M  V30 6366 N 594.196 -1.08629 -1.14182 0
M  V30 6367 C 595.444 -0.815731 -1.84906 0
M  V30 6368 C 595.765 0.660441 -1.83475 0
M  V30 6369 O 595.035 1.47888 -1.28476 0
M  V30 6370 H 593.615 -0.298773 -0.684648 0
M  V30 6371 H 596.277 -1.37274 -1.38354 0
M  V30 6372 H 595.373 -1.16193 -2.89665 0
M  V30 6373 N 595.674 1.31259 -0.872281 0
M  V30 6374 C 596.899 2.0133 -0.498099 0
M  V30 6375 C 597.324 1.65031 0.902568 0
M  V30 6376 O 596.682 0.860164 1.59596 0
M  V30 6377 C 596.73 3.54411 -0.665205 0
M  V30 6378 O 595.834 4.11347 0.294473 0
M  V30 6379 H 595.175 0.633844 -0.197832 0
M  V30 6380 H 597.705 1.67402 -1.17633 0
M  V30 6381 H 597.715 4.04147 -0.559373 0
M  V30 6382 H 596.39 3.80171 -1.68651 0
M  V30 6383 H 594.967 3.72624 0.143403 0
M  V30 6384 N 597.152 0.631951 1.44375 0
M  V30 6385 C 598.062 -0.073674 2.34484 0
M  V30 6386 C 599.078 -0.834825 1.52665 0
M  V30 6387 O 600.254 -0.786902 1.85391 0
M  V30 6388 C 597.319 -1.04247 3.30656 0
M  V30 6389 C 596.38 -0.280602 4.28382 0
M  V30 6390 C 595.613 -1.20325 5.19959 0
M  V30 6391 O 595.836 -2.44199 5.15484 0
M  V30 6392 O 594.77 -0.687128 5.97965 0
M  V30 6393 H 598.596 0.667477 2.96274 0
M  V30 6394 H 596.181 0.392144 1.44162 0
M  V30 6395 H 598.063 -1.59981 3.89851 0
M  V30 6396 H 596.738 -1.76422 2.71398 0
M  V30 6397 H 595.645 0.319804 3.72731 0
M  V30 6398 H 596.978 0.401144 4.90563 0
M  V30 6399 N 598.631 -1.53133 0.372548 0
M  V30 6400 C 599.877 -2.02336 -0.207823 0
M  V30 6401 C 600.232 -1.25477 -1.45853 0
M  V30 6402 O 599.525 -0.341971 -1.88524 0
M  V30 6403 C 599.719 -3.53206 -0.545938 0
M  V30 6404 C 599.548 -4.44674 0.670454 0
M  V30 6405 C 598.318 -4.91217 1.18465 0
M  V30 6406 C 600.516 -4.90772 1.53777 0
M  V30 6407 N 598.498 -5.66711 2.36034 0
M  V30 6408 C 599.869 -5.64678 2.56004 0
M  V30 6409 C 601.924 -4.72836 1.55983 0
M  V30 6410 C 600.627 -6.22555 3.60303 0
M  V30 6411 C 602.653 -5.31583 2.59179 0
M  V30 6412 C 602.015 -6.05381 3.6013 0
M  V30 6413 H 598.114 -0.781048 -0.0385783 0
M  V30 6414 H 600.698 -1.87665 0.518664 0
M  V30 6415 H 598.869 -3.68024 -1.24149 0
M  V30 6416 H 600.601 -3.89123 -1.112 0
M  V30 6417 H 597.356 -4.67652 0.748205 0
M  V30 6418 H 597.78 -6.09117 2.95475 0
M  V30 6419 H 602.422 -4.15299 0.792877 0
M  V30 6420 H 600.14 -6.79183 4.37876 0
M  V30 6421 H 603.726 -5.19595 2.61749 0
M  V30 6422 H 602.606 -6.50028 4.38672 0
M  V30 6423 N 600.109 -0.101901 -1.5727 0
M  V30 6424 C 601.337 0.568392 -1.98939 0
M  V30 6425 C 601.752 1.61301 -0.981194 0
M  V30 6426 O 601.109 1.82478 0.0282869 0
M  V30 6427 C 601.16 1.20997 -3.40649 0
M  V30 6428 O 600.881 0.207129 -4.3761 0
M  V30 6429 C 602.382 1.96523 -3.97358 0
M  V30 6430 H 599.602 0.15186 -0.65359 0
M  V30 6431 H 602.146 -0.183198 -2.03678 0
M  V30 6432 H 600.301 1.91245 -3.36904 0
M  V30 6433 H 600.715 0.671071 -5.20189 0
M  V30 6434 H 602.189 2.36764 -4.98645 0
M  V30 6435 H 602.666 2.83376 -3.35552 0
M  V30 6436 H 603.272 1.31076 -4.04598 0
M  V30 6437 N 601.587 1.56661 0.17182 0
M  V30 6438 C 603.003 1.50768 0.52357 0
M  V30 6439 C 603.203 0.806072 1.84675 0
M  V30 6440 O 602.259 0.366233 2.4983 0
M  V30 6441 C 603.572 2.955 0.556793 0
M  V30 6442 C 605.12 3.06303 0.644029 0
M  V30 6443 C 605.595 4.52492 0.708148 0
M  V30 6444 N 607.086 4.56737 0.771051 0
M  V30 6445 C 607.821 5.67196 0.841229 0
M  V30 6446 N 607.317 6.87287 0.872272 0
M  V30 6447 N 609.11 5.55165 0.88021 0
M  V30 6448 H 601.261 2.00679 -0.695817 0
M  V30 6449 H 603.524 0.914219 -0.250814 0
M  V30 6450 H 603.23 3.49986 -0.346774 0
M  V30 6451 H 603.104 3.50119 1.40346 0
M  V30 6452 H 605.491 2.51851 1.53802 0
M  V30 6453 H 605.572 2.5477 -0.229297 0
M  V30 6454 H 605.216 5.07575 -0.181585 0
M  V30 6455 H 605.146 5.01781 1.59761 0
M  V30 6456 H 607.637 3.70274 0.755364 0
M  V30 6457 H 607.95 7.6722 0.92698 0
M  V30 6458 H 606.295 6.89898 0.840557 0
M  V30 6459 H 609.486 4.60263 0.852956 0
M  V30 6460 H 609.659 6.41271 0.931439 0
M  V30 6461 N 603.065 -0.440357 1.51323 0
M  V30 6462 C 604.028 -1.51679 1.71832 0
M  V30 6463 C 605.028 -1.49648 0.588386 0
M  V30 6464 O 606.218 -1.51724 0.855891 0
M  V30 6465 C 603.35 -2.91228 1.77199 0
M  V30 6466 H 604.543 -1.34799 2.67898 0
M  V30 6467 H 602.096 -0.66883 1.41267 0
M  V30 6468 H 602.831 -3.13516 0.829363 0
M  V30 6469 H 602.616 -2.94107 2.59314 0
M  V30 6470 H 604.106 -3.69321 1.94915 0
M  V30 6471 N 604.543 -1.41418 -0.695603 0
M  V30 6472 C 605.475 -1.39195 -1.82092 0
M  V30 6473 C 606.488 -0.294132 -1.60121 0
M  V30 6474 O 607.677 -0.555854 -1.69625 0
M  V30 6475 C 604.777 -1.14828 -3.18854 0
M  V30 6476 C 603.95 -2.36649 -3.67853 0
M  V30 6477 C 603.009 -2.08139 -4.83285 0
M  V30 6478 O 602.035 -2.81177 -4.94902 0
M  V30 6479 N 603.237 -1.07162 -5.70523 0
M  V30 6480 H 606.002 -2.36185 -1.84491 0
M  V30 6481 H 603.563 -1.3603 -0.877923 0
M  V30 6482 H 605.555 -0.937075 -3.93702 0
M  V30 6483 H 604.125 -0.264358 -3.1148 0
M  V30 6484 H 603.345 -2.73472 -2.83913 0
M  V30 6485 H 604.633 -3.17816 -3.97329 0
M  V30 6486 H 604.031 -0.467124 -5.63768 0
M  V30 6487 H 602.588 -0.920311 -6.4527 0
M  V30 6488 N 606.021 0.929856 -1.27246 0
M  V30 6489 C 607.437 1.20542 -1.04603 0
M  V30 6490 C 607.637 2.00276 0.221754 0
M  V30 6491 O 606.693 2.34835 0.927833 0
M  V30 6492 C 608.006 1.95566 -2.28417 0
M  V30 6493 C 609.554 2.08513 -2.33433 0
M  V30 6494 C 610.029 2.86943 -3.5697 0
M  V30 6495 N 611.52 2.94512 -3.57515 0
M  V30 6496 C 612.255 3.55656 -4.49774 0
M  V30 6497 N 611.751 4.18209 -5.52334 0
M  V30 6498 N 613.544 3.53038 -4.37402 0
M  V30 6499 H 605.695 0.397113 -2.08655 0
M  V30 6500 H 607.958 0.238277 -0.917566 0
M  V30 6501 H 607.664 1.44395 -3.20691 0
M  V30 6502 H 607.538 2.9619 -2.33563 0
M  V30 6503 H 609.925 2.58872 -1.41666 0
M  V30 6504 H 610.006 1.07117 -2.32292 0
M  V30 6505 H 609.65 2.37268 -4.49072 0
M  V30 6506 H 609.58 3.8862 -3.55362 0
M  V30 6507 H 612.071 2.50053 -2.83341 0
M  V30 6508 H 612.384 4.62796 -6.18902 0
M  V30 6509 H 610.729 4.16761 -5.56179 0
M  V30 6510 H 613.92 3.0337 -3.56489 0
M  V30 6511 H 614.093 4.004 -5.09493 0
M  V30 6512 N 607.499 1.09233 1.13605 0
M  V30 6513 C 608.409 0.741939 2.22559 0
M  V30 6514 C 609.425 -0.255236 1.72118 0
M  V30 6515 O 610.601 -0.0970747 2.01166 0
M  V30 6516 C 607.666 0.165595 3.46304 0
M  V30 6517 C 606.727 1.21846 4.11645 0
M  V30 6518 C 605.96 0.669526 5.29484 0
M  V30 6519 O 606.183 -0.508228 5.68131 0
M  V30 6520 O 605.117 1.42361 5.84822 0
M  V30 6521 H 608.943 1.65107 2.54899 0
M  V30 6522 H 606.528 0.866584 1.21699 0
M  V30 6523 H 608.41 -0.152592 4.21124 0
M  V30 6524 H 607.085 -0.716573 3.15669 0
M  V30 6525 H 605.992 1.58931 3.38662 0
M  V30 6526 H 607.325 2.07321 4.46407 0
M  V30 6527 N 608.977 -1.30795 0.87923 0
M  V30 6528 C 609.927 -2.25838 0.313276 0
M  V30 6529 C 610.911 -1.51025 -0.55499 0
M  V30 6530 O 612.103 -1.72413 -0.400353 0
M  V30 6531 C 609.232 -3.39981 -0.476204 0
M  V30 6532 C 608.318 -4.22154 0.405826 0
M  V30 6533 N 608.709 -4.82934 1.50362 0
M  V30 6534 C 607.007 -4.45552 0.199909 0
M  V30 6535 C 607.708 -5.44444 2.0483 0
M  V30 6536 N 606.684 -5.26723 1.34403 0
M  V30 6537 H 610.486 -2.70374 1.15218 0
M  V30 6538 H 608 -1.45168 0.728003 0
M  V30 6539 H 609.997 -4.07108 -0.898251 0
M  V30 6540 H 608.657 -2.96986 -1.31261 0
M  V30 6541 H 609.668 -4.82319 1.8865 0
M  V30 6542 H 606.345 -4.13169 -0.599795 0
M  V30 6543 H 607.735 -6.02701 2.96986 0
M  V30 6544 N 610.455 -0.639598 -1.44038 0
M  V30 6545 C 611.365 0.0612377 -2.3452 0
M  V30 6546 C 612.381 0.826717 -1.53106 0
M  V30 6547 O 613.557 0.777059 -1.85806 0
M  V30 6548 C 610.622 1.02492 -3.31204 0
M  V30 6549 C 609.683 0.25788 -4.28525 0
M  V30 6550 C 608.916 1.17566 -5.2059 0
M  V30 6551 O 609.139 2.41461 -5.16771 0
M  V30 6552 O 608.073 0.655407 -5.98321 0
M  V30 6553 H 611.899 -0.68318 -2.95916 0
M  V30 6554 H 609.484 -0.399784 -1.43952 0
M  V30 6555 H 611.366 1.57911 -3.90694 0
M  V30 6556 H 610.041 1.7498 -2.7233 0
M  V30 6557 H 608.948 -0.339566 -3.72556 0
M  V30 6558 H 610.281 -0.427154 -4.90343 0
M  V30 6559 N 611.933 1.52934 -0.380664 0
M  V30 6560 C 612.896 2.24809 0.446473 0
M  V30 6561 C 613.896 1.26133 0.997347 0
M  V30 6562 O 615.086 1.50297 0.880714 0
M  V30 6563 C 612.218 2.99649 1.62553 0
M  V30 6564 H 613.411 2.99343 -0.182677 0
M  V30 6565 H 610.964 1.55736 -0.132618 0
M  V30 6566 H 611.699 2.29395 2.29235 0
M  V30 6567 H 611.484 3.72066 1.23732 0
M  V30 6568 H 612.974 3.54246 2.21133 0
M  V30 6569 N 613.412 0.11024 1.57214 0
M  V30 6570 C 614.344 -0.873497 2.11902 0
M  V30 6571 C 615.357 -1.23588 1.05971 0
M  V30 6572 O 616.546 -1.18636 1.33371 0
M  V30 6573 C 613.646 -2.17805 2.59643 0
M  V30 6574 C 612.819 -1.98869 3.89576 0
M  V30 6575 C 611.878 -3.12974 4.23006 0
M  V30 6576 O 610.904 -2.86272 4.91973 0
M  V30 6577 N 612.106 -4.39167 3.79622 0
M  V30 6578 H 614.871 -0.406317 2.96933 0
M  V30 6579 H 612.432 -0.074437 1.61729 0
M  V30 6580 H 614.424 -2.93117 2.79042 0
M  V30 6581 H 612.994 -2.55899 1.7954 0
M  V30 6582 H 612.214 -1.078 3.79174 0
M  V30 6583 H 613.502 -1.83512 4.74553 0
M  V30 6584 H 612.9 -4.63739 3.2398 0
M  V30 6585 H 611.457 -5.11379 4.04147 0
M  V30 6586 N 614.89 -1.56749 -0.16351 0
M  V30 6587 C 615.837 -1.97011 -1.2023 0
M  V30 6588 C 616.807 -0.835186 -1.43575 0
M  V30 6589 O 617.992 -1.09594 -1.56185 0
M  V30 6590 C 615.132 -2.34186 -2.53478 0
M  V30 6591 C 614.245 -3.60893 -2.37446 0
M  V30 6592 C 613.38 -3.87245 -3.63614 0
M  V30 6593 C 612.419 -5.07274 -3.42548 0
M  V30 6594 N 611.556 -5.29719 -4.60806 0
M  V30 6595 H 616.396 -2.85562 -0.851958 0
M  V30 6596 H 613.933 -1.41292 -0.409257 0
M  V30 6597 H 615.891 -2.53764 -3.31149 0
M  V30 6598 H 614.521 -1.48736 -2.86492 0
M  V30 6599 H 613.573 -3.49185 -1.50911 0
M  V30 6600 H 614.885 -4.48722 -2.1783 0
M  V30 6601 H 614.039 -4.07232 -4.49719 0
M  V30 6602 H 612.778 -2.97806 -3.86216 0
M  V30 6603 H 611.783 -4.87177 -2.5483 0
M  V30 6604 H 613.008 -5.98251 -3.2136 0
M  V30 6605 H 610.954 -4.43233 -4.83612 0
M  V30 6606 H 610.871 -6.11786 -4.44132 0
M  V30 6607 H 612.139 -5.54192 -5.48171 0
M  V30 6608 N 616.368 0.432326 -1.51554 0
M  V30 6609 C 617.3 1.54357 -1.6943 0
M  V30 6610 C 618.313 1.52311 -0.574897 0
M  V30 6611 O 619.502 1.56997 -0.849369 0
M  V30 6612 C 616.602 2.93273 -1.69836 0
M  V30 6613 C 615.775 3.19768 -2.98442 0
M  V30 6614 C 614.834 4.38433 -2.90969 0
M  V30 6615 O 613.86 4.36842 -3.64908 0
M  V30 6616 N 615.062 5.42276 -2.07163 0
M  V30 6617 H 617.827 1.39426 -2.65293 0
M  V30 6618 H 615.388 0.621331 -1.49503 0
M  V30 6619 H 617.38 3.70687 -1.62399 0
M  V30 6620 H 615.95 3.01777 -0.815456 0
M  V30 6621 H 615.17 2.30607 -3.19709 0
M  V30 6622 H 616.458 3.343 -3.83563 0
M  V30 6623 H 615.856 5.46407 -1.46477 0
M  V30 6624 H 614.413 6.18524 -2.05601 0
M  V30 6625 N 617.846 1.41785 0.688094 0
M  V30 6626 C 618.796 1.40684 1.79421 0
M  V30 6627 C 619.78 0.280096 1.58443 0
M  V30 6628 O 620.972 0.521332 1.69148 0
M  V30 6629 C 618.101 1.29874 3.17785 0
M  V30 6630 C 617.187 2.47442 3.44432 0
M  V30 6631 N 617.578 3.72895 3.41736 0
M  V30 6632 C 615.876 2.41416 3.75013 0
M  V30 6633 C 616.577 4.50912 3.67496 0
M  V30 6634 N 615.553 3.81131 3.87608 0
M  V30 6635 H 619.355 2.35591 1.7571 0
M  V30 6636 H 616.869 1.35946 0.888393 0
M  V30 6637 H 618.866 1.27168 3.97031 0
M  V30 6638 H 617.526 0.359587 3.22703 0
M  V30 6639 H 618.537 4.05676 3.21943 0
M  V30 6640 H 615.214 1.56011 3.87256 0
M  V30 6641 H 616.604 5.59865 3.71484 0
M  V30 6642 N 619.324 -0.923095 1.27737 0
M  V30 6643 C 620.549 -1.71054 1.17283 0
M  V30 6644 C 620.974 -1.86208 -0.266153 0
M  V30 6645 O 620.332 -1.36545 -1.1927 0
M  V30 6646 C 620.38 -3.0854 1.86642 0
M  V30 6647 O 619.484 -3.95528 1.16752 0
M  V30 6648 H 618.825 -0.524136 0.407649 0
M  V30 6649 H 621.355 -1.15487 1.6889 0
M  V30 6650 H 621.365 -3.58828 1.94182 0
M  V30 6651 H 620.04 -2.96828 2.91317 0
M  V30 6652 H 618.617 -3.53967 1.17312 0
M  V30 6653 N 620.802 -1.09834 -1.13024 0
M  V30 6654 C 622.048 -0.83819 -1.84668 0
M  V30 6655 C 622.381 0.634645 -1.83537 0
M  V30 6656 O 621.656 1.46753 -1.27647 0
M  V30 6657 C 621.939 -1.37933 -3.32636 0
M  V30 6658 C 621.792 -2.91857 -3.42257 0
M  V30 6659 C 623.111 -1.01654 -4.28199 0
M  V30 6660 H 620.23 -0.30595 -0.670495 0
M  V30 6661 H 622.872 -1.36044 -1.32635 0
M  V30 6662 H 621.022 -0.935111 -3.77078 0
M  V30 6663 H 622.694 -3.44759 -3.06495 0
M  V30 6664 H 620.937 -3.28776 -2.83 0
M  V30 6665 H 621.608 -3.24799 -4.46329 0
M  V30 6666 H 624.084 -1.39973 -3.9185 0
M  V30 6667 H 622.96 -1.42217 -5.30156 0
M  V30 6668 H 623.221 0.0747794 -4.42037 0
M  V30 6669 N 622.28 1.30327 -0.886154 0
M  V30 6670 C 623.19 2.31854 -0.357866 0
M  V30 6671 C 624.206 1.65392 0.540502 0
M  V30 6672 O 625.382 1.96683 0.433339 0
M  V30 6673 C 622.447 3.44171 0.417999 0
M  V30 6674 C 621.508 4.26257 -0.510263 0
M  V30 6675 C 620.741 5.3321 0.228669 0
M  V30 6676 O 620.964 5.51542 1.45458 0
M  V30 6677 O 619.898 6.0042 -0.421832 0
M  V30 6678 H 623.724 2.78995 -1.19982 0
M  V30 6679 H 621.309 1.34518 -0.650028 0
M  V30 6680 H 623.191 4.12588 0.857251 0
M  V30 6681 H 621.866 2.99164 1.23623 0
M  V30 6682 H 620.773 3.60533 -0.99835 0
M  V30 6683 H 622.106 4.74871 -1.29454 0
M  V30 6684 N 623.758 0.647228 1.43697 0
M  V30 6685 C 624.688 -0.0345631 2.33474 0
M  V30 6686 C 625.669 -0.818193 1.4913 0
M  V30 6687 O 626.854 -0.780867 1.77809 0
M  V30 6688 C 623.984 -1.00576 3.32418 0
M  V30 6689 C 622.938 -0.33266 4.26705 0
M  V30 6690 C 622.264 -1.41489 5.1564 0
M  V30 6691 C 623.564 0.771204 5.16575 0
M  V30 6692 H 625.258 0.715163 2.90733 0
M  V30 6693 H 622.804 0.345364 1.39797 0
M  V30 6694 H 624.757 -1.49159 3.94119 0
M  V30 6695 H 623.481 -1.78657 2.73403 0
M  V30 6696 H 622.14 0.13267 3.6636 0
M  V30 6697 H 621.788 -2.18698 4.52968 0
M  V30 6698 H 621.488 -0.969799 5.79542 0
M  V30 6699 H 623.012 -1.9022 5.80214 0
M  V30 6700 H 624.426 0.36779 5.72119 0
M  V30 6701 H 622.823 1.1404 5.89165 0
M  V30 6702 H 623.893 1.63169 4.56622 0
M  V30 6703 N 625.236 -1.5273 0.388769 0
M  V30 6704 C 626.482 -2.02545 -0.186351 0
M  V30 6705 C 626.837 -1.27017 -1.44514 0
M  V30 6706 O 626.13 -0.361948 -1.8815 0
M  V30 6707 C 626.324 -3.53765 -0.508445 0
M  V30 6708 C 626.153 -4.43938 0.71758 0
M  V30 6709 C 624.923 -4.89933 1.23668 0
M  V30 6710 C 627.121 -4.89113 1.58974 0
M  V30 6711 N 625.103 -5.64176 2.42031 0
M  V30 6712 C 626.474 -5.61931 2.61979 0
M  V30 6713 C 628.529 -4.71155 1.60989 0
M  V30 6714 C 627.232 -6.18698 3.66886 0
M  V30 6715 C 629.258 -5.28804 2.64803 0
M  V30 6716 C 628.62 -6.01527 3.6653 0
M  V30 6717 H 624.719 -0.781413 -0.0302921 0
M  V30 6718 H 627.303 -1.87104 0.538539 0
M  V30 6719 H 625.474 -3.6932 -1.20239 0
M  V30 6720 H 627.206 -3.9028 -1.07067 0
M  V30 6721 H 623.961 -4.66833 0.797763 0
M  V30 6722 H 624.385 -6.05949 3.01919 0
M  V30 6723 H 629.027 -4.14435 0.836881 0
M  V30 6724 H 626.745 -6.74501 4.45055 0
M  V30 6725 H 630.331 -5.1679 2.67245 0
M  V30 6726 H 629.211 -6.45339 4.45542 0
M  V30 6727 N 626.714 -0.118576 -1.57153 0
M  V30 6728 C 627.644 0.828436 -2.1831 0
M  V30 6729 C 628.625 1.27758 -1.12303 0
M  V30 6730 O 629.81 1.34026 -1.40537 0
M  V30 6731 C 626.94 2.07876 -2.78217 0
M  V30 6732 C 625.894 1.76742 -3.89803 0
M  V30 6733 C 625.22 3.08801 -4.36516 0
M  V30 6734 C 626.52 1.03606 -5.11921 0
M  V30 6735 H 628.214 0.318824 -2.97698 0
M  V30 6736 H 625.76 0.151911 -1.43196 0
M  V30 6737 H 627.713 2.74584 -3.19659 0
M  V30 6738 H 626.437 2.61161 -1.96118 0
M  V30 6739 H 625.096 1.12424 -3.48936 0
M  V30 6740 H 624.744 3.6002 -3.51276 0
M  V30 6741 H 624.444 2.88743 -5.11763 0
M  V30 6742 H 625.968 3.76627 -4.80608 0
M  V30 6743 H 627.382 1.60467 -5.50385 0
M  V30 6744 H 625.779 0.936454 -5.92748 0
M  V30 6745 H 626.849 0.0227421 -4.84895 0
M  V30 6746 N 628.193 1.56834 0.155195 0
M  V30 6747 C 629.125 1.94235 1.21677 0
M  V30 6748 C 630.138 0.83724 1.39621 0
M  V30 6749 O 631.327 1.11567 1.39338 0
M  V30 6750 C 628.427 2.19402 2.58294 0
M  V30 6751 C 627.6 3.50671 2.61436 0
M  V30 6752 C 626.659 3.64475 3.79532 0
M  V30 6753 O 625.685 4.36945 3.64784 0
M  V30 6754 N 626.887 3.00526 4.96653 0
M  V30 6755 H 629.652 2.85901 0.898932 0
M  V30 6756 H 627.213 1.58185 0.34483 0
M  V30 6757 H 629.205 2.25886 3.35794 0
M  V30 6758 H 627.775 1.34042 2.82403 0
M  V30 6759 H 626.995 3.55702 1.69912 0
M  V30 6760 H 628.283 4.3702 2.60559 0
M  V30 6761 H 627.681 2.41549 5.11538 0
M  V30 6762 H 626.238 3.12583 5.71958 0
M  V30 6763 N 629.671 -0.424282 1.51781 0
M  V30 6764 C 630.918 -1.1726 1.65095 0
M  V30 6765 C 631.246 -1.90881 0.373477 0
M  V30 6766 O 630.501 -1.84835 -0.642997 0
M  V30 6767 C 630.8 -2.20418 2.81337 0
M  V30 6768 C 630.466 -1.63715 4.20129 0
M  V30 6769 C 629.128 -1.47975 4.57883 0
M  V30 6770 C 631.48 -1.22157 5.06682 0
M  V30 6771 C 628.808 -0.891703 5.79884 0
M  V30 6772 C 631.16 -0.647767 6.29275 0
M  V30 6773 C 629.824 -0.477371 6.65791 0
M  V30 6774 H 629.094 -0.429085 0.604125 0
M  V30 6775 H 631.741 -0.461852 1.85847 0
M  V30 6776 H 630.046 -2.97581 2.54859 0
M  V30 6777 H 631.743 -2.78163 2.88836 0
M  V30 6778 H 628.333 -1.76946 3.90369 0
M  V30 6779 H 632.517 -1.33133 4.7811 0
M  V30 6780 H 627.773 -0.747563 6.06813 0
M  V30 6781 H 631.947 -0.317291 6.95677 0
M  V30 6782 H 629.574 -0.0195936 7.60197 0
M  V30 6783 N 631.149 -1.42148 -0.680565 0
M  V30 6784 C 632.374 -1.45901 -1.47403 0
M  V30 6785 C 632.799 -0.0700985 -1.87969 0
M  V30 6786 O 632.157 0.930145 -1.55621 0
M  V30 6787 C 632.205 -2.38661 -2.70321 0
M  V30 6788 O 631.309 -1.85399 -3.68376 0
M  V30 6789 H 630.65 -0.494565 -0.443059 0
M  V30 6790 H 633.18 -1.86774 -0.835251 0
M  V30 6791 H 633.19 -2.55046 -3.18458 0
M  V30 6792 H 631.865 -3.39571 -2.40134 0
M  V30 6793 H 630.442 -1.78541 -3.2738 0
M  V30 6794 N 632.627 0.916307 -1.28225 0
M  V30 6795 C 633.577 2.00488 -1.08574 0
M  V30 6796 C 634.561 1.60897 -0.0101874 0
M  V30 6797 O 635.753 1.75499 -0.230034 0
M  V30 6798 C 632.882 3.35076 -0.746943 0
M  V30 6799 C 631.968 3.81077 -1.86121 0
M  V30 6800 N 632.359 3.99475 -3.10247 0
M  V30 6801 C 630.657 4.10212 -1.75048 0
M  V30 6802 C 631.358 4.37965 -3.82834 0
M  V30 6803 N 630.334 4.4608 -3.10667 0
M  V30 6804 H 634.136 2.1276 -2.02757 0
M  V30 6805 H 631.65 1.10397 -1.19107 0
M  V30 6806 H 633.647 4.12743 -0.587252 0
M  V30 6807 H 632.307 3.2416 0.187146 0
M  V30 6808 H 633.318 3.85466 -3.45885 0
M  V30 6809 H 629.995 4.07947 -0.887999 0
M  V30 6810 H 631.385 4.60183 -4.89572 0
M  V30 6811 N 634.105 1.10431 1.1244 0
M  V30 6812 C 635.068 0.756542 2.16354 0
M  V30 6813 C 636.068 -0.21899 1.59302 0
M  V30 6814 O 637.258 0.00415969 1.742 0
M  V30 6815 C 634.39 0.120612 3.40687 0
M  V30 6816 H 635.583 1.67696 2.48632 0
M  V30 6817 H 633.136 0.904832 1.27446 0
M  V30 6818 H 633.871 -0.810536 3.14008 0
M  V30 6819 H 633.656 0.822693 3.83372 0
M  V30 6820 H 635.146 -0.106945 4.17463 0
M  V30 6821 N 635.583 -1.29855 0.893053 0
M  V30 6822 C 636.516 -2.26079 0.3104 0
M  V30 6823 C 637.494 -1.52145 -0.573644 0
M  V30 6824 O 638.678 -1.8113 -0.521937 0
M  V30 6825 C 635.805 -3.34069 -0.558179 0
M  V30 6826 C 634.851 -4.25721 0.257638 0
M  V30 6827 S 635.684 -5.09409 1.65114 0
M  V30 6828 C 636.84 -6.20903 0.789307 0
M  V30 6829 H 637.073 -2.75151 1.12602 0
M  V30 6830 H 634.606 -1.37975 0.692978 0
M  V30 6831 H 636.564 -3.9675 -1.05355 0
M  V30 6832 H 635.225 -2.83705 -1.34797 0
M  V30 6833 H 634.418 -5.02366 -0.405562 0
M  V30 6834 H 634.02 -3.67656 0.685917 0
M  V30 6835 H 636.312 -6.77499 0.00978451 0
M  V30 6836 H 637.255 -6.91426 1.52762 0
M  V30 6837 H 637.663 -5.63435 0.346634 0
M  V30 6838 N 637.061 -0.65484 -1.43351 0
M  V30 6839 C 638.338 -0.0987371 -1.95351 0
M  V30 6840 C 638.718 1.38161 -1.59608 0
M  V30 6841 O 638.066 2.10791 -0.882021 0
M  V30 6842 C 638.276 -0.346684 -3.47274 0
M  V30 6843 C 639.624 -0.25249 -4.23849 0
M  V30 6844 O 640.648 -0.279332 -3.55103 0
M  V30 6845 O 639.507 -0.177584 -5.46211 0
M  V30 6846 H 636.601 0.0086829 -0.826954 0
M  V30 6847 H 639.147 -0.728189 -1.53282 0
M  V30 6848 H 637.919 -1.37296 -3.66423 0
M  V30 6849 H 637.542 0.315757 -3.96344 0
M  V30 6850 N 638.539 1.52521 -0.396863 0
M  V30 6851 C 639.502 2.2527 0.422604 0
M  V30 6852 C 640.502 1.27184 0.983913 0
M  V30 6853 O 641.692 1.51222 0.864723 0
M  V30 6854 C 638.824 3.01356 1.59365 0
M  V30 6855 H 640.017 2.99133 -0.214416 0
M  V30 6856 H 637.57 1.55587 -0.149128 0
M  V30 6857 H 638.305 2.31813 2.26789 0
M  V30 6858 H 638.09 3.73357 1.19779 0
M  V30 6859 H 639.58 3.56571 2.17363 0
M  V30 6860 N 640.017 0.126909 1.57088 0
M  V30 6861 C 640.95 -0.857844 2.11462 0
M  V30 6862 C 641.928 -1.25569 1.03301 0
M  V30 6863 O 643.112 -1.35535 1.31006 0
M  V30 6864 C 640.239 -2.14912 2.61784 0
M  V30 6865 C 639.285 -1.89874 3.81903 0
M  V30 6866 S 640.118 -1.10785 5.23915 0
M  V30 6867 C 641.274 -2.41075 5.7761 0
M  V30 6868 H 641.507 -0.395384 2.94659 0
M  V30 6869 H 639.04 -0.0870151 1.54155 0
M  V30 6870 H 640.998 -2.89101 2.91429 0
M  V30 6871 H 639.659 -2.58275 1.78754 0
M  V30 6872 H 638.852 -2.85572 4.15289 0
M  V30 6873 H 638.454 -1.23802 3.52915 0
M  V30 6874 H 640.746 -3.36864 5.87817 0
M  V30 6875 H 641.689 -2.12223 6.75549 0
M  V30 6876 H 642.097 -2.50804 5.05725 0
M  V30 6877 N 641.495 -1.56914 -0.146875 0
M  V30 6878 C 642.425 -2.01308 -1.1831 0
M  V30 6879 C 643.406 -0.892664 -1.44795 0
M  V30 6880 O 644.591 -1.16048 -1.55713 0
M  V30 6881 C 641.721 -2.3938 -2.51624 0
M  V30 6882 C 640.675 -3.54608 -2.3966 0
M  V30 6883 C 640.001 -3.78493 -3.77686 0
M  V30 6884 C 641.301 -4.87269 -1.88058 0
M  V30 6885 H 642.995 -2.88123 -0.813964 0
M  V30 6886 H 640.541 -1.38615 -0.3901 0
M  V30 6887 H 642.494 -2.69037 -3.24341 0
M  V30 6888 H 641.218 -1.49502 -2.90373 0
M  V30 6889 H 639.877 -3.25116 -1.69396 0
M  V30 6890 H 639.525 -2.85866 -4.13871 0
M  V30 6891 H 639.225 -4.56039 -3.70543 0
M  V30 6892 H 640.749 -4.10576 -4.51951 0
M  V30 6893 H 642.163 -5.15644 -2.50568 0
M  V30 6894 H 640.56 -5.68622 -1.91805 0
M  V30 6895 H 641.63 -4.77634 -0.836277 0
M  V30 6896 N 642.974 0.416227 -1.52004 0
M  V30 6897 C 644.221 1.16383 -1.65714 0
M  V30 6898 C 644.549 1.9068 -0.383594 0
M  V30 6899 O 643.804 1.85174 0.633185 0
M  V30 6900 C 644.103 2.18923 -2.82502 0
M  V30 6901 C 643.769 1.61485 -4.20991 0
M  V30 6902 C 642.431 1.45545 -4.58661 0
M  V30 6903 C 644.783 1.19468 -5.07323 0
M  V30 6904 C 642.111 0.860937 -5.80349 0
M  V30 6905 C 644.463 0.614386 -6.29609 0
M  V30 6906 C 643.127 0.442056 -6.66035 0
M  V30 6907 H 642.397 0.425875 -0.606392 0
M  V30 6908 H 645.044 0.45199 -1.8609 0
M  V30 6909 H 643.349 2.96225 -2.56433 0
M  V30 6910 H 645.046 2.76628 -2.90307 0
M  V30 6911 H 641.636 1.74873 -3.91302 0
M  V30 6912 H 645.82 1.30596 -4.78809 0
M  V30 6913 H 641.076 0.715372 -6.072 0
M  V30 6914 H 645.25 0.280393 -6.95835 0
M  V30 6915 H 642.877 -0.0207218 -7.60197 0
M  V30 6916 N 644.452 1.42507 0.673017 0
M  V30 6917 C 645.868 1.25472 0.986355 0
M  V30 6918 C 646.068 0.160181 2.00862 0
M  V30 6919 O 645.124 -0.467993 2.48125 0
M  V30 6920 C 646.437 2.61219 1.48947 0
M  V30 6921 C 647.985 2.68589 1.60715 0
M  V30 6922 C 648.46 4.04707 2.14422 0
M  V30 6923 N 649.951 4.0667 2.21752 0
M  V30 6924 C 650.686 5.0881 2.64386 0
M  V30 6925 N 650.182 6.21332 3.0646 0
M  V30 6926 N 651.975 4.96166 2.64151 0
M  V30 6927 H 644.126 2.124 -0.00378532 0
M  V30 6928 H 646.389 0.946046 0.0608367 0
M  V30 6929 H 646.095 3.42179 0.812812 0
M  V30 6930 H 645.969 2.85261 2.46791 0
M  V30 6931 H 648.356 1.87974 2.27486 0
M  V30 6932 H 648.437 2.48333 0.613552 0
M  V30 6933 H 648.081 4.8578 1.48258 0
M  V30 6934 H 648.011 4.22315 3.14575 0
M  V30 6935 H 650.502 3.25438 1.92089 0
M  V30 6936 H 650.815 6.95118 3.37684 0
M  V30 6937 H 649.16 6.24835 3.04313 0
M  V30 6938 H 652.351 4.07334 2.30644 0
M  V30 6939 H 652.524 5.759 2.97057 0
M  V30 6940 N 645.93 -0.909495 1.28709 0
M  V30 6941 C 646.86 -2.0291 1.15542 0
M  V30 6942 C 647.841 -1.7002 0.0521017 0
M  V30 6943 O 649.026 -1.92835 0.229849 0
M  V30 6944 C 646.156 -3.37458 0.820935 0
M  V30 6945 C 645.11 -3.84524 1.87949 0
M  V30 6946 C 644.436 -5.16086 1.39854 0
M  V30 6947 C 645.736 -4.05918 3.28676 0
M  V30 6948 H 647.43 -2.14183 2.09203 0
M  V30 6949 H 644.976 -1.02913 1.00722 0
M  V30 6950 H 646.929 -4.1528 0.715571 0
M  V30 6951 H 645.653 -3.26249 -0.151374 0
M  V30 6952 H 644.312 -3.08911 1.97408 0
M  V30 6953 H 643.96 -5.01284 0.41518 0
M  V30 6954 H 643.66 -5.48547 2.1064 0
M  V30 6955 H 645.184 -5.96459 1.30649 0
M  V30 6956 H 646.598 -4.74252 3.22115 0
M  V30 6957 H 644.995 -4.49717 3.97334 0
M  V30 6958 H 646.065 -3.10583 3.72379 0
M  V30 6959 N 647.408 -1.11026 -1.11852 0
M  V30 6960 C 648.638 -0.877544 -1.87037 0
M  V30 6961 C 649.046 0.575925 -1.80221 0
M  V30 6962 O 648.389 1.40916 -1.17849 0
M  V30 6963 C 648.451 -1.25529 -3.36872 0
M  V30 6964 C 648.115 -2.71704 -3.67459 0
M  V30 6965 C 649.112 -3.69931 -3.65304 0
M  V30 6966 C 646.797 -3.08243 -3.966 0
M  V30 6967 C 648.791 -5.02717 -3.9186 0
M  V30 6968 C 646.478 -4.41215 -4.22815 0
M  V30 6969 C 647.476 -5.38262 -4.20432 0
M  V30 6970 O 647.164 -6.68839 -4.45992 0
M  V30 6971 H 646.896 -0.314374 -0.598452 0
M  V30 6972 H 649.45 -1.48015 -1.42411 0
M  V30 6973 H 647.68 -0.595808 -3.82082 0
M  V30 6974 H 649.369 -0.999064 -3.93413 0
M  V30 6975 H 650.135 -3.43047 -3.42846 0
M  V30 6976 H 646.014 -2.33326 -3.97593 0
M  V30 6977 H 649.558 -5.78456 -3.89916 0
M  V30 6978 H 645.455 -4.67835 -4.44748 0
M  V30 6979 H 646.223 -6.74563 -4.63581 0
M  V30 6980 N 648.886 1.2938 -0.899927 0
M  V30 6981 C 649.816 2.30144 -0.39446 0
M  V30 6982 C 650.797 1.61611 0.530639 0
M  V30 6983 O 651.982 1.89119 0.441319 0
M  V30 6984 C 649.112 3.45229 0.37868 0
M  V30 6985 C 648.066 4.25564 -0.456012 0
M  V30 6986 C 647.392 5.32848 0.444637 0
M  V30 6987 C 648.692 4.93651 -1.70605 0
M  V30 6988 H 650.386 2.72673 -1.23653 0
M  V30 6989 H 647.932 1.31086 -0.596034 0
M  V30 6990 H 649.885 4.14797 0.743037 0
M  V30 6991 H 648.609 3.01545 1.25453 0
M  V30 6992 H 647.268 3.57704 -0.802704 0
M  V30 6993 H 646.916 4.85408 1.31863 0
M  V30 6994 H 646.616 5.87497 -0.110154 0
M  V30 6995 H 648.14 6.05268 0.805182 0
M  V30 6996 H 649.554 5.55655 -1.41141 0
M  V30 6997 H 647.951 5.58233 -2.20217 0
M  V30 6998 H 649.021 4.18926 -2.4419 0
M  V30 6999 N 650.364 0.662433 1.43002 0
M  V30 7000 C 651.294 -0.00979809 2.33498 0
M  V30 7001 C 652.275 -0.802329 1.49989 0
M  V30 7002 O 653.46 -0.761964 1.78627 0
M  V30 7003 C 650.59 -0.970446 3.33466 0
M  V30 7004 C 649.544 -0.287383 4.27034 0
M  V30 7005 C 648.87 -1.36012 5.17112 0
M  V30 7006 C 650.17 0.82595 5.15728 0
M  V30 7007 H 651.864 0.745959 2.89958 0
M  V30 7008 H 649.41 0.360172 1.39423 0
M  V30 7009 H 651.363 -1.44971 3.95679 0
M  V30 7010 H 650.087 -1.75748 2.75282 0
M  V30 7011 H 648.746 0.17152 3.66199 0
M  V30 7012 H 648.394 -2.13882 4.55262 0
M  V30 7013 H 648.094 -0.908276 5.80538 0
M  V30 7014 H 649.618 -1.84056 5.82199 0
M  V30 7015 H 651.032 0.42845 5.71697 0
M  V30 7016 H 649.429 1.20282 5.87922 0
M  V30 7017 H 650.499 1.68003 4.54866 0
M  V30 7018 N 651.842 -1.52309 0.404946 0
M  V30 7019 C 653.089 -2.01767 -0.1722 0
M  V30 7020 C 653.417 -1.29075 -1.45498 0
M  V30 7021 O 652.672 -0.3843 -1.9189 0
M  V30 7022 C 652.971 -3.54284 -0.470895 0
M  V30 7023 C 652.637 -4.45079 0.722194 0
M  V30 7024 C 651.299 -4.69617 1.04946 0
M  V30 7025 C 653.651 -4.98555 1.51962 0
M  V30 7026 C 650.979 -5.44878 2.17543 0
M  V30 7027 C 653.331 -5.75049 2.63632 0
M  V30 7028 C 651.995 -5.9786 2.9685 0
M  V30 7029 H 651.265 -0.738316 -0.0630125 0
M  V30 7030 H 653.912 -1.83566 0.545506 0
M  V30 7031 H 652.217 -3.70642 -1.27012 0
M  V30 7032 H 653.914 -3.90058 -0.930346 0
M  V30 7033 H 650.504 -4.26155 0.457131 0
M  V30 7034 H 654.688 -4.79509 1.28002 0
M  V30 7035 H 649.944 -5.60762 2.43631 0
M  V30 7036 H 654.118 -6.15483 3.25813 0
M  V30 7037 H 651.745 -6.5596 3.84215 0
M  V30 7038 N 653.32 -0.135238 -1.57019 0
M  V30 7039 C 654.253 0.846618 -2.11914 0
M  V30 7040 C 655.231 1.25019 -1.03966 0
M  V30 7041 O 656.415 1.34838 -1.31723 0
M  V30 7042 C 653.542 2.1352 -2.6292 0
M  V30 7043 C 652.588 1.87846 -3.82905 0
M  V30 7044 S 653.421 1.08005 -5.24495 0
M  V30 7045 C 654.577 2.38008 -5.78881 0
M  V30 7046 H 654.81 0.379752 -2.94865 0
M  V30 7047 H 652.343 0.0788387 -1.54199 0
M  V30 7048 H 654.301 2.87551 -2.92958 0
M  V30 7049 H 652.962 2.57323 -1.80121 0
M  V30 7050 H 652.155 2.83365 -4.16797 0
M  V30 7051 H 651.757 1.21929 -3.53567 0
M  V30 7052 H 654.049 3.33742 -5.89595 0
M  V30 7053 H 654.992 2.08638 -6.76665 0
M  V30 7054 H 655.4 2.48119 -5.07048 0
M  V30 7055 N 654.798 1.5699 0.138552 0
M  V30 7056 C 655.761 1.97984 1.15478 0
M  V30 7057 C 656.761 0.867416 1.35398 0
M  V30 7058 O 657.951 1.13387 1.32246 0
M  V30 7059 C 655.083 2.3031 2.51337 0
M  V30 7060 H 656.276 2.88953 0.802896 0
M  V30 7061 H 653.829 1.51555 0.382189 0
M  V30 7062 H 654.564 1.42159 2.91481 0
M  V30 7063 H 654.349 3.11425 2.38237 0
M  V30 7064 H 655.839 2.62834 3.24512 0
M  V30 7065 N 656.276 -0.40816 1.52223 0
M  V30 7066 C 657.501 -1.18127 1.70472 0
M  V30 7067 C 657.926 -1.83491 0.41384 0
M  V30 7068 O 657.284 -1.70047 -0.628778 0
M  V30 7069 C 657.332 -2.21935 2.84213 0
M  V30 7070 O 656.436 -3.28099 2.4985 0
M  V30 7071 H 655.777 -0.344781 0.56747 0
M  V30 7072 H 658.307 -0.478328 1.9893 0
M  V30 7073 H 658.317 -2.66248 3.09153 0
M  V30 7074 H 656.992 -1.73744 3.7787 0
M  V30 7075 H 655.569 -2.89058 2.35584 0
M  V30 7076 N 657.755 -1.42862 -0.66545 0
M  V30 7077 C 658.98 -1.47456 -1.45848 0
M  V30 7078 C 659.405 -0.0900312 -1.87884 0
M  V30 7079 O 658.763 0.913587 -1.56599 0
M  V30 7080 C 658.811 -2.41514 -2.67774 0
M  V30 7081 O 657.915 -1.89296 -3.66389 0
M  V30 7082 H 657.256 -0.499236 -0.437789 0
M  V30 7083 H 659.786 -1.8765 -0.815394 0
M  V30 7084 H 659.796 -2.58409 -3.15735 0
M  V30 7085 H 658.471 -3.42099 -2.36519 0
M  V30 7086 H 657.048 -1.82003 -3.25468 0
M  V30 7087 N 659.233 0.902656 -1.29189 0
M  V30 7088 C 660.482 1.6475 -1.16362 0
M  V30 7089 C 660.795 1.93517 0.284682 0
M  V30 7090 O 662.001 2.66192 0.534229 0
M  V30 7091 C 660.457 2.96848 -2.03493 0
M  V30 7092 C 660.065 2.75687 -3.5313 0
M  V30 7093 C 661.809 3.74762 -1.99383 0
M  V30 7094 C 659.716 4.03492 -4.32375 0
M  V30 7095 H 658.646 0.618041 -0.431904 0
M  V30 7096 H 661.297 1.0008 -1.53806 0
M  V30 7097 H 659.679 3.62715 -1.58916 0
M  V30 7098 H 660.853 2.18431 -4.05739 0
M  V30 7099 H 659.168 2.11171 -3.58881 0
M  V30 7100 H 661.765 4.69515 -2.5585 0
M  V30 7101 H 662.108 4.04767 -0.973123 0
M  V30 7102 H 662.641 3.15732 -2.41988 0
M  V30 7103 H 659.38 3.78656 -5.3507 0
M  V30 7104 H 658.9 4.60318 -3.84535 0
M  V30 7105 H 660.579 4.71662 -4.42881 0
M  V30 7106 N 660.711 1.11618 1.11262 0
M  V30 7107 C 661.96 0.860934 1.82403 0
M  V30 7108 C 662.273 -0.615303 1.8567 0
M  V30 7109 O 663.479 -0.986861 2.52929 0
M  V30 7110 C 661.935 1.49048 3.27586 0
M  V30 7111 C 661.543 3.00089 3.32642 0
M  V30 7112 C 663.287 1.31515 4.03614 0
M  V30 7113 C 661.194 3.56019 4.72234 0
M  V30 7114 H 660.124 0.318423 0.683464 0
M  V30 7115 H 662.775 1.34165 1.25188 0
M  V30 7116 H 661.157 0.937434 3.84744 0
M  V30 7117 H 662.331 3.61813 2.85356 0
M  V30 7118 H 660.646 3.16919 2.70096 0
M  V30 7119 H 663.243 1.70732 5.0671 0
M  V30 7120 H 663.586 0.257917 4.155 0
M  V30 7121 H 664.119 1.83694 3.52848 0
M  V30 7122 H 660.858 4.61463 4.65545 0
M  V30 7123 H 660.378 2.99066 5.19923 0
M  V30 7124 H 662.057 3.54568 5.41193 0
M  V30 7125 N 662.189 -1.289 0.906776 0
M  V30 7126 C 663.417 -1.99401 0.551969 0
M  V30 7127 C 663.832 -1.67816 -0.865048 0
M  V30 7128 O 663.189 -0.927078 -1.57199 0
M  V30 7129 C 663.24 -3.53779 0.743152 0
M  V30 7130 O 662.961 -3.84248 2.1044 0
M  V30 7131 C 664.462 -4.41543 0.39424 0
M  V30 7132 H 661.682 -0.636926 0.211106 0
M  V30 7133 H 664.226 -1.64266 1.21807 0
M  V30 7134 H 662.381 -3.87201 0.124143 0
M  V30 7135 H 662.795 -4.78904 2.13895 0
M  V30 7136 H 664.269 -5.48957 0.578814 0
M  V30 7137 H 664.746 -4.34073 -0.669137 0
M  V30 7138 H 665.352 -4.13605 0.990491 0
M  V30 7139 N 663.667 -0.670007 -1.42649 0
M  V30 7140 C 664.913 -0.190568 -2.01903 0
M  V30 7141 C 665.246 1.19817 -1.52832 0
M  V30 7142 O 664.521 1.80342 -0.728485 0
M  V30 7143 C 664.804 -0.21991 -3.59428 0
M  V30 7144 C 664.657 -1.64376 -4.18689 0
M  V30 7145 C 665.976 0.434519 -4.3795 0
M  V30 7146 H 663.095 -0.0707219 -0.733599 0
M  V30 7147 H 665.737 -0.853883 -1.69732 0
M  V30 7148 H 663.887 0.344894 -3.86966 0
M  V30 7149 H 665.559 -2.26044 -4.02122 0
M  V30 7150 H 663.802 -2.18591 -3.747 0
M  V30 7151 H 664.473 -1.61601 -5.27815 0
M  V30 7152 H 666.949 -0.0462156 -4.16074 0
M  V30 7153 H 665.825 0.38333 -5.4756 0
M  V30 7154 H 666.086 1.51135 -4.15464 0
M  V30 7155 N 665.145 1.52092 -0.413018 0
M  V30 7156 C 666.394 2.01041 0.16287 0
M  V30 7157 C 666.707 1.30288 1.45892 0
M  V30 7158 O 667.913 1.70075 2.11629 0
M  V30 7159 C 666.369 3.58283 0.340806 0
M  V30 7160 C 665.977 4.37955 -0.943377 0
M  V30 7161 C 667.721 4.15452 0.871774 0
M  V30 7162 C 665.628 5.86847 -0.732417 0
M  V30 7163 H 664.558 0.751224 0.0646414 0
M  V30 7164 H 667.209 1.75404 -0.539059 0
M  V30 7165 H 665.591 3.80266 1.10516 0
M  V30 7166 H 666.765 4.2773 -1.71418 0
M  V30 7167 H 665.08 3.92122 -1.40105 0
M  V30 7168 H 667.677 5.24375 1.0457 0
M  V30 7169 H 668.02 3.73057 1.84755 0
M  V30 7170 H 668.553 3.97452 0.166377 0
M  V30 7171 H 665.292 6.33609 -1.67986 0
M  V30 7172 H 664.812 5.998 -0.000980058 0
M  V30 7173 H 666.491 6.45906 -0.376105 0
M  V30 7174 N 666.623 0.143563 1.56945 0
M  V30 7175 C 667.863 -0.511198 1.97904 0
M  V30 7176 C 668.227 -1.62262 1.0264 0
M  V30 7177 O 669.428 -2.338 1.32631 0
M  V30 7178 C 667.699 -1.00753 3.42905 0
M  V30 7179 S 669.258 -1.66737 4.05887 0
M  V30 7180 H 666.076 -0.165399 0.691494 0
M  V30 7181 H 668.678 0.234464 1.94089 0
M  V30 7182 H 667.382 -0.187817 4.0997 0
M  V30 7183 H 666.913 -1.7879 3.50425 0
M  V30 7184 H 668.928 -2.95444 3.98657 0
M  V30 7185 N 668.101 -1.57061 -0.130224 0
M  V30 7186 C 669.031 -2.02552 -1.16168 0
M  V30 7187 C 670.012 -0.907971 -1.4384 0
M  V30 7188 O 671.197 -1.17693 -1.54473 0
M  V30 7189 C 668.327 -2.42035 -2.49071 0
M  V30 7190 C 667.281 -3.5713 -2.35886 0
M  V30 7191 C 666.607 -3.82478 -3.7365 0
M  V30 7192 C 667.907 -4.89236 -1.8288 0
M  V30 7193 H 669.601 -2.8897 -0.783359 0
M  V30 7194 H 667.147 -1.39021 -0.375376 0
M  V30 7195 H 669.1 -2.72462 -3.21469 0
M  V30 7196 H 667.824 -1.52573 -2.88771 0
M  V30 7197 H 666.483 -3.26895 -1.65938 0
M  V30 7198 H 666.131 -2.9024 -4.10816 0
M  V30 7199 H 665.831 -4.59944 -3.65685 0
M  V30 7200 H 667.355 -4.15347 -4.47571 0
M  V30 7201 H 668.769 -5.18272 -2.45085 0
M  V30 7202 H 667.166 -5.70624 -1.85763 0
M  V30 7203 H 668.236 -4.78494 -0.785571 0
M  V30 7204 N 669.579 0.400081 -1.52437 0
M  V30 7205 C 670.825 1.14456 -1.68141 0
M  V30 7206 C 671.18 1.87965 -0.410722 0
M  V30 7207 O 670.473 1.82121 0.595195 0
M  V30 7208 C 670.667 2.15914 -2.84808 0
M  V30 7209 C 670.496 1.5237 -4.231 0
M  V30 7210 C 669.266 1.29252 -4.8849 0
M  V30 7211 C 671.464 0.979722 -5.04882 0
M  V30 7212 N 669.446 0.616955 -6.10792 0
M  V30 7213 C 670.817 0.43159 -6.18496 0
M  V30 7214 C 672.872 0.875059 -4.9015 0
M  V30 7215 C 671.575 -0.210958 -7.18991 0
M  V30 7216 C 673.601 0.246351 -5.90887 0
M  V30 7217 C 672.963 -0.291062 -7.03798 0
M  V30 7218 H 669.062 0.405181 -0.668844 0
M  V30 7219 H 671.646 0.435655 -1.89763 0
M  V30 7220 H 669.817 2.84154 -2.64785 0
M  V30 7221 H 671.549 2.8279 -2.89503 0
M  V30 7222 H 668.304 1.56451 -4.47012 0
M  V30 7223 H 668.728 0.295536 -6.76355 0
M  V30 7224 H 673.37 1.27636 -4.03074 0
M  V30 7225 H 671.088 -0.6243 -8.05685 0
M  V30 7226 H 674.674 0.166765 -5.81561 0
M  V30 7227 H 673.554 -0.76988 -7.80412 0
M  V30 7228 N 671.057 1.43213 0.657864 0
M  V30 7229 C 672.005 1.48271 1.79216 0
M  V30 7230 C 672.999 0.35675 1.65601 0
M  V30 7231 O 674.205 0.530535 1.72004 0
M  V30 7232 H 670.58 0.464729 0.591211 0
M  V30 7233 H 672.551 2.43792 1.7207 0
M  V30 7234 C 671.3 1.41837 3.17455 0
M  V30 7235 H 670.623 2.27781 3.28567 0
M  V30 7236 H 672.063 1.49438 3.96793 0
M  V30 7237 C 670.522 0.135347 3.36628 0
M  V30 7238 O 671.052 -0.805199 3.93547 0
M  V30 7239 N 669.258 0.0470316 2.90562 0
M  V30 7240 H 668.805 0.813221 2.44427 0
M  V30 7241 H 668.763 -0.810737 3.03767 0
M  V30 7242 N 672.536 -0.895792 1.29666 0
M  V30 7243 C 673.764 -1.68001 1.20761 0
M  V30 7244 C 674.179 -1.87379 -0.231187 0
M  V30 7245 O 673.536 -1.41359 -1.15429 0
M  V30 7246 C 673.587 -3.06236 1.92098 0
M  V30 7247 O 673.308 -2.8774 3.30359 0
M  V30 7248 C 674.809 -4.00652 1.89717 0
M  V30 7249 H 672.029 -0.524591 0.418384 0
M  V30 7250 H 674.573 -1.11995 1.71106 0
M  V30 7251 H 672.728 -3.59007 1.45578 0
M  V30 7252 H 673.142 -3.75359 3.66342 0
M  V30 7253 H 674.616 -4.95051 2.44189 0
M  V30 7254 H 675.093 -4.30424 0.873595 0
M  V30 7255 H 675.699 -3.53815 2.35998 0
M  V30 7256 O 674.053 -1.24272 -1.03144 0
M  V30 7257 H 674.744 -1.0191 -1.64724 0
M  V30 END ATOM
M  V30 BEGIN BOND
M  V30 END BOND
M  V30 END CTAB
M  END
$$$$
