drugbank_target|P41146 Nociceptin receptor (DB00921; DB01497; DB05492)
 OpenBabel12092120103D

  0  0  0     0  0            999 V3000
M  V30 BEGIN CTAB
M  V30 COUNTS 5831 5897 0 0 0
M  V30 BEGIN ATOM
M  V30 1 H -0.908 1.98254 -0.117106 0
M  V30 2 N 0 1.576 0 0
M  V30 3 C 0.933 2.03868 1.02534 0
M  V30 4 C 1.911 0.928543 1.3348 0
M  V30 5 O 3.095 1.19667 1.45644 0
M  V30 6 C 0.222 2.43627 2.35294 0
M  V30 7 C -0.732 3.65373 2.2001 0
M  V30 8 S 0.101 5.13292 1.52614 0
M  V30 9 C 1.257 5.56322 2.86805 0
M  V30 10 H 1.49 2.90518 0.631377 0
M  V30 11 H -0.977 1.52953 0.210867 0
M  V30 12 H 0.981 2.67203 3.11629 0
M  V30 13 H -0.358 1.57376 2.7183 0
M  V30 14 H -1.165 3.90944 3.18086 0
M  V30 15 H -1.563 3.418 1.51819 0
M  V30 16 H 0.729 5.58782 3.83104 0
M  V30 17 H 1.672 6.56266 2.65933 0
M  V30 18 H 2.08 4.83886 2.90714 0
M  V30 19 N 1.4781 -0.272755 1.55222 0
M  V30 20 C 2.3881 -1.35918 1.91216 0
M  V30 21 C 3.4041 -1.54026 0.809436 0
M  V30 22 O 4.5801 -1.68148 1.10852 0
M  V30 23 C 1.6451 -2.69834 2.17693 0
M  V30 24 C 0.7061 -2.6047 3.41253 0
M  V30 25 C -0.0609 -3.88 3.66458 0
M  V30 26 O 0.1621 -4.88693 2.94169 0
M  V30 27 O -0.9039 -3.88189 4.59992 0
M  V30 28 H 2.9221 -1.0839 2.83699 0
M  V30 29 H 0.5071 -0.471301 1.41771 0
M  V30 30 H 2.3891 -3.49017 2.36147 0
M  V30 31 H 1.0641 -2.97148 1.28392 0
M  V30 32 H -0.0289 -1.79663 3.28134 0
M  V30 33 H 1.3041 -2.38106 4.30774 0
M  V30 34 N 2.9562 -1.48159 -0.537278 0
M  V30 35 C 4.3672 -1.49429 -1.11928 0
M  V30 36 C 4.7182 -0.26 -1.9447 0
M  V30 37 O 3.8432 0.633489 -2.0692 0
M  V30 38 C 4.4382 -2.70758 -2.03656 0
M  V30 39 C 2.9972 -2.74923 -2.57088 0
M  V30 40 C 2.1442 -2.42835 -1.3389 0
M  V30 41 H 5.0952 -1.55381 -0.322886 0
M  V30 42 H 5.1162 -2.48861 -2.87834 0
M  V30 43 H 4.6282 -3.60575 -1.43553 0
M  V30 44 H 2.7292 -1.89296 -3.20933 0
M  V30 45 H 2.8422 -3.76157 -2.9672 0
M  V30 46 H 1.2062 -1.93836 -1.65226 0
M  V30 47 H 1.9892 -3.34884 -0.755504 0
M  V30 48 N 4.4343 0.785586 -1.36625 0
M  V30 49 C 5.3643 1.91259 -1.33949 0
M  V30 50 C 6.3453 1.68795 -0.210325 0
M  V30 51 O 7.5303 1.89854 -0.408561 0
M  V30 52 C 4.6603 3.28339 -1.13186 0
M  V30 53 C 3.6143 3.65335 -2.22967 0
M  V30 54 C 2.9403 5.00806 -1.87342 0
M  V30 55 C 4.2403 3.7352 -3.65075 0
M  V30 56 H 5.9343 1.93755 -2.28253 0
M  V30 57 H 3.4803 0.930788 -1.09874 0
M  V30 58 H 5.4333 4.06804 -1.09948 0
M  V30 59 H 4.1573 3.2624 -0.153332 0
M  V30 60 H 2.8163 2.89169 -2.25337 0
M  V30 61 H 2.4643 4.95233 -0.880545 0
M  V30 62 H 2.1643 5.26529 -2.60846 0
M  V30 63 H 3.6883 5.81687 -1.85667 0
M  V30 64 H 5.1023 4.42168 -3.64911 0
M  V30 65 H 3.4993 4.10731 -4.37516 0
M  V30 66 H 4.5693 2.74527 -3.99703 0
M  V30 67 N 5.9124 1.20967 1.01018 0
M  V30 68 C 7.1594 1.02374 1.74716 0
M  V30 69 C 7.4874 -0.443375 1.89379 0
M  V30 70 O 6.7424 -1.34535 1.42123 0
M  V30 71 C 7.0414 1.65997 3.16512 0
M  V30 72 C 6.7074 3.15831 3.2181 0
M  V30 73 C 5.3694 3.56719 3.22963 0
M  V30 74 C 7.7214 4.11816 3.19464 0
M  V30 75 C 5.0494 4.92107 3.19449 0
M  V30 76 C 7.4014 5.47158 3.17491 0
M  V30 77 C 6.0654 5.87451 3.16951 0
M  V30 78 H 5.3354 0.374614 0.639332 0
M  V30 79 H 7.9824 1.50485 1.18434 0
M  V30 80 H 6.2874 1.10166 3.75993 0
M  V30 81 H 7.9844 1.49119 3.72242 0
M  V30 82 H 4.5744 2.83263 3.21652 0
M  V30 83 H 8.7584 3.81257 3.17737 0
M  V30 84 H 4.0144 5.22579 3.17366 0
M  V30 85 H 8.1884 6.21274 3.14629 0
M  V30 86 H 5.8154 6.92329 3.13983 0
M  V30 87 N 7.3905 -1.2043 1.01659 0
M  V30 88 C 8.8015 -1.71517 0.737482 0
M  V30 89 C 9.1525 -1.81547 -0.743973 0
M  V30 90 O 8.2775 -1.47803 -1.58061 0
M  V30 91 C 8.8725 -3.11515 1.33206 0
M  V30 92 C 7.4315 -3.59912 1.10183 0
M  V30 93 C 6.5785 -2.37116 1.43776 0
M  V30 94 H 9.5295 -1.05444 1.18606 0
M  V30 95 H 9.5505 -3.73575 0.722636 0
M  V30 96 H 9.0625 -3.04182 2.41028 0
M  V30 97 H 7.1635 -3.72577 0.0412756 0
M  V30 98 H 7.2765 -4.44731 1.78188 0
M  V30 99 H 5.6405 -2.39857 0.856778 0
M  V30 100 H 6.4235 -2.32424 2.52654 0
M  V30 101 N 8.8686 -0.792821 -1.36206 0
M  V30 102 C 9.8316 -0.199459 -2.2833 0
M  V30 103 C 10.8316 0.605189 -1.48977 0
M  V30 104 O 12.0216 0.425685 -1.68919 0
M  V30 105 C 9.1536 0.723523 -3.33134 0
M  V30 106 H 10.3466 -1.01181 -2.82316 0
M  V30 107 H 7.8996 -0.562485 -1.45828 0
M  V30 108 H 8.6346 1.56008 -2.84309 0
M  V30 109 H 8.4196 0.148436 -3.91819 0
M  V30 110 H 9.9096 1.13344 -4.01924 0
M  V30 111 N 10.3467 1.47872 -0.545128 0
M  V30 112 C 11.7577 1.86384 -0.108581 0
M  V30 113 C 12.1087 1.45309 1.31832 0
M  V30 114 O 11.2337 0.850641 1.9898 0
M  V30 115 C 11.8287 3.38265 -0.190274 0
M  V30 116 C 10.3877 3.75914 0.191164 0
M  V30 117 C 9.5347 2.71926 -0.543273 0
M  V30 118 H 12.4857 1.39561 -0.755537 0
M  V30 119 H 12.5067 3.75831 0.594217 0
M  V30 120 H 12.0187 3.6813 -1.2289 0
M  V30 121 H 10.1197 3.51665 1.23136 0
M  V30 122 H 10.2327 4.78836 -0.158987 0
M  V30 123 H 8.5967 2.54697 0.0122495 0
M  V30 124 H 9.3797 3.04634 -1.58282 0
M  V30 125 N 11.8248 0.280983 1.55075 0
M  V30 126 C 13.0718 -0.334115 1.99725 0
M  V30 127 C 13.3998 -1.5542 1.1694 0
M  V30 128 O 12.6548 -1.94361 0.228531 0
M  V30 129 C 12.9538 -0.754656 3.49342 0
M  V30 130 C 12.6198 0.361445 4.49449 0
M  V30 131 C 11.2818 0.667893 4.76542 0
M  V30 132 C 13.6338 1.11322 5.09173 0
M  V30 133 C 10.9618 1.7296 5.60626 0
M  V30 134 C 13.3138 2.1647 5.9441 0
M  V30 135 C 11.9778 2.47742 6.19822 0
M  V30 136 H 11.2478 -0.122261 0.730844 0
M  V30 137 H 13.8948 0.395917 1.87363 0
M  V30 138 H 12.1998 -1.56446 3.5921 0
M  V30 139 H 13.8968 -1.24142 3.813 0
M  V30 140 H 10.4868 0.112481 4.28452 0
M  V30 141 H 14.6708 0.88973 4.8826 0
M  V30 142 H 9.9268 1.97684 5.78559 0
M  V30 143 H 14.1008 2.75193 6.3972 0
M  V30 144 H 11.7278 3.30145 6.84769 0
M  V30 145 N 13.3029 -1.57598 0.00835791 0
M  V30 146 C 14.5489 -1.92046 -0.670055 0
M  V30 147 C 14.9039 -0.88351 -1.70915 0
M  V30 148 O 14.1969 0.103223 -1.91322 0
M  V30 149 C 14.3909 -3.3101 -1.34787 0
M  V30 150 C 14.2199 -4.48126 -0.375945 0
M  V30 151 C 12.9899 -5.05297 0.0166914 0
M  V30 152 C 15.1879 -5.1303 0.361272 0
M  V30 153 N 13.1699 -6.05931 0.985952 0
M  V30 154 C 14.5409 -6.08571 1.18495 0
M  V30 155 C 16.5959 -4.9609 0.42421 0
M  V30 156 C 15.2989 -6.88996 2.06584 0
M  V30 157 C 17.3249 -5.77107 1.29236 0
M  V30 158 C 16.6869 -6.72248 2.10386 0
M  V30 159 H 12.7859 -0.75096 -0.218136 0
M  V30 160 H 15.3699 -1.94572 0.0706669 0
M  V30 161 H 13.5409 -3.29342 -2.05884 0
M  V30 162 H 15.2729 -3.52864 -1.98164 0
M  V30 163 H 12.0279 -4.72279 -0.353435 0
M  V30 164 H 12.4519 -6.60932 1.4662 0
M  V30 165 H 17.0939 -4.22378 -0.188915 0
M  V30 166 H 14.8119 -7.62028 2.6896 0
M  V30 167 H 18.3979 -5.66038 1.34508 0
M  V30 168 H 17.2779 -7.33846 2.76476 0
M  V30 169 N 14.781 0.264519 -1.55364 0
M  V30 170 C 15.691 1.34902 -1.91934 0
M  V30 171 C 16.707 1.53595 -0.817593 0
M  V30 172 O 17.883 1.67558 -1.11742 0
M  V30 173 C 14.948 2.68676 -2.19121 0
M  V30 174 C 14.009 2.58657 -3.4263 0
M  V30 175 C 13.242 3.86051 -3.68511 0
M  V30 176 O 13.465 4.87126 -2.96757 0
M  V30 177 O 12.399 3.85744 -4.62045 0
M  V30 178 H 16.225 1.06883 -2.8427 0
M  V30 179 H 13.81 0.463775 -1.42019 0
M  V30 180 H 15.692 3.47759 -2.37995 0
M  V30 181 H 14.367 2.96463 -1.29966 0
M  V30 182 H 13.274 1.7792 -3.29082 0
M  V30 183 H 14.607 2.35818 -4.32031 0
M  V30 184 N 16.2591 1.48442 0.529413 0
M  V30 185 C 17.5051 1.5672 1.28711 0
M  V30 186 C 17.8381 0.2406 1.92704 0
M  V30 187 O 17.1131 -0.753454 1.79313 0
M  V30 188 C 17.3961 2.70587 2.37603 0
M  V30 189 C 17.2491 4.12953 1.78297 0
M  V30 190 C 18.5681 2.80212 3.39366 0
M  V30 191 H 15.6871 0.570474 0.466613 0
M  V30 192 H 18.3291 1.80617 0.589706 0
M  V30 193 H 16.4791 2.50342 2.97088 0
M  V30 194 H 18.1511 4.44639 1.22858 0
M  V30 195 H 16.3941 4.19927 1.0883 0
M  V30 196 H 17.0651 4.88448 2.57144 0
M  V30 197 H 19.5411 2.98553 2.89836 0
M  V30 198 H 18.4171 3.61611 4.12951 0
M  V30 199 H 18.6781 1.88393 3.99951 0
M  V30 200 N 17.7372 -0.778329 1.37039 0
M  V30 201 C 18.9862 -1.53189 1.3121 0
M  V30 202 C 19.2992 -1.95328 -0.103095 0
M  V30 203 O 20.5052 -2.70012 -0.283826 0
M  V30 204 C 18.9612 -2.76591 2.30272 0
M  V30 205 C 18.5692 -2.41577 3.77286 0
M  V30 206 C 20.3132 -3.5455 2.33441 0
M  V30 207 C 18.2202 -3.61441 4.68096 0
M  V30 208 H 17.1502 -0.5751 0.487622 0
M  V30 209 H 19.8012 -0.853101 1.62464 0
M  V30 210 H 18.1832 -3.46326 1.92027 0
M  V30 211 H 19.3572 -1.79668 4.2433 0
M  V30 212 H 17.6722 -1.76806 3.76999 0
M  V30 213 H 20.2692 -4.43628 2.98493 0
M  V30 214 H 20.6122 -3.93936 1.34611 0
M  V30 215 H 21.1452 -2.91805 2.7036 0
M  V30 216 H 17.8842 -3.27142 5.6803 0
M  V30 217 H 17.4042 -4.22478 4.25761 0
M  V30 218 H 19.0832 -4.28335 4.8491 0
M  V30 219 N 19.2153 -1.21501 -1.00376 0
M  V30 220 C 20.4453 -1.05746 -1.77486 0
M  V30 221 C 20.8533 0.395655 -1.85017 0
M  V30 222 O 20.1963 1.28626 -1.31152 0
M  V30 223 C 20.2583 -1.58092 -3.22873 0
M  V30 224 C 19.9223 -3.06568 -3.38917 0
M  V30 225 C 20.9193 -4.04106 -3.271 0
M  V30 226 C 18.6043 -3.45799 -3.64319 0
M  V30 227 C 20.5983 -5.38862 -3.40451 0
M  V30 228 C 18.2853 -4.80707 -3.77311 0
M  V30 229 C 19.2833 -5.77047 -3.65384 0
M  V30 230 O 18.9713 -7.09507 -3.77961 0
M  V30 231 H 18.7033 -0.371778 -0.564586 0
M  V30 232 H 21.2573 -1.61319 -1.27143 0
M  V30 233 H 19.4873 -0.969163 -3.74358 0
M  V30 234 H 21.1763 -1.38162 -3.81662 0
M  V30 235 H 21.9423 -3.75141 -3.07399 0
M  V30 236 H 17.8213 -2.71344 -3.72684 0
M  V30 237 H 21.3653 -6.14041 -3.31058 0
M  V30 238 H 17.2623 -5.09357 -3.96517 0
M  V30 239 H 18.0303 -7.16935 -3.94901 0
M  V30 240 N 20.6934 1.19889 -1.02296 0
M  V30 241 C 21.9414 1.89046 -0.714558 0
M  V30 242 C 22.2624 1.79636 0.758681 0
M  V30 243 O 21.5324 1.20292 1.54618 0
M  V30 244 H 20.1124 0.699802 -0.261317 0
M  V30 245 H 22.7744 1.45574 -1.29592 0
M  V30 246 H 21.8704 2.95524 -1.0036 0
M  V30 247 N 22.1715 0.800033 1.35784 0
M  V30 248 C 23.3965 0.388511 2.03729 0
M  V30 249 C 23.8215 -0.990481 1.5991 0
M  V30 250 O 23.1795 -1.64013 0.772612 0
M  V30 251 C 23.2275 0.4726 3.5749 0
M  V30 252 O 22.3315 -0.51646 4.09153 0
M  V30 253 H 21.6725 0.163271 0.643614 0
M  V30 254 H 24.2025 1.0841 1.73518 0
M  V30 255 H 24.2125 0.34003 4.06581 0
M  V30 256 H 22.8875 1.47848 3.88734 0
M  V30 257 H 21.4645 -0.344673 3.71304 0
M  V30 258 N 23.6496 -1.47581 0.552962 0
M  V30 259 C 24.5996 -2.26961 -0.217423 0
M  V30 260 C 25.5836 -1.34099 -0.889168 0
M  V30 261 O 26.7756 -1.58483 -0.788176 0
M  V30 262 C 23.9046 -3.19756 -1.24944 0
M  V30 263 C 22.9906 -4.20097 -0.581327 0
M  V30 264 N 23.3816 -5.04614 0.346171 0
M  V30 265 C 21.6796 -4.38099 -0.835767 0
M  V30 266 C 22.3806 -5.77052 0.733854 0
M  V30 267 N 21.3566 -5.43526 0.0896567 0
M  V30 268 H 25.1586 -2.89688 0.495761 0
M  V30 269 H 22.6726 -1.58068 0.372597 0
M  V30 270 H 24.6696 -3.75305 -1.81527 0
M  V30 271 H 23.3296 -2.58585 -1.96376 0
M  V30 272 H 24.3406 -5.12869 0.720098 0
M  V30 273 H 21.0176 -3.88102 -1.53892 0
M  V30 274 H 22.4076 -6.5504 1.49574 0
M  V30 275 N 25.1277 -0.289203 -1.54924 0
M  V30 276 C 26.0577 0.58549 -2.2604 0
M  V30 277 C 27.0387 1.14753 -1.25562 0
M  V30 278 O 28.2237 1.17906 -1.54311 0
M  V30 279 C 25.3537 1.76305 -2.99222 0
M  V30 280 C 24.3077 1.33191 -4.06748 0
M  V30 281 C 23.6337 2.5937 -4.6758 0
M  V30 282 C 24.9337 0.471775 -5.20165 0
M  V30 283 H 26.6277 -0.00763532 -2.99399 0
M  V30 284 H 24.1737 -0.00511229 -1.43999 0
M  V30 285 H 26.1267 2.38097 -3.47689 0
M  V30 286 H 24.8507 2.38223 -2.23422 0
M  V30 287 H 23.5097 0.737121 -3.59113 0
M  V30 288 H 23.1577 3.19576 -3.88433 0
M  V30 289 H 22.8577 2.31228 -5.40192 0
M  V30 290 H 24.3817 3.21985 -5.18804 0
M  V30 291 H 25.7957 0.995056 -5.64599 0
M  V30 292 H 24.1927 0.284639 -5.99425 0
M  V30 293 H 25.2627 -0.506041 -4.82252 0
M  V30 294 N 26.6058 1.57591 -0.0167156 0
M  V30 295 C 27.5378 2.06343 0.997753 0
M  V30 296 C 28.5508 0.984469 1.29661 0
M  V30 297 O 29.7398 1.26093 1.26344 0
M  V30 298 C 26.8398 2.46255 2.32834 0
M  V30 299 C 26.0128 3.77083 2.21646 0
M  V30 300 C 25.0718 4.0368 3.37534 0
M  V30 301 O 24.0978 4.7411 3.14973 0
M  V30 302 N 25.2998 3.52881 4.60929 0
M  V30 303 H 28.0648 2.93997 0.581875 0
M  V30 304 H 25.6258 1.61002 0.170316 0
M  V30 305 H 27.6178 2.61149 3.09166 0
M  V30 306 H 26.1878 1.64032 2.66106 0
M  V30 307 H 25.4078 3.72106 1.30119 0
M  V30 308 H 26.6958 4.62822 2.11361 0
M  V30 309 H 26.0938 2.95878 4.82154 0
M  V30 310 H 24.6508 3.73076 5.34469 0
M  V30 311 N 28.0839 -0.256276 1.55502 0
M  V30 312 C 29.3319 -0.983672 1.76545 0
M  V30 313 C 29.6529 -1.86206 0.578982 0
M  V30 314 O 28.9229 -1.91656 -0.405577 0
M  V30 315 H 27.5029 -0.366191 0.651086 0
M  V30 316 H 30.1649 -0.276479 1.92929 0
M  V30 317 H 29.2609 -1.61087 2.67315 0
M  V30 318 N 29.562 -1.4872 -0.521534 0
M  V30 319 C 30.51 -1.64328 -1.64618 0
M  V30 320 C 31.504 -0.50953 -1.61555 0
M  V30 321 O 32.71 -0.688525 -1.66311 0
M  V30 322 H 29.085 -0.517805 -0.545328 0
M  V30 323 H 31.056 -2.58767 -1.48601 0
M  V30 324 C 29.805 -1.70805 -3.02855 0
M  V30 325 H 29.128 -2.5741 -3.05909 0
M  V30 326 H 30.568 -1.85766 -3.81139 0
M  V30 327 C 29.027 -0.448479 -3.33902 0
M  V30 328 O 29.557 0.434928 -3.99339 0
M  V30 329 N 27.763 -0.317616 -2.88859 0
M  V30 330 H 27.31 -1.03748 -2.35784 0
M  V30 331 H 27.268 0.524113 -3.10001 0
M  V30 332 N 31.0401 0.771051 -1.3745 0
M  V30 333 C 31.9701 1.89827 -1.3597 0
M  V30 334 C 32.9511 1.68562 -0.228216 0
M  V30 335 O 34.1361 1.8941 -0.428675 0
M  V30 336 C 31.2661 3.2712 -1.16662 0
M  V30 337 C 30.2201 3.6295 -2.2683 0
M  V30 338 C 29.5461 4.98791 -1.92644 0
M  V30 339 C 30.8461 3.69627 -3.69017 0
M  V30 340 H 32.5401 1.91323 -2.30295 0
M  V30 341 H 30.0861 0.919082 -1.10855 0
M  V30 342 H 32.0391 4.05615 -1.14256 0
M  V30 343 H 30.7631 3.26059 -0.187926 0
M  V30 344 H 29.4221 2.86763 -2.28392 0
M  V30 345 H 29.0701 4.94271 -0.933021 0
M  V30 346 H 28.7701 5.23733 -2.66416 0
M  V30 347 H 30.2941 5.79685 -1.91826 0
M  V30 348 H 31.7081 4.38273 -3.69581 0
M  V30 349 H 30.1051 4.06067 -4.41848 0
M  V30 350 H 31.1751 2.70273 -4.02592 0
M  V30 351 N 32.5182 1.22032 0.997298 0
M  V30 352 C 33.7432 1.06921 1.77715 0
M  V30 353 C 34.1682 -0.376226 1.84299 0
M  V30 354 O 33.5262 -1.27165 1.29223 0
M  V30 355 C 33.5742 1.67996 3.19076 0
M  V30 356 O 32.6782 0.930653 4.01762 0
M  V30 357 H 32.0192 0.375814 0.547412 0
M  V30 358 H 34.5492 1.61737 1.25309 0
M  V30 359 H 34.5592 1.72538 3.69723 0
M  V30 360 H 33.2342 2.73182 3.13599 0
M  V30 361 H 31.8112 0.960917 3.60307 0
M  V30 362 N 33.9963 -1.19345 1.0293 0
M  V30 363 C 34.9263 -2.2481 0.631105 0
M  V30 364 C 35.9073 -1.66245 -0.360104 0
M  V30 365 O 37.0923 -1.92677 -0.242726 0
M  V30 366 C 34.2223 -3.47295 -0.0184607 0
M  V30 367 C 33.1763 -4.18536 0.895073 0
M  V30 368 C 32.5023 -5.34586 0.110592 0
M  V30 369 C 33.8023 -4.73287 2.209 0
M  V30 370 H 35.4963 -2.58372 1.51275 0
M  V30 371 H 33.0423 -1.24194 0.728818 0
M  V30 372 H 34.9953 -4.20268 -0.308675 0
M  V30 373 H 33.7193 -3.12933 -0.934907 0
M  V30 374 H 32.3783 -3.47446 1.16949 0
M  V30 375 H 32.0263 -4.96469 -0.807902 0
M  V30 376 H 31.7263 -5.83183 0.719087 0
M  V30 377 H 33.2503 -6.10355 -0.172871 0
M  V30 378 H 34.6643 -5.38013 1.98028 0
M  V30 379 H 33.0613 -5.32373 2.76946 0
M  V30 380 H 34.1313 -3.91331 2.86336 0
M  V30 381 N 35.4744 -0.807222 -1.35358 0
M  V30 382 C 36.4044 -0.232509 -2.3234 0
M  V30 383 C 37.3854 0.642386 -1.57504 0
M  V30 384 O 38.5704 0.572526 -1.85569 0
M  V30 385 C 35.7004 0.619238 -3.41735 0
M  V30 386 C 34.6544 -0.157215 -4.27711 0
M  V30 387 C 33.9804 0.816273 -5.28433 0
M  V30 388 C 35.2804 -1.35656 -5.04376 0
M  V30 389 H 36.9744 -1.04276 -2.80654 0
M  V30 390 H 34.5204 -0.50288 -1.34934 0
M  V30 391 H 36.4734 1.03137 -4.08584 0
M  V30 392 H 35.1974 1.46239 -2.92031 0
M  V30 393 H 33.8564 -0.550525 -3.62443 0
M  V30 394 H 33.5044 1.65494 -4.74996 0
M  V30 395 H 33.2044 0.301067 -5.86828 0
M  V30 396 H 34.7284 1.22659 -5.98153 0
M  V30 397 H 36.1424 -1.01927 -5.64166 0
M  V30 398 H 34.5394 -1.8063 -5.7227 0
M  V30 399 H 35.6094 -2.14288 -4.34981 0
M  V30 400 N 36.9525 1.47285 -0.560781 0
M  V30 401 C 38.1775 2.07359 -0.0410566 0
M  V30 402 C 38.6025 1.41017 1.24483 0
M  V30 403 O 37.9605 0.486368 1.74654 0
M  V30 404 C 38.0085 3.6035 0.134123 0
M  V30 405 O 37.1125 3.94681 1.19587 0
M  V30 406 H 36.4535 0.661887 -0.0529291 0
M  V30 407 H 38.9835 1.89252 -0.777482 0
M  V30 408 H 38.9935 4.0652 0.347207 0
M  V30 409 H 37.6685 4.08034 -0.805047 0
M  V30 410 H 36.2455 3.60251 0.962987 0
M  V30 411 N 38.4306 0.297415 1.54768 0
M  V30 412 C 39.8416 -0.195947 1.85669 0
M  V30 413 C 40.1926 -1.53707 1.21937 0
M  V30 414 O 39.3176 -2.10164 0.515754 0
M  V30 415 C 39.9126 -0.362318 3.36857 0
M  V30 416 C 38.4716 -0.799901 3.67802 0
M  V30 417 C 37.6186 0.0938578 2.77141 0
M  V30 418 H 40.5696 0.518538 1.4999 0
M  V30 419 H 40.5906 -1.19745 3.61167 0
M  V30 420 H 40.1026 0.613921 3.83214 0
M  V30 421 H 38.2036 -1.78682 3.26961 0
M  V30 422 H 38.3166 -0.621773 4.75048 0
M  V30 423 H 36.6806 -0.426254 2.51108 0
M  V30 424 H 37.4636 1.06639 3.26318 0
M  V30 425 N 39.9087 -1.5758 0.0250728 0
M  V30 426 C 40.8567 -2.11125 -0.97617 0
M  V30 427 C 41.8507 -1.03689 -1.33959 0
M  V30 428 O 43.0567 -1.22128 -1.3223 0
M  V30 429 H 39.4317 -0.674468 -0.332561 0
M  V30 430 H 41.4027 -2.94194 -0.499223 0
M  V30 431 C 40.1517 -2.65017 -2.2508 0
M  V30 432 H 39.4747 -3.47333 -1.9799 0
M  V30 433 H 40.9147 -3.06133 -2.93357 0
M  V30 434 C 39.3737 -1.57574 -2.97779 0
M  V30 435 O 39.9037 -0.973203 -3.89733 0
M  V30 436 N 38.1097 -1.29716 -2.60043 0
M  V30 437 H 37.6567 -1.789 -1.85345 0
M  V30 438 H 37.6147 -0.58051 -3.08994 0
M  V30 439 N 41.3868 0.248026 -1.55636 0
M  V30 440 C 42.3368 1.30994 -1.86614 0
M  V30 441 C 43.3208 1.43543 -0.726918 0
M  V30 442 O 44.5128 1.46804 -0.988818 0
M  V30 443 C 41.6418 2.6656 -2.16335 0
M  V30 444 C 40.7278 2.58019 -3.36581 0
M  V30 445 N 41.1188 2.1911 -4.55878 0
M  V30 446 C 39.4168 2.89035 -3.39669 0
M  V30 447 C 40.1178 2.21174 -5.38012 0
M  V30 448 N 39.0938 2.60632 -4.77045 0
M  V30 449 H 42.8958 0.999583 -2.76379 0
M  V30 450 H 40.4098 0.456652 -1.55848 0
M  V30 451 H 42.4068 3.43194 -2.36692 0
M  V30 452 H 41.0668 2.98463 -1.27867 0
M  V30 453 H 42.0778 1.90672 -4.81523 0
M  V30 454 H 38.7548 3.25485 -2.61469 0
M  V30 455 H 40.1448 1.9344 -6.43452 0
M  V30 456 N 42.8649 1.48995 0.513639 0
M  V30 457 C 44.0899 1.61792 1.29762 0
M  V30 458 C 44.5149 0.284475 1.85936 0
M  V30 459 O 43.8729 -0.746185 1.65232 0
M  V30 460 C 43.9209 2.67993 2.41272 0
M  V30 461 O 43.0249 2.26287 3.44772 0
M  V30 462 H 42.3659 0.541963 0.38363 0
M  V30 463 H 44.8959 1.95097 0.616307 0
M  V30 464 H 44.9059 2.89772 2.87221 0
M  V30 465 H 43.5809 3.64791 1.9975 0
M  V30 466 H 42.1579 2.14788 3.04829 0
M  V30 467 N 44.343 -0.763751 1.37857 0
M  V30 468 C 45.273 -1.89103 1.36975 0
M  V30 469 C 46.254 -1.68439 0.237152 0
M  V30 470 O 47.439 -1.8918 0.438713 0
M  V30 471 C 44.569 -3.26496 1.18395 0
M  V30 472 C 43.523 -3.61741 2.28751 0
M  V30 473 C 42.849 -4.97762 1.95286 0
M  V30 474 C 44.149 -3.67665 3.70972 0
M  V30 475 H 45.843 -1.90099 2.31307 0
M  V30 476 H 43.389 -0.91319 1.11341 0
M  V30 477 H 45.342 -4.05003 1.16406 0
M  V30 478 H 44.066 -3.25955 0.205215 0
M  V30 479 H 42.725 -2.85547 2.29909 0
M  V30 480 H 42.373 -4.93769 0.959221 0
M  V30 481 H 42.073 -5.22313 2.69189 0
M  V30 482 H 43.597 -5.7866 1.94898 0
M  V30 483 H 45.011 -4.36307 3.719 0
M  V30 484 H 43.408 -4.03718 4.43995 0
M  V30 485 H 44.478 -2.68134 4.0402 0
M  V30 486 N 45.8211 -1.22559 -0.990812 0
M  V30 487 C 46.7511 -1.0218 -2.09956 0
M  V30 488 C 47.7321 0.0579394 -1.70001 0
M  V30 489 O 48.9171 -0.104684 -1.93918 0
M  V30 490 C 46.0471 -0.601023 -3.4206 0
M  V30 491 C 45.0011 -1.62694 -3.95872 0
M  V30 492 C 44.3271 -1.06193 -5.24049 0
M  V30 493 C 45.6271 -3.01743 -4.2632 0
M  V30 494 H 47.3211 -1.94916 -2.27262 0
M  V30 495 H 44.8671 -0.938566 -1.09211 0
M  V30 496 H 46.8201 -0.445561 -4.19038 0
M  V30 497 H 45.5441 0.362005 -3.24588 0
M  V30 498 H 44.2031 -1.77021 -3.21028 0
M  V30 499 H 43.8511 -0.0901903 -5.02919 0
M  V30 500 H 43.5511 -1.74732 -5.61019 0
M  V30 501 H 45.0751 -0.918092 -6.03658 0
M  V30 502 H 46.4891 -2.90777 -4.94087 0
M  V30 503 H 44.8861 -3.67425 -4.74467 0
M  V30 504 H 45.9561 -3.51518 -3.34011 0
M  V30 505 N 47.2992 1.18797 -1.03562 0
M  V30 506 C 48.7102 1.70322 -0.764676 0
M  V30 507 C 49.0612 1.82708 0.714996 0
M  V30 508 O 48.1862 1.50299 1.55689 0
M  V30 509 C 48.7812 3.09356 -1.38145 0
M  V30 510 C 47.3402 3.58114 -1.15895 0
M  V30 511 C 46.4872 2.34798 -1.4753 0
M  V30 512 H 49.4382 1.03543 -1.20268 0
M  V30 513 H 49.4592 3.72378 -0.781977 0
M  V30 514 H 48.9712 3.00309 -2.45837 0
M  V30 515 H 47.0722 3.72464 -0.100544 0
M  V30 516 H 47.1852 4.4184 -1.8524 0
M  V30 517 H 45.5492 2.38464 -0.894829 0
M  V30 518 H 46.3322 2.28375 -2.56319 0
M  V30 519 N 48.7773 0.814389 1.34928 0
M  V30 520 C 50.1883 0.458364 1.80986 0
M  V30 521 C 50.5393 -1.02042 1.67577 0
M  V30 522 O 49.6643 -1.79352 1.21086 0
M  V30 523 C 50.2593 0.825212 3.28597 0
M  V30 524 C 48.8183 0.521677 3.72767 0
M  V30 525 C 47.9653 1.04668 2.56788 0
M  V30 526 H 50.9163 1.00533 1.22795 0
M  V30 527 H 50.9373 0.12571 3.80292 0
M  V30 528 H 50.4493 1.90154 3.38324 0
M  V30 529 H 48.5503 -0.545589 3.68584 0
M  V30 530 H 48.6633 1.05977 4.67232 0
M  V30 531 H 47.0273 0.468622 2.50352 0
M  V30 532 H 47.8103 2.12927 2.6929 0
M  V30 533 N 50.2554 -1.46986 0.568584 0
M  V30 534 C 51.2054 -2.27179 -0.193339 0
M  V30 535 C 52.1894 -1.35035 -0.874895 0
M  V30 536 O 53.3814 -1.5931 -0.771322 0
M  V30 537 C 50.5104 -3.21063 -1.21546 0
M  V30 538 C 49.5964 -4.2069 -0.536738 0
M  V30 539 N 49.9874 -5.04218 0.399673 0
M  V30 540 C 48.2854 -4.38961 -0.789254 0
M  V30 541 C 48.9864 -5.76242 0.795017 0
M  V30 542 N 47.9624 -5.434 0.1473 0
M  V30 543 H 51.7644 -2.89146 0.526458 0
M  V30 544 H 49.2784 -1.57664 0.389342 0
M  V30 545 H 51.2754 -3.77209 -1.77536 0
M  V30 546 H 49.9354 -2.60654 -1.93623 0
M  V30 547 H 50.9464 -5.12077 0.774454 0
M  V30 548 H 47.6234 -3.89713 -1.49767 0
M  V30 549 H 49.0134 -6.53417 1.56513 0
M  V30 550 N 51.7335 -0.305618 -1.54608 0
M  V30 551 C 52.6635 0.561482 -2.26649 0
M  V30 552 C 53.6445 1.13415 -1.26772 0
M  V30 553 O 54.8295 1.16262 -1.55553 0
M  V30 554 C 51.9595 1.73122 -3.01075 0
M  V30 555 C 50.9135 1.2887 -4.08138 0
M  V30 556 C 50.2395 2.54396 -4.70305 0
M  V30 557 C 51.5395 0.416578 -5.20636 0
M  V30 558 H 53.2335 -0.0393902 -2.99374 0
M  V30 559 H 50.7795 -0.020385 -1.43986 0
M  V30 560 H 52.7325 2.34396 -3.50195 0
M  V30 561 H 51.4565 2.3584 -2.25936 0
M  V30 562 H 50.1155 0.698991 -3.59875 0
M  V30 563 H 49.7635 3.15439 -3.918 0
M  V30 564 H 49.4635 2.25486 -5.42614 0
M  V30 565 H 50.9875 3.16464 -5.2219 0
M  V30 566 H 52.4015 0.935116 -5.65622 0
M  V30 567 H 50.7985 0.221046 -5.99693 0
M  V30 568 H 51.8685 -0.557162 -4.81688 0
M  V30 569 N 53.2116 1.57565 -0.0334293 0
M  V30 570 C 54.1416 2.13511 0.945265 0
M  V30 571 C 55.1226 1.05231 1.33643 0
M  V30 572 O 56.3076 1.33084 1.41429 0
M  V30 573 C 53.4376 2.6657 2.22616 0
M  V30 574 C 52.3916 3.79676 1.97561 0
M  V30 575 C 51.7176 4.1918 3.31952 0
M  V30 576 C 53.0176 5.0557 1.31135 0
M  V30 577 H 54.7116 2.95538 0.479325 0
M  V30 578 H 52.2576 1.42166 0.229115 0
M  V30 579 H 54.2106 3.04344 2.91466 0
M  V30 580 H 52.9346 1.8171 2.71384 0
M  V30 581 H 51.5936 3.42347 1.31127 0
M  V30 582 H 51.2416 3.31296 3.78487 0
M  V30 583 H 50.9416 4.95402 3.15992 0
M  V30 584 H 52.4656 4.59541 4.02063 0
M  V30 585 H 53.8796 5.40903 1.89992 0
M  V30 586 H 52.2766 5.86818 1.25559 0
M  V30 587 H 53.3466 4.84062 0.284894 0
M  V30 588 N 54.6897 -0.239769 1.55765 0
M  V30 589 C 55.6197 -1.30052 1.9393 0
M  V30 590 C 56.6007 -1.49839 0.805132 0
M  V30 591 O 57.7857 -1.62328 1.06599 0
M  V30 592 C 54.9157 -2.65391 2.2402 0
M  V30 593 C 53.8697 -2.60289 3.39755 0
M  V30 594 C 53.1957 -3.99489 3.55405 0
M  V30 595 C 54.4957 -2.16654 4.75246 0
M  V30 596 H 56.1897 -0.983573 2.82783 0
M  V30 597 H 53.7357 -0.471701 1.36055 0
M  V30 598 H 55.6887 -3.3974 2.49308 0
M  V30 599 H 54.4127 -2.98736 1.32 0
M  V30 600 H 53.0717 -1.88398 3.14487 0
M  V30 601 H 52.7197 -4.30112 2.60793 0
M  V30 602 H 52.4197 -3.96962 4.33238 0
M  V30 603 H 53.9437 -4.75528 3.83022 0
M  V30 604 H 55.3577 -2.80737 4.99859 0
M  V30 605 H 53.7547 -2.25223 5.56232 0
M  V30 606 H 54.8247 -1.11835 4.71827 0
M  V30 607 N 56.1678 -1.49265 -0.50573 0
M  V30 608 C 57.1158 -1.66065 -1.62866 0
M  V30 609 C 58.1098 -0.526636 -1.61006 0
M  V30 610 O 59.3158 -0.706126 -1.65571 0
M  V30 611 H 55.6908 -0.52356 -0.539805 0
M  V30 612 H 57.6618 -2.60329 -1.45848 0
M  V30 613 C 56.4108 -1.74008 -3.01026 0
M  V30 614 H 55.7338 -2.6064 -3.03161 0
M  V30 615 H 57.1738 -1.89798 -3.79147 0
M  V30 616 C 55.6328 -0.483868 -3.33407 0
M  V30 617 O 56.1628 0.392548 -3.99777 0
M  V30 618 N 54.3688 -0.348236 -2.88506 0
M  V30 619 H 53.9158 -1.06242 -2.34671 0
M  V30 620 H 53.8738 0.491204 -3.10539 0
M  V30 621 N 57.6459 0.756429 -1.3826 0
M  V30 622 C 58.6089 1.85176 -1.35065 0
M  V30 623 C 59.6089 1.58818 -0.251703 0
M  V30 624 O 60.7989 1.66615 -0.508433 0
M  V30 625 C 57.9309 3.22596 -1.10201 0
M  V30 626 H 59.1239 1.89417 -2.3251 0
M  V30 627 H 56.6769 0.95783 -1.23512 0
M  V30 628 H 57.4119 3.24025 -0.133504 0
M  V30 629 H 57.1969 3.43122 -1.89762 0
M  V30 630 H 58.6869 4.02673 -1.10654 0
M  V30 631 N 59.124 1.23083 0.984299 0
M  V30 632 C 60.349 1.088 1.76571 0
M  V30 633 C 60.774 -0.356657 1.84688 0
M  V30 634 O 60.132 -1.25788 1.30565 0
M  V30 635 C 60.18 1.71371 3.17277 0
M  V30 636 O 59.284 0.973213 4.00752 0
M  V30 637 H 58.625 0.381599 0.543395 0
M  V30 638 H 61.155 1.63057 1.23587 0
M  V30 639 H 61.165 1.76449 3.67872 0
M  V30 640 H 59.84 2.76493 3.10684 0
M  V30 641 H 58.417 0.999078 3.59267 0
M  V30 642 N 60.6021 -1.18246 1.0419 0
M  V30 643 C 61.5521 -2.19843 0.604392 0
M  V30 644 C 62.5361 -1.56962 -0.353814 0
M  V30 645 O 63.7281 -1.76156 -0.17267 0
M  V30 646 C 60.8571 -3.43287 -0.0298975 0
M  V30 647 C 59.9431 -4.13288 0.951531 0
M  V30 648 N 60.3341 -4.59271 2.11906 0
M  V30 649 C 58.6321 -4.39165 0.7778 0
M  V30 650 C 59.3331 -5.13173 2.73912 0
M  V30 651 N 58.3091 -5.04763 2.01779 0
M  V30 652 H 62.1111 -2.53089 1.4941 0
M  V30 653 H 59.6251 -1.34465 0.910658 0
M  V30 654 H 61.6221 -4.15334 -0.361037 0
M  V30 655 H 60.2821 -3.11537 -0.915127 0
M  V30 656 H 61.2931 -4.5368 2.49789 0
M  V30 657 H 57.9701 -4.17461 -0.0572331 0
M  V30 658 H 59.3601 -5.58947 3.72864 0
M  V30 659 N 62.0802 -0.821533 -1.34494 0
M  V30 660 C 63.3282 -0.408139 -1.97936 0
M  V30 661 C 63.6492 1.03193 -1.65457 0
M  V30 662 O 62.9192 1.71622 -0.944595 0
M  V30 663 H 61.4992 -0.147928 -0.732206 0
M  V30 664 H 64.1612 -1.05067 -1.64155 0
M  V30 665 H 63.2572 -0.52601 -3.07635 0
M  V30 666 N 63.5583 1.46682 -0.576371 0
M  V30 667 C 64.5213 2.28707 0.150239 0
M  V30 668 C 65.5213 1.38035 0.824794 0
M  V30 669 O 66.7113 1.60476 0.677719 0
M  V30 670 C 63.8433 3.18248 1.22192 0
M  V30 671 H 65.0363 2.94423 -0.570521 0
M  V30 672 H 62.5893 1.52688 -0.334078 0
M  V30 673 H 63.3243 2.57265 1.97447 0
M  V30 674 H 63.1093 3.85 0.742812 0
M  V30 675 H 64.5993 3.80001 1.73172 0
M  V30 676 N 65.0364 0.313813 1.54444 0
M  V30 677 C 66.2834 -0.291675 2.00388 0
M  V30 678 C 66.6114 -1.52904 1.2021 0
M  V30 679 O 65.8664 -1.93833 0.269707 0
M  V30 680 C 66.1654 -0.680386 3.50864 0
M  V30 681 C 65.8314 0.456699 4.48581 0
M  V30 682 C 64.4934 0.768824 4.75018 0
M  V30 683 C 66.8454 1.22098 5.06697 0
M  V30 684 C 64.1734 1.84812 5.56831 0
M  V30 685 C 66.5254 2.29029 5.89685 0
M  V30 686 C 65.1894 2.60834 6.14428 0
M  V30 687 H 64.4594 -0.106732 0.733273 0
M  V30 688 H 67.1064 0.43557 1.86481 0
M  V30 689 H 65.4114 -1.48791 3.62448 0
M  V30 690 H 67.1084 -1.16026 3.83847 0
M  V30 691 H 63.6984 0.203337 4.28117 0
M  V30 692 H 67.8824 0.993096 4.86263 0
M  V30 693 H 63.1384 2.09912 5.74236 0
M  V30 694 H 67.3124 2.887 6.33739 0
M  V30 695 H 64.9394 3.44596 6.77612 0
M  V30 696 N 66.5145 -1.57545 0.0417849 0
M  V30 697 C 67.4445 -2.14009 -0.933929 0
M  V30 698 C 68.4255 -1.05938 -1.33083 0
M  V30 699 O 69.6105 -1.33833 -1.40721 0
M  V30 700 C 66.7405 -2.67747 -2.21199 0
M  V30 701 C 65.6945 -3.80718 -1.95544 0
M  V30 702 C 65.0205 -4.20935 -3.29724 0
M  V30 703 C 66.3205 -5.06258 -1.28452 0
M  V30 704 H 68.0145 -2.95788 -0.463645 0
M  V30 705 H 65.5605 -1.42285 -0.221573 0
M  V30 706 H 67.5135 -3.05886 -2.89848 0
M  V30 707 H 66.2375 -1.83147 -2.70416 0
M  V30 708 H 64.8965 -3.43037 -1.2931 0
M  V30 709 H 64.5445 -3.33298 -3.76724 0
M  V30 710 H 64.2445 -4.9707 -3.13361 0
M  V30 711 H 65.7685 -4.61666 -3.9962 0
M  V30 712 H 67.1825 -5.41903 -1.8712 0
M  V30 713 H 65.5795 -5.87475 -1.22445 0
M  V30 714 H 66.6495 -4.84207 -0.259219 0
M  V30 715 N 67.9926 0.231505 -1.5589 0
M  V30 716 C 69.4036 0.799327 -1.68724 0
M  V30 717 C 69.7546 1.85398 -0.642022 0
M  V30 718 O 68.8796 2.1539 0.208784 0
M  V30 719 C 69.4746 1.45664 -3.05888 0
M  V30 720 C 68.0336 1.97197 -3.20609 0
M  V30 721 C 67.1806 0.828552 -2.64632 0
M  V30 722 H 70.1316 0.00702616 -1.58698 0
M  V30 723 H 70.1526 2.32517 -3.01191 0
M  V30 724 H 69.6646 0.688808 -3.81939 0
M  V30 725 H 67.7656 2.76813 -2.4941 0
M  V30 726 H 67.8786 2.15878 -4.27707 0
M  V30 727 H 66.2426 1.23321 -2.22854 0
M  V30 728 H 67.0256 0.0735544 -3.43221 0
M  V30 729 N 69.4707 1.49531 0.497807 0
M  V30 730 C 70.4007 1.6935 1.60757 0
M  V30 731 C 71.3817 0.542218 1.61227 0
M  V30 732 O 72.5667 0.778417 1.77917 0
M  V30 733 C 69.6967 1.76298 2.99226 0
M  V30 734 C 68.6507 2.91248 3.13622 0
M  V30 735 C 67.9767 2.83312 4.53474 0
M  V30 736 C 69.2767 4.3214 2.93346 0
M  V30 737 H 70.9707 2.62263 1.44425 0
M  V30 738 H 68.5167 1.26208 0.693367 0
M  V30 739 H 70.4697 1.88749 3.76765 0
M  V30 740 H 69.1937 0.799871 3.16654 0
M  V30 741 H 67.8527 2.78404 2.38509 0
M  V30 742 H 67.5007 1.84902 4.67782 0
M  V30 743 H 67.2007 3.60465 4.64046 0
M  V30 744 H 68.7247 2.97775 5.33069 0
M  V30 745 H 70.1387 4.45649 3.60652 0
M  V30 746 H 68.5357 5.1054 3.15387 0
M  V30 747 H 69.6057 4.46363 1.89441 0
M  V30 748 N 70.9488 -0.749086 1.3866 0
M  V30 749 C 72.1968 -1.50535 1.34847 0
M  V30 750 C 72.5178 -1.94909 -0.0595016 0
M  V30 751 O 71.7878 -1.67973 -1.00806 0
M  V30 752 H 70.3678 -0.558395 0.49619 0
M  V30 753 H 73.0298 -0.890165 1.73384 0
M  V30 754 H 72.1258 -2.39413 2.00219 0
M  V30 755 N 72.4269 -1.23603 -0.977757 0
M  V30 756 C 73.3569 -1.04401 -2.0886 0
M  V30 757 C 74.3379 0.0399052 -1.70053 0
M  V30 758 O 75.5229 -0.125246 -1.93796 0
M  V30 759 C 72.6529 -0.637269 -3.41403 0
M  V30 760 C 71.6069 -1.66883 -3.94124 0
M  V30 761 C 70.9329 -1.11745 -5.22893 0
M  V30 762 C 72.2329 -3.06247 -4.23096 0
M  V30 763 H 73.9269 -1.97316 -2.25182 0
M  V30 764 H 71.4729 -0.950096 -1.08209 0
M  V30 765 H 73.4259 -0.48998 -4.18542 0
M  V30 766 H 72.1499 0.327557 -3.24953 0
M  V30 767 H 70.8089 -1.80416 -3.19133 0
M  V30 768 H 70.4569 -0.143527 -5.02795 0
M  V30 769 H 70.1569 -1.80672 -5.59134 0
M  V30 770 H 71.6809 -0.982067 -6.02651 0
M  V30 771 H 73.0949 -2.96001 -4.90975 0
M  V30 772 H 71.4919 -3.72436 -4.70544 0
M  V30 773 H 72.5619 -3.55041 -3.30263 0
M  V30 774 N 73.905 1.17692 -1.04816 0
M  V30 775 C 74.852 2.21581 -0.645797 0
M  V30 776 C 75.822 1.62367 0.350159 0
M  V30 777 O 77.007 1.89254 0.242433 0
M  V30 778 C 74.147 3.45092 -0.0227568 0
M  V30 779 C 73.26 4.18613 -1.06709 0
M  V30 780 C 72.395 5.29602 -0.411767 0
M  V30 781 C 71.434 5.94904 -1.44067 0
M  V30 782 N 70.571 6.97414 -0.809781 0
M  V30 783 H 75.411 2.55353 -1.5362 0
M  V30 784 H 72.948 1.25438 -0.768364 0
M  V30 785 H 74.906 4.15679 0.35588 0
M  V30 786 H 73.536 3.11917 0.831122 0
M  V30 787 H 72.588 3.46779 -1.5636 0
M  V30 788 H 73.9 4.63293 -1.84827 0
M  V30 789 H 73.054 6.06696 0.0206623 0
M  V30 790 H 71.793 4.86045 0.401438 0
M  V30 791 H 70.798 5.16544 -1.88316 0
M  V30 792 H 72.023 6.40542 -2.25571 0
M  V30 793 H 69.969 6.55998 -0.0170186 0
M  V30 794 H 69.886 7.40386 -1.52856 0
M  V30 795 H 71.154 7.78463 -0.401999 0
M  V30 796 N 75.3831 0.828654 1.34056 0
M  V30 797 C 76.6291 0.42008 1.98402 0
M  V30 798 C 76.9621 -1.01564 1.65525 0
M  V30 799 O 76.2371 -1.70834 0.929831 0
M  V30 800 C 76.5201 0.62927 3.54559 0
M  V30 801 C 76.3731 2.11152 3.97159 0
M  V30 802 C 77.6921 0.0688756 4.40046 0
M  V30 803 H 74.8111 0.154104 0.720709 0
M  V30 804 H 77.4531 1.04228 1.5886 0
M  V30 805 H 75.6031 0.0996418 3.88372 0
M  V30 806 H 77.2751 2.70522 3.73651 0
M  V30 807 H 75.5181 2.59985 3.47261 0
M  V30 808 H 76.1891 2.20868 5.05887 0
M  V30 809 H 78.6651 0.521458 4.1282 0
M  V30 810 H 77.5411 0.245006 5.48353 0
M  V30 811 H 77.8021 -1.0266 4.30015 0
M  V30 812 N 76.8612 -1.46375 0.584142 0
M  V30 813 C 78.0892 -2.06761 0.0759296 0
M  V30 814 C 78.5042 -1.43266 -1.22965 0
M  V30 815 O 77.8612 -0.538458 -1.74376 0
M  V30 816 C 77.9122 -3.61375 -0.0950384 0
M  V30 817 O 77.6332 -4.22495 1.15887 0
M  V30 818 C 79.1342 -4.38693 -0.637434 0
M  V30 819 H 76.3542 -0.668479 0.0581075 0
M  V30 820 H 78.8982 -1.8798 0.805218 0
M  V30 821 H 77.0532 -3.79578 -0.774554 0
M  V30 822 H 77.4672 -5.15385 0.973598 0
M  V30 823 H 78.9412 -5.47464 -0.706237 0
M  V30 824 H 79.4182 -4.06836 -1.65472 0
M  V30 825 H 80.0242 -4.25299 0.00725967 0
M  V30 826 N 78.3393 -0.321999 -1.54275 0
M  V30 827 C 79.5883 0.281931 -1.9972 0
M  V30 828 C 79.9013 1.53369 -1.21397 0
M  V30 829 O 81.1073 2.21352 -1.57211 0
M  V30 830 C 79.5633 0.5529 -3.55628 0
M  V30 831 C 79.1713 -0.681721 -4.42783 0
M  V30 832 C 80.9153 1.11687 -4.09544 0
M  V30 833 C 78.8223 -0.382742 -5.9016 0
M  V30 834 H 77.7523 0.109124 -0.746062 0
M  V30 835 H 80.4033 -0.43398 -1.78294 0
M  V30 836 H 78.7853 1.32896 -3.73035 0
M  V30 837 H 79.9593 -1.45723 -4.37151 0
M  V30 838 H 78.2743 -1.1658 -3.99748 0
M  V30 839 H 80.8713 1.35515 -5.17242 0
M  V30 840 H 81.2143 2.06575 -3.61431 0
M  V30 841 H 81.7473 0.402032 -3.95763 0
M  V30 842 H 78.4863 -1.30076 -6.42464 0
M  V30 843 H 78.0063 0.355094 -5.98748 0
M  V30 844 H 79.6853 0.00800157 -6.47 0
M  V30 845 N 79.8174 1.5752 -0.0501392 0
M  V30 846 C 81.0634 1.92936 0.624798 0
M  V30 847 C 81.3964 0.928685 1.70555 0
M  V30 848 O 80.6714 -0.0454779 1.94447 0
M  V30 849 C 80.9544 3.38737 1.22185 0
M  V30 850 C 80.8074 4.49552 0.149218 0
M  V30 851 C 82.1264 3.84913 2.13378 0
M  V30 852 H 79.2454 0.701604 0.225657 0
M  V30 853 H 81.8874 1.89671 -0.111693 0
M  V30 854 H 80.0374 3.4165 1.84953 0
M  V30 855 H 81.7094 4.58768 -0.482648 0
M  V30 856 H 79.9524 4.30638 -0.522841 0
M  V30 857 H 80.6234 5.48653 0.606966 0
M  V30 858 H 83.0994 3.8387 1.60572 0
M  V30 859 H 81.9754 4.87584 2.52097 0
M  V30 860 H 82.2364 3.21611 3.03346 0
M  V30 861 N 81.2955 -0.223234 1.56011 0
M  V30 862 C 82.5435 -0.946003 1.78592 0
M  V30 863 C 82.8645 -1.84936 0.618349 0
M  V30 864 O 82.1345 -1.92473 -0.364833 0
M  V30 865 H 80.7145 -0.352298 0.658707 0
M  V30 866 H 83.3765 -0.235494 1.93472 0
M  V30 867 H 82.4725 -1.55381 2.70672 0
M  V30 868 N 82.7736 -1.49793 -0.48987 0
M  V30 869 C 83.7036 -1.70201 -1.59856 0
M  V30 870 C 84.6846 -0.55076 -1.60937 0
M  V30 871 O 85.8696 -0.787841 -1.77501 0
M  V30 872 C 82.9996 -1.77882 -2.98287 0
M  V30 873 C 81.9536 -2.92907 -3.12073 0
M  V30 874 C 81.2796 -2.85712 -4.51965 0
M  V30 875 C 82.5796 -4.3369 -2.91051 0
M  V30 876 H 84.2736 -2.63025 -1.43032 0
M  V30 877 H 81.8196 -1.26574 -0.686664 0
M  V30 878 H 83.7726 -1.90744 -3.75759 0
M  V30 879 H 82.4966 -0.816653 -3.16225 0
M  V30 880 H 81.1556 -2.79665 -2.37029 0
M  V30 881 H 80.8036 -1.8738 -4.66795 0
M  V30 882 H 80.5036 -3.62921 -4.62128 0
M  V30 883 H 82.0276 -3.00598 -5.31482 0
M  V30 884 H 83.4416 -4.47555 -3.58284 0
M  V30 885 H 81.8386 -5.12205 -3.12675 0
M  V30 886 H 82.9086 -4.47362 -1.87071 0
M  V30 887 N 84.2517 0.741722 -1.39055 0
M  V30 888 C 85.4817 1.52876 -1.3897 0
M  V30 889 C 85.8897 1.8919 0.0193266 0
M  V30 890 O 85.2327 1.54138 0.999356 0
M  V30 891 C 85.2947 2.84929 -2.19216 0
M  V30 892 C 84.9587 2.71086 -3.67915 0
M  V30 893 C 85.9557 2.40084 -4.61146 0
M  V30 894 C 83.6407 2.88168 -4.11418 0
M  V30 895 C 85.6347 2.26335 -5.95862 0
M  V30 896 C 83.3217 2.74037 -5.46211 0
M  V30 897 C 84.3197 2.43166 -6.38247 0
M  V30 898 O 84.0077 2.29115 -7.70559 0
M  V30 899 H 83.7397 0.479252 -0.476753 0
M  V30 900 H 86.2937 0.924751 -1.83405 0
M  V30 901 H 84.5237 3.47564 -1.69518 0
M  V30 902 H 86.2127 3.46509 -2.11392 0
M  V30 903 H 86.9787 2.26545 -4.28838 0
M  V30 904 H 82.8577 3.11191 -3.40119 0
M  V30 905 H 86.4017 2.0216 -6.67665 0
M  V30 906 H 82.2987 2.87153 -5.78112 0
M  V30 907 H 83.0667 2.44237 -7.81211 0
M  V30 908 N 85.7298 1.2412 0.971189 0
M  V30 909 C 86.6598 1.05508 2.08304 0
M  V30 910 C 87.6408 -0.0308864 1.70072 0
M  V30 911 O 88.8258 0.135521 1.93727 0
M  V30 912 C 85.9558 0.655365 3.4106 0
M  V30 913 C 84.9098 1.68971 3.93234 0
M  V30 914 C 84.2358 1.14516 5.22293 0
M  V30 915 C 85.5358 3.08487 4.21465 0
M  V30 916 H 87.2298 1.98507 2.24132 0
M  V30 917 H 84.7758 0.955821 1.07704 0
M  V30 918 H 86.7288 0.51217 4.18276 0
M  V30 919 H 85.4528 -0.31032 3.25122 0
M  V30 920 H 84.1118 1.82106 3.18171 0
M  V30 921 H 83.7598 0.170189 5.02712 0
M  V30 922 H 83.4598 1.83635 5.58168 0
M  V30 923 H 84.9838 1.01401 6.02121 0
M  V30 924 H 86.3978 2.98601 4.89398 0
M  V30 925 H 84.7948 3.74926 4.68562 0
M  V30 926 H 85.8648 3.56787 3.28376 0
M  V30 927 N 87.2079 -1.17134 1.05439 0
M  V30 928 C 88.1709 -2.19439 0.661764 0
M  V30 929 C 89.1709 -1.58199 -0.288042 0
M  V30 930 O 90.3609 -1.74053 -0.0715803 0
M  V30 931 C 87.4929 -3.40889 -0.0276209 0
M  V30 932 H 88.6859 -2.55688 1.56728 0
M  V30 933 H 86.2389 -1.31259 0.848567 0
M  V30 934 H 86.9739 -3.10187 -0.94629 0
M  V30 935 H 86.7589 -3.86586 0.655238 0
M  V30 936 H 88.2489 -4.16603 -0.288342 0
M  V30 937 N 88.686 -0.835752 -1.33615 0
M  V30 938 C 89.932 -0.430596 -1.98176 0
M  V30 939 C 90.265 1.00684 -1.66061 0
M  V30 940 O 89.54 1.70339 -0.938877 0
M  V30 941 C 89.823 -0.648065 -3.5422 0
M  V30 942 C 89.676 -2.13255 -3.96033 0
M  V30 943 C 90.995 -0.0922113 -4.40003 0
M  V30 944 H 88.114 -0.157924 -0.719881 0
M  V30 945 H 90.756 -1.05069 -1.58305 0
M  V30 946 H 88.906 -0.120237 -3.88314 0
M  V30 947 H 90.578 -2.725 -3.72211 0
M  V30 948 H 88.821 -2.61823 -3.45878 0
M  V30 949 H 89.492 -2.23547 -5.04708 0
M  V30 950 H 91.968 -0.543343 -4.12537 0
M  V30 951 H 90.844 -0.274083 -5.48215 0
M  V30 952 H 91.105 1.00378 -4.30554 0
M  V30 953 N 90.1641 1.46063 -0.591896 0
M  V30 954 C 91.4041 2.04228 -0.0838014 0
M  V30 955 C 91.7681 1.45231 1.25587 0
M  V30 956 O 92.9691 1.94653 1.85375 0
M  V30 957 C 91.2401 3.57389 -0.0286282 0
M  V30 958 S 92.7991 4.3678 0.420557 0
M  V30 959 H 89.6171 0.709762 -0.0419319 0
M  V30 960 H 92.2191 1.78983 -0.786465 0
M  V30 961 H 90.9231 3.97843 -1.00743 0
M  V30 962 H 90.4541 3.87185 0.69652 0
M  V30 963 H 92.4691 4.67131 1.67341 0
M  V30 964 N 91.6422 0.330177 1.54103 0
M  V30 965 C 92.8882 -0.270806 2.00984 0
M  V30 966 C 93.2212 -1.51265 1.21789 0
M  V30 967 O 92.4962 -1.92142 0.301927 0
M  V30 968 C 92.7792 -0.598339 3.55094 0
M  V30 969 C 92.6322 0.654674 4.4501 0
M  V30 970 C 93.9512 -1.41334 4.16789 0
M  V30 971 H 91.0702 -0.0969531 0.730595 0
M  V30 972 H 93.7122 0.448066 1.84641 0
M  V30 973 H 91.8622 -1.21078 3.69151 0
M  V30 974 H 93.5342 1.29285 4.42813 0
M  V30 975 H 91.7772 1.28224 4.14416 0
M  V30 976 H 92.4482 0.380944 5.50684 0
M  V30 977 H 94.9242 -0.895597 4.06347 0
M  V30 978 H 93.8002 -1.61127 5.24718 0
M  V30 979 H 94.0612 -2.41146 3.70541 0
M  V30 980 N 93.1203 -1.57491 0.0584922 0
M  V30 981 C 94.3683 -1.92597 -0.612436 0
M  V30 982 C 94.6893 -0.938162 -1.70949 0
M  V30 983 O 93.9593 0.0158301 -1.95894 0
M  V30 984 H 92.5393 -0.710964 -0.229214 0
M  V30 985 H 95.2013 -1.94571 0.113218 0
M  V30 986 H 94.2973 -2.94038 -1.04633 0
M  V30 987 N 94.5984 0.214957 -1.56127 0
M  V30 988 C 95.8464 0.936518 -1.79091 0
M  V30 989 C 96.1674 1.84606 -0.628148 0
M  V30 990 O 95.4374 1.92664 0.35462 0
M  V30 991 H 94.0174 0.3488 -0.660566 0
M  V30 992 H 96.6794 0.22523 -1.93594 0
M  V30 993 H 95.7754 1.53943 -2.71492 0
M  V30 994 N 96.0765 1.50051 0.48192 0
M  V30 995 C 97.0065 1.71046 1.58951 0
M  V30 996 C 97.9875 0.559288 1.60642 0
M  V30 997 O 99.1725 0.797243 1.77081 0
M  V30 998 C 96.3025 1.79462 2.97339 0
M  V30 999 C 95.2565 2.94558 3.10515 0
M  V30 1000 C 94.5825 2.88105 4.50444 0
M  V30 1001 C 95.8825 4.35227 2.88747 0
M  V30 1002 H 97.5765 2.6378 1.41635 0
M  V30 1003 H 95.1225 1.26936 0.679942 0
M  V30 1004 H 97.0755 1.92734 3.74742 0
M  V30 1005 H 95.7995 0.833412 3.15788 0
M  V30 1006 H 94.4585 2.80918 2.35543 0
M  V30 1007 H 94.1065 1.89853 4.65795 0
M  V30 1008 H 93.8065 3.65366 4.60197 0
M  V30 1009 H 95.3305 3.03412 5.29881 0
M  V30 1010 H 96.7445 4.49449 3.55905 0
M  V30 1011 H 95.1415 5.13856 3.09955 0
M  V30 1012 H 96.2115 4.48347 1.84696 0
M  V30 1013 N 97.5546 -0.734337 1.39446 0
M  V30 1014 C 98.4846 -1.86155 1.40955 0
M  V30 1015 C 99.4656 -1.67898 0.272827 0
M  V30 1016 O 100.651 -1.88207 0.478743 0
M  V30 1017 C 97.7806 -3.23912 1.25294 0
M  V30 1018 C 96.7346 -3.56808 2.36373 0
M  V30 1019 C 96.0606 -4.93508 2.058 0
M  V30 1020 C 97.3606 -3.59713 3.78687 0
M  V30 1021 H 99.0546 -1.8515 2.35287 0
M  V30 1022 H 96.6006 -0.889367 1.13253 0
M  V30 1023 H 98.5536 -4.02443 1.2497 0
M  V30 1024 H 97.2776 -3.25446 0.274308 0
M  V30 1025 H 95.9366 -2.80606 2.35914 0
M  V30 1026 H 95.5846 -4.91623 1.06374 0
M  V30 1027 H 95.2846 -5.16486 2.80208 0
M  V30 1028 H 96.8086 -5.74396 2.07128 0
M  V30 1029 H 98.2226 -4.2832 3.81071 0
M  V30 1030 H 96.6196 -3.94209 4.52459 0
M  V30 1031 H 97.6896 -2.59504 4.09617 0
M  V30 1032 N 99.0327 -1.24633 -0.964593 0
M  V30 1033 C 100.281 -1.08573 -1.70459 0
M  V30 1034 C 100.602 0.375655 -1.91347 0
M  V30 1035 O 99.8717 1.26779 -1.49345 0
M  V30 1036 H 98.4517 -0.398784 -0.631649 0
M  V30 1037 H 101.114 -1.56601 -1.16026 0
M  V30 1038 H 100.21 -1.58623 -2.68785 0
M  V30 1039 N 100.511 1.16574 -1.06058 0
M  V30 1040 C 101.459 2.22941 -0.663343 0
M  V30 1041 C 102.453 1.66358 0.319593 0
M  V30 1042 O 103.659 1.7905 0.184713 0
M  V30 1043 H 100.034 0.725907 -0.196376 0
M  V30 1044 H 102.005 2.53736 -1.57037 0
M  V30 1045 C 100.754 3.47642 -0.0632808 0
M  V30 1046 H 100.077 3.91493 -0.810733 0
M  V30 1047 H 101.517 4.2363 0.177177 0
M  V30 1048 C 99.9758 3.1509 1.19248 0
M  V30 1049 O 100.506 3.30673 2.28075 0
M  V30 1050 N 98.7118 2.6924 1.09353 0
M  V30 1051 H 98.2588 2.5676 0.207912 0
M  V30 1052 H 98.2168 2.47833 1.93458 0
M  V30 1053 N 101.989 0.842826 1.3317 0
M  V30 1054 C 103.229 0.446574 1.99462 0
M  V30 1055 C 103.593 -0.976818 1.65295 0
M  V30 1056 O 104.794 -1.477 2.24584 0
M  V30 1057 C 103.065 0.665353 3.51152 0
M  V30 1058 S 104.624 0.364911 4.3728 0
M  V30 1059 H 101.442 0.167803 0.690915 0
M  V30 1060 H 104.044 1.09297 1.62094 0
M  V30 1061 H 102.748 1.7006 3.73507 0
M  V30 1062 H 102.279 0.00494568 3.934 0
M  V30 1063 H 104.294 -0.813761 4.89482 0
M  V30 1064 N 103.467 -1.45747 0.599634 0
M  V30 1065 C 104.397 -2.33235 -0.111306 0
M  V30 1066 C 105.378 -1.46359 -0.866781 0
M  V30 1067 O 106.563 -1.75146 -0.838904 0
M  V30 1068 C 103.693 -3.28932 -1.11451 0
M  V30 1069 C 102.647 -4.25381 -0.472772 0
M  V30 1070 C 101.973 -5.1071 -1.58365 0
M  V30 1071 C 103.273 -5.18831 0.600948 0
M  V30 1072 H 104.967 -2.92927 0.61919 0
M  V30 1073 H 102.513 -1.40857 0.299215 0
M  V30 1074 H 104.466 -3.89002 -1.62036 0
M  V30 1075 H 103.19 -2.67381 -1.8755 0
M  V30 1076 H 101.849 -3.66598 0.0121472 0
M  V30 1077 H 101.497 -4.45533 -2.33473 0
M  V30 1078 H 101.197 -5.7604 -1.15982 0
M  V30 1079 H 102.721 -5.73647 -2.09194 0
M  V30 1080 H 104.135 -5.73019 0.179491 0
M  V30 1081 H 102.532 -5.92595 0.946076 0
M  V30 1082 H 103.602 -4.6174 1.48068 0
M  V30 1083 N 104.945 -0.338344 -1.53925 0
M  V30 1084 C 106.191 0.260143 -2.01125 0
M  V30 1085 C 106.524 1.50617 -1.22589 0
M  V30 1086 O 105.799 1.91979 -0.312113 0
M  V30 1087 C 106.082 0.579499 -3.55407 0
M  V30 1088 C 105.935 -0.678264 -4.44657 0
M  V30 1089 C 107.254 1.39122 -4.17532 0
M  V30 1090 H 104.373 0.0930772 -0.731099 0
M  V30 1091 H 107.015 -0.457852 -1.84401 0
M  V30 1092 H 105.165 1.19118 -3.69788 0
M  V30 1093 H 106.837 -1.31631 -4.42121 0
M  V30 1094 H 105.08 -1.3042 -4.13731 0
M  V30 1095 H 105.751 -0.410143 -5.50474 0
M  V30 1096 H 108.227 0.874035 -4.06817 0
M  V30 1097 H 107.103 1.58342 -5.25565 0
M  V30 1098 H 107.364 2.39178 -3.71815 0
M  V30 1099 N 106.423 1.57458 -0.0668435 0
M  V30 1100 C 107.356 2.08033 0.93795 0
M  V30 1101 C 108.334 0.984321 1.29421 0
M  V30 1102 O 109.518 1.25736 1.40437 0
M  V30 1103 C 106.645 2.53388 2.24749 0
M  V30 1104 C 105.691 3.74376 2.04315 0
M  V30 1105 S 106.524 5.19303 1.30706 0
M  V30 1106 C 107.68 5.67986 2.62951 0
M  V30 1107 H 107.913 2.92935 0.50759 0
M  V30 1108 H 105.446 1.5371 0.145804 0
M  V30 1109 H 107.404 2.8018 3.00016 0
M  V30 1110 H 106.065 1.68763 2.64911 0
M  V30 1111 H 105.258 4.04083 3.01218 0
M  V30 1112 H 104.86 3.47931 1.37186 0
M  V30 1113 H 107.152 5.74528 3.5906 0
M  V30 1114 H 108.095 6.66955 2.3786 0
M  V30 1115 H 108.503 4.95781 2.69929 0
M  V30 1116 N 107.901 -0.206675 1.56239 0
M  V30 1117 C 109.131 -0.943975 1.83773 0
M  V30 1118 C 109.539 -1.77841 0.645703 0
M  V30 1119 O 108.882 -1.79403 -0.395008 0
M  V30 1120 C 108.944 -1.899 3.05251 0
M  V30 1121 C 108.608 -1.24764 4.39639 0
M  V30 1122 C 109.605 -0.630216 5.16066 0
M  V30 1123 C 107.29 -1.25496 4.8637 0
M  V30 1124 C 109.284 -0.0287946 6.37393 0
M  V30 1125 C 106.971 -0.649698 6.07637 0
M  V30 1126 C 107.969 -0.0376845 6.8299 0
M  V30 1127 O 107.657 0.55812 8.0196 0
M  V30 1128 H 107.389 -0.281508 0.614597 0
M  V30 1129 H 109.943 -0.222458 2.04192 0
M  V30 1130 H 108.173 -2.6599 2.80689 0
M  V30 1131 H 109.862 -2.5031 3.1953 0
M  V30 1132 H 110.628 -0.616785 4.81062 0
M  V30 1133 H 106.507 -1.72072 4.27683 0
M  V30 1134 H 110.051 0.449518 6.9615 0
M  V30 1135 H 105.948 -0.660592 6.42111 0
M  V30 1136 H 106.716 0.453891 8.17241 0
M  V30 1137 N 109.379 -1.50304 -0.473955 0
M  V30 1138 C 110.625 -1.61389 -1.22806 0
M  V30 1139 C 110.958 -0.311955 -1.91678 0
M  V30 1140 O 110.233 0.686384 -1.81986 0
M  V30 1141 C 110.516 -2.79219 -2.27396 0
M  V30 1142 C 110.369 -4.19286 -1.62848 0
M  V30 1143 C 111.688 -2.92614 -3.28732 0
M  V30 1144 H 108.807 -0.587399 -0.445119 0
M  V30 1145 H 111.449 -1.82681 -0.522265 0
M  V30 1146 H 109.599 -2.61195 -2.87592 0
M  V30 1147 H 111.271 -4.48892 -1.06271 0
M  V30 1148 H 109.514 -4.23677 -0.931693 0
M  V30 1149 H 110.185 -4.97655 -2.38838 0
M  V30 1150 H 112.661 -3.09105 -2.78556 0
M  V30 1151 H 111.537 -3.76688 -3.99246 0
M  V30 1152 H 111.798 -2.03107 -3.92683 0
M  V30 1153 N 110.857 0.726932 -1.39834 0
M  V30 1154 C 112.106 1.48214 -1.36805 0
M  V30 1155 C 112.419 1.95576 0.0305291 0
M  V30 1156 O 113.625 2.7088 0.183417 0
M  V30 1157 C 112.081 2.67854 -2.40379 0
M  V30 1158 C 111.689 2.27408 -3.85992 0
M  V30 1159 C 113.433 3.45641 -2.46439 0
M  V30 1160 C 111.34 3.43819 -4.81189 0
M  V30 1161 H 110.27 0.556606 -0.508631 0
M  V30 1162 H 112.921 0.792216 -1.65518 0
M  V30 1163 H 111.303 3.3896 -2.04749 0
M  V30 1164 H 112.477 1.63795 -4.30706 0
M  V30 1165 H 110.792 1.62692 -3.83302 0
M  V30 1166 H 113.389 4.32244 -3.14753 0
M  V30 1167 H 113.732 3.88669 -1.49139 0
M  V30 1168 H 114.265 2.8157 -2.81004 0
M  V30 1169 H 111.004 3.05834 -5.79781 0
M  V30 1170 H 110.524 4.06385 -4.41148 0
M  V30 1171 H 112.203 4.10043 -5.00474 0
M  V30 1172 N 112.336 1.25143 0.95797 0
M  V30 1173 C 113.266 1.07711 2.07173 0
M  V30 1174 C 114.247 -0.0128462 1.70095 0
M  V30 1175 O 115.432 0.156061 1.93572 0
M  V30 1176 C 112.562 0.691503 3.40346 0
M  V30 1177 C 111.516 1.73132 3.9142 0
M  V30 1178 C 110.842 1.20049 5.21049 0
M  V30 1179 C 112.142 3.1294 4.1817 0
M  V30 1180 H 113.836 2.00873 2.22014 0
M  V30 1181 H 111.382 0.967191 1.06684 0
M  V30 1182 H 113.335 0.556505 4.17709 0
M  V30 1183 H 112.059 -0.275819 3.25433 0
M  V30 1184 H 110.718 1.8547 3.16222 0
M  V30 1185 H 110.366 0.223499 5.02503 0
M  V30 1186 H 110.066 1.89545 5.56189 0
M  V30 1187 H 111.59 1.07782 6.01012 0
M  V30 1188 H 113.004 3.03775 4.86203 0
M  V30 1189 H 111.401 3.79875 4.64559 0
M  V30 1190 H 112.471 3.6025 3.24573 0
M  V30 1191 N 113.814 -1.1601 1.06675 0
M  V30 1192 C 115.23 -1.38622 0.790948 0
M  V30 1193 C 115.43 -1.92109 -0.607965 0
M  V30 1194 O 114.486 -2.12239 -1.36787 0
M  V30 1195 C 115.799 -2.36347 1.85905 0
M  V30 1196 C 117.347 -2.50023 1.88301 0
M  V30 1197 C 117.822 -3.51033 2.94176 0
M  V30 1198 N 119.313 -3.58563 2.93235 0
M  V30 1199 C 120.048 -4.36521 3.71803 0
M  V30 1200 N 119.544 -5.17869 4.602 0
M  V30 1201 N 121.337 -4.31541 3.60178 0
M  V30 1202 H 113.488 -0.796294 1.96908 0
M  V30 1203 H 115.751 -0.412597 0.853503 0
M  V30 1204 H 115.457 -2.04147 2.86386 0
M  V30 1205 H 115.331 -3.36042 1.71334 0
M  V30 1206 H 117.718 -2.81524 0.884769 0
M  V30 1207 H 117.799 -1.5035 2.06951 0
M  V30 1208 H 117.443 -3.20268 3.94196 0
M  V30 1209 H 117.373 -4.50445 2.72776 0
M  V30 1210 H 119.864 -3.00496 2.29152 0
M  V30 1211 H 120.177 -5.74578 5.16797 0
M  V30 1212 H 118.522 -5.17199 4.64253 0
M  V30 1213 H 121.713 -3.67051 2.90502 0
M  V30 1214 H 121.886 -4.9205 4.21653 0
M  V30 1215 N 115.292 -0.849877 -1.32721 0
M  V30 1216 C 116.242 -0.262892 -2.26479 0
M  V30 1217 C 117.226 0.588493 -1.49752 0
M  V30 1218 O 118.418 0.438659 -1.71478 0
M  V30 1219 C 115.547 0.551818 -3.38836 0
M  V30 1220 C 114.633 -0.311689 -4.22953 0
M  V30 1221 N 115.024 -1.39567 -4.86163 0
M  V30 1222 C 113.322 -0.100611 -4.45887 0
M  V30 1223 C 114.023 -1.92651 -5.48872 0
M  V30 1224 N 112.999 -1.22637 -5.29586 0
M  V30 1225 H 116.801 -1.09166 -2.72873 0
M  V30 1226 H 114.315 -0.695486 -1.46754 0
M  V30 1227 H 116.312 0.988713 -4.05006 0
M  V30 1228 H 114.972 1.37844 -2.93988 0
M  V30 1229 H 115.983 -1.77859 -4.86402 0
M  V30 1230 H 112.66 0.691681 -4.11731 0
M  V30 1231 H 114.05 -2.83487 -6.09167 0
M  V30 1232 N 116.77 1.45427 -0.607355 0
M  V30 1233 C 117.998 2.06614 -0.108814 0
M  V30 1234 C 118.413 1.45204 1.2067 0
M  V30 1235 O 117.77 0.566132 1.73497 0
M  V30 1236 C 117.821 3.61481 0.0375347 0
M  V30 1237 O 117.542 4.20598 -1.22593 0
M  V30 1238 C 119.043 4.39652 0.567561 0
M  V30 1239 H 116.263 0.66747 -0.0687351 0
M  V30 1240 H 118.807 1.86675 -0.835022 0
M  V30 1241 H 116.962 3.80762 0.714068 0
M  V30 1242 H 117.376 5.1377 -1.05547 0
M  V30 1243 H 118.85 5.48518 0.61905 0
M  V30 1244 H 119.327 4.09417 1.58978 0
M  V30 1245 H 119.933 4.25234 -0.0749202 0
M  V30 1246 N 118.248 0.346503 1.53744 0
M  V30 1247 C 119.195 -0.508914 2.25119 0
M  V30 1248 C 120.165 -1.09315 1.25058 0
M  V30 1249 O 121.35 -1.12921 1.53797 0
M  V30 1250 C 118.49 -1.65246 3.02965 0
M  V30 1251 C 117.603 -1.09525 4.17886 0
M  V30 1252 C 116.738 -2.20634 4.83212 0
M  V30 1253 C 115.777 -1.62279 5.90196 0
M  V30 1254 N 114.914 -2.67143 6.49291 0
M  V30 1255 H 119.754 0.106283 2.9781 0
M  V30 1256 H 117.291 0.0642227 1.4696 0
M  V30 1257 H 119.249 -2.32574 3.4636 0
M  V30 1258 H 117.879 -2.2386 2.32565 0
M  V30 1259 H 116.931 -0.312818 3.79112 0
M  V30 1260 H 118.243 -0.628444 4.94825 0
M  V30 1261 H 117.397 -2.95821 5.29693 0
M  V30 1262 H 116.136 -2.70659 4.05703 0
M  V30 1263 H 115.141 -0.855989 5.43096 0
M  V30 1264 H 116.366 -1.13102 6.69615 0
M  V30 1265 H 114.312 -3.16417 5.74645 0
M  V30 1266 H 114.229 -2.25093 7.21713 0
M  V30 1267 H 115.497 -3.4209 7.00425 0
M  V30 1268 N 119.726 -1.57421 0.075193 0
M  V30 1269 C 120.659 -2.08528 -0.926904 0
M  V30 1270 C 121.637 -0.991171 -1.28898 0
M  V30 1271 O 122.821 -1.26479 -1.39769 0
M  V30 1272 C 119.948 -2.54576 -2.23402 0
M  V30 1273 C 118.994 -3.75454 -2.02327 0
M  V30 1274 S 119.827 -5.19989 -1.27951 0
M  V30 1275 C 120.983 -5.69372 -2.59935 0
M  V30 1276 H 121.216 -2.932 -0.492048 0
M  V30 1277 H 118.749 -1.53785 -0.137651 0
M  V30 1278 H 120.707 -2.81767 -2.98526 0
M  V30 1279 H 119.368 -1.70166 -2.64012 0
M  V30 1280 H 118.561 -4.05675 -2.99071 0
M  V30 1281 H 118.163 -3.48654 -1.35339 0
M  V30 1282 H 120.455 -5.76424 -3.56008 0
M  V30 1283 H 121.398 -6.68207 -2.34319 0
M  V30 1284 H 121.806 -4.97205 -2.67296 0
M  V30 1285 N 121.204 0.198386 -1.56346 0
M  V30 1286 C 122.151 1.24589 -1.94284 0
M  V30 1287 C 123.121 1.454 -0.802997 0
M  V30 1288 O 124.306 1.58588 -1.06087 0
M  V30 1289 C 121.446 2.58631 -2.28482 0
M  V30 1290 C 120.559 2.45426 -3.55514 0
M  V30 1291 C 119.694 3.7215 -3.79049 0
M  V30 1292 C 118.733 3.53763 -4.99518 0
M  V30 1293 N 117.87 4.72491 -5.19323 0
M  V30 1294 H 122.71 0.915356 -2.83593 0
M  V30 1295 H 120.247 0.440629 -1.40346 0
M  V30 1296 H 122.205 3.3672 -2.46324 0
M  V30 1297 H 120.835 2.89734 -1.42317 0
M  V30 1298 H 119.887 1.58652 -3.45737 0
M  V30 1299 H 121.199 2.27772 -4.43758 0
M  V30 1300 H 120.353 4.58679 -3.97113 0
M  V30 1301 H 119.092 3.92754 -2.89129 0
M  V30 1302 H 118.097 2.65619 -4.8138 0
M  V30 1303 H 119.322 3.34607 -5.90944 0
M  V30 1304 H 117.268 4.93365 -4.3235 0
M  V30 1305 H 117.185 4.5765 -6.01741 0
M  V30 1306 H 118.453 5.6038 -5.41843 0
M  V30 1307 N 122.682 1.50554 0.465978 0
M  V30 1308 C 123.91 1.65563 1.24083 0
M  V30 1309 C 124.325 0.341051 1.85694 0
M  V30 1310 O 123.682 -0.677543 1.69457 0
M  V30 1311 C 123.733 2.75051 2.34583 0
M  V30 1312 O 123.454 4.01413 1.75497 0
M  V30 1313 C 124.955 3.01078 3.25372 0
M  V30 1314 H 122.175 0.55638 0.375077 0
M  V30 1315 H 124.719 1.96807 0.555624 0
M  V30 1316 H 122.874 2.46486 2.9887 0
M  V30 1317 H 123.288 4.62002 2.48303 0
M  V30 1318 H 124.762 3.81339 3.99105 0
M  V30 1319 H 125.239 2.12349 3.84453 0
M  V30 1320 H 125.845 3.31194 2.66816 0
M  V30 1321 N 124.16 -0.719506 1.40217 0
M  V30 1322 C 125.123 -1.8153 1.39927 0
M  V30 1323 C 126.123 -1.58095 0.293723 0
M  V30 1324 O 127.313 -1.65209 0.552429 0
M  V30 1325 C 124.445 -3.19561 1.18716 0
M  V30 1326 H 125.638 -1.83186 2.37451 0
M  V30 1327 H 123.191 -0.924746 1.26008 0
M  V30 1328 H 123.926 -3.23557 0.219366 0
M  V30 1329 H 123.711 -3.3797 1.98793 0
M  V30 1330 H 125.201 -3.99598 1.21291 0
M  V30 1331 N 125.638 -1.25649 -0.95132 0
M  V30 1332 C 126.866 -1.13343 -1.73092 0
M  V30 1333 C 127.281 0.312434 -1.86197 0
M  V30 1334 O 126.638 1.21465 -1.36207 0
M  V30 1335 C 126.689 -1.78602 -3.14299 0
M  V30 1336 O 126.41 -3.17537 -3.01831 0
M  V30 1337 C 127.911 -1.72119 -4.08522 0
M  V30 1338 H 125.131 -0.395181 -0.542285 0
M  V30 1339 H 127.675 -1.66076 -1.19328 0
M  V30 1340 H 125.83 -1.29832 -3.64996 0
M  V30 1341 H 126.244 -3.49676 -3.90931 0
M  V30 1342 H 127.718 -2.22435 -5.052 0
M  V30 1343 H 128.195 -0.685635 -4.33815 0
M  V30 1344 H 128.801 -2.20393 -3.63741 0
M  V30 1345 N 127.117 1.15442 -1.07289 0
M  V30 1346 C 128.065 2.22225 -0.686952 0
M  V30 1347 C 129.059 1.66688 0.30193 0
M  V30 1348 O 130.265 1.79236 0.165712 0
M  V30 1349 H 126.64 0.723783 -0.204064 0
M  V30 1350 H 128.611 2.52056 -1.5972 0
M  V30 1351 C 127.36 3.47556 -0.100149 0
M  V30 1352 H 126.683 3.90612 -0.852211 0
M  V30 1353 H 128.123 4.23794 0.132235 0
M  V30 1354 C 126.582 3.16337 1.159 0
M  V30 1355 O 127.112 3.33074 2.24555 0
M  V30 1356 N 125.318 2.70385 1.06491 0
M  V30 1357 H 124.865 2.56966 0.180668 0
M  V30 1358 H 124.823 2.49871 1.90819 0
M  V30 1359 N 128.595 0.856903 1.32268 0
M  V30 1360 C 129.844 0.457599 1.96441 0
M  V30 1361 C 130.157 -0.992426 1.68553 0
M  V30 1362 O 131.363 -1.49727 2.26482 0
M  V30 1363 C 129.819 0.767358 3.51624 0
M  V30 1364 C 129.427 2.23326 3.88367 0
M  V30 1365 C 131.171 0.435887 4.22256 0
M  V30 1366 C 129.078 2.48613 5.36606 0
M  V30 1367 H 128.008 0.167387 0.735185 0
M  V30 1368 H 130.659 1.048 1.5063 0
M  V30 1369 H 129.041 0.106367 3.95857 0
M  V30 1370 H 130.215 2.93623 3.55137 0
M  V30 1371 H 128.53 2.52948 3.30766 0
M  V30 1372 H 131.127 0.602202 5.31298 0
M  V30 1373 H 131.47 -0.622672 4.11617 0
M  V30 1374 H 132.003 1.05286 3.83614 0
M  V30 1375 H 128.742 3.53101 5.52268 0
M  V30 1376 H 128.262 1.82896 5.71235 0
M  V30 1377 H 129.941 2.32676 6.03714 0
M  V30 1378 N 130.073 -1.45103 0.615059 0
M  V30 1379 C 131.303 -2.06254 0.119596 0
M  V30 1380 C 131.711 -1.4591 -1.20445 0
M  V30 1381 O 131.054 -0.570384 -1.7462 0
M  V30 1382 C 131.116 -3.59396 -0.0865591 0
M  V30 1383 C 130.78 -4.42116 1.15683 0
M  V30 1384 C 131.777 -4.7662 2.07676 0
M  V30 1385 C 129.462 -4.82749 1.38775 0
M  V30 1386 C 131.456 -5.50622 3.21082 0
M  V30 1387 C 129.143 -5.56504 2.52481 0
M  V30 1388 C 130.141 -5.90358 3.43463 0
M  V30 1389 O 129.829 -6.62615 4.55189 0
M  V30 1390 H 129.561 -0.672423 0.0694512 0
M  V30 1391 H 132.115 -1.87219 0.844885 0
M  V30 1392 H 130.345 -3.76859 -0.866823 0
M  V30 1393 H 132.034 -4.02365 -0.534555 0
M  V30 1394 H 132.8 -4.4578 1.91063 0
M  V30 1395 H 128.679 -4.55829 0.688545 0
M  V30 1396 H 132.223 -5.76965 3.92119 0
M  V30 1397 H 128.12 -5.86759 2.69043 0
M  V30 1398 H 128.888 -6.81071 4.53966 0
M  V30 1399 N 131.551 -0.354651 -1.53558 0
M  V30 1400 C 132.8 0.239504 -2.00273 0
M  V30 1401 C 133.113 1.50759 -1.24623 0
M  V30 1402 O 134.319 2.17968 -1.61871 0
M  V30 1403 C 132.775 0.477341 -3.5672 0
M  V30 1404 C 132.383 -0.775488 -4.41237 0
M  V30 1405 C 134.127 1.02975 -4.11821 0
M  V30 1406 C 132.034 -0.507838 -5.89216 0
M  V30 1407 H 130.964 0.0932743 -0.748208 0
M  V30 1408 H 133.615 -0.471701 -1.77334 0
M  V30 1409 H 131.997 1.24953 -3.7577 0
M  V30 1410 H 133.171 -1.54963 -4.33962 0
M  V30 1411 H 131.486 -1.25033 -3.97185 0
M  V30 1412 H 134.083 1.24513 -5.2 0
M  V30 1413 H 134.426 1.98862 -3.65731 0
M  V30 1414 H 134.959 0.317994 -3.96527 0
M  V30 1415 H 131.698 -1.43674 -6.39561 0
M  V30 1416 H 131.218 0.228011 -5.99366 0
M  V30 1417 H 132.897 -0.129238 -6.46871 0
M  V30 1418 N 133.029 1.57378 -0.0835403 0
M  V30 1419 C 134.276 1.9393 0.58287 0
M  V30 1420 C 134.604 0.964455 1.68904 0
M  V30 1421 O 133.859 -0.0179474 1.95692 0
M  V30 1422 C 134.158 3.37063 1.1884 0
M  V30 1423 C 133.824 4.50424 0.207194 0
M  V30 1424 C 132.486 4.81159 -0.0627115 0
M  V30 1425 C 134.838 5.19136 -0.463426 0
M  V30 1426 C 132.166 5.77939 -1.01012 0
M  V30 1427 C 134.518 6.16931 -1.39924 0
M  V30 1428 C 133.182 6.46078 -1.67749 0
M  V30 1429 H 132.452 0.70964 0.213287 0
M  V30 1430 H 135.099 1.90856 -0.156916 0
M  V30 1431 H 133.404 3.3666 2.00418 0
M  V30 1432 H 135.101 3.6264 1.71153 0
M  V30 1433 H 131.691 4.2646 0.427747 0
M  V30 1434 H 135.875 4.95576 -0.268034 0
M  V30 1435 H 131.131 5.98842 -1.23283 0
M  V30 1436 H 135.305 6.69273 -1.92476 0
M  V30 1437 H 132.932 7.2088 -2.41321 0
M  V30 1438 N 134.507 -0.190092 1.56449 0
M  V30 1439 C 135.455 -1.25501 1.95837 0
M  V30 1440 C 136.449 -1.4685 0.844485 0
M  V30 1441 O 137.655 -1.47651 1.02952 0
M  V30 1442 H 134.03 -0.421447 0.622805 0
M  V30 1443 H 136.001 -0.895821 2.84636 0
M  V30 1444 C 134.75 -2.59124 2.31841 0
M  V30 1445 H 134.073 -2.43514 3.17082 0
M  V30 1446 H 135.513 -3.32371 2.6326 0
M  V30 1447 C 133.972 -3.16488 1.15486 0
M  V30 1448 O 134.502 -3.99365 0.432535 0
M  V30 1449 N 132.708 -2.75305 0.930349 0
M  V30 1450 H 132.255 -2.08013 1.51948 0
M  V30 1451 H 132.213 -3.14024 0.153634 0
M  V30 1452 N 135.985 -1.50799 -0.457987 0
M  V30 1453 C 136.915 -1.73553 -1.5621 0
M  V30 1454 C 137.896 -0.584774 -1.59732 0
M  V30 1455 O 139.081 -0.825314 -1.7579 0
M  V30 1456 C 136.211 -1.84169 -2.94447 0
M  V30 1457 C 135.165 -2.99461 -3.0579 0
M  V30 1458 C 134.491 -2.95235 -4.45803 0
M  V30 1459 C 135.791 -4.39766 -2.81786 0
M  V30 1460 H 137.485 -2.66 -1.37421 0
M  V30 1461 H 135.031 -1.28002 -0.659662 0
M  V30 1462 H 136.984 -1.98672 -3.71628 0
M  V30 1463 H 135.708 -0.883545 -3.14422 0
M  V30 1464 H 134.367 -2.8463 -2.31044 0
M  V30 1465 H 134.015 -1.97239 -4.62715 0
M  V30 1466 H 133.715 -3.72642 -4.54326 0
M  V30 1467 H 135.239 -3.11803 -5.24987 0
M  V30 1468 H 136.653 -4.55054 -3.4871 0
M  V30 1469 H 135.05 -5.18722 -3.0174 0
M  V30 1470 H 136.12 -4.51229 -1.7754 0
M  V30 1471 N 137.463 0.71206 -1.40597 0
M  V30 1472 C 138.426 1.80785 -1.40888 0
M  V30 1473 C 139.426 1.57937 -0.302103 0
M  V30 1474 O 140.616 1.64913 -0.561182 0
M  V30 1475 C 137.748 3.18927 -1.20409 0
M  V30 1476 H 138.941 1.81924 -2.38419 0
M  V30 1477 H 136.494 0.91805 -1.26497 0
M  V30 1478 H 137.229 3.23436 -0.236522 0
M  V30 1479 H 137.014 3.36911 -2.00582 0
M  V30 1480 H 138.504 3.98949 -1.23408 0
M  V30 1481 N 138.941 1.26152 0.944643 0
M  V30 1482 C 139.871 1.09902 2.06019 0
M  V30 1483 C 140.852 0.00519538 1.70099 0
M  V30 1484 O 142.037 0.176583 1.93396 0
M  V30 1485 C 139.167 0.727562 3.39594 0
M  V30 1486 C 138.121 1.77274 3.89561 0
M  V30 1487 C 137.447 1.25569 5.19747 0
M  V30 1488 C 138.747 3.17357 4.14827 0
M  V30 1489 H 140.441 2.03217 2.19871 0
M  V30 1490 H 137.987 0.978452 1.05652 0
M  V30 1491 H 139.94 0.600777 4.17095 0
M  V30 1492 H 138.664 -0.241287 3.25707 0
M  V30 1493 H 137.323 1.88814 3.14237 0
M  V30 1494 H 136.971 0.276783 5.02238 0
M  V30 1495 H 136.671 1.95433 5.54148 0
M  V30 1496 H 138.195 1.1415 5.99835 0
M  V30 1497 H 139.609 3.08914 4.82954 0
M  V30 1498 H 138.006 3.84781 4.60504 0
M  V30 1499 H 139.076 3.63673 3.20734 0
M  V30 1500 N 140.419 -1.14872 1.07899 0
M  V30 1501 C 141.382 -2.17986 0.708161 0
M  V30 1502 C 142.382 -1.58775 -0.25442 0
M  V30 1503 O 143.572 -1.74166 -0.034645 0
M  V30 1504 C 140.704 -3.40871 0.0446929 0
M  V30 1505 H 141.897 -2.52306 1.62116 0
M  V30 1506 H 139.45 -1.2943 0.876218 0
M  V30 1507 H 140.185 -3.12124 -0.880281 0
M  V30 1508 H 139.97 -3.8511 0.737091 0
M  V30 1509 H 141.46 -4.17121 -0.19991 0
M  V30 1510 N 141.898 -0.863906 -1.31812 0
M  V30 1511 C 143.175 -0.39275 -1.91616 0
M  V30 1512 C 143.555 1.12461 -1.7865 0
M  V30 1513 O 142.903 1.95045 -1.19037 0
M  V30 1514 C 143.113 -0.867385 -3.38049 0
M  V30 1515 C 144.461 -0.889966 -4.15168 0
M  V30 1516 O 145.485 -0.812635 -3.46806 0
M  V30 1517 O 144.344 -1.00079 -5.37258 0
M  V30 1518 H 141.438 -0.116358 -0.818773 0
M  V30 1519 H 143.984 -0.951418 -1.40521 0
M  V30 1520 H 142.756 -1.91081 -3.41473 0
M  V30 1521 H 142.379 -0.286687 -3.96565 0
M  V30 1522 N 143.376 1.44774 -0.622745 0
M  V30 1523 C 144.604 2.06487 -0.130722 0
M  V30 1524 C 145.019 1.46476 1.19123 0
M  V30 1525 O 144.376 0.584502 1.72887 0
M  V30 1526 C 144.427 3.615 -0.000807207 0
M  V30 1527 O 144.148 4.19274 -1.27048 0
M  V30 1528 C 145.649 4.40229 0.520898 0
M  V30 1529 H 142.869 0.666704 -0.0758106 0
M  V30 1530 H 145.413 1.85779 -0.854774 0
M  V30 1531 H 143.568 3.81498 0.673643 0
M  V30 1532 H 143.982 5.12622 -1.1099 0
M  V30 1533 H 145.456 5.49144 0.560838 0
M  V30 1534 H 145.933 4.1108 1.54627 0
M  V30 1535 H 146.539 4.25131 -0.120018 0
M  V30 1536 N 144.854 0.36279 1.53368 0
M  V30 1537 C 145.784 -0.476976 2.28576 0
M  V30 1538 C 146.765 -1.08631 1.30894 0
M  V30 1539 O 147.95 -1.10409 1.59761 0
M  V30 1540 C 145.08 -1.61828 3.07293 0
M  V30 1541 C 144.034 -1.13633 4.1264 0
M  V30 1542 C 143.36 -2.36766 4.79423 0
M  V30 1543 C 144.66 -0.223061 5.21823 0
M  V30 1544 H 146.354 0.150474 2.99022 0
M  V30 1545 H 143.9 0.0738103 1.43811 0
M  V30 1546 H 145.853 -2.21237 3.58653 0
M  V30 1547 H 144.577 -2.27292 2.34533 0
M  V30 1548 H 143.236 -0.564945 3.62221 0
M  V30 1549 H 142.884 -3.0068 4.03238 0
M  V30 1550 H 142.584 -2.05192 5.50609 0
M  V30 1551 H 144.108 -2.96865 5.33576 0
M  V30 1552 H 145.522 -0.724545 5.68703 0
M  V30 1553 H 143.919 0.001678 6.001 0
M  V30 1554 H 144.989 0.735553 4.79289 0
M  V30 1555 N 146.332 -1.57332 0.0918853 0
M  V30 1556 C 147.578 -1.94524 -0.573425 0
M  V30 1557 C 147.911 -0.973578 -1.68033 0
M  V30 1558 O 147.186 -0.00609226 -1.94499 0
M  V30 1559 C 147.469 -3.41858 -1.13161 0
M  V30 1560 C 147.322 -4.4979 -0.0299747 0
M  V30 1561 C 148.641 -3.90435 -2.03098 0
M  V30 1562 H 145.76 -0.70734 -0.206975 0
M  V30 1563 H 148.402 -1.89309 0.161942 0
M  V30 1564 H 146.552 -3.46433 -1.7583 0
M  V30 1565 H 148.224 -4.57327 0.604112 0
M  V30 1566 H 146.467 -4.291 0.636833 0
M  V30 1567 H 147.138 -5.50069 -0.461287 0
M  V30 1568 H 149.614 -3.87992 -1.50338 0
M  V30 1569 H 148.49 -4.94097 -2.39081 0
M  V30 1570 H 148.751 -3.29541 -2.94712 0
M  V30 1571 N 147.81 0.181792 -1.56548 0
M  V30 1572 C 148.74 1.22765 -1.98623 0
M  V30 1573 C 149.721 1.46747 -0.860189 0
M  V30 1574 O 150.906 1.58259 -1.12551 0
M  V30 1575 C 148.036 2.56894 -2.33715 0
M  V30 1576 C 146.99 2.475 -3.49182 0
M  V30 1577 C 146.316 3.86023 -3.69986 0
M  V30 1578 C 147.616 1.98866 -4.82959 0
M  V30 1579 H 149.31 0.877942 -2.86239 0
M  V30 1580 H 146.856 0.42088 -1.37712 0
M  V30 1581 H 148.809 3.30253 -2.61746 0
M  V30 1582 H 147.533 2.93632 -1.42997 0
M  V30 1583 H 146.192 1.76596 -3.21262 0
M  V30 1584 H 145.84 4.20136 -2.76576 0
M  V30 1585 H 145.54 3.80609 -4.47672 0
M  V30 1586 H 147.064 4.60984 -4.00407 0
M  V30 1587 H 148.478 2.61992 -5.09934 0
M  V30 1588 H 146.875 2.04424 -5.64208 0
M  V30 1589 H 147.945 0.942465 -4.75653 0
M  V30 1590 N 149.288 1.51039 0.449983 0
M  V30 1591 C 150.218 1.74379 1.55288 0
M  V30 1592 C 151.199 0.593236 1.5942 0
M  V30 1593 O 152.384 0.834625 1.7535 0
M  V30 1594 C 149.514 1.85728 2.93466 0
M  V30 1595 C 148.468 3.01078 3.04197 0
M  V30 1596 C 147.794 2.97595 4.44231 0
M  V30 1597 C 149.094 4.41254 2.7945 0
M  V30 1598 H 150.788 2.66725 1.36008 0
M  V30 1599 H 148.334 1.2835 0.652864 0
M  V30 1600 H 150.287 2.0064 3.70569 0
M  V30 1601 H 149.011 0.900207 3.13949 0
M  V30 1602 H 147.67 2.85851 2.29531 0
M  V30 1603 H 147.318 1.99691 4.61663 0
M  V30 1604 H 147.018 3.75046 4.52343 0
M  V30 1605 H 148.542 3.14583 5.23326 0
M  V30 1606 H 149.956 4.56897 3.46292 0
M  V30 1607 H 148.353 5.20315 2.98985 0
M  V30 1608 H 149.423 4.52164 1.75144 0
M  V30 1609 N 150.766 -0.704594 1.40972 0
M  V30 1610 C 151.994 -1.49354 1.43182 0
M  V30 1611 C 152.409 -1.88768 0.0345508 0
M  V30 1612 O 151.766 -1.56184 -0.944081 0
M  V30 1613 C 151.817 -2.76187 2.33244 0
M  V30 1614 O 151.538 -2.38436 3.67532 0
M  V30 1615 C 153.039 -3.7 2.44162 0
M  V30 1616 H 150.259 -0.460559 0.487982 0
M  V30 1617 H 152.803 -0.868261 1.85153 0
M  V30 1618 H 150.958 -3.34974 1.94606 0
M  V30 1619 H 151.372 -3.20126 4.15475 0
M  V30 1620 H 152.846 -4.55803 3.11364 0
M  V30 1621 H 153.323 -4.13867 1.47006 0
M  V30 1622 H 153.929 -3.17121 2.83398 0
M  V30 1623 N 152.244 -1.26651 -0.937939 0
M  V30 1624 C 153.174 -1.10993 -2.05433 0
M  V30 1625 C 154.155 -0.0142161 -1.70094 0
M  V30 1626 O 155.34 -0.186837 -1.93299 0
M  V30 1627 C 152.47 -0.745561 -3.39203 0
M  V30 1628 C 151.424 -1.79337 -3.88616 0
M  V30 1629 C 150.75 -1.28324 -5.19073 0
M  V30 1630 C 152.05 -3.19553 -4.13138 0
M  V30 1631 H 153.744 -2.0438 -2.1879 0
M  V30 1632 H 151.29 -0.984041 -1.05131 0
M  V30 1633 H 153.243 -0.622888 -4.16771 0
M  V30 1634 H 151.967 0.22401 -3.25831 0
M  V30 1635 H 150.626 -1.90477 -3.13231 0
M  V30 1636 H 150.274 -0.303414 -5.02084 0
M  V30 1637 H 149.974 -1.98369 -5.53103 0
M  V30 1638 H 151.498 -1.1733 -5.99221 0
M  V30 1639 H 152.912 -3.11471 -4.81309 0
M  V30 1640 H 151.309 -3.87218 -4.58457 0
M  V30 1641 H 152.379 -3.65368 -3.18801 0
M  V30 1642 N 153.722 1.14298 -1.08507 0
M  V30 1643 C 155.133 1.66926 -0.836227 0
M  V30 1644 C 155.484 1.85576 0.63686 0
M  V30 1645 O 154.609 1.56767 1.49175 0
M  V30 1646 C 155.204 3.03219 -1.51142 0
M  V30 1647 C 153.763 3.52876 -1.30979 0
M  V30 1648 C 152.91 2.2833 -1.57356 0
M  V30 1649 H 155.861 0.983491 -1.24552 0
M  V30 1650 H 155.882 3.68726 -0.939211 0
M  V30 1651 H 155.394 2.89612 -2.58353 0
M  V30 1652 H 153.495 3.71703 -0.258429 0
M  V30 1653 H 153.608 4.33586 -2.03814 0
M  V30 1654 H 151.972 2.34454 -0.995164 0
M  V30 1655 H 152.755 2.17298 -2.65775 0
M  V30 1656 N 155.201 0.870884 1.31352 0
M  V30 1657 C 156.448 0.482273 1.96673 0
M  V30 1658 C 156.776 -0.965638 1.68836 0
M  V30 1659 O 156.031 -1.69514 0.977937 0
M  V30 1660 C 156.33 0.687157 3.50732 0
M  V30 1661 C 155.996 2.108 3.9859 0
M  V30 1662 C 154.658 2.49656 4.1137 0
M  V30 1663 C 157.01 3.03459 4.23748 0
M  V30 1664 C 154.338 3.80412 4.46659 0
M  V30 1665 C 156.69 4.3373 4.60501 0
M  V30 1666 C 155.354 4.725 4.71487 0
M  V30 1667 H 154.624 0.176476 0.719679 0
M  V30 1668 H 157.271 1.10405 1.56471 0
M  V30 1669 H 155.576 -0.0177476 3.91796 0
M  V30 1670 H 157.273 0.366284 3.99324 0
M  V30 1671 H 153.863 1.79633 3.8914 0
M  V30 1672 H 158.047 2.74665 4.13368 0
M  V30 1673 H 153.303 4.1021 4.53362 0
M  V30 1674 H 157.477 5.05578 4.78919 0
M  V30 1675 H 155.104 5.73859 4.98588 0
M  V30 1676 N 156.679 -1.44442 0.630414 0
M  V30 1677 C 157.611 -2.2892 -0.113347 0
M  V30 1678 C 158.624 -1.41243 -0.80959 0
M  V30 1679 O 159.813 -1.65402 -0.671156 0
M  V30 1680 C 156.913 -3.17594 -1.18266 0
M  V30 1681 C 156.086 -4.33682 -0.569073 0
M  V30 1682 C 155.145 -5.03397 -1.53226 0
M  V30 1683 O 154.171 -5.59438 -1.04967 0
M  V30 1684 N 155.373 -5.04783 -2.86661 0
M  V30 1685 H 158.138 -2.93392 0.611636 0
M  V30 1686 H 155.699 -1.54881 0.471523 0
M  V30 1687 H 157.691 -3.61097 -1.82732 0
M  V30 1688 H 156.261 -2.54876 -1.80988 0
M  V30 1689 H 155.481 -3.9338 0.254187 0
M  V30 1690 H 156.769 -5.08608 -0.139767 0
M  V30 1691 H 156.167 -4.60584 -3.28449 0
M  V30 1692 H 154.724 -5.52077 -3.46489 0
M  V30 1693 N 158.157 -0.370918 -1.53173 0
M  V30 1694 C 159.405 0.216673 -2.00935 0
M  V30 1695 C 159.726 1.48845 -1.25977 0
M  V30 1696 O 158.996 1.92286 -0.374551 0
M  V30 1697 H 157.576 0.0830565 -0.742368 0
M  V30 1698 H 160.238 -0.49838 -1.8842 0
M  V30 1699 H 159.334 0.439893 -3.08984 0
M  V30 1700 N 159.635 1.57281 -0.100228 0
M  V30 1701 C 160.863 1.98879 0.570509 0
M  V30 1702 C 161.278 0.979476 1.61405 0
M  V30 1703 O 160.635 -0.0302288 1.82475 0
M  V30 1704 C 160.686 3.4052 1.2136 0
M  V30 1705 O 160.407 4.37588 0.211786 0
M  V30 1706 C 161.908 3.97149 1.96945 0
M  V30 1707 H 159.128 0.653428 0.152555 0
M  V30 1708 H 161.672 2.03697 -0.18103 0
M  V30 1709 H 159.827 3.367 1.91603 0
M  V30 1710 H 160.241 5.20118 0.676607 0
M  V30 1711 H 161.715 4.98393 2.37294 0
M  V30 1712 H 162.192 3.3525 2.83733 0
M  V30 1713 H 162.798 4.04458 1.31506 0
M  V30 1714 N 161.113 -0.173488 1.56642 0
M  V30 1715 C 162.39 -0.917617 1.7274 0
M  V30 1716 C 162.77 -2.00484 0.661027 0
M  V30 1717 O 162.118 -2.26184 -0.32453 0
M  V30 1718 C 162.328 -1.48433 3.15862 0
M  V30 1719 C 163.676 -1.95809 3.76754 0
M  V30 1720 O 164.7 -1.58231 3.19126 0
M  V30 1721 O 163.559 -2.65024 4.77938 0
M  V30 1722 H 160.653 -0.431772 0.705338 0
M  V30 1723 H 163.199 -0.161487 1.6893 0
M  V30 1724 H 161.971 -0.701715 3.84957 0
M  V30 1725 H 161.594 -2.30471 3.23989 0
M  V30 1726 N 162.591 -1.51276 -0.441967 0
M  V30 1727 C 163.84 -1.6295 -1.18871 0
M  V30 1728 C 164.153 -0.349312 -1.92456 0
M  V30 1729 O 165.359 -0.345355 -2.69295 0
M  V30 1730 C 163.815 -2.87759 -2.16155 0
M  V30 1731 C 163.423 -4.22764 -1.48239 0
M  V30 1732 C 165.167 -3.08788 -2.91291 0
M  V30 1733 C 163.074 -5.38728 -2.4398 0
M  V30 1734 H 162.004 -0.606913 -0.447406 0
M  V30 1735 H 164.655 -1.77739 -0.456205 0
M  V30 1736 H 163.037 -2.66593 -2.92821 0
M  V30 1737 H 164.211 -4.54293 -0.771635 0
M  V30 1738 H 162.526 -4.07575 -0.852741 0
M  V30 1739 H 165.123 -3.92599 -3.63002 0
M  V30 1740 H 165.466 -2.21679 -3.5237 0
M  V30 1741 H 165.999 -3.30272 -2.21733 0
M  V30 1742 H 162.738 -6.28082 -1.87598 0
M  V30 1743 H 162.258 -5.1158 -3.13123 0
M  V30 1744 H 163.937 -5.70489 -3.05207 0
M  V30 1745 N 164.069 0.697108 -1.41344 0
M  V30 1746 C 164.999 1.82353 -1.45841 0
M  V30 1747 C 165.98 1.67115 -0.317247 0
M  V30 1748 O 167.165 1.86871 -0.528474 0
M  V30 1749 C 164.295 3.20476 -1.33838 0
M  V30 1750 C 163.249 3.50415 -2.4575 0
M  V30 1751 C 162.575 4.87878 -2.18813 0
M  V30 1752 C 163.875 3.49546 -3.88091 0
M  V30 1753 H 165.569 1.78846 -2.40113 0
M  V30 1754 H 163.115 0.859028 -1.15571 0
M  V30 1755 H 165.068 3.98988 -1.35596 0
M  V30 1756 H 163.792 3.24604 -0.360498 0
M  V30 1757 H 162.451 2.74253 -2.43271 0
M  V30 1758 H 162.099 4.8863 -1.19371 0
M  V30 1759 H 161.799 5.08875 -2.93803 0
M  V30 1760 H 163.323 5.68702 -2.22284 0
M  V30 1761 H 164.737 4.18066 -3.92293 0
M  V30 1762 H 163.134 3.82075 -4.62751 0
M  V30 1763 H 164.204 2.48552 -4.16353 0
M  V30 1764 N 165.547 1.27147 0.931209 0
M  V30 1765 C 166.477 1.12081 2.04842 0
M  V30 1766 C 167.458 0.0232364 1.70084 0
M  V30 1767 O 168.643 0.197085 1.93197 0
M  V30 1768 C 165.773 0.76354 3.38803 0
M  V30 1769 C 164.727 1.81396 3.87659 0
M  V30 1770 C 164.053 1.31075 5.18385 0
M  V30 1771 C 165.353 3.21739 4.11438 0
M  V30 1772 H 167.047 2.05537 2.17703 0
M  V30 1773 H 164.593 0.989603 1.04608 0
M  V30 1774 H 166.546 0.644982 4.16435 0
M  V30 1775 H 165.27 -0.206727 3.25945 0
M  V30 1776 H 163.929 1.92136 3.12217 0
M  V30 1777 H 163.577 0.330037 5.01916 0
M  V30 1778 H 163.277 2.013 5.52044 0
M  V30 1779 H 164.801 1.20506 5.98591 0
M  V30 1780 H 166.215 3.14019 4.79651 0
M  V30 1781 H 164.612 3.89644 4.56397 0
M  V30 1782 H 165.682 3.67054 3.16859 0
M  V30 1783 N 167.025 -1.13721 1.09112 0
M  V30 1784 C 168.273 -1.84559 0.823562 0
M  V30 1785 C 168.594 -1.83754 -0.652658 0
M  V30 1786 O 167.864 -1.29102 -1.47342 0
M  V30 1787 H 166.444 -0.683376 0.301673 0
M  V30 1788 H 169.106 -1.37771 1.37859 0
M  V30 1789 H 168.202 -2.8917 1.17419 0
M  V30 1790 N 168.503 -0.877838 -1.30888 0
M  V30 1791 C 169.75 -0.492696 -1.96415 0
M  V30 1792 C 170.078 0.956671 -1.69346 0
M  V30 1793 O 169.333 1.68993 -0.986913 0
M  V30 1794 C 169.632 -0.705748 -3.50363 0
M  V30 1795 C 169.298 -2.1291 -3.97467 0
M  V30 1796 C 167.96 -2.51834 -4.1004 0
M  V30 1797 C 170.312 -3.05702 -4.22132 0
M  V30 1798 C 167.64 -3.82775 -4.44635 0
M  V30 1799 C 169.992 -4.36166 -4.58194 0
M  V30 1800 C 168.656 -4.74993 -4.68975 0
M  V30 1801 H 167.926 -0.18029 -0.718733 0
M  V30 1802 H 170.573 -1.11233 -1.55883 0
M  V30 1803 H 168.878 -0.00303058 -3.918 0
M  V30 1804 H 170.575 -0.387456 -3.99124 0
M  V30 1805 H 167.165 -1.81694 -3.88182 0
M  V30 1806 H 171.349 -2.76853 -4.11906 0
M  V30 1807 H 166.605 -4.12609 -4.51181 0
M  V30 1808 H 170.779 -5.08111 -4.76231 0
M  V30 1809 H 168.406 -5.76495 -4.95537 0
M  V30 1810 N 169.982 1.44106 -0.638065 0
M  V30 1811 C 171.228 2.02815 -0.15409 0
M  V30 1812 C 171.583 1.49342 1.21304 0
M  V30 1813 O 170.876 0.670699 1.79478 0
M  V30 1814 C 171.07 3.5729 -0.0887327 0
M  V30 1815 C 170.899 4.2575 -1.44799 0
M  V30 1816 C 169.669 4.62443 -2.03653 0
M  V30 1817 C 171.867 4.55746 -2.38327 0
M  V30 1818 N 169.849 5.15903 -3.32741 0
M  V30 1819 C 171.22 5.10364 -3.52036 0
M  V30 1820 C 173.275 4.37703 -2.3732 0
M  V30 1821 C 171.978 5.48837 -4.64941 0
M  V30 1822 C 174.004 4.77229 -3.49294 0
M  V30 1823 C 173.366 5.31966 -4.61726 0
M  V30 1824 H 169.465 0.775519 -0.100466 0
M  V30 1825 H 172.049 1.755 -0.843071 0
M  V30 1826 H 170.22 3.84201 0.569548 0
M  V30 1827 H 171.952 4.02671 0.404711 0
M  V30 1828 H 168.707 4.46987 -1.56523 0
M  V30 1829 H 169.131 5.47102 -3.98758 0
M  V30 1830 H 173.773 3.94671 -1.51641 0
M  V30 1831 H 171.491 5.9082 -5.51323 0
M  V30 1832 H 175.077 4.64976 -3.49698 0
M  V30 1833 H 173.957 5.61986 -5.46939 0
M  V30 1834 N 171.46 0.379036 1.52974 0
M  V30 1835 C 172.871 -0.0972525 1.86447 0
M  V30 1836 C 173.222 -1.47027 1.29914 0
M  V30 1837 O 172.347 -2.07135 0.626433 0
M  V30 1838 C 172.942 -0.183248 3.38304 0
M  V30 1839 C 171.501 -0.603812 3.71525 0
M  V30 1840 C 170.648 0.240632 2.76254 0
M  V30 1841 H 173.599 0.597316 1.4703 0
M  V30 1842 H 173.62 -1.00432 3.67006 0
M  V30 1843 H 173.132 0.816191 3.79421 0
M  V30 1844 H 171.233 -1.61099 3.35973 0
M  V30 1845 H 171.346 -0.369086 4.77676 0
M  V30 1846 H 169.71 -0.292548 2.53014 0
M  V30 1847 H 170.493 1.23786 3.20206 0
M  V30 1848 N 172.938 -1.57226 0.108567 0
M  V30 1849 C 174.185 -1.94833 -0.551943 0
M  V30 1850 C 174.513 -0.991204 -1.67348 0
M  V30 1851 O 173.768 -0.0131878 -1.95696 0
M  V30 1852 C 174.067 -3.38911 -1.13463 0
M  V30 1853 C 173.733 -4.50696 -0.135509 0
M  V30 1854 C 172.395 -4.80998 0.139252 0
M  V30 1855 C 174.747 -5.18333 0.545957 0
M  V30 1856 C 172.075 -5.76259 1.10194 0
M  V30 1857 C 174.427 -6.14627 1.49721 0
M  V30 1858 C 173.091 -6.43327 1.78006 0
M  V30 1859 H 172.361 -0.712944 -0.20197 0
M  V30 1860 H 175.008 -1.90582 0.18726 0
M  V30 1861 H 173.313 -3.39805 -1.95037 0
M  V30 1862 H 175.01 -3.65317 -1.65362 0
M  V30 1863 H 171.6 -4.27087 -0.359846 0
M  V30 1864 H 175.784 -4.95087 0.346842 0
M  V30 1865 H 171.04 -5.96804 1.32795 0
M  V30 1866 H 175.214 -6.66126 2.03099 0
M  V30 1867 H 172.841 -7.1695 2.52759 0
M  V30 1868 N 174.416 0.165178 -1.56732 0
M  V30 1869 C 175.664 0.879068 -1.8198 0
M  V30 1870 C 175.985 1.82514 -0.686561 0
M  V30 1871 O 175.255 1.93694 0.293146 0
M  V30 1872 H 173.835 0.327608 -0.671329 0
M  V30 1873 H 176.497 0.163526 -1.94213 0
M  V30 1874 H 175.593 1.45228 -2.76252 0
M  V30 1875 N 175.894 1.51508 0.433938 0
M  V30 1876 C 176.842 1.73646 1.54757 0
M  V30 1877 C 177.836 0.602854 1.5831 0
M  V30 1878 O 179.042 0.784318 1.62014 0
M  V30 1879 H 175.417 0.548718 0.51421 0
M  V30 1880 H 177.388 2.66991 1.33261 0
M  V30 1881 C 176.137 1.88172 2.92381 0
M  V30 1882 H 175.46 2.74808 2.90381 0
M  V30 1883 H 176.9 2.07672 3.6966 0
M  V30 1884 C 175.359 0.64239 3.30719 0
M  V30 1885 O 175.889 -0.201362 4.01195 0
M  V30 1886 N 174.095 0.485489 2.86516 0
M  V30 1887 H 173.642 1.17318 2.29334 0
M  V30 1888 H 173.6 -0.342482 3.12529 0
M  V30 1889 N 177.372 -0.689602 1.41712 0
M  V30 1890 C 178.335 -1.78521 1.43746 0
M  V30 1891 C 179.335 -1.57436 0.327191 0
M  V30 1892 O 180.525 -1.64 0.587348 0
M  V30 1893 C 177.657 -3.16971 1.25467 0
M  V30 1894 H 178.85 -1.78108 2.41283 0
M  V30 1895 H 176.403 -0.89781 1.27942 0
M  V30 1896 H 177.138 -3.23019 0.287948 0
M  V30 1897 H 176.923 -3.33678 2.05917 0
M  V30 1898 H 178.413 -3.96935 1.2974 0
M  V30 1899 N 178.85 -1.27639 -0.924453 0
M  V30 1900 C 179.78 -1.13166 -2.04244 0
M  V30 1901 C 180.761 -0.032256 -1.70069 0
M  V30 1902 O 181.946 -0.207328 -1.9309 0
M  V30 1903 C 179.076 -0.781496 -3.38393 0
M  V30 1904 C 178.03 -1.83449 -3.86692 0
M  V30 1905 C 177.356 -1.33822 -5.17683 0
M  V30 1906 C 178.656 -3.23917 -4.09726 0
M  V30 1907 H 180.35 -2.06689 -2.1661 0
M  V30 1908 H 177.896 -0.995136 -1.04082 0
M  V30 1909 H 179.849 -0.667057 -4.16087 0
M  V30 1910 H 178.573 0.189439 -3.2605 0
M  V30 1911 H 177.232 -1.93789 -3.11193 0
M  V30 1912 H 176.88 -0.35665 -5.01734 0
M  V30 1913 H 176.58 -2.04224 -5.50968 0
M  V30 1914 H 178.104 -1.23679 -5.97943 0
M  V30 1915 H 179.518 -3.16559 -4.77978 0
M  V30 1916 H 177.915 -3.92059 -4.54324 0
M  V30 1917 H 178.985 -3.68729 -3.14908 0
M  V30 1918 N 180.328 1.1314 -1.09713 0
M  V30 1919 C 181.568 1.8613 -0.844683 0
M  V30 1920 C 181.932 1.81765 0.618491 0
M  V30 1921 O 183.133 2.50024 0.98699 0
M  V30 1922 C 181.404 3.30151 -1.36877 0
M  V30 1923 S 182.963 4.206 -1.25064 0
M  V30 1924 H 179.781 0.642056 -0.305427 0
M  V30 1925 H 182.383 1.36343 -1.4011 0
M  V30 1926 H 181.087 3.30883 -2.42786 0
M  V30 1927 H 180.618 3.85 -0.808614 0
M  V30 1928 H 182.633 4.95783 -0.203486 0
M  V30 1929 N 181.806 0.884767 1.30421 0
M  V30 1930 C 182.753 0.349642 2.28136 0
M  V30 1931 C 183.723 -0.560061 1.56373 0
M  V30 1932 O 184.908 -0.488524 1.8444 0
M  V30 1933 C 182.048 -0.42999 3.42411 0
M  V30 1934 C 181.161 0.508907 4.28992 0
M  V30 1935 C 180.296 -0.286301 5.30428 0
M  V30 1936 C 179.335 0.648079 6.08659 0
M  V30 1937 N 178.472 -0.111792 7.02011 0
M  V30 1938 H 183.312 1.18807 2.73293 0
M  V30 1939 H 180.849 0.597231 1.3443 0
M  V30 1940 H 182.807 -0.897923 4.07423 0
M  V30 1941 H 181.437 -1.23299 2.98324 0
M  V30 1942 H 180.489 1.09533 3.64289 0
M  V30 1943 H 181.801 1.22475 4.8353 0
M  V30 1944 H 180.955 -0.816098 6.01186 0
M  V30 1945 H 179.694 -1.03536 4.76583 0
M  V30 1946 H 178.699 1.18951 5.36778 0
M  V30 1947 H 179.924 1.39623 6.64592 0
M  V30 1948 H 177.87 -0.843395 6.50556 0
M  V30 1949 H 177.787 0.544429 7.54037 0
M  V30 1950 H 179.055 -0.622339 7.77012 0
M  V30 1951 N 183.284 -1.43765 0.645699 0
M  V30 1952 C 184.512 -2.06253 0.163556 0
M  V30 1953 C 184.927 -1.48352 -1.16778 0
M  V30 1954 O 184.284 -0.611932 -1.71935 0
M  V30 1955 C 184.335 -3.61453 0.0583186 0
M  V30 1956 O 184.056 -4.172 1.33702 0
M  V30 1957 C 185.557 -4.41002 -0.450795 0
M  V30 1958 H 182.777 -0.665413 0.0864077 0
M  V30 1959 H 185.321 -1.84396 0.884222 0
M  V30 1960 H 183.476 -3.82522 -0.612865 0
M  V30 1961 H 183.89 -5.10791 1.19131 0
M  V30 1962 H 185.364 -5.49966 -0.473403 0
M  V30 1963 H 185.841 -4.13488 -1.48068 0
M  V30 1964 H 186.447 -4.24886 0.187637 0
M  V30 1965 N 184.763 -0.387143 -1.52771 0
M  V30 1966 C 186.009 0.196025 -2.0185 0
M  V30 1967 C 186.342 1.46641 -1.27319 0
M  V30 1968 O 185.617 1.90889 -0.373032 0
M  V30 1969 C 185.9 0.466136 -3.5707 0
M  V30 1970 C 185.753 -0.819385 -4.42274 0
M  V30 1971 C 187.072 1.25768 -4.21747 0
M  V30 1972 H 184.191 0.0697708 -0.73369 0
M  V30 1973 H 186.833 -0.516286 -1.82851 0
M  V30 1974 H 184.983 1.07293 -3.7339 0
M  V30 1975 H 186.655 -1.4563 -4.37709 0
M  V30 1976 H 184.898 -1.43517 -4.09372 0
M  V30 1977 H 185.569 -0.585065 -5.48891 0
M  V30 1978 H 188.045 0.744167 -4.09391 0
M  V30 1979 H 186.921 1.41541 -5.30337 0
M  V30 1980 H 187.182 2.27228 -3.79236 0
M  V30 1981 N 186.241 1.57166 -0.116904 0
M  V30 1982 C 187.49 1.94298 0.541407 0
M  V30 1983 C 187.803 1.00236 1.67964 0
M  V30 1984 O 189.009 1.26826 2.40057 0
M  V30 1985 C 187.465 3.45306 1.01449 0
M  V30 1986 C 187.073 4.47899 -0.0951738 0
M  V30 1987 C 188.817 3.91361 1.6443 0
M  V30 1988 C 186.724 5.90083 0.394491 0
M  V30 1989 H 185.654 0.725308 0.206019 0
M  V30 1990 H 188.305 1.82446 -0.196419 0
M  V30 1991 H 186.687 3.52385 1.80667 0
M  V30 1992 H 187.861 4.52486 -0.871374 0
M  V30 1993 H 186.176 4.11583 -0.631505 0
M  V30 1994 H 188.773 4.95004 2.02176 0
M  V30 1995 H 189.116 3.3122 2.52189 0
M  V30 1996 H 189.649 3.87073 0.917559 0
M  V30 1997 H 186.388 6.53974 -0.447004 0
M  V30 1998 H 185.908 5.88921 1.13722 0
M  V30 1999 H 187.587 6.41307 0.856399 0
M  V30 2000 N 187.719 -0.156864 1.56817 0
M  V30 2001 C 188.682 -1.17781 1.96622 0
M  V30 2002 C 189.682 -1.36401 0.851555 0
M  V30 2003 O 190.872 -1.33561 1.11836 0
M  V30 2004 C 188.004 -2.54008 2.27361 0
M  V30 2005 H 189.197 -0.836564 2.87996 0
M  V30 2006 H 186.75 -0.39985 1.51099 0
M  V30 2007 H 187.485 -2.9312 1.38748 0
M  V30 2008 H 187.27 -2.41856 3.08623 0
M  V30 2009 H 188.76 -3.27558 2.59029 0
M  V30 2010 N 189.197 -1.51736 -0.425897 0
M  V30 2011 C 190.446 -1.64201 -1.17136 0
M  V30 2012 C 190.759 -0.369705 -1.92074 0
M  V30 2013 O 191.965 -0.373898 -2.68913 0
M  V30 2014 C 190.421 -2.90035 -2.13091 0
M  V30 2015 C 190.029 -4.24312 -1.43747 0
M  V30 2016 C 191.773 -3.1186 -2.87999 0
M  V30 2017 C 189.68 -5.41285 -2.38253 0
M  V30 2018 H 188.61 -0.611624 -0.440944 0
M  V30 2019 H 191.261 -1.78212 -0.437328 0
M  V30 2020 H 189.643 -2.69684 -2.89977 0
M  V30 2021 H 190.817 -4.55086 -0.723408 0
M  V30 2022 H 189.132 -4.08456 -0.809465 0
M  V30 2023 H 191.729 -3.96427 -3.58817 0
M  V30 2024 H 192.072 -2.25403 -3.49999 0
M  V30 2025 H 192.605 -3.32605 -2.18217 0
M  V30 2026 H 189.344 -6.30037 -1.80925 0
M  V30 2027 H 188.864 -5.14872 -3.0768 0
M  V30 2028 H 190.543 -5.73694 -2.99139 0
M  V30 2029 N 190.675 0.682077 -1.42076 0
M  V30 2030 C 191.952 1.43755 -1.32642 0
M  V30 2031 C 192.332 2.11063 0.0396611 0
M  V30 2032 O 191.68 2.02701 1.05474 0
M  V30 2033 C 191.89 2.44596 -2.48946 0
M  V30 2034 C 193.238 3.09454 -2.9073 0
M  V30 2035 O 194.262 2.54922 -2.48783 0
M  V30 2036 O 193.121 4.08253 -3.63307 0
M  V30 2037 H 190.215 0.640857 -0.522715 0
M  V30 2038 H 192.761 0.711415 -1.54068 0
M  V30 2039 H 191.533 1.93609 -3.40046 0
M  V30 2040 H 191.156 3.24701 -2.29467 0
M  V30 2041 N 192.153 1.28127 0.917671 0
M  V30 2042 C 193.383 1.17722 1.6978 0
M  V30 2043 C 193.791 -0.267261 1.87303 0
M  V30 2044 O 193.134 -1.19286 1.39702 0
M  V30 2045 C 193.196 1.79958 3.11216 0
M  V30 2046 C 192.86 3.29187 3.16993 0
M  V30 2047 C 193.857 4.25679 2.98485 0
M  V30 2048 C 191.542 3.70075 3.39632 0
M  V30 2049 C 193.536 5.61035 3.02521 0
M  V30 2050 C 191.223 5.05557 3.433 0
M  V30 2051 C 192.221 6.00847 3.24764 0
M  V30 2052 O 191.909 7.33859 3.28187 0
M  V30 2053 H 191.641 0.409788 0.537634 0
M  V30 2054 H 194.195 1.69694 1.15728 0
M  V30 2055 H 192.425 1.22475 3.66793 0
M  V30 2056 H 194.114 1.64125 3.71238 0
M  V30 2057 H 194.88 3.95426 2.80826 0
M  V30 2058 H 190.759 2.96373 3.53106 0
M  V30 2059 H 194.303 6.35388 2.87971 0
M  V30 2060 H 190.2 5.35462 3.60486 0
M  V30 2061 H 190.968 7.42436 3.44575 0
M  V30 2062 N 193.631 -1.12557 1.10312 0
M  V30 2063 C 194.861 -1.87592 0.865617 0
M  V30 2064 C 195.269 -1.79851 -0.587389 0
M  V30 2065 O 194.612 -1.16949 -1.41664 0
M  V30 2066 C 194.674 -3.37665 1.23381 0
M  V30 2067 C 194.338 -3.69181 2.69359 0
M  V30 2068 C 195.335 -3.67652 3.67597 0
M  V30 2069 C 193.02 -3.98555 3.05711 0
M  V30 2070 C 195.014 -3.95053 5.00212 0
M  V30 2071 C 192.701 -4.25616 4.38514 0
M  V30 2072 C 193.699 -4.23851 5.35574 0
M  V30 2073 O 193.387 -4.50242 6.65986 0
M  V30 2074 H 193.119 -0.600442 0.310557 0
M  V30 2075 H 195.673 -1.4335 1.47105 0
M  V30 2076 H 193.903 -3.82454 0.571467 0
M  V30 2077 H 195.592 -3.94041 0.973994 0
M  V30 2078 H 196.358 -3.45024 3.40857 0
M  V30 2079 H 192.237 -3.99071 2.30789 0
M  V30 2080 H 195.781 -3.93591 5.75962 0
M  V30 2081 H 191.678 -4.47718 4.64994 0
M  V30 2082 H 192.446 -4.67867 6.71597 0
M  V30 2083 N 195.109 -0.891671 -1.2995 0
M  V30 2084 C 196.057 -0.353066 -2.29905 0
M  V30 2085 C 197.051 0.543509 -1.60444 0
M  V30 2086 O 198.257 0.4272 -1.74857 0
M  V30 2087 H 194.632 -0.095531 -0.745907 0
M  V30 2088 H 196.603 -1.20961 -2.72784 0
M  V30 2089 C 195.352 0.411475 -3.45257 0
M  V30 2090 H 194.675 -0.269182 -3.98893 0
M  V30 2091 H 196.115 0.753328 -4.17254 0
M  V30 2092 C 194.574 1.6111 -2.9588 0
M  V30 2093 O 195.104 2.71045 -2.96475 0
M  V30 2094 N 193.31 1.45054 -2.51809 0
M  V30 2095 H 192.857 0.556175 -2.51524 0
M  V30 2096 H 192.815 2.25453 -2.1913 0
M  V30 2097 N 196.587 1.43421 -0.653314 0
M  V30 2098 C 197.52 2.2803 0.0879804 0
M  V30 2099 C 198.498 1.39833 0.82979 0
M  V30 2100 O 199.682 1.69275 0.829341 0
M  V30 2101 C 196.809 3.19247 1.13132 0
M  V30 2102 C 195.855 4.23704 0.487546 0
M  V30 2103 S 196.688 5.30377 -0.738961 0
M  V30 2104 C 197.844 6.25162 0.30384 0
M  V30 2105 H 198.077 2.90554 -0.629739 0
M  V30 2106 H 195.61 1.47934 -0.442156 0
M  V30 2107 H 197.568 3.72346 1.72827 0
M  V30 2108 H 196.229 2.55901 1.82136 0
M  V30 2109 H 195.422 4.87631 1.27407 0
M  V30 2110 H 195.024 3.73983 -0.0352915 0
M  V30 2111 H 197.316 6.67321 1.17 0
M  V30 2112 H 198.259 7.07463 -0.300402 0
M  V30 2113 H 198.667 5.60864 0.63969 0
M  V30 2114 N 198.065 0.39524 1.52563 0
M  V30 2115 C 199.312 -0.185044 2.01653 0
M  V30 2116 C 199.64 -1.46317 1.28146 0
M  V30 2117 O 198.895 -1.9213 0.372074 0
M  V30 2118 C 199.194 -0.493444 3.53977 0
M  V30 2119 C 198.86 0.69384 4.4553 0
M  V30 2120 C 197.522 1.01954 4.70275 0
M  V30 2121 C 199.874 1.48785 4.99512 0
M  V30 2122 C 197.202 2.14069 5.46252 0
M  V30 2123 C 199.554 2.59965 5.76716 0
M  V30 2124 C 198.218 2.93037 5.99738 0
M  V30 2125 H 197.488 -0.0677123 0.7379 0
M  V30 2126 H 200.135 0.533807 1.8391 0
M  V30 2127 H 198.44 -1.29369 3.69825 0
M  V30 2128 H 200.137 -0.955163 3.89458 0
M  V30 2129 H 196.727 0.429987 4.26438 0
M  V30 2130 H 200.911 1.24946 4.80315 0
M  V30 2131 H 196.167 2.40056 5.62302 0
M  V30 2132 H 200.341 3.21887 6.17545 0
M  V30 2133 H 197.968 3.8003 6.58393 0
M  V30 2134 N 199.544 -1.57102 0.125237 0
M  V30 2135 C 200.772 -1.99761 -0.538797 0
M  V30 2136 C 201.187 -1.00503 -1.59827 0
M  V30 2137 O 200.544 0.00119474 -1.825 0
M  V30 2138 C 200.595 -3.42408 -1.15927 0
M  V30 2139 O 200.316 -4.37869 -0.142143 0
M  V30 2140 C 201.817 -4.00232 -1.90602 0
M  V30 2141 H 199.037 -0.655772 -0.14214 0
M  V30 2142 H 201.581 -2.03383 0.213413 0
M  V30 2143 H 199.736 -3.39706 -1.86223 0
M  V30 2144 H 200.15 -5.21128 -0.593775 0
M  V30 2145 H 201.624 -5.02105 -2.29335 0
M  V30 2146 H 202.101 -3.39721 -2.78363 0
M  V30 2147 H 202.707 -4.06499 -1.25055 0
M  V30 2148 N 201.022 0.148545 -1.56898 0
M  V30 2149 C 202.247 0.880385 -1.87787 0
M  V30 2150 C 202.672 1.74018 -0.714093 0
M  V30 2151 O 202.03 1.78153 0.336343 0
M  V30 2152 C 202.078 1.71422 -3.17249 0
M  V30 2153 O 201.182 2.8183 -3.01074 0
M  V30 2154 H 200.523 0.245301 -0.617028 0
M  V30 2155 H 203.053 0.139826 -2.04122 0
M  V30 2156 H 203.063 2.10954 -3.49231 0
M  V30 2157 H 201.738 1.08284 -4.01556 0
M  V30 2158 H 200.315 2.45715 -2.80497 0
M  V30 2159 N 202.5 1.5196 0.417844 0
M  V30 2160 C 203.728 1.69426 1.18753 0
M  V30 2161 C 204.143 0.399955 1.84515 0
M  V30 2162 O 203.5 -0.623288 1.71527 0
M  V30 2163 C 203.551 2.82375 2.25714 0
M  V30 2164 O 203.272 4.06793 1.62638 0
M  V30 2165 C 204.773 3.11277 3.15628 0
M  V30 2166 H 201.993 0.568031 0.357186 0
M  V30 2167 H 204.537 1.98475 0.49273 0
M  V30 2168 H 202.692 2.5587 2.90877 0
M  V30 2169 H 203.106 4.69667 2.3348 0
M  V30 2170 H 204.58 3.93843 3.86771 0
M  V30 2171 H 205.057 2.24473 3.77503 0
M  V30 2172 H 205.663 3.39515 2.56144 0
M  V30 2173 N 203.978 -0.674533 1.42435 0
M  V30 2174 C 205.225 -1.43459 1.42919 0
M  V30 2175 C 205.553 -1.94446 0.0457312 0
M  V30 2176 O 204.808 -1.7132 -0.94593 0
M  V30 2177 C 205.107 -2.64767 2.40069 0
M  V30 2178 C 204.773 -2.3232 3.86443 0
M  V30 2179 C 203.435 -2.23182 4.26314 0
M  V30 2180 C 205.787 -2.05977 4.78773 0
M  V30 2181 C 203.115 -1.85827 5.56494 0
M  V30 2182 C 205.467 -1.70125 6.09295 0
M  V30 2183 C 204.131 -1.59498 6.48164 0
M  V30 2184 H 203.401 -0.524952 0.522978 0
M  V30 2185 H 206.048 -0.769097 1.75377 0
M  V30 2186 H 204.353 -3.36349 2.00939 0
M  V30 2187 H 206.05 -3.22949 2.37707 0
M  V30 2188 H 202.64 -2.40334 3.54877 0
M  V30 2189 H 206.824 -2.11969 4.48757 0
M  V30 2190 H 202.08 -1.76168 5.8547 0
M  V30 2191 H 206.254 -1.48767 6.80324 0
M  V30 2192 H 203.881 -1.30322 7.48946 0
M  V30 2193 N 205.456 -1.28612 -0.910864 0
M  V30 2194 C 206.684 -1.18792 -1.69399 0
M  V30 2195 C 207.099 0.253039 -1.87097 0
M  V30 2196 O 206.456 1.17071 -1.40003 0
M  V30 2197 C 206.507 -1.88511 -3.08457 0
M  V30 2198 O 206.228 -3.26979 -2.91576 0
M  V30 2199 C 207.729 -1.85029 -4.02839 0
M  V30 2200 H 204.949 -0.412233 -0.529438 0
M  V30 2201 H 207.493 -1.69788 -1.13984 0
M  V30 2202 H 205.648 -1.41379 -3.60681 0
M  V30 2203 H 206.062 -3.61936 -3.79608 0
M  V30 2204 H 207.536 -2.38395 -4.97867 0
M  V30 2205 H 208.013 -0.823303 -4.31414 0
M  V30 2206 H 208.619 -2.31853 -3.56545 0
M  V30 2207 N 206.934 1.1197 -1.10907 0
M  V30 2208 C 207.864 2.19928 -0.784473 0
M  V30 2209 C 208.845 1.6833 0.244726 0
M  V30 2210 O 210.03 1.93892 0.109418 0
M  V30 2211 C 207.16 3.46597 -0.220827 0
M  V30 2212 C 206.114 4.11376 -1.18127 0
M  V30 2213 C 205.44 5.32554 -0.478594 0
M  V30 2214 C 206.74 4.56945 -2.52979 0
M  V30 2215 H 208.434 2.47337 -1.68715 0
M  V30 2216 H 205.98 1.18879 -0.812642 0
M  V30 2217 H 207.933 4.21396 0.0184278 0
M  V30 2218 H 206.657 3.1863 0.717113 0
M  V30 2219 H 205.316 3.38564 -1.40606 0
M  V30 2220 H 204.964 5.00856 0.463976 0
M  V30 2221 H 204.664 5.76844 -1.11912 0
M  V30 2222 H 206.188 6.10096 -0.248 0
M  V30 2223 H 207.602 5.23093 -2.3462 0
M  V30 2224 H 205.999 5.1203 -3.12962 0
M  V30 2225 H 207.069 3.70676 -3.12614 0
M  V30 2226 N 208.412 0.89855 1.29475 0
M  V30 2227 C 209.64 0.539261 1.99749 0
M  V30 2228 C 210.055 -0.875716 1.67262 0
M  V30 2229 O 209.412 -1.57786 0.917049 0
M  V30 2230 C 209.463 0.72061 3.54245 0
M  V30 2231 O 209.184 2.07989 3.8558 0
M  V30 2232 C 210.685 0.366118 4.41786 0
M  V30 2233 H 207.905 0.207047 0.638258 0
M  V30 2234 H 210.449 1.20758 1.65039 0
M  V30 2235 H 208.604 0.0994862 3.87272 0
M  V30 2236 H 209.018 2.10841 4.80257 0
M  V30 2237 H 210.492 0.543848 5.49314 0
M  V30 2238 H 210.969 -0.696763 4.33638 0
M  V30 2239 H 211.575 0.964135 4.14228 0
M  V30 2240 N 209.89 -1.43072 0.660911 0
M  V30 2241 C 210.853 -2.29194 -0.0166406 0
M  V30 2242 C 211.853 -1.42609 -0.742912 0
M  V30 2243 O 213.043 -1.64155 -0.583004 0
M  V30 2244 C 210.175 -3.24831 -1.0343 0
M  V30 2245 H 211.368 -2.90596 0.741208 0
M  V30 2246 H 208.921 -1.5048 0.422532 0
M  V30 2247 H 209.656 -2.68339 -1.82111 0
M  V30 2248 H 209.441 -3.88676 -0.517082 0
M  V30 2249 H 210.931 -3.89451 -1.50723 0
M  V30 2250 N 211.368 -0.403325 -1.52352 0
M  V30 2251 C 212.301 0.469463 -2.23319 0
M  V30 2252 C 213.279 1.05272 -1.23922 0
M  V30 2253 O 214.463 1.10169 -1.52954 0
M  V30 2254 C 211.59 1.6511 -2.9573 0
M  V30 2255 C 210.636 1.19178 -4.0951 0
M  V30 2256 S 211.469 0.161718 -5.35256 0
M  V30 2257 C 212.625 1.34882 -6.11194 0
M  V30 2258 H 212.858 -0.133134 -2.97002 0
M  V30 2259 H 210.391 -0.187588 -1.53256 0
M  V30 2260 H 212.349 2.3287 -3.38056 0
M  V30 2261 H 211.01 2.22503 -2.21701 0
M  V30 2262 H 210.203 2.07444 -4.59329 0
M  V30 2263 H 209.805 0.592911 -3.6927 0
M  V30 2264 H 212.097 2.27345 -6.38217 0
M  V30 2265 H 213.04 0.89128 -7.02468 0
M  V30 2266 H 213.448 1.57198 -5.42171 0
M  V30 2267 N 212.846 1.57033 -0.133567 0
M  V30 2268 C 214.071 2.00475 0.531477 0
M  V30 2269 C 214.496 1.01291 1.58499 0
M  V30 2270 O 213.854 -0.0133279 1.81295 0
M  V30 2271 C 213.902 3.42729 1.12113 0
M  V30 2272 O 213.006 3.46498 2.23636 0
M  V30 2273 H 212.347 0.650876 0.131362 0
M  V30 2274 H 214.877 2.03344 -0.22634 0
M  V30 2275 H 214.887 3.81246 1.4531 0
M  V30 2276 H 213.562 4.14428 0.349557 0
M  V30 2277 H 212.139 3.19811 1.91769 0
M  V30 2278 N 214.325 -0.140222 1.56975 0
M  V30 2279 C 215.571 -0.852949 1.83991 0
M  V30 2280 C 215.904 -1.80512 0.716187 0
M  V30 2281 O 215.179 -1.92479 -0.279681 0
M  V30 2282 C 215.462 -1.6215 3.21527 0
M  V30 2283 C 215.315 -0.690363 4.4447 0
M  V30 2284 C 216.634 -2.58247 3.56366 0
M  V30 2285 H 213.753 -0.308634 0.669264 0
M  V30 2286 H 216.395 -0.117898 1.89634 0
M  V30 2287 H 214.545 -2.24812 3.16847 0
M  V30 2288 H 216.217 -0.0742264 4.6124 0
M  V30 2289 H 214.46 -0.000396433 4.338 0
M  V30 2290 H 215.131 -1.2643 5.37326 0
M  V30 2291 H 217.607 -2.05701 3.61699 0
M  V30 2292 H 216.483 -3.09067 4.53617 0
M  V30 2293 H 216.744 -3.39923 2.82674 0
M  V30 2294 N 215.803 -1.52179 -0.40978 0
M  V30 2295 C 217.08 -1.56769 -1.16974 0
M  V30 2296 C 217.46 -0.348322 -2.08206 0
M  V30 2297 O 216.808 0.664862 -2.18613 0
M  V30 2298 C 217.018 -2.89603 -1.9476 0
M  V30 2299 C 218.366 -3.42579 -2.50849 0
M  V30 2300 O 219.39 -2.91338 -2.04941 0
M  V30 2301 O 218.249 -4.32054 -3.34652 0
M  V30 2302 H 215.343 -0.631439 -0.534054 0
M  V30 2303 H 217.889 -1.64507 -0.416613 0
M  V30 2304 H 216.661 -3.698 -1.27921 0
M  V30 2305 H 216.284 -2.85155 -2.77079 0
M  V30 2306 N 217.281 0.66697 -1.42791 0
M  V30 2307 C 218.697 0.981027 -1.25889 0
M  V30 2308 C 218.897 2.00793 -0.168695 0
M  V30 2309 O 217.953 2.48321 0.45747 0
M  V30 2310 C 219.266 1.47838 -2.61848 0
M  V30 2311 C 220.814 1.59575 -2.69267 0
M  V30 2312 C 221.289 2.12704 -4.05612 0
M  V30 2313 N 222.78 2.20026 -4.07606 0
M  V30 2314 C 223.515 2.62227 -5.09926 0
M  V30 2315 N 223.011 3.03824 -6.22626 0
M  V30 2316 N 224.804 2.62045 -4.97281 0
M  V30 2317 H 216.955 -0.0127891 -2.12396 0
M  V30 2318 H 219.218 0.0568258 -0.946295 0
M  V30 2319 H 218.924 0.798299 -3.4252 0
M  V30 2320 H 218.798 2.45579 -2.86305 0
M  V30 2321 H 221.185 2.26687 -1.88936 0
M  V30 2322 H 221.266 0.60302 -2.48591 0
M  V30 2323 H 220.91 1.46198 -4.86404 0
M  V30 2324 H 220.84 3.12782 -4.23645 0
M  V30 2325 H 223.331 1.90708 -3.2625 0
M  V30 2326 H 223.644 3.34734 -6.96544 0
M  V30 2327 H 221.989 3.01662 -6.26119 0
M  V30 2328 H 225.18 2.28916 -4.08308 0
M  V30 2329 H 225.353 2.94613 -5.77154 0
M  V30 2330 N 218.759 1.29093 0.90403 0
M  V30 2331 C 219.989 1.19516 1.68522 0
M  V30 2332 C 220.397 -0.24738 1.87576 0
M  V30 2333 O 219.74 -1.17798 1.40959 0
M  V30 2334 C 219.802 1.83249 3.0929 0
M  V30 2335 C 219.466 3.32531 3.13484 0
M  V30 2336 C 220.463 4.28821 2.93953 0
M  V30 2337 C 218.148 3.73656 3.35688 0
M  V30 2338 C 220.142 5.64212 2.96553 0
M  V30 2339 C 217.829 5.0917 3.37919 0
M  V30 2340 C 218.827 6.04258 3.18373 0
M  V30 2341 O 218.515 7.37298 3.20385 0
M  V30 2342 H 218.247 0.415467 0.533257 0
M  V30 2343 H 220.801 1.70912 1.13922 0
M  V30 2344 H 219.031 1.26358 3.65473 0
M  V30 2345 H 220.72 1.68054 3.69476 0
M  V30 2346 H 221.486 3.98382 2.76616 0
M  V30 2347 H 217.365 3.00101 3.49943 0
M  V30 2348 H 220.909 6.38407 2.81216 0
M  V30 2349 H 216.806 5.39256 3.54787 0
M  V30 2350 H 217.574 7.46048 3.36681 0
M  V30 2351 N 220.237 -1.11381 1.11499 0
M  V30 2352 C 221.483 -1.83403 0.865512 0
M  V30 2353 C 221.816 -1.84459 -0.607329 0
M  V30 2354 O 221.091 -1.29811 -1.44842 0
M  V30 2355 C 221.374 -3.30552 1.42855 0
M  V30 2356 C 221.227 -3.37886 2.96906 0
M  V30 2357 C 222.546 -4.26643 1.08 0
M  V30 2358 H 219.665 -0.665879 0.31587 0
M  V30 2359 H 222.307 -1.30601 1.37998 0
M  V30 2360 H 220.457 -3.75648 0.990985 0
M  V30 2361 H 222.129 -3.01343 3.49271 0
M  V30 2362 H 220.372 -2.78088 3.32941 0
M  V30 2363 H 221.043 -4.41458 3.31389 0
M  V30 2364 H 223.519 -3.89729 1.45775 0
M  V30 2365 H 222.395 -5.27986 1.50072 0
M  V30 2366 H 222.656 -4.42099 -0.00915037 0
M  V30 2367 N 221.715 -0.905404 -1.28997 0
M  V30 2368 C 222.678 -0.392253 -2.25819 0
M  V30 2369 C 223.678 0.476753 -1.5357 0
M  V30 2370 O 224.868 0.280994 -1.71919 0
M  V30 2371 C 222 0.438588 -3.38067 0
M  V30 2372 H 223.193 -1.24743 -2.72725 0
M  V30 2373 H 220.746 -0.684051 -1.40536 0
M  V30 2374 H 221.481 1.31352 -2.96508 0
M  V30 2375 H 221.266 -0.184167 -3.91667 0
M  V30 2376 H 222.756 0.78873 -4.10084 0
M  V30 2377 N 223.193 1.4272 -0.668489 0
M  V30 2378 C 224.442 2.00846 -0.185389 0
M  V30 2379 C 224.755 1.53442 1.21305 0
M  V30 2380 O 225.961 2.03944 1.79218 0
M  V30 2381 C 224.417 3.58805 -0.280591 0
M  V30 2382 C 224.025 4.15198 -1.68268 0
M  V30 2383 C 225.769 4.24255 0.14412 0
M  V30 2384 C 223.676 5.655 -1.73099 0
M  V30 2385 H 222.606 0.751145 -0.0655475 0
M  V30 2386 H 225.257 1.63516 -0.832752 0
M  V30 2387 H 223.639 3.93608 0.434553 0
M  V30 2388 H 224.813 3.91866 -2.42441 0
M  V30 2389 H 223.128 3.62176 -2.05469 0
M  V30 2390 H 225.725 5.34547 0.128086 0
M  V30 2391 H 226.068 3.99277 1.17827 0
M  V30 2392 H 226.601 3.94389 -0.519798 0
M  V30 2393 H 223.34 5.95268 -2.74475 0
M  V30 2394 H 222.86 5.90842 -1.03274 0
M  V30 2395 H 224.539 6.29808 -1.48158 0
M  V30 2396 N 224.671 0.411399 1.52136 0
M  V30 2397 C 225.911 -0.163143 2.03748 0
M  V30 2398 C 226.275 -1.42187 1.29022 0
M  V30 2399 O 227.476 -2.075 1.70872 0
M  V30 2400 C 225.747 -0.402651 3.55125 0
M  V30 2401 S 227.306 -0.944315 4.28519 0
M  V30 2402 H 224.124 -0.0439833 0.709638 0
M  V30 2403 H 226.726 0.56484 1.87163 0
M  V30 2404 H 225.43 0.520212 4.0709 0
M  V30 2405 H 224.961 -1.15844 3.75957 0
M  V30 2406 H 226.976 -2.22463 4.43536 0
M  V30 2407 N 226.149 -1.5696 0.141893 0
M  V30 2408 C 227.099 -2.13074 -0.811383 0
M  V30 2409 C 228.083 -1.05726 -1.21288 0
M  V30 2410 O 229.275 -1.31914 -1.18015 0
M  V30 2411 C 226.404 -2.75186 -2.0525 0
M  V30 2412 C 225.49 -3.8965 -1.67432 0
M  V30 2413 N 225.881 -4.95733 -1.0041 0
M  V30 2414 C 224.179 -4.00262 -1.96739 0
M  V30 2415 C 224.88 -5.75858 -0.822345 0
M  V30 2416 N 223.856 -5.26452 -1.3546 0
M  V30 2417 H 227.658 -2.92465 -0.290031 0
M  V30 2418 H 225.172 -1.6229 -0.0598218 0
M  V30 2419 H 227.169 -3.13745 -2.74535 0
M  V30 2420 H 225.829 -1.97266 -2.57907 0
M  V30 2421 H 226.84 -5.13607 -0.665441 0
M  V30 2422 H 223.517 -3.33412 -2.51282 0
M  V30 2423 H 224.907 -6.71254 -0.294496 0
M  V30 2424 N 227.627 0.131896 -1.57047 0
M  V30 2425 C 229.038 0.690407 -1.73465 0
M  V30 2426 C 229.389 1.8094 -0.758629 0
M  V30 2427 O 228.514 2.16282 0.0713813 0
M  V30 2428 C 229.109 1.25916 -3.14532 0
M  V30 2429 C 227.668 1.76409 -3.32501 0
M  V30 2430 C 226.815 0.658579 -2.69366 0
M  V30 2431 H 229.766 -0.0939144 -1.58422 0
M  V30 2432 H 229.787 2.12892 -3.15369 0
M  V30 2433 H 229.299 0.444515 -3.85546 0
M  V30 2434 H 227.4 2.60391 -2.66509 0
M  V30 2435 H 227.513 1.88241 -4.4057 0
M  V30 2436 H 225.877 1.08899 -2.30246 0
M  V30 2437 H 226.66 -0.14487 -3.42994 0
M  V30 2438 N 229.106 1.52395 0.401703 0
M  V30 2439 C 230.355 1.66044 1.14509 0
M  V30 2440 C 230.668 0.400216 1.91462 0
M  V30 2441 O 231.874 0.416632 2.68284 0
M  V30 2442 C 230.33 2.93388 2.0845 0
M  V30 2443 C 229.938 4.26545 1.36978 0
M  V30 2444 C 231.682 3.16402 2.83001 0
M  V30 2445 C 229.589 5.45007 2.29611 0
M  V30 2446 H 228.519 0.618562 0.431158 0
M  V30 2447 H 231.17 1.78886 0.40892 0
M  V30 2448 H 229.552 2.74263 2.8565 0
M  V30 2449 H 230.726 4.56179 0.650916 0
M  V30 2450 H 229.041 4.09692 0.74438 0
M  V30 2451 H 231.638 4.02085 3.52465 0
M  V30 2452 H 231.981 2.30943 3.46368 0
M  V30 2453 H 232.514 3.36034 2.12898 0
M  V30 2454 H 229.253 6.32835 1.70879 0
M  V30 2455 H 228.773 5.19702 2.9945 0
M  V30 2456 H 230.452 5.7838 2.89974 0
M  V30 2457 N 230.584 -0.659388 1.43143 0
M  V30 2458 C 232 -0.974337 1.26407 0
M  V30 2459 C 232.2 -2.007 0.179341 0
M  V30 2460 O 231.256 -2.4856 -0.444295 0
M  V30 2461 C 232.569 -1.46447 2.62628 0
M  V30 2462 C 234.117 -1.58144 2.7011 0
M  V30 2463 C 234.592 -2.1055 4.06734 0
M  V30 2464 N 236.083 -2.17861 4.08767 0
M  V30 2465 C 236.818 -2.59519 5.1131 0
M  V30 2466 N 236.314 -3.00518 6.24228 0
M  V30 2467 N 238.107 -2.59404 4.98664 0
M  V30 2468 H 230.258 0.0240528 2.12386 0
M  V30 2469 H 232.521 -0.0518065 0.946583 0
M  V30 2470 H 232.227 -0.780123 3.42939 0
M  V30 2471 H 232.101 -2.44058 2.87603 0
M  V30 2472 H 234.488 -2.25682 1.90136 0
M  V30 2473 H 234.569 -0.589828 2.48907 0
M  V30 2474 H 234.213 -1.43616 4.87172 0
M  V30 2475 H 234.143 -3.10531 4.25298 0
M  V30 2476 H 236.634 -1.88975 3.27257 0
M  V30 2477 H 236.947 -3.31036 6.98309 0
M  V30 2478 H 235.292 -2.98337 6.2771 0
M  V30 2479 H 238.483 -2.26747 4.09516 0
M  V30 2480 H 238.656 -2.91548 5.78709 0
M  V30 2481 N 232.062 -1.29571 -0.897171 0
M  V30 2482 C 233.025 -1.14913 -1.98312 0
M  V30 2483 C 234.025 -0.0838629 -1.60581 0
M  V30 2484 O 235.215 -0.331006 -1.71026 0
M  V30 2485 C 232.347 -0.757835 -3.3237 0
M  V30 2486 H 233.54 -2.11377 -2.12743 0
M  V30 2487 H 231.093 -1.12793 -1.08201 0
M  V30 2488 H 231.828 0.206837 -3.2364 0
M  V30 2489 H 231.613 -1.52755 -3.61121 0
M  V30 2490 H 233.103 -0.678408 -4.12053 0
M  V30 2491 N 233.54 1.10788 -1.12088 0
M  V30 2492 C 234.47 2.19083 -0.807755 0
M  V30 2493 C 235.451 1.6858 0.226859 0
M  V30 2494 O 236.636 1.93997 0.0888475 0
M  V30 2495 C 233.766 3.46344 -0.257576 0
M  V30 2496 C 232.72 4.101 -1.22483 0
M  V30 2497 C 232.046 5.32016 -0.535052 0
M  V30 2498 C 233.346 4.54236 -2.57811 0
M  V30 2499 H 235.04 2.45534 -1.71328 0
M  V30 2500 H 232.586 1.1801 -0.825205 0
M  V30 2501 H 234.539 4.21392 -0.0262679 0
M  V30 2502 H 233.263 3.19373 0.683278 0
M  V30 2503 H 231.922 3.37054 -1.44189 0
M  V30 2504 H 231.57 5.01319 0.410827 0
M  V30 2505 H 231.27 5.75625 -1.18024 0
M  V30 2506 H 232.794 6.09799 -0.312695 0
M  V30 2507 H 234.208 5.20575 -2.40155 0
M  V30 2508 H 232.605 5.08682 -3.18375 0
M  V30 2509 H 233.675 3.6734 -3.16528 0
M  V30 2510 N 235.018 0.912232 1.28515 0
M  V30 2511 C 236.295 0.463597 1.90027 0
M  V30 2512 C 236.675 -1.05753 1.82701 0
M  V30 2513 O 236.023 -1.90492 1.26194 0
M  V30 2514 C 236.233 0.992253 3.34597 0
M  V30 2515 C 237.581 1.04344 4.11579 0
M  V30 2516 O 238.605 0.94079 3.43551 0
M  V30 2517 O 237.464 1.1995 5.33174 0
M  V30 2518 H 234.558 0.146666 0.813891 0
M  V30 2519 H 237.104 1.00292 1.36893 0
M  V30 2520 H 235.876 2.03623 3.34146 0
M  V30 2521 H 235.499 0.433672 3.95228 0
M  V30 2522 N 236.496 -1.42363 0.676048 0
M  V30 2523 C 237.742 -2.0182 0.199125 0
M  V30 2524 C 238.075 -1.53339 -1.19168 0
M  V30 2525 O 237.35 -0.736124 -1.80032 0
M  V30 2526 C 237.633 -3.59331 0.235144 0
M  V30 2527 C 237.486 -4.17989 1.66149 0
M  V30 2528 C 238.805 -4.3813 -0.41595 0
M  V30 2529 H 235.924 -0.733293 0.0738311 0
M  V30 2530 H 238.566 -1.69368 0.86107 0
M  V30 2531 H 236.716 -3.87109 -0.328487 0
M  V30 2532 H 238.388 -4.0116 2.27747 0
M  V30 2533 H 236.631 -3.7377 2.20178 0
M  V30 2534 H 237.302 -5.27126 1.63837 0
M  V30 2535 H 239.778 -4.16051 0.0638529 0
M  V30 2536 H 238.654 -5.47717 -0.360115 0
M  V30 2537 H 238.915 -4.16101 -1.49373 0
M  V30 2538 N 237.974 -0.419461 -1.51915 0
M  V30 2539 C 239.39 -0.0708431 -1.59443 0
M  V30 2540 C 239.59 1.41796 -1.43164 0
M  V30 2541 O 238.646 2.18596 -1.26381 0
M  V30 2542 C 239.959 -0.574991 -2.95151 0
M  V30 2543 C 241.507 -0.533867 -3.08413 0
M  V30 2544 C 241.982 -1.01469 -4.46618 0
M  V30 2545 N 243.473 -0.971939 -4.52888 0
M  V30 2546 C 244.208 -1.31505 -5.58116 0
M  V30 2547 N 243.704 -1.73014 -6.70849 0
M  V30 2548 N 245.497 -1.23436 -5.48379 0
M  V30 2549 H 237.648 -1.38836 -1.60743 0
M  V30 2550 H 239.911 -0.570998 -0.756747 0
M  V30 2551 H 239.617 -1.61597 -3.12377 0
M  V30 2552 H 239.491 0.00979777 -3.77199 0
M  V30 2553 H 241.878 0.498086 -2.90866 0
M  V30 2554 H 241.959 -1.15484 -2.28248 0
M  V30 2555 H 241.603 -2.04502 -4.6491 0
M  V30 2556 H 241.533 -0.370433 -5.25295 0
M  V30 2557 H 244.024 -0.666893 -3.71969 0
M  V30 2558 H 244.337 -1.97479 -7.47143 0
M  V30 2559 H 242.682 -1.76926 -6.72103 0
M  V30 2560 H 245.873 -0.908869 -4.59192 0
M  V30 2561 H 246.046 -1.50506 -6.30279 0
M  V30 2562 N 239.452 1.56882 -0.150215 0
M  V30 2563 C 240.68 2.00593 0.506948 0
M  V30 2564 C 241.095 1.03033 1.58208 0
M  V30 2565 O 240.452 0.0278396 1.82479 0
M  V30 2566 C 240.503 3.44209 1.10465 0
M  V30 2567 O 240.224 4.3804 0.0724636 0
M  V30 2568 C 241.725 4.03214 1.84211 0
M  V30 2569 H 238.945 0.65795 0.13169 0
M  V30 2570 H 241.489 2.03018 -0.245743 0
M  V30 2571 H 239.644 3.42625 1.80795 0
M  V30 2572 H 240.058 5.22007 0.510793 0
M  V30 2573 H 241.532 5.0569 2.21318 0
M  V30 2574 H 242.009 3.44107 2.72923 0
M  V30 2575 H 242.615 4.08437 1.18572 0
M  V30 2576 N 240.93 -0.123565 1.57115 0
M  V30 2577 C 242.155 -0.850398 1.89164 0
M  V30 2578 C 242.58 -1.7286 0.741688 0
M  V30 2579 O 241.938 -1.78665 -0.307958 0
M  V30 2580 C 241.986 -1.66353 3.19936 0
M  V30 2581 O 241.09 -2.77004 3.0552 0
M  V30 2582 H 240.431 -0.235454 0.620852 0
M  V30 2583 H 242.961 -0.107335 2.04318 0
M  V30 2584 H 242.971 -2.05372 3.52543 0
M  V30 2585 H 241.646 -1.01881 4.03228 0
M  V30 2586 H 240.223 -2.41221 2.84371 0
M  V30 2587 N 242.408 -1.52605 -0.393616 0
M  V30 2588 C 243.633 -1.71592 -1.16495 0
M  V30 2589 C 244.058 -0.43133 -1.83088 0
M  V30 2590 O 243.416 0.612523 -1.7064 0
M  V30 2591 C 243.464 -2.86318 -2.19213 0
M  V30 2592 O 242.568 -2.52969 -3.257 0
M  V30 2593 H 241.909 -0.570734 -0.33935 0
M  V30 2594 H 244.439 -1.99377 -0.459324 0
M  V30 2595 H 244.449 -3.1168 -2.63286 0
M  V30 2596 H 243.124 -3.79511 -1.7013 0
M  V30 2597 H 241.701 -2.38332 -2.86797 0
M  V30 2598 N 243.887 0.651787 -1.4349 0
M  V30 2599 C 244.834 1.76462 -1.4876 0
M  V30 2600 C 245.804 1.62641 -0.337189 0
M  V30 2601 O 246.989 1.82864 -0.544544 0
M  V30 2602 C 244.129 3.14623 -1.41796 0
M  V30 2603 C 243.242 3.39568 -2.67053 0
M  V30 2604 C 242.377 4.67585 -2.52068 0
M  V30 2605 C 241.416 4.85639 -3.72587 0
M  V30 2606 N 240.553 6.04915 -3.56402 0
M  V30 2607 H 245.393 1.71293 -2.43849 0
M  V30 2608 H 242.93 0.835889 -1.21043 0
M  V30 2609 H 244.888 3.94496 -1.35753 0
M  V30 2610 H 243.518 3.18859 -0.50288 0
M  V30 2611 H 242.57 2.53783 -2.8337 0
M  V30 2612 H 243.882 3.48795 -3.56572 0
M  V30 2613 H 243.036 5.55586 -2.4374 0
M  V30 2614 H 241.775 4.60681 -1.60075 0
M  V30 2615 H 240.78 3.96073 -3.81321 0
M  V30 2616 H 242.005 4.94372 -4.65589 0
M  V30 2617 H 239.951 5.9914 -2.67146 0
M  V30 2618 H 239.868 6.15106 -4.39524 0
M  V30 2619 H 241.136 6.95533 -3.51929 0
M  V30 2620 N 245.365 1.30045 0.890287 0
M  V30 2621 C 246.328 1.15963 1.977 0
M  V30 2622 C 247.328 0.0923777 1.60534 0
M  V30 2623 O 248.518 0.340071 1.70848 0
M  V30 2624 C 245.65 0.775451 3.31963 0
M  V30 2625 H 246.843 2.12502 2.11619 0
M  V30 2626 H 244.396 1.13366 1.07601 0
M  V30 2627 H 245.131 -0.189671 3.23745 0
M  V30 2628 H 244.916 1.54668 3.60306 0
M  V30 2629 H 246.406 0.700251 4.11687 0
M  V30 2630 N 246.843 -1.10192 1.12674 0
M  V30 2631 C 247.775 -2.16418 0.754701 0
M  V30 2632 C 248.788 -1.61309 -0.21986 0
M  V30 2633 O 249.977 -1.785 -0.000826841 0
M  V30 2634 C 247.077 -3.38762 0.096698 0
M  V30 2635 C 246.25 -4.23307 1.10136 0
M  V30 2636 C 245.309 -5.24092 0.470513 0
M  V30 2637 O 244.335 -5.57906 1.12824 0
M  V30 2638 N 245.537 -5.75491 -0.760948 0
M  V30 2639 H 248.302 -2.48943 1.66875 0
M  V30 2640 H 245.863 -1.25834 1.01869 0
M  V30 2641 H 247.855 -4.03291 -0.337384 0
M  V30 2642 H 246.425 -3.04192 -0.720153 0
M  V30 2643 H 245.645 -3.55036 1.71299 0
M  V30 2644 H 246.933 -4.76624 1.78064 0
M  V30 2645 H 246.331 -5.50222 -1.31424 0
M  V30 2646 H 244.888 -6.41792 -1.13781 0
M  V30 2647 N 248.321 -0.919034 -1.28029 0
M  V30 2648 C 249.284 -0.416182 -2.2539 0
M  V30 2649 C 250.284 0.460438 -1.54067 0
M  V30 2650 O 251.474 0.262744 -1.72207 0
M  V30 2651 C 248.606 0.402707 -3.38513 0
M  V30 2652 H 249.799 -1.27629 -2.71387 0
M  V30 2653 H 247.352 -0.698919 -1.39803 0
M  V30 2654 H 248.087 1.282 -2.97885 0
M  V30 2655 H 247.872 -0.225698 -3.9145 0
M  V30 2656 H 249.362 0.745191 -4.10897 0
M  V30 2657 N 249.799 1.42003 -0.683588 0
M  V30 2658 C 251.045 2.01712 -0.209825 0
M  V30 2659 C 251.378 1.53968 1.18353 0
M  V30 2660 O 250.653 0.745661 1.79639 0
M  V30 2661 C 250.936 3.59202 -0.254197 0
M  V30 2662 C 250.789 4.17102 -1.68363 0
M  V30 2663 C 252.108 4.38344 0.392709 0
M  V30 2664 H 249.227 0.732891 -0.0777189 0
M  V30 2665 H 251.869 1.68909 -0.87004 0
M  V30 2666 H 250.019 3.87278 0.307954 0
M  V30 2667 H 251.691 3.99946 -2.29871 0
M  V30 2668 H 249.934 3.72597 -2.22157 0
M  V30 2669 H 250.605 5.26249 -1.6663 0
M  V30 2670 H 253.081 4.16011 -0.0859162 0
M  V30 2671 H 251.957 5.47901 0.331063 0
M  V30 2672 H 252.218 4.16887 1.47164 0
M  V30 2673 N 251.277 0.427512 1.51691 0
M  V30 2674 C 252.225 -0.403359 2.29076 0
M  V30 2675 C 253.219 -1.02962 1.34518 0
M  V30 2676 O 254.425 -0.965715 1.51901 0
M  V30 2677 H 250.8 -0.148879 0.737115 0
M  V30 2678 H 252.771 0.270295 2.97173 0
M  V30 2679 C 251.52 -1.49763 3.13794 0
M  V30 2680 H 250.843 -1.02508 3.86435 0
M  V30 2681 H 252.283 -2.05244 3.71014 0
M  V30 2682 C 250.742 -2.47536 2.28533 0
M  V30 2683 O 251.272 -3.51848 1.93819 0
M  V30 2684 N 249.478 -2.18187 1.91945 0
M  V30 2685 H 249.025 -1.33389 2.20375 0
M  V30 2686 H 248.983 -2.83848 1.35195 0
M  V30 2687 N 252.755 -1.56801 0.158532 0
M  V30 2688 C 254.001 -1.96781 -0.490405 0
M  V30 2689 C 254.334 -1.04397 -1.63753 0
M  V30 2690 O 253.609 -0.0885805 -1.94298 0
M  V30 2691 C 253.892 -3.4635 -0.985594 0
M  V30 2692 C 253.745 -4.49512 0.160824 0
M  V30 2693 C 255.064 -3.98697 -1.86355 0
M  V30 2694 H 252.183 -0.715482 -0.176788 0
M  V30 2695 H 254.825 -1.88451 0.242088 0
M  V30 2696 H 252.975 -3.53579 -1.60978 0
M  V30 2697 H 254.647 -4.54353 0.797537 0
M  V30 2698 H 252.89 -4.26013 0.818256 0
M  V30 2699 H 253.561 -5.51531 -0.227569 0
M  V30 2700 H 256.037 -3.94019 -1.33746 0
M  V30 2701 H 254.913 -5.03792 -2.17909 0
M  V30 2702 H 255.174 -3.41744 -2.8047 0
M  V30 2703 N 254.233 0.115231 -1.57178 0
M  V30 2704 C 255.196 1.12526 -1.99676 0
M  V30 2705 C 256.196 1.34095 -0.88742 0
M  V30 2706 O 257.386 1.30548 -1.15337 0
M  V30 2707 C 254.518 2.4789 -2.34015 0
M  V30 2708 H 255.711 0.759912 -2.90113 0
M  V30 2709 H 253.264 0.359648 -1.52106 0
M  V30 2710 H 253.999 2.89339 -1.4647 0
M  V30 2711 H 253.784 2.33588 -3.14927 0
M  V30 2712 H 255.274 3.20575 -2.67622 0
M  V30 2713 N 255.711 1.52812 0.385517 0
M  V30 2714 C 256.96 1.67249 1.12741 0
M  V30 2715 C 257.273 0.4205 1.91027 0
M  V30 2716 O 258.479 0.445064 2.67827 0
M  V30 2717 C 256.935 2.95583 2.05326 0
M  V30 2718 C 256.543 4.27974 1.32447 0
M  V30 2719 C 258.287 3.19386 2.7963 0
M  V30 2720 C 256.194 5.47412 2.23818 0
M  V30 2721 H 255.124 0.6231 0.424573 0
M  V30 2722 H 257.775 1.79309 0.389924 0
M  V30 2723 H 256.157 2.77277 2.82725 0
M  V30 2724 H 257.331 4.56844 0.602495 0
M  V30 2725 H 255.646 4.10459 0.700885 0
M  V30 2726 H 258.243 4.05801 3.48181 0
M  V30 2727 H 258.586 2.34604 3.43899 0
M  V30 2728 H 259.119 3.38274 2.09322 0
M  V30 2729 H 255.858 6.34612 1.64157 0
M  V30 2730 H 255.378 5.22849 2.93921 0
M  V30 2731 H 257.057 5.81423 2.83824 0
M  V30 2732 N 257.189 -0.644168 1.43834 0
M  V30 2733 C 258.435 -1.40431 1.47141 0
M  V30 2734 C 258.79 -1.92153 0.0975577 0
M  V30 2735 O 258.083 -1.69924 -0.885232 0
M  V30 2736 C 258.277 -2.59615 2.45631 0
M  V30 2737 C 258.106 -2.1956 3.92458 0
M  V30 2738 C 256.876 -2.07456 4.60749 0
M  V30 2739 C 259.074 -1.79281 4.8204 0
M  V30 2740 N 257.056 -1.60827 5.92459 0
M  V30 2741 C 258.427 -1.43801 6.03093 0
M  V30 2742 C 260.482 -1.66545 4.6922 0
M  V30 2743 C 259.185 -0.968599 7.12749 0
M  V30 2744 C 261.211 -1.21008 5.78888 0
M  V30 2745 C 260.573 -0.864711 6.99072 0
M  V30 2746 H 256.672 -0.509182 0.593513 0
M  V30 2747 H 259.256 -0.740351 1.80075 0
M  V30 2748 H 257.427 -3.23658 2.1471 0
M  V30 2749 H 259.159 -3.26357 2.39318 0
M  V30 2750 H 255.914 -2.275 4.1538 0
M  V30 2751 H 256.338 -1.39848 6.62398 0
M  V30 2752 H 260.98 -1.91883 3.7675 0
M  V30 2753 H 258.698 -0.702715 8.05039 0
M  V30 2754 H 262.284 -1.11631 5.7099 0
M  V30 2755 H 261.164 -0.517736 7.82489 0
M  V30 2756 N 258.668 -1.30515 -0.883378 0
M  V30 2757 C 259.631 -1.1701 -1.97082 0
M  V30 2758 C 260.631 -0.10089 -1.60483 0
M  V30 2759 O 261.821 -0.349127 -1.70666 0
M  V30 2760 C 258.953 -0.793045 -3.31547 0
M  V30 2761 H 260.146 -2.13622 -2.10489 0
M  V30 2762 H 257.699 -1.13935 -1.06998 0
M  V30 2763 H 258.434 0.172499 -3.23841 0
M  V30 2764 H 258.219 -1.56576 -3.5948 0
M  V30 2765 H 259.709 -0.722073 -4.1131 0
M  V30 2766 N 260.146 1.09593 -1.13257 0
M  V30 2767 C 261.076 2.18214 -0.830946 0
M  V30 2768 C 262.057 1.68812 0.208966 0
M  V30 2769 O 263.242 1.9408 0.0682666 0
M  V30 2770 C 260.372 3.46051 -0.294296 0
M  V30 2771 C 259.326 4.08778 -1.26826 0
M  V30 2772 C 258.652 5.31419 -0.591449 0
M  V30 2773 C 259.952 4.51476 -2.62615 0
M  V30 2774 H 261.646 2.43703 -1.73923 0
M  V30 2775 H 259.192 1.17128 -0.837675 0
M  V30 2776 H 261.145 4.2134 -0.0709606 0
M  V30 2777 H 259.869 3.20079 0.649366 0
M  V30 2778 H 258.528 3.35505 -1.47756 0
M  V30 2779 H 258.176 5.01727 0.357633 0
M  V30 2780 H 257.876 5.74341 -1.24123 0
M  V30 2781 H 259.4 6.09433 -0.377355 0
M  V30 2782 H 260.814 5.17999 -2.45663 0
M  V30 2783 H 259.211 5.05277 -3.23752 0
M  V30 2784 H 260.281 3.63962 -3.20406 0
M  V30 2785 N 261.624 0.925811 1.2754 0
M  V30 2786 C 262.587 0.428129 2.25166 0
M  V30 2787 C 263.587 -0.452261 1.54309 0
M  V30 2788 O 264.777 -0.253608 1.72344 0
M  V30 2789 C 261.909 -0.384749 3.38722 0
M  V30 2790 H 263.102 1.29066 2.70706 0
M  V30 2791 H 260.655 0.706323 1.3943 0
M  V30 2792 H 261.39 -1.26618 2.98561 0
M  V30 2793 H 261.175 0.246454 3.91325 0
M  V30 2794 H 262.665 -0.723389 4.11287 0
M  V30 2795 N 263.102 -1.41638 0.69111 0
M  V30 2796 C 264.327 -2.06148 0.227583 0
M  V30 2797 C 264.752 -1.51652 -1.11281 0
M  V30 2798 O 264.11 -0.64164 -1.69566 0
M  V30 2799 C 264.158 -3.60095 0.190858 0
M  V30 2800 O 263.262 -4.03845 -0.835664 0
M  V30 2801 H 262.603 -0.654434 0.112306 0
M  V30 2802 H 265.133 -1.81484 0.944714 0
M  V30 2803 H 265.143 -4.07995 0.020207 0
M  V30 2804 H 263.818 -3.99129 1.16915 0
M  V30 2805 H 262.395 -3.67458 -0.63473 0
M  V30 2806 N 264.58 -0.43555 -1.51462 0
M  V30 2807 C 265.826 0.131709 -2.02372 0
M  V30 2808 C 266.159 1.42516 -1.3192 0
M  V30 2809 O 265.434 1.89606 -0.433573 0
M  V30 2810 C 265.717 0.352301 -3.58373 0
M  V30 2811 C 265.57 -0.959676 -4.39443 0
M  V30 2812 C 266.889 1.12286 -4.25535 0
M  V30 2813 H 264.008 0.0463936 -0.735538 0
M  V30 2814 H 266.65 -0.574197 -1.81116 0
M  V30 2815 H 264.8 0.9536 -3.76615 0
M  V30 2816 H 266.472 -1.59482 -4.32855 0
M  V30 2817 H 264.715 -1.56468 -4.04599 0
M  V30 2818 H 265.386 -0.759394 -5.46752 0
M  V30 2819 H 267.862 0.613545 -4.11552 0
M  V30 2820 H 266.738 1.24598 -5.34571 0
M  V30 2821 H 266.999 2.15048 -3.86273 0
M  V30 2822 N 266.058 1.56714 -0.166846 0
M  V30 2823 C 267.304 1.97039 0.479962 0
M  V30 2824 C 267.637 1.05264 1.63197 0
M  V30 2825 O 266.912 0.0988833 1.94248 0
M  V30 2826 C 267.195 3.46867 0.967212 0
M  V30 2827 C 267.048 4.49421 -0.18466 0
M  V30 2828 C 268.367 3.9968 1.84238 0
M  V30 2829 H 265.486 0.71641 0.172992 0
M  V30 2830 H 268.128 1.8832 -0.252079 0
M  V30 2831 H 266.278 3.54428 1.59101 0
M  V30 2832 H 267.95 4.53924 -0.821621 0
M  V30 2833 H 266.193 4.25573 -0.840837 0
M  V30 2834 H 266.864 5.51644 0.198317 0
M  V30 2835 H 269.34 3.94723 1.31655 0
M  V30 2836 H 268.216 5.04941 2.15234 0
M  V30 2837 H 268.477 3.43226 2.78654 0
M  V30 2838 N 267.536 -0.106894 1.57237 0
M  V30 2839 C 268.784 -0.810921 1.85117 0
M  V30 2840 C 269.105 -1.7984 0.753827 0
M  V30 2841 O 268.375 -1.94649 -0.221056 0
M  V30 2842 H 266.955 -0.302466 0.683025 0
M  V30 2843 H 269.617 -0.0913324 1.94686 0
M  V30 2844 H 268.713 -1.34875 2.81452 0
M  V30 2845 N 269.014 -1.53014 -0.377408 0
M  V30 2846 C 270.26 -1.68872 -1.12294 0
M  V30 2847 C 270.593 -0.433224 -1.89306 0
M  V30 2848 O 269.868 0.569258 -1.85983 0
M  V30 2849 C 270.151 -2.93115 -2.09179 0
M  V30 2850 C 270.004 -4.28794 -1.35853 0
M  V30 2851 C 271.323 -3.12928 -3.09458 0
M  V30 2852 H 268.442 -0.614518 -0.406862 0
M  V30 2853 H 271.084 -1.85633 -0.40503 0
M  V30 2854 H 269.234 -2.78956 -2.70399 0
M  V30 2855 H 270.906 -4.54742 -0.775082 0
M  V30 2856 H 269.149 -4.28744 -0.660364 0
M  V30 2857 H 269.82 -5.11837 -2.06706 0
M  V30 2858 H 272.296 -3.26194 -2.58334 0
M  V30 2859 H 271.172 -4.01316 -3.74482 0
M  V30 2860 H 271.433 -2.27669 -3.78971 0
M  V30 2861 N 270.492 0.636531 -1.44174 0
M  V30 2862 C 271.903 1.21806 -1.41493 0
M  V30 2863 C 272.254 1.95785 -0.1275 0
M  V30 2864 O 271.379 2.02147 0.772376 0
M  V30 2865 C 271.974 2.21551 -2.56321 0
M  V30 2866 C 270.533 2.75143 -2.56853 0
M  V30 2867 C 269.68 1.50052 -2.33195 0
M  V30 2868 H 272.631 0.427531 -1.52833 0
M  V30 2869 H 272.652 3.0405 -2.28765 0
M  V30 2870 H 272.164 1.67679 -3.50008 0
M  V30 2871 H 270.265 3.33033 -1.67093 0
M  V30 2872 H 270.378 3.2155 -3.55165 0
M  V30 2873 H 268.742 1.77993 -1.82183 0
M  V30 2874 H 269.525 0.980903 -3.28988 0
M  V30 2875 N 271.97 1.30982 0.876444 0
M  V30 2876 C 273.216 1.20474 1.63138 0
M  V30 2877 C 273.549 -0.238096 1.92735 0
M  V30 2878 O 272.824 -1.1692 1.55435 0
M  V30 2879 C 273.107 2.04244 2.96574 0
M  V30 2880 C 272.96 3.56793 2.73896 0
M  V30 2881 C 274.279 1.88684 3.97601 0
M  V30 2882 H 271.398 0.439001 0.591985 0
M  V30 2883 H 274.04 1.60704 1.01361 0
M  V30 2884 H 272.19 1.70063 3.493 0
M  V30 2885 H 273.862 4.01077 2.27892 0
M  V30 2886 H 272.105 3.80548 2.08245 0
M  V30 2887 H 272.776 4.10706 3.68815 0
M  V30 2888 H 275.252 2.18584 3.54062 0
M  V30 2889 H 274.128 2.4961 4.88862 0
M  V30 2890 H 274.389 0.848343 4.33884 0
M  V30 2891 N 273.449 -1.08991 1.13837 0
M  V30 2892 C 274.412 -2.13925 0.822715 0
M  V30 2893 C 275.412 -1.599 -0.1699 0
M  V30 2894 O 276.602 -1.74104 0.0577251 0
M  V30 2895 C 273.734 -3.40155 0.225318 0
M  V30 2896 H 274.927 -2.43358 1.75262 0
M  V30 2897 H 272.48 -1.24603 0.943594 0
M  V30 2898 H 273.215 -3.16352 -0.713594 0
M  V30 2899 H 273 -3.80661 0.940193 0
M  V30 2900 H 274.49 -4.17594 0.0214784 0
M  V30 2901 N 274.927 -0.932562 -1.27047 0
M  V30 2902 C 276.176 -0.571351 -1.93439 0
M  V30 2903 C 276.489 0.892467 -1.74053 0
M  V30 2904 O 277.695 1.36267 -2.34826 0
M  V30 2905 C 276.151 -0.97106 -3.46552 0
M  V30 2906 C 275.759 -2.4559 -3.74686 0
M  V30 2907 C 277.503 -0.681333 -4.18997 0
M  V30 2908 C 275.41 -2.79475 -5.21198 0
M  V30 2909 H 274.34 -0.209966 -0.724176 0
M  V30 2910 H 276.991 -1.13403 -1.44263 0
M  V30 2911 H 275.373 -0.336983 -3.94564 0
M  V30 2912 H 276.547 -3.13829 -3.37414 0
M  V30 2913 H 274.862 -2.71802 -3.15456 0
M  V30 2914 H 277.459 -0.910939 -5.26883 0
M  V30 2915 H 277.802 0.381628 -4.14547 0
M  V30 2916 H 278.335 -1.27473 -3.76823 0
M  V30 2917 H 275.074 -3.847 -5.30741 0
M  V30 2918 H 274.594 -2.1589 -5.596 0
M  V30 2919 H 276.273 -2.67478 -5.89122 0
M  V30 2920 N 276.405 1.4127 -0.698611 0
M  V30 2921 C 277.338 2.28195 0.0153898 0
M  V30 2922 C 278.316 1.42402 0.784883 0
M  V30 2923 O 279.5 1.71828 0.775067 0
M  V30 2924 C 276.627 3.22685 1.02918 0
M  V30 2925 C 275.673 4.25041 0.352501 0
M  V30 2926 S 276.506 5.27757 -0.907322 0
M  V30 2927 C 277.662 6.25812 0.104796 0
M  V30 2928 H 277.895 2.88403 -0.721858 0
M  V30 2929 H 275.428 1.46452 -0.488996 0
M  V30 2930 H 277.386 3.77655 1.60893 0
M  V30 2931 H 276.047 2.61566 1.73902 0
M  V30 2932 H 275.24 4.91437 1.11828 0
M  V30 2933 H 274.842 3.73682 -0.154254 0
M  V30 2934 H 277.134 6.70705 0.957103 0
M  V30 2935 H 278.077 7.06149 -0.525323 0
M  V30 2936 H 278.485 5.62615 0.460931 0
M  V30 2937 N 277.883 0.443576 1.51229 0
M  V30 2938 C 279.131 -0.120557 2.0174 0
M  V30 2939 C 279.452 -1.42665 1.32935 0
M  V30 2940 O 278.722 -1.9028 0.465866 0
M  V30 2941 H 277.302 -0.0475426 0.745486 0
M  V30 2942 H 279.964 0.587711 1.85828 0
M  V30 2943 H 279.06 -0.291972 3.10731 0
M  V30 2944 N 279.361 -1.56624 0.175154 0
M  V30 2945 C 280.586 -2.01813 -0.478137 0
M  V30 2946 C 281.011 -1.05457 -1.55757 0
M  V30 2947 O 280.369 -0.0347439 -1.81267 0
M  V30 2948 C 280.417 -3.45581 -1.02987 0
M  V30 2949 O 279.521 -3.52305 -2.14371 0
M  V30 2950 H 278.862 -0.65413 -0.114059 0
M  V30 2951 H 281.392 -2.02673 0.280173 0
M  V30 2952 H 281.402 -3.84965 -1.35151 0
M  V30 2953 H 280.077 -4.1521 -0.239556 0
M  V30 2954 H 278.654 -3.24783 -1.83222 0
M  V30 2955 N 280.839 0.0985539 -1.57292 0
M  V30 2956 C 281.802 1.10402 -2.00858 0
M  V30 2957 C 282.802 1.33146 -0.901593 0
M  V30 2958 O 283.992 1.29318 -1.16716 0
M  V30 2959 C 281.124 2.45394 -2.36632 0
M  V30 2960 H 282.317 0.729099 -2.90902 0
M  V30 2961 H 279.87 0.343495 -1.52479 0
M  V30 2962 H 280.605 2.87769 -1.49531 0
M  V30 2963 H 280.39 2.30235 -3.17387 0
M  V30 2964 H 281.88 3.17718 -2.71007 0
M  V30 2965 N 282.317 1.53212 0.369288 0
M  V30 2966 C 283.249 1.75668 1.47219 0
M  V30 2967 C 284.262 0.637387 1.49804 0
M  V30 2968 O 285.451 0.913561 1.5335 0
M  V30 2969 C 282.551 1.81818 2.85999 0
M  V30 2970 C 281.724 3.11409 3.07153 0
M  V30 2971 C 280.783 3.08849 4.26026 0
M  V30 2972 O 279.809 3.82659 4.2138 0
M  V30 2973 N 281.011 2.29409 5.33246 0
M  V30 2974 H 283.776 2.70832 1.28337 0
M  V30 2975 H 281.337 1.51944 0.55898 0
M  V30 2976 H 283.329 1.77588 3.63655 0
M  V30 2977 H 281.899 0.939544 2.98146 0
M  V30 2978 H 281.119 3.28971 2.1719 0
M  V30 2979 H 282.407 3.97059 3.18154 0
M  V30 2980 H 281.805 1.68946 5.39883 0
M  V30 2981 H 280.362 2.31001 6.09493 0
M  V30 2982 N 283.795 -0.628877 1.44509 0
M  V30 2983 C 285.041 -1.39045 1.47629 0
M  V30 2984 C 285.374 -1.93892 0.109343 0
M  V30 2985 O 284.649 -1.7379 -0.87334 0
M  V30 2986 C 284.932 -2.55408 2.53848 0
M  V30 2987 C 284.785 -2.05896 3.99909 0
M  V30 2988 C 286.104 -3.5759 2.56549 0
M  V30 2989 H 283.223 -0.504232 0.537512 0
M  V30 2990 H 285.865 -0.710854 1.76201 0
M  V30 2991 H 284.015 -3.13384 2.29615 0
M  V30 2992 H 285.687 -1.52734 4.35282 0
M  V30 2993 H 283.93 -1.37061 4.11578 0
M  V30 2994 H 284.601 -2.89681 4.69882 0
M  V30 2995 H 287.077 -3.09419 2.78207 0
M  V30 2996 H 285.953 -4.36527 3.32769 0
M  V30 2997 H 286.214 -4.11808 1.60832 0
M  V30 2998 N 285.273 -1.31445 -0.869486 0
M  V30 2999 C 286.183 -1.21097 -2.0093 0
M  V30 3000 C 287.199 -0.127584 -1.73532 0
M  V30 3001 O 288.375 -0.345477 -1.98415 0
M  V30 3002 C 285.44 -0.919378 -3.34288 0
M  V30 3003 C 284.501 -2.08971 -3.75006 0
M  V30 3004 C 283.734 -1.81194 -5.02001 0
M  V30 3005 O 283.957 -0.747296 -5.65484 0
M  V30 3006 O 282.891 -2.66883 -5.39497 0
M  V30 3007 H 286.717 -2.16883 -2.12592 0
M  V30 3008 H 284.302 -1.11189 -0.997868 0
M  V30 3009 H 286.184 -0.772625 -4.14257 0
M  V30 3010 H 284.859 0.00844772 -3.23699 0
M  V30 3011 H 283.766 -2.29187 -2.95676 0
M  V30 3012 H 285.099 -2.9998 -3.90221 0
M  V30 3013 N 286.751 1.08385 -1.14413 0
M  V30 3014 C 288.028 1.77429 -0.823297 0
M  V30 3015 C 288.408 1.9974 0.683163 0
M  V30 3016 O 287.756 1.60739 1.62405 0
M  V30 3017 C 287.966 3.09004 -1.62227 0
M  V30 3018 C 289.314 3.83532 -1.82177 0
M  V30 3019 O 290.338 3.18786 -1.58915 0
M  V30 3020 O 289.197 4.99792 -2.21067 0
M  V30 3021 H 286.291 0.769999 -0.301712 0
M  V30 3022 H 288.837 1.14846 -1.24934 0
M  V30 3023 H 287.609 2.88316 -2.64555 0
M  V30 3024 H 287.232 3.79316 -1.19187 0
M  V30 3025 N 288.23 0.939286 1.26551 0
M  V30 3026 C 289.14 0.453432 2.30176 0
M  V30 3027 C 290.156 -0.471649 1.67486 0
M  V30 3028 O 291.332 -0.35164 1.98306 0
M  V30 3029 C 288.397 -0.275326 3.45605 0
M  V30 3030 C 287.458 0.686084 4.23782 0
M  V30 3031 C 286.691 -0.00798994 5.33699 0
M  V30 3032 O 286.914 -1.22528 5.57085 0
M  V30 3033 O 285.848 0.669746 5.98162 0
M  V30 3034 H 289.674 1.31416 2.73795 0
M  V30 3035 H 287.259 0.705095 1.31715 0
M  V30 3036 H 289.141 -0.685911 4.1578 0
M  V30 3037 H 287.816 -1.11147 3.0402 0
M  V30 3038 H 286.723 1.14658 3.56096 0
M  V30 3039 H 288.056 1.48979 4.69112 0
M  V30 3040 N 289.708 -1.40897 0.706093 0
M  V30 3041 C 290.618 -2.3455 0.0482286 0
M  V30 3042 C 291.634 -1.56796 -0.754396 0
M  V30 3043 O 292.81 -1.89228 -0.689538 0
M  V30 3044 C 289.875 -3.35625 -0.869303 0
M  V30 3045 C 288.936 -4.29261 -0.0576994 0
M  V30 3046 C 288.169 -5.25508 -0.931531 0
M  V30 3047 O 288.392 -5.27472 -2.17092 0
M  V30 3048 O 287.326 -6.00727 -0.375587 0
M  V30 3049 H 291.152 -2.92407 0.820476 0
M  V30 3050 H 288.737 -1.4193 0.4665 0
M  V30 3051 H 290.619 -3.97635 -1.39514 0
M  V30 3052 H 289.294 -2.80196 -1.62086 0
M  V30 3053 H 288.201 -3.70566 0.512988 0
M  V30 3054 H 289.534 -4.87817 0.655426 0
M  V30 3055 N 291.186 -0.45159 -1.50991 0
M  V30 3056 C 292.435 0.111653 -2.01391 0
M  V30 3057 C 292.748 1.42529 -1.33959 0
M  V30 3058 O 293.954 2.07232 -1.75405 0
M  V30 3059 C 292.41 0.249514 -3.59034 0
M  V30 3060 C 292.018 -1.05453 -4.35412 0
M  V30 3061 C 293.762 0.765762 -4.17536 0
M  V30 3062 C 291.669 -0.881529 -5.84793 0
M  V30 3063 H 290.599 0.0455022 -0.752626 0
M  V30 3064 H 293.25 -0.583524 -1.73975 0
M  V30 3065 H 291.632 1.00803 -3.82955 0
M  V30 3066 H 292.806 -1.82248 -4.23229 0
M  V30 3067 H 291.121 -1.50039 -3.88429 0
M  V30 3068 H 293.718 0.911913 -5.26866 0
M  V30 3069 H 294.061 1.75201 -3.77638 0
M  V30 3070 H 294.594 0.0651744 -3.97747 0
M  V30 3071 H 291.333 -1.84057 -6.29129 0
M  V30 3072 H 290.853 -0.153625 -5.99603 0
M  V30 3073 H 292.532 -0.540363 -6.4474 0
M  V30 3074 N 292.664 1.56529 -0.183458 0
M  V30 3075 C 293.574 2.22144 0.754272 0
M  V30 3076 C 294.59 1.21684 1.24374 0
M  V30 3077 O 295.766 1.54385 1.29333 0
M  V30 3078 C 292.831 2.85884 1.96141 0
M  V30 3079 C 291.892 4.01579 1.51765 0
M  V30 3080 C 291.125 4.6227 2.66725 0
M  V30 3081 O 291.348 4.21865 3.83909 0
M  V30 3082 O 290.282 5.51936 2.40104 0
M  V30 3083 H 294.108 3.02861 0.225527 0
M  V30 3084 H 291.693 1.49331 0.0453032 0
M  V30 3085 H 293.575 3.26253 2.66715 0
M  V30 3086 H 292.25 2.08154 2.47899 0
M  V30 3087 H 291.157 3.65856 0.781049 0
M  V30 3088 H 292.49 4.80938 1.04686 0
M  V30 3089 N 294.142 -0.090211 1.57342 0
M  V30 3090 C 295.382 -0.798365 1.88163 0
M  V30 3091 C 295.746 -1.75662 0.775046 0
M  V30 3092 O 296.947 -2.50849 0.965816 0
M  V30 3093 C 295.218 -1.50376 3.24225 0
M  V30 3094 S 296.777 -2.24952 3.76752 0
M  V30 3095 H 293.595 -0.265883 0.659414 0
M  V30 3096 H 296.197 -0.055264 1.95422 0
M  V30 3097 H 294.901 -0.792286 4.0268 0
M  V30 3098 H 294.432 -2.28666 3.20118 0
M  V30 3099 H 296.447 -3.51173 3.5056 0
M  V30 3100 N 295.62 -1.53406 -0.361157 0
M  V30 3101 C 296.55 -1.83136 -1.44857 0
M  V30 3102 C 297.531 -0.685174 -1.5569 0
M  V30 3103 O 298.716 -0.93544 -1.70186 0
M  V30 3104 C 295.846 -2.02522 -2.82138 0
M  V30 3105 C 294.8 -3.18302 -2.86126 0
M  V30 3106 C 294.126 -3.22989 -4.26125 0
M  V30 3107 C 295.426 -4.56796 -2.53248 0
M  V30 3108 H 297.12 -2.74201 -1.20226 0
M  V30 3109 H 294.666 -1.31938 -0.576922 0
M  V30 3110 H 296.619 -2.21904 -3.58241 0
M  V30 3111 H 295.343 -1.08172 -3.08166 0
M  V30 3112 H 294.002 -2.98747 -2.12475 0
M  V30 3113 H 293.65 -2.26267 -4.49235 0
M  V30 3114 H 293.35 -4.00781 -4.29708 0
M  V30 3115 H 294.874 -3.44559 -5.04094 0
M  V30 3116 H 296.288 -4.7631 -3.19064 0
M  V30 3117 H 294.685 -5.36862 -2.68141 0
M  V30 3118 H 295.755 -4.61606 -1.48484 0
M  V30 3119 N 297.098 0.621204 -1.44841 0
M  V30 3120 C 298.344 1.3826 -1.48365 0
M  V30 3121 C 298.677 1.93831 -0.119624 0
M  V30 3122 O 297.952 1.74251 0.864111 0
M  V30 3123 C 298.235 2.54058 -2.55199 0
M  V30 3124 C 298.088 2.03772 -4.00995 0
M  V30 3125 C 299.407 3.56225 -2.58442 0
M  V30 3126 H 296.526 0.501374 -0.540179 0
M  V30 3127 H 299.168 0.7015 -1.76576 0
M  V30 3128 H 297.318 3.12162 -2.31274 0
M  V30 3129 H 298.99 1.50423 -4.36086 0
M  V30 3130 H 297.233 1.34876 -4.12299 0
M  V30 3131 H 297.904 2.87185 -4.71411 0
M  V30 3132 H 300.38 3.07939 -2.79844 0
M  V30 3133 H 299.256 4.34756 -3.3508 0
M  V30 3134 H 299.517 4.10949 -1.63013 0
M  V30 3135 N 298.576 1.31904 0.862503 0
M  V30 3136 C 299.486 1.22161 2.00285 0
M  V30 3137 C 300.502 0.136785 1.73462 0
M  V30 3138 O 301.678 0.355994 1.98229 0
M  V30 3139 C 298.743 0.937093 3.33796 0
M  V30 3140 C 297.804 2.10957 3.73893 0
M  V30 3141 C 297.037 1.83853 5.01033 0
M  V30 3142 O 297.26 0.777274 5.65079 0
M  V30 3143 O 296.194 2.69741 5.38074 0
M  V30 3144 H 300.02 2.18008 2.11439 0
M  V30 3145 H 297.605 1.11716 0.991957 0
M  V30 3146 H 299.487 0.794583 4.13841 0
M  V30 3147 H 298.162 0.00871894 3.23699 0
M  V30 3148 H 297.069 2.30752 2.94456 0
M  V30 3149 H 298.402 3.02046 3.88625 0
M  V30 3150 N 300.054 -1.07777 1.14986 0
M  V30 3151 C 301.303 -1.79669 0.916617 0
M  V30 3152 C 301.616 -1.87474 -0.557917 0
M  V30 3153 O 302.822 -2.55845 -0.908617 0
M  V30 3154 C 301.278 -3.22848 1.59051 0
M  V30 3155 C 300.886 -3.23257 3.10176 0
M  V30 3156 C 302.63 -3.99379 1.43864 0
M  V30 3157 C 300.537 -4.61063 3.70372 0
M  V30 3158 H 299.467 -0.673349 0.33929 0
M  V30 3159 H 302.118 -1.21003 1.37951 0
M  V30 3160 H 300.5 -3.8168 1.0553 0
M  V30 3161 H 301.674 -2.74095 3.70417 0
M  V30 3162 H 299.989 -2.60222 3.25074 0
M  V30 3163 H 302.586 -5.0122 1.86232 0
M  V30 3164 H 302.929 -4.14511 0.385564 0
M  V30 3165 H 303.462 -3.47032 1.94457 0
M  V30 3166 H 300.201 -4.51135 4.7556 0
M  V30 3167 H 299.721 -5.1048 3.14913 0
M  V30 3168 H 301.4 -5.30034 3.71043 0
M  V30 3169 N 301.532 -0.945985 -1.26051 0
M  V30 3170 C 302.943 -0.638096 -1.75457 0
M  V30 3171 C 303.294 0.846672 -1.76991 0
M  V30 3172 O 302.419 1.66262 -1.38513 0
M  V30 3173 C 303.014 -1.15157 -3.18629 0
M  V30 3174 C 301.573 -0.894004 -3.65629 0
M  V30 3175 C 300.72 -1.29967 -2.44957 0
M  V30 3176 H 303.671 -1.12376 -1.1206 0
M  V30 3177 H 303.692 -0.507615 -3.77099 0
M  V30 3178 H 303.204 -2.23222 -3.1748 0
M  V30 3179 H 301.305 0.172057 -3.72203 0
M  V30 3180 H 301.418 -1.52439 -4.54202 0
M  V30 3181 H 299.782 -0.718078 -2.44368 0
M  V30 3182 H 300.565 -2.38935 -2.46505 0
M  V30 3183 N 303.011 1.40521 -0.713556 0
M  V30 3184 C 304.239 2.05237 -0.261775 0
M  V30 3185 C 304.654 1.53755 1.09567 0
M  V30 3186 O 304.011 0.693268 1.6882 0
M  V30 3187 C 304.062 3.60763 -0.230706 0
M  V30 3188 O 303.783 4.10345 -1.53455 0
M  V30 3189 C 305.284 4.42651 0.239874 0
M  V30 3190 H 302.504 0.660533 -0.118057 0
M  V30 3191 H 305.048 1.79967 -0.971192 0
M  V30 3192 H 303.203 3.8501 0.429661 0
M  V30 3193 H 303.617 5.04526 -1.43366 0
M  V30 3194 H 305.091 5.51599 0.210468 0
M  V30 3195 H 305.568 4.20082 1.28171 0
M  V30 3196 H 306.174 4.23507 -0.390142 0
M  V30 3197 N 304.489 0.459591 1.5075 0
M  V30 3198 C 305.9 0.00171547 1.867 0
M  V30 3199 C 306.251 -1.39934 1.37525 0
M  V30 3200 O 305.376 -2.03523 0.735349 0
M  V30 3201 C 305.971 -0.00366298 3.388 0
M  V30 3202 C 304.53 -0.406026 3.74204 0
M  V30 3203 C 303.677 0.38673 2.7459 0
M  V30 3204 H 306.628 0.674413 1.43657 0
M  V30 3205 H 306.649 -0.808371 3.71814 0
M  V30 3206 H 306.161 1.01617 3.74561 0
M  V30 3207 H 304.262 -1.43063 3.4404 0
M  V30 3208 H 304.375 -0.115362 4.78961 0
M  V30 3209 H 302.739 -0.158019 2.54209 0
M  V30 3210 H 303.522 1.40585 3.13194 0
M  V30 3211 N 305.967 -1.56429 0.191757 0
M  V30 3212 C 306.899 -2.16154 -0.762245 0
M  V30 3213 C 307.912 -1.12247 -1.17917 0
M  V30 3214 O 309.101 -1.39353 -1.11548 0
M  V30 3215 C 306.201 -2.70606 -2.04024 0
M  V30 3216 C 305.374 -3.99381 -1.78364 0
M  V30 3217 C 304.433 -4.38692 -2.90578 0
M  V30 3218 O 303.459 -5.06179 -2.6033 0
M  V30 3219 N 304.661 -4.01922 -4.18854 0
M  V30 3220 H 307.426 -2.98643 -0.251526 0
M  V30 3221 H 304.987 -1.61897 0.00967373 0
M  V30 3222 H 306.979 -2.93891 -2.78227 0
M  V30 3223 H 305.549 -1.9259 -2.46227 0
M  V30 3224 H 304.769 -3.84262 -0.879581 0
M  V30 3225 H 306.057 -4.83445 -1.58614 0
M  V30 3226 H 305.455 -3.47631 -4.46283 0
M  V30 3227 H 304.012 -4.30165 -4.89695 0
M  V30 3228 N 307.445 0.0818655 -1.57387 0
M  V30 3229 C 308.722 0.815343 -1.77796 0
M  V30 3230 C 309.102 1.96289 -0.77679 0
M  V30 3231 O 308.45 2.27691 0.192106 0
M  V30 3232 C 308.66 1.29765 -3.23978 0
M  V30 3233 C 310.008 1.7351 -3.8753 0
M  V30 3234 O 311.032 1.39356 -3.27808 0
M  V30 3235 O 309.891 2.36708 -4.92576 0
M  V30 3236 H 306.985 0.389914 -0.729312 0
M  V30 3237 H 309.531 0.0627213 -1.69584 0
M  V30 3238 H 308.303 0.47608 -3.88393 0
M  V30 3239 H 307.926 2.11189 -3.36875 0
M  V30 3240 N 308.923 1.53595 0.353017 0
M  V30 3241 C 310.153 1.74058 1.11299 0
M  V30 3242 C 310.561 0.475205 1.83135 0
M  V30 3243 O 309.904 -0.562344 1.74881 0
M  V30 3244 C 309.966 2.85994 2.17825 0
M  V30 3245 C 309.63 4.25923 1.65647 0
M  V30 3246 C 310.627 5.07829 1.11383 0
M  V30 3247 C 308.312 4.72377 1.7078 0
M  V30 3248 C 310.306 6.34285 0.629439 0
M  V30 3249 C 307.993 5.98808 1.21953 0
M  V30 3250 C 308.991 6.79594 0.681265 0
M  V30 3251 O 308.679 8.03651 0.200248 0
M  V30 3252 H 308.411 0.585327 0.338183 0
M  V30 3253 H 310.965 2.01186 0.413927 0
M  V30 3254 H 309.195 2.54368 2.91262 0
M  V30 3255 H 310.884 2.94515 2.79313 0
M  V30 3256 H 311.65 4.73107 1.06746 0
M  V30 3257 H 307.529 4.0956 2.11617 0
M  V30 3258 H 311.073 6.97288 0.208636 0
M  V30 3259 H 306.97 6.33026 1.26287 0
M  V30 3260 H 307.738 8.1788 0.318416 0
M  V30 3261 N 310.401 -0.613514 1.45168 0
M  V30 3262 C 311.647 -1.37279 1.50087 0
M  V30 3263 C 312.002 -1.91902 0.138294 0
M  V30 3264 O 311.295 -1.71764 -0.84899 0
M  V30 3265 C 311.489 -2.54347 2.51083 0
M  V30 3266 C 311.318 -2.11186 3.97027 0
M  V30 3267 C 310.088 -1.97636 4.65046 0
M  V30 3268 C 312.286 -1.69016 4.85735 0
M  V30 3269 N 310.268 -1.48224 5.95737 0
M  V30 3270 C 311.639 -1.30976 6.06008 0
M  V30 3271 C 313.694 -1.56555 4.72647 0
M  V30 3272 C 312.397 -0.817197 7.14643 0
M  V30 3273 C 314.423 -1.08702 5.81324 0
M  V30 3274 C 313.785 -0.716233 7.00749 0
M  V30 3275 H 309.884 -0.496478 0.60418 0
M  V30 3276 H 312.468 -0.701988 1.81605 0
M  V30 3277 H 310.639 -3.19031 2.21527 0
M  V30 3278 H 312.371 -3.21208 2.46187 0
M  V30 3279 H 309.126 -2.18638 4.20112 0
M  V30 3280 H 309.55 -1.25767 6.65216 0
M  V30 3281 H 314.192 -1.83849 3.80736 0
M  V30 3282 H 311.91 -0.531797 8.06348 0
M  V30 3283 H 315.496 -0.994943 5.7323 0
M  V30 3284 H 314.376 -0.351642 7.83411 0
M  V30 3285 N 311.879 -1.3236 -0.855495 0
M  V30 3286 C 313.127 -1.22629 -1.60644 0
M  V30 3287 C 313.448 0.212136 -1.93843 0
M  V30 3288 O 312.718 1.13666 -1.59552 0
M  V30 3289 H 311.298 -0.450882 -0.595579 0
M  V30 3290 H 313.96 -1.65871 -1.02337 0
M  V30 3291 H 313.056 -1.80832 -2.54374 0
M  V30 3292 N 313.357 1.07166 -1.15556 0
M  V30 3293 C 314.768 1.6127 -0.940693 0
M  V30 3294 C 315.119 1.89251 0.517551 0
M  V30 3295 O 314.244 1.65937 1.38903 0
M  V30 3296 C 314.839 2.92993 -1.7012 0
M  V30 3297 C 313.398 3.43832 -1.53156 0
M  V30 3298 C 312.545 2.1786 -1.71558 0
M  V30 3299 H 315.496 0.90229 -1.30554 0
M  V30 3300 H 315.517 3.62007 -1.17181 0
M  V30 3301 H 315.029 2.72596 -2.76248 0
M  V30 3302 H 313.13 3.69307 -0.494294 0
M  V30 3303 H 313.243 4.19747 -2.30975 0
M  V30 3304 H 311.607 2.2765 -1.14225 0
M  V30 3305 H 312.39 1.99956 -2.79056 0
M  V30 3306 N 314.835 0.952656 1.25548 0
M  V30 3307 C 316.081 0.607272 1.93494 0
M  V30 3308 C 316.414 -0.853245 1.74452 0
M  V30 3309 O 315.689 -1.61194 1.08843 0
M  V30 3310 C 315.972 0.96435 3.46947 0
M  V30 3311 C 315.825 2.48045 3.75225 0
M  V30 3312 C 317.144 0.487987 4.37386 0
M  V30 3313 H 314.263 0.222096 0.702739 0
M  V30 3314 H 316.905 1.18895 1.48203 0
M  V30 3315 H 315.055 0.469361 3.85654 0
M  V30 3316 H 316.727 3.04905 3.46166 0
M  V30 3317 H 314.97 2.919 3.209 0
M  V30 3318 H 315.641 2.6808 4.82532 0
M  V30 3319 H 318.117 0.912558 4.0597 0
M  V30 3320 H 316.993 0.766547 5.43521 0
M  V30 3321 H 317.254 -0.612063 4.37843 0
M  V30 3322 N 316.313 -1.40141 0.720998 0
M  V30 3323 C 317.56 -2.00787 0.262842 0
M  V30 3324 C 317.888 -1.5718 -1.14563 0
M  V30 3325 O 317.143 -0.785391 -1.79249 0
M  V30 3326 C 317.442 -3.56165 0.296892 0
M  V30 3327 C 317.108 -4.19373 1.65641 0
M  V30 3328 C 315.77 -4.36352 2.02855 0
M  V30 3329 C 318.122 -4.54578 2.54968 0
M  V30 3330 C 315.45 -4.8582 3.28931 0
M  V30 3331 C 317.802 -5.05447 3.80402 0
M  V30 3332 C 316.466 -5.20635 4.17726 0
M  V30 3333 H 315.736 -0.734731 0.0961807 0
M  V30 3334 H 318.383 -1.67673 0.925093 0
M  V30 3335 H 316.688 -3.8922 -0.448932 0
M  V30 3336 H 318.385 -4.00929 -0.0755208 0
M  V30 3337 H 314.975 -4.06549 1.35704 0
M  V30 3338 H 319.159 -4.41091 2.27491 0
M  V30 3339 H 314.415 -4.95764 3.57811 0
M  V30 3340 H 318.589 -5.31663 4.49786 0
M  V30 3341 H 316.216 -5.58728 5.15487 0
M  V30 3342 N 317.792 -0.46758 -1.50504 0
M  V30 3343 C 318.755 0.317059 -2.26996 0
M  V30 3344 C 319.755 0.923513 -1.31635 0
M  V30 3345 O 320.945 0.793239 -1.55091 0
M  V30 3346 C 318.077 1.45134 -3.08462 0
M  V30 3347 H 319.27 -0.353723 -2.97807 0
M  V30 3348 H 316.823 -0.221545 -1.54722 0
M  V30 3349 H 317.558 2.15728 -2.4214 0
M  V30 3350 H 317.343 1.02232 -3.78538 0
M  V30 3351 H 318.833 2.00493 -3.66323 0
M  V30 3352 N 319.27 1.56325 -0.20005 0
M  V30 3353 C 320.519 1.96895 0.437652 0
M  V30 3354 C 320.832 1.08999 1.62415 0
M  V30 3355 O 322.038 1.39372 2.32997 0
M  V30 3356 C 320.494 3.50198 0.830025 0
M  V30 3357 C 320.102 4.46765 -0.332461 0
M  V30 3358 C 321.846 3.99526 1.43453 0
M  V30 3359 C 319.753 5.91344 0.0811468 0
M  V30 3360 H 318.683 0.735209 0.167282 0
M  V30 3361 H 321.334 1.81148 -0.292853 0
M  V30 3362 H 319.716 3.61467 1.61734 0
M  V30 3363 H 320.89 4.47231 -1.11 0
M  V30 3364 H 319.205 4.07657 -0.848789 0
M  V30 3365 H 321.802 5.05025 1.75652 0
M  V30 3366 H 322.145 3.44122 2.34277 0
M  V30 3367 H 322.678 3.91393 0.71109 0
M  V30 3368 H 319.417 6.50685 -0.793033 0
M  V30 3369 H 318.937 5.94121 0.823445 0
M  V30 3370 H 320.616 6.44945 0.515252 0
M  V30 3371 N 320.748 -0.0735177 1.57428 0
M  V30 3372 C 321.988 -0.778363 1.89 0
M  V30 3373 C 322.352 -1.7483 0.793634 0
M  V30 3374 O 323.553 -2.49811 0.992367 0
M  V30 3375 C 321.824 -1.46929 3.25802 0
M  V30 3376 S 323.383 -2.20943 3.79117 0
M  V30 3377 H 320.201 -0.258874 0.662197 0
M  V30 3378 H 322.803 -0.0345338 1.95469 0
M  V30 3379 H 321.507 -0.749532 4.03497 0
M  V30 3380 H 321.038 -2.25258 3.22525 0
M  V30 3381 H 323.053 -3.47435 3.54265 0
M  V30 3382 N 322.226 -1.5378 -0.344866 0
M  V30 3383 C 323.475 -1.7018 -1.08267 0
M  V30 3384 C 323.788 -0.471 -1.89845 0
M  V30 3385 O 324.994 -0.515917 -2.66553 0
M  V30 3386 C 323.45 -3.00923 -1.97417 0
M  V30 3387 C 323.058 -4.31335 -1.21053 0
M  V30 3388 C 324.802 -3.26688 -2.71063 0
M  V30 3389 C 322.709 -5.53153 -2.09225 0
M  V30 3390 H 321.639 -0.634138 -0.407903 0
M  V30 3391 H 324.29 -1.8028 -0.342246 0
M  V30 3392 H 322.672 -2.84676 -2.75274 0
M  V30 3393 H 323.846 -4.58281 -0.481159 0
M  V30 3394 H 322.161 -4.12173 -0.591813 0
M  V30 3395 H 324.758 -4.1489 -3.37299 0
M  V30 3396 H 325.101 -2.43639 -3.37558 0
M  V30 3397 H 325.634 -3.43705 -2.0028 0
M  V30 3398 H 322.373 -6.38741 -1.47274 0
M  V30 3399 H 321.893 -5.30458 -2.79955 0
M  V30 3400 H 323.572 -5.88744 -2.68308 0
M  V30 3401 N 323.704 0.605807 -1.45491 0
M  V30 3402 C 324.951 1.36476 -1.49601 0
M  V30 3403 C 325.279 1.94007 -0.138452 0
M  V30 3404 O 324.534 1.75638 0.863114 0
M  V30 3405 C 324.833 2.53012 -2.52428 0
M  V30 3406 C 324.499 2.13617 -3.97087 0
M  V30 3407 C 323.161 2.02587 -4.36477 0
M  V30 3408 C 325.513 1.82899 -4.88055 0
M  V30 3409 C 322.841 1.59064 -5.64726 0
M  V30 3410 C 325.193 1.40861 -6.16718 0
M  V30 3411 C 323.857 1.28391 -6.55036 0
M  V30 3412 H 323.127 0.499402 -0.547429 0
M  V30 3413 H 325.774 0.684546 -1.78847 0
M  V30 3414 H 324.079 3.26379 -2.16758 0
M  V30 3415 H 325.776 3.1124 -2.52845 0
M  V30 3416 H 322.366 2.23129 -3.65939 0
M  V30 3417 H 326.55 1.90317 -4.58359 0
M  V30 3418 H 321.806 1.48034 -5.93208 0
M  V30 3419 H 325.98 1.16138 -6.86648 0
M  V30 3420 H 323.607 0.944403 -7.54311 0
M  V30 3421 N 325.182 1.32811 0.848464 0
M  V30 3422 C 326.112 1.24882 1.97299 0
M  V30 3423 C 327.093 0.131357 1.69592 0
M  V30 3424 O 328.278 0.319553 1.91553 0
M  V30 3425 C 325.408 0.97746 3.33261 0
M  V30 3426 C 324.362 2.05682 3.75338 0
M  V30 3427 C 323.688 1.63777 5.09 0
M  V30 3428 C 324.988 3.47254 3.90144 0
M  V30 3429 H 326.682 2.18966 2.04191 0
M  V30 3430 H 324.228 1.05413 0.981029 0
M  V30 3431 H 326.181 0.908513 4.1149 0
M  V30 3432 H 324.905 0.000980011 3.266 0
M  V30 3433 H 323.564 2.11603 2.99366 0
M  V30 3434 H 323.212 0.648569 4.98801 0
M  V30 3435 H 322.912 2.36 5.38124 0
M  V30 3436 H 324.436 1.5833 5.89715 0
M  V30 3437 H 325.85 3.43888 4.58709 0
M  V30 3438 H 324.247 4.1788 4.30693 0
M  V30 3439 H 325.317 3.86462 2.92874 0
M  V30 3440 N 326.66 -1.06551 1.16123 0
M  V30 3441 C 327.907 -1.79302 0.941126 0
M  V30 3442 C 328.235 -1.87105 -0.531235 0
M  V30 3443 O 327.49 -1.35692 -1.41018 0
M  V30 3444 C 327.789 -3.23911 1.51052 0
M  V30 3445 C 327.455 -3.36193 3.00475 0
M  V30 3446 C 326.117 -3.39252 3.41265 0
M  V30 3447 C 328.469 -3.38326 3.96465 0
M  V30 3448 C 325.797 -3.42057 4.76669 0
M  V30 3449 C 328.149 -3.4267 5.31752 0
M  V30 3450 C 326.813 -3.4401 5.72026 0
M  V30 3451 H 326.083 -0.656111 0.344382 0
M  V30 3452 H 328.73 -1.25325 1.44796 0
M  V30 3453 H 327.035 -3.80723 0.925063 0
M  V30 3454 H 328.732 -3.78793 1.31593 0
M  V30 3455 H 325.322 -3.34516 2.6795 0
M  V30 3456 H 329.506 -3.35176 3.6602 0
M  V30 3457 H 324.762 -3.41398 5.07206 0
M  V30 3458 H 328.936 -3.43268 6.05921 0
M  V30 3459 H 326.563 -3.45937 6.76928 0
M  V30 3460 N 328.138 -0.959301 -1.25041 0
M  V30 3461 C 329.363 -0.633507 -1.97488 0
M  V30 3462 C 329.788 0.788555 -1.70773 0
M  V30 3463 O 329.146 1.53394 -0.966431 0
M  V30 3464 C 329.194 -0.904057 -3.49083 0
M  V30 3465 O 328.298 0.0147939 -4.12397 0
M  V30 3466 H 327.639 -0.240368 -0.618966 0
M  V30 3467 H 330.169 -1.28717 -1.59038 0
M  V30 3468 H 330.179 -0.832203 -3.99423 0
M  V30 3469 H 328.854 -1.94048 -3.67856 0
M  V30 3470 H 327.431 -0.109664 -3.72739 0
M  V30 3471 N 329.616 1.39756 -0.72842 0
M  V30 3472 C 330.863 2.00645 -0.273487 0
M  V30 3473 C 331.191 1.57786 1.13727 0
M  V30 3474 O 330.446 0.794886 1.7883 0
M  V30 3475 C 330.745 3.56002 -0.315776 0
M  V30 3476 C 330.411 4.18489 -1.67863 0
M  V30 3477 C 329.073 4.3527 -2.05166 0
M  V30 3478 C 331.425 4.53219 -2.57375 0
M  V30 3479 C 328.753 4.84069 -3.31503 0
M  V30 3480 C 331.105 5.03423 -3.83077 0
M  V30 3481 C 329.769 5.18413 -4.20481 0
M  V30 3482 H 329.039 0.734211 -0.100076 0
M  V30 3483 H 331.686 1.6718 -0.933972 0
M  V30 3484 H 329.991 3.89452 0.428285 0
M  V30 3485 H 331.688 4.00963 0.0542575 0
M  V30 3486 H 328.278 4.05824 -1.37858 0
M  V30 3487 H 332.462 4.39878 -2.29827 0
M  V30 3488 H 327.718 4.93859 -3.60435 0
M  V30 3489 H 331.892 5.2927 -4.52599 0
M  V30 3490 H 329.519 5.55987 -5.18443 0
M  V30 3491 N 331.094 0.475555 1.50254 0
M  V30 3492 C 332.343 -0.0795996 2.01543 0
M  V30 3493 C 332.656 -1.4038 1.36209 0
M  V30 3494 O 333.862 -2.04415 1.7868 0
M  V30 3495 C 332.318 -0.192363 3.59386 0
M  V30 3496 C 331.926 1.12367 4.33679 0
M  V30 3497 C 333.67 -0.699238 4.18701 0
M  V30 3498 C 331.577 0.974453 5.83317 0
M  V30 3499 H 330.507 -0.0335228 0.753254 0
M  V30 3500 H 333.158 0.611128 1.73025 0
M  V30 3501 H 331.54 -0.946974 3.84511 0
M  V30 3502 H 332.714 1.88958 4.20276 0
M  V30 3503 H 331.029 1.562 3.85993 0
M  V30 3504 H 333.626 -0.827978 5.28251 0
M  V30 3505 H 333.969 -1.69171 3.80377 0
M  V30 3506 H 334.502 -0.00188807 3.978 0
M  V30 3507 H 331.241 1.94042 6.26121 0
M  V30 3508 H 330.761 0.248998 5.99283 0
M  V30 3509 H 332.44 0.642867 6.43798 0
M  V30 3510 N 332.573 -1.56217 0.208337 0
M  V30 3511 C 333.819 -1.98242 -0.427552 0
M  V30 3512 C 334.152 -1.09554 -1.60348 0
M  V30 3513 O 333.427 -0.15035 -1.93918 0
M  V30 3514 C 333.71 -3.4931 -0.874907 0
M  V30 3515 C 333.563 -4.48773 0.303751 0
M  V30 3516 C 334.882 -4.04424 -1.73577 0
M  V30 3517 H 332.001 -0.720744 -0.153936 0
M  V30 3518 H 334.643 -1.87586 0.30192 0
M  V30 3519 H 332.793 -3.58522 -1.49648 0
M  V30 3520 H 334.465 -4.51586 0.941682 0
M  V30 3521 H 332.708 -4.23194 0.953375 0
M  V30 3522 H 333.379 -5.51976 -0.0519883 0
M  V30 3523 H 335.855 -3.98075 -1.21143 0
M  V30 3524 H 334.731 -5.1047 -2.01771 0
M  V30 3525 H 334.992 -3.50494 -2.69456 0
M  V30 3526 N 334.051 0.0651679 -1.57465 0
M  V30 3527 C 335.462 0.616213 -1.76238 0
M  V30 3528 C 335.813 1.7756 -0.834689 0
M  V30 3529 O 334.938 2.1639 -0.0204156 0
M  V30 3530 C 335.533 1.12462 -3.1959 0
M  V30 3531 C 334.092 1.62147 -3.39684 0
M  V30 3532 C 333.239 0.543739 -2.71917 0
M  V30 3533 H 336.19 -0.161022 -1.57881 0
M  V30 3534 H 336.211 1.99324 -3.24114 0
M  V30 3535 H 335.723 0.280592 -3.87084 0
M  V30 3536 H 333.824 2.48854 -2.77313 0
M  V30 3537 H 333.937 1.69385 -4.48158 0
M  V30 3538 H 332.301 0.990352 -2.34657 0
M  V30 3539 H 333.084 -0.290216 -3.42071 0
M  V30 3540 N 335.529 1.53961 0.336706 0
M  V30 3541 C 336.775 1.7179 1.07777 0
M  V30 3542 C 337.108 0.483263 1.88091 0
M  V30 3543 O 336.383 -0.519747 1.87427 0
M  V30 3544 C 336.666 2.98558 2.01334 0
M  V30 3545 C 336.519 4.32245 1.24437 0
M  V30 3546 C 337.838 3.21023 3.01052 0
M  V30 3547 H 334.957 0.625089 0.390426 0
M  V30 3548 H 337.599 1.86641 0.35567 0
M  V30 3549 H 335.749 2.86028 2.62908 0
M  V30 3550 H 337.421 4.56637 0.654243 0
M  V30 3551 H 335.664 4.30344 0.546458 0
M  V30 3552 H 336.335 5.17137 1.93063 0
M  V30 3553 H 338.811 3.32929 2.49595 0
M  V30 3554 H 337.687 4.11104 3.6371 0
M  V30 3555 H 337.948 2.37637 3.72802 0
M  V30 3556 N 337.007 -0.598083 1.45811 0
M  V30 3557 C 337.937 -1.71873 1.58057 0
M  V30 3558 C 338.918 -1.64533 0.431615 0
M  V30 3559 O 340.103 -1.82787 0.65595 0
M  V30 3560 C 337.233 -3.10495 1.55597 0
M  V30 3561 C 336.187 -3.32654 2.69305 0
M  V30 3562 C 335.513 -4.71646 2.51902 0
M  V30 3563 C 336.813 -3.21981 4.11248 0
M  V30 3564 H 338.507 -1.61881 2.51863 0
M  V30 3565 H 336.053 -0.777372 1.21214 0
M  V30 3566 H 338.006 -3.88699 1.6276 0
M  V30 3567 H 336.73 -3.2135 0.583255 0
M  V30 3568 H 335.389 -2.56843 2.61586 0
M  V30 3569 H 335.037 -4.79246 1.52748 0
M  V30 3570 H 334.737 -4.87426 3.2816 0
M  V30 3571 H 336.261 -5.52038 2.60933 0
M  V30 3572 H 337.675 -3.90049 4.20161 0
M  V30 3573 H 336.072 -3.49289 4.87972 0
M  V30 3574 H 337.142 -2.1928 4.32486 0
M  V30 3575 N 338.485 -1.33259 -0.841409 0
M  V30 3576 C 339.731 -1.24757 -1.59886 0
M  V30 3577 C 340.064 0.186913 -1.93298 0
M  V30 3578 O 339.339 1.12757 -1.5848 0
M  V30 3579 C 339.622 -2.12036 -2.91055 0
M  V30 3580 C 339.475 -3.63929 -2.6434 0
M  V30 3581 C 340.794 -1.9916 -3.92458 0
M  V30 3582 H 337.913 -0.454542 -0.580138 0
M  V30 3583 H 340.555 -1.63335 -0.970647 0
M  V30 3584 H 338.705 -1.79265 -3.44669 0
M  V30 3585 H 340.377 -4.06978 -2.17178 0
M  V30 3586 H 338.62 -3.85935 -1.98082 0
M  V30 3587 H 339.291 -4.20341 -3.57796 0
M  V30 3588 H 341.767 -2.27895 -3.48143 0
M  V30 3589 H 340.643 -2.62484 -4.82072 0
M  V30 3590 H 340.904 -0.963082 -4.31482 0
M  V30 3591 N 339.963 1.05934 -1.16686 0
M  V30 3592 C 341.212 1.78188 -0.945085 0
M  V30 3593 C 341.525 1.88338 0.528021 0
M  V30 3594 O 342.731 2.57258 0.867799 0
M  V30 3595 C 341.187 3.20277 -1.64167 0
M  V30 3596 C 340.795 3.18281 -3.15279 0
M  V30 3597 C 342.539 3.97039 -1.502 0
M  V30 3598 C 340.446 4.55112 -3.7766 0
M  V30 3599 H 339.376 0.667866 -0.349959 0
M  V30 3600 H 342.027 1.18794 -1.39858 0
M  V30 3601 H 340.409 3.79952 -1.11589 0
M  V30 3602 H 341.583 2.68167 -3.74731 0
M  V30 3603 H 339.898 2.55018 -3.29173 0
M  V30 3604 H 342.495 4.98194 -1.94183 0
M  V30 3605 H 342.838 4.13845 -0.451461 0
M  V30 3606 H 343.371 3.43894 -1.99954 0
M  V30 3607 H 340.11 4.43512 -4.82677 0
M  V30 3608 H 339.63 5.05406 -3.22994 0
M  V30 3609 H 341.309 5.24064 -3.79428 0
M  V30 3610 N 341.441 0.965919 1.2453 0
M  V30 3611 C 342.666 0.643971 1.97149 0
M  V30 3612 C 343.091 -0.779487 1.71189 0
M  V30 3613 O 342.449 -1.5288 0.974553 0
M  V30 3614 C 342.497 0.922557 3.48599 0
M  V30 3615 O 341.601 0.00707672 4.12399 0
M  V30 3616 H 340.942 0.243647 0.617683 0
M  V30 3617 H 343.472 1.29558 1.58353 0
M  V30 3618 H 343.482 0.853373 3.98976 0
M  V30 3619 H 342.157 1.95996 3.66822 0
M  V30 3620 H 340.734 0.12943 3.72675 0
M  V30 3621 N 342.919 -1.39368 0.735821 0
M  V30 3622 C 344.165 -2.00794 0.284544 0
M  V30 3623 C 344.498 -1.58255 -1.12557 0
M  V30 3624 O 343.773 -0.811819 -1.76748 0
M  V30 3625 C 344.056 -3.58011 0.387337 0
M  V30 3626 C 343.909 -4.10566 1.83728 0
M  V30 3627 C 345.228 -4.395 -0.22975 0
M  V30 3628 H 342.347 -0.729501 0.104866 0
M  V30 3629 H 344.989 -1.65564 0.93213 0
M  V30 3630 H 343.139 -3.88154 -0.164006 0
M  V30 3631 H 344.811 -3.91139 2.44556 0
M  V30 3632 H 343.054 -3.64095 2.35833 0
M  V30 3633 H 343.725 -5.19702 1.86047 0
M  V30 3634 H 346.201 -4.15406 0.240257 0
M  V30 3635 H 345.077 -5.48752 -0.127485 0
M  V30 3636 H 345.338 -4.22062 -1.3159 0
M  V30 3637 N 344.397 -0.483516 -1.5 0
M  V30 3638 C 345.637 0.0657469 -2.04294 0
M  V30 3639 C 346.001 1.35869 -1.35659 0
M  V30 3640 O 347.202 1.99111 -1.80578 0
M  V30 3641 C 345.473 0.232758 -3.56641 0
M  V30 3642 S 347.032 0.738788 -4.32536 0
M  V30 3643 H 343.85 0.0100755 -0.710929 0
M  V30 3644 H 346.452 -0.653494 -1.84254 0
M  V30 3645 H 345.156 -0.713847 -4.04144 0
M  V30 3646 H 344.687 0.977751 -3.81056 0
M  V30 3647 H 346.702 2.01048 -4.53645 0
M  V30 3648 N 345.875 1.56104 -0.216619 0
M  V30 3649 C 347.105 2.02269 0.420802 0
M  V30 3650 C 347.513 1.09575 1.5424 0
M  V30 3651 O 346.856 0.0967308 1.83445 0
M  V30 3652 C 346.918 3.44784 1.01806 0
M  V30 3653 C 346.582 4.56988 0.0325154 0
M  V30 3654 C 347.579 5.14225 -0.766055 0
M  V30 3655 C 345.264 5.02228 -0.0848092 0
M  V30 3656 C 347.258 6.15169 -1.6687 0
M  V30 3657 C 344.945 6.03011 -0.990994 0
M  V30 3658 C 345.943 6.59357 -1.78149 0
M  V30 3659 O 345.631 7.58179 -2.67245 0
M  V30 3660 H 345.363 0.667353 0.107776 0
M  V30 3661 H 347.917 2.02747 -0.329034 0
M  V30 3662 H 346.147 3.41359 1.81689 0
M  V30 3663 H 347.836 3.74626 1.56237 0
M  V30 3664 H 348.602 4.80126 -0.685836 0
M  V30 3665 H 344.481 4.58054 0.520349 0
M  V30 3666 H 348.025 6.59076 -2.28615 0
M  V30 3667 H 343.922 6.36532 -1.07225 0
M  V30 3668 H 344.69 7.75682 -2.61265 0
M  V30 3669 N 347.353 -0.0568162 1.57498 0
M  V30 3670 C 348.578 -0.769402 1.92601 0
M  V30 3671 C 349.003 -1.69559 0.814336 0
M  V30 3672 O 348.361 -1.79811 -0.231903 0
M  V30 3673 C 348.409 -1.52634 3.26704 0
M  V30 3674 O 347.513 -2.63797 3.16994 0
M  V30 3675 H 346.854 -0.208909 0.63028 0
M  V30 3676 H 349.384 -0.0205798 2.0459 0
M  V30 3677 H 349.394 -1.90234 3.60936 0
M  V30 3678 H 348.069 -0.846875 4.07186 0
M  V30 3679 H 346.646 -2.28943 2.94346 0
M  V30 3680 N 348.832 -1.54138 -0.328536 0
M  V30 3681 C 349.762 -1.86167 -1.40939 0
M  V30 3682 C 350.743 -0.718044 -1.54202 0
M  V30 3683 O 351.928 -0.971328 -1.68163 0
M  V30 3684 C 349.058 -2.08461 -2.77779 0
M  V30 3685 C 348.012 -3.24299 -2.7931 0
M  V30 3686 C 347.338 -3.31955 -4.19178 0
M  V30 3687 C 348.638 -4.62065 -2.43502 0
M  V30 3688 H 350.332 -2.76689 -1.14383 0
M  V30 3689 H 347.878 -1.33132 -0.548806 0
M  V30 3690 H 349.831 -2.29453 -3.53454 0
M  V30 3691 H 348.555 -1.14684 -3.05802 0
M  V30 3692 H 347.214 -3.03187 -2.0609 0
M  V30 3693 H 346.862 -2.35745 -4.44335 0
M  V30 3694 H 346.562 -4.09805 -4.2111 0
M  V30 3695 H 348.086 -3.55175 -4.96672 0
M  V30 3696 H 349.5 -4.8297 -3.08889 0
M  V30 3697 H 347.897 -5.42429 -2.56693 0
M  V30 3698 H 348.967 -4.64652 -1.38659 0
M  V30 3699 N 350.31 0.590341 -1.46126 0
M  V30 3700 C 351.243 1.71434 -1.50617 0
M  V30 3701 C 352.221 1.58543 -0.360948 0
M  V30 3702 O 353.405 1.79865 -0.563985 0
M  V30 3703 C 350.532 3.09422 -1.37753 0
M  V30 3704 C 349.578 3.40854 -2.5636 0
M  V30 3705 S 350.411 3.33773 -4.18755 0
M  V30 3706 C 351.567 4.74312 -4.08386 0
M  V30 3707 H 351.8 1.67364 -2.45717 0
M  V30 3708 H 349.333 0.76845 -1.33919 0
M  V30 3709 H 351.291 3.8903 -1.31018 0
M  V30 3710 H 349.952 3.10989 -0.440949 0
M  V30 3711 H 349.145 4.41368 -2.43332 0
M  V30 3712 H 348.747 2.68798 -2.60046 0
M  V30 3713 H 351.039 5.64522 -3.74595 0
M  V30 3714 H 351.982 4.92397 -5.08872 0
M  V30 3715 H 352.39 4.50803 -3.3976 0
M  V30 3716 N 351.788 1.33704 0.83433 0
M  V30 3717 C 353.037 1.24763 1.58484 0
M  V30 3718 C 353.35 -0.183775 1.94735 0
M  V30 3719 O 354.556 -0.395234 2.68608 0
M  V30 3720 C 353.012 2.18638 2.85876 0
M  V30 3721 C 352.62 3.66974 2.56971 0
M  V30 3722 C 354.364 2.18581 3.63899 0
M  V30 3723 C 352.271 4.5275 3.80488 0
M  V30 3724 H 351.201 0.463425 0.594772 0
M  V30 3725 H 353.852 1.58797 0.919551 0
M  V30 3726 H 352.234 1.77542 3.5397 0
M  V30 3727 H 353.408 4.16538 1.9706 0
M  V30 3728 H 351.723 3.69366 1.92244 0
M  V30 3729 H 354.32 2.79894 4.55591 0
M  V30 3730 H 354.663 1.18207 3.99165 0
M  V30 3731 H 355.196 2.58062 3.02735 0
M  V30 3732 H 351.935 5.54017 3.5035 0
M  V30 3733 H 351.455 4.07927 4.39722 0
M  V30 3734 H 353.134 4.66784 4.4802 0
M  V30 3735 N 353.266 -1.05314 1.17247 0
M  V30 3736 C 354.682 -1.30452 0.919473 0
M  V30 3737 C 354.882 -1.9703 -0.42209 0
M  V30 3738 O 353.938 -2.24311 -1.15935 0
M  V30 3739 C 355.251 -2.17551 2.07586 0
M  V30 3740 C 356.799 -2.30937 2.11275 0
M  V30 3741 C 357.274 -3.21396 3.26296 0
M  V30 3742 N 358.765 -3.28981 3.26076 0
M  V30 3743 C 359.5 -3.99095 4.11716 0
M  V30 3744 N 358.996 -4.71648 5.07465 0
M  V30 3745 N 360.789 -3.95247 3.9967 0
M  V30 3746 H 352.94 -0.604988 2.03602 0
M  V30 3747 H 355.203 -0.329368 0.888944 0
M  V30 3748 H 354.909 -1.75921 3.0454 0
M  V30 3749 H 354.783 -3.18182 2.02584 0
M  V30 3750 H 357.17 -2.71809 1.14907 0
M  V30 3751 H 357.251 -1.2994 2.20339 0
M  V30 3752 H 356.895 -2.81238 4.22927 0
M  V30 3753 H 356.825 -4.22395 3.14467 0
M  V30 3754 H 359.316 -2.77286 2.5675 0
M  V30 3755 H 359.629 -5.22705 5.6921 0
M  V30 3756 H 357.974 -4.70594 5.11435 0
M  V30 3757 H 361.165 -3.37691 3.24164 0
M  V30 3758 H 361.338 -4.4962 4.66632 0
M  V30 3759 N 354.744 -0.972509 -1.24016 0
M  V30 3760 C 356.16 -0.679827 -1.44397 0
M  V30 3761 C 356.36 0.756716 -1.86751 0
M  V30 3762 O 355.416 1.53007 -2.00861 0
M  V30 3763 C 356.729 -1.66803 -2.50195 0
M  V30 3764 C 358.277 -1.68119 -2.64017 0
M  V30 3765 C 358.752 -2.65748 -3.73017 0
M  V30 3766 N 360.243 -2.64219 -3.8045 0
M  V30 3767 C 360.978 -3.36433 -4.64328 0
M  V30 3768 N 360.474 -4.1818 -5.52356 0
M  V30 3769 N 362.267 -3.25235 -4.58453 0
M  V30 3770 H 354.418 -1.90059 -0.948228 0
M  V30 3771 H 356.681 -0.818527 -0.478245 0
M  V30 3772 H 356.387 -2.69498 -2.25973 0
M  V30 3773 H 356.261 -1.4446 -3.48441 0
M  V30 3774 H 358.648 -0.661319 -2.87594 0
M  V30 3775 H 358.729 -1.94525 -1.66113 0
M  V30 3776 H 358.373 -3.67872 -3.50189 0
M  V30 3777 H 358.303 -2.36619 -4.70446 0
M  V30 3778 H 360.794 -2.04887 -3.17537 0
M  V30 3779 H 361.107 -4.70157 -6.13329 0
M  V30 3780 H 359.452 -4.22273 -5.52006 0
M  V30 3781 H 362.643 -2.60829 -3.88698 0
M  V30 3782 H 362.816 -3.81776 -5.23594 0
M  V30 3783 N 356.222 1.38976 -0.743202 0
M  V30 3784 C 357.152 2.33171 -0.123873 0
M  V30 3785 C 358.133 1.54336 0.71516 0
M  V30 3786 O 359.318 1.82696 0.658467 0
M  V30 3787 C 356.448 3.38474 0.777978 0
M  V30 3788 C 355.402 4.27979 0.0424758 0
M  V30 3789 C 354.728 5.2405 1.06189 0
M  V30 3790 C 356.028 5.10155 -1.1198 0
M  V30 3791 H 357.722 2.85213 -0.910709 0
M  V30 3792 H 355.268 1.37133 -0.439388 0
M  V30 3793 H 357.221 4.03328 1.22084 0
M  V30 3794 H 355.945 2.84891 1.59702 0
M  V30 3795 H 354.604 3.64616 -0.380853 0
M  V30 3796 H 354.252 4.66758 1.87472 0
M  V30 3797 H 353.952 5.84785 0.574485 0
M  V30 3798 H 355.476 5.9178 1.50428 0
M  V30 3799 H 356.89 5.68307 -0.75499 0
M  V30 3800 H 355.287 5.80073 -1.53738 0
M  V30 3801 H 356.357 4.44504 -1.93764 0
M  V30 3802 N 357.7 0.491464 1.49741 0
M  V30 3803 C 359.116 0.146835 1.58923 0
M  V30 3804 C 359.316 -1.34804 1.49767 0
M  V30 3805 O 358.372 -2.12317 1.36667 0
M  V30 3806 C 359.685 0.715157 2.92072 0
M  V30 3807 C 361.233 0.680407 3.05515 0
M  V30 3808 C 361.708 1.22663 4.41269 0
M  V30 3809 N 363.199 1.18691 4.47735 0
M  V30 3810 C 363.934 1.57984 5.51207 0
M  V30 3811 N 363.43 2.04824 6.6183 0
M  V30 3812 N 365.223 1.49459 5.41866 0
M  V30 3813 H 357.374 1.46347 1.53936 0
M  V30 3814 H 359.637 0.606453 0.728642 0
M  V30 3815 H 359.343 1.76317 3.04311 0
M  V30 3816 H 359.217 0.17018 3.76816 0
M  V30 3817 H 361.604 -0.358743 2.92911 0
M  V30 3818 H 361.685 1.26242 2.22478 0
M  V30 3819 H 361.329 2.26451 4.54623 0
M  V30 3820 H 361.259 0.620637 5.2293 0
M  V30 3821 H 363.75 0.843605 3.68364 0
M  V30 3822 H 364.063 2.32901 7.3687 0
M  V30 3823 H 362.408 2.08791 6.62896 0
M  V30 3824 H 365.599 1.12692 4.54333 0
M  V30 3825 H 365.772 1.80406 6.22381 0
M  V30 3826 N 359.178 -1.55987 0.224894 0
M  V30 3827 C 360.426 -1.97998 -0.405099 0
M  V30 3828 C 360.747 -1.11387 -1.60056 0
M  V30 3829 O 360.017 -0.191645 -1.9496 0
M  V30 3830 H 358.597 -0.731235 -0.152658 0
M  V30 3831 H 361.259 -1.92279 0.318567 0
M  V30 3832 H 360.355 -3.03463 -0.729167 0
M  V30 3833 N 360.656 0.0484629 -1.57525 0
M  V30 3834 C 361.902 0.744226 -1.88651 0
M  V30 3835 C 362.235 1.76029 -0.820212 0
M  V30 3836 O 361.51 1.93782 0.166985 0
M  V30 3837 C 361.793 1.43128 -3.30434 0
M  V30 3838 C 361.646 0.43005 -4.47739 0
M  V30 3839 C 362.965 2.37031 -3.70816 0
M  V30 3840 H 360.084 0.269089 -0.68612 0
M  V30 3841 H 362.726 0.00713532 -1.89999 0
M  V30 3842 H 360.876 2.05956 -3.29415 0
M  V30 3843 H 362.548 -0.194816 -4.60888 0
M  V30 3844 H 360.791 -0.252522 -4.33064 0
M  V30 3845 H 361.462 0.948874 -5.43783 0
M  V30 3846 H 363.938 1.84263 -3.73077 0
M  V30 3847 H 362.814 2.82094 -4.70865 0
M  V30 3848 H 363.075 3.22864 -3.02012 0
M  V30 3849 N 362.134 1.5431 0.320358 0
M  V30 3850 C 363.55 1.45091 0.664889 0
M  V30 3851 C 363.75 0.626382 1.91517 0
M  V30 3852 O 362.806 0.126443 2.52183 0
M  V30 3853 C 364.119 2.88848 0.83591 0
M  V30 3854 C 365.667 2.9877 0.933046 0
M  V30 3855 C 366.142 4.43683 1.13621 0
M  V30 3856 N 367.633 4.47309 1.20287 0
M  V30 3857 C 368.368 5.56595 1.37801 0
M  V30 3858 N 367.864 6.75844 1.52338 0
M  V30 3859 N 369.657 5.44248 1.40535 0
M  V30 3860 H 361.808 2.06398 -0.501374 0
M  V30 3861 H 364.071 0.933963 -0.162534 0
M  V30 3862 H 363.777 3.51698 -0.0116092 0
M  V30 3863 H 363.651 3.35148 1.73078 0
M  V30 3864 H 366.038 2.36045 1.77107 0
M  V30 3865 H 366.119 2.55796 0.0145782 0
M  V30 3866 H 365.763 5.06995 0.303032 0
M  V30 3867 H 365.693 4.84269 2.0686 0
M  V30 3868 H 368.184 3.61388 1.10485 0
M  V30 3869 H 368.497 7.54892 1.65403 0
M  V30 3870 H 366.842 6.78746 1.4943 0
M  V30 3871 H 370.033 4.50038 1.28777 0
M  V30 3872 H 370.206 6.29473 1.53842 0
M  V30 3873 N 363.613 -0.582584 1.46437 0
M  V30 3874 C 364.543 -1.70187 1.59871 0
M  V30 3875 C 365.524 -1.64066 0.449042 0
M  V30 3876 O 366.709 -1.82081 0.6753 0
M  V30 3877 C 363.839 -3.08827 1.58881 0
M  V30 3878 C 362.793 -3.29779 2.72819 0
M  V30 3879 C 362.119 -4.68947 2.5689 0
M  V30 3880 C 363.419 -3.17601 4.1464 0
M  V30 3881 H 365.113 -1.592 2.53566 0
M  V30 3882 H 362.659 -0.764472 1.22032 0
M  V30 3883 H 364.612 -3.86951 1.66873 0
M  V30 3884 H 363.336 -3.20713 0.617306 0
M  V30 3885 H 361.995 -2.54054 2.64296 0
M  V30 3886 H 361.643 -4.77599 1.57823 0
M  V30 3887 H 361.343 -4.83919 3.33312 0
M  V30 3888 H 362.867 -5.4924 2.66773 0
M  V30 3889 H 364.281 -3.8557 4.24274 0
M  V30 3890 H 362.678 -3.44094 4.9165 0
M  V30 3891 H 363.748 -2.14681 4.34788 0
M  V30 3892 N 365.091 -1.34144 -0.827227 0
M  V30 3893 C 366.021 -1.28005 -1.95287 0
M  V30 3894 C 367.002 -0.158321 -1.69362 0
M  V30 3895 O 368.187 -0.349987 -1.9102 0
M  V30 3896 C 365.317 -1.03036 -3.31664 0
M  V30 3897 C 364.271 -2.11628 -3.72019 0
M  V30 3898 C 363.597 -1.71854 -5.0633 0
M  V30 3899 C 364.897 -3.53417 -3.8457 0
M  V30 3900 H 366.591 -2.22187 -2.00682 0
M  V30 3901 H 364.137 -1.0696 -0.964135 0
M  V30 3902 H 366.09 -0.973863 -4.09993 0
M  V30 3903 H 364.814 -0.0529391 -3.26557 0
M  V30 3904 H 363.473 -2.16339 -2.95961 0
M  V30 3905 H 363.121 -0.727841 -4.97706 0
M  V30 3906 H 362.821 -2.44531 -5.34302 0
M  V30 3907 H 364.345 -1.67692 -5.87122 0
M  V30 3908 H 365.759 -3.51142 -4.5318 0
M  V30 3909 H 364.156 -4.24679 -4.2399 0
M  V30 3910 H 365.226 -3.91072 -2.86689 0
M  V30 3911 N 366.569 1.04691 -1.17803 0
M  V30 3912 C 367.794 1.81984 -0.994813 0
M  V30 3913 C 368.219 1.82586 0.452112 0
M  V30 3914 O 367.577 1.23854 1.324 0
M  V30 3915 C 367.625 3.2575 -1.54659 0
M  V30 3916 O 366.729 4.05267 -0.763728 0
M  V30 3917 H 366.07 0.562483 -0.352857 0
M  V30 3918 H 368.6 1.3189 -1.56417 0
M  V30 3919 H 368.61 3.76541 -1.57102 0
M  V30 3920 H 367.285 3.24627 -2.59981 0
M  V30 3921 H 365.862 3.63972 -0.811108 0
M  V30 3922 N 368.047 0.979072 1.23499 0
M  V30 3923 C 369.295 0.645941 1.91499 0
M  V30 3924 C 369.616 -0.822948 1.76784 0
M  V30 3925 O 368.886 -1.58854 1.14639 0
M  V30 3926 H 367.466 0.235919 0.708767 0
M  V30 3927 H 370.128 1.2426 1.50152 0
M  V30 3928 H 369.224 0.896411 2.9895 0
M  V30 3929 N 369.525 -1.3858 0.750561 0
M  V30 3930 C 370.75 -2.04997 0.314812 0
M  V30 3931 C 371.175 -1.56235 -1.04749 0
M  V30 3932 O 370.533 -0.712981 -1.66692 0
M  V30 3933 C 370.581 -3.58961 0.343415 0
M  V30 3934 O 369.685 -4.07025 -0.663628 0
M  V30 3935 H 369.026 -0.649081 0.139962 0
M  V30 3936 H 371.556 -1.77313 1.02084 0
M  V30 3937 H 371.566 -4.07542 0.193233 0
M  V30 3938 H 370.241 -3.93811 1.33738 0
M  V30 3939 H 368.818 -3.6982 -0.478307 0
M  V30 3940 N 371.003 -0.499398 -1.49478 0
M  V30 3941 C 372.419 -0.155261 -1.58843 0
M  V30 3942 C 372.619 1.34008 -1.50479 0
M  V30 3943 O 371.675 2.11589 -1.37791 0
M  V30 3944 C 372.988 -0.730636 -2.91689 0
M  V30 3945 C 374.536 -0.696599 -3.0515 0
M  V30 3946 C 375.011 -1.25001 -4.40612 0
M  V30 3947 N 376.502 -1.21064 -4.47099 0
M  V30 3948 C 377.237 -1.60905 -5.50361 0
M  V30 3949 N 376.733 -2.08331 -6.60735 0
M  V30 3950 N 378.526 -1.52331 -5.41065 0
M  V30 3951 H 370.677 -1.47162 -1.53158 0
M  V30 3952 H 372.94 -0.610309 -0.725415 0
M  V30 3953 H 372.646 -1.77928 -3.03372 0
M  V30 3954 H 372.52 -0.190161 -3.7672 0
M  V30 3955 H 374.907 0.343204 -2.93097 0
M  V30 3956 H 374.988 -1.2742 -2.21806 0
M  V30 3957 H 374.632 -2.28859 -4.53416 0
M  V30 3958 H 374.562 -0.64836 -5.22593 0
M  V30 3959 H 377.053 -0.863128 -3.67911 0
M  V30 3960 H 377.366 -2.36805 -7.35624 0
M  V30 3961 H 375.711 -2.12304 -6.6178 0
M  V30 3962 H 378.902 -1.151 -4.53729 0
M  V30 3963 H 379.075 -1.83704 -6.21415 0
M  V30 3964 N 372.481 1.55866 -0.233164 0
M  V30 3965 C 373.391 2.24431 0.683217 0
M  V30 3966 C 374.407 1.2558 1.2044 0
M  V30 3967 O 375.583 1.58422 1.24356 0
M  V30 3968 C 372.648 2.91979 1.86947 0
M  V30 3969 C 371.709 4.06204 1.38912 0
M  V30 3970 C 370.942 4.70522 2.51883 0
M  V30 3971 O 371.165 4.33865 3.70293 0
M  V30 3972 O 370.099 5.59296 2.22423 0
M  V30 3973 H 373.925 3.03426 0.129059 0
M  V30 3974 H 371.51 1.494 -0.0022283 0
M  V30 3975 H 373.392 3.34573 2.56201 0
M  V30 3976 H 372.067 2.15935 2.41151 0
M  V30 3977 H 370.974 3.68155 0.664259 0
M  V30 3978 H 372.307 4.84025 0.893328 0
M  V30 3979 N 373.959 -0.0401083 1.57549 0
M  V30 3980 C 374.906 -1.04413 2.05831 0
M  V30 3981 C 375.876 -1.36585 0.945184 0
M  V30 3982 O 377.061 -1.47112 1.21502 0
M  V30 3983 C 374.201 -2.34336 2.53339 0
M  V30 3984 C 373.314 -2.08419 3.78398 0
M  V30 3985 C 372.449 -3.32133 4.14561 0
M  V30 3986 C 371.488 -3.01721 5.3257 0
M  V30 3987 N 370.625 -4.17855 5.64218 0
M  V30 3988 H 375.465 -0.625442 2.91363 0
M  V30 3989 H 373.002 -0.297218 1.44066 0
M  V30 3990 H 374.96 -3.10234 2.78946 0
M  V30 3991 H 373.59 -2.73948 1.7074 0
M  V30 3992 H 372.642 -1.23069 3.59942 0
M  V30 3993 H 373.954 -1.81978 4.64419 0
M  V30 3994 H 373.108 -4.16406 4.41238 0
M  V30 3995 H 371.847 -3.61678 3.2717 0
M  V30 3996 H 370.852 -2.15849 5.05657 0
M  V30 3997 H 372.077 -2.73466 6.21605 0
M  V30 3998 H 370.023 -4.47372 4.79786 0
M  V30 3999 H 369.94 -3.94798 6.44725 0
M  V30 4000 H 371.208 -5.03033 5.95465 0
M  V30 4001 N 375.437 -1.54477 -0.31217 0
M  V30 4002 C 376.714 -1.63891 -1.06767 0
M  V30 4003 C 377.094 -0.480028 -2.0557 0
M  V30 4004 O 376.442 0.524487 -2.22399 0
M  V30 4005 C 376.652 -3.01402 -1.75948 0
M  V30 4006 C 378 -3.57838 -2.28554 0
M  V30 4007 O 379.024 -3.03782 -1.85998 0
M  V30 4008 O 377.883 -4.52462 -3.06497 0
M  V30 4009 H 374.977 -0.664125 -0.492816 0
M  V30 4010 H 377.523 -1.66823 -0.311149 0
M  V30 4011 H 376.295 -3.77187 -1.04144 0
M  V30 4012 H 375.918 -3.02199 -2.58383 0
M  V30 4013 N 376.915 0.57481 -1.46744 0
M  V30 4014 C 378.331 0.898981 -1.31873 0
M  V30 4015 C 378.531 1.99313 -0.29605 0
M  V30 4016 O 377.587 2.50728 0.298621 0
M  V30 4017 C 378.9 1.30886 -2.7072 0
M  V30 4018 C 380.448 1.42127 -2.78871 0
M  V30 4019 C 380.923 1.86478 -4.18318 0
M  V30 4020 N 382.414 1.93658 -4.20774 0
M  V30 4021 C 383.149 2.29267 -5.2557 0
M  V30 4022 N 382.645 2.63612 -6.40688 0
M  V30 4023 N 384.438 2.29889 -5.1294 0
M  V30 4024 H 376.589 -0.147839 -2.11885 0
M  V30 4025 H 378.852 -0.00347013 -0.947994 0
M  V30 4026 H 378.558 0.578853 -3.46904 0
M  V30 4027 H 378.432 2.26874 -3.01343 0
M  V30 4028 H 380.819 2.14213 -2.0297 0
M  V30 4029 H 380.9 0.443705 -2.51922 0
M  V30 4030 H 380.544 1.14968 -4.94717 0
M  V30 4031 H 380.474 2.85207 -4.42679 0
M  V30 4032 H 382.965 1.69574 -3.37718 0
M  V30 4033 H 383.278 2.89759 -7.16421 0
M  V30 4034 H 381.623 2.61232 -6.44036 0
M  V30 4035 H 384.814 2.02485 -4.22039 0
M  V30 4036 H 384.987 2.57312 -5.94722 0
M  V30 4037 N 378.394 1.34581 0.820102 0
M  V30 4038 C 379.342 1.26401 1.95258 0
M  V30 4039 C 380.336 0.161553 1.68628 0
M  V30 4040 O 381.542 0.326703 1.7701 0
M  V30 4041 H 377.917 0.392749 0.64129 0
M  V30 4042 H 379.888 2.22105 1.99279 0
M  V30 4043 C 378.637 1.03919 3.31807 0
M  V30 4044 H 377.96 1.87984 3.52848 0
M  V30 4045 H 379.4 1.02232 4.11491 0
M  V30 4046 C 377.859 -0.257433 3.35915 0
M  V30 4047 O 378.389 -1.25784 3.81499 0
M  V30 4048 N 376.595 -0.291524 2.89134 0
M  V30 4049 H 376.142 0.523161 2.52232 0
M  V30 4050 H 376.1 -1.15883 2.92264 0
M  V30 4051 N 379.872 -1.04064 1.18357 0
M  V30 4052 C 380.802 -2.14001 0.934113 0
M  V30 4053 C 381.783 -1.69616 -0.128186 0
M  V30 4054 O 382.968 -1.94185 0.0244093 0
M  V30 4055 C 380.098 -3.44253 0.459066 0
M  V30 4056 C 379.052 -4.02261 1.46185 0
M  V30 4057 C 378.378 -5.27992 0.844322 0
M  V30 4058 C 379.678 -4.38432 2.83856 0
M  V30 4059 H 381.372 -2.35127 1.85352 0
M  V30 4060 H 378.918 -1.12998 0.892604 0
M  V30 4061 H 380.871 -4.20522 0.271907 0
M  V30 4062 H 379.595 -3.22813 -0.495912 0
M  V30 4063 H 378.254 -3.28074 1.63595 0
M  V30 4064 H 377.902 -5.02862 -0.117845 0
M  V30 4065 H 377.602 -5.67765 1.51384 0
M  V30 4066 H 379.126 -6.06938 0.667693 0
M  V30 4067 H 380.54 -5.05688 2.70098 0
M  V30 4068 H 378.937 -4.89254 3.47491 0
M  V30 4069 H 380.007 -3.4826 3.37406 0
M  V30 4070 N 381.35 -0.985608 -1.22978 0
M  V30 4071 C 382.766 -0.695104 -1.43668 0
M  V30 4072 C 382.966 0.736866 -1.87543 0
M  V30 4073 O 382.022 1.50868 -2.02473 0
M  V30 4074 C 383.335 -1.69447 -2.48412 0
M  V30 4075 C 384.883 -1.70909 -2.62219 0
M  V30 4076 C 385.358 -2.6969 -3.70178 0
M  V30 4077 N 386.849 -2.6824 -3.77626 0
M  V30 4078 C 387.584 -3.41339 -4.60733 0
M  V30 4079 N 387.08 -4.24015 -5.4789 0
M  V30 4080 N 388.873 -3.30079 -4.54977 0
M  V30 4081 H 381.024 -1.91054 -0.928016 0
M  V30 4082 H 383.287 -0.823553 -0.469536 0
M  V30 4083 H 382.993 -2.7188 -2.23102 0
M  V30 4084 H 382.867 -1.48147 -3.46889 0
M  V30 4085 H 385.254 -0.691785 -2.86877 0
M  V30 4086 H 385.335 -1.96276 -1.6404 0
M  V30 4087 H 384.979 -3.71566 -3.46268 0
M  V30 4088 H 384.909 -2.41595 -4.67909 0
M  V30 4089 H 387.4 -2.08243 -3.15346 0
M  V30 4090 H 387.713 -4.76636 -6.08308 0
M  V30 4091 H 386.058 -4.28104 -5.47496 0
M  V30 4092 H 389.249 -2.64937 -3.85909 0
M  V30 4093 H 389.422 -3.87308 -5.19516 0
M  V30 4094 N 382.828 1.3818 -0.7579 0
M  V30 4095 C 384.244 1.5353 -0.435972 0
M  V30 4096 C 384.444 1.71961 1.05032 0
M  V30 4097 O 383.5 1.73307 1.83633 0
M  V30 4098 C 384.813 2.73989 -1.23898 0
M  V30 4099 C 386.361 2.87841 -1.22949 0
M  V30 4100 C 386.836 4.11266 -2.01554 0
M  V30 4101 N 388.327 4.18352 -1.98837 0
M  V30 4102 C 389.062 5.12856 -2.5645 0
M  V30 4103 N 388.558 6.13005 -3.22794 0
M  V30 4104 N 390.351 5.05238 -2.46356 0
M  V30 4105 H 382.502 1.24467 -1.7211 0
M  V30 4106 H 384.765 0.604982 -0.729864 0
M  V30 4107 H 384.471 2.66789 -2.29165 0
M  V30 4108 H 384.345 3.67294 -0.858764 0
M  V30 4109 H 386.732 2.9452 -0.184854 0
M  V30 4110 H 386.813 1.95534 -1.64924 0
M  V30 4111 H 386.457 4.05349 -3.06031 0
M  V30 4112 H 386.387 5.02661 -1.5697 0
M  V30 4113 H 388.878 3.46628 -1.50524 0
M  V30 4114 H 389.191 6.81619 -3.64165 0
M  V30 4115 H 387.536 6.13325 -3.2689 0
M  V30 4116 H 390.727 4.25938 -1.9415 0
M  V30 4117 H 390.9 5.78707 -2.91552 0
M  V30 4118 N 384.306 0.507319 1.49211 0
M  V30 4119 C 385.555 -0.0368315 2.01666 0
M  V30 4120 C 385.868 -1.37459 1.39156 0
M  V30 4121 O 387.074 -2.00579 1.82976 0
M  V30 4122 C 385.53 -0.116089 3.59713 0
M  V30 4123 C 385.138 1.2154 4.31198 0
M  V30 4124 C 386.882 -0.610268 4.2009 0
M  V30 4125 C 384.789 1.09796 5.81119 0
M  V30 4126 H 383.719 -0.0175376 0.753796 0
M  V30 4127 H 386.37 0.647691 1.71689 0
M  V30 4128 H 384.752 -0.8652 3.86433 0
M  V30 4129 H 385.926 1.9783 4.16173 0
M  V30 4130 H 384.241 1.64352 3.82593 0
M  V30 4131 H 386.838 -0.715742 5.29888 0
M  V30 4132 H 387.181 -1.61064 3.8388 0
M  V30 4133 H 387.714 0.0824916 3.97714 0
M  V30 4134 H 384.453 2.0728 6.21864 0
M  V30 4135 H 383.973 0.376058 5.9862 0
M  V30 4136 H 385.652 0.779281 6.4229 0
M  V30 4137 N 385.784 -1.5574 0.241426 0
M  V30 4138 C 387.012 -2.03208 -0.389134 0
M  V30 4139 C 387.427 -1.12082 -1.51931 0
M  V30 4140 O 386.784 -0.134183 -1.82006 0
M  V30 4141 C 386.835 -3.50064 -0.902087 0
M  V30 4142 O 386.556 -4.37717 0.18305 0
M  V30 4143 C 388.057 -4.13268 -1.60389 0
M  V30 4144 H 385.277 -0.664509 -0.0931053 0
M  V30 4145 H 387.821 -2.0124 0.36369 0
M  V30 4146 H 385.976 -3.52583 -1.60511 0
M  V30 4147 H 386.39 -5.24097 -0.205579 0
M  V30 4148 H 387.864 -5.17733 -1.91458 0
M  V30 4149 H 388.341 -3.59434 -2.52397 0
M  V30 4150 H 388.947 -4.14655 -0.945576 0
M  V30 4151 N 387.262 0.0317525 -1.57568 0
M  V30 4152 C 388.678 0.38735 -1.54828 0
M  V30 4153 C 388.878 1.7677 -0.967187 0
M  V30 4154 O 387.934 2.45581 -0.587063 0
M  V30 4155 C 389.247 0.291667 -2.99282 0
M  V30 4156 C 390.795 0.368946 -3.10818 0
M  V30 4157 C 391.27 0.302741 -4.56998 0
M  V30 4158 N 392.761 0.361617 -4.61786 0
M  V30 4159 C 393.496 0.333238 -5.72431 0
M  V30 4160 N 392.992 0.257308 -6.92322 0
M  V30 4161 N 394.785 0.382769 -5.60795 0
M  V30 4162 H 386.936 -0.871609 -1.93692 0
M  V30 4163 H 389.199 -0.331161 -0.888277 0
M  V30 4164 H 388.905 -0.656794 -3.45513 0
M  V30 4165 H 388.779 1.08638 -3.61217 0
M  V30 4166 H 391.166 1.30784 -2.64536 0
M  V30 4167 H 391.247 -0.455066 -2.5172 0
M  V30 4168 H 390.891 -0.632473 -5.03947 0
M  V30 4169 H 390.821 1.14482 -5.14005 0
M  V30 4170 H 393.312 0.422923 -3.75526 0
M  V30 4171 H 393.625 0.24068 -7.72425 0
M  V30 4172 H 391.97 0.223396 -6.94641 0
M  V30 4173 H 395.161 0.44006 -4.66027 0
M  V30 4174 H 395.334 0.357184 -6.47015 0
M  V30 4175 N 388.74 1.54641 0.303973 0
M  V30 4176 C 389.67 1.88386 1.3796 0
M  V30 4177 C 390.651 0.742485 1.5304 0
M  V30 4178 O 391.836 0.997959 1.66597 0
M  V30 4179 C 388.966 2.12854 2.74427 0
M  V30 4180 C 387.92 3.28702 2.74115 0
M  V30 4181 C 387.246 3.38582 4.13844 0
M  V30 4182 C 388.546 4.65881 2.3612 0
M  V30 4183 H 390.24 2.78474 1.09966 0
M  V30 4184 H 387.786 1.33988 0.527556 0
M  V30 4185 H 389.739 2.35047 3.49758 0
M  V30 4186 H 388.463 1.19535 3.03939 0
M  V30 4187 H 387.122 3.06428 2.0124 0
M  V30 4188 H 386.77 2.42784 4.40528 0
M  V30 4189 H 386.47 4.16453 4.14537 0
M  V30 4190 H 387.994 3.63031 4.90959 0
M  V30 4191 H 389.408 4.87823 3.01167 0
M  V30 4192 H 387.805 5.46444 2.48031 0
M  V30 4193 H 388.875 4.66799 1.3125 0
M  V30 4194 N 390.218 -0.567019 1.47046 0
M  V30 4195 C 391.464 -1.32658 1.53394 0
M  V30 4196 C 391.797 -1.93254 0.19148 0
M  V30 4197 O 391.072 -1.77338 -0.798844 0
M  V30 4198 C 391.355 -2.44412 2.64452 0
M  V30 4199 C 391.208 -1.88749 4.08282 0
M  V30 4200 C 392.527 -3.46387 2.71485 0
M  V30 4201 H 389.646 -0.48098 0.558415 0
M  V30 4202 H 392.288 -0.635481 1.79058 0
M  V30 4203 H 390.438 -3.03363 2.427 0
M  V30 4204 H 392.11 -1.34134 4.41368 0
M  V30 4205 H 390.353 -1.19481 4.17021 0
M  V30 4206 H 391.024 -2.69491 4.81745 0
M  V30 4207 H 393.5 -2.9734 2.91081 0
M  V30 4208 H 392.376 -4.2202 3.50985 0
M  V30 4209 H 392.637 -4.04616 1.78153 0
M  V30 4210 N 391.696 -1.35014 -0.812953 0
M  V30 4211 C 392.626 -1.30069 -1.93919 0
M  V30 4212 C 393.607 -0.176275 -1.69184 0
M  V30 4213 O 394.792 -0.370227 -1.90638 0
M  V30 4214 C 391.922 -1.06547 -3.30552 0
M  V30 4215 C 390.876 -2.15561 -3.69753 0
M  V30 4216 C 390.202 -1.77214 -5.04479 0
M  V30 4217 C 391.502 -3.57476 -3.808 0
M  V30 4218 H 393.196 -2.24303 -1.98314 0
M  V30 4219 H 390.742 -1.07977 -0.952736 0
M  V30 4220 H 392.695 -1.01729 -4.08937 0
M  V30 4221 H 391.419 -0.0875719 -3.26483 0
M  V30 4222 H 390.078 -2.19466 -2.9365 0
M  V30 4223 H 389.726 -0.780589 -4.96906 0
M  V30 4224 H 389.426 -2.50184 -5.31678 0
M  V30 4225 H 390.95 -1.7391 -5.8531 0
M  V30 4226 H 392.364 -3.55929 -4.4943 0
M  V30 4227 H 390.761 -4.29152 -4.19462 0
M  V30 4228 H 391.831 -3.94091 -2.82525 0
M  V30 4229 N 393.175 1.03435 -1.18907 0
M  V30 4230 C 394.421 1.77005 -0.989798 0
M  V30 4231 C 394.754 1.88205 0.478816 0
M  V30 4232 O 394.029 1.39481 1.35556 0
M  V30 4233 C 394.312 3.19925 -1.65287 0
M  V30 4234 C 394.165 3.1663 -3.19477 0
M  V30 4235 C 395.484 4.18189 -1.37134 0
M  V30 4236 H 392.603 0.642538 -0.360991 0
M  V30 4237 H 395.245 1.20784 -1.46667 0
M  V30 4238 H 393.395 3.67929 -1.24741 0
M  V30 4239 H 395.067 2.76567 -3.692 0
M  V30 4240 H 393.31 2.54491 -3.51307 0
M  V30 4241 H 393.981 4.1758 -3.61013 0
M  V30 4242 H 396.457 3.78761 -1.72276 0
M  V30 4243 H 395.333 5.16394 -1.86087 0
M  V30 4244 H 395.594 4.41112 -0.295424 0
M  V30 4245 N 394.653 0.992116 1.22453 0
M  V30 4246 C 395.899 0.668523 1.91464 0
M  V30 4247 C 396.232 -0.797313 1.77078 0
M  V30 4248 O 395.507 -1.5765 1.13916 0
M  V30 4249 C 395.79 1.07424 3.43703 0
M  V30 4250 C 395.643 2.59857 3.67143 0
M  V30 4251 C 396.962 0.626891 4.35612 0
M  V30 4252 H 394.081 0.244341 0.695318 0
M  V30 4253 H 396.723 1.2355 1.44345 0
M  V30 4254 H 394.873 0.591816 3.83966 0
M  V30 4255 H 396.545 3.15764 3.3629 0
M  V30 4256 H 394.788 3.01961 3.11451 0
M  V30 4257 H 395.459 2.83296 4.73759 0
M  V30 4258 H 397.935 1.04125 4.02861 0
M  V30 4259 H 396.811 0.939076 5.40807 0
M  V30 4260 H 397.072 -0.472457 4.39568 0
M  V30 4261 N 396.131 -1.37776 0.765217 0
M  V30 4262 C 397.377 -2.00145 0.327072 0
M  V30 4263 C 397.71 -1.60607 -1.09175 0
M  V30 4264 O 396.985 -0.849127 -1.74986 0
M  V30 4265 C 397.268 -3.57109 0.46319 0
M  V30 4266 C 397.121 -4.06576 1.92395 0
M  V30 4267 C 398.44 -4.39888 -0.136473 0
M  V30 4268 H 395.559 -0.727113 0.120316 0
M  V30 4269 H 398.201 -1.63549 0.967039 0
M  V30 4270 H 396.351 -3.88414 -0.0816358 0
M  V30 4271 H 398.023 -3.85864 2.52798 0
M  V30 4272 H 396.266 -3.59011 2.43503 0
M  V30 4273 H 396.937 -5.15639 1.97028 0
M  V30 4274 H 399.413 -4.14803 0.328317 0
M  V30 4275 H 398.289 -5.48899 -0.0110582 0
M  V30 4276 H 398.55 -4.24758 -1.22608 0
M  V30 4277 N 397.609 -0.515225 -1.4894 0
M  V30 4278 C 398.572 0.244681 -2.2789 0
M  V30 4279 C 399.572 0.881166 -1.34507 0
M  V30 4280 O 400.762 0.743497 -1.57537 0
M  V30 4281 C 397.894 1.35247 -3.12923 0
M  V30 4282 H 399.087 -0.448289 -2.96531 0
M  V30 4283 H 396.64 -0.270656 -1.53939 0
M  V30 4284 H 397.375 2.07916 -2.48881 0
M  V30 4285 H 397.16 0.901374 -3.81599 0
M  V30 4286 H 398.65 1.88737 -3.72516 0
M  V30 4287 N 399.087 1.5561 -0.249682 0
M  V30 4288 C 400.333 1.99306 0.374841 0
M  V30 4289 C 400.666 1.13767 1.57387 0
M  V30 4290 O 399.941 0.201711 1.93451 0
M  V30 4291 C 400.224 3.51507 0.781986 0
M  V30 4292 C 400.077 4.4781 -0.422629 0
M  V30 4293 C 401.396 4.08884 1.62793 0
M  V30 4294 H 398.515 0.724572 0.134773 0
M  V30 4295 H 401.157 1.86719 -0.351549 0
M  V30 4296 H 399.307 3.62363 1.4009 0
M  V30 4297 H 400.979 4.48931 -1.06108 0
M  V30 4298 H 399.222 4.20518 -1.06524 0
M  V30 4299 H 399.893 5.51919 -0.0943766 0
M  V30 4300 H 402.369 4.01147 1.10547 0
M  V30 4301 H 401.245 5.1564 1.88166 0
M  V30 4302 H 401.506 3.57515 2.60068 0
M  V30 4303 N 400.565 -0.0233959 1.57583 0
M  V30 4304 C 401.812 -0.713063 1.8953 0
M  V30 4305 C 402.14 -1.75056 0.847673 0
M  V30 4306 O 401.395 -1.95119 -0.150636 0
M  V30 4307 C 401.694 -1.41428 3.28227 0
M  V30 4308 C 401.36 -0.512222 4.47981 0
M  V30 4309 C 400.022 -0.263785 4.80476 0
M  V30 4310 C 402.374 0.110248 5.21083 0
M  V30 4311 C 399.702 0.615804 5.83459 0
M  V30 4312 C 402.054 0.977573 6.25001 0
M  V30 4313 C 400.718 1.23542 6.55968 0
M  V30 4314 H 399.988 -0.260928 0.69354 0
M  V30 4315 H 402.635 0.0271047 1.91481 0
M  V30 4316 H 400.94 -2.22791 3.22291 0
M  V30 4317 H 402.637 -1.95355 3.50196 0
M  V30 4318 H 399.227 -0.716013 4.22577 0
M  V30 4319 H 403.411 -0.0687137 4.96252 0
M  V30 4320 H 398.667 0.82382 6.05824 0
M  V30 4321 H 402.841 1.46638 6.80786 0
M  V30 4322 H 400.468 1.91871 7.35588 0
M  V30 4323 N 402.043 -1.548 -0.295768 0
M  V30 4324 C 403.289 -1.74588 -1.03184 0
M  V30 4325 C 403.622 -0.532962 -1.86744 0
M  V30 4326 O 402.897 0.469872 -1.88739 0
M  V30 4327 C 403.18 -3.03791 -1.93347 0
M  V30 4328 C 403.033 -4.35392 -1.12933 0
M  V30 4329 C 404.352 -3.28892 -2.92435 0
M  V30 4330 H 401.471 -0.635221 -0.373715 0
M  V30 4331 H 404.113 -1.87519 -0.30606 0
M  V30 4332 H 402.263 -2.92898 -2.55232 0
M  V30 4333 H 403.935 -4.58211 -0.532943 0
M  V30 4334 H 402.178 -4.31642 -0.432168 0
M  V30 4335 H 402.849 -5.22074 -1.79284 0
M  V30 4336 H 405.325 -3.39429 -2.4068 0
M  V30 4337 H 404.201 -4.20603 -3.52682 0
M  V30 4338 H 404.462 -2.47437 -3.6637 0
M  V30 4339 N 403.521 0.559213 -1.47345 0
M  V30 4340 C 404.769 1.31388 -1.53563 0
M  V30 4341 C 405.09 1.93985 -0.198678 0
M  V30 4342 O 404.36 1.79825 0.777167 0
M  V30 4343 H 402.94 0.487901 -0.565652 0
M  V30 4344 H 405.602 0.65315 -1.8363 0
M  V30 4345 H 404.698 2.10844 -2.30111 0
M  V30 4346 N 404.999 1.35443 0.805782 0
M  V30 4347 C 406.239 1.30127 1.57627 0
M  V30 4348 C 406.603 -0.122567 1.91608 0
M  V30 4349 O 407.804 -0.300107 2.67119 0
M  V30 4350 C 406.075 2.18314 2.82973 0
M  V30 4351 S 407.634 2.30521 3.7337 0
M  V30 4352 H 404.452 0.462439 0.540066 0
M  V30 4353 H 407.054 1.70843 0.95042 0
M  V30 4354 H 405.758 3.20741 2.56034 0
M  V30 4355 H 405.289 1.78558 3.50543 0
M  V30 4356 H 407.304 1.49062 4.73281 0
M  V30 4357 N 406.477 -1.02803 1.19454 0
M  V30 4358 C 407.723 -1.76598 1.0092 0
M  V30 4359 C 408.078 -1.86939 -0.455142 0
M  V30 4360 O 407.371 -1.37575 -1.33355 0
M  V30 4361 C 407.565 -3.18941 1.6128 0
M  V30 4362 C 407.394 -3.22476 3.13431 0
M  V30 4363 C 406.164 -3.30375 3.82336 0
M  V30 4364 C 408.362 -3.09451 4.10785 0
M  V30 4365 N 406.344 -3.23292 5.21877 0
M  V30 4366 C 407.715 -3.10012 5.36929 0
M  V30 4367 C 409.77 -2.93585 4.02135 0
M  V30 4368 C 408.473 -2.96334 6.55423 0
M  V30 4369 C 410.499 -2.81256 5.20239 0
M  V30 4370 C 409.861 -2.82472 6.45282 0
M  V30 4371 H 405.96 -0.657447 0.423424 0
M  V30 4372 H 408.544 -1.22369 1.5144 0
M  V30 4373 H 406.715 -3.71489 1.1336 0
M  V30 4374 H 408.447 -3.81102 1.36173 0
M  V30 4375 H 405.202 -3.3663 3.33132 0
M  V30 4376 H 405.626 -3.23156 5.94894 0
M  V30 4377 H 410.268 -2.91466 3.0628 0
M  V30 4378 H 407.986 -2.97203 7.51463 0
M  V30 4379 H 411.572 -2.70014 5.15348 0
M  V30 4380 H 410.452 -2.73036 7.35133 0
M  V30 4381 N 407.956 -0.998596 -1.21925 0
M  V30 4382 C 409.184 -0.696286 -1.94832 0
M  V30 4383 C 409.599 0.740032 -1.73692 0
M  V30 4384 O 408.956 1.5 -1.03953 0
M  V30 4385 C 409.007 -0.999833 -3.47398 0
M  V30 4386 O 408.728 -2.37972 -3.67833 0
M  V30 4387 C 410.229 -0.716025 -4.37479 0
M  V30 4388 H 407.449 -0.257111 -0.619786 0
M  V30 4389 H 409.993 -1.33491 -1.54921 0
M  V30 4390 H 408.148 -0.406918 -3.85257 0
M  V30 4391 H 408.562 -2.48338 -4.61983 0
M  V30 4392 H 410.036 -0.978642 -5.43256 0
M  V30 4393 H 410.513 0.349968 -4.37803 0
M  V30 4394 H 411.119 -1.29025 -4.05256 0
M  V30 4395 N 409.434 1.37368 -0.772513 0
M  V30 4396 C 410.845 1.8231 -0.402493 0
M  V30 4397 C 411.196 1.6436 1.07146 0
M  V30 4398 O 410.321 1.15514 1.82991 0
M  V30 4399 C 410.916 3.30979 -0.723776 0
M  V30 4400 C 409.475 3.74195 -0.406802 0
M  V30 4401 C 408.622 2.59885 -0.967218 0
M  V30 4402 H 411.573 1.25829 -0.967099 0
M  V30 4403 H 411.594 3.80499 -0.00870832 0
M  V30 4404 H 411.106 3.44011 -1.7966 0
M  V30 4405 H 409.207 3.66732 0.658673 0
M  V30 4406 H 409.32 4.7027 -0.915588 0
M  V30 4407 H 407.684 2.51674 -0.391416 0
M  V30 4408 H 408.467 2.7571 -2.04546 0
M  V30 4409 N 410.912 0.523116 1.48665 0
M  V30 4410 C 412.158 -0.0134963 2.02796 0
M  V30 4411 C 412.491 -1.34582 1.40004 0
M  V30 4412 O 411.766 -1.86756 0.543381 0
M  V30 4413 C 412.049 -0.14276 3.59817 0
M  V30 4414 C 411.902 1.21425 4.331 0
M  V30 4415 C 413.221 -0.872856 4.31357 0
M  V30 4416 H 410.34 -0.00343074 0.736992 0
M  V30 4417 H 412.982 0.678816 1.7746 0
M  V30 4418 H 411.132 -0.732401 3.81534 0
M  V30 4419 H 412.804 1.84447 4.2282 0
M  V30 4420 H 411.047 1.79791 3.94788 0
M  V30 4421 H 411.718 1.07687 5.41394 0
M  V30 4422 H 414.194 -0.372555 4.14429 0
M  V30 4423 H 413.07 -0.932185 5.40927 0
M  V30 4424 H 413.331 -1.92161 3.98154 0
M  V30 4425 N 412.39 -1.55475 0.257931 0
M  V30 4426 C 413.322 -2.19192 -0.669881 0
M  V30 4427 C 414.335 -1.17148 -1.1305 0
M  V30 4428 O 415.524 -1.43959 -1.05537 0
M  V30 4429 C 412.624 -2.79016 -1.92363 0
M  V30 4430 C 411.797 -4.06586 -1.61265 0
M  V30 4431 C 410.856 -4.50622 -2.7171 0
M  V30 4432 O 409.882 -5.16765 -2.38627 0
M  V30 4433 N 411.084 -4.19325 -4.01431 0
M  V30 4434 H 413.849 -2.99441 -0.124635 0
M  V30 4435 H 411.41 -1.6171 0.0783311 0
M  V30 4436 H 413.402 -3.05427 -2.65511 0
M  V30 4437 H 411.972 -2.0286 -2.37837 0
M  V30 4438 H 411.192 -3.87646 -0.715811 0
M  V30 4439 H 412.48 -4.89737 -1.37967 0
M  V30 4440 H 411.878 -3.66247 -4.31138 0
M  V30 4441 H 410.435 -4.50547 -4.7101 0
M  V30 4442 N 413.868 0.0150385 -1.57593 0
M  V30 4443 C 415.114 0.704043 -1.90187 0
M  V30 4444 C 415.447 1.74249 -0.857366 0
M  V30 4445 O 414.722 1.94092 0.125843 0
M  V30 4446 C 415.005 1.36087 -3.33395 0
M  V30 4447 C 414.858 0.334981 -4.48551 0
M  V30 4448 C 416.177 2.29112 -3.7576 0
M  V30 4449 H 413.296 0.254475 -0.691673 0
M  V30 4450 H 415.938 -0.0331678 -1.89971 0
M  V30 4451 H 414.088 1.98922 -3.3371 0
M  V30 4452 H 415.76 -0.292534 -4.60372 0
M  V30 4453 H 414.003 -0.344325 -4.32431 0
M  V30 4454 H 414.674 0.833316 -5.45674 0
M  V30 4455 H 417.15 1.76308 -3.76902 0
M  V30 4456 H 416.026 2.72043 -4.76743 0
M  V30 4457 H 416.287 3.16385 -3.08793 0
M  V30 4458 N 415.346 1.54954 0.287554 0
M  V30 4459 C 416.593 1.74873 1.02106 0
M  V30 4460 C 416.921 0.541829 1.86801 0
M  V30 4461 O 416.176 -0.475992 1.89823 0
M  V30 4462 C 416.475 2.99833 1.94512 0
M  V30 4463 C 416.141 4.33029 1.25686 0
M  V30 4464 C 414.803 4.69233 1.06649 0
M  V30 4465 C 417.155 5.15542 0.765913 0
M  V30 4466 C 414.483 5.85518 0.372222 0
M  V30 4467 C 416.835 6.32542 0.0853101 0
M  V30 4468 C 415.499 6.67398 -0.1169 0
M  V30 4469 H 414.769 0.639906 0.373632 0
M  V30 4470 H 417.416 1.89219 0.294665 0
M  V30 4471 H 415.721 2.80325 2.73725 0
M  V30 4472 H 417.418 3.1244 2.51361 0
M  V30 4473 H 414.008 4.04564 1.41512 0
M  V30 4474 H 418.192 4.88059 0.90066 0
M  V30 4475 H 413.448 6.11057 0.204695 0
M  V30 4476 H 417.622 6.95741 -0.302936 0
M  V30 4477 H 415.249 7.57357 -0.656859 0
M  V30 4478 N 416.824 -0.551391 1.4764 0
M  V30 4479 C 418.07 -1.31024 1.54792 0
M  V30 4480 C 418.403 -1.9304 0.211967 0
M  V30 4481 O 417.678 -1.78175 -0.77999 0
M  V30 4482 C 417.961 -2.41593 2.67029 0
M  V30 4483 C 417.814 -1.84408 4.10261 0
M  V30 4484 C 419.133 -3.43488 2.75143 0
M  V30 4485 H 416.252 -0.475031 0.563485 0
M  V30 4486 H 418.894 -0.616454 1.79722 0
M  V30 4487 H 417.044 -3.00772 2.45904 0
M  V30 4488 H 418.716 -1.29445 4.42766 0
M  V30 4489 H 416.959 -1.15051 4.18265 0
M  V30 4490 H 417.63 -2.64367 4.84576 0
M  V30 4491 H 420.106 -2.94236 2.94218 0
M  V30 4492 H 418.982 -4.18274 3.55441 0
M  V30 4493 H 419.243 -4.02703 1.82435 0
M  V30 4494 N 418.302 -1.35869 -0.798587 0
M  V30 4495 C 419.232 -1.32118 -1.92528 0
M  V30 4496 C 420.213 -0.194209 -1.68988 0
M  V30 4497 O 421.398 -0.390426 -1.90235 0
M  V30 4498 C 418.528 -1.10047 -3.29404 0
M  V30 4499 C 417.482 -2.19471 -3.67446 0
M  V30 4500 C 416.808 -1.82555 -5.02571 0
M  V30 4501 C 418.108 -3.61495 -3.76987 0
M  V30 4502 H 419.802 -2.26394 -1.95924 0
M  V30 4503 H 417.348 -1.08981 -0.94123 0
M  V30 4504 H 419.301 -1.06061 -4.07835 0
M  V30 4505 H 418.025 -0.122195 -3.26371 0
M  V30 4506 H 416.684 -2.22568 -2.91306 0
M  V30 4507 H 416.332 -0.833249 -4.9605 0
M  V30 4508 H 416.032 -2.5581 -5.28995 0
M  V30 4509 H 417.556 -1.80108 -5.83432 0
M  V30 4510 H 418.97 -3.60676 -4.4563 0
M  V30 4511 H 417.367 -4.33577 -4.14887 0
M  V30 4512 H 418.437 -3.97065 -2.78329 0
M  V30 4513 N 419.78 1.02168 -1.19998 0
M  V30 4514 C 420.743 2.08765 -0.94604 0
M  V30 4515 C 421.743 1.60618 0.0763846 0
M  V30 4516 O 422.933 1.73472 -0.159135 0
M  V30 4517 C 420.065 3.38262 -0.423255 0
M  V30 4518 H 421.258 2.32726 -1.89153 0
M  V30 4519 H 418.811 1.1889 -1.01464 0
M  V30 4520 H 419.546 3.19974 0.527938 0
M  V30 4521 H 419.331 3.74532 -1.16053 0
M  V30 4522 H 420.821 4.16759 -0.264911 0
M  V30 4523 N 421.258 1.00505 1.21394 0
M  V30 4524 C 422.19 0.52372 2.23136 0
M  V30 4525 C 423.203 -0.387714 1.58116 0
M  V30 4526 O 424.392 -0.187905 1.77508 0
M  V30 4527 C 421.492 -0.258885 3.3791 0
M  V30 4528 C 420.665 0.651634 4.32519 0
M  V30 4529 C 419.724 -0.0813705 5.26137 0
M  V30 4530 O 418.75 0.537295 5.66658 0
M  V30 4531 N 419.952 -1.35992 5.64346 0
M  V30 4532 H 422.717 1.39865 2.65062 0
M  V30 4533 H 420.278 0.881196 1.35818 0
M  V30 4534 H 422.27 -0.758208 3.97534 0
M  V30 4535 H 420.84 -1.035 2.94968 0
M  V30 4536 H 420.06 1.33145 3.71034 0
M  V30 4537 H 421.348 1.27129 4.92662 0
M  V30 4538 H 420.746 -1.88368 5.33417 0
M  V30 4539 H 419.303 -1.8042 6.26332 0
M  V30 4540 N 422.737 -1.36956 0.779787 0
M  V30 4541 C 423.985 -1.99097 0.347079 0
M  V30 4542 C 424.306 -1.62206 -1.08232 0
M  V30 4543 O 423.576 -0.891373 -1.74446 0
M  V30 4544 H 422.156 -0.736409 0.125342 0
M  V30 4545 H 424.818 -1.67308 0.999696 0
M  V30 4546 H 423.914 -3.09107 0.431162 0
M  V30 4547 N 424.215 -0.530993 -1.48385 0
M  V30 4548 C 425.145 0.219985 -2.32461 0
M  V30 4549 C 426.126 0.934111 -1.42156 0
M  V30 4550 O 427.311 0.919694 -1.71042 0
M  V30 4551 C 424.441 1.26674 -3.23375 0
M  V30 4552 C 423.395 0.67069 -4.22712 0
M  V30 4553 C 422.721 1.82017 -5.02766 0
M  V30 4554 C 424.021 -0.358268 -5.2107 0
M  V30 4555 H 425.715 -0.48187 -2.95497 0
M  V30 4556 H 423.261 -0.233182 -1.42099 0
M  V30 4557 H 425.214 1.80006 -3.81019 0
M  V30 4558 H 423.938 1.99818 -2.58341 0
M  V30 4559 H 422.597 0.158878 -3.66256 0
M  V30 4560 H 422.245 2.54002 -4.34157 0
M  V30 4561 H 421.945 1.42727 -5.70003 0
M  V30 4562 H 423.469 2.35725 -5.63264 0
M  V30 4563 H 424.883 0.0880081 -5.73232 0
M  V30 4564 H 423.28 -0.66861 -5.96364 0
M  V30 4565 H 424.35 -1.26367 -4.68145 0
M  V30 4566 N 425.693 1.55336 -0.266172 0
M  V30 4567 C 426.941 1.99003 0.35246 0
M  V30 4568 C 427.262 1.15591 1.57047 0
M  V30 4569 O 426.532 0.243268 1.94384 0
M  V30 4570 H 425.112 0.735025 0.133217 0
M  V30 4571 H 427.774 1.91367 -0.369434 0
M  V30 4572 H 426.87 3.05289 0.648453 0
M  V30 4573 N 427.171 -0.0066808 1.57599 0
M  V30 4574 C 428.417 -0.693947 1.90558 0
M  V30 4575 C 428.75 -1.73792 0.866594 0
M  V30 4576 O 428.025 -1.94156 -0.115548 0
M  V30 4577 C 428.308 -1.34317 3.34112 0
M  V30 4578 C 428.161 -0.311189 4.48722 0
M  V30 4579 C 429.48 -2.27116 3.7697 0
M  V30 4580 H 426.599 -0.250803 0.693013 0
M  V30 4581 H 429.241 0.043242 1.89951 0
M  V30 4582 H 427.391 -1.9715 3.3476 0
M  V30 4583 H 429.063 0.316944 4.6021 0
M  V30 4584 H 427.306 0.367253 4.32243 0
M  V30 4585 H 427.977 -0.804366 5.46108 0
M  V30 4586 H 430.453 -1.74306 3.77831 0
M  V30 4587 H 429.329 -2.69511 4.78179 0
M  V30 4588 H 429.59 -3.14743 3.10466 0
M  V30 4589 N 428.649 -1.55105 -0.279332 0
M  V30 4590 C 429.581 -1.83952 -1.36727 0
M  V30 4591 C 430.594 -0.723642 -1.45833 0
M  V30 4592 O 431.783 -1.00141 -1.47763 0
M  V30 4593 C 428.883 -1.98183 -2.74912 0
M  V30 4594 C 428.056 -3.28787 -2.88475 0
M  V30 4595 C 427.115 -3.33162 -4.07295 0
M  V30 4596 O 426.141 -4.06576 -3.98353 0
M  V30 4597 N 427.343 -2.60109 -5.18964 0
M  V30 4598 H 430.108 -2.77853 -1.12328 0
M  V30 4599 H 427.669 -1.54945 -0.469442 0
M  V30 4600 H 429.661 -1.98488 -3.52682 0
M  V30 4601 H 428.231 -1.11177 -2.92162 0
M  V30 4602 H 427.451 -3.41075 -1.97641 0
M  V30 4603 H 428.739 -4.14933 -2.94463 0
M  V30 4604 H 428.137 -2.00136 -5.29115 0
M  V30 4605 H 426.694 -2.66143 -5.94988 0
M  V30 4606 N 430.127 0.543554 -1.4793 0
M  V30 4607 C 431.538 1.12561 -1.48953 0
M  V30 4608 C 431.889 1.94578 -0.251754 0
M  V30 4609 O 431.014 2.0665 0.642255 0
M  V30 4610 C 431.609 2.04801 -2.69892 0
M  V30 4611 C 430.168 2.58251 -2.73831 0
M  V30 4612 C 429.315 1.34918 -2.42265 0
M  V30 4613 H 432.266 0.32947 -1.55242 0
M  V30 4614 H 432.287 2.88886 -2.47639 0
M  V30 4615 H 431.799 1.4508 -3.59963 0
M  V30 4616 H 429.9 3.21732 -1.87934 0
M  V30 4617 H 430.013 2.98312 -3.74895 0
M  V30 4618 H 428.377 1.66046 -1.93134 0
M  V30 4619 H 429.16 0.769693 -3.3456 0
M  V30 4620 N 431.605 1.3629 0.791371 0
M  V30 4621 C 432.83 1.33726 1.58531 0
M  V30 4622 C 433.255 -0.0794933 1.87932 0
M  V30 4623 O 432.613 -1.05087 1.47738 0
M  V30 4624 C 432.661 2.16425 2.88431 0
M  V30 4625 O 431.765 1.5554 3.81944 0
M  V30 4626 H 431.106 0.457793 0.480959 0
M  V30 4627 H 433.636 1.79547 0.981031 0
M  V30 4628 H 433.646 2.28933 3.37718 0
M  V30 4629 H 432.321 3.19415 2.66359 0
M  V30 4630 H 430.898 1.51961 3.40532 0
M  V30 4631 N 433.083 -1.0153 1.20538 0
M  V30 4632 C 434.308 -1.79283 1.04271 0
M  V30 4633 C 434.733 -1.8372 -0.403544 0
M  V30 4634 O 434.091 -1.27321 -1.2907 0
M  V30 4635 C 434.139 -3.21535 1.63241 0
M  V30 4636 O 433.243 -4.03099 0.870908 0
M  V30 4637 H 432.584 -0.55293 0.367647 0
M  V30 4638 H 435.114 -1.27696 1.59859 0
M  V30 4639 H 435.124 -3.72243 1.6703 0
M  V30 4640 H 433.799 -3.1762 2.68497 0
M  V30 4641 H 432.376 -3.61693 0.907323 0
M  V30 4642 N 434.561 -1.01147 -1.20859 0
M  V30 4643 C 435.471 -0.58686 -2.27141 0
M  V30 4644 C 436.487 0.373198 -1.69951 0
M  V30 4645 O 437.663 0.235423 -2.00019 0
M  V30 4646 C 434.728 0.0733602 -3.46622 0
M  V30 4647 C 433.789 -0.931995 -4.19061 0
M  V30 4648 C 433.022 -0.303186 -5.32838 0
M  V30 4649 O 433.245 0.898395 -5.63281 0
M  V30 4650 O 432.179 -1.01735 -5.9324 0
M  V30 4651 H 436.005 -1.47155 -2.65667 0
M  V30 4652 H 433.59 -0.780689 -1.2738 0
M  V30 4653 H 435.472 0.442333 -4.19072 0
M  V30 4654 H 434.147 0.932329 -3.09983 0
M  V30 4655 H 433.054 -1.35224 -3.48805 0
M  V30 4656 H 434.387 -1.76076 -4.59628 0
M  V30 4657 N 436.039 1.36541 -0.78704 0
M  V30 4658 C 437.267 2.03561 -0.370199 0
M  V30 4659 C 437.682 1.59347 1.01263 0
M  V30 4660 O 437.039 0.781781 1.64907 0
M  V30 4661 C 437.09 3.59033 -0.421614 0
M  V30 4662 O 436.811 4.01634 -1.7499 0
M  V30 4663 C 438.312 4.433 0.00489763 0
M  V30 4664 H 435.532 0.653346 -0.152904 0
M  V30 4665 H 438.076 1.74566 -1.06522 0
M  V30 4666 H 436.231 3.86746 0.224971 0
M  V30 4667 H 436.645 4.96217 -1.69909 0
M  V30 4668 H 438.119 5.51939 -0.0822184 0
M  V30 4669 H 438.596 4.26285 1.05723 0
M  V30 4670 H 439.202 4.20843 -0.614085 0
M  V30 4671 N 437.518 0.538854 1.48102 0
M  V30 4672 C 438.481 -0.208395 2.28251 0
M  V30 4673 C 439.481 -0.859656 1.35892 0
M  V30 4674 O 440.671 -0.71834 1.58699 0
M  V30 4675 C 437.803 -1.30252 3.15035 0
M  V30 4676 H 438.996 0.495407 2.9578 0
M  V30 4677 H 436.549 0.295112 1.53489 0
M  V30 4678 H 437.284 -2.0393 2.52157 0
M  V30 4679 H 437.069 -0.840551 3.82985 0
M  V30 4680 H 438.559 -1.82787 3.75471 0
M  V30 4681 N 438.996 -1.55193 0.274407 0
M  V30 4682 C 440.242 -1.99877 -0.343086 0
M  V30 4683 C 440.575 -1.16256 -1.55558 0
M  V30 4684 O 439.85 -0.232462 -1.93106 0
M  V30 4685 C 440.133 -3.52706 -0.725965 0
M  V30 4686 C 439.986 -4.47081 0.493818 0
M  V30 4687 C 441.305 -4.11422 -1.56268 0
M  V30 4688 H 438.424 -0.726625 -0.123229 0
M  V30 4689 H 441.066 -1.86136 0.38121 0
M  V30 4690 H 439.216 -3.64546 -1.34307 0
M  V30 4691 H 440.888 -4.47186 1.13237 0
M  V30 4692 H 439.131 -4.1877 1.13201 0
M  V30 4693 H 439.802 -5.51699 0.18217 0
M  V30 4694 H 442.278 -4.02855 -1.04151 0
M  V30 4695 H 441.154 -5.18568 -1.79939 0
M  V30 4696 H 441.415 -3.61607 -2.54348 0
M  V30 4697 N 440.474 -0.00167713 -1.576 0
M  V30 4698 C 441.437 0.974046 -2.07473 0
M  V30 4699 C 442.437 1.27143 -0.984444 0
M  V30 4700 O 443.627 1.21633 -1.24703 0
M  V30 4701 C 440.759 2.29849 -2.51759 0
M  V30 4702 H 441.952 0.54262 -2.9495 0
M  V30 4703 H 439.505 0.245829 -1.54355 0
M  V30 4704 H 440.24 2.77677 -1.67529 0
M  V30 4705 H 440.025 2.09584 -3.31386 0
M  V30 4706 H 441.515 2.9984 -2.90664 0
M  V30 4707 N 441.952 1.55251 0.271103 0
M  V30 4708 C 443.201 1.75151 1.00025 0
M  V30 4709 C 443.514 0.561041 1.87381 0
M  V30 4710 O 444.72 0.642506 2.63788 0
M  V30 4711 C 443.176 3.09999 1.82835 0
M  V30 4712 C 442.784 4.3662 1.00336 0
M  V30 4713 C 444.528 3.39249 2.55168 0
M  V30 4714 C 442.435 5.62506 1.82595 0
M  V30 4715 H 441.365 0.652877 0.377183 0
M  V30 4716 H 444.016 1.81708 0.255843 0
M  V30 4717 H 442.398 2.97485 2.61378 0
M  V30 4718 H 443.572 4.60055 0.261959 0
M  V30 4719 H 441.887 4.14527 0.394486 0
M  V30 4720 H 444.484 4.3051 3.1712 0
M  V30 4721 H 444.827 2.59467 3.2555 0
M  V30 4722 H 445.36 3.52869 1.83653 0
M  V30 4723 H 442.099 6.45041 1.16631 0
M  V30 4724 H 441.619 5.43211 2.54327 0
M  V30 4725 H 443.298 6.00875 2.39913 0
M  V30 4726 N 443.43 -0.535701 1.48216 0
M  V30 4727 C 444.36 -1.65014 1.65204 0
M  V30 4728 C 445.341 -1.62554 0.501011 0
M  V30 4729 O 446.526 -1.7984 0.732886 0
M  V30 4730 C 443.656 -3.03616 1.68626 0
M  V30 4731 C 442.61 -3.20932 2.83172 0
M  V30 4732 C 441.936 -4.60537 2.71679 0
M  V30 4733 C 443.236 -3.04249 4.24535 0
M  V30 4734 H 444.93 -1.51053 2.58502 0
M  V30 4735 H 442.476 -0.725262 1.24402 0
M  V30 4736 H 444.429 -3.81446 1.79099 0
M  V30 4737 H 443.153 -3.18587 0.719026 0
M  V30 4738 H 441.812 -2.45517 2.72244 0
M  V30 4739 H 441.46 -4.72336 1.72937 0
M  V30 4740 H 441.16 -4.73069 3.48538 0
M  V30 4741 H 442.684 -5.40475 2.84112 0
M  V30 4742 H 444.098 -3.71877 4.36326 0
M  V30 4743 H 442.495 -3.28278 5.02348 0
M  V30 4744 H 443.565 -2.00739 4.41397 0
M  V30 4745 N 444.908 -1.36708 -0.784132 0
M  V30 4746 C 446.324 -1.17237 -1.08294 0
M  V30 4747 C 446.524 -5.93947e-05 -2.015 0
M  V30 4748 O 445.58 0.663686 -2.43622 0
M  V30 4749 C 446.893 -2.48557 -1.69233 0
M  V30 4750 C 448.441 -2.54968 -1.8155 0
M  V30 4751 C 448.916 -3.86388 -2.45904 0
M  V30 4752 N 450.407 -3.87762 -2.53367 0
M  V30 4753 C 451.142 -4.86191 -3.03983 0
M  V30 4754 N 450.638 -5.95015 -3.54866 0
M  V30 4755 N 452.431 -4.73606 -3.02743 0
M  V30 4756 H 444.582 -2.11758 -0.16501 0
M  V30 4757 H 446.845 -0.93822 -0.135822 0
M  V30 4758 H 446.551 -3.34638 -1.08215 0
M  V30 4759 H 446.425 -2.64748 -2.68679 0
M  V30 4760 H 448.812 -1.69302 -2.41704 0
M  V30 4761 H 448.893 -2.42672 -0.80895 0
M  V30 4762 H 448.537 -4.72462 -1.86392 0
M  V30 4763 H 448.467 -3.95982 -3.4714 0
M  V30 4764 H 450.958 -3.09145 -2.17343 0
M  V30 4765 H 451.271 -6.66086 -3.91854 0
M  V30 4766 H 449.616 -5.98676 -3.53003 0
M  V30 4767 H 452.807 -3.87717 -2.62284 0
M  V30 4768 H 452.98 -5.50473 -3.41881 0
M  V30 4769 N 446.386 1.0089 -1.21074 0
M  V30 4770 C 447.633 1.74607 -1.0256 0
M  V30 4771 C 447.961 1.89426 0.44136 0
M  V30 4772 O 447.216 1.42266 1.34384 0
M  V30 4773 C 447.515 3.16335 -1.66334 0
M  V30 4774 C 447.181 3.21474 -3.16173 0
M  V30 4775 C 445.843 3.22583 -3.57062 0
M  V30 4776 C 448.195 3.19025 -4.12156 0
M  V30 4777 C 445.523 3.18925 -4.92446 0
M  V30 4778 C 447.875 3.16909 -5.47496 0
M  V30 4779 C 446.539 3.16326 -5.87787 0
M  V30 4780 H 445.809 0.638933 -0.375294 0
M  V30 4781 H 448.456 1.18274 -1.50611 0
M  V30 4782 H 446.761 3.75876 -1.10566 0
M  V30 4783 H 448.458 3.72083 -1.49516 0
M  V30 4784 H 445.048 3.2135 -2.83605 0
M  V30 4785 H 449.232 3.17332 -3.81595 0
M  V30 4786 H 444.488 3.16809 -5.22917 0
M  V30 4787 H 448.662 3.13968 -6.21609 0
M  V30 4788 H 446.289 3.13246 -6.92662 0
M  V30 4789 N 447.864 1.01787 1.20321 0
M  V30 4790 C 449.104 0.716493 1.91431 0
M  V30 4791 C 449.468 -0.740352 1.77152 0
M  V30 4792 O 450.669 -1.1543 2.42754 0
M  V30 4793 C 448.94 1.14169 3.38674 0
M  V30 4794 S 450.499 0.962482 4.28114 0
M  V30 4795 H 447.317 0.261175 0.661293 0
M  V30 4796 H 449.919 1.30539 1.45533 0
M  V30 4797 H 448.623 2.19784 3.46588 0
M  V30 4798 H 448.154 0.545621 3.89598 0
M  V30 4799 H 450.169 -0.133253 4.96021 0
M  V30 4800 N 449.342 -1.36122 0.79427 0
M  V30 4801 C 450.57 -2.03362 0.380989 0
M  V30 4802 C 450.985 -1.59881 -1.00416 0
M  V30 4803 O 450.342 -0.790515 -1.6449 0
M  V30 4804 C 450.393 -3.58804 0.440649 0
M  V30 4805 O 450.114 -4.007 1.77118 0
M  V30 4806 C 451.615 -4.43296 0.0186117 0
M  V30 4807 H 448.835 -0.652526 0.156367 0
M  V30 4808 H 451.379 -1.73998 1.07447 0
M  V30 4809 H 449.534 -3.8686 -0.204458 0
M  V30 4810 H 449.948 -4.95309 1.72538 0
M  V30 4811 H 451.422 -5.51887 0.111488 0
M  V30 4812 H 451.899 -4.2684 -1.03461 0
M  V30 4813 H 452.505 -4.20512 0.636395 0
M  V30 4814 N 450.82 -0.546701 -1.47814 0
M  V30 4815 C 451.783 0.196287 -2.28358 0
M  V30 4816 C 452.783 0.852437 -1.36346 0
M  V30 4817 O 453.973 0.709913 -1.59078 0
M  V30 4818 C 451.105 1.28579 -3.15722 0
M  V30 4819 H 452.298 -0.511086 -2.95513 0
M  V30 4820 H 449.851 -0.303248 -1.5333 0
M  V30 4821 H 450.586 2.0259 -2.53235 0
M  V30 4822 H 450.371 0.820229 -3.83425 0
M  V30 4823 H 451.861 1.80793 -3.76435 0
M  V30 4824 N 452.299 1.55045 -0.282633 0
M  V30 4825 C 453.229 2.2579 0.595066 0
M  V30 4826 C 454.21 1.25074 1.15284 0
M  V30 4827 O 455.395 1.5381 1.18559 0
M  V30 4828 C 452.525 2.98472 1.77572 0
M  V30 4829 C 451.479 4.0618 1.34914 0
M  V30 4830 C 450.805 4.66477 2.6135 0
M  V30 4831 C 452.105 5.1996 0.493821 0
M  V30 4832 H 453.799 2.994 0.00505653 0
M  V30 4833 H 451.345 1.44 0.000992001 0
M  V30 4834 H 453.298 3.46677 2.39568 0
M  V30 4835 H 452.022 2.2241 2.39168 0
M  V30 4836 H 450.681 3.58797 0.752338 0
M  V30 4837 H 450.329 3.87074 3.2122 0
M  V30 4838 H 450.029 5.39207 2.33516 0
M  V30 4839 H 451.553 5.17435 3.24181 0
M  V30 4840 H 452.967 5.64172 1.01898 0
M  V30 4841 H 451.364 5.99299 0.310047 0
M  V30 4842 H 452.434 4.82462 -0.485593 0
M  V30 4843 N 453.777 0.010035 1.57597 0
M  V30 4844 C 455.025 -0.671371 1.90623 0
M  V30 4845 C 455.346 -1.73753 0.885151 0
M  V30 4846 O 454.616 -1.95752 -0.0760611 0
M  V30 4847 H 453.196 -0.250968 0.703579 0
M  V30 4848 H 455.858 0.0533325 1.94827 0
M  V30 4849 H 454.954 -1.13626 2.90681 0
M  V30 4850 N 455.255 -1.55392 -0.262866 0
M  V30 4851 C 456.485 -1.80251 -1.00961 0
M  V30 4852 C 456.893 -0.58117 -1.80053 0
M  V30 4853 O 456.236 0.459427 -1.77862 0
M  V30 4854 C 456.298 -2.98207 -2.00781 0
M  V30 4855 C 455.962 -4.34856 -1.40533 0
M  V30 4856 C 456.959 -5.13459 -0.815853 0
M  V30 4857 C 454.644 -4.8153 -1.42948 0
M  V30 4858 C 456.638 -6.36875 -0.258562 0
M  V30 4859 C 454.325 -6.04899 -0.868334 0
M  V30 4860 C 455.323 -6.8241 -0.283884 0
M  V30 4861 O 455.011 -8.03451 0.268644 0
M  V30 4862 H 454.743 -0.604049 -0.303482 0
M  V30 4863 H 457.297 -2.03257 -0.295926 0
M  V30 4864 H 455.527 -2.70917 -2.75936 0
M  V30 4865 H 457.216 -3.10299 -2.61667 0
M  V30 4866 H 457.982 -4.78526 -0.789812 0
M  V30 4867 H 453.861 -4.21201 -1.87378 0
M  V30 4868 H 457.405 -6.97318 0.198257 0
M  V30 4869 H 453.302 -6.39312 -0.891649 0
M  V30 4870 H 454.07 -8.18346 0.158974 0
M  V30 4871 N 456.733 0.527833 -1.48498 0
M  V30 4872 C 457.979 1.28545 -1.56857 0
M  V30 4873 C 458.312 1.92678 -0.242651 0
M  V30 4874 O 457.587 1.79394 0.751545 0
M  V30 4875 C 457.87 2.37314 -2.70839 0
M  V30 4876 C 457.723 1.77858 -4.13142 0
M  V30 4877 C 459.042 3.39068 -2.80573 0
M  V30 4878 H 456.161 0.466006 -0.570971 0
M  V30 4879 H 458.803 0.587784 -1.8068 0
M  V30 4880 H 456.953 2.96821 -2.50658 0
M  V30 4881 H 458.625 1.22385 -4.44769 0
M  V30 4882 H 456.868 1.08383 -4.20042 0
M  V30 4883 H 457.539 2.56624 -4.88721 0
M  V30 4884 H 460.015 2.89518 -2.98862 0
M  V30 4885 H 458.891 4.12566 -3.6205 0
M  V30 4886 H 459.152 3.9975 -1.88818 0
M  V30 4887 N 458.211 1.37122 0.776871 0
M  V30 4888 C 459.159 1.32549 1.91138 0
M  V30 4889 C 460.153 0.215119 1.68029 0
M  V30 4890 O 461.359 0.382852 1.75881 0
M  V30 4891 H 457.734 0.412952 0.62847 0
M  V30 4892 H 459.705 2.28332 1.92112 0
M  V30 4893 C 458.454 1.14422 3.28333 0
M  V30 4894 H 457.777 1.99115 3.46689 0
M  V30 4895 H 459.217 1.15272 4.0803 0
M  V30 4896 C 457.676 -0.150434 3.36564 0
M  V30 4897 O 458.206 -1.13584 3.85307 0
M  V30 4898 N 456.412 -0.19939 2.89915 0
M  V30 4899 H 455.959 0.603142 2.5044 0
M  V30 4900 H 455.917 -1.06526 2.95803 0
M  V30 4901 N 459.689 -1.00246 1.21608 0
M  V30 4902 C 460.914 -1.78167 1.06167 0
M  V30 4903 C 461.339 -1.84138 -0.384035 0
M  V30 4904 O 460.697 -1.28683 -1.27712 0
M  V30 4905 C 460.745 -3.19786 1.66642 0
M  V30 4906 O 459.849 -4.02153 0.913613 0
M  V30 4907 H 459.19 -0.549 0.37349 0
M  V30 4908 H 461.72 -1.25994 1.61204 0
M  V30 4909 H 461.73 -3.70451 1.70969 0
M  V30 4910 H 460.405 -3.14754 2.7185 0
M  V30 4911 H 458.982 -3.60711 0.945635 0
M  V30 4912 N 461.167 -1.02423 -1.1978 0
M  V30 4913 C 462.407 -0.726635 -1.91048 0
M  V30 4914 C 462.771 0.730947 -1.77542 0
M  V30 4915 O 463.972 1.14141 -2.43362 0
M  V30 4916 C 462.243 -1.15964 -3.38064 0
M  V30 4917 S 463.802 -0.985172 -4.27598 0
M  V30 4918 H 460.62 -0.264679 -0.659899 0
M  V30 4919 H 463.222 -1.31309 -1.44838 0
M  V30 4920 H 461.926 -2.21619 -3.45417 0
M  V30 4921 H 461.457 -0.566274 -3.89303 0
M  V30 4922 H 463.472 0.106946 -4.96085 0
M  V30 4923 N 462.645 1.35699 -0.801477 0
M  V30 4924 C 463.575 2.32436 -0.222658 0
M  V30 4925 C 464.556 1.5723 0.649057 0
M  V30 4926 O 465.741 1.85324 0.580387 0
M  V30 4927 C 462.871 3.41469 0.633719 0
M  V30 4928 C 461.825 4.27774 -0.139083 0
M  V30 4929 C 461.151 5.28082 0.838666 0
M  V30 4930 C 462.451 5.04946 -1.33517 0
M  V30 4931 H 464.145 2.81094 -1.03086 0
M  V30 4932 H 461.691 1.35146 -0.497155 0
M  V30 4933 H 463.644 4.08143 1.04868 0
M  V30 4934 H 462.368 2.91408 1.47475 0
M  V30 4935 H 461.027 3.62673 -0.535156 0
M  V30 4936 H 460.675 4.7429 1.67506 0
M  V30 4937 H 460.375 5.86695 0.32594 0
M  V30 4938 H 461.899 5.97628 1.25194 0
M  V30 4939 H 463.313 5.64593 -0.995349 0
M  V30 4940 H 461.71 5.7303 -1.78202 0
M  V30 4941 H 462.78 4.35886 -2.12442 0
M  V30 4942 N 464.123 0.554532 1.47522 0
M  V30 4943 C 465.071 -0.207765 2.3167 0
M  V30 4944 C 466.065 -0.911914 1.4276 0
M  V30 4945 O 467.271 -0.833504 1.59539 0
M  V30 4946 H 463.646 -0.0858726 0.747081 0
M  V30 4947 H 465.617 0.521178 2.93813 0
M  V30 4948 C 464.366 -1.2263 3.25357 0
M  V30 4949 H 463.689 -0.693887 3.93732 0
M  V30 4950 H 465.129 -1.73062 3.87073 0
M  V30 4951 C 463.588 -2.27278 2.4869 0
M  V30 4952 O 464.118 -3.34156 2.22941 0
M  V30 4953 N 462.324 -2.01134 2.09746 0
M  V30 4954 H 461.871 -1.14232 2.30887 0
M  V30 4955 H 461.829 -2.71369 1.58765 0
M  V30 4956 N 465.601 -1.54893 0.290851 0
M  V30 4957 C 467.012 -1.85584 -0.203816 0
M  V30 4958 C 467.363 -1.21285 -1.54222 0
M  V30 4959 O 466.488 -0.506841 -2.10381 0
M  V30 4960 C 467.083 -3.367 -0.376595 0
M  V30 4961 C 465.642 -3.6746 -0.815485 0
M  V30 4962 C 464.789 -2.77178 0.0821087 0
M  V30 4963 H 467.74 -1.50208 0.512175 0
M  V30 4964 H 467.761 -3.60656 -1.21275 0
M  V30 4965 H 467.273 -3.8347 0.59767 0
M  V30 4966 H 465.374 -3.26201 -1.80066 0
M  V30 4967 H 465.487 -4.7478 -0.641905 0
M  V30 4968 H 463.851 -2.50925 -0.436895 0
M  V30 4969 H 464.634 -3.26767 1.05254 0
M  V30 4970 N 467.08 -0.0183926 -1.57589 0
M  V30 4971 C 468.329 0.66185 -1.90532 0
M  V30 4972 C 468.642 1.73904 -0.895366 0
M  V30 4973 O 469.848 2.47518 -1.11566 0
M  V30 4974 C 468.304 1.22844 -3.38286 0
M  V30 4975 C 467.912 0.185103 -4.47617 0
M  V30 4976 C 469.656 1.88581 -3.80312 0
M  V30 4977 C 467.563 0.762723 -5.86461 0
M  V30 4978 H 466.493 0.250972 -0.711006 0
M  V30 4979 H 469.144 -0.0819435 -1.83317 0
M  V30 4980 H 467.526 2.0235 -3.40398 0
M  V30 4981 H 468.7 -0.58671 -4.5705 0
M  V30 4982 H 467.015 -0.372889 -4.14727 0
M  V30 4983 H 469.612 2.32735 -4.81392 0
M  V30 4984 H 469.955 2.72408 -3.14801 0
M  V30 4985 H 470.488 1.15782 -3.80578 0
M  V30 4986 H 467.227 -0.0371713 -6.55489 0
M  V30 4987 H 466.747 1.50327 -5.80656 0
M  V30 4988 H 468.426 1.25576 -6.34697 0
M  V30 4989 N 468.558 1.5553 0.254621 0
M  V30 4990 C 469.488 1.9268 1.31897 0
M  V30 4991 C 470.469 0.790797 1.506 0
M  V30 4992 O 471.654 1.05045 1.63337 0
M  V30 4993 C 468.784 2.21477 2.67517 0
M  V30 4994 C 467.738 3.37256 2.63519 0
M  V30 4995 C 467.064 3.51576 4.02862 0
M  V30 4996 C 468.364 4.73157 2.21179 0
M  V30 4997 H 470.058 2.81832 1.01051 0
M  V30 4998 H 467.604 1.35599 0.484662 0
M  V30 4999 H 469.557 2.46055 3.42104 0
M  V30 5000 H 468.281 1.29144 2.99982 0
M  V30 5001 H 466.94 3.12675 1.9139 0
M  V30 5002 H 466.588 2.56676 4.32581 0
M  V30 5003 H 466.288 4.2943 4.01078 0
M  V30 5004 H 467.812 3.78467 4.79161 0
M  V30 5005 H 469.226 4.97158 2.85494 0
M  V30 5006 H 467.623 5.54058 2.30521 0
M  V30 5007 H 468.693 4.70739 1.16332 0
M  V30 5008 N 470.036 -0.519951 1.48776 0
M  V30 5009 C 471.266 -1.29783 1.60748 0
M  V30 5010 C 471.674 -1.87253 0.27072 0
M  V30 5011 O 471.017 -1.67628 -0.751438 0
M  V30 5012 C 471.079 -2.47984 2.60277 0
M  V30 5013 C 470.743 -2.11526 4.051 0
M  V30 5014 C 471.74 -1.66608 4.92481 0
M  V30 5015 C 469.425 -2.21742 4.50706 0
M  V30 5016 C 471.419 -1.32384 6.23501 0
M  V30 5017 C 469.106 -1.87129 5.81744 0
M  V30 5018 C 470.104 -1.42523 6.67964 0
M  V30 5019 O 469.792 -1.0837 7.96562 0
M  V30 5020 H 469.524 -0.400562 0.544542 0
M  V30 5021 H 472.078 -0.632879 1.95407 0
M  V30 5022 H 470.308 -3.17493 2.2076 0
M  V30 5023 H 471.997 -3.10036 2.61978 0
M  V30 5024 H 472.763 -1.58178 4.58481 0
M  V30 5025 H 468.642 -2.55415 3.83776 0
M  V30 5026 H 472.186 -0.974949 6.90754 0
M  V30 5027 H 468.083 -1.95204 6.15277 0
M  V30 5028 H 468.851 -1.21681 8.09405 0
M  V30 5029 N 471.514 -1.37532 -0.769588 0
M  V30 5030 C 472.477 -1.33292 -1.86456 0
M  V30 5031 C 473.477 -0.236537 -1.59051 0
M  V30 5032 O 474.667 -0.492511 -1.67093 0
M  V30 5033 C 471.799 -1.07118 -3.23633 0
M  V30 5034 H 472.992 -2.30692 -1.91628 0
M  V30 5035 H 470.545 -1.22593 -0.969572 0
M  V30 5036 H 471.28 -0.102578 -3.24138 0
M  V30 5037 H 471.065 -1.86479 -3.44917 0
M  V30 5038 H 472.555 -1.06806 -4.03711 0
M  V30 5039 N 472.992 0.995999 -1.22138 0
M  V30 5040 C 474.239 1.7351 -1.04406 0
M  V30 5041 C 474.567 1.89884 0.421244 0
M  V30 5042 O 473.822 1.43683 1.32867 0
M  V30 5043 C 474.121 3.14553 -1.6968 0
M  V30 5044 C 473.787 3.18102 -3.19565 0
M  V30 5045 C 472.449 3.18778 -3.60464 0
M  V30 5046 C 474.801 3.14636 -4.15516 0
M  V30 5047 C 472.129 3.13684 -4.95801 0
M  V30 5048 C 474.481 3.11084 -5.50826 0
M  V30 5049 C 473.145 3.10074 -5.91109 0
M  V30 5050 H 472.415 0.634916 -0.38205 0
M  V30 5051 H 475.062 1.1667 -1.51857 0
M  V30 5052 H 473.367 3.74682 -1.14546 0
M  V30 5053 H 475.064 3.70477 -1.53454 0
M  V30 5054 H 471.654 3.18324 -2.86998 0
M  V30 5055 H 475.838 3.13266 -3.84939 0
M  V30 5056 H 471.094 3.11245 -5.26247 0
M  V30 5057 H 475.268 3.07357 -6.24904 0
M  V30 5058 H 472.895 3.05882 -6.95946 0
M  V30 5059 N 474.47 1.03057 1.19235 0
M  V30 5060 C 475.4 0.633497 2.24742 0
M  V30 5061 C 476.381 -0.358335 1.66283 0
M  V30 5062 O 477.566 -0.240676 1.92703 0
M  V30 5063 C 474.696 -0.0147648 3.47297 0
M  V30 5064 C 473.65 0.899527 4.18441 0
M  V30 5065 C 472.976 0.116281 5.34574 0
M  V30 5066 C 474.276 2.21404 4.73051 0
M  V30 5067 H 475.97 1.5155 2.58211 0
M  V30 5068 H 473.516 0.73014 1.24117 0
M  V30 5069 H 475.469 -0.304202 4.20301 0
M  V30 5070 H 474.193 -0.931577 3.13032 0
M  V30 5071 H 472.852 1.17319 3.47321 0
M  V30 5072 H 472.5 -0.802619 4.96555 0
M  V30 5073 H 472.2 0.725293 5.83107 0
M  V30 5074 H 473.724 -0.166376 6.10373 0
M  V30 5075 H 475.138 1.98601 5.37802 0
M  V30 5076 H 473.535 2.77512 5.32078 0
M  V30 5077 H 474.605 2.86752 3.91026 0
M  V30 5078 N 475.948 -1.35272 0.808662 0
M  V30 5079 C 477.225 -1.93077 0.313181 0
M  V30 5080 C 477.605 -1.73847 -1.19752 0
M  V30 5081 O 476.953 -1.1087 -1.998 0
M  V30 5082 C 477.163 -3.41347 0.726859 0
M  V30 5083 C 478.511 -4.18493 0.717532 0
M  V30 5084 O 479.535 -3.4987 0.668535 0
M  V30 5085 O 478.394 -5.40937 0.777779 0
M  V30 5086 H 475.488 -0.822885 0.0824018 0
M  V30 5087 H 478.034 -1.44335 0.892499 0
M  V30 5088 H 476.806 -3.49082 1.76797 0
M  V30 5089 H 476.429 -3.97411 0.122461 0
M  V30 5090 N 477.426 -0.562348 -1.47226 0
M  V30 5091 C 478.336 0.185466 -2.33866 0
M  V30 5092 C 479.352 0.906713 -1.48508 0
M  V30 5093 O 480.528 0.874458 -1.81425 0
M  V30 5094 C 477.593 1.19904 -3.25306 0
M  V30 5095 C 476.654 0.484669 -4.26555 0
M  V30 5096 C 475.887 1.44996 -5.13626 0
M  V30 5097 O 476.11 2.68515 -5.03245 0
M  V30 5098 O 475.044 0.971642 -5.94006 0
M  V30 5099 H 478.87 -0.525361 -2.99121 0
M  V30 5100 H 476.455 -0.322916 -1.45868 0
M  V30 5101 H 478.337 1.78399 -3.81774 0
M  V30 5102 H 477.012 1.8917 -2.62672 0
M  V30 5103 H 475.919 -0.141605 -3.73832 0
M  V30 5104 H 477.252 -0.166634 -4.91918 0
M  V30 5105 N 478.904 1.54736 -0.299062 0
M  V30 5106 C 479.852 2.24897 0.593658 0
M  V30 5107 C 480.846 1.25429 1.13859 0
M  V30 5108 O 482.052 1.43286 1.08945 0
M  V30 5109 H 478.427 0.72207 0.210046 0
M  V30 5110 H 480.398 2.98393 -0.0206421 0
M  V30 5111 C 479.147 3.00159 1.75499 0
M  V30 5112 H 478.47 3.76501 1.34489 0
M  V30 5113 H 479.91 3.52535 2.35574 0
M  V30 5114 C 478.369 2.07015 2.65794 0
M  V30 5115 O 478.899 1.63692 3.66835 0
M  V30 5116 N 477.105 1.73012 2.33485 0
M  V30 5117 H 476.652 2.08439 1.51364 0
M  V30 5118 H 476.61 1.10965 2.94167 0
M  V30 5119 N 480.382 0.0267497 1.57577 0
M  V30 5120 C 481.629 -0.652404 1.91703 0
M  V30 5121 C 481.957 -1.72271 0.902936 0
M  V30 5122 O 481.212 -1.955 -0.0884843 0
M  V30 5123 C 481.511 -1.30914 3.3256 0
M  V30 5124 C 481.177 -0.369441 4.49384 0
M  V30 5125 C 479.839 -0.110791 4.81072 0
M  V30 5126 C 482.191 0.275971 5.20469 0
M  V30 5127 C 479.519 0.801116 5.81205 0
M  V30 5128 C 481.871 1.17592 6.21575 0
M  V30 5129 C 480.535 1.44348 6.51705 0
M  V30 5130 H 479.805 -0.238732 0.70149 0
M  V30 5131 H 482.452 0.0880091 1.91298 0
M  V30 5132 H 480.757 -2.12425 3.29216 0
M  V30 5133 H 482.454 -1.84115 3.56234 0
M  V30 5134 H 479.044 -0.581211 4.24641 0
M  V30 5135 H 483.228 0.0892 4.9622 0
M  V30 5136 H 478.484 1.01614 6.02897 0
M  V30 5137 H 482.658 1.68223 6.75777 0
M  V30 5138 H 480.285 2.15176 7.29111 0
M  V30 5139 N 481.861 -1.55662 -0.24637 0
M  V30 5140 C 482.808 -1.90361 -1.30504 0
M  V30 5141 C 483.778 -0.757905 -1.47801 0
M  V30 5142 O 484.963 -1.01161 -1.61775 0
M  V30 5143 C 482.103 -2.2042 -2.65535 0
M  V30 5144 C 481.216 -3.47799 -2.56242 0
M  V30 5145 C 480.351 -3.67426 -3.8363 0
M  V30 5146 C 479.39 -4.88403 -3.68956 0
M  V30 5147 N 478.527 -5.04548 -4.88237 0
M  V30 5148 H 483.367 -2.80645 -1.00213 0
M  V30 5149 H 480.904 -1.38924 -0.483577 0
M  V30 5150 H 482.862 -2.35853 -3.44135 0
M  V30 5151 H 481.492 -1.3334 -2.93973 0
M  V30 5152 H 480.544 -3.40694 -1.69208 0
M  V30 5153 H 481.856 -4.36544 -2.4131 0
M  V30 5154 H 481.01 -3.82821 -4.70673 0
M  V30 5155 H 479.749 -2.76914 -4.01459 0
M  V30 5156 H 478.754 -4.72984 -2.80296 0
M  V30 5157 H 479.979 -5.80375 -3.52621 0
M  V30 5158 H 477.925 -4.16974 -5.06427 0
M  V30 5159 H 477.842 -5.87384 -4.75937 0
M  V30 5160 H 479.11 -5.24355 -5.76777 0
M  V30 5161 N 483.339 0.512053 -1.4905 0
M  V30 5162 C 484.302 1.59704 -1.64399 0
M  V30 5163 C 485.302 1.52285 -0.516317 0
M  V30 5164 O 486.492 1.55635 -0.782527 0
M  V30 5165 C 483.624 2.9935 -1.63102 0
M  V30 5166 H 484.817 1.47428 -2.61161 0
M  V30 5167 H 482.37 0.735469 -1.37915 0
M  V30 5168 H 483.105 3.17116 -0.678836 0
M  V30 5169 H 482.89 3.06144 -2.44986 0
M  V30 5170 H 484.38 3.782 -1.77072 0
M  V30 5171 N 484.817 1.37938 0.762283 0
M  V30 5172 C 486.057 1.35076 1.53407 0
M  V30 5173 C 486.421 -0.061546 1.91901 0
M  V30 5174 O 487.622 -0.214973 2.67939 0
M  V30 5175 C 485.893 2.27206 2.75884 0
M  V30 5176 S 487.452 2.42283 3.65848 0
M  V30 5177 H 484.27 0.479387 0.52508 0
M  V30 5178 H 486.872 1.7378 0.895586 0
M  V30 5179 H 485.576 3.28724 2.457 0
M  V30 5180 H 485.107 1.8962 3.44685 0
M  V30 5181 H 487.122 1.64044 4.68299 0
M  V30 5182 N 486.295 -0.989507 1.22664 0
M  V30 5183 C 487.542 -1.72953 1.05325 0
M  V30 5184 C 487.87 -1.90104 -0.411168 0
M  V30 5185 O 487.125 -1.44386 -1.32103 0
M  V30 5186 C 487.424 -3.13649 1.71345 0
M  V30 5187 C 487.09 -3.16403 3.21248 0
M  V30 5188 C 485.752 -3.16862 3.62149 0
M  V30 5189 C 488.104 -3.12428 4.17179 0
M  V30 5190 C 485.432 -3.11051 4.97458 0
M  V30 5191 C 487.784 -3.08159 5.52468 0
M  V30 5192 C 486.448 -3.06935 5.92746 0
M  V30 5193 H 485.718 -0.632881 0.385412 0
M  V30 5194 H 488.365 -1.15863 1.52473 0
M  V30 5195 H 486.67 -3.74069 1.16532 0
M  V30 5196 H 488.367 -3.69658 1.55416 0
M  V30 5197 H 484.957 -3.16798 2.88682 0
M  V30 5198 H 489.141 -3.11221 3.86595 0
M  V30 5199 H 484.397 -3.0845 5.27891 0
M  V30 5200 H 488.571 -3.04039 6.26525 0
M  V30 5201 H 486.198 -3.02186 6.97558 0
M  V30 5202 N 487.773 -1.03688 -1.18687 0
M  V30 5203 C 489.189 -0.755413 -1.4059 0
M  V30 5204 C 489.389 0.656659 -1.905 0
M  V30 5205 O 488.445 1.42144 -2.08689 0
M  V30 5206 C 489.758 -1.7983 -2.41001 0
M  V30 5207 C 491.306 -1.81877 -2.54735 0
M  V30 5208 C 491.781 -2.85148 -3.58406 0
M  V30 5209 N 493.272 -2.84015 -3.6591 0
M  V30 5210 C 494.007 -3.60573 -4.45841 0
M  V30 5211 N 493.503 -4.46871 -5.29413 0
M  V30 5212 N 495.296 -3.49079 -4.40568 0
M  V30 5213 H 487.447 -1.94818 -0.846148 0
M  V30 5214 H 489.71 -0.842727 -0.434184 0
M  V30 5215 H 489.416 -2.81097 -2.1137 0
M  V30 5216 H 489.29 -1.62727 -3.40294 0
M  V30 5217 H 491.677 -0.812836 -2.83685 0
M  V30 5218 H 491.758 -2.03057 -1.55568 0
M  V30 5219 H 491.402 -3.85918 -3.30197 0
M  V30 5220 H 491.332 -2.61224 -4.57241 0
M  V30 5221 H 493.823 -2.21431 -3.0623 0
M  V30 5222 H 494.136 -5.02007 -5.87545 0
M  V30 5223 H 492.481 -4.5094 -5.28846 0
M  V30 5224 H 495.672 -2.81066 -3.74325 0
M  V30 5225 H 495.845 -4.08994 -5.02621 0
M  V30 5226 N 489.251 1.34841 -0.815825 0
M  V30 5227 C 490.198 2.29644 -0.230664 0
M  V30 5228 C 491.168 1.53253 0.640533 0
M  V30 5229 O 492.353 1.81653 0.583672 0
M  V30 5230 C 489.493 3.39715 0.607275 0
M  V30 5231 C 488.606 4.31056 -0.28538 0
M  V30 5232 C 487.741 5.28225 0.561446 0
M  V30 5233 C 486.78 6.11204 -0.331035 0
M  V30 5234 N 485.917 7.00483 0.476302 0
M  V30 5235 H 490.757 2.79095 -1.0445 0
M  V30 5236 H 488.294 1.37351 -0.526595 0
M  V30 5237 H 490.252 4.02208 1.10835 0
M  V30 5238 H 488.882 2.91517 1.38629 0
M  V30 5239 H 487.934 3.69487 -0.904621 0
M  V30 5240 H 489.246 4.89239 -0.97193 0
M  V30 5241 H 488.4 5.96135 1.12728 0
M  V30 5242 H 487.139 4.70562 1.28153 0
M  V30 5243 H 486.144 5.42232 -0.909069 0
M  V30 5244 H 487.369 6.70947 -1.04912 0
M  V30 5245 H 485.315 6.45296 1.18019 0
M  V30 5246 H 485.232 7.55847 -0.152008 0
M  V30 5247 H 486.5 7.7273 1.02512 0
M  V30 5248 N 490.729 0.570148 1.46925 0
M  V30 5249 C 491.976 0.0509529 2.02436 0
M  V30 5250 C 492.304 -1.30405 1.44308 0
M  V30 5251 O 491.559 -1.86493 0.593198 0
M  V30 5252 C 491.858 -0.0780336 3.57315 0
M  V30 5253 C 491.524 1.20775 4.34424 0
M  V30 5254 C 490.186 1.56004 4.5521 0
M  V30 5255 C 492.538 2.0592 4.78797 0
M  V30 5256 C 489.866 2.76201 5.17619 0
M  V30 5257 C 492.218 3.25332 5.42533 0
M  V30 5258 C 490.882 3.60859 5.61549 0
M  V30 5259 H 490.152 0.018645 0.740765 0
M  V30 5260 H 492.799 0.744262 1.76445 0
M  V30 5261 H 491.104 -0.854394 3.82371 0
M  V30 5262 H 492.801 -0.495312 3.97929 0
M  V30 5263 H 489.391 0.923469 4.18533 0
M  V30 5264 H 493.575 1.80008 4.62505 0
M  V30 5265 H 488.831 3.0388 5.30535 0
M  V30 5266 H 493.005 3.91586 5.75876 0
M  V30 5267 H 490.632 4.54088 6.09678 0
M  V30 5268 N 492.207 -1.54576 0.307264 0
M  V30 5269 C 493.447 -2.02172 -0.300962 0
M  V30 5270 C 493.811 -1.19081 -1.50611 0
M  V30 5271 O 495.012 -1.56405 -2.18612 0
M  V30 5272 C 493.283 -3.51576 -0.642591 0
M  V30 5273 S 494.842 -4.21127 -1.23279 0
M  V30 5274 H 491.66 -0.705021 -0.0920141 0
M  V30 5275 H 494.262 -1.90563 0.436594 0
M  V30 5276 H 492.966 -4.09681 0.242901 0
M  V30 5277 H 492.497 -3.67234 -1.41077 0
M  V30 5278 H 494.512 -4.27426 -2.52034 0
M  V30 5279 N 493.685 -0.035106 -1.57561 0
M  V30 5280 C 494.925 0.646316 -1.93913 0
M  V30 5281 C 495.289 1.68947 -0.912185 0
M  V30 5282 O 496.49 2.42381 -1.1621 0
M  V30 5283 C 494.761 1.24136 -3.35149 0
M  V30 5284 S 496.32 1.94302 -3.93436 0
M  V30 5285 H 493.138 0.212642 -0.678457 0
M  V30 5286 H 495.74 -0.100203 -1.95243 0
M  V30 5287 H 494.444 0.46979 -4.07702 0
M  V30 5288 H 493.975 2.02505 -3.37276 0
M  V30 5289 H 495.99 3.22205 -3.77357 0
M  V30 5290 N 495.163 1.55791 0.238111 0
M  V30 5291 C 496.126 1.90239 1.27835 0
M  V30 5292 C 497.126 0.779552 1.4064 0
M  V30 5293 O 498.316 1.04747 1.3919 0
M  V30 5294 C 495.448 2.13859 2.65475 0
M  V30 5295 H 496.641 2.83262 0.985034 0
M  V30 5296 H 494.194 1.48818 0.477799 0
M  V30 5297 H 494.929 1.23334 2.99932 0
M  V30 5298 H 494.714 2.95643 2.57561 0
M  V30 5299 H 496.204 2.41664 3.40571 0
M  V30 5300 N 496.642 -0.504142 1.49319 0
M  V30 5301 C 497.867 -1.28729 1.62615 0
M  V30 5302 C 498.292 -1.85752 0.296309 0
M  V30 5303 O 497.65 -1.65704 -0.735649 0
M  V30 5304 C 497.698 -2.39561 2.69524 0
M  V30 5305 O 496.802 -3.43324 2.28478 0
M  V30 5306 H 496.143 -0.380172 0.544395 0
M  V30 5307 H 498.673 -0.603872 1.95485 0
M  V30 5308 H 498.683 -2.8537 2.91595 0
M  V30 5309 H 497.358 -1.97423 3.66056 0
M  V30 5310 H 495.935 -3.03455 2.16725 0
M  V30 5311 N 498.12 -1.38341 -0.754957 0
M  V30 5312 C 499.083 -1.35262 -1.85032 0
M  V30 5313 C 500.083 -0.253393 -1.58791 0
M  V30 5314 O 501.273 -0.510205 -1.66561 0
M  V30 5315 C 498.405 -1.10544 -3.22479 0
M  V30 5316 H 499.598 -2.32712 -1.8917 0
M  V30 5317 H 497.151 -1.23614 -0.956515 0
M  V30 5318 H 497.886 -0.136952 -3.24011 0
M  V30 5319 H 497.671 -1.90127 -3.4292 0
M  V30 5320 H 499.161 -1.11082 -4.02555 0
M  V30 5321 N 499.598 0.982988 -1.23187 0
M  V30 5322 C 500.528 2.09301 -1.03515 0
M  V30 5323 C 501.509 1.70035 0.0471136 0
M  V30 5324 O 502.694 1.93847 -0.117029 0
M  V30 5325 C 499.824 3.4167 -0.622791 0
M  V30 5326 C 498.778 3.94828 -1.65211 0
M  V30 5327 C 498.104 5.23362 -1.09527 0
M  V30 5328 C 499.404 4.2439 -3.04451 0
M  V30 5329 H 501.098 2.26016 -1.96359 0
M  V30 5330 H 498.644 1.08611 -0.945501 0
M  V30 5331 H 500.597 4.18746 -0.472233 0
M  V30 5332 H 499.321 3.24811 0.341329 0
M  V30 5333 H 497.98 3.19895 -1.79061 0
M  V30 5334 H 497.628 5.02852 -0.122211 0
M  V30 5335 H 497.328 5.59895 -1.783 0
M  V30 5336 H 498.852 6.03062 -0.956511 0
M  V30 5337 H 500.266 4.92225 -2.93917 0
M  V30 5338 H 498.663 4.72118 -3.70438 0
M  V30 5339 H 499.733 3.31765 -3.53638 0
M  V30 5340 N 501.076 1.04316 1.18135 0
M  V30 5341 C 502.492 0.762858 1.40188 0
M  V30 5342 C 502.692 -0.646547 1.90846 0
M  V30 5343 O 501.748 -1.41036 2.0944 0
M  V30 5344 C 503.061 1.81106 2.40044 0
M  V30 5345 C 504.609 1.83226 2.53766 0
M  V30 5346 C 505.084 2.87044 3.56889 0
M  V30 5347 N 506.575 2.85951 3.64398 0
M  V30 5348 C 507.31 3.62932 4.43923 0
M  V30 5349 N 506.806 4.49672 5.27036 0
M  V30 5350 N 508.599 3.51411 4.38711 0
M  V30 5351 H 500.75 1.95264 0.835805 0
M  V30 5352 H 503.013 0.845017 0.429709 0
M  V30 5353 H 502.719 2.82214 2.09876 0
M  V30 5354 H 502.593 1.64529 3.39426 0
M  V30 5355 H 504.98 0.827869 2.8325 0
M  V30 5356 H 505.061 2.03879 1.54489 0
M  V30 5357 H 504.705 3.87663 3.28145 0
M  V30 5358 H 504.635 2.63645 4.5585 0
M  V30 5359 H 507.126 2.23051 3.05052 0
M  V30 5360 H 507.439 5.05116 5.84874 0
M  V30 5361 H 505.784 4.53738 5.26447 0
M  V30 5362 H 508.975 2.83047 3.72829 0
M  V30 5363 H 509.148 4.11654 5.00445 0
M  V30 5364 N 502.554 -1.34406 0.822964 0
M  V30 5365 C 503.97 -1.51275 0.508727 0
M  V30 5366 C 504.17 -1.76776 -0.967083 0
M  V30 5367 O 503.226 -1.81871 -1.75155 0
M  V30 5368 C 504.539 -2.67765 1.36829 0
M  V30 5369 C 506.087 -2.81647 1.36542 0
M  V30 5370 C 506.562 -4.01181 2.20947 0
M  V30 5371 N 508.053 -4.08388 2.18571 0
M  V30 5372 C 508.788 -5.00036 2.80627 0
M  V30 5373 N 508.284 -5.96906 3.51674 0
M  V30 5374 N 510.077 -4.92908 2.70181 0
M  V30 5375 H 502.228 -1.16113 1.77852 0
M  V30 5376 H 504.491 -0.56947 0.757897 0
M  V30 5377 H 504.197 -2.55551 2.41633 0
M  V30 5378 H 504.071 -3.62779 1.03303 0
M  V30 5379 H 506.458 -2.93303 0.325163 0
M  V30 5380 H 506.539 -1.87443 1.74066 0
M  V30 5381 H 506.183 -3.90286 3.25022 0
M  V30 5382 H 506.113 -4.94599 1.80774 0
M  V30 5383 H 508.604 -3.39051 1.66891 0
M  V30 5384 H 508.917 -6.63468 3.96271 0
M  V30 5385 H 507.262 -5.9703 3.5578 0
M  V30 5386 H 510.453 -4.1619 2.14251 0
M  V30 5387 H 510.626 -5.64137 3.18831 0
M  V30 5388 N 504.032 -0.577932 -1.46621 0
M  V30 5389 C 505.309 0.00495287 -1.95599 0
M  V30 5390 C 505.689 1.46428 -1.5206 0
M  V30 5391 O 505.037 2.1517 -0.769046 0
M  V30 5392 C 505.247 -0.162114 -3.48623 0
M  V30 5393 C 506.595 -0.0274623 -4.24591 0
M  V30 5394 O 507.619 -0.0907067 -3.56084 0
M  V30 5395 O 506.478 0.1122 -5.46385 0
M  V30 5396 H 503.572 0.0525057 -0.825332 0
M  V30 5397 H 506.118 -0.645914 -1.56927 0
M  V30 5398 H 504.89 -1.17679 -3.73185 0
M  V30 5399 H 504.513 0.525407 -3.94113 0
M  V30 5400 N 505.51 1.54411 -0.315457 0
M  V30 5401 C 506.756 2.00716 0.289972 0
M  V30 5402 C 507.089 1.2034 1.5242 0
M  V30 5403 O 506.364 0.283579 1.92422 0
M  V30 5404 C 506.647 3.54507 0.632196 0
M  V30 5405 C 506.5 4.45615 -0.61218 0
M  V30 5406 C 507.819 4.15421 1.45305 0
M  V30 5407 H 504.938 0.729637 0.10392 0
M  V30 5408 H 507.58 1.8506 -0.430427 0
M  V30 5409 H 505.73 3.67979 1.24595 0
M  V30 5410 H 507.402 4.44026 -1.25053 0
M  V30 5411 H 505.645 4.15621 -1.24264 0
M  V30 5412 H 506.316 5.51022 -0.328379 0
M  V30 5413 H 508.792 4.05474 0.934331 0
M  V30 5414 H 507.668 5.23157 1.66127 0
M  V30 5415 H 507.929 3.68223 2.44671 0
M  V30 5416 N 506.988 0.0434614 1.5754 0
M  V30 5417 C 507.92 -0.962586 2.08007 0
M  V30 5418 C 508.933 -1.27972 1.00634 0
M  V30 5419 O 510.122 -1.24186 1.28219 0
M  V30 5420 C 507.222 -2.28621 2.50171 0
M  V30 5421 C 506.395 -2.15214 3.80791 0
M  V30 5422 C 505.454 -3.30633 4.09351 0
M  V30 5423 O 504.48 -3.0688 4.79388 0
M  V30 5424 N 505.682 -4.54873 3.60654 0
M  V30 5425 H 508.447 -0.531891 2.94942 0
M  V30 5426 H 506.008 -0.142965 1.61268 0
M  V30 5427 H 508 -3.04689 2.66359 0
M  V30 5428 H 506.57 -2.63283 1.68525 0
M  V30 5429 H 505.79 -1.23785 3.74261 0
M  V30 5430 H 507.078 -2.03475 4.66343 0
M  V30 5431 H 506.476 -4.77063 3.04019 0
M  V30 5432 H 505.033 -5.2806 3.82094 0
M  V30 5433 N 508.466 -1.55915 -0.229846 0
M  V30 5434 C 509.712 -1.78807 -0.956868 0
M  V30 5435 C 510.045 -0.611687 -1.84315 0
M  V30 5436 O 509.32 0.389398 -1.90562 0
M  V30 5437 C 509.603 -3.11718 -1.80288 0
M  V30 5438 C 509.456 -4.3979 -0.943649 0
M  V30 5439 C 510.775 -3.40999 -2.78222 0
M  V30 5440 H 507.894 -0.6505 -0.346437 0
M  V30 5441 H 510.536 -1.88648 -0.226252 0
M  V30 5442 H 508.686 -3.03459 -2.42579 0
M  V30 5443 H 510.358 -4.60059 -0.338121 0
M  V30 5444 H 508.601 -4.33086 -0.248705 0
M  V30 5445 H 509.272 -5.29208 -1.5698 0
M  V30 5446 H 511.748 -3.49332 -2.26067 0
M  V30 5447 H 510.624 -4.35183 -3.34526 0
M  V30 5448 H 510.885 -2.62754 -3.55546 0
M  V30 5449 N 509.944 0.496216 -1.49584 0
M  V30 5450 C 511.169 1.27865 -1.63295 0
M  V30 5451 C 511.594 1.85592 -0.306156 0
M  V30 5452 O 510.952 1.66092 0.726851 0
M  V30 5453 C 511 2.38128 -2.7079 0
M  V30 5454 O 510.104 3.42108 -2.30296 0
M  V30 5455 H 509.445 0.377279 -0.546403 0
M  V30 5456 H 511.975 0.593497 -1.95803 0
M  V30 5457 H 511.985 2.8382 -2.93104 0
M  V30 5458 H 510.66 1.95479 -3.67098 0
M  V30 5459 H 509.237 3.02301 -2.18331 0
M  V30 5460 N 511.423 1.38739 0.74761 0
M  V30 5461 C 512.7 1.25791 1.49786 0
M  V30 5462 C 513.08 -0.138075 2.10648 0
M  V30 5463 O 512.428 -1.14815 1.9756 0
M  V30 5464 C 512.638 2.37265 2.55942 0
M  V30 5465 C 513.986 2.75978 3.22679 0
M  V30 5466 O 515.01 2.36621 2.6625 0
M  V30 5467 O 513.869 3.43867 4.24756 0
M  V30 5468 H 510.963 0.492251 0.664543 0
M  V30 5469 H 513.509 1.50582 0.782511 0
M  V30 5470 H 512.281 3.30644 2.0926 0
M  V30 5471 H 511.904 2.14071 3.35051 0
M  V30 5472 N 512.901 -0.976442 1.23707 0
M  V30 5473 C 514.317 -1.24341 1.00058 0
M  V30 5474 C 514.517 -1.99315 -0.295932 0
M  V30 5475 O 513.573 -2.3123 -1.01435 0
M  V30 5476 C 514.886 -2.03909 2.21001 0
M  V30 5477 C 516.434 -2.17034 2.25534 0
M  V30 5478 C 516.909 -2.99994 3.46075 0
M  V30 5479 N 518.4 -3.07578 3.46338 0
M  V30 5480 C 519.135 -3.72104 4.36264 0
M  V30 5481 N 518.631 -4.3842 5.36432 0
M  V30 5482 N 520.424 -3.69029 4.23998 0
M  V30 5483 H 512.575 -0.47428 2.07037 0
M  V30 5484 H 514.838 -0.272167 0.908091 0
M  V30 5485 H 514.544 -1.56198 3.15111 0
M  V30 5486 H 514.418 -3.04654 2.22409 0
M  V30 5487 H 516.805 -2.63951 1.31961 0
M  V30 5488 H 516.886 -1.15664 2.28156 0
M  V30 5489 H 516.53 -2.53772 4.39957 0
M  V30 5490 H 516.46 -4.01541 3.40694 0
M  V30 5491 H 518.951 -2.60397 2.73865 0
M  V30 5492 H 519.264 -4.85447 6.013 0
M  V30 5493 H 517.609 -4.37116 5.40328 0
M  V30 5494 H 520.8 -3.16392 3.44984 0
M  V30 5495 H 520.973 -4.19034 4.94282 0
M  V30 5496 N 514.379 -1.04941 -1.1758 0
M  V30 5497 C 515.625 -0.759112 -1.88057 0
M  V30 5498 C 515.958 0.711918 -1.8068 0
M  V30 5499 O 515.233 1.52035 -1.21308 0
M  V30 5500 C 515.516 -1.237 -3.38187 0
M  V30 5501 C 515.369 -2.77078 -3.54327 0
M  V30 5502 C 516.688 -0.834014 -4.32125 0
M  V30 5503 H 513.807 -0.277237 -0.682868 0
M  V30 5504 H 516.449 -1.30296 -1.38286 0
M  V30 5505 H 514.599 -0.774337 -3.80705 0
M  V30 5506 H 516.271 -3.31449 -3.20842 0
M  V30 5507 H 514.514 -3.16477 -2.96689 0
M  V30 5508 H 515.185 -3.05577 -4.59703 0
M  V30 5509 H 517.661 -1.23228 -3.97434 0
M  V30 5510 H 516.537 -1.19603 -5.35711 0
M  V30 5511 H 516.798 0.262195 -4.41322 0
M  V30 5512 N 515.857 1.33968 -0.830081 0
M  V30 5513 C 517.273 1.51003 -0.516742 0
M  V30 5514 C 517.473 1.77286 0.957694 0
M  V30 5515 O 516.529 1.82797 1.74188 0
M  V30 5516 C 517.842 2.67036 -1.38247 0
M  V30 5517 C 519.39 2.80919 -1.38034 0
M  V30 5518 C 519.865 4.00004 -2.23071 0
M  V30 5519 N 521.356 4.07224 -2.20733 0
M  V30 5520 C 522.091 4.98541 -2.83275 0
M  V30 5521 N 521.587 5.95033 -3.54835 0
M  V30 5522 N 523.38 4.91469 -2.72791 0
M  V30 5523 H 515.531 1.15168 -1.78466 0
M  V30 5524 H 517.794 0.565443 -0.760906 0
M  V30 5525 H 517.5 2.54266 -2.42985 0
M  V30 5526 H 517.374 3.62226 -1.05225 0
M  V30 5527 H 519.761 2.93127 -0.340713 0
M  V30 5528 H 519.842 1.86517 -1.75057 0
M  V30 5529 H 519.486 3.88557 -3.27087 0
M  V30 5530 H 519.416 4.93634 -1.83394 0
M  V30 5531 H 521.907 3.38162 -1.68687 0
M  V30 5532 H 522.22 6.61357 -3.99784 0
M  V30 5533 H 520.565 5.95135 -3.58942 0
M  V30 5534 H 523.756 4.15048 -2.16456 0
M  V30 5535 H 523.929 5.62439 -3.21818 0
M  V30 5536 N 517.335 0.585699 1.46312 0
M  V30 5537 C 518.56 0.0762461 2.0726 0
M  V30 5538 C 518.985 -1.22071 1.43109 0
M  V30 5539 O 518.343 -1.73804 0.515942 0
M  V30 5540 C 518.391 -0.0729404 3.60526 0
M  V30 5541 O 517.495 -1.1287 3.96654 0
M  V30 5542 H 516.836 0.0641558 0.660893 0
M  V30 5543 H 519.366 0.809492 1.87905 0
M  V30 5544 H 519.376 -0.278158 4.07051 0
M  V30 5545 H 518.051 0.874188 4.06609 0
M  V30 5546 H 516.628 -0.901703 3.61834 0
M  V30 5547 N 518.813 -1.54241 0.323641 0
M  V30 5548 C 520.062 -1.9975 -0.279806 0
M  V30 5549 C 520.375 -1.2156 -1.5324 0
M  V30 5550 O 521.581 -1.57447 -2.21185 0
M  V30 5551 C 520.037 -3.55686 -0.549115 0
M  V30 5552 C 519.645 -4.4271 0.686432 0
M  V30 5553 C 521.389 -4.09663 -1.11251 0
M  V30 5554 C 519.296 -5.90119 0.389022 0
M  V30 5555 H 518.226 -0.746177 -0.10833 0
M  V30 5556 H 520.877 -1.78248 0.435877 0
M  V30 5557 H 519.259 -3.73176 -1.32499 0
M  V30 5558 H 520.433 -4.36996 1.46188 0
M  V30 5559 H 518.748 -3.99623 1.17005 0
M  V30 5560 H 521.345 -5.17386 -1.34965 0
M  V30 5561 H 521.688 -3.61651 -2.06191 0
M  V30 5562 H 522.221 -3.95806 -0.39782 0
M  V30 5563 H 518.96 -6.42326 1.30759 0
M  V30 5564 H 518.48 -5.98785 -0.348722 0
M  V30 5565 H 520.159 -6.47 -0.0011164 0
M  V30 5566 N 520.291 -0.0518155 -1.57515 0
M  V30 5567 C 521.254 0.907547 -2.10467 0
M  V30 5568 C 522.254 1.23947 -1.02439 0
M  V30 5569 O 523.444 1.17604 -1.2851 0
M  V30 5570 C 520.576 2.21723 -2.58944 0
M  V30 5571 H 521.769 0.44851 -2.96527 0
M  V30 5572 H 519.322 0.196598 -1.55059 0
M  V30 5573 H 520.057 2.72206 -1.76279 0
M  V30 5574 H 519.842 1.98935 -3.37886 0
M  V30 5575 H 521.332 2.90441 -3.00056 0
M  V30 5576 N 521.769 1.56035 0.221574 0
M  V30 5577 C 522.716 1.92413 1.27459 0
M  V30 5578 C 523.686 0.781323 1.46576 0
M  V30 5579 O 524.871 1.03721 1.60145 0
M  V30 5580 C 522.011 2.24617 2.61995 0
M  V30 5581 C 521.124 3.51831 2.50677 0
M  V30 5582 C 520.259 3.73482 3.77736 0
M  V30 5583 C 519.298 4.94211 3.6114 0
M  V30 5584 N 518.435 5.12252 4.80148 0
M  V30 5585 H 523.275 2.82203 0.957355 0
M  V30 5586 H 520.812 1.39676 0.461415 0
M  V30 5587 H 522.77 2.41298 3.40339 0
M  V30 5588 H 521.4 1.38 2.91815 0
M  V30 5589 H 520.452 3.43343 1.63767 0
M  V30 5590 H 521.764 4.40328 2.34334 0
M  V30 5591 H 520.918 3.9026 4.64523 0
M  V30 5592 H 519.657 2.83266 3.97003 0
M  V30 5593 H 518.662 4.77384 2.72736 0
M  V30 5594 H 519.887 5.85912 3.43343 0
M  V30 5595 H 517.833 4.24978 4.99729 0
M  V30 5596 H 517.75 5.94881 4.66532 0
M  V30 5597 H 519.018 5.33465 5.68362 0
M  V30 5598 N 523.247 -0.488276 1.49845 0
M  V30 5599 C 524.524 -1.24959 1.50481 0
M  V30 5600 C 524.904 -2.09735 0.239698 0
M  V30 5601 O 524.252 -2.14865 -0.777524 0
M  V30 5602 C 524.462 -2.0954 2.79095 0
M  V30 5603 C 525.81 -2.68305 3.29086 0
M  V30 5604 O 526.834 -2.19797 2.80299 0
M  V30 5605 O 525.693 -3.56643 4.14087 0
M  V30 5606 H 522.787 -0.566133 0.602845 0
M  V30 5607 H 525.333 -0.501504 1.6212 0
M  V30 5608 H 524.105 -1.46958 3.62656 0
M  V30 5609 H 523.728 -2.91517 2.70377 0
M  V30 5610 N 524.725 -1.39134 -0.740242 0
M  V30 5611 C 525.971 -1.36273 -1.50192 0
M  V30 5612 C 526.304 0.0430136 -1.94152 0
M  V30 5613 O 525.579 1.00691 -1.66408 0
M  V30 5614 C 525.862 -2.33041 -2.74525 0
M  V30 5615 C 525.715 -3.82535 -2.36617 0
M  V30 5616 C 527.034 -2.27723 -3.76604 0
M  V30 5617 H 524.153 -0.496323 -0.544823 0
M  V30 5618 H 526.795 -1.70085 -0.846815 0
M  V30 5619 H 524.945 -2.04337 -3.30422 0
M  V30 5620 H 526.617 -4.21967 -1.86391 0
M  V30 5621 H 524.86 -3.99565 -1.68909 0
M  V30 5622 H 525.531 -4.45723 -3.2563 0
M  V30 5623 H 528.007 -2.53091 -3.30279 0
M  V30 5624 H 526.883 -2.97519 -4.61274 0
M  V30 5625 H 527.144 -1.28049 -4.2315 0
M  V30 5626 N 526.204 0.969867 -1.24223 0
M  V30 5627 C 527.167 2.04564 -1.03373 0
M  V30 5628 C 528.167 1.60798 0.00819206 0
M  V30 5629 O 529.357 1.72641 -0.232567 0
M  V30 5630 C 526.489 3.36163 -0.566343 0
M  V30 5631 H 527.682 2.24494 -1.98853 0
M  V30 5632 H 525.235 1.1448 -1.06415 0
M  V30 5633 H 525.97 3.21925 0.391751 0
M  V30 5634 H 525.755 3.69273 -1.31834 0
M  V30 5635 H 527.245 4.1526 -0.441435 0
M  V30 5636 N 527.682 1.05563 1.17022 0
M  V30 5637 C 528.612 0.681026 2.23348 0
M  V30 5638 C 529.593 -0.322983 1.67005 0
M  V30 5639 O 530.778 -0.199746 1.9317 0
M  V30 5640 C 527.908 0.0589053 3.4725 0
M  V30 5641 C 526.862 0.988082 4.16438 0
M  V30 5642 C 526.188 0.229646 5.34207 0
M  V30 5643 C 527.488 2.31388 4.68249 0
M  V30 5644 H 529.182 1.56993 2.54938 0
M  V30 5645 H 526.728 0.756302 1.2254 0
M  V30 5646 H 528.681 -0.214982 4.20851 0
M  V30 5647 H 527.405 -0.864968 3.14938 0
M  V30 5648 H 526.064 1.24659 3.44754 0
M  V30 5649 H 525.712 -0.697111 4.98146 0
M  V30 5650 H 525.412 0.848815 5.81437 0
M  V30 5651 H 526.936 -0.0368694 6.10589 0
M  V30 5652 H 528.35 2.09964 5.33468 0
M  V30 5653 H 526.747 2.88736 5.26072 0
M  V30 5654 H 527.817 2.94982 3.84855 0
M  V30 5655 N 529.16 -1.33526 0.837174 0
M  V30 5656 C 530.123 -2.27551 0.274421 0
M  V30 5657 C 531.123 -1.50886 -0.555881 0
M  V30 5658 O 532.313 -1.70227 -0.369918 0
M  V30 5659 C 529.445 -3.35332 -0.613605 0
M  V30 5660 H 530.638 -2.78837 1.10408 0
M  V30 5661 H 528.191 -1.439 0.610126 0
M  V30 5662 H 528.926 -2.89285 -1.46577 0
M  V30 5663 H 528.711 -3.92095 -0.0195341 0
M  V30 5664 H 530.201 -4.05433 -1.00068 0
M  V30 5665 N 530.638 -0.59345 -1.46 0
M  V30 5666 C 531.878 -0.0859747 -2.04219 0
M  V30 5667 C 532.242 1.25432 -1.45364 0
M  V30 5668 O 533.443 1.85168 -1.9485 0
M  V30 5669 C 531.714 -0.0324314 -3.57385 0
M  V30 5670 S 533.273 0.415908 -4.36824 0
M  V30 5671 H 530.091 -0.0426872 -0.709717 0
M  V30 5672 H 532.693 -0.788369 -1.78899 0
M  V30 5673 H 531.397 -1.01166 -3.97735 0
M  V30 5674 H 530.928 0.6924 -3.87259 0
M  V30 5675 H 532.943 1.66844 -4.67309 0
M  V30 5676 N 532.116 1.54067 -0.331816 0
M  V30 5677 C 533.063 2.24623 0.530372 0
M  V30 5678 C 534.033 1.24009 1.10503 0
M  V30 5679 O 535.218 1.52712 1.14384 0
M  V30 5680 C 532.358 3.01374 1.68129 0
M  V30 5681 C 531.471 4.16821 1.13507 0
M  V30 5682 C 530.606 4.81085 2.25234 0
M  V30 5683 C 529.645 5.88621 1.67903 0
M  V30 5684 N 528.782 6.46713 2.73326 0
M  V30 5685 H 533.622 2.97898 -0.0778607 0
M  V30 5686 H 531.159 1.47014 -0.0501965 0
M  V30 5687 H 533.117 3.44125 2.35868 0
M  V30 5688 H 531.747 2.30419 2.26069 0
M  V30 5689 H 530.799 3.78796 0.348979 0
M  V30 5690 H 532.111 4.94203 0.675633 0
M  V30 5691 H 531.265 5.26846 3.00862 0
M  V30 5692 H 530.004 4.03102 2.74518 0
M  V30 5693 H 529.009 5.42254 0.907773 0
M  V30 5694 H 530.234 6.68506 1.19487 0
M  V30 5695 H 528.18 5.71599 3.21886 0
M  V30 5696 H 528.097 7.19532 2.3197 0
M  V30 5697 H 529.365 6.97129 3.48758 0
M  V30 5698 N 533.594 0.0601682 1.57485 0
M  V30 5699 C 534.822 -0.620937 1.97363 0
M  V30 5700 C 535.237 -1.63846 0.938082 0
M  V30 5701 O 534.594 -1.82339 -0.0766578 0
M  V30 5702 C 534.645 -1.29987 3.37321 0
M  V30 5703 O 534.366 -0.323081 4.36907 0
M  V30 5704 C 535.867 -2.06989 3.92008 0
M  V30 5705 H 533.087 -0.169135 0.649334 0
M  V30 5706 H 535.631 0.129132 2.04092 0
M  V30 5707 H 533.786 -2.0011 3.31715 0
M  V30 5708 H 534.2 -0.808754 5.18227 0
M  V30 5709 H 535.674 -2.49901 4.92192 0
M  V30 5710 H 536.151 -2.92173 3.2792 0
M  V30 5711 H 536.757 -1.41757 4.0098 0
M  V30 5712 N 535.072 -1.5615 -0.213296 0
M  V30 5713 C 536.297 -1.83986 -0.957282 0
M  V30 5714 C 536.722 -0.641526 -1.76822 0
M  V30 5715 O 536.08 0.409722 -1.7661 0
M  V30 5716 C 536.128 -3.09889 -1.84393 0
M  V30 5717 O 535.232 -2.89163 -2.94038 0
M  V30 5718 H 534.573 -0.606357 -0.270605 0
M  V30 5719 H 537.103 -2.03369 -0.224111 0
M  V30 5720 H 537.113 -3.40209 -2.25215 0
M  V30 5721 H 535.788 -3.96735 -1.24795 0
M  V30 5722 H 534.365 -2.70097 -2.57103 0
M  V30 5723 N 536.55 0.480323 -1.50102 0
M  V30 5724 C 537.46 1.60547 -1.71061 0
M  V30 5725 C 538.476 1.63564 -0.593529 0
M  V30 5726 O 539.652 1.81604 -0.870751 0
M  V30 5727 C 536.717 2.96814 -1.79171 0
M  V30 5728 C 535.778 3.04259 -3.02861 0
M  V30 5729 C 535.011 4.34027 -3.10574 0
M  V30 5730 O 535.234 5.24009 -2.25323 0
M  V30 5731 O 534.168 4.46873 -4.03223 0
M  V30 5732 H 537.994 1.45788 -2.6642 0
M  V30 5733 H 535.579 0.658838 -1.34088 0
M  V30 5734 H 537.461 3.77765 -1.86738 0
M  V30 5735 H 536.136 3.11791 -0.869947 0
M  V30 5736 H 535.043 2.22419 -3.008 0
M  V30 5737 H 536.376 2.94216 -3.94586 0
M  V30 5738 N 538.028 1.39524 0.732853 0
M  V30 5739 C 539.256 1.40143 1.52209 0
M  V30 5740 C 539.671 -0.00348836 1.888 0
M  V30 5741 O 539.028 -0.975357 1.5425 0
M  V30 5742 C 539.079 2.27632 2.8083 0
M  V30 5743 O 538.8 3.62654 2.45792 0
M  V30 5744 C 540.301 2.36658 3.74844 0
M  V30 5745 H 537.521 0.478604 0.470297 0
M  V30 5746 H 540.065 1.83366 0.905388 0
M  V30 5747 H 538.22 1.87818 3.38826 0
M  V30 5748 H 538.634 4.08941 3.28431 0
M  V30 5749 H 540.108 3.02118 4.61984 0
M  V30 5750 H 540.585 1.38638 4.16745 0
M  V30 5751 H 541.191 2.76951 3.22766 0
M  V30 5752 N 539.506 -0.963266 1.24736 0
M  V30 5753 C 540.752 -1.70933 1.09131 0
M  V30 5754 C 541.085 -1.90676 -0.368273 0
M  V30 5755 O 540.36 -1.47147 -1.27193 0
M  V30 5756 C 540.643 -3.09744 1.83658 0
M  V30 5757 C 540.496 -2.97465 3.37394 0
M  V30 5758 C 541.815 -4.09483 1.61282 0
M  V30 5759 H 538.934 -0.620398 0.397838 0
M  V30 5760 H 541.576 -1.12028 1.53459 0
M  V30 5761 H 539.726 -3.60031 1.4598 0
M  V30 5762 H 541.398 -2.54571 3.84696 0
M  V30 5763 H 539.641 -2.33576 3.65547 0
M  V30 5764 H 540.312 -3.95822 3.84745 0
M  V30 5765 H 542.788 -3.68073 1.94066 0
M  V30 5766 H 541.664 -5.04666 2.15878 0
M  V30 5767 H 541.925 -4.38639 0.552102 0
M  V30 5768 N 540.985 -1.06182 -1.16461 0
M  V30 5769 C 542.396 -0.802426 -1.68576 0
M  V30 5770 C 542.747 0.67412 -1.84255 0
M  V30 5771 O 541.872 1.52303 -1.5373 0
M  V30 5772 C 542.467 -1.45002 -3.06202 0
M  V30 5773 C 541.026 -1.23843 -3.55443 0
M  V30 5774 C 540.173 -1.52724 -2.31454 0
M  V30 5775 H 543.124 -1.22545 -1.00839 0
M  V30 5776 H 543.145 -0.864731 -3.70544 0
M  V30 5777 H 542.657 -2.52466 -2.94759 0
M  V30 5778 H 540.758 -0.183487 -3.72148 0
M  V30 5779 H 540.871 -1.95036 -4.37604 0
M  V30 5780 H 539.235 -0.947726 -2.36411 0
M  V30 5781 H 540.018 -2.61343 -2.22609 0
M  V30 5782 N 542.463 1.3308 -0.844243 0
M  V30 5783 C 543.879 1.50447 -0.532729 0
M  V30 5784 C 544.079 1.78292 0.938837 0
M  V30 5785 O 543.135 1.84635 1.72239 0
M  V30 5786 C 544.448 2.65555 -1.41072 0
M  V30 5787 C 545.996 2.7944 -1.41005 0
M  V30 5788 C 546.471 3.97616 -2.27301 0
M  V30 5789 N 547.962 4.0486 -2.2504 0
M  V30 5790 C 548.697 4.95508 -2.88547 0
M  V30 5791 N 548.193 5.91236 -3.61126 0
M  V30 5792 N 549.986 4.88548 -2.77989 0
M  V30 5793 H 542.137 1.13269 -1.79677 0
M  V30 5794 H 544.4 0.55734 -0.766861 0
M  V30 5795 H 544.106 2.51675 -2.45668 0
M  V30 5796 H 543.98 3.61089 -1.09061 0
M  V30 5797 H 546.367 2.92749 -0.371784 0
M  V30 5798 H 546.448 1.8465 -1.77026 0
M  V30 5799 H 546.092 3.85066 -3.3119 0
M  V30 5800 H 546.022 4.91661 -1.88619 0
M  V30 5801 H 548.513 3.36353 -1.72264 0
M  V30 5802 H 548.826 6.57079 -4.06776 0
M  V30 5803 H 547.171 5.91295 -3.65234 0
M  V30 5804 H 550.362 4.12729 -2.20846 0
M  V30 5805 H 550.535 5.58994 -3.27765 0
M  V30 5806 N 543.941 0.601185 1.45683 0
M  V30 5807 C 545.352 0.179659 1.85834 0
M  V30 5808 C 545.703 -1.26189 1.50236 0
M  V30 5809 O 544.828 -1.95587 0.925987 0
M  V30 5810 C 545.423 0.319277 3.37292 0
M  V30 5811 C 543.982 -0.0475092 3.7637 0
M  V30 5812 C 543.129 0.646692 2.69654 0
M  V30 5813 H 546.08 0.808268 1.36575 0
M  V30 5814 H 546.101 -0.4503 3.77826 0
M  V30 5815 H 545.613 1.36855 3.6317 0
M  V30 5816 H 543.714 -1.0962 3.5611 0
M  V30 5817 H 543.827 0.34168 4.7788 0
M  V30 5818 H 542.191 0.0849971 2.54558 0
M  V30 5819 H 542.974 1.69797 2.98369 0
M  V30 5820 N 545.419 -1.53889 0.339982 0
M  V30 5821 C 546.382 -2.23547 -0.50592 0
M  V30 5822 C 547.382 -1.23445 -1.03044 0
M  V30 5823 O 548.572 -1.47909 -0.920253 0
M  V30 5824 C 545.704 -2.95234 -1.7044 0
M  V30 5825 H 546.897 -2.99722 0.103247 0
M  V30 5826 H 544.45 -1.56033 0.0912804 0
M  V30 5827 H 545.185 -2.23236 -2.35236 0
M  V30 5828 H 544.97 -3.68654 -1.33553 0
M  V30 5829 H 546.46 -3.48258 -2.30447 0
M  V30 5830 O 546.936 -0.208127 -1.60153 0
M  V30 5831 H 547.627 0.374888 -1.90038 0
M  V30 END ATOM
M  V30 BEGIN BOND
M  V30 END BOND
M  V30 END CTAB
M  END
$$$$
