drugbank_target|P56556 NADH dehydrogenase [ubiquinone] 1 alpha subcomplex subunit 6 (DB00157)
 OpenBabel12092119273D

  0  0  0     0  0            999 V3000
M  V30 BEGIN CTAB
M  V30 COUNTS 2535 2564 0 0 0
M  V30 BEGIN ATOM
M  V30 1 H -0.908 1.98254 -0.117106 0
M  V30 2 N 0 1.576 0 0
M  V30 3 C 0.933 2.03868 1.02534 0
M  V30 4 C 1.911 0.928543 1.3348 0
M  V30 5 O 3.095 1.19667 1.45644 0
M  V30 6 C 0.222 2.43627 2.35294 0
M  V30 7 C -0.732 3.65373 2.2001 0
M  V30 8 S 0.101 5.13292 1.52614 0
M  V30 9 C 1.257 5.56322 2.86805 0
M  V30 10 H 1.49 2.90518 0.631377 0
M  V30 11 H -0.977 1.52953 0.210867 0
M  V30 12 H 0.981 2.67203 3.11629 0
M  V30 13 H -0.358 1.57376 2.7183 0
M  V30 14 H -1.165 3.90944 3.18086 0
M  V30 15 H -1.563 3.418 1.51819 0
M  V30 16 H 0.729 5.58782 3.83104 0
M  V30 17 H 1.672 6.56266 2.65933 0
M  V30 18 H 2.08 4.83886 2.90714 0
M  V30 19 N 1.4781 -0.272755 1.55222 0
M  V30 20 C 2.7261 -1.00234 1.75492 0
M  V30 21 C 3.0471 -1.8681 0.5592 0
M  V30 22 O 2.3171 -1.91215 -0.425882 0
M  V30 23 H 0.8971 -0.373076 0.647166 0
M  V30 24 H 3.5591 -0.296926 1.92625 0
M  V30 25 H 2.6551 -1.63913 2.65592 0
M  V30 26 N 2.9562 -1.48159 -0.537278 0
M  V30 27 C 3.9032 -1.62138 -1.64256 0
M  V30 28 C 4.8732 -0.463668 -1.59497 0
M  V30 29 O 6.0582 -0.686241 -1.78032 0
M  V30 30 C 3.1982 -1.66028 -3.02537 0
M  V30 31 C 2.3112 -2.92855 -3.17585 0
M  V30 32 C 1.4462 -2.87952 -4.46382 0
M  V30 33 C 0.4852 -4.09516 -4.54932 0
M  V30 34 N -0.3778 -4.02733 -5.75109 0
M  V30 35 H 4.4622 -2.56529 -1.51647 0
M  V30 36 H 1.9992 -1.27224 -0.738414 0
M  V30 37 H 3.9572 -1.66265 -3.82638 0
M  V30 38 H 2.5872 -0.751331 -3.13934 0
M  V30 39 H 1.6392 -3.02395 -2.30784 0
M  V30 40 H 2.9512 -3.82822 -3.19764 0
M  V30 41 H 2.1052 -2.8655 -5.34765 0
M  V30 42 H 0.8442 -1.95702 -4.46712 0
M  V30 43 H -0.1508 -4.11201 -3.64957 0
M  V30 44 H 1.0742 -5.02917 -4.56346 0
M  V30 45 H -0.9798 -3.13299 -5.76351 0
M  V30 46 H -1.0628 -4.86397 -5.78752 0
M  V30 47 H 0.2052 -4.05379 -6.65799 0
M  V30 48 N 4.4343 0.785586 -1.36625 0
M  V30 49 C 5.7113 1.53198 -1.21613 0
M  V30 50 C 6.0913 2.10187 0.196113 0
M  V30 51 O 5.4393 1.94318 1.20219 0
M  V30 52 C 5.6493 2.62388 -2.30116 0
M  V30 53 C 6.9973 3.30167 -2.66974 0
M  V30 54 O 8.0213 2.72674 -2.29188 0
M  V30 55 O 6.8803 4.34077 -3.32023 0
M  V30 56 H 3.9743 0.677865 -0.473738 0
M  V30 57 H 6.5203 0.823739 -1.48367 0
M  V30 58 H 5.2923 2.18299 -3.24748 0
M  V30 59 H 4.9153 3.40827 -2.0475 0
M  V30 60 N 5.9124 1.20967 1.01018 0
M  V30 61 C 7.1614 1.01796 1.74128 0
M  V30 62 C 7.4744 -0.449691 1.90361 0
M  V30 63 O 8.6804 -0.76068 2.60626 0
M  V30 64 C 7.1364 1.7727 3.13215 0
M  V30 65 C 6.7444 3.28171 3.04972 0
M  V30 66 C 8.4884 1.66489 3.90489 0
M  V30 67 C 6.3954 3.96156 4.39107 0
M  V30 68 H 5.3254 0.377276 0.652824 0
M  V30 69 H 7.9764 1.44651 1.12909 0
M  V30 70 H 6.3584 1.27205 3.75013 0
M  V30 71 H 7.5324 3.85499 2.52443 0
M  V30 72 H 5.8474 3.39437 2.41188 0
M  V30 73 H 8.4444 2.14617 4.89738 0
M  V30 74 H 8.7874 0.6222 4.11624 0
M  V30 75 H 9.3204 2.14003 3.35332 0
M  V30 76 H 6.0594 5.00604 4.23174 0
M  V30 77 H 5.5794 3.43617 4.91617 0
M  V30 78 H 7.2584 4.00774 5.07926 0
M  V30 79 N 7.3905 -1.2043 1.01659 0
M  V30 80 C 8.8065 -1.41852 0.731442 0
M  V30 81 C 9.0065 -1.89358 -0.688898 0
M  V30 82 O 8.0625 -2.06247 -1.45666 0
M  V30 83 C 9.3755 -2.44019 1.75714 0
M  V30 84 C 10.9235 -2.57785 1.77527 0
M  V30 85 C 11.3985 -3.63194 2.79023 0
M  V30 86 N 12.8895 -3.70678 2.77763 0
M  V30 87 C 13.6245 -4.51897 3.52954 0
M  V30 88 N 13.1205 -5.36921 4.37821 0
M  V30 89 N 14.9135 -4.4643 3.41551 0
M  V30 90 H 7.0645 -0.879093 1.93354 0
M  V30 91 H 9.3275 -0.448425 0.835236 0
M  V30 92 H 9.0335 -2.1611 2.77469 0
M  V30 93 H 8.9075 -3.43007 1.56927 0
M  V30 94 H 11.2945 -2.85023 0.764569 0
M  V30 95 H 11.3755 -1.58992 2.00387 0
M  V30 96 H 11.0195 -3.36699 3.80258 0
M  V30 97 H 10.9495 -4.61609 2.53425 0
M  V30 98 H 13.4405 -3.09944 2.16201 0
M  V30 99 H 13.7535 -5.95981 4.91962 0
M  V30 100 H 12.0985 -5.36424 4.41899 0
M  V30 101 H 15.2895 -3.79042 2.74672 0
M  V30 102 H 15.4625 -5.09491 4.00404 0
M  V30 103 N 8.8686 -0.792821 -1.36206 0
M  V30 104 C 10.2796 -0.429513 -1.81692 0
M  V30 105 C 10.6306 1.04695 -1.65932 0
M  V30 106 O 9.7556 1.81256 -1.18218 0
M  V30 107 C 10.3506 -0.772831 -3.29868 0
M  V30 108 C 8.9096 -0.462307 -3.7355 0
M  V30 109 C 8.0566 -1.00569 -2.5842 0
M  V30 110 H 11.0076 -0.985672 -1.24379 0
M  V30 111 H 11.0286 -0.0651928 -3.80444 0
M  V30 112 H 10.5406 -1.84747 -3.41307 0
M  V30 113 H 8.6416 0.604158 -3.67669 0
M  V30 114 H 8.7546 -0.985299 -4.68859 0
M  V30 115 H 7.1186 -0.428734 -2.51066 0
M  V30 116 H 7.9016 -2.08616 -2.72643 0
M  V30 117 N 10.3467 1.47872 -0.545128 0
M  V30 118 C 11.7627 1.5829 -0.204032 0
M  V30 119 C 11.9627 1.54529 1.29317 0
M  V30 120 O 11.0187 1.44232 2.07252 0
M  V30 121 C 12.3317 2.89304 -0.819987 0
M  V30 122 C 13.8797 3.02864 -0.790105 0
M  V30 123 C 14.3547 4.3656 -1.38491 0
M  V30 124 N 15.8457 4.43165 -1.34755 0
M  V30 125 C 16.5807 5.45153 -1.77753 0
M  V30 126 N 16.0767 6.54016 -2.2855 0
M  V30 127 N 17.8697 5.36125 -1.68897 0
M  V30 128 H 10.0207 1.4856 -1.51802 0
M  V30 129 H 12.2837 0.706305 -0.632327 0
M  V30 130 H 11.9897 2.97757 -1.87173 0
M  V30 131 H 11.8637 3.75957 -0.305915 0
M  V30 132 H 14.2507 2.94014 0.252913 0
M  V30 133 H 14.3317 2.17782 -1.34181 0
M  V30 134 H 13.9757 4.46164 -2.42693 0
M  V30 135 H 13.9057 5.20353 -0.808754 0
M  V30 136 H 16.3967 3.65083 -0.975855 0
M  V30 137 H 16.7097 7.27994 -2.59314 0
M  V30 138 H 15.0547 6.54938 -2.32553 0
M  V30 139 H 18.2457 4.49975 -1.28998 0
M  V30 140 H 18.4187 6.15472 -2.02726 0
M  V30 141 N 11.8248 0.280983 1.55075 0
M  V30 142 C 13.0498 -0.340154 2.04592 0
M  V30 143 C 13.4748 -1.48246 1.15779 0
M  V30 144 O 12.8328 -1.80614 0.15761 0
M  V30 145 C 12.8808 -0.793104 3.5177 0
M  V30 146 O 11.9848 -1.89981 3.66034 0
M  V30 147 H 11.3258 -0.0694289 0.66036 0
M  V30 148 H 13.8558 0.416993 2.00306 0
M  V30 149 H 13.8658 -1.08729 3.93245 0
M  V30 150 H 12.5408 0.0426163 4.15878 0
M  V30 151 H 11.1178 -1.60771 3.36463 0
M  V30 152 N 13.3029 -1.57598 0.00835791 0
M  V30 153 C 14.2659 -2.07884 -0.965242 0
M  V30 154 C 15.2659 -0.989825 -1.26725 0
M  V30 155 O 16.4559 -1.25218 -1.21104 0
M  V30 156 C 13.5879 -2.52731 -2.28779 0
M  V30 157 H 14.7809 -2.95178 -0.530112 0
M  V30 158 H 12.3339 -1.54458 -0.239283 0
M  V30 159 H 13.0689 -1.68705 -2.76964 0
M  V30 160 H 12.8539 -3.32272 -2.08177 0
M  V30 161 H 14.3439 -2.91933 -2.98605 0
M  V30 162 N 14.781 0.264519 -1.55364 0
M  V30 163 C 16.197 0.61215 -1.47394 0
M  V30 164 C 16.397 1.89134 -0.695018 0
M  V30 165 O 15.453 2.51563 -0.217275 0
M  V30 166 C 16.766 0.731235 -2.91674 0
M  V30 167 C 18.314 0.82473 -3.01939 0
M  V30 168 C 18.789 0.975522 -4.4749 0
M  V30 169 N 20.28 1.04083 -4.51354 0
M  V30 170 C 21.015 1.17646 -5.61201 0
M  V30 171 N 20.511 1.27874 -6.80896 0
M  V30 172 N 22.304 1.20823 -5.48961 0
M  V30 173 H 14.455 -0.575456 -2.04456 0
M  V30 174 H 16.718 -0.196099 -0.927496 0
M  V30 175 H 16.424 -0.138392 -3.51428 0
M  V30 176 H 16.298 1.60883 -3.41169 0
M  V30 177 H 18.685 1.68482 -2.42276 0
M  V30 178 H 18.766 -0.0776479 -2.55682 0
M  V30 179 H 18.41 0.120058 -5.07758 0
M  V30 180 H 18.34 1.89268 -4.91412 0
M  V30 181 H 20.831 0.973846 -3.65136 0
M  V30 182 H 21.144 1.38081 -7.60364 0
M  V30 183 H 19.489 1.24863 -6.83692 0
M  V30 184 H 22.68 1.12469 -4.54388 0
M  V30 185 H 22.853 1.31049 -6.3461 0
M  V30 186 N 16.2591 1.48442 0.529413 0
M  V30 187 C 17.2221 1.62524 1.61612 0
M  V30 188 C 18.2221 0.498509 1.52877 0
M  V30 189 O 19.4121 0.76431 1.56537 0
M  V30 190 C 16.5441 1.59597 3.01233 0
M  V30 191 H 17.7371 2.59423 1.50465 0
M  V30 192 H 15.2901 1.37047 0.751514 0
M  V30 193 H 16.0251 0.641781 3.17886 0
M  V30 194 H 15.8101 2.41397 3.08982 0
M  V30 195 H 17.3001 1.72646 3.80241 0
M  V30 196 N 17.7372 -0.778329 1.37039 0
M  V30 197 C 18.7002 -1.87301 1.32102 0
M  V30 198 C 19.7002 -1.59198 0.226405 0
M  V30 199 O 20.8902 -1.67403 0.481861 0
M  V30 200 C 18.0222 -3.24309 1.05055 0
M  V30 201 H 19.2152 -1.93093 2.29467 0
M  V30 202 H 16.7682 -0.977358 1.21973 0
M  V30 203 H 17.5032 -3.24196 0.0819373 0
M  V30 204 H 17.2882 -3.46098 1.84279 0
M  V30 205 H 18.7782 -4.04382 1.04234 0
M  V30 206 N 19.2153 -1.21501 -1.00376 0
M  V30 207 C 20.4553 -1.04444 -1.75701 0
M  V30 208 C 20.8193 0.414644 -1.87469 0
M  V30 209 O 22.0203 0.705763 -2.59369 0
M  V30 210 C 20.2913 -1.72389 -3.13077 0
M  V30 211 S 21.8503 -1.70604 -4.04277 0
M  V30 212 H 18.6683 -0.374249 -0.604532 0
M  V30 213 H 21.2703 -1.54267 -1.20091 0
M  V30 214 H 19.9743 -2.77734 -3.02146 0
M  V30 215 H 19.5053 -1.22751 -3.73759 0
M  V30 216 H 21.5203 -0.748012 -4.9053 0
M  V30 217 N 20.6934 1.19889 -1.02296 0
M  V30 218 C 21.6404 2.22901 -0.598651 0
M  V30 219 C 22.6104 1.61588 0.384521 0
M  V30 220 O 23.7954 1.88697 0.282522 0
M  V30 221 C 20.9354 3.45063 0.0504476 0
M  V30 222 C 20.0484 4.20783 -0.978053 0
M  V30 223 C 19.1834 5.30356 -0.299338 0
M  V30 224 C 18.2224 5.97826 -1.31416 0
M  V30 225 N 17.3594 6.98975 -0.661667 0
M  V30 226 H 22.1994 2.58554 -1.48169 0
M  V30 227 H 19.7364 1.27039 -0.741584 0
M  V30 228 H 21.6944 4.14831 0.443971 0
M  V30 229 H 20.3244 3.10084 0.897097 0
M  V30 230 H 19.3764 3.50018 -1.48969 0
M  V30 231 H 20.6884 4.67109 -1.74958 0
M  V30 232 H 19.8424 6.06516 0.149347 0
M  V30 233 H 18.5814 4.85084 0.504445 0
M  V30 234 H 17.5864 5.20422 -1.77317 0
M  V30 235 H 18.8114 6.45183 -2.11933 0
M  V30 236 H 16.7574 6.55886 0.122132 0
M  V30 237 H 16.6744 7.43461 -1.37117 0
M  V30 238 H 17.9424 7.7914 -0.236785 0
M  V30 239 N 22.1715 0.800033 1.35784 0
M  V30 240 C 23.4195 0.376597 1.9856 0
M  V30 241 C 23.7405 -1.05812 1.63795 0
M  V30 242 O 23.0105 -1.73103 0.917171 0
M  V30 243 H 21.5905 0.136261 0.734467 0
M  V30 244 H 24.2525 1.02442 1.65806 0
M  V30 245 H 23.3485 0.477002 3.08433 0
M  V30 246 N 23.6496 -1.47581 0.552962 0
M  V30 247 C 24.8956 -2.02782 0.0273648 0
M  V30 248 C 25.2286 -1.42687 -1.31734 0
M  V30 249 O 24.5036 -0.580897 -1.85623 0
M  V30 250 C 24.7866 -3.60031 -0.0702371 0
M  V30 251 C 24.6396 -4.30566 1.30126 0
M  V30 252 C 25.9586 -4.33028 -0.785771 0
M  V30 253 H 23.0776 -0.736912 0.0114185 0
M  V30 254 H 25.7196 -1.76056 0.714432 0
M  V30 255 H 23.8696 -3.82932 -0.655382 0
M  V30 256 H 25.5416 -4.19018 1.92929 0
M  V30 257 H 23.7846 -3.91086 1.87709 0
M  V30 258 H 24.4556 -5.39114 1.18573 0
M  V30 259 H 26.9316 -4.15095 -0.288982 0
M  V30 260 H 25.8076 -5.42695 -0.823013 0
M  V30 261 H 26.0686 -4.01945 -1.841 0
M  V30 262 N 25.1277 -0.289203 -1.54924 0
M  V30 263 C 26.3757 0.322879 -1.99504 0
M  V30 264 C 26.6967 1.55313 -1.1791 0
M  V30 265 O 25.9667 1.94001 -0.272097 0
M  V30 266 H 24.5467 0.122291 -0.736922 0
M  V30 267 H 27.2087 -0.397802 -1.90797 0
M  V30 268 H 26.3047 0.603061 -3.06218 0
M  V30 269 N 26.6058 1.57591 -0.0167156 0
M  V30 270 C 27.5358 2.12496 0.967858 0
M  V30 271 C 28.5168 1.03807 1.34752 0
M  V30 272 O 29.7018 1.31577 1.42833 0
M  V30 273 C 26.8318 2.64194 2.25431 0
M  V30 274 C 25.7858 3.77559 2.01576 0
M  V30 275 C 25.1118 4.15636 3.36379 0
M  V30 276 C 26.4118 5.04151 1.36489 0
M  V30 277 H 28.1058 2.95013 0.510643 0
M  V30 278 H 25.6518 1.41915 0.244181 0
M  V30 279 H 27.6048 3.01236 2.94678 0
M  V30 280 H 26.3288 1.78821 2.73296 0
M  V30 281 H 24.9878 3.40937 1.34751 0
M  V30 282 H 24.6358 3.27263 3.81979 0
M  V30 283 H 24.3358 4.92022 3.21229 0
M  V30 284 H 25.8598 4.5525 4.06915 0
M  V30 285 H 27.2738 5.38857 1.95718 0
M  V30 286 H 25.6708 5.85453 1.31776 0
M  V30 287 H 26.7408 4.83733 0.336219 0
M  V30 288 N 28.0839 -0.256276 1.55502 0
M  V30 289 C 29.3299 -0.982884 1.78076 0
M  V30 290 C 29.6849 -1.83319 0.584109 0
M  V30 291 O 28.9779 -1.86875 -0.422877 0
M  V30 292 C 29.1719 -1.88432 3.03691 0
M  V30 293 C 29.0009 -1.12276 4.35459 0
M  V30 294 C 27.7709 -0.831647 4.98409 0
M  V30 295 C 29.9689 -0.504933 5.11815 0
M  V30 296 N 27.9509 -0.0450423 6.13883 0
M  V30 297 C 29.3219 0.146696 6.19826 0
M  V30 298 C 31.3769 -0.414455 4.96172 0
M  V30 299 C 30.0799 0.880103 7.13895 0
M  V30 300 C 32.1059 0.305398 5.90611 0
M  V30 301 C 31.4679 0.945701 6.98023 0
M  V30 302 H 27.5669 -0.341084 0.703694 0
M  V30 303 H 30.1509 -0.256909 1.92998 0
M  V30 304 H 28.3219 -2.58241 2.90114 0
M  V30 305 H 30.0539 -2.54579 3.14598 0
M  V30 306 H 26.8089 -1.14111 4.59647 0
M  V30 307 H 27.2329 0.336079 6.76165 0
M  V30 308 H 31.8749 -0.895163 4.13215 0
M  V30 309 H 29.5929 1.37244 7.9636 0
M  V30 310 H 33.1789 0.375946 5.80584 0
M  V30 311 H 32.0589 1.49383 7.6984 0
M  V30 312 N 29.562 -1.4872 -0.521534 0
M  V30 313 C 30.787 -1.61101 -1.30618 0
M  V30 314 C 31.212 -0.274611 -1.86085 0
M  V30 315 O 30.57 0.754937 -1.64834 0
M  V30 316 C 30.618 -2.66709 -2.4269 0
M  V30 317 O 29.722 -2.24456 -3.45967 0
M  V30 318 H 29.063 -0.539921 -0.386499 0
M  V30 319 H 31.593 -1.94767 -0.626645 0
M  V30 320 H 31.603 -2.88245 -2.88754 0
M  V30 321 H 30.278 -3.63727 -2.01682 0
M  V30 322 H 28.855 -2.13168 -3.05964 0
M  V30 323 N 31.0401 0.771051 -1.3745 0
M  V30 324 C 32.2881 1.52661 -1.32435 0
M  V30 325 C 32.6091 1.9479 0.0905024 0
M  V30 326 O 31.8791 1.66348 1.03466 0
M  V30 327 H 30.4591 0.566218 -0.487244 0
M  V30 328 H 33.1211 0.917636 -1.71946 0
M  V30 329 H 32.2171 2.42568 -1.96385 0
M  V30 330 N 32.5182 1.22032 0.997298 0
M  V30 331 C 33.7582 1.05375 1.75144 0
M  V30 332 C 34.1222 -0.404696 1.87686 0
M  V30 333 O 35.3232 -0.691998 2.5974 0
M  V30 334 C 33.5942 1.74046 3.12158 0
M  V30 335 S 35.1532 1.72745 4.03366 0
M  V30 336 H 31.9712 0.377449 0.602539 0
M  V30 337 H 34.5732 1.54902 1.19272 0
M  V30 338 H 33.2772 2.79332 3.00669 0
M  V30 339 H 32.8082 1.24731 3.73103 0
M  V30 340 H 34.8232 0.774015 4.90126 0
M  V30 341 N 33.9963 -1.19345 1.0293 0
M  V30 342 C 35.2433 -1.89038 0.726008 0
M  V30 343 C 35.5713 -1.79649 -0.745427 0
M  V30 344 O 34.8263 -1.18354 -1.55855 0
M  V30 345 C 35.1253 -3.39292 1.12319 0
M  V30 346 C 34.7913 -3.68885 2.59297 0
M  V30 347 C 33.4533 -3.76671 2.99453 0
M  V30 348 C 35.8053 -3.82178 3.54386 0
M  V30 349 C 33.1333 -3.9522 4.33611 0
M  V30 350 C 35.4853 -4.0224 4.88248 0
M  V30 351 C 34.1493 -4.08259 5.28092 0
M  V30 352 H 33.4193 -0.691739 0.265665 0
M  V30 353 H 36.0663 -1.41328 1.29223 0
M  V30 354 H 34.3713 -3.88903 0.475584 0
M  V30 355 H 36.0683 -3.91536 0.866037 0
M  V30 356 H 32.6583 -3.63433 2.27189 0
M  V30 357 H 36.8423 -3.75505 3.24514 0
M  V30 358 H 32.0983 -3.98119 4.64016 0
M  V30 359 H 36.2723 -4.11468 5.61843 0
M  V30 360 H 33.8993 -4.22384 6.32057 0
M  V30 361 N 35.4744 -0.807222 -1.35358 0
M  V30 362 C 36.7224 -0.387122 -1.98358 0
M  V30 363 C 37.0434 1.04942 -1.64354 0
M  V30 364 O 36.3134 1.72615 -0.926339 0
M  V30 365 H 34.8934 -0.140154 -0.733734 0
M  V30 366 H 37.5554 -1.0332 -1.6526 0
M  V30 367 H 36.6514 -0.493352 -3.08176 0
M  V30 368 N 36.9525 1.47285 -0.560781 0
M  V30 369 C 37.8995 2.30058 0.18491 0
M  V30 370 C 38.8695 1.39281 0.904986 0
M  V30 371 O 40.0545 1.68241 0.899979 0
M  V30 372 C 37.1945 3.23317 1.20666 0
M  V30 373 C 36.3075 4.29186 0.492285 0
M  V30 374 C 35.4425 5.09592 1.49964 0
M  V30 375 C 34.4815 6.07232 0.770439 0
M  V30 376 N 33.6185 6.80584 1.72479 0
M  V30 377 H 38.4585 2.93302 -0.527048 0
M  V30 378 H 35.9955 1.44568 -0.271738 0
M  V30 379 H 37.9535 3.75811 1.81168 0
M  V30 380 H 36.5835 2.61929 1.88661 0
M  V30 381 H 35.6355 3.7972 -0.227333 0
M  V30 382 H 36.9475 4.98738 -0.0787929 0
M  V30 383 H 36.1015 5.66254 2.17809 0
M  V30 384 H 34.8405 4.3995 2.10464 0
M  V30 385 H 33.8455 5.49745 0.0780846 0
M  V30 386 H 35.0705 6.78884 0.171134 0
M  V30 387 H 33.0165 6.1367 2.3183 0
M  V30 388 H 32.9335 7.46319 1.20596 0
M  V30 389 H 34.2015 7.41818 2.39428 0
M  V30 390 N 38.4306 0.297415 1.54768 0
M  V30 391 C 39.3636 -0.622188 2.19554 0
M  V30 392 C 40.3416 -1.13558 1.16376 0
M  V30 393 O 41.5256 -1.20444 1.45002 0
M  V30 394 C 38.6526 -1.8509 2.83653 0
M  V30 395 C 37.6986 -1.47106 4.00328 0
M  V30 396 S 38.5316 -0.53006 5.3287 0
M  V30 397 C 39.6876 -1.76665 6.0045 0
M  V30 398 H 39.9206 -0.0717806 2.97213 0
M  V30 399 H 37.4536 0.0815678 1.54184 0
M  V30 400 H 39.4116 -2.55605 3.21211 0
M  V30 401 H 38.0726 -2.37247 2.05846 0
M  V30 402 H 37.2656 -2.38594 4.43947 0
M  V30 403 H 36.8676 -0.845885 3.64309 0
M  V30 404 H 39.1596 -2.7077 6.21039 0
M  V30 405 H 40.1026 -1.37308 6.9466 0
M  V30 406 H 40.5106 -1.94174 5.30054 0
M  V30 407 N 39.9087 -1.5758 0.0250728 0
M  V30 408 C 40.8717 -2.08896 -0.943139 0
M  V30 409 C 41.8717 -1.00321 -1.25668 0
M  V30 410 O 43.0617 -1.26495 -1.19769 0
M  V30 411 C 40.1937 -2.55143 -2.26086 0
M  V30 412 H 41.3867 -2.95723 -0.498775 0
M  V30 413 H 38.9397 -1.54703 -0.222888 0
M  V30 414 H 39.6747 -1.71633 -2.75159 0
M  V30 415 H 39.4597 -3.34461 -2.04641 0
M  V30 416 H 40.9497 -2.95083 -2.95492 0
M  V30 417 N 41.3868 0.248026 -1.55636 0
M  V30 418 C 42.6348 0.974295 -1.77065 0
M  V30 419 C 42.9558 1.85897 -0.588849 0
M  V30 420 O 42.2258 1.91868 0.395407 0
M  V30 421 H 40.8058 0.362733 -0.653019 0
M  V30 422 H 43.4678 0.266244 -1.93073 0
M  V30 423 H 42.5638 1.59667 -2.68166 0
M  V30 424 N 42.8649 1.48995 0.513639 0
M  V30 425 C 44.0899 1.61792 1.29762 0
M  V30 426 C 44.5149 0.284475 1.85936 0
M  V30 427 O 43.8729 -0.746185 1.65232 0
M  V30 428 C 43.9209 2.67993 2.41272 0
M  V30 429 O 43.0249 2.26287 3.44772 0
M  V30 430 H 42.3659 0.541963 0.38363 0
M  V30 431 H 44.8959 1.95097 0.616307 0
M  V30 432 H 44.9059 2.89772 2.87221 0
M  V30 433 H 43.5809 3.64791 1.9975 0
M  V30 434 H 42.1579 2.14788 3.04829 0
M  V30 435 N 44.343 -0.763751 1.37857 0
M  V30 436 C 45.591 -1.51957 1.33243 0
M  V30 437 C 45.912 -1.94835 -0.0801709 0
M  V30 438 O 45.182 -1.66894 -1.02582 0
M  V30 439 H 43.762 -0.563626 0.49024 0
M  V30 440 H 46.424 -0.908504 1.7243 0
M  V30 441 H 45.52 -2.41523 1.97669 0
M  V30 442 N 45.8211 -1.22559 -0.990812 0
M  V30 443 C 47.0671 -1.05297 -1.73322 0
M  V30 444 C 47.4001 0.410655 -1.89808 0
M  V30 445 O 46.6751 1.30439 -1.44277 0
M  V30 446 C 46.9581 -1.76713 -3.13759 0
M  V30 447 C 46.8111 -3.30684 -3.04907 0
M  V30 448 C 48.1301 -1.52121 -4.12974 0
M  V30 449 H 45.2491 -0.38392 -0.629106 0
M  V30 450 H 47.8911 -1.50926 -1.15418 0
M  V30 451 H 46.0411 -1.37924 -3.63193 0
M  V30 452 H 47.7131 -3.7893 -2.63077 0
M  V30 453 H 45.9561 -3.60253 -2.41661 0
M  V30 454 H 46.6271 -3.75833 -4.04294 0
M  V30 455 H 49.1031 -1.85819 -3.72304 0
M  V30 456 H 47.9791 -2.04582 -5.0935 0
M  V30 457 H 48.2401 -0.454257 -4.3976 0
M  V30 458 N 47.2992 1.18797 -1.03562 0
M  V30 459 C 48.7152 1.40671 -0.753917 0
M  V30 460 C 48.9152 1.9043 0.658686 0
M  V30 461 O 47.9712 2.08538 1.42366 0
M  V30 462 C 49.2842 2.41192 -1.79574 0
M  V30 463 C 50.8322 2.54928 -1.81606 0
M  V30 464 C 51.3072 3.58709 -2.84766 0
M  V30 465 N 52.7982 3.66212 -2.83625 0
M  V30 466 C 53.5332 4.46225 -3.60098 0
M  V30 467 N 53.0292 5.29888 -4.46308 0
M  V30 468 N 54.8222 4.40939 -3.4861 0
M  V30 469 H 46.9732 0.848221 -1.94728 0
M  V30 470 H 49.2362 0.435081 -0.842264 0
M  V30 471 H 48.9422 2.11669 -2.80872 0
M  V30 472 H 48.8162 3.40467 -1.62365 0
M  V30 473 H 51.2032 2.83771 -0.809817 0
M  V30 474 H 51.2842 1.55784 -2.02891 0
M  V30 475 H 50.9282 3.30607 -3.85566 0
M  V30 476 H 50.8582 4.57519 -2.60737 0
M  V30 477 H 53.3492 3.06466 -2.21105 0
M  V30 478 H 53.6622 5.88078 -5.01382 0
M  V30 479 H 52.0072 5.29326 -4.50377 0
M  V30 480 H 55.1982 3.74624 -2.80668 0
M  V30 481 H 55.3712 5.03056 -4.08459 0
M  V30 482 N 48.7773 0.814389 1.34928 0
M  V30 483 C 49.7093 0.187834 2.28429 0
M  V30 484 C 50.7223 -0.617374 1.5064 0
M  V30 485 O 51.9113 -0.448454 1.72775 0
M  V30 486 C 49.0113 -0.755962 3.30361 0
M  V30 487 C 48.1843 0.00456686 4.374 0
M  V30 488 C 47.2433 -0.858876 5.19143 0
M  V30 489 O 46.2693 -0.306968 5.68372 0
M  V30 490 N 47.4713 -2.17988 5.38016 0
M  V30 491 H 50.2363 0.991105 2.82838 0
M  V30 492 H 47.7973 0.670561 1.4736 0
M  V30 493 H 49.7893 -1.338 3.81942 0
M  V30 494 H 48.3593 -1.46001 2.7641 0
M  V30 495 H 47.5793 0.767865 3.86649 0
M  V30 496 H 48.8673 0.528422 5.06049 0
M  V30 497 H 48.2653 -2.65212 4.99679 0
M  V30 498 H 46.8223 -2.71098 5.92747 0
M  V30 499 N 50.2554 -1.46986 0.568584 0
M  V30 500 C 51.2184 -2.28624 -0.162366 0
M  V30 501 C 52.2184 -1.37596 -0.832103 0
M  V30 502 O 53.4084 -1.60115 -0.68622 0
M  V30 503 C 50.5404 -3.17596 -1.23878 0
M  V30 504 H 51.7334 -2.94722 0.554899 0
M  V30 505 H 49.2864 -1.52863 0.325976 0
M  V30 506 H 50.0214 -2.56214 -1.98808 0
M  V30 507 H 49.8064 -3.846 -0.763219 0
M  V30 508 H 51.2964 -3.79078 -1.75185 0
M  V30 509 N 51.7335 -0.305618 -1.54608 0
M  V30 510 C 52.9615 0.304775 -2.04643 0
M  V30 511 C 53.3765 1.47167 -1.18268 0
M  V30 512 O 52.7335 1.81296 -0.209328 0
M  V30 513 C 52.7845 0.756564 -3.53495 0
M  V30 514 O 52.5055 -0.36389 -4.36586 0
M  V30 515 C 54.0065 1.43163 -4.19546 0
M  V30 516 H 51.2265 0.0655481 -0.667791 0
M  V30 517 H 53.7705 -0.446592 -1.99564 0
M  V30 518 H 51.9255 1.45794 -3.58919 0
M  V30 519 H 52.3395 -0.0113121 -5.24499 0
M  V30 520 H 53.8135 1.69886 -5.25207 0
M  V30 521 H 54.2905 2.37318 -3.69563 0
M  V30 522 H 54.8965 0.773307 -4.18211 0
M  V30 523 N 53.2116 1.57565 -0.0334293 0
M  V30 524 C 54.4366 1.96689 0.657895 0
M  V30 525 C 54.8616 0.910057 1.64619 0
M  V30 526 O 54.2196 -0.128598 1.80843 0
M  V30 527 C 54.2676 3.34905 1.33683 0
M  V30 528 O 53.3716 3.31574 2.45219 0
M  V30 529 H 52.7126 0.641205 0.172489 0
M  V30 530 H 55.2426 2.04372 -0.0965621 0
M  V30 531 H 55.2526 3.71234 1.69262 0
M  V30 532 H 53.9276 4.11366 0.612411 0
M  V30 533 H 52.5046 3.06968 2.11719 0
M  V30 534 N 54.6897 -0.239769 1.55765 0
M  V30 535 C 55.9177 -0.98417 1.81994 0
M  V30 536 C 56.3327 -1.7867 0.610124 0
M  V30 537 O 55.6897 -1.77571 -0.421271 0
M  V30 538 C 55.7407 -1.91635 3.06526 0
M  V30 539 O 55.4617 -1.14629 4.22838 0
M  V30 540 C 56.9627 -2.77616 3.45607 0
M  V30 541 H 54.1827 -0.28928 0.605441 0
M  V30 542 H 56.7267 -0.260499 2.02834 0
M  V30 543 H 54.8817 -2.5942 2.87715 0
M  V30 544 H 55.2957 -1.77745 4.93464 0
M  V30 545 H 56.7697 -3.38759 4.35828 0
M  V30 546 H 57.2467 -3.4909 2.6652 0
M  V30 547 H 57.8527 -2.15271 3.66795 0
M  V30 548 N 56.1678 -1.49265 -0.50573 0
M  V30 549 C 57.1308 -1.65075 -1.59006 0
M  V30 550 C 58.1308 -0.522768 -1.52065 0
M  V30 551 O 59.3208 -0.789117 -1.55302 0
M  V30 552 C 56.4528 -1.64369 -2.98656 0
M  V30 553 H 57.6458 -2.61784 -1.46319 0
M  V30 554 H 55.1988 -1.38226 -0.729616 0
M  V30 555 H 55.9338 -0.692272 -3.16825 0
M  V30 556 H 55.7188 -2.46282 -3.05103 0
M  V30 557 H 57.2088 -1.78674 -3.77446 0
M  V30 558 N 57.6459 0.756429 -1.3826 0
M  V30 559 C 58.8709 1.55077 -1.37717 0
M  V30 560 C 59.2959 1.88073 0.03164 0
M  V30 561 O 58.6539 1.50364 1.01293 0
M  V30 562 C 58.7019 2.8283 -2.23695 0
M  V30 563 O 57.8059 3.77862 -1.6521 0
M  V30 564 H 57.1469 0.469152 -0.469885 0
M  V30 565 H 59.6769 0.935019 -1.81985 0
M  V30 566 H 59.6869 3.31783 -2.37453 0
M  V30 567 H 58.3619 2.58144 -3.2609 0
M  V30 568 H 56.9389 3.36555 -1.60578 0
M  V30 569 N 59.124 1.23083 0.984299 0
M  V30 570 C 60.352 1.08714 1.76037 0
M  V30 571 C 60.767 -0.361691 1.85303 0
M  V30 572 O 60.124 -1.25034 1.32939 0
M  V30 573 C 60.175 1.70206 3.18923 0
M  V30 574 O 59.896 3.09423 3.10144 0
M  V30 575 C 61.397 1.61227 4.12941 0
M  V30 576 H 58.617 0.380664 0.552572 0
M  V30 577 H 61.161 1.62853 1.23689 0
M  V30 578 H 59.316 1.20109 3.6831 0
M  V30 579 H 59.73 3.39188 4.00065 0
M  V30 580 H 61.204 2.08962 5.10919 0
M  V30 581 H 61.681 0.570375 4.35481 0
M  V30 582 H 62.287 2.10671 3.69456 0
M  V30 583 N 60.6021 -1.18246 1.0419 0
M  V30 584 C 61.8491 -1.88257 0.746017 0
M  V30 585 C 62.1771 -1.80429 -0.726331 0
M  V30 586 O 61.4321 -1.2 -1.54591 0
M  V30 587 C 61.7311 -3.38082 1.15911 0
M  V30 588 C 61.3971 -3.66114 2.63195 0
M  V30 589 C 60.0591 -3.73474 3.03432 0
M  V30 590 C 62.4111 -3.78398 3.5842 0
M  V30 591 C 59.7391 -3.90599 4.37778 0
M  V30 592 C 62.0911 -3.97039 4.92487 0
M  V30 593 C 60.7551 -4.02635 5.32392 0
M  V30 594 H 60.0251 -0.688883 0.272987 0
M  V30 595 H 62.6721 -1.3995 1.30715 0
M  V30 596 H 60.9771 -3.88377 0.516806 0
M  V30 597 H 62.6741 -3.90596 0.907516 0
M  V30 598 H 59.2641 -3.61003 2.3103 0
M  V30 599 H 63.4481 -3.72042 3.28479 0
M  V30 600 H 58.7041 -3.93175 4.68213 0
M  V30 601 H 62.8781 -4.05486 5.66175 0
M  V30 602 H 60.5051 -4.15657 6.36501 0
M  V30 603 N 62.0802 -0.821533 -1.34494 0
M  V30 604 C 63.3262 -0.409552 -1.98622 0
M  V30 605 C 63.6592 1.0244 -1.64984 0
M  V30 606 O 62.9342 1.71325 -0.920758 0
M  V30 607 C 63.2172 -0.610458 -3.54888 0
M  V30 608 C 63.0702 -2.09043 -3.98273 0
M  V30 609 C 64.3892 -0.0455379 -4.40076 0
M  V30 610 H 61.5082 -0.15028 -0.721516 0
M  V30 611 H 64.1502 -1.03384 -1.59411 0
M  V30 612 H 62.3002 -0.079044 -3.8842 0
M  V30 613 H 63.9722 -2.68537 -3.75081 0
M  V30 614 H 62.2152 -2.58139 -3.48635 0
M  V30 615 H 62.8862 -2.18182 -5.07051 0
M  V30 616 H 65.3622 -0.499557 -4.1309 0
M  V30 617 H 64.2382 -0.215922 -5.48475 0
M  V30 618 H 64.4992 1.04939 -4.29465 0
M  V30 619 N 63.5583 1.46682 -0.576371 0
M  V30 620 C 64.5053 2.30241 0.160499 0
M  V30 621 C 65.4753 1.40233 0.890162 0
M  V30 622 O 66.6603 1.69186 0.882084 0
M  V30 623 C 63.8003 3.24578 1.1723 0
M  V30 624 C 62.9133 4.29684 0.446736 0
M  V30 625 C 62.0483 5.11154 1.44551 0
M  V30 626 C 61.0873 6.08015 0.70599 0
M  V30 627 N 60.2243 6.82376 1.65251 0
M  V30 628 H 65.0643 2.92727 -0.558127 0
M  V30 629 H 62.6013 1.44272 -0.287056 0
M  V30 630 H 64.5593 3.77711 1.77172 0
M  V30 631 H 63.1893 2.63916 1.85872 0
M  V30 632 H 62.2413 3.79458 -0.267594 0
M  V30 633 H 63.5533 4.98626 -0.131686 0
M  V30 634 H 62.7073 5.68533 2.11791 0
M  V30 635 H 61.4463 4.42158 2.05786 0
M  V30 636 H 60.4513 5.49796 0.0197725 0
M  V30 637 H 61.6763 6.79028 0.09912 0
M  V30 638 H 59.6223 6.16094 2.25308 0
M  V30 639 H 59.5393 7.47556 1.12673 0
M  V30 640 H 60.8073 7.44316 2.31546 0
M  V30 641 N 65.0364 0.313813 1.54444 0
M  V30 642 C 66.4474 -0.176243 1.85866 0
M  V30 643 C 66.7984 -1.52405 1.23561 0
M  V30 644 O 65.9234 -2.09605 0.538016 0
M  V30 645 C 66.5184 -0.32657 3.37222 0
M  V30 646 C 65.0774 -0.760846 3.6863 0
M  V30 647 C 64.2244 0.123247 2.77026 0
M  V30 648 H 67.1754 0.534418 1.49431 0
M  V30 649 H 67.1964 -1.15908 3.62416 0
M  V30 650 H 66.7084 0.654531 3.82541 0
M  V30 651 H 64.8094 -1.75204 3.28838 0
M  V30 652 H 64.9224 -0.571353 4.75681 0
M  V30 653 H 63.2864 -0.399597 2.51546 0
M  V30 654 H 64.0694 1.10094 3.25168 0
M  V30 655 N 66.5145 -1.57545 0.0417849 0
M  V30 656 C 67.7635 -1.91494 -0.633492 0
M  V30 657 C 68.0765 -0.921084 -1.72556 0
M  V30 658 O 69.2825 -1.15228 -2.45835 0
M  V30 659 C 67.7385 -3.40072 -1.17808 0
M  V30 660 C 67.3465 -4.47843 -0.118633 0
M  V30 661 C 69.0905 -3.8307 -1.82915 0
M  V30 662 C 66.9975 -5.87529 -0.675578 0
M  V30 663 H 65.9275 -0.714653 -0.24039 0
M  V30 664 H 68.5785 -1.83175 0.109148 0
M  V30 665 H 66.9605 -3.43364 -1.97274 0
M  V30 666 H 68.1345 -4.56128 0.654494 0
M  V30 667 H 66.4495 -4.14128 0.434414 0
M  V30 668 H 69.0465 -4.84794 -2.25563 0
M  V30 669 H 69.3895 -3.1881 -2.67705 0
M  V30 670 H 69.9225 -3.82255 -1.10119 0
M  V30 671 H 66.6615 -6.55362 0.134475 0
M  V30 672 H 66.1815 -5.82824 -1.4169 0
M  V30 673 H 67.8605 -6.36491 -1.1614 0
M  V30 674 N 67.9926 0.231505 -1.5589 0
M  V30 675 C 69.2396 0.957352 -1.78441 0
M  V30 676 C 69.5676 1.84726 -0.60882 0
M  V30 677 O 68.8226 1.91416 0.40725 0
M  V30 678 C 69.1216 1.83577 -3.0665 0
M  V30 679 C 68.7876 1.09993 -4.37278 0
M  V30 680 C 67.4496 0.896629 -4.72773 0
M  V30 681 C 69.8016 0.579558 -5.17968 0
M  V30 682 C 67.1296 0.160896 -5.86479 0
M  V30 683 C 69.4816 -0.142783 -6.32439 0
M  V30 684 C 68.1456 -0.357427 -6.66542 0
M  V30 685 H 67.4156 0.35032 -0.65296 0
M  V30 686 H 70.0626 0.226259 -1.90159 0
M  V30 687 H 68.3676 2.63441 -2.90011 0
M  V30 688 H 70.0646 2.39934 -3.21298 0
M  V30 689 H 66.6546 1.26835 -4.09403 0
M  V30 690 H 70.8386 0.724125 -4.90989 0
M  V30 691 H 66.0946 -0.0157293 -6.11398 0
M  V30 692 H 70.2686 -0.553559 -6.94196 0
M  V30 693 H 67.8956 -0.929466 -7.54497 0
M  V30 694 N 69.4707 1.49531 0.497807 0
M  V30 695 C 70.6957 1.63159 1.28039 0
M  V30 696 C 71.1207 0.30418 1.85624 0
M  V30 697 O 70.4787 -0.728618 1.66015 0
M  V30 698 C 70.5267 2.70537 2.38416 0
M  V30 699 O 69.6307 2.29931 3.42353 0
M  V30 700 H 68.9717 0.546001 0.377861 0
M  V30 701 H 71.5017 1.9574 0.59558 0
M  V30 702 H 71.5117 2.92802 2.84132 0
M  V30 703 H 70.1867 3.6689 1.95869 0
M  V30 704 H 68.7637 2.18009 3.02533 0
M  V30 705 N 70.9488 -0.749086 1.3866 0
M  V30 706 C 72.3648 -1.05276 1.19955 0
M  V30 707 C 72.5648 -2.01435 0.05134 0
M  V30 708 O 71.6208 -2.45232 -0.60147 0
M  V30 709 C 72.9338 -1.62853 2.52783 0
M  V30 710 C 74.4818 -1.75002 2.59506 0
M  V30 711 C 74.9568 -2.35991 3.92521 0
M  V30 712 N 76.4478 -2.43416 3.94085 0
M  V30 713 C 77.1828 -2.91511 4.9377 0
M  V30 714 N 76.6788 -3.39608 6.03853 0
M  V30 715 N 78.4718 -2.90592 4.81157 0
M  V30 716 H 70.6228 -0.111066 2.12109 0
M  V30 717 H 72.8858 -0.111901 0.941373 0
M  V30 718 H 72.5918 -0.99664 3.37283 0
M  V30 719 H 72.4658 -2.61854 2.715 0
M  V30 720 H 74.8528 -2.37317 1.75398 0
M  V30 721 H 74.9338 -0.74693 2.44652 0
M  V30 722 H 74.5778 -1.74308 4.77053 0
M  V30 723 H 74.5078 -3.3695 4.04688 0
M  V30 724 H 76.9988 -2.09405 3.14576 0
M  V30 725 H 77.3118 -3.74775 6.75843 0
M  V30 726 H 75.6568 -3.37653 6.07466 0
M  V30 727 H 78.8478 -2.52332 3.94267 0
M  V30 728 H 79.0208 -3.27762 5.58996 0
M  V30 729 N 72.4269 -1.23603 -0.977757 0
M  V30 730 C 73.7039 -0.977897 -1.69401 0
M  V30 731 C 74.0839 0.502738 -2.05026 0
M  V30 732 O 73.4319 1.47459 -1.74551 0
M  V30 733 C 73.6419 -1.89077 -2.93345 0
M  V30 734 C 74.9899 -2.15579 -3.65802 0
M  V30 735 O 76.0139 -1.86648 -3.03383 0
M  V30 736 O 74.8729 -2.64658 -4.78141 0
M  V30 737 H 71.9669 -0.369025 -0.740101 0
M  V30 738 H 74.5129 -1.34657 -1.03274 0
M  V30 739 H 73.2849 -2.89158 -2.63634 0
M  V30 740 H 72.9079 -1.52463 -3.67207 0
M  V30 741 N 73.905 1.17692 -1.04816 0
M  V30 742 C 74.838 2.20436 -0.590173 0
M  V30 743 C 75.816 1.58115 0.379244 0
M  V30 744 O 77 1.86228 0.291762 0
M  V30 745 C 74.127 3.38424 0.136817 0
M  V30 746 C 73.173 4.19176 -0.787023 0
M  V30 747 S 74.006 4.84815 -2.27409 0
M  V30 748 C 75.162 6.06195 -1.55817 0
M  V30 749 H 75.395 2.58944 -1.46067 0
M  V30 750 H 72.928 1.28246 -0.859784 0
M  V30 751 H 74.886 4.06798 0.550076 0
M  V30 752 H 73.547 2.98312 0.983299 0
M  V30 753 H 72.74 5.03499 -0.224681 0
M  V30 754 H 72.342 3.56219 -1.13947 0
M  V30 755 H 74.634 6.72078 -0.855387 0
M  V30 756 H 75.577 6.6695 -2.37873 0
M  V30 757 H 75.985 5.54701 -1.04722 0
M  V30 758 N 75.3831 0.828654 1.34056 0
M  V30 759 C 76.3311 0.242973 2.31327 0
M  V30 760 C 77.3251 -0.61944 1.57668 0
M  V30 761 O 78.5311 -0.51014 1.7262 0
M  V30 762 H 74.9061 0.059834 0.749616 0
M  V30 763 H 76.8771 1.07809 2.78244 0
M  V30 764 C 75.6261 -0.575733 3.429 0
M  V30 765 H 74.9491 0.0785582 3.99723 0
M  V30 766 H 76.3891 -0.951547 4.13185 0
M  V30 767 C 74.8481 -1.75044 2.87856 0
M  V30 768 O 75.3781 -2.84882 2.83205 0
M  V30 769 N 73.5841 -1.56903 2.44602 0
M  V30 770 H 73.1311 -0.675547 2.48584 0
M  V30 771 H 73.0891 -2.35652 2.08124 0
M  V30 772 N 76.8612 -1.46375 0.584142 0
M  V30 773 C 77.7712 -2.34115 -0.150728 0
M  V30 774 C 78.7872 -1.49838 -0.884567 0
M  V30 775 O 79.9632 -1.82704 -0.847429 0
M  V30 776 C 77.0282 -3.2705 -1.15062 0
M  V30 777 C 76.0892 -4.27228 -0.421293 0
M  V30 778 C 75.3222 -5.15722 -1.37355 0
M  V30 779 O 75.5452 -5.07176 -2.61014 0
M  V30 780 O 74.4792 -5.95383 -0.883355 0
M  V30 781 H 78.3052 -2.98309 0.569708 0
M  V30 782 H 75.8902 -1.45373 0.344535 0
M  V30 783 H 77.7722 -3.84381 -1.72712 0
M  V30 784 H 76.4472 -2.65451 -1.8525 0
M  V30 785 H 75.3542 -3.7358 0.197085 0
M  V30 786 H 76.6872 -4.91616 0.239641 0
M  V30 787 N 78.3393 -0.321999 -1.54275 0
M  V30 788 C 79.3023 0.531975 -2.22941 0
M  V30 789 C 80.3023 1.04478 -1.22234 0
M  V30 790 O 81.4923 0.937452 -1.46825 0
M  V30 791 C 78.6243 1.73874 -2.93224 0
M  V30 792 H 79.8173 -0.0682612 -2.99822 0
M  V30 793 H 77.3703 -0.0730644 -1.56129 0
M  V30 794 H 78.1053 2.37825 -2.20476 0
M  V30 795 H 77.8903 1.37847 -3.6707 0
M  V30 796 H 79.3803 2.34496 -3.45545 0
M  V30 797 N 79.8174 1.5752 -0.0501392 0
M  V30 798 C 80.7644 2.1147 0.924603 0
M  V30 799 C 81.7344 1.02182 1.30951 0
M  V30 800 O 82.9194 1.29723 1.39916 0
M  V30 801 C 80.0594 2.66337 2.19451 0
M  V30 802 C 79.1724 3.89708 1.86418 0
M  V30 803 C 78.3074 4.32893 3.07859 0
M  V30 804 C 77.3464 5.48967 2.70742 0
M  V30 805 N 76.4834 5.87211 3.84874 0
M  V30 806 H 81.3234 2.94465 0.457639 0
M  V30 807 H 78.8604 1.45531 0.214266 0
M  V30 808 H 80.8184 2.96247 2.93758 0
M  V30 809 H 79.4484 1.86141 2.63726 0
M  V30 810 H 78.5004 3.66396 1.02264 0
M  V30 811 H 79.8124 4.74074 1.55096 0
M  V30 812 H 78.9664 4.6435 3.90466 0
M  V30 813 H 77.7054 3.47336 3.42358 0
M  V30 814 H 76.7104 5.17183 1.86551 0
M  V30 815 H 77.9354 6.3624 2.37436 0
M  V30 816 H 75.8814 5.04607 4.19175 0
M  V30 817 H 75.7984 6.66266 3.57247 0
M  V30 818 H 77.0664 6.23282 4.68123 0
M  V30 819 N 81.2955 -0.223234 1.56011 0
M  V30 820 C 82.7115 -0.572856 1.48965 0
M  V30 821 C 82.9115 -1.87225 0.74492 0
M  V30 822 O 81.9675 -2.50899 0.283896 0
M  V30 823 C 83.2805 -0.653646 2.9351 0
M  V30 824 C 84.8285 -0.744386 3.0402 0
M  V30 825 C 85.3035 -0.856535 4.49919 0
M  V30 826 N 86.7945 -0.9208 4.53955 0
M  V30 827 C 87.5295 -1.02726 5.64123 0
M  V30 828 N 87.0255 -1.09777 6.84047 0
M  V30 829 N 88.8185 -1.06226 5.51971 0
M  V30 830 H 80.9695 0.629462 2.02858 0
M  V30 831 H 83.2325 0.220621 0.921971 0
M  V30 832 H 82.9385 0.231518 3.50937 0
M  V30 833 H 82.8125 -1.51781 3.45315 0
M  V30 834 H 85.1995 -1.61999 2.46658 0
M  V30 835 H 85.2805 0.14541 2.55386 0
M  V30 836 H 84.9245 0.0146069 5.07898 0
M  V30 837 H 84.8545 -1.76172 4.96257 0
M  V30 838 H 87.3455 -0.876694 3.6759 0
M  V30 839 H 87.6585 -1.17872 7.63758 0
M  V30 840 H 86.0035 -1.06693 6.86762 0
M  V30 841 H 89.1945 -1.00382 4.5721 0
M  V30 842 H 89.3675 -1.14177 6.37862 0
M  V30 843 N 82.7736 -1.49793 -0.48987 0
M  V30 844 C 84.1896 -1.36803 -0.822022 0
M  V30 845 C 84.3896 -0.409652 -1.97292 0
M  V30 846 O 83.4456 0.154614 -2.52026 0
M  V30 847 C 84.7586 -2.77768 -1.15175 0
M  V30 848 C 86.3066 -2.86549 -1.25931 0
M  V30 849 C 86.7816 -4.28306 -1.62228 0
M  V30 850 N 88.2726 -4.31169 -1.69256 0
M  V30 851 C 89.0076 -5.37832 -1.98807 0
M  V30 852 N 88.5036 -6.54726 -2.26507 0
M  V30 853 N 90.2966 -5.25258 -2.00152 0
M  V30 854 H 82.4476 -2.10691 0.268881 0
M  V30 855 H 84.7106 -0.946241 0.057728 0
M  V30 856 H 84.4166 -3.49648 -0.379335 0
M  V30 857 H 84.2906 -3.13836 -2.09253 0
M  V30 858 H 86.6776 -2.14899 -2.02243 0
M  V30 859 H 86.7586 -2.54049 -0.298776 0
M  V30 860 H 86.4026 -5.00486 -0.864622 0
M  V30 861 H 86.3326 -4.58279 -2.594 0
M  V30 862 H 88.8236 -3.4687 -1.49965 0
M  V30 863 H 89.1366 -7.31833 -2.48276 0
M  V30 864 H 87.4816 -6.57933 -2.23939 0
M  V30 865 H 90.6726 -4.32938 -1.77996 0
M  V30 866 H 90.8456 -6.08476 -2.22848 0
M  V30 867 N 84.2517 0.741722 -1.39055 0
M  V30 868 C 85.4977 1.50336 -1.36113 0
M  V30 869 C 85.8307 1.94148 0.0450796 0
M  V30 870 O 85.1057 1.66301 1.00868 0
M  V30 871 C 85.3887 2.74773 -2.32749 0
M  V30 872 C 85.2417 2.37023 -3.82283 0
M  V30 873 C 86.5607 3.76846 -2.27322 0
M  V30 874 H 83.6797 0.545351 -0.495743 0
M  V30 875 H 86.3217 0.848624 -1.69995 0
M  V30 876 H 84.4717 3.30639 -2.03986 0
M  V30 877 H 86.1437 1.8684 -4.21768 0
M  V30 878 H 84.3867 1.69334 -3.99385 0
M  V30 879 H 85.0577 3.26104 -4.45376 0
M  V30 880 H 87.5337 3.30548 -2.5274 0
M  V30 881 H 86.4097 4.6159 -2.97028 0
M  V30 882 H 86.6707 4.23286 -1.27599 0
M  V30 883 N 85.7298 1.2412 0.971189 0
M  V30 884 C 87.1458 1.00584 1.23916 0
M  V30 885 C 87.3458 -0.287481 1.99439 0
M  V30 886 O 86.4018 -1.00454 2.31658 0
M  V30 887 C 87.7148 2.21864 2.0297 0
M  V30 888 C 89.2628 2.26452 2.16076 0
M  V30 889 C 89.7378 3.47343 2.98524 0
M  V30 890 N 91.2288 3.47639 3.06107 0
M  V30 891 C 91.9638 4.37837 3.70251 0
M  V30 892 N 91.4598 5.38286 4.36142 0
M  V30 893 N 93.2528 4.25558 3.67228 0
M  V30 894 H 85.4038 2.07236 0.465499 0
M  V30 895 H 87.6668 0.909236 0.268315 0
M  V30 896 H 87.3728 3.15771 1.54861 0
M  V30 897 H 87.2468 2.23698 3.03709 0
M  V30 898 H 89.6338 1.33078 2.6339 0
M  V30 899 H 89.7148 2.28645 1.14696 0
M  V30 900 H 89.3588 4.41029 2.51905 0
M  V30 901 H 89.2888 3.42393 4.00093 0
M  V30 902 H 91.7798 2.74966 2.59233 0
M  V30 903 H 92.0928 6.03352 4.82894 0
M  V30 904 H 90.4378 5.42176 4.34822 0
M  V30 905 H 93.6288 3.46322 3.14927 0
M  V30 906 H 93.8018 4.96054 4.16935 0
M  V30 907 N 87.2079 -1.17134 1.05439 0
M  V30 908 C 88.1179 -2.24878 0.668365 0
M  V30 909 C 89.1339 -1.71186 -0.311687 0
M  V30 910 O 90.3099 -2.00738 -0.163161 0
M  V30 911 C 87.3749 -3.46662 0.051648 0
M  V30 912 C 86.4359 -4.15429 1.08246 0
M  V30 913 C 85.6689 -5.31399 0.495082 0
M  V30 914 O 85.8919 -5.66153 -0.694743 0
M  V30 915 O 84.8259 -5.89187 1.23056 0
M  V30 916 H 88.6519 -2.60189 1.56637 0
M  V30 917 H 86.2369 -1.24482 0.826104 0
M  V30 918 H 88.1189 -4.20394 -0.290966 0
M  V30 919 H 86.7939 -3.13142 -0.819971 0
M  V30 920 H 85.7009 -3.43704 1.47711 0
M  V30 921 H 87.0339 -4.52982 1.92532 0
M  V30 922 N 88.686 -0.835752 -1.33615 0
M  V30 923 C 89.616 -0.281739 -2.31794 0
M  V30 924 C 90.597 0.608833 -1.58831 0
M  V30 925 O 91.782 0.533035 -1.86741 0
M  V30 926 C 88.912 0.546612 -3.42971 0
M  V30 927 C 87.866 -0.247904 -4.27281 0
M  V30 928 C 87.192 0.704001 -5.30045 0
M  V30 929 C 88.492 -1.46324 -5.01385 0
M  V30 930 H 90.186 -1.10206 -2.78379 0
M  V30 931 H 87.732 -0.531388 -1.33837 0
M  V30 932 H 89.685 0.944467 -4.1068 0
M  V30 933 H 88.409 1.40011 -2.95067 0
M  V30 934 H 87.068 -0.627281 -3.61194 0
M  V30 935 H 86.716 1.55381 -4.78399 0
M  V30 936 H 86.416 0.176524 -5.87335 0
M  V30 937 H 87.94 1.09944 -6.0062 0
M  V30 938 H 89.354 -1.13871 -5.61877 0
M  V30 939 H 87.751 -1.92728 -5.6831 0
M  V30 940 H 88.821 -2.23467 -4.30338 0
M  V30 941 N 90.1641 1.46063 -0.591896 0
M  V30 942 C 91.3941 2.06418 -0.0867676 0
M  V30 943 C 91.8021 1.43975 1.22751 0
M  V30 944 O 91.1451 0.542531 1.75506 0
M  V30 945 C 91.2071 3.59213 0.143725 0
M  V30 946 C 90.8711 4.439 -1.08635 0
M  V30 947 C 91.8681 4.79864 -2.00067 0
M  V30 948 C 89.5531 4.84896 -1.31077 0
M  V30 949 C 91.5471 5.55661 -3.12282 0
M  V30 950 C 89.2341 5.6045 -2.43596 0
M  V30 951 C 90.2321 5.95747 -3.34027 0
M  V30 952 O 89.9201 6.69772 -4.4459 0
M  V30 953 H 89.6521 0.673443 -0.0587447 0
M  V30 954 H 92.2061 1.88539 -0.814994 0
M  V30 955 H 90.4361 3.75433 0.926668 0
M  V30 956 H 92.1251 4.01463 0.5985 0
M  V30 957 H 92.8911 4.48763 -1.83947 0
M  V30 958 H 88.7701 4.56867 -0.61594 0
M  V30 959 H 92.3141 5.8313 -3.82891 0
M  V30 960 H 88.2111 5.90965 -2.59674 0
M  V30 961 H 88.9791 6.88207 -4.43073 0
M  V30 962 N 91.6422 0.330177 1.54103 0
M  V30 963 C 93.0582 -0.0222371 1.59585 0
M  V30 964 C 93.2582 -1.49902 1.34654 0
M  V30 965 O 92.3142 -2.25592 1.13421 0
M  V30 966 C 93.6272 0.401932 2.98002 0
M  V30 967 C 95.1752 0.353145 3.11001 0
M  V30 968 C 95.6502 0.752576 4.51775 0
M  V30 969 N 97.1412 0.706239 4.57784 0
M  V30 970 C 97.8762 0.987417 5.64834 0
M  V30 971 N 97.3722 1.33607 6.79795 0
M  V30 972 N 99.1652 0.91254 5.54643 0
M  V30 973 H 91.3162 1.29228 1.68564 0
M  V30 974 H 93.5792 0.525906 0.78875 0
M  V30 975 H 93.2852 1.4311 3.21267 0
M  V30 976 H 93.1592 -0.229699 3.765 0
M  V30 977 H 95.5462 -0.666822 2.87467 0
M  V30 978 H 95.6272 1.0198 2.34593 0
M  V30 979 H 95.2712 1.77049 4.76042 0
M  V30 980 H 95.2012 0.0635409 5.26562 0
M  V30 981 H 97.6922 0.44889 3.75224 0
M  V30 982 H 98.0052 1.53582 7.57385 0
M  V30 983 H 96.3502 1.37439 6.81275 0
M  V30 984 H 99.5412 0.639601 4.6371 0
M  V30 985 H 99.7142 1.13503 6.37982 0
M  V30 986 N 93.1203 -1.57491 0.0584922 0
M  V30 987 C 94.0833 -2.1085 -0.898617 0
M  V30 988 C 95.0833 -1.02964 -1.23511 0
M  V30 989 O 96.2733 -1.29007 -1.17059 0
M  V30 990 C 93.4053 -2.59881 -2.20623 0
M  V30 991 H 94.5983 -2.96715 -0.435936 0
M  V30 992 H 92.1513 -1.55141 -0.190023 0
M  V30 993 H 92.8863 -1.77431 -2.71457 0
M  V30 994 H 92.6713 -3.38727 -1.97501 0
M  V30 995 H 94.1613 -3.01285 -2.89166 0
M  V30 996 N 94.5984 0.214957 -1.56127 0
M  V30 997 C 95.8444 0.935325 -1.80619 0
M  V30 998 C 96.1994 1.81706 -0.632507 0
M  V30 999 O 95.4924 1.87931 0.373182 0
M  V30 1000 C 95.6864 1.80314 -3.0858 0
M  V30 1001 C 95.5154 1.00691 -4.38282 0
M  V30 1002 C 94.2854 0.699211 -5.00439 0
M  V30 1003 C 96.4834 0.369057 -5.12974 0
M  V30 1004 N 94.4654 -0.117734 -6.13787 0
M  V30 1005 C 95.8364 -0.310981 -6.1922 0
M  V30 1006 C 97.8914 0.282759 -4.97096 0
M  V30 1007 C 96.5944 -1.06907 -7.11311 0
M  V30 1008 C 98.6204 -0.461881 -5.89594 0
M  V30 1009 C 97.9824 -1.13044 -6.9527 0
M  V30 1010 H 94.0814 0.322307 -0.71249 0
M  V30 1011 H 96.6654 0.205649 -1.93611 0
M  V30 1012 H 94.8364 2.50458 -2.96859 0
M  V30 1013 H 96.5684 2.46148 -3.21237 0
M  V30 1014 H 93.3234 1.01884 -4.62511 0
M  V30 1015 H 93.7474 -0.515235 -6.75037 0
M  V30 1016 H 98.3894 0.785292 -4.15443 0
M  V30 1017 H 96.1074 -1.5831 -7.92442 0
M  V30 1018 H 99.6934 -0.529746 -5.79383 0
M  V30 1019 H 98.5734 -1.69742 -7.65609 0
M  V30 1020 N 96.0765 1.50051 0.48192 0
M  V30 1021 C 97.3065 1.63999 1.2565 0
M  V30 1022 C 97.7145 0.318288 1.86504 0
M  V30 1023 O 97.0575 -0.708534 1.69486 0
M  V30 1024 C 97.1195 2.66504 2.4128 0
M  V30 1025 C 96.7835 4.10352 2.01148 0
M  V30 1026 C 97.7805 4.96562 1.54021 0
M  V30 1027 C 95.4655 4.56203 2.10199 0
M  V30 1028 C 97.4595 6.26668 1.16473 0
M  V30 1029 C 95.1465 5.86318 1.72264 0
M  V30 1030 C 96.1445 6.71375 1.25477 0
M  V30 1031 O 95.8325 7.99062 0.880626 0
M  V30 1032 H 95.5645 0.55456 0.386574 0
M  V30 1033 H 98.1185 1.96954 0.582944 0
M  V30 1034 H 96.3485 2.28769 3.11772 0
M  V30 1035 H 98.0375 2.69783 3.03268 0
M  V30 1036 H 98.8035 4.62358 1.46458 0
M  V30 1037 H 94.6825 3.90152 2.45566 0
M  V30 1038 H 98.2265 6.93011 0.798841 0
M  V30 1039 H 94.1235 6.20046 1.79482 0
M  V30 1040 H 94.8915 8.12239 1.01043 0
M  V30 1041 N 97.5546 -0.734337 1.39446 0
M  V30 1042 C 98.9706 -1.03997 1.21065 0
M  V30 1043 C 99.1706 -2.01369 0.0727019 0
M  V30 1044 O 98.2266 -2.45856 -0.575426 0
M  V30 1045 C 99.5396 -1.60163 2.54496 0
M  V30 1046 C 101.088 -1.7224 2.61347 0
M  V30 1047 C 101.563 -2.31814 3.95002 0
M  V30 1048 N 103.054 -2.39223 3.96644 0
M  V30 1049 C 103.789 -2.86258 4.96834 0
M  V30 1050 N 103.285 -3.33184 6.07421 0
M  V30 1051 N 105.078 -2.85473 4.84213 0
M  V30 1052 H 97.2286 -0.0885624 2.12215 0
M  V30 1053 H 99.4916 -0.10191 0.942506 0
M  V30 1054 H 99.1976 -0.960811 3.38321 0
M  V30 1055 H 99.0716 -2.5896 2.74262 0
M  V30 1056 H 101.459 -2.35443 1.77906 0
M  V30 1057 H 101.54 -0.720939 2.4543 0
M  V30 1058 H 101.184 -1.69238 4.78875 0
M  V30 1059 H 101.114 -3.32638 4.08239 0
M  V30 1060 H 103.605 -2.06057 3.16779 0
M  V30 1061 H 103.918 -3.67586 6.7978 0
M  V30 1062 H 102.263 -3.31191 6.11013 0
M  V30 1063 H 105.454 -2.48136 3.96921 0
M  V30 1064 H 105.627 -3.21814 5.62441 0
M  V30 1065 N 99.0327 -1.24633 -0.964593 0
M  V30 1066 C 99.9427 -1.05859 -2.09359 0
M  V30 1067 C 100.959 0.00148855 -1.74 0
M  V30 1068 O 102.135 -0.197346 -2.00431 0
M  V30 1069 C 99.1997 -0.668879 -3.40187 0
M  V30 1070 C 98.2607 -1.80578 -3.89474 0
M  V30 1071 C 97.4937 -1.43457 -5.14058 0
M  V30 1072 O 97.7167 -0.325775 -5.69469 0
M  V30 1073 O 96.6507 -2.2613 -5.57807 0
M  V30 1074 H 100.477 -2.00516 -2.28094 0
M  V30 1075 H 98.0617 -1.03481 -1.0776 0
M  V30 1076 H 99.9437 -0.463211 -4.18846 0
M  V30 1077 H 98.6187 0.248536 -3.22744 0
M  V30 1078 H 97.5257 -2.06623 -3.11862 0
M  V30 1079 H 98.8587 -2.70208 -4.11398 0
M  V30 1080 N 100.511 1.16574 -1.06058 0
M  V30 1081 C 101.757 1.87324 -0.777022 0
M  V30 1082 C 102.09 1.81351 0.694645 0
M  V30 1083 O 101.365 1.22753 1.50871 0
M  V30 1084 C 101.648 3.36991 -1.26922 0
M  V30 1085 C 101.501 3.51667 -2.80447 0
M  V30 1086 C 102.82 4.3131 -0.87521 0
M  V30 1087 H 99.9388 0.680191 -0.28374 0
M  V30 1088 H 102.581 1.37036 -1.3161 0
M  V30 1089 H 100.731 3.79949 -0.81063 0
M  V30 1090 H 102.403 3.17664 -3.34495 0
M  V30 1091 H 100.646 2.93656 -3.19294 0
M  V30 1092 H 101.317 4.56766 -3.0995 0
M  V30 1093 H 103.793 3.9624 -1.27014 0
M  V30 1094 H 102.669 5.34545 -1.2471 0
M  V30 1095 H 102.93 4.41552 0.220071 0
M  V30 1096 N 101.989 0.842826 1.3317 0
M  V30 1097 C 103.4 0.496651 1.79973 0
M  V30 1098 C 103.751 -0.984641 1.69703 0
M  V30 1099 O 102.876 -1.76743 1.24863 0
M  V30 1100 C 103.471 0.894727 3.26772 0
M  V30 1101 C 102.03 0.600629 3.71577 0
M  V30 1102 C 101.177 1.10091 2.5451 0
M  V30 1103 H 104.128 1.03116 1.20635 0
M  V30 1104 H 104.149 0.206347 3.7994 0
M  V30 1105 H 103.661 1.97287 3.34215 0
M  V30 1106 H 101.762 -0.467284 3.69658 0
M  V30 1107 H 101.875 1.15863 4.64879 0
M  V30 1108 H 100.239 0.52162 2.49301 0
M  V30 1109 H 101.022 2.18591 2.64713 0
M  V30 1110 N 103.467 -1.45747 0.599634 0
M  V30 1111 C 104.415 -2.322 -0.136426 0
M  V30 1112 C 105.409 -1.45497 -0.867583 0
M  V30 1113 O 106.615 -1.62027 -0.78405 0
M  V30 1114 H 102.99 -0.749368 -0.0628588 0
M  V30 1115 H 104.961 -2.92072 0.611281 0
M  V30 1116 C 103.71 -3.28974 -1.12567 0
M  V30 1117 H 103.033 -3.9568 -0.572484 0
M  V30 1118 H 104.473 -3.92212 -1.61077 0
M  V30 1119 C 102.932 -2.55561 -2.19523 0
M  V30 1120 O 103.462 -2.33111 -3.27143 0
M  V30 1121 N 101.668 -2.15832 -1.94589 0
M  V30 1122 H 101.215 -2.3429 -1.07078 0
M  V30 1123 H 101.173 -1.67034 -2.66359 0
M  V30 1124 N 104.945 -0.338344 -1.53925 0
M  V30 1125 C 106.173 0.261298 -2.05243 0
M  V30 1126 C 106.588 1.44625 -1.21363 0
M  V30 1127 O 105.945 1.80811 -0.247736 0
M  V30 1128 C 105.996 0.681412 -3.5502 0
M  V30 1129 O 105.717 -0.456414 -4.35716 0
M  V30 1130 C 107.218 1.34232 -4.22489 0
M  V30 1131 H 104.438 0.0513685 -0.669031 0
M  V30 1132 H 106.982 -0.488822 -1.98572 0
M  V30 1133 H 105.137 1.38148 -3.61931 0
M  V30 1134 H 105.551 -0.122564 -5.24357 0
M  V30 1135 H 107.025 1.58708 -5.28693 0
M  V30 1136 H 107.502 2.29426 -3.74514 0
M  V30 1137 H 108.108 0.684424 -4.19757 0
M  V30 1138 N 106.423 1.57458 -0.0668435 0
M  V30 1139 C 107.669 1.93587 0.6043 0
M  V30 1140 C 108.002 0.946722 1.69561 0
M  V30 1141 O 107.277 -0.0248516 1.94484 0
M  V30 1142 C 107.56 3.40014 1.18585 0
M  V30 1143 C 107.413 4.49685 0.101529 0
M  V30 1144 C 108.732 3.87154 2.09284 0
M  V30 1145 H 105.851 0.703958 0.218202 0
M  V30 1146 H 108.493 1.89542 -0.131804 0
M  V30 1147 H 106.643 3.43592 1.81319 0
M  V30 1148 H 108.315 4.5823 -0.531279 0
M  V30 1149 H 106.558 4.30059 -0.568487 0
M  V30 1150 H 107.229 5.49266 0.54874 0
M  V30 1151 H 109.705 3.85551 1.56491 0
M  V30 1152 H 108.581 4.90231 2.46911 0
M  V30 1153 H 108.842 3.2481 2.99918 0
M  V30 1154 N 107.901 -0.206675 1.56239 0
M  V30 1155 C 108.851 -1.26 1.90021 0
M  V30 1156 C 109.835 -1.41566 0.764721 0
M  V30 1157 O 111.027 -1.44131 1.02739 0
M  V30 1158 C 108.156 -2.6073 2.23326 0
M  V30 1159 C 107.242 -2.49005 3.43304 0
M  V30 1160 N 107.633 -2.06946 4.61527 0
M  V30 1161 C 105.931 -2.79927 3.47213 0
M  V30 1162 C 106.632 -2.06832 5.43687 0
M  V30 1163 N 105.608 -2.47892 4.83788 0
M  V30 1164 H 109.41 -0.925955 2.78932 0
M  V30 1165 H 106.924 -0.415172 1.57003 0
M  V30 1166 H 108.921 -3.36798 2.45708 0
M  V30 1167 H 107.581 -2.94968 1.35735 0
M  V30 1168 H 108.592 -1.77839 4.86409 0
M  V30 1169 H 105.269 -3.18438 2.70006 0
M  V30 1170 H 106.659 -1.76312 6.48354 0
M  V30 1171 N 109.379 -1.50304 -0.473955 0
M  V30 1172 C 110.311 -1.65109 -1.58971 0
M  V30 1173 C 111.324 -0.532676 -1.53839 0
M  V30 1174 O 112.513 -0.805751 -1.59279 0
M  V30 1175 C 109.613 -1.61684 -2.97845 0
M  V30 1176 C 108.786 -2.8951 -3.27876 0
M  V30 1177 C 107.845 -2.78768 -4.4629 0
M  V30 1178 O 106.871 -3.52722 -4.46739 0
M  V30 1179 N 108.073 -1.9213 -5.47783 0
M  V30 1180 H 110.838 -2.61347 -1.46689 0
M  V30 1181 H 108.399 -1.47732 -0.662324 0
M  V30 1182 H 110.391 -1.52114 -3.75024 0
M  V30 1183 H 108.961 -0.731925 -3.03911 0
M  V30 1184 H 108.181 -3.13228 -2.39336 0
M  V30 1185 H 109.469 -3.74199 -3.4475 0
M  V30 1186 H 108.867 -1.31353 -5.50239 0
M  V30 1187 H 107.424 -1.88466 -6.23958 0
M  V30 1188 N 110.857 0.726932 -1.39834 0
M  V30 1189 C 112.104 1.48664 -1.37496 0
M  V30 1190 C 112.432 1.94482 0.0264678 0
M  V30 1191 O 111.687 1.67692 1.00886 0
M  V30 1192 C 111.986 2.73495 -2.30077 0
M  V30 1193 C 111.652 2.46502 -3.77555 0
M  V30 1194 C 110.314 2.3885 -4.17737 0
M  V30 1195 C 112.666 2.23604 -4.70798 0
M  V30 1196 C 109.994 2.06352 -5.49214 0
M  V30 1197 C 112.346 1.92622 -6.02561 0
M  V30 1198 C 111.01 1.83444 -6.41798 0
M  V30 1199 H 110.28 0.544001 -0.503135 0
M  V30 1200 H 112.927 0.833657 -1.72402 0
M  V30 1201 H 111.232 3.43575 -1.88317 0
M  V30 1202 H 112.929 3.31549 -2.25558 0
M  V30 1203 H 109.519 2.5334 -3.45712 0
M  V30 1204 H 113.703 2.28479 -4.40581 0
M  V30 1205 H 108.959 1.97776 -5.78528 0
M  V30 1206 H 113.133 1.73914 -6.74334 0
M  V30 1207 H 110.76 1.58029 -7.43593 0
M  V30 1208 N 112.336 1.25143 0.95797 0
M  V30 1209 C 113.268 1.01023 2.05735 0
M  V30 1210 C 114.281 -0.0236902 1.62783 0
M  V30 1211 O 115.47 0.21448 1.77207 0
M  V30 1212 C 112.57 0.504595 3.35122 0
M  V30 1213 C 111.743 1.6039 4.06932 0
M  V30 1214 C 110.802 1.09922 5.14591 0
M  V30 1215 O 109.828 1.79293 5.40225 0
M  V30 1216 N 111.03 -0.0612545 5.80468 0
M  V30 1217 H 113.795 1.95683 2.26998 0
M  V30 1218 H 111.356 1.16303 1.12629 0
M  V30 1219 H 113.348 0.151516 4.04416 0
M  V30 1220 H 111.918 -0.347989 3.10657 0
M  V30 1221 H 111.138 2.12872 3.31782 0
M  V30 1222 H 112.426 2.34252 4.51667 0
M  V30 1223 H 111.824 -0.640985 5.62057 0
M  V30 1224 H 110.381 -0.355395 6.5083 0
M  V30 1225 N 113.814 -1.1601 1.06675 0
M  V30 1226 C 114.744 -2.22688 0.702307 0
M  V30 1227 C 115.725 -1.67306 -0.307032 0
M  V30 1228 O 116.91 -1.93352 -0.181305 0
M  V30 1229 C 114.04 -3.47178 0.092038 0
M  V30 1230 C 112.994 -4.15477 1.02777 0
M  V30 1231 C 112.32 -5.33963 0.28061 0
M  V30 1232 C 113.62 -4.66019 2.35846 0
M  V30 1233 H 115.314 -2.53429 1.59419 0
M  V30 1234 H 112.86 -1.21813 0.767961 0
M  V30 1235 H 114.813 -4.21037 -0.174814 0
M  V30 1236 H 113.537 -3.15749 -0.834877 0
M  V30 1237 H 112.196 -3.43549 1.27944 0
M  V30 1238 H 111.844 -4.98788 -0.649545 0
M  V30 1239 H 111.544 -5.806 0.904258 0
M  V30 1240 H 113.068 -6.10596 0.021396 0
M  V30 1241 H 114.482 -5.3144 2.15045 0
M  V30 1242 H 112.879 -5.23293 2.93743 0
M  V30 1243 H 113.949 -3.82023 2.98641 0
M  V30 1244 N 115.292 -0.849877 -1.32721 0
M  V30 1245 C 116.569 -0.372405 -1.92022 0
M  V30 1246 C 116.949 1.1435 -1.77447 0
M  V30 1247 O 116.297 1.96296 -1.16962 0
M  V30 1248 C 116.507 -0.831482 -3.3895 0
M  V30 1249 C 117.855 -0.845882 -4.16089 0
M  V30 1250 O 118.879 -0.775806 -3.47649 0
M  V30 1251 O 117.738 -0.943753 -5.38289 0
M  V30 1252 H 114.832 -0.107667 -0.819961 0
M  V30 1253 H 117.378 -0.93646 -1.41522 0
M  V30 1254 H 116.15 -1.87448 -3.4348 0
M  V30 1255 H 115.773 -0.24461 -3.96847 0
M  V30 1256 N 116.77 1.45427 -0.607355 0
M  V30 1257 C 118.019 2.01452 -0.100036 0
M  V30 1258 C 118.332 1.48159 1.27704 0
M  V30 1259 O 119.538 1.96159 1.87707 0
M  V30 1260 C 117.994 3.59672 -0.128158 0
M  V30 1261 C 117.602 4.21962 -1.50507 0
M  V30 1262 C 119.346 4.23262 0.323932 0
M  V30 1263 C 117.253 5.72333 -1.48959 0
M  V30 1264 H 116.183 0.75325 -0.0336299 0
M  V30 1265 H 118.834 1.66901 -0.76265 0
M  V30 1266 H 117.216 3.91411 0.601105 0
M  V30 1267 H 118.39 4.01796 -2.25602 0
M  V30 1268 H 116.705 3.70565 -1.89923 0
M  V30 1269 H 119.302 5.33522 0.354691 0
M  V30 1270 H 119.645 3.93921 1.34656 0
M  V30 1271 H 120.178 3.96239 -0.352056 0
M  V30 1272 H 116.917 6.06373 -2.48981 0
M  V30 1273 H 116.437 5.94691 -0.781214 0
M  V30 1274 H 118.116 6.35525 -1.21313 0
M  V30 1275 N 118.248 0.346503 1.53744 0
M  V30 1276 C 119.476 -0.25041 2.05379 0
M  V30 1277 C 119.891 -1.43979 1.22129 0
M  V30 1278 O 119.248 -1.80677 0.257321 0
M  V30 1279 C 119.299 -0.662575 3.55376 0
M  V30 1280 O 119.02 0.479515 4.35468 0
M  V30 1281 C 120.521 -1.31989 4.23195 0
M  V30 1282 H 117.741 -0.0478198 0.669294 0
M  V30 1283 H 120.285 0.499346 1.9831 0
M  V30 1284 H 118.44 -1.36227 3.62658 0
M  V30 1285 H 118.854 0.15037 5.24284 0
M  V30 1286 H 120.328 -1.55902 5.29527 0
M  V30 1287 H 120.805 -2.27436 3.75725 0
M  V30 1288 H 121.411 -0.662154 4.20114 0
M  V30 1289 N 119.726 -1.57421 0.075193 0
M  V30 1290 C 120.972 -1.93905 -0.594025 0
M  V30 1291 C 121.305 -0.955701 -1.69056 0
M  V30 1292 O 120.58 0.0145373 -1.94495 0
M  V30 1293 C 120.863 -3.40638 -1.1678 0
M  V30 1294 C 120.716 -4.49733 -0.0776792 0
M  V30 1295 C 122.035 -3.88259 -2.07228 0
M  V30 1296 H 119.154 -0.705105 -0.214466 0
M  V30 1297 H 121.796 -1.8947 0.141854 0
M  V30 1298 H 119.946 -3.44549 -1.79494 0
M  V30 1299 H 121.618 -4.57942 0.555573 0
M  V30 1300 H 119.861 -4.29751 0.591286 0
M  V30 1301 H 120.532 -5.49549 -0.519603 0
M  V30 1302 H 123.008 -3.86376 -1.54445 0
M  V30 1303 H 121.884 -4.91533 -2.44308 0
M  V30 1304 H 122.145 -3.26396 -2.98191 0
M  V30 1305 N 121.204 0.198386 -1.56346 0
M  V30 1306 C 122.151 1.24589 -1.94284 0
M  V30 1307 C 123.121 1.454 -0.802997 0
M  V30 1308 O 124.306 1.58588 -1.06087 0
M  V30 1309 C 121.446 2.58631 -2.28482 0
M  V30 1310 C 120.559 2.45426 -3.55514 0
M  V30 1311 C 119.694 3.7215 -3.79049 0
M  V30 1312 C 118.733 3.53763 -4.99518 0
M  V30 1313 N 117.87 4.72491 -5.19323 0
M  V30 1314 H 122.71 0.915356 -2.83593 0
M  V30 1315 H 120.247 0.440629 -1.40346 0
M  V30 1316 H 122.205 3.3672 -2.46324 0
M  V30 1317 H 120.835 2.89734 -1.42317 0
M  V30 1318 H 119.887 1.58652 -3.45737 0
M  V30 1319 H 121.199 2.27772 -4.43758 0
M  V30 1320 H 120.353 4.58679 -3.97113 0
M  V30 1321 H 119.092 3.92754 -2.89129 0
M  V30 1322 H 118.097 2.65619 -4.8138 0
M  V30 1323 H 119.322 3.34607 -5.90944 0
M  V30 1324 H 117.268 4.93365 -4.3235 0
M  V30 1325 H 117.185 4.5765 -6.01741 0
M  V30 1326 H 118.453 5.6038 -5.41843 0
M  V30 1327 N 122.682 1.50554 0.465978 0
M  V30 1328 C 123.615 1.64436 1.58227 0
M  V30 1329 C 124.593 0.492367 1.54966 0
M  V30 1330 O 125.777 0.712536 1.74514 0
M  V30 1331 C 122.904 1.63165 2.96808 0
M  V30 1332 C 121.95 2.83987 3.18204 0
M  V30 1333 S 122.783 4.45219 2.97557 0
M  V30 1334 C 123.939 4.46649 4.3847 0
M  V30 1335 H 124.172 2.58861 1.46213 0
M  V30 1336 H 121.705 1.3988 0.653678 0
M  V30 1337 H 123.663 1.63116 3.76701 0
M  V30 1338 H 122.324 0.69967 3.06208 0
M  V30 1339 H 121.517 2.79416 4.19455 0
M  V30 1340 H 121.119 2.81629 2.46092 0
M  V30 1341 H 123.411 4.20526 5.31191 0
M  V30 1342 H 124.354 5.48295 4.48082 0
M  V30 1343 H 124.762 3.76296 4.20787 0
M  V30 1344 N 124.16 -0.719506 1.40217 0
M  V30 1345 C 125.408 -1.47641 1.3801 0
M  V30 1346 C 125.729 -1.94992 -0.018145 0
M  V30 1347 O 124.999 -1.70073 -0.972207 0
M  V30 1348 H 123.579 -0.547744 0.507923 0
M  V30 1349 H 126.241 -0.853187 1.75233 0
M  V30 1350 H 125.337 -2.35112 2.05253 0
M  V30 1351 N 125.638 -1.25649 -0.95132 0
M  V30 1352 C 127.054 -1.02542 -1.223 0
M  V30 1353 C 127.254 0.255715 -1.99871 0
M  V30 1354 O 126.31 0.967558 -2.33226 0
M  V30 1355 C 127.623 -2.25065 -1.99415 0
M  V30 1356 C 129.171 -2.29861 -2.12446 0
M  V30 1357 C 129.646 -3.52048 -2.92961 0
M  V30 1358 N 131.137 -3.52465 -3.00538 0
M  V30 1359 C 131.872 -4.43672 -3.63239 0
M  V30 1360 N 131.368 -5.45157 -4.27523 0
M  V30 1361 N 133.161 -4.31346 -3.60412 0
M  V30 1362 H 125.312 -2.07951 -0.432471 0
M  V30 1363 H 127.575 -0.91339 -0.253816 0
M  V30 1364 H 127.281 -3.18194 -1.49817 0
M  V30 1365 H 127.155 -2.28502 -3.00111 0
M  V30 1366 H 129.542 -1.37252 -2.61239 0
M  V30 1367 H 129.623 -2.3044 -1.11044 0
M  V30 1368 H 129.267 -4.44981 -2.44856 0
M  V30 1369 H 129.197 -3.48715 -3.94596 0
M  V30 1370 H 131.688 -2.79056 -2.54826 0
M  V30 1371 H 132.001 -6.10958 -4.73234 0
M  V30 1372 H 130.346 -5.49025 -4.26141 0
M  V30 1373 H 133.537 -3.51288 -3.09377 0
M  V30 1374 H 133.71 -5.02624 -4.0899 0
M  V30 1375 N 127.117 1.15442 -1.07289 0
M  V30 1376 C 128.394 1.82306 -0.708792 0
M  V30 1377 C 128.774 1.94991 0.808807 0
M  V30 1378 O 128.122 1.50085 1.72298 0
M  V30 1379 C 128.332 3.18695 -1.42247 0
M  V30 1380 C 129.68 3.94341 -1.57417 0
M  V30 1381 O 130.704 3.28247 -1.38319 0
M  V30 1382 O 129.563 5.12839 -1.88834 0
M  V30 1383 H 126.657 0.787628 -0.252132 0
M  V30 1384 H 129.203 1.22559 -1.17377 0
M  V30 1385 H 127.975 3.04557 -2.45684 0
M  V30 1386 H 127.598 3.86128 -0.948223 0
M  V30 1387 N 128.595 0.856903 1.32268 0
M  V30 1388 C 129.542 0.301172 2.28827 0
M  V30 1389 C 130.512 -0.593104 1.5515 0
M  V30 1390 O 131.697 -0.527537 1.83362 0
M  V30 1391 C 128.837 -0.502523 3.41422 0
M  V30 1392 C 127.95 0.417797 4.29975 0
M  V30 1393 C 127.085 -0.398749 5.29701 0
M  V30 1394 C 126.124 0.518827 6.09897 0
M  V30 1395 N 125.261 -0.260674 7.01616 0
M  V30 1396 H 130.101 1.12983 2.75751 0
M  V30 1397 H 127.638 0.568582 1.35667 0
M  V30 1398 H 129.596 -0.984141 4.05426 0
M  V30 1399 H 128.226 -1.29599 2.95642 0
M  V30 1400 H 127.278 1.01781 3.66531 0
M  V30 1401 H 128.59 1.12191 4.86019 0
M  V30 1402 H 127.744 -0.943435 5.9932 0
M  V30 1403 H 126.483 -1.13622 4.7428 0
M  V30 1404 H 125.488 1.07538 5.39181 0
M  V30 1405 H 126.713 1.25495 6.67404 0
M  V30 1406 H 124.659 -0.981198 6.4862 0
M  V30 1407 H 124.576 0.384364 7.55022 0
M  V30 1408 H 125.844 -0.787014 7.75517 0
M  V30 1409 N 130.073 -1.45103 0.615059 0
M  V30 1410 C 131.319 -2.02483 0.113347 0
M  V30 1411 C 131.652 -1.48146 -1.25564 0
M  V30 1412 O 130.927 -0.659104 -1.82992 0
M  V30 1413 C 131.21 -3.60005 0.0825278 0
M  V30 1414 C 131.063 -4.2466 1.48271 0
M  V30 1415 C 132.382 -4.35972 -0.601401 0
M  V30 1416 H 129.501 -0.735764 0.0426632 0
M  V30 1417 H 132.143 -1.72868 0.788461 0
M  V30 1418 H 130.293 -3.85367 -0.492378 0
M  V30 1419 H 131.965 -4.10458 2.10527 0
M  V30 1420 H 130.208 -3.82772 2.04127 0
M  V30 1421 H 130.879 -5.336 1.41332 0
M  V30 1422 H 133.355 -4.15947 -0.112666 0
M  V30 1423 H 132.231 -5.45697 -0.592097 0
M  V30 1424 H 132.492 -4.09391 -1.66887 0
M  V30 1425 N 131.551 -0.354651 -1.53558 0
M  V30 1426 C 132.967 -0.00315426 -1.596 0
M  V30 1427 C 133.167 1.47741 -1.37021 0
M  V30 1428 O 132.223 2.23759 -1.16996 0
M  V30 1429 C 133.536 -0.44929 -2.97325 0
M  V30 1430 C 135.084 -0.402578 -3.104 0
M  V30 1431 C 135.559 -0.824355 -4.5052 0
M  V30 1432 N 137.05 -0.778979 -4.56603 0
M  V30 1433 C 137.785 -1.07715 -5.63192 0
M  V30 1434 N 137.281 -1.44405 -6.77583 0
M  V30 1435 N 139.074 -1.00066 -5.53121 0
M  V30 1436 H 131.225 -1.31893 -1.66487 0
M  V30 1437 H 133.488 -0.538388 -0.780284 0
M  V30 1438 H 133.194 -1.48202 -3.1895 0
M  V30 1439 H 133.068 0.169772 -3.76818 0
M  V30 1440 H 135.455 0.621004 -2.88492 0
M  V30 1441 H 135.536 -1.05699 -2.32941 0
M  V30 1442 H 135.18 -1.846 -4.73165 0
M  V30 1443 H 135.11 -0.147304 -5.26394 0
M  V30 1444 H 137.601 -0.508528 -3.74463 0
M  V30 1445 H 137.914 -1.65612 -7.54846 0
M  V30 1446 H 136.259 -1.4826 -6.79002 0
M  V30 1447 H 139.45 -0.713293 -4.62633 0
M  V30 1448 H 139.623 -1.23638 -6.36096 0
M  V30 1449 N 133.029 1.57378 -0.0835403 0
M  V30 1450 C 133.939 2.16897 0.894021 0
M  V30 1451 C 134.955 1.13528 1.31861 0
M  V30 1452 O 136.131 1.45848 1.3889 0
M  V30 1453 C 133.196 2.72831 2.13925 0
M  V30 1454 C 132.257 3.91115 1.76997 0
M  V30 1455 C 131.49 4.44371 2.95584 0
M  V30 1456 O 131.713 3.96596 4.09961 0
M  V30 1457 O 130.647 5.35549 2.74719 0
M  V30 1458 H 134.473 3.00814 0.417679 0
M  V30 1459 H 132.058 1.48741 0.140181 0
M  V30 1460 H 133.94 3.0863 2.86924 0
M  V30 1461 H 132.615 1.91967 2.60635 0
M  V30 1462 H 131.522 3.60148 1.01214 0
M  V30 1463 H 132.855 4.73307 1.3506 0
M  V30 1464 N 134.507 -0.190092 1.56449 0
M  V30 1465 C 135.44 -1.26375 1.90012 0
M  V30 1466 C 136.418 -1.43705 0.760765 0
M  V30 1467 O 137.602 -1.59014 1.01226 0
M  V30 1468 C 134.729 -2.62962 2.13468 0
M  V30 1469 C 133.775 -2.62474 3.36169 0
M  V30 1470 S 134.608 -2.13412 4.91137 0
M  V30 1471 C 135.764 -3.51812 5.17667 0
M  V30 1472 H 135.997 -0.977181 2.80782 0
M  V30 1473 H 133.53 -0.393814 1.49293 0
M  V30 1474 H 135.488 -3.41583 2.27664 0
M  V30 1475 H 134.149 -2.88828 1.23439 0
M  V30 1476 H 133.342 -3.62918 3.49723 0
M  V30 1477 H 132.944 -1.91937 3.20992 0
M  V30 1478 H 135.236 -4.47706 5.08494 0
M  V30 1479 H 136.179 -3.43148 6.19399 0
M  V30 1480 H 136.587 -3.46956 4.45288 0
M  V30 1481 N 135.985 -1.50799 -0.457987 0
M  V30 1482 C 137.232 -1.62442 -1.20908 0
M  V30 1483 C 137.56 -0.330865 -1.91665 0
M  V30 1484 O 136.815 0.68401 -1.83357 0
M  V30 1485 C 137.114 -2.76358 -2.2663 0
M  V30 1486 C 136.78 -4.16378 -1.73033 0
M  V30 1487 C 135.442 -4.54473 -1.58138 0
M  V30 1488 C 137.794 -5.03836 -1.33413 0
M  V30 1489 C 135.122 -5.77754 -1.02065 0
M  V30 1490 C 137.474 -6.27676 -0.78778 0
M  V30 1491 C 136.138 -6.64562 -0.625561 0
M  V30 1492 H 135.408 -0.594417 -0.442435 0
M  V30 1493 H 138.055 -1.84772 -0.503136 0
M  V30 1494 H 136.36 -2.48167 -3.03184 0
M  V30 1495 H 138.057 -2.82568 -2.84528 0
M  V30 1496 H 134.647 -3.86331 -1.85598 0
M  V30 1497 H 138.831 -4.75026 -1.4375 0
M  V30 1498 H 134.087 -6.04997 -0.882547 0
M  V30 1499 H 138.261 -6.94797 -0.472177 0
M  V30 1500 H 135.888 -7.59965 -0.188926 0
M  V30 1501 N 137.463 0.71206 -1.40597 0
M  V30 1502 C 138.396 1.83582 -1.35546 0
M  V30 1503 C 139.374 1.61032 -0.225284 0
M  V30 1504 O 140.558 1.83998 -0.409519 0
M  V30 1505 C 137.685 3.19983 -1.11034 0
M  V30 1506 C 136.731 3.61355 -2.2655 0
M  V30 1507 S 137.564 3.68062 -3.88961 0
M  V30 1508 C 138.72 5.07216 -3.66719 0
M  V30 1509 H 138.953 1.87586 -2.30648 0
M  V30 1510 H 136.486 0.879182 -1.26924 0
M  V30 1511 H 138.444 3.98734 -0.975761 0
M  V30 1512 H 137.105 3.13608 -0.175798 0
M  V30 1513 H 136.298 4.60403 -2.0505 0
M  V30 1514 H 135.9 2.8987 -2.36329 0
M  V30 1515 H 138.192 5.94238 -3.25404 0
M  V30 1516 H 139.135 5.33753 -4.6531 0
M  V30 1517 H 139.543 4.77976 -3.00332 0
M  V30 1518 N 138.941 1.26152 0.944643 0
M  V30 1519 C 139.888 1.07408 2.04285 0
M  V30 1520 C 140.858 -0.0198413 1.66088 0
M  V30 1521 O 142.043 0.139264 1.90291 0
M  V30 1522 C 139.183 0.70945 3.37729 0
M  V30 1523 C 138.296 1.87926 3.88983 0
M  V30 1524 C 137.431 1.45807 5.10797 0
M  V30 1525 C 136.47 2.5964 5.54305 0
M  V30 1526 N 135.607 2.18226 6.67324 0
M  V30 1527 H 140.447 2.01389 2.1965 0
M  V30 1528 H 137.984 1.00275 1.07626 0
M  V30 1529 H 139.942 0.478948 4.14442 0
M  V30 1530 H 138.572 -0.193389 3.2222 0
M  V30 1531 H 137.624 2.22279 3.08701 0
M  V30 1532 H 138.936 2.73377 4.17213 0
M  V30 1533 H 138.09 1.18781 5.94959 0
M  V30 1534 H 136.829 0.574414 4.84305 0
M  V30 1535 H 135.834 2.87399 4.68702 0
M  V30 1536 H 137.059 3.48599 5.828 0
M  V30 1537 H 135.005 1.3229 6.42523 0
M  V30 1538 H 134.922 2.97221 6.95123 0
M  V30 1539 H 136.19 1.94403 7.54869 0
M  V30 1540 N 140.419 -1.14872 1.07899 0
M  V30 1541 C 141.367 -2.21857 0.698727 0
M  V30 1542 C 142.361 -1.66845 -0.293086 0
M  V30 1543 O 143.567 -1.79321 -0.156204 0
M  V30 1544 H 139.942 -0.722691 0.207899 0
M  V30 1545 H 141.913 -2.51205 1.61054 0
M  V30 1546 C 140.662 -3.47498 0.11858 0
M  V30 1547 H 139.985 -3.90154 0.872914 0
M  V30 1548 H 141.425 -4.23858 -0.109759 0
M  V30 1549 C 139.884 -3.16947 -1.1422 0
M  V30 1550 O 140.414 -3.3426 -2.22785 0
M  V30 1551 N 138.62 -2.70946 -1.05055 0
M  V30 1552 H 138.167 -2.57058 -0.167038 0
M  V30 1553 H 138.125 -2.50879 -1.89491 0
M  V30 1554 N 141.898 -0.863906 -1.31812 0
M  V30 1555 C 142.861 -0.320212 -2.26952 0
M  V30 1556 C 143.861 0.525369 -1.51975 0
M  V30 1557 O 145.051 0.335547 -1.70938 0
M  V30 1558 C 142.183 0.545919 -3.365 0
M  V30 1559 H 143.376 -1.16004 -2.76556 0
M  V30 1560 H 140.929 -0.638995 -1.42641 0
M  V30 1561 H 141.664 1.40718 -2.92179 0
M  V30 1562 H 141.449 -0.0594674 -3.92055 0
M  V30 1563 H 142.939 0.918796 -4.07367 0
M  V30 1564 N 143.376 1.44774 -0.622745 0
M  V30 1565 C 144.326 2.2774 0.108889 0
M  V30 1566 C 145.31 1.38189 0.824175 0
M  V30 1567 O 146.502 1.62063 0.711664 0
M  V30 1568 C 143.631 3.25353 1.09546 0
M  V30 1569 C 142.717 4.22392 0.380232 0
M  V30 1570 N 143.108 5.02388 -0.586535 0
M  V30 1571 C 141.406 4.41588 0.625792 0
M  V30 1572 C 142.107 5.72894 -1.00834 0
M  V30 1573 N 141.083 5.42479 -0.348878 0
M  V30 1574 H 144.885 2.86993 -0.63341 0
M  V30 1575 H 142.399 1.5611 -0.447589 0
M  V30 1576 H 144.396 3.83538 1.63414 0
M  V30 1577 H 143.056 2.6766 1.83815 0
M  V30 1578 H 144.067 5.0885 -0.963975 0
M  V30 1579 H 140.744 3.95003 1.352 0
M  V30 1580 H 142.134 6.47158 -1.80656 0
M  V30 1581 N 144.854 0.36279 1.53368 0
M  V30 1582 C 146.1 -0.228113 2.01513 0
M  V30 1583 C 146.433 -1.48648 1.2497 0
M  V30 1584 O 145.708 -1.91459 0.342616 0
M  V30 1585 C 145.991 -0.522884 3.56284 0
M  V30 1586 C 145.844 0.74892 4.43521 0
M  V30 1587 C 147.163 -1.32461 4.19693 0
M  V30 1588 H 144.282 -0.0814343 0.732487 0
M  V30 1589 H 146.924 0.48713 1.83649 0
M  V30 1590 H 145.074 -1.1322 3.71636 0
M  V30 1591 H 146.746 1.38648 4.39971 0
M  V30 1592 H 144.989 1.36986 4.11603 0
M  V30 1593 H 145.66 0.497667 5.49752 0
M  V30 1594 H 148.136 -0.809203 4.08156 0
M  V30 1595 H 147.012 -1.49961 5.28018 0
M  V30 1596 H 147.273 -2.33232 3.75573 0
M  V30 1597 N 146.332 -1.57332 0.0918853 0
M  V30 1598 C 147.56 -1.98574 -0.581048 0
M  V30 1599 C 147.975 -0.970903 -1.61923 0
M  V30 1600 O 147.332 0.0399054 -1.82456 0
M  V30 1601 C 147.383 -3.39872 -1.23164 0
M  V30 1602 O 147.104 -4.37469 -0.234989 0
M  V30 1603 C 148.605 -3.96099 -1.99049 0
M  V30 1604 H 145.825 -0.65261 -0.156018 0
M  V30 1605 H 148.369 -2.0379 0.170225 0
M  V30 1606 H 146.524 -3.35679 -1.93386 0
M  V30 1607 H 146.938 -5.19751 -0.70418 0
M  V30 1608 H 148.412 -4.97127 -2.39934 0
M  V30 1609 H 148.889 -3.3374 -2.85507 0
M  V30 1610 H 149.495 -4.03755 -1.3365 0
M  V30 1611 N 147.81 0.181792 -1.56548 0
M  V30 1612 C 149.087 0.926765 -1.72251 0
M  V30 1613 C 149.467 2.00831 -0.650386 0
M  V30 1614 O 148.815 2.26008 0.336521 0
M  V30 1615 C 149.025 1.50106 -3.1507 0
M  V30 1616 C 150.373 1.97805 -3.75711 0
M  V30 1617 O 151.397 1.59922 -3.18282 0
M  V30 1618 O 150.256 2.67555 -4.76525 0
M  V30 1619 H 147.35 0.435506 -0.703039 0
M  V30 1620 H 149.896 0.170443 -1.68842 0
M  V30 1621 H 148.668 0.72212 -3.84579 0
M  V30 1622 H 148.291 2.32186 -3.22763 0
M  V30 1623 N 149.288 1.51039 0.449983 0
M  V30 1624 C 150.699 1.557 1.03026 0
M  V30 1625 C 151.05 0.372939 1.92623 0
M  V30 1626 O 150.175 -0.511771 2.10261 0
M  V30 1627 C 150.77 2.82171 1.87523 0
M  V30 1628 C 149.329 2.89444 2.40622 0
M  V30 1629 C 148.476 2.50228 1.19504 0
M  V30 1630 H 151.427 1.56999 0.231745 0
M  V30 1631 H 151.448 2.65219 2.72835 0
M  V30 1632 H 150.96 3.68331 1.22286 0
M  V30 1633 H 149.061 2.07685 3.0935 0
M  V30 1634 H 149.174 3.92816 2.74285 0
M  V30 1635 H 147.538 2.03139 1.53644 0
M  V30 1636 H 148.321 3.38719 0.558972 0
M  V30 1637 N 150.766 -0.704594 1.40972 0
M  V30 1638 C 152.182 -1.01406 1.23244 0
M  V30 1639 C 152.382 -2.01169 0.115399 0
M  V30 1640 O 151.438 -2.47021 -0.523147 0
M  V30 1641 C 152.751 -1.54728 2.57836 0
M  V30 1642 C 154.299 -1.66658 2.64942 0
M  V30 1643 C 154.774 -2.23383 3.9983 0
M  V30 1644 N 156.265 -2.30756 4.01629 0
M  V30 1645 C 157 -2.75655 5.02794 0
M  V30 1646 N 156.496 -3.20225 6.14352 0
M  V30 1647 N 158.289 -2.75138 4.90159 0
M  V30 1648 H 150.44 -0.0435285 2.12355 0
M  V30 1649 H 152.703 -0.0818951 0.944456 0
M  V30 1650 H 152.409 -0.888832 3.40283 0
M  V30 1651 H 152.283 -2.53084 2.79693 0
M  V30 1652 H 154.67 -2.31617 1.8286 0
M  V30 1653 H 154.751 -0.668717 2.46904 0
M  V30 1654 H 154.395 -1.59043 4.82357 0
M  V30 1655 H 154.325 -3.23904 4.15203 0
M  V30 1656 H 156.816 -1.99291 3.21079 0
M  V30 1657 H 157.129 -3.53084 6.87424 0
M  V30 1658 H 155.474 -3.18156 6.17901 0
M  V30 1659 H 158.665 -2.39661 4.02095 0
M  V30 1660 H 158.838 -3.09812 5.6914 0
M  V30 1661 N 152.244 -1.26651 -0.937939 0
M  V30 1662 C 153.49 -1.12553 -1.687 0
M  V30 1663 C 153.823 0.329782 -1.91379 0
M  V30 1664 O 153.098 1.24202 -1.4968 0
M  V30 1665 C 153.381 -1.89862 -3.05981 0
M  V30 1666 C 153.234 -3.43318 -2.90607 0
M  V30 1667 C 154.553 -1.69499 -4.0615 0
M  V30 1668 H 151.672 -0.410257 -0.612257 0
M  V30 1669 H 154.314 -1.55685 -1.08913 0
M  V30 1670 H 152.464 -1.53204 -3.57017 0
M  V30 1671 H 154.136 -3.89747 -2.46769 0
M  V30 1672 H 152.379 -3.70179 -2.26164 0
M  V30 1673 H 153.05 -3.92642 -3.8799 0
M  V30 1674 H 155.526 -2.01442 -3.64088 0
M  V30 1675 H 154.402 -2.26002 -5.00214 0
M  V30 1676 H 154.663 -0.640365 -4.37438 0
M  V30 1677 N 153.722 1.14298 -1.08507 0
M  V30 1678 C 154.968 1.85633 -0.816581 0
M  V30 1679 C 155.301 1.82784 0.656021 0
M  V30 1680 O 154.576 1.25926 1.48233 0
M  V30 1681 C 154.859 3.34223 -1.34041 0
M  V30 1682 C 154.712 3.45639 -2.87843 0
M  V30 1683 C 156.031 4.29356 -0.9665 0
M  V30 1684 H 153.15 0.67402 -0.298104 0
M  V30 1685 H 155.792 1.34214 -1.34487 0
M  V30 1686 H 153.942 3.78144 -0.89104 0
M  V30 1687 H 155.614 3.10498 -3.41158 0
M  V30 1688 H 153.857 2.86817 -3.25451 0
M  V30 1689 H 154.528 4.50089 -3.19569 0
M  V30 1690 H 157.004 3.93457 -1.35391 0
M  V30 1691 H 155.88 5.3178 -1.3602 0
M  V30 1692 H 156.141 4.41919 0.126362 0
M  V30 1693 N 155.201 0.870884 1.31352 0
M  V30 1694 C 156.478 0.402907 1.91405 0
M  V30 1695 C 156.858 -1.11512 1.79244 0
M  V30 1696 O 156.206 -1.94411 1.2007 0
M  V30 1697 C 156.416 0.885301 3.37585 0
M  V30 1698 C 157.764 0.911971 4.14691 0
M  V30 1699 O 158.788 0.831016 3.46371 0
M  V30 1700 O 157.647 1.02927 5.3672 0
M  V30 1701 H 154.741 0.120698 0.818145 0
M  V30 1702 H 157.287 0.958857 1.40014 0
M  V30 1703 H 156.059 1.92889 3.40455 0
M  V30 1704 H 155.682 0.307714 3.96407 0
M  V30 1705 N 156.679 -1.44442 0.630414 0
M  V30 1706 C 157.609 -2.33418 -0.0618083 0
M  V30 1707 C 158.59 -1.48165 -0.835541 0
M  V30 1708 O 159.775 -1.76886 -0.801564 0
M  V30 1709 C 156.905 -3.31222 -1.04449 0
M  V30 1710 C 155.859 -4.26288 -0.382436 0
M  V30 1711 C 155.185 -5.13954 -1.47497 0
M  V30 1712 C 156.485 -5.1744 0.710865 0
M  V30 1713 H 158.179 -2.91548 0.681184 0
M  V30 1714 H 155.725 -1.40191 0.329026 0
M  V30 1715 H 157.678 -3.92351 -1.53748 0
M  V30 1716 H 156.402 -2.71299 -1.81836 0
M  V30 1717 H 155.061 -3.6649 0.0899054 0
M  V30 1718 H 154.709 -4.50385 -2.2397 0
M  V30 1719 H 154.409 -5.7837 -1.03737 0
M  V30 1720 H 155.933 -5.77955 -1.96979 0
M  V30 1721 H 157.347 -5.72509 0.300996 0
M  V30 1722 H 155.744 -5.90455 1.07156 0
M  V30 1723 H 156.814 -4.58496 1.57829 0
M  V30 1724 N 158.157 -0.370918 -1.53173 0
M  V30 1725 C 159.087 0.464847 -2.28826 0
M  V30 1726 C 160.068 1.07936 -1.31468 0
M  V30 1727 O 161.253 1.0956 -1.60344 0
M  V30 1728 C 158.383 1.60196 -3.08147 0
M  V30 1729 C 157.337 1.11443 -4.13237 0
M  V30 1730 C 156.663 2.3422 -4.80672 0
M  V30 1731 C 157.963 0.195384 -5.21934 0
M  V30 1732 H 159.657 -0.166329 -2.98938 0
M  V30 1733 H 157.203 -0.0814359 -1.4377 0
M  V30 1734 H 159.156 2.19332 -3.59822 0
M  V30 1735 H 157.88 2.26045 -2.35735 0
M  V30 1736 H 156.539 0.545727 -3.62515 0
M  V30 1737 H 156.187 2.98537 -4.04827 0
M  V30 1738 H 155.887 2.02269 -5.51689 0
M  V30 1739 H 157.411 2.94032 -5.35143 0
M  V30 1740 H 158.825 0.694375 -5.69079 0
M  V30 1741 H 157.222 -0.0335027 -6.00091 0
M  V30 1742 H 158.292 -0.760961 -4.78892 0
M  V30 1743 N 159.635 1.57281 -0.100228 0
M  V30 1744 C 160.881 1.94826 0.563101 0
M  V30 1745 C 161.214 0.982475 1.67514 0
M  V30 1746 O 160.489 0.0164069 1.94493 0
M  V30 1747 C 160.772 3.42453 1.11346 0
M  V30 1748 C 160.625 4.498 0.00612081 0
M  V30 1749 C 161.944 3.91506 2.01024 0
M  V30 1750 H 159.063 0.708428 0.203221 0
M  V30 1751 H 161.705 1.8922 -0.171979 0
M  V30 1752 H 159.855 3.47361 1.7399 0
M  V30 1753 H 161.527 4.57 -0.628357 0
M  V30 1754 H 159.77 4.28756 -0.659581 0
M  V30 1755 H 160.441 5.50306 0.432109 0
M  V30 1756 H 162.917 3.88784 1.48278 0
M  V30 1757 H 161.793 4.95358 2.36457 0
M  V30 1758 H 162.054 3.31099 2.92961 0
M  V30 1759 N 161.113 -0.173488 1.56642 0
M  V30 1760 C 162.362 -0.888758 1.81063 0
M  V30 1761 C 162.675 -1.83506 0.67712 0
M  V30 1762 O 163.881 -2.59254 0.806206 0
M  V30 1763 C 162.337 -1.63091 3.20826 0
M  V30 1764 C 161.945 -0.728357 4.4204 0
M  V30 1765 C 163.689 -2.33454 3.54541 0
M  V30 1766 C 161.596 -1.47062 5.72823 0
M  V30 1767 H 160.526 -0.335618 0.675186 0
M  V30 1768 H 163.177 -0.141712 1.82952 0
M  V30 1769 H 161.559 -2.42263 3.13248 0
M  V30 1770 H 162.733 0.0262449 4.60793 0
M  V30 1771 H 161.048 -0.134492 4.16183 0
M  V30 1772 H 163.645 -2.89578 4.49498 0
M  V30 1773 H 163.988 -3.08687 2.79317 0
M  V30 1774 H 164.521 -1.61227 3.63663 0
M  V30 1775 H 161.26 -0.760658 6.51072 0
M  V30 1776 H 160.78 -2.1986 5.58052 0
M  V30 1777 H 162.459 -2.01868 6.14702 0
M  V30 1778 N 162.591 -1.51276 -0.441967 0
M  V30 1779 C 163.538 -1.72256 -1.53612 0
M  V30 1780 C 164.508 -0.564164 -1.56225 0
M  V30 1781 O 165.693 -0.798074 -1.73307 0
M  V30 1782 C 162.833 -1.84932 -2.91366 0
M  V30 1783 C 161.946 -3.12459 -2.98317 0
M  V30 1784 C 161.081 -3.15758 -4.27166 0
M  V30 1785 C 160.12 -4.37619 -4.27967 0
M  V30 1786 N 159.257 -4.38493 -5.48333 0
M  V30 1787 H 164.097 -2.65654 -1.35026 0
M  V30 1788 H 161.634 -1.31662 -0.656009 0
M  V30 1789 H 163.592 -1.90263 -3.7129 0
M  V30 1790 H 162.222 -0.949461 -3.08521 0
M  V30 1791 H 161.274 -3.1646 -2.11086 0
M  V30 1792 H 162.586 -4.02382 -2.94771 0
M  V30 1793 H 161.74 -3.19979 -5.15459 0
M  V30 1794 H 160.479 -2.23715 -4.33362 0
M  V30 1795 H 159.484 -4.33579 -3.38067 0
M  V30 1796 H 160.709 -5.30921 -4.23438 0
M  V30 1797 H 158.655 -3.49318 -5.55259 0
M  V30 1798 H 158.572 -5.22219 -5.46647 0
M  V30 1799 H 159.84 -4.469 -6.38671 0
M  V30 1800 N 164.069 0.697108 -1.41344 0
M  V30 1801 C 165.317 1.45426 -1.40341 0
M  V30 1802 C 165.638 1.94996 -0.0128787 0
M  V30 1803 O 164.908 1.71599 0.945027 0
M  V30 1804 H 163.488 0.539594 -0.516573 0
M  V30 1805 H 166.15 0.825201 -1.76569 0
M  V30 1806 H 165.246 2.31817 -2.08967 0
M  V30 1807 N 165.547 1.27147 0.931209 0
M  V30 1808 C 166.494 1.09568 2.03134 0
M  V30 1809 C 167.464 -0.00222433 1.661 0
M  V30 1810 O 168.649 0.159439 1.90133 0
M  V30 1811 C 165.789 0.745231 3.36957 0
M  V30 1812 C 164.902 1.92041 3.86968 0
M  V30 1813 C 164.037 1.51216 5.09222 0
M  V30 1814 C 163.076 2.65504 5.5152 0
M  V30 1815 N 162.213 2.25291 6.64972 0
M  V30 1816 H 167.053 2.03708 2.17502 0
M  V30 1817 H 164.59 1.01411 1.06556 0
M  V30 1818 H 166.548 0.522878 4.1391 0
M  V30 1819 H 165.178 -0.159202 3.22407 0
M  V30 1820 H 164.23 2.25541 3.06326 0
M  V30 1821 H 165.542 2.77787 4.1429 0
M  V30 1822 H 164.696 1.25084 5.93666 0
M  V30 1823 H 163.435 0.625749 4.83669 0
M  V30 1824 H 162.44 2.92354 4.65628 0
M  V30 1825 H 163.665 3.54761 5.7907 0
M  V30 1826 H 161.611 1.39098 6.41083 0
M  V30 1827 H 161.528 3.04577 6.91931 0
M  V30 1828 H 162.796 2.02398 7.52765 0
M  V30 1829 N 167.025 -1.13721 1.09112 0
M  V30 1830 C 168.274 -1.84275 0.82009 0
M  V30 1831 C 168.587 -1.84253 -0.656509 0
M  V30 1832 O 169.793 -2.50668 -1.04296 0
M  V30 1833 C 168.249 -3.30825 1.41714 0
M  V30 1834 C 167.857 -3.39244 2.92605 0
M  V30 1835 C 169.601 -4.06443 1.22492 0
M  V30 1836 C 167.508 -4.80047 3.45411 0
M  V30 1837 H 166.438 -0.690387 0.30312 0
M  V30 1838 H 169.089 -1.28146 1.31343 0
M  V30 1839 H 167.471 -3.86737 0.851498 0
M  V30 1840 H 168.645 -2.93344 3.55367 0
M  V30 1841 H 166.96 -2.77088 3.10823 0
M  V30 1842 H 169.557 -5.10387 1.59402 0
M  V30 1843 H 169.9 -4.15972 0.165299 0
M  V30 1844 H 170.433 -3.56852 1.75788 0
M  V30 1845 H 167.172 -4.75709 4.50978 0
M  V30 1846 H 166.692 -5.26455 2.87411 0
M  V30 1847 H 168.371 -5.48957 3.42425 0
M  V30 1848 N 168.503 -0.877838 -1.30888 0
M  V30 1849 C 169.413 -0.343096 -2.32078 0
M  V30 1850 C 170.429 0.551022 -1.65045 0
M  V30 1851 O 171.605 0.445854 -1.96403 0
M  V30 1852 C 168.67 0.439905 -3.43898 0
M  V30 1853 C 167.731 -0.483111 -4.26573 0
M  V30 1854 C 166.964 0.262616 -5.33053 0
M  V30 1855 O 167.187 1.48967 -5.50604 0
M  V30 1856 O 166.121 -0.383593 -6.00676 0
M  V30 1857 H 169.947 -1.18203 -2.79753 0
M  V30 1858 H 167.532 -0.64145 -1.34929 0
M  V30 1859 H 169.414 0.883504 -4.12034 0
M  V30 1860 H 168.089 1.25526 -2.98371 0
M  V30 1861 H 166.996 -0.975374 -3.61161 0
M  V30 1862 H 168.329 -1.26427 -4.75686 0
M  V30 1863 N 169.982 1.44106 -0.638065 0
M  V30 1864 C 170.912 2.33448 0.0494287 0
M  V30 1865 C 171.893 1.48606 0.827672 0
M  V30 1866 O 173.078 1.77308 0.792173 0
M  V30 1867 C 170.208 3.31771 1.02691 0
M  V30 1868 C 169.162 4.26485 0.359823 0
M  V30 1869 C 168.488 5.14729 1.44769 0
M  V30 1870 C 169.788 5.17056 -0.738296 0
M  V30 1871 H 171.482 2.91183 -0.696636 0
M  V30 1872 H 169.028 1.40014 -0.336456 0
M  V30 1873 H 170.981 3.93161 1.51666 0
M  V30 1874 H 169.705 2.7226 1.80395 0
M  V30 1875 H 168.364 3.66437 -0.10934 0
M  V30 1876 H 168.012 4.51566 2.21578 0
M  V30 1877 H 167.712 5.78913 1.00668 0
M  V30 1878 H 169.236 5.78991 1.93911 0
M  V30 1879 H 170.65 5.72342 -0.331354 0
M  V30 1880 H 169.047 5.89879 -1.10286 0
M  V30 1881 H 170.117 4.57652 -1.60258 0
M  V30 1882 N 171.46 0.379036 1.52974 0
M  V30 1883 C 172.37 -0.468639 2.29872 0
M  V30 1884 C 173.386 -1.08067 1.36373 0
M  V30 1885 O 174.562 -1.08871 1.69438 0
M  V30 1886 C 171.627 -1.58594 3.083 0
M  V30 1887 C 170.688 -1.00007 4.17489 0
M  V30 1888 C 169.921 -2.06413 4.92168 0
M  V30 1889 O 170.144 -3.27751 4.66835 0
M  V30 1890 O 169.078 -1.68717 5.7777 0
M  V30 1891 H 172.904 0.157508 3.03291 0
M  V30 1892 H 170.489 0.143035 1.48714 0
M  V30 1893 H 172.371 -2.23525 3.57232 0
M  V30 1894 H 171.046 -2.19724 2.37703 0
M  V30 1895 H 169.953 -0.314299 3.72777 0
M  V30 1896 H 171.286 -0.433135 4.90291 0
M  V30 1897 N 172.938 -1.57226 0.108567 0
M  V30 1898 C 173.848 -2.18292 -0.859401 0
M  V30 1899 C 174.864 -1.15612 -1.30038 0
M  V30 1900 O 176.04 -1.48039 -1.36552 0
M  V30 1901 C 173.105 -2.762 -2.09558 0
M  V30 1902 C 172.166 -3.93881 -1.70752 0
M  V30 1903 C 171.399 -4.49018 -2.88477 0
M  V30 1904 O 171.622 -4.03068 -4.036 0
M  V30 1905 O 170.556 -5.39852 -2.66164 0
M  V30 1906 H 174.382 -3.01441 -0.369769 0
M  V30 1907 H 171.967 -1.48945 -0.1165 0
M  V30 1908 H 173.849 -3.13156 -2.81978 0
M  V30 1909 H 172.524 -1.96089 -2.57548 0
M  V30 1910 H 171.431 -3.61713 -0.954714 0
M  V30 1911 H 172.764 -4.75396 -1.27513 0
M  V30 1912 N 174.416 0.165178 -1.56732 0
M  V30 1913 C 175.644 0.896218 -1.86482 0
M  V30 1914 C 176.059 1.75555 -0.694675 0
M  V30 1915 O 175.416 1.79379 0.33607 0
M  V30 1916 C 175.467 1.76792 -3.1532 0
M  V30 1917 O 175.188 0.943239 -4.27825 0
M  V30 1918 C 176.689 2.6081 -3.58459 0
M  V30 1919 H 173.909 0.260064 -0.618553 0
M  V30 1920 H 176.453 0.163428 -2.03846 0
M  V30 1921 H 174.608 2.45398 -2.99764 0
M  V30 1922 H 175.022 1.53998 -5.01383 0
M  V30 1923 H 176.496 3.17579 -4.51495 0
M  V30 1924 H 176.973 3.35977 -2.82872 0
M  V30 1925 H 177.579 1.97526 -3.76648 0
M  V30 1926 N 175.894 1.51508 0.433938 0
M  V30 1927 C 177.143 1.63578 1.18005 0
M  V30 1928 C 177.456 0.359514 1.92268 0
M  V30 1929 O 178.662 0.359632 2.69108 0
M  V30 1930 C 177.118 2.88901 2.14626 0
M  V30 1931 C 176.726 4.23544 1.45995 0
M  V30 1932 C 178.47 3.10328 2.89649 0
M  V30 1933 C 176.377 5.40014 2.4112 0
M  V30 1934 H 175.307 0.609277 0.444182 0
M  V30 1935 H 177.958 1.77978 0.446773 0
M  V30 1936 H 176.34 2.68142 2.91403 0
M  V30 1937 H 177.514 4.54696 0.747532 0
M  V30 1938 H 175.829 4.08021 0.831115 0
M  V30 1939 H 178.426 3.94518 3.60915 0
M  V30 1940 H 178.769 2.23544 3.51189 0
M  V30 1941 H 179.302 3.31443 2.19978 0
M  V30 1942 H 176.041 6.29068 1.84264 0
M  V30 1943 H 175.561 5.13233 3.10406 0
M  V30 1944 H 177.24 5.72099 3.02177 0
M  V30 1945 N 177.372 -0.689602 1.41712 0
M  V30 1946 C 178.319 -1.80345 1.44029 0
M  V30 1947 C 179.289 -1.63478 0.293948 0
M  V30 1948 O 180.474 -1.84244 0.495869 0
M  V30 1949 C 177.614 -3.18272 1.33405 0
M  V30 1950 C 176.727 -3.46529 2.57956 0
M  V30 1951 C 175.862 -4.74103 2.39582 0
M  V30 1952 C 174.901 -4.95347 3.5958 0
M  V30 1953 N 174.038 -6.14151 3.40239 0
M  V30 1954 H 178.878 -1.77698 2.39222 0
M  V30 1955 H 176.415 -0.867688 1.18784 0
M  V30 1956 H 178.373 -3.97956 1.25246 0
M  V30 1957 H 177.003 -3.2008 0.418164 0
M  V30 1958 H 176.055 -2.61207 2.76542 0
M  V30 1959 H 177.367 -3.58126 3.47199 0
M  V30 1960 H 176.521 -5.61853 2.28924 0
M  V30 1961 H 175.26 -4.64763 1.47805 0
M  V30 1962 H 174.265 -4.06044 3.70686 0
M  V30 1963 H 175.49 -5.06542 4.52318 0
M  V30 1964 H 173.436 -6.06013 2.51167 0
M  V30 1965 H 173.353 -6.26543 4.23061 0
M  V30 1966 H 174.621 -7.04619 3.33365 0
M  V30 1967 N 178.85 -1.27639 -0.924453 0
M  V30 1968 C 180.096 -1.14336 -1.67497 0
M  V30 1969 C 180.429 0.309465 -1.91718 0
M  V30 1970 O 179.704 1.22608 -1.50989 0
M  V30 1971 C 179.987 -1.93096 -3.0395 0
M  V30 1972 C 179.84 -3.46381 -2.8695 0
M  V30 1973 C 181.159 -1.73798 -4.0433 0
M  V30 1974 H 178.278 -0.416728 -0.607871 0
M  V30 1975 H 180.92 -1.56832 -1.07256 0
M  V30 1976 H 179.07 -1.56982 -3.55372 0
M  V30 1977 H 180.742 -3.92343 -2.42621 0
M  V30 1978 H 178.985 -3.72557 -2.22225 0
M  V30 1979 H 179.656 -3.96735 -3.83804 0
M  V30 1980 H 182.132 -2.05293 -3.61931 0
M  V30 1981 H 181.008 -2.31294 -4.97789 0
M  V30 1982 H 181.269 -0.686725 -4.36734 0
M  V30 1983 N 180.328 1.1314 -1.09713 0
M  V30 1984 C 181.574 1.84967 -0.846104 0
M  V30 1985 C 181.929 1.82082 0.621601 0
M  V30 1986 O 181.222 1.2501 1.452 0
M  V30 1987 C 181.416 3.32167 -1.3191 0
M  V30 1988 C 181.245 3.49386 -2.83125 0
M  V30 1989 C 180.015 3.63456 -3.51038 0
M  V30 1990 C 182.213 3.45179 -3.81256 0
M  V30 1991 N 180.195 3.68966 -4.9065 0
M  V30 1992 C 181.566 3.57094 -5.06837 0
M  V30 1993 C 183.621 3.28598 -3.74069 0
M  V30 1994 C 182.324 3.5414 -6.26081 0
M  V30 1995 C 184.35 3.26953 -4.92804 0
M  V30 1996 C 183.712 3.39422 -6.17229 0
M  V30 1997 H 179.811 0.692899 -0.362512 0
M  V30 1998 H 182.395 1.35506 -1.39808 0
M  V30 1999 H 180.566 3.80186 -0.794535 0
M  V30 2000 H 182.298 3.91815 -1.01308 0
M  V30 2001 H 179.053 3.65256 -3.01471 0
M  V30 2002 H 179.477 3.75404 -5.63383 0
M  V30 2003 H 184.119 3.17858 -2.78794 0
M  V30 2004 H 181.837 3.63653 -7.21653 0
M  V30 2005 H 185.423 3.15316 -4.88945 0
M  V30 2006 H 184.303 3.38114 -7.07565 0
M  V30 2007 N 181.806 0.884767 1.30421 0
M  V30 2008 C 182.753 0.349642 2.28136 0
M  V30 2009 C 183.723 -0.560061 1.56373 0
M  V30 2010 O 184.908 -0.488524 1.8444 0
M  V30 2011 C 182.048 -0.42999 3.42411 0
M  V30 2012 C 181.161 0.508907 4.28992 0
M  V30 2013 C 180.296 -0.286301 5.30428 0
M  V30 2014 C 179.335 0.648079 6.08659 0
M  V30 2015 N 178.472 -0.111792 7.02011 0
M  V30 2016 H 183.312 1.18807 2.73293 0
M  V30 2017 H 180.849 0.597231 1.3443 0
M  V30 2018 H 182.807 -0.897923 4.07423 0
M  V30 2019 H 181.437 -1.23299 2.98324 0
M  V30 2020 H 180.489 1.09533 3.64289 0
M  V30 2021 H 181.801 1.22475 4.8353 0
M  V30 2022 H 180.955 -0.816098 6.01186 0
M  V30 2023 H 179.694 -1.03536 4.76583 0
M  V30 2024 H 178.699 1.18951 5.36778 0
M  V30 2025 H 179.924 1.39623 6.64592 0
M  V30 2026 H 177.87 -0.843395 6.50556 0
M  V30 2027 H 177.787 0.544429 7.54037 0
M  V30 2028 H 179.055 -0.622339 7.77012 0
M  V30 2029 N 183.284 -1.43765 0.645699 0
M  V30 2030 C 184.216 -2.29027 -0.0890605 0
M  V30 2031 C 185.229 -1.42093 -0.794563 0
M  V30 2032 O 186.418 -1.66104 -0.653575 0
M  V30 2033 C 183.518 -3.18831 -1.14891 0
M  V30 2034 C 182.691 -4.34261 -0.523043 0
M  V30 2035 C 181.75 -5.04994 -1.47878 0
M  V30 2036 O 180.776 -5.6052 -0.990277 0
M  V30 2037 N 181.978 -5.07795 -2.81291 0
M  V30 2038 H 184.743 -2.92727 0.64272 0
M  V30 2039 H 182.304 -1.54373 0.487924 0
M  V30 2040 H 184.296 -3.63015 -1.78892 0
M  V30 2041 H 182.866 -2.56782 -1.78275 0
M  V30 2042 H 182.086 -3.93088 0.295896 0
M  V30 2043 H 183.374 -5.08728 -0.0858147 0
M  V30 2044 H 182.772 -4.64042 -3.23546 0
M  V30 2045 H 181.329 -5.55721 -3.40614 0
M  V30 2046 N 184.763 -0.387143 -1.52771 0
M  V30 2047 C 186.179 -0.037007 -1.59557 0
M  V30 2048 C 186.379 1.44801 -1.40124 0
M  V30 2049 O 185.435 2.21227 -1.21716 0
M  V30 2050 C 186.748 -0.512256 -2.96305 0
M  V30 2051 C 188.296 -0.468328 -3.09476 0
M  V30 2052 C 188.771 -0.919731 -4.4867 0
M  V30 2053 N 190.262 -0.875656 -4.54848 0
M  V30 2054 C 190.997 -1.19637 -5.6078 0
M  V30 2055 N 190.493 -1.58745 -6.74368 0
M  V30 2056 N 192.286 -1.11776 -5.50874 0
M  V30 2057 H 184.437 -1.35395 -1.63652 0
M  V30 2058 H 186.7 -0.554818 -0.768688 0
M  V30 2059 H 186.406 -1.54935 -3.15734 0
M  V30 2060 H 186.28 0.089805 -3.77093 0
M  V30 2061 H 188.667 0.559671 -2.89744 0
M  V30 2062 H 188.748 -1.10616 -2.30646 0
M  V30 2063 H 188.392 -1.94595 -4.69143 0
M  V30 2064 H 188.322 -0.258927 -5.25963 0
M  V30 2065 H 190.813 -0.587843 -3.733 0
M  V30 2066 H 191.126 -1.81586 -7.51163 0
M  V30 2067 H 189.471 -1.6263 -6.75705 0
M  V30 2068 H 192.662 -0.811264 -4.61016 0
M  V30 2069 H 192.835 -1.37103 -6.3333 0
M  V30 2070 N 186.241 1.57166 -0.116904 0
M  V30 2071 C 187.469 1.99473 0.549383 0
M  V30 2072 C 187.884 0.996541 1.60357 0
M  V30 2073 O 187.241 -0.0108731 1.82497 0
M  V30 2074 C 187.292 3.41788 1.17741 0
M  V30 2075 O 187.013 4.37788 0.165362 0
M  V30 2076 C 188.514 3.99216 1.92722 0
M  V30 2077 H 185.734 0.655009 0.145616 0
M  V30 2078 H 188.278 2.03494 -0.202625 0
M  V30 2079 H 186.433 3.38713 1.88021 0
M  V30 2080 H 186.847 5.20806 0.621403 0
M  V30 2081 H 188.321 5.00882 2.31995 0
M  V30 2082 H 188.798 3.3824 2.80161 0
M  V30 2083 H 189.404 4.0583 1.27209 0
M  V30 2084 N 187.719 -0.156864 1.56817 0
M  V30 2085 C 188.669 -1.19891 1.93934 0
M  V30 2086 C 189.653 -1.39061 0.809372 0
M  V30 2087 O 190.845 -1.40789 1.07273 0
M  V30 2088 C 187.974 -2.53493 2.31508 0
M  V30 2089 C 187.06 -2.37957 3.51052 0
M  V30 2090 N 187.451 -1.92158 4.67877 0
M  V30 2091 C 185.749 -2.68739 3.55943 0
M  V30 2092 C 186.45 -1.8943 5.49992 0
M  V30 2093 N 185.426 -2.32375 4.91429 0
M  V30 2094 H 189.228 -0.836746 2.81737 0
M  V30 2095 H 186.742 -0.365012 1.58245 0
M  V30 2096 H 188.739 -3.28811 2.56299 0
M  V30 2097 H 187.399 -2.905 1.45051 0
M  V30 2098 H 188.41 -1.62274 4.91821 0
M  V30 2099 H 185.087 -3.09687 2.80001 0
M  V30 2100 H 186.477 -1.55596 6.53636 0
M  V30 2101 N 189.197 -1.51736 -0.425897 0
M  V30 2102 C 190.443 -1.65214 -1.1761 0
M  V30 2103 C 190.776 -0.372778 -1.90589 0
M  V30 2104 O 190.051 0.628139 -1.84078 0
M  V30 2105 C 190.334 -2.86312 -2.18398 0
M  V30 2106 C 190.187 -4.24254 -1.49426 0
M  V30 2107 C 191.506 -3.02925 -3.19256 0
M  V30 2108 H 188.625 -0.601263 -0.426206 0
M  V30 2109 H 191.267 -1.8425 -0.463882 0
M  V30 2110 H 189.417 -2.70213 -2.79137 0
M  V30 2111 H 191.089 -4.52046 -0.919362 0
M  V30 2112 H 189.332 -4.26426 -0.796432 0
M  V30 2113 H 190.003 -5.05001 -2.22885 0
M  V30 2114 H 192.479 -3.1781 -2.68581 0
M  V30 2115 H 191.355 -3.89199 -3.8706 0
M  V30 2116 H 191.616 -2.15497 -3.86023 0
M  V30 2117 N 190.675 0.682077 -1.42076 0
M  V30 2118 C 191.608 1.80666 -1.3941 0
M  V30 2119 C 192.586 1.60518 -0.25939 0
M  V30 2120 O 193.77 1.83088 -0.448456 0
M  V30 2121 C 190.897 3.17556 -1.17796 0
M  V30 2122 C 189.943 3.56468 -2.34164 0
M  V30 2123 S 190.776 3.59729 -3.96681 0
M  V30 2124 C 191.932 4.99323 -3.77395 0
M  V30 2125 H 192.165 1.82652 -2.34575 0
M  V30 2126 H 189.698 0.852062 -1.2876 0
M  V30 2127 H 191.656 3.96575 -1.06012 0
M  V30 2128 H 190.317 3.13164 -0.242279 0
M  V30 2129 H 189.51 4.5595 -2.1477 0
M  V30 2130 H 189.112 2.84792 -2.42425 0
M  V30 2131 H 191.404 5.87202 -3.37935 0
M  V30 2132 H 192.347 5.23763 -4.76527 0
M  V30 2133 H 192.755 4.71498 -3.10403 0
M  V30 2134 N 192.153 1.28127 0.917671 0
M  V30 2135 C 193.569 1.05749 1.19538 0
M  V30 2136 C 193.769 -0.202633 2.00479 0
M  V30 2137 O 192.825 -0.905382 2.3571 0
M  V30 2138 C 194.138 2.30273 1.93378 0
M  V30 2139 C 195.686 2.35412 2.06277 0
M  V30 2140 C 196.161 3.59692 2.83524 0
M  V30 2141 N 197.652 3.60309 2.91087 0
M  V30 2142 C 198.387 4.53147 3.51348 0
M  V30 2143 N 197.883 5.563 4.12919 0
M  V30 2144 N 199.676 4.40751 3.48849 0
M  V30 2145 H 191.827 2.09024 0.377184 0
M  V30 2146 H 194.09 0.919798 0.22951 0
M  V30 2147 H 193.796 3.22055 1.41328 0
M  V30 2148 H 193.67 2.36378 2.93947 0
M  V30 2149 H 196.057 1.4413 2.57508 0
M  V30 2150 H 196.138 2.33304 1.04895 0
M  V30 2151 H 195.782 4.51316 2.32973 0
M  V30 2152 H 195.712 3.59054 3.85211 0
M  V30 2153 H 198.203 2.85714 2.47338 0
M  V30 2154 H 198.516 6.2329 4.56869 0
M  V30 2155 H 196.861 5.60131 4.11435 0
M  V30 2156 H 200.052 3.59367 2.99955 0
M  V30 2157 H 200.225 5.13291 3.9552 0
M  V30 2158 N 193.631 -1.12557 1.10312 0
M  V30 2159 C 194.878 -1.84038 0.844759 0
M  V30 2160 C 195.206 -1.84026 -0.629668 0
M  V30 2161 O 194.461 -1.28026 -1.48013 0
M  V30 2162 C 194.76 -3.31462 1.33669 0
M  V30 2163 C 194.426 -3.51647 2.82232 0
M  V30 2164 C 193.088 -3.56864 3.22802 0
M  V30 2165 C 195.44 -3.58867 3.77974 0
M  V30 2166 C 192.768 -3.66844 4.57867 0
M  V30 2167 C 195.12 -3.70375 5.1284 0
M  V30 2168 C 193.784 -3.73848 5.52986 0
M  V30 2169 H 193.054 -0.673444 0.309119 0
M  V30 2170 H 195.701 -1.32824 1.37949 0
M  V30 2171 H 194.006 -3.85091 0.721949 0
M  V30 2172 H 195.703 -3.85236 1.11329 0
M  V30 2173 H 192.293 -3.48249 2.49842 0
M  V30 2174 H 196.477 -3.54107 3.47738 0
M  V30 2175 H 191.733 -3.67804 4.88396 0
M  V30 2176 H 195.907 -3.74904 5.86873 0
M  V30 2177 H 193.534 -3.81333 6.57639 0
M  V30 2178 N 195.109 -0.891671 -1.2995 0
M  V30 2179 C 196.356 -0.513501 -1.95881 0
M  V30 2180 C 196.684 0.938655 -1.70351 0
M  V30 2181 O 195.939 1.67936 -1.00478 0
M  V30 2182 C 196.238 -0.742868 -3.49594 0
M  V30 2183 C 195.904 -2.17114 -3.95186 0
M  V30 2184 C 194.566 -2.56169 -4.07346 0
M  V30 2185 C 196.918 -3.10162 -4.18866 0
M  V30 2186 C 194.246 -3.87469 -4.4055 0
M  V30 2187 C 196.598 -4.41001 -4.53542 0
M  V30 2188 C 195.262 -4.79941 -4.63911 0
M  V30 2189 H 194.532 -0.187903 -0.71678 0
M  V30 2190 H 197.179 -1.1288 -1.54694 0
M  V30 2191 H 195.484 -0.044586 -3.91775 0
M  V30 2192 H 197.181 -0.429767 -3.9869 0
M  V30 2193 H 193.771 -1.85801 -3.86233 0
M  V30 2194 H 197.955 -2.81206 -4.08946 0
M  V30 2195 H 193.211 -4.17371 -4.46779 0
M  V30 2196 H 197.385 -5.13133 -4.70815 0
M  V30 2197 H 195.012 -5.81719 -4.89395 0
M  V30 2198 N 196.587 1.43421 -0.653314 0
M  V30 2199 C 197.537 2.2792 0.060558 0
M  V30 2200 C 198.521 1.39906 0.794677 0
M  V30 2201 O 199.713 1.63536 0.677128 0
M  V30 2202 C 196.842 3.27603 1.0262 0
M  V30 2203 C 195.928 4.23104 0.290551 0
M  V30 2204 N 196.319 5.01031 -0.692967 0
M  V30 2205 C 194.617 4.42816 0.531984 0
M  V30 2206 C 195.318 5.70626 -1.12963 0
M  V30 2207 N 194.294 5.41617 -0.463867 0
M  V30 2208 H 198.096 2.85585 -0.694143 0
M  V30 2209 H 195.61 1.55126 -0.480602 0
M  V30 2210 H 197.607 3.86918 1.55242 0
M  V30 2211 H 196.267 2.71499 1.78096 0
M  V30 2212 H 197.278 5.0669 -1.07169 0
M  V30 2213 H 193.955 3.97782 1.26791 0
M  V30 2214 H 195.345 6.4318 -1.94343 0
M  V30 2215 N 198.065 0.39524 1.52563 0
M  V30 2216 C 198.975 -0.444232 2.30356 0
M  V30 2217 C 199.991 -1.06615 1.37511 0
M  V30 2218 O 201.167 -1.07067 1.70583 0
M  V30 2219 C 198.232 -1.55315 3.09964 0
M  V30 2220 C 197.293 -0.955734 4.18526 0
M  V30 2221 C 196.526 -2.01181 4.9433 0
M  V30 2222 O 196.749 -3.22781 4.70285 0
M  V30 2223 O 195.683 -1.62579 5.79527 0
M  V30 2224 H 199.509 0.189667 3.03107 0
M  V30 2225 H 197.094 0.1588 1.48554 0
M  V30 2226 H 198.976 -2.19724 3.59582 0
M  V30 2227 H 197.651 -2.17191 2.4002 0
M  V30 2228 H 196.558 -0.274743 3.7309 0
M  V30 2229 H 197.891 -0.381109 4.90722 0
M  V30 2230 N 199.544 -1.57102 0.125237 0
M  V30 2231 C 200.772 -1.99761 -0.538797 0
M  V30 2232 C 201.187 -1.00503 -1.59827 0
M  V30 2233 O 200.544 0.00119474 -1.825 0
M  V30 2234 C 200.595 -3.42408 -1.15927 0
M  V30 2235 O 200.316 -4.37869 -0.142143 0
M  V30 2236 C 201.817 -4.00232 -1.90602 0
M  V30 2237 H 199.037 -0.655772 -0.14214 0
M  V30 2238 H 201.581 -2.03383 0.213413 0
M  V30 2239 H 199.736 -3.39706 -1.86223 0
M  V30 2240 H 200.15 -5.21128 -0.593775 0
M  V30 2241 H 201.624 -5.02105 -2.29335 0
M  V30 2242 H 202.101 -3.39721 -2.78363 0
M  V30 2243 H 202.707 -4.06499 -1.25055 0
M  V30 2244 N 201.022 0.148545 -1.56898 0
M  V30 2245 C 201.932 1.20293 -2.01412 0
M  V30 2246 C 202.948 1.47107 -0.929273 0
M  V30 2247 O 204.124 1.58807 -1.23863 0
M  V30 2248 C 201.189 2.51682 -2.38447 0
M  V30 2249 C 200.25 2.32529 -3.60872 0
M  V30 2250 C 199.483 3.57653 -3.96132 0
M  V30 2251 O 199.706 4.63771 -3.32073 0
M  V30 2252 O 198.64 3.50408 -4.89385 0
M  V30 2253 H 202.466 0.855025 -2.91416 0
M  V30 2254 H 200.051 0.357151 -1.45068 0
M  V30 2255 H 201.933 3.29147 -2.63135 0
M  V30 2256 H 200.608 2.86006 -1.51599 0
M  V30 2257 H 199.515 1.53019 -3.41373 0
M  V30 2258 H 200.848 2.03121 -4.48333 0
M  V30 2259 N 202.5 1.5196 0.417844 0
M  V30 2260 C 203.463 1.74065 1.49111 0
M  V30 2261 C 204.463 0.610537 1.48758 0
M  V30 2262 O 205.653 0.87832 1.50437 0
M  V30 2263 C 202.785 1.81502 2.88565 0
M  V30 2264 H 203.978 2.69869 1.30807 0
M  V30 2265 H 201.531 1.42244 0.647785 0
M  V30 2266 H 202.266 0.875813 3.1225 0
M  V30 2267 H 202.051 2.63651 2.90225 0
M  V30 2268 H 203.541 2.00376 3.66387 0
M  V30 2269 N 203.978 -0.674533 1.42435 0
M  V30 2270 C 205.389 -1.25514 1.38214 0
M  V30 2271 C 205.74 -1.96055 0.0755464 0
M  V30 2272 O 204.865 -2.00028 -0.8257 0
M  V30 2273 C 205.46 -2.28269 2.50357 0
M  V30 2274 C 204.019 -2.81856 2.49467 0
M  V30 2275 C 203.166 -1.56182 2.29134 0
M  V30 2276 H 206.117 -0.467902 1.51646 0
M  V30 2277 H 206.138 -3.10009 2.20624 0
M  V30 2278 H 205.65 -1.769 3.45439 0
M  V30 2279 H 203.751 -3.37346 1.58204 0
M  V30 2280 H 203.864 -3.30854 3.46515 0
M  V30 2281 H 202.228 -1.82761 1.774 0
M  V30 2282 H 203.011 -1.06778 3.26272 0
M  V30 2283 N 205.456 -1.28612 -0.910864 0
M  V30 2284 C 206.872 -1.06381 -1.18976 0
M  V30 2285 C 207.072 0.191998 -2.00583 0
M  V30 2286 O 206.128 0.892869 -2.36187 0
M  V30 2287 C 207.441 -2.31295 -1.92154 0
M  V30 2288 C 208.989 -2.36503 -2.05025 0
M  V30 2289 C 209.464 -3.61191 -2.81612 0
M  V30 2290 N 210.955 -3.61847 -2.89172 0
M  V30 2291 C 211.69 -4.55004 -3.4894 0
M  V30 2292 N 211.186 -5.58482 -4.09963 0
M  V30 2293 N 212.979 -4.42594 -3.46506 0
M  V30 2294 H 205.13 -2.09221 -0.366094 0
M  V30 2295 H 207.393 -0.921003 -0.224629 0
M  V30 2296 H 207.099 -3.228 -1.39618 0
M  V30 2297 H 206.973 -2.37934 -2.9269 0
M  V30 2298 H 209.36 -1.45494 -2.5674 0
M  V30 2299 H 209.441 -2.33857 -1.03657 0
M  V30 2300 H 209.085 -4.52545 -2.30576 0
M  V30 2301 H 209.015 -3.61092 -3.83302 0
M  V30 2302 H 211.506 -2.87022 -2.45819 0
M  V30 2303 H 211.819 -6.25704 -4.53557 0
M  V30 2304 H 210.164 -5.62305 -4.08459 0
M  V30 2305 H 213.355 -3.60953 -2.98045 0
M  V30 2306 H 213.528 -5.15381 -3.92793 0
M  V30 2307 N 206.934 1.1197 -1.10907 0
M  V30 2308 C 208.345 1.65114 -0.871446 0
M  V30 2309 C 208.696 1.86885 0.597353 0
M  V30 2310 O 207.821 1.59896 1.45816 0
M  V30 2311 C 208.416 2.99944 -1.5754 0
M  V30 2312 C 206.975 3.50018 -1.38435 0
M  V30 2313 C 206.122 2.24941 -1.62164 0
M  V30 2314 H 209.073 0.956851 -1.2661 0
M  V30 2315 H 209.094 3.66651 -1.01721 0
M  V30 2316 H 208.606 2.84067 -2.64438 0
M  V30 2317 H 206.707 3.71071 -0.337214 0
M  V30 2318 H 206.82 4.29165 -2.12965 0
M  V30 2319 H 205.184 2.3229 -1.04467 0
M  V30 2320 H 205.967 2.11612 -2.70324 0
M  V30 2321 N 208.412 0.89855 1.29475 0
M  V30 2322 C 209.359 0.373819 2.27753 0
M  V30 2323 C 210.329 -0.543444 1.56958 0
M  V30 2324 O 211.514 -0.468934 1.84948 0
M  V30 2325 C 208.654 -0.393648 3.42848 0
M  V30 2326 C 207.767 0.554379 4.28428 0
M  V30 2327 C 206.902 -0.230026 5.30702 0
M  V30 2328 C 205.941 0.712599 6.07938 0
M  V30 2329 N 205.078 -0.0373283 7.0209 0
M  V30 2330 H 209.918 1.21699 2.72017 0
M  V30 2331 H 207.455 0.611456 1.33789 0
M  V30 2332 H 209.413 -0.85466 4.08352 0
M  V30 2333 H 208.043 -1.20128 2.99615 0
M  V30 2334 H 207.095 1.13391 3.63107 0
M  V30 2335 H 208.407 1.27597 4.82204 0
M  V30 2336 H 207.561 -0.752288 6.02018 0
M  V30 2337 H 206.3 -0.984758 4.77654 0
M  V30 2338 H 205.305 1.24637 5.35486 0
M  V30 2339 H 206.53 1.46664 6.63074 0
M  V30 2340 H 204.476 -0.774348 6.51414 0
M  V30 2341 H 204.393 0.624374 7.53417 0
M  V30 2342 H 205.661 -0.539891 7.77628 0
M  V30 2343 N 209.89 -1.43072 0.660911 0
M  V30 2344 C 211.167 -1.95307 0.107017 0
M  V30 2345 C 211.547 -1.60192 -1.37484 0
M  V30 2346 O 210.895 -0.890949 -2.10415 0
M  V30 2347 C 211.105 -3.47124 0.361402 0
M  V30 2348 C 212.453 -4.23738 0.270455 0
M  V30 2349 O 213.477 -3.54981 0.294382 0
M  V30 2350 O 212.336 -5.46131 0.200737 0
M  V30 2351 H 209.43 -0.826984 -0.00517729 0
M  V30 2352 H 211.976 -1.52972 0.734681 0
M  V30 2353 H 210.748 -3.65837 1.38848 0
M  V30 2354 H 210.371 -3.96475 -0.298953 0
M  V30 2355 N 211.368 -0.403325 -1.52352 0
M  V30 2356 C 212.615 0.174347 -2.01748 0
M  V30 2357 C 212.943 1.45636 -1.2892 0
M  V30 2358 O 212.198 1.9193 -0.382258 0
M  V30 2359 C 212.497 0.474665 -3.54234 0
M  V30 2360 C 212.163 -0.717458 -4.45155 0
M  V30 2361 C 210.825 -1.04447 -4.69728 0
M  V30 2362 C 213.177 -1.51432 -4.98716 0
M  V30 2363 C 210.505 -2.16963 -5.45109 0
M  V30 2364 C 212.857 -2.6302 -5.75329 0
M  V30 2365 C 211.521 -2.96213 -5.98175 0
M  V30 2366 H 210.791 0.0637981 -0.738248 0
M  V30 2367 H 213.438 -0.543553 -1.83624 0
M  V30 2368 H 211.743 1.27406 -3.70506 0
M  V30 2369 H 213.44 0.934496 -3.89959 0
M  V30 2370 H 210.03 -0.452596 -4.26204 0
M  V30 2371 H 214.214 -1.27491 -4.79645 0
M  V30 2372 H 209.47 -2.43034 -5.61021 0
M  V30 2373 H 213.644 -3.25158 -6.15829 0
M  V30 2374 H 211.271 -3.83516 -6.56368 0
M  V30 2375 N 212.846 1.57033 -0.133567 0
M  V30 2376 C 213.776 2.1909 0.807567 0
M  V30 2377 C 214.757 1.13517 1.26681 0
M  V30 2378 O 215.942 1.41809 1.32679 0
M  V30 2379 C 213.072 2.80188 2.05212 0
M  V30 2380 C 212.026 3.91471 1.73015 0
M  V30 2381 C 211.352 4.39443 3.04622 0
M  V30 2382 C 212.652 5.12886 0.987168 0
M  V30 2383 H 214.346 2.97988 0.290403 0
M  V30 2384 H 211.892 1.43335 0.138239 0
M  V30 2385 H 213.845 3.22264 2.71521 0
M  V30 2386 H 212.569 1.98601 2.59278 0
M  V30 2387 H 211.228 3.49993 1.0909 0
M  V30 2388 H 210.876 3.54695 3.56651 0
M  V30 2389 H 210.576 5.14495 2.83847 0
M  V30 2390 H 212.1 4.8418 3.72024 0
M  V30 2391 H 213.514 5.51891 1.55208 0
M  V30 2392 H 211.911 5.93615 0.87985 0
M  V30 2393 H 212.981 4.84894 -0.0235286 0
M  V30 2394 N 214.325 -0.140222 1.56975 0
M  V30 2395 C 215.55 -0.870414 1.88251 0
M  V30 2396 C 215.975 -1.73637 0.723312 0
M  V30 2397 O 215.333 -1.78329 -0.32689 0
M  V30 2398 C 215.381 -1.69737 3.18154 0
M  V30 2399 O 214.485 -2.80229 3.02565 0
M  V30 2400 H 213.826 -0.242025 0.61832 0
M  V30 2401 H 216.356 -0.128999 2.04193 0
M  V30 2402 H 216.366 -2.09099 3.50345 0
M  V30 2403 H 215.041 -1.06152 4.02125 0
M  V30 2404 H 213.618 -2.44224 2.81796 0
M  V30 2405 N 215.803 -1.52179 -0.40978 0
M  V30 2406 C 216.75 -1.75475 -1.49924 0
M  V30 2407 C 217.72 -0.597175 -1.54994 0
M  V30 2408 O 218.905 -0.834655 -1.71575 0
M  V30 2409 C 216.045 -1.9107 -2.87378 0
M  V30 2410 C 215.158 -3.18717 -2.91622 0
M  V30 2411 C 214.293 -3.24747 -4.20372 0
M  V30 2412 C 213.332 -4.46598 -4.18588 0
M  V30 2413 N 212.469 -4.50025 -5.38908 0
M  V30 2414 H 217.309 -2.68458 -1.29361 0
M  V30 2415 H 214.846 -1.33024 -0.627934 0
M  V30 2416 H 216.804 -1.98096 -3.6717 0
M  V30 2417 H 215.434 -1.01469 -3.06437 0
M  V30 2418 H 214.486 -3.20866 -2.04326 0
M  V30 2419 H 215.798 -4.08544 -2.86169 0
M  V30 2420 H 214.952 -3.30841 -5.08556 0
M  V30 2421 H 213.691 -2.32857 -4.28519 0
M  V30 2422 H 212.696 -4.40652 -3.28794 0
M  V30 2423 H 213.921 -5.39783 -4.12081 0
M  V30 2424 H 211.867 -3.61017 -5.47725 0
M  V30 2425 H 211.784 -5.33697 -5.35447 0
M  V30 2426 H 213.052 -4.60347 -6.29048 0
M  V30 2427 N 217.281 0.66697 -1.42791 0
M  V30 2428 C 218.528 1.42699 -1.43678 0
M  V30 2429 C 218.856 1.94419 -0.0560425 0
M  V30 2430 O 218.111 1.7182 0.936831 0
M  V30 2431 C 218.41 2.6349 -2.4147 0
M  V30 2432 C 218.076 2.30267 -3.8767 0
M  V30 2433 C 216.738 2.20918 -4.27491 0
M  V30 2434 C 219.09 2.03435 -4.79858 0
M  V30 2435 C 216.418 1.82873 -5.57471 0
M  V30 2436 C 218.77 1.66892 -6.10188 0
M  V30 2437 C 217.434 1.56058 -6.49001 0
M  V30 2438 H 216.704 0.522171 -0.525755 0
M  V30 2439 H 219.351 0.759785 -1.75783 0
M  V30 2440 H 217.656 3.35279 -2.0272 0
M  V30 2441 H 219.353 3.21684 -2.39417 0
M  V30 2442 H 215.943 2.38449 -3.56146 0
M  V30 2443 H 220.127 2.09586 -4.49875 0
M  V30 2444 H 215.383 1.7306 -5.86396 0
M  V30 2445 H 219.557 1.45157 -6.81104 0
M  V30 2446 H 217.184 1.26348 -7.49627 0
M  V30 2447 N 218.759 1.29093 0.90403 0
M  V30 2448 C 219.989 1.19516 1.68522 0
M  V30 2449 C 220.397 -0.24738 1.87576 0
M  V30 2450 O 219.74 -1.17798 1.40959 0
M  V30 2451 C 219.802 1.83249 3.0929 0
M  V30 2452 C 219.466 3.32531 3.13484 0
M  V30 2453 C 220.463 4.28821 2.93953 0
M  V30 2454 C 218.148 3.73656 3.35688 0
M  V30 2455 C 220.142 5.64212 2.96553 0
M  V30 2456 C 217.829 5.0917 3.37919 0
M  V30 2457 C 218.827 6.04258 3.18373 0
M  V30 2458 O 218.515 7.37298 3.20385 0
M  V30 2459 H 218.247 0.415467 0.533257 0
M  V30 2460 H 220.801 1.70912 1.13922 0
M  V30 2461 H 219.031 1.26358 3.65473 0
M  V30 2462 H 220.72 1.68054 3.69476 0
M  V30 2463 H 221.486 3.98382 2.76616 0
M  V30 2464 H 217.365 3.00101 3.49943 0
M  V30 2465 H 220.909 6.38407 2.81216 0
M  V30 2466 H 216.806 5.39256 3.54787 0
M  V30 2467 H 217.574 7.46048 3.36681 0
M  V30 2468 N 220.237 -1.11381 1.11499 0
M  V30 2469 C 221.483 -1.83403 0.865512 0
M  V30 2470 C 221.816 -1.84459 -0.607329 0
M  V30 2471 O 221.091 -1.29811 -1.44842 0
M  V30 2472 C 221.374 -3.30552 1.42855 0
M  V30 2473 C 221.227 -3.37886 2.96906 0
M  V30 2474 C 222.546 -4.26643 1.08 0
M  V30 2475 H 219.665 -0.665879 0.31587 0
M  V30 2476 H 222.307 -1.30601 1.37998 0
M  V30 2477 H 220.457 -3.75648 0.990985 0
M  V30 2478 H 222.129 -3.01343 3.49271 0
M  V30 2479 H 220.372 -2.78088 3.32941 0
M  V30 2480 H 221.043 -4.41458 3.31389 0
M  V30 2481 H 223.519 -3.89729 1.45775 0
M  V30 2482 H 222.395 -5.27986 1.50072 0
M  V30 2483 H 222.656 -4.42099 -0.00915037 0
M  V30 2484 N 221.715 -0.905404 -1.28997 0
M  V30 2485 C 222.963 -0.533192 -1.9494 0
M  V30 2486 C 223.284 0.924618 -1.71685 0
M  V30 2487 O 222.554 1.65268 -1.05183 0
M  V30 2488 H 221.134 -0.194194 -0.721317 0
M  V30 2489 H 223.796 -1.15294 -1.57141 0
M  V30 2490 H 222.892 -0.72059 -3.03667 0
M  V30 2491 N 223.193 1.4272 -0.668489 0
M  V30 2492 C 224.143 2.27971 0.0363806 0
M  V30 2493 C 225.127 1.40741 0.779794 0
M  V30 2494 O 226.319 1.64245 0.659745 0
M  V30 2495 C 223.448 3.28673 0.991398 0
M  V30 2496 C 222.534 4.23388 0.245658 0
M  V30 2497 N 222.925 5.00267 -0.746069 0
M  V30 2498 C 221.223 4.43355 0.484988 0
M  V30 2499 C 221.924 5.69396 -1.19009 0
M  V30 2500 N 220.9 5.41095 -0.521287 0
M  V30 2501 H 224.702 2.84833 -0.724394 0
M  V30 2502 H 222.216 1.54607 -0.497028 0
M  V30 2503 H 224.213 3.88543 1.51129 0
M  V30 2504 H 222.873 2.73373 1.75207 0
M  V30 2505 H 223.884 5.05525 -1.12537 0
M  V30 2506 H 220.561 3.99104 1.22565 0
M  V30 2507 H 221.951 6.41083 -2.01153 0
M  V30 2508 N 224.671 0.411399 1.52136 0
M  V30 2509 C 225.948 -0.222308 1.94333 0
M  V30 2510 C 226.328 -1.6242 1.34844 0
M  V30 2511 O 225.676 -2.22384 0.525145 0
M  V30 2512 C 225.886 -0.226345 3.48265 0
M  V30 2513 C 227.234 -0.444592 4.22266 0
M  V30 2514 O 228.258 -0.305602 3.54887 0
M  V30 2515 O 227.117 -0.718749 5.41753 0
M  V30 2516 H 224.211 -0.143907 0.814383 0
M  V30 2517 H 226.757 0.467506 1.63133 0
M  V30 2518 H 225.529 0.75475 3.83952 0
M  V30 2519 H 225.152 -0.960163 3.85832 0
M  V30 2520 N 226.149 -1.5696 0.141893 0
M  V30 2521 C 227.56 -1.82797 -0.379776 0
M  V30 2522 C 227.911 -1.06033 -1.6508 0
M  V30 2523 O 227.036 -0.304011 -2.14254 0
M  V30 2524 C 227.631 -3.31578 -0.695802 0
M  V30 2525 C 226.19 -3.58014 -1.16201 0
M  V30 2526 C 225.337 -2.76699 -0.182455 0
M  V30 2527 H 228.288 -1.54406 0.366675 0
M  V30 2528 H 228.309 -3.47454 -1.55099 0
M  V30 2529 H 227.821 -3.87421 0.229449 0
M  V30 2530 H 225.922 -3.07553 -2.10338 0
M  V30 2531 H 226.035 -4.66501 -1.09151 0
M  V30 2532 H 224.399 -2.45618 -0.674072 0
M  V30 2533 H 225.182 -3.35311 0.736297 0
M  V30 2534 O 227.666 -0.00315229 -1.615 0
M  V30 2535 H 228.357 0.61308 -1.83742 0
M  V30 END ATOM
M  V30 BEGIN BOND
M  V30 END BOND
M  V30 END CTAB
M  END
$$$$
