drugbank_target|P25774 Cathepsin S (DB03767; DB03837; DB03984; DB07520; DB07587; DB07589; DB07839; DB07878; DB08195; DB08611; DB08752; DB08755; DB12010)
 OpenBabel12092119573D

  0  0  0     0  0            999 V3000
M  V30 BEGIN CTAB
M  V30 COUNTS 5193 5259 0 0 0
M  V30 BEGIN ATOM
M  V30 1 H -0.908 1.98254 -0.117106 0
M  V30 2 N 0 1.576 0 0
M  V30 3 C 0.933 2.03868 1.02534 0
M  V30 4 C 1.911 0.928543 1.3348 0
M  V30 5 O 3.095 1.19667 1.45644 0
M  V30 6 C 0.222 2.43627 2.35294 0
M  V30 7 C -0.732 3.65373 2.2001 0
M  V30 8 S 0.101 5.13292 1.52614 0
M  V30 9 C 1.257 5.56322 2.86805 0
M  V30 10 H 1.49 2.90518 0.631377 0
M  V30 11 H -0.977 1.52953 0.210867 0
M  V30 12 H 0.981 2.67203 3.11629 0
M  V30 13 H -0.358 1.57376 2.7183 0
M  V30 14 H -1.165 3.90944 3.18086 0
M  V30 15 H -1.563 3.418 1.51819 0
M  V30 16 H 0.729 5.58782 3.83104 0
M  V30 17 H 1.672 6.56266 2.65933 0
M  V30 18 H 2.08 4.83886 2.90714 0
M  V30 19 N 1.4781 -0.272755 1.55222 0
M  V30 20 C 2.4251 -1.33716 1.88119 0
M  V30 21 C 3.3951 -1.49066 0.73271 0
M  V30 22 O 4.5801 -1.63469 0.984002 0
M  V30 23 C 1.7201 -2.69238 2.15882 0
M  V30 24 C 0.8331 -2.62108 3.43399 0
M  V30 25 C -0.0319 -3.89811 3.60861 0
M  V30 26 C -0.9929 -3.77193 4.8207 0
M  V30 27 N -1.8559 -4.9673 4.96189 0
M  V30 28 H 2.9841 -1.04962 2.78903 0
M  V30 29 H 0.5211 -0.507088 1.38083 0
M  V30 30 H 2.4791 -3.48089 2.29978 0
M  V30 31 H 1.1091 -2.96194 1.28331 0
M  V30 32 H 0.1611 -1.74967 3.37773 0
M  V30 33 H 1.4731 -2.48685 4.32386 0
M  V30 34 H 0.6271 -4.77103 3.74777 0
M  V30 35 H -0.6339 -4.06102 2.7006 0
M  V30 36 H -1.6289 -2.88284 4.68159 0
M  V30 37 H -0.4039 -3.62421 5.74307 0
M  V30 38 H -2.4579 -5.13431 4.08319 0
M  V30 39 H -2.5409 -4.85839 5.79221 0
M  V30 40 H -1.2729 -5.85594 5.1449 0
M  V30 41 N 2.9562 -1.48159 -0.537278 0
M  V30 42 C 4.3722 -1.34118 -0.865129 0
M  V30 43 C 4.5722 -0.346678 -1.98495 0
M  V30 44 O 3.6282 0.234715 -2.51407 0
M  V30 45 C 4.9412 -2.73963 -1.23954 0
M  V30 46 C 6.4892 -2.82397 -1.34984 0
M  V30 47 C 6.9642 -4.22928 -1.75772 0
M  V30 48 N 8.4552 -4.25566 -1.82887 0
M  V30 49 C 9.1902 -5.31235 -2.15817 0
M  V30 50 N 8.6862 -6.47189 -2.47222 0
M  V30 51 N 10.4792 -5.18624 -2.16761 0
M  V30 52 H 2.6302 -2.1144 0.201715 0
M  V30 53 H 4.8932 -0.947598 0.0275949 0
M  V30 54 H 4.5992 -3.48264 -0.490381 0
M  V30 55 H 4.4732 -3.0702 -2.19132 0
M  V30 56 H 6.8602 -2.08356 -2.08978 0
M  V30 57 H 6.9412 -2.5297 -0.379448 0
M  V30 58 H 6.5852 -4.97482 -1.02341 0
M  V30 59 H 6.5152 -4.49794 -2.73848 0
M  V30 60 H 9.0062 -3.41924 -1.60924 0
M  V30 61 H 9.3192 -7.23564 -2.71433 0
M  V30 62 H 7.6642 -6.50476 -2.44757 0
M  V30 63 H 10.8552 -4.27056 -1.91679 0
M  V30 64 H 11.0282 -6.01078 -2.42093 0
M  V30 65 N 4.4343 0.785586 -1.36625 0
M  V30 66 C 5.3643 1.91259 -1.33949 0
M  V30 67 C 6.3453 1.68795 -0.210325 0
M  V30 68 O 7.5303 1.89854 -0.408561 0
M  V30 69 C 4.6603 3.28339 -1.13186 0
M  V30 70 C 3.6143 3.65335 -2.22967 0
M  V30 71 C 2.9403 5.00806 -1.87342 0
M  V30 72 C 4.2403 3.7352 -3.65075 0
M  V30 73 H 5.9343 1.93755 -2.28253 0
M  V30 74 H 3.4803 0.930788 -1.09874 0
M  V30 75 H 5.4333 4.06804 -1.09948 0
M  V30 76 H 4.1573 3.2624 -0.153332 0
M  V30 77 H 2.8163 2.89169 -2.25337 0
M  V30 78 H 2.4643 4.95233 -0.880545 0
M  V30 79 H 2.1643 5.26529 -2.60846 0
M  V30 80 H 3.6883 5.81687 -1.85667 0
M  V30 81 H 5.1023 4.42168 -3.64911 0
M  V30 82 H 3.4993 4.10731 -4.37516 0
M  V30 83 H 4.5693 2.74527 -3.99703 0
M  V30 84 N 5.9124 1.20967 1.01018 0
M  V30 85 C 7.1584 1.02526 1.74975 0
M  V30 86 C 7.4914 -0.4408 1.89131 0
M  V30 87 O 6.7664 -1.32718 1.42184 0
M  V30 88 C 7.0494 1.71699 3.1653 0
M  V30 89 C 6.9024 3.25791 3.10129 0
M  V30 90 C 8.2214 1.45531 4.15342 0
M  V30 91 H 5.3404 0.373863 0.635134 0
M  V30 92 H 7.9824 1.49071 1.17805 0
M  V30 93 H 6.1324 1.32128 3.65341 0
M  V30 94 H 7.8044 3.74697 2.69072 0
M  V30 95 H 6.0474 3.56363 2.47362 0
M  V30 96 H 6.7184 3.69353 4.10222 0
M  V30 97 H 9.1944 1.79872 3.75213 0
M  V30 98 H 8.0704 1.96453 5.1254 0
M  V30 99 H 8.3314 0.384237 4.40427 0
M  V30 100 N 7.3905 -1.2043 1.01659 0
M  V30 101 C 8.6305 -1.91507 0.714456 0
M  V30 102 C 8.9945 -1.77073 -0.742237 0
M  V30 103 O 10.1955 -2.42631 -1.15688 0
M  V30 104 C 8.4665 -3.38795 1.13809 0
M  V30 105 S 10.0255 -4.28216 0.957925 0
M  V30 106 H 6.8435 -0.661571 0.260471 0
M  V30 107 H 9.4455 -1.45671 1.30384 0
M  V30 108 H 8.1495 -3.46822 2.19415 0
M  V30 109 H 7.6805 -3.89656 0.541474 0
M  V30 110 H 9.6955 -4.96007 -0.138531 0
M  V30 111 N 8.8686 -0.792821 -1.36206 0
M  V30 112 C 10.1146 -0.36733 -1.99446 0
M  V30 113 C 10.4476 1.05917 -1.62774 0
M  V30 114 O 9.7226 1.7324 -0.88421 0
M  V30 115 C 10.0056 -0.535044 -3.56103 0
M  V30 116 C 9.8586 -2.00548 -4.02617 0
M  V30 117 C 11.1776 0.0478191 -4.40074 0
M  V30 118 H 8.2966 -0.134941 -0.724541 0
M  V30 119 H 10.9386 -0.999794 -1.61568 0
M  V30 120 H 9.0886 0.00336329 -3.885 0
M  V30 121 H 10.7606 -2.60521 -3.80692 0
M  V30 122 H 9.0036 -2.50686 -3.54032 0
M  V30 123 H 9.6746 -2.07377 -5.11565 0
M  V30 124 H 12.1506 -0.411822 -4.14057 0
M  V30 125 H 11.0266 -0.0995336 -5.4881 0
M  V30 126 H 11.2876 1.14025 -4.27142 0
M  V30 127 N 10.3467 1.47872 -0.545128 0
M  V30 128 C 11.2767 2.32661 0.197793 0
M  V30 129 C 12.2577 1.43041 0.920504 0
M  V30 130 O 13.4427 1.71912 0.90333 0
M  V30 131 C 10.5727 3.24569 1.23582 0
M  V30 132 C 9.5267 4.23333 0.630323 0
M  V30 133 C 8.8527 5.0448 1.77211 0
M  V30 134 C 10.1527 5.20704 -0.407974 0
M  V30 135 H 11.8467 2.95024 -0.510045 0
M  V30 136 H 9.3927 1.4187 -0.246731 0
M  V30 137 H 11.3457 3.8272 1.76362 0
M  V30 138 H 10.0697 2.60236 1.97344 0
M  V30 139 H 8.7287 3.6639 0.123922 0
M  V30 140 H 8.3767 4.36561 2.49847 0
M  V30 141 H 8.0767 5.71339 1.37281 0
M  V30 142 H 9.6007 5.65487 2.3034 0
M  V30 143 H 11.0147 5.7329 0.033305 0
M  V30 144 H 9.4117 5.95699 -0.725486 0
M  V30 145 H 10.4817 4.66917 -1.30828 0
M  V30 146 N 11.8248 0.280983 1.55075 0
M  V30 147 C 12.7548 -0.597469 2.25727 0
M  V30 148 C 13.7358 -1.15417 1.24952 0
M  V30 149 O 14.9208 -1.18722 1.53684 0
M  V30 150 C 12.0508 -1.7789 2.98283 0
M  V30 151 C 11.0048 -1.35347 4.06036 0
M  V30 152 C 10.3308 -2.61846 4.66198 0
M  V30 153 C 11.6308 -0.499354 5.19907 0
M  V30 154 H 13.3248 -0.00824265 2.99399 0
M  V30 155 H 10.8708 -0.0025244 1.44 0
M  V30 156 H 12.8238 -2.39937 3.46422 0
M  V30 157 H 11.5478 -2.39405 2.22155 0
M  V30 158 H 10.2068 -0.756156 3.58717 0
M  V30 159 H 9.8548 -3.21632 3.86732 0
M  V30 160 H 9.5548 -2.3409 5.38958 0
M  V30 161 H 11.0788 -3.24732 5.1709 0
M  V30 162 H 12.4928 -1.02498 5.64063 0
M  V30 163 H 10.8898 -0.316424 5.99265 0
M  V30 164 H 11.9598 0.480459 4.82514 0
M  V30 165 N 13.3029 -1.57598 0.00835791 0
M  V30 166 C 14.5489 -1.91211 -0.675732 0
M  V30 167 C 14.8819 -0.883139 -1.72958 0
M  V30 168 O 14.1569 0.097016 -1.94258 0
M  V30 169 C 14.4399 -3.35379 -1.31123 0
M  V30 170 C 14.2929 -4.48999 -0.268356 0
M  V30 171 C 15.6119 -3.7912 -2.23508 0
M  V30 172 H 12.7309 -0.695374 -0.244179 0
M  V30 173 H 15.3729 -1.89901 0.0613655 0
M  V30 174 H 13.5229 -3.36626 -1.93946 0
M  V30 175 H 15.1949 -4.59887 0.360844 0
M  V30 176 H 13.4379 -4.31873 0.408482 0
M  V30 177 H 14.1089 -5.46851 -0.752218 0
M  V30 178 H 16.5849 -3.79477 -1.70693 0
M  V30 179 H 15.4609 -4.80729 -2.64936 0
M  V30 180 H 15.7219 -3.13455 -3.11766 0
M  V30 181 N 14.781 0.264519 -1.55364 0
M  V30 182 C 16.021 1.00254 -1.78125 0
M  V30 183 C 16.385 1.83187 -0.575017 0
M  V30 184 O 17.586 2.60029 -0.681042 0
M  V30 185 C 15.857 1.85478 -3.05504 0
M  V30 186 S 17.416 2.6543 -3.49417 0
M  V30 187 H 14.234 0.337522 -0.625779 0
M  V30 188 H 16.836 0.272111 -1.93597 0
M  V30 189 H 15.54 1.23491 -3.9138 0
M  V30 190 H 15.071 2.62827 -2.92721 0
M  V30 191 H 17.086 3.87958 -3.09359 0
M  V30 192 N 16.2591 1.48442 0.529413 0
M  V30 193 C 17.4841 1.60406 1.31471 0
M  V30 194 C 17.9091 0.264738 1.86228 0
M  V30 195 O 17.2671 -0.763668 1.64432 0
M  V30 196 C 17.3151 2.65419 2.44101 0
M  V30 197 O 16.4191 2.22618 3.47153 0
M  V30 198 H 15.7601 0.537863 0.389357 0
M  V30 199 H 18.2901 1.94432 0.636965 0
M  V30 200 H 18.3001 2.86709 2.90279 0
M  V30 201 H 16.9751 3.62652 2.03608 0
M  V30 202 H 15.5521 2.11543 3.0709 0
M  V30 203 N 17.7372 -0.778329 1.37039 0
M  V30 204 C 18.9622 -1.57248 1.35233 0
M  V30 205 C 19.3872 -1.87999 -0.0615568 0
M  V30 206 O 18.7452 -1.48734 -1.03672 0
M  V30 207 C 18.7932 -2.86353 2.19167 0
M  V30 208 O 17.8972 -3.80442 1.59178 0
M  V30 209 H 17.2382 -0.476569 0.462362 0
M  V30 210 H 19.7682 -0.963853 1.80474 0
M  V30 211 H 19.7782 -3.35519 2.32145 0
M  V30 212 H 18.4532 -2.63299 3.21942 0
M  V30 213 H 17.0302 -3.39067 1.55203 0
M  V30 214 N 19.2153 -1.21501 -1.00376 0
M  V30 215 C 20.1783 -0.976927 -2.07337 0
M  V30 216 C 21.1783 0.0525322 -1.60714 0
M  V30 217 O 22.3683 -0.184869 -1.73216 0
M  V30 218 C 19.5003 -0.473423 -3.37597 0
M  V30 219 H 20.6933 -1.92587 -2.29892 0
M  V30 220 H 18.2463 -1.03217 -1.17371 0
M  V30 221 H 18.9813 0.480379 -3.20722 0
M  V30 222 H 18.7663 -1.216 -3.72768 0
M  V30 223 H 20.2563 -0.32675 -4.1632 0
M  V30 224 N 20.6934 1.19889 -1.02296 0
M  V30 225 C 21.9394 1.89701 -0.717033 0
M  V30 226 C 22.2724 1.7905 0.751989 0
M  V30 227 O 21.5474 1.17891 1.547 0
M  V30 228 C 21.8304 3.40858 -1.16136 0
M  V30 229 C 21.6834 3.60411 -2.69117 0
M  V30 230 C 23.0024 4.33876 -0.737549 0
M  V30 231 H 20.1214 0.688874 -0.261957 0
M  V30 232 H 22.7634 1.41154 -1.27183 0
M  V30 233 H 20.9134 3.82335 -0.689342 0
M  V30 234 H 22.5854 3.28145 -3.2422 0
M  V30 235 H 20.8284 3.03665 -3.0979 0
M  V30 236 H 21.4994 4.66396 -2.95261 0
M  V30 237 H 23.9754 4.00081 -1.14344 0
M  V30 238 H 22.8514 5.38242 -1.0764 0
M  V30 239 H 23.1124 4.40628 0.360436 0
M  V30 240 N 22.1715 0.800033 1.35784 0
M  V30 241 C 23.1345 0.211565 2.28221 0
M  V30 242 C 24.1345 -0.59728 1.49296 0
M  V30 243 O 25.3245 -0.416721 1.69142 0
M  V30 244 C 22.4565 -0.705846 3.33513 0
M  V30 245 H 23.6495 1.02677 2.81776 0
M  V30 246 H 21.2025 0.570211 1.45528 0
M  V30 247 H 21.9375 -1.54498 2.85133 0
M  V30 248 H 21.7225 -0.127655 3.91892 0
M  V30 249 H 23.2125 -1.11211 4.02519 0
M  V30 250 N 23.6496 -1.47581 0.552962 0
M  V30 251 C 24.5816 -2.27997 -0.234533 0
M  V30 252 C 25.5946 -1.36753 -0.883321 0
M  V30 253 O 26.7836 -1.61612 -0.757889 0
M  V30 254 C 23.8836 -3.10879 -1.34935 0
M  V30 255 C 23.0566 -4.30056 -0.798158 0
M  V30 256 C 22.1156 -4.94567 -1.79694 0
M  V30 257 O 21.1416 -5.53087 -1.34474 0
M  V30 258 N 22.3436 -4.88878 -3.13015 0
M  V30 259 H 25.1086 -2.96222 0.455255 0
M  V30 260 H 22.6696 -1.57163 0.388761 0
M  V30 261 H 24.6616 -3.50903 -2.01616 0
M  V30 262 H 23.2316 -2.44924 -1.94244 0
M  V30 263 H 22.4516 -3.94174 0.0453079 0
M  V30 264 H 23.7396 -5.07152 -0.409173 0
M  V30 265 H 23.1376 -4.42526 -3.52402 0
M  V30 266 H 21.6946 -5.32934 -3.75266 0
M  V30 267 N 25.1277 -0.289203 -1.54924 0
M  V30 268 C 26.0577 0.58549 -2.2604 0
M  V30 269 C 27.0387 1.14753 -1.25562 0
M  V30 270 O 28.2237 1.17906 -1.54311 0
M  V30 271 C 25.3537 1.76305 -2.99222 0
M  V30 272 C 24.3077 1.33191 -4.06748 0
M  V30 273 C 23.6337 2.5937 -4.6758 0
M  V30 274 C 24.9337 0.471775 -5.20165 0
M  V30 275 H 26.6277 -0.00763532 -2.99399 0
M  V30 276 H 24.1737 -0.00511229 -1.43999 0
M  V30 277 H 26.1267 2.38097 -3.47689 0
M  V30 278 H 24.8507 2.38223 -2.23422 0
M  V30 279 H 23.5097 0.737121 -3.59113 0
M  V30 280 H 23.1577 3.19576 -3.88433 0
M  V30 281 H 22.8577 2.31228 -5.40192 0
M  V30 282 H 24.3817 3.21985 -5.18804 0
M  V30 283 H 25.7957 0.995056 -5.64599 0
M  V30 284 H 24.1927 0.284639 -5.99425 0
M  V30 285 H 25.2627 -0.506041 -4.82252 0
M  V30 286 N 26.6058 1.57591 -0.0167156 0
M  V30 287 C 27.5558 2.05953 0.978137 0
M  V30 288 C 28.5398 0.957532 1.29306 0
M  V30 289 O 29.7318 1.22119 1.28125 0
M  V30 290 C 26.8608 2.58006 2.26468 0
M  V30 291 C 25.9468 3.75113 1.97867 0
M  V30 292 N 26.3378 4.86187 1.39486 0
M  V30 293 C 24.6358 3.83363 2.27924 0
M  V30 294 C 25.3368 5.67502 1.27735 0
M  V30 295 N 24.3128 5.14023 1.76866 0
M  V30 296 H 28.1148 2.89236 0.521522 0
M  V30 297 H 25.6288 1.61301 0.188596 0
M  V30 298 H 27.6258 2.90937 2.98599 0
M  V30 299 H 26.2858 1.76148 2.72767 0
M  V30 300 H 27.2968 5.06695 1.07147 0
M  V30 301 H 23.9738 3.1239 2.76982 0
M  V30 302 H 25.3638 6.66791 0.826978 0
M  V30 303 N 28.0839 -0.256276 1.55502 0
M  V30 304 C 29.0309 -1.31714 1.89526 0
M  V30 305 C 30.0009 -1.4828 0.748479 0
M  V30 306 O 31.1859 -1.62416 1.00128 0
M  V30 307 C 28.3259 -2.66933 2.18725 0
M  V30 308 C 27.4389 -2.58452 3.4616 0
M  V30 309 C 26.5739 -3.85961 3.64976 0
M  V30 310 C 25.6129 -3.72059 4.86044 0
M  V30 311 N 24.7499 -4.9144 5.01429 0
M  V30 312 H 29.5899 -1.01998 2.80001 0
M  V30 313 H 27.1269 -0.492413 1.38613 0
M  V30 314 H 29.0849 -3.4563 2.33657 0
M  V30 315 H 27.7149 -2.94816 1.31466 0
M  V30 316 H 26.7669 -1.71374 3.3961 0
M  V30 317 H 28.0789 -2.44085 4.34999 0
M  V30 318 H 27.2329 -4.73101 3.79816 0
M  V30 319 H 25.9719 -4.03215 2.74353 0
M  V30 320 H 24.9769 -2.83302 4.7119 0
M  V30 321 H 26.2019 -3.56309 5.78118 0
M  V30 322 H 24.1479 -5.09072 4.13741 0
M  V30 323 H 24.0649 -4.79668 5.84341 0
M  V30 324 H 25.3329 -5.80104 5.20672 0
M  V30 325 N 29.562 -1.4872 -0.521534 0
M  V30 326 C 30.839 -1.4766 -1.2828 0
M  V30 327 C 31.219 -0.19292 -2.10217 0
M  V30 328 O 30.567 0.825193 -2.13079 0
M  V30 329 C 30.777 -2.74358 -2.15705 0
M  V30 330 C 32.125 -3.23028 -2.75569 0
M  V30 331 O 33.149 -2.75333 -2.25987 0
M  V30 332 O 32.008 -4.0604 -3.65778 0
M  V30 333 H 29.102 -0.590085 -0.579421 0
M  V30 334 H 31.648 -1.60963 -0.537492 0
M  V30 335 H 30.42 -3.59292 -1.54999 0
M  V30 336 H 30.043 -2.63816 -2.97467 0
M  V30 337 N 31.0401 0.771051 -1.3745 0
M  V30 338 C 32.4511 1.34737 -1.29239 0
M  V30 339 C 32.8021 1.96109 0.0596908 0
M  V30 340 O 31.9271 1.93865 0.961534 0
M  V30 341 C 32.5221 2.44973 -2.34037 0
M  V30 342 C 31.0811 2.98372 -2.29458 0
M  V30 343 C 30.2281 1.71595 -2.17831 0
M  V30 344 H 33.1791 0.571256 -1.48062 0
M  V30 345 H 33.2001 3.24471 -1.98744 0
M  V30 346 H 32.7121 2.00276 -3.32432 0
M  V30 347 H 30.8131 3.47443 -1.34589 0
M  V30 348 H 30.9261 3.53939 -3.229 0
M  V30 349 H 29.2901 1.94547 -1.64388 0
M  V30 350 H 30.0731 1.29001 -3.18141 0
M  V30 351 N 32.5182 1.22032 0.997298 0
M  V30 352 C 33.7462 1.06841 1.7718 0
M  V30 353 C 34.1612 -0.381325 1.84909 0
M  V30 354 O 33.5182 -1.26437 1.31605 0
M  V30 355 C 33.5692 1.66814 3.20711 0
M  V30 356 O 33.2902 3.06116 3.13408 0
M  V30 357 C 34.7912 1.56838 4.14628 0
M  V30 358 H 32.0112 0.374782 0.556578 0
M  V30 359 H 34.5552 1.61532 1.2541 0
M  V30 360 H 32.7102 1.16196 3.69564 0
M  V30 361 H 33.1242 3.34926 4.0364 0
M  V30 362 H 34.5982 2.03532 5.13107 0
M  V30 363 H 35.0752 0.524155 4.36061 0
M  V30 364 H 35.6812 2.06741 3.7167 0
M  V30 365 N 33.9963 -1.19345 1.0293 0
M  V30 366 C 34.9263 -2.2481 0.631105 0
M  V30 367 C 35.9073 -1.66245 -0.360104 0
M  V30 368 O 37.0923 -1.92677 -0.242726 0
M  V30 369 C 34.2223 -3.47295 -0.0184607 0
M  V30 370 C 33.1763 -4.18536 0.895073 0
M  V30 371 C 32.5023 -5.34586 0.110592 0
M  V30 372 C 33.8023 -4.73287 2.209 0
M  V30 373 H 35.4963 -2.58372 1.51275 0
M  V30 374 H 33.0423 -1.24194 0.728818 0
M  V30 375 H 34.9953 -4.20268 -0.308675 0
M  V30 376 H 33.7193 -3.12933 -0.934907 0
M  V30 377 H 32.3783 -3.47446 1.16949 0
M  V30 378 H 32.0263 -4.96469 -0.807902 0
M  V30 379 H 31.7263 -5.83183 0.719087 0
M  V30 380 H 33.2503 -6.10355 -0.172871 0
M  V30 381 H 34.6643 -5.38013 1.98028 0
M  V30 382 H 33.0613 -5.32373 2.76946 0
M  V30 383 H 34.1313 -3.91331 2.86336 0
M  V30 384 N 35.4744 -0.807222 -1.35358 0
M  V30 385 C 36.7514 -0.311126 -1.9311 0
M  V30 386 C 37.1314 1.19937 -1.73719 0
M  V30 387 O 36.4794 1.99918 -1.10657 0
M  V30 388 C 36.6894 -0.723226 -3.41424 0
M  V30 389 C 38.0374 -0.713078 -4.18569 0
M  V30 390 O 39.0614 -0.664811 -3.49941 0
M  V30 391 O 37.9204 -0.772022 -5.41019 0
M  V30 392 H 35.0144 -0.081526 -0.822972 0
M  V30 393 H 37.5604 -0.890962 -1.4443 0
M  V30 394 H 36.3324 -1.76426 -3.4927 0
M  V30 395 H 35.9554 -0.118232 -3.97424 0
M  V30 396 N 36.9525 1.47285 -0.560781 0
M  V30 397 C 37.9025 2.27073 0.205384 0
M  V30 398 C 38.8865 1.34569 0.882044 0
M  V30 399 O 40.0785 1.58899 0.77976 0
M  V30 400 C 37.2075 3.20414 1.23247 0
M  V30 401 C 36.2935 4.20399 0.559041 0
M  V30 402 N 36.6845 5.04423 -0.372927 0
M  V30 403 C 34.9825 4.38536 0.812522 0
M  V30 404 C 35.6835 5.76655 -0.764446 0
M  V30 405 N 34.6595 5.43471 -0.11848 0
M  V30 406 H 38.4615 2.89422 -0.511117 0
M  V30 407 H 35.9755 1.57868 -0.380975 0
M  V30 408 H 37.9725 3.76262 1.79534 0
M  V30 409 H 36.6325 2.59623 1.95002 0
M  V30 410 H 37.6435 5.1248 -0.747287 0
M  V30 411 H 34.3205 3.88913 1.51832 0
M  V30 412 H 35.7105 6.54238 -1.53045 0
M  V30 413 N 38.4306 0.297415 1.54768 0
M  V30 414 C 39.3806 -0.595275 2.20092 0
M  V30 415 C 40.3646 -1.10163 1.17273 0
M  V30 416 O 41.5566 -1.043 1.43006 0
M  V30 417 C 38.6856 -1.7684 2.94249 0
M  V30 418 C 37.7716 -1.27818 4.0438 0
M  V30 419 N 38.1626 -0.505695 5.03266 0
M  V30 420 C 36.4606 -1.55923 4.17857 0
M  V30 421 C 37.1616 -0.245094 5.81183 0
M  V30 422 N 36.1376 -0.823881 5.3732 0
M  V30 423 H 39.9396 0.00250837 2.939 0
M  V30 424 H 37.4536 0.102007 1.62079 0
M  V30 425 H 39.4506 -2.41944 3.39513 0
M  V30 426 H 38.1106 -2.36992 2.21957 0
M  V30 427 H 39.1216 -0.150928 5.1768 0
M  V30 428 H 35.7986 -2.16849 3.56767 0
M  V30 429 H 37.1886 0.375084 6.70852 0
M  V30 430 N 39.9087 -1.5758 0.0250728 0
M  V30 431 C 41.1547 -1.92746 -0.649648 0
M  V30 432 C 41.5097 -0.901588 -1.69968 0
M  V30 433 O 40.8027 0.0829251 -1.9142 0
M  V30 434 C 40.9967 -3.32421 -1.31268 0
M  V30 435 C 40.8257 -4.48499 -0.328394 0
M  V30 436 C 39.5957 -5.05251 0.070284 0
M  V30 437 C 41.7937 -5.12618 0.415665 0
M  V30 438 N 39.7757 -6.04851 1.05016 0
M  V30 439 C 41.1467 -6.0728 1.24943 0
M  V30 440 C 43.2017 -4.95612 0.476803 0
M  V30 441 C 41.9047 -6.86766 2.1388 0
M  V30 442 C 43.9307 -5.75703 1.3535 0
M  V30 443 C 43.2927 -6.69978 2.17504 0
M  V30 444 H 39.3917 -0.753231 -0.210159 0
M  V30 445 H 41.9757 -1.94486 0.0912999 0
M  V30 446 H 40.1467 -3.31508 -2.02379 0
M  V30 447 H 41.8787 -3.54946 -1.94411 0
M  V30 448 H 38.6337 -4.72628 -0.303323 0
M  V30 449 H 39.0577 -6.5934 1.53622 0
M  V30 450 H 43.6997 -4.22554 -0.144105 0
M  V30 451 H 41.4177 -7.59132 2.77027 0
M  V30 452 H 45.0037 -5.64579 1.40504 0
M  V30 453 H 43.8837 -7.30873 2.84244 0
M  V30 454 N 41.3868 0.248026 -1.55636 0
M  V30 455 C 42.3368 1.30994 -1.86614 0
M  V30 456 C 43.3208 1.43543 -0.726918 0
M  V30 457 O 44.5128 1.46804 -0.988818 0
M  V30 458 C 41.6418 2.6656 -2.16335 0
M  V30 459 C 40.7278 2.58019 -3.36581 0
M  V30 460 N 41.1188 2.1911 -4.55878 0
M  V30 461 C 39.4168 2.89035 -3.39669 0
M  V30 462 C 40.1178 2.21174 -5.38012 0
M  V30 463 N 39.0938 2.60632 -4.77045 0
M  V30 464 H 42.8958 0.999583 -2.76379 0
M  V30 465 H 40.4098 0.456652 -1.55848 0
M  V30 466 H 42.4068 3.43194 -2.36692 0
M  V30 467 H 41.0668 2.98463 -1.27867 0
M  V30 468 H 42.0778 1.90672 -4.81523 0
M  V30 469 H 38.7548 3.25485 -2.61469 0
M  V30 470 H 40.1448 1.9344 -6.43452 0
M  V30 471 N 42.8649 1.48995 0.513639 0
M  V30 472 C 43.7949 1.67636 1.62544 0
M  V30 473 C 44.7759 0.525087 1.61793 0
M  V30 474 O 45.9609 0.759502 1.78732 0
M  V30 475 C 43.0909 1.73114 3.01079 0
M  V30 476 C 42.0449 2.87905 3.16693 0
M  V30 477 C 41.3709 2.78486 4.56453 0
M  V30 478 C 42.6709 4.29005 2.97913 0
M  V30 479 H 44.3649 2.60716 1.47198 0
M  V30 480 H 41.9109 1.25465 0.706714 0
M  V30 481 H 43.8639 1.84742 3.78746 0
M  V30 482 H 42.5879 0.766241 3.17484 0
M  V30 483 H 41.2469 2.75859 2.41448 0
M  V30 484 H 40.8949 1.7993 4.69717 0
M  V30 485 H 40.5949 3.55523 4.67843 0
M  V30 486 H 42.1189 2.92104 5.36197 0
M  V30 487 H 43.5329 4.41798 3.65359 0
M  V30 488 H 41.9299 5.07166 3.20785 0
M  V30 489 H 42.9999 4.44329 1.94165 0
M  V30 490 N 44.343 -0.763751 1.37857 0
M  V30 491 C 45.589 -1.52396 1.3471 0
M  V30 492 C 45.944 -1.92288 -0.0656435 0
M  V30 493 O 45.237 -1.6181 -1.02606 0
M  V30 494 C 45.431 -2.79499 2.22745 0
M  V30 495 C 45.26 -2.52031 3.72438 0
M  V30 496 C 44.03 -2.45759 4.4151 0
M  V30 497 C 46.228 -2.19489 4.65112 0
M  V30 498 N 44.21 -2.1046 5.76697 0
M  V30 499 C 45.581 -1.94396 5.88736 0
M  V30 500 C 47.636 -2.05712 4.53417 0
M  V30 501 C 46.339 -1.56917 7.01975 0
M  V30 502 C 48.365 -1.69634 5.66549 0
M  V30 503 C 47.727 -1.45407 6.89229 0
M  V30 504 H 43.826 -0.55765 0.548225 0
M  V30 505 H 46.41 -0.890302 1.73152 0
M  V30 506 H 44.581 -3.4069 1.86507 0
M  V30 507 H 46.313 -3.45465 2.10798 0
M  V30 508 H 43.068 -2.61885 3.94605 0
M  V30 509 H 43.492 -1.95484 6.48163 0
M  V30 510 H 48.134 -2.23123 3.59133 0
M  V30 511 H 45.852 -1.38246 7.96187 0
M  V30 512 H 49.438 -1.59621 5.59475 0
M  V30 513 H 48.318 -1.17904 7.75286 0
M  V30 514 N 45.8211 -1.22559 -0.990812 0
M  V30 515 C 46.7681 -0.997519 -2.0813 0
M  V30 516 C 47.7381 0.0814702 -1.659 0
M  V30 517 O 48.9231 -0.0685424 -1.90677 0
M  V30 518 C 46.0631 -0.583615 -3.40129 0
M  V30 519 C 45.1761 -1.7336 -3.9569 0
M  V30 520 C 44.3111 -1.26748 -5.15857 0
M  V30 521 C 43.3501 -2.38888 -5.63559 0
M  V30 522 N 42.4871 -1.93308 -6.74964 0
M  V30 523 H 47.3271 -1.93099 -2.26973 0
M  V30 524 H 44.8641 -0.962114 -1.11273 0
M  V30 525 H 46.8221 -0.324801 -4.15934 0
M  V30 526 H 45.4521 0.312845 -3.2128 0
M  V30 527 H 44.5041 -2.10669 -3.16738 0
M  V30 528 H 45.8161 -2.57704 -4.27071 0
M  V30 529 H 44.9701 -0.966173 -5.98957 0
M  V30 530 H 43.7091 -0.394272 -4.86104 0
M  V30 531 H 42.7141 -2.69805 -4.79046 0
M  V30 532 H 43.9391 -3.26728 -5.95336 0
M  V30 533 H 41.8851 -1.08352 -6.4699 0
M  V30 534 H 41.8021 -2.71217 -7.05675 0
M  V30 535 H 43.0701 -1.66252 -7.61564 0
M  V30 536 N 47.2992 1.18797 -1.03562 0
M  V30 537 C 48.2462 2.22253 -0.622259 0
M  V30 538 C 49.2162 1.61987 0.36736 0
M  V30 539 O 50.4012 1.88986 0.262492 0
M  V30 540 C 47.5412 3.45097 0.0138462 0
M  V30 541 C 46.6542 4.19722 -1.02263 0
M  V30 542 C 45.7892 5.30009 -0.355573 0
M  V30 543 C 44.8282 5.96399 -1.37749 0
M  V30 544 N 43.9652 6.98234 -0.735766 0
M  V30 545 H 48.8052 2.56968 -1.50903 0
M  V30 546 H 46.3422 1.26245 -0.755017 0
M  V30 547 H 48.3002 4.15279 0.399948 0
M  V30 548 H 46.9302 3.11018 0.864158 0
M  V30 549 H 45.9822 3.48418 -1.52673 0
M  V30 550 H 47.2942 4.65227 -1.79903 0
M  V30 551 H 46.4482 6.0664 0.0850095 0
M  V30 552 H 45.1872 4.85592 0.452967 0
M  V30 553 H 44.1922 5.18512 -1.82826 0
M  V30 554 H 45.4172 6.42899 -2.18764 0
M  V30 555 H 43.3632 6.55979 0.0525597 0
M  V30 556 H 43.2802 7.41965 -1.44995 0
M  V30 557 H 44.5482 7.78845 -0.31941 0
M  V30 558 N 48.7773 0.814389 1.34928 0
M  V30 559 C 50.0053 0.411136 2.02774 0
M  V30 560 C 50.4203 -0.980316 1.61354 0
M  V30 561 O 49.7773 -1.63299 0.814847 0
M  V30 562 C 49.8283 0.493865 3.58111 0
M  V30 563 O 49.5493 1.83047 3.98027 0
M  V30 564 C 51.0503 0.0844174 4.4322 0
M  V30 565 H 48.2703 0.166037 0.650133 0
M  V30 566 H 50.8143 1.10018 1.72384 0
M  V30 567 H 48.9693 -0.147006 3.87121 0
M  V30 568 H 49.3833 1.79872 4.92693 0
M  V30 569 H 50.8573 0.193404 5.51661 0
M  V30 570 H 51.3343 -0.97113 4.28329 0
M  V30 571 H 51.9403 0.69875 4.19521 0
M  V30 572 N 50.2554 -1.46986 0.568584 0
M  V30 573 C 51.4854 -2.0653 0.0539173 0
M  V30 574 C 51.8934 -1.42004 -1.25026 0
M  V30 575 O 51.2364 -0.514541 -1.76347 0
M  V30 576 C 51.2984 -3.58938 -0.200854 0
M  V30 577 C 50.9624 -4.45572 1.01559 0
M  V30 578 C 51.9594 -4.82986 1.92407 0
M  V30 579 C 49.6444 -4.8692 1.23346 0
M  V30 580 C 51.6384 -5.60559 3.03402 0
M  V30 581 C 49.3254 -5.64255 2.34649 0
M  V30 582 C 50.3234 -6.00986 3.24507 0
M  V30 583 O 50.0114 -6.76761 4.33878 0
M  V30 584 H 49.7434 -0.674292 0.0480234 0
M  V30 585 H 52.2974 -1.89812 0.784896 0
M  V30 586 H 50.5274 -3.73911 -0.986279 0
M  V30 587 H 52.2164 -4.0046 -0.662294 0
M  V30 588 H 52.9824 -4.51633 1.76785 0
M  V30 589 H 48.8614 -4.57789 0.543178 0
M  V30 590 H 52.4054 -5.89147 3.73565 0
M  V30 591 H 48.3024 -5.95021 2.5024 0
M  V30 592 H 49.0704 -6.95168 4.32068 0
M  V30 593 N 51.7335 -0.305618 -1.54608 0
M  V30 594 C 52.9815 0.301701 -1.99835 0
M  V30 595 C 53.3025 1.54054 -1.19551 0
M  V30 596 O 52.5725 1.93702 -0.292658 0
M  V30 597 H 51.1525 0.114468 -0.738178 0
M  V30 598 H 53.8145 -0.418016 -1.90364 0
M  V30 599 H 52.9105 0.570548 -3.06841 0
M  V30 600 N 53.2116 1.57565 -0.0334293 0
M  V30 601 C 54.1586 2.10478 0.946981 0
M  V30 602 C 55.1286 1.00787 1.32027 0
M  V30 603 O 56.3136 1.28232 1.41284 0
M  V30 604 C 53.4536 2.63994 2.22263 0
M  V30 605 C 52.5666 3.87709 1.90541 0
M  V30 606 C 51.7016 4.29604 3.12433 0
M  V30 607 C 50.7406 5.46065 2.76549 0
M  V30 608 N 49.8776 5.83096 3.9108 0
M  V30 609 H 54.7176 2.93963 0.488846 0
M  V30 610 H 52.2546 1.45296 0.22969 0
M  V30 611 H 54.2126 2.93114 2.96884 0
M  V30 612 H 52.8426 1.83333 2.65685 0
M  V30 613 H 51.8946 3.65291 1.06144 0
M  V30 614 H 53.2066 4.72403 1.60116 0
M  V30 615 H 52.3606 4.60182 3.9537 0
M  V30 616 H 51.0996 3.43685 3.46023 0
M  V30 617 H 50.1046 5.15176 1.92026 0
M  V30 618 H 51.3296 6.33685 2.44171 0
M  V30 619 H 49.2756 5.00132 4.24504 0
M  V30 620 H 49.1926 6.6244 3.64293 0
M  V30 621 H 50.4606 6.18282 4.74708 0
M  V30 622 N 54.6897 -0.239769 1.55765 0
M  V30 623 C 55.6217 -1.32001 1.87372 0
M  V30 624 C 56.6347 -1.43944 0.760522 0
M  V30 625 O 57.8237 -1.45167 1.0387 0
M  V30 626 C 54.9237 -2.69779 2.05115 0
M  V30 627 C 54.0967 -2.80014 3.36022 0
M  V30 628 C 53.1557 -3.98684 3.4342 0
M  V30 629 O 52.1817 -3.87877 4.16582 0
M  V30 630 N 53.3837 -5.12176 2.73232 0
M  V30 631 H 56.1487 -1.0522 2.80622 0
M  V30 632 H 53.7097 -0.429857 1.56089 0
M  V30 633 H 55.7017 -3.47517 2.07399 0
M  V30 634 H 54.2717 -2.89237 1.18577 0
M  V30 635 H 53.4917 -1.88896 3.45994 0
M  V30 636 H 54.7797 -2.83808 4.22292 0
M  V30 637 H 54.1777 -5.2385 2.13536 0
M  V30 638 H 52.7347 -5.88022 2.81199 0
M  V30 639 N 56.1678 -1.49265 -0.50573 0
M  V30 640 C 57.3978 -1.61979 -1.28243 0
M  V30 641 C 57.8058 -0.288576 -1.86986 0
M  V30 642 O 57.1488 0.735408 -1.68337 0
M  V30 643 C 57.2108 -2.62632 -2.45489 0
M  V30 644 C 56.8748 -4.071 -2.07651 0
M  V30 645 C 57.8718 -4.94049 -1.61901 0
M  V30 646 C 55.5568 -4.52801 -2.17431 0
M  V30 647 C 57.5508 -6.24736 -1.26428 0
M  V30 648 C 55.2378 -5.83503 -1.8157 0
M  V30 649 C 56.2358 -6.69294 -1.36142 0
M  V30 650 O 55.9238 -7.9756 -1.00764 0
M  V30 651 H 55.6558 -0.54834 -0.395347 0
M  V30 652 H 58.2098 -1.96002 -0.614204 0
M  V30 653 H 56.4398 -2.2378 -3.15372 0
M  V30 654 H 58.1288 -2.64925 -3.07522 0
M  V30 655 H 58.8948 -4.5997 -1.53795 0
M  V30 656 H 54.7738 -3.86196 -2.51742 0
M  V30 657 H 58.3178 -6.91652 -0.908992 0
M  V30 658 H 54.2148 -6.17112 -1.89324 0
M  V30 659 H 54.9828 -8.10529 -1.13952 0
M  V30 660 N 57.6459 0.756429 -1.3826 0
M  V30 661 C 58.5929 1.87011 -1.35261 0
M  V30 662 C 59.5629 1.64695 -0.215616 0
M  V30 663 O 60.7479 1.864 -0.407399 0
M  V30 664 C 57.8879 3.24275 -1.18068 0
M  V30 665 C 57.0009 3.58442 -2.41129 0
M  V30 666 C 56.1359 4.84994 -2.16689 0
M  V30 667 C 55.1749 5.11939 -3.35537 0
M  V30 668 N 54.3119 6.29685 -3.10549 0
M  V30 669 H 59.1519 1.8891 -2.30472 0
M  V30 670 H 56.6889 0.923373 -1.14509 0
M  V30 671 H 58.6469 4.03479 -1.06116 0
M  V30 672 H 57.2769 3.21711 -0.264973 0
M  V30 673 H 56.3289 2.74103 -2.63764 0
M  V30 674 H 57.6409 3.74283 -3.29717 0
M  V30 675 H 56.7949 5.72135 -2.01857 0
M  V30 676 H 55.5339 4.71286 -1.25462 0
M  V30 677 H 54.5389 4.23268 -3.50891 0
M  V30 678 H 55.7639 5.27546 -4.27635 0
M  V30 679 H 53.7099 6.17306 -2.21967 0
M  V30 680 H 53.6269 6.46014 -3.92686 0
M  V30 681 H 54.8949 7.19722 -2.99367 0
M  V30 682 N 59.124 1.23083 0.984299 0
M  V30 683 C 60.034 1.02515 2.11016 0
M  V30 684 C 61.05 -0.0291702 1.73976 0
M  V30 685 O 62.226 0.165434 2.00719 0
M  V30 686 C 59.291 0.614673 3.41208 0
M  V30 687 C 58.352 1.74359 3.92297 0
M  V30 688 C 57.585 1.35261 5.16275 0
M  V30 689 O 57.808 0.235136 5.69915 0
M  V30 690 O 56.742 2.17227 5.61334 0
M  V30 691 H 60.568 1.96862 2.31255 0
M  V30 692 H 58.153 1.01753 1.09392 0
M  V30 693 H 60.035 0.396518 4.1953 0
M  V30 694 H 58.71 -0.299851 3.22308 0
M  V30 695 H 57.617 2.01635 3.1511 0
M  V30 696 H 58.95 2.63629 4.15645 0
M  V30 697 N 60.6021 -1.18246 1.0419 0
M  V30 698 C 61.5491 -2.2192 0.634037 0
M  V30 699 C 62.5191 -1.62179 -0.358765 0
M  V30 700 O 63.7041 -1.89122 -0.252466 0
M  V30 701 C 60.8441 -3.451 0.00445535 0
M  V30 702 C 59.9571 -4.19174 1.04487 0
M  V30 703 C 59.0921 -5.29813 0.383676 0
M  V30 704 C 58.1311 -5.9566 1.4091 0
M  V30 705 N 57.2681 -6.97834 0.772784 0
M  V30 706 H 62.1081 -2.56164 1.52263 0
M  V30 707 H 59.6451 -1.25843 0.761701 0
M  V30 708 H 61.6031 -4.15485 -0.377919 0
M  V30 709 H 60.2331 -3.11472 -0.847652 0
M  V30 710 H 59.2851 -3.47604 1.54518 0
M  V30 711 H 60.5971 -4.64267 1.82368 0
M  V30 712 H 59.7511 -6.06677 -0.0528366 0
M  V30 713 H 58.4901 -4.85825 -0.427208 0
M  V30 714 H 57.4951 -5.17535 1.85574 0
M  V30 715 H 58.7201 -6.4173 2.22171 0
M  V30 716 H 56.6661 -6.55998 -0.0177708 0
M  V30 717 H 56.5831 -7.41186 1.48928 0
M  V30 718 H 57.8511 -7.78665 0.36071 0
M  V30 719 N 62.0802 -0.821533 -1.34494 0
M  V30 720 C 63.0282 -0.230702 -2.31453 0
M  V30 721 C 64.0222 0.627793 -1.57338 0
M  V30 722 O 65.2282 0.519288 -1.72347 0
M  V30 723 H 61.6032 -0.0558577 -0.749923 0
M  V30 724 H 63.5742 -1.06332 -2.78812 0
M  V30 725 C 62.3232 0.59391 -3.4259 0
M  V30 726 H 61.6462 -0.0573588 -3.99759 0
M  V30 727 H 63.0862 0.973446 -4.12674 0
M  V30 728 C 61.5452 1.76568 -2.86924 0
M  V30 729 O 62.0752 2.8638 -2.81691 0
M  V30 730 N 60.2812 1.58198 -2.43766 0
M  V30 731 H 59.8282 0.68872 -2.48222 0
M  V30 732 H 59.7862 2.36752 -2.06871 0
M  V30 733 N 63.5583 1.46682 -0.576371 0
M  V30 734 C 64.4683 2.34032 0.163141 0
M  V30 735 C 65.4843 1.49367 0.892501 0
M  V30 736 O 66.6603 1.82252 0.857106 0
M  V30 737 C 63.7253 3.26435 1.16795 0
M  V30 738 C 62.7863 4.26998 0.443944 0
M  V30 739 C 62.0193 5.14986 1.40088 0
M  V30 740 O 62.2423 5.05785 2.637 0
M  V30 741 O 61.1763 5.94906 0.914917 0
M  V30 742 H 65.0023 2.98607 -0.55388 0
M  V30 743 H 62.5873 1.45554 -0.336821 0
M  V30 744 H 64.4693 3.83459 1.74748 0
M  V30 745 H 63.1443 2.64465 1.86655 0
M  V30 746 H 62.0513 3.7368 -0.177271 0
M  V30 747 H 63.3843 4.91736 -0.213566 0
M  V30 748 N 65.0364 0.313813 1.54444 0
M  V30 749 C 65.9464 -0.565714 2.27677 0
M  V30 750 C 66.9624 -1.13754 1.31666 0
M  V30 751 O 68.1384 -1.15959 1.64668 0
M  V30 752 C 65.2034 -1.71528 3.01296 0
M  V30 753 C 64.2644 -1.17624 4.12872 0
M  V30 754 C 63.4974 -2.27102 4.8297 0
M  V30 755 O 63.7204 -3.47256 4.52514 0
M  V30 756 O 62.6544 -1.9307 5.70094 0
M  V30 757 H 66.4804 0.0287296 3.03686 0
M  V30 758 H 64.0654 0.0798312 1.49187 0
M  V30 759 H 65.9474 -2.38476 3.4743 0
M  V30 760 H 64.6224 -2.29608 2.2817 0
M  V30 761 H 63.5294 -0.472124 3.71109 0
M  V30 762 H 64.8624 -0.640695 4.88012 0
M  V30 763 N 66.5145 -1.57545 0.0417849 0
M  V30 764 C 67.4775 -2.09885 -0.92093 0
M  V30 765 C 68.4775 -1.01648 -1.24596 0
M  V30 766 O 69.6675 -1.27759 -1.1842 0
M  V30 767 C 66.7995 -2.57527 -2.23367 0
M  V30 768 H 67.9925 -2.96236 -0.467382 0
M  V30 769 H 65.5455 -1.5493 -0.206467 0
M  V30 770 H 66.2805 -1.74542 -2.73323 0
M  V30 771 H 66.0655 -3.36613 -2.01083 0
M  V30 772 H 67.5555 -2.98201 -2.92346 0
M  V30 773 N 67.9926 0.231505 -1.5589 0
M  V30 774 C 69.2386 0.95877 -1.78705 0
M  V30 775 C 69.5716 1.8438 -0.609725 0
M  V30 776 O 68.8466 1.90521 0.391426 0
M  V30 777 C 69.1296 1.8062 -3.11526 0
M  V30 778 C 68.9826 0.948328 -4.39689 0
M  V30 779 C 70.3016 2.78585 -3.40703 0
M  V30 780 H 67.4206 0.347129 -0.650131 0
M  V30 781 H 70.0626 0.228259 -1.88624 0
M  V30 782 H 68.2126 2.42902 -3.03201 0
M  V30 783 H 69.8846 0.343016 -4.60023 0
M  V30 784 H 68.1276 0.253314 -4.3306 0
M  V30 785 H 68.7986 1.57543 -5.29041 0
M  V30 786 H 71.2746 2.26439 -3.49091 0
M  V30 787 H 70.1506 3.34988 -4.34826 0
M  V30 788 H 70.4116 3.55825 -2.62375 0
M  V30 789 N 69.4707 1.49531 0.497807 0
M  V30 790 C 70.8867 1.36365 0.829266 0
M  V30 791 C 71.0867 0.399184 1.97506 0
M  V30 792 O 70.1427 -0.167977 2.51941 0
M  V30 793 C 71.4557 2.77153 1.16647 0
M  V30 794 C 73.0037 2.85877 1.27449 0
M  V30 795 C 73.4787 4.2744 1.64497 0
M  V30 796 N 74.9697 4.30265 1.7154 0
M  V30 797 C 75.7047 5.3677 2.01656 0
M  V30 798 N 75.2007 6.53516 2.29976 0
M  V30 799 N 76.9937 5.24189 2.02934 0
M  V30 800 H 69.1447 2.10831 -0.257703 0
M  V30 801 H 71.4077 0.946534 -0.0527091 0
M  V30 802 H 71.1137 3.49442 0.397872 0
M  V30 803 H 70.9877 3.12722 2.10915 0
M  V30 804 H 73.3747 2.13824 2.0338 0
M  V30 805 H 73.4557 2.53887 0.312244 0
M  V30 806 H 73.0997 5.00021 0.891151 0
M  V30 807 H 73.0297 4.56896 2.61827 0
M  V30 808 H 75.5207 3.4607 1.51802 0
M  V30 809 H 75.8337 7.30506 2.52153 0
M  V30 810 H 74.1787 6.56737 2.27425 0
M  V30 811 H 77.3697 4.31988 1.80289 0
M  V30 812 H 77.5427 6.07286 2.26071 0
M  V30 813 N 70.9488 -0.749086 1.3866 0
M  V30 814 C 72.3648 -1.05276 1.19955 0
M  V30 815 C 72.5648 -2.01435 0.05134 0
M  V30 816 O 71.6208 -2.45232 -0.60147 0
M  V30 817 C 72.9338 -1.62853 2.52783 0
M  V30 818 C 74.4818 -1.75002 2.59506 0
M  V30 819 C 74.9568 -2.35991 3.92521 0
M  V30 820 N 76.4478 -2.43416 3.94085 0
M  V30 821 C 77.1828 -2.91511 4.9377 0
M  V30 822 N 76.6788 -3.39608 6.03853 0
M  V30 823 N 78.4718 -2.90592 4.81157 0
M  V30 824 H 70.6228 -0.111066 2.12109 0
M  V30 825 H 72.8858 -0.111901 0.941373 0
M  V30 826 H 72.5918 -0.99664 3.37283 0
M  V30 827 H 72.4658 -2.61854 2.715 0
M  V30 828 H 74.8528 -2.37317 1.75398 0
M  V30 829 H 74.9338 -0.74693 2.44652 0
M  V30 830 H 74.5778 -1.74308 4.77053 0
M  V30 831 H 74.5078 -3.3695 4.04688 0
M  V30 832 H 76.9988 -2.09405 3.14576 0
M  V30 833 H 77.3118 -3.74775 6.75843 0
M  V30 834 H 75.6568 -3.37653 6.07466 0
M  V30 835 H 78.8478 -2.52332 3.94267 0
M  V30 836 H 79.0208 -3.27762 5.58996 0
M  V30 837 N 72.4269 -1.23603 -0.977757 0
M  V30 838 C 73.3569 -1.04401 -2.0886 0
M  V30 839 C 74.3379 0.0399052 -1.70053 0
M  V30 840 O 75.5229 -0.125246 -1.93796 0
M  V30 841 C 72.6529 -0.637269 -3.41403 0
M  V30 842 C 71.6069 -1.66883 -3.94124 0
M  V30 843 C 70.9329 -1.11745 -5.22893 0
M  V30 844 C 72.2329 -3.06247 -4.23096 0
M  V30 845 H 73.9269 -1.97316 -2.25182 0
M  V30 846 H 71.4729 -0.950096 -1.08209 0
M  V30 847 H 73.4259 -0.48998 -4.18542 0
M  V30 848 H 72.1499 0.327557 -3.24953 0
M  V30 849 H 70.8089 -1.80416 -3.19133 0
M  V30 850 H 70.4569 -0.143527 -5.02795 0
M  V30 851 H 70.1569 -1.80672 -5.59134 0
M  V30 852 H 71.6809 -0.982067 -6.02651 0
M  V30 853 H 73.0949 -2.96001 -4.90975 0
M  V30 854 H 71.4919 -3.72436 -4.70544 0
M  V30 855 H 72.5619 -3.55041 -3.30263 0
M  V30 856 N 73.905 1.17692 -1.04816 0
M  V30 857 C 75.154 1.87192 -0.751132 0
M  V30 858 C 75.467 1.8169 0.724441 0
M  V30 859 O 76.673 2.46625 1.13527 0
M  V30 860 C 75.129 3.35857 -1.29338 0
M  V30 861 C 74.737 3.4987 -2.79812 0
M  V30 862 C 76.481 4.10709 -1.07322 0
M  V30 863 C 74.388 4.92536 -3.27356 0
M  V30 864 H 73.318 0.701162 -0.277288 0
M  V30 865 H 75.969 1.32932 -1.26496 0
M  V30 866 H 74.351 3.89631 -0.707376 0
M  V30 867 H 75.525 3.06332 -3.44235 0
M  V30 868 H 73.84 2.88433 -3.00325 0
M  V30 869 H 76.437 5.15952 -1.4035 0
M  V30 870 H 76.78 4.16299 -0.0108001 0
M  V30 871 H 77.313 3.6313 -1.62423 0
M  V30 872 H 74.052 4.92119 -4.33012 0
M  V30 873 H 73.572 5.3676 -2.67673 0
M  V30 874 H 75.251 5.61288 -3.21815 0
M  V30 875 N 75.3831 0.828654 1.34056 0
M  V30 876 C 76.6291 0.429279 1.98818 0
M  V30 877 C 76.9841 -0.998011 1.64492 0
M  V30 878 O 76.2771 -1.68652 0.909228 0
M  V30 879 C 76.4711 0.575226 3.52741 0
M  V30 880 C 76.3001 2.01515 4.02022 0
M  V30 881 C 75.0701 2.64825 4.30344 0
M  V30 882 C 77.2681 2.98261 4.18981 0
M  V30 883 N 75.2501 3.99998 4.65698 0
M  V30 884 C 76.6211 4.18356 4.57578 0
M  V30 885 C 78.6761 2.94802 4.01243 0
M  V30 886 C 77.3791 5.35454 4.80293 0
M  V30 887 C 79.4051 4.11121 4.25128 0
M  V30 888 C 78.7671 5.29969 4.64018 0
M  V30 889 H 74.8661 0.205304 0.754569 0
M  V30 890 H 77.4501 1.07457 1.62361 0
M  V30 891 H 75.6211 -0.0401962 3.88379 0
M  V30 892 H 77.3531 0.148292 4.04428 0
M  V30 893 H 74.1081 2.16027 4.21461 0
M  V30 894 H 74.5321 4.69653 4.87601 0
M  V30 895 H 79.1741 2.04054 3.70299 0
M  V30 896 H 76.8921 6.26755 5.10102 0
M  V30 897 H 80.4781 4.0985 4.12934 0
M  V30 898 H 79.3581 6.18479 4.82134 0
M  V30 899 N 76.8612 -1.46375 0.584142 0
M  V30 900 C 77.7712 -2.34115 -0.150728 0
M  V30 901 C 78.7872 -1.49838 -0.884567 0
M  V30 902 O 79.9632 -1.82704 -0.847429 0
M  V30 903 C 77.0282 -3.2705 -1.15062 0
M  V30 904 C 76.0892 -4.27228 -0.421293 0
M  V30 905 C 75.3222 -5.15722 -1.37355 0
M  V30 906 O 75.5452 -5.07176 -2.61014 0
M  V30 907 O 74.4792 -5.95383 -0.883355 0
M  V30 908 H 78.3052 -2.98309 0.569708 0
M  V30 909 H 75.8902 -1.45373 0.344535 0
M  V30 910 H 77.7722 -3.84381 -1.72712 0
M  V30 911 H 76.4472 -2.65451 -1.8525 0
M  V30 912 H 75.3542 -3.7358 0.197085 0
M  V30 913 H 76.6872 -4.91616 0.239641 0
M  V30 914 N 78.3393 -0.321999 -1.54275 0
M  V30 915 C 79.2863 0.544664 -2.24281 0
M  V30 916 C 80.2563 1.1129 -1.23303 0
M  V30 917 O 81.4413 1.15354 -1.51981 0
M  V30 918 C 78.5813 1.70045 -3.00298 0
M  V30 919 C 77.6943 1.16159 -4.1609 0
M  V30 920 C 76.8293 2.28293 -4.79641 0
M  V30 921 C 75.8683 1.71648 -5.8754 0
M  V30 922 N 75.0053 2.77438 -6.44959 0
M  V30 923 H 79.8453 -0.0588907 -2.97942 0
M  V30 924 H 77.3823 -0.0408345 -1.47043 0
M  V30 925 H 79.3403 2.38054 -3.42616 0
M  V30 926 H 77.9703 2.27531 -2.28975 0
M  V30 927 H 77.0223 0.373092 -3.78566 0
M  V30 928 H 78.3343 0.707087 -4.93763 0
M  V30 929 H 77.4883 3.0421 -5.2492 0
M  V30 930 H 76.2273 2.77079 -4.01346 0
M  V30 931 H 75.2323 0.942282 -5.41665 0
M  V30 932 H 76.4573 1.23741 -6.67731 0
M  V30 933 H 74.4033 3.25519 -5.69538 0
M  V30 934 H 74.3203 2.36547 -7.1804 0
M  V30 935 H 75.5883 3.53189 -6.94894 0
M  V30 936 N 79.8174 1.5752 -0.0501392 0
M  V30 937 C 80.7654 2.12651 0.942459 0
M  V30 938 C 81.7594 1.05807 1.32292 0
M  V30 939 O 82.9654 1.24217 1.3027 0
M  V30 940 H 79.3404 0.679673 0.321789 0
M  V30 941 H 81.3114 2.94951 0.452356 0
M  V30 942 C 80.0604 2.68565 2.20836 0
M  V30 943 H 79.3834 3.50439 1.92439 0
M  V30 944 H 80.8234 3.10761 2.8845 0
M  V30 945 C 79.2824 1.62291 2.95234 0
M  V30 946 O 79.8124 1.03508 3.88135 0
M  V30 947 N 78.0184 1.33836 2.57946 0
M  V30 948 H 77.5654 1.81826 1.82475 0
M  V30 949 H 77.5234 0.629595 3.08032 0
M  V30 950 N 81.2955 -0.223234 1.56011 0
M  V30 951 C 82.2255 -1.27988 1.95298 0
M  V30 952 C 83.2065 -1.48976 0.820979 0
M  V30 953 O 84.3915 -1.61188 1.08315 0
M  V30 954 C 81.5215 -2.63 2.26822 0
M  V30 955 C 80.4755 -2.56671 3.42497 0
M  V30 956 C 79.8015 -3.95697 3.59622 0
M  V30 957 C 81.1015 -2.11601 4.77517 0
M  V30 958 H 82.7955 -0.953525 2.8381 0
M  V30 959 H 80.3415 -0.457244 1.36548 0
M  V30 960 H 82.2945 -3.37077 2.52898 0
M  V30 961 H 81.0185 -2.9732 1.35161 0
M  V30 962 H 79.6775 -1.85051 3.16467 0
M  V30 963 H 79.3255 -4.27322 2.6534 0
M  V30 964 H 79.0255 -3.92345 4.37424 0
M  V30 965 H 80.5495 -4.71438 3.88044 0
M  V30 966 H 81.9635 -2.7542 5.02809 0
M  V30 967 H 80.3605 -2.19311 5.5859 0
M  V30 968 H 81.4305 -1.06824 4.72987 0
M  V30 969 N 82.7736 -1.49793 -0.48987 0
M  V30 970 C 83.7206 -1.67281 -1.59014 0
M  V30 971 C 84.6906 -0.514177 -1.57941 0
M  V30 972 O 85.8756 -0.742533 -1.75759 0
M  V30 973 C 83.0156 -1.75569 -2.97102 0
M  V30 974 C 82.1286 -3.0281 -3.08107 0
M  V30 975 C 81.2636 -3.02008 -4.36995 0
M  V30 976 C 80.3026 -4.23782 -4.41673 0
M  V30 977 N 79.4396 -4.20826 -5.62005 0
M  V30 978 H 84.2796 -2.61224 -1.43409 0
M  V30 979 H 81.8166 -1.29508 -0.697565 0
M  V30 980 H 83.7746 -1.78354 -3.77155 0
M  V30 981 H 82.4046 -0.850827 -3.11385 0
M  V30 982 H 81.4566 -3.09584 -2.21047 0
M  V30 983 H 82.7686 -3.92801 -3.07423 0
M  V30 984 H 81.9226 -3.03418 -5.25378 0
M  V30 985 H 80.6616 -2.09815 -4.4026 0
M  V30 986 H 79.6666 -4.22604 -3.5169 0
M  V30 987 H 80.8916 -5.17181 -4.40115 0
M  V30 988 H 78.8376 -3.31476 -5.66091 0
M  V30 989 H 78.7546 -5.04564 -5.62984 0
M  V30 990 H 80.0226 -4.26355 -6.52565 0
M  V30 991 N 84.2517 0.741722 -1.39055 0
M  V30 992 C 85.4987 1.50114 -1.35912 0
M  V30 993 C 85.8267 1.94443 0.0470937 0
M  V30 994 O 85.0817 1.66612 1.02659 0
M  V30 995 C 85.3807 2.7592 -2.27163 0
M  V30 996 C 85.0467 2.50493 -3.74919 0
M  V30 997 C 83.7087 2.43267 -4.1518 0
M  V30 998 C 86.0607 2.28585 -4.684 0
M  V30 999 C 83.3887 2.12166 -5.46994 0
M  V30 1000 C 85.7407 1.99002 -6.00484 0
M  V30 1001 C 84.4047 1.90241 -6.39816 0
M  V30 1002 H 83.6747 0.549306 -0.497336 0
M  V30 1003 H 86.3217 0.851896 -1.71508 0
M  V30 1004 H 84.6267 3.45553 -1.84663 0
M  V30 1005 H 86.3237 3.33923 -2.22028 0
M  V30 1006 H 82.9137 2.56992 -3.43006 0
M  V30 1007 H 87.0977 2.33139 -4.38132 0
M  V30 1008 H 82.3537 2.03901 -5.76398 0
M  V30 1009 H 86.5277 1.81057 -6.72452 0
M  V30 1010 H 84.1547 1.65907 -7.41875 0
M  V30 1011 N 85.7298 1.2412 0.971189 0
M  V30 1012 C 86.9758 1.08041 1.71625 0
M  V30 1013 C 87.3088 -0.380407 1.90438 0
M  V30 1014 O 86.5838 -1.28127 1.46334 0
M  V30 1015 C 86.8668 1.81682 3.10908 0
M  V30 1016 C 86.7198 3.35493 2.99608 0
M  V30 1017 C 88.0388 1.58671 4.10501 0
M  V30 1018 H 85.1578 0.39388 0.622919 0
M  V30 1019 H 87.7998 1.52743 1.13003 0
M  V30 1020 H 85.9498 1.43684 3.60953 0
M  V30 1021 H 87.6218 3.83068 2.57015 0
M  V30 1022 H 85.8648 3.64052 2.35899 0
M  V30 1023 H 86.5358 3.82217 3.98264 0
M  V30 1024 H 89.0118 1.91719 3.69301 0
M  V30 1025 H 87.8878 2.1266 5.06031 0
M  V30 1026 H 88.1488 0.524161 4.38982 0
M  V30 1027 N 87.2079 -1.17134 1.05439 0
M  V30 1028 C 88.1409 -2.2012 0.601855 0
M  V30 1029 C 89.1189 -1.58314 -0.370854 0
M  V30 1030 O 90.3029 -1.8638 -0.281882 0
M  V30 1031 C 87.4299 -3.38491 -0.118868 0
M  V30 1032 C 86.4759 -4.18752 0.809242 0
M  V30 1033 S 87.3089 -4.83602 2.29977 0
M  V30 1034 C 88.4649 -6.0536 1.59029 0
M  V30 1035 H 88.6979 -2.58165 1.47438 0
M  V30 1036 H 86.2309 -1.27788 0.866573 0
M  V30 1037 H 88.1889 -4.07084 -0.528495 0
M  V30 1038 H 86.8499 -2.98829 -0.967465 0
M  V30 1039 H 86.0429 -5.03373 0.251379 0
M  V30 1040 H 85.6449 -3.5561 1.15835 0
M  V30 1041 H 87.9369 -6.71615 0.891017 0
M  V30 1042 H 88.8799 -6.65679 2.41407 0
M  V30 1043 H 89.2879 -5.54138 1.07663 0
M  V30 1044 N 88.686 -0.835752 -1.33615 0
M  V30 1045 C 89.616 -0.281739 -2.31794 0
M  V30 1046 C 90.597 0.608833 -1.58831 0
M  V30 1047 O 91.782 0.533035 -1.86741 0
M  V30 1048 C 88.912 0.546612 -3.42971 0
M  V30 1049 C 87.866 -0.247904 -4.27281 0
M  V30 1050 C 87.192 0.704001 -5.30045 0
M  V30 1051 C 88.492 -1.46324 -5.01385 0
M  V30 1052 H 90.186 -1.10206 -2.78379 0
M  V30 1053 H 87.732 -0.531388 -1.33837 0
M  V30 1054 H 89.685 0.944467 -4.1068 0
M  V30 1055 H 88.409 1.40011 -2.95067 0
M  V30 1056 H 87.068 -0.627281 -3.61194 0
M  V30 1057 H 86.716 1.55381 -4.78399 0
M  V30 1058 H 86.416 0.176524 -5.87335 0
M  V30 1059 H 87.94 1.09944 -6.0062 0
M  V30 1060 H 89.354 -1.13871 -5.61877 0
M  V30 1061 H 87.751 -1.92728 -5.6831 0
M  V30 1062 H 88.821 -2.23467 -4.30338 0
M  V30 1063 N 90.1641 1.46063 -0.591896 0
M  V30 1064 C 91.1141 2.27458 0.157172 0
M  V30 1065 C 92.0981 1.3641 0.853301 0
M  V30 1066 O 93.2901 1.60517 0.74588 0
M  V30 1067 C 90.4191 3.22956 1.16423 0
M  V30 1068 C 89.5051 4.2149 0.469742 0
M  V30 1069 N 89.8961 5.03519 -0.479839 0
M  V30 1070 C 88.1941 4.40161 0.719319 0
M  V30 1071 C 88.8951 5.74904 -0.886591 0
M  V30 1072 N 87.8711 5.43097 -0.233731 0
M  V30 1073 H 91.6731 2.88272 -0.572392 0
M  V30 1074 H 89.1871 1.57024 -0.414375 0
M  V30 1075 H 91.1841 3.79986 1.71513 0
M  V30 1076 H 89.8441 2.63701 1.89451 0
M  V30 1077 H 90.8551 5.1078 -0.855823 0
M  V30 1078 H 87.5321 3.92046 1.43548 0
M  V30 1079 H 88.9221 6.50844 -1.66888 0
M  V30 1080 N 91.6422 0.330177 1.54103 0
M  V30 1081 C 92.5902 -0.548226 2.26047 0
M  V30 1082 C 93.5842 -1.11309 1.27698 0
M  V30 1083 O 94.7902 -1.06036 1.45452 0
M  V30 1084 H 91.1652 -0.195456 0.726155 0
M  V30 1085 H 93.1362 0.0807567 2.98291 0
M  V30 1086 C 91.8852 -1.69415 3.03634 0
M  V30 1087 H 91.2082 -1.26876 3.79134 0
M  V30 1088 H 92.6482 -2.28423 3.5721 0
M  V30 1089 C 91.1072 -2.61569 2.12328 0
M  V30 1090 O 91.6372 -3.63462 1.7105 0
M  V30 1091 N 89.8432 -2.29952 1.77681 0
M  V30 1092 H 89.3902 -1.47134 2.11446 0
M  V30 1093 H 89.3482 -2.91871 1.16869 0
M  V30 1094 N 93.1203 -1.57491 0.0584922 0
M  V30 1095 C 94.0503 -2.14988 -0.911178 0
M  V30 1096 C 95.0313 -1.07343 -1.31952 0
M  V30 1097 O 96.2163 -1.35318 -1.39294 0
M  V30 1098 C 93.3463 -2.70078 -2.18347 0
M  V30 1099 C 92.3003 -3.82771 -1.91495 0
M  V30 1100 C 91.6263 -4.24408 -3.25241 0
M  V30 1101 C 92.9263 -5.07592 -1.23075 0
M  V30 1102 H 94.6203 -2.96263 -0.432246 0
M  V30 1103 H 92.1663 -1.42512 -0.206469 0
M  V30 1104 H 94.1193 -3.08943 -2.86587 0
M  V30 1105 H 92.8433 -1.86005 -2.68458 0
M  V30 1106 H 91.5023 -3.44389 -1.25664 0
M  V30 1107 H 91.1503 -3.37275 -3.73168 0
M  V30 1108 H 90.8503 -5.00366 -3.08071 0
M  V30 1109 H 92.3743 -4.65879 -3.94701 0
M  V30 1110 H 93.7883 -5.43857 -1.81362 0
M  V30 1111 H 92.1853 -5.88741 -1.16207 0
M  V30 1112 H 93.2553 -4.84454 -0.207847 0
M  V30 1113 N 94.5984 0.214957 -1.56127 0
M  V30 1114 C 95.5084 1.28727 -1.96129 0
M  V30 1115 C 96.5244 1.50916 -0.866044 0
M  V30 1116 O 97.7004 1.63918 -1.17016 0
M  V30 1117 C 94.7654 2.61569 -2.27558 0
M  V30 1118 C 93.8264 2.47625 -3.50685 0
M  V30 1119 C 93.0594 3.74132 -3.80606 0
M  V30 1120 O 93.2824 4.77438 -3.12104 0
M  V30 1121 O 92.2164 3.70849 -4.74083 0
M  V30 1122 H 96.0424 0.977855 -2.87527 0
M  V30 1123 H 93.6274 0.418358 -1.43423 0
M  V30 1124 H 95.5094 3.40012 -2.48938 0
M  V30 1125 H 94.1844 2.92178 -1.39332 0
M  V30 1126 H 93.0914 1.67361 -3.34576 0
M  V30 1127 H 94.4244 2.21954 -4.39315 0
M  V30 1128 N 96.0765 1.50051 0.48192 0
M  V30 1129 C 97.0265 1.64512 1.5786 0
M  V30 1130 C 98.0105 0.500073 1.52932 0
M  V30 1131 O 99.2025 0.753964 1.60139 0
M  V30 1132 C 96.3315 1.73263 2.9637 0
M  V30 1133 C 95.4175 2.93409 3.06222 0
M  V30 1134 N 95.8085 4.17236 2.85915 0
M  V30 1135 C 94.1065 2.91742 3.37346 0
M  V30 1136 C 94.8075 4.981 3.00451 0
M  V30 1137 N 93.7835 4.3184 3.30174 0
M  V30 1138 H 97.5855 2.57955 1.40842 0
M  V30 1139 H 95.0995 1.47086 0.688439 0
M  V30 1140 H 97.0965 1.81724 3.75209 0
M  V30 1141 H 95.7565 0.809711 3.14442 0
M  V30 1142 H 96.7675 4.46909 2.6171 0
M  V30 1143 H 93.4445 2.08907 3.61475 0
M  V30 1144 H 94.8345 6.06532 2.89082 0
M  V30 1145 N 97.5546 -0.734337 1.39446 0
M  V30 1146 C 98.7796 -1.52866 1.40167 0
M  V30 1147 C 99.2046 -1.881 -0.00171513 0
M  V30 1148 O 98.5626 -1.51957 -0.988879 0
M  V30 1149 C 98.6106 -2.79235 2.28167 0
M  V30 1150 O 97.7146 -3.75185 1.71201 0
M  V30 1151 H 97.0556 -0.461618 0.477289 0
M  V30 1152 H 99.5856 -0.905949 1.8345 0
M  V30 1153 H 99.5956 -3.27963 2.42702 0
M  V30 1154 H 98.2706 -2.52923 3.30156 0
M  V30 1155 H 96.8476 -3.33958 1.65912 0
M  V30 1156 N 99.0327 -1.24633 -0.964593 0
M  V30 1157 C 99.9657 -0.984662 -2.05863 0
M  V30 1158 C 100.944 0.0826554 -1.6239 0
M  V30 1159 O 102.128 -0.0549296 -1.8842 0
M  V30 1160 C 99.2547 -0.486529 -3.35187 0
M  V30 1161 C 98.3007 -1.54286 -3.97615 0
M  V30 1162 S 99.1337 -3.12513 -4.34851 0
M  V30 1163 C 100.29 -2.6441 -5.67308 0
M  V30 1164 H 100.523 -1.91104 -2.27743 0
M  V30 1165 H 98.0557 -1.08052 -1.10291 0
M  V30 1166 H 100.014 -0.205757 -4.09984 0
M  V30 1167 H 98.6747 0.419186 -3.1129 0
M  V30 1168 H 97.8677 -1.14481 -4.90826 0
M  V30 1169 H 97.4697 -1.7738 -3.2926 0
M  V30 1170 H 99.7617 -2.07416 -6.44969 0
M  V30 1171 H 100.705 -3.56222 -6.11973 0
M  V30 1172 H 101.113 -2.04734 -5.26065 0
M  V30 1173 N 100.511 1.16574 -1.06058 0
M  V30 1174 C 101.759 1.86677 -0.77434 0
M  V30 1175 C 102.08 1.81959 0.701147 0
M  V30 1176 O 101.35 1.2515 1.50713 0
M  V30 1177 H 99.9298 0.691134 -0.283449 0
M  V30 1178 H 102.592 1.41378 -1.34158 0
M  V30 1179 H 101.688 2.92181 -1.09711 0
M  V30 1180 N 101.989 0.842826 1.3317 0
M  V30 1181 C 102.922 0.223862 2.27099 0
M  V30 1182 C 103.9 -0.631311 1.49844 0
M  V30 1183 O 105.084 -0.590708 1.79005 0
M  V30 1184 C 102.211 -0.685313 3.31694 0
M  V30 1185 C 101.257 0.094919 4.26394 0
M  V30 1186 S 102.09 1.45546 5.15341 0
M  V30 1187 C 103.246 0.551685 6.23464 0
M  V30 1188 H 103.479 1.02015 2.79249 0
M  V30 1189 H 101.012 0.639797 1.4052 0
M  V30 1190 H 102.97 -1.20426 3.92438 0
M  V30 1191 H 101.631 -1.4553 2.78352 0
M  V30 1192 H 100.824 -0.597059 5.00451 0
M  V30 1193 H 100.426 0.545054 3.70007 0
M  V30 1194 H 102.718 -0.248877 6.77043 0
M  V30 1195 H 103.661 1.26253 6.96754 0
M  V30 1196 H 104.069 0.131275 5.64347 0
M  V30 1197 N 103.467 -1.45747 0.599634 0
M  V30 1198 C 104.417 -2.27538 -0.145107 0
M  V30 1199 C 105.401 -1.3686 -0.846055 0
M  V30 1200 O 106.593 -1.6091 -0.737357 0
M  V30 1201 C 103.722 -3.23569 -1.14708 0
M  V30 1202 C 102.808 -4.21734 -0.447383 0
M  V30 1203 N 103.199 -5.03257 0.506535 0
M  V30 1204 C 101.497 -4.40536 -0.695966 0
M  V30 1205 C 102.198 -5.74426 0.917068 0
M  V30 1206 N 101.174 -5.42966 0.26253 0
M  V30 1207 H 104.976 -2.87965 0.587672 0
M  V30 1208 H 102.49 -1.56803 0.422697 0
M  V30 1209 H 104.487 -3.8089 -1.69495 0
M  V30 1210 H 103.147 -2.64702 -1.8805 0
M  V30 1211 H 104.158 -5.10319 0.882899 0
M  V30 1212 H 100.835 -3.92802 -1.41467 0
M  V30 1213 H 102.225 -6.4995 1.70338 0
M  V30 1214 N 104.945 -0.338344 -1.53925 0
M  V30 1215 C 106.17 0.263987 -2.05713 0
M  V30 1216 C 106.595 1.43847 -1.21201 0
M  V30 1217 O 105.953 1.79904 -0.224535 0
M  V30 1218 C 106.001 0.662 -3.54471 0
M  V30 1219 O 105.105 1.76265 -3.72833 0
M  V30 1220 H 104.446 0.0448722 -0.662482 0
M  V30 1221 H 106.976 -0.491048 -1.9862 0
M  V30 1222 H 106.986 0.940594 -3.9701 0
M  V30 1223 H 105.661 -0.196937 -4.15433 0
M  V30 1224 H 104.238 1.48173 -3.42198 0
M  V30 1225 N 106.423 1.57458 -0.0668435 0
M  V30 1226 C 107.653 1.97337 0.611677 0
M  V30 1227 C 108.061 0.943744 1.63982 0
M  V30 1228 O 107.404 -0.0785584 1.83532 0
M  V30 1229 C 107.466 3.33511 1.34205 0
M  V30 1230 C 107.13 4.54598 0.467941 0
M  V30 1231 C 108.127 5.19186 -0.272439 0
M  V30 1232 C 105.812 5.0075 0.39427 0
M  V30 1233 C 107.806 6.28274 -1.07476 0
M  V30 1234 C 105.493 6.09711 -0.411729 0
M  V30 1235 C 106.491 6.73335 -1.14492 0
M  V30 1236 O 106.179 7.80199 -1.93763 0
M  V30 1237 H 105.911 0.654042 0.170893 0
M  V30 1238 H 108.465 2.04961 -0.134289 0
M  V30 1239 H 106.695 3.22487 2.13398 0
M  V30 1240 H 108.384 3.58029 1.91233 0
M  V30 1241 H 109.15 4.84477 -0.225086 0
M  V30 1242 H 105.029 4.51009 0.954569 0
M  V30 1243 H 108.573 6.77866 -1.64755 0
M  V30 1244 H 104.47 6.43854 -0.460664 0
M  V30 1245 H 105.238 7.97053 -1.86142 0
M  V30 1246 N 107.901 -0.206675 1.56239 0
M  V30 1247 C 109.178 -0.954051 1.70755 0
M  V30 1248 C 109.558 -2.01841 0.618353 0
M  V30 1249 O 108.906 -2.25444 -0.372434 0
M  V30 1250 C 109.116 -1.551 3.12642 0
M  V30 1251 C 110.464 -2.03757 3.72516 0
M  V30 1252 O 111.488 -1.64965 3.15698 0
M  V30 1253 O 110.347 -2.75103 4.72208 0
M  V30 1254 H 107.441 -0.446636 0.696021 0
M  V30 1255 H 109.987 -0.197283 1.68549 0
M  V30 1256 H 108.759 -0.783212 3.83382 0
M  V30 1257 H 108.382 -2.37291 3.19028 0
M  V30 1258 N 109.379 -1.50304 -0.473955 0
M  V30 1259 C 110.309 -1.71886 -1.58042 0
M  V30 1260 C 111.29 -0.567799 -1.60344 0
M  V30 1261 O 112.475 -0.806623 -1.76656 0
M  V30 1262 C 109.605 -1.81036 -2.96384 0
M  V30 1263 C 108.559 -2.962 -3.08949 0
M  V30 1264 C 107.885 -2.9049 -4.48909 0
M  V30 1265 C 109.185 -4.36752 -2.86434 0
M  V30 1266 H 110.879 -2.64527 -1.40234 0
M  V30 1267 H 108.425 -1.27295 -0.673201 0
M  V30 1268 H 110.378 -1.94719 -3.73714 0
M  V30 1269 H 109.102 -0.850147 -3.15341 0
M  V30 1270 H 107.761 -2.82164 -2.3405 0
M  V30 1271 H 107.409 -1.92321 -4.64781 0
M  V30 1272 H 107.109 -3.67802 -4.58253 0
M  V30 1273 H 108.633 -3.06218 -5.28264 0
M  V30 1274 H 110.047 -4.5133 -3.53517 0
M  V30 1275 H 108.444 -5.15493 -3.07225 0
M  V30 1276 H 109.514 -4.49321 -1.82316 0
M  V30 1277 N 110.857 0.726932 -1.39834 0
M  V30 1278 C 112.105 1.4837 -1.37225 0
M  V30 1279 C 112.426 1.94979 0.0284857 0
M  V30 1280 O 111.696 1.69555 0.981213 0
M  V30 1281 H 110.276 0.55043 -0.505011 0
M  V30 1282 H 112.938 0.862468 -1.74778 0
M  V30 1283 H 112.034 2.36198 -2.04003 0
M  V30 1284 N 112.336 1.25143 0.95797 0
M  V30 1285 C 113.269 0.995565 2.05338 0
M  V30 1286 C 114.247 -0.0740423 1.62431 0
M  V30 1287 O 115.431 0.0649212 1.88388 0
M  V30 1288 C 112.558 0.504298 3.34925 0
M  V30 1289 C 111.604 1.56393 3.96792 0
M  V30 1290 S 112.437 3.14815 4.33188 0
M  V30 1291 C 113.593 2.67415 5.65898 0
M  V30 1292 H 113.826 1.92309 2.26726 0
M  V30 1293 H 111.359 1.08635 1.09716 0
M  V30 1294 H 113.317 0.227497 4.09869 0
M  V30 1295 H 111.978 -0.402671 3.11508 0
M  V30 1296 H 111.171 1.17082 4.90212 0
M  V30 1297 H 110.773 1.79124 3.28315 0
M  V30 1298 H 113.065 2.10833 6.4386 0
M  V30 1299 H 114.008 3.59463 6.10076 0
M  V30 1300 H 114.416 2.07521 5.24972 0
M  V30 1301 N 113.814 -1.1601 1.06675 0
M  V30 1302 C 114.762 -2.22586 0.675157 0
M  V30 1303 C 115.756 -1.66525 -0.310766 0
M  V30 1304 O 116.962 -1.79145 -0.175215 0
M  V30 1305 H 113.337 -0.724855 0.200223 0
M  V30 1306 H 115.308 -2.52899 1.58381 0
M  V30 1307 C 114.057 -3.47604 0.0817162 0
M  V30 1308 H 113.38 -3.91058 0.831484 0
M  V30 1309 H 114.82 -4.23718 -0.154708 0
M  V30 1310 C 113.279 -3.15718 -1.17576 0
M  V30 1311 O 113.809 -3.31878 -2.26318 0
M  V30 1312 N 112.015 -2.69816 -1.07923 0
M  V30 1313 H 111.562 -2.56866 -0.194293 0
M  V30 1314 H 111.52 -2.48855 -1.92141 0
M  V30 1315 N 115.292 -0.849877 -1.32721 0
M  V30 1316 C 116.242 -0.262892 -2.26479 0
M  V30 1317 C 117.226 0.588493 -1.49752 0
M  V30 1318 O 118.418 0.438659 -1.71478 0
M  V30 1319 C 115.547 0.551818 -3.38836 0
M  V30 1320 C 114.633 -0.311689 -4.22953 0
M  V30 1321 N 115.024 -1.39567 -4.86163 0
M  V30 1322 C 113.322 -0.100611 -4.45887 0
M  V30 1323 C 114.023 -1.92651 -5.48872 0
M  V30 1324 N 112.999 -1.22637 -5.29586 0
M  V30 1325 H 116.801 -1.09166 -2.72873 0
M  V30 1326 H 114.315 -0.695486 -1.46754 0
M  V30 1327 H 116.312 0.988713 -4.05006 0
M  V30 1328 H 114.972 1.37844 -2.93988 0
M  V30 1329 H 115.983 -1.77859 -4.86402 0
M  V30 1330 H 112.66 0.691681 -4.11731 0
M  V30 1331 H 114.05 -2.83487 -6.09167 0
M  V30 1332 N 116.77 1.45427 -0.607355 0
M  V30 1333 C 117.7 2.3329 0.0989352 0
M  V30 1334 C 118.681 1.46816 0.859007 0
M  V30 1335 O 119.866 1.75588 0.829604 0
M  V30 1336 C 116.996 3.29518 1.09705 0
M  V30 1337 C 115.95 4.25626 0.450206 0
M  V30 1338 C 115.276 5.11542 1.55655 0
M  V30 1339 C 116.576 5.18505 -0.628455 0
M  V30 1340 H 118.27 2.92595 -0.634716 0
M  V30 1341 H 115.816 1.40696 -0.306681 0
M  V30 1342 H 117.769 3.89855 1.59971 0
M  V30 1343 H 116.493 2.68372 1.86129 0
M  V30 1344 H 115.152 3.66586 -0.0315886 0
M  V30 1345 H 114.8 4.46765 2.31107 0
M  V30 1346 H 114.5 5.76647 1.12925 0
M  V30 1347 H 116.024 5.74748 2.06148 0
M  V30 1348 H 117.438 5.72916 -0.209877 0
M  V30 1349 H 115.835 5.92085 -0.977489 0
M  V30 1350 H 116.905 4.60948 -1.50514 0
M  V30 1351 N 118.248 0.346503 1.53744 0
M  V30 1352 C 119.496 -0.248612 2.00565 0
M  V30 1353 C 119.817 -1.5083 1.23593 0
M  V30 1354 O 119.087 -1.92858 0.343912 0
M  V30 1355 H 117.667 -0.0948564 0.740953 0
M  V30 1356 H 120.329 0.468341 1.89189 0
M  V30 1357 H 119.425 -0.488994 3.08245 0
M  V30 1358 N 119.726 -1.57421 0.075193 0
M  V30 1359 C 121.003 -1.85029 -0.634329 0
M  V30 1360 C 121.383 -0.968305 -1.87582 0
M  V30 1361 O 120.731 -0.0354749 -2.28472 0
M  V30 1362 C 120.941 -3.35286 -0.968742 0
M  V30 1363 C 122.289 -4.02875 -1.34077 0
M  V30 1364 O 123.313 -3.40051 -1.06037 0
M  V30 1365 O 122.172 -5.13691 -1.86506 0
M  V30 1366 H 119.266 -0.7645 -0.315387 0
M  V30 1367 H 121.812 -1.69366 0.106382 0
M  V30 1368 H 120.584 -3.91203 -0.0871376 0
M  V30 1369 H 120.207 -3.56223 -1.7661 0
M  V30 1370 N 121.204 0.198386 -1.56346 0
M  V30 1371 C 122.137 1.27381 -1.89339 0
M  V30 1372 C 123.115 1.44106 -0.753134 0
M  V30 1373 O 124.299 1.59549 -1.00381 0
M  V30 1374 C 121.426 2.6409 -2.12071 0
M  V30 1375 C 120.472 2.64253 -3.34772 0
M  V30 1376 S 121.305 2.16013 -4.89999 0
M  V30 1377 C 122.461 3.54553 -5.15794 0
M  V30 1378 H 122.694 0.992058 -2.8026 0
M  V30 1379 H 120.227 0.401726 -1.49082 0
M  V30 1380 H 122.185 3.42786 -2.2585 0
M  V30 1381 H 120.846 2.89478 -1.21906 0
M  V30 1382 H 120.039 3.64768 -3.47794 0
M  V30 1383 H 119.641 1.93637 -3.1997 0
M  V30 1384 H 121.933 4.50396 -5.06112 0
M  V30 1385 H 122.876 3.46428 -6.1757 0
M  V30 1386 H 123.284 3.49313 -4.43442 0
M  V30 1387 N 122.682 1.50554 0.465978 0
M  V30 1388 C 123.91 1.65563 1.24083 0
M  V30 1389 C 124.325 0.341051 1.85694 0
M  V30 1390 O 123.682 -0.677543 1.69457 0
M  V30 1391 C 123.733 2.75051 2.34583 0
M  V30 1392 O 123.454 4.01413 1.75497 0
M  V30 1393 C 124.955 3.01078 3.25372 0
M  V30 1394 H 122.175 0.55638 0.375077 0
M  V30 1395 H 124.719 1.96807 0.555624 0
M  V30 1396 H 122.874 2.46486 2.9887 0
M  V30 1397 H 123.288 4.62002 2.48303 0
M  V30 1398 H 124.762 3.81339 3.99105 0
M  V30 1399 H 125.239 2.12349 3.84453 0
M  V30 1400 H 125.845 3.31194 2.66816 0
M  V30 1401 N 124.16 -0.719506 1.40217 0
M  V30 1402 C 125.385 -1.51371 1.4178 0
M  V30 1403 C 125.81 -1.88091 0.0182355 0
M  V30 1404 O 125.168 -1.52997 -0.972707 0
M  V30 1405 C 125.216 -2.768 2.31115 0
M  V30 1406 O 124.32 -3.73349 1.7517 0
M  V30 1407 H 123.661 -0.456529 0.482159 0
M  V30 1408 H 126.191 -0.88644 1.844 0
M  V30 1409 H 126.201 -3.25371 2.46167 0
M  V30 1410 H 124.876 -2.49407 3.3282 0
M  V30 1411 H 123.453 -3.32179 1.69444 0
M  V30 1412 N 125.638 -1.25649 -0.95132 0
M  V30 1413 C 126.548 -1.08073 -2.08224 0
M  V30 1414 C 127.564 -0.0169666 -1.73992 0
M  V30 1415 O 128.74 -0.218593 -2.0021 0
M  V30 1416 C 125.805 -0.704922 -3.39458 0
M  V30 1417 C 124.866 -1.84699 -3.87537 0
M  V30 1418 C 124.099 -1.48902 -5.12508 0
M  V30 1419 O 124.322 -0.386156 -5.69091 0
M  V30 1420 O 123.256 -2.32033 -5.55378 0
M  V30 1421 H 127.082 -2.02924 -2.25954 0
M  V30 1422 H 124.667 -1.04618 -1.06656 0
M  V30 1423 H 126.549 -0.507609 -4.18332 0
M  V30 1424 H 125.224 0.214291 -3.2299 0
M  V30 1425 H 124.131 -2.09919 -3.09653 0
M  V30 1426 H 125.464 -2.74557 -4.08509 0
M  V30 1427 N 127.117 1.15442 -1.07289 0
M  V30 1428 C 128.027 2.23786 -0.704057 0
M  V30 1429 C 129.043 1.7166 0.284413 0
M  V30 1430 O 130.219 2.00972 0.131205 0
M  V30 1431 C 127.284 3.46535 -0.106792 0
M  V30 1432 C 126.345 4.13654 -1.14842 0
M  V30 1433 C 125.578 5.30544 -0.57956 0
M  V30 1434 O 125.801 5.67187 0.604585 0
M  V30 1435 O 124.735 5.87154 -1.32414 0
M  V30 1436 H 128.561 2.57664 -1.60757 0
M  V30 1437 H 126.146 1.23152 -0.845803 0
M  V30 1438 H 128.028 4.20804 0.224048 0
M  V30 1439 H 126.703 3.14407 0.770049 0
M  V30 1440 H 125.61 3.4131 -1.5316 0
M  V30 1441 H 126.943 4.49861 -1.99714 0
M  V30 1442 N 128.595 0.856903 1.32268 0
M  V30 1443 C 129.841 0.462069 1.97466 0
M  V30 1444 C 130.174 -0.980298 1.67642 0
M  V30 1445 O 129.449 -1.68824 0.965858 0
M  V30 1446 C 129.732 0.704336 3.53145 0
M  V30 1447 C 129.585 2.19529 3.9259 0
M  V30 1448 C 130.904 0.1622 4.39801 0
M  V30 1449 H 128.023 0.169357 0.717278 0
M  V30 1450 H 130.665 1.07574 1.56614 0
M  V30 1451 H 128.815 0.181999 3.88073 0
M  V30 1452 H 130.487 2.78387 3.67829 0
M  V30 1453 H 128.73 2.67292 3.41668 0
M  V30 1454 H 129.401 2.31549 5.01088 0
M  V30 1455 H 131.877 0.608905 4.11621 0
M  V30 1456 H 130.753 0.361265 5.4771 0
M  V30 1457 H 131.014 -0.935158 4.32096 0
M  V30 1458 N 130.073 -1.45103 0.615059 0
M  V30 1459 C 131.006 -2.27717 -0.148408 0
M  V30 1460 C 131.984 -1.37584 -0.866572 0
M  V30 1461 O 133.168 -1.67017 -0.87393 0
M  V30 1462 C 130.295 -3.16136 -1.21557 0
M  V30 1463 C 129.341 -4.22263 -0.599712 0
M  V30 1464 S 130.174 -5.3215 0.598081 0
M  V30 1465 C 131.33 -6.24137 -0.469484 0
M  V30 1466 H 131.563 -2.92121 0.552483 0
M  V30 1467 H 129.096 -1.49054 0.402778 0
M  V30 1468 H 131.054 -3.67633 -1.82638 0
M  V30 1469 H 129.715 -2.50982 -1.88857 0
M  V30 1470 H 128.908 -4.84081 -1.4029 0
M  V30 1471 H 128.51 -3.73945 -0.063876 0
M  V30 1472 H 130.802 -6.63984 -1.34652 0
M  V30 1473 H 131.745 -7.0801 0.112725 0
M  V30 1474 H 132.153 -5.58971 -0.788168 0
M  V30 1475 N 131.551 -0.354651 -1.53558 0
M  V30 1476 C 132.776 0.242153 -2.05981 0
M  V30 1477 C 133.201 1.42553 -1.2272 0
M  V30 1478 O 132.559 1.79656 -0.243604 0
M  V30 1479 C 132.607 0.624367 -3.55154 0
M  V30 1480 O 131.711 1.72301 -3.74681 0
M  V30 1481 H 131.052 0.0378432 -0.662921 0
M  V30 1482 H 133.582 -0.512087 -1.98088 0
M  V30 1483 H 133.592 0.898433 -3.97985 0
M  V30 1484 H 132.267 -0.240989 -4.15201 0
M  V30 1485 H 130.844 1.44535 -3.4375 0
M  V30 1486 N 133.029 1.57378 -0.0835403 0
M  V30 1487 C 133.959 2.1641 0.87686 0
M  V30 1488 C 134.94 1.09429 1.30228 0
M  V30 1489 O 136.125 1.37516 1.37124 0
M  V30 1490 C 133.255 2.73517 2.14022 0
M  V30 1491 C 132.209 3.85769 1.85381 0
M  V30 1492 C 131.535 4.29529 3.18448 0
M  V30 1493 C 132.835 5.09486 1.14984 0
M  V30 1494 H 134.529 2.96914 0.385059 0
M  V30 1495 H 132.075 1.42823 0.18377 0
M  V30 1496 H 134.028 3.13463 2.81636 0
M  V30 1497 H 132.752 1.90252 2.65465 0
M  V30 1498 H 131.411 3.46345 1.20169 0
M  V30 1499 H 131.059 3.43169 3.67755 0
M  V30 1500 H 130.759 5.05204 3.00071 0
M  V30 1501 H 132.283 4.72099 3.8724 0
M  V30 1502 H 133.697 5.46674 1.72687 0
M  V30 1503 H 132.094 5.90515 1.06826 0
M  V30 1504 H 133.164 4.84724 0.130749 0
M  V30 1505 N 134.507 -0.190092 1.56449 0
M  V30 1506 C 135.44 -1.26375 1.90012 0
M  V30 1507 C 136.418 -1.43705 0.760765 0
M  V30 1508 O 137.602 -1.59014 1.01226 0
M  V30 1509 C 134.729 -2.62962 2.13468 0
M  V30 1510 C 133.775 -2.62474 3.36169 0
M  V30 1511 S 134.608 -2.13412 4.91137 0
M  V30 1512 C 135.764 -3.51812 5.17667 0
M  V30 1513 H 135.997 -0.977181 2.80782 0
M  V30 1514 H 133.53 -0.393814 1.49293 0
M  V30 1515 H 135.488 -3.41583 2.27664 0
M  V30 1516 H 134.149 -2.88828 1.23439 0
M  V30 1517 H 133.342 -3.62918 3.49723 0
M  V30 1518 H 132.944 -1.91937 3.20992 0
M  V30 1519 H 135.236 -4.47706 5.08494 0
M  V30 1520 H 136.179 -3.43148 6.19399 0
M  V30 1521 H 136.587 -3.46956 4.45288 0
M  V30 1522 N 135.985 -1.50799 -0.457987 0
M  V30 1523 C 137.21 -1.66496 -1.23668 0
M  V30 1524 C 137.635 -0.353288 -1.84752 0
M  V30 1525 O 136.993 0.684346 -1.67888 0
M  V30 1526 C 137.041 -2.76763 -2.3116 0
M  V30 1527 O 136.145 -2.38928 -3.36136 0
M  V30 1528 H 135.486 -0.555828 -0.363252 0
M  V30 1529 H 138.016 -1.9725 -0.543474 0
M  V30 1530 H 138.026 -3.00232 -2.76269 0
M  V30 1531 H 136.701 -3.71954 -1.86073 0
M  V30 1532 H 135.278 -2.25953 -2.96647 0
M  V30 1533 N 137.463 0.71206 -1.40597 0
M  V30 1534 C 138.688 1.50617 -1.42581 0
M  V30 1535 C 139.113 1.88079 -0.0282102 0
M  V30 1536 O 138.471 1.53511 0.964579 0
M  V30 1537 C 138.519 2.7557 -2.3258 0
M  V30 1538 O 137.623 3.72414 -1.77148 0
M  V30 1539 H 136.964 0.453966 -0.484573 0
M  V30 1540 H 139.494 0.876649 -1.84868 0
M  V30 1541 H 139.504 3.2406 -2.47889 0
M  V30 1542 H 138.179 2.47639 -3.34138 0
M  V30 1543 H 136.756 3.31276 -1.71204 0
M  V30 1544 N 138.941 1.26152 0.944643 0
M  V30 1545 C 139.871 1.09902 2.06019 0
M  V30 1546 C 140.852 0.00519538 1.70099 0
M  V30 1547 O 142.037 0.176583 1.93396 0
M  V30 1548 C 139.167 0.727562 3.39594 0
M  V30 1549 C 138.121 1.77274 3.89561 0
M  V30 1550 C 137.447 1.25569 5.19747 0
M  V30 1551 C 138.747 3.17357 4.14827 0
M  V30 1552 H 140.441 2.03217 2.19871 0
M  V30 1553 H 137.987 0.978452 1.05652 0
M  V30 1554 H 139.94 0.600777 4.17095 0
M  V30 1555 H 138.664 -0.241287 3.25707 0
M  V30 1556 H 137.323 1.88814 3.14237 0
M  V30 1557 H 136.971 0.276783 5.02238 0
M  V30 1558 H 136.671 1.95433 5.54148 0
M  V30 1559 H 138.195 1.1415 5.99835 0
M  V30 1560 H 139.609 3.08914 4.82954 0
M  V30 1561 H 138.006 3.84781 4.60504 0
M  V30 1562 H 139.076 3.63673 3.20734 0
M  V30 1563 N 140.419 -1.14872 1.07899 0
M  V30 1564 C 141.835 -1.37776 0.805606 0
M  V30 1565 C 142.035 -1.92743 -0.587555 0
M  V30 1566 O 141.091 -2.13678 -1.34528 0
M  V30 1567 C 142.404 -2.34361 1.88402 0
M  V30 1568 C 143.952 -2.48012 1.90942 0
M  V30 1569 C 144.427 -3.47893 2.97883 0
M  V30 1570 N 145.918 -3.55433 2.97021 0
M  V30 1571 C 146.653 -4.32553 3.76412 0
M  V30 1572 N 146.149 -5.12959 4.65666 0
M  V30 1573 N 147.942 -4.27697 3.64735 0
M  V30 1574 H 140.093 -0.775365 1.97742 0
M  V30 1575 H 142.356 -0.403521 0.857831 0
M  V30 1576 H 142.062 -2.01098 2.88535 0
M  V30 1577 H 141.936 -3.34206 1.74889 0
M  V30 1578 H 144.323 -2.8057 0.914579 0
M  V30 1579 H 144.404 -1.48147 2.08534 0
M  V30 1580 H 144.048 -3.16069 3.97571 0
M  V30 1581 H 143.978 -4.47527 2.77538 0
M  V30 1582 H 146.469 -2.98048 2.32326 0
M  V30 1583 H 146.782 -5.69065 5.22862 0
M  V30 1584 H 145.127 -5.12245 4.69712 0
M  V30 1585 H 148.318 -3.63949 2.94378 0
M  V30 1586 H 148.491 -4.8755 4.26848 0
M  V30 1587 N 141.898 -0.863906 -1.31812 0
M  V30 1588 C 143.144 -0.472535 -1.97218 0
M  V30 1589 C 143.477 0.971394 -1.68159 0
M  V30 1590 O 142.752 1.68309 -0.974798 0
M  V30 1591 C 143.035 -0.723054 -3.52766 0
M  V30 1592 C 142.888 -2.21608 -3.91421 0
M  V30 1593 C 144.207 -0.185522 -4.39709 0
M  V30 1594 H 141.326 -0.173158 -0.71637 0
M  V30 1595 H 143.968 -1.08403 -1.56041 0
M  V30 1596 H 142.118 -0.202577 -3.87971 0
M  V30 1597 H 143.79 -2.80334 -3.66347 0
M  V30 1598 H 142.033 -2.691 -3.40246 0
M  V30 1599 H 142.704 -2.34203 -4.99853 0
M  V30 1600 H 145.18 -0.630726 -4.11292 0
M  V30 1601 H 144.056 -0.390306 -5.47511 0
M  V30 1602 H 144.317 0.912229 -4.32586 0
M  V30 1603 N 143.376 1.44774 -0.622745 0
M  V30 1604 C 144.787 1.85546 -0.207226 0
M  V30 1605 C 145.138 1.52093 1.23944 0
M  V30 1606 O 144.263 0.95492 1.94191 0
M  V30 1607 C 144.858 3.36781 -0.369313 0
M  V30 1608 C 143.417 3.76399 -0.00836847 0
M  V30 1609 C 142.564 2.68664 -0.686651 0
M  V30 1610 H 145.515 1.3536 -0.828454 0
M  V30 1611 H 145.536 3.78453 0.394162 0
M  V30 1612 H 145.048 3.61098 -1.42231 0
M  V30 1613 H 143.149 3.57698 1.04322 0
M  V30 1614 H 143.262 4.7732 -0.412584 0
M  V30 1615 H 141.626 2.54404 -0.122777 0
M  V30 1616 H 142.409 2.95815 -1.74208 0
M  V30 1617 N 144.854 0.36279 1.53368 0
M  V30 1618 C 146.079 -0.231226 2.06107 0
M  V30 1619 C 146.504 -1.419 1.23474 0
M  V30 1620 O 145.862 -1.79524 0.253128 0
M  V30 1621 C 145.91 -0.605523 3.5548 0
M  V30 1622 O 145.014 -1.70312 3.7559 0
M  V30 1623 H 144.355 -0.034327 0.663112 0
M  V30 1624 H 146.885 0.522584 1.97814 0
M  V30 1625 H 146.895 -0.877314 3.98456 0
M  V30 1626 H 145.57 0.263004 4.15068 0
M  V30 1627 H 144.147 -1.4271 3.44512 0
M  V30 1628 N 146.332 -1.57332 0.0918853 0
M  V30 1629 C 147.264 -2.10869 -0.898168 0
M  V30 1630 C 148.277 -1.04521 -1.24817 0
M  V30 1631 O 149.466 -1.31977 -1.20184 0
M  V30 1632 C 146.566 -2.57083 -2.2082 0
M  V30 1633 C 145.739 -3.87229 -2.03402 0
M  V30 1634 C 144.798 -4.19324 -3.17889 0
M  V30 1635 O 143.824 -4.88598 -2.91994 0
M  V30 1636 N 145.026 -3.74471 -4.43567 0
M  V30 1637 H 147.791 -2.96439 -0.440943 0
M  V30 1638 H 145.352 -1.61631 -0.0933064 0
M  V30 1639 H 147.344 -2.75602 -2.96354 0
M  V30 1640 H 145.914 -1.76541 -2.57977 0
M  V30 1641 H 145.134 -3.7789 -1.12218 0
M  V30 1642 H 146.422 -4.72379 -1.89038 0
M  V30 1643 H 145.82 -3.18546 -4.67488 0
M  V30 1644 H 144.377 -3.98151 -5.16061 0
M  V30 1645 N 147.81 0.181792 -1.56548 0
M  V30 1646 C 149.056 0.896803 -1.82562 0
M  V30 1647 C 149.411 1.80324 -0.670908 0
M  V30 1648 O 148.704 1.8868 0.333235 0
M  V30 1649 C 148.898 1.73728 -3.12335 0
M  V30 1650 C 148.727 0.913714 -4.4032 0
M  V30 1651 C 147.497 0.592903 -5.01809 0
M  V30 1652 C 149.695 0.260164 -5.13642 0
M  V30 1653 N 147.677 -0.247901 -6.13399 0
M  V30 1654 C 149.048 -0.442256 -6.18421 0
M  V30 1655 C 151.103 0.177253 -4.97584 0
M  V30 1656 C 149.806 -1.21971 -7.08883 0
M  V30 1657 C 151.832 -0.586839 -5.88481 0
M  V30 1658 C 151.194 -1.27766 -6.92716 0
M  V30 1659 H 147.293 0.307122 -0.719166 0
M  V30 1660 H 149.877 0.164535 -1.94004 0
M  V30 1661 H 148.048 2.44105 -3.02105 0
M  V30 1662 H 149.78 2.39279 -3.26386 0
M  V30 1663 H 146.535 0.920502 -4.64568 0
M  V30 1664 H 146.959 -0.658304 -6.73792 0
M  V30 1665 H 151.601 0.696993 -4.17015 0
M  V30 1666 H 149.319 -1.75083 -7.88905 0
M  V30 1667 H 152.905 -0.652522 -5.78129 0
M  V30 1668 H 151.785 -1.85943 -7.61836 0
M  V30 1669 N 149.288 1.51039 0.449983 0
M  V30 1670 C 150.22 1.67617 1.56324 0
M  V30 1671 C 151.233 0.557083 1.52972 0
M  V30 1672 O 152.422 0.830989 1.57977 0
M  V30 1673 C 149.522 1.66402 2.95235 0
M  V30 1674 C 148.695 2.9469 3.23229 0
M  V30 1675 C 147.754 2.85832 4.41799 0
M  V30 1676 O 146.78 3.59785 4.41071 0
M  V30 1677 N 147.982 2.00821 5.44657 0
M  V30 1678 H 150.747 2.63648 1.42512 0
M  V30 1679 H 148.308 1.48767 0.638737 0
M  V30 1680 H 150.3 1.58062 3.72557 0
M  V30 1681 H 148.87 0.780182 3.02708 0
M  V30 1682 H 148.09 3.16996 2.34323 0
M  V30 1683 H 149.378 3.79636 3.38754 0
M  V30 1684 H 148.776 1.40091 5.48079 0
M  V30 1685 H 147.333 1.98368 6.20881 0
M  V30 1686 N 150.766 -0.704594 1.40972 0
M  V30 1687 C 152.182 -1.01406 1.23244 0
M  V30 1688 C 152.382 -2.01169 0.115399 0
M  V30 1689 O 151.438 -2.47021 -0.523147 0
M  V30 1690 C 152.751 -1.54728 2.57836 0
M  V30 1691 C 154.299 -1.66658 2.64942 0
M  V30 1692 C 154.774 -2.23383 3.9983 0
M  V30 1693 N 156.265 -2.30756 4.01629 0
M  V30 1694 C 157 -2.75655 5.02794 0
M  V30 1695 N 156.496 -3.20225 6.14352 0
M  V30 1696 N 158.289 -2.75138 4.90159 0
M  V30 1697 H 150.44 -0.0435285 2.12355 0
M  V30 1698 H 152.703 -0.0818951 0.944456 0
M  V30 1699 H 152.409 -0.888832 3.40283 0
M  V30 1700 H 152.283 -2.53084 2.79693 0
M  V30 1701 H 154.67 -2.31617 1.8286 0
M  V30 1702 H 154.751 -0.668717 2.46904 0
M  V30 1703 H 154.395 -1.59043 4.82357 0
M  V30 1704 H 154.325 -3.23904 4.15203 0
M  V30 1705 H 156.816 -1.99291 3.21079 0
M  V30 1706 H 157.129 -3.53084 6.87424 0
M  V30 1707 H 155.474 -3.18156 6.17901 0
M  V30 1708 H 158.665 -2.39661 4.02095 0
M  V30 1709 H 158.838 -3.09812 5.6914 0
M  V30 1710 N 152.244 -1.26651 -0.937939 0
M  V30 1711 C 153.192 -1.08308 -2.05845 0
M  V30 1712 C 154.186 -0.0090757 -1.69398 0
M  V30 1713 O 155.392 -0.166007 -1.79233 0
M  V30 1714 H 151.767 -0.333416 -0.674046 0
M  V30 1715 H 153.738 -2.03261 -2.18467 0
M  V30 1716 C 152.487 -0.736229 -3.39816 0
M  V30 1717 H 151.81 -1.55453 -3.6834 0
M  V30 1718 H 153.25 -0.64769 -4.19024 0
M  V30 1719 C 151.709 0.558824 -3.32233 0
M  V30 1720 O 152.239 1.59621 -3.68624 0
M  V30 1721 N 150.445 0.550657 -2.85335 0
M  V30 1722 H 149.992 -0.293943 -2.55917 0
M  V30 1723 H 149.95 1.41726 -2.80644 0
M  V30 1724 N 153.722 1.14298 -1.08507 0
M  V30 1725 C 154.971 1.84708 -0.810305 0
M  V30 1726 C 155.284 1.83903 0.666271 0
M  V30 1727 O 156.49 2.50112 1.05624 0
M  V30 1728 C 154.946 3.31572 -1.39957 0
M  V30 1729 C 154.554 3.40791 -2.90801 0
M  V30 1730 C 156.298 4.07087 -1.20334 0
M  V30 1731 C 154.205 4.81872 -3.4286 0
M  V30 1732 H 153.135 0.691985 -0.299454 0
M  V30 1733 H 155.786 1.28841 -1.30661 0
M  V30 1734 H 154.168 3.87183 -0.830976 0
M  V30 1735 H 155.342 2.95225 -3.53806 0
M  V30 1736 H 153.657 2.78732 -3.0935 0
M  V30 1737 H 156.254 5.11225 -1.56693 0
M  V30 1738 H 156.597 4.16054 -0.143237 0
M  V30 1739 H 157.13 3.57779 -1.73893 0
M  V30 1740 H 153.869 4.78094 -4.48449 0
M  V30 1741 H 153.389 5.27972 -2.84615 0
M  V30 1742 H 155.068 5.50765 -3.39509 0
M  V30 1743 N 155.201 0.870884 1.31352 0
M  V30 1744 C 156.429 0.49677 2.00848 0
M  V30 1745 C 156.844 -0.910998 1.65367 0
M  V30 1746 O 156.201 -1.59696 0.883374 0
M  V30 1747 C 156.252 0.645308 3.55694 0
M  V30 1748 O 155.973 1.99764 3.89905 0
M  V30 1749 C 157.474 0.272326 4.42463 0
M  V30 1750 H 154.694 0.193462 0.642506 0
M  V30 1751 H 157.238 1.1723 1.67563 0
M  V30 1752 H 155.393 0.0173176 3.87396 0
M  V30 1753 H 155.807 2.00607 4.84621 0
M  V30 1754 H 157.281 0.427208 5.50344 0
M  V30 1755 H 157.758 -0.788587 4.32062 0
M  V30 1756 H 158.364 0.876054 4.1618 0
M  V30 1757 N 156.679 -1.44442 0.630414 0
M  V30 1758 C 157.909 -2.06115 0.141465 0
M  V30 1759 C 158.317 -1.47179 -1.1889 0
M  V30 1760 O 157.66 -0.588873 -1.74006 0
M  V30 1761 C 157.722 -3.59467 -0.0484355 0
M  V30 1762 C 157.386 -4.40864 1.20366 0
M  V30 1763 C 158.383 -4.74391 2.12719 0
M  V30 1764 C 156.068 -4.8125 1.43887 0
M  V30 1765 C 158.062 -5.47186 3.26904 0
M  V30 1766 C 155.749 -5.53795 2.5837 0
M  V30 1767 C 156.747 -5.86682 3.49705 0
M  V30 1768 O 156.435 -6.57749 4.62191 0
M  V30 1769 H 156.167 -0.671648 0.0765792 0
M  V30 1770 H 158.721 -1.86312 0.864695 0
M  V30 1771 H 156.951 -3.77758 -0.826803 0
M  V30 1772 H 158.64 -4.02909 -0.491849 0
M  V30 1773 H 159.406 -4.43728 1.95781 0
M  V30 1774 H 155.285 -4.55073 0.736853 0
M  V30 1775 H 158.829 -5.72773 3.98217 0
M  V30 1776 H 154.726 -5.83872 2.75251 0
M  V30 1777 H 155.494 -6.76217 4.61164 0
M  V30 1778 N 158.157 -0.370918 -1.53173 0
M  V30 1779 C 159.104 0.473035 -2.259 0
M  V30 1780 C 160.074 1.07311 -1.26781 0
M  V30 1781 O 161.259 1.1046 -1.55574 0
M  V30 1782 C 158.399 1.60405 -3.05556 0
M  V30 1783 C 157.512 1.02863 -4.19575 0
M  V30 1784 C 156.647 2.12918 -4.86661 0
M  V30 1785 C 155.686 1.52869 -5.92704 0
M  V30 1786 N 154.823 2.56779 -6.53459 0
M  V30 1787 H 159.663 -0.153649 -2.97604 0
M  V30 1788 H 157.2 -0.0875946 -1.46839 0
M  V30 1789 H 159.158 2.27034 -3.50016 0
M  V30 1790 H 157.788 2.20131 -2.36097 0
M  V30 1791 H 156.84 0.252465 -3.79561 0
M  V30 1792 H 158.152 0.549642 -4.95762 0
M  V30 1793 H 157.306 2.87356 -5.34333 0
M  V30 1794 H 156.045 2.6417 -4.09958 0
M  V30 1795 H 155.05 0.769479 -5.44389 0
M  V30 1796 H 156.275 1.02435 -6.7133 0
M  V30 1797 H 154.221 3.07235 -5.79606 0
M  V30 1798 H 154.138 2.13583 -7.25202 0
M  V30 1799 H 155.406 3.30903 -7.05779 0
M  V30 1800 N 159.635 1.57281 -0.100228 0
M  V30 1801 C 160.86 1.99302 0.573881 0
M  V30 1802 C 161.285 0.979059 1.60611 0
M  V30 1803 O 160.643 -0.0517803 1.81226 0
M  V30 1804 C 160.691 3.40274 1.19358 0
M  V30 1805 O 159.795 3.41676 2.30935 0
M  V30 1806 H 159.136 0.647944 0.145138 0
M  V30 1807 H 161.666 2.03779 -0.183156 0
M  V30 1808 H 161.676 3.78078 1.53365 0
M  V30 1809 H 160.351 4.13594 0.437385 0
M  V30 1810 H 158.928 3.15672 1.98509 0
M  V30 1811 N 161.113 -0.173488 1.56642 0
M  V30 1812 C 162.061 -1.23417 1.97157 0
M  V30 1813 C 163.055 -1.45946 0.860013 0
M  V30 1814 O 164.261 -1.46551 1.04512 0
M  V30 1815 H 160.636 -0.414818 0.62724 0
M  V30 1816 H 162.607 -0.865582 2.8557 0
M  V30 1817 C 161.356 -2.5665 2.34576 0
M  V30 1818 H 160.679 -2.40137 3.19647 0
M  V30 1819 H 162.119 -3.2956 2.6677 0
M  V30 1820 C 160.578 -3.15245 1.18836 0
M  V30 1821 O 161.108 -3.98883 0.474869 0
M  V30 1822 N 159.314 -2.74303 0.959497 0
M  V30 1823 H 158.861 -2.0639 1.54146 0
M  V30 1824 H 158.819 -3.13844 0.186932 0
M  V30 1825 N 162.591 -1.51276 -0.441967 0
M  V30 1826 C 164.002 -1.56244 -1.02199 0
M  V30 1827 C 164.353 -0.383149 -1.92422 0
M  V30 1828 O 163.478 0.500613 -2.1053 0
M  V30 1829 C 164.073 -2.83162 -1.86024 0
M  V30 1830 C 162.632 -2.90716 -2.39084 0
M  V30 1831 C 161.779 -2.50858 -1.18175 0
M  V30 1832 H 164.73 -1.5712 -0.223416 0
M  V30 1833 H 164.751 -2.66663 -2.71425 0
M  V30 1834 H 164.263 -3.68974 -1.20331 0
M  V30 1835 H 162.364 -2.09323 -3.08244 0
M  V30 1836 H 162.477 -3.94266 -2.72198 0
M  V30 1837 H 160.841 -2.03951 -1.52565 0
M  V30 1838 H 161.624 -3.3901 -0.541001 0
M  V30 1839 N 164.069 0.697108 -1.41344 0
M  V30 1840 C 165.017 1.83237 -1.43272 0
M  V30 1841 C 166.011 1.66522 -0.310947 0
M  V30 1842 O 167.217 1.73402 -0.482899 0
M  V30 1843 H 163.592 0.603802 -0.448249 0
M  V30 1844 H 165.563 1.78727 -2.38954 0
M  V30 1845 C 164.312 3.21245 -1.33029 0
M  V30 1846 H 163.635 3.34723 -2.18633 0
M  V30 1847 H 165.075 4.00763 -1.38439 0
M  V30 1848 C 163.534 3.36873 -0.0424635 0
M  V30 1849 O 164.064 3.91177 0.913421 0
M  V30 1850 N 162.27 2.90581 0.0331145 0
M  V30 1851 H 161.817 2.46577 -0.745506 0
M  V30 1852 H 161.775 3.01416 0.894199 0
M  V30 1853 N 165.547 1.27147 0.931209 0
M  V30 1854 C 166.963 1.04475 1.20653 0
M  V30 1855 C 167.163 -0.223885 2.00252 0
M  V30 1856 O 166.219 -0.930332 2.34736 0
M  V30 1857 C 167.532 2.28209 1.95809 0
M  V30 1858 C 169.08 2.33211 2.08762 0
M  V30 1859 C 169.555 3.56665 2.87323 0
M  V30 1860 N 171.046 3.57201 2.94892 0
M  V30 1861 C 171.781 4.49395 3.56134 0
M  V30 1862 N 171.277 5.51889 4.18796 0
M  V30 1863 N 173.07 4.37026 3.53504 0
M  V30 1864 H 165.221 2.08612 0.399333 0
M  V30 1865 H 167.484 0.917312 0.239253 0
M  V30 1866 H 167.19 3.20538 1.44736 0
M  V30 1867 H 167.064 2.33247 2.96438 0
M  V30 1868 H 169.451 1.41391 2.59023 0
M  V30 1869 H 169.532 2.32178 1.07364 0
M  V30 1870 H 169.176 4.4882 2.37746 0
M  V30 1871 H 169.106 3.54948 3.88998 0
M  V30 1872 H 171.597 2.83074 2.50354 0
M  V30 1873 H 171.91 6.18409 4.63454 0
M  V30 1874 H 170.255 5.55735 4.17353 0
M  V30 1875 H 173.446 3.56166 3.03749 0
M  V30 1876 H 173.619 5.09067 4.00942 0
M  V30 1877 N 167.025 -1.13721 1.09112 0
M  V30 1878 C 168.274 -1.84275 0.82009 0
M  V30 1879 C 168.587 -1.84253 -0.656509 0
M  V30 1880 O 169.793 -2.50668 -1.04296 0
M  V30 1881 C 168.249 -3.30825 1.41714 0
M  V30 1882 C 167.857 -3.39244 2.92605 0
M  V30 1883 C 169.601 -4.06443 1.22492 0
M  V30 1884 C 167.508 -4.80047 3.45411 0
M  V30 1885 H 166.438 -0.690387 0.30312 0
M  V30 1886 H 169.089 -1.28146 1.31343 0
M  V30 1887 H 167.471 -3.86737 0.851498 0
M  V30 1888 H 168.645 -2.93344 3.55367 0
M  V30 1889 H 166.96 -2.77088 3.10823 0
M  V30 1890 H 169.557 -5.10387 1.59402 0
M  V30 1891 H 169.9 -4.15972 0.165299 0
M  V30 1892 H 170.433 -3.56852 1.75788 0
M  V30 1893 H 167.172 -4.75709 4.50978 0
M  V30 1894 H 166.692 -5.26455 2.87411 0
M  V30 1895 H 168.371 -5.48957 3.42425 0
M  V30 1896 N 168.503 -0.877838 -1.30888 0
M  V30 1897 C 169.433 -0.35534 -2.3078 0
M  V30 1898 C 170.414 0.557994 -1.60687 0
M  V30 1899 O 171.599 0.473355 -1.88343 0
M  V30 1900 C 168.729 0.437221 -3.44537 0
M  V30 1901 C 167.683 -0.383715 -4.26276 0
M  V30 1902 C 167.009 0.535014 -5.32017 0
M  V30 1903 C 168.309 -1.62201 -4.96476 0
M  V30 1904 H 170.003 -1.19007 -2.74732 0
M  V30 1905 H 167.549 -0.573698 -1.32078 0
M  V30 1906 H 169.502 0.813334 -4.13477 0
M  V30 1907 H 168.226 1.30553 -2.99372 0
M  V30 1908 H 166.885 -0.741874 -3.59015 0
M  V30 1909 H 166.533 1.40083 -4.831 0
M  V30 1910 H 166.233 -0.0104211 -5.87599 0
M  V30 1911 H 167.757 0.907799 -6.03814 0
M  V30 1912 H 169.171 -1.31689 -5.5797 0
M  V30 1913 H 167.568 -2.10711 -5.61891 0
M  V30 1914 H 168.638 -2.37044 -4.23011 0
M  V30 1915 N 169.982 1.44106 -0.638065 0
M  V30 1916 C 171.393 1.85316 -0.226894 0
M  V30 1917 C 171.744 1.53399 1.22324 0
M  V30 1918 O 170.869 0.975463 1.93167 0
M  V30 1919 C 171.464 3.3637 -0.405013 0
M  V30 1920 C 170.023 3.76369 -0.0482902 0
M  V30 1921 C 169.17 2.67921 -0.715108 0
M  V30 1922 H 172.121 1.34474 -0.842764 0
M  V30 1923 H 172.142 3.7885 0.354 0
M  V30 1924 H 171.654 3.59569 -1.46053 0
M  V30 1925 H 169.755 3.58784 1.00522 0
M  V30 1926 H 169.868 4.76856 -0.463187 0
M  V30 1927 H 168.232 2.54259 -0.149753 0
M  V30 1928 H 169.015 2.93951 -1.77335 0
M  V30 1929 N 171.46 0.379036 1.52974 0
M  V30 1930 C 172.737 -0.263479 1.93817 0
M  V30 1931 C 173.117 -1.65244 1.31368 0
M  V30 1932 O 172.465 -2.23448 0.477856 0
M  V30 1933 C 172.675 -0.300166 3.47707 0
M  V30 1934 C 174.023 -0.534061 4.21228 0
M  V30 1935 O 175.047 -0.38081 3.54159 0
M  V30 1936 O 173.906 -0.833501 5.40106 0
M  V30 1937 H 171 -0.161149 0.811147 0
M  V30 1938 H 173.546 0.432798 1.64088 0
M  V30 1939 H 172.318 0.673138 3.85467 0
M  V30 1940 H 171.941 -1.04179 3.83709 0
M  V30 1941 N 172.938 -1.57226 0.108567 0
M  V30 1942 C 174.163 -1.99604 -0.563303 0
M  V30 1943 C 174.588 -0.987563 -1.6009 0
M  V30 1944 O 173.946 0.0421687 -1.81251 0
M  V30 1945 C 173.994 -3.40902 -1.17552 0
M  V30 1946 O 173.098 -3.42896 -2.2912 0
M  V30 1947 H 172.439 -0.648704 -0.1417 0
M  V30 1948 H 174.969 -2.03679 0.193961 0
M  V30 1949 H 174.979 -3.78886 -1.51357 0
M  V30 1950 H 173.654 -4.1382 -0.415445 0
M  V30 1951 H 172.231 -3.1672 -1.96832 0
M  V30 1952 N 174.416 0.165178 -1.56732 0
M  V30 1953 C 175.662 0.882112 -1.82611 0
M  V30 1954 C 175.995 1.81628 -0.687378 0
M  V30 1955 O 175.27 1.92009 0.310267 0
M  V30 1956 C 175.553 1.67245 -3.18906 0
M  V30 1957 C 175.406 0.760987 -4.43316 0
M  V30 1958 C 176.725 2.63884 -3.52212 0
M  V30 1959 H 173.844 0.319242 -0.664269 0
M  V30 1960 H 176.486 0.148052 -1.89422 0
M  V30 1961 H 174.636 2.29824 -3.1323 0
M  V30 1962 H 176.308 0.147596 -4.61064 0
M  V30 1963 H 174.551 0.0694102 -4.33744 0
M  V30 1964 H 175.222 1.34962 -5.35247 0
M  V30 1965 H 177.698 2.11429 -3.58381 0
M  V30 1966 H 176.574 3.16245 -4.48643 0
M  V30 1967 H 176.835 3.44377 -2.77231 0
M  V30 1968 N 175.894 1.51508 0.433938 0
M  V30 1969 C 177.171 1.54888 1.19453 0
M  V30 1970 C 177.551 0.315154 2.08734 0
M  V30 1971 O 176.899 -0.699558 2.17528 0
M  V30 1972 C 177.109 2.86467 1.99342 0
M  V30 1973 C 178.457 3.38545 2.56267 0
M  V30 1974 O 179.481 2.88041 2.0955 0
M  V30 1975 O 178.34 4.26675 3.41483 0
M  V30 1976 H 175.434 0.622863 0.544032 0
M  V30 1977 H 177.98 1.63823 0.442732 0
M  V30 1978 H 176.752 3.67718 1.33788 0
M  V30 1979 H 176.375 2.8071 2.8158 0
M  V30 1980 N 177.372 -0.689602 1.41712 0
M  V30 1981 C 178.618 -1.45041 1.42599 0
M  V30 1982 C 178.973 -1.92366 0.0363764 0
M  V30 1983 O 178.266 -1.67022 -0.938844 0
M  V30 1984 C 178.46 -2.67298 2.37247 0
M  V30 1985 C 178.289 -2.31935 3.85274 0
M  V30 1986 C 177.059 -2.2201 4.53916 0
M  V30 1987 C 179.257 -1.94526 4.76093 0
M  V30 1988 N 177.239 -1.79594 5.87043 0
M  V30 1989 C 178.61 -1.62915 5.98213 0
M  V30 1990 C 180.665 -1.81388 4.63684 0
M  V30 1991 C 179.368 -1.19486 7.09306 0
M  V30 1992 C 181.394 -1.39364 5.74745 0
M  V30 1993 C 180.756 -1.08668 6.95967 0
M  V30 1994 H 176.855 -0.527806 0.577014 0
M  V30 1995 H 179.439 -0.797266 1.77628 0
M  V30 1996 H 177.61 -3.30325 2.04304 0
M  V30 1997 H 179.342 -3.33806 2.28814 0
M  V30 1998 H 176.097 -2.406 4.07932 0
M  V30 1999 H 176.521 -1.60851 6.57614 0
M  V30 2000 H 181.163 -2.03772 3.70455 0
M  V30 2001 H 178.881 -0.958477 8.02396 0
M  V30 2002 H 182.467 -1.2974 5.6715 0
M  V30 2003 H 181.347 -0.766417 7.80446 0
M  V30 2004 N 178.85 -1.27639 -0.924453 0
M  V30 2005 C 180.266 -1.05113 -1.20097 0
M  V30 2006 C 180.466 0.213262 -2.00368 0
M  V30 2007 O 179.522 0.91787 -2.35226 0
M  V30 2008 C 180.835 -2.29244 -1.94596 0
M  V30 2009 C 182.383 -2.34315 -2.07522 0
M  V30 2010 C 182.858 -3.58183 -2.85427 0
M  V30 2011 N 184.349 -3.5876 -2.92994 0
M  V30 2012 C 185.084 -4.51277 -3.53746 0
M  V30 2013 N 184.58 -5.54102 -4.15863 0
M  V30 2014 N 186.373 -4.38894 -3.51181 0
M  V30 2015 H 178.524 -2.08821 -0.388264 0
M  V30 2016 H 180.787 -0.918568 -0.234385 0
M  V30 2017 H 180.493 -3.21301 -1.43034 0
M  V30 2018 H 180.367 -2.34816 -2.95197 0
M  V30 2019 H 182.754 -1.42762 -2.58269 0
M  V30 2020 H 182.835 -2.32744 -1.06131 0
M  V30 2021 H 182.479 -4.50074 -2.35363 0
M  V30 2022 H 182.409 -3.57006 -3.8711 0
M  V30 2023 H 184.9 -2.84398 -2.4885 0
M  V30 2024 H 185.213 -6.20859 -4.60168 0
M  V30 2025 H 183.558 -5.57941 -4.144 0
M  V30 2026 H 186.749 -3.57772 -3.01856 0
M  V30 2027 H 186.922 -5.11186 -3.98237 0
M  V30 2028 N 180.328 1.1314 -1.09713 0
M  V30 2029 C 181.238 2.22242 -0.751367 0
M  V30 2030 C 182.254 1.72224 0.247938 0
M  V30 2031 O 183.43 2.01205 0.0885463 0
M  V30 2032 C 180.495 3.46231 -0.180274 0
M  V30 2033 C 179.556 4.11125 -1.2359 0
M  V30 2034 C 178.789 5.29195 -0.691966 0
M  V30 2035 O 179.012 5.68342 0.48414 0
M  V30 2036 O 177.946 5.84214 -1.44838 0
M  V30 2037 H 181.772 2.54197 -1.66186 0
M  V30 2038 H 179.357 1.21331 -0.871735 0
M  V30 2039 H 181.239 4.21185 0.134739 0
M  V30 2040 H 179.914 3.1597 0.703185 0
M  V30 2041 H 178.821 3.37985 -1.60366 0
M  V30 2042 H 180.154 4.45524 -2.09211 0
M  V30 2043 N 181.806 0.884767 1.30421 0
M  V30 2044 C 182.753 0.349642 2.28136 0
M  V30 2045 C 183.723 -0.560061 1.56373 0
M  V30 2046 O 184.908 -0.488524 1.8444 0
M  V30 2047 C 182.048 -0.42999 3.42411 0
M  V30 2048 C 181.161 0.508907 4.28992 0
M  V30 2049 C 180.296 -0.286301 5.30428 0
M  V30 2050 C 179.335 0.648079 6.08659 0
M  V30 2051 N 178.472 -0.111792 7.02011 0
M  V30 2052 H 183.312 1.18807 2.73293 0
M  V30 2053 H 180.849 0.597231 1.3443 0
M  V30 2054 H 182.807 -0.897923 4.07423 0
M  V30 2055 H 181.437 -1.23299 2.98324 0
M  V30 2056 H 180.489 1.09533 3.64289 0
M  V30 2057 H 181.801 1.22475 4.8353 0
M  V30 2058 H 180.955 -0.816098 6.01186 0
M  V30 2059 H 179.694 -1.03536 4.76583 0
M  V30 2060 H 178.699 1.18951 5.36778 0
M  V30 2061 H 179.924 1.39623 6.64592 0
M  V30 2062 H 177.87 -0.843395 6.50556 0
M  V30 2063 H 177.787 0.544429 7.54037 0
M  V30 2064 H 179.055 -0.622339 7.77012 0
M  V30 2065 N 183.284 -1.43765 0.645699 0
M  V30 2066 C 184.532 -2.01499 0.155731 0
M  V30 2067 C 184.853 -1.51151 -1.232 0
M  V30 2068 O 184.123 -0.721044 -1.82148 0
M  V30 2069 H 182.703 -0.745003 0.0545817 0
M  V30 2070 H 185.365 -1.76075 0.835677 0
M  V30 2071 H 184.461 -3.1181 0.134577 0
M  V30 2072 N 184.763 -0.387143 -1.52771 0
M  V30 2073 C 186.003 0.195537 -2.03463 0
M  V30 2074 C 186.367 1.44222 -1.26744 0
M  V30 2075 O 187.568 2.10192 -1.67549 0
M  V30 2076 C 185.839 0.459097 -3.54439 0
M  V30 2077 S 187.398 1.01237 -4.26962 0
M  V30 2078 H 184.216 0.0552675 -0.708849 0
M  V30 2079 H 186.818 -0.534992 -1.88037 0
M  V30 2080 H 185.522 -0.455382 -4.07866 0
M  V30 2081 H 185.053 1.21811 -3.74066 0
M  V30 2082 H 187.068 2.29492 -4.39941 0
M  V30 2083 N 186.241 1.57166 -0.116904 0
M  V30 2084 C 187.487 1.95412 0.542405 0
M  V30 2085 C 187.82 1.00019 1.66463 0
M  V30 2086 O 187.095 0.0370346 1.94465 0
M  V30 2087 C 187.378 3.43615 1.07708 0
M  V30 2088 C 187.231 4.49781 -0.0415868 0
M  V30 2089 C 188.55 3.93616 1.96861 0
M  V30 2090 H 185.669 0.710543 0.195696 0
M  V30 2091 H 188.311 1.89027 -0.192038 0
M  V30 2092 H 186.461 3.49187 1.70296 0
M  V30 2093 H 188.133 4.56308 -0.676793 0
M  V30 2094 H 186.376 4.28033 -0.705019 0
M  V30 2095 H 187.047 5.50733 0.373717 0
M  V30 2096 H 189.523 3.90335 1.44146 0
M  V30 2097 H 188.399 4.97838 2.3119 0
M  V30 2098 H 188.66 3.34188 2.89432 0
M  V30 2099 N 187.719 -0.156864 1.56817 0
M  V30 2100 C 188.947 -0.886316 1.86955 0
M  V30 2101 C 189.362 -1.75185 0.703975 0
M  V30 2102 O 188.719 -1.79555 -0.326552 0
M  V30 2103 C 188.77 -1.75117 3.16253 0
M  V30 2104 O 188.491 -0.920537 4.2832 0
M  V30 2105 C 189.992 -2.58905 3.59837 0
M  V30 2106 H 187.212 -0.25678 0.619923 0
M  V30 2107 H 189.756 -0.152615 2.0393 0
M  V30 2108 H 187.911 -2.43805 3.01062 0
M  V30 2109 H 188.325 -1.51337 5.02192 0
M  V30 2110 H 189.799 -3.1518 4.53172 0
M  V30 2111 H 190.276 -3.34472 2.84649 0
M  V30 2112 H 190.882 -1.95526 3.7769 0
M  V30 2113 N 189.197 -1.51736 -0.425897 0
M  V30 2114 C 190.107 -1.76738 -1.54275 0
M  V30 2115 C 191.123 -0.65211 -1.61318 0
M  V30 2116 O 192.299 -0.935654 -1.78346 0
M  V30 2117 C 189.364 -1.89755 -2.90162 0
M  V30 2118 C 188.425 -3.13633 -2.93143 0
M  V30 2119 C 187.658 -3.2602 -4.22548 0
M  V30 2120 O 187.881 -2.44067 -5.15546 0
M  V30 2121 O 186.815 -4.19071 -4.32046 0
M  V30 2122 H 190.641 -2.71502 -1.36089 0
M  V30 2123 H 188.226 -1.36376 -0.610069 0
M  V30 2124 H 190.108 -2.00236 -3.70788 0
M  V30 2125 H 188.783 -0.981785 -3.08452 0
M  V30 2126 H 187.69 -3.08622 -2.11431 0
M  V30 2127 H 189.023 -4.04936 -2.798 0
M  V30 2128 N 190.675 0.682077 -1.42076 0
M  V30 2129 C 191.921 1.44428 -1.42367 0
M  V30 2130 C 192.254 1.94164 -0.0373056 0
M  V30 2131 O 191.529 1.70429 0.937239 0
M  V30 2132 C 191.812 2.64654 -2.44194 0
M  V30 2133 C 191.665 2.20596 -3.91991 0
M  V30 2134 C 192.984 3.66865 -2.431 0
M  V30 2135 H 190.103 0.523834 -0.518428 0
M  V30 2136 H 192.745 0.77576 -1.73442 0
M  V30 2137 H 190.895 3.2169 -2.17826 0
M  V30 2138 H 192.567 1.68783 -4.29313 0
M  V30 2139 H 190.81 1.52242 -4.06208 0
M  V30 2140 H 191.481 3.06921 -4.58807 0
M  V30 2141 H 193.957 3.19531 -2.66532 0
M  V30 2142 H 192.833 4.48577 -3.16339 0
M  V30 2143 H 193.094 4.17493 -1.45437 0
M  V30 2144 N 192.153 1.28127 0.917671 0
M  V30 2145 C 193.1 1.11717 2.0196 0
M  V30 2146 C 194.07 0.0153929 1.66093 0
M  V30 2147 O 195.255 0.179596 1.89953 0
M  V30 2148 C 192.395 0.780927 3.36148 0
M  V30 2149 C 191.508 1.96135 3.84909 0
M  V30 2150 C 190.643 1.56609 5.0759 0
M  V30 2151 C 189.682 2.71339 5.48673 0
M  V30 2152 N 188.819 2.32332 6.62545 0
M  V30 2153 H 193.659 2.06003 2.15329 0
M  V30 2154 H 191.196 1.02535 1.05475 0
M  V30 2155 H 193.154 0.56675 4.13333 0
M  V30 2156 H 191.784 -0.124998 3.22558 0
M  V30 2157 H 190.836 2.28777 3.03916 0
M  V30 2158 H 192.148 2.82165 4.1132 0
M  V30 2159 H 191.302 1.31374 5.92305 0
M  V30 2160 H 190.041 0.677014 4.82978 0
M  V30 2161 H 189.046 2.97276 4.62501 0
M  V30 2162 H 190.271 3.60882 5.75274 0
M  V30 2163 H 188.217 1.45889 6.39572 0
M  V30 2164 H 188.134 3.11899 6.88662 0
M  V30 2165 H 189.402 2.10371 7.50576 0
M  V30 2166 N 193.631 -1.12557 1.10312 0
M  V30 2167 C 194.861 -1.87592 0.865617 0
M  V30 2168 C 195.269 -1.79851 -0.587389 0
M  V30 2169 O 194.612 -1.16949 -1.41664 0
M  V30 2170 C 194.674 -3.37665 1.23381 0
M  V30 2171 C 194.338 -3.69181 2.69359 0
M  V30 2172 C 195.335 -3.67652 3.67597 0
M  V30 2173 C 193.02 -3.98555 3.05711 0
M  V30 2174 C 195.014 -3.95053 5.00212 0
M  V30 2175 C 192.701 -4.25616 4.38514 0
M  V30 2176 C 193.699 -4.23851 5.35574 0
M  V30 2177 O 193.387 -4.50242 6.65986 0
M  V30 2178 H 193.119 -0.600442 0.310557 0
M  V30 2179 H 195.673 -1.4335 1.47105 0
M  V30 2180 H 193.903 -3.82454 0.571467 0
M  V30 2181 H 195.592 -3.94041 0.973994 0
M  V30 2182 H 196.358 -3.45024 3.40857 0
M  V30 2183 H 192.237 -3.99071 2.30789 0
M  V30 2184 H 195.781 -3.93591 5.75962 0
M  V30 2185 H 191.678 -4.47718 4.64994 0
M  V30 2186 H 192.446 -4.67867 6.71597 0
M  V30 2187 N 195.109 -0.891671 -1.2995 0
M  V30 2188 C 196.041 -0.320695 -2.26945 0
M  V30 2189 C 197.054 0.528497 -1.53983 0
M  V30 2190 O 198.243 0.346959 -1.75096 0
M  V30 2191 C 195.343 0.562066 -3.34207 0
M  V30 2192 C 194.516 -0.259576 -4.36629 0
M  V30 2193 C 193.575 0.554739 -5.23268 0
M  V30 2194 O 192.601 -0.0249311 -5.69195 0
M  V30 2195 N 193.803 1.8625 -5.4981 0
M  V30 2196 H 196.568 -1.15432 -2.76578 0
M  V30 2197 H 194.129 -0.755336 -1.432 0
M  V30 2198 H 196.121 1.11304 -3.89093 0
M  V30 2199 H 194.691 1.29637 -2.84452 0
M  V30 2200 H 193.911 -0.991986 -3.81514 0
M  V30 2201 H 195.199 -0.822564 -5.02107 0
M  V30 2202 H 194.597 2.35628 -5.14292 0
M  V30 2203 H 193.154 2.36078 -6.07545 0
M  V30 2204 N 196.587 1.43421 -0.653314 0
M  V30 2205 C 197.835 2.01414 -0.166415 0
M  V30 2206 C 198.156 1.51803 1.22397 0
M  V30 2207 O 197.426 0.730693 1.81763 0
M  V30 2208 H 196.006 0.744703 -0.0585319 0
M  V30 2209 H 198.668 1.75629 -0.845003 0
M  V30 2210 H 197.764 3.11734 -0.151111 0
M  V30 2211 N 198.065 0.39524 1.52563 0
M  V30 2212 C 199.29 -0.187456 2.06551 0
M  V30 2213 C 199.715 -1.39249 1.26457 0
M  V30 2214 O 199.073 -1.78947 0.291151 0
M  V30 2215 C 199.121 -0.529985 3.56684 0
M  V30 2216 O 198.225 -1.62307 3.79118 0
M  V30 2217 H 197.566 -0.0202537 0.663691 0
M  V30 2218 H 200.096 0.564426 1.96661 0
M  V30 2219 H 200.106 -0.792598 4.00227 0
M  V30 2220 H 198.781 0.350987 4.14416 0
M  V30 2221 H 197.358 -1.3537 3.47461 0
M  V30 2222 N 199.544 -1.57102 0.125237 0
M  V30 2223 C 200.784 -1.97294 -0.534259 0
M  V30 2224 C 201.148 -1.0074 -1.63449 0
M  V30 2225 O 202.349 -1.29893 -2.35332 0
M  V30 2226 C 200.62 -3.41705 -1.04748 0
M  V30 2227 S 202.179 -4.03913 -1.71463 0
M  V30 2228 H 198.997 -0.689517 -0.173458 0
M  V30 2229 H 201.599 -1.94349 0.211797 0
M  V30 2230 H 200.303 -4.09723 -0.235649 0
M  V30 2231 H 199.834 -3.48315 -1.82867 0
M  V30 2232 H 201.849 -3.95182 -3.00077 0
M  V30 2233 N 201.022 0.148545 -1.56898 0
M  V30 2234 C 202.27 0.859717 -1.82902 0
M  V30 2235 C 202.591 1.81775 -0.70588 0
M  V30 2236 O 201.861 1.93994 0.272586 0
M  V30 2237 H 200.441 0.320469 -0.674766 0
M  V30 2238 H 203.103 0.142918 -1.94375 0
M  V30 2239 H 202.199 1.4229 -2.77777 0
M  V30 2240 N 202.5 1.5196 0.417844 0
M  V30 2241 C 203.463 1.74065 1.49111 0
M  V30 2242 C 204.463 0.610537 1.48758 0
M  V30 2243 O 205.653 0.87832 1.50437 0
M  V30 2244 C 202.785 1.81502 2.88565 0
M  V30 2245 H 203.978 2.69869 1.30807 0
M  V30 2246 H 201.531 1.42244 0.647785 0
M  V30 2247 H 202.266 0.875813 3.1225 0
M  V30 2248 H 202.051 2.63651 2.90225 0
M  V30 2249 H 203.541 2.00376 3.66387 0
M  V30 2250 N 203.978 -0.674533 1.42435 0
M  V30 2251 C 205.218 -1.4466 1.44405 0
M  V30 2252 C 205.582 -1.91911 0.0585784 0
M  V30 2253 O 206.783 -2.68759 -0.0469991 0
M  V30 2254 C 205.054 -2.61136 2.44013 0
M  V30 2255 S 206.613 -3.49981 2.64687 0
M  V30 2256 H 203.431 -0.494074 0.511284 0
M  V30 2257 H 206.033 -0.785162 1.7904 0
M  V30 2258 H 204.737 -2.24662 3.43446 0
M  V30 2259 H 204.268 -3.32153 2.10803 0
M  V30 2260 H 206.283 -4.57124 1.93007 0
M  V30 2261 N 205.456 -1.28612 -0.910864 0
M  V30 2262 C 206.702 -1.17116 -1.66299 0
M  V30 2263 C 207.057 0.276917 -1.90397 0
M  V30 2264 O 206.35 1.19795 -1.49532 0
M  V30 2265 C 206.544 -1.90624 -3.0232 0
M  V30 2266 C 206.373 -3.42431 -2.91498 0
M  V30 2267 C 205.143 -4.11773 -2.92867 0
M  V30 2268 C 207.341 -4.38124 -2.69355 0
M  V30 2269 N 205.323 -5.50025 -2.72664 0
M  V30 2270 C 206.694 -5.63759 -2.58023 0
M  V30 2271 C 208.749 -4.28016 -2.54375 0
M  V30 2272 C 207.452 -6.80436 -2.33238 0
M  V30 2273 C 209.478 -5.44433 -2.30969 0
M  V30 2274 C 208.84 -6.69034 -2.20394 0
M  V30 2275 H 204.939 -0.483506 -0.61461 0
M  V30 2276 H 207.523 -1.62299 -1.0755 0
M  V30 2277 H 205.694 -1.4787 -3.5915 0
M  V30 2278 H 207.426 -1.71488 -3.66571 0
M  V30 2279 H 204.181 -3.63378 -3.03732 0
M  V30 2280 H 204.605 -6.22705 -2.65646 0
M  V30 2281 H 209.247 -3.32388 -2.613 0
M  V30 2282 H 206.965 -7.7613 -2.25051 0
M  V30 2283 H 210.551 -5.38504 -2.20238 0
M  V30 2284 H 209.431 -7.57595 -2.02531 0
M  V30 2285 N 206.934 1.1197 -1.10907 0
M  V30 2286 C 207.897 2.16031 -0.765707 0
M  V30 2287 C 208.897 1.59393 0.212235 0
M  V30 2288 O 210.087 1.74196 -0.0115441 0
M  V30 2289 C 207.219 3.40632 -0.135053 0
M  V30 2290 H 208.412 2.47919 -1.68748 0
M  V30 2291 H 205.965 1.27061 -0.910226 0
M  V30 2292 H 206.7 3.14348 0.797218 0
M  V30 2293 H 206.485 3.8302 -0.838937 0
M  V30 2294 H 207.975 4.17505 0.0892469 0
M  V30 2295 N 208.412 0.89855 1.29475 0
M  V30 2296 C 209.659 0.523882 1.95606 0
M  V30 2297 C 209.987 -0.929608 1.70847 0
M  V30 2298 O 209.242 -1.67401 1.01367 0
M  V30 2299 C 209.541 0.761398 3.49195 0
M  V30 2300 C 209.207 2.19207 3.94029 0
M  V30 2301 C 207.869 2.58326 4.05982 0
M  V30 2302 C 210.221 3.12379 4.17216 0
M  V30 2303 C 207.549 3.898 4.38489 0
M  V30 2304 C 209.901 4.43401 4.51197 0
M  V30 2305 C 208.565 4.82394 4.61359 0
M  V30 2306 H 207.835 0.191702 0.715773 0
M  V30 2307 H 210.482 1.13699 1.54094 0
M  V30 2308 H 208.787 0.0653622 3.91745 0
M  V30 2309 H 210.484 0.450904 3.98457 0
M  V30 2310 H 207.074 1.87846 3.85242 0
M  V30 2311 H 211.258 2.83371 4.07449 0
M  V30 2312 H 206.514 4.19734 4.44559 0
M  V30 2313 H 210.688 5.15623 4.68087 0
M  V30 2314 H 208.315 5.84306 4.86303 0
M  V30 2315 N 209.89 -1.43072 0.660911 0
M  V30 2316 C 211.115 -2.06584 0.183805 0
M  V30 2317 C 211.54 -1.49257 -1.14472 0
M  V30 2318 O 210.898 -0.605528 -1.70889 0
M  V30 2319 C 210.946 -3.60418 0.114434 0
M  V30 2320 O 210.05 -4.01981 -0.921137 0
M  V30 2321 H 209.391 -0.656669 0.0983994 0
M  V30 2322 H 211.921 -1.83447 0.906006 0
M  V30 2323 H 211.931 -4.07946 -0.0663394 0
M  V30 2324 H 210.606 -4.01519 1.08422 0
M  V30 2325 H 209.183 -3.66029 -0.71253 0
M  V30 2326 N 211.368 -0.403325 -1.52352 0
M  V30 2327 C 212.331 0.413051 -2.25447 0
M  V30 2328 C 213.331 0.978513 -1.276 0
M  V30 2329 O 214.521 0.858305 -1.51587 0
M  V30 2330 C 211.653 1.58087 -3.02029 0
M  V30 2331 H 212.846 -0.227094 -2.99039 0
M  V30 2332 H 210.399 -0.155722 -1.55522 0
M  V30 2333 H 211.134 2.25804 -2.32772 0
M  V30 2334 H 210.919 1.18195 -3.73861 0
M  V30 2335 H 212.409 2.1585 -3.57489 0
M  V30 2336 N 212.846 1.57033 -0.133567 0
M  V30 2337 C 214.092 1.95976 0.521649 0
M  V30 2338 C 214.425 1.01779 1.65393 0
M  V30 2339 O 213.7 0.0576581 1.94415 0
M  V30 2340 C 213.983 3.44738 1.04057 0
M  V30 2341 C 213.836 4.49711 -0.0892897 0
M  V30 2342 C 215.155 3.95682 1.92675 0
M  V30 2343 H 212.274 0.712579 0.188149 0
M  V30 2344 H 214.916 1.88813 -0.212076 0
M  V30 2345 H 213.066 3.50973 1.66583 0
M  V30 2346 H 214.738 4.55565 -0.725152 0
M  V30 2347 H 212.981 4.27261 -0.750378 0
M  V30 2348 H 213.652 5.51099 0.315284 0
M  V30 2349 H 216.128 3.91841 1.39998 0
M  V30 2350 H 215.004 5.00262 2.25897 0
M  V30 2351 H 215.265 3.37239 2.85872 0
M  V30 2352 N 214.325 -0.140222 1.56975 0
M  V30 2353 C 215.573 -0.850005 1.83356 0
M  V30 2354 C 215.894 -1.81399 0.71551 0
M  V30 2355 O 215.164 -1.94136 -0.262294 0
M  V30 2356 H 213.744 -0.316886 0.676456 0
M  V30 2357 H 216.406 -0.132608 1.94448 0
M  V30 2358 H 215.502 -1.40814 2.78528 0
M  V30 2359 N 215.803 -1.52179 -0.40978 0
M  V30 2360 C 216.766 -1.74853 -1.48186 0
M  V30 2361 C 217.766 -0.618417 -1.48433 0
M  V30 2362 O 218.956 -0.886286 -1.49969 0
M  V30 2363 C 216.088 -1.8303 -2.87598 0
M  V30 2364 H 217.281 -2.70559 -1.29374 0
M  V30 2365 H 214.834 -1.42586 -0.640233 0
M  V30 2366 H 215.569 -0.89236 -3.11781 0
M  V30 2367 H 215.354 -2.65187 -2.88822 0
M  V30 2368 H 216.844 -2.02316 -3.65319 0
M  V30 2369 N 217.281 0.66697 -1.42791 0
M  V30 2370 C 218.211 1.79218 -1.49677 0
M  V30 2371 C 219.192 1.66405 -0.352623 0
M  V30 2372 O 220.377 1.85708 -0.567993 0
M  V30 2373 C 217.507 3.17565 -1.40605 0
M  V30 2374 C 216.461 3.45124 -2.53127 0
M  V30 2375 C 215.787 4.83127 -2.29112 0
M  V30 2376 C 217.087 3.41236 -3.95418 0
M  V30 2377 H 218.781 1.73713 -2.43853 0
M  V30 2378 H 216.327 0.83432 -1.17367 0
M  V30 2379 H 218.28 3.96022 -1.44029 0
M  V30 2380 H 217.004 3.23767 -0.429271 0
M  V30 2381 H 215.663 2.69031 -2.49034 0
M  V30 2382 H 215.311 4.85988 -1.29709 0
M  V30 2383 H 215.011 5.02528 -3.04531 0
M  V30 2384 H 216.535 5.63859 -2.34297 0
M  V30 2385 H 217.949 4.09651 -4.01073 0
M  V30 2386 H 216.346 3.72173 -4.70752 0
M  V30 2387 H 217.416 2.39665 -4.21532 0
M  V30 2388 N 218.759 1.29093 0.90403 0
M  V30 2389 C 219.669 1.15727 2.0407 0
M  V30 2390 C 220.685 0.0815308 1.73809 0
M  V30 2391 O 221.861 0.292749 1.99261 0
M  V30 2392 C 218.926 0.830424 3.36608 0
M  V30 2393 C 217.987 1.98955 3.80415 0
M  V30 2394 C 217.22 1.6782 5.06628 0
M  V30 2395 O 217.443 0.597105 5.67266 0
M  V30 2396 O 216.377 2.52486 5.46383 0
M  V30 2397 H 220.203 2.11171 2.18267 0
M  V30 2398 H 217.788 1.08504 1.027 0
M  V30 2399 H 219.67 0.662521 4.16159 0
M  V30 2400 H 218.345 -0.0942678 3.23563 0
M  V30 2401 H 217.252 2.21267 3.01648 0
M  V30 2402 H 218.585 2.89529 3.98037 0
M  V30 2403 N 220.237 -1.11381 1.11499 0
M  V30 2404 C 221.2 -2.15622 0.777153 0
M  V30 2405 C 222.2 -1.59504 -0.203779 0
M  V30 2406 O 223.39 -1.74188 0.020782 0
M  V30 2407 C 220.522 -3.40556 0.153116 0
M  V30 2408 H 221.715 -2.47021 1.70061 0
M  V30 2409 H 219.268 -1.26577 0.916952 0
M  V30 2410 H 220.003 -3.14767 -0.780536 0
M  V30 2411 H 219.788 -3.8257 0.859238 0
M  V30 2412 H 221.278 -4.17546 -0.0671044 0
M  V30 2413 N 221.715 -0.905404 -1.28997 0
M  V30 2414 C 222.647 -0.344748 -2.26592 0
M  V30 2415 C 223.66 0.512135 -1.54535 0
M  V30 2416 O 224.849 0.328368 -1.75454 0
M  V30 2417 C 221.949 0.526587 -3.34784 0
M  V30 2418 C 221.122 -0.305871 -4.36329 0
M  V30 2419 C 220.181 0.499209 -5.23827 0
M  V30 2420 O 219.207 -0.0853004 -5.69136 0
M  V30 2421 N 220.409 1.80408 -5.51755 0
M  V30 2422 H 223.174 -1.18359 -2.75338 0
M  V30 2423 H 220.735 -0.770481 -1.42391 0
M  V30 2424 H 222.727 1.07171 -3.90252 0
M  V30 2425 H 221.297 1.26613 -2.85811 0
M  V30 2426 H 220.517 -1.0324 -3.80441 0
M  V30 2427 H 221.805 -0.875773 -5.01206 0
M  V30 2428 H 221.203 2.3016 -5.16762 0
M  V30 2429 H 219.76 2.29621 -6.10014 0
M  V30 2430 N 223.193 1.4272 -0.668489 0
M  V30 2431 C 224.123 2.335 -0.000100175 0
M  V30 2432 C 225.104 1.50328 0.795964 0
M  V30 2433 O 226.289 1.78949 0.754385 0
M  V30 2434 C 223.419 3.33874 0.956302 0
M  V30 2435 C 222.373 4.27152 0.269278 0
M  V30 2436 C 221.699 5.17684 1.33818 0
M  V30 2437 C 222.999 5.15373 -0.847805 0
M  V30 2438 H 224.693 2.89639 -0.758244 0
M  V30 2439 H 222.239 1.39269 -0.366079 0
M  V30 2440 H 224.192 3.9629 1.43292 0
M  V30 2441 H 222.916 2.76025 1.74579 0
M  V30 2442 H 221.575 3.66123 -0.187042 0
M  V30 2443 H 221.223 4.56165 2.1195 0
M  V30 2444 H 220.923 5.80918 0.883659 0
M  V30 2445 H 222.447 5.82974 1.81586 0
M  V30 2446 H 223.861 5.7151 -0.452681 0
M  V30 2447 H 222.258 5.87407 -1.22773 0
M  V30 2448 H 223.328 4.5415 -1.69929 0
M  V30 2449 N 224.671 0.411399 1.52136 0
M  V30 2450 C 225.618 -0.412975 2.27075 0
M  V30 2451 C 226.588 -1.03912 1.29582 0
M  V30 2452 O 227.773 -1.06296 1.58448 0
M  V30 2453 C 224.913 -1.52247 3.09701 0
M  V30 2454 C 224.026 -0.917021 4.22155 0
M  V30 2455 C 223.161 -1.9994 4.92135 0
M  V30 2456 C 222.2 -1.37101 5.96548 0
M  V30 2457 N 221.337 -2.39364 6.60038 0
M  V30 2458 H 226.177 0.232499 2.97092 0
M  V30 2459 H 223.714 0.126496 1.46555 0
M  V30 2460 H 225.672 -2.17674 3.55913 0
M  V30 2461 H 224.302 -2.13794 2.41851 0
M  V30 2462 H 223.354 -0.151742 3.80097 0
M  V30 2463 H 224.666 -0.418006 4.97045 0
M  V30 2464 H 223.82 -2.73088 5.41763 0
M  V30 2465 H 222.559 -2.53208 4.16818 0
M  V30 2466 H 221.564 -0.624873 5.46237 0
M  V30 2467 H 222.789 -0.845998 6.7381 0
M  V30 2468 H 220.735 -2.91759 5.87548 0
M  V30 2469 H 220.652 -1.9428 7.3061 0
M  V30 2470 H 221.92 -3.12074 7.14304 0
M  V30 2471 N 226.149 -1.5696 0.141893 0
M  V30 2472 C 227.079 -2.19516 -0.795936 0
M  V30 2473 C 228.06 -1.14187 -1.26077 0
M  V30 2474 O 229.245 -1.42511 -1.31925 0
M  V30 2475 C 226.375 -2.81272 -2.03723 0
M  V30 2476 C 225.329 -3.92384 -1.70936 0
M  V30 2477 C 224.655 -4.41052 -3.02287 0
M  V30 2478 C 225.955 -5.13403 -0.959954 0
M  V30 2479 H 227.649 -2.98138 -0.274596 0
M  V30 2480 H 225.195 -1.43406 -0.130636 0
M  V30 2481 H 227.148 -3.237 -2.69808 0
M  V30 2482 H 225.872 -1.99973 -2.58221 0
M  V30 2483 H 224.531 -3.50566 -1.07232 0
M  V30 2484 H 224.179 -3.56582 -3.54765 0
M  V30 2485 H 223.879 -5.15993 -2.81114 0
M  V30 2486 H 225.403 -4.86146 -3.69451 0
M  V30 2487 H 226.817 -5.52706 -1.52279 0
M  V30 2488 H 225.214 -5.94073 -0.848357 0
M  V30 2489 H 226.284 -4.84875 0.0492434 0
M  V30 2490 N 227.627 0.131896 -1.57047 0
M  V30 2491 C 228.574 1.16236 -1.99393 0
M  V30 2492 C 229.544 1.41863 -0.863943 0
M  V30 2493 O 230.729 1.53946 -1.12718 0
M  V30 2494 C 227.869 2.48708 -2.39245 0
M  V30 2495 C 226.982 2.30127 -3.65603 0
M  V30 2496 C 226.117 3.55738 -3.94492 0
M  V30 2497 C 225.156 3.32259 -5.14073 0
M  V30 2498 N 224.293 4.50039 -5.38896 0
M  V30 2499 H 229.133 0.794251 -2.87221 0
M  V30 2500 H 226.67 0.380707 -1.42088 0
M  V30 2501 H 228.628 3.25969 -2.60384 0
M  V30 2502 H 227.258 2.83437 -1.54478 0
M  V30 2503 H 226.31 1.43845 -3.52154 0
M  V30 2504 H 227.622 2.08746 -4.5302 0
M  V30 2505 H 226.776 4.41423 -4.1621 0
M  V30 2506 H 225.515 3.80138 -3.05526 0
M  V30 2507 H 224.52 2.44963 -4.92212 0
M  V30 2508 H 225.745 3.09242 -6.04604 0
M  V30 2509 H 223.691 4.74584 -4.52886 0
M  V30 2510 H 223.608 4.31716 -6.2061 0
M  V30 2511 H 224.876 5.36895 -5.65123 0
M  V30 2512 N 229.106 1.52395 0.401703 0
M  V30 2513 C 230.334 1.70676 1.16949 0
M  V30 2514 C 230.749 0.419503 1.8408 0
M  V30 2515 O 230.106 -0.605061 1.72178 0
M  V30 2516 C 230.157 2.84753 2.22706 0
M  V30 2517 O 229.878 4.08495 1.58314 0
M  V30 2518 C 231.379 3.14608 3.12309 0
M  V30 2519 H 228.599 0.571787 0.351142 0
M  V30 2520 H 231.143 1.98987 0.471652 0
M  V30 2521 H 229.298 2.58941 2.88147 0
M  V30 2522 H 229.712 4.72117 2.28485 0
M  V30 2523 H 231.186 3.97923 3.82572 0
M  V30 2524 H 231.663 2.28464 3.75101 0
M  V30 2525 H 232.269 3.42212 2.52529 0
M  V30 2526 N 230.584 -0.659388 1.43143 0
M  V30 2527 C 231.832 -1.41654 1.44147 0
M  V30 2528 C 232.153 -1.94893 0.0645739 0
M  V30 2529 O 231.423 -1.74044 -0.899198 0
M  V30 2530 H 230.003 -0.525708 0.530697 0
M  V30 2531 H 232.665 -0.778097 1.78694 0
M  V30 2532 H 231.761 -2.26195 2.1504 0
M  V30 2533 N 232.062 -1.29571 -0.897171 0
M  V30 2534 C 233.009 -1.14916 -2.00158 0
M  V30 2535 C 233.979 -0.0418149 -1.66047 0
M  V30 2536 O 235.164 -0.209793 -1.89643 0
M  V30 2537 C 232.304 -0.834307 -3.34863 0
M  V30 2538 C 231.417 -2.02234 -3.8174 0
M  V30 2539 C 230.552 -1.64664 -5.05034 0
M  V30 2540 C 229.591 -2.80033 -5.44286 0
M  V30 2541 N 228.728 -2.42843 -6.58765 0
M  V30 2542 H 233.568 -2.09403 -2.12025 0
M  V30 2543 H 231.105 -1.042 -1.0383 0
M  V30 2544 H 233.063 -0.632436 -4.12379 0
M  V30 2545 H 231.693 0.0736656 -3.22716 0
M  V30 2546 H 230.745 -2.33583 -3.00238 0
M  V30 2547 H 232.057 -2.88673 -4.06779 0
M  V30 2548 H 231.211 -1.4078 -5.9014 0
M  V30 2549 H 229.95 -0.753766 -4.8184 0
M  V30 2550 H 228.955 -3.04596 -4.57713 0
M  V30 2551 H 230.18 -3.69989 -5.6946 0
M  V30 2552 H 228.126 -1.56046 -6.3717 0
M  V30 2553 H 228.043 -3.22815 -6.83613 0
M  V30 2554 H 229.311 -2.22285 -7.47134 0
M  V30 2555 N 233.54 1.10788 -1.12088 0
M  V30 2556 C 234.47 2.19083 -0.807755 0
M  V30 2557 C 235.451 1.6858 0.226859 0
M  V30 2558 O 236.636 1.93997 0.0888475 0
M  V30 2559 C 233.766 3.46344 -0.257576 0
M  V30 2560 C 232.72 4.101 -1.22483 0
M  V30 2561 C 232.046 5.32016 -0.535052 0
M  V30 2562 C 233.346 4.54236 -2.57811 0
M  V30 2563 H 235.04 2.45534 -1.71328 0
M  V30 2564 H 232.586 1.1801 -0.825205 0
M  V30 2565 H 234.539 4.21392 -0.0262679 0
M  V30 2566 H 233.263 3.19373 0.683278 0
M  V30 2567 H 231.922 3.37054 -1.44189 0
M  V30 2568 H 231.57 5.01319 0.410827 0
M  V30 2569 H 231.27 5.75625 -1.18024 0
M  V30 2570 H 232.794 6.09799 -0.312695 0
M  V30 2571 H 234.208 5.20575 -2.40155 0
M  V30 2572 H 232.605 5.08682 -3.18375 0
M  V30 2573 H 233.675 3.6734 -3.16528 0
M  V30 2574 N 235.018 0.912232 1.28515 0
M  V30 2575 C 236.264 0.545405 1.95328 0
M  V30 2576 C 236.597 -0.908313 1.71649 0
M  V30 2577 O 235.872 -1.64575 1.03659 0
M  V30 2578 C 236.155 0.853483 3.4984 0
M  V30 2579 C 236.008 2.35982 3.82926 0
M  V30 2580 C 237.327 0.348589 4.38717 0
M  V30 2581 H 234.446 0.199626 0.709449 0
M  V30 2582 H 237.088 1.1412 1.5191 0
M  V30 2583 H 235.238 0.34643 3.86952 0
M  V30 2584 H 236.91 2.93738 3.55691 0
M  V30 2585 H 235.153 2.81543 3.30024 0
M  V30 2586 H 235.824 2.52593 4.90816 0
M  V30 2587 H 238.3 0.78294 4.08668 0
M  V30 2588 H 237.176 0.593242 5.45685 0
M  V30 2589 H 237.437 -0.751049 4.35674 0
M  V30 2590 N 236.496 -1.42363 0.676048 0
M  V30 2591 C 237.721 -2.06377 0.205705 0
M  V30 2592 C 238.146 -1.50463 -1.12883 0
M  V30 2593 O 237.504 -0.623619 -1.70237 0
M  V30 2594 C 237.552 -3.60277 0.152655 0
M  V30 2595 O 236.656 -4.02935 -0.87845 0
M  V30 2596 H 235.997 -0.655588 0.105359 0
M  V30 2597 H 238.527 -1.82475 0.925412 0
M  V30 2598 H 238.537 -4.07993 -0.0230675 0
M  V30 2599 H 237.212 -4.00346 1.12675 0
M  V30 2600 H 235.789 -3.66764 -0.673668 0
M  V30 2601 N 237.974 -0.419461 -1.51915 0
M  V30 2602 C 238.904 0.391813 -2.30189 0
M  V30 2603 C 239.885 1.03699 -1.34836 0
M  V30 2604 O 241.07 1.04403 -1.63748 0
M  V30 2605 C 238.2 1.50312 -3.13087 0
M  V30 2606 C 237.154 0.9824 -4.16573 0
M  V30 2607 C 236.48 2.18809 -4.8788 0
M  V30 2608 C 237.78 0.0292356 -5.22292 0
M  V30 2609 H 239.474 -0.26135 -2.98257 0
M  V30 2610 H 237.02 -0.127134 -1.43438 0
M  V30 2611 H 238.973 2.07773 -3.66617 0
M  V30 2612 H 237.697 2.18431 -2.42807 0
M  V30 2613 H 236.356 0.430119 -3.64068 0
M  V30 2614 H 236.004 2.85507 -4.14119 0
M  V30 2615 H 235.704 1.84615 -5.57845 0
M  V30 2616 H 237.228 2.76858 -5.44226 0
M  V30 2617 H 238.642 0.512976 -5.71 0
M  V30 2618 H 237.039 -0.2244 -5.9968 0
M  V30 2619 H 238.109 -0.912931 -4.76228 0
M  V30 2620 N 239.452 1.56882 -0.150215 0
M  V30 2621 C 240.677 2.01027 0.510184 0
M  V30 2622 C 241.102 1.02966 1.57415 0
M  V30 2623 O 240.46 0.00590158 1.81299 0
M  V30 2624 C 240.508 3.43899 1.08472 0
M  V30 2625 O 239.612 3.4885 2.19948 0
M  V30 2626 H 238.953 0.652233 0.124451 0
M  V30 2627 H 241.483 2.03093 -0.247894 0
M  V30 2628 H 241.493 3.82766 1.41259 0
M  V30 2629 H 240.168 4.14776 0.305582 0
M  V30 2630 H 238.745 3.21827 1.88366 0
M  V30 2631 N 240.93 -0.123565 1.57115 0
M  V30 2632 C 241.893 -1.13583 1.99076 0
M  V30 2633 C 242.893 -1.34564 0.880296 0
M  V30 2634 O 244.083 -1.31158 1.14644 0
M  V30 2635 C 241.215 -2.49128 2.32698 0
M  V30 2636 H 242.408 -0.775287 2.89706 0
M  V30 2637 H 239.961 -0.36771 1.51913 0
M  V30 2638 H 240.696 -2.90111 1.44934 0
M  V30 2639 H 240.481 -2.35255 3.13684 0
M  V30 2640 H 241.971 -3.2199 2.65918 0
M  V30 2641 N 242.408 -1.52605 -0.393616 0
M  V30 2642 C 243.34 -1.73303 -1.49995 0
M  V30 2643 C 244.353 -0.613473 -1.50799 0
M  V30 2644 O 245.542 -0.889049 -1.54784 0
M  V30 2645 C 242.642 -1.77245 -2.88855 0
M  V30 2646 C 241.815 -3.06483 -3.12069 0
M  V30 2647 C 240.874 -3.02033 -4.30886 0
M  V30 2648 O 239.9 -3.75907 -4.27414 0
M  V30 2649 N 241.102 -2.20897 -5.36828 0
M  V30 2650 H 243.867 -2.68756 -1.32629 0
M  V30 2651 H 241.428 -1.51036 -0.583083 0
M  V30 2652 H 243.42 -1.7178 -3.66434 0
M  V30 2653 H 241.99 -0.891993 -2.99603 0
M  V30 2654 H 241.21 -3.25474 -2.22396 0
M  V30 2655 H 242.498 -3.91947 -3.2443 0
M  V30 2656 H 241.896 -1.60336 -5.42502 0
M  V30 2657 H 240.453 -2.21275 -6.13091 0
M  V30 2658 N 243.887 0.651787 -1.4349 0
M  V30 2659 C 244.835 1.78586 -1.49029 0
M  V30 2660 C 245.829 1.65448 -0.363767 0
M  V30 2661 O 247.035 1.71777 -0.537821 0
M  V30 2662 H 243.41 0.589236 -0.467231 0
M  V30 2663 H 245.381 1.71035 -2.44519 0
M  V30 2664 C 244.13 3.16851 -1.43181 0
M  V30 2665 H 243.453 3.27598 -2.29171 0
M  V30 2666 H 244.893 3.96156 -1.51118 0
M  V30 2667 C 243.352 3.36568 -0.149616 0
M  V30 2668 O 243.882 3.93885 0.788509 0
M  V30 2669 N 242.088 2.90539 -0.0593484 0
M  V30 2670 H 241.635 2.4408 -0.823575 0
M  V30 2671 H 241.593 3.04108 0.797853 0
M  V30 2672 N 245.365 1.30045 0.890287 0
M  V30 2673 C 246.295 1.18541 2.01172 0
M  V30 2674 C 247.276 0.0773356 1.69924 0
M  V30 2675 O 248.461 0.25845 1.92473 0
M  V30 2676 C 245.591 0.870941 3.36202 0
M  V30 2677 C 244.545 1.93637 3.81692 0
M  V30 2678 C 243.871 1.475 5.13953 0
M  V30 2679 C 245.171 3.34666 4.00994 0
M  V30 2680 H 246.865 2.12359 2.11054 0
M  V30 2681 H 244.411 1.02238 1.01407 0
M  V30 2682 H 246.364 0.777141 4.14172 0
M  V30 2683 H 245.088 -0.102926 3.26438 0
M  V30 2684 H 243.747 2.01972 3.05946 0
M  V30 2685 H 243.395 0.489551 5.00612 0
M  V30 2686 H 243.095 2.1876 5.4536 0
M  V30 2687 H 244.619 1.39489 5.94454 0
M  V30 2688 H 246.033 3.2912 4.69417 0
M  V30 2689 H 244.43 4.03966 4.43769 0
M  V30 2690 H 245.5 3.76949 3.05021 0
M  V30 2691 N 246.843 -1.10192 1.12674 0
M  V30 2692 C 248.089 -1.82475 0.884915 0
M  V30 2693 C 248.422 -1.85093 -0.58773 0
M  V30 2694 O 247.697 -1.3134 -1.43457 0
M  V30 2695 C 247.98 -3.29018 1.46353 0
M  V30 2696 C 247.833 -3.34718 3.00473 0
M  V30 2697 C 249.152 -4.25473 1.12519 0
M  V30 2698 H 246.271 -0.662492 0.322915 0
M  V30 2699 H 248.913 -1.2913 1.39375 0
M  V30 2700 H 247.063 -3.74576 1.03077 0
M  V30 2701 H 248.735 -2.97622 3.52447 0
M  V30 2702 H 246.978 -2.74541 3.35872 0
M  V30 2703 H 247.649 -4.37918 3.36053 0
M  V30 2704 H 250.125 -3.88161 1.499 0
M  V30 2705 H 249.001 -5.26365 1.55663 0
M  V30 2706 H 249.262 -4.42084 0.0377407 0
M  V30 2707 N 248.321 -0.919034 -1.28029 0
M  V30 2708 C 249.598 -0.473668 -1.89778 0
M  V30 2709 C 249.978 1.04783 -1.83259 0
M  V30 2710 O 249.326 1.8982 -1.27202 0
M  V30 2711 C 249.536 -1.00998 -3.34066 0
M  V30 2712 C 250.884 -1.06525 -4.1102 0
M  V30 2713 O 251.908 -0.958996 -3.43048 0
M  V30 2714 O 250.767 -1.22776 -5.3253 0
M  V30 2715 H 247.861 -0.15098 -0.813101 0
M  V30 2716 H 250.407 -1.01016 -1.36359 0
M  V30 2717 H 249.179 -2.05392 -3.33061 0
M  V30 2718 H 248.802 -0.454626 -3.94992 0
M  V30 2719 N 249.799 1.42003 -0.683588 0
M  V30 2720 C 251.039 2.03282 -0.213513 0
M  V30 2721 C 251.403 1.52924 1.16097 0
M  V30 2722 O 252.604 2.06048 1.7262 0
M  V30 2723 C 250.875 3.56483 -0.255856 0
M  V30 2724 S 252.434 4.3857 0.14193 0
M  V30 2725 H 249.252 0.705659 -0.0869853 0
M  V30 2726 H 251.854 1.73619 -0.8987 0
M  V30 2727 H 250.558 3.90631 -1.25841 0
M  V30 2728 H 250.089 3.90831 0.448875 0
M  V30 2729 H 252.104 4.76828 1.37295 0
M  V30 2730 N 251.277 0.427512 1.51691 0
M  V30 2731 C 252.502 -0.143601 2.06902 0
M  V30 2732 C 252.927 -1.36536 1.29382 0
M  V30 2733 O 252.285 -1.78289 0.329043 0
M  V30 2734 C 252.333 -0.454207 3.57728 0
M  V30 2735 O 251.437 -1.54228 3.82475 0
M  V30 2736 H 250.778 -0.00617128 0.663971 0
M  V30 2737 H 253.308 0.606014 1.95419 0
M  V30 2738 H 253.318 -0.707525 4.01818 0
M  V30 2739 H 251.993 0.438812 4.13579 0
M  V30 2740 H 250.57 -1.2797 3.50254 0
M  V30 2741 N 252.755 -1.56801 0.158532 0
M  V30 2742 C 253.983 -2.00859 -0.496303 0
M  V30 2743 C 254.398 -1.03871 -1.57659 0
M  V30 2744 O 253.755 -0.0375165 -1.82461 0
M  V30 2745 C 253.806 -3.4479 -1.08638 0
M  V30 2746 O 253.527 -4.38072 -0.0492322 0
M  V30 2747 C 255.028 -4.04185 -1.8207 0
M  V30 2748 H 252.248 -0.65864 -0.128199 0
M  V30 2749 H 254.792 -2.02885 0.256506 0
M  V30 2750 H 252.947 -3.43579 -1.78975 0
M  V30 2751 H 253.361 -5.2227 -0.483102 0
M  V30 2752 H 254.835 -5.06857 -2.18633 0
M  V30 2753 H 255.312 -3.45549 -2.71095 0
M  V30 2754 H 255.918 -4.0906 -1.16405 0
M  V30 2755 N 254.233 0.115231 -1.57178 0
M  V30 2756 C 255.143 1.15994 -2.03918 0
M  V30 2757 C 256.159 1.45103 -0.960268 0
M  V30 2758 O 257.335 1.56144 -1.27204 0
M  V30 2759 C 254.4 2.46568 -2.43732 0
M  V30 2760 C 253.461 2.24822 -3.65723 0
M  V30 2761 C 252.694 3.4917 -4.03629 0
M  V30 2762 O 252.917 4.56623 -3.41835 0
M  V30 2763 O 251.851 3.39949 -4.96708 0
M  V30 2764 H 255.677 0.793019 -2.93164 0
M  V30 2765 H 253.262 0.3263 -1.45793 0
M  V30 2766 H 255.144 3.23492 -2.70057 0
M  V30 2767 H 253.819 2.82726 -1.57631 0
M  V30 2768 H 252.726 1.45744 -3.44542 0
M  V30 2769 H 254.059 1.93566 -4.52541 0
M  V30 2770 N 255.711 1.52812 0.385517 0
M  V30 2771 C 256.658 1.77838 1.47113 0
M  V30 2772 C 257.628 0.621757 1.54024 0
M  V30 2773 O 258.813 0.861846 1.70226 0
M  V30 2774 C 255.953 1.95618 2.84302 0
M  V30 2775 C 255.066 3.23316 2.86515 0
M  V30 2776 C 254.201 3.31394 4.15152 0
M  V30 2777 C 253.24 4.53201 4.1143 0
M  V30 2778 N 252.377 4.58542 5.3168 0
M  V30 2779 H 257.217 2.70482 1.25073 0
M  V30 2780 H 254.754 1.34006 0.606692 0
M  V30 2781 H 256.712 2.03912 3.63972 0
M  V30 2782 H 255.342 1.06331 3.04784 0
M  V30 2783 H 254.394 3.24076 1.99195 0
M  V30 2784 H 255.706 4.13045 2.79634 0
M  V30 2785 H 254.86 3.3889 5.03228 0
M  V30 2786 H 253.599 2.39645 4.24761 0
M  V30 2787 H 252.604 4.45827 3.21742 0
M  V30 2788 H 253.829 5.46271 4.03442 0
M  V30 2789 H 251.775 3.69686 5.41912 0
M  V30 2790 H 251.692 5.42148 5.26889 0
M  V30 2791 H 252.96 4.70296 6.21644 0
M  V30 2792 N 257.189 -0.644168 1.43834 0
M  V30 2793 C 258.419 -1.42939 1.49171 0
M  V30 2794 C 258.827 -1.88874 0.111048 0
M  V30 2795 O 258.17 -1.60656 -0.8908 0
M  V30 2796 C 258.232 -2.69151 2.38324 0
M  V30 2797 C 257.896 -2.45097 3.85715 0
M  V30 2798 C 258.893 -2.07747 4.76589 0
M  V30 2799 C 256.578 -2.59141 4.30292 0
M  V30 2800 C 258.572 -1.8475 6.10038 0
M  V30 2801 C 256.259 -2.35759 5.63792 0
M  V30 2802 C 257.257 -1.9862 6.53482 0
M  V30 2803 O 256.945 -1.75489 7.84512 0
M  V30 2804 H 256.677 -0.445271 0.508635 0
M  V30 2805 H 259.231 -0.79621 1.8934 0
M  V30 2806 H 257.461 -3.3506 1.93058 0
M  V30 2807 H 259.15 -3.31123 2.3476 0
M  V30 2808 H 259.916 -1.96465 4.43426 0
M  V30 2809 H 255.795 -2.87022 3.60749 0
M  V30 2810 H 259.339 -1.55686 6.80006 0
M  V30 2811 H 255.236 -2.46646 5.9652 0
M  V30 2812 H 256.004 -1.89841 7.9618 0
M  V30 2813 N 258.668 -1.30515 -0.883378 0
M  V30 2814 C 259.916 -1.19194 -1.63209 0
M  V30 2815 C 260.237 0.253205 -1.93349 0
M  V30 2816 O 259.507 1.17025 -1.57105 0
M  V30 2817 H 258.087 -0.438148 -0.605009 0
M  V30 2818 H 260.749 -1.63663 -1.05832 0
M  V30 2819 H 259.845 -1.75396 -2.58153 0
M  V30 2820 N 260.146 1.09593 -1.13257 0
M  V30 2821 C 261.094 2.18271 -0.803783 0
M  V30 2822 C 262.088 1.68054 0.213148 0
M  V30 2823 O 263.294 1.79862 0.0704699 0
M  V30 2824 H 259.669 0.711949 -0.242143 0
M  V30 2825 H 261.64 2.43235 -1.72856 0
M  V30 2826 C 260.389 3.46536 -0.28424 0
M  V30 2827 H 259.712 3.85545 -1.05807 0
M  V30 2828 H 261.152 4.23899 -0.0925945 0
M  V30 2829 C 259.611 3.22036 0.989684 0
M  V30 2830 O 260.141 3.44509 2.06584 0
M  V30 2831 N 258.347 2.7565 0.920086 0
M  V30 2832 H 257.894 2.57562 0.0442019 0
M  V30 2833 H 257.852 2.59635 1.77306 0
M  V30 2834 N 261.624 0.925811 1.2754 0
M  V30 2835 C 262.571 0.422045 2.26908 0
M  V30 2836 C 263.541 -0.510029 1.58076 0
M  V30 2837 O 264.726 -0.429599 1.85901 0
M  V30 2838 C 261.866 -0.320837 3.43605 0
M  V30 2839 C 260.979 0.64513 4.27156 0
M  V30 2840 C 260.114 -0.117405 5.3107 0
M  V30 2841 C 259.153 0.841391 6.0629 0
M  V30 2842 N 258.29 0.111604 7.02011 0
M  V30 2843 H 263.13 1.27441 2.69375 0
M  V30 2844 H 260.667 0.639697 1.32462 0
M  V30 2845 H 262.625 -0.76785 4.10073 0
M  V30 2846 H 261.255 -1.13745 3.02096 0
M  V30 2847 H 260.307 1.21067 3.6062 0
M  V30 2848 H 261.619 1.37797 4.79389 0
M  V30 2849 H 260.773 -0.624422 6.03478 0
M  V30 2850 H 259.512 -0.883219 4.79636 0
M  V30 2851 H 258.517 1.35967 5.32722 0
M  V30 2852 H 259.742 1.60696 6.59813 0
M  V30 2853 H 257.688 -0.635999 6.5291 0
M  V30 2854 H 257.605 0.784044 7.51923 0
M  V30 2855 H 258.873 -0.374823 7.78598 0
M  V30 2856 N 263.102 -1.41638 0.69111 0
M  V30 2857 C 264.35 -2.00902 0.219758 0
M  V30 2858 C 264.671 -1.54994 -1.18329 0
M  V30 2859 O 263.941 -0.778628 -1.79762 0
M  V30 2860 H 262.521 -0.74289 0.0782558 0
M  V30 2861 H 265.183 -1.73327 0.891271 0
M  V30 2862 H 264.279 -3.11224 0.233708 0
M  V30 2863 N 264.58 -0.43555 -1.51462 0
M  V30 2864 C 265.82 0.130708 -2.03982 0
M  V30 2865 C 266.184 1.40117 -1.31268 0
M  V30 2866 O 267.385 2.04755 -1.74152 0
M  V30 2867 C 265.656 0.346102 -3.5572 0
M  V30 2868 S 267.215 0.876022 -4.29967 0
M  V30 2869 H 264.033 0.0326881 -0.710248 0
M  V30 2870 H 266.635 -0.594544 -1.8624 0
M  V30 2871 H 265.339 -0.584911 -4.0621 0
M  V30 2872 H 264.87 1.09849 -3.77752 0
M  V30 2873 H 266.885 2.15379 -4.47019 0
M  V30 2874 N 266.058 1.56714 -0.166846 0
M  V30 2875 C 267.006 2.19056 0.782123 0
M  V30 2876 C 268 1.15328 1.24079 0
M  V30 2877 O 269.206 1.33537 1.20697 0
M  V30 2878 H 265.581 0.70167 0.270486 0
M  V30 2879 H 267.552 2.97494 0.232322 0
M  V30 2880 C 266.301 2.84206 2.00306 0
M  V30 2881 H 265.624 3.63748 1.65914 0
M  V30 2882 H 267.064 3.31302 2.64604 0
M  V30 2883 C 265.523 1.83744 2.82382 0
M  V30 2884 O 266.053 1.32014 3.79388 0
M  V30 2885 N 264.259 1.52601 2.47308 0
M  V30 2886 H 263.806 1.9486 1.68485 0
M  V30 2887 H 263.764 0.856351 3.02513 0
M  V30 2888 N 267.536 -0.106894 1.57237 0
M  V30 2889 C 268.784 -0.810921 1.85117 0
M  V30 2890 C 269.105 -1.7984 0.753827 0
M  V30 2891 O 268.375 -1.94649 -0.221056 0
M  V30 2892 H 266.955 -0.302466 0.683025 0
M  V30 2893 H 269.617 -0.0913324 1.94686 0
M  V30 2894 H 268.713 -1.34875 2.81452 0
M  V30 2895 N 269.014 -1.53014 -0.377408 0
M  V30 2896 C 270.262 -1.6829 -1.11906 0
M  V30 2897 C 270.583 -0.431206 -1.90173 0
M  V30 2898 O 269.853 0.554595 -1.87886 0
M  V30 2899 H 268.433 -0.620371 -0.416112 0
M  V30 2900 H 271.095 -1.90167 -0.426893 0
M  V30 2901 H 270.191 -2.53862 -1.8155 0
M  V30 2902 N 270.492 0.636531 -1.44174 0
M  V30 2903 C 271.739 1.39619 -1.46672 0
M  V30 2904 C 272.067 1.94257 -0.0972691 0
M  V30 2905 O 271.322 1.73768 0.900175 0
M  V30 2906 C 271.621 2.58309 -2.47005 0
M  V30 2907 C 271.287 2.21992 -3.92467 0
M  V30 2908 C 269.949 2.118 -4.32081 0
M  V30 2909 C 272.301 1.9321 -4.84065 0
M  V30 2910 C 269.629 1.71007 -5.61225 0
M  V30 2911 C 271.981 1.53911 -6.13591 0
M  V30 2912 C 270.645 1.42257 -6.52165 0
M  V30 2913 H 269.915 0.510902 -0.536712 0
M  V30 2914 H 272.562 0.722328 -1.77355 0
M  V30 2915 H 270.867 3.30903 -2.09786 0
M  V30 2916 H 272.564 3.16533 -2.46186 0
M  V30 2917 H 269.154 2.30841 -3.61124 0
M  V30 2918 H 273.338 1.99997 -4.54219 0
M  V30 2919 H 268.594 1.60583 -5.89935 0
M  V30 2920 H 272.768 1.30677 -6.8403 0
M  V30 2921 H 270.395 1.10419 -7.52138 0
M  V30 2922 N 271.97 1.30982 0.876444 0
M  V30 2923 C 272.903 1.12414 1.98591 0
M  V30 2924 C 273.881 0.0294078 1.62573 0
M  V30 2925 O 275.065 0.184598 1.87594 0
M  V30 2926 C 272.192 0.716276 3.3104 0
M  V30 2927 C 271.238 1.81311 3.86042 0
M  V30 2928 S 272.071 3.41727 4.1229 0
M  V30 2929 C 273.227 3.02863 5.47745 0
M  V30 2930 H 273.46 2.06338 2.14037 0
M  V30 2931 H 270.993 1.15393 1.02586 0
M  V30 2932 H 272.951 0.487697 4.07593 0
M  V30 2933 H 271.612 -0.203749 3.13438 0
M  V30 2934 H 270.805 1.48021 4.81774 0
M  V30 2935 H 270.407 1.99641 3.16259 0
M  V30 2936 H 272.699 2.51353 6.29148 0
M  V30 2937 H 273.642 3.97533 5.8598 0
M  V30 2938 H 274.05 2.40487 5.10711 0
M  V30 2939 N 273.449 -1.08991 1.13837 0
M  V30 2940 C 274.677 -1.85011 0.926202 0
M  V30 2941 C 275.092 -1.8135 -0.525127 0
M  V30 2942 O 274.449 -1.21287 -1.36366 0
M  V30 2943 C 274.5 -3.32802 1.41155 0
M  V30 2944 O 274.221 -3.36444 2.80601 0
M  V30 2945 C 275.722 -4.25649 1.23847 0
M  V30 2946 H 272.942 -0.584249 0.32999 0
M  V30 2947 H 275.486 -1.37688 1.51202 0
M  V30 2948 H 273.641 -3.77536 0.868631 0
M  V30 2949 H 274.055 -4.28657 3.02248 0
M  V30 2950 H 275.529 -5.27485 1.62675 0
M  V30 2951 H 276.006 -4.38828 0.18065 0
M  V30 2952 H 276.612 -3.86735 1.76964 0
M  V30 2953 N 274.927 -0.932562 -1.27047 0
M  V30 2954 C 276.155 -0.592031 -1.98249 0
M  V30 2955 C 276.57 0.831062 -1.69525 0
M  V30 2956 O 275.927 1.55299 -0.958561 0
M  V30 2957 C 275.978 -0.814279 -3.5221 0
M  V30 2958 O 275.699 -2.18139 -3.7993 0
M  V30 2959 C 277.2 -0.483121 -4.4066 0
M  V30 2960 H 274.42 -0.223896 -0.632544 0
M  V30 2961 H 276.964 -1.25091 -1.61779 0
M  V30 2962 H 275.119 -0.20213 -3.86872 0
M  V30 2963 H 275.533 -2.235 -4.74498 0
M  V30 2964 H 277.007 -0.689298 -5.47679 0
M  V30 2965 H 277.484 0.581546 -4.35333 0
M  V30 2966 H 278.09 -1.07362 -4.11526 0
M  V30 2967 N 276.405 1.4127 -0.698611 0
M  V30 2968 C 277.368 2.29158 -0.044132 0
M  V30 2969 C 278.368 1.44529 0.704841 0
M  V30 2970 O 279.558 1.65643 0.539276 0
M  V30 2971 C 276.69 3.27459 0.947809 0
M  V30 2972 H 277.883 2.88529 -0.817994 0
M  V30 2973 H 275.436 1.49307 -0.46228 0
M  V30 2974 H 276.171 2.73073 1.74933 0
M  V30 2975 H 275.956 3.8991 0.41385 0
M  V30 2976 H 277.446 3.93311 1.40344 0
M  V30 2977 N 277.883 0.443576 1.51229 0
M  V30 2978 C 279.13 -0.120796 2.02139 0
M  V30 2979 C 279.458 -1.42166 1.32736 0
M  V30 2980 O 278.713 -1.90849 0.43301 0
M  V30 2981 C 279.012 -0.380579 3.55368 0
M  V30 2982 C 278.678 0.83523 4.43097 0
M  V30 2983 C 277.34 1.16864 4.66794 0
M  V30 2984 C 279.692 1.64601 4.94526 0
M  V30 2985 C 277.02 2.31339 5.39165 0
M  V30 2986 C 279.372 2.78181 5.68153 0
M  V30 2987 C 278.036 3.11969 5.90112 0
M  V30 2988 H 277.306 -0.0442023 0.73968 0
M  V30 2989 H 279.953 0.592046 1.82118 0
M  V30 2990 H 278.258 -1.17538 3.73754 0
M  V30 2991 H 279.955 -0.830777 3.923 0
M  V30 2992 H 276.545 0.565437 4.24854 0
M  V30 2993 H 280.729 1.40163 4.76097 0
M  V30 2994 H 275.985 2.57823 5.5438 0
M  V30 2995 H 280.159 3.41371 6.06992 0
M  V30 2996 H 277.786 4.00784 6.45969 0
M  V30 2997 N 279.361 -1.56624 0.175154 0
M  V30 2998 C 280.293 -2.15333 -0.785128 0
M  V30 2999 C 281.306 -1.1099 -1.19101 0
M  V30 3000 O 282.495 -1.38162 -1.13019 0
M  V30 3001 C 279.595 -2.68427 -2.06882 0
M  V30 3002 C 278.768 -3.97466 -1.8259 0
M  V30 3003 C 277.827 -4.35585 -2.95215 0
M  V30 3004 O 276.853 -5.03389 -2.65684 0
M  V30 3005 N 278.055 -3.97457 -4.23094 0
M  V30 3006 H 280.82 -2.98359 -0.283187 0
M  V30 3007 H 278.381 -1.61898 -0.00749817 0
M  V30 3008 H 280.373 -2.90924 -2.81328 0
M  V30 3009 H 278.943 -1.89968 -2.48256 0
M  V30 3010 H 278.163 -3.83307 -0.920287 0
M  V30 3011 H 279.451 -4.81736 -1.63733 0
M  V30 3012 H 278.849 -3.42878 -4.49945 0
M  V30 3013 H 277.406 -4.24947 -4.9423 0
M  V30 3014 N 280.839 0.0985539 -1.57292 0
M  V30 3015 C 282.069 0.815135 -1.8984 0
M  V30 3016 C 282.477 1.7297 -0.766679 0
M  V30 3017 O 281.82 1.81698 0.270483 0
M  V30 3018 C 281.882 1.6842 -3.17608 0
M  V30 3019 C 281.546 0.94182 -4.4719 0
M  V30 3020 C 282.543 0.273212 -5.19182 0
M  V30 3021 C 280.228 0.916927 -4.9386 0
M  V30 3022 C 282.222 -0.410361 -6.36078 0
M  V30 3023 C 279.909 0.229567 -6.10669 0
M  V30 3024 C 280.907 -0.432902 -6.81627 0
M  V30 3025 O 280.595 -1.10925 -7.9621 0
M  V30 3026 H 280.327 0.238501 -0.632529 0
M  V30 3027 H 282.881 0.0812659 -2.05239 0
M  V30 3028 H 281.111 2.46022 -2.98345 0
M  V30 3029 H 282.8 2.27704 -3.36015 0
M  V30 3030 H 283.566 0.283927 -4.84168 0
M  V30 3031 H 279.445 1.42201 -4.3852 0
M  V30 3032 H 282.989 -0.928013 -6.914 0
M  V30 3033 H 278.886 0.216686 -6.45136 0
M  V30 3034 H 279.654 -1.01579 -8.12172 0
M  V30 3035 N 282.317 1.53212 0.369288 0
M  V30 3036 C 283.566 1.68436 1.10961 0
M  V30 3037 C 283.879 0.440738 1.9057 0
M  V30 3038 O 285.085 0.473446 2.6734 0
M  V30 3039 C 283.541 2.97744 2.0218 0
M  V30 3040 C 283.149 4.29355 1.279 0
M  V30 3041 C 284.893 3.22334 2.76226 0
M  V30 3042 C 282.8 5.49755 2.17999 0
M  V30 3043 H 281.73 0.627568 0.41794 0
M  V30 3044 H 284.381 1.79713 0.370884 0
M  V30 3045 H 282.763 2.8026 2.79768 0
M  V30 3046 H 283.937 4.57458 0.554007 0
M  V30 3047 H 282.252 4.11179 0.657311 0
M  V30 3048 H 284.849 4.09471 3.43857 0
M  V30 3049 H 285.192 2.38238 3.41392 0
M  V30 3050 H 285.725 3.40475 2.05723 0
M  V30 3051 H 282.464 6.36318 1.57417 0
M  V30 3052 H 281.984 5.25937 2.88359 0
M  V30 3053 H 283.663 5.84401 2.77641 0
M  V30 3054 N 283.795 -0.628877 1.44509 0
M  V30 3055 C 285.044 -1.38437 1.4669 0
M  V30 3056 C 285.357 -1.95322 0.104272 0
M  V30 3057 O 286.563 -2.715 0.00362163 0
M  V30 3058 C 285.019 -2.50659 2.5826 0
M  V30 3059 C 284.627 -2.00277 4.0074 0
M  V30 3060 C 286.371 -3.27844 2.69664 0
M  V30 3061 C 284.278 -3.09854 5.0373 0
M  V30 3062 H 283.208 -0.520245 0.545766 0
M  V30 3063 H 285.859 -0.676313 1.70582 0
M  V30 3064 H 284.241 -3.2405 2.27612 0
M  V30 3065 H 285.415 -1.33736 4.40966 0
M  V30 3066 H 283.73 -1.35901 3.93599 0
M  V30 3067 H 286.327 -4.09534 3.43781 0
M  V30 3068 H 286.67 -3.77471 1.75559 0
M  V30 3069 H 287.203 -2.61543 2.99733 0
M  V30 3070 H 283.942 -2.65168 5.99472 0
M  V30 3071 H 283.462 -3.7503 4.68095 0
M  V30 3072 H 285.141 -3.74592 5.27532 0
M  V30 3073 N 285.273 -1.31445 -0.869486 0
M  V30 3074 C 286.55 -1.11795 -1.60503 0
M  V30 3075 C 286.93 0.327168 -2.08549 0
M  V30 3076 O 286.278 1.32135 -1.8642 0
M  V30 3077 C 286.488 -2.13258 -2.76265 0
M  V30 3078 C 287.836 -2.45805 -3.46215 0
M  V30 3079 O 288.86 -2.11688 -2.86473 0
M  V30 3080 O 287.719 -3.04228 -4.5399 0
M  V30 3081 H 284.813 -0.430421 -0.706163 0
M  V30 3082 H 287.359 -1.42925 -0.914907 0
M  V30 3083 H 286.131 -3.10461 -2.3818 0
M  V30 3084 H 285.754 -1.83035 -3.52964 0
M  V30 3085 N 286.751 1.08385 -1.14413 0
M  V30 3086 C 287.699 2.17406 -0.826888 0
M  V30 3087 C 288.693 1.6827 0.195312 0
M  V30 3088 O 289.899 1.79927 0.0513892 0
M  V30 3089 H 286.274 0.70934 -0.249681 0
M  V30 3090 H 288.245 2.41388 -1.75426 0
M  V30 3091 C 286.994 3.46215 -0.320979 0
M  V30 3092 H 286.317 3.84401 -1.0989 0
M  V30 3093 H 287.757 4.23777 -0.137549 0
M  V30 3094 C 286.216 3.23067 0.955472 0
M  V30 3095 O 286.746 3.4668 2.02918 0
M  V30 3096 N 284.952 2.7661 0.890798 0
M  V30 3097 H 284.499 2.57594 0.0168815 0
M  V30 3098 H 284.457 2.61501 1.74542 0
M  V30 3099 N 288.23 0.939286 1.26551 0
M  V30 3100 C 289.177 0.446088 2.26448 0
M  V30 3101 C 290.147 -0.493234 1.58608 0
M  V30 3102 O 291.332 -0.409857 1.86346 0
M  V30 3103 C 288.472 -0.284375 3.43926 0
M  V30 3104 C 287.585 0.690399 4.26448 0
M  V30 3105 C 286.72 -0.0610712 5.31165 0
M  V30 3106 C 285.759 0.905649 6.05363 0
M  V30 3107 N 284.896 0.186055 7.01853 0
M  V30 3108 H 289.736 1.30291 2.68008 0
M  V30 3109 H 287.273 0.65371 1.31776 0
M  V30 3110 H 289.231 -0.724313 4.10864 0
M  V30 3111 H 287.861 -1.10535 3.03285 0
M  V30 3112 H 286.913 1.24885 3.59316 0
M  V30 3113 H 288.225 1.42873 4.779 0
M  V30 3114 H 287.379 -0.56038 6.04106 0
M  V30 3115 H 286.118 -0.832297 4.80546 0
M  V30 3116 H 285.123 1.4161 5.3125 0
M  V30 3117 H 286.348 1.67685 6.58072 0
M  V30 3118 H 284.294 -0.566714 6.53548 0
M  V30 3119 H 284.211 0.863752 7.51049 0
M  V30 3120 H 285.479 -0.292221 7.78952 0
M  V30 3121 N 289.708 -1.40897 0.706093 0
M  V30 3122 C 290.956 -2.00657 0.241054 0
M  V30 3123 C 291.277 -1.56241 -1.16678 0
M  V30 3124 O 290.547 -0.79765 -1.78926 0
M  V30 3125 H 289.127 -0.742018 0.0861308 0
M  V30 3126 H 291.789 -1.72372 0.909604 0
M  V30 3127 H 290.885 -3.10958 0.266705 0
M  V30 3128 N 291.186 -0.45159 -1.50991 0
M  V30 3129 C 292.435 0.111653 -2.01391 0
M  V30 3130 C 292.748 1.42529 -1.33959 0
M  V30 3131 O 293.954 2.07232 -1.75405 0
M  V30 3132 C 292.41 0.249514 -3.59034 0
M  V30 3133 C 292.018 -1.05453 -4.35412 0
M  V30 3134 C 293.762 0.765762 -4.17536 0
M  V30 3135 C 291.669 -0.881529 -5.84793 0
M  V30 3136 H 290.599 0.0455022 -0.752626 0
M  V30 3137 H 293.25 -0.583524 -1.73975 0
M  V30 3138 H 291.632 1.00803 -3.82955 0
M  V30 3139 H 292.806 -1.82248 -4.23229 0
M  V30 3140 H 291.121 -1.50039 -3.88429 0
M  V30 3141 H 293.718 0.911913 -5.26866 0
M  V30 3142 H 294.061 1.75201 -3.77638 0
M  V30 3143 H 294.594 0.0651744 -3.97747 0
M  V30 3144 H 291.333 -1.84057 -6.29129 0
M  V30 3145 H 290.853 -0.153625 -5.99603 0
M  V30 3146 H 292.532 -0.540363 -6.4474 0
M  V30 3147 N 292.664 1.56529 -0.183458 0
M  V30 3148 C 293.941 1.88959 0.50536 0
M  V30 3149 C 294.321 1.09523 1.80466 0
M  V30 3150 O 293.669 0.19278 2.27685 0
M  V30 3151 C 293.879 3.41162 0.73547 0
M  V30 3152 C 295.227 4.11155 1.06005 0
M  V30 3153 O 296.251 3.46548 0.823594 0
M  V30 3154 O 295.11 5.25318 1.50675 0
M  V30 3155 H 292.204 0.78441 0.261973 0
M  V30 3156 H 294.75 1.68231 -0.222802 0
M  V30 3157 H 293.522 3.90874 -0.182561 0
M  V30 3158 H 293.145 3.67543 1.51651 0
M  V30 3159 N 294.142 -0.090211 1.57342 0
M  V30 3160 C 295.367 -0.810082 1.90925 0
M  V30 3161 C 295.792 -1.71248 0.778187 0
M  V30 3162 O 295.15 -1.79278 -0.269991 0
M  V30 3163 C 295.198 -1.59529 3.23393 0
M  V30 3164 O 294.302 -2.70461 3.11327 0
M  V30 3165 H 293.643 -0.222231 0.625707 0
M  V30 3166 H 296.173 -0.0639716 2.045 0
M  V30 3167 H 296.183 -1.97847 3.5682 0
M  V30 3168 H 294.858 -0.933055 4.05299 0
M  V30 3169 H 293.435 -2.35135 2.89423 0
M  V30 3170 N 295.62 -1.53406 -0.361157 0
M  V30 3171 C 296.897 -1.60411 -1.11927 0
M  V30 3172 C 297.277 -0.414385 -2.06993 0
M  V30 3173 O 296.625 0.594976 -2.20618 0
M  V30 3174 C 296.835 -2.95652 -1.85448 0
M  V30 3175 C 298.183 -3.50386 -2.39823 0
M  V30 3176 O 299.207 -2.97711 -1.95568 0
M  V30 3177 O 298.066 -4.42482 -3.20737 0
M  V30 3178 H 295.16 -0.64811 -0.513695 0
M  V30 3179 H 297.706 -1.65749 -0.364065 0
M  V30 3180 H 296.478 -3.73682 -1.16091 0
M  V30 3181 H 296.101 -2.93825 -2.67866 0
M  V30 3182 N 297.098 0.621204 -1.44841 0
M  V30 3183 C 298.061 1.71459 -1.521 0
M  V30 3184 C 299.061 1.55696 -0.401933 0
M  V30 3185 O 300.251 1.61011 -0.664925 0
M  V30 3186 C 297.383 3.10624 -1.40447 0
M  V30 3187 H 298.576 1.66394 -2.49506 0
M  V30 3188 H 296.129 0.835745 -1.3208 0
M  V30 3189 H 296.864 3.21277 -0.441737 0
M  V30 3190 H 296.649 3.23473 -2.21602 0
M  V30 3191 H 298.139 3.90293 -1.4853 0
M  V30 3192 N 298.576 1.31904 0.862503 0
M  V30 3193 C 299.801 1.25135 1.65397 0
M  V30 3194 C 300.226 -0.179 1.87246 0
M  V30 3195 O 299.584 -1.1277 1.4196 0
M  V30 3196 C 299.632 2.00832 2.99498 0
M  V30 3197 O 298.736 1.35075 3.89652 0
M  V30 3198 H 298.077 0.431655 0.504549 0
M  V30 3199 H 300.607 1.74094 1.07483 0
M  V30 3200 H 300.617 2.10709 3.49379 0
M  V30 3201 H 299.292 3.04847 2.82916 0
M  V30 3202 H 297.869 1.33696 3.48109 0
M  V30 3203 N 300.054 -1.07777 1.14986 0
M  V30 3204 C 301.284 -1.83752 0.944402 0
M  V30 3205 C 301.692 -1.8218 -0.51058 0
M  V30 3206 O 301.035 -1.22852 -1.36576 0
M  V30 3207 C 301.097 -3.32128 1.37592 0
M  V30 3208 C 300.761 -3.57425 2.84775 0
M  V30 3209 C 301.758 -3.5173 3.8286 0
M  V30 3210 C 299.443 -3.8523 3.2234 0
M  V30 3211 C 301.437 -3.73482 5.16517 0
M  V30 3212 C 299.124 -4.06634 4.56171 0
M  V30 3213 C 300.122 -4.00754 5.53069 0
M  V30 3214 O 299.81 -4.2159 6.84483 0
M  V30 3215 H 299.542 -0.58673 0.335744 0
M  V30 3216 H 302.096 -1.36982 1.53052 0
M  V30 3217 H 300.326 -3.79686 0.733165 0
M  V30 3218 H 302.015 -3.89555 1.14024 0
M  V30 3219 H 302.781 -3.30256 3.55184 0
M  V30 3220 H 298.66 -3.88923 2.47508 0
M  V30 3221 H 302.204 -3.68808 5.92137 0
M  V30 3222 H 298.101 -4.27593 4.83564 0
M  V30 3223 H 298.869 -4.38961 6.90837 0
M  V30 3224 N 301.532 -0.945985 -1.26051 0
M  V30 3225 C 302.943 -0.638096 -1.75457 0
M  V30 3226 C 303.294 0.846672 -1.76991 0
M  V30 3227 O 302.419 1.66262 -1.38513 0
M  V30 3228 C 303.014 -1.15157 -3.18629 0
M  V30 3229 C 301.573 -0.894004 -3.65629 0
M  V30 3230 C 300.72 -1.29967 -2.44957 0
M  V30 3231 H 303.671 -1.12376 -1.1206 0
M  V30 3232 H 303.692 -0.507615 -3.77099 0
M  V30 3233 H 303.204 -2.23222 -3.1748 0
M  V30 3234 H 301.305 0.172057 -3.72203 0
M  V30 3235 H 301.418 -1.52439 -4.54202 0
M  V30 3236 H 299.782 -0.718078 -2.44368 0
M  V30 3237 H 300.565 -2.38935 -2.46505 0
M  V30 3238 N 303.011 1.40521 -0.713556 0
M  V30 3239 C 304.241 2.0494 -0.261395 0
M  V30 3240 C 304.649 1.53861 1.10107 0
M  V30 3241 O 303.992 0.689321 1.70276 0
M  V30 3242 C 304.054 3.59138 -0.161227 0
M  V30 3243 C 303.718 4.33096 -1.45865 0
M  V30 3244 C 304.715 4.61182 -2.40016 0
M  V30 3245 C 302.4 4.72043 -1.71701 0
M  V30 3246 C 304.394 5.27196 -3.58251 0
M  V30 3247 C 302.081 5.37789 -2.90218 0
M  V30 3248 C 303.079 5.65295 -3.83315 0
M  V30 3249 O 302.767 6.29683 -4.99754 0
M  V30 3250 H 302.499 0.666041 -0.115608 0
M  V30 3251 H 305.053 1.80954 -0.971849 0
M  V30 3252 H 303.283 3.81936 0.605153 0
M  V30 3253 H 304.972 4.05091 0.256105 0
M  V30 3254 H 305.738 4.31559 -2.21318 0
M  V30 3255 H 301.617 4.50003 -1.00092 0
M  V30 3256 H 305.161 5.48582 -4.30934 0
M  V30 3257 H 301.058 5.66831 -3.08825 0
M  V30 3258 H 301.826 6.4818 -4.99805 0
M  V30 3259 N 304.489 0.459591 1.5075 0
M  V30 3260 C 305.436 -0.340524 2.28274 0
M  V30 3261 C 306.406 -0.997371 1.32822 0
M  V30 3262 O 307.591 -1.01202 1.61749 0
M  V30 3263 C 304.731 -1.42317 3.14388 0
M  V30 3264 C 303.844 -0.782251 4.24859 0
M  V30 3265 C 302.979 -1.84182 4.98247 0
M  V30 3266 C 302.018 -1.18053 6.00608 0
M  V30 3267 N 301.155 -2.18244 6.67319 0
M  V30 3268 H 305.995 0.326899 2.96202 0
M  V30 3269 H 303.532 0.173057 1.46078 0
M  V30 3270 H 305.49 -2.06241 3.62658 0
M  V30 3271 H 304.12 -2.05992 2.4853 0
M  V30 3272 H 303.172 -0.0307404 3.80388 0
M  V30 3273 H 304.484 -0.259663 4.98124 0
M  V30 3274 H 303.638 -2.55714 5.50177 0
M  V30 3275 H 302.377 -2.39819 4.24662 0
M  V30 3276 H 301.382 -0.450776 5.47949 0
M  V30 3277 H 302.607 -0.631202 6.7616 0
M  V30 3278 H 300.553 -2.72919 5.96533 0
M  V30 3279 H 300.47 -1.70938 7.36421 0
M  V30 3280 H 301.738 -2.89191 7.23871 0
M  V30 3281 N 305.967 -1.56429 0.191757 0
M  V30 3282 C 306.93 -2.17707 -0.716688 0
M  V30 3283 C 307.93 -1.13061 -1.14341 0
M  V30 3284 O 309.12 -1.38464 -1.05704 0
M  V30 3285 C 306.252 -2.77644 -1.97804 0
M  V30 3286 H 307.445 -2.99342 -0.1829 0
M  V30 3287 H 304.998 -1.56193 -0.0578566 0
M  V30 3288 H 305.733 -1.99799 -2.55443 0
M  V30 3289 H 305.518 -3.54246 -1.68083 0
M  V30 3290 H 307.008 -3.24708 -2.62592 0
M  V30 3291 N 307.445 0.0818655 -1.57387 0
M  V30 3292 C 308.378 1.12986 -1.98266 0
M  V30 3293 C 309.356 1.38123 -0.857954 0
M  V30 3294 O 310.54 1.51663 -1.1194 0
M  V30 3295 C 307.667 2.47632 -2.31076 0
M  V30 3296 C 306.713 2.38693 -3.53452 0
M  V30 3297 S 307.546 1.79071 -5.04672 0
M  V30 3298 C 308.702 3.15316 -5.40673 0
M  V30 3299 H 308.935 0.781435 -2.86846 0
M  V30 3300 H 306.468 0.290034 -1.51651 0
M  V30 3301 H 308.426 3.25089 -2.50654 0
M  V30 3302 H 307.087 2.79638 -1.43043 0
M  V30 3303 H 306.28 3.37964 -3.73893 0
M  V30 3304 H 305.882 1.69369 -3.33452 0
M  V30 3305 H 308.174 4.11613 -5.38127 0
M  V30 3306 H 309.117 2.99664 -6.41566 0
M  V30 3307 H 309.525 3.15457 -4.68132 0
M  V30 3308 N 308.923 1.53595 0.353017 0
M  V30 3309 C 310.2 1.61002 1.11075 0
M  V30 3310 C 310.58 0.425356 2.0677 0
M  V30 3311 O 309.928 -0.583267 2.2093 0
M  V30 3312 C 310.138 2.96631 1.83877 0
M  V30 3313 C 311.486 3.51653 2.37961 0
M  V30 3314 O 312.51 2.98743 1.93987 0
M  V30 3315 O 311.369 4.44177 3.18386 0
M  V30 3316 H 308.463 0.650825 0.510251 0
M  V30 3317 H 311.009 1.6594 0.35527 0
M  V30 3318 H 309.781 3.74293 1.14108 0
M  V30 3319 H 309.404 2.95242 2.66304 0
M  V30 3320 N 310.401 -0.613514 1.45168 0
M  V30 3321 C 311.333 -1.73825 1.4939 0
M  V30 3322 C 312.346 -1.58175 0.385304 0
M  V30 3323 O 313.535 -1.66165 0.652036 0
M  V30 3324 C 310.635 -3.11758 1.32891 0
M  V30 3325 C 309.808 -3.53704 2.57317 0
M  V30 3326 C 308.867 -4.70579 2.35462 0
M  V30 3327 O 307.893 -4.77996 3.09044 0
M  V30 3328 N 309.095 -5.63454 1.39644 0
M  V30 3329 H 311.86 -1.70669 2.46358 0
M  V30 3330 H 309.421 -0.79862 1.40832 0
M  V30 3331 H 311.413 -3.87692 1.1609 0
M  V30 3332 H 309.983 -3.09456 0.442218 0
M  V30 3333 H 309.203 -2.67794 2.89275 0
M  V30 3334 H 310.491 -3.78486 3.40038 0
M  V30 3335 H 309.889 -5.6017 0.789062 0
M  V30 3336 H 308.446 -6.38944 1.28816 0
M  V30 3337 N 311.879 -1.3236 -0.855495 0
M  V30 3338 C 312.826 -1.21225 -1.964 0
M  V30 3339 C 313.796 -0.0946204 -1.6583 0
M  V30 3340 O 314.981 -0.27002 -1.8888 0
M  V30 3341 C 312.121 -0.940419 -3.32039 0
M  V30 3342 C 311.234 -2.14276 -3.75113 0
M  V30 3343 C 310.369 -1.80648 -4.9954 0
M  V30 3344 C 309.408 -2.97208 -5.35102 0
M  V30 3345 N 308.545 -2.63678 -6.50706 0
M  V30 3346 H 313.385 -2.16042 -2.05255 0
M  V30 3347 H 310.922 -1.07451 -1.00463 0
M  V30 3348 H 312.88 -0.763311 -4.10158 0
M  V30 3349 H 311.51 -0.0290413 -3.22787 0
M  V30 3350 H 310.562 -2.43017 -2.92655 0
M  V30 3351 H 311.874 -3.01468 -3.97389 0
M  V30 3352 H 311.028 -1.59484 -5.85363 0
M  V30 3353 H 309.767 -0.906678 -4.79198 0
M  V30 3354 H 308.772 -3.19004 -4.47791 0
M  V30 3355 H 309.997 -3.87918 -5.57401 0
M  V30 3356 H 307.943 -1.76238 -6.31883 0
M  V30 3357 H 307.86 -3.444 -6.72997 0
M  V30 3358 H 309.128 -2.45942 -7.39684 0
M  V30 3359 N 313.357 1.07166 -1.15556 0
M  V30 3360 C 314.597 1.81391 -0.94216 0
M  V30 3361 C 314.961 1.84788 0.521272 0
M  V30 3362 O 316.162 2.54904 0.85307 0
M  V30 3363 C 314.433 3.22431 -1.54185 0
M  V30 3364 S 315.992 4.13379 -1.47183 0
M  V30 3365 H 312.81 0.624963 -0.339031 0
M  V30 3366 H 315.412 1.28725 -1.4714 0
M  V30 3367 H 314.116 3.17548 -2.59984 0
M  V30 3368 H 313.647 3.80172 -1.01156 0
M  V30 3369 H 315.662 4.94007 -0.466004 0
M  V30 3370 N 314.835 0.952656 1.25548 0
M  V30 3371 C 315.767 0.428609 2.25157 0
M  V30 3372 C 316.78 -0.454428 1.56329 0
M  V30 3373 O 317.969 -0.263023 1.76552 0
M  V30 3374 C 315.069 -0.401972 3.36508 0
M  V30 3375 C 314.242 0.467601 4.34893 0
M  V30 3376 C 313.301 -0.30445 5.25319 0
M  V30 3377 O 312.327 0.296473 5.68427 0
M  V30 3378 N 313.529 -1.59805 5.5807 0
M  V30 3379 H 316.294 1.28497 2.70756 0
M  V30 3380 H 313.855 0.822798 1.39433 0
M  V30 3381 H 315.847 -0.926134 3.9396 0
M  V30 3382 H 314.417 -1.15918 2.90313 0
M  V30 3383 H 313.637 1.17288 3.76347 0
M  V30 3384 H 314.925 1.06119 4.97611 0
M  V30 3385 H 314.323 -2.10823 5.24948 0
M  V30 3386 H 312.88 -2.06822 6.18116 0
M  V30 3387 N 316.313 -1.40141 0.720998 0
M  V30 3388 C 317.543 -2.04798 0.27226 0
M  V30 3389 C 317.951 -1.54442 -1.09289 0
M  V30 3390 O 317.294 -0.698342 -1.69908 0
M  V30 3391 C 317.356 -3.59048 0.18027 0
M  V30 3392 C 317.02 -4.32317 1.48159 0
M  V30 3393 C 318.017 -4.59902 2.42458 0
M  V30 3394 C 315.702 -4.71125 1.74202 0
M  V30 3395 C 317.696 -5.25288 3.61042 0
M  V30 3396 C 315.383 -5.36242 2.93066 0
M  V30 3397 C 316.381 -5.63254 3.86308 0
M  V30 3398 O 316.069 -6.27024 5.03086 0
M  V30 3399 H 315.801 -0.665419 0.119139 0
M  V30 3400 H 318.355 -1.80436 0.981432 0
M  V30 3401 H 316.585 -3.82251 -0.58489 0
M  V30 3402 H 318.274 -4.05221 -0.234618 0
M  V30 3403 H 319.04 -4.30379 2.23604 0
M  V30 3404 H 314.919 -4.49466 1.02477 0
M  V30 3405 H 318.463 -5.46289 4.33837 0
M  V30 3406 H 314.36 -5.65185 3.11826 0
M  V30 3407 H 315.128 -6.4552 5.03235 0
M  V30 3408 N 317.792 -0.46758 -1.50504 0
M  V30 3409 C 319.069 0.15003 -1.95024 0
M  V30 3410 C 319.449 1.57304 -1.40779 0
M  V30 3411 O 318.797 2.20281 -0.607319 0
M  V30 3412 C 319.007 0.0969324 -3.48865 0
M  V30 3413 C 320.355 0.287565 -4.23625 0
M  V30 3414 O 321.379 0.173678 -3.55776 0
M  V30 3415 O 320.238 0.517186 -5.44047 0
M  V30 3416 H 317.332 0.113582 -0.819163 0
M  V30 3417 H 319.878 -0.52773 -1.61286 0
M  V30 3418 H 318.65 -0.896732 -3.80886 0
M  V30 3419 H 318.273 0.816303 -3.8913 0
M  V30 3420 N 319.27 1.56325 -0.20005 0
M  V30 3421 C 320.495 2.02548 0.44597 0
M  V30 3422 C 320.92 1.07922 1.5406 0
M  V30 3423 O 320.278 0.0635775 1.81188 0
M  V30 3424 C 320.326 3.47175 0.974761 0
M  V30 3425 O 319.43 3.55671 2.08739 0
M  V30 3426 H 318.771 0.655862 0.103638 0
M  V30 3427 H 321.301 2.02201 -0.312381 0
M  V30 3428 H 321.311 3.87067 1.2901 0
M  V30 3429 H 319.986 4.15538 0.17347 0
M  V30 3430 H 318.563 3.27657 1.78032 0
M  V30 3431 N 320.748 -0.0735177 1.57428 0
M  V30 3432 C 321.695 -1.08756 2.0357 0
M  V30 3433 C 322.665 -1.38559 0.916 0
M  V30 3434 O 323.85 -1.49656 1.18354 0
M  V30 3435 C 320.99 -2.39657 2.48311 0
M  V30 3436 C 320.103 -2.16399 3.73892 0
M  V30 3437 C 319.238 -3.40852 4.07423 0
M  V30 3438 C 318.277 -3.1295 5.2605 0
M  V30 3439 N 317.414 -4.29729 5.55228 0
M  V30 3440 H 322.254 -0.687104 2.8997 0
M  V30 3441 H 319.791 -0.327709 1.43403 0
M  V30 3442 H 321.749 -3.16081 2.72303 0
M  V30 3443 H 320.379 -2.77508 1.64891 0
M  V30 3444 H 319.431 -1.30676 3.57251 0
M  V30 3445 H 320.743 -1.91788 4.60455 0
M  V30 3446 H 319.897 -4.25671 4.32306 0
M  V30 3447 H 318.636 -3.68537 3.19425 0
M  V30 3448 H 317.641 -2.26526 5.00965 0
M  V30 3449 H 318.866 -2.86589 6.15665 0
M  V30 3450 H 316.812 -4.57448 4.70188 0
M  V30 3451 H 316.729 -4.08385 6.36206 0
M  V30 3452 H 317.997 -5.1555 5.84661 0
M  V30 3453 N 322.226 -1.5378 -0.344866 0
M  V30 3454 C 323.456 -1.74646 -1.10374 0
M  V30 3455 C 323.864 -0.48491 -1.8288 0
M  V30 3456 O 323.207 0.553062 -1.75177 0
M  V30 3457 C 323.269 -2.87145 -2.16306 0
M  V30 3458 C 322.933 -4.26795 -1.63386 0
M  V30 3459 C 323.93 -5.08412 -1.08688 0
M  V30 3460 C 321.615 -4.73276 -1.68272 0
M  V30 3461 C 323.609 -6.34609 -0.595792 0
M  V30 3462 C 321.296 -5.99446 -1.18776 0
M  V30 3463 C 322.294 -6.79946 -0.645215 0
M  V30 3464 O 321.982 -8.03745 -0.157626 0
M  V30 3465 H 321.714 -0.587112 -0.335075 0
M  V30 3466 H 324.268 -2.01403 -0.403252 0
M  V30 3467 H 322.498 -2.55909 -2.89909 0
M  V30 3468 H 324.187 -2.95992 -2.77747 0
M  V30 3469 H 324.953 -4.73666 -1.04236 0
M  V30 3470 H 320.832 -4.10677 -2.09442 0
M  V30 3471 H 324.376 -6.97389 -0.171654 0
M  V30 3472 H 320.273 -6.33687 -1.22928 0
M  V30 3473 H 321.041 -8.18038 -0.275037 0
M  V30 3474 N 323.704 0.605807 -1.45491 0
M  V30 3475 C 325.12 0.926751 -1.29936 0
M  V30 3476 C 325.32 1.99896 -0.253706 0
M  V30 3477 O 324.376 2.50038 0.351737 0
M  V30 3478 C 325.689 1.36599 -2.67883 0
M  V30 3479 C 327.237 1.4801 -2.75793 0
M  V30 3480 C 327.712 1.95309 -4.14268 0
M  V30 3481 N 329.203 2.0254 -4.16571 0
M  V30 3482 C 329.938 2.40363 -5.20589 0
M  V30 3483 N 329.434 2.77143 -6.34952 0
M  V30 3484 N 331.227 2.40718 -5.07948 0
M  V30 3485 H 323.378 -0.102862 -2.12151 0
M  V30 3486 H 325.641 0.016639 -0.947854 0
M  V30 3487 H 325.347 0.652306 -3.45598 0
M  V30 3488 H 325.221 2.33215 -2.96463 0
M  V30 3489 H 327.608 2.1847 -1.98381 0
M  V30 3490 H 327.689 0.497041 -2.50925 0
M  V30 3491 H 327.333 1.25436 -4.92167 0
M  V30 3492 H 327.263 2.94532 -4.3653 0
M  V30 3493 H 329.754 1.76699 -3.34045 0
M  V30 3494 H 330.067 3.0489 -7.10114 0
M  V30 3495 H 328.412 2.74834 -6.3835 0
M  V30 3496 H 331.603 2.11392 -4.1765 0
M  V30 3497 H 331.776 2.69869 -5.89131 0
M  V30 3498 N 325.182 1.32811 0.848464 0
M  V30 3499 C 326.145 1.22194 1.9391 0
M  V30 3500 C 327.145 0.143404 1.60159 0
M  V30 3501 O 328.335 0.394253 1.6968 0
M  V30 3502 C 325.467 0.88067 3.29328 0
M  V30 3503 H 326.66 2.19127 2.04752 0
M  V30 3504 H 324.213 1.16731 1.0394 0
M  V30 3505 H 324.948 -0.0865776 3.24184 0
M  V30 3506 H 324.733 1.66052 3.55203 0
M  V30 3507 H 326.223 0.830871 4.09251 0
M  V30 3508 N 326.66 -1.06551 1.16123 0
M  V30 3509 C 327.623 -2.12132 0.867906 0
M  V30 3510 C 328.623 -1.60224 -0.135944 0
M  V30 3511 O 329.813 -1.73943 0.0946422 0
M  V30 3512 C 326.945 -3.396 0.297419 0
M  V30 3513 H 328.138 -2.39586 1.80385 0
M  V30 3514 H 325.691 -1.22574 0.969812 0
M  V30 3515 H 326.426 -3.17794 -0.64633 0
M  V30 3516 H 326.211 -3.78581 1.02073 0
M  V30 3517 H 327.701 -4.17455 0.110052 0
M  V30 3518 N 328.138 -0.959301 -1.25041 0
M  V30 3519 C 329.366 -0.633949 -1.96948 0
M  V30 3520 C 329.781 0.794916 -1.7125 0
M  V30 3521 O 329.138 1.53231 -0.991287 0
M  V30 3522 C 329.189 -0.888805 -3.50403 0
M  V30 3523 O 328.91 -2.26149 -3.75218 0
M  V30 3524 C 330.411 -0.576482 -4.39536 0
M  V30 3525 H 327.631 -0.237263 -0.627652 0
M  V30 3526 H 330.175 -1.28495 -1.59089 0
M  V30 3527 H 328.33 -0.284145 -3.86357 0
M  V30 3528 H 328.744 -2.33514 -4.6965 0
M  V30 3529 H 330.218 -0.805314 -5.46094 0
M  V30 3530 H 330.695 0.489075 -4.36468 0
M  V30 3531 H 331.301 -1.16067 -4.09156 0
M  V30 3532 N 329.616 1.39756 -0.72842 0
M  V30 3533 C 330.856 2.025 -0.278078 0
M  V30 3534 C 331.22 1.5654 1.11173 0
M  V30 3535 O 332.421 2.11435 1.65978 0
M  V30 3536 C 330.692 3.55489 -0.369139 0
M  V30 3537 S 332.251 4.388 0.00232983 0
M  V30 3538 H 329.069 0.702534 -0.109391 0
M  V30 3539 H 331.671 1.70672 -0.95348 0
M  V30 3540 H 330.375 3.86429 -1.38204 0
M  V30 3541 H 329.906 3.92061 0.324308 0
M  V30 3542 H 331.921 4.80954 1.22055 0
M  V30 3543 N 331.094 0.475555 1.50254 0
M  V30 3544 C 332.319 -0.0777042 2.07254 0
M  V30 3545 C 332.744 -1.3235 1.3366 0
M  V30 3546 O 332.102 -1.77152 0.385597 0
M  V30 3547 C 332.15 -0.340169 3.58992 0
M  V30 3548 O 331.254 -1.41982 3.87188 0
M  V30 3549 H 330.595 0.0149556 0.663832 0
M  V30 3550 H 333.125 0.667878 1.93392 0
M  V30 3551 H 333.135 -0.579332 4.03866 0
M  V30 3552 H 331.81 0.570167 4.11973 0
M  V30 3553 H 330.387 -1.16762 3.54148 0
M  V30 3554 N 332.573 -1.56217 0.208337 0
M  V30 3555 C 333.52 -2.19699 -0.707192 0
M  V30 3556 C 334.49 -1.14836 -1.20008 0
M  V30 3557 O 335.675 -1.4314 -1.26157 0
M  V30 3558 C 332.815 -2.87061 -1.91546 0
M  V30 3559 C 331.928 -4.06483 -1.46271 0
M  V30 3560 C 331.063 -4.61665 -2.62752 0
M  V30 3561 C 330.102 -5.73417 -2.14147 0
M  V30 3562 N 329.239 -6.22948 -3.23853 0
M  V30 3563 H 334.079 -2.97575 -0.159111 0
M  V30 3564 H 331.616 -1.46948 -0.0667874 0
M  V30 3565 H 333.574 -3.24294 -2.62468 0
M  V30 3566 H 332.204 -2.11725 -2.43664 0
M  V30 3567 H 331.256 -3.74825 -0.648886 0
M  V30 3568 H 332.568 -4.87271 -1.06622 0
M  V30 3569 H 331.722 -5.01272 -3.41776 0
M  V30 3570 H 330.461 -3.80013 -3.05682 0
M  V30 3571 H 329.466 -5.33326 -1.33581 0
M  V30 3572 H 330.691 -6.56897 -1.72232 0
M  V30 3573 H 328.637 -5.44213 -3.6629 0
M  V30 3574 H 328.554 -6.98823 -2.88414 0
M  V30 3575 H 329.822 -6.6721 -4.03052 0
M  V30 3576 N 334.051 0.0651679 -1.57465 0
M  V30 3577 C 335.281 0.774683 -1.91526 0
M  V30 3578 C 335.689 1.71305 -0.803196 0
M  V30 3579 O 335.032 1.82231 0.231881 0
M  V30 3580 C 335.094 1.61645 -3.21109 0
M  V30 3581 C 334.758 0.846753 -4.49087 0
M  V30 3582 C 335.755 0.163024 -5.19644 0
M  V30 3583 C 333.44 0.811966 -4.95694 0
M  V30 3584 C 335.434 -0.54519 -6.35064 0
M  V30 3585 C 333.121 0.0999836 -6.11018 0
M  V30 3586 C 334.119 -0.577388 -6.80555 0
M  V30 3587 O 333.807 -1.27789 -7.93678 0
M  V30 3588 H 333.539 0.225031 -0.637446 0
M  V30 3589 H 336.093 0.0377134 -2.05365 0
M  V30 3590 H 334.323 2.39638 -3.03497 0
M  V30 3591 H 336.012 2.20525 -3.40769 0
M  V30 3592 H 336.778 0.181163 -4.84662 0
M  V30 3593 H 332.657 1.32867 -4.41438 0
M  V30 3594 H 336.201 -1.07446 -6.89276 0
M  V30 3595 H 332.098 0.0797945 -6.45451 0
M  V30 3596 H 332.866 -1.18784 -8.09835 0
M  V30 3597 N 335.529 1.53961 0.336706 0
M  V30 3598 C 336.757 1.75483 1.09605 0
M  V30 3599 C 337.172 0.4972 1.82136 0
M  V30 3600 O 336.529 -0.53149 1.74589 0
M  V30 3601 C 336.58 2.93943 2.10428 0
M  V30 3602 O 336.301 4.14842 1.40846 0
M  V30 3603 C 337.802 3.27571 2.98684 0
M  V30 3604 H 335.022 0.586166 0.326574 0
M  V30 3605 H 337.566 2.00808 0.38683 0
M  V30 3606 H 335.721 2.70929 2.76905 0
M  V30 3607 H 336.135 4.81383 2.08255 0
M  V30 3608 H 337.609 4.13791 3.6535 0
M  V30 3609 H 338.086 2.44168 3.65074 0
M  V30 3610 H 338.692 3.52615 2.37787 0
M  V30 3611 N 337.007 -0.598083 1.45811 0
M  V30 3612 C 337.917 -1.73632 1.57763 0
M  V30 3613 C 338.933 -1.67763 0.461676 0
M  V30 3614 O 340.109 -1.87949 0.723685 0
M  V30 3615 C 337.174 -3.10114 1.55018 0
M  V30 3616 C 336.235 -3.27364 2.77726 0
M  V30 3617 C 335.468 -4.57334 2.75102 0
M  V30 3618 O 335.691 -5.40258 1.8297 0
M  V30 3619 O 334.625 -4.77502 3.66437 0
M  V30 3620 H 338.451 -1.66498 2.53992 0
M  V30 3621 H 336.036 -0.763308 1.28429 0
M  V30 3622 H 337.918 -3.9141 1.56129 0
M  V30 3623 H 336.593 -3.17718 0.619431 0
M  V30 3624 H 335.5 -2.45619 2.82174 0
M  V30 3625 H 336.833 -3.24641 3.69958 0
M  V30 3626 N 338.485 -1.33259 -0.841409 0
M  V30 3627 C 339.415 -1.25926 -1.96634 0
M  V30 3628 C 340.396 -0.140349 -1.6952 0
M  V30 3629 O 341.581 -0.329707 -1.91381 0
M  V30 3630 C 338.711 -0.99512 -3.32738 0
M  V30 3631 C 337.665 -2.0767 -3.74242 0
M  V30 3632 C 336.991 -1.66474 -5.08125 0
M  V30 3633 C 338.291 -3.49318 -3.88297 0
M  V30 3634 H 339.985 -2.20046 -2.03027 0
M  V30 3635 H 337.531 -1.05931 -0.975425 0
M  V30 3636 H 339.484 -0.930323 -4.11002 0
M  V30 3637 H 338.208 -0.0183004 -3.26595 0
M  V30 3638 H 336.867 -2.13187 -2.98239 0
M  V30 3639 H 336.515 -0.675012 -4.9845 0
M  V30 3640 H 336.215 -2.3885 -5.36865 0
M  V30 3641 H 337.739 -1.61455 -5.88867 0
M  V30 3642 H 339.153 -3.46316 -4.56879 0
M  V30 3643 H 337.55 -4.20158 -4.28471 0
M  V30 3644 H 338.62 -3.8801 -2.9082 0
M  V30 3645 N 339.963 1.05934 -1.16686 0
M  V30 3646 C 341.374 1.60263 -0.957745 0
M  V30 3647 C 341.725 1.89789 0.49745 0
M  V30 3648 O 340.85 1.67401 1.37135 0
M  V30 3649 C 341.445 2.91172 -1.73218 0
M  V30 3650 C 340.004 3.42188 -1.56794 0
M  V30 3651 C 339.151 2.16028 -1.73859 0
M  V30 3652 H 342.102 0.888392 -1.31504 0
M  V30 3653 H 342.123 3.60744 -1.21014 0
M  V30 3654 H 341.635 2.6965 -2.79124 0
M  V30 3655 H 339.736 3.68762 -0.533437 0
M  V30 3656 H 339.849 4.17273 -2.35414 0
M  V30 3657 H 338.213 2.26426 -1.16633 0
M  V30 3658 H 338.996 1.96985 -2.81161 0
M  V30 3659 N 341.441 0.965919 1.2453 0
M  V30 3660 C 342.671 0.643451 1.96324 0
M  V30 3661 C 343.079 -0.790927 1.71875 0
M  V30 3662 O 342.422 -1.54208 0.998273 0
M  V30 3663 C 342.484 0.836078 3.49643 0
M  V30 3664 C 342.148 2.24975 3.97788 0
M  V30 3665 C 343.145 3.22735 4.07601 0
M  V30 3666 C 340.83 2.57697 4.31158 0
M  V30 3667 C 342.824 4.51303 4.50116 0
M  V30 3668 C 340.511 3.86492 4.73357 0
M  V30 3669 C 341.509 4.83107 4.828 0
M  V30 3670 O 341.197 6.09605 5.24058 0
M  V30 3671 H 340.929 0.239223 0.632257 0
M  V30 3672 H 343.483 1.29587 1.59362 0
M  V30 3673 H 341.713 0.12649 3.86493 0
M  V30 3674 H 343.402 0.512965 4.02646 0
M  V30 3675 H 344.168 2.98783 3.82039 0
M  V30 3676 H 340.047 1.83216 4.23028 0
M  V30 3677 H 343.591 5.26716 4.57401 0
M  V30 3678 H 339.488 4.10245 4.98366 0
M  V30 3679 H 340.256 6.13146 5.42213 0
M  V30 3680 N 342.919 -1.39368 0.735821 0
M  V30 3681 C 344.167 -2.00101 0.283562 0
M  V30 3682 C 344.488 -1.5868 -1.13338 0
M  V30 3683 O 343.758 -0.835423 -1.77193 0
M  V30 3684 H 342.338 -0.740024 0.101851 0
M  V30 3685 H 345 -1.70404 0.945962 0
M  V30 3686 H 344.096 -3.10323 0.332604 0
M  V30 3687 N 344.397 -0.483516 -1.5 0
M  V30 3688 C 345.813 -0.138404 -1.58999 0
M  V30 3689 C 346.013 1.35597 -1.4905 0
M  V30 3690 O 345.069 2.13039 -1.35539 0
M  V30 3691 C 346.382 -0.699658 -2.92447 0
M  V30 3692 C 347.93 -0.664195 -3.05872 0
M  V30 3693 C 348.405 -1.20321 -4.41913 0
M  V30 3694 N 349.896 -1.16315 -4.48358 0
M  V30 3695 C 350.631 -1.55058 -5.52037 0
M  V30 3696 N 350.127 -2.01311 -6.62907 0
M  V30 3697 N 351.92 -1.46584 -5.42651 0
M  V30 3698 H 344.071 -1.45529 -1.5471 0
M  V30 3699 H 346.334 -0.60258 -0.731848 0
M  V30 3700 H 346.04 -1.747 -3.05242 0
M  V30 3701 H 345.914 -0.150194 -3.76901 0
M  V30 3702 H 348.301 0.374272 -2.92717 0
M  V30 3703 H 348.382 -1.25061 -2.23144 0
M  V30 3704 H 348.026 -2.24037 -4.55818 0
M  V30 3705 H 347.956 -0.592896 -5.23252 0
M  V30 3706 H 350.447 -0.824058 -3.68806 0
M  V30 3707 H 350.76 -2.2899 -7.38095 0
M  V30 3708 H 349.105 -2.05273 -6.63994 0
M  V30 3709 H 352.296 -1.10281 -4.54924 0
M  V30 3710 H 352.469 -1.77103 -6.23329 0
M  V30 3711 N 345.875 1.56104 -0.216619 0
M  V30 3712 C 346.785 2.23694 0.706982 0
M  V30 3713 C 347.801 1.24295 1.21765 0
M  V30 3714 O 348.977 1.57094 1.2603 0
M  V30 3715 C 346.042 2.8998 1.90033 0
M  V30 3716 C 345.103 4.04708 1.43213 0
M  V30 3717 C 344.336 4.67824 2.56859 0
M  V30 3718 O 344.559 4.29913 3.74874 0
M  V30 3719 O 343.493 5.56905 2.28343 0
M  V30 3720 H 347.319 3.03272 0.161235 0
M  V30 3721 H 344.904 1.49394 0.0136177 0
M  V30 3722 H 346.786 3.31837 2.59735 0
M  V30 3723 H 345.461 2.13365 2.43428 0
M  V30 3724 H 344.368 3.6743 0.70327 0
M  V30 3725 H 345.701 4.83051 0.944615 0
M  V30 3726 N 347.353 -0.0568162 1.57498 0
M  V30 3727 C 348.63 -0.786954 1.79071 0
M  V30 3728 C 349.01 -1.95028 0.80792 0
M  V30 3729 O 348.358 -2.27968 -0.155858 0
M  V30 3730 C 348.568 -1.24594 3.26002 0
M  V30 3731 C 349.916 -1.67323 3.90241 0
M  V30 3732 O 350.94 -1.34124 3.29984 0
M  V30 3733 O 349.799 -2.28842 4.9628 0
M  V30 3734 H 346.893 -0.378262 0.735423 0
M  V30 3735 H 349.439 -0.035734 1.69662 0
M  V30 3736 H 348.211 -0.41423 3.89101 0
M  V30 3737 H 347.834 -2.05803 3.40192 0
M  V30 3738 N 348.832 -1.54138 -0.328536 0
M  V30 3739 C 350.078 -1.7236 -1.06865 0
M  V30 3740 C 350.411 -0.493231 -1.87832 0
M  V30 3741 O 349.686 0.5098 -1.877 0
M  V30 3742 C 349.969 -2.99621 -1.99747 0
M  V30 3743 C 349.822 -4.32899 -1.22143 0
M  V30 3744 C 351.141 -3.22615 -2.99345 0
M  V30 3745 H 348.26 -0.627151 -0.387105 0
M  V30 3746 H 350.902 -1.86827 -0.345767 0
M  V30 3747 H 349.052 -2.87418 -2.61387 0
M  V30 3748 H 350.724 -4.56978 -0.630017 0
M  V30 3749 H 348.967 -4.30628 -0.523628 0
M  V30 3750 H 349.638 -5.18154 -1.90318 0
M  V30 3751 H 352.114 -3.34248 -2.47826 0
M  V30 3752 H 350.99 -4.13027 -3.61524 0
M  V30 3753 H 351.251 -2.3961 -3.71536 0
M  V30 3754 N 350.31 0.590341 -1.46126 0
M  V30 3755 C 351.24 1.71032 -1.58966 0
M  V30 3756 C 352.221 1.64302 -0.440335 0
M  V30 3757 O 353.406 1.82436 -0.665634 0
M  V30 3758 C 350.536 3.09665 -1.57241 0
M  V30 3759 C 349.49 3.31221 -2.71066 0
M  V30 3760 C 348.816 4.70303 -2.54399 0
M  V30 3761 C 350.116 3.19796 -4.1295 0
M  V30 3762 H 351.81 1.60543 -2.52718 0
M  V30 3763 H 349.356 0.770933 -1.21625 0
M  V30 3764 H 351.309 3.87831 -1.64819 0
M  V30 3765 H 350.033 3.21036 -0.600289 0
M  V30 3766 H 348.692 2.55452 -2.62944 0
M  V30 3767 H 348.34 4.78429 -1.55288 0
M  V30 3768 H 348.04 4.85679 -3.30741 0
M  V30 3769 H 349.564 5.50647 -2.63857 0
M  V30 3770 H 350.978 3.87815 -4.22223 0
M  V30 3771 H 349.375 3.46696 -4.89818 0
M  V30 3772 H 350.445 2.16983 -4.33643 0
M  V30 3773 N 351.788 1.33704 0.83433 0
M  V30 3774 C 352.735 1.24335 1.94447 0
M  V30 3775 C 353.705 0.120991 1.65659 0
M  V30 3776 O 354.89 0.300035 1.88426 0
M  V30 3777 C 352.03 0.993124 3.30501 0
M  V30 3778 C 351.143 2.20217 3.71657 0
M  V30 3779 C 350.278 1.88572 4.96602 0
M  V30 3780 C 349.317 3.05683 5.30306 0
M  V30 3781 N 348.454 2.73997 6.46429 0
M  V30 3782 H 353.294 2.1928 2.01792 0
M  V30 3783 H 350.831 1.09035 0.987404 0
M  V30 3784 H 352.789 0.828467 4.08892 0
M  V30 3785 H 351.419 0.0803902 3.227 0
M  V30 3786 H 350.471 2.47642 2.88752 0
M  V30 3787 H 351.783 3.07752 3.92543 0
M  V30 3788 H 350.937 1.68776 5.82752 0
M  V30 3789 H 349.676 0.982799 4.77695 0
M  V30 3790 H 348.681 3.26088 4.42659 0
M  V30 3791 H 349.906 3.96737 5.51159 0
M  V30 3792 H 347.852 1.86268 6.28999 0
M  V30 3793 H 347.769 3.55064 6.67432 0
M  V30 3794 H 349.037 2.57679 7.35678 0
M  V30 3795 N 353.266 -1.05314 1.17247 0
M  V30 3796 C 354.176 -2.16538 0.90268 0
M  V30 3797 C 355.192 -1.73523 -0.128707 0
M  V30 3798 O 356.368 -2.01337 0.0502701 0
M  V30 3799 C 353.433 -3.44167 0.418356 0
M  V30 3800 C 352.494 -4.01635 1.51618 0
M  V30 3801 C 351.727 -5.23171 1.05487 0
M  V30 3802 O 351.95 -5.70327 -0.0914715 0
M  V30 3803 O 350.884 -5.72848 1.8474 0
M  V30 3804 H 354.71 -2.42145 1.83302 0
M  V30 3805 H 352.295 -1.15037 0.953246 0
M  V30 3806 H 354.177 -4.21112 0.155726 0
M  V30 3807 H 352.852 -3.20063 -0.48385 0
M  V30 3808 H 351.759 -3.26135 1.83268 0
M  V30 3809 H 353.092 -4.30053 2.39405 0
M  V30 3810 N 354.744 -0.972509 -1.24016 0
M  V30 3811 C 355.707 -0.511403 -2.23422 0
M  V30 3812 C 356.707 0.394679 -1.55881 0
M  V30 3813 O 357.897 0.189469 -1.73167 0
M  V30 3814 C 355.029 0.258769 -3.39916 0
M  V30 3815 H 356.222 -1.39024 -2.6573 0
M  V30 3816 H 353.775 -0.757585 -1.36713 0
M  V30 3817 H 354.51 1.1545 -3.03054 0
M  V30 3818 H 354.295 -0.391522 -3.9014 0
M  V30 3819 H 355.785 0.570244 -4.13688 0
M  V30 3820 N 356.222 1.38976 -0.743202 0
M  V30 3821 C 357.468 2.0064 -0.295189 0
M  V30 3822 C 357.801 1.5885 1.11716 0
M  V30 3823 O 357.076 0.821181 1.76315 0
M  V30 3824 C 357.359 3.578 -0.406318 0
M  V30 3825 C 357.212 4.09586 -1.85903 0
M  V30 3826 C 358.531 4.39616 0.206439 0
M  V30 3827 H 355.65 0.728935 -0.108733 0
M  V30 3828 H 358.292 1.65067 -0.940897 0
M  V30 3829 H 356.442 3.88235 0.143419 0
M  V30 3830 H 358.114 3.89837 -2.46627 0
M  V30 3831 H 356.357 3.6284 -2.3776 0
M  V30 3832 H 357.028 5.18708 -1.888 0
M  V30 3833 H 359.504 4.15273 -0.262283 0
M  V30 3834 H 358.38 5.48812 0.0983819 0
M  V30 3835 H 358.641 4.22754 1.2935 0
M  V30 3836 N 357.7 0.491464 1.49741 0
M  V30 3837 C 358.663 -0.280906 2.27472 0
M  V30 3838 C 359.663 -0.902454 1.33088 0
M  V30 3839 O 360.853 -0.768465 1.56334 0
M  V30 3840 C 357.985 -1.40209 3.10732 0
M  V30 3841 H 359.178 0.401056 2.97206 0
M  V30 3842 H 356.731 0.246131 1.5435 0
M  V30 3843 H 357.466 -2.11849 2.45541 0
M  V30 3844 H 357.251 -0.961969 3.80117 0
M  V30 3845 H 358.741 -1.9464 3.69466 0
M  V30 3846 N 359.178 -1.55987 0.224894 0
M  V30 3847 C 360.126 -2.21808 -0.700283 0
M  V30 3848 C 361.12 -1.19854 -1.19714 0
M  V30 3849 O 362.326 -1.37925 -1.15658 0
M  V30 3850 H 358.701 -0.711226 -0.244258 0
M  V30 3851 H 360.672 -2.98152 -0.121749 0
M  V30 3852 C 359.421 -2.91444 -1.8962 0
M  V30 3853 H 358.744 -3.69655 -1.52299 0
M  V30 3854 H 360.184 -3.40894 -2.52125 0
M  V30 3855 C 358.643 -1.94098 -2.75368 0
M  V30 3856 O 359.173 -1.46004 -3.74227 0
M  V30 3857 N 357.379 -1.61675 -2.41474 0
M  V30 3858 H 356.926 -2.00979 -1.61137 0
M  V30 3859 H 356.884 -0.968036 -2.99126 0
M  V30 3860 N 360.656 0.0484629 -1.57525 0
M  V30 3861 C 361.603 1.05504 -2.05275 0
M  V30 3862 C 362.573 1.37084 -0.937927 0
M  V30 3863 O 363.758 1.47754 -1.2072 0
M  V30 3864 C 360.898 2.35676 -2.52093 0
M  V30 3865 C 360.011 2.10423 -3.77288 0
M  V30 3866 C 359.146 3.34327 -4.12794 0
M  V30 3867 C 358.185 3.04542 -5.30962 0
M  V30 3868 N 357.322 4.20841 -5.61994 0
M  V30 3869 H 362.162 0.640885 -2.91027 0
M  V30 3870 H 359.699 0.304854 -1.43906 0
M  V30 3871 H 361.657 3.11709 -2.77297 0
M  V30 3872 H 360.287 2.7485 -1.69285 0
M  V30 3873 H 359.339 1.24976 -3.59284 0
M  V30 3874 H 360.651 1.84438 -4.63448 0
M  V30 3875 H 359.805 4.1874 -4.39024 0
M  V30 3876 H 358.544 3.63408 -3.25247 0
M  V30 3877 H 357.549 2.18528 -5.04505 0
M  V30 3878 H 358.774 2.76758 -6.20146 0
M  V30 3879 H 356.72 4.4991 -4.77406 0
M  V30 3880 H 356.637 3.98212 -6.42622 0
M  V30 3881 H 357.905 5.06184 -5.92789 0
M  V30 3882 N 362.134 1.5431 0.320358 0
M  V30 3883 C 363.382 1.72327 1.05583 0
M  V30 3884 C 363.703 0.50149 1.88441 0
M  V30 3885 O 362.973 -0.48448 1.89815 0
M  V30 3886 H 361.553 0.635387 0.3928 0
M  V30 3887 H 364.215 1.91621 0.356019 0
M  V30 3888 H 363.311 2.60426 1.72003 0
M  V30 3889 N 363.613 -0.582584 1.46437 0
M  V30 3890 C 365.024 -1.1647 1.45916 0
M  V30 3891 C 365.375 -1.95177 0.200077 0
M  V30 3892 O 364.5 -2.04874 -0.696819 0
M  V30 3893 C 365.095 -2.11885 2.64367 0
M  V30 3894 C 363.654 -2.65421 2.66887 0
M  V30 3895 C 362.801 -1.41294 2.38603 0
M  V30 3896 H 365.752 -0.370514 1.54314 0
M  V30 3897 H 365.773 -2.9535 2.39892 0
M  V30 3898 H 365.285 -1.54573 3.5599 0
M  V30 3899 H 363.386 -3.26602 1.79338 0
M  V30 3900 H 363.499 -3.08147 3.66854 0
M  V30 3901 H 361.863 -1.71109 1.88663 0
M  V30 3902 H 362.646 -0.858125 3.32402 0
M  V30 3903 N 365.091 -1.34144 -0.827227 0
M  V30 3904 C 366.337 -1.26446 -1.58554 0
M  V30 3905 C 366.67 0.1664 -1.93486 0
M  V30 3906 O 365.945 1.1107 -1.59667 0
M  V30 3907 C 366.228 -2.15111 -2.8879 0
M  V30 3908 C 366.081 -3.66712 -2.60465 0
M  V30 3909 C 367.4 -2.03311 -3.90324 0
M  V30 3910 H 364.519 -0.46067 -0.575284 0
M  V30 3911 H 367.161 -1.64356 -0.953269 0
M  V30 3912 H 365.311 -1.8291 -3.42748 0
M  V30 3913 H 366.983 -4.09259 -2.1285 0
M  V30 3914 H 365.226 -3.88014 -1.93978 0
M  V30 3915 H 365.897 -4.24112 -3.53317 0
M  V30 3916 H 368.373 -2.31574 -3.45706 0
M  V30 3917 H 367.249 -2.67582 -4.79261 0
M  V30 3918 H 367.51 -1.00879 -4.30437 0
M  V30 3919 N 366.569 1.04691 -1.17803 0
M  V30 3920 C 367.794 1.81984 -0.994813 0
M  V30 3921 C 368.219 1.82586 0.452112 0
M  V30 3922 O 367.577 1.23854 1.324 0
M  V30 3923 C 367.625 3.2575 -1.54659 0
M  V30 3924 O 366.729 4.05267 -0.763728 0
M  V30 3925 H 366.07 0.562483 -0.352857 0
M  V30 3926 H 368.6 1.3189 -1.56417 0
M  V30 3927 H 368.61 3.76541 -1.57102 0
M  V30 3928 H 367.285 3.24627 -2.59981 0
M  V30 3929 H 365.862 3.63972 -0.811108 0
M  V30 3930 N 368.047 0.979072 1.23499 0
M  V30 3931 C 369.293 0.648178 1.92163 0
M  V30 3932 C 369.626 -0.816049 1.76222 0
M  V30 3933 O 368.901 -1.58849 1.12237 0
M  V30 3934 C 369.184 1.03773 3.44824 0
M  V30 3935 C 369.037 2.55948 3.69879 0
M  V30 3936 C 370.356 0.580653 4.36253 0
M  V30 3937 H 367.475 0.236952 0.69787 0
M  V30 3938 H 370.117 1.22012 1.45647 0
M  V30 3939 H 368.267 0.551058 3.84572 0
M  V30 3940 H 369.939 3.12179 3.3962 0
M  V30 3941 H 368.182 2.98641 3.14636 0
M  V30 3942 H 368.853 2.78255 4.76737 0
M  V30 3943 H 371.329 0.998465 4.03943 0
M  V30 3944 H 370.205 0.881663 5.41773 0
M  V30 3945 H 370.466 -0.519052 4.39042 0
M  V30 3946 N 369.525 -1.3858 0.750561 0
M  V30 3947 C 370.773 -1.99789 0.30477 0
M  V30 3948 C 371.094 -1.59874 -1.11649 0
M  V30 3949 O 370.364 -0.85417 -1.76297 0
M  V30 3950 H 368.944 -0.738902 0.109694 0
M  V30 3951 H 371.606 -1.69391 0.963983 0
M  V30 3952 H 370.702 -3.09952 0.365499 0
M  V30 3953 N 371.003 -0.499398 -1.49478 0
M  V30 3954 C 372.249 0.0457576 -2.02748 0
M  V30 3955 C 372.582 1.36793 -1.37846 0
M  V30 3956 O 371.857 1.87596 -0.513601 0
M  V30 3957 C 372.14 0.199986 -3.59544 0
M  V30 3958 C 371.993 -1.1452 -4.34977 0
M  V30 3959 C 373.312 0.94137 -4.29914 0
M  V30 3960 H 370.431 0.0151552 -0.736844 0
M  V30 3961 H 373.073 -0.650498 -1.78518 0
M  V30 3962 H 371.223 0.793007 -3.8032 0
M  V30 3963 H 372.895 -1.77697 -4.25701 0
M  V30 3964 H 371.138 -1.73488 -3.97598 0
M  V30 3965 H 371.809 -0.990607 -5.43039 0
M  V30 3966 H 374.285 0.43844 -4.13784 0
M  V30 3967 H 373.161 1.01812 -5.39375 0
M  V30 3968 H 373.422 1.98471 -3.95046 0
M  V30 3969 N 372.481 1.55866 -0.233164 0
M  V30 3970 C 373.758 1.90471 0.444988 0
M  V30 3971 C 374.138 1.15209 1.7689 0
M  V30 3972 O 373.486 0.265119 2.26957 0
M  V30 3973 C 373.696 3.4333 0.626559 0
M  V30 3974 C 375.044 4.14319 0.92871 0
M  V30 3975 O 376.068 3.48993 0.712926 0
M  V30 3976 O 374.927 5.29846 1.33887 0
M  V30 3977 H 372.021 0.792347 0.236885 0
M  V30 3978 H 374.567 1.67437 -0.276211 0
M  V30 3979 H 373.339 3.90095 -0.306822 0
M  V30 3980 H 372.962 3.72181 1.39881 0
M  V30 3981 N 373.959 -0.0401083 1.57549 0
M  V30 3982 C 374.922 -1.02871 2.04817 0
M  V30 3983 C 375.922 -1.29708 0.950388 0
M  V30 3984 O 377.112 -1.24897 1.21435 0
M  V30 3985 C 374.244 -2.36443 2.45576 0
M  V30 3986 H 375.437 -0.620631 2.93408 0
M  V30 3987 H 372.99 -0.286667 1.53649 0
M  V30 3988 H 373.725 -2.82021 1.60108 0
M  V30 3989 H 373.51 -2.18296 3.25713 0
M  V30 3990 H 375 -3.07441 2.82612 0
M  V30 3991 N 375.437 -1.54477 -0.31217 0
M  V30 3992 C 376.853 -1.45442 -0.657185 0
M  V30 3993 C 377.053 -0.63653 -1.91182 0
M  V30 3994 O 376.109 -0.139815 -2.52113 0
M  V30 3995 C 377.422 -2.89287 -0.82058 0
M  V30 3996 C 378.97 -2.9926 -0.917188 0
M  V30 3997 C 379.445 -4.44279 -1.11267 0
M  V30 3998 N 380.936 -4.4794 -1.17914 0
M  V30 3999 C 381.671 -5.57318 -1.34848 0
M  V30 4000 N 381.167 -6.76642 -1.48752 0
M  V30 4001 N 382.96 -5.44986 -1.37647 0
M  V30 4002 H 375.111 -2.06129 0.512313 0
M  V30 4003 H 377.374 -0.933088 0.167485 0
M  V30 4004 H 377.08 -3.51687 0.0302604 0
M  V30 4005 H 376.954 -3.36061 -1.71298 0
M  V30 4006 H 379.341 -2.36981 -1.75852 0
M  V30 4007 H 379.422 -2.558 -0.00101257 0
M  V30 4008 H 379.066 -5.07149 -0.27614 0
M  V30 4009 H 378.996 -4.85359 -2.04289 0
M  V30 4010 H 381.487 -3.61969 -1.08567 0
M  V30 4011 H 381.8 -7.55758 -1.61397 0
M  V30 4012 H 380.145 -6.79529 -1.45828 0
M  V30 4013 H 383.336 -4.50715 -1.26388 0
M  V30 4014 H 383.509 -6.3028 -1.50501 0
M  V30 4015 N 376.915 0.57481 -1.46744 0
M  V30 4016 C 377.865 1.67838 -1.54319 0
M  V30 4017 C 378.849 1.55759 -0.40346 0
M  V30 4018 O 380.041 1.6454 -0.652347 0
M  V30 4019 C 377.17 3.06624 -1.5439 0
M  V30 4020 C 376.256 3.23971 -2.73685 0
M  V30 4021 N 376.647 3.11447 -3.9854 0
M  V30 4022 C 374.945 3.5493 -2.70075 0
M  V30 4023 C 375.646 3.31011 -4.78337 0
M  V30 4024 N 374.622 3.56533 -4.10348 0
M  V30 4025 H 378.424 1.56698 -2.48642 0
M  V30 4026 H 375.938 0.779071 -1.42493 0
M  V30 4027 H 377.935 3.85839 -1.57905 0
M  V30 4028 H 376.595 3.1889 -0.611493 0
M  V30 4029 H 377.606 2.89145 -4.29669 0
M  V30 4030 H 374.283 3.73832 -1.85893 0
M  V30 4031 H 375.673 3.26445 -5.87268 0
M  V30 4032 N 378.394 1.34581 0.820102 0
M  V30 4033 C 379.805 1.24298 1.39309 0
M  V30 4034 C 380.156 -0.130351 1.95767 0
M  V30 4035 O 379.281 -1.0308 1.90272 0
M  V30 4036 C 379.876 2.25054 2.53251 0
M  V30 4037 C 378.435 2.18552 3.0645 0
M  V30 4038 C 377.582 2.11503 1.79337 0
M  V30 4039 H 380.533 1.45906 0.624262 0
M  V30 4040 H 380.554 1.86917 3.31425 0
M  V30 4041 H 380.066 3.24996 2.1213 0
M  V30 4042 H 378.167 1.21976 3.52069 0
M  V30 4043 H 378.28 3.0993 3.65349 0
M  V30 4044 H 376.644 1.57268 2.00347 0
M  V30 4045 H 377.427 3.13284 1.40386 0
M  V30 4046 N 379.872 -1.04064 1.18357 0
M  V30 4047 C 381.097 -1.81454 1.00445 0
M  V30 4048 C 381.522 -1.82823 -0.442423 0
M  V30 4049 O 380.88 -1.24555 -1.31741 0
M  V30 4050 C 380.928 -3.24925 1.56384 0
M  V30 4051 O 380.032 -4.04856 0.785209 0
M  V30 4052 H 379.373 -0.560604 0.355835 0
M  V30 4053 H 381.903 -1.31059 1.57114 0
M  V30 4054 H 381.913 -3.75702 1.59097 0
M  V30 4055 H 380.588 -3.23244 2.61699 0
M  V30 4056 H 379.165 -3.63537 0.830399 0
M  V30 4057 N 381.35 -0.985608 -1.22978 0
M  V30 4058 C 382.597 -0.657386 -1.91532 0
M  V30 4059 C 382.925 0.809707 -1.76845 0
M  V30 4060 O 382.18 1.60021 -1.12658 0
M  V30 4061 C 382.479 -1.00014 -3.43121 0
M  V30 4062 C 382.145 -2.4583 -3.77993 0
M  V30 4063 C 380.807 -2.85679 -3.87222 0
M  V30 4064 C 383.159 -3.40378 -3.94705 0
M  V30 4065 C 380.487 -4.19081 -4.10595 0
M  V30 4066 C 382.839 -4.73429 -4.1958 0
M  V30 4067 C 381.503 -5.1303 -4.27032 0
M  V30 4068 H 380.773 -0.240555 -0.700867 0
M  V30 4069 H 383.42 -1.24044 -1.45895 0
M  V30 4070 H 381.725 -0.335072 -3.90365 0
M  V30 4071 H 383.422 -0.724322 -3.94404 0
M  V30 4072 H 380.012 -2.13939 -3.71387 0
M  V30 4073 H 384.196 -3.10766 -3.8696 0
M  V30 4074 H 379.452 -4.49362 -4.14589 0
M  V30 4075 H 383.626 -5.46644 -4.31455 0
M  V30 4076 H 381.253 -6.16418 -4.44896 0
M  V30 4077 N 382.828 1.3818 -0.7579 0
M  V30 4078 C 384.075 2.00019 -0.315985 0
M  V30 4079 C 384.403 1.60163 1.10355 0
M  V30 4080 O 383.658 0.83264 1.77103 0
M  V30 4081 C 383.957 3.55252 -0.391218 0
M  V30 4082 C 383.623 4.14834 -1.76702 0
M  V30 4083 C 382.285 4.30821 -2.14353 0
M  V30 4084 C 384.637 4.47658 -2.66931 0
M  V30 4085 C 381.965 4.76928 -3.41696 0
M  V30 4086 C 384.317 4.95184 -3.93669 0
M  V30 4087 C 382.981 5.09377 -4.31383 0
M  V30 4088 H 382.251 0.731923 -0.115627 0
M  V30 4089 H 384.898 1.65161 -0.969223 0
M  V30 4090 H 383.203 3.90273 0.34558 0
M  V30 4091 H 384.9 4.00988 -0.030805 0
M  V30 4092 H 381.49 4.02808 -1.46435 0
M  V30 4093 H 385.674 4.34904 -2.39106 0
M  V30 4094 H 380.93 4.86103 -3.70829 0
M  V30 4095 H 385.104 5.19551 -4.63724 0
M  V30 4096 H 382.731 5.44865 -5.30119 0
M  V30 4097 N 384.306 0.507319 1.49211 0
M  V30 4098 C 385.236 -0.256939 2.32082 0
M  V30 4099 C 386.217 -0.956609 1.40652 0
M  V30 4100 O 387.402 -0.946788 1.69557 0
M  V30 4101 C 384.532 -1.31802 3.21318 0
M  V30 4102 C 383.486 -0.737855 4.21592 0
M  V30 4103 C 382.812 -1.89992 4.99807 0
M  V30 4104 C 384.112 0.275325 5.21574 0
M  V30 4105 H 385.806 0.434798 2.96226 0
M  V30 4106 H 383.352 0.210546 1.42452 0
M  V30 4107 H 385.305 -1.86045 3.78107 0
M  V30 4108 H 384.029 -2.03903 2.5513 0
M  V30 4109 H 382.688 -0.217126 3.65956 0
M  V30 4110 H 382.336 -2.60877 4.30061 0
M  V30 4111 H 382.036 -1.51777 5.6766 0
M  V30 4112 H 383.56 -2.44657 5.59442 0
M  V30 4113 H 384.974 -0.179193 5.7302 0
M  V30 4114 H 383.371 0.573649 5.97352 0
M  V30 4115 H 384.441 1.18903 4.70096 0
M  V30 4116 N 385.784 -1.5574 0.241426 0
M  V30 4117 C 387.014 -2.02913 -0.38857 0
M  V30 4118 C 387.422 -1.12014 -1.52478 0
M  V30 4119 O 386.765 -0.125903 -1.83268 0
M  V30 4120 C 386.827 -3.4636 -0.963075 0
M  V30 4121 C 386.491 -4.56982 0.0401916 0
M  V30 4122 C 387.488 -5.12941 0.847766 0
M  V30 4123 C 385.173 -5.0203 0.164699 0
M  V30 4124 C 387.167 -6.12437 1.76636 0
M  V30 4125 C 384.854 -6.01358 1.0868 0
M  V30 4126 C 385.852 -6.5644 1.88616 0
M  V30 4127 O 385.54 -7.53831 2.79273 0
M  V30 4128 H 385.272 -0.668983 -0.0971452 0
M  V30 4129 H 387.826 -2.02198 0.361248 0
M  V30 4130 H 386.056 -3.44206 -1.76235 0
M  V30 4131 H 387.745 -3.77065 -1.50257 0
M  V30 4132 H 388.511 -4.78974 0.762133 0
M  V30 4133 H 384.39 -4.58824 -0.447411 0
M  V30 4134 H 387.934 -6.55355 2.39071 0
M  V30 4135 H 383.831 -6.34746 1.17338 0
M  V30 4136 H 384.599 -7.71428 2.73572 0
M  V30 4137 N 387.262 0.0317525 -1.57568 0
M  V30 4138 C 388.678 0.38735 -1.54828 0
M  V30 4139 C 388.878 1.7677 -0.967187 0
M  V30 4140 O 387.934 2.45581 -0.587063 0
M  V30 4141 C 389.247 0.291667 -2.99282 0
M  V30 4142 C 390.795 0.368946 -3.10818 0
M  V30 4143 C 391.27 0.302741 -4.56998 0
M  V30 4144 N 392.761 0.361617 -4.61786 0
M  V30 4145 C 393.496 0.333238 -5.72431 0
M  V30 4146 N 392.992 0.257308 -6.92322 0
M  V30 4147 N 394.785 0.382769 -5.60795 0
M  V30 4148 H 386.936 -0.871609 -1.93692 0
M  V30 4149 H 389.199 -0.331161 -0.888277 0
M  V30 4150 H 388.905 -0.656794 -3.45513 0
M  V30 4151 H 388.779 1.08638 -3.61217 0
M  V30 4152 H 391.166 1.30784 -2.64536 0
M  V30 4153 H 391.247 -0.455066 -2.5172 0
M  V30 4154 H 390.891 -0.632473 -5.03947 0
M  V30 4155 H 390.821 1.14482 -5.14005 0
M  V30 4156 H 393.312 0.422923 -3.75526 0
M  V30 4157 H 393.625 0.24068 -7.72425 0
M  V30 4158 H 391.97 0.223396 -6.94641 0
M  V30 4159 H 395.161 0.44006 -4.66027 0
M  V30 4160 H 395.334 0.357184 -6.47015 0
M  V30 4161 N 388.74 1.54641 0.303973 0
M  V30 4162 C 389.965 1.78092 1.06292 0
M  V30 4163 C 390.39 0.537342 1.80262 0
M  V30 4164 O 389.748 -0.511993 1.7392 0
M  V30 4165 C 389.796 2.98612 2.02147 0
M  V30 4166 O 388.9 2.71528 3.10397 0
M  V30 4167 H 388.241 0.589548 0.305497 0
M  V30 4168 H 390.771 2.01716 0.3423 0
M  V30 4169 H 390.781 3.265 2.44667 0
M  V30 4170 H 389.456 3.88785 1.47714 0
M  V30 4171 H 388.033 2.54648 2.72413 0
M  V30 4172 N 390.218 -0.567019 1.47046 0
M  V30 4173 C 391.466 -1.322 1.52864 0
M  V30 4174 C 391.787 -1.94088 0.188388 0
M  V30 4175 O 391.057 -1.7941 -0.786693 0
M  V30 4176 H 389.637 -0.490894 0.563056 0
M  V30 4177 H 392.299 -0.662879 1.83281 0
M  V30 4178 H 391.395 -2.12062 2.2899 0
M  V30 4179 N 391.696 -1.35014 -0.812953 0
M  V30 4180 C 392.942 -1.2812 -1.57204 0
M  V30 4181 C 393.275 0.145869 -1.93651 0
M  V30 4182 O 392.55 1.0937 -1.60836 0
M  V30 4183 C 392.833 -2.18162 -2.86492 0
M  V30 4184 C 392.686 -3.69454 -2.56561 0
M  V30 4185 C 394.005 -2.07439 -3.88145 0
M  V30 4186 H 391.124 -0.466746 -0.570366 0
M  V30 4187 H 393.766 -1.65357 -0.935783 0
M  V30 4188 H 391.916 -1.86535 -3.40789 0
M  V30 4189 H 393.588 -4.11493 -2.08497 0
M  V30 4190 H 391.831 -3.9005 -1.89851 0
M  V30 4191 H 392.502 -4.27835 -3.48799 0
M  V30 4192 H 394.978 -2.35228 -3.4323 0
M  V30 4193 H 393.854 -2.7265 -4.76396 0
M  V30 4194 H 394.115 -1.05439 -4.29343 0
M  V30 4195 N 393.175 1.03435 -1.18907 0
M  V30 4196 C 394.405 1.8012 -1.01195 0
M  V30 4197 C 394.813 1.8395 0.442613 0
M  V30 4198 O 394.156 1.27836 1.31923 0
M  V30 4199 C 394.218 3.26792 -1.49823 0
M  V30 4200 C 393.882 3.46609 -2.97844 0
M  V30 4201 C 394.879 3.37278 -3.95651 0
M  V30 4202 C 392.564 3.73001 -3.36416 0
M  V30 4203 C 394.558 3.54054 -5.30023 0
M  V30 4204 C 392.245 3.89423 -4.70949 0
M  V30 4205 C 393.243 3.79951 -5.67562 0
M  V30 4206 O 392.931 3.95895 -6.99659 0
M  V30 4207 H 392.663 0.573865 -0.357289 0
M  V30 4208 H 395.217 1.31207 -1.58031 0
M  V30 4209 H 393.447 3.76703 -0.873578 0
M  V30 4210 H 395.136 3.85055 -1.28404 0
M  V30 4211 H 395.902 3.16846 -3.67197 0
M  V30 4212 H 391.781 3.79469 -2.61772 0
M  V30 4213 H 395.325 3.46577 -6.05417 0
M  V30 4214 H 391.222 4.09351 -4.99101 0
M  V30 4215 H 391.99 4.13019 -7.06653 0
M  V30 4216 N 394.653 0.992116 1.22453 0
M  V30 4217 C 395.883 0.684949 1.94915 0
M  V30 4218 C 396.291 -0.754292 1.73514 0
M  V30 4219 O 395.634 -1.52056 1.03076 0
M  V30 4220 C 395.696 0.910054 3.47791 0
M  V30 4221 C 395.36 2.33363 3.92926 0
M  V30 4222 C 396.357 3.31308 4.00663 0
M  V30 4223 C 394.042 2.66785 4.25595 0
M  V30 4224 C 396.036 4.6075 4.40441 0
M  V30 4225 C 393.723 3.96446 4.65053 0
M  V30 4226 C 394.721 4.9324 4.72444 0
M  V30 4227 O 394.409 6.20584 5.1101 0
M  V30 4228 H 394.141 0.25258 0.62704 0
M  V30 4229 H 396.695 1.32939 1.56577 0
M  V30 4230 H 394.925 0.208443 3.86138 0
M  V30 4231 H 396.614 0.598257 4.01467 0
M  V30 4232 H 397.38 3.0682 3.75615 0
M  V30 4233 H 393.259 1.92148 4.19047 0
M  V30 4234 H 396.803 5.363 4.46126 0
M  V30 4235 H 392.7 4.20724 4.89552 0
M  V30 4236 H 393.468 6.24509 5.29085 0
M  V30 4237 N 396.131 -1.37776 0.765217 0
M  V30 4238 C 397.041 -2.34135 0.147666 0
M  V30 4239 C 398.057 -1.59854 -0.687215 0
M  V30 4240 O 399.233 -1.91983 -0.608659 0
M  V30 4241 C 396.298 -3.3901 -0.72617 0
M  V30 4242 C 395.359 -4.2912 0.124417 0
M  V30 4243 C 394.592 -5.28986 -0.707807 0
M  V30 4244 O 394.815 -5.36205 -1.94525 0
M  V30 4245 O 393.749 -6.01779 -0.12046 0
M  V30 4246 H 397.575 -2.88664 0.943758 0
M  V30 4247 H 395.16 -1.39824 0.526277 0
M  V30 4248 H 397.042 -4.03195 -1.22524 0
M  V30 4249 H 395.717 -2.86819 -1.50056 0
M  V30 4250 H 394.624 -3.68057 0.669696 0
M  V30 4251 H 395.957 -4.84598 0.861736 0
M  V30 4252 N 397.609 -0.515225 -1.4894 0
M  V30 4253 C 399.02 -0.0710067 -1.86565 0
M  V30 4254 C 399.371 1.34733 -1.42623 0
M  V30 4255 O 398.496 2.00653 -0.810379 0
M  V30 4256 C 399.091 -0.122083 -3.3858 0
M  V30 4257 C 397.65 0.266863 -3.75453 0
M  V30 4258 C 396.797 -0.488376 -2.72966 0
M  V30 4259 H 399.748 -0.727266 -1.41055 0
M  V30 4260 H 399.769 0.669818 -3.74558 0
M  V30 4261 H 399.281 -1.15448 -3.70531 0
M  V30 4262 H 397.382 1.30196 -3.49113 0
M  V30 4263 H 397.495 -0.0624811 -4.79059 0
M  V30 4264 H 395.859 0.0635622 -2.54621 0
M  V30 4265 H 396.642 -1.52113 -3.07761 0
M  V30 4266 N 399.087 1.5561 -0.249682 0
M  V30 4267 C 400.312 2.03865 0.381305 0
M  V30 4268 C 400.737 1.12769 1.50548 0
M  V30 4269 O 400.095 0.121189 1.80895 0
M  V30 4270 C 400.143 3.50101 0.863816 0
M  V30 4271 O 399.247 3.62132 1.97318 0
M  V30 4272 H 398.588 0.658827 0.0827194 0
M  V30 4273 H 401.118 2.01105 -0.376552 0
M  V30 4274 H 401.128 3.90975 1.1663 0
M  V30 4275 H 399.803 4.1588 0.0411816 0
M  V30 4276 H 398.38 3.33155 1.67517 0
M  V30 4277 N 400.565 -0.0233959 1.57583 0
M  V30 4278 C 401.805 -0.71784 1.9138 0
M  V30 4279 C 402.169 -1.72216 0.848853 0
M  V30 4280 O 403.37 -2.46527 1.07134 0
M  V30 4281 C 401.641 -1.36489 3.30311 0
M  V30 4282 S 403.2 -2.0877 3.85954 0
M  V30 4283 H 400.018 -0.237676 0.670098 0
M  V30 4284 H 402.62 0.0276709 1.9548 0
M  V30 4285 H 401.324 -0.620782 4.05678 0
M  V30 4286 H 400.855 -2.14883 3.29528 0
M  V30 4287 H 402.87 -3.35988 3.65139 0
M  V30 4288 N 402.043 -1.548 -0.295768 0
M  V30 4289 C 403.271 -1.78327 -1.04914 0
M  V30 4290 C 403.686 -0.545316 -1.80753 0
M  V30 4291 O 403.043 0.485013 -1.75937 0
M  V30 4292 C 403.094 -2.99418 -2.02561 0
M  V30 4293 O 402.815 -4.18431 -1.29798 0
M  V30 4294 C 404.316 -3.35375 -2.89895 0
M  V30 4295 H 401.536 -0.594618 -0.310918 0
M  V30 4296 H 404.08 -2.01763 -0.333454 0
M  V30 4297 H 402.235 -2.78175 -2.69624 0
M  V30 4298 H 402.649 -4.86736 -1.95419 0
M  V30 4299 H 404.123 -4.23332 -3.54251 0
M  V30 4300 H 404.6 -2.53761 -3.58472 0
M  V30 4301 H 405.206 -3.58796 -2.28355 0
M  V30 4302 N 403.521 0.559213 -1.47345 0
M  V30 4303 C 404.453 1.68161 -1.55738 0
M  V30 4304 C 405.466 1.56636 -0.443744 0
M  V30 4305 O 406.655 1.6363 -0.713258 0
M  V30 4306 C 403.755 3.06611 -1.4437 0
M  V30 4307 C 402.928 3.4391 -2.70268 0
M  V30 4308 C 401.987 4.61515 -2.52765 0
M  V30 4309 O 401.013 4.66197 -3.26572 0
M  V30 4310 N 402.215 5.57883 -1.6046 0
M  V30 4311 H 404.98 1.61408 -2.52522 0
M  V30 4312 H 402.541 0.7458 -1.43699 0
M  V30 4313 H 404.533 3.83117 -1.30398 0
M  V30 4314 H 403.103 3.07602 -0.556766 0
M  V30 4315 H 402.323 2.56873 -2.99015 0
M  V30 4316 H 403.611 3.65605 -3.53851 0
M  V30 4317 H 403.009 5.56855 -0.996422 0
M  V30 4318 H 401.566 6.33723 -1.52441 0
M  V30 4319 N 404.999 1.35443 0.805782 0
M  V30 4320 C 405.947 1.28465 1.93906 0
M  V30 4321 C 406.941 0.17943 1.68447 0
M  V30 4322 O 408.147 0.345459 1.76654 0
M  V30 4323 H 404.522 0.399528 0.637088 0
M  V30 4324 H 406.493 2.24206 1.96912 0
M  V30 4325 C 405.242 1.07432 3.30687 0
M  V30 4326 H 404.565 1.91716 3.50835 0
M  V30 4327 H 406.005 1.06591 4.10383 0
M  V30 4328 C 404.464 -0.22179 3.36169 0
M  V30 4329 O 404.994 -1.21731 3.82811 0
M  V30 4330 N 403.2 -0.260841 2.89427 0
M  V30 4331 H 402.747 0.549884 2.51663 0
M  V30 4332 H 402.705 -1.12777 2.93477 0
M  V30 4333 N 406.477 -1.02803 1.19454 0
M  V30 4334 C 407.723 -1.76478 0.999171 0
M  V30 4335 C 408.056 -1.88456 -0.468828 0
M  V30 4336 O 407.331 -1.40198 -1.34814 0
M  V30 4337 C 407.614 -3.19044 1.66981 0
M  V30 4338 C 407.467 -3.14932 3.21151 0
M  V30 4339 C 408.786 -4.17456 1.39349 0
M  V30 4340 H 405.905 -0.640614 0.364393 0
M  V30 4341 H 408.547 -1.20005 1.47305 0
M  V30 4342 H 406.697 -3.67263 1.2669 0
M  V30 4343 H 408.369 -2.74605 3.70661 0
M  V30 4344 H 406.612 -2.52625 3.52652 0
M  V30 4345 H 407.283 -4.1566 3.63223 0
M  V30 4346 H 409.759 -3.77842 1.74283 0
M  V30 4347 H 408.635 -5.154 1.88823 0
M  V30 4348 H 408.896 -4.40949 0.318813 0
M  V30 4349 N 407.956 -0.998596 -1.21925 0
M  V30 4350 C 408.904 -0.546641 -2.26085 0
M  V30 4351 C 409.898 0.405576 -1.64473 0
M  V30 4352 O 411.104 0.277471 -1.77849 0
M  V30 4353 H 407.479 -0.158403 -0.735127 0
M  V30 4354 H 409.45 -1.43645 -2.61551 0
M  V30 4355 C 408.199 0.117388 -3.47502 0
M  V30 4356 H 407.522 -0.606277 -3.95176 0
M  V30 4357 H 408.962 0.396993 -4.22137 0
M  V30 4358 C 407.421 1.35455 -3.0847 0
M  V30 4359 O 407.951 2.44944 -3.18379 0
M  V30 4360 N 406.157 1.23191 -2.63196 0
M  V30 4361 H 405.704 0.341006 -2.55333 0
M  V30 4362 H 405.662 2.06071 -2.37449 0
M  V30 4363 N 409.434 1.37368 -0.772513 0
M  V30 4364 C 410.384 2.27613 -0.132823 0
M  V30 4365 C 411.368 1.46138 0.673247 0
M  V30 4366 O 412.56 1.68686 0.536095 0
M  V30 4367 C 409.689 3.35122 0.744864 0
M  V30 4368 C 408.775 4.24044 -0.0690771 0
M  V30 4369 N 409.166 4.93355 -1.1151 0
M  V30 4370 C 407.464 4.45731 0.154782 0
M  V30 4371 C 408.165 5.59 -1.60917 0
M  V30 4372 N 407.141 5.35737 -0.921222 0
M  V30 4373 H 410.943 2.78675 -0.933681 0
M  V30 4374 H 408.457 1.50494 -0.610342 0
M  V30 4375 H 410.454 3.98683 1.21892 0
M  V30 4376 H 409.114 2.85616 1.54446 0
M  V30 4377 H 410.125 4.95785 -1.49726 0
M  V30 4378 H 406.802 4.07096 0.926224 0
M  V30 4379 H 408.192 6.24395 -2.48153 0
M  V30 4380 N 410.912 0.523116 1.48665 0
M  V30 4381 C 412.16 -0.0134497 2.02096 0
M  V30 4382 C 412.481 -1.35418 1.40311 0
M  V30 4383 O 411.751 -1.87543 0.566074 0
M  V30 4384 H 410.331 -0.00795915 0.746958 0
M  V30 4385 H 412.993 0.685388 1.82451 0
M  V30 4386 H 412.089 -0.126849 3.11842 0
M  V30 4387 N 412.39 -1.55475 0.257931 0
M  V30 4388 C 413.636 -1.99502 -0.364266 0
M  V30 4389 C 413.969 -1.146 -1.56782 0
M  V30 4390 O 413.244 -0.211968 -1.93342 0
M  V30 4391 C 413.527 -3.51917 -0.763333 0
M  V30 4392 C 413.38 -4.4758 0.446371 0
M  V30 4393 C 414.699 -4.09742 -1.60623 0
M  V30 4394 H 411.818 -0.725277 -0.130929 0
M  V30 4395 H 414.46 -1.8653 0.361446 0
M  V30 4396 H 412.61 -3.63101 -1.38166 0
M  V30 4397 H 414.282 -4.48362 1.08487 0
M  V30 4398 H 412.525 -4.19947 1.08753 0
M  V30 4399 H 413.196 -5.51862 0.123645 0
M  V30 4400 H 415.672 -4.01727 -1.08418 0
M  V30 4401 H 414.548 -5.16631 -1.85429 0
M  V30 4402 H 414.809 -3.58889 -2.58169 0
M  V30 4403 N 413.868 0.0150385 -1.57593 0
M  V30 4404 C 414.798 1.01047 -2.10503 0
M  V30 4405 C 415.779 1.36816 -1.01071 0
M  V30 4406 O 416.964 1.45455 -1.28672 0
M  V30 4407 C 414.094 2.30708 -2.59598 0
M  V30 4408 C 413.048 2.09142 -3.73421 0
M  V30 4409 C 412.374 3.44685 -4.08774 0
M  V30 4410 C 413.674 1.46619 -5.01298 0
M  V30 4411 H 415.368 0.569978 -2.93925 0
M  V30 4412 H 412.914 0.272724 -1.41394 0
M  V30 4413 H 414.867 3.00687 -2.95238 0
M  V30 4414 H 413.591 2.76843 -1.73279 0
M  V30 4415 H 412.25 1.41592 -3.38153 0
M  V30 4416 H 411.898 3.88495 -3.195 0
M  V30 4417 H 411.598 3.31077 -4.8545 0
M  V30 4418 H 413.122 4.16004 -4.4696 0
M  V30 4419 H 414.536 2.06535 -5.34805 0
M  V30 4420 H 412.933 1.43544 -5.82679 0
M  V30 4421 H 414.003 0.433611 -4.82957 0
M  V30 4422 N 415.346 1.54954 0.287554 0
M  V30 4423 C 416.592 1.75132 1.02257 0
M  V30 4424 C 416.925 0.542858 1.86458 0
M  V30 4425 O 416.2 -0.459856 1.88986 0
M  V30 4426 C 416.483 3.04812 1.91733 0
M  V30 4427 C 416.336 4.35985 1.10622 0
M  V30 4428 C 417.655 3.30438 2.90687 0
M  V30 4429 H 414.774 0.637194 0.370341 0
M  V30 4430 H 417.416 1.87678 0.296111 0
M  V30 4431 H 415.566 2.94247 2.53675 0
M  V30 4432 H 417.238 4.58487 0.508636 0
M  V30 4433 H 415.481 4.31865 0.409271 0
M  V30 4434 H 416.152 5.23017 1.76513 0
M  V30 4435 H 418.628 3.40701 2.38877 0
M  V30 4436 H 417.504 4.22467 3.50447 0
M  V30 4437 H 417.765 2.49377 3.65053 0
M  V30 4438 N 416.824 -0.551391 1.4764 0
M  V30 4439 C 418.07 -1.31024 1.54792 0
M  V30 4440 C 418.403 -1.9304 0.211967 0
M  V30 4441 O 417.678 -1.78175 -0.77999 0
M  V30 4442 C 417.961 -2.41593 2.67029 0
M  V30 4443 C 417.814 -1.84408 4.10261 0
M  V30 4444 C 419.133 -3.43488 2.75143 0
M  V30 4445 H 416.252 -0.475031 0.563485 0
M  V30 4446 H 418.894 -0.616454 1.79722 0
M  V30 4447 H 417.044 -3.00772 2.45904 0
M  V30 4448 H 418.716 -1.29445 4.42766 0
M  V30 4449 H 416.959 -1.15051 4.18265 0
M  V30 4450 H 417.63 -2.64367 4.84576 0
M  V30 4451 H 420.106 -2.94236 2.94218 0
M  V30 4452 H 418.982 -4.18274 3.55441 0
M  V30 4453 H 419.243 -4.02703 1.82435 0
M  V30 4454 N 418.302 -1.35869 -0.798587 0
M  V30 4455 C 419.55 -1.29332 -1.55298 0
M  V30 4456 C 419.871 0.129729 -1.94568 0
M  V30 4457 O 419.141 1.06796 -1.6423 0
M  V30 4458 H 417.721 -0.475737 -0.57592 0
M  V30 4459 H 420.383 -1.70062 -0.952093 0
M  V30 4460 H 419.479 -1.91458 -2.46476 0
M  V30 4461 N 419.78 1.02168 -1.19998 0
M  V30 4462 C 421.01 1.79036 -1.031 0
M  V30 4463 C 421.418 1.84409 0.423078 0
M  V30 4464 O 420.761 1.29228 1.30559 0
M  V30 4465 C 420.823 3.25185 -1.53281 0
M  V30 4466 C 420.487 3.43431 -3.01503 0
M  V30 4467 C 421.484 3.33063 -3.99206 0
M  V30 4468 C 419.169 3.69412 -3.40353 0
M  V30 4469 C 421.163 3.48413 -5.33748 0
M  V30 4470 C 418.85 3.84406 -4.75053 0
M  V30 4471 C 419.848 3.7391 -5.71559 0
M  V30 4472 O 419.536 3.88452 -7.03818 0
M  V30 4473 H 419.268 0.570043 -0.363355 0
M  V30 4474 H 421.822 1.29524 -1.59414 0
M  V30 4475 H 420.052 3.75756 -0.913483 0
M  V30 4476 H 421.741 3.83671 -1.32481 0
M  V30 4477 H 422.507 3.12934 -3.70537 0
M  V30 4478 H 418.386 3.76671 -2.65782 0
M  V30 4479 H 421.93 3.40137 -6.09059 0
M  V30 4480 H 417.827 4.04035 -5.03415 0
M  V30 4481 H 418.595 4.055 -7.10993 0
M  V30 4482 N 421.258 1.00505 1.21394 0
M  V30 4483 C 422.506 0.686415 1.90086 0
M  V30 4484 C 422.827 -0.785264 1.7849 0
M  V30 4485 O 422.097 -1.56387 1.17983 0
M  V30 4486 H 420.677 0.2509 0.703604 0
M  V30 4487 H 423.339 1.27417 1.47482 0
M  V30 4488 H 422.435 0.959621 2.96981 0
M  V30 4489 N 422.737 -1.36956 0.779787 0
M  V30 4490 C 424.014 -1.93697 0.272156 0
M  V30 4491 C 424.394 -1.71267 -1.23413 0
M  V30 4492 O 423.742 -1.06607 -2.02107 0
M  V30 4493 C 423.952 -3.42812 0.654291 0
M  V30 4494 C 425.3 -4.19921 0.628602 0
M  V30 4495 O 426.324 -3.51209 0.594172 0
M  V30 4496 O 425.183 -5.42465 0.662864 0
M  V30 4497 H 422.277 -0.824447 0.0649286 0
M  V30 4498 H 424.823 -1.46196 0.861682 0
M  V30 4499 H 423.595 -3.52754 1.69353 0
M  V30 4500 H 423.218 -3.97582 0.0381369 0
M  V30 4501 N 424.215 -0.530993 -1.48385 0
M  V30 4502 C 425.145 0.219985 -2.32461 0
M  V30 4503 C 426.126 0.934111 -1.42156 0
M  V30 4504 O 427.311 0.919694 -1.71042 0
M  V30 4505 C 424.441 1.26674 -3.23375 0
M  V30 4506 C 423.395 0.67069 -4.22712 0
M  V30 4507 C 422.721 1.82017 -5.02766 0
M  V30 4508 C 424.021 -0.358268 -5.2107 0
M  V30 4509 H 425.715 -0.48187 -2.95497 0
M  V30 4510 H 423.261 -0.233182 -1.42099 0
M  V30 4511 H 425.214 1.80006 -3.81019 0
M  V30 4512 H 423.938 1.99818 -2.58341 0
M  V30 4513 H 422.597 0.158878 -3.66256 0
M  V30 4514 H 422.245 2.54002 -4.34157 0
M  V30 4515 H 421.945 1.42727 -5.70003 0
M  V30 4516 H 423.469 2.35725 -5.63264 0
M  V30 4517 H 424.883 0.0880081 -5.73232 0
M  V30 4518 H 423.28 -0.66861 -5.96364 0
M  V30 4519 H 424.35 -1.26367 -4.68145 0
M  V30 4520 N 425.693 1.55336 -0.266172 0
M  V30 4521 C 426.641 2.23587 0.641228 0
M  V30 4522 C 427.635 1.22986 1.16494 0
M  V30 4523 O 428.841 1.40943 1.1196 0
M  V30 4524 H 425.216 0.717452 0.225315 0
M  V30 4525 H 427.187 2.9837 0.0426561 0
M  V30 4526 C 425.936 2.96369 1.81826 0
M  V30 4527 H 425.259 3.73563 1.42445 0
M  V30 4528 H 426.699 3.47459 2.42998 0
M  V30 4529 C 425.158 2.0133 2.70125 0
M  V30 4530 O 425.688 1.55875 3.70224 0
M  V30 4531 N 423.894 1.6802 2.37102 0
M  V30 4532 H 423.441 2.05181 1.55751 0
M  V30 4533 H 423.399 1.047 2.96454 0
M  V30 4534 N 427.171 -0.0066808 1.57599 0
M  V30 4535 C 428.419 -0.691552 1.899 0
M  V30 4536 C 428.74 -1.74682 0.866672 0
M  V30 4537 O 428.01 -1.95661 -0.0968189 0
M  V30 4538 H 426.59 -0.258416 0.700878 0
M  V30 4539 H 429.252 0.0326655 1.94873 0
M  V30 4540 H 428.348 -1.16702 2.8946 0
M  V30 4541 N 428.649 -1.55105 -0.279332 0
M  V30 4542 C 429.596 -1.8755 -1.34513 0
M  V30 4543 C 430.566 -0.726384 -1.49375 0
M  V30 4544 O 431.751 -0.977063 -1.63884 0
M  V30 4545 C 428.891 -2.14738 -2.70151 0
M  V30 4546 C 428.004 -3.42285 -2.63562 0
M  V30 4547 C 427.139 -3.59206 -3.91337 0
M  V30 4548 C 426.178 -4.80467 -3.79233 0
M  V30 4549 N 425.315 -4.94079 -4.98829 0
M  V30 4550 H 430.155 -2.78456 -1.06143 0
M  V30 4551 H 427.692 -1.37867 -0.512936 0
M  V30 4552 H 429.65 -2.28501 -3.49061 0
M  V30 4553 H 428.28 -1.27075 -2.96735 0
M  V30 4554 H 427.332 -3.37029 -1.76397 0
M  V30 4555 H 428.644 -4.31328 -2.50515 0
M  V30 4556 H 427.798 -3.72751 -4.78687 0
M  V30 4557 H 426.537 -2.68337 -4.07243 0
M  V30 4558 H 425.542 -4.66932 -2.90266 0
M  V30 4559 H 426.767 -5.72765 -3.64852 0
M  V30 4560 H 424.713 -4.06139 -5.15158 0
M  V30 4561 H 424.63 -5.77156 -4.8829 0
M  V30 4562 H 425.898 -5.12003 -5.8777 0
M  V30 4563 N 430.127 0.543554 -1.4793 0
M  V30 4564 C 431.037 1.67657 -1.64098 0
M  V30 4565 C 432.053 1.65934 -0.523622 0
M  V30 4566 O 433.229 1.85133 -0.792943 0
M  V30 4567 C 430.294 3.04146 -1.66421 0
M  V30 4568 C 429.355 3.16831 -2.89684 0
M  V30 4569 C 428.588 4.46809 -2.91886 0
M  V30 4570 O 428.811 5.33095 -2.02895 0
M  V30 4571 O 427.745 4.63573 -3.83906 0
M  V30 4572 H 431.571 1.56957 -2.59997 0
M  V30 4573 H 429.156 0.715116 -1.31173 0
M  V30 4574 H 431.038 3.85346 -1.70548 0
M  V30 4575 H 429.713 3.152 -0.736923 0
M  V30 4576 H 428.62 2.34977 -2.91095 0
M  V30 4577 H 429.953 3.10687 -3.81752 0
M  V30 4578 N 431.605 1.3629 0.791371 0
M  V30 4579 C 432.835 1.33368 1.57786 0
M  V30 4580 C 433.243 -0.0875188 1.88997 0
M  V30 4581 O 432.586 -1.05427 1.50435 0
M  V30 4582 C 432.648 2.08802 2.92646 0
M  V30 4583 C 432.312 3.57903 2.84174 0
M  V30 4584 C 433.309 4.52191 2.56553 0
M  V30 4585 C 430.994 4.00762 3.02812 0
M  V30 4586 C 432.988 5.87315 2.47669 0
M  V30 4587 C 430.675 5.35977 2.93551 0
M  V30 4588 C 431.673 6.29066 2.66017 0
M  V30 4589 O 431.361 7.61798 2.56746 0
M  V30 4590 H 431.093 0.459166 0.496128 0
M  V30 4591 H 433.647 1.79952 0.990269 0
M  V30 4592 H 431.877 1.56878 3.53449 0
M  V30 4593 H 433.566 1.98762 3.53904 0
M  V30 4594 H 434.332 4.20393 2.41858 0
M  V30 4595 H 430.211 3.2868 3.2325 0
M  V30 4596 H 433.755 6.59943 2.26099 0
M  V30 4597 H 429.652 5.67384 3.07808 0
M  V30 4598 H 430.42 7.71898 2.72242 0
M  V30 4599 N 433.083 -1.0153 1.20538 0
M  V30 4600 C 434.329 -1.75517 1.02787 0
M  V30 4601 C 434.684 -1.87411 -0.435289 0
M  V30 4602 O 433.977 -1.38982 -1.31889 0
M  V30 4603 C 434.171 -3.17213 1.64654 0
M  V30 4604 C 434 -3.19134 3.16834 0
M  V30 4605 C 432.77 -3.26301 3.85818 0
M  V30 4606 C 434.968 -3.05077 4.14044 0
M  V30 4607 N 432.95 -3.17739 5.25276 0
M  V30 4608 C 434.321 -3.04299 5.40187 0
M  V30 4609 C 436.376 -2.89303 4.05226 0
M  V30 4610 C 435.079 -2.89365 6.58529 0
M  V30 4611 C 437.105 -2.75723 5.23193 0
M  V30 4612 C 436.467 -2.75612 6.48242 0
M  V30 4613 H 432.566 -0.652919 0.430373 0
M  V30 4614 H 435.15 -1.20755 1.52729 0
M  V30 4615 H 433.321 -3.70266 1.17294 0
M  V30 4616 H 435.053 -3.79637 1.40208 0
M  V30 4617 H 431.808 -3.33078 3.36684 0
M  V30 4618 H 432.232 -3.16829 5.98288 0
M  V30 4619 H 436.874 -2.88201 3.09354 0
M  V30 4620 H 434.592 -2.89216 7.54573 0
M  V30 4621 H 438.178 -2.64533 5.18183 0
M  V30 4622 H 437.058 -2.65224 7.37988 0
M  V30 4623 N 434.561 -1.01147 -1.20859 0
M  V30 4624 C 435.491 -0.597663 -2.25722 0
M  V30 4625 C 436.472 0.384744 -1.65692 0
M  V30 4626 O 437.657 0.271303 -1.92296 0
M  V30 4627 C 434.787 0.0700149 -3.47229 0
M  V30 4628 C 433.741 -0.832843 -4.19819 0
M  V30 4629 C 433.067 -0.0312202 -5.34691 0
M  V30 4630 C 434.367 -2.1385 -4.76514 0
M  V30 4631 H 436.061 -1.47423 -2.60589 0
M  V30 4632 H 433.607 -0.710301 -1.25263 0
M  V30 4633 H 435.56 0.37103 -4.19763 0
M  V30 4634 H 434.284 0.981259 -3.11511 0
M  V30 4635 H 432.943 -1.11778 -3.49144 0
M  V30 4636 H 432.591 0.881515 -4.95215 0
M  V30 4637 H 432.291 -0.632434 -5.84187 0
M  V30 4638 H 433.815 0.26346 -6.10031 0
M  V30 4639 H 435.229 -1.9002 -5.40893 0
M  V30 4640 H 433.626 -2.69012 -5.36426 0
M  V30 4641 H 434.696 -2.80495 -3.95538 0
M  V30 4642 N 436.039 1.36541 -0.78704 0
M  V30 4643 C 437.285 1.99599 -0.358872 0
M  V30 4644 C 437.618 1.62323 1.06606 0
M  V30 4645 O 436.893 0.876858 1.73613 0
M  V30 4646 C 437.176 3.56327 -0.519944 0
M  V30 4647 C 437.029 4.03464 -1.98839 0
M  V30 4648 C 438.348 4.4005 0.0664737 0
M  V30 4649 H 435.467 0.725107 -0.131869 0
M  V30 4650 H 438.109 1.6199 -0.992936 0
M  V30 4651 H 436.259 3.88495 0.0198321 0
M  V30 4652 H 437.931 3.81793 -2.58905 0
M  V30 4653 H 436.174 3.55092 -2.49183 0
M  V30 4654 H 436.845 5.12439 -2.05207 0
M  V30 4655 H 439.321 4.14228 -0.394267 0
M  V30 4656 H 438.197 5.48847 -0.0762682 0
M  V30 4657 H 438.458 4.26655 1.15835 0
M  V30 4658 N 437.518 0.538854 1.48102 0
M  V30 4659 C 438.465 -0.219042 2.29758 0
M  V30 4660 C 439.435 -0.925562 1.37922 0
M  V30 4661 O 440.62 -0.924855 1.66886 0
M  V30 4662 C 437.76 -1.25452 3.2149 0
M  V30 4663 C 436.873 -0.555943 4.28408 0
M  V30 4664 C 436.008 -1.57512 5.0731 0
M  V30 4665 C 435.047 -0.860498 6.06021 0
M  V30 4666 N 434.184 -1.82564 6.77949 0
M  V30 4667 H 439.024 0.483449 2.94052 0
M  V30 4668 H 436.561 0.250247 1.44956 0
M  V30 4669 H 438.519 -1.86727 3.7308 0
M  V30 4670 H 437.149 -1.92528 2.591 0
M  V30 4671 H 436.201 0.170938 3.80016 0
M  V30 4672 H 437.513 0.00474616 4.988 0
M  V30 4673 H 436.667 -2.26191 5.62959 0
M  V30 4674 H 435.406 -2.16972 4.36778 0
M  V30 4675 H 434.411 -0.159686 5.49568 0
M  V30 4676 H 435.636 -0.271897 6.78555 0
M  V30 4677 H 433.582 -2.40915 6.10161 0
M  V30 4678 H 433.499 -1.31662 7.44447 0
M  V30 4679 H 434.767 -2.50414 7.38182 0
M  V30 4680 N 438.996 -1.55193 0.274407 0
M  V30 4681 C 439.944 -2.23924 -0.629362 0
M  V30 4682 C 440.938 -1.23602 -1.1584 0
M  V30 4683 O 442.144 -1.41535 -1.11211 0
M  V30 4684 H 438.519 -0.718637 -0.221507 0
M  V30 4685 H 440.49 -2.98388 -0.0268322 0
M  V30 4686 C 439.239 -2.97329 -1.80252 0
M  V30 4687 H 438.562 -3.74313 -1.40462 0
M  V30 4688 H 440.002 -3.48743 -2.41152 0
M  V30 4689 C 438.461 -2.0276 -2.69054 0
M  V30 4690 O 438.991 -1.57836 -3.69392 0
M  V30 4691 N 437.197 -1.69275 -2.36208 0
M  V30 4692 H 436.744 -2.06004 -1.54661 0
M  V30 4693 H 436.702 -1.06271 -2.95895 0
M  V30 4694 N 440.474 -0.00167713 -1.576 0
M  V30 4695 C 441.699 0.69739 -1.95323 0
M  V30 4696 C 442.124 1.6642 -0.876706 0
M  V30 4697 O 441.482 1.80548 0.165007 0
M  V30 4698 C 441.53 1.40403 -3.32144 0
M  V30 4699 O 440.634 2.5185 -3.26566 0
M  V30 4700 H 439.975 0.185373 -0.637599 0
M  V30 4701 H 442.505 -0.0553665 -2.04525 0
M  V30 4702 H 442.515 1.76707 -3.67748 0
M  V30 4703 H 441.19 0.695167 -4.10049 0
M  V30 4704 H 439.767 2.17861 -3.0264 0
M  V30 4705 N 441.952 1.55251 0.271103 0
M  V30 4706 C 443.198 1.7713 0.999832 0
M  V30 4707 C 443.553 0.56659 1.83868 0
M  V30 4708 O 442.846 -0.44069 1.86463 0
M  V30 4709 C 443.04 3.01879 1.91321 0
M  V30 4710 C 442.869 4.34368 1.16426 0
M  V30 4711 C 441.639 4.97593 0.879169 0
M  V30 4712 C 443.837 5.1131 0.553749 0
M  V30 4713 N 441.819 6.13813 0.103618 0
M  V30 4714 C 443.19 6.19938 -0.0875442 0
M  V30 4715 C 445.245 4.95754 0.461782 0
M  V30 4716 C 443.948 7.14703 -0.811942 0
M  V30 4717 C 445.974 5.90875 -0.249027 0
M  V30 4718 C 445.336 6.98893 -0.879051 0
M  V30 4719 H 441.435 0.700407 0.347784 0
M  V30 4720 H 444.019 1.92744 0.275314 0
M  V30 4721 H 442.19 2.87637 2.60997 0
M  V30 4722 H 443.922 3.12154 2.57569 0
M  V30 4723 H 440.677 4.58538 1.18491 0
M  V30 4724 H 441.101 6.76455 -0.271543 0
M  V30 4725 H 445.743 4.12342 0.934552 0
M  V30 4726 H 443.461 7.97634 -1.29639 0
M  V30 4727 H 447.047 5.80916 -0.320529 0
M  V30 4728 H 445.927 7.71231 -1.42031 0
M  V30 4729 N 443.43 -0.535701 1.48216 0
M  V30 4730 C 444.678 -1.28928 1.55634 0
M  V30 4731 C 444.999 -1.93645 0.229514 0
M  V30 4732 O 444.269 -1.81038 -0.74846 0
M  V30 4733 H 442.849 -0.47884 0.573342 0
M  V30 4734 H 445.511 -0.623853 1.84646 0
M  V30 4735 H 444.607 -2.07157 2.33436 0
M  V30 4736 N 444.908 -1.36708 -0.784132 0
M  V30 4737 C 445.858 -1.2799 -1.88686 0
M  V30 4738 C 446.842 -0.170282 -1.59996 0
M  V30 4739 O 448.034 -0.403571 -1.72338 0
M  V30 4740 C 445.163 -1.07674 -3.25977 0
M  V30 4741 C 444.249 -2.23127 -3.60659 0
M  V30 4742 N 444.64 -3.48467 -3.66612 0
M  V30 4743 C 442.938 -2.15009 -3.90752 0
M  V30 4744 C 443.639 -4.24525 -3.97685 0
M  V30 4745 N 442.615 -3.53524 -4.12943 0
M  V30 4746 H 446.417 -2.22927 -1.91522 0
M  V30 4747 H 443.931 -1.29503 -0.979933 0
M  V30 4748 H 445.928 -0.995151 -4.04849 0
M  V30 4749 H 444.588 -0.13643 -3.24413 0
M  V30 4750 H 445.599 -3.82534 -3.49125 0
M  V30 4751 H 442.276 -1.28963 -3.97083 0
M  V30 4752 H 443.666 -5.32944 -4.0917 0
M  V30 4753 N 446.386 1.0089 -1.21074 0
M  V30 4754 C 447.334 2.11707 -0.963476 0
M  V30 4755 C 448.328 1.69172 0.0879032 0
M  V30 4756 O 449.534 1.79889 -0.0631415 0
M  V30 4757 H 445.909 0.692026 -0.294287 0
M  V30 4758 H 447.88 2.29743 -1.90422 0
M  V30 4759 C 446.629 3.43473 -0.540509 0
M  V30 4760 H 445.952 3.76634 -1.34114 0
M  V30 4761 H 447.392 4.22044 -0.406777 0
M  V30 4762 C 445.851 3.2849 0.748079 0
M  V30 4763 O 446.381 3.58883 1.8046 0
M  V30 4764 N 444.587 2.81715 0.713081 0
M  V30 4765 H 444.134 2.5718 -0.146973 0
M  V30 4766 H 444.092 2.72071 1.57558 0
M  V30 4767 N 447.864 1.01787 1.20321 0
M  V30 4768 C 449.111 0.707936 1.89722 0
M  V30 4769 C 449.439 -0.762535 1.78929 0
M  V30 4770 O 448.694 -1.56977 1.16861 0
M  V30 4771 C 448.993 1.09076 3.40349 0
M  V30 4772 C 448.659 2.55765 3.71342 0
M  V30 4773 C 447.321 2.95845 3.79511 0
M  V30 4774 C 449.673 3.50723 3.85542 0
M  V30 4775 C 447.001 4.2982 3.99339 0
M  V30 4776 C 449.353 4.84387 4.06881 0
M  V30 4777 C 448.017 5.24172 4.1328 0
M  V30 4778 H 447.287 0.259052 0.694243 0
M  V30 4779 H 449.934 1.27868 1.42555 0
M  V30 4780 H 448.239 0.438453 3.89339 0
M  V30 4781 H 449.936 0.828636 3.92345 0
M  V30 4782 H 446.526 2.2371 3.65584 0
M  V30 4783 H 450.71 3.20916 3.78585 0
M  V30 4784 H 445.966 4.60196 4.02529 0
M  V30 4785 H 450.14 5.57891 4.1681 0
M  V30 4786 H 447.767 6.27997 4.28396 0
M  V30 4787 N 449.342 -1.36122 0.79427 0
M  V30 4788 C 450.59 -1.98718 0.368177 0
M  V30 4789 C 450.911 -1.63345 -1.06506 0
M  V30 4790 O 450.181 -0.909825 -1.73491 0
M  V30 4791 H 448.761 -0.735038 0.133146 0
M  V30 4792 H 451.423 -1.66239 1.01739 0
M  V30 4793 H 450.519 -3.08633 0.463923 0
M  V30 4794 N 450.82 -0.546701 -1.47814 0
M  V30 4795 C 451.73 0.21026 -2.33656 0
M  V30 4796 C 452.746 0.922413 -1.47538 0
M  V30 4797 O 453.922 0.893652 -1.80488 0
M  V30 4798 C 450.987 1.23348 -3.24016 0
M  V30 4799 C 450.048 0.529883 -4.26017 0
M  V30 4800 C 449.281 1.50435 -5.12059 0
M  V30 4801 O 449.504 2.73837 -5.00369 0
M  V30 4802 O 448.438 1.03459 -5.92942 0
M  V30 4803 H 452.264 -0.493605 -2.99662 0
M  V30 4804 H 449.849 -0.307427 -1.46203 0
M  V30 4805 H 451.731 1.82438 -3.79861 0
M  V30 4806 H 450.406 1.91945 -2.60651 0
M  V30 4807 H 449.313 -0.101948 -3.73961 0
M  V30 4808 H 450.646 -0.11445 -4.92067 0
M  V30 4809 N 452.299 1.55045 -0.282633 0
M  V30 4810 C 453.209 2.26491 0.61147 0
M  V30 4811 C 454.225 1.29348 1.16384 0
M  V30 4812 O 455.401 1.62298 1.19253 0
M  V30 4813 C 452.466 2.97779 1.77563 0
M  V30 4814 C 451.527 4.10418 1.25919 0
M  V30 4815 C 450.76 4.78297 2.36786 0
M  V30 4816 O 450.983 4.45426 3.56303 0
M  V30 4817 O 449.917 5.66089 2.04517 0
M  V30 4818 H 453.743 3.03683 0.0324615 0
M  V30 4819 H 451.328 1.49317 -0.0497576 0
M  V30 4820 H 453.21 3.42554 2.45427 0
M  V30 4821 H 451.885 2.23498 2.34159 0
M  V30 4822 H 450.792 3.70082 0.546797 0
M  V30 4823 H 452.125 4.86622 0.738887 0
M  V30 4824 N 453.777 0.010035 1.57597 0
M  V30 4825 C 455.025 -0.671371 1.90623 0
M  V30 4826 C 455.346 -1.73753 0.885151 0
M  V30 4827 O 454.616 -1.95752 -0.0760611 0
M  V30 4828 H 453.196 -0.250968 0.703579 0
M  V30 4829 H 455.858 0.0533325 1.94827 0
M  V30 4830 H 454.954 -1.13626 2.90681 0
M  V30 4831 N 455.255 -1.55392 -0.262866 0
M  V30 4832 C 456.485 -1.80251 -1.00961 0
M  V30 4833 C 456.893 -0.58117 -1.80053 0
M  V30 4834 O 456.236 0.459427 -1.77862 0
M  V30 4835 C 456.298 -2.98207 -2.00781 0
M  V30 4836 C 455.962 -4.34856 -1.40533 0
M  V30 4837 C 456.959 -5.13459 -0.815853 0
M  V30 4838 C 454.644 -4.8153 -1.42948 0
M  V30 4839 C 456.638 -6.36875 -0.258562 0
M  V30 4840 C 454.325 -6.04899 -0.868334 0
M  V30 4841 C 455.323 -6.8241 -0.283884 0
M  V30 4842 O 455.011 -8.03451 0.268644 0
M  V30 4843 H 454.743 -0.604049 -0.303482 0
M  V30 4844 H 457.297 -2.03257 -0.295926 0
M  V30 4845 H 455.527 -2.70917 -2.75936 0
M  V30 4846 H 457.216 -3.10299 -2.61667 0
M  V30 4847 H 457.982 -4.78526 -0.789812 0
M  V30 4848 H 453.861 -4.21201 -1.87378 0
M  V30 4849 H 457.405 -6.97318 0.198257 0
M  V30 4850 H 453.302 -6.39312 -0.891649 0
M  V30 4851 H 454.07 -8.18346 0.158974 0
M  V30 4852 N 456.733 0.527833 -1.48498 0
M  V30 4853 C 457.982 1.28003 -1.55878 0
M  V30 4854 C 458.295 1.9414 -0.238577 0
M  V30 4855 O 459.501 2.7083 -0.190643 0
M  V30 4856 C 457.957 2.32272 -2.74914 0
M  V30 4857 C 457.565 1.72196 -4.13585 0
M  V30 4858 C 459.309 3.08488 -2.91608 0
M  V30 4859 C 457.216 2.74417 -5.23879 0
M  V30 4860 H 456.146 0.481413 -0.580308 0
M  V30 4861 H 458.797 0.557195 -1.74836 0
M  V30 4862 H 457.179 3.07601 -2.49395 0
M  V30 4863 H 458.353 1.03041 -4.49132 0
M  V30 4864 H 456.668 1.08464 -4.02025 0
M  V30 4865 H 459.265 3.84879 -3.71177 0
M  V30 4866 H 459.608 3.64481 -2.01145 0
M  V30 4867 H 460.141 2.40274 -3.17038 0
M  V30 4868 H 456.88 2.23242 -6.16314 0
M  V30 4869 H 456.4 3.41893 -4.92818 0
M  V30 4870 H 458.079 3.37362 -5.52083 0
M  V30 4871 N 458.211 1.37122 0.776871 0
M  V30 4872 C 459.627 1.1781 1.07671 0
M  V30 4873 C 459.827 0.0107454 2.01497 0
M  V30 4874 O 458.883 -0.650756 2.4397 0
M  V30 4875 C 460.196 2.49451 1.67913 0
M  V30 4876 C 461.744 2.55927 1.80195 0
M  V30 4877 C 462.219 3.87686 2.43851 0
M  V30 4878 N 463.71 3.891 2.51307 0
M  V30 4879 C 464.445 4.87797 3.014 0
M  V30 4880 N 463.941 5.96888 3.51705 0
M  V30 4881 N 465.734 4.75205 3.00227 0
M  V30 4882 H 457.885 2.11843 0.153778 0
M  V30 4883 H 460.148 0.938927 0.130844 0
M  V30 4884 H 459.854 3.35207 1.06439 0
M  V30 4885 H 459.728 2.66169 2.67271 0
M  V30 4886 H 462.115 1.70582 2.40803 0
M  V30 4887 H 462.196 2.43097 0.796069 0
M  V30 4888 H 461.84 4.73444 1.83884 0
M  V30 4889 H 461.77 3.97817 3.45035 0
M  V30 4890 H 464.261 3.10293 2.157 0
M  V30 4891 H 464.574 6.68155 3.88316 0
M  V30 4892 H 462.919 6.0054 3.49824 0
M  V30 4893 H 466.11 3.89103 2.60224 0
M  V30 4894 H 466.283 5.52279 3.38957 0
M  V30 4895 N 459.689 -1.00246 1.21608 0
M  V30 4896 C 460.622 -2.08794 0.920892 0
M  V30 4897 C 461.6 -1.62059 -0.132552 0
M  V30 4898 O 462.784 -1.885 -0.0030366 0
M  V30 4899 C 459.911 -3.36525 0.383226 0
M  V30 4900 C 458.957 -4.02172 1.41987 0
M  V30 4901 S 459.79 -4.44256 2.98994 0
M  V30 4902 C 460.946 -5.7517 2.4684 0
M  V30 4903 H 461.179 -2.33511 1.8401 0
M  V30 4904 H 458.712 -1.13562 1.04609 0
M  V30 4905 H 460.67 -4.10423 0.0795871 0
M  V30 4906 H 459.331 -3.09854 -0.514711 0
M  V30 4907 H 458.524 -4.94114 0.993335 0
M  V30 4908 H 458.126 -3.34559 1.67171 0
M  V30 4909 H 460.418 -6.51042 1.87484 0
M  V30 4910 H 461.361 -6.22638 3.37235 0
M  V30 4911 H 461.769 -5.32112 1.88461 0
M  V30 4912 N 461.167 -1.02423 -1.1978 0
M  V30 4913 C 462.13 -0.605703 -2.21052 0
M  V30 4914 C 463.13 0.328209 -1.57415 0
M  V30 4915 O 464.32 0.115853 -1.73814 0
M  V30 4916 C 461.452 0.114366 -3.40708 0
M  V30 4917 H 462.645 -1.5017 -2.59594 0
M  V30 4918 H 460.198 -0.814888 -1.33376 0
M  V30 4919 H 460.933 1.02492 -3.07678 0
M  V30 4920 H 460.718 -0.556641 -3.88129 0
M  V30 4921 H 462.208 0.394272 -4.15735 0
M  V30 4922 N 462.645 1.35699 -0.801477 0
M  V30 4923 C 464.061 1.52065 -0.484596 0
M  V30 4924 C 464.261 1.75215 0.995084 0
M  V30 4925 O 463.317 1.79061 1.78026 0
M  V30 4926 C 464.63 2.69908 -1.32552 0
M  V30 4927 C 466.178 2.83784 -1.32044 0
M  V30 4928 C 466.653 4.04646 -2.14536 0
M  V30 4929 N 468.144 4.11814 -2.12046 0
M  V30 4930 C 468.879 5.04437 -2.72636 0
M  V30 4931 N 468.375 6.02426 -3.42133 0
M  V30 4932 N 470.168 4.97144 -2.62305 0
M  V30 4933 H 462.319 1.18928 -1.75983 0
M  V30 4934 H 464.582 0.581455 -0.748741 0
M  V30 4935 H 464.288 2.59363 -2.37537 0
M  V30 4936 H 464.162 3.64376 -0.975181 0
M  V30 4937 H 466.549 2.93783 -0.27846 0
M  V30 4938 H 466.63 1.90188 -1.71062 0
M  V30 4939 H 466.274 3.95407 -3.18772 0
M  V30 4940 H 466.204 4.97413 -1.72882 0
M  V30 4941 H 468.695 3.41664 -1.61476 0
M  V30 4942 H 469.008 6.69688 -3.85666 0
M  V30 4943 H 467.353 6.02615 -3.46237 0
M  V30 4944 H 470.544 4.19546 -2.07603 0
M  V30 4945 H 470.717 5.69138 -3.09815 0
M  V30 4946 N 464.123 0.554532 1.47522 0
M  V30 4947 C 465.071 -0.207765 2.3167 0
M  V30 4948 C 466.065 -0.911914 1.4276 0
M  V30 4949 O 467.271 -0.833504 1.59539 0
M  V30 4950 H 463.646 -0.0858726 0.747081 0
M  V30 4951 H 465.617 0.521178 2.93813 0
M  V30 4952 C 464.366 -1.2263 3.25357 0
M  V30 4953 H 463.689 -0.693887 3.93732 0
M  V30 4954 H 465.129 -1.73062 3.87073 0
M  V30 4955 C 463.588 -2.27278 2.4869 0
M  V30 4956 O 464.118 -3.34156 2.22941 0
M  V30 4957 N 462.324 -2.01134 2.09746 0
M  V30 4958 H 461.871 -1.14232 2.30887 0
M  V30 4959 H 461.829 -2.71369 1.58765 0
M  V30 4960 N 465.601 -1.54893 0.290851 0
M  V30 4961 C 466.548 -2.23138 -0.58974 0
M  V30 4962 C 467.518 -1.21036 -1.13752 0
M  V30 4963 O 468.703 -1.49626 -1.18392 0
M  V30 4964 C 465.843 -2.96811 -1.76061 0
M  V30 4965 C 464.956 -4.13665 -1.24519 0
M  V30 4966 C 464.091 -4.74944 -2.3791 0
M  V30 4967 C 463.13 -5.83963 -1.83451 0
M  V30 4968 N 462.267 -6.39239 -2.90376 0
M  V30 4969 H 467.107 -2.98 -0.00114915 0
M  V30 4970 H 464.644 -1.47096 0.0112006 0
M  V30 4971 H 466.602 -3.37751 -2.44909 0
M  V30 4972 H 465.232 -2.24344 -2.32098 0
M  V30 4973 H 464.284 -3.77737 -0.449288 0
M  V30 4974 H 465.596 -4.92238 -0.806424 0
M  V30 4975 H 464.75 -5.18684 -3.14724 0
M  V30 4976 H 463.489 -3.95682 -2.85109 0
M  V30 4977 H 462.494 -5.39657 -1.05122 0
M  V30 4978 H 463.719 -6.65103 -1.37169 0
M  V30 4979 H 461.665 -5.62864 -3.36927 0
M  V30 4980 H 461.582 -7.13129 -2.50965 0
M  V30 4981 H 462.85 -6.87637 -3.67118 0
M  V30 4982 N 467.08 -0.0183926 -1.57589 0
M  V30 4983 C 468.328 0.661253 -1.90976 0
M  V30 4984 C 468.649 1.73281 -0.894353 0
M  V30 4985 O 467.919 1.9579 0.0656788 0
M  V30 4986 H 466.499 0.247233 -0.704901 0
M  V30 4987 H 469.161 -0.0636639 -1.94796 0
M  V30 4988 H 468.257 1.12083 -2.9128 0
M  V30 4989 N 468.558 1.5553 0.254621 0
M  V30 4990 C 469.506 1.9048 1.33492 0
M  V30 4991 C 470.5 0.78304 1.50216 0
M  V30 4992 O 471.706 0.967582 1.51782 0
M  V30 4993 H 468.081 0.604846 0.44684 0
M  V30 4994 H 470.052 2.80688 1.01275 0
M  V30 4995 C 468.801 2.20928 2.68489 0
M  V30 4996 H 468.124 3.06742 2.56417 0
M  V30 4997 H 469.564 2.49291 3.42972 0
M  V30 4998 C 468.023 1.023 3.20993 0
M  V30 4999 O 468.553 0.267027 4.00811 0
M  V30 5000 N 466.759 0.815714 2.78917 0
M  V30 5001 H 466.306 1.43217 2.14119 0
M  V30 5002 H 466.264 0.0236532 3.14391 0
M  V30 5003 N 470.036 -0.519951 1.48776 0
M  V30 5004 C 470.986 -1.61995 1.60442 0
M  V30 5005 C 471.97 -1.54155 0.460991 0
M  V30 5006 O 473.162 -1.62006 0.712965 0
M  V30 5007 C 470.291 -3.00683 1.65664 0
M  V30 5008 C 469.377 -3.1359 2.8552 0
M  V30 5009 N 469.768 -2.96441 4.09825 0
M  V30 5010 C 468.066 -3.44662 2.83062 0
M  V30 5011 C 468.767 -3.1303 4.90293 0
M  V30 5012 N 467.743 -3.41058 4.23297 0
M  V30 5013 H 471.545 -1.47362 2.54287 0
M  V30 5014 H 469.059 -0.725649 1.45286 0
M  V30 5015 H 471.056 -3.79712 1.72117 0
M  V30 5016 H 469.716 -3.16401 0.729425 0
M  V30 5017 H 470.727 -2.72999 4.40104 0
M  V30 5018 H 467.404 -3.66675 1.9964 0
M  V30 5019 H 468.794 -3.04424 5.98979 0
M  V30 5020 N 471.514 -1.37532 -0.769588 0
M  V30 5021 C 472.754 -1.34261 -1.54122 0
M  V30 5022 C 473.118 0.0717222 -1.91866 0
M  V30 5023 O 474.319 0.22918 -2.67821 0
M  V30 5024 C 472.59 -2.2574 -2.77086 0
M  V30 5025 S 474.149 -2.40339 -3.67127 0
M  V30 5026 H 470.967 -0.476595 -0.527615 0
M  V30 5027 H 473.569 -1.73303 -0.90479 0
M  V30 5028 H 472.273 -3.27417 -2.4744 0
M  V30 5029 H 471.804 -1.87789 -3.45686 0
M  V30 5030 H 473.819 -1.61558 -4.69163 0
M  V30 5031 N 472.992 0.995999 -1.22138 0
M  V30 5032 C 474.24 1.73167 -1.042 0
M  V30 5033 C 474.561 1.90329 0.42423 0
M  V30 5034 O 473.831 1.4607 1.30539 0
M  V30 5035 H 472.411 0.641593 -0.38258 0
M  V30 5036 H 475.073 1.19974 -1.53598 0
M  V30 5037 H 474.169 2.72734 -1.51731 0
M  V30 5038 N 474.47 1.03057 1.19235 0
M  V30 5039 C 475.719 0.72326 1.88287 0
M  V30 5040 C 476.032 -0.751333 1.80594 0
M  V30 5041 O 477.238 -1.17176 2.44912 0
M  V30 5042 C 475.694 1.24338 3.3774 0
M  V30 5043 C 475.302 2.74587 3.53986 0
M  V30 5044 C 477.046 1.01213 4.12257 0
M  V30 5045 C 474.953 3.20009 4.97341 0
M  V30 5046 H 473.883 0.266848 0.705201 0
M  V30 5047 H 476.534 1.24509 1.34795 0
M  V30 5048 H 474.916 0.649457 3.90638 0
M  V30 5049 H 476.09 3.39649 3.11408 0
M  V30 5050 H 474.405 2.9601 2.9286 0
M  V30 5051 H 477.002 1.32675 5.17978 0
M  V30 5052 H 477.345 -0.051001 4.16269 0
M  V30 5053 H 477.878 1.57014 3.65501 0
M  V30 5054 H 474.617 4.25659 4.98493 0
M  V30 5055 H 474.137 2.59676 5.40674 0
M  V30 5056 H 475.816 3.13447 5.66003 0
M  V30 5057 N 475.948 -1.35272 0.808662 0
M  V30 5058 C 476.911 -2.28082 0.226093 0
M  V30 5059 C 477.911 -1.49673 -0.587762 0
M  V30 5060 O 479.101 -1.69404 -0.405943 0
M  V30 5061 C 476.233 -3.33955 -0.684596 0
M  V30 5062 H 477.426 -2.81116 1.04469 0
M  V30 5063 H 474.979 -1.45162 0.579466 0
M  V30 5064 H 475.714 -2.86111 -1.5268 0
M  V30 5065 H 475.499 -3.91965 -0.102699 0
M  V30 5066 H 476.989 -4.03219 -1.08646 0
M  V30 5067 N 477.426 -0.562348 -1.47226 0
M  V30 5068 C 478.651 -0.0432632 -2.07355 0
M  V30 5069 C 479.076 1.24332 -1.41149 0
M  V30 5070 O 478.434 1.74603 -0.488226 0
M  V30 5071 C 478.482 0.130288 -3.60365 0
M  V30 5072 O 477.586 1.19166 -3.94808 0
M  V30 5073 H 476.927 -0.0536334 -0.66183 0
M  V30 5074 H 479.457 -0.779495 -1.89169 0
M  V30 5075 H 479.467 0.342881 -4.06557 0
M  V30 5076 H 478.142 -0.809389 -4.07948 0
M  V30 5077 H 476.719 0.959153 -3.60354 0
M  V30 5078 N 478.904 1.54736 -0.299062 0
M  V30 5079 C 480.151 2.00101 0.310784 0
M  V30 5080 C 480.479 1.18746 1.54045 0
M  V30 5081 O 479.734 0.251198 1.94081 0
M  V30 5082 C 480.033 3.50199 0.713835 0
M  V30 5083 C 479.699 4.48997 -0.413873 0
M  V30 5084 C 478.361 4.7573 -0.723462 0
M  V30 5085 C 480.713 5.07839 -1.17257 0
M  V30 5086 C 478.041 5.5857 -1.79491 0
M  V30 5087 C 480.393 5.91844 -2.23392 0
M  V30 5088 C 479.057 6.16889 -2.54959 0
M  V30 5089 H 478.327 0.732221 0.113724 0
M  V30 5090 H 480.974 1.86888 -0.417756 0
M  V30 5091 H 479.279 3.61012 1.52243 0
M  V30 5092 H 480.976 3.82723 1.19684 0
M  V30 5093 H 477.566 4.28292 -0.162476 0
M  V30 5094 H 481.75 4.87188 -0.946651 0
M  V30 5095 H 477.006 5.76213 -2.04423 0
M  V30 5096 H 481.18 6.36465 -2.8264 0
M  V30 5097 H 478.807 6.80869 -3.38114 0
M  V30 5098 N 480.382 0.0267497 1.57577 0
M  V30 5099 C 481.793 -0.512413 1.79531 0
M  V30 5100 C 482.144 -1.72391 0.936791 0
M  V30 5101 O 481.269 -2.15903 0.146543 0
M  V30 5102 C 481.864 -0.936378 3.25603 0
M  V30 5103 C 480.423 -1.42067 3.4856 0
M  V30 5104 C 479.57 -0.384278 2.74624 0
M  V30 5105 H 482.521 0.252797 1.56674 0
M  V30 5106 H 482.542 -1.80088 3.35184 0
M  V30 5107 H 482.054 -0.0544332 3.88062 0
M  V30 5108 H 480.155 -2.32262 2.9135 0
M  V30 5109 H 480.268 -1.42968 4.57271 0
M  V30 5110 H 478.632 -0.851855 2.40032 0
M  V30 5111 H 479.415 0.489159 3.39797 0
M  V30 5112 N 481.861 -1.55662 -0.24637 0
M  V30 5113 C 483.086 -1.81914 -0.996093 0
M  V30 5114 C 483.511 -0.603875 -1.78143 0
M  V30 5115 O 482.869 0.447091 -1.75701 0
M  V30 5116 C 482.917 -3.05908 -1.90925 0
M  V30 5117 O 482.021 -2.82861 -3.00105 0
M  V30 5118 H 481.362 -0.600481 -0.283406 0
M  V30 5119 H 483.892 -2.02848 -0.267199 0
M  V30 5120 H 483.902 -3.35356 -2.3238 0
M  V30 5121 H 482.577 -3.93999 -1.33183 0
M  V30 5122 H 481.154 -2.64583 -2.62775 0
M  V30 5123 N 483.339 0.512053 -1.4905 0
M  V30 5124 C 484.569 1.28928 -1.61434 0
M  V30 5125 C 484.977 1.87107 -0.280647 0
M  V30 5126 O 484.32 1.68024 0.742537 0
M  V30 5127 C 484.382 2.466 -2.61588 0
M  V30 5128 C 484.046 2.09375 -4.06216 0
M  V30 5129 C 485.043 1.63994 -4.93358 0
M  V30 5130 C 482.728 2.19348 -4.51876 0
M  V30 5131 C 484.722 1.29076 -6.24194 0
M  V30 5132 C 482.409 1.84041 -5.82728 0
M  V30 5133 C 483.407 1.38978 -6.68711 0
M  V30 5134 O 483.095 1.04144 -7.97126 0
M  V30 5135 H 482.827 0.397668 -0.546659 0
M  V30 5136 H 485.381 0.622507 -1.9574 0
M  V30 5137 H 483.611 3.16318 -2.22441 0
M  V30 5138 H 485.3 3.08642 -2.63619 0
M  V30 5139 H 486.066 1.55744 -4.59313 0
M  V30 5140 H 481.945 2.53376 -3.85125 0
M  V30 5141 H 485.489 0.938303 -6.91261 0
M  V30 5142 H 481.386 1.91938 -6.16304 0
M  V30 5143 H 482.154 1.17387 -8.10039 0
M  V30 5144 N 484.817 1.37938 0.762283 0
M  V30 5145 C 486.228 1.30094 1.33912 0
M  V30 5146 C 486.579 -0.0472026 1.96143 0
M  V30 5147 O 485.704 -0.94917 1.94473 0
M  V30 5148 C 486.299 2.35592 2.43478 0
M  V30 5149 C 484.858 2.31353 2.96905 0
M  V30 5150 C 484.005 2.18919 1.70205 0
M  V30 5151 H 486.956 1.48423 0.561816 0
M  V30 5152 H 486.977 2.00806 3.23199 0
M  V30 5153 H 486.489 3.33701 1.98155 0
M  V30 5154 H 484.59 1.36799 3.46579 0
M  V30 5155 H 484.703 3.25147 3.51875 0
M  V30 5156 H 483.067 1.65624 1.93496 0
M  V30 5157 H 483.85 3.18956 1.26973 0
M  V30 5158 N 486.295 -0.989507 1.22664 0
M  V30 5159 C 487.205 -2.11449 1.01619 0
M  V30 5160 C 488.221 -1.73962 -0.036545 0
M  V30 5161 O 489.397 -2.00788 0.156924 0
M  V30 5162 C 486.462 -3.41465 0.600204 0
M  V30 5163 C 485.523 -3.93033 1.72695 0
M  V30 5164 C 484.756 -5.16844 1.33071 0
M  V30 5165 O 484.979 -5.7001 0.210975 0
M  V30 5166 O 483.913 -5.6225 2.14845 0
M  V30 5167 H 487.739 -2.32088 1.9588 0
M  V30 5168 H 485.324 -1.09823 1.01289 0
M  V30 5169 H 487.206 -4.19695 0.37873 0
M  V30 5170 H 485.881 -3.22178 -0.313511 0
M  V30 5171 H 484.788 -3.15961 2.00298 0
M  V30 5172 H 486.121 -4.16758 2.61865 0
M  V30 5173 N 487.773 -1.03688 -1.18687 0
M  V30 5174 C 489.022 -0.733235 -1.879 0
M  V30 5175 C 489.335 0.741745 -1.8099 0
M  V30 5176 O 490.541 1.15875 -2.4553 0
M  V30 5177 C 488.997 -1.26127 -3.37076 0
M  V30 5178 C 488.605 -2.76461 -3.52524 0
M  V30 5179 C 490.349 -1.03398 -4.11715 0
M  V30 5180 C 488.256 -3.22642 -4.95637 0
M  V30 5181 H 487.186 -0.270584 -0.703776 0
M  V30 5182 H 489.837 -1.25222 -1.34133 0
M  V30 5183 H 488.219 -0.670165 -3.90288 0
M  V30 5184 H 489.393 -3.41296 -3.09602 0
M  V30 5185 H 487.708 -2.97559 -2.91286 0
M  V30 5186 H 490.305 -1.3542 -5.17267 0
M  V30 5187 H 490.648 0.0289246 -4.1629 0
M  V30 5188 H 491.181 -1.5895 -3.64664 0
M  V30 5189 H 487.92 -4.28296 -4.96228 0
M  V30 5190 H 487.44 -2.62539 -5.39289 0
M  V30 5191 H 489.119 -3.16444 -5.64333 0
M  V30 5192 O 489.29 1.30511 -0.951271 0
M  V30 5193 H 489.981 1.84711 -0.583235 0
M  V30 END ATOM
M  V30 BEGIN BOND
M  V30 END BOND
M  V30 END CTAB
M  END
$$$$
