drugbank_target|P21430 Matrix protein 2 (DB00478; DB00915)
 OpenBabel12092119363D

  0  0  0     0  0            999 V3000
M  V30 BEGIN CTAB
M  V30 COUNTS 1554 1572 0 0 0
M  V30 BEGIN ATOM
M  V30 1 H -0.908 1.98254 -0.117106 0
M  V30 2 N 0 1.576 0 0
M  V30 3 C 0.933 2.03868 1.02534 0
M  V30 4 C 1.911 0.928543 1.3348 0
M  V30 5 O 3.095 1.19667 1.45644 0
M  V30 6 C 0.222 2.43627 2.35294 0
M  V30 7 C -0.732 3.65373 2.2001 0
M  V30 8 S 0.101 5.13292 1.52614 0
M  V30 9 C 1.257 5.56322 2.86805 0
M  V30 10 H 1.49 2.90518 0.631377 0
M  V30 11 H -0.977 1.52953 0.210867 0
M  V30 12 H 0.981 2.67203 3.11629 0
M  V30 13 H -0.358 1.57376 2.7183 0
M  V30 14 H -1.165 3.90944 3.18086 0
M  V30 15 H -1.563 3.418 1.51819 0
M  V30 16 H 0.729 5.58782 3.83104 0
M  V30 17 H 1.672 6.56266 2.65933 0
M  V30 18 H 2.08 4.83886 2.90714 0
M  V30 19 N 1.4781 -0.272755 1.55222 0
M  V30 20 C 2.7031 -1.02683 1.80197 0
M  V30 21 C 3.1281 -1.79142 0.573551 0
M  V30 22 O 2.4861 -1.74917 -0.476849 0
M  V30 23 C 2.5341 -1.9609 3.02624 0
M  V30 24 O 1.6381 -3.04863 2.77727 0
M  V30 25 H 0.9791 -0.293557 0.595584 0
M  V30 26 H 3.5091 -0.30159 2.02365 0
M  V30 27 H 3.5191 -2.38039 3.31363 0
M  V30 28 H 2.1941 -1.39851 3.91682 0
M  V30 29 H 0.7711 -2.67228 2.60084 0
M  V30 30 N 2.9562 -1.48159 -0.537278 0
M  V30 31 C 3.8862 -1.65029 -1.6519 0
M  V30 32 C 4.8672 -0.499281 -1.62607 0
M  V30 33 O 6.0522 -0.730972 -1.79918 0
M  V30 34 C 3.1822 -1.68303 -3.03795 0
M  V30 35 C 2.1362 -2.8283 -3.21234 0
M  V30 36 C 1.4622 -2.71189 -4.60826 0
M  V30 37 C 2.7622 -4.24211 -3.04701 0
M  V30 38 H 4.4562 -2.58341 -1.51328 0
M  V30 39 H 2.0022 -1.24325 -0.726585 0
M  V30 40 H 3.9552 -1.78693 -3.81637 0
M  V30 41 H 2.6792 -0.715635 -3.18663 0
M  V30 42 H 1.3382 -2.71983 -2.45807 0
M  V30 43 H 0.9862 -1.72435 -4.7252 0
M  V30 44 H 0.6862 -3.48035 -4.7344 0
M  V30 45 H 2.2102 -2.83537 -5.40777 0
M  V30 46 H 3.6242 -4.3593 -3.72341 0
M  V30 47 H 2.0212 -5.01998 -3.28813 0
M  V30 48 H 3.0912 -4.41184 -2.01209 0
M  V30 49 N 4.4343 0.785586 -1.36625 0
M  V30 50 C 5.3643 1.91259 -1.33949 0
M  V30 51 C 6.3453 1.68795 -0.210325 0
M  V30 52 O 7.5303 1.89854 -0.408561 0
M  V30 53 C 4.6603 3.28339 -1.13186 0
M  V30 54 C 3.6143 3.65335 -2.22967 0
M  V30 55 C 2.9403 5.00806 -1.87342 0
M  V30 56 C 4.2403 3.7352 -3.65075 0
M  V30 57 H 5.9343 1.93755 -2.28253 0
M  V30 58 H 3.4803 0.930788 -1.09874 0
M  V30 59 H 5.4333 4.06804 -1.09948 0
M  V30 60 H 4.1573 3.2624 -0.153332 0
M  V30 61 H 2.8163 2.89169 -2.25337 0
M  V30 62 H 2.4643 4.95233 -0.880545 0
M  V30 63 H 2.1643 5.26529 -2.60846 0
M  V30 64 H 3.6883 5.81687 -1.85667 0
M  V30 65 H 5.1023 4.42168 -3.64911 0
M  V30 66 H 3.4993 4.10731 -4.37516 0
M  V30 67 H 4.5693 2.74527 -3.99703 0
M  V30 68 N 5.9124 1.20967 1.01018 0
M  V30 69 C 7.1404 1.04956 1.78303 0
M  V30 70 C 7.5554 -0.400915 1.84494 0
M  V30 71 O 6.9124 -1.27826 1.30257 0
M  V30 72 C 6.9634 1.63403 3.22462 0
M  V30 73 O 6.6844 3.02775 3.16637 0
M  V30 74 C 8.1854 1.52432 4.16268 0
M  V30 75 H 5.4054 0.368858 0.560522 0
M  V30 76 H 7.9494 1.60193 1.27116 0
M  V30 77 H 6.1044 1.1227 3.70775 0
M  V30 78 H 6.5184 3.30626 4.07169 0
M  V30 79 H 7.9924 1.98078 5.15237 0
M  V30 80 H 8.4694 0.477875 4.36592 0
M  V30 81 H 9.0754 2.02787 3.73841 0
M  V30 82 N 7.3905 -1.2043 1.01659 0
M  V30 83 C 8.3005 -2.2689 0.596484 0
M  V30 84 C 9.3165 -1.70107 -0.36599 0
M  V30 85 O 10.4925 -2.00117 -0.226942 0
M  V30 86 C 7.5575 -3.4665 -0.0586659 0
M  V30 87 C 6.6185 -4.18662 0.949751 0
M  V30 88 C 5.8515 -5.32705 0.32577 0
M  V30 89 O 6.0745 -5.63656 -0.874509 0
M  V30 90 O 5.0085 -5.92803 1.04249 0
M  V30 91 H 8.8345 -2.65041 1.4828 0
M  V30 92 H 6.4195 -1.27048 0.786082 0
M  V30 93 H 8.3015 -4.19256 -0.424564 0
M  V30 94 H 6.9765 -3.10375 -0.91918 0
M  V30 95 H 5.8835 -3.48229 1.36702 0
M  V30 96 H 7.2165 -4.58878 1.78023 0
M  V30 97 N 8.8686 -0.792821 -1.36206 0
M  V30 98 C 10.1146 -0.36733 -1.99446 0
M  V30 99 C 10.4476 1.05917 -1.62774 0
M  V30 100 O 9.7226 1.7324 -0.88421 0
M  V30 101 C 10.0056 -0.535044 -3.56103 0
M  V30 102 C 9.8586 -2.00548 -4.02617 0
M  V30 103 C 11.1776 0.0478191 -4.40074 0
M  V30 104 H 8.2966 -0.134941 -0.724541 0
M  V30 105 H 10.9386 -0.999794 -1.61568 0
M  V30 106 H 9.0886 0.00336329 -3.885 0
M  V30 107 H 10.7606 -2.60521 -3.80692 0
M  V30 108 H 9.0036 -2.50686 -3.54032 0
M  V30 109 H 9.6746 -2.07377 -5.11565 0
M  V30 110 H 12.1506 -0.411822 -4.14057 0
M  V30 111 H 11.0266 -0.0995336 -5.4881 0
M  V30 112 H 11.2876 1.14025 -4.27142 0
M  V30 113 N 10.3467 1.47872 -0.545128 0
M  V30 114 C 11.2567 2.33633 0.212746 0
M  V30 115 C 12.2727 1.4744 0.923983 0
M  V30 116 O 13.4487 1.80393 0.895572 0
M  V30 117 C 10.5137 3.23884 1.23693 0
M  V30 118 C 9.5747 4.25961 0.534417 0
M  V30 119 C 8.8077 5.11899 1.5098 0
M  V30 120 O 9.0307 5.00077 2.7437 0
M  V30 121 O 7.9647 5.92831 1.0409 0
M  V30 122 H 11.7907 2.99714 -0.490416 0
M  V30 123 H 9.3757 1.46235 -0.305871 0
M  V30 124 H 11.2577 3.79666 1.82843 0
M  V30 125 H 9.9327 2.60446 1.92222 0
M  V30 126 H 8.8397 3.73972 -0.0979679 0
M  V30 127 H 10.1727 4.92079 -0.109213 0
M  V30 128 N 11.8248 0.280983 1.55075 0
M  V30 129 C 13.0528 -0.337293 2.04132 0
M  V30 130 C 13.4678 -1.4903 1.15912 0
M  V30 131 O 12.8248 -1.81606 0.180459 0
M  V30 132 C 12.8758 -0.812706 3.52246 0
M  V30 133 O 12.5968 0.294387 4.3711 0
M  V30 134 C 14.0978 -1.4982 4.17216 0
M  V30 135 H 11.3178 -0.0761638 0.666663 0
M  V30 136 H 13.8618 0.414787 2.00249 0
M  V30 137 H 12.0168 -1.51486 3.56554 0
M  V30 138 H 12.4308 -0.0721325 5.2445 0
M  V30 139 H 13.9048 -1.7822 5.22438 0
M  V30 140 H 14.3818 -2.43168 3.65741 0
M  V30 141 H 14.9878 -0.839742 4.16927 0
M  V30 142 N 13.3029 -1.57598 0.00835791 0
M  V30 143 C 14.7139 -1.7892 -0.53333 0
M  V30 144 C 15.0649 -0.916609 -1.73473 0
M  V30 145 O 14.1899 -0.121336 -2.1606 0
M  V30 146 C 14.7849 -3.24488 -0.974313 0
M  V30 147 C 13.3439 -3.46878 -1.46125 0
M  V30 148 C 12.4909 -2.74157 -0.416302 0
M  V30 149 H 15.4419 -1.56958 0.234495 0
M  V30 150 H 15.4629 -3.3306 -1.83988 0
M  V30 151 H 14.9749 -3.87972 -0.099718 0
M  V30 152 H 13.0759 -2.8862 -2.35646 0
M  V30 153 H 13.1889 -4.55572 -1.48295 0
M  V30 154 H 11.5529 -2.39022 -0.87981 0
M  V30 155 H 12.3359 -3.40345 0.44947 0
M  V30 156 N 14.781 0.264519 -1.55364 0
M  V30 157 C 16.03 0.992812 -1.75574 0
M  V30 158 C 16.343 1.87142 -0.568979 0
M  V30 159 O 17.549 2.63513 -0.653682 0
M  V30 160 C 16.005 1.81519 -3.10771 0
M  V30 161 C 15.613 0.984839 -4.37041 0
M  V30 162 C 17.357 2.53727 -3.40327 0
M  V30 163 C 15.264 1.80209 -5.63275 0
M  V30 164 H 14.194 0.374412 -0.65447 0
M  V30 165 H 16.845 0.248138 -1.81815 0
M  V30 166 H 15.227 2.60115 -2.98591 0
M  V30 167 H 16.401 0.242455 -4.60162 0
M  V30 168 H 14.716 0.37691 -4.14691 0
M  V30 169 H 17.313 3.15292 -4.3185 0
M  V30 170 H 17.656 3.24447 -2.60845 0
M  V30 171 H 18.189 1.82156 -3.53644 0
M  V30 172 H 14.928 1.13896 -6.45529 0
M  V30 173 H 14.448 2.52022 -5.44284 0
M  V30 174 H 16.127 2.37364 -6.01887 0
M  V30 175 N 16.2591 1.48442 0.529413 0
M  V30 176 C 17.6751 1.34575 0.858004 0
M  V30 177 C 17.8751 0.3572 1.98309 0
M  V30 178 O 16.9311 -0.221379 2.51528 0
M  V30 179 C 18.2441 2.74617 1.22499 0
M  V30 180 C 19.7921 2.83109 1.33484 0
M  V30 181 C 20.2671 4.23854 1.73526 0
M  V30 182 N 21.7581 4.2653 1.80628 0
M  V30 183 C 22.4931 5.32372 2.12997 0
M  V30 184 N 21.9891 6.48491 2.43786 0
M  V30 185 N 23.7821 5.19766 2.14008 0
M  V30 186 H 15.9331 2.1133 -0.212925 0
M  V30 187 H 18.1961 0.947439 -0.0326199 0
M  V30 188 H 17.9021 3.4852 0.471905 0
M  V30 189 H 17.7761 3.08177 2.17501 0
M  V30 190 H 20.1631 2.09462 2.0787 0
M  V30 191 H 20.2441 2.53168 0.366027 0
M  V30 192 H 19.8881 4.98018 0.997013 0
M  V30 193 H 19.8181 4.5124 2.71459 0
M  V30 194 H 22.3091 3.42772 1.59108 0
M  V30 195 H 22.6221 7.24993 2.67592 0
M  V30 196 H 20.9671 6.51765 2.41304 0
M  V30 197 H 24.1581 4.28066 1.89412 0
M  V30 198 H 24.3311 6.02354 2.38902 0
M  V30 199 N 17.7372 -0.778329 1.37039 0
M  V30 200 C 18.6852 -1.91278 1.32345 0
M  V30 201 C 19.6792 -1.68051 0.213331 0
M  V30 202 O 20.8852 -1.75922 0.38098 0
M  V30 203 H 17.2602 -0.628909 0.412283 0
M  V30 204 H 19.2312 -1.92355 2.28127 0
M  V30 205 C 17.9802 -3.28455 1.14073 0
M  V30 206 H 17.3032 -3.46901 1.98746 0
M  V30 207 H 18.7432 -4.08152 1.14837 0
M  V30 208 C 17.2022 -3.36548 -0.154015 0
M  V30 209 O 17.7322 -3.85186 -1.13993 0
M  V30 210 N 15.9382 -2.89894 -0.202475 0
M  V30 211 H 15.4852 -2.50504 0.600476 0
M  V30 212 H 15.4432 -2.9569 -1.06841 0
M  V30 213 N 19.2153 -1.21501 -1.00376 0
M  V30 214 C 20.1253 -0.991447 -2.12621 0
M  V30 215 C 21.1413 0.0568446 -1.73907 0
M  V30 216 O 22.3173 -0.13348 -2.00957 0
M  V30 217 C 19.3823 -0.560312 -3.42142 0
M  V30 218 C 18.4433 -1.68096 -3.95022 0
M  V30 219 C 17.6763 -1.2703 -5.18362 0
M  V30 220 O 17.8993 -0.144438 -5.70217 0
M  V30 221 O 16.8333 -2.08269 -5.64719 0
M  V30 222 H 20.6593 -1.93158 -2.34358 0
M  V30 223 H 18.2443 -0.999999 -1.10997 0
M  V30 224 H 20.1263 -0.329724 -4.20108 0
M  V30 225 H 18.8013 0.351089 -3.2179 0
M  V30 226 H 17.7083 -1.96597 -3.18278 0
M  V30 227 H 19.0413 -2.56983 -4.19786 0
M  V30 228 N 20.6934 1.19889 -1.02296 0
M  V30 229 C 21.9394 1.89973 -0.726759 0
M  V30 230 C 22.2944 1.7776 0.73614 0
M  V30 231 O 21.5874 1.15523 1.52856 0
M  V30 232 C 21.7814 3.39883 -1.10518 0
M  V30 233 C 21.6104 3.66684 -2.60332 0
M  V30 234 C 20.3804 3.85045 -3.27213 0
M  V30 235 C 22.5784 3.68727 -3.58532 0
M  V30 236 N 20.5604 3.99422 -4.66192 0
M  V30 237 C 21.9314 3.88604 -4.83101 0
M  V30 238 C 23.9864 3.51722 -3.52414 0
M  V30 239 C 22.6894 3.9324 -6.02292 0
M  V30 240 C 24.7154 3.57632 -4.71013 0
M  V30 241 C 24.0774 3.77988 -5.94394 0
M  V30 242 H 20.1764 0.714551 -0.317712 0
M  V30 243 H 22.7604 1.44123 -1.30907 0
M  V30 244 H 20.9314 3.8447 -0.551142 0
M  V30 245 H 22.6634 3.97464 -0.761853 0
M  V30 246 H 19.4184 3.83689 -2.77632 0
M  V30 247 H 19.8424 4.10473 -5.38368 0
M  V30 248 H 24.4844 3.34945 -2.58015 0
M  V30 249 H 22.2024 4.08811 -6.97065 0
M  V30 250 H 25.7884 3.45773 -4.67902 0
M  V30 251 H 24.6684 3.82428 -6.8463 0
M  V30 252 N 22.1715 0.800033 1.35784 0
M  V30 253 C 23.4195 0.376597 1.9856 0
M  V30 254 C 23.7405 -1.05812 1.63795 0
M  V30 255 O 23.0105 -1.73103 0.917171 0
M  V30 256 H 21.5905 0.136261 0.734467 0
M  V30 257 H 24.2525 1.02442 1.65806 0
M  V30 258 H 23.3485 0.477002 3.08433 0
M  V30 259 N 23.6496 -1.47581 0.552962 0
M  V30 260 C 24.8896 -2.04379 0.0296245 0
M  V30 261 C 25.2536 -1.4185 -1.29393 0
M  V30 262 O 26.4546 -1.89669 -1.90471 0
M  V30 263 C 24.7256 -3.57339 -0.0661371 0
M  V30 264 S 26.2846 -4.35511 -0.536213 0
M  V30 265 H 23.1026 -0.710625 0.0230991 0
M  V30 266 H 25.7046 -1.81005 0.738734 0
M  V30 267 H 24.4086 -4.00374 0.901596 0
M  V30 268 H 23.9396 -3.85202 -0.798931 0
M  V30 269 H 25.9546 -4.6253 -1.79668 0
M  V30 270 N 25.1277 -0.289203 -1.54924 0
M  V30 271 C 26.5437 0.0645403 -1.59469 0
M  V30 272 C 26.7437 1.53419 -1.30632 0
M  V30 273 O 25.7997 2.2852 -1.074 0
M  V30 274 C 27.1127 -0.32278 -2.98963 0
M  V30 275 C 28.6607 -0.270564 -3.11828 0
M  V30 276 C 29.1357 -0.632532 -4.53611 0
M  V30 277 N 30.6267 -0.584617 -4.59496 0
M  V30 278 C 31.3617 -0.837314 -5.67254 0
M  V30 279 N 30.8577 -1.15536 -6.83098 0
M  V30 280 N 32.6507 -0.765166 -5.56868 0
M  V30 281 H 24.8017 -1.24714 -1.71931 0
M  V30 282 H 27.0647 -0.504809 -0.802416 0
M  V30 283 H 26.7707 -1.34541 -3.24948 0
M  V30 284 H 26.6447 0.32944 -3.75759 0
M  V30 285 H 29.0317 0.742805 -2.85598 0
M  V30 286 H 29.1127 -0.957242 -2.37214 0
M  V30 287 H 28.7567 -1.64365 -4.80569 0
M  V30 288 H 28.6867 0.07609 -5.26545 0
M  V30 289 H 31.1777 -0.349248 -3.76283 0
M  V30 290 H 31.4907 -1.33447 -7.61191 0
M  V30 291 H 29.8357 -1.19328 -6.84679 0
M  V30 292 H 33.0267 -0.516432 -4.65243 0
M  V30 293 H 33.1997 -0.965477 -6.40767 0
M  V30 294 N 26.6058 1.57591 -0.0167156 0
M  V30 295 C 27.8458 1.93145 0.668902 0
M  V30 296 C 28.2098 0.892406 1.7 0
M  V30 297 O 29.4108 1.13373 2.43721 0
M  V30 298 C 27.6818 3.33678 1.28039 0
M  V30 299 S 29.2408 3.91142 1.9888 0
M  V30 300 H 26.0588 0.67593 0.220545 0
M  V30 301 H 28.6608 1.95347 -0.0774105 0
M  V30 302 H 27.3648 4.07126 0.517339 0
M  V30 303 H 26.8958 3.3489 2.06427 0
M  V30 304 H 28.9108 3.73571 3.26587 0
M  V30 305 N 28.0839 -0.256276 1.55502 0
M  V30 306 C 29.0319 -1.33694 1.90338 0
M  V30 307 C 30.0259 -1.50299 0.781441 0
M  V30 308 O 31.2319 -1.51885 0.965966 0
M  V30 309 H 27.6069 -0.447483 0.60437 0
M  V30 310 H 29.5779 -1.01574 2.8058 0
M  V30 311 C 28.3269 -2.68724 2.20642 0
M  V30 312 H 27.6499 -2.56743 3.06469 0
M  V30 313 H 29.0899 -3.43237 2.48926 0
M  V30 314 C 27.5489 -3.21101 1.01959 0
M  V30 315 O 28.0789 -4.0084 0.262762 0
M  V30 316 N 26.2849 -2.79003 0.812746 0
M  V30 317 H 25.8319 -2.14271 1.42989 0
M  V30 318 H 25.7899 -3.14393 0.0203076 0
M  V30 319 N 29.562 -1.4872 -0.521534 0
M  V30 320 C 30.839 -1.4766 -1.2828 0
M  V30 321 C 31.219 -0.19292 -2.10217 0
M  V30 322 O 30.567 0.825193 -2.13079 0
M  V30 323 C 30.777 -2.74358 -2.15705 0
M  V30 324 C 32.125 -3.23028 -2.75569 0
M  V30 325 O 33.149 -2.75333 -2.25987 0
M  V30 326 O 32.008 -4.0604 -3.65778 0
M  V30 327 H 29.102 -0.590085 -0.579421 0
M  V30 328 H 31.648 -1.60963 -0.537492 0
M  V30 329 H 30.42 -3.59292 -1.54999 0
M  V30 330 H 30.043 -2.63816 -2.97467 0
M  V30 331 N 31.0401 0.771051 -1.3745 0
M  V30 332 C 32.2651 1.56529 -1.36065 0
M  V30 333 C 32.6901 1.88029 0.0515859 0
M  V30 334 O 32.0481 1.49282 1.02882 0
M  V30 335 C 32.0961 2.85187 -2.20683 0
M  V30 336 O 31.2001 3.79593 -1.61193 0
M  V30 337 H 30.5411 0.47411 -0.464883 0
M  V30 338 H 33.0711 0.954269 -1.80983 0
M  V30 339 H 33.0811 3.34283 -2.33921 0
M  V30 340 H 31.7561 2.61588 -3.23334 0
M  V30 341 H 30.3331 3.38239 -1.56999 0
M  V30 342 N 32.5182 1.22032 0.997298 0
M  V30 343 C 33.7432 1.06921 1.77715 0
M  V30 344 C 34.1682 -0.376226 1.84299 0
M  V30 345 O 33.5262 -1.27165 1.29223 0
M  V30 346 C 33.5742 1.67996 3.19076 0
M  V30 347 O 32.6782 0.930653 4.01762 0
M  V30 348 H 32.0192 0.375814 0.547412 0
M  V30 349 H 34.5492 1.61737 1.25309 0
M  V30 350 H 34.5592 1.72538 3.69723 0
M  V30 351 H 33.2342 2.73182 3.13599 0
M  V30 352 H 31.8112 0.960917 3.60307 0
M  V30 353 N 33.9963 -1.19345 1.0293 0
M  V30 354 C 35.2733 -1.84811 0.640642 0
M  V30 355 C 35.6533 -1.91855 -0.88062 0
M  V30 356 O 35.0013 -1.43587 -1.7775 0
M  V30 357 C 35.2113 -3.23755 1.30321 0
M  V30 358 C 36.5593 -3.99912 1.42673 0
M  V30 359 O 37.5833 -3.33155 1.26041 0
M  V30 360 O 36.4423 -5.19494 1.6967 0
M  V30 361 H 33.5363 -0.796443 0.222726 0
M  V30 362 H 36.0823 -1.26831 1.12748 0
M  V30 363 H 34.8543 -3.13466 2.34211 0
M  V30 364 H 34.4773 -3.89381 0.804261 0
M  V30 365 N 35.4744 -0.807222 -1.35358 0
M  V30 366 C 36.8854 -0.44876 -1.81226 0
M  V30 367 C 37.2364 1.02929 -1.67033 0
M  V30 368 O 36.3614 1.79991 -1.20133 0
M  V30 369 C 36.9564 -0.807774 -3.2903 0
M  V30 370 C 35.5154 -0.501901 -3.73039 0
M  V30 371 C 34.6624 -1.03304 -2.57339 0
M  V30 372 H 37.6134 -0.998808 -1.23327 0
M  V30 373 H 37.6344 -0.10554 -3.80354 0
M  V30 374 H 37.1464 -1.88357 -3.39328 0
M  V30 375 H 35.2474 0.565128 -3.68289 0
M  V30 376 H 35.3604 -1.03497 -4.67787 0
M  V30 377 H 33.7244 -0.455339 -2.50597 0
M  V30 378 H 34.5074 -2.11496 -2.70415 0
M  V30 379 N 36.9525 1.47285 -0.560781 0
M  V30 380 C 37.8825 2.32857 0.173105 0
M  V30 381 C 38.8635 1.44009 0.905281 0
M  V30 382 O 40.0485 1.7286 0.885046 0
M  V30 383 C 37.1785 3.25861 1.20133 0
M  V30 384 C 36.1325 4.23978 0.585388 0
M  V30 385 C 35.4585 5.06332 1.7185 0
M  V30 386 C 36.7585 5.20242 -0.463178 0
M  V30 387 H 38.4525 2.94466 -0.541307 0
M  V30 388 H 35.9985 1.41601 -0.261764 0
M  V30 389 H 37.9515 3.84569 1.72293 0
M  V30 390 H 36.6755 2.62315 1.94573 0
M  V30 391 H 35.3345 3.66501 0.085054 0
M  V30 392 H 34.9825 4.39186 2.45203 0
M  V30 393 H 34.6825 5.72762 1.31213 0
M  V30 394 H 36.2065 5.67899 2.24329 0
M  V30 395 H 37.6205 5.73293 -0.027502 0
M  V30 396 H 36.0175 5.94896 -0.788627 0
M  V30 397 H 37.0875 4.65504 -1.35773 0
M  V30 398 N 38.4306 0.297415 1.54768 0
M  V30 399 C 39.6766 -0.313376 2.00364 0
M  V30 400 C 40.0096 -1.53815 1.18553 0
M  V30 401 O 39.2846 -1.92739 0.261103 0
M  V30 402 C 39.5676 -0.673525 3.53745 0
M  V30 403 C 39.4206 0.560133 4.46299 0
M  V30 404 C 40.7396 -1.50143 4.13697 0
M  V30 405 H 37.8586 -0.112428 0.728374 0
M  V30 406 H 40.5006 0.4088 1.8555 0
M  V30 407 H 38.6506 -1.28881 3.665 0
M  V30 408 H 40.3226 1.19863 4.45455 0
M  V30 409 H 38.5656 1.19405 4.17043 0
M  V30 410 H 39.2366 0.26405 5.51368 0
M  V30 411 H 41.7126 -0.981588 4.04356 0
M  V30 412 H 40.5886 -1.72221 5.21182 0
M  V30 413 H 40.8496 -2.48952 3.65343 0
M  V30 414 N 39.9087 -1.5758 0.0250728 0
M  V30 415 C 41.1547 -1.91917 -0.655413 0
M  V30 416 C 41.4877 -0.901433 -1.72011 0
M  V30 417 O 40.7627 0.0764069 -1.9435 0
M  V30 418 C 41.0457 -3.36751 -1.27558 0
M  V30 419 C 40.8987 -4.49258 -0.220719 0
M  V30 420 C 42.2177 -3.81469 -2.19475 0
M  V30 421 H 39.3367 -0.697925 -0.23679 0
M  V30 422 H 41.9787 -1.89825 0.0815036 0
M  V30 423 H 40.1287 -3.38664 -1.90365 0
M  V30 424 H 41.8007 -4.59478 0.409601 0
M  V30 425 H 40.0437 -4.31415 0.454264 0
M  V30 426 H 40.7147 -5.47618 -0.694175 0
M  V30 427 H 43.1907 -3.81266 -1.66659 0
M  V30 428 H 42.0667 -4.83512 -2.59822 0
M  V30 429 H 42.3277 -3.16744 -3.08424 0
M  V30 430 N 41.3868 0.248026 -1.55636 0
M  V30 431 C 42.3498 1.29044 -1.89421 0
M  V30 432 C 43.3498 1.41134 -0.770581 0
M  V30 433 O 44.5398 1.39854 -1.03858 0
M  V30 434 C 41.6718 2.66831 -2.12165 0
M  V30 435 H 42.8648 1.00305 -2.82629 0
M  V30 436 H 40.4178 0.487265 -1.48511 0
M  V30 437 H 41.1528 3.00711 -1.21422 0
M  V30 438 H 40.9378 2.59438 -2.93997 0
M  V30 439 H 42.4278 3.42103 -2.3949 0
M  V30 440 N 42.8649 1.48995 0.513639 0
M  V30 441 C 43.8279 1.64229 1.59879 0
M  V30 442 C 44.8279 0.514696 1.5234 0
M  V30 443 O 46.0179 0.78087 1.55718 0
M  V30 444 C 43.1499 1.62783 2.99524 0
M  V30 445 H 44.3429 2.61004 1.47705 0
M  V30 446 H 41.8959 1.37837 0.736936 0
M  V30 447 H 42.6309 0.675461 3.17188 0
M  V30 448 H 42.4159 2.4466 3.06404 0
M  V30 449 H 43.9059 1.76669 3.78388 0
M  V30 450 N 44.343 -0.763751 1.37857 0
M  V30 451 C 45.568 -1.55805 1.36893 0
M  V30 452 C 45.993 -1.88054 -0.0416135 0
M  V30 453 O 45.351 -1.49825 -1.02089 0
M  V30 454 C 45.399 -2.84012 2.22192 0
M  V30 455 O 44.503 -3.78732 1.63204 0
M  V30 456 H 43.844 -0.471638 0.46739 0
M  V30 457 H 46.374 -0.944657 1.81487 0
M  V30 458 H 46.384 -3.33037 2.35691 0
M  V30 459 H 45.059 -2.59869 3.24716 0
M  V30 460 H 43.636 -3.37402 1.58791 0
M  V30 461 N 45.8211 -1.22559 -0.990812 0
M  V30 462 C 47.0701 -1.04553 -1.72486 0
M  V30 463 C 47.3831 0.419349 -1.91052 0
M  V30 464 O 48.5891 0.719121 -2.61803 0
M  V30 465 C 47.0451 -1.82231 -3.10355 0
M  V30 466 C 46.6531 -3.32981 -2.99713 0
M  V30 467 C 48.3971 -1.7268 -3.87791 0
M  V30 468 C 46.3041 -4.03091 -4.32748 0
M  V30 469 H 45.2341 -0.387614 -0.646739 0
M  V30 470 H 47.8851 -1.46429 -1.10593 0
M  V30 471 H 46.2671 -1.33155 -3.72942 0
M  V30 472 H 47.4411 -3.89466 -2.46278 0
M  V30 473 H 45.7561 -3.43231 -2.35758 0
M  V30 474 H 48.3531 -2.22381 -4.86262 0
M  V30 475 H 48.6961 -0.687607 -4.10582 0
M  V30 476 H 49.2291 -2.1931 -3.31885 0
M  V30 477 H 45.9681 -5.07273 -4.15156 0
M  V30 478 H 45.4881 -3.51394 -4.86089 0
M  V30 479 H 47.1671 -4.08804 -5.01486 0
M  V30 480 N 47.2992 1.18797 -1.03562 0
M  V30 481 C 48.5482 1.87978 -0.731235 0
M  V30 482 C 48.8612 1.80911 0.743671 0
M  V30 483 O 50.0672 2.45407 1.16137 0
M  V30 484 C 48.5232 3.3721 -1.25768 0
M  V30 485 C 48.1312 3.52818 -2.76085 0
M  V30 486 C 49.8752 4.11825 -1.0296 0
M  V30 487 C 47.7822 4.9598 -3.22114 0
M  V30 488 H 46.7122 0.704063 -0.269835 0
M  V30 489 H 49.3632 1.34266 -1.25079 0
M  V30 490 H 47.7452 3.90359 -0.666011 0
M  V30 491 H 48.9192 3.09965 -3.40966 0
M  V30 492 H 47.2342 2.91602 -2.97249 0
M  V30 493 H 49.8312 5.17411 -1.34869 0
M  V30 494 H 50.1742 4.16287 0.0333546 0
M  V30 495 H 50.7072 3.64833 -1.58562 0
M  V30 496 H 47.4462 4.96684 -4.27768 0
M  V30 497 H 46.9662 5.39569 -2.61965 0
M  V30 498 H 48.6452 5.6467 -3.15844 0
M  V30 499 N 48.7773 0.814389 1.34928 0
M  V30 500 C 50.0253 0.397636 1.9815 0
M  V30 501 C 50.3463 -1.04069 1.64908 0
M  V30 502 O 49.6163 -1.72121 0.93548 0
M  V30 503 H 48.1963 0.144043 0.732981 0
M  V30 504 H 50.8583 1.04195 1.6471 0
M  V30 505 H 49.9543 0.509688 3.0791 0
M  V30 506 N 50.2554 -1.46986 0.568584 0
M  V30 507 C 51.5044 -2.01646 0.0465894 0
M  V30 508 C 51.8174 -1.44721 -1.31587 0
M  V30 509 O 53.0234 -1.91113 -1.92842 0
M  V30 510 C 51.4794 -3.59885 0.032752 0
M  V30 511 C 51.0874 -4.25804 1.39266 0
M  V30 512 C 52.8314 -4.22255 -0.436038 0
M  V30 513 C 50.7384 -5.76081 1.33732 0
M  V30 514 H 49.6684 -0.753876 0.013647 0
M  V30 515 H 52.3194 -1.68864 0.718131 0
M  V30 516 H 50.7014 -3.8968 -0.704669 0
M  V30 517 H 51.8754 -4.07637 2.1487 0
M  V30 518 H 50.1904 -3.7547 1.80032 0
M  V30 519 H 52.7874 -5.32394 -0.49602 0
M  V30 520 H 53.1304 -3.90212 -1.45053 0
M  V30 521 H 53.6634 -3.97033 0.246877 0
M  V30 522 H 50.4024 -6.12761 2.32817 0
M  V30 523 H 49.9224 -5.96553 0.623267 0
M  V30 524 H 51.6014 -6.38518 1.0442 0
M  V30 525 N 51.7335 -0.305618 -1.54608 0
M  V30 526 C 52.6635 0.561482 -2.26649 0
M  V30 527 C 53.6445 1.13415 -1.26772 0
M  V30 528 O 54.8295 1.16262 -1.55553 0
M  V30 529 C 51.9595 1.73122 -3.01075 0
M  V30 530 C 50.9135 1.2887 -4.08138 0
M  V30 531 C 50.2395 2.54396 -4.70305 0
M  V30 532 C 51.5395 0.416578 -5.20636 0
M  V30 533 H 53.2335 -0.0393902 -2.99374 0
M  V30 534 H 50.7795 -0.020385 -1.43986 0
M  V30 535 H 52.7325 2.34396 -3.50195 0
M  V30 536 H 51.4565 2.3584 -2.25936 0
M  V30 537 H 50.1155 0.698991 -3.59875 0
M  V30 538 H 49.7635 3.15439 -3.918 0
M  V30 539 H 49.4635 2.25486 -5.42614 0
M  V30 540 H 50.9875 3.16464 -5.2219 0
M  V30 541 H 52.4015 0.935116 -5.65622 0
M  V30 542 H 50.7985 0.221046 -5.99693 0
M  V30 543 H 51.8685 -0.557162 -4.81688 0
M  V30 544 N 53.2116 1.57565 -0.0334293 0
M  V30 545 C 54.1616 2.06978 0.956237 0
M  V30 546 C 55.1456 0.971193 1.28283 0
M  V30 547 O 56.3376 1.23471 1.26822 0
M  V30 548 C 53.4666 2.60393 2.23719 0
M  V30 549 C 52.5526 3.7719 1.93877 0
M  V30 550 N 52.9436 4.87639 1.34321 0
M  V30 551 C 51.2416 3.85758 2.23845 0
M  V30 552 C 51.9426 5.68825 1.21709 0
M  V30 553 N 50.9186 5.1587 1.71404 0
M  V30 554 H 54.7206 2.89773 0.490815 0
M  V30 555 H 52.2346 1.61492 0.171478 0
M  V30 556 H 54.2316 2.94088 2.95496 0
M  V30 557 H 52.8916 1.79031 2.70884 0
M  V30 558 H 53.9026 5.07803 1.01767 0
M  V30 559 H 50.5796 3.1531 2.73653 0
M  V30 560 H 51.9696 6.67631 0.75621 0
M  V30 561 N 54.6897 -0.239769 1.55765 0
M  V30 562 C 55.6197 -1.30052 1.9393 0
M  V30 563 C 56.6007 -1.49839 0.805132 0
M  V30 564 O 57.7857 -1.62328 1.06599 0
M  V30 565 C 54.9157 -2.65391 2.2402 0
M  V30 566 C 53.8697 -2.60289 3.39755 0
M  V30 567 C 53.1957 -3.99489 3.55405 0
M  V30 568 C 54.4957 -2.16654 4.75246 0
M  V30 569 H 56.1897 -0.983573 2.82783 0
M  V30 570 H 53.7357 -0.471701 1.36055 0
M  V30 571 H 55.6887 -3.3974 2.49308 0
M  V30 572 H 54.4127 -2.98736 1.32 0
M  V30 573 H 53.0717 -1.88398 3.14487 0
M  V30 574 H 52.7197 -4.30112 2.60793 0
M  V30 575 H 52.4197 -3.96962 4.33238 0
M  V30 576 H 53.9437 -4.75528 3.83022 0
M  V30 577 H 55.3577 -2.80737 4.99859 0
M  V30 578 H 53.7547 -2.25223 5.56232 0
M  V30 579 H 54.8247 -1.11835 4.71827 0
M  V30 580 N 56.1678 -1.49265 -0.50573 0
M  V30 581 C 57.4168 -1.57761 -1.25675 0
M  V30 582 C 57.7298 -0.267371 -1.93764 0
M  V30 583 O 58.9358 -0.230827 -2.70517 0
M  V30 584 C 57.3918 -2.78332 -2.28165 0
M  V30 585 C 56.9998 -4.16096 -1.66037 0
M  V30 586 C 58.7438 -2.96155 -3.04125 0
M  V30 587 C 56.6508 -5.27895 -2.6661 0
M  V30 588 H 55.5808 -0.587391 -0.472745 0
M  V30 589 H 58.2318 -1.75644 -0.53118 0
M  V30 590 H 56.6138 -2.53934 -3.03865 0
M  V30 591 H 57.7878 -4.50612 -0.963622 0
M  V30 592 H 56.1028 -4.03591 -1.02484 0
M  V30 593 H 58.6998 -3.76849 -3.79327 0
M  V30 594 H 59.0428 -2.06534 -3.61455 0
M  V30 595 H 59.5758 -3.2057 -2.35541 0
M  V30 596 H 56.3148 -6.1956 -2.14068 0
M  V30 597 H 55.8348 -4.97839 -3.34539 0
M  V30 598 H 57.5138 -5.57031 -3.29129 0
M  V30 599 N 57.6459 0.756429 -1.3826 0
M  V30 600 C 58.5759 1.88374 -1.37976 0
M  V30 601 C 59.5569 1.68311 -0.246082 0
M  V30 602 O 60.7419 1.88944 -0.44874 0
M  V30 603 C 57.8719 3.25864 -1.20125 0
M  V30 604 C 56.8259 3.60523 -2.30666 0
M  V30 605 C 56.1519 4.9672 -1.97923 0
M  V30 606 C 57.4519 3.65692 -3.72916 0
M  V30 607 H 59.1459 1.88869 -2.32312 0
M  V30 608 H 56.6919 0.907272 -1.11824 0
M  V30 609 H 58.6449 4.0438 -1.18552 0
M  V30 610 H 57.3689 3.25841 -0.222498 0
M  V30 611 H 56.0279 2.84324 -2.3142 0
M  V30 612 H 55.6759 4.93253 -0.985393 0
M  V30 613 H 55.3759 5.20878 -2.71955 0
M  V30 614 H 56.8999 5.77618 -1.97964 0
M  V30 615 H 58.3139 4.34328 -3.74208 0
M  V30 616 H 56.7109 4.01358 -4.4613 0
M  V30 617 H 57.7809 2.65987 -4.05436 0
M  V30 618 N 59.124 1.23083 0.984299 0
M  V30 619 C 60.37 1.07221 1.72845 0
M  V30 620 C 60.725 -0.387453 1.88458 0
M  V30 621 O 60.018 -1.28309 1.42293 0
M  V30 622 C 60.212 1.72673 3.1292 0
M  V30 623 C 60.041 3.24853 3.10967 0
M  V30 624 C 58.811 3.93998 3.16376 0
M  V30 625 C 61.009 4.21674 2.94441 0
M  V30 626 N 58.991 5.33192 3.04268 0
M  V30 627 C 60.362 5.47756 2.90453 0
M  V30 628 C 62.417 4.12457 2.78897 0
M  V30 629 C 61.12 6.6568 2.72512 0
M  V30 630 C 63.146 5.3004 2.62319 0
M  V30 631 C 62.508 6.55046 2.59026 0
M  V30 632 H 58.607 0.44685 0.641755 0
M  V30 633 H 61.191 1.55753 1.16829 0
M  V30 634 H 59.362 1.26679 3.67161 0
M  V30 635 H 61.094 1.49824 3.75945 0
M  V30 636 H 57.849 3.45052 3.24401 0
M  V30 637 H 58.273 6.06157 3.015 0
M  V30 638 H 62.915 3.16588 2.80235 0
M  V30 639 H 60.633 7.61689 2.69919 0
M  V30 640 H 64.219 5.24747 2.5126 0
M  V30 641 H 63.099 7.44498 2.46357 0
M  V30 642 N 60.6021 -1.18246 1.0419 0
M  V30 643 C 61.8511 -1.87588 0.741194 0
M  V30 644 C 62.1641 -1.81303 -0.734066 0
M  V30 645 O 63.3701 -2.46019 -1.14834 0
M  V30 646 C 61.8261 -3.36538 1.27555 0
M  V30 647 C 61.4341 -3.51349 2.77953 0
M  V30 648 C 63.1781 -4.11273 1.05143 0
M  V30 649 C 61.0851 -4.94265 3.2474 0
M  V30 650 H 60.0151 -0.702622 0.273565 0
M  V30 651 H 62.6661 -1.33601 1.25789 0
M  V30 652 H 61.0481 -3.9 0.686703 0
M  V30 653 H 62.2221 -3.08153 3.42605 0
M  V30 654 H 60.5371 -2.90022 2.98791 0
M  V30 655 H 63.1341 -5.16689 1.37611 0
M  V30 656 H 63.4771 -4.16298 -0.0112774 0
M  V30 657 H 64.0101 -3.63987 1.60495 0
M  V30 658 H 60.7491 -4.94408 4.30396 0
M  V30 659 H 60.2691 -5.38172 2.64823 0
M  V30 660 H 61.9481 -5.62987 3.18834 0
M  V30 661 N 62.0802 -0.821533 -1.34494 0
M  V30 662 C 63.0102 -0.257138 -2.3208 0
M  V30 663 C 63.9912 0.625645 -1.58176 0
M  V30 664 O 65.1762 0.552811 -1.86166 0
M  V30 665 C 62.3062 0.582958 -3.42372 0
M  V30 666 C 61.2602 -0.202571 -4.2752 0
M  V30 667 C 60.5862 0.760179 -5.29269 0
M  V30 668 C 61.8862 -1.40998 -5.02908 0
M  V30 669 H 63.5802 -1.07247 -2.79532 0
M  V30 670 H 61.1262 -0.517163 -1.34393 0
M  V30 671 H 63.0792 0.987972 -4.09655 0
M  V30 672 H 61.8032 1.43133 -2.93565 0
M  V30 673 H 60.4622 -0.588936 -3.61838 0
M  V30 674 H 60.1102 1.60447 -4.76724 0
M  V30 675 H 59.8102 0.238809 -5.87115 0
M  V30 676 H 61.3342 1.16308 -5.9942 0
M  V30 677 H 62.7482 -1.07905 -5.63054 0
M  V30 678 H 61.1452 -1.86689 -5.70322 0
M  V30 679 H 62.2152 -2.1889 -4.32684 0
M  V30 680 N 63.5583 1.46682 -0.576371 0
M  V30 681 C 64.8353 1.95599 0.00703437 0
M  V30 682 C 65.2153 1.51904 1.46589 0
M  V30 683 O 64.5633 0.766755 2.15251 0
M  V30 684 C 64.7733 3.4864 -0.158404 0
M  V30 685 C 66.1213 4.24594 -0.0229439 0
M  V30 686 O 67.1453 3.56094 -0.0869173 0
M  V30 687 O 66.0043 5.46373 0.118015 0
M  V30 688 H 63.0983 0.825275 0.053384 0
M  V30 689 H 65.6443 1.56996 -0.644244 0
M  V30 690 H 64.4163 3.7331 -1.17282 0
M  V30 691 H 64.0393 3.94057 0.5296 0
M  V30 692 N 65.0364 0.313813 1.54444 0
M  V30 693 C 65.9864 -0.571898 2.20711 0
M  V30 694 C 66.9704 -1.08913 1.18435 0
M  V30 695 O 68.1624 -1.02777 1.44104 0
M  V30 696 C 65.2914 -1.7371 2.96108 0
M  V30 697 C 64.3774 -1.23522 4.05713 0
M  V30 698 N 64.7684 -0.452288 5.03774 0
M  V30 699 C 63.0664 -1.51482 4.19487 0
M  V30 700 C 63.7674 -0.183438 5.81411 0
M  V30 701 N 62.7434 -0.766845 5.38164 0
M  V30 702 H 66.5454 0.0336802 2.93881 0
M  V30 703 H 64.0594 0.119192 1.61962 0
M  V30 704 H 66.0564 -2.38329 3.4206 0
M  V30 705 H 64.7164 -2.34625 2.24458 0
M  V30 706 H 65.7274 -0.0960131 5.17811 0
M  V30 707 H 62.4044 -2.13053 3.59047 0
M  V30 708 H 63.7944 0.446216 6.70417 0
M  V30 709 N 66.5145 -1.57545 0.0417849 0
M  V30 710 C 67.4445 -2.14009 -0.933929 0
M  V30 711 C 68.4255 -1.05938 -1.33083 0
M  V30 712 O 69.6105 -1.33833 -1.40721 0
M  V30 713 C 66.7405 -2.67747 -2.21199 0
M  V30 714 C 65.6945 -3.80718 -1.95544 0
M  V30 715 C 65.0205 -4.20935 -3.29724 0
M  V30 716 C 66.3205 -5.06258 -1.28452 0
M  V30 717 H 68.0145 -2.95788 -0.463645 0
M  V30 718 H 65.5605 -1.42285 -0.221573 0
M  V30 719 H 67.5135 -3.05886 -2.89848 0
M  V30 720 H 66.2375 -1.83147 -2.70416 0
M  V30 721 H 64.8965 -3.43037 -1.2931 0
M  V30 722 H 64.5445 -3.33298 -3.76724 0
M  V30 723 H 64.2445 -4.9707 -3.13361 0
M  V30 724 H 65.7685 -4.61666 -3.9962 0
M  V30 725 H 67.1825 -5.41903 -1.8712 0
M  V30 726 H 65.5795 -5.87475 -1.22445 0
M  V30 727 H 66.6495 -4.84207 -0.259219 0
M  V30 728 N 67.9926 0.231505 -1.5589 0
M  V30 729 C 69.2396 0.957352 -1.78441 0
M  V30 730 C 69.5676 1.84726 -0.60882 0
M  V30 731 O 68.8226 1.91416 0.40725 0
M  V30 732 C 69.1216 1.83577 -3.0665 0
M  V30 733 C 68.7876 1.09993 -4.37278 0
M  V30 734 C 67.4496 0.896629 -4.72773 0
M  V30 735 C 69.8016 0.579558 -5.17968 0
M  V30 736 C 67.1296 0.160896 -5.86479 0
M  V30 737 C 69.4816 -0.142783 -6.32439 0
M  V30 738 C 68.1456 -0.357427 -6.66542 0
M  V30 739 H 67.4156 0.35032 -0.65296 0
M  V30 740 H 70.0626 0.226259 -1.90159 0
M  V30 741 H 68.3676 2.63441 -2.90011 0
M  V30 742 H 70.0646 2.39934 -3.21298 0
M  V30 743 H 66.6546 1.26835 -4.09403 0
M  V30 744 H 70.8386 0.724125 -4.90989 0
M  V30 745 H 66.0946 -0.0157293 -6.11398 0
M  V30 746 H 70.2686 -0.553559 -6.94196 0
M  V30 747 H 67.8956 -0.929466 -7.54497 0
M  V30 748 N 69.4707 1.49531 0.497807 0
M  V30 749 C 70.7177 1.59179 1.25173 0
M  V30 750 C 71.0457 0.279932 1.92475 0
M  V30 751 O 70.3007 -0.732383 1.81479 0
M  V30 752 C 70.5997 2.70252 2.33878 0
M  V30 753 C 70.2657 4.11644 1.84012 0
M  V30 754 C 68.9277 4.50121 1.70132 0
M  V30 755 C 71.2797 5.00121 1.46725 0
M  V30 756 C 68.6077 5.74845 1.17348 0
M  V30 757 C 70.9597 6.25366 0.95392 0
M  V30 758 C 69.6237 6.6267 0.801538 0
M  V30 759 H 68.8937 0.582478 0.45804 0
M  V30 760 H 71.5407 1.83373 0.551948 0
M  V30 761 H 69.8457 2.40041 3.09657 0
M  V30 762 H 71.5427 2.74925 2.9192 0
M  V30 763 H 68.1327 3.81274 1.95775 0
M  V30 764 H 72.3167 4.71048 1.56294 0
M  V30 765 H 67.5727 6.02444 1.04264 0
M  V30 766 H 71.7467 6.93301 0.656225 0
M  V30 767 H 69.3737 7.59197 0.390351 0
M  V30 768 N 70.9488 -0.749086 1.3866 0
M  V30 769 C 71.8958 -1.86291 1.36251 0
M  V30 770 C 72.8658 -1.64578 0.224347 0
M  V30 771 O 74.0508 -1.86181 0.417279 0
M  V30 772 C 71.1908 -3.23644 1.19786 0
M  V30 773 C 70.3038 -3.57158 2.43027 0
M  V30 774 C 69.4388 -4.83838 2.19258 0
M  V30 775 C 68.4778 -5.10152 3.38247 0
M  V30 776 N 67.6148 -6.28029 3.13884 0
M  V30 777 H 72.4548 -1.87685 2.3147 0
M  V30 778 H 69.9918 -0.917287 1.14997 0
M  V30 779 H 71.9498 -4.0291 1.08254 0
M  V30 780 H 70.5798 -3.21566 0.282031 0
M  V30 781 H 69.6318 -2.72701 2.65214 0
M  V30 782 H 70.9438 -3.7253 3.31697 0
M  V30 783 H 70.0978 -5.71057 2.04888 0
M  V30 784 H 68.8368 -4.70614 1.2796 0
M  V30 785 H 67.8418 -4.21401 3.53131 0
M  V30 786 H 69.0668 -5.25271 4.30427 0
M  V30 787 H 67.0128 -6.1612 2.25238 0
M  V30 788 H 66.9298 -6.43922 3.96106 0
M  V30 789 H 68.1978 -7.18124 3.03179 0
M  V30 790 N 72.4269 -1.23603 -0.977757 0
M  V30 791 C 73.6669 -1.08148 -1.73446 0
M  V30 792 C 74.0309 0.374785 -1.88307 0
M  V30 793 O 75.2319 0.650588 -2.60808 0
M  V30 794 C 73.5029 -1.78991 -3.0935 0
M  V30 795 S 75.0619 -1.79141 -4.00567 0
M  V30 796 H 71.8799 -0.386987 -0.596458 0
M  V30 797 H 74.4819 -1.5678 -1.16792 0
M  V30 798 H 73.1859 -2.8408 -2.96187 0
M  V30 799 H 72.7169 -1.30651 -3.71071 0
M  V30 800 H 74.7319 -0.851892 -4.88833 0
M  V30 801 N 73.905 1.17692 -1.04816 0
M  V30 802 C 75.154 1.87192 -0.751132 0
M  V30 803 C 75.467 1.8169 0.724441 0
M  V30 804 O 76.673 2.46625 1.13527 0
M  V30 805 C 75.129 3.35857 -1.29338 0
M  V30 806 C 74.737 3.4987 -2.79812 0
M  V30 807 C 76.481 4.10709 -1.07322 0
M  V30 808 C 74.388 4.92536 -3.27356 0
M  V30 809 H 73.318 0.701162 -0.277288 0
M  V30 810 H 75.969 1.32932 -1.26496 0
M  V30 811 H 74.351 3.89631 -0.707376 0
M  V30 812 H 75.525 3.06332 -3.44235 0
M  V30 813 H 73.84 2.88433 -3.00325 0
M  V30 814 H 76.437 5.15952 -1.4035 0
M  V30 815 H 76.78 4.16299 -0.0108001 0
M  V30 816 H 77.313 3.6313 -1.62423 0
M  V30 817 H 74.052 4.92119 -4.33012 0
M  V30 818 H 73.572 5.3676 -2.67673 0
M  V30 819 H 75.251 5.61288 -3.21815 0
M  V30 820 N 75.3831 0.828654 1.34056 0
M  V30 821 C 76.6131 0.431993 2.02033 0
M  V30 822 C 77.0211 -0.96844 1.62536 0
M  V30 823 O 76.3641 -1.6391 0.829408 0
M  V30 824 C 76.4261 0.461224 3.56529 0
M  V30 825 C 76.0901 1.81599 4.1937 0
M  V30 826 C 77.0871 2.7777 4.39477 0
M  V30 827 C 74.7721 2.10604 4.56017 0
M  V30 828 C 76.7661 4.01115 4.95364 0
M  V30 829 C 74.4531 3.34207 5.11614 0
M  V30 830 C 75.4511 4.2928 5.31232 0
M  V30 831 O 75.1391 5.50699 5.8565 0
M  V30 832 H 74.8711 0.170943 0.654029 0
M  V30 833 H 77.4251 1.11988 1.72185 0
M  V30 834 H 75.6551 -0.283388 3.8566 0
M  V30 835 H 77.3441 0.0838149 4.05813 0
M  V30 836 H 78.1101 2.56659 4.11523 0
M  V30 837 H 73.9891 1.37402 4.40047 0
M  V30 838 H 77.5331 4.75333 5.10592 0
M  V30 839 H 73.4301 3.55179 5.38997 0
M  V30 840 H 74.1981 5.52298 6.04077 0
M  V30 841 N 76.8612 -1.46375 0.584142 0
M  V30 842 C 78.2772 -1.57694 0.245929 0
M  V30 843 C 78.4772 -1.57903 -1.25175 0
M  V30 844 O 77.5332 -1.49676 -2.03355 0
M  V30 845 C 78.8462 -2.87028 0.896402 0
M  V30 846 C 80.3942 -3.00662 0.870127 0
M  V30 847 C 80.8692 -4.32734 1.50017 0
M  V30 848 N 82.3602 -4.39436 1.46458 0
M  V30 849 C 83.0952 -5.40248 1.92144 0
M  V30 850 N 82.5912 -6.47726 2.4581 0
M  V30 851 N 84.3842 -5.31459 1.83052 0
M  V30 852 H 76.5352 -1.44483 1.55687 0
M  V30 853 H 78.7982 -0.689291 0.650831 0
M  V30 854 H 78.5042 -2.9269 1.95002 0
M  V30 855 H 78.3782 -3.75014 0.405486 0
M  V30 856 H 80.7652 -2.94581 -0.174871 0
M  V30 857 H 80.8462 -2.14148 1.39908 0
M  V30 858 H 80.4902 -4.39573 2.54437 0
M  V30 859 H 80.4202 -5.18025 0.946432 0
M  V30 860 H 82.9112 -3.62367 1.07231 0
M  V30 861 H 83.2242 -7.20863 2.78525 0
M  V30 862 H 81.5692 -6.48542 2.49836 0
M  V30 863 H 84.7602 -4.46396 1.40883 0
M  V30 864 H 84.9332 -6.09881 2.18973 0
M  V30 865 N 78.3393 -0.321999 -1.54275 0
M  V30 866 C 79.5863 0.281044 -2.0054 0
M  V30 867 C 79.9143 1.52265 -1.21019 0
M  V30 868 O 79.1693 1.93687 -0.279982 0
M  V30 869 C 79.4683 0.661769 -3.5122 0
M  V30 870 C 79.1343 -0.480482 -4.48333 0
M  V30 871 C 77.7963 -0.794005 -4.74604 0
M  V30 872 C 80.1483 -1.24783 -5.06042 0
M  V30 873 C 77.4763 -1.87763 -5.55844 0
M  V30 874 C 79.8283 -2.32153 -5.88462 0
M  V30 875 C 78.4923 -2.64089 -6.13036 0
M  V30 876 H 77.7623 0.102841 -0.733829 0
M  V30 877 H 80.4093 -0.445453 -1.86247 0
M  V30 878 H 78.7143 1.46867 -3.63232 0
M  V30 879 H 80.4113 1.13989 -3.84457 0
M  V30 880 H 77.0013 -0.226039 -4.28004 0
M  V30 881 H 81.1853 -1.01887 -4.85729 0
M  V30 882 H 76.4413 -2.12954 -5.73115 0
M  V30 883 H 80.6153 -2.92057 -6.32199 0
M  V30 884 H 78.2423 -3.48185 -6.75775 0
M  V30 885 N 79.8174 1.5752 -0.0501392 0
M  V30 886 C 81.0644 1.9265 0.623874 0
M  V30 887 C 81.3924 0.928411 1.70912 0
M  V30 888 O 80.6474 -0.0594525 1.9561 0
M  V30 889 C 80.9464 3.34467 1.25963 0
M  V30 890 C 80.6124 4.49883 0.302689 0
M  V30 891 C 79.2744 4.81184 0.0393636 0
M  V30 892 C 81.6264 5.20002 -0.353205 0
M  V30 893 C 78.9544 5.79951 -0.887308 0
M  V30 894 C 81.3064 6.1976 -1.26806 0
M  V30 895 C 79.9704 6.49491 -1.54007 0
M  V30 896 H 79.2404 0.704957 0.228292 0
M  V30 897 H 81.8874 1.91146 -0.116398 0
M  V30 898 H 80.1924 3.32333 2.07514 0
M  V30 899 H 81.8894 3.58928 1.78806 0
M  V30 900 H 78.4794 4.25457 0.518109 0
M  V30 901 H 82.6634 4.96033 -0.162854 0
M  V30 902 H 77.9194 6.01322 -1.10553 0
M  V30 903 H 82.0934 6.73205 -1.78236 0
M  V30 904 H 79.7204 7.25837 -2.25976 0
M  V30 905 N 81.2955 -0.223234 1.56011 0
M  V30 906 C 82.2425 -1.27664 1.92277 0
M  V30 907 C 83.2125 -1.46659 0.779763 0
M  V30 908 O 84.3975 -1.60256 1.03551 0
M  V30 909 C 81.5375 -2.62234 2.24338 0
M  V30 910 C 80.6505 -2.51051 3.51564 0
M  V30 911 C 79.7855 -3.78133 3.7308 0
M  V30 912 C 78.8245 -3.61665 4.93827 0
M  V30 913 N 77.9615 -4.80693 5.11741 0
M  V30 914 H 82.8015 -0.960358 2.82101 0
M  V30 915 H 80.3385 -0.462901 1.39627 0
M  V30 916 H 82.2965 -3.40596 2.40936 0
M  V30 917 H 80.9265 -2.91961 1.3769 0
M  V30 918 H 79.9785 -1.64132 3.43169 0
M  V30 919 H 81.2905 -2.34803 4.40079 0
M  V30 920 H 80.4445 -4.64938 3.89766 0
M  V30 921 H 79.1835 -3.97304 2.82844 0
M  V30 922 H 78.1885 -2.73244 4.77093 0
M  V30 923 H 79.4135 -3.43966 5.85546 0
M  V30 924 H 77.3595 -5.00181 4.24446 0
M  V30 925 H 77.2765 -4.67165 5.94384 0
M  V30 926 H 78.5445 -5.6893 5.3286 0
M  V30 927 N 82.7736 -1.49793 -0.48987 0
M  V30 928 C 83.7236 -1.63673 -1.5873 0
M  V30 929 C 84.7076 -0.491956 -1.53195 0
M  V30 930 O 85.8996 -0.745461 -1.60536 0
M  V30 931 C 83.0286 -1.71689 -2.97284 0
M  V30 932 C 82.1146 -2.91781 -3.07774 0
M  V30 933 N 82.5056 -4.15714 -2.88124 0
M  V30 934 C 80.8036 -2.89949 -3.38889 0
M  V30 935 C 81.5046 -4.965 -3.03088 0
M  V30 936 N 80.4806 -4.30083 -3.3246 0
M  V30 937 H 84.2826 -2.57204 -1.42208 0
M  V30 938 H 81.7966 -1.46719 -0.69623 0
M  V30 939 H 83.7936 -1.79732 -3.76168 0
M  V30 940 H 82.4536 -0.793024 -3.14867 0
M  V30 941 H 83.4646 -4.45515 -2.64077 0
M  V30 942 H 80.1416 -2.06987 -3.62578 0
M  V30 943 H 81.5316 -6.04991 -2.92294 0
M  V30 944 N 84.2517 0.741722 -1.39055 0
M  V30 945 C 85.4997 1.49818 -1.35643 0
M  V30 946 C 85.8207 1.94938 0.0491642 0
M  V30 947 O 85.0907 1.68505 0.999141 0
M  V30 948 H 83.6707 0.555755 -0.499144 0
M  V30 949 H 86.3327 0.880957 -1.73854 0
M  V30 950 H 85.4287 2.38348 -2.01486 0
M  V30 951 N 85.7298 1.2412 0.971189 0
M  V30 952 C 86.6598 1.05508 2.08304 0
M  V30 953 C 87.6408 -0.0308864 1.70072 0
M  V30 954 O 88.8258 0.135521 1.93727 0
M  V30 955 C 85.9558 0.655365 3.4106 0
M  V30 956 C 84.9098 1.68971 3.93234 0
M  V30 957 C 84.2358 1.14516 5.22293 0
M  V30 958 C 85.5358 3.08487 4.21465 0
M  V30 959 H 87.2298 1.98507 2.24132 0
M  V30 960 H 84.7758 0.955821 1.07704 0
M  V30 961 H 86.7288 0.51217 4.18276 0
M  V30 962 H 85.4528 -0.31032 3.25122 0
M  V30 963 H 84.1118 1.82106 3.18171 0
M  V30 964 H 83.7598 0.170189 5.02712 0
M  V30 965 H 83.4598 1.83635 5.58168 0
M  V30 966 H 84.9838 1.01401 6.02121 0
M  V30 967 H 86.3978 2.98601 4.89398 0
M  V30 968 H 84.7948 3.74926 4.68562 0
M  V30 969 H 85.8648 3.56787 3.28376 0
M  V30 970 N 87.2079 -1.17134 1.05439 0
M  V30 971 C 88.1549 -2.21235 0.657539 0
M  V30 972 C 89.1249 -1.62551 -0.341543 0
M  V30 973 O 90.3099 -1.89379 -0.232393 0
M  V30 974 C 87.4499 -3.45076 0.0410575 0
M  V30 975 C 86.5629 -4.18042 1.08927 0
M  V30 976 C 85.6979 -5.29376 0.439848 0
M  V30 977 C 84.7369 -5.94132 1.4722 0
M  V30 978 N 83.8739 -6.96975 0.846756 0
M  V30 979 H 88.7139 -2.54534 1.54972 0
M  V30 980 H 86.2509 -1.25028 0.775006 0
M  V30 981 H 88.2089 -4.15862 -0.33383 0
M  V30 982 H 86.8389 -3.12353 -0.814568 0
M  V30 983 H 85.8909 -3.45945 1.58196 0
M  V30 984 H 87.2029 -4.62306 1.87282 0
M  V30 985 H 86.3569 -6.06699 0.0115125 0
M  V30 986 H 85.0959 -4.86251 -0.375656 0
M  V30 987 H 84.1009 -5.15538 1.91052 0
M  V30 988 H 85.3259 -6.39337 2.28965 0
M  V30 989 H 83.2719 -6.5598 0.0518075 0
M  V30 990 H 83.1889 -7.39565 1.5678 0
M  V30 991 H 84.4569 -7.78239 0.443277 0
M  V30 992 N 88.686 -0.835752 -1.33615 0
M  V30 993 C 90.102 -0.523139 -1.50783 0
M  V30 994 C 90.302 0.950171 -1.77691 0
M  V30 995 O 89.358 1.73411 -1.83534 0
M  V30 996 C 90.671 -1.39378 -2.66448 0
M  V30 997 C 92.219 -1.39223 -2.80332 0
M  V30 998 C 92.694 -2.24765 -3.99055 0
M  V30 999 N 94.185 -2.22458 -4.06284 0
M  V30 1000 C 94.92 -2.85386 -4.97336 0
M  V30 1001 N 94.416 -3.57354 -5.93523 0
M  V30 1002 N 96.209 -2.74872 -4.90308 0
M  V30 1003 H 88.36 -1.78952 -1.14411 0
M  V30 1004 H 90.623 -0.763297 -0.562212 0
M  V30 1005 H 90.329 -2.44061 -2.53234 0
M  V30 1006 H 90.203 -1.0676 -3.61776 0
M  V30 1007 H 92.59 -0.353136 -2.92979 0
M  V30 1008 H 92.671 -1.75846 -1.85773 0
M  V30 1009 H 92.315 -3.28732 -3.87167 0
M  V30 1010 H 92.245 -1.85485 -4.92852 0
M  V30 1011 H 94.736 -1.70119 -3.37443 0
M  V30 1012 H 95.049 -4.02584 -6.59656 0
M  V30 1013 H 93.394 -3.61461 -5.93608 0
M  V30 1014 H 96.585 -2.18213 -4.14126 0
M  V30 1015 H 96.758 -3.24199 -5.61069 0
M  V30 1016 N 90.1641 1.46063 -0.591896 0
M  V30 1017 C 91.4121 2.01938 -0.0808391 0
M  V30 1018 C 91.7331 1.46475 1.28725 0
M  V30 1019 O 91.0031 0.652944 1.84698 0
M  V30 1020 H 89.5831 0.746516 -0.0268938 0
M  V30 1021 H 92.2451 1.79055 -0.769752 0
M  V30 1022 H 91.3411 3.12094 -0.0187578 0
M  V30 1023 N 91.6422 0.330177 1.54103 0
M  V30 1024 C 93.0532 -0.15652 1.86043 0
M  V30 1025 C 93.4042 -1.51086 1.2517 0
M  V30 1026 O 92.5292 -2.09023 0.560217 0
M  V30 1027 C 93.1242 -0.290784 3.3755 0
M  V30 1028 C 91.6832 -0.721705 3.69416 0
M  V30 1029 C 90.8302 0.152622 2.7688 0
M  V30 1030 H 93.7812 0.550237 1.48856 0
M  V30 1031 H 93.8022 -1.12058 3.63625 0
M  V30 1032 H 93.3142 0.695068 3.81825 0
M  V30 1033 H 91.4152 -1.71706 3.30678 0
M  V30 1034 H 91.5282 -0.520869 4.7626 0
M  V30 1035 H 89.8922 -0.372894 2.51956 0
M  V30 1036 H 90.6752 1.13536 3.23982 0
M  V30 1037 N 93.1203 -1.57491 0.0584922 0
M  V30 1038 C 94.3453 -1.97711 -0.62652 0
M  V30 1039 C 94.7703 -0.936132 -1.63151 0
M  V30 1040 O 94.1283 0.099811 -1.81025 0
M  V30 1041 C 94.1763 -3.36989 -1.28338 0
M  V30 1042 O 93.2803 -3.35433 -2.39913 0
M  V30 1043 H 92.6213 -0.643868 -0.162266 0
M  V30 1044 H 95.1513 -2.04193 0.129064 0
M  V30 1045 H 95.1613 -3.73879 -1.63335 0
M  V30 1046 H 93.8363 -4.12289 -0.546889 0
M  V30 1047 H 92.4133 -3.10298 -2.06809 0
M  V30 1048 N 94.5984 0.214957 -1.56127 0
M  V30 1049 C 95.8264 0.955092 -1.83536 0
M  V30 1050 C 96.2414 1.77677 -0.638472 0
M  V30 1051 O 95.5984 1.78219 0.392968 0
M  V30 1052 C 95.6494 1.86734 -3.09536 0
M  V30 1053 O 95.3704 1.07887 -4.24608 0
M  V30 1054 C 96.8714 2.72082 -3.4998 0
M  V30 1055 H 94.0914 0.279611 -0.609966 0
M  V30 1056 H 96.6354 0.228197 -2.03223 0
M  V30 1057 H 94.7904 2.5481 -2.91806 0
M  V30 1058 H 95.2044 1.69872 -4.9623 0
M  V30 1059 H 96.6784 3.31782 -4.41163 0
M  V30 1060 H 97.1554 3.44806 -2.7204 0
M  V30 1061 H 97.7614 2.09409 -3.70173 0
M  V30 1062 N 96.0765 1.50051 0.48192 0
M  V30 1063 C 96.9865 1.7089 1.60728 0
M  V30 1064 C 98.0025 0.591788 1.63627 0
M  V30 1065 O 99.1785 0.868817 1.81696 0
M  V30 1066 C 96.2435 1.78855 2.97005 0
M  V30 1067 C 95.3045 3.02537 3.04581 0
M  V30 1068 C 94.5375 3.10112 4.34357 0
M  V30 1069 O 94.7605 2.24765 5.24249 0
M  V30 1070 O 93.6945 4.02747 4.47301 0
M  V30 1071 H 97.5205 2.66264 1.46072 0
M  V30 1072 H 95.1055 1.34018 0.660264 0
M  V30 1073 H 96.9875 1.86336 3.77964 0
M  V30 1074 H 95.6625 0.866628 3.11883 0
M  V30 1075 H 94.5695 3.00563 2.22739 0
M  V30 1076 H 95.9025 3.94272 2.94636 0
M  V30 1077 N 97.5546 -0.734337 1.39446 0
M  V30 1078 C 98.8026 -1.49096 1.36436 0
M  V30 1079 C 99.1236 -1.94961 -0.0388255 0
M  V30 1080 O 98.3936 -1.69033 -0.990191 0
M  V30 1081 H 96.9736 -0.5531 0.502085 0
M  V30 1082 H 99.6356 -0.871725 1.74319 0
M  V30 1083 H 98.7316 -2.37276 2.02747 0
M  V30 1084 N 99.0327 -1.24633 -0.964593 0
M  V30 1085 C 100.279 -1.08949 -1.71049 0
M  V30 1086 C 100.612 0.370302 -1.90637 0
M  V30 1087 O 99.8867 1.27349 -1.47011 0
M  V30 1088 C 100.17 -1.83329 -3.0994 0
M  V30 1089 C 100.023 -3.37077 -2.97824 0
M  V30 1090 C 101.342 -1.60846 -4.09654 0
M  V30 1091 H 98.4607 -0.397178 -0.620821 0
M  V30 1092 H 101.103 -1.5334 -1.12191 0
M  V30 1093 H 99.2527 -1.45597 -3.60186 0
M  V30 1094 H 100.925 -3.84425 -2.5498 0
M  V30 1095 H 99.1677 -3.65298 -2.33965 0
M  V30 1096 H 99.8387 -3.84324 -3.96231 0
M  V30 1097 H 102.315 -1.93674 -3.68279 0
M  V30 1098 H 101.191 -2.1534 -5.04896 0
M  V30 1099 H 101.452 -0.547434 -4.38698 0
M  V30 1100 N 100.511 1.16574 -1.06058 0
M  V30 1101 C 101.922 1.68662 -0.800632 0
M  V30 1102 C 102.273 1.84184 0.67608 0
M  V30 1103 O 101.398 1.53568 1.52466 0
M  V30 1104 C 101.993 3.06356 -1.44676 0
M  V30 1105 C 100.552 3.55575 -1.23465 0
M  V30 1106 C 99.6988 2.31616 -1.52477 0
M  V30 1107 H 102.65 1.00969 -1.22438 0
M  V30 1108 H 102.671 3.70636 -0.860788 0
M  V30 1109 H 102.183 2.95027 -2.52152 0
M  V30 1110 H 100.284 3.72167 -0.179527 0
M  V30 1111 H 100.397 4.37812 -1.94571 0
M  V30 1112 H 98.7608 2.36512 -0.945209 0
M  V30 1113 H 99.5438 2.22887 -2.61106 0
M  V30 1114 N 101.989 0.842826 1.3317 0
M  V30 1115 C 102.899 0.281444 2.32906 0
M  V30 1116 C 103.915 -0.594587 1.63526 0
M  V30 1117 O 105.091 -0.49777 1.95152 0
M  V30 1118 C 102.156 -0.530929 3.42611 0
M  V30 1119 C 101.217 0.369843 4.27704 0
M  V30 1120 C 100.45 -0.403853 5.3217 0
M  V30 1121 O 100.673 -1.63513 5.46461 0
M  V30 1122 O 99.6069 0.224199 6.01482 0
M  V30 1123 H 103.433 1.10744 2.82789 0
M  V30 1124 H 101.018 0.60545 1.36582 0
M  V30 1125 H 102.9 -0.992437 4.09547 0
M  V30 1126 H 101.575 -1.33392 2.94938 0
M  V30 1127 H 100.482 0.879275 3.6362 0
M  V30 1128 H 101.815 1.13771 4.78871 0
M  V30 1129 N 103.467 -1.45747 0.599634 0
M  V30 1130 C 104.692 -2.07178 0.0960198 0
M  V30 1131 C 105.117 -1.44268 -1.207 0
M  V30 1132 O 104.475 -0.532503 -1.73303 0
M  V30 1133 C 104.523 -3.60579 -0.0385348 0
M  V30 1134 O 103.627 -3.97713 -1.0908 0
M  V30 1135 H 102.968 -0.660251 0.0704593 0
M  V30 1136 H 105.498 -1.87124 0.827385 0
M  V30 1137 H 105.508 -4.07298 -0.239304 0
M  V30 1138 H 104.183 -4.05756 0.912947 0
M  V30 1139 H 102.76 -3.62678 -0.867135 0
M  V30 1140 N 104.945 -0.338344 -1.53925 0
M  V30 1141 C 105.878 0.563758 -2.21127 0
M  V30 1142 C 106.856 1.10433 -1.19345 0
M  V30 1143 O 108.04 1.16557 -1.48144 0
M  V30 1144 C 105.167 1.77505 -2.88461 0
M  V30 1145 C 104.213 1.3644 -4.04087 0
M  V30 1146 S 105.046 0.388593 -5.34088 0
M  V30 1147 C 106.202 1.60683 -6.04923 0
M  V30 1148 H 106.435 -0.00704546 -2.97299 0
M  V30 1149 H 103.968 -0.122418 -1.53914 0
M  V30 1150 H 105.926 2.46999 -3.27875 0
M  V30 1151 H 104.587 2.31706 -2.12064 0
M  V30 1152 H 103.78 2.26739 -4.50117 0
M  V30 1153 H 103.382 0.748998 -3.66423 0
M  V30 1154 H 105.674 2.54209 -6.28 0
M  V30 1155 H 106.617 1.18842 -6.98056 0
M  V30 1156 H 107.025 1.80052 -5.35015 0
M  V30 1157 N 106.423 1.57458 -0.0668435 0
M  V30 1158 C 107.839 1.56947 0.289772 0
M  V30 1159 C 108.039 1.07584 1.70376 0
M  V30 1160 O 107.095 0.739486 2.41429 0
M  V30 1161 C 108.408 3.0052 0.103943 0
M  V30 1162 C 109.956 3.12517 0.173857 0
M  V30 1163 C 110.431 4.57997 0.0163682 0
M  V30 1164 N 111.922 4.63144 0.0721352 0
M  V30 1165 C 112.657 5.73394 -0.0253794 0
M  V30 1166 N 112.153 6.92576 -0.176133 0
M  V30 1167 N 113.946 5.62091 0.0313305 0
M  V30 1168 H 106.097 1.87863 -0.991027 0
M  V30 1169 H 108.36 0.86583 -0.38606 0
M  V30 1170 H 108.066 3.40729 -0.871572 0
M  V30 1171 H 107.94 3.67304 0.858366 0
M  V30 1172 H 110.327 2.72197 1.13985 0
M  V30 1173 H 110.408 2.48381 -0.611586 0
M  V30 1174 H 110.052 4.99005 -0.946374 0
M  V30 1175 H 109.982 5.20158 0.821153 0
M  V30 1176 H 112.473 3.77436 0.187263 0
M  V30 1177 H 112.786 7.72418 -0.242821 0
M  V30 1178 H 111.131 6.94678 -0.211429 0
M  V30 1179 H 114.322 4.67867 0.147773 0
M  V30 1180 H 114.495 6.47982 -0.048121 0
M  V30 1181 N 107.901 -0.206675 1.56239 0
M  V30 1182 C 108.811 -1.27686 1.96808 0
M  V30 1183 C 109.827 -1.50455 0.874035 0
M  V30 1184 O 111.003 -1.63295 1.17884 0
M  V30 1185 C 108.068 -2.60358 2.28942 0
M  V30 1186 C 107.129 -2.45762 3.51994 0
M  V30 1187 C 106.362 -3.72108 3.82585 0
M  V30 1188 O 106.585 -4.75776 3.14631 0
M  V30 1189 O 105.519 -3.6833 4.76043 0
M  V30 1190 H 109.345 -0.962593 2.88041 0
M  V30 1191 H 106.93 -0.410746 1.43643 0
M  V30 1192 H 108.812 -3.38687 2.50737 0
M  V30 1193 H 107.487 -2.91435 1.4088 0
M  V30 1194 H 106.394 -1.65584 3.35459 0
M  V30 1195 H 107.727 -2.19621 4.40486 0
M  V30 1196 N 109.379 -1.50304 -0.473955 0
M  V30 1197 C 110.289 -1.7174 -1.5982 0
M  V30 1198 C 111.305 -0.600457 -1.63311 0
M  V30 1199 O 112.481 -0.878441 -1.81233 0
M  V30 1200 C 109.546 -1.80427 -2.96052 0
M  V30 1201 C 108.607 -3.04148 -3.02972 0
M  V30 1202 C 107.84 -3.12411 -4.32706 0
M  V30 1203 O 108.063 -2.27542 -5.23049 0
M  V30 1204 O 106.997 -4.05113 -4.45159 0
M  V30 1205 H 110.823 -2.67035 -1.44657 0
M  V30 1206 H 108.408 -1.34366 -0.653148 0
M  V30 1207 H 110.29 -1.88338 -3.7697 0
M  V30 1208 H 108.965 -0.883156 -3.11419 0
M  V30 1209 H 107.872 -3.0174 -2.21142 0
M  V30 1210 H 109.205 -3.95829 -2.92541 0
M  V30 1211 N 110.857 0.726932 -1.39834 0
M  V30 1212 C 112.087 1.51393 -1.40583 0
M  V30 1213 C 112.495 1.892 -0.000740625 0
M  V30 1214 O 111.838 1.55189 0.982951 0
M  V30 1215 C 111.9 2.82588 -2.22226 0
M  V30 1216 C 111.564 2.67169 -3.70769 0
M  V30 1217 C 112.561 2.3518 -4.63666 0
M  V30 1218 C 110.246 2.83788 -4.14451 0
M  V30 1219 C 112.24 2.20002 -5.98229 0
M  V30 1220 C 109.927 2.68229 -5.49087 0
M  V30 1221 C 110.925 2.36382 -6.4079 0
M  V30 1222 O 110.613 2.2093 -7.72946 0
M  V30 1223 H 110.345 0.474168 -0.48181 0
M  V30 1224 H 112.899 0.905247 -1.84376 0
M  V30 1225 H 111.129 3.45746 -1.73195 0
M  V30 1226 H 112.818 3.44247 -2.15055 0
M  V30 1227 H 113.584 2.21984 -4.31217 0
M  V30 1228 H 109.463 3.07566 -3.43401 0
M  V30 1229 H 113.007 1.95067 -6.69772 0
M  V30 1230 H 108.904 2.81006 -5.81125 0
M  V30 1231 H 109.672 2.35937 -7.83757 0
M  V30 1232 N 112.336 1.25143 0.95797 0
M  V30 1233 C 113.752 1.01892 1.22842 0
M  V30 1234 C 113.952 -0.266311 1.99732 0
M  V30 1235 O 113.008 -0.979913 2.3271 0
M  V30 1236 C 114.321 2.24004 2.00606 0
M  V30 1237 C 115.869 2.28731 2.13662 0
M  V30 1238 C 116.344 3.5049 2.94823 0
M  V30 1239 N 117.835 3.50866 3.02403 0
M  V30 1240 C 118.57 4.4174 3.65586 0
M  V30 1241 N 118.066 5.42882 4.30408 0
M  V30 1242 N 119.859 4.29429 3.62694 0
M  V30 1243 H 112.01 2.07718 0.443493 0
M  V30 1244 H 114.273 0.912031 0.258657 0
M  V30 1245 H 113.979 3.17395 1.51503 0
M  V30 1246 H 113.853 2.26907 3.01319 0
M  V30 1247 H 116.24 1.35865 2.61963 0
M  V30 1248 H 116.321 2.29848 1.12265 0
M  V30 1249 H 115.965 4.43676 2.47213 0
M  V30 1250 H 115.895 3.46617 3.96439 0
M  V30 1251 H 118.386 2.777 2.56302 0
M  V30 1252 H 118.699 6.0844 4.76467 0
M  V30 1253 H 117.044 5.46758 4.29047 0
M  V30 1254 H 120.235 3.49643 3.11236 0
M  V30 1255 H 120.408 5.00448 4.1165 0
M  V30 1256 N 113.814 -1.1601 1.06675 0
M  V30 1257 C 114.761 -2.20525 0.680967 0
M  V30 1258 C 115.731 -1.62904 -0.324283 0
M  V30 1259 O 116.916 -1.89615 -0.212294 0
M  V30 1260 C 114.056 -3.45013 0.0776551 0
M  V30 1261 C 113.169 -4.16863 1.13355 0
M  V30 1262 C 112.304 -5.2888 0.49597 0
M  V30 1263 C 111.343 -5.92537 1.53513 0
M  V30 1264 N 110.48 -6.96038 0.920631 0
M  V30 1265 H 115.32 -2.52876 1.57663 0
M  V30 1266 H 112.857 -1.24199 0.788223 0
M  V30 1267 H 114.815 -4.16193 -0.289704 0
M  V30 1268 H 113.445 -3.132 -0.781393 0
M  V30 1269 H 112.497 -3.44248 1.61857 0
M  V30 1270 H 113.809 -4.60294 1.92174 0
M  V30 1271 H 112.963 -6.06653 0.0758604 0
M  V30 1272 H 111.702 -4.86622 -0.324062 0
M  V30 1273 H 110.707 -5.13482 1.9651 0
M  V30 1274 H 111.932 -6.36873 2.35733 0
M  V30 1275 H 109.878 -6.55888 0.12138 0
M  V30 1276 H 109.795 -7.3786 1.64616 0
M  V30 1277 H 111.063 -7.77725 0.525795 0
M  V30 1278 N 115.292 -0.849877 -1.32721 0
M  V30 1279 C 116.202 -0.293791 -2.32753 0
M  V30 1280 C 117.218 0.585906 -1.63839 0
M  V30 1281 O 118.394 0.487413 -1.95413 0
M  V30 1282 C 115.459 0.512752 -3.42887 0
M  V30 1283 C 114.52 -0.39252 -4.27502 0
M  V30 1284 C 113.753 0.375625 -5.32377 0
M  V30 1285 O 113.976 1.60613 -5.4732 0
M  V30 1286 O 112.91 -0.256094 -6.01355 0
M  V30 1287 H 116.736 -1.12242 -2.82197 0
M  V30 1288 H 114.321 -0.612685 -1.36259 0
M  V30 1289 H 116.203 0.970704 -4.10067 0
M  V30 1290 H 114.878 1.31826 -2.95641 0
M  V30 1291 H 113.785 -0.898547 -3.63149 0
M  V30 1292 H 115.118 -1.16309 -4.7826 0
M  V30 1293 N 116.77 1.45427 -0.607355 0
M  V30 1294 C 117.702 2.2871 0.149752 0
M  V30 1295 C 118.715 1.39937 0.831958 0
M  V30 1296 O 119.904 1.64313 0.697385 0
M  V30 1297 C 117.004 3.15673 1.23304 0
M  V30 1298 C 116.177 4.32722 0.637996 0
M  V30 1299 C 115.236 5.00895 1.61215 0
M  V30 1300 O 114.262 5.57697 1.13854 0
M  V30 1301 N 115.464 5.00159 2.94655 0
M  V30 1302 H 118.229 2.94328 -0.564882 0
M  V30 1303 H 115.79 1.55612 -0.446823 0
M  V30 1304 H 117.782 3.58144 1.88454 0
M  V30 1305 H 116.352 2.51965 1.8502 0
M  V30 1306 H 115.572 3.93734 -0.191572 0
M  V30 1307 H 116.86 5.08321 0.220665 0
M  V30 1308 H 116.258 4.553 3.35735 0
M  V30 1309 H 114.815 5.46495 3.55228 0
M  V30 1310 N 118.248 0.346503 1.53744 0
M  V30 1311 C 119.18 -0.543316 2.22667 0
M  V30 1312 C 120.193 -1.06159 1.23427 0
M  V30 1313 O 121.382 -0.971235 1.49764 0
M  V30 1314 C 118.482 -1.76076 2.89569 0
M  V30 1315 C 117.655 -1.37727 4.15151 0
M  V30 1316 C 116.714 -2.45471 4.65436 0
M  V30 1317 O 115.74 -2.08655 5.29577 0
M  V30 1318 N 116.942 -3.7677 4.41616 0
M  V30 1319 H 119.707 0.0469703 2.99663 0
M  V30 1320 H 117.268 0.170766 1.60997 0
M  V30 1321 H 119.26 -2.47593 3.20125 0
M  V30 1322 H 117.83 -2.25835 2.16142 0
M  V30 1323 H 117.05 -0.492746 3.91108 0
M  V30 1324 H 118.338 -1.09708 4.96832 0
M  V30 1325 H 117.736 -4.09467 3.90325 0
M  V30 1326 H 116.293 -4.44448 4.7677 0
M  V30 1327 N 119.726 -1.57421 0.075193 0
M  V30 1328 C 120.951 -1.98364 -0.605515 0
M  V30 1329 C 121.376 -0.953383 -1.62149 0
M  V30 1330 O 120.734 0.0806053 -1.81121 0
M  V30 1331 C 120.782 -3.38332 -1.24756 0
M  V30 1332 O 119.886 -3.37959 -2.36342 0
M  V30 1333 H 119.227 -0.645553 -0.155428 0
M  V30 1334 H 121.757 -2.04044 0.150714 0
M  V30 1335 H 121.767 -3.75591 -1.5936 0
M  V30 1336 H 120.442 -4.12846 -0.503129 0
M  V30 1337 H 119.019 -3.12474 -2.03506 0
M  V30 1338 N 121.204 0.198386 -1.56346 0
M  V30 1339 C 122.167 1.22952 -1.93431 0
M  V30 1340 C 123.167 1.38611 -0.815092 0
M  V30 1341 O 124.357 1.36479 -1.08255 0
M  V30 1342 C 121.489 2.59946 -2.20546 0
M  V30 1343 H 122.682 0.912626 -2.85677 0
M  V30 1344 H 120.235 0.43977 -1.49986 0
M  V30 1345 H 120.97 2.96696 -1.30927 0
M  V30 1346 H 120.755 2.49953 -3.02102 0
M  V30 1347 H 122.245 3.3431 -2.50253 0
M  V30 1348 N 122.682 1.50554 0.465978 0
M  V30 1349 C 123.928 1.62038 1.21949 0
M  V30 1350 C 124.261 0.322116 1.9151 0
M  V30 1351 O 123.536 -0.676723 1.82348 0
M  V30 1352 C 123.819 2.80421 2.25912 0
M  V30 1353 C 123.672 4.20144 1.60622 0
M  V30 1354 C 124.991 2.94354 3.27176 0
M  V30 1355 H 122.11 0.589752 0.441998 0
M  V30 1356 H 124.752 1.82956 0.51257 0
M  V30 1357 H 122.902 2.62717 2.86203 0
M  V30 1358 H 124.574 4.49449 1.03889 0
M  V30 1359 H 122.817 4.24165 0.909211 0
M  V30 1360 H 123.488 4.98914 2.36196 0
M  V30 1361 H 125.964 3.10578 2.76913 0
M  V30 1362 H 124.84 3.788 3.97242 0
M  V30 1363 H 125.101 2.05186 3.916 0
M  V30 1364 N 124.16 -0.719506 1.40217 0
M  V30 1365 C 125.437 -1.47221 1.28784 0
M  V30 1366 C 125.817 -2.10883 -0.0956067 0
M  V30 1367 O 125.165 -1.99833 -1.10811 0
M  V30 1368 C 125.375 -2.5111 2.42373 0
M  V30 1369 C 126.723 -3.17053 2.82423 0
M  V30 1370 O 127.747 -2.61429 2.41937 0
M  V30 1371 O 126.606 -4.17742 3.52355 0
M  V30 1372 H 123.7 -0.654491 0.50554 0
M  V30 1373 H 126.246 -0.752014 1.52128 0
M  V30 1374 H 125.018 -2.02556 3.34793 0
M  V30 1375 H 124.641 -3.3067 2.20778 0
M  V30 1376 N 125.638 -1.25649 -0.95132 0
M  V30 1377 C 126.601 -1.06399 -2.03007 0
M  V30 1378 C 127.601 -0.0156794 -1.60792 0
M  V30 1379 O 128.791 -0.25817 -1.72276 0
M  V30 1380 C 125.923 -0.616184 -3.35285 0
M  V30 1381 H 127.116 -2.02164 -2.21517 0
M  V30 1382 H 124.669 -1.08103 -1.12887 0
M  V30 1383 H 125.404 0.343917 -3.22471 0
M  V30 1384 H 125.189 -1.37301 -3.67275 0
M  V30 1385 H 126.679 -0.503032 -4.14559 0
M  V30 1386 N 127.117 1.15442 -1.07289 0
M  V30 1387 C 128.394 1.82306 -0.708792 0
M  V30 1388 C 128.774 1.94991 0.808807 0
M  V30 1389 O 128.122 1.50085 1.72298 0
M  V30 1390 C 128.332 3.18695 -1.42247 0
M  V30 1391 C 129.68 3.94341 -1.57417 0
M  V30 1392 O 130.704 3.28247 -1.38319 0
M  V30 1393 O 129.563 5.12839 -1.88834 0
M  V30 1394 H 126.657 0.787628 -0.252132 0
M  V30 1395 H 129.203 1.22559 -1.17377 0
M  V30 1396 H 127.975 3.04557 -2.45684 0
M  V30 1397 H 127.598 3.86128 -0.948223 0
M  V30 1398 N 128.595 0.856903 1.32268 0
M  V30 1399 C 129.872 0.382583 1.91822 0
M  V30 1400 C 130.252 -1.13407 1.78051 0
M  V30 1401 O 129.6 -1.95673 1.18001 0
M  V30 1402 C 129.81 0.849446 3.38505 0
M  V30 1403 C 131.158 0.867936 4.15634 0
M  V30 1404 O 132.182 0.794232 3.47232 0
M  V30 1405 O 131.041 0.972286 5.37781 0
M  V30 1406 H 128.135 0.112014 0.819379 0
M  V30 1407 H 130.681 0.943952 1.41024 0
M  V30 1408 H 129.453 1.89267 3.42482 0
M  V30 1409 H 129.076 0.265652 3.96712 0
M  V30 1410 N 130.073 -1.45103 0.615059 0
M  V30 1411 C 131.298 -2.07064 0.117988 0
M  V30 1412 C 131.723 -1.4554 -1.19163 0
M  V30 1413 O 131.081 -0.550855 -1.72729 0
M  V30 1414 C 131.129 -3.606 -0.000288387 0
M  V30 1415 O 130.233 -3.98847 -1.04856 0
M  V30 1416 H 129.574 -0.659467 0.0774581 0
M  V30 1417 H 132.104 -1.86236 0.847186 0
M  V30 1418 H 132.114 -4.07529 -0.196091 0
M  V30 1419 H 130.789 -4.04765 0.955932 0
M  V30 1420 H 129.366 -3.63577 -0.828619 0
M  V30 1421 N 131.551 -0.354651 -1.53558 0
M  V30 1422 C 132.501 0.513179 -2.2215 0
M  V30 1423 C 133.485 1.05734 -1.21281 0
M  V30 1424 O 134.677 0.989202 -1.46778 0
M  V30 1425 C 131.806 1.65798 -3.00609 0
M  V30 1426 C 130.892 1.12722 -4.08845 0
M  V30 1427 N 131.283 0.318563 -5.04796 0
M  V30 1428 C 129.581 1.40307 -4.23356 0
M  V30 1429 C 130.282 0.0292224 -5.81693 0
M  V30 1430 N 129.258 0.623891 -5.40008 0
M  V30 1431 H 133.06 -0.111586 -2.93688 0
M  V30 1432 H 130.574 -0.162091 -1.61589 0
M  V30 1433 H 132.571 2.29176 -3.48258 0
M  V30 1434 H 131.231 2.28591 -2.306 0
M  V30 1435 H 132.242 -0.0413091 -5.17884 0
M  V30 1436 H 128.919 2.03458 -3.6457 0
M  V30 1437 H 130.309 -0.623808 -6.68998 0
M  V30 1438 N 133.029 1.57378 -0.0835403 0
M  V30 1439 C 134.276 1.9393 0.58287 0
M  V30 1440 C 134.604 0.964455 1.68904 0
M  V30 1441 O 133.859 -0.0179474 1.95692 0
M  V30 1442 C 134.158 3.37063 1.1884 0
M  V30 1443 C 133.824 4.50424 0.207194 0
M  V30 1444 C 132.486 4.81159 -0.0627115 0
M  V30 1445 C 134.838 5.19136 -0.463426 0
M  V30 1446 C 132.166 5.77939 -1.01012 0
M  V30 1447 C 134.518 6.16931 -1.39924 0
M  V30 1448 C 133.182 6.46078 -1.67749 0
M  V30 1449 H 132.452 0.70964 0.213287 0
M  V30 1450 H 135.099 1.90856 -0.156916 0
M  V30 1451 H 133.404 3.3666 2.00418 0
M  V30 1452 H 135.101 3.6264 1.71153 0
M  V30 1453 H 131.691 4.2646 0.427747 0
M  V30 1454 H 135.875 4.95576 -0.268034 0
M  V30 1455 H 131.131 5.98842 -1.23283 0
M  V30 1456 H 135.305 6.69273 -1.92476 0
M  V30 1457 H 132.932 7.2088 -2.41321 0
M  V30 1458 N 134.507 -0.190092 1.56449 0
M  V30 1459 C 135.753 -0.911052 1.81184 0
M  V30 1460 C 136.086 -1.82699 0.658396 0
M  V30 1461 O 135.361 -1.91491 -0.340775 0
M  V30 1462 C 135.644 -1.72297 3.16205 0
M  V30 1463 C 135.497 -0.831419 4.42049 0
M  V30 1464 C 136.816 -2.69454 3.47969 0
M  V30 1465 H 133.935 -0.32977 0.659106 0
M  V30 1466 H 136.577 -0.178169 1.89163 0
M  V30 1467 H 134.727 -2.34778 3.09534 0
M  V30 1468 H 136.399 -0.220929 4.60771 0
M  V30 1469 H 134.642 -0.138406 4.33579 0
M  V30 1470 H 135.313 -1.43461 5.33032 0
M  V30 1471 H 137.789 -2.17104 3.54972 0
M  V30 1472 H 136.665 -3.23342 4.43555 0
M  V30 1473 H 136.926 -3.48744 2.71717 0
M  V30 1474 N 135.985 -1.50799 -0.457987 0
M  V30 1475 C 137.21 -1.66496 -1.23668 0
M  V30 1476 C 137.635 -0.353288 -1.84752 0
M  V30 1477 O 136.993 0.684346 -1.67888 0
M  V30 1478 C 137.041 -2.76763 -2.3116 0
M  V30 1479 O 136.145 -2.38928 -3.36136 0
M  V30 1480 H 135.486 -0.555828 -0.363252 0
M  V30 1481 H 138.016 -1.9725 -0.543474 0
M  V30 1482 H 138.026 -3.00232 -2.76269 0
M  V30 1483 H 136.701 -3.71954 -1.86073 0
M  V30 1484 H 135.278 -2.25953 -2.96647 0
M  V30 1485 N 137.463 0.71206 -1.40597 0
M  V30 1486 C 138.712 1.46754 -1.38369 0
M  V30 1487 C 139.025 1.95598 0.0097839 0
M  V30 1488 O 140.231 2.71059 0.154677 0
M  V30 1489 C 138.687 2.65289 -2.43207 0
M  V30 1490 C 138.295 2.23301 -3.88382 0
M  V30 1491 C 140.039 3.43008 -2.50091 0
M  V30 1492 C 137.946 3.38696 -4.84808 0
M  V30 1493 H 136.876 0.55118 -0.514506 0
M  V30 1494 H 139.527 0.774616 -1.66349 0
M  V30 1495 H 137.909 3.36769 -2.08332 0
M  V30 1496 H 139.083 1.59218 -4.32419 0
M  V30 1497 H 137.398 1.58618 -3.85006 0
M  V30 1498 H 139.995 4.28881 -3.1932 0
M  V30 1499 H 140.338 3.87065 -1.53253 0
M  V30 1500 H 140.871 2.78574 -2.83974 0
M  V30 1501 H 137.61 2.99668 -5.82992 0
M  V30 1502 H 137.13 4.01683 -4.45433 0
M  V30 1503 H 138.809 4.04712 -5.04794 0
M  V30 1504 N 138.941 1.26152 0.944643 0
M  V30 1505 C 139.851 1.09176 2.07648 0
M  V30 1506 C 140.867 0.0261935 1.7398 0
M  V30 1507 O 142.043 0.229208 2.00091 0
M  V30 1508 C 139.108 0.722915 3.39079 0
M  V30 1509 C 138.169 1.86752 3.86552 0
M  V30 1510 C 137.402 1.51617 5.11711 0
M  V30 1511 O 137.625 0.416331 5.68879 0
M  V30 1512 O 136.559 2.34975 5.54139 0
M  V30 1513 H 140.385 2.0412 2.24875 0
M  V30 1514 H 137.97 1.05182 1.061 0
M  V30 1515 H 139.852 0.529787 4.18056 0
M  V30 1516 H 138.527 -0.197159 3.23099 0
M  V30 1517 H 137.434 2.11558 3.08535 0
M  V30 1518 H 138.767 2.76719 4.07047 0
M  V30 1519 N 140.419 -1.14872 1.07899 0
M  V30 1520 C 141.349 -2.2193 0.725887 0
M  V30 1521 C 142.33 -1.67622 -0.28927 0
M  V30 1522 O 143.515 -1.93533 -0.160787 0
M  V30 1523 C 140.645 -3.47061 0.128856 0
M  V30 1524 C 139.599 -4.14363 1.07178 0
M  V30 1525 C 138.925 -5.33636 0.337229 0
M  V30 1526 C 140.225 -4.63492 2.40775 0
M  V30 1527 H 141.919 -2.51724 1.62097 0
M  V30 1528 H 139.465 -1.20991 0.780838 0
M  V30 1529 H 141.418 -4.21199 -0.130147 0
M  V30 1530 H 140.142 -3.16617 -0.80134 0
M  V30 1531 H 138.801 -3.42173 1.3158 0
M  V30 1532 H 138.449 -4.99449 -0.596606 0
M  V30 1533 H 138.149 -5.79609 0.965788 0
M  V30 1534 H 139.673 -6.10539 0.0861567 0
M  V30 1535 H 141.087 -5.2913 2.20669 0
M  V30 1536 H 139.484 -5.20148 2.99276 0
M  V30 1537 H 140.554 -3.78834 3.02676 0
M  V30 1538 N 141.898 -0.863906 -1.31812 0
M  V30 1539 C 142.808 -0.318461 -2.32428 0
M  V30 1540 C 143.824 0.568496 -1.64451 0
M  V30 1541 O 145 0.46666 -1.95919 0
M  V30 1542 C 142.065 0.476355 -3.43412 0
M  V30 1543 C 141.126 -0.43784 -4.27061 0
M  V30 1544 C 140.359 0.319138 -5.32745 0
M  V30 1545 O 140.582 1.54799 -5.48993 0
M  V30 1546 O 139.516 -0.319861 -6.01049 0
M  V30 1547 H 143.342 -1.15229 -2.80991 0
M  V30 1548 H 140.927 -0.627103 -1.35602 0
M  V30 1549 H 142.809 0.927156 -4.11074 0
M  V30 1550 H 141.484 1.28683 -2.97022 0
M  V30 1551 H 140.391 -0.937013 -3.62175 0
M  V30 1552 H 141.724 -1.21375 -4.77 0
M  V30 1553 O 143.415 1.42347 -0.762857 0
M  V30 1554 H 144.106 1.90974 -0.323817 0
M  V30 END ATOM
M  V30 BEGIN BOND
M  V30 END BOND
M  V30 END CTAB
M  END
$$$$
