drugbank_target|P47870 Gamma-aminobutyric acid receptor subunit beta-2 (DB00186; DB00189; DB00228; DB00231; DB00237; DB00241; DB00252; DB00292; DB00306; DB00312; DB00349; DB00371; DB00402; DB00404; DB00463; DB00475; DB00543; DB00546; DB00555; DB00603; DB00628; DB00659; DB00683; DB00690; DB00753; DB00794; DB00801; DB00818; DB00829; DB00842; DB00897; DB01028; DB01043; DB01068; DB01107; DB01159; DB01189; DB01205; DB01215; DB01236; DB01437; DB01489; DB01511; DB01544; DB01545; DB01553; DB01558; DB01559; DB01587; DB01588; DB01589; DB01594; DB01595; DB01708; DB01956; DB09017; DB09118; DB09166; DB11582; DB11859; DB11901; DB12404; DB12537; DB13335; DB13437; DB13643; DB13837; DB13872; DB14028; DB14672; DB14715; DB14719; DB15489)
 OpenBabel12092120093D

  0  0  0     0  0            999 V3000
M  V30 BEGIN CTAB
M  V30 COUNTS 8366 8467 0 0 0
M  V30 BEGIN ATOM
M  V30 1 H -0.908 1.98254 -0.117106 0
M  V30 2 N 0 1.576 0 0
M  V30 3 C 0.933 2.03868 1.02534 0
M  V30 4 C 1.911 0.928543 1.3348 0
M  V30 5 O 3.095 1.19667 1.45644 0
M  V30 6 C 0.222 2.43627 2.35294 0
M  V30 7 C -0.732 3.65373 2.2001 0
M  V30 8 S 0.101 5.13292 1.52614 0
M  V30 9 C 1.257 5.56322 2.86805 0
M  V30 10 H 1.49 2.90518 0.631377 0
M  V30 11 H -0.977 1.52953 0.210867 0
M  V30 12 H 0.981 2.67203 3.11629 0
M  V30 13 H -0.358 1.57376 2.7183 0
M  V30 14 H -1.165 3.90944 3.18086 0
M  V30 15 H -1.563 3.418 1.51819 0
M  V30 16 H 0.729 5.58782 3.83104 0
M  V30 17 H 1.672 6.56266 2.65933 0
M  V30 18 H 2.08 4.83886 2.90714 0
M  V30 19 N 1.4781 -0.272755 1.55222 0
M  V30 20 C 2.7241 -1.00172 1.77023 0
M  V30 21 C 3.0791 -1.83928 0.564633 0
M  V30 22 O 2.3721 -1.86416 -0.442674 0
M  V30 23 C 2.5661 -1.91642 3.01675 0
M  V30 24 C 2.3951 -1.16888 4.34243 0
M  V30 25 C 1.1651 -0.884464 4.97499 0
M  V30 26 C 3.3631 -0.55919 5.11251 0
M  V30 27 N 1.3451 -0.11015 6.13801 0
M  V30 28 C 2.7161 0.0809469 6.19947 0
M  V30 29 C 4.7711 -0.467058 4.95705 0
M  V30 30 C 3.4741 0.804335 7.14789 0
M  V30 31 C 5.5001 0.242739 5.90902 0
M  V30 32 C 4.8621 0.871613 6.98987 0
M  V30 33 H 0.9611 -0.348529 0.700037 0
M  V30 34 H 3.5451 -0.277365 1.92714 0
M  V30 35 H 1.7161 -2.61303 2.87359 0
M  V30 36 H 3.4481 -2.57901 3.1188 0
M  V30 37 H 0.2031 -1.18979 4.58411 0
M  V30 38 H 0.6271 0.264344 6.76484 0
M  V30 39 H 5.2691 -0.93894 4.12242 0
M  V30 40 H 2.9871 1.2879 7.97771 0
M  V30 41 H 6.5731 0.314347 5.8095 0
M  V30 42 H 5.4531 1.4121 7.71381 0
M  V30 43 N 2.9562 -1.48159 -0.537278 0
M  V30 44 C 4.3722 -1.34118 -0.865129 0
M  V30 45 C 4.5722 -0.346678 -1.98495 0
M  V30 46 O 3.6282 0.234715 -2.51407 0
M  V30 47 C 4.9412 -2.73963 -1.23954 0
M  V30 48 C 6.4892 -2.82397 -1.34984 0
M  V30 49 C 6.9642 -4.22928 -1.75772 0
M  V30 50 N 8.4552 -4.25566 -1.82887 0
M  V30 51 C 9.1902 -5.31235 -2.15817 0
M  V30 52 N 8.6862 -6.47189 -2.47222 0
M  V30 53 N 10.4792 -5.18624 -2.16761 0
M  V30 54 H 2.6302 -2.1144 0.201715 0
M  V30 55 H 4.8932 -0.947598 0.0275949 0
M  V30 56 H 4.5992 -3.48264 -0.490381 0
M  V30 57 H 4.4732 -3.0702 -2.19132 0
M  V30 58 H 6.8602 -2.08356 -2.08978 0
M  V30 59 H 6.9412 -2.5297 -0.379448 0
M  V30 60 H 6.5852 -4.97482 -1.02341 0
M  V30 61 H 6.5152 -4.49794 -2.73848 0
M  V30 62 H 9.0062 -3.41924 -1.60924 0
M  V30 63 H 9.3192 -7.23564 -2.71433 0
M  V30 64 H 7.6642 -6.50476 -2.44757 0
M  V30 65 H 10.8552 -4.27056 -1.91679 0
M  V30 66 H 11.0282 -6.01078 -2.42093 0
M  V30 67 N 4.4343 0.785586 -1.36625 0
M  V30 68 C 5.6803 1.54591 -1.31261 0
M  V30 69 C 6.0133 1.93906 0.106823 0
M  V30 70 O 5.2883 1.63007 1.06108 0
M  V30 71 C 5.5713 2.82038 -2.23889 0
M  V30 72 C 5.4243 2.49066 -3.74548 0
M  V30 73 C 6.7433 3.83887 -2.15217 0
M  V30 74 H 3.8623 0.560846 -0.478143 0
M  V30 75 H 6.5043 0.902278 -1.67209 0
M  V30 76 H 4.6543 3.36961 -1.93363 0
M  V30 77 H 6.3263 2.00164 -4.15611 0
M  V30 78 H 4.5693 1.81954 -3.93796 0
M  V30 79 H 5.2403 3.40109 -4.34776 0
M  V30 80 H 7.7163 3.38421 -2.42096 0
M  V30 81 H 6.5923 4.70806 -2.82193 0
M  V30 82 H 6.8533 4.27131 -1.14068 0
M  V30 83 N 5.9124 1.20967 1.01018 0
M  V30 84 C 7.3284 0.965905 1.27053 0
M  V30 85 C 7.5284 -0.350785 1.98423 0
M  V30 86 O 6.5844 -1.07773 2.28344 0
M  V30 87 C 7.8974 2.15294 2.09926 0
M  V30 88 C 9.4454 2.19463 2.23171 0
M  V30 89 C 9.9204 3.3767 3.09424 0
M  V30 90 N 11.4114 3.37724 3.17012 0
M  V30 91 C 12.1464 4.25837 3.83993 0
M  V30 92 N 11.6424 5.24138 4.53047 0
M  V30 93 N 13.4354 4.1366 3.80581 0
M  V30 94 H 5.5864 2.0565 0.531194 0
M  V30 95 H 7.8494 0.90024 0.297106 0
M  V30 96 H 7.5554 3.10684 1.64828 0
M  V30 97 H 7.4294 2.13923 3.10672 0
M  V30 98 H 9.8164 1.24632 2.6749 0
M  V30 99 H 9.8974 2.2488 1.21912 0
M  V30 100 H 9.5414 4.32791 2.65808 0
M  V30 101 H 9.4714 3.29491 4.10784 0
M  V30 102 H 11.9624 2.6658 2.6785 0
M  V30 103 H 12.2754 5.87684 5.01844 0
M  V30 104 H 10.6204 5.28068 4.5185 0
M  V30 105 H 13.8114 3.36127 3.25785 0
M  V30 106 H 13.9844 4.82538 4.32505 0
M  V30 107 N 7.3905 -1.2043 1.01659 0
M  V30 108 C 8.3375 -2.23215 0.586822 0
M  V30 109 C 9.3075 -1.61382 -0.393085 0
M  V30 110 O 10.4925 -1.88544 -0.292525 0
M  V30 111 C 7.6325 -3.45032 -0.0687464 0
M  V30 112 C 6.7455 -4.21296 0.955724 0
M  V30 113 C 5.8805 -5.30507 0.271208 0
M  V30 114 C 4.9195 -5.98515 1.28244 0
M  V30 115 N 4.0565 -6.99316 0.62459 0
M  V30 116 H 8.8965 -2.59336 1.46796 0
M  V30 117 H 6.4335 -1.27431 0.734836 0
M  V30 118 H 8.3915 -4.1459 -0.465965 0
M  V30 119 H 7.0215 -3.09604 -0.913529 0
M  V30 120 H 6.0735 -3.50803 1.4711 0
M  V30 121 H 7.3855 -4.6803 1.72479 0
M  V30 122 H 6.5395 -6.06428 -0.18151 0
M  V30 123 H 5.2785 -4.8481 -0.530163 0
M  V30 124 H 4.2835 -5.21355 1.74554 0
M  V30 125 H 5.5085 -6.46298 2.08509 0
M  V30 126 H 3.4545 -6.55812 -0.156914 0
M  V30 127 H 3.3715 -7.44178 1.33172 0
M  V30 128 H 4.6395 -7.79255 0.195462 0
M  V30 129 N 8.8686 -0.792821 -1.36206 0
M  V30 130 C 10.2846 -0.474903 -1.52371 0
M  V30 131 C 10.4846 1.00622 -1.74578 0
M  V30 132 O 9.5406 1.79162 -1.77924 0
M  V30 133 C 10.8536 -1.3083 -2.70747 0
M  V30 134 C 12.4016 -1.30234 -2.84619 0
M  V30 135 C 12.8766 -2.11956 -4.06004 0
M  V30 136 N 14.3676 -2.09419 -4.13156 0
M  V30 137 C 15.1026 -2.69419 -5.06163 0
M  V30 138 N 14.5986 -3.3829 -6.04592 0
M  V30 139 N 16.3916 -2.59134 -4.98804 0
M  V30 140 H 8.5426 -1.75222 -1.20046 0
M  V30 141 H 10.8056 -0.745024 -0.586211 0
M  V30 142 H 10.5116 -2.35881 -2.6087 0
M  V30 143 H 10.3856 -0.95196 -3.6499 0
M  V30 144 H 12.7726 -0.259748 -2.93955 0
M  V30 145 H 12.8536 -1.69847 -1.91274 0
M  V30 146 H 12.4976 -3.16248 -3.97429 0
M  V30 147 H 12.4276 -1.69711 -4.98503 0
M  V30 148 H 14.9186 -1.59297 -3.42685 0
M  V30 149 H 15.2316 -3.81394 -6.7213 0
M  V30 150 H 13.5766 -3.42393 -6.04807 0
M  V30 151 H 16.7676 -2.04927 -4.20859 0
M  V30 152 H 16.9406 -3.06185 -5.711 0
M  V30 153 N 10.3467 1.47872 -0.545128 0
M  V30 154 C 11.5947 2.02093 -0.016553 0
M  V30 155 C 11.9157 1.42305 1.3332 0
M  V30 156 O 11.1857 0.593853 1.86682 0
M  V30 157 H 9.7657 0.746993 -0.00313038 0
M  V30 158 H 12.4277 1.81414 -0.712397 0
M  V30 159 H 11.5237 3.11996 0.0805422 0
M  V30 160 N 11.8248 0.280983 1.55075 0
M  V30 161 C 13.0548 -0.336804 2.03836 0
M  V30 162 C 13.4628 -1.49577 1.15859 0
M  V30 163 O 12.8058 -1.82888 0.172503 0
M  V30 164 C 12.8678 -0.874616 3.48699 0
M  V30 165 C 12.5318 0.156478 4.56732 0
M  V30 166 C 13.5288 0.978032 5.10618 0
M  V30 167 C 11.2138 0.292409 5.01448 0
M  V30 168 C 13.2078 1.92165 6.07743 0
M  V30 169 C 10.8948 1.23949 5.98398 0
M  V30 170 C 11.8928 2.05261 6.51427 0
M  V30 171 O 11.5808 2.98367 7.4648 0
M  V30 172 H 11.3128 -0.0800885 0.671239 0
M  V30 173 H 13.8668 0.412589 2.01213 0
M  V30 174 H 12.0968 -1.67418 3.4858 0
M  V30 175 H 13.7858 -1.40612 3.80766 0
M  V30 176 H 14.5518 0.883782 4.7688 0
M  V30 177 H 10.4308 -0.330498 4.59814 0
M  V30 178 H 13.9748 2.55672 6.49059 0
M  V30 179 H 9.8718 1.33454 6.31554 0
M  V30 180 H 10.6398 2.93116 7.64215 0
M  V30 181 N 13.3029 -1.57598 0.00835791 0
M  V30 182 C 14.5499 -1.90928 -0.674732 0
M  V30 183 C 14.8779 -0.88277 -1.73313 0
M  V30 184 O 14.1329 0.111294 -1.95383 0
M  V30 185 C 14.4319 -3.3101 -1.34787 0
M  V30 186 C 14.0979 -4.48922 -0.421861 0
M  V30 187 C 12.7599 -4.8091 -0.166927 0
M  V30 188 C 15.1119 -5.20755 0.215211 0
M  V30 189 C 12.4399 -5.821 0.733232 0
M  V30 190 C 14.7919 -6.22905 1.1033 0
M  V30 191 C 13.4559 -6.53346 1.36733 0
M  V30 192 H 12.7259 -0.698656 -0.246902 0
M  V30 193 H 15.3729 -1.91387 0.0656779 0
M  V30 194 H 13.6779 -3.26714 -2.16253 0
M  V30 195 H 15.3749 -3.54061 -1.8826 0
M  V30 196 H 11.9649 -4.23934 -0.630729 0
M  V30 197 H 16.1489 -4.9629 0.0312829 0
M  V30 198 H 11.4049 -6.04042 0.945712 0
M  V30 199 H 15.5789 -6.77694 1.60325 0
M  V30 200 H 13.2059 -7.31573 2.06652 0
M  V30 201 N 14.781 0.264519 -1.55364 0
M  V30 202 C 16.029 0.993021 -1.76021 0
M  V30 203 C 16.35 1.86511 -0.569099 0
M  V30 204 O 15.62 1.91438 0.415735 0
M  V30 205 H 14.2 0.369639 -0.649135 0
M  V30 206 H 16.862 0.286707 -1.9278 0
M  V30 207 H 15.958 1.62502 -2.66457 0
M  V30 208 N 16.2591 1.48442 0.529413 0
M  V30 209 C 17.5081 1.55742 1.28169 0
M  V30 210 C 17.8211 0.236511 1.94165 0
M  V30 211 O 19.0271 0.187761 2.7085 0
M  V30 212 C 17.4831 2.74667 2.32564 0
M  V30 213 C 17.0911 4.13402 1.72636 0
M  V30 214 C 18.8351 2.9128 3.08798 0
M  V30 215 C 16.7421 5.23587 2.74975 0
M  V30 216 H 15.6721 0.579796 0.48203 0
M  V30 217 H 18.3231 1.74776 0.559056 0
M  V30 218 H 16.7051 2.49067 3.07866 0
M  V30 219 H 17.8791 4.49022 1.03519 0
M  V30 220 H 16.1941 4.0191 1.08892 0
M  V30 221 H 18.7911 3.70767 3.85274 0
M  V30 222 H 19.1341 2.00757 3.64695 0
M  V30 223 H 19.6671 3.16782 2.40611 0
M  V30 224 H 16.4061 6.16076 2.23897 0
M  V30 225 H 15.9261 4.92454 3.42417 0
M  V30 226 H 17.6051 5.51724 3.37949 0
M  V30 227 N 17.7372 -0.778329 1.37039 0
M  V30 228 C 18.9832 -1.53817 1.33086 0
M  V30 229 C 19.3382 -1.92208 -0.0860346 0
M  V30 230 O 18.6312 -1.60713 -1.04316 0
M  V30 231 C 18.8252 -2.81845 2.19768 0
M  V30 232 C 18.6542 -2.55967 3.69744 0
M  V30 233 C 17.4242 -2.50428 4.38878 0
M  V30 234 C 19.6222 -2.2441 4.62758 0
M  V30 235 N 17.6042 -2.16564 5.74433 0
M  V30 236 C 18.9752 -2.0063 5.86641 0
M  V30 237 C 21.0302 -2.1051 4.5121 0
M  V30 238 C 19.7332 -1.64354 7.00272 0
M  V30 239 C 21.7592 -1.75634 5.64718 0
M  V30 240 C 21.1212 -1.52709 6.87648 0
M  V30 241 H 17.2202 -0.563434 0.542279 0
M  V30 242 H 19.8042 -0.908617 1.72198 0
M  V30 243 H 17.9752 -3.42649 1.82883 0
M  V30 244 H 19.7072 -3.47682 2.07122 0
M  V30 245 H 16.4622 -2.66056 3.91805 0
M  V30 246 H 16.8862 -2.02348 6.46053 0
M  V30 247 H 21.5282 -2.26919 3.56746 0
M  V30 248 H 19.2462 -1.46683 7.94676 0
M  V30 249 H 22.8322 -1.65546 5.57751 0
M  V30 250 H 21.7122 -1.2612 7.73992 0
M  V30 251 N 19.2153 -1.21501 -1.00376 0
M  V30 252 C 20.4403 -1.05977 -1.78279 0
M  V30 253 C 20.8653 0.385994 -1.84097 0
M  V30 254 O 20.2233 1.27849 -1.28547 0
M  V30 255 C 20.2713 -1.66302 -3.19963 0
M  V30 256 O 19.3753 -0.909333 -4.0225 0
M  V30 257 H 18.7163 -0.372906 -0.549397 0
M  V30 258 H 21.2463 -1.6107 -1.26165 0
M  V30 259 H 21.2563 -1.70574 -3.70632 0
M  V30 260 H 19.9313 -2.71515 -3.15043 0
M  V30 261 H 18.5083 -0.941795 -3.60811 0
M  V30 262 N 20.6934 1.19889 -1.02296 0
M  V30 263 C 21.9404 1.8942 -0.715972 0
M  V30 264 C 22.2684 1.79251 0.754944 0
M  V30 265 O 21.5234 1.17526 1.56481 0
M  V30 266 C 21.8224 3.39883 -1.10518 0
M  V30 267 C 21.4884 3.70254 -2.57337 0
M  V30 268 C 20.1504 3.78254 -2.97452 0
M  V30 269 C 22.5024 3.84052 -3.52354 0
M  V30 270 C 19.8304 3.97514 -4.31509 0
M  V30 271 C 22.1824 4.04824 -4.86108 0
M  V30 272 C 20.8464 4.11054 -5.25919 0
M  V30 273 H 20.1164 0.693138 -0.261993 0
M  V30 274 H 22.7634 1.42012 -1.28472 0
M  V30 275 H 21.0684 3.8915 -0.454953 0
M  V30 276 H 22.7654 3.9199 -0.845261 0
M  V30 277 H 19.3554 3.64632 -2.25258 0
M  V30 278 H 23.5394 3.77221 -3.22518 0
M  V30 279 H 18.7954 4.00574 -4.61898 0
M  V30 280 H 22.9694 4.14442 -5.59653 0
M  V30 281 H 20.5964 4.2573 -6.29808 0
M  V30 282 N 22.1715 0.800033 1.35784 0
M  V30 283 C 23.5825 0.439142 1.81462 0
M  V30 284 C 23.9335 -1.03813 1.66485 0
M  V30 285 O 23.0585 -1.80626 1.19177 0
M  V30 286 C 23.6535 0.790314 3.29453 0
M  V30 287 C 22.2125 0.482111 3.733 0
M  V30 288 C 21.3595 1.01938 2.57883 0
M  V30 289 H 24.3105 0.992254 1.23855 0
M  V30 290 H 24.3315 0.0853677 3.80404 0
M  V30 291 H 23.8435 1.86554 3.40322 0
M  V30 292 H 21.9445 -0.584652 3.67984 0
M  V30 293 H 22.0575 1.01015 4.6833 0
M  V30 294 H 20.4215 0.442043 2.50835 0
M  V30 295 H 21.2045 2.10059 2.71533 0
M  V30 296 N 23.6496 -1.47581 0.552962 0
M  V30 297 C 24.5796 -2.32762 -0.185451 0
M  V30 298 C 25.5606 -1.43527 -0.912905 0
M  V30 299 O 26.7456 -1.72388 -0.894201 0
M  V30 300 C 23.8756 -3.25219 -1.21859 0
M  V30 301 C 22.8296 -4.23661 -0.607864 0
M  V30 302 C 22.1556 -5.05413 -1.74533 0
M  V30 303 C 23.4556 -5.20481 0.435582 0
M  V30 304 H 25.1496 -2.94749 0.525684 0
M  V30 305 H 22.6956 -1.41738 0.254251 0
M  V30 306 H 24.6486 -3.8365 -1.7433 0
M  V30 307 H 23.3726 -2.61279 -1.95961 0
M  V30 308 H 22.0316 -3.66451 -0.104489 0
M  V30 309 H 21.6796 -4.3788 -2.47529 0
M  V30 310 H 21.3796 -5.72059 -1.34249 0
M  V30 311 H 22.9036 -5.66701 -2.27338 0
M  V30 312 H 24.3176 -5.733 -0.00290157 0
M  V30 313 H 22.7146 -5.95305 0.757067 0
M  V30 314 H 23.7846 -4.66217 1.33303 0
M  V30 315 N 25.1277 -0.289203 -1.54924 0
M  V30 316 C 26.3767 0.324231 -1.99077 0
M  V30 317 C 26.6897 1.5591 -1.18117 0
M  V30 318 O 27.8957 2.24637 -1.52481 0
M  V30 319 C 26.3517 0.628209 -3.54375 0
M  V30 320 C 25.9597 -0.587647 -4.44129 0
M  V30 321 C 27.7037 1.20349 -4.07083 0
M  V30 322 C 25.6107 -0.257475 -5.90839 0
M  V30 323 H 24.5407 0.124924 -0.743579 0
M  V30 324 H 27.1917 -0.396063 -1.79175 0
M  V30 325 H 25.5737 1.40778 -3.70132 0
M  V30 326 H 26.7477 -1.36418 -4.40144 0
M  V30 327 H 25.0627 -1.08074 -4.0213 0
M  V30 328 H 27.6597 1.46456 -5.14252 0
M  V30 329 H 28.0027 2.14195 -3.56968 0
M  V30 330 H 28.5357 0.485889 -3.94821 0
M  V30 331 H 25.2747 -1.16419 -6.45079 0
M  V30 332 H 24.7947 0.482018 -5.9786 0
M  V30 333 H 26.4737 0.145238 -6.46837 0
M  V30 334 N 26.6058 1.57591 -0.0167156 0
M  V30 335 C 27.8548 1.90461 0.663877 0
M  V30 336 C 28.1678 0.893515 1.73999 0
M  V30 337 O 29.3738 1.11302 2.47637 0
M  V30 338 C 27.8298 3.38155 1.23204 0
M  V30 339 C 27.4378 4.47597 0.189866 0
M  V30 340 C 29.1818 3.80111 1.88986 0
M  V30 341 C 27.0888 5.86379 0.768964 0
M  V30 342 H 26.0188 0.710738 0.251729 0
M  V30 343 H 28.6698 1.83326 -0.0799926 0
M  V30 344 H 27.0518 3.40182 2.02712 0
M  V30 345 H 28.2258 4.57112 -0.581846 0
M  V30 346 H 26.5408 4.14766 -0.368475 0
M  V30 347 H 29.1378 4.81145 2.33247 0
M  V30 348 H 29.4808 3.14511 2.72743 0
M  V30 349 H 30.0138 3.80454 1.16187 0
M  V30 350 H 26.7528 6.55493 -0.0301957 0
M  V30 351 H 26.2728 5.80496 1.50945 0
M  V30 352 H 27.9518 6.34563 1.26251 0
M  V30 353 N 28.0839 -0.256276 1.55502 0
M  V30 354 C 29.0469 -1.30047 1.88734 0
M  V30 355 C 30.0469 -1.4154 0.763086 0
M  V30 356 O 31.2369 -1.40403 1.03115 0
M  V30 357 C 28.3689 -2.67953 2.10747 0
M  V30 358 H 29.5619 -1.01802 2.82093 0
M  V30 359 H 27.1149 -0.495134 1.4825 0
M  V30 360 H 27.8499 -3.01351 1.19825 0
M  V30 361 H 27.6349 -2.60993 2.92617 0
M  V30 362 H 29.1249 -3.43368 2.37673 0
M  V30 363 N 29.562 -1.4872 -0.521534 0
M  V30 364 C 30.525 -1.63379 -1.60748 0
M  V30 365 C 31.525 -0.50661 -1.52611 0
M  V30 366 O 32.715 -0.772601 -1.5613 0
M  V30 367 C 29.847 -1.61192 -3.00383 0
M  V30 368 H 31.04 -2.60217 -1.49087 0
M  V30 369 H 28.593 -1.37444 -0.744235 0
M  V30 370 H 29.328 -0.65863 -3.17541 0
M  V30 371 H 29.113 -2.43032 -3.07698 0
M  V30 372 H 30.603 -1.7466 -3.7932 0
M  V30 373 N 31.0401 0.771051 -1.3745 0
M  V30 374 C 32.2861 1.5319 -1.32894 0
M  V30 375 C 32.6191 1.94008 0.0862511 0
M  V30 376 O 31.8941 1.64124 1.04373 0
M  V30 377 C 32.1771 2.79648 -2.26868 0
M  V30 378 C 32.0301 2.45079 -3.77169 0
M  V30 379 C 33.3491 3.81583 -2.19277 0
M  V30 380 H 30.4681 0.555744 -0.484064 0
M  V30 381 H 33.1101 0.884492 -1.68157 0
M  V30 382 H 31.2601 3.34891 -1.96926 0
M  V30 383 H 32.9321 1.95745 -4.1771 0
M  V30 384 H 31.1751 1.77767 -3.95704 0
M  V30 385 H 31.8461 3.35478 -4.38359 0
M  V30 386 H 34.3221 3.35835 -2.45671 0
M  V30 387 H 33.1981 4.67787 -2.87171 0
M  V30 388 H 33.4591 4.25897 -1.18592 0
M  V30 389 N 32.5182 1.22032 0.997298 0
M  V30 390 C 33.7582 1.05375 1.75144 0
M  V30 391 C 34.1222 -0.404696 1.87686 0
M  V30 392 O 35.3232 -0.691998 2.5974 0
M  V30 393 C 33.5942 1.74046 3.12158 0
M  V30 394 S 35.1532 1.72745 4.03366 0
M  V30 395 H 31.9712 0.377449 0.602539 0
M  V30 396 H 34.5732 1.54902 1.19272 0
M  V30 397 H 33.2772 2.79332 3.00669 0
M  V30 398 H 32.8082 1.24731 3.73103 0
M  V30 399 H 34.8232 0.774015 4.90126 0
M  V30 400 N 33.9963 -1.19345 1.0293 0
M  V30 401 C 34.9593 -2.20793 0.615069 0
M  V30 402 C 35.9593 -1.57553 -0.321533 0
M  V30 403 O 37.1493 -1.73862 -0.108483 0
M  V30 404 C 34.2813 -3.40754 -0.0999222 0
M  V30 405 H 35.4743 -2.58955 1.51269 0
M  V30 406 H 33.0273 -1.3303 0.820534 0
M  V30 407 H 33.7623 -3.0811 -1.01187 0
M  V30 408 H 33.5473 -3.87889 0.57309 0
M  V30 409 H 35.0373 -4.15898 -0.376645 0
M  V30 410 N 35.4744 -0.807222 -1.35358 0
M  V30 411 C 36.4064 -0.175717 -2.28525 0
M  V30 412 C 37.4194 0.625354 -1.5031 0
M  V30 413 O 38.6084 0.457611 -1.72535 0
M  V30 414 C 35.7084 0.773471 -3.29956 0
M  V30 415 C 34.8814 0.0186296 -4.37396 0
M  V30 416 C 33.9404 0.886395 -5.18681 0
M  V30 417 O 32.9664 0.337106 -5.68201 0
M  V30 418 N 34.1684 2.20839 -5.36852 0
M  V30 419 H 36.9334 -0.976091 -2.83359 0
M  V30 420 H 34.4944 -0.662737 -1.47714 0
M  V30 421 H 36.4864 1.35824 -3.81227 0
M  V30 422 H 35.0564 1.47465 -2.75632 0
M  V30 423 H 34.2764 -0.747349 -3.87051 0
M  V30 424 H 35.5644 -0.501577 -5.06322 0
M  V30 425 H 34.9624 2.67858 -4.98265 0
M  V30 426 H 33.5194 2.74237 -5.91301 0
M  V30 427 N 36.9525 1.47285 -0.560781 0
M  V30 428 C 38.1775 2.07359 -0.0410566 0
M  V30 429 C 38.6025 1.41017 1.24483 0
M  V30 430 O 37.9605 0.486368 1.74654 0
M  V30 431 C 38.0085 3.6035 0.134123 0
M  V30 432 O 37.1125 3.94681 1.19587 0
M  V30 433 H 36.4535 0.661887 -0.0529291 0
M  V30 434 H 38.9835 1.89252 -0.777482 0
M  V30 435 H 38.9935 4.0652 0.347207 0
M  V30 436 H 37.6685 4.08034 -0.805047 0
M  V30 437 H 36.2455 3.60251 0.962987 0
M  V30 438 N 38.4306 0.297415 1.54768 0
M  V30 439 C 39.6766 -0.313376 2.00364 0
M  V30 440 C 40.0096 -1.53815 1.18553 0
M  V30 441 O 39.2846 -1.92739 0.261103 0
M  V30 442 C 39.5676 -0.673525 3.53745 0
M  V30 443 C 39.4206 0.560133 4.46299 0
M  V30 444 C 40.7396 -1.50143 4.13697 0
M  V30 445 H 37.8586 -0.112428 0.728374 0
M  V30 446 H 40.5006 0.4088 1.8555 0
M  V30 447 H 38.6506 -1.28881 3.665 0
M  V30 448 H 40.3226 1.19863 4.45455 0
M  V30 449 H 38.5656 1.19405 4.17043 0
M  V30 450 H 39.2366 0.26405 5.51368 0
M  V30 451 H 41.7126 -0.981588 4.04356 0
M  V30 452 H 40.5886 -1.72221 5.21182 0
M  V30 453 H 40.8496 -2.48952 3.65343 0
M  V30 454 N 39.9087 -1.5758 0.0250728 0
M  V30 455 C 40.8567 -2.11125 -0.97617 0
M  V30 456 C 41.8507 -1.03689 -1.33959 0
M  V30 457 O 43.0567 -1.22128 -1.3223 0
M  V30 458 H 39.4317 -0.674468 -0.332561 0
M  V30 459 H 41.4027 -2.94194 -0.499223 0
M  V30 460 C 40.1517 -2.65017 -2.2508 0
M  V30 461 H 39.4747 -3.47333 -1.9799 0
M  V30 462 H 40.9147 -3.06133 -2.93357 0
M  V30 463 C 39.3737 -1.57574 -2.97779 0
M  V30 464 O 39.9037 -0.973203 -3.89733 0
M  V30 465 N 38.1097 -1.29716 -2.60043 0
M  V30 466 H 37.6567 -1.789 -1.85345 0
M  V30 467 H 37.6147 -0.58051 -3.08994 0
M  V30 468 N 41.3868 0.248026 -1.55636 0
M  V30 469 C 42.6638 0.998988 -1.68165 0
M  V30 470 C 43.0438 2.03409 -0.564621 0
M  V30 471 O 42.3918 2.24378 0.432076 0
M  V30 472 C 42.6018 1.63334 -3.0842 0
M  V30 473 C 43.9498 2.13562 -3.66983 0
M  V30 474 O 44.9738 1.73277 -3.11213 0
M  V30 475 O 43.8328 2.87526 -4.64749 0
M  V30 476 H 40.9268 0.464933 -0.683935 0
M  V30 477 H 43.4728 0.241902 -1.67967 0
M  V30 478 H 42.2448 0.884583 -3.8117 0
M  V30 479 H 41.8678 2.45666 -3.12624 0
M  V30 480 N 42.8649 1.48995 0.513639 0
M  V30 481 C 44.2759 1.5119 1.09537 0
M  V30 482 C 44.6269 0.290906 1.94031 0
M  V30 483 O 43.7519 -0.60049 2.07902 0
M  V30 484 C 44.3469 2.73964 1.99322 0
M  V30 485 C 42.9059 2.78978 2.52682 0
M  V30 486 C 42.0529 2.44934 1.30009 0
M  V30 487 H 45.0039 1.55875 0.298125 0
M  V30 488 H 45.0249 2.53409 2.83838 0
M  V30 489 H 44.5369 3.62813 1.37799 0
M  V30 490 H 42.6379 1.94378 3.1788 0
M  V30 491 H 42.7509 3.8083 2.90698 0
M  V30 492 H 41.1149 1.9644 1.62122 0
M  V30 493 H 41.8979 3.36043 0.702131 0
M  V30 494 N 44.343 -0.763751 1.37857 0
M  V30 495 C 45.568 -1.55805 1.36893 0
M  V30 496 C 45.993 -1.88054 -0.0416135 0
M  V30 497 O 45.351 -1.49825 -1.02089 0
M  V30 498 C 45.399 -2.84012 2.22192 0
M  V30 499 O 44.503 -3.78732 1.63204 0
M  V30 500 H 43.844 -0.471638 0.46739 0
M  V30 501 H 46.374 -0.944657 1.81487 0
M  V30 502 H 46.384 -3.33037 2.35691 0
M  V30 503 H 45.059 -2.59869 3.24716 0
M  V30 504 H 43.636 -3.37402 1.58791 0
M  V30 505 N 45.8211 -1.22559 -0.990812 0
M  V30 506 C 46.7691 -0.994798 -2.10253 0
M  V30 507 C 47.7631 0.0627798 -1.69284 0
M  V30 508 O 48.9691 -0.0898392 -1.79776 0
M  V30 509 H 45.3441 -0.304527 -0.687581 0
M  V30 510 H 47.3151 -1.93812 -2.26891 0
M  V30 511 C 46.0641 -0.591439 -3.42633 0
M  V30 512 H 45.3871 -1.3969 -3.74602 0
M  V30 513 H 46.8271 -0.469385 -4.21394 0
M  V30 514 C 45.2861 0.699232 -3.29564 0
M  V30 515 O 45.8161 1.75112 -3.61523 0
M  V30 516 N 44.0221 0.671182 -2.82743 0
M  V30 517 H 43.5691 -0.185136 -2.56934 0
M  V30 518 H 43.5271 1.53502 -2.7438 0
M  V30 519 N 47.2992 1.18797 -1.03562 0
M  V30 520 C 48.2322 2.2105 -0.56676 0
M  V30 521 C 49.2102 1.57704 0.395993 0
M  V30 522 O 50.3942 1.85908 0.311498 0
M  V30 523 C 47.5212 3.38259 0.172704 0
M  V30 524 C 46.5672 4.19987 -0.74252 0
M  V30 525 S 47.4002 4.87199 -2.22254 0
M  V30 526 C 48.5562 6.07813 -1.49379 0
M  V30 527 H 48.7892 2.60478 -1.43312 0
M  V30 528 H 46.3222 1.29151 -0.846133 0
M  V30 529 H 48.2802 4.06191 0.593191 0
M  V30 530 H 46.9412 2.97252 1.01488 0
M  V30 531 H 46.1342 5.03709 -0.171265 0
M  V30 532 H 45.7362 3.57408 -1.10163 0
M  V30 533 H 48.0282 6.72948 -0.784056 0
M  V30 534 H 48.9712 6.69435 -2.30786 0
M  V30 535 H 49.3792 5.55781 -0.988331 0
M  V30 536 N 48.7773 0.814389 1.34928 0
M  V30 537 C 50.0023 0.410097 2.03305 0
M  V30 538 C 50.4273 -0.973464 1.60951 0
M  V30 539 O 49.7853 -1.63185 0.789964 0
M  V30 540 C 49.8333 0.51049 3.56968 0
M  V30 541 O 48.9373 -0.473035 4.09678 0
M  V30 542 H 48.2783 0.170088 0.641846 0
M  V30 543 H 50.8083 1.10244 1.72358 0
M  V30 544 H 50.8183 0.383135 4.06197 0
M  V30 545 H 49.4933 1.51963 3.87144 0
M  V30 546 H 48.0703 -0.305272 3.71648 0
M  V30 547 N 50.2554 -1.46986 0.568584 0
M  V30 548 C 51.1854 -2.32946 -0.160753 0
M  V30 549 C 52.1664 -1.44487 -0.897631 0
M  V30 550 O 53.3514 -1.73327 -0.875867 0
M  V30 551 C 50.4814 -3.26494 -1.18403 0
M  V30 552 C 49.4354 -4.24282 -0.562895 0
M  V30 553 C 48.7614 -5.07236 -1.69163 0
M  V30 554 C 50.0614 -5.19989 0.490761 0
M  V30 555 H 51.7554 -2.94175 0.556916 0
M  V30 556 H 49.3014 -1.4146 0.26927 0
M  V30 557 H 51.2544 -3.85477 -1.70251 0
M  V30 558 H 49.9784 -2.63343 -1.93179 0
M  V30 559 H 48.6374 -3.66541 -0.0656164 0
M  V30 560 H 48.2854 -4.4048 -2.42871 0
M  V30 561 H 47.9854 -5.7345 -1.28174 0
M  V30 562 H 49.5094 -5.6908 -2.21314 0
M  V30 563 H 50.9234 -5.73271 0.0579047 0
M  V30 564 H 49.3204 -5.94469 0.820165 0
M  V30 565 H 50.3904 -4.64777 1.3824 0
M  V30 566 N 51.7335 -0.305618 -1.54608 0
M  V30 567 C 52.9795 0.302746 -2.00528 0
M  V30 568 C 53.3125 1.53184 -1.19367 0
M  V30 569 O 52.5875 1.92598 -0.271321 0
M  V30 570 C 52.8705 0.654756 -3.54097 0
M  V30 571 C 52.7235 -0.583793 -4.45995 0
M  V30 572 C 54.0425 1.47947 -4.14487 0
M  V30 573 H 51.1615 0.108564 -0.72896 0
M  V30 574 H 53.8035 -0.418634 -1.85331 0
M  V30 575 H 51.9535 1.26935 -3.67178 0
M  V30 576 H 53.6255 -1.22224 -4.44814 0
M  V30 577 H 51.8685 -1.21615 -4.16404 0
M  V30 578 H 52.5395 -0.293287 -5.5122 0
M  V30 579 H 55.0155 0.96013 -4.04871 0
M  V30 580 H 53.8915 1.69454 -5.22088 0
M  V30 581 H 54.1525 2.47011 -3.66658 0
M  V30 582 N 53.2116 1.57565 -0.0334293 0
M  V30 583 C 54.1586 2.10478 0.946981 0
M  V30 584 C 55.1286 1.00787 1.32027 0
M  V30 585 O 56.3136 1.28232 1.41284 0
M  V30 586 C 53.4536 2.63994 2.22263 0
M  V30 587 C 52.5666 3.87709 1.90541 0
M  V30 588 C 51.7016 4.29604 3.12433 0
M  V30 589 C 50.7406 5.46065 2.76549 0
M  V30 590 N 49.8776 5.83096 3.9108 0
M  V30 591 H 54.7176 2.93963 0.488846 0
M  V30 592 H 52.2546 1.45296 0.22969 0
M  V30 593 H 54.2126 2.93114 2.96884 0
M  V30 594 H 52.8426 1.83333 2.65685 0
M  V30 595 H 51.8946 3.65291 1.06144 0
M  V30 596 H 53.2066 4.72403 1.60116 0
M  V30 597 H 52.3606 4.60182 3.9537 0
M  V30 598 H 51.0996 3.43685 3.46023 0
M  V30 599 H 50.1046 5.15176 1.92026 0
M  V30 600 H 51.3296 6.33685 2.44171 0
M  V30 601 H 49.2756 5.00132 4.24504 0
M  V30 602 H 49.1926 6.6244 3.64293 0
M  V30 603 H 50.4606 6.18282 4.74708 0
M  V30 604 N 54.6897 -0.239769 1.55765 0
M  V30 605 C 55.5997 -1.31831 1.94056 0
M  V30 606 C 56.6157 -1.52275 0.841925 0
M  V30 607 O 57.7917 -1.65759 1.14394 0
M  V30 608 C 54.8567 -2.65156 2.23368 0
M  V30 609 C 53.9177 -2.53173 3.46701 0
M  V30 610 C 53.1507 -3.8014 3.74606 0
M  V30 611 O 53.3737 -4.82343 3.04469 0
M  V30 612 O 52.3077 -3.78344 4.68123 0
M  V30 613 H 56.1337 -1.02347 2.85935 0
M  V30 614 H 53.7187 -0.441123 1.42739 0
M  V30 615 H 55.6007 -3.43929 2.43497 0
M  V30 616 H 54.2757 -2.94358 1.34666 0
M  V30 617 H 53.1827 -1.72662 3.31871 0
M  V30 618 H 54.5157 -2.28915 4.35728 0
M  V30 619 N 56.1678 -1.49265 -0.50573 0
M  V30 620 C 57.3958 -1.62215 -1.28429 0
M  V30 621 C 57.8108 -0.291697 -1.86533 0
M  V30 622 O 57.1678 0.722233 -1.67601 0
M  V30 623 C 57.2188 -2.68735 -2.41793 0
M  V30 624 O 56.9398 -3.96619 -1.86078 0
M  V30 625 C 58.4408 -2.92346 -3.3324 0
M  V30 626 H 55.6608 -0.546239 -0.389697 0
M  V30 627 H 58.2048 -1.95265 -0.607609 0
M  V30 628 H 56.3598 -2.38476 -3.053 0
M  V30 629 H 56.7738 -4.55256 -2.60465 0
M  V30 630 H 58.2478 -3.70623 -4.09075 0
M  V30 631 H 58.7248 -2.02081 -3.89948 0
M  V30 632 H 59.3308 -3.24003 -2.75503 0
M  V30 633 N 57.6459 0.756429 -1.3826 0
M  V30 634 C 58.8919 1.51772 -1.34511 0
M  V30 635 C 59.2249 1.94089 0.0656691 0
M  V30 636 O 58.4999 1.65221 1.02626 0
M  V30 637 C 58.7829 2.77226 -2.29821 0
M  V30 638 C 58.6359 2.41065 -3.79747 0
M  V30 639 C 59.9549 3.79236 -2.23312 0
M  V30 640 H 57.0739 0.550578 -0.489931 0
M  V30 641 H 59.7159 0.866607 -1.69086 0
M  V30 642 H 57.8659 3.32784 -2.00467 0
M  V30 643 H 59.5379 1.91303 -4.19763 0
M  V30 644 H 57.7809 1.7356 -3.97567 0
M  V30 645 H 58.4519 3.3081 -4.41892 0
M  V30 646 H 60.9279 3.3321 -2.49219 0
M  V30 647 H 59.8039 4.64714 -2.92116 0
M  V30 648 H 60.0649 4.24615 -1.23102 0
M  V30 649 N 59.124 1.23083 0.984299 0
M  V30 650 C 60.401 0.9689 1.69917 0
M  V30 651 C 60.781 -0.513604 2.04757 0
M  V30 652 O 60.129 -1.48383 1.73767 0
M  V30 653 C 60.339 1.87518 2.94343 0
M  V30 654 C 61.687 2.13636 3.6694 0
M  V30 655 O 62.711 1.85036 3.04368 0
M  V30 656 O 61.57 2.62119 4.79537 0
M  V30 657 H 58.664 0.365095 0.742048 0
M  V30 658 H 61.21 1.34107 1.03987 0
M  V30 659 H 59.982 2.87756 2.65164 0
M  V30 660 H 59.605 1.50514 3.6801 0
M  V30 661 N 60.6021 -1.18246 1.0419 0
M  V30 662 C 62.0181 -1.40269 0.761366 0
M  V30 663 C 62.2181 -1.90777 -0.648578 0
M  V30 664 O 61.2741 -2.0929 -1.41258 0
M  V30 665 C 62.5871 -2.40237 1.8085 0
M  V30 666 C 64.1351 -2.53961 1.82955 0
M  V30 667 C 64.6101 -3.57194 2.86664 0
M  V30 668 N 66.1011 -3.64702 2.85563 0
M  V30 669 C 66.8361 -4.44309 3.6246 0
M  V30 670 N 66.3321 -5.27514 4.49111 0
M  V30 671 N 68.1251 -4.39084 3.50944 0
M  V30 672 H 60.2761 -0.837882 1.95175 0
M  V30 673 H 62.5391 -0.430608 0.84456 0
M  V30 674 H 62.2451 -2.10176 2.81991 0
M  V30 675 H 62.1191 -3.39601 1.64168 0
M  V30 676 H 64.5061 -2.83338 0.824855 0
M  V30 677 H 64.5871 -1.54706 2.03715 0
M  V30 678 H 64.2311 -3.28558 3.87314 0
M  V30 679 H 64.1611 -4.5613 2.6316 0
M  V30 680 H 66.6521 -3.05289 2.22727 0
M  V30 681 H 66.9651 -5.85411 5.04493 0
M  V30 682 H 65.3101 -5.2693 4.53178 0
M  V30 683 H 68.5011 -3.7313 2.82651 0
M  V30 684 H 68.6741 -5.00883 4.11121 0
M  V30 685 N 62.0802 -0.821533 -1.34494 0
M  V30 686 C 63.0102 -0.257138 -2.3208 0
M  V30 687 C 63.9912 0.625645 -1.58176 0
M  V30 688 O 65.1762 0.552811 -1.86166 0
M  V30 689 C 62.3062 0.582958 -3.42372 0
M  V30 690 C 61.2602 -0.202571 -4.2752 0
M  V30 691 C 60.5862 0.760179 -5.29269 0
M  V30 692 C 61.8862 -1.40998 -5.02908 0
M  V30 693 H 63.5802 -1.07247 -2.79532 0
M  V30 694 H 61.1262 -0.517163 -1.34393 0
M  V30 695 H 63.0792 0.987972 -4.09655 0
M  V30 696 H 61.8032 1.43133 -2.93565 0
M  V30 697 H 60.4622 -0.588936 -3.61838 0
M  V30 698 H 60.1102 1.60447 -4.76724 0
M  V30 699 H 59.8102 0.238809 -5.87115 0
M  V30 700 H 61.3342 1.16308 -5.9942 0
M  V30 701 H 62.7482 -1.07905 -5.63054 0
M  V30 702 H 61.1452 -1.86689 -5.70322 0
M  V30 703 H 62.2152 -2.1889 -4.32684 0
M  V30 704 N 63.5583 1.46682 -0.576371 0
M  V30 705 C 64.4883 2.33028 0.148397 0
M  V30 706 C 65.4693 1.44961 0.889956 0
M  V30 707 O 66.6543 1.73789 0.866662 0
M  V30 708 C 63.7843 3.27117 1.1667 0
M  V30 709 C 62.7383 4.24575 0.540386 0
M  V30 710 C 62.0643 5.08126 1.6647 0
M  V30 711 C 63.3643 5.19722 -0.518331 0
M  V30 712 H 65.0583 2.93875 -0.572509 0
M  V30 713 H 62.6043 1.41315 -0.276768 0
M  V30 714 H 64.5573 3.86374 1.68204 0
M  V30 715 H 63.2813 2.64364 1.9178 0
M  V30 716 H 61.9403 3.66571 0.0461769 0
M  V30 717 H 61.5883 4.41762 2.40531 0
M  V30 718 H 61.2883 5.74122 1.25131 0
M  V30 719 H 62.8123 5.70246 2.18293 0
M  V30 720 H 64.2263 5.73232 -0.0883058 0
M  V30 721 H 62.6233 5.94026 -0.851679 0
M  V30 722 H 63.6933 4.64037 -1.40703 0
M  V30 723 N 65.0364 0.313813 1.54444 0
M  V30 724 C 65.9834 -0.55655 2.23989 0
M  V30 725 C 66.9534 -1.11943 1.22711 0
M  V30 726 O 68.1384 -1.16158 1.51367 0
M  V30 727 C 65.2784 -1.71635 2.99392 0
M  V30 728 C 64.3914 -1.18364 4.15468 0
M  V30 729 C 63.5264 -2.30834 4.78424 0
M  V30 730 C 62.5654 -1.74762 5.86622 0
M  V30 731 N 61.7024 -2.80855 6.43479 0
M  V30 732 H 66.5424 0.0430893 2.97969 0
M  V30 733 H 64.0794 0.0330359 1.47063 0
M  V30 734 H 66.0374 -2.39868 3.41349 0
M  V30 735 H 64.6674 -2.28742 2.27765 0
M  V30 736 H 63.7194 -0.393163 3.78363 0
M  V30 737 H 65.0314 -0.733262 4.93381 0
M  V30 738 H 64.1854 -3.0699 5.23299 0
M  V30 739 H 62.9244 -2.79204 3.99871 0
M  V30 740 H 61.9294 -0.970995 5.41158 0
M  V30 741 H 63.1544 -1.2728 6.67066 0
M  V30 742 H 61.1004 -3.28535 5.67804 0
M  V30 743 H 61.0174 -2.40351 7.16776 0
M  V30 744 H 62.2854 -3.5687 6.93011 0
M  V30 745 N 66.5145 -1.57545 0.0417849 0
M  V30 746 C 67.7625 -1.91937 -0.632829 0
M  V30 747 C 68.0835 -0.919978 -1.71934 0
M  V30 748 O 67.3535 0.0366064 -1.95866 0
M  V30 749 H 65.9335 -0.708493 -0.236742 0
M  V30 750 H 68.5955 -1.9468 0.0925745 0
M  V30 751 H 67.6915 -2.92912 -1.07746 0
M  V30 752 N 67.9926 0.231505 -1.5589 0
M  V30 753 C 69.2226 0.973092 -1.82248 0
M  V30 754 C 69.6306 1.78845 -0.617328 0
M  V30 755 O 68.9736 1.78752 0.423499 0
M  V30 756 C 69.0356 1.94732 -3.02192 0
M  V30 757 C 68.6996 1.31743 -4.37599 0
M  V30 758 C 69.6966 0.712238 -5.14998 0
M  V30 759 C 67.3816 1.33218 -4.84312 0
M  V30 760 C 69.3756 0.130195 -6.37267 0
M  V30 761 C 67.0626 0.746286 -6.06526 0
M  V30 762 C 68.0606 0.146337 -6.82843 0
M  V30 763 O 67.7486 -0.430465 -8.02747 0
M  V30 764 H 67.4806 0.29125 -0.61004 0
M  V30 765 H 70.0346 0.254915 -2.03812 0
M  V30 766 H 68.2646 2.70422 -2.76422 0
M  V30 767 H 69.9536 2.55362 -3.15508 0
M  V30 768 H 70.7196 0.69324 -4.8002 0
M  V30 769 H 66.5986 1.78854 -4.24891 0
M  V30 770 H 70.1426 -0.33871 -6.96777 0
M  V30 771 H 66.0396 0.762663 -6.40979 0
M  V30 772 H 66.8076 -0.323818 -8.17859 0
M  V30 773 N 69.4707 1.49531 0.497807 0
M  V30 774 C 70.7477 1.49682 1.25915 0
M  V30 775 C 71.1277 0.226339 2.09883 0
M  V30 776 O 70.4757 -0.791189 2.14365 0
M  V30 777 C 70.6857 2.77755 2.11313 0
M  V30 778 C 72.0337 3.27371 2.70395 0
M  V30 779 O 73.0577 2.78894 2.21578 0
M  V30 780 O 71.9167 4.11808 3.59272 0
M  V30 781 H 69.0107 0.599228 0.56996 0
M  V30 782 H 71.5567 1.61798 0.511816 0
M  V30 783 H 70.3287 3.61713 1.49264 0
M  V30 784 H 69.9517 2.68515 2.93233 0
M  V30 785 N 70.9488 -0.749086 1.3866 0
M  V30 786 C 72.1978 -1.50371 1.3443 0
M  V30 787 C 72.5108 -1.95503 -0.0616397 0
M  V30 788 O 73.7168 -2.70554 -0.226489 0
M  V30 789 C 72.1728 -2.71644 2.36088 0
M  V30 790 C 71.7808 -2.3352 3.82325 0
M  V30 791 C 73.5248 -3.49518 2.40909 0
M  V30 792 C 71.4318 -3.51431 4.75658 0
M  V30 793 H 70.3618 -0.564628 0.499712 0
M  V30 794 H 73.0128 -0.818449 1.64237 0
M  V30 795 H 71.3948 -3.42175 1.9933 0
M  V30 796 H 72.5688 -1.70627 4.28046 0
M  V30 797 H 70.8838 -1.6877 3.80665 0
M  V30 798 H 73.4808 -4.37197 3.07836 0
M  V30 799 H 73.8238 -3.90992 1.42937 0
M  V30 800 H 74.3568 -2.86005 2.76489 0
M  V30 801 H 71.0958 -3.15019 5.74842 0
M  V30 802 H 70.6158 -4.13352 4.34627 0
M  V30 803 H 72.2948 -4.17953 4.93887 0
M  V30 804 N 72.4269 -1.23603 -0.977757 0
M  V30 805 C 73.8429 -0.999251 -1.24447 0
M  V30 806 C 74.0429 0.298053 -1.99283 0
M  V30 807 O 73.0989 1.01681 -2.31122 0
M  V30 808 C 74.4119 -2.20784 -2.04144 0
M  V30 809 C 75.9599 -2.25303 -2.17273 0
M  V30 810 C 76.4349 -3.45755 -3.00362 0
M  V30 811 N 77.9259 -3.4601 -3.07947 0
M  V30 812 C 78.6609 -4.35868 -3.72568 0
M  V30 813 N 78.1569 -5.35966 -4.38991 0
M  V30 814 N 79.9499 -4.23605 -3.6948 0
M  V30 815 H 72.1009 -2.06986 -0.476483 0
M  V30 816 H 74.3639 -0.907801 -0.273134 0
M  V30 817 H 74.0699 -3.14945 -1.56533 0
M  V30 818 H 73.9439 -2.22085 -3.04891 0
M  V30 819 H 76.3309 -1.3168 -2.64092 0
M  V30 820 H 76.4119 -2.28033 -1.15907 0
M  V30 821 H 76.0559 -4.39687 -2.5424 0
M  V30 822 H 75.9859 -3.40266 -4.01904 0
M  V30 823 H 78.4769 -2.73588 -2.60688 0
M  V30 824 H 78.7899 -6.00783 -4.86086 0
M  V30 825 H 77.1349 -5.39863 -4.37691 0
M  V30 826 H 80.3259 -3.44647 -3.16759 0
M  V30 827 H 80.4989 -4.93836 -4.1956 0
M  V30 828 N 73.905 1.17692 -1.04816 0
M  V30 829 C 74.835 2.23777 -0.666791 0
M  V30 830 C 75.816 1.66796 0.33361 0
M  V30 831 O 77.001 1.93039 0.212042 0
M  V30 832 C 74.131 3.47281 -0.0367933 0
M  V30 833 C 73.085 4.17059 -0.961546 0
M  V30 834 C 72.411 5.34342 -0.195626 0
M  V30 835 C 73.711 4.69713 -2.28402 0
M  V30 836 H 75.405 2.55933 -1.55367 0
M  V30 837 H 72.951 1.23019 -0.748484 0
M  V30 838 H 74.904 4.20706 0.241775 0
M  V30 839 H 73.628 3.14381 0.885004 0
M  V30 840 H 72.287 3.45541 -1.22462 0
M  V30 841 H 71.935 4.97692 0.728816 0
M  V30 842 H 71.635 5.81966 -0.811775 0
M  V30 843 H 73.159 6.10553 0.0757473 0
M  V30 844 H 74.573 5.34794 -2.06563 0
M  V30 845 H 72.97 5.279 -2.8538 0
M  V30 846 H 74.04 3.86726 -2.92525 0
M  V30 847 N 75.3831 0.828654 1.34056 0
M  V30 848 C 76.7991 0.515135 1.51058 0
M  V30 849 C 76.9991 -0.959581 1.77184 0
M  V30 850 O 76.0551 -1.74382 1.82612 0
M  V30 851 C 77.3681 1.37963 2.67183 0
M  V30 852 C 78.9161 1.37735 2.81066 0
M  V30 853 C 79.3911 2.22645 4.00241 0
M  V30 854 N 80.8821 2.203 4.07458 0
M  V30 855 C 81.6171 2.82744 4.98842 0
M  V30 856 N 81.1131 3.54201 5.9541 0
M  V30 857 N 82.9061 2.72268 4.91759 0
M  V30 858 H 75.0571 1.78343 1.15358 0
M  V30 859 H 77.3201 0.760304 0.566252 0
M  V30 860 H 77.0261 2.42714 2.54525 0
M  V30 861 H 76.9001 1.0484 3.62338 0
M  V30 862 H 79.2871 0.337593 2.93163 0
M  V30 863 H 79.3681 1.74859 1.86703 0
M  V30 864 H 79.0121 3.26674 3.88905 0
M  V30 865 H 78.9421 1.82869 4.93829 0
M  V30 866 H 81.4331 1.68327 3.38341 0
M  V30 867 H 81.7461 3.9908 6.61782 0
M  V30 868 H 80.0911 3.58308 5.95517 0
M  V30 869 H 83.2821 2.16014 4.15278 0
M  V30 870 H 83.4551 3.21219 5.62781 0
M  V30 871 N 76.8612 -1.46375 0.584142 0
M  V30 872 C 78.2722 -1.86031 0.157959 0
M  V30 873 C 78.6232 -1.48753 -1.27933 0
M  V30 874 O 77.7482 -0.903098 -1.96655 0
M  V30 875 C 78.3432 -3.37642 0.279892 0
M  V30 876 C 76.9022 -3.76289 -0.09143 0
M  V30 877 C 76.0492 -2.7039 0.615178 0
M  V30 878 H 79.0002 -1.37509 0.792274 0
M  V30 879 H 79.0212 -3.77275 -0.494364 0
M  V30 880 H 78.5332 -3.64742 1.32607 0
M  V30 881 H 76.6342 -3.54806 -1.13769 0
M  V30 882 H 76.7472 -4.78246 0.285886 0
M  V30 883 H 75.1112 -2.5464 0.0552833 0
M  V30 884 H 75.8942 -3.0033 1.66303 0
M  V30 885 N 78.3393 -0.321999 -1.54275 0
M  V30 886 C 79.6163 0.335232 -1.92706 0
M  V30 887 C 79.9963 1.70006 -1.25145 0
M  V30 888 O 79.3443 2.25067 -0.394596 0
M  V30 889 C 79.5543 0.429008 -3.46353 0
M  V30 890 C 80.9023 0.690029 -4.18956 0
M  V30 891 O 81.9263 0.511992 -3.52501 0
M  V30 892 O 80.7853 1.03338 -5.36641 0
M  V30 893 H 77.8793 0.191143 -0.804608 0
M  V30 894 H 80.4253 -0.3716 -1.65581 0
M  V30 895 H 79.1973 -0.529611 -3.87699 0
M  V30 896 H 78.8203 1.18348 -3.79578 0
M  V30 897 N 79.8174 1.5752 -0.0501392 0
M  V30 898 C 81.0644 1.9265 0.623874 0
M  V30 899 C 81.3924 0.928411 1.70912 0
M  V30 900 O 80.6474 -0.0594525 1.9561 0
M  V30 901 C 80.9464 3.34467 1.25963 0
M  V30 902 C 80.6124 4.49883 0.302689 0
M  V30 903 C 79.2744 4.81184 0.0393636 0
M  V30 904 C 81.6264 5.20002 -0.353205 0
M  V30 905 C 78.9544 5.79951 -0.887308 0
M  V30 906 C 81.3064 6.1976 -1.26806 0
M  V30 907 C 79.9704 6.49491 -1.54007 0
M  V30 908 H 79.2404 0.704957 0.228292 0
M  V30 909 H 81.8874 1.91146 -0.116398 0
M  V30 910 H 80.1924 3.32333 2.07514 0
M  V30 911 H 81.8894 3.58928 1.78806 0
M  V30 912 H 78.4794 4.25457 0.518109 0
M  V30 913 H 82.6634 4.96033 -0.162854 0
M  V30 914 H 77.9194 6.01322 -1.10553 0
M  V30 915 H 82.0934 6.73205 -1.78236 0
M  V30 916 H 79.7204 7.25837 -2.25976 0
M  V30 917 N 81.2955 -0.223234 1.56011 0
M  V30 918 C 82.5435 -0.946003 1.78592 0
M  V30 919 C 82.8645 -1.84936 0.618349 0
M  V30 920 O 82.1345 -1.92473 -0.364833 0
M  V30 921 H 80.7145 -0.352298 0.658707 0
M  V30 922 H 83.3765 -0.235494 1.93472 0
M  V30 923 H 82.4725 -1.55381 2.70672 0
M  V30 924 N 82.7736 -1.49793 -0.48987 0
M  V30 925 C 84.0216 -1.59525 -1.24081 0
M  V30 926 C 84.3426 -0.288953 -1.92847 0
M  V30 927 O 83.6126 0.692436 -1.83254 0
M  V30 928 H 82.1926 -0.587796 -0.460983 0
M  V30 929 H 84.8546 -1.86477 -0.566778 0
M  V30 930 H 83.9506 -2.39696 -1.99881 0
M  V30 931 N 84.2517 0.741722 -1.39055 0
M  V30 932 C 85.6627 1.31966 -1.32068 0
M  V30 933 C 86.0137 1.96192 0.0180797 0
M  V30 934 O 85.1387 1.95861 0.920196 0
M  V30 935 C 85.7337 2.39954 -2.39181 0
M  V30 936 C 84.2927 2.93438 -2.35735 0
M  V30 937 C 83.4397 1.66936 -2.21422 0
M  V30 938 H 86.3907 0.539721 -1.4924 0
M  V30 939 H 86.4117 3.20182 -2.05581 0
M  V30 940 H 85.9237 1.9318 -3.36605 0
M  V30 941 H 84.0247 3.4451 -1.41929 0
M  V30 942 H 84.1377 3.4701 -3.30335 0
M  V30 943 H 82.5017 1.91016 -1.68478 0
M  V30 944 H 83.2847 1.22224 -3.20806 0
M  V30 945 N 85.7298 1.2412 0.971189 0
M  V30 946 C 87.1408 1.07236 1.52831 0
M  V30 947 C 87.4918 -0.357352 1.92918 0
M  V30 948 O 86.6168 -1.24528 1.76979 0
M  V30 949 C 87.2118 1.94043 2.77728 0
M  V30 950 C 85.7708 1.81394 3.29808 0
M  V30 951 C 84.9178 1.89189 2.02738 0
M  V30 952 H 87.8688 1.37648 0.789864 0
M  V30 953 H 87.8898 1.47066 3.5093 0
M  V30 954 H 87.4018 2.98093 2.4852 0
M  V30 955 H 85.5028 0.801634 3.63874 0
M  V30 956 H 85.6158 2.65294 3.98944 0
M  V30 957 H 83.9798 1.32877 2.17292 0
M  V30 958 H 84.7628 2.94812 1.759 0
M  V30 959 N 87.2079 -1.17134 1.05439 0
M  V30 960 C 88.4539 -1.87733 0.767077 0
M  V30 961 C 88.7869 -1.8098 -0.704253 0
M  V30 962 O 88.0619 -1.21951 -1.5152 0
M  V30 963 C 88.3449 -3.37659 1.25133 0
M  V30 964 C 88.1979 -3.53149 2.78578 0
M  V30 965 C 89.5169 -4.31768 0.852324 0
M  V30 966 H 86.6359 -0.681687 0.280129 0
M  V30 967 H 89.2779 -1.37732 1.30881 0
M  V30 968 H 87.4279 -3.80373 0.790469 0
M  V30 969 H 89.0999 -3.19434 3.32806 0
M  V30 970 H 87.3429 -2.95345 3.17732 0
M  V30 971 H 88.0139 -4.58403 3.07523 0
M  V30 972 H 90.4899 -3.96909 1.24911 0
M  V30 973 H 89.3659 -5.35199 1.21873 0
M  V30 974 H 89.6269 -4.41429 -0.243485 0
M  V30 975 N 88.686 -0.835752 -1.33615 0
M  V30 976 C 89.649 -0.272 -2.2758 0
M  V30 977 C 90.649 0.557487 -1.50827 0
M  V30 978 O 91.839 0.37173 -1.70188 0
M  V30 979 C 88.971 0.617173 -3.35267 0
M  V30 980 H 90.164 -1.10111 -2.78954 0
M  V30 981 H 87.717 -0.608594 -1.43965 0
M  V30 982 H 88.452 1.46884 -2.89129 0
M  V30 983 H 88.237 0.0237066 -3.92093 0
M  V30 984 H 89.727 1.005 -4.05326 0
M  V30 985 N 90.1641 1.46063 -0.591896 0
M  V30 986 C 91.4101 2.02638 -0.0811191 0
M  V30 987 C 91.7431 1.4613 1.27905 0
M  V30 988 O 91.0181 0.629908 1.84017 0
M  V30 989 C 91.3011 3.60091 -0.0252436 0
M  V30 990 C 91.1541 4.26965 -1.41496 0
M  V30 991 C 92.4731 4.3496 0.670685 0
M  V30 992 H 89.5921 0.73635 -0.0309524 0
M  V30 993 H 92.2341 1.741 -0.760859 0
M  V30 994 H 90.3841 3.84535 0.553624 0
M  V30 995 H 92.0561 4.13756 -2.0397 0
M  V30 996 H 90.2991 3.85971 -1.98011 0
M  V30 997 H 90.9701 5.35781 -1.32825 0
M  V30 998 H 93.4461 4.15716 0.178825 0
M  V30 999 H 92.3221 5.44686 0.678837 0
M  V30 1000 H 92.5831 4.06685 1.73379 0
M  V30 1001 N 91.6422 0.330177 1.54103 0
M  V30 1002 C 92.8902 -0.269871 2.0029 0
M  V30 1003 C 93.2112 -1.52133 1.21986 0
M  V30 1004 O 92.4812 -1.93212 0.323438 0
M  V30 1005 H 91.0612 -0.10271 0.739905 0
M  V30 1006 H 93.7232 0.448249 1.89675 0
M  V30 1007 H 92.8192 -0.52166 3.07709 0
M  V30 1008 N 93.1203 -1.57491 0.0584922 0
M  V30 1009 C 94.0533 -2.07533 -0.948969 0
M  V30 1010 C 95.0313 -0.977444 -1.29942 0
M  V30 1011 O 96.2153 -1.2499 -1.41102 0
M  V30 1012 C 93.3423 -2.52192 -2.2609 0
M  V30 1013 C 92.3883 -3.73287 -2.06298 0
M  V30 1014 S 93.2213 -5.18603 -1.33459 0
M  V30 1015 C 94.3773 -5.66583 -2.65959 0
M  V30 1016 H 94.6103 -2.92662 -0.523118 0
M  V30 1017 H 92.1433 -1.53631 -0.153954 0
M  V30 1018 H 94.1013 -2.78585 -3.01498 0
M  V30 1019 H 92.7623 -1.67356 -2.65802 0
M  V30 1020 H 91.9553 -4.0248 -3.03357 0
M  V30 1021 H 91.5573 -3.47199 -1.39029 0
M  V30 1022 H 93.8493 -5.72616 -3.62101 0
M  V30 1023 H 94.7923 -6.65684 -2.41393 0
M  V30 1024 H 95.2003 -4.94342 -2.72554 0
M  V30 1025 N 94.5984 0.214957 -1.56127 0
M  V30 1026 C 95.5464 1.28601 -1.93816 0
M  V30 1027 C 96.5404 1.48175 -0.821016 0
M  V30 1028 O 97.7464 1.49271 -1.0059 0
M  V30 1029 H 94.1214 0.431302 -0.616022 0
M  V30 1030 H 96.0924 0.940991 -2.83175 0
M  V30 1031 C 94.8414 2.62779 -2.27689 0
M  V30 1032 H 94.1644 2.48527 -3.13168 0
M  V30 1033 H 95.6044 3.36517 -2.57939 0
M  V30 1034 C 94.0634 3.18285 -1.10436 0
M  V30 1035 O 94.5934 4.00002 -0.368945 0
M  V30 1036 N 92.7994 2.7675 -0.886433 0
M  V30 1037 H 92.3464 2.10404 -1.48619 0
M  V30 1038 H 92.3044 3.14229 -0.103656 0
M  V30 1039 N 96.0765 1.50051 0.48192 0
M  V30 1040 C 97.3255 1.59741 1.23149 0
M  V30 1041 C 97.6385 0.298163 1.93314 0
M  V30 1042 O 98.8445 0.273835 2.70116 0
M  V30 1043 C 97.3005 2.81926 2.23708 0
M  V30 1044 C 96.9085 4.18685 1.59396 0
M  V30 1045 C 98.6525 3.00956 2.99375 0
M  V30 1046 C 96.5595 5.3207 2.58178 0
M  V30 1047 H 95.4895 0.594838 0.46334 0
M  V30 1048 H 98.1405 1.76467 0.503169 0
M  V30 1049 H 96.5225 2.58736 2.99786 0
M  V30 1050 H 97.6965 4.52088 0.891811 0
M  V30 1051 H 96.0115 4.05171 0.960503 0
M  V30 1052 H 98.6085 3.82836 3.73283 0
M  V30 1053 H 98.9515 2.12258 3.58123 0
M  V30 1054 H 99.4845 3.24277 2.30411 0
M  V30 1055 H 96.2235 6.22888 2.04184 0
M  V30 1056 H 95.7435 5.03098 3.26577 0
M  V30 1057 H 97.4225 5.62196 3.20225 0
M  V30 1058 N 97.5546 -0.734337 1.39446 0
M  V30 1059 C 98.8316 -1.48579 1.27215 0
M  V30 1060 C 99.2116 -2.1077 -0.117968 0
M  V30 1061 O 98.5596 -1.98646 -1.12924 0
M  V30 1062 C 98.7696 -2.53667 2.39696 0
M  V30 1063 C 100.118 -3.20031 2.79044 0
M  V30 1064 O 101.142 -2.6398 2.39151 0
M  V30 1065 O 100.001 -4.21455 3.47905 0
M  V30 1066 H 97.0946 -0.659816 0.49857 0
M  V30 1067 H 99.6406 -0.768106 1.51322 0
M  V30 1068 H 98.4126 -2.06096 3.32626 0
M  V30 1069 H 98.0356 -3.32994 2.17258 0
M  V30 1070 N 99.0327 -1.24633 -0.964593 0
M  V30 1071 C 100.282 -1.08188 -1.7023 0
M  V30 1072 C 100.595 0.37873 -1.91898 0
M  V30 1073 O 101.801 0.663427 -2.6327 0
M  V30 1074 C 100.257 -1.88773 -3.06419 0
M  V30 1075 C 99.8647 -3.39263 -2.92582 0
M  V30 1076 C 101.609 -1.80867 -3.84041 0
M  V30 1077 C 99.5157 -4.1218 -4.24101 0
M  V30 1078 H 98.4457 -0.401245 -0.638372 0
M  V30 1079 H 101.097 -1.48742 -1.07462 0
M  V30 1080 H 99.4787 -1.41035 -3.70034 0
M  V30 1081 H 100.653 -3.94603 -2.37961 0
M  V30 1082 H 98.9677 -3.48154 -2.28424 0
M  V30 1083 H 101.565 -2.32646 -4.81435 0
M  V30 1084 H 101.908 -0.774543 -4.09031 0
M  V30 1085 H 102.441 -2.26301 -3.27159 0
M  V30 1086 H 99.1797 -5.15965 -4.04303 0
M  V30 1087 H 98.6997 -3.61626 -4.78526 0
M  V30 1088 H 100.379 -4.19349 -4.92702 0
M  V30 1089 N 100.511 1.16574 -1.06058 0
M  V30 1090 C 101.474 2.19085 -0.673392 0
M  V30 1091 C 102.474 1.5835 0.279648 0
M  V30 1092 O 103.664 1.74088 0.0623488 0
M  V30 1093 C 100.796 3.40899 0.00954234 0
M  V30 1094 H 101.989 2.54853 -1.58081 0
M  V30 1095 H 99.5418 1.30808 -0.855516 0
M  V30 1096 H 100.277 3.10684 0.929826 0
M  V30 1097 H 100.062 3.86233 -0.67573 0
M  V30 1098 H 101.552 4.1675 0.266245 0
M  V30 1099 N 101.989 0.842826 1.3317 0
M  V30 1100 C 103.214 0.453129 2.02389 0
M  V30 1101 C 103.639 -0.939105 1.6298 0
M  V30 1102 O 102.997 -1.61472 0.8244 0
M  V30 1103 C 103.045 0.586094 3.55805 0
M  V30 1104 O 102.149 -0.386029 4.10589 0
M  V30 1105 H 101.49 0.183664 0.638094 0
M  V30 1106 H 104.02 1.13875 1.69981 0
M  V30 1107 H 104.03 0.469209 4.05293 0
M  V30 1108 H 102.705 1.6014 3.83833 0
M  V30 1109 H 101.282 -0.226371 3.72212 0
M  V30 1110 N 103.467 -1.45747 0.599634 0
M  V30 1111 C 104.716 -2.01502 0.0893511 0
M  V30 1112 C 105.029 -1.4748 -1.28488 0
M  V30 1113 O 106.235 -1.95161 -1.88745 0
M  V30 1114 C 104.691 -3.59735 0.109082 0
M  V30 1115 C 104.299 -4.22754 1.48267 0
M  V30 1116 C 106.043 -4.23085 -0.346374 0
M  V30 1117 C 103.95 -5.73115 1.45921 0
M  V30 1118 H 102.88 -0.753417 0.0296347 0
M  V30 1119 H 105.531 -1.67303 0.753788 0
M  V30 1120 H 103.913 -3.91087 -0.621854 0
M  V30 1121 H 105.087 -4.02987 2.23468 0
M  V30 1122 H 103.402 -3.71567 1.87955 0
M  V30 1123 H 105.999 -5.33327 -0.38298 0
M  V30 1124 H 106.342 -3.93201 -1.36743 0
M  V30 1125 H 106.875 -3.9642 0.331038 0
M  V30 1126 H 103.614 -6.07685 2.45762 0
M  V30 1127 H 103.134 -5.95097 0.749665 0
M  V30 1128 H 104.813 -6.3616 1.17941 0
M  V30 1129 N 104.945 -0.338344 -1.53925 0
M  V30 1130 C 106.222 0.314774 -1.93051 0
M  V30 1131 C 106.602 1.68669 -1.26941 0
M  V30 1132 O 105.95 2.24636 -0.418445 0
M  V30 1133 C 106.16 0.392249 -3.46789 0
M  V30 1134 C 107.508 0.645554 -4.19664 0
M  V30 1135 O 108.532 0.474575 -3.53024 0
M  V30 1136 O 107.391 0.976408 -5.37707 0
M  V30 1137 H 104.485 0.182598 -0.80659 0
M  V30 1138 H 107.031 -0.389141 -1.65178 0
M  V30 1139 H 105.803 -0.570702 -3.87116 0
M  V30 1140 H 105.426 1.14316 -3.80812 0
M  V30 1141 N 106.423 1.57458 -0.0668435 0
M  V30 1142 C 107.356 2.08033 0.93795 0
M  V30 1143 C 108.334 0.984321 1.29421 0
M  V30 1144 O 109.518 1.25736 1.40437 0
M  V30 1145 C 106.645 2.53388 2.24749 0
M  V30 1146 C 105.691 3.74376 2.04315 0
M  V30 1147 S 106.524 5.19303 1.30706 0
M  V30 1148 C 107.68 5.67986 2.62951 0
M  V30 1149 H 107.913 2.92935 0.50759 0
M  V30 1150 H 105.446 1.5371 0.145804 0
M  V30 1151 H 107.404 2.8018 3.00016 0
M  V30 1152 H 106.065 1.68763 2.64911 0
M  V30 1153 H 105.258 4.04083 3.01218 0
M  V30 1154 H 104.86 3.47931 1.37186 0
M  V30 1155 H 107.152 5.74528 3.5906 0
M  V30 1156 H 108.095 6.66955 2.3786 0
M  V30 1157 H 108.503 4.95781 2.69929 0
M  V30 1158 N 107.901 -0.206675 1.56239 0
M  V30 1159 C 109.147 -0.930218 1.80208 0
M  V30 1160 C 109.48 -1.83387 0.638981 0
M  V30 1161 O 108.755 -1.91119 -0.361066 0
M  V30 1162 C 109.038 -1.75641 3.1436 0
M  V30 1163 C 108.891 -0.878257 4.41142 0
M  V30 1164 C 110.21 -2.73129 3.45092 0
M  V30 1165 H 107.329 -0.336742 0.655571 0
M  V30 1166 H 109.971 -0.198222 1.88963 0
M  V30 1167 H 108.121 -2.38048 3.07027 0
M  V30 1168 H 109.793 -0.269787 4.6051 0
M  V30 1169 H 108.036 -0.184385 4.33408 0
M  V30 1170 H 108.707 -1.49106 5.3148 0
M  V30 1171 H 111.183 -2.20856 3.52649 0
M  V30 1172 H 110.059 -3.28028 4.40101 0
M  V30 1173 H 110.32 -3.51606 2.68003 0
M  V30 1174 N 109.379 -1.50304 -0.473955 0
M  V30 1175 C 110.604 -1.65175 -1.25427 0
M  V30 1176 C 111.029 -0.333673 -1.85117 0
M  V30 1177 O 110.387 0.702114 -1.67153 0
M  V30 1178 C 110.435 -2.74295 -2.34082 0
M  V30 1179 O 109.539 -2.35349 -3.38651 0
M  V30 1180 H 108.88 -0.551944 -0.369126 0
M  V30 1181 H 111.41 -1.96662 -0.564364 0
M  V30 1182 H 111.42 -2.97285 -2.79438 0
M  V30 1183 H 110.095 -3.69959 -1.90008 0
M  V30 1184 H 108.672 -2.22794 -2.99027 0
M  V30 1185 N 110.857 0.726932 -1.39834 0
M  V30 1186 C 111.767 1.87131 -1.41489 0
M  V30 1187 C 112.783 1.71239 -0.308757 0
M  V30 1188 O 113.959 1.93701 -0.551529 0
M  V30 1189 C 111.024 3.22811 -1.26468 0
M  V30 1190 C 110.085 3.51039 -2.47124 0
M  V30 1191 C 109.318 4.80245 -2.3281 0
M  V30 1192 O 109.541 5.54537 -1.33585 0
M  V30 1193 O 108.475 5.08554 -3.21957 0
M  V30 1194 H 112.301 1.8869 -2.3797 0
M  V30 1195 H 109.886 0.875837 -1.21035 0
M  V30 1196 H 111.768 4.03877 -1.20255 0
M  V30 1197 H 110.443 3.22005 -0.330862 0
M  V30 1198 H 109.35 2.70027 -2.58914 0
M  V30 1199 H 110.683 3.56632 -3.39227 0
M  V30 1200 N 112.336 1.25143 0.95797 0
M  V30 1201 C 113.582 1.09855 1.70469 0
M  V30 1202 C 113.915 -0.360187 1.90831 0
M  V30 1203 O 113.19 -1.26568 1.47685 0
M  V30 1204 C 113.473 1.8497 3.08963 0
M  V30 1205 C 113.326 3.38652 2.96032 0
M  V30 1206 C 114.645 1.63016 4.08795 0
M  V30 1207 H 111.764 0.400465 0.618706 0
M  V30 1208 H 114.406 1.53933 1.11376 0
M  V30 1209 H 112.556 1.47505 3.59409 0
M  V30 1210 H 114.228 3.85772 2.52938 0
M  V30 1211 H 112.471 3.66534 2.32025 0
M  V30 1212 H 113.142 3.8642 3.94187 0
M  V30 1213 H 115.618 1.95625 3.67247 0
M  V30 1214 H 114.494 2.18015 5.03747 0
M  V30 1215 H 114.755 0.570692 4.38401 0
M  V30 1216 N 113.814 -1.1601 1.06675 0
M  V30 1217 C 114.762 -2.22586 0.675157 0
M  V30 1218 C 115.756 -1.66525 -0.310766 0
M  V30 1219 O 116.962 -1.79145 -0.175215 0
M  V30 1220 H 113.337 -0.724855 0.200223 0
M  V30 1221 H 115.308 -2.52899 1.58381 0
M  V30 1222 C 114.057 -3.47604 0.0817162 0
M  V30 1223 H 113.38 -3.91058 0.831484 0
M  V30 1224 H 114.82 -4.23718 -0.154708 0
M  V30 1225 C 113.279 -3.15718 -1.17576 0
M  V30 1226 O 113.809 -3.31878 -2.26318 0
M  V30 1227 N 112.015 -2.69816 -1.07923 0
M  V30 1228 H 111.562 -2.56866 -0.194293 0
M  V30 1229 H 111.52 -2.48855 -1.92141 0
M  V30 1230 N 115.292 -0.849877 -1.32721 0
M  V30 1231 C 116.225 -0.235903 -2.26977 0
M  V30 1232 C 117.203 0.623355 -1.50177 0
M  V30 1233 O 118.387 0.581207 -1.79316 0
M  V30 1234 C 115.514 0.667712 -3.32053 0
M  V30 1235 C 114.56 -0.11753 -4.26338 0
M  V30 1236 S 115.393 -1.48277 -5.14562 0
M  V30 1237 C 116.549 -0.584741 -6.23163 0
M  V30 1238 H 116.782 -1.03495 -2.78704 0
M  V30 1239 H 114.315 -0.64724 -1.40179 0
M  V30 1240 H 116.273 1.18343 -3.93072 0
M  V30 1241 H 114.934 1.44052 -2.7912 0
M  V30 1242 H 114.127 0.57051 -5.00761 0
M  V30 1243 H 113.729 -0.564668 -3.69713 0
M  V30 1244 H 116.021 0.212968 -6.77165 0
M  V30 1245 H 116.964 -1.29947 -6.96074 0
M  V30 1246 H 117.372 -0.161202 -5.6427 0
M  V30 1247 N 116.77 1.45427 -0.607355 0
M  V30 1248 C 118.047 1.9557 -0.0344566 0
M  V30 1249 C 118.427 1.54979 1.43334 0
M  V30 1250 O 117.775 0.812241 2.13576 0
M  V30 1251 C 117.985 3.48226 -0.232321 0
M  V30 1252 C 119.333 4.2445 -0.113001 0
M  V30 1253 O 120.357 3.55829 -0.162431 0
M  V30 1254 O 119.216 5.465 0.00209442 0
M  V30 1255 H 116.31 0.826222 0.0358667 0
M  V30 1256 H 118.856 1.55594 -0.6774 0
M  V30 1257 H 117.628 3.70739 -1.25174 0
M  V30 1258 H 117.251 3.95092 0.445896 0
M  V30 1259 N 118.248 0.346503 1.53744 0
M  V30 1260 C 119.478 -0.250047 2.05081 0
M  V30 1261 C 119.886 -1.44529 1.22098 0
M  V30 1262 O 119.229 -1.81992 0.249917 0
M  V30 1263 C 119.291 -0.725934 3.52094 0
M  V30 1264 C 118.955 0.350053 4.55657 0
M  V30 1265 C 119.952 1.19372 5.0601 0
M  V30 1266 C 117.637 0.504827 4.99757 0
M  V30 1267 C 119.631 2.17768 5.99046 0
M  V30 1268 C 117.318 1.49218 5.92602 0
M  V30 1269 C 118.316 2.32706 6.42135 0
M  V30 1270 O 118.004 3.2976 7.33153 0
M  V30 1271 H 117.736 -0.0515469 0.674032 0
M  V30 1272 H 120.29 0.497559 1.99282 0
M  V30 1273 H 118.52 -1.52483 3.55367 0
M  V30 1274 H 120.209 -1.24336 3.86388 0
M  V30 1275 H 120.975 1.08525 4.72702 0
M  V30 1276 H 116.854 -0.135178 4.60802 0
M  V30 1277 H 120.398 2.82971 6.37631 0
M  V30 1278 H 116.295 1.6012 6.25325 0
M  V30 1279 H 117.063 3.25265 7.51096 0
M  V30 1280 N 119.726 -1.57421 0.075193 0
M  V30 1281 C 120.954 -1.97946 -0.602076 0
M  V30 1282 C 121.369 -0.953674 -1.62943 0
M  V30 1283 O 120.726 0.0592551 -1.82404 0
M  V30 1284 C 120.777 -3.38546 -1.26762 0
M  V30 1285 O 120.498 -4.37195 -0.281376 0
M  V30 1286 C 121.999 -3.93966 -2.03239 0
M  V30 1287 H 119.219 -0.650918 -0.162931 0
M  V30 1288 H 121.763 -2.03959 0.148601 0
M  V30 1289 H 119.918 -3.33609 -1.96936 0
M  V30 1290 H 120.332 -5.18975 -0.759267 0
M  V30 1291 H 121.806 -4.94555 -2.45193 0
M  V30 1292 H 122.283 -3.30693 -2.8903 0
M  V30 1293 H 122.889 -4.02315 -1.37924 0
M  V30 1294 N 121.204 0.198386 -1.56346 0
M  V30 1295 C 122.134 1.24865 -1.9731 0
M  V30 1296 C 123.115 1.47651 -0.844576 0
M  V30 1297 O 124.3 1.59444 -1.10866 0
M  V30 1298 C 121.43 2.59358 -2.30977 0
M  V30 1299 C 120.384 2.5119 -3.46537 0
M  V30 1300 C 119.71 3.89926 -3.65871 0
M  V30 1301 C 121.01 2.03977 -4.80823 0
M  V30 1302 H 122.704 0.908252 -2.85291 0
M  V30 1303 H 120.25 0.435462 -1.37258 0
M  V30 1304 H 122.203 3.33011 -2.58228 0
M  V30 1305 H 120.927 2.95132 -1.39874 0
M  V30 1306 H 119.586 1.79993 -3.19371 0
M  V30 1307 H 119.234 4.23046 -2.72105 0
M  V30 1308 H 118.934 3.85336 -4.4361 0
M  V30 1309 H 120.458 4.65205 -3.95495 0
M  V30 1310 H 121.872 2.67386 -5.07127 0
M  V30 1311 H 120.269 2.10397 -5.62008 0
M  V30 1312 H 121.339 0.992861 -4.74626 0
M  V30 1313 N 122.682 1.50554 0.465978 0
M  V30 1314 C 123.91 1.65563 1.24083 0
M  V30 1315 C 124.325 0.341051 1.85694 0
M  V30 1316 O 123.682 -0.677543 1.69457 0
M  V30 1317 C 123.733 2.75051 2.34583 0
M  V30 1318 O 123.454 4.01413 1.75497 0
M  V30 1319 C 124.955 3.01078 3.25372 0
M  V30 1320 H 122.175 0.55638 0.375077 0
M  V30 1321 H 124.719 1.96807 0.555624 0
M  V30 1322 H 122.874 2.46486 2.9887 0
M  V30 1323 H 123.288 4.62002 2.48303 0
M  V30 1324 H 124.762 3.81339 3.99105 0
M  V30 1325 H 125.239 2.12349 3.84453 0
M  V30 1326 H 125.845 3.31194 2.66816 0
M  V30 1327 N 124.16 -0.719506 1.40217 0
M  V30 1328 C 125.093 -1.84298 1.34571 0
M  V30 1329 C 126.071 -1.61149 0.216741 0
M  V30 1330 O 127.255 -1.84212 0.399756 0
M  V30 1331 C 124.382 -3.20568 1.09335 0
M  V30 1332 C 123.428 -3.62551 2.24631 0
M  V30 1333 S 124.261 -3.7012 3.87004 0
M  V30 1334 C 125.417 -5.09154 3.64024 0
M  V30 1335 H 125.65 -1.88807 2.2965 0
M  V30 1336 H 123.183 -0.885901 1.26456 0
M  V30 1337 H 125.141 -3.99246 0.954602 0
M  V30 1338 H 123.802 -3.13696 0.159164 0
M  V30 1339 H 122.995 -4.61483 2.02606 0
M  V30 1340 H 122.597 -2.91119 2.34789 0
M  V30 1341 H 124.889 -5.95955 3.22248 0
M  V30 1342 H 125.832 -5.36213 4.62473 0
M  V30 1343 H 126.24 -4.79562 2.97793 0
M  V30 1344 N 125.638 -1.25649 -0.95132 0
M  V30 1345 C 126.868 -1.13179 -1.72841 0
M  V30 1346 C 127.276 0.316827 -1.86528 0
M  V30 1347 O 126.619 1.22948 -1.3649 0
M  V30 1348 C 126.681 -1.71644 -3.15878 0
M  V30 1349 C 126.345 -3.20667 -3.25609 0
M  V30 1350 C 127.342 -4.17616 -3.09666 0
M  V30 1351 C 125.027 -3.6094 -3.49324 0
M  V30 1352 C 127.021 -5.52817 -3.17289 0
M  V30 1353 C 124.708 -4.96278 -3.56584 0
M  V30 1354 C 125.706 -5.92025 -3.40581 0
M  V30 1355 O 125.394 -7.24899 -3.47528 0
M  V30 1356 H 125.126 -0.395389 -0.54831 0
M  V30 1357 H 127.68 -1.66566 -1.20187 0
M  V30 1358 H 125.91 -1.12707 -3.69911 0
M  V30 1359 H 127.599 -1.54225 -3.75459 0
M  V30 1360 H 128.365 -3.87842 -2.91211 0
M  V30 1361 H 124.244 -2.86907 -3.6084 0
M  V30 1362 H 127.788 -6.2753 -3.04716 0
M  V30 1363 H 123.685 -5.25716 -3.74556 0
M  V30 1364 H 124.453 -7.33039 -3.64138 0
M  V30 1365 N 127.117 1.15442 -1.07289 0
M  V30 1366 C 128.364 1.86213 -0.795668 0
M  V30 1367 C 128.692 1.82291 0.678238 0
M  V30 1368 O 127.947 1.24057 1.51355 0
M  V30 1369 C 128.246 3.3489 -1.24834 0
M  V30 1370 C 127.912 3.59007 -2.72809 0
M  V30 1371 C 126.574 3.65298 -3.13227 0
M  V30 1372 C 128.926 3.68762 -3.68326 0
M  V30 1373 C 126.254 3.78854 -4.4798 0
M  V30 1374 C 128.606 3.83842 -5.0284 0
M  V30 1375 C 127.27 3.88378 -5.4288 0
M  V30 1376 H 126.54 0.681403 -0.291155 0
M  V30 1377 H 129.187 1.36435 -1.34379 0
M  V30 1378 H 127.492 3.8687 -0.619595 0
M  V30 1379 H 129.189 3.88052 -1.01076 0
M  V30 1380 H 125.779 3.5475 -2.40521 0
M  V30 1381 H 129.963 3.63202 -3.38227 0
M  V30 1382 H 125.219 3.80623 -4.78472 0
M  V30 1383 H 129.393 3.90332 -5.76727 0
M  V30 1384 H 127.02 3.98635 -6.47298 0
M  V30 1385 N 128.595 0.856903 1.32268 0
M  V30 1386 C 129.527 0.260412 2.27716 0
M  V30 1387 C 130.54 -0.569137 1.52528 0
M  V30 1388 O 131.729 -0.39326 1.74114 0
M  V30 1389 C 128.829 -0.650477 3.32599 0
M  V30 1390 C 128.002 0.14372 4.37164 0
M  V30 1391 C 127.061 -0.69328 5.21613 0
M  V30 1392 O 126.087 -0.12599 5.69061 0
M  V30 1393 N 127.289 -2.00761 5.44679 0
M  V30 1394 H 130.054 1.08059 2.79541 0
M  V30 1395 H 127.615 0.717103 1.45152 0
M  V30 1396 H 129.607 -1.21581 3.86005 0
M  V30 1397 H 128.177 -1.37133 2.80915 0
M  V30 1398 H 127.397 0.890486 3.8401 0
M  V30 1399 H 128.685 0.68915 5.04111 0
M  V30 1400 H 128.083 -2.49181 5.07863 0
M  V30 1401 H 126.64 -2.52103 6.01072 0
M  V30 1402 N 130.073 -1.45103 0.615059 0
M  V30 1403 C 131.005 -2.28786 -0.13762 0
M  V30 1404 C 132.018 -1.40376 -0.824525 0
M  V30 1405 O 133.207 -1.64681 -0.688662 0
M  V30 1406 C 130.307 -3.16322 -1.21628 0
M  V30 1407 C 129.48 -4.33054 -0.615039 0
M  V30 1408 C 128.539 -5.01743 -1.58556 0
M  V30 1409 O 127.565 -5.58293 -1.10895 0
M  V30 1410 N 128.767 -5.01714 -2.91998 0
M  V30 1411 H 131.532 -2.94025 0.580483 0
M  V30 1412 H 129.093 -1.55373 0.45507 0
M  V30 1413 H 131.085 -3.59139 -1.86552 0
M  V30 1414 H 129.655 -2.52943 -1.83681 0
M  V30 1415 H 128.875 -3.93627 0.21245 0
M  V30 1416 H 130.163 -5.08431 -0.193704 0
M  V30 1417 H 129.561 -4.57075 -3.33316 0
M  V30 1418 H 128.118 -5.48371 -3.52325 0
M  V30 1419 N 131.551 -0.354651 -1.53558 0
M  V30 1420 C 132.514 0.484566 -2.24019 0
M  V30 1421 C 133.514 1.01861 -1.24422 0
M  V30 1422 O 134.704 0.906097 -1.4878 0
M  V30 1423 C 131.836 1.67615 -2.96847 0
M  V30 1424 H 133.029 -0.131843 -2.9961 0
M  V30 1425 H 130.582 -0.106165 -1.55939 0
M  V30 1426 H 131.317 2.33095 -2.25471 0
M  V30 1427 H 131.102 1.30029 -3.69912 0
M  V30 1428 H 132.592 2.27114 -3.50441 0
M  V30 1429 N 133.029 1.57378 -0.0835403 0
M  V30 1430 C 134.275 1.95025 0.577664 0
M  V30 1431 C 134.63 0.964049 1.66505 0
M  V30 1432 O 133.923 -0.0118235 1.91596 0
M  V30 1433 C 134.117 3.37063 1.1884 0
M  V30 1434 C 133.946 4.49409 0.16171 0
M  V30 1435 C 132.716 5.04642 -0.257756 0
M  V30 1436 C 134.914 5.10722 -0.605634 0
M  V30 1437 N 132.896 6.00537 -1.27393 0
M  V30 1438 C 134.267 6.02225 -1.47395 0
M  V30 1439 C 136.322 4.93501 -0.660418 0
M  V30 1440 C 135.025 6.78355 -2.39221 0
M  V30 1441 C 137.051 5.70283 -1.56623 0
M  V30 1442 C 136.413 6.61444 -2.4222 0
M  V30 1443 H 132.512 0.760512 0.182058 0
M  V30 1444 H 135.096 1.94013 -0.163419 0
M  V30 1445 H 133.267 3.3879 1.89936 0
M  V30 1446 H 134.999 3.61917 1.81103 0
M  V30 1447 H 131.754 4.73428 0.127702 0
M  V30 1448 H 132.178 6.53184 -1.77987 0
M  V30 1449 H 136.82 4.22798 -0.0128221 0
M  V30 1450 H 134.538 7.48327 -3.05011 0
M  V30 1451 H 138.124 5.58976 -1.61361 0
M  V30 1452 H 137.004 7.1982 -3.11174 0
M  V30 1453 N 134.507 -0.190092 1.56449 0
M  V30 1454 C 135.923 -0.54113 1.50146 0
M  V30 1455 C 136.123 -1.85603 0.784465 0
M  V30 1456 O 135.179 -2.5024 0.337051 0
M  V30 1457 C 136.492 -0.591241 2.9483 0
M  V30 1458 C 138.04 -0.679732 3.0553 0
M  V30 1459 C 138.515 -0.760908 4.51635 0
M  V30 1460 N 140.006 -0.824302 4.55806 0
M  V30 1461 C 140.741 -0.907365 5.66175 0
M  V30 1462 N 140.237 -0.952422 6.86222 0
M  V30 1463 N 142.03 -0.94494 5.541 0
M  V30 1464 H 134.181 0.67235 2.01478 0
M  V30 1465 H 136.444 0.240127 0.917084 0
M  V30 1466 H 136.15 0.305905 3.50367 0
M  V30 1467 H 136.024 -1.44422 3.48457 0
M  V30 1468 H 138.411 -1.56731 2.50039 0
M  V30 1469 H 138.492 0.199549 2.5502 0
M  V30 1470 H 138.136 0.122336 5.07753 0
M  V30 1471 H 138.066 -1.65606 4.99882 0
M  V30 1472 H 140.557 -0.798526 3.69367 0
M  V30 1473 H 140.87 -1.01645 7.66086 0
M  V30 1474 H 139.215 -0.921014 6.8887 0
M  V30 1475 H 142.406 -0.906612 4.59236 0
M  V30 1476 H 142.579 -1.00622 6.4014 0
M  V30 1477 N 135.985 -1.50799 -0.457987 0
M  V30 1478 C 137.262 -1.52968 -1.21902 0
M  V30 1479 C 137.642 -0.281906 -2.09209 0
M  V30 1480 O 136.99 0.734076 -2.16388 0
M  V30 1481 C 137.2 -2.8326 -2.03875 0
M  V30 1482 C 138.548 -3.34425 -2.6162 0
M  V30 1483 O 139.572 -2.8467 -2.14106 0
M  V30 1484 O 138.431 -4.21188 -3.48228 0
M  V30 1485 H 135.525 -0.614129 -0.553873 0
M  V30 1486 H 138.071 -1.63098 -0.468739 0
M  V30 1487 H 136.843 -3.65543 -1.39621 0
M  V30 1488 H 136.466 -2.76195 -2.8601 0
M  V30 1489 N 137.463 0.71206 -1.40597 0
M  V30 1490 C 138.41 1.82613 -1.41142 0
M  V30 1491 C 139.38 1.63925 -0.267903 0
M  V30 1492 O 140.565 1.85009 -0.466495 0
M  V30 1493 C 137.705 3.20354 -1.28324 0
M  V30 1494 C 136.818 3.50589 -2.52411 0
M  V30 1495 C 135.953 4.77855 -2.32009 0
M  V30 1496 C 134.992 5.01005 -3.51654 0
M  V30 1497 N 134.129 6.19487 -3.30425 0
M  V30 1498 H 138.969 1.81482 -2.36365 0
M  V30 1499 H 136.506 0.886475 -1.17388 0
M  V30 1500 H 138.464 3.99899 -1.18899 0
M  V30 1501 H 137.094 3.20705 -0.367189 0
M  V30 1502 H 136.146 2.65573 -2.72351 0
M  V30 1503 H 137.458 3.63604 -3.41458 0
M  V30 1504 H 136.612 5.65424 -2.19956 0
M  V30 1505 H 135.351 4.67056 -1.40392 0
M  V30 1506 H 134.356 4.1189 -3.64179 0
M  V30 1507 H 135.581 5.13674 -4.44202 0
M  V30 1508 H 133.527 6.09932 -2.41494 0
M  V30 1509 H 133.444 6.33194 -4.13039 0
M  V30 1510 H 134.712 7.09834 -3.22113 0
M  V30 1511 N 138.941 1.26152 0.944643 0
M  V30 1512 C 140.357 1.03189 1.21754 0
M  V30 1513 C 140.557 -0.245112 2.00004 0
M  V30 1514 O 139.613 -0.955176 2.33736 0
M  V30 1515 C 140.926 2.26119 1.98219 0
M  V30 1516 C 142.474 2.30984 2.11224 0
M  V30 1517 C 142.949 3.53597 2.91089 0
M  V30 1518 N 144.44 3.54053 2.98664 0
M  V30 1519 C 145.175 4.45593 3.60881 0
M  V30 1520 N 144.671 5.47416 4.24626 0
M  V30 1521 N 146.464 4.33252 3.58119 0
M  V30 1522 H 138.615 2.08177 0.421437 0
M  V30 1523 H 140.878 0.914723 0.248969 0
M  V30 1524 H 140.584 3.18984 1.48128 0
M  V30 1525 H 140.458 2.3009 2.98895 0
M  V30 1526 H 142.845 1.38635 2.60508 0
M  V30 1527 H 142.926 2.31026 1.09821 0
M  V30 1528 H 142.57 4.46273 2.42493 0
M  V30 1529 H 142.5 3.50802 3.92741 0
M  V30 1530 H 144.991 2.80403 2.53343 0
M  V30 1531 H 145.304 6.13459 4.69987 0
M  V30 1532 H 143.649 5.51278 4.23223 0
M  V30 1533 H 146.84 3.52924 3.0751 0
M  V30 1534 H 147.013 5.04786 4.06319 0
M  V30 1535 N 140.419 -1.14872 1.07899 0
M  V30 1536 C 141.349 -2.2193 0.725887 0
M  V30 1537 C 142.33 -1.67622 -0.28927 0
M  V30 1538 O 143.515 -1.93533 -0.160787 0
M  V30 1539 C 140.645 -3.47061 0.128856 0
M  V30 1540 C 139.599 -4.14363 1.07178 0
M  V30 1541 C 138.925 -5.33636 0.337229 0
M  V30 1542 C 140.225 -4.63492 2.40775 0
M  V30 1543 H 141.919 -2.51724 1.62097 0
M  V30 1544 H 139.465 -1.20991 0.780838 0
M  V30 1545 H 141.418 -4.21199 -0.130147 0
M  V30 1546 H 140.142 -3.16617 -0.80134 0
M  V30 1547 H 138.801 -3.42173 1.3158 0
M  V30 1548 H 138.449 -4.99449 -0.596606 0
M  V30 1549 H 138.149 -5.79609 0.965788 0
M  V30 1550 H 139.673 -6.10539 0.0861567 0
M  V30 1551 H 141.087 -5.2913 2.20669 0
M  V30 1552 H 139.484 -5.20148 2.99276 0
M  V30 1553 H 140.554 -3.78834 3.02676 0
M  V30 1554 N 141.898 -0.863906 -1.31812 0
M  V30 1555 C 143.123 -0.48527 -2.01643 0
M  V30 1556 C 143.548 0.913058 -1.64453 0
M  V30 1557 O 142.906 1.6014 -0.849985 0
M  V30 1558 C 142.954 -0.642625 -3.54828 0
M  V30 1559 O 142.058 0.320659 -4.11151 0
M  V30 1560 H 141.399 -0.193793 -0.635091 0
M  V30 1561 H 143.929 -1.16565 -1.68148 0
M  V30 1562 H 143.939 -0.533628 -4.04495 0
M  V30 1563 H 142.614 -1.66227 -3.81237 0
M  V30 1564 H 141.191 0.167126 -3.72525 0
M  V30 1565 N 143.376 1.44774 -0.622745 0
M  V30 1566 C 144.606 2.06187 -0.130532 0
M  V30 1567 C 145.014 1.46547 1.19669 0
M  V30 1568 O 144.357 0.579636 1.74316 0
M  V30 1569 C 144.419 3.59437 0.0674983 0
M  V30 1570 C 144.083 4.41496 -1.18026 0
M  V30 1571 C 145.08 4.75512 -2.102 0
M  V30 1572 C 142.765 4.82007 -1.41333 0
M  V30 1573 C 144.759 5.48912 -3.23998 0
M  V30 1574 C 142.446 5.55157 -2.55429 0
M  V30 1575 C 143.444 5.88528 -3.46589 0
M  V30 1576 O 143.132 6.60191 -4.58697 0
M  V30 1577 H 142.864 0.672045 -0.0730162 0
M  V30 1578 H 145.418 1.86768 -0.854802 0
M  V30 1579 H 143.648 3.77314 0.846825 0
M  V30 1580 H 145.337 4.02642 0.513209 0
M  V30 1581 H 146.103 4.4476 -1.93425 0
M  V30 1582 H 141.982 4.55457 -0.712709 0
M  V30 1583 H 145.526 5.74877 -3.95174 0
M  V30 1584 H 141.423 5.85324 -2.72151 0
M  V30 1585 H 142.191 6.78654 -4.57571 0
M  V30 1586 N 144.854 0.36279 1.53368 0
M  V30 1587 C 145.802 -0.500155 2.27159 0
M  V30 1588 C 146.796 -1.08575 1.3003 0
M  V30 1589 O 148.002 -1.02927 1.47668 0
M  V30 1590 H 144.377 -0.180009 0.730138 0
M  V30 1591 H 146.348 0.14401 2.98052 0
M  V30 1592 C 145.097 -1.62937 3.07159 0
M  V30 1593 H 144.42 -1.18806 3.8174 0
M  V30 1594 H 145.86 -2.20795 3.61975 0
M  V30 1595 C 144.319 -2.57007 2.17829 0
M  V30 1596 O 144.849 -3.59752 1.78721 0
M  V30 1597 N 143.055 -2.26131 1.82518 0
M  V30 1598 H 142.602 -1.42616 2.14519 0
M  V30 1599 H 142.56 -2.89327 1.23034 0
M  V30 1600 N 146.332 -1.57332 0.0918853 0
M  V30 1601 C 147.578 -1.94524 -0.573425 0
M  V30 1602 C 147.911 -0.973578 -1.68033 0
M  V30 1603 O 147.186 -0.00609226 -1.94499 0
M  V30 1604 C 147.469 -3.41858 -1.13161 0
M  V30 1605 C 147.322 -4.4979 -0.0299747 0
M  V30 1606 C 148.641 -3.90435 -2.03098 0
M  V30 1607 H 145.76 -0.70734 -0.206975 0
M  V30 1608 H 148.402 -1.89309 0.161942 0
M  V30 1609 H 146.552 -3.46433 -1.7583 0
M  V30 1610 H 148.224 -4.57327 0.604112 0
M  V30 1611 H 146.467 -4.291 0.636833 0
M  V30 1612 H 147.138 -5.50069 -0.461287 0
M  V30 1613 H 149.614 -3.87992 -1.50338 0
M  V30 1614 H 148.49 -4.94097 -2.39081 0
M  V30 1615 H 148.751 -3.29541 -2.94712 0
M  V30 1616 N 147.81 0.181792 -1.56548 0
M  V30 1617 C 149.059 0.898348 -1.8059 0
M  V30 1618 C 149.372 1.83862 -0.667379 0
M  V30 1619 O 150.578 2.59678 -0.792446 0
M  V30 1620 C 149.034 1.64791 -3.19956 0
M  V30 1621 C 148.642 0.751789 -4.41647 0
M  V30 1622 C 150.386 2.35331 -3.53298 0
M  V30 1623 C 148.293 1.50098 -5.72035 0
M  V30 1624 H 147.223 0.339194 -0.673397 0
M  V30 1625 H 149.874 0.151413 -1.82874 0
M  V30 1626 H 148.256 2.43921 -3.11959 0
M  V30 1627 H 149.43 -0.0018076 -4.608 0
M  V30 1628 H 147.745 0.156562 -4.16106 0
M  V30 1629 H 150.342 2.91958 -4.47956 0
M  V30 1630 H 150.685 3.10164 -2.77676 0
M  V30 1631 H 151.218 1.63154 -3.62803 0
M  V30 1632 H 147.957 0.795175 -6.50659 0
M  V30 1633 H 147.477 2.22817 -5.56878 0
M  V30 1634 H 149.156 2.05125 -6.13622 0
M  V30 1635 N 149.288 1.51039 0.449983 0
M  V30 1636 C 150.699 1.557 1.03026 0
M  V30 1637 C 151.05 0.372939 1.92623 0
M  V30 1638 O 150.175 -0.511771 2.10261 0
M  V30 1639 C 150.77 2.82171 1.87523 0
M  V30 1640 C 149.329 2.89444 2.40622 0
M  V30 1641 C 148.476 2.50228 1.19504 0
M  V30 1642 H 151.427 1.56999 0.231745 0
M  V30 1643 H 151.448 2.65219 2.72835 0
M  V30 1644 H 150.96 3.68331 1.22286 0
M  V30 1645 H 149.061 2.07685 3.0935 0
M  V30 1646 H 149.174 3.92816 2.74285 0
M  V30 1647 H 147.538 2.03139 1.53644 0
M  V30 1648 H 148.321 3.38719 0.558972 0
M  V30 1649 N 150.766 -0.704594 1.40972 0
M  V30 1650 C 151.696 -1.83124 1.44872 0
M  V30 1651 C 152.677 -1.67281 0.30838 0
M  V30 1652 O 153.862 -1.87149 0.518556 0
M  V30 1653 C 150.992 -3.21181 1.32136 0
M  V30 1654 C 149.946 -3.51714 2.43888 0
M  V30 1655 C 149.272 -4.89032 2.16222 0
M  V30 1656 C 150.572 -3.516 3.86232 0
M  V30 1657 H 152.266 -1.80117 2.39161 0
M  V30 1658 H 149.812 -0.865145 1.15114 0
M  V30 1659 H 151.765 -3.99702 1.33479 0
M  V30 1660 H 150.489 -3.24791 0.343279 0
M  V30 1661 H 149.148 -2.75539 2.41813 0
M  V30 1662 H 148.796 -4.89256 1.16778 0
M  V30 1663 H 148.496 -5.10426 2.911 0
M  V30 1664 H 150.02 -5.69873 2.19265 0
M  V30 1665 H 151.434 -4.2014 3.9007 0
M  V30 1666 H 149.831 -3.84523 4.60719 0
M  V30 1667 H 150.901 -2.50757 4.15029 0
M  V30 1668 N 152.244 -1.26651 -0.937939 0
M  V30 1669 C 153.192 -1.08308 -2.05845 0
M  V30 1670 C 154.186 -0.0090757 -1.69398 0
M  V30 1671 O 155.392 -0.166007 -1.79233 0
M  V30 1672 H 151.767 -0.333416 -0.674046 0
M  V30 1673 H 153.738 -2.03261 -2.18467 0
M  V30 1674 C 152.487 -0.736229 -3.39816 0
M  V30 1675 H 151.81 -1.55453 -3.6834 0
M  V30 1676 H 153.25 -0.64769 -4.19024 0
M  V30 1677 C 151.709 0.558824 -3.32233 0
M  V30 1678 O 152.239 1.59621 -3.68624 0
M  V30 1679 N 150.445 0.550657 -2.85335 0
M  V30 1680 H 149.992 -0.293943 -2.55917 0
M  V30 1681 H 149.95 1.41726 -2.80644 0
M  V30 1682 N 153.722 1.14298 -1.08507 0
M  V30 1683 C 154.652 2.21542 -0.737646 0
M  V30 1684 C 155.633 1.67773 0.280377 0
M  V30 1685 O 156.818 1.93616 0.150521 0
M  V30 1686 C 153.948 3.46988 -0.147259 0
M  V30 1687 C 152.902 4.13789 -1.09374 0
M  V30 1688 C 152.228 5.33449 -0.365524 0
M  V30 1689 C 153.528 4.62208 -2.4323 0
M  V30 1690 H 155.222 2.5086 -1.6343 0
M  V30 1691 H 152.768 1.20576 -0.787243 0
M  V30 1692 H 154.721 4.21262 0.107808 0
M  V30 1693 H 153.445 3.17037 0.784538 0
M  V30 1694 H 152.104 3.4147 -1.33393 0
M  V30 1695 H 151.752 4.99759 0.57011 0
M  V30 1696 H 151.452 5.79088 -0.996512 0
M  V30 1697 H 152.976 6.10485 -0.118534 0
M  V30 1698 H 154.39 5.27952 -2.23472 0
M  V30 1699 H 152.787 5.18553 -3.02031 0
M  V30 1700 H 153.857 3.77224 -3.04681 0
M  V30 1701 N 155.201 0.870884 1.31352 0
M  V30 1702 C 156.429 0.49677 2.00848 0
M  V30 1703 C 156.844 -0.910998 1.65367 0
M  V30 1704 O 156.201 -1.59696 0.883374 0
M  V30 1705 C 156.252 0.645308 3.55694 0
M  V30 1706 O 155.973 1.99764 3.89905 0
M  V30 1707 C 157.474 0.272326 4.42463 0
M  V30 1708 H 154.694 0.193462 0.642506 0
M  V30 1709 H 157.238 1.1723 1.67563 0
M  V30 1710 H 155.393 0.0173176 3.87396 0
M  V30 1711 H 155.807 2.00607 4.84621 0
M  V30 1712 H 157.281 0.427208 5.50344 0
M  V30 1713 H 157.758 -0.788587 4.32062 0
M  V30 1714 H 158.364 0.876054 4.1618 0
M  V30 1715 N 156.679 -1.44442 0.630414 0
M  V30 1716 C 157.609 -2.33418 -0.0618083 0
M  V30 1717 C 158.59 -1.48165 -0.835541 0
M  V30 1718 O 159.775 -1.76886 -0.801564 0
M  V30 1719 C 156.905 -3.31222 -1.04449 0
M  V30 1720 C 155.859 -4.26288 -0.382436 0
M  V30 1721 C 155.185 -5.13954 -1.47497 0
M  V30 1722 C 156.485 -5.1744 0.710865 0
M  V30 1723 H 158.179 -2.91548 0.681184 0
M  V30 1724 H 155.725 -1.40191 0.329026 0
M  V30 1725 H 157.678 -3.92351 -1.53748 0
M  V30 1726 H 156.402 -2.71299 -1.81836 0
M  V30 1727 H 155.061 -3.6649 0.0899054 0
M  V30 1728 H 154.709 -4.50385 -2.2397 0
M  V30 1729 H 154.409 -5.7837 -1.03737 0
M  V30 1730 H 155.933 -5.77955 -1.96979 0
M  V30 1731 H 157.347 -5.72509 0.300996 0
M  V30 1732 H 155.744 -5.90455 1.07156 0
M  V30 1733 H 156.814 -4.58496 1.57829 0
M  V30 1734 N 158.157 -0.370918 -1.53173 0
M  V30 1735 C 159.434 0.273754 -1.93675 0
M  V30 1736 C 159.814 1.65938 -1.3049 0
M  V30 1737 O 159.162 2.23698 -0.465999 0
M  V30 1738 C 159.372 0.318602 -3.47543 0
M  V30 1739 C 160.72 0.556392 -4.20939 0
M  V30 1740 O 161.744 0.399587 -3.53952 0
M  V30 1741 O 160.603 0.862133 -5.39657 0
M  V30 1742 H 157.697 0.165448 -0.810281 0
M  V30 1743 H 160.243 -0.42409 -1.64315 0
M  V30 1744 H 159.015 -0.652687 -3.85818 0
M  V30 1745 H 158.638 1.06212 -3.83151 0
M  V30 1746 N 159.635 1.57281 -0.100228 0
M  V30 1747 C 160.583 2.15542 0.874328 0
M  V30 1748 C 161.577 1.09962 1.28859 0
M  V30 1749 O 162.783 1.28298 1.26252 0
M  V30 1750 H 159.158 0.689567 0.300003 0
M  V30 1751 H 161.129 2.96241 0.35829 0
M  V30 1752 C 159.878 2.75454 2.1218 0
M  V30 1753 H 159.201 3.56384 1.81193 0
M  V30 1754 H 160.641 3.19781 2.78417 0
M  V30 1755 C 159.1 1.71602 2.89921 0
M  V30 1756 O 159.63 1.15804 3.84646 0
M  V30 1757 N 157.836 1.41975 2.53558 0
M  V30 1758 H 157.383 1.87539 1.76598 0
M  V30 1759 H 157.341 0.727274 3.05873 0
M  V30 1760 N 161.113 -0.173488 1.56642 0
M  V30 1761 C 162.529 -0.525174 1.50712 0
M  V30 1762 C 162.729 -1.8476 0.804107 0
M  V30 1763 O 161.785 -2.49869 0.363574 0
M  V30 1764 C 163.098 -0.559937 2.95441 0
M  V30 1765 C 164.646 -0.647288 3.06234 0
M  V30 1766 C 165.121 -0.712963 4.52417 0
M  V30 1767 N 166.612 -0.775911 4.56655 0
M  V30 1768 C 167.347 -0.847264 5.67106 0
M  V30 1769 N 166.843 -0.879585 6.87194 0
M  V30 1770 N 168.636 -0.886117 5.55071 0
M  V30 1771 H 160.787 0.693681 2.00753 0
M  V30 1772 H 163.05 0.249841 0.914485 0
M  V30 1773 H 162.756 0.343049 3.50023 0
M  V30 1774 H 162.63 -1.40718 3.49969 0
M  V30 1775 H 165.017 -1.5407 2.51687 0
M  V30 1776 H 165.098 0.226586 2.54794 0
M  V30 1777 H 164.742 0.176183 5.07594 0
M  V30 1778 H 164.672 -1.60295 5.0161 0
M  V30 1779 H 167.163 -0.759304 3.70193 0
M  V30 1780 H 167.476 -0.935144 7.67121 0
M  V30 1781 H 165.821 -0.847898 6.89808 0
M  V30 1782 H 169.012 -0.857853 4.60172 0
M  V30 1783 H 169.185 -0.938263 6.41171 0
M  V30 1784 N 162.591 -1.51276 -0.441967 0
M  V30 1785 C 163.837 -1.63958 -1.19355 0
M  V30 1786 C 164.17 -0.352543 -1.90973 0
M  V30 1787 O 163.445 0.647627 -1.83401 0
M  V30 1788 C 163.728 -2.83979 -2.21422 0
M  V30 1789 C 163.581 -4.22646 -1.53918 0
M  V30 1790 C 164.9 -2.99521 -3.22451 0
M  V30 1791 H 162.019 -0.596709 -0.432559 0
M  V30 1792 H 164.661 -1.83748 -0.483398 0
M  V30 1793 H 162.811 -2.67237 -2.81987 0
M  V30 1794 H 164.483 -4.51045 -0.967256 0
M  V30 1795 H 162.726 -4.25558 -0.841615 0
M  V30 1796 H 163.397 -5.02609 -2.28229 0
M  V30 1797 H 165.873 -3.14944 -2.71937 0
M  V30 1798 H 164.749 -3.85072 -3.91166 0
M  V30 1799 H 165.01 -2.11391 -3.88287 0
M  V30 1800 N 164.069 0.697108 -1.41344 0
M  V30 1801 C 165.032 1.79281 -1.42797 0
M  V30 1802 C 166.032 1.57607 -0.318837 0
M  V30 1803 O 167.222 1.64309 -0.578642 0
M  V30 1804 C 164.354 3.17632 -1.23785 0
M  V30 1805 H 165.547 1.79385 -2.40335 0
M  V30 1806 H 163.1 0.904582 -1.27464 0
M  V30 1807 H 163.835 3.23167 -0.270814 0
M  V30 1808 H 163.62 3.34765 -2.04144 0
M  V30 1809 H 165.11 3.97617 -1.27633 0
M  V30 1810 N 165.547 1.27147 0.931209 0
M  V30 1811 C 166.824 1.0401 1.65654 0
M  V30 1812 C 167.204 -0.426297 2.06751 0
M  V30 1813 O 166.552 -1.40879 1.79904 0
M  V30 1814 C 166.762 1.99834 2.86125 0
M  V30 1815 C 168.11 2.29007 3.57549 0
M  V30 1816 O 169.134 1.97779 2.96246 0
M  V30 1817 O 167.993 2.82222 4.67989 0
M  V30 1818 H 165.087 0.396239 0.725895 0
M  V30 1819 H 167.633 1.38397 0.982056 0
M  V30 1820 H 166.405 2.98744 2.52721 0
M  V30 1821 H 166.028 1.65987 3.61295 0
M  V30 1822 N 167.025 -1.13721 1.09112 0
M  V30 1823 C 167.957 -2.1871 0.685467 0
M  V30 1824 C 168.97 -1.60527 -0.271068 0
M  V30 1825 O 170.159 -1.78407 -0.0576148 0
M  V30 1826 C 167.259 -3.38898 -0.0111255 0
M  V30 1827 C 166.432 -4.26597 0.966131 0
M  V30 1828 C 165.491 -5.25324 0.303539 0
M  V30 1829 O 164.517 -5.61213 0.950177 0
M  V30 1830 N 165.719 -5.72779 -0.943651 0
M  V30 1831 H 168.484 -2.54126 1.58871 0
M  V30 1832 H 166.045 -1.29012 0.978143 0
M  V30 1833 H 168.037 -4.02014 -0.465517 0
M  V30 1834 H 166.607 -3.01747 -0.816565 0
M  V30 1835 H 165.827 -3.60306 1.59917 0
M  V30 1836 H 167.115 -4.82048 1.6281 0
M  V30 1837 H 166.513 -5.45762 -1.48862 0
M  V30 1838 H 165.07 -6.37847 -1.34142 0
M  V30 1839 N 168.503 -0.877838 -1.30888 0
M  V30 1840 C 169.433 -0.35534 -2.3078 0
M  V30 1841 C 170.414 0.557994 -1.60687 0
M  V30 1842 O 171.599 0.473355 -1.88343 0
M  V30 1843 C 168.729 0.437221 -3.44537 0
M  V30 1844 C 167.683 -0.383715 -4.26276 0
M  V30 1845 C 167.009 0.535014 -5.32017 0
M  V30 1846 C 168.309 -1.62201 -4.96476 0
M  V30 1847 H 170.003 -1.19007 -2.74732 0
M  V30 1848 H 167.549 -0.573698 -1.32078 0
M  V30 1849 H 169.502 0.813334 -4.13477 0
M  V30 1850 H 168.226 1.30553 -2.99372 0
M  V30 1851 H 166.885 -0.741874 -3.59015 0
M  V30 1852 H 166.533 1.40083 -4.831 0
M  V30 1853 H 166.233 -0.0104211 -5.87599 0
M  V30 1854 H 167.757 0.907799 -6.03814 0
M  V30 1855 H 169.171 -1.31689 -5.5797 0
M  V30 1856 H 167.568 -2.10711 -5.61891 0
M  V30 1857 H 168.638 -2.37044 -4.23011 0
M  V30 1858 N 169.982 1.44106 -0.638065 0
M  V30 1859 C 171.228 2.02815 -0.15409 0
M  V30 1860 C 171.583 1.49342 1.21304 0
M  V30 1861 O 170.876 0.670699 1.79478 0
M  V30 1862 C 171.07 3.5729 -0.0887327 0
M  V30 1863 C 170.899 4.2575 -1.44799 0
M  V30 1864 C 169.669 4.62443 -2.03653 0
M  V30 1865 C 171.867 4.55746 -2.38327 0
M  V30 1866 N 169.849 5.15903 -3.32741 0
M  V30 1867 C 171.22 5.10364 -3.52036 0
M  V30 1868 C 173.275 4.37703 -2.3732 0
M  V30 1869 C 171.978 5.48837 -4.64941 0
M  V30 1870 C 174.004 4.77229 -3.49294 0
M  V30 1871 C 173.366 5.31966 -4.61726 0
M  V30 1872 H 169.465 0.775519 -0.100466 0
M  V30 1873 H 172.049 1.755 -0.843071 0
M  V30 1874 H 170.22 3.84201 0.569548 0
M  V30 1875 H 171.952 4.02671 0.404711 0
M  V30 1876 H 168.707 4.46987 -1.56523 0
M  V30 1877 H 169.131 5.47102 -3.98758 0
M  V30 1878 H 173.773 3.94671 -1.51641 0
M  V30 1879 H 171.491 5.9082 -5.51323 0
M  V30 1880 H 175.077 4.64976 -3.49698 0
M  V30 1881 H 173.957 5.61986 -5.46939 0
M  V30 1882 N 171.46 0.379036 1.52974 0
M  V30 1883 C 172.706 -0.206727 2.01744 0
M  V30 1884 C 173.039 -1.47314 1.26539 0
M  V30 1885 O 172.314 -1.91084 0.362903 0
M  V30 1886 C 172.597 -0.485066 3.56818 0
M  V30 1887 C 172.45 0.795919 4.42702 0
M  V30 1888 C 173.769 -1.28003 4.21074 0
M  V30 1889 H 170.888 -0.0736607 0.73331 0
M  V30 1890 H 173.53 0.506581 1.83122 0
M  V30 1891 H 171.68 -1.09272 3.72816 0
M  V30 1892 H 173.352 1.43307 4.38476 0
M  V30 1893 H 171.595 1.41344 4.10127 0
M  V30 1894 H 172.266 0.555947 5.49193 0
M  V30 1895 H 174.742 -0.765867 4.08991 0
M  V30 1896 H 173.618 -1.44352 5.29579 0
M  V30 1897 H 173.879 -2.29236 3.78026 0
M  V30 1898 N 172.938 -1.57226 0.108567 0
M  V30 1899 C 174.349 -1.8195 -0.418464 0
M  V30 1900 C 174.7 -1.02508 -1.67292 0
M  V30 1901 O 173.825 -0.258496 -2.14851 0
M  V30 1902 C 174.42 -3.30028 -0.765979 0
M  V30 1903 C 172.979 -3.55469 -1.23769 0
M  V30 1904 C 172.126 -2.7625 -0.241106 0
M  V30 1905 H 175.077 -1.55149 0.33384 0
M  V30 1906 H 175.098 -3.44086 -1.62434 0
M  V30 1907 H 174.61 -3.87821 0.147219 0
M  V30 1908 H 172.711 -3.03022 -2.16814 0
M  V30 1909 H 172.824 -4.6408 -1.19022 0
M  V30 1910 H 171.188 -2.44133 -0.72602 0
M  V30 1911 H 171.971 -3.36797 0.665007 0
M  V30 1912 N 174.416 0.165178 -1.56732 0
M  V30 1913 C 175.693 0.908443 -1.73224 0
M  V30 1914 C 176.073 2.0013 -0.67165 0
M  V30 1915 O 175.421 2.26353 0.31253 0
M  V30 1916 C 175.631 1.46756 -3.16644 0
M  V30 1917 C 176.979 1.93809 -3.77787 0
M  V30 1918 O 178.003 1.56537 -3.1996 0
M  V30 1919 O 176.862 2.62486 -4.79336 0
M  V30 1920 H 173.956 0.428025 -0.707618 0
M  V30 1921 H 176.502 0.152526 -1.69013 0
M  V30 1922 H 175.274 0.68129 -3.85323 0
M  V30 1923 H 174.897 2.28749 -3.25207 0
M  V30 1924 N 175.894 1.51508 0.433938 0
M  V30 1925 C 177.122 1.68157 1.20543 0
M  V30 1926 C 177.537 0.380362 1.84929 0
M  V30 1927 O 176.894 -0.641446 1.70856 0
M  V30 1928 C 176.945 2.79965 2.28696 0
M  V30 1929 O 176.666 4.05045 1.66943 0
M  V30 1930 C 178.167 3.07912 3.18912 0
M  V30 1931 H 175.387 0.56421 0.363191 0
M  V30 1932 H 177.931 1.97941 0.513754 0
M  V30 1933 H 176.086 2.5277 2.93574 0
M  V30 1934 H 176.5 4.67165 2.38448 0
M  V30 1935 H 177.974 3.89719 3.90926 0
M  V30 1936 H 178.451 2.20456 3.79863 0
M  V30 1937 H 179.057 3.36779 2.59731 0
M  V30 1938 N 177.372 -0.689602 1.41712 0
M  V30 1939 C 178.602 -1.47613 1.44548 0
M  V30 1940 C 179.01 -1.89132 0.0509034 0
M  V30 1941 O 178.353 -1.57741 -0.94146 0
M  V30 1942 C 178.415 -2.76596 2.2964 0
M  V30 1943 C 178.079 -2.57245 3.77722 0
M  V30 1944 C 179.076 -2.22804 4.69739 0
M  V30 1945 C 176.761 -2.727 4.2183 0
M  V30 1946 C 178.755 -2.04064 6.03851 0
M  V30 1947 C 176.442 -2.53576 5.56006 0
M  V30 1948 C 177.44 -2.1931 6.46832 0
M  V30 1949 O 177.128 -2.00359 7.78532 0
M  V30 1950 H 176.86 -0.461227 0.494212 0
M  V30 1951 H 179.414 -0.856045 1.86711 0
M  V30 1952 H 177.644 -3.41033 1.82301 0
M  V30 1953 H 179.333 -3.38424 2.24107 0
M  V30 1954 H 180.099 -2.10473 4.36951 0
M  V30 1955 H 175.978 -2.98353 3.51435 0
M  V30 1956 H 179.522 -1.77241 6.74708 0
M  V30 1957 H 175.419 -2.65499 5.88371 0
M  V30 1958 H 176.187 -2.15075 7.89737 0
M  V30 1959 N 178.85 -1.27639 -0.924453 0
M  V30 1960 C 180.097 -1.14167 -1.67249 0
M  V30 1961 C 180.425 0.311863 -1.91984 0
M  V30 1962 O 179.68 1.24425 -1.51053 0
M  V30 1963 C 179.979 -1.87407 -3.04325 0
M  V30 1964 C 179.645 -3.37249 -2.99289 0
M  V30 1965 C 178.307 -3.7812 -2.97622 0
M  V30 1966 C 180.659 -4.32845 -2.90336 0
M  V30 1967 C 177.987 -5.12944 -2.8479 0
M  V30 1968 C 180.339 -5.6773 -2.79045 0
M  V30 1969 C 179.003 -6.07889 -2.7573 0
M  V30 1970 H 178.273 -0.417766 -0.612007 0
M  V30 1971 H 180.92 -1.58286 -1.07786 0
M  V30 1972 H 179.225 -1.35805 -3.67511 0
M  V30 1973 H 180.922 -1.74408 -3.61086 0
M  V30 1974 H 177.512 -3.04748 -3.01374 0
M  V30 1975 H 181.696 -4.02239 -2.90719 0
M  V30 1976 H 176.952 -5.432 -2.80612 0
M  V30 1977 H 181.126 -6.41472 -2.71083 0
M  V30 1978 H 178.753 -7.12314 -2.65544 0
M  V30 1979 N 180.328 1.1314 -1.09713 0
M  V30 1980 C 181.258 2.20748 -0.761102 0
M  V30 1981 C 182.239 1.68061 0.262566 0
M  V30 1982 O 183.424 1.93765 0.129977 0
M  V30 1983 C 180.554 3.46812 -0.184054 0
M  V30 1984 C 179.508 4.12606 -1.13757 0
M  V30 1985 C 178.834 5.33031 -0.422083 0
M  V30 1986 C 180.134 4.59603 -2.48118 0
M  V30 1987 H 181.828 2.49113 -1.66082 0
M  V30 1988 H 179.374 1.19734 -0.799987 0
M  V30 1989 H 181.327 4.21353 0.0631215 0
M  V30 1990 H 180.051 3.17851 0.750868 0
M  V30 1991 H 178.71 3.40036 -1.37007 0
M  V30 1992 H 178.358 5.00335 0.517072 0
M  V30 1993 H 178.058 5.77999 -1.05788 0
M  V30 1994 H 179.582 6.10325 -0.183277 0
M  V30 1995 H 180.996 5.25552 -2.29059 0
M  V30 1996 H 179.393 5.15321 -3.07514 0
M  V30 1997 H 180.463 3.73971 -3.08665 0
M  V30 1998 N 181.806 0.884767 1.30421 0
M  V30 1999 C 182.754 0.340869 2.30089 0
M  V30 2000 C 183.748 -0.55201 1.60154 0
M  V30 2001 O 184.954 -0.436467 1.74628 0
M  V30 2002 H 181.329 0.0915739 0.746404 0
M  V30 2003 H 183.3 1.19513 2.73421 0
M  V30 2004 C 182.049 -0.429779 3.45034 0
M  V30 2005 H 181.372 0.248024 3.9903 0
M  V30 2006 H 182.812 -0.775445 4.16849 0
M  V30 2007 C 181.271 -1.62677 2.95022 0
M  V30 2008 O 181.801 -2.72614 2.95033 0
M  V30 2009 N 180.007 -1.46387 2.51036 0
M  V30 2010 H 179.554 -0.569506 2.51226 0
M  V30 2011 H 179.512 -2.26612 2.17932 0
M  V30 2012 N 183.284 -1.43765 0.645699 0
M  V30 2013 C 184.561 -1.9541 0.0862963 0
M  V30 2014 C 184.941 -1.58725 -1.39175 0
M  V30 2015 O 184.289 -0.868581 -2.11348 0
M  V30 2016 C 184.499 -3.47488 0.324565 0
M  V30 2017 C 185.847 -4.24001 0.225497 0
M  V30 2018 O 186.871 -3.55274 0.256715 0
M  V30 2019 O 185.73 -5.46313 0.142801 0
M  V30 2020 H 182.824 -0.826882 -0.0139483 0
M  V30 2021 H 185.37 -1.53743 0.718415 0
M  V30 2022 H 184.142 -3.67289 1.3496 0
M  V30 2023 H 183.765 -3.96135 -0.340987 0
M  V30 2024 N 184.763 -0.387143 -1.52771 0
M  V30 2025 C 185.71 0.449048 -2.26389 0
M  V30 2026 C 186.68 1.05961 -1.27912 0
M  V30 2027 O 187.865 1.08804 -1.56737 0
M  V30 2028 C 185.005 1.57155 -3.0724 0
M  V30 2029 C 184.118 0.984066 -4.20643 0
M  V30 2030 C 183.253 2.07745 -4.88892 0
M  V30 2031 C 182.292 1.46574 -5.94292 0
M  V30 2032 N 181.429 2.49834 -6.56146 0
M  V30 2033 H 186.269 -0.185205 -2.97424 0
M  V30 2034 H 183.806 -0.103164 -1.46738 0
M  V30 2035 H 185.764 2.23309 -3.52405 0
M  V30 2036 H 184.394 2.17615 -2.38419 0
M  V30 2037 H 183.446 0.212193 -3.79808 0
M  V30 2038 H 184.758 0.497029 -4.96318 0
M  V30 2039 H 183.912 2.81673 -5.3735 0
M  V30 2040 H 182.651 2.59807 -4.12737 0
M  V30 2041 H 181.656 0.711696 -5.45174 0
M  V30 2042 H 182.881 0.953088 -6.72379 0
M  V30 2043 H 180.827 3.0107 -5.82832 0
M  V30 2044 H 180.744 2.05879 -7.27427 0
M  V30 2045 H 182.012 3.23399 -7.09249 0
M  V30 2046 N 186.241 1.57166 -0.116904 0
M  V30 2047 C 187.188 2.15202 0.83408 0
M  V30 2048 C 188.158 1.07644 1.26499 0
M  V30 2049 O 189.343 1.35541 1.34288 0
M  V30 2050 C 186.483 2.75405 2.07957 0
M  V30 2051 C 185.596 3.97264 1.69721 0
M  V30 2052 C 184.731 4.45561 2.89221 0
M  V30 2053 C 183.77 5.59956 2.47215 0
M  V30 2054 N 182.907 6.03006 3.59622 0
M  V30 2055 H 187.747 2.96141 0.332335 0
M  V30 2056 H 185.284 1.46309 0.152349 0
M  V30 2057 H 187.242 3.08439 2.80929 0
M  V30 2058 H 185.872 1.97159 2.55594 0
M  V30 2059 H 184.924 3.70404 0.866316 0
M  V30 2060 H 186.236 4.80226 1.34849 0
M  V30 2061 H 185.39 4.80493 3.7042 0
M  V30 2062 H 184.129 3.61544 3.27318 0
M  V30 2063 H 183.134 5.2463 1.64448 0
M  V30 2064 H 184.359 6.45738 2.10238 0
M  V30 2065 H 182.305 5.21931 3.97396 0
M  V30 2066 H 182.222 6.80819 3.28667 0
M  V30 2067 H 183.49 6.42576 4.41267 0
M  V30 2068 N 187.719 -0.156864 1.56817 0
M  V30 2069 C 188.944 -0.890331 1.87318 0
M  V30 2070 C 189.369 -1.74394 0.704855 0
M  V30 2071 O 188.727 -1.77972 -0.345786 0
M  V30 2072 C 188.775 -1.73102 3.16336 0
M  V30 2073 O 187.879 -2.83422 2.99576 0
M  V30 2074 H 187.22 -0.24857 0.615718 0
M  V30 2075 H 189.75 -0.150649 2.04045 0
M  V30 2076 H 189.76 -2.12803 3.48107 0
M  V30 2077 H 188.435 -1.10412 4.00976 0
M  V30 2078 H 187.012 -2.47199 2.7919 0
M  V30 2079 N 189.197 -1.51736 -0.425897 0
M  V30 2080 C 190.444 -1.6497 -1.17436 0
M  V30 2081 C 190.772 -0.371445 -1.9092 0
M  V30 2082 O 190.027 0.644963 -1.84767 0
M  V30 2083 C 190.326 -2.81103 -2.20717 0
M  V30 2084 C 189.992 -4.19954 -1.64162 0
M  V30 2085 C 188.654 -4.57725 -1.48462 0
M  V30 2086 C 191.006 -5.06552 -1.22696 0
M  V30 2087 C 188.334 -5.79789 -0.897873 0
M  V30 2088 C 190.686 -6.29205 -0.654464 0
M  V30 2089 C 189.35 -6.6574 -0.484456 0
M  V30 2090 H 188.62 -0.603668 -0.429727 0
M  V30 2091 H 191.267 -1.85798 -0.463829 0
M  V30 2092 H 189.572 -2.54542 -2.97852 0
M  V30 2093 H 191.269 -2.8854 -2.78471 0
M  V30 2094 H 187.859 -3.90181 -1.77361 0
M  V30 2095 H 192.043 -4.77968 -1.33642 0
M  V30 2096 H 187.299 -6.06733 -0.75402 0
M  V30 2097 H 191.473 -6.95643 -0.324694 0
M  V30 2098 H 189.1 -7.60195 -0.0276833 0
M  V30 2099 N 190.675 0.682077 -1.42076 0
M  V30 2100 C 191.921 1.44428 -1.42367 0
M  V30 2101 C 192.254 1.94164 -0.0373056 0
M  V30 2102 O 191.529 1.70429 0.937239 0
M  V30 2103 C 191.812 2.64654 -2.44194 0
M  V30 2104 C 191.665 2.20596 -3.91991 0
M  V30 2105 C 192.984 3.66865 -2.431 0
M  V30 2106 H 190.103 0.523834 -0.518428 0
M  V30 2107 H 192.745 0.77576 -1.73442 0
M  V30 2108 H 190.895 3.2169 -2.17826 0
M  V30 2109 H 192.567 1.68783 -4.29313 0
M  V30 2110 H 190.81 1.52242 -4.06208 0
M  V30 2111 H 191.481 3.06921 -4.58807 0
M  V30 2112 H 193.957 3.19531 -2.66532 0
M  V30 2113 H 192.833 4.48577 -3.16339 0
M  V30 2114 H 193.094 4.17493 -1.45437 0
M  V30 2115 N 192.153 1.28127 0.917671 0
M  V30 2116 C 193.103 1.08361 2.00604 0
M  V30 2117 C 194.087 0.00847518 1.60898 0
M  V30 2118 O 195.279 0.228167 1.75523 0
M  V30 2119 C 192.408 0.743376 3.35155 0
M  V30 2120 C 191.494 1.85716 3.81275 0
M  V30 2121 N 191.885 3.09822 3.99805 0
M  V30 2122 C 190.183 1.74612 4.10398 0
M  V30 2123 C 190.884 3.82368 4.38372 0
M  V30 2124 N 189.86 3.10192 4.4641 0
M  V30 2125 H 193.662 2.02531 2.12975 0
M  V30 2126 H 191.176 1.18989 1.10523 0
M  V30 2127 H 193.173 0.582859 4.12805 0
M  V30 2128 H 191.833 -0.190595 3.2414 0
M  V30 2129 H 192.844 3.45475 3.85833 0
M  V30 2130 H 189.521 0.883657 4.08041 0
M  V30 2131 H 190.911 4.89082 4.60704 0
M  V30 2132 N 193.631 -1.12557 1.10312 0
M  V30 2133 C 194.879 -1.83675 0.843091 0
M  V30 2134 C 195.2 -1.84435 -0.633131 0
M  V30 2135 O 194.47 -1.30657 -1.45964 0
M  V30 2136 H 193.05 -0.680138 0.308904 0
M  V30 2137 H 195.712 -1.36301 1.39313 0
M  V30 2138 H 194.808 -2.87908 1.2048 0
M  V30 2139 N 195.109 -0.891671 -1.2995 0
M  V30 2140 C 196.355 -0.514261 -1.96171 0
M  V30 2141 C 196.688 0.935506 -1.70182 0
M  V30 2142 O 195.963 1.66204 -1.01028 0
M  V30 2143 C 196.246 -0.797719 -3.51153 0
M  V30 2144 C 196.099 -2.2986 -3.86632 0
M  V30 2145 C 197.418 -0.278749 -4.39216 0
M  V30 2146 H 194.537 -0.188314 -0.712535 0
M  V30 2147 H 197.179 -1.11689 -1.53706 0
M  V30 2148 H 195.329 -0.284826 -3.87455 0
M  V30 2149 H 197.001 -2.88042 -3.60319 0
M  V30 2150 H 195.244 -2.76257 -3.34462 0
M  V30 2151 H 195.915 -2.44753 -4.94773 0
M  V30 2152 H 198.391 -0.717825 -4.09862 0
M  V30 2153 H 197.267 -0.506353 -5.46559 0
M  V30 2154 H 197.528 0.820266 -4.34424 0
M  V30 2155 N 196.587 1.43421 -0.653314 0
M  V30 2156 C 197.815 2.06163 -0.174491 0
M  V30 2157 C 198.23 1.48969 1.1599 0
M  V30 2158 O 197.587 0.621042 1.71608 0
M  V30 2159 C 197.638 3.61417 -0.0774865 0
M  V30 2160 O 197.359 4.16485 -1.35912 0
M  V30 2161 C 198.86 4.41235 0.427402 0
M  V30 2162 H 196.08 0.664946 -0.0899353 0
M  V30 2163 H 198.624 1.83924 -0.893988 0
M  V30 2164 H 196.779 3.82841 0.59257 0
M  V30 2165 H 197.193 5.10153 -1.21839 0
M  V30 2166 H 198.667 5.5021 0.44423 0
M  V30 2167 H 199.144 4.14268 1.45873 0
M  V30 2168 H 199.75 4.2478 -0.210167 0
M  V30 2169 N 198.065 0.39524 1.52563 0
M  V30 2170 C 199.311 -0.185318 2.01952 0
M  V30 2171 C 199.644 -1.45964 1.28095 0
M  V30 2172 O 198.919 -1.90689 0.38315 0
M  V30 2173 C 199.202 -0.447193 3.57312 0
M  V30 2174 C 199.055 0.842828 4.41833 0
M  V30 2175 C 200.374 -1.23529 4.22408 0
M  V30 2176 H 197.493 -0.0658788 0.73405 0
M  V30 2177 H 200.135 0.525975 1.82575 0
M  V30 2178 H 198.285 -1.05312 3.73954 0
M  V30 2179 H 199.957 1.4795 4.36931 0
M  V30 2180 H 198.2 1.45686 4.08605 0
M  V30 2181 H 198.871 0.614165 5.48573 0
M  V30 2182 H 201.347 -0.722445 4.0978 0
M  V30 2183 H 200.223 -1.38727 5.3108 0
M  V30 2184 H 200.484 -2.25213 3.80436 0
M  V30 2185 N 199.544 -1.57102 0.125237 0
M  V30 2186 C 200.491 -2.15641 -0.822655 0
M  V30 2187 C 201.461 -1.08313 -1.25927 0
M  V30 2188 O 202.646 -1.36251 -1.33567 0
M  V30 2189 C 199.786 -2.76504 -2.06494 0
M  V30 2190 C 198.899 -3.98158 -1.67612 0
M  V30 2191 C 198.034 -4.47088 -2.86854 0
M  V30 2192 C 197.073 -5.6126 -2.44242 0
M  V30 2193 N 196.21 -6.04905 -3.56419 0
M  V30 2194 H 201.05 -2.96313 -0.316625 0
M  V30 2195 H 198.587 -1.46388 -0.144588 0
M  V30 2196 H 200.545 -3.09925 -2.79289 0
M  V30 2197 H 199.175 -1.98512 -2.54545 0
M  V30 2198 H 198.227 -3.70858 -0.846661 0
M  V30 2199 H 199.539 -4.80934 -1.32301 0
M  V30 2200 H 198.693 -4.82451 -3.67867 0
M  V30 2201 H 197.432 -3.63275 -3.25396 0
M  V30 2202 H 196.437 -5.25495 -1.61663 0
M  V30 2203 H 197.662 -6.46843 -2.0681 0
M  V30 2204 H 195.608 -5.24032 -3.94623 0
M  V30 2205 H 195.525 -6.82552 -3.25051 0
M  V30 2206 H 196.793 -6.44907 -4.37853 0
M  V30 2207 N 201.022 0.148545 -1.56898 0
M  V30 2208 C 201.97 1.20265 -1.99096 0
M  V30 2209 C 202.964 1.44559 -0.883123 0
M  V30 2210 O 204.17 1.4487 -1.0683 0
M  V30 2211 H 200.545 0.404786 -0.63376 0
M  V30 2212 H 202.516 0.82004 -2.86911 0
M  V30 2213 C 201.265 2.52886 -2.3863 0
M  V30 2214 H 200.588 2.35021 -3.23427 0
M  V30 2215 H 202.028 3.25274 -2.7198 0
M  V30 2216 C 200.487 3.13315 -1.23837 0
M  V30 2217 O 201.017 3.98077 -0.538268 0
M  V30 2218 N 199.223 2.72742 -1.00301 0
M  V30 2219 H 198.77 2.03912 -1.5741 0
M  V30 2220 H 198.728 3.13507 -0.236838 0
M  V30 2221 N 202.5 1.5196 0.417844 0
M  V30 2222 C 203.916 1.40569 0.755816 0
M  V30 2223 C 204.116 0.503316 1.95113 0
M  V30 2224 O 203.172 -0.0341925 2.52477 0
M  V30 2225 C 204.485 2.82947 1.01791 0
M  V30 2226 C 206.033 2.92231 1.12116 0
M  V30 2227 C 206.508 4.35559 1.41608 0
M  V30 2228 N 207.999 4.38753 1.48491 0
M  V30 2229 C 208.734 5.46705 1.7292 0
M  V30 2230 N 208.23 6.64788 1.95011 0
M  V30 2231 N 210.023 5.34209 1.74863 0
M  V30 2232 H 202.174 2.09168 -0.369098 0
M  V30 2233 H 204.437 0.942409 -0.102809 0
M  V30 2234 H 204.143 3.5106 0.212081 0
M  V30 2235 H 204.017 3.23462 1.94042 0
M  V30 2236 H 206.404 2.24304 1.9176 0
M  V30 2237 H 206.485 2.55185 0.177225 0
M  V30 2238 H 206.129 5.04042 0.624848 0
M  V30 2239 H 206.059 4.70133 2.37239 0
M  V30 2240 H 208.55 3.5363 1.33244 0
M  V30 2241 H 208.863 7.42845 2.13076 0
M  V30 2242 H 207.208 6.67869 1.92293 0
M  V30 2243 H 210.399 4.40937 1.57137 0
M  V30 2244 H 210.572 6.18415 1.93563 0
M  V30 2245 N 203.978 -0.674533 1.42435 0
M  V30 2246 C 204.911 -1.79924 1.40366 0
M  V30 2247 C 205.889 -1.60378 0.267899 0
M  V30 2248 O 207.073 -1.82847 0.458159 0
M  V30 2249 C 204.2 -3.16927 1.19478 0
M  V30 2250 C 203.246 -3.55221 2.36051 0
M  V30 2251 S 204.079 -3.5762 3.98583 0
M  V30 2252 C 205.235 -4.97315 3.80038 0
M  V30 2253 H 205.468 -1.81405 2.35541 0
M  V30 2254 H 203.001 -0.845221 1.29211 0
M  V30 2255 H 204.959 -3.96007 1.08114 0
M  V30 2256 H 203.62 -3.13031 0.258883 0
M  V30 2257 H 202.813 -4.54804 2.17185 0
M  V30 2258 H 202.415 -2.83502 2.43932 0
M  V30 2259 H 204.707 -5.85401 3.41045 0
M  V30 2260 H 205.65 -5.21228 4.79298 0
M  V30 2261 H 206.058 -4.69845 3.12899 0
M  V30 2262 N 205.456 -1.28612 -0.910864 0
M  V30 2263 C 206.705 -1.15311 -1.65488 0
M  V30 2264 C 207.018 0.296999 -1.93332 0
M  V30 2265 O 208.224 0.551168 -2.65847 0
M  V30 2266 C 206.68 -2.01599 -2.98137 0
M  V30 2267 C 206.288 -3.51367 -2.7793 0
M  V30 2268 C 208.032 -1.96993 -3.76024 0
M  V30 2269 C 205.939 -4.29797 -4.06237 0
M  V30 2270 H 204.869 -0.42796 -0.620779 0
M  V30 2271 H 207.52 -1.53166 -1.01057 0
M  V30 2272 H 205.902 -1.56603 -3.63719 0
M  V30 2273 H 207.076 -4.0434 -2.21011 0
M  V30 2274 H 205.391 -3.57529 -2.13452 0
M  V30 2275 H 207.988 -2.52856 -4.71135 0
M  V30 2276 H 208.331 -0.94733 -4.05378 0
M  V30 2277 H 208.864 -2.39973 -3.17266 0
M  V30 2278 H 205.603 -5.32648 -3.82055 0
M  V30 2279 H 205.123 -3.81596 -4.62757 0
M  V30 2280 H 206.802 -4.39869 -4.74473 0
M  V30 2281 N 206.934 1.1197 -1.10907 0
M  V30 2282 C 208.35 1.35591 -0.841852 0
M  V30 2283 C 208.55 1.94233 0.536246 0
M  V30 2284 O 207.606 2.1717 1.28816 0
M  V30 2285 C 208.919 2.29284 -1.94549 0
M  V30 2286 C 210.467 2.42862 -1.97451 0
M  V30 2287 C 210.942 3.39873 -3.07002 0
M  V30 2288 N 212.433 3.47433 -3.06341 0
M  V30 2289 C 213.168 4.22421 -3.87748 0
M  V30 2290 N 212.664 5.00432 -4.79103 0
M  V30 2291 N 214.457 4.17876 -3.75946 0
M  V30 2292 H 206.608 0.722664 -1.99728 0
M  V30 2293 H 208.871 0.380635 -0.868229 0
M  V30 2294 H 208.577 1.93378 -2.93765 0
M  V30 2295 H 208.451 3.29452 -1.83688 0
M  V30 2296 H 210.838 2.78046 -0.988645 0
M  V30 2297 H 210.919 1.42566 -2.12388 0
M  V30 2298 H 210.563 3.05417 -4.05811 0
M  V30 2299 H 210.493 4.40011 -2.89306 0
M  V30 2300 H 212.984 2.91784 -2.40147 0
M  V30 2301 H 213.297 5.55002 -5.37766 0
M  V30 2302 H 211.642 4.99612 -4.83128 0
M  V30 2303 H 214.833 3.56016 -3.03924 0
M  V30 2304 H 215.006 4.76061 -4.39624 0
M  V30 2305 N 208.412 0.89855 1.29475 0
M  V30 2306 C 209.342 0.39201 2.30186 0
M  V30 2307 C 210.323 -0.532359 1.61555 0
M  V30 2308 O 211.508 -0.443331 1.89072 0
M  V30 2309 C 208.638 -0.382353 3.45189 0
M  V30 2310 C 207.592 0.451483 4.25612 0
M  V30 2311 C 206.918 -0.450307 5.328 0
M  V30 2312 C 208.218 1.70079 4.93832 0
M  V30 2313 H 209.912 1.23362 2.72804 0
M  V30 2314 H 207.458 0.594638 1.31149 0
M  V30 2315 H 209.411 -0.747451 4.14718 0
M  V30 2316 H 208.135 -1.25774 3.01411 0
M  V30 2317 H 206.794 0.798897 3.57789 0
M  V30 2318 H 206.442 -1.32379 4.85268 0
M  V30 2319 H 206.142 0.103902 5.87508 0
M  V30 2320 H 207.666 -0.811623 6.05182 0
M  V30 2321 H 209.08 1.40549 5.55805 0
M  V30 2322 H 207.477 2.19623 5.58467 0
M  V30 2323 H 208.547 2.43744 4.19186 0
M  V30 2324 N 209.89 -1.43072 0.660911 0
M  V30 2325 C 210.84 -2.27948 -0.04847 0
M  V30 2326 C 211.824 -1.40325 -0.787246 0
M  V30 2327 O 213.016 -1.63893 -0.668446 0
M  V30 2328 C 210.145 -3.28143 -1.00881 0
M  V30 2329 C 209.231 -4.23252 -0.268108 0
M  V30 2330 N 209.622 -5.00656 0.719528 0
M  V30 2331 C 207.92 -4.43092 -0.508493 0
M  V30 2332 C 208.621 -5.70019 1.15988 0
M  V30 2333 N 207.597 -5.41364 0.492584 0
M  V30 2334 H 211.399 -2.85213 0.709279 0
M  V30 2335 H 208.913 -1.54869 0.488822 0
M  V30 2336 H 210.91 -3.87736 -1.53188 0
M  V30 2337 H 209.57 -2.7244 -1.76654 0
M  V30 2338 H 210.581 -5.06115 1.09855 0
M  V30 2339 H 207.258 -3.98449 -1.24679 0
M  V30 2340 H 208.648 -6.4214 1.97751 0
M  V30 2341 N 211.368 -0.403325 -1.52352 0
M  V30 2342 C 212.779 0.0675782 -1.86578 0
M  V30 2343 C 213.13 1.44941 -1.32236 0
M  V30 2344 O 212.255 2.06112 -0.659307 0
M  V30 2345 C 212.85 0.129404 -3.38553 0
M  V30 2346 C 211.409 0.544629 -3.72439 0
M  V30 2347 C 210.556 -0.284551 -2.75836 0
M  V30 2348 H 213.507 -0.620631 -1.46061 0
M  V30 2349 H 213.528 0.94581 -3.68558 0
M  V30 2350 H 213.04 -0.87645 -3.78074 0
M  V30 2351 H 211.141 1.55734 -3.38493 0
M  V30 2352 H 211.254 0.293046 -4.78203 0
M  V30 2353 H 209.618 0.252258 -2.53448 0
M  V30 2354 H 210.401 -1.28865 -3.18196 0
M  V30 2355 N 212.846 1.57033 -0.133567 0
M  V30 2356 C 214.123 1.87256 0.56522 0
M  V30 2357 C 214.503 1.03726 1.83859 0
M  V30 2358 O 213.851 0.120247 2.28183 0
M  V30 2359 C 214.061 3.3865 0.843636 0
M  V30 2360 C 215.409 4.07574 1.19032 0
M  V30 2361 O 216.433 3.43752 0.933429 0
M  V30 2362 O 215.292 5.20259 1.67312 0
M  V30 2363 H 212.386 0.775678 0.286796 0
M  V30 2364 H 214.932 1.68855 -0.169168 0
M  V30 2365 H 213.704 3.91257 -0.0581149 0
M  V30 2366 H 213.327 3.62532 1.63268 0
M  V30 2367 N 214.325 -0.140222 1.56975 0
M  V30 2368 C 215.573 -0.850005 1.83356 0
M  V30 2369 C 215.894 -1.81399 0.71551 0
M  V30 2370 O 215.164 -1.94136 -0.262294 0
M  V30 2371 H 213.744 -0.316886 0.676456 0
M  V30 2372 H 216.406 -0.132608 1.94448 0
M  V30 2373 H 215.502 -1.40814 2.78528 0
M  V30 2374 N 215.803 -1.52179 -0.40978 0
M  V30 2375 C 217.031 -1.70054 -1.17853 0
M  V30 2376 C 217.446 -0.409735 -1.843 0
M  V30 2377 O 216.803 0.614183 -1.71855 0
M  V30 2378 C 216.854 -2.83568 -2.24213 0
M  V30 2379 O 216.575 -4.0765 -1.60478 0
M  V30 2380 C 218.076 -3.12947 -3.13973 0
M  V30 2381 H 215.296 -0.569917 -0.354169 0
M  V30 2382 H 217.84 -1.98734 -0.482198 0
M  V30 2383 H 215.995 -2.57409 -2.89516 0
M  V30 2384 H 216.409 -4.70899 -2.30986 0
M  V30 2385 H 217.883 -3.95889 -3.84677 0
M  V30 2386 H 218.36 -2.26472 -3.76307 0
M  V30 2387 H 218.966 -3.40868 -2.5434 0
M  V30 2388 N 217.281 0.66697 -1.42791 0
M  V30 2389 C 218.527 1.4291 -1.43891 0
M  V30 2390 C 218.86 1.94114 -0.0578972 0
M  V30 2391 O 218.135 1.71414 0.91911 0
M  V30 2392 C 218.418 2.62049 -2.46987 0
M  V30 2393 C 218.271 2.16426 -3.94309 0
M  V30 2394 C 219.59 3.64266 -2.46978 0
M  V30 2395 H 216.709 0.518306 -0.523954 0
M  V30 2396 H 219.351 0.757321 -1.74255 0
M  V30 2397 H 217.501 3.19361 -2.21225 0
M  V30 2398 H 219.173 1.64221 -4.31079 0
M  V30 2399 H 217.416 1.47925 -4.078 0
M  V30 2400 H 218.087 3.02038 -4.62036 0
M  V30 2401 H 220.563 3.16686 -2.69906 0
M  V30 2402 H 219.439 4.45196 -3.21079 0
M  V30 2403 H 219.7 4.15927 -1.49857 0
M  V30 2404 N 218.759 1.29093 0.90403 0
M  V30 2405 C 219.689 1.16401 2.02418 0
M  V30 2406 C 220.67 0.0593085 1.69997 0
M  V30 2407 O 221.855 0.238021 1.92736 0
M  V30 2408 C 218.985 0.835233 3.37107 0
M  V30 2409 C 217.939 1.89578 3.83724 0
M  V30 2410 C 217.265 1.42041 5.15489 0
M  V30 2411 C 218.565 3.30394 4.04521 0
M  V30 2412 H 220.259 2.10109 2.13295 0
M  V30 2413 H 217.805 1.01157 1.02486 0
M  V30 2414 H 219.758 0.733169 4.14973 0
M  V30 2415 H 218.482 -0.137543 3.2631 0
M  V30 2416 H 217.141 1.98715 3.08071 0
M  V30 2417 H 216.789 0.436426 5.01103 0
M  V30 2418 H 216.489 2.12964 5.4765 0
M  V30 2419 H 218.013 1.33176 5.959 0
M  V30 2420 H 219.427 3.24123 4.72882 0
M  V30 2421 H 217.824 3.99237 4.48029 0
M  V30 2422 H 218.894 3.73692 3.09002 0
M  V30 2423 N 220.237 -1.11381 1.11499 0
M  V30 2424 C 221.467 -1.86663 0.885464 0
M  V30 2425 C 221.875 -1.80464 -0.568281 0
M  V30 2426 O 221.218 -1.18445 -1.40415 0
M  V30 2427 C 221.28 -3.36337 1.26956 0
M  V30 2428 C 220.944 -3.66304 2.73259 0
M  V30 2429 C 221.941 -3.63733 3.71476 0
M  V30 2430 C 219.626 -3.9529 3.09921 0
M  V30 2431 C 221.62 -3.89725 5.04374 0
M  V30 2432 C 219.307 -4.20941 4.43004 0
M  V30 2433 C 220.305 -4.18147 5.40039 0
M  V30 2434 O 219.993 -4.43153 6.70724 0
M  V30 2435 H 219.725 -0.597114 0.316908 0
M  V30 2436 H 222.279 -1.41782 1.48617 0
M  V30 2437 H 220.509 -3.81826 0.611999 0
M  V30 2438 H 222.198 -3.92986 1.01573 0
M  V30 2439 H 222.964 -3.41389 3.44498 0
M  V30 2440 H 218.843 -3.966 2.35009 0
M  V30 2441 H 222.387 -3.8746 5.80104 0
M  V30 2442 H 218.284 -4.42761 4.69716 0
M  V30 2443 H 219.052 -4.60717 6.76522 0
M  V30 2444 N 221.715 -0.905404 -1.28997 0
M  V30 2445 C 222.963 -0.533192 -1.9494 0
M  V30 2446 C 223.284 0.924618 -1.71685 0
M  V30 2447 O 222.554 1.65268 -1.05183 0
M  V30 2448 H 221.134 -0.194194 -0.721317 0
M  V30 2449 H 223.796 -1.15294 -1.57141 0
M  V30 2450 H 222.892 -0.72059 -3.03667 0
M  V30 2451 N 223.193 1.4272 -0.668489 0
M  V30 2452 C 224.123 2.335 -0.000100175 0
M  V30 2453 C 225.104 1.50328 0.795964 0
M  V30 2454 O 226.289 1.78949 0.754385 0
M  V30 2455 C 223.419 3.33874 0.956302 0
M  V30 2456 C 222.373 4.27152 0.269278 0
M  V30 2457 C 221.699 5.17684 1.33818 0
M  V30 2458 C 222.999 5.15373 -0.847805 0
M  V30 2459 H 224.693 2.89639 -0.758244 0
M  V30 2460 H 222.239 1.39269 -0.366079 0
M  V30 2461 H 224.192 3.9629 1.43292 0
M  V30 2462 H 222.916 2.76025 1.74579 0
M  V30 2463 H 221.575 3.66123 -0.187042 0
M  V30 2464 H 221.223 4.56165 2.1195 0
M  V30 2465 H 220.923 5.80918 0.883659 0
M  V30 2466 H 222.447 5.82974 1.81586 0
M  V30 2467 H 223.861 5.7151 -0.452681 0
M  V30 2468 H 222.258 5.87407 -1.22773 0
M  V30 2469 H 223.328 4.5415 -1.69929 0
M  V30 2470 N 224.671 0.411399 1.52136 0
M  V30 2471 C 226.087 0.0623865 1.59478 0
M  V30 2472 C 226.287 -1.42554 1.4241 0
M  V30 2473 O 225.343 -2.19263 1.2522 0
M  V30 2474 C 226.656 0.559331 2.95452 0
M  V30 2475 C 228.204 0.517503 3.08692 0
M  V30 2476 C 228.679 0.990994 4.4715 0
M  V30 2477 N 230.17 0.947908 4.53397 0
M  V30 2478 C 230.905 1.28544 5.58806 0
M  V30 2479 N 230.401 1.69454 6.71757 0
M  V30 2480 N 232.194 1.20526 5.49026 0
M  V30 2481 H 224.345 1.37982 1.61477 0
M  V30 2482 H 226.608 0.566977 0.759764 0
M  V30 2483 H 226.314 1.59938 3.1323 0
M  V30 2484 H 226.188 -0.0298014 3.77188 0
M  V30 2485 H 228.575 -0.513505 2.90598 0
M  V30 2486 H 228.656 1.14272 2.28857 0
M  V30 2487 H 228.3 2.02034 4.65988 0
M  V30 2488 H 228.23 0.34257 5.25485 0
M  V30 2489 H 230.721 0.647157 3.72317 0
M  V30 2490 H 231.034 1.93513 7.48179 0
M  V30 2491 H 229.379 1.73359 6.73032 0
M  V30 2492 H 232.57 0.884505 4.59667 0
M  V30 2493 H 232.743 1.47161 6.31069 0
M  V30 2494 N 226.149 -1.5696 0.141893 0
M  V30 2495 C 227.398 -1.95135 -0.510427 0
M  V30 2496 C 227.711 -1.02896 -1.66348 0
M  V30 2497 O 228.917 -1.30629 -2.38009 0
M  V30 2498 C 227.373 -3.46876 -0.959427 0
M  V30 2499 C 226.981 -4.47691 0.166419 0
M  V30 2500 C 228.725 -3.93927 -1.58183 0
M  V30 2501 C 226.632 -5.90636 -0.300565 0
M  V30 2502 H 225.562 -0.728494 -0.194454 0
M  V30 2503 H 228.213 -1.8211 0.22542 0
M  V30 2504 H 226.595 -3.55215 -1.75038 0
M  V30 2505 H 227.769 -4.51043 0.94325 0
M  V30 2506 H 226.084 -4.10527 0.696905 0
M  V30 2507 H 228.681 -4.98158 -1.94275 0
M  V30 2508 H 229.024 -3.3519 -2.46888 0
M  V30 2509 H 229.557 -3.88484 -0.855863 0
M  V30 2510 H 226.296 -6.5318 0.550989 0
M  V30 2511 H 225.816 -5.90655 -1.04338 0
M  V30 2512 H 227.495 -6.42588 -0.754265 0
M  V30 2513 N 227.627 0.131896 -1.57047 0
M  V30 2514 C 228.855 0.856461 -1.88341 0
M  V30 2515 C 229.27 1.74042 -0.731757 0
M  V30 2516 O 228.627 1.80051 0.297945 0
M  V30 2517 C 228.678 1.70064 -3.18999 0
M  V30 2518 O 228.399 0.852278 -4.2973 0
M  V30 2519 C 229.9 2.53148 -3.63911 0
M  V30 2520 H 227.12 0.246885 -0.62393 0
M  V30 2521 H 229.664 0.120152 -2.04147 0
M  V30 2522 H 227.819 2.38984 -3.04902 0
M  V30 2523 H 228.233 1.43329 -5.04537 0
M  V30 2524 H 229.707 3.07931 -4.58129 0
M  V30 2525 H 230.184 3.29901 -2.89935 0
M  V30 2526 H 230.79 1.89492 -3.80753 0
M  V30 2527 N 229.106 1.52395 0.401703 0
M  V30 2528 C 230.334 1.70676 1.16949 0
M  V30 2529 C 230.749 0.419503 1.8408 0
M  V30 2530 O 230.106 -0.605061 1.72178 0
M  V30 2531 C 230.157 2.84753 2.22706 0
M  V30 2532 O 229.878 4.08495 1.58314 0
M  V30 2533 C 231.379 3.14608 3.12309 0
M  V30 2534 H 228.599 0.571787 0.351142 0
M  V30 2535 H 231.143 1.98987 0.471652 0
M  V30 2536 H 229.298 2.58941 2.88147 0
M  V30 2537 H 229.712 4.72117 2.28485 0
M  V30 2538 H 231.186 3.97923 3.82572 0
M  V30 2539 H 231.663 2.28464 3.75101 0
M  V30 2540 H 232.269 3.42212 2.52529 0
M  V30 2541 N 230.584 -0.659388 1.43143 0
M  V30 2542 C 231.812 -1.44723 1.47861 0
M  V30 2543 C 232.227 -1.88563 0.0945886 0
M  V30 2544 O 231.584 -1.59108 -0.893915 0
M  V30 2545 C 231.635 -2.68627 2.41913 0
M  V30 2546 O 231.356 -2.26623 3.74932 0
M  V30 2547 C 232.857 -3.62045 2.55809 0
M  V30 2548 H 230.077 -0.444801 0.502387 0
M  V30 2549 H 232.621 -0.808916 1.87821 0
M  V30 2550 H 230.776 -3.28613 2.05164 0
M  V30 2551 H 231.19 -3.06745 4.2545 0
M  V30 2552 H 232.664 -4.45666 3.25708 0
M  V30 2553 H 233.141 -4.08981 1.60099 0
M  V30 2554 H 233.747 -3.07944 2.93344 0
M  V30 2555 N 232.062 -1.29571 -0.897171 0
M  V30 2556 C 233.025 -1.14913 -1.98312 0
M  V30 2557 C 234.025 -0.0838629 -1.60581 0
M  V30 2558 O 235.215 -0.331006 -1.71026 0
M  V30 2559 C 232.347 -0.757835 -3.3237 0
M  V30 2560 H 233.54 -2.11377 -2.12743 0
M  V30 2561 H 231.093 -1.12793 -1.08201 0
M  V30 2562 H 231.828 0.206837 -3.2364 0
M  V30 2563 H 231.613 -1.52755 -3.61121 0
M  V30 2564 H 233.103 -0.678408 -4.12053 0
M  V30 2565 N 233.54 1.10788 -1.12088 0
M  V30 2566 C 234.503 2.15207 -0.788577 0
M  V30 2567 C 235.503 1.59609 0.195317 0
M  V30 2568 O 236.693 1.74174 -0.0300193 0
M  V30 2569 C 233.825 3.4047 -0.171174 0
M  V30 2570 H 235.018 2.46116 -1.71368 0
M  V30 2571 H 232.571 1.26089 -0.923652 0
M  V30 2572 H 233.306 3.15176 0.763832 0
M  V30 2573 H 233.091 3.82109 -0.879514 0
M  V30 2574 H 234.581 4.17576 0.04496 0
M  V30 2575 N 235.018 0.912232 1.28515 0
M  V30 2576 C 236.258 0.551677 1.96814 0
M  V30 2577 C 236.622 -0.887825 1.7024 0
M  V30 2578 O 237.823 -1.35588 2.32098 0
M  V30 2579 C 236.094 0.850555 3.47132 0
M  V30 2580 S 237.653 0.59619 4.34731 0
M  V30 2581 H 234.471 0.204191 0.681049 0
M  V30 2582 H 237.073 1.17736 1.56072 0
M  V30 2583 H 235.777 1.8962 3.63968 0
M  V30 2584 H 235.308 0.213471 3.9282 0
M  V30 2585 H 237.323 -0.553154 4.93107 0
M  V30 2586 N 236.496 -1.42363 0.676048 0
M  V30 2587 C 237.429 -2.28141 -0.0516916 0
M  V30 2588 C 238.407 -1.41135 -0.807439 0
M  V30 2589 O 239.591 -1.70573 -0.802305 0
M  V30 2590 C 236.718 -3.21007 -1.08039 0
M  V30 2591 C 235.764 -4.24426 -0.420076 0
M  V30 2592 S 236.597 -5.29134 0.823246 0
M  V30 2593 C 237.753 -6.25566 -0.204344 0
M  V30 2594 H 237.986 -2.89515 0.675884 0
M  V30 2595 H 235.519 -1.47211 0.465635 0
M  V30 2596 H 237.477 -3.75048 -1.66881 0
M  V30 2597 H 236.138 -2.58766 -1.78042 0
M  V30 2598 H 235.331 -4.89596 -1.19633 0
M  V30 2599 H 234.933 -3.7388 0.0947845 0
M  V30 2600 H 237.225 -6.69098 -1.06369 0
M  V30 2601 H 238.168 -7.06895 0.412915 0
M  V30 2602 H 238.576 -5.61811 -0.55038 0
M  V30 2603 N 237.974 -0.419461 -1.51915 0
M  V30 2604 C 238.907 0.445751 -2.23804 0
M  V30 2605 C 239.885 1.03951 -1.25031 0
M  V30 2606 O 241.069 1.08541 -1.54114 0
M  V30 2607 C 238.196 1.61964 -2.97465 0
M  V30 2608 C 237.242 1.14828 -4.10751 0
M  V30 2609 S 238.075 0.104938 -5.35397 0
M  V30 2610 C 239.231 1.28391 -6.1259 0
M  V30 2611 H 239.464 -0.164627 -2.96844 0
M  V30 2612 H 236.997 -0.203833 -1.53049 0
M  V30 2613 H 238.955 2.29271 -3.40507 0
M  V30 2614 H 237.616 2.20139 -2.24048 0
M  V30 2615 H 236.809 2.02561 -4.61503 0
M  V30 2616 H 236.411 0.553712 -3.69878 0
M  V30 2617 H 238.703 2.20563 -6.40592 0
M  V30 2618 H 239.646 0.816724 -7.03374 0
M  V30 2619 H 240.054 1.51439 -5.43807 0
M  V30 2620 N 239.452 1.56882 -0.150215 0
M  V30 2621 C 240.729 1.87844 0.545327 0
M  V30 2622 C 241.109 1.0567 1.82749 0
M  V30 2623 O 240.457 0.144442 2.28043 0
M  V30 2624 C 240.667 3.39526 0.80767 0
M  V30 2625 C 242.015 4.08814 1.14703 0
M  V30 2626 O 243.039 3.44723 0.896917 0
M  V30 2627 O 241.898 5.22004 1.61784 0
M  V30 2628 H 238.992 0.778677 0.278553 0
M  V30 2629 H 241.538 1.68666 -0.187068 0
M  V30 2630 H 240.31 3.91173 -0.0996096 0
M  V30 2631 H 239.933 3.64243 1.59413 0
M  V30 2632 N 240.93 -0.123565 1.57115 0
M  V30 2633 C 241.86 -1.15309 2.03042 0
M  V30 2634 C 242.841 -1.43454 0.914061 0
M  V30 2635 O 244.026 -1.53973 1.18347 0
M  V30 2636 C 241.156 -2.48043 2.43089 0
M  V30 2637 C 240.11 -2.3437 3.58127 0
M  V30 2638 C 239.436 -3.72026 3.84059 0
M  V30 2639 C 240.736 -1.80804 4.90007 0
M  V30 2640 H 242.43 -0.771102 2.893 0
M  V30 2641 H 239.976 -0.369479 1.39179 0
M  V30 2642 H 241.929 -3.20311 2.73823 0
M  V30 2643 H 240.653 -2.88122 1.53796 0
M  V30 2644 H 239.312 -1.64551 3.27595 0
M  V30 2645 H 238.96 -4.09582 2.91979 0
M  V30 2646 H 238.66 -3.63732 4.6149 0
M  V30 2647 H 240.184 -4.45806 4.1724 0
M  V30 2648 H 241.598 -2.42886 5.19307 0
M  V30 2649 H 239.995 -1.83343 5.71407 0
M  V30 2650 H 241.065 -0.76528 4.78823 0
M  V30 2651 N 242.408 -1.52605 -0.393616 0
M  V30 2652 C 243.824 -1.41753 -0.733357 0
M  V30 2653 C 244.024 -0.534293 -1.94287 0
M  V30 2654 O 243.08 -0.0059787 -2.52499 0
M  V30 2655 C 244.393 -2.84531 -0.972772 0
M  V30 2656 C 245.941 -2.93978 -1.07453 0
M  V30 2657 C 246.416 -4.37756 -1.3466 0
M  V30 2658 N 247.907 -4.4106 -1.41492 0
M  V30 2659 C 248.642 -5.49387 -1.642 0
M  V30 2660 N 248.138 -6.67806 -1.8441 0
M  V30 2661 N 249.931 -5.36923 -1.66342 0
M  V30 2662 H 242.082 -2.08555 0.402328 0
M  V30 2663 H 244.345 -0.940654 0.117789 0
M  V30 2664 H 244.051 -3.51353 -0.156204 0
M  V30 2665 H 243.925 -3.26508 -1.88871 0
M  V30 2666 H 246.312 -2.27326 -1.88167 0
M  V30 2667 H 246.393 -2.55435 -0.136605 0
M  V30 2668 H 246.037 -5.04972 -0.544581 0
M  V30 2669 H 245.967 -4.73848 -2.2973 0
M  V30 2670 H 248.458 -3.55705 -1.27601 0
M  V30 2671 H 248.771 -7.46141 -2.01231 0
M  V30 2672 H 247.116 -6.70843 -1.81644 0
M  V30 2673 H 250.307 -4.43381 -1.50102 0
M  V30 2674 H 250.48 -6.21416 -1.837 0
M  V30 2675 N 243.887 0.651787 -1.4349 0
M  V30 2676 C 245.303 0.96762 -1.26922 0
M  V30 2677 C 245.503 2.00602 -0.189982 0
M  V30 2678 O 244.559 2.48793 0.431107 0
M  V30 2679 C 245.872 1.45052 -2.63401 0
M  V30 2680 C 247.42 1.5671 -2.70945 0
M  V30 2681 C 247.895 2.0839 -4.07845 0
M  V30 2682 N 249.386 2.1569 -4.09917 0
M  V30 2683 C 250.121 2.56804 -5.12679 0
M  V30 2684 N 249.617 2.97203 -6.25813 0
M  V30 2685 N 251.41 2.56756 -5.00033 0
M  V30 2686 H 243.561 -0.0353158 -2.12371 0
M  V30 2687 H 245.824 0.0467858 -0.946845 0
M  V30 2688 H 245.53 0.761926 -3.43348 0
M  V30 2689 H 245.404 2.42529 -2.88894 0
M  V30 2690 H 247.791 2.2467 -1.9133 0
M  V30 2691 H 247.872 0.57662 -2.49216 0
M  V30 2692 H 247.516 1.41031 -4.87927 0
M  V30 2693 H 247.446 3.08271 -4.26938 0
M  V30 2694 H 249.937 1.87237 -3.28254 0
M  V30 2695 H 250.25 3.27328 -7.00055 0
M  V30 2696 H 248.595 2.95004 -6.29283 0
M  V30 2697 H 251.786 2.24572 -4.10713 0
M  V30 2698 H 251.959 2.88475 -5.80247 0
M  V30 2699 N 245.365 1.30045 0.890287 0
M  V30 2700 C 246.595 1.21296 1.67245 0
M  V30 2701 C 247.003 -0.227471 1.87828 0
M  V30 2702 O 246.346 -1.16296 1.422 0
M  V30 2703 C 246.408 1.86519 3.07329 0
M  V30 2704 C 246.072 3.35837 3.09939 0
M  V30 2705 C 247.069 4.31915 2.89389 0
M  V30 2706 C 244.754 3.77196 3.31706 0
M  V30 2707 C 246.748 5.67325 2.90552 0
M  V30 2708 C 244.435 5.12725 3.32499 0
M  V30 2709 C 245.433 6.076 3.11947 0
M  V30 2710 O 245.121 7.40655 3.12547 0
M  V30 2711 H 244.853 0.4211 0.528821 0
M  V30 2712 H 247.407 1.72111 1.12103 0
M  V30 2713 H 245.637 1.30228 3.64112 0
M  V30 2714 H 247.326 1.71963 3.67673 0
M  V30 2715 H 248.092 4.01294 2.72375 0
M  V30 2716 H 243.971 3.03796 3.4674 0
M  V30 2717 H 247.515 6.41354 2.74429 0
M  V30 2718 H 243.412 5.42988 3.49047 0
M  V30 2719 H 244.18 7.49577 3.28749 0
M  V30 2720 N 246.843 -1.10192 1.12674 0
M  V30 2721 C 248.254 -1.63707 0.897604 0
M  V30 2722 C 248.605 -1.87812 -0.567546 0
M  V30 2723 O 247.73 -1.62196 -1.43253 0
M  V30 2724 C 248.325 -2.974 1.62292 0
M  V30 2725 C 246.884 -3.47772 1.43986 0
M  V30 2726 C 246.031 -2.22332 1.65722 0
M  V30 2727 H 248.982 -0.936587 1.28116 0
M  V30 2728 H 249.003 -3.64986 1.07541 0
M  V30 2729 H 248.515 -2.79824 2.68924 0
M  V30 2730 H 246.616 -3.70487 0.396206 0
M  V30 2731 H 246.729 -4.25723 2.19765 0
M  V30 2732 H 245.093 -2.30599 1.08149 0
M  V30 2733 H 245.876 -2.07285 2.73657 0
M  V30 2734 N 248.321 -0.919034 -1.28029 0
M  V30 2735 C 249.251 -0.428581 -2.29533 0
M  V30 2736 C 250.232 0.50659 -1.62381 0
M  V30 2737 O 251.417 0.413195 -1.89753 0
M  V30 2738 C 248.547 0.327388 -3.45753 0
M  V30 2739 C 247.501 -0.519137 -4.2484 0
M  V30 2740 C 246.827 0.365486 -5.33449 0
M  V30 2741 C 248.127 -1.77914 -4.91064 0
M  V30 2742 H 249.821 -1.27687 -2.70807 0
M  V30 2743 H 247.367 -0.615428 -1.30186 0
M  V30 2744 H 249.32 0.681378 -4.15855 0
M  V30 2745 H 248.044 1.20963 -3.03374 0
M  V30 2746 H 246.703 -0.855717 -3.56473 0
M  V30 2747 H 246.351 1.24642 -4.87312 0
M  V30 2748 H 246.051 -0.197356 -5.87268 0
M  V30 2749 H 247.575 0.715241 -6.06396 0
M  V30 2750 H 248.989 -1.49374 -5.53498 0
M  V30 2751 H 247.386 -2.2848 -5.54903 0
M  V30 2752 H 248.456 -2.50382 -4.15255 0
M  V30 2753 N 249.799 1.42003 -0.683588 0
M  V30 2754 C 251.076 1.95112 -0.138075 0
M  V30 2755 C 251.456 1.62359 1.34918 0
M  V30 2756 O 250.804 0.924311 2.08971 0
M  V30 2757 C 251.014 3.46505 -0.416581 0
M  V30 2758 C 252.362 4.23254 -0.337834 0
M  V30 2759 O 253.386 3.54468 -0.35082 0
M  V30 2760 O 252.245 5.45743 -0.287596 0
M  V30 2761 H 249.339 0.826961 -0.00797996 0
M  V30 2762 H 251.885 1.51784 -0.758924 0
M  V30 2763 H 250.657 3.63582 -1.4465 0
M  V30 2764 H 250.28 3.969 0.235839 0
M  V30 2765 N 251.277 0.427512 1.51691 0
M  V30 2766 C 252.187 -0.39527 2.31246 0
M  V30 2767 C 253.203 -1.03674 1.39742 0
M  V30 2768 O 254.379 -1.03425 1.72816 0
M  V30 2769 C 251.444 -1.48706 3.13189 0
M  V30 2770 C 250.505 -0.866743 4.20459 0
M  V30 2771 C 249.738 -1.90651 4.98486 0
M  V30 2772 O 249.961 -3.12733 4.77026 0
M  V30 2773 O 248.895 -1.5025 5.82845 0
M  V30 2774 H 252.721 0.253918 3.02637 0
M  V30 2775 H 250.306 0.190274 1.48183 0
M  V30 2776 H 252.188 -2.12047 3.64162 0
M  V30 2777 H 250.863 -2.12051 2.44573 0
M  V30 2778 H 249.77 -0.195544 3.73589 0
M  V30 2779 H 251.103 -0.276934 4.9142 0
M  V30 2780 N 252.755 -1.56801 0.158532 0
M  V30 2781 C 253.687 -2.14488 -0.807923 0
M  V30 2782 C 254.7 -1.09721 -1.20271 0
M  V30 2783 O 255.889 -1.36956 -1.14478 0
M  V30 2784 C 252.989 -2.66217 -2.09718 0
M  V30 2785 C 252.162 -3.95507 -1.86796 0
M  V30 2786 C 251.221 -4.3243 -2.99818 0
M  V30 2787 O 250.247 -5.00543 -2.71008 0
M  V30 2788 N 251.449 -3.92947 -4.27285 0
M  V30 2789 H 254.214 -2.98042 -0.314816 0
M  V30 2790 H 251.775 -1.61881 -0.0246692 0
M  V30 2791 H 253.767 -2.87924 -2.84398 0
M  V30 2792 H 252.337 -1.87324 -2.50257 0
M  V30 2793 H 251.557 -3.82309 -0.96089 0
M  V30 2794 H 252.845 -4.79972 -1.68833 0
M  V30 2795 H 252.243 -3.38087 -4.53557 0
M  V30 2796 H 250.8 -4.19681 -4.9871 0
M  V30 2797 N 254.233 0.115231 -1.57178 0
M  V30 2798 C 255.181 1.16014 -2.01602 0
M  V30 2799 C 256.175 1.42653 -0.913587 0
M  V30 2800 O 257.381 1.42571 -1.09879 0
M  V30 2801 H 253.756 0.391252 -0.642204 0
M  V30 2802 H 255.727 0.758998 -2.88586 0
M  V30 2803 C 254.476 2.47767 -2.4394 0
M  V30 2804 H 253.799 2.28108 -3.28339 0
M  V30 2805 H 255.239 3.19432 -2.78818 0
M  V30 2806 C 253.698 3.10617 -1.30455 0
M  V30 2807 O 254.228 3.96846 -0.622585 0
M  V30 2808 N 252.434 2.70553 -1.06064 0
M  V30 2809 H 251.981 2.00527 -1.61699 0
M  V30 2810 H 251.939 3.12934 -0.303284 0
M  V30 2811 N 255.711 1.52812 0.385517 0
M  V30 2812 C 256.951 1.69716 1.13911 0
M  V30 2813 C 257.315 0.42962 1.87132 0
M  V30 2814 O 258.516 0.475071 2.64569 0
M  V30 2815 C 256.787 2.90021 2.0886 0
M  V30 2816 S 258.346 3.27531 2.92009 0
M  V30 2817 H 255.164 0.59739 0.385547 0
M  V30 2818 H 257.766 1.90868 0.423061 0
M  V30 2819 H 256.47 3.80493 1.53797 0
M  V30 2820 H 256.001 2.71213 2.84969 0
M  V30 2821 H 258.016 2.77989 4.11019 0
M  V30 2822 N 257.189 -0.644168 1.43834 0
M  V30 2823 C 258.417 -1.43147 1.49387 0
M  V30 2824 C 258.832 -1.88452 0.114583 0
M  V30 2825 O 258.189 -1.60047 -0.876989 0
M  V30 2826 C 258.24 -2.66046 2.44748 0
M  V30 2827 O 257.961 -2.22633 3.77314 0
M  V30 2828 C 259.462 -3.59311 2.59635 0
M  V30 2829 H 256.682 -0.439447 0.507077 0
M  V30 2830 H 259.226 -0.78895 1.88669 0
M  V30 2831 H 257.381 -3.26418 2.08638 0
M  V30 2832 H 257.795 -3.02216 4.28679 0
M  V30 2833 H 259.269 -4.42187 3.30416 0
M  V30 2834 H 259.746 -4.07259 1.64427 0
M  V30 2835 H 260.352 -3.04816 2.96593 0
M  V30 2836 N 258.668 -1.30515 -0.883378 0
M  V30 2837 C 259.598 -1.19607 -2.00541 0
M  V30 2838 C 260.579 -0.086346 -1.69881 0
M  V30 2839 O 261.764 -0.268654 -1.92333 0
M  V30 2840 C 258.894 -0.888758 -3.35736 0
M  V30 2841 C 257.848 -1.95659 -3.8066 0
M  V30 2842 C 257.174 -1.50224 -5.13164 0
M  V30 2843 C 258.474 -3.36788 -3.99213 0
M  V30 2844 H 260.168 -2.13476 -2.09925 0
M  V30 2845 H 257.714 -1.02775 -1.00863 0
M  V30 2846 H 259.667 -0.799094 -4.13754 0
M  V30 2847 H 258.391 0.0856125 -3.26488 0
M  V30 2848 H 257.05 -2.03591 -3.04871 0
M  V30 2849 H 256.698 -0.516092 -5.00345 0
M  V30 2850 H 256.398 -2.2165 -5.44192 0
M  V30 2851 H 257.922 -1.42639 -5.93706 0
M  V30 2852 H 259.336 -3.31605 -4.67665 0
M  V30 2853 H 257.733 -4.06314 -4.41621 0
M  V30 2854 H 258.803 -3.78561 -3.03017 0
M  V30 2855 N 260.146 1.09593 -1.13257 0
M  V30 2856 C 261.056 2.19739 -0.821691 0
M  V30 2857 C 262.072 1.72926 0.19302 0
M  V30 2858 O 263.248 2.01385 0.0244895 0
M  V30 2859 C 260.313 3.45482 -0.290333 0
M  V30 2860 C 259.374 4.06985 -1.36607 0
M  V30 2861 C 258.607 5.26726 -0.859975 0
M  V30 2862 O 258.83 5.69594 0.303082 0
M  V30 2863 O 257.764 5.7931 -1.63351 0
M  V30 2864 H 261.59 2.48781 -1.74189 0
M  V30 2865 H 259.175 1.18496 -0.909894 0
M  V30 2866 H 261.057 4.214 0.000674022 0
M  V30 2867 H 259.732 3.18047 0.602306 0
M  V30 2868 H 258.639 3.32712 -1.71037 0
M  V30 2869 H 259.972 4.38643 -2.23279 0
M  V30 2870 N 261.624 0.925811 1.2754 0
M  V30 2871 C 262.873 0.561084 1.93739 0
M  V30 2872 C 263.186 -0.901685 1.73577 0
M  V30 2873 O 264.392 -1.37511 2.34101 0
M  V30 2874 C 262.848 0.952668 3.47062 0
M  V30 2875 C 262.456 2.43599 3.75983 0
M  V30 2876 C 264.2 0.659103 4.19352 0
M  V30 2877 C 262.107 2.76707 5.22673 0
M  V30 2878 H 261.037 0.206122 0.725279 0
M  V30 2879 H 263.688 1.12637 1.44863 0
M  V30 2880 H 262.07 0.316053 3.94737 0
M  V30 2881 H 263.244 3.12035 3.39073 0
M  V30 2882 H 261.559 2.70125 3.16893 0
M  V30 2883 H 264.156 0.882985 5.27359 0
M  V30 2884 H 264.499 -0.403607 4.14339 0
M  V30 2885 H 265.032 1.25473 3.77494 0
M  V30 2886 H 261.771 3.8188 5.32774 0
M  V30 2887 H 261.291 2.12919 5.60737 0
M  V30 2888 H 262.97 2.6435 5.90532 0
M  V30 2889 N 263.102 -1.41638 0.69111 0
M  V30 2890 C 264.012 -2.34588 0.0233487 0
M  V30 2891 C 265.028 -1.55987 -0.770984 0
M  V30 2892 O 266.204 -1.88486 -0.709569 0
M  V30 2893 C 263.269 -3.34684 -0.904851 0
M  V30 2894 C 262.33 -4.29176 -0.103225 0
M  V30 2895 C 261.563 -5.2449 -0.987216 0
M  V30 2896 O 261.786 -5.2514 -2.22674 0
M  V30 2897 O 260.72 -6.00295 -0.439281 0
M  V30 2898 H 264.546 -2.93261 0.789416 0
M  V30 2899 H 262.131 -1.42417 0.45142 0
M  V30 2900 H 264.013 -3.96133 -1.43724 0
M  V30 2901 H 262.688 -2.78461 -1.65049 0
M  V30 2902 H 261.595 -3.71089 0.473655 0
M  V30 2903 H 262.928 -4.88484 0.60365 0
M  V30 2904 N 264.58 -0.43555 -1.51462 0
M  V30 2905 C 265.805 0.132627 -2.06976 0
M  V30 2906 C 266.23 1.35848 -1.30104 0
M  V30 2907 O 265.588 1.78112 -0.338493 0
M  V30 2908 C 265.636 0.43523 -3.57964 0
M  V30 2909 O 264.74 1.52198 -3.83288 0
M  V30 2910 H 264.081 0.00265 -0.663995 0
M  V30 2911 H 266.611 -0.616369 -1.95095 0
M  V30 2912 H 266.621 0.686206 -4.02188 0
M  V30 2913 H 265.296 -0.460739 -4.1334 0
M  V30 2914 H 263.873 1.2611 -3.50928 0
M  V30 2915 N 266.058 1.56714 -0.166846 0
M  V30 2916 C 267.288 2.00828 0.48494 0
M  V30 2917 C 267.696 1.04612 1.57648 0
M  V30 2918 O 267.039 0.0383201 1.8366 0
M  V30 2919 C 267.101 3.4137 1.12723 0
M  V30 2920 C 266.765 4.56654 0.177886 0
M  V30 2921 C 267.762 5.16402 -0.60207 0
M  V30 2922 C 265.447 5.02244 0.0750139 0
M  V30 2923 C 267.441 6.20167 -1.47215 0
M  V30 2924 C 265.128 6.05859 -0.798649 0
M  V30 2925 C 266.126 6.64691 -1.57082 0
M  V30 2926 O 265.814 7.66297 -2.42989 0
M  V30 2927 H 265.546 0.663587 0.128953 0
M  V30 2928 H 268.1 2.03692 -0.264365 0
M  V30 2929 H 266.33 3.35406 1.92457 0
M  V30 2930 H 268.019 3.69466 1.68076 0
M  V30 2931 H 268.785 4.82065 -0.53274 0
M  V30 2932 H 264.664 4.56167 0.665812 0
M  V30 2933 H 268.208 6.66016 -2.07531 0
M  V30 2934 H 264.105 6.39621 -0.869199 0
M  V30 2935 H 264.873 7.83601 -2.36455 0
M  V30 2936 N 267.536 -0.106894 1.57237 0
M  V30 2937 C 268.784 -0.810921 1.85117 0
M  V30 2938 C 269.105 -1.7984 0.753827 0
M  V30 2939 O 268.375 -1.94649 -0.221056 0
M  V30 2940 H 266.955 -0.302466 0.683025 0
M  V30 2941 H 269.617 -0.0913324 1.94686 0
M  V30 2942 H 268.713 -1.34875 2.81452 0
M  V30 2943 N 269.014 -1.53014 -0.377408 0
M  V30 2944 C 270.244 -1.72265 -1.14054 0
M  V30 2945 C 270.652 -0.44601 -1.83868 0
M  V30 2946 O 269.995 0.590095 -1.73964 0
M  V30 2947 C 270.057 -2.82492 -2.22348 0
M  V30 2948 C 269.721 -4.23233 -1.72402 0
M  V30 2949 C 270.718 -5.05992 -1.19448 0
M  V30 2950 C 268.403 -4.696 -1.78273 0
M  V30 2951 C 270.397 -6.33203 -0.730268 0
M  V30 2952 C 268.084 -5.96792 -1.31464 0
M  V30 2953 C 269.082 -6.78424 -0.789297 0
M  V30 2954 O 268.77 -8.0323 -0.328077 0
M  V30 2955 H 268.502 -0.579873 -0.347453 0
M  V30 2956 H 271.056 -2.00502 -0.445882 0
M  V30 2957 H 269.286 -2.49702 -2.95272 0
M  V30 2958 H 270.975 -2.90034 -2.83963 0
M  V30 2959 H 271.741 -4.71349 -1.14259 0
M  V30 2960 H 267.62 -4.06142 -2.18106 0
M  V30 2961 H 271.164 -6.96868 -0.319542 0
M  V30 2962 H 267.061 -6.30937 -1.36342 0
M  V30 2963 H 267.829 -8.1727 -0.448493 0
M  V30 2964 N 270.492 0.636531 -1.44174 0
M  V30 2965 C 271.72 1.42353 -1.50144 0
M  V30 2966 C 272.135 1.88389 -0.124575 0
M  V30 2967 O 271.492 1.6051 0.868489 0
M  V30 2968 C 271.543 2.64744 -2.46156 0
M  V30 2969 O 271.264 2.20629 -3.7849 0
M  V30 2970 C 272.765 3.57929 -2.61537 0
M  V30 2971 H 269.985 0.436752 -0.5094 0
M  V30 2972 H 272.529 0.778933 -1.89084 0
M  V30 2973 H 270.684 3.25307 -2.10366 0
M  V30 2974 H 271.098 2.99938 -4.30276 0
M  V30 2975 H 272.572 4.40428 -3.32757 0
M  V30 2976 H 273.049 4.06382 -1.66585 0
M  V30 2977 H 273.655 3.03238 -2.98206 0
M  V30 2978 N 271.97 1.30982 0.876444 0
M  V30 2979 C 273.198 1.23242 1.6619 0
M  V30 2980 C 273.613 -0.203345 1.87702 0
M  V30 2981 O 272.97 -1.13317 1.43057 0
M  V30 2982 C 273.021 1.96623 3.03351 0
M  V30 2983 O 272.742 3.34594 2.82804 0
M  V30 2984 C 274.243 1.95644 3.97792 0
M  V30 2985 H 271.463 0.426126 0.518322 0
M  V30 2986 H 274.007 1.7275 1.09442 0
M  V30 2987 H 272.162 1.50892 3.56806 0
M  V30 2988 H 272.576 3.71873 3.69879 0
M  V30 2989 H 274.05 2.51511 4.91372 0
M  V30 2990 H 274.527 0.937395 4.2908 0
M  V30 2991 H 275.133 2.41225 3.50272 0
M  V30 2992 N 273.449 -1.08991 1.13837 0
M  V30 2993 C 274.726 -1.77863 0.813876 0
M  V30 2994 C 275.106 -1.99375 -0.693746 0
M  V30 2995 O 274.454 -1.59875 -1.63255 0
M  V30 2996 C 274.664 -3.0986 1.60586 0
M  V30 2997 C 276.012 -3.84493 1.8014 0
M  V30 2998 O 277.036 -3.19624 1.57222 0
M  V30 2999 O 275.895 -5.00957 2.18413 0
M  V30 3000 H 272.989 -0.771589 0.297624 0
M  V30 3001 H 275.535 -1.15507 1.24323 0
M  V30 3002 H 274.307 -2.89715 2.63022 0
M  V30 3003 H 273.93 -3.79942 1.17173 0
M  V30 3004 N 274.927 -0.932562 -1.27047 0
M  V30 3005 C 276.204 -0.49377 -1.89265 0
M  V30 3006 C 276.584 1.02833 -1.8436 0
M  V30 3007 O 275.932 1.88461 -1.29209 0
M  V30 3008 C 276.142 -1.04536 -3.32976 0
M  V30 3009 C 277.49 -1.10879 -4.09867 0
M  V30 3010 O 278.514 -0.995327 -3.42011 0
M  V30 3011 O 277.373 -1.28417 -5.31198 0
M  V30 3012 H 274.467 -0.159596 -0.811454 0
M  V30 3013 H 277.013 -1.02457 -1.3528 0
M  V30 3014 H 275.785 -2.08913 -3.30864 0
M  V30 3015 H 275.408 -0.496494 -3.94488 0
M  V30 3016 N 276.405 1.4127 -0.698611 0
M  V30 3017 C 277.654 2.00408 -0.227949 0
M  V30 3018 C 277.967 1.55981 1.18023 0
M  V30 3019 O 279.173 2.07699 1.74852 0
M  V30 3020 C 277.629 3.58129 -0.356636 0
M  V30 3021 C 277.237 4.11536 -1.77037 0
M  V30 3022 C 278.981 4.24466 0.0540969 0
M  V30 3023 C 276.888 5.61701 -1.85055 0
M  V30 3024 H 275.818 0.749586 -0.0814657 0
M  V30 3025 H 278.469 1.61713 -0.867249 0
M  V30 3026 H 276.851 3.94442 0.350965 0
M  V30 3027 H 278.025 3.86636 -2.50698 0
M  V30 3028 H 276.34 3.57736 -2.13105 0
M  V30 3029 H 278.937 5.34698 0.0146723 0
M  V30 3030 H 279.28 4.01687 1.09332 0
M  V30 3031 H 279.813 3.93198 -0.603337 0
M  V30 3032 H 276.552 5.89312 -2.8704 0
M  V30 3033 H 276.072 5.88519 -1.15783 0
M  V30 3034 H 277.751 6.26524 -1.61484 0
M  V30 3035 N 277.883 0.443576 1.51229 0
M  V30 3036 C 278.793 -0.370721 2.31652 0
M  V30 3037 C 279.809 -1.02186 1.40833 0
M  V30 3038 O 280.985 -1.01586 1.73903 0
M  V30 3039 C 278.05 -1.45376 3.14749 0
M  V30 3040 C 277.111 -0.822099 4.21355 0
M  V30 3041 C 276.344 -1.85353 5.0048 0
M  V30 3042 O 276.567 -3.07656 4.80316 0
M  V30 3043 O 275.501 -1.4406 5.84406 0
M  V30 3044 H 279.327 0.286002 3.0235 0
M  V30 3045 H 276.912 0.20598 1.47973 0
M  V30 3046 H 278.794 -2.08173 3.66391 0
M  V30 3047 H 277.469 -2.09445 2.46809 0
M  V30 3048 H 276.376 -0.155909 3.73775 0
M  V30 3049 H 277.709 -0.224797 4.91686 0
M  V30 3050 N 279.361 -1.56624 0.175154 0
M  V30 3051 C 280.608 -1.96999 -0.468811 0
M  V30 3052 C 280.936 -1.06129 -1.62994 0
M  V30 3053 O 280.191 -0.0961771 -1.95464 0
M  V30 3054 C 280.49 -3.43419 -0.989864 0
M  V30 3055 C 280.156 -4.50866 0.0557687 0
M  V30 3056 C 278.818 -4.79975 0.343134 0
M  V30 3057 C 281.17 -5.15551 0.765308 0
M  V30 3058 C 278.498 -5.71066 1.34536 0
M  V30 3059 C 280.85 -6.07724 1.75654 0
M  V30 3060 C 279.514 -6.35199 2.05132 0
M  V30 3061 H 278.784 -0.720869 -0.17155 0
M  V30 3062 H 281.431 -1.89616 0.267924 0
M  V30 3063 H 279.736 -3.47772 -1.80449 0
M  V30 3064 H 281.433 -3.72002 -1.49719 0
M  V30 3065 H 278.023 -4.28229 -0.178381 0
M  V30 3066 H 282.207 -4.9317 0.556513 0
M  V30 3067 H 277.463 -5.90635 1.57988 0
M  V30 3068 H 281.637 -6.56912 2.31169 0
M  V30 3069 H 279.264 -7.05584 2.8294 0
M  V30 3070 N 280.839 0.0985539 -1.57292 0
M  V30 3071 C 282.069 0.815135 -1.8984 0
M  V30 3072 C 282.477 1.7297 -0.766679 0
M  V30 3073 O 281.82 1.81698 0.270483 0
M  V30 3074 C 281.882 1.6842 -3.17608 0
M  V30 3075 C 281.546 0.94182 -4.4719 0
M  V30 3076 C 282.543 0.273212 -5.19182 0
M  V30 3077 C 280.228 0.916927 -4.9386 0
M  V30 3078 C 282.222 -0.410361 -6.36078 0
M  V30 3079 C 279.909 0.229567 -6.10669 0
M  V30 3080 C 280.907 -0.432902 -6.81627 0
M  V30 3081 O 280.595 -1.10925 -7.9621 0
M  V30 3082 H 280.327 0.238501 -0.632529 0
M  V30 3083 H 282.881 0.0812659 -2.05239 0
M  V30 3084 H 281.111 2.46022 -2.98345 0
M  V30 3085 H 282.8 2.27704 -3.36015 0
M  V30 3086 H 283.566 0.283927 -4.84168 0
M  V30 3087 H 279.445 1.42201 -4.3852 0
M  V30 3088 H 282.989 -0.928013 -6.914 0
M  V30 3089 H 278.886 0.216686 -6.45136 0
M  V30 3090 H 279.654 -1.01579 -8.12172 0
M  V30 3091 N 282.317 1.53212 0.369288 0
M  V30 3092 C 283.563 1.70413 1.11046 0
M  V30 3093 C 283.918 0.448509 1.87099 0
M  V30 3094 O 283.211 -0.558382 1.83283 0
M  V30 3095 C 283.405 2.89101 2.10132 0
M  V30 3096 C 283.234 4.26084 1.43814 0
M  V30 3097 C 282.004 4.90994 1.19384 0
M  V30 3098 C 284.202 5.06754 0.877802 0
M  V30 3099 N 282.184 6.11911 0.49377 0
M  V30 3100 C 283.555 6.1924 0.306891 0
M  V30 3101 C 285.61 4.91814 0.776129 0
M  V30 3102 C 284.313 7.1842 -0.355774 0
M  V30 3103 C 286.339 5.91263 0.127252 0
M  V30 3104 C 285.701 7.03069 -0.432801 0
M  V30 3105 H 281.8 0.676872 0.391623 0
M  V30 3106 H 284.384 1.90603 0.397334 0
M  V30 3107 H 282.555 2.70456 2.78761 0
M  V30 3108 H 284.287 2.95142 2.76899 0
M  V30 3109 H 281.042 4.50074 1.47413 0
M  V30 3110 H 281.466 6.76813 0.159207 0
M  V30 3111 H 286.108 4.05564 1.19489 0
M  V30 3112 H 283.826 8.04264 -0.786499 0
M  V30 3113 H 287.412 5.81779 0.0495613 0
M  V30 3114 H 286.292 7.78702 -0.926958 0
M  V30 3115 N 283.795 -0.628877 1.44509 0
M  V30 3116 C 285.211 -0.947305 1.28446 0
M  V30 3117 C 285.411 -2.00275 0.221872 0
M  V30 3118 O 284.467 -2.49447 -0.391471 0
M  V30 3119 C 285.78 -1.40843 2.65676 0
M  V30 3120 C 287.328 -1.52379 2.73404 0
M  V30 3121 C 287.803 -2.01875 4.11109 0
M  V30 3122 N 289.294 -2.09142 4.13296 0
M  V30 3123 C 290.029 -2.48615 5.16699 0
M  V30 3124 N 289.525 -2.87209 6.30462 0
M  V30 3125 N 291.318 -2.48768 5.04054 0
M  V30 3126 H 283.469 0.0690977 2.12288 0
M  V30 3127 H 285.732 -0.0317164 0.947469 0
M  V30 3128 H 285.438 -0.707206 3.44516 0
M  V30 3129 H 285.312 -2.37902 2.92716 0
M  V30 3130 H 287.699 -2.21598 1.9488 0
M  V30 3131 H 287.78 -0.536898 2.50102 0
M  V30 3132 H 287.424 -1.3325 4.90109 0
M  V30 3133 H 287.354 -3.0144 4.31789 0
M  V30 3134 H 289.845 -1.81991 3.31191 0
M  V30 3135 H 290.158 -3.16149 7.05174 0
M  V30 3136 H 288.503 -2.84955 6.33897 0
M  V30 3137 H 291.694 -2.18009 4.14234 0
M  V30 3138 H 291.867 -2.79207 5.84763 0
M  V30 3139 N 285.273 -1.31445 -0.869486 0
M  V30 3140 C 286.521 -1.20918 -1.61936 0
M  V30 3141 C 286.842 0.232683 -1.93607 0
M  V30 3142 O 286.112 1.15352 -1.58338 0
M  V30 3143 H 284.692 -0.44454 -0.600328 0
M  V30 3144 H 287.354 -1.64776 -1.0409 0
M  V30 3145 H 286.45 -1.78124 -2.56278 0
M  V30 3146 N 286.751 1.08385 -1.14413 0
M  V30 3147 C 288.028 1.77429 -0.823297 0
M  V30 3148 C 288.408 1.9974 0.683163 0
M  V30 3149 O 287.756 1.60739 1.62405 0
M  V30 3150 C 287.966 3.09004 -1.62227 0
M  V30 3151 C 289.314 3.83532 -1.82177 0
M  V30 3152 O 290.338 3.18786 -1.58915 0
M  V30 3153 O 289.197 4.99792 -2.21067 0
M  V30 3154 H 286.291 0.769999 -0.301712 0
M  V30 3155 H 288.837 1.14846 -1.24934 0
M  V30 3156 H 287.609 2.88316 -2.64555 0
M  V30 3157 H 287.232 3.79316 -1.19187 0
M  V30 3158 N 288.23 0.939286 1.26551 0
M  V30 3159 C 289.507 0.5038 1.89001 0
M  V30 3160 C 289.887 -1.01854 1.84903 0
M  V30 3161 O 289.235 -1.87773 1.30206 0
M  V30 3162 C 289.445 1.063 3.32417 0
M  V30 3163 C 290.793 1.13051 4.09273 0
M  V30 3164 O 291.817 1.01345 3.41479 0
M  V30 3165 O 290.676 1.31233 5.30509 0
M  V30 3166 H 287.77 0.163897 0.810597 0
M  V30 3167 H 290.316 1.03173 1.34735 0
M  V30 3168 H 289.088 2.10665 3.29752 0
M  V30 3169 H 288.711 0.517408 3.94219 0
M  V30 3170 N 289.708 -1.40897 0.706093 0
M  V30 3171 C 290.656 -2.32572 0.0361893 0
M  V30 3172 C 291.65 -1.51532 -0.757266 0
M  V30 3173 O 292.856 -1.67396 -0.661703 0
M  V30 3174 H 289.231 -0.751966 -0.00709935 0
M  V30 3175 H 291.202 -2.86733 0.826249 0
M  V30 3176 C 289.951 -3.36418 -0.87854 0
M  V30 3177 H 289.274 -3.98836 -0.277401 0
M  V30 3178 H 290.714 -4.0308 -1.3154 0
M  V30 3179 C 289.173 -2.71141 -1.99961 0
M  V30 3180 O 289.703 -2.56735 -3.0895 0
M  V30 3181 N 287.909 -2.29671 -1.78043 0
M  V30 3182 H 287.456 -2.41588 -0.894042 0
M  V30 3183 H 287.414 -1.86332 -2.53235 0
M  V30 3184 N 291.186 -0.45159 -1.50991 0
M  V30 3185 C 292.149 0.341117 -2.26647 0
M  V30 3186 C 293.149 0.937422 -1.30649 0
M  V30 3187 O 294.339 0.809644 -1.54241 0
M  V30 3188 C 291.471 1.48398 -3.06905 0
M  V30 3189 H 292.664 -0.322117 -2.98165 0
M  V30 3190 H 290.217 -0.205122 -1.54948 0
M  V30 3191 H 290.952 2.18284 -2.39838 0
M  V30 3192 H 290.737 1.06241 -3.77432 0
M  V30 3193 H 292.227 2.04367 -3.64176 0
M  V30 3194 N 292.664 1.56529 -0.183458 0
M  V30 3195 C 293.91 1.97537 0.459036 0
M  V30 3196 C 294.243 1.06989 1.62071 0
M  V30 3197 O 293.518 0.11948 1.94133 0
M  V30 3198 C 293.801 3.47874 0.930368 0
M  V30 3199 C 293.654 4.492 -0.232317 0
M  V30 3200 C 294.973 4.01612 1.79989 0
M  V30 3201 H 292.092 0.718204 0.165383 0
M  V30 3202 H 294.734 1.88042 -0.272038 0
M  V30 3203 H 292.884 3.56095 1.55333 0
M  V30 3204 H 294.556 4.53027 -0.86972 0
M  V30 3205 H 292.799 4.24657 -0.885928 0
M  V30 3206 H 293.47 5.51823 0.139796 0
M  V30 3207 H 295.946 3.96097 1.27461 0
M  V30 3208 H 294.822 5.07195 2.09867 0
M  V30 3209 H 295.083 3.46163 2.74998 0
M  V30 3210 N 294.142 -0.090211 1.57342 0
M  V30 3211 C 295.37 -0.806224 1.90546 0
M  V30 3212 C 295.785 -1.72041 0.777644 0
M  V30 3213 O 295.142 -1.80778 -0.250103 0
M  V30 3214 C 295.193 -1.61546 3.23396 0
M  V30 3215 O 294.914 -0.738043 4.31839 0
M  V30 3216 C 296.415 -2.4341 3.70495 0
M  V30 3217 H 293.635 -0.230256 0.630257 0
M  V30 3218 H 296.179 -0.0659843 2.04394 0
M  V30 3219 H 294.334 -2.30816 3.11131 0
M  V30 3220 H 294.748 -1.29901 5.08159 0
M  V30 3221 H 296.222 -2.95676 4.66133 0
M  V30 3222 H 296.699 -3.22098 2.98579 0
M  V30 3223 H 297.305 -1.79331 3.85643 0
M  V30 3224 N 295.62 -1.53406 -0.361157 0
M  V30 3225 C 296.868 -1.69467 -1.10115 0
M  V30 3226 C 297.189 -0.451352 -1.89705 0
M  V30 3227 O 296.459 0.534636 -1.88463 0
M  V30 3228 H 295.039 -0.624749 -0.409508 0
M  V30 3229 H 297.701 -1.90609 -0.406699 0
M  V30 3230 H 296.797 -2.55774 -1.78847 0
M  V30 3231 N 297.098 0.621204 -1.44841 0
M  V30 3232 C 298.344 1.3826 -1.48365 0
M  V30 3233 C 298.677 1.93831 -0.119624 0
M  V30 3234 O 297.952 1.74251 0.864111 0
M  V30 3235 C 298.235 2.54058 -2.55199 0
M  V30 3236 C 298.088 2.03772 -4.00995 0
M  V30 3237 C 299.407 3.56225 -2.58442 0
M  V30 3238 H 296.526 0.501374 -0.540179 0
M  V30 3239 H 299.168 0.7015 -1.76576 0
M  V30 3240 H 297.318 3.12162 -2.31274 0
M  V30 3241 H 298.99 1.50423 -4.36086 0
M  V30 3242 H 297.233 1.34876 -4.12299 0
M  V30 3243 H 297.904 2.87185 -4.71411 0
M  V30 3244 H 300.38 3.07939 -2.79844 0
M  V30 3245 H 299.256 4.34756 -3.3508 0
M  V30 3246 H 299.517 4.10949 -1.63013 0
M  V30 3247 N 298.576 1.31904 0.862503 0
M  V30 3248 C 299.804 1.24998 1.64873 0
M  V30 3249 C 300.219 -0.183425 1.87907 0
M  V30 3250 O 299.576 -1.11794 1.44251 0
M  V30 3251 C 299.627 1.99829 3.01248 0
M  V30 3252 O 299.348 3.37575 2.79239 0
M  V30 3253 C 300.849 1.99852 3.95694 0
M  V30 3254 H 298.069 0.431599 0.513773 0
M  V30 3255 H 300.613 1.73901 1.07604 0
M  V30 3256 H 298.768 1.54668 3.55185 0
M  V30 3257 H 299.182 3.75776 3.65914 0
M  V30 3258 H 300.656 2.56709 4.88676 0
M  V30 3259 H 301.133 0.982852 4.28062 0
M  V30 3260 H 301.739 2.44926 3.47694 0
M  V30 3261 N 300.054 -1.07777 1.14986 0
M  V30 3262 C 301.001 -2.14867 0.842672 0
M  V30 3263 C 301.971 -1.6486 -0.202552 0
M  V30 3264 O 303.156 -1.90668 -0.0710568 0
M  V30 3265 C 300.296 -3.43486 0.333363 0
M  V30 3266 C 299.409 -4.07306 1.43965 0
M  V30 3267 C 298.544 -5.23744 0.886914 0
M  V30 3268 C 297.583 -5.79517 1.97043 0
M  V30 3269 N 296.72 -6.87291 1.4344 0
M  V30 3270 H 301.56 -2.40485 1.75986 0
M  V30 3271 H 299.097 -1.1801 0.878179 0
M  V30 3272 H 301.055 -4.17195 0.0198163 0
M  V30 3273 H 299.685 -3.18133 -0.546916 0
M  V30 3274 H 298.737 -3.31293 1.86946 0
M  V30 3275 H 300.049 -4.44771 2.25788 0
M  V30 3276 H 299.203 -6.04419 0.525651 0
M  V30 3277 H 297.942 -4.87685 0.0377957 0
M  V30 3278 H 296.947 -4.97491 2.34057 0
M  V30 3279 H 298.172 -6.17632 2.82325 0
M  V30 3280 H 296.118 -6.5318 0.607567 0
M  V30 3281 H 296.035 -7.23617 2.18895 0
M  V30 3282 H 297.303 -7.71682 1.10124 0
M  V30 3283 N 301.532 -0.945985 -1.26051 0
M  V30 3284 C 302.781 -0.591836 -1.92822 0
M  V30 3285 C 303.094 0.873956 -1.7499 0
M  V30 3286 O 304.3 1.33769 -2.36259 0
M  V30 3287 C 302.756 -1.00776 -3.45503 0
M  V30 3288 C 302.364 -2.4955 -3.7206 0
M  V30 3289 C 304.108 -0.725735 -4.1825 0
M  V30 3290 C 302.015 -2.84988 -5.18205 0
M  V30 3291 H 300.945 -0.217635 -0.721908 0
M  V30 3292 H 303.596 -1.14927 -1.43052 0
M  V30 3293 H 301.978 -0.378812 -3.94184 0
M  V30 3294 H 303.152 -3.1739 -3.34066 0
M  V30 3295 H 301.467 -2.75133 -3.12555 0
M  V30 3296 H 304.064 -0.966771 -5.25887 0
M  V30 3297 H 304.407 0.337639 -4.14929 0
M  V30 3298 H 304.94 -1.31463 -3.7545 0
M  V30 3299 H 301.679 -3.90307 -5.26631 0
M  V30 3300 H 301.199 -2.21813 -5.57278 0
M  V30 3301 H 302.878 -2.73712 -5.86252 0
M  V30 3302 N 303.011 1.40521 -0.713556 0
M  V30 3303 C 303.921 2.34522 -0.0606667 0
M  V30 3304 C 304.937 1.57193 0.74607 0
M  V30 3305 O 306.113 1.89591 0.679493 0
M  V30 3306 C 303.178 3.36081 0.851491 0
M  V30 3307 C 302.239 4.29286 0.0349339 0
M  V30 3308 C 301.472 5.25994 0.903649 0
M  V30 3309 O 301.695 5.28616 2.14292 0
M  V30 3310 O 300.629 6.00918 0.343723 0
M  V30 3311 H 304.455 2.91968 -0.835972 0
M  V30 3312 H 302.04 1.41681 -0.47402 0
M  V30 3313 H 303.922 3.98369 1.37404 0
M  V30 3314 H 302.597 2.81052 1.60598 0
M  V30 3315 H 301.504 3.70289 -0.532633 0
M  V30 3316 H 302.837 4.87462 -0.681287 0
M  V30 3317 N 304.489 0.459591 1.5075 0
M  V30 3318 C 305.419 -0.330644 2.31147 0
M  V30 3319 C 306.4 -1.00087 1.37538 0
M  V30 3320 O 307.585 -1.00025 1.66459 0
M  V30 3321 C 304.715 -1.41958 3.16962 0
M  V30 3322 C 303.669 -0.871608 4.19031 0
M  V30 3323 C 302.995 -2.05797 4.9351 0
M  V30 3324 C 304.295 0.109251 5.22186 0
M  V30 3325 H 305.989 0.340336 2.97459 0
M  V30 3326 H 303.535 0.165119 1.4305 0
M  V30 3327 H 305.488 -1.9798 3.71997 0
M  V30 3328 H 304.212 -2.11917 2.48513 0
M  V30 3329 H 302.871 -0.333442 3.6508 0
M  V30 3330 H 302.519 -2.74427 4.21544 0
M  V30 3331 H 302.219 -1.6976 5.62544 0
M  V30 3332 H 303.743 -2.62331 5.51375 0
M  V30 3333 H 305.157 -0.361405 5.7216 0
M  V30 3334 H 303.554 0.383316 5.98875 0
M  V30 3335 H 304.624 1.03887 4.73641 0
M  V30 3336 N 305.967 -1.56429 0.191757 0
M  V30 3337 C 307.378 -1.83912 -0.321428 0
M  V30 3338 C 307.729 -1.11231 -1.61623 0
M  V30 3339 O 306.854 -0.37202 -2.13178 0
M  V30 3340 C 307.449 -3.33624 -0.589961 0
M  V30 3341 C 306.008 -3.6153 -1.04753 0
M  V30 3342 C 305.155 -2.7714 -0.0943327 0
M  V30 3343 H 308.106 -1.53161 0.415612 0
M  V30 3344 H 308.127 -3.52213 -1.43966 0
M  V30 3345 H 307.639 -3.86495 0.352588 0
M  V30 3346 H 305.74 -3.14089 -2.00447 0
M  V30 3347 H 305.853 -4.69737 -0.942549 0
M  V30 3348 H 304.217 -2.47638 -0.595589 0
M  V30 3349 H 305 -3.32799 0.842601 0
M  V30 3350 N 307.445 0.0818655 -1.57387 0
M  V30 3351 C 308.377 1.12484 -1.997 0
M  V30 3352 C 309.39 1.35564 -0.90146 0
M  V30 3353 O 310.579 1.33982 -1.17945 0
M  V30 3354 C 307.679 2.47778 -2.31213 0
M  V30 3355 C 306.852 2.44793 -3.62485 0
M  V30 3356 C 305.911 3.62117 -3.81782 0
M  V30 3357 O 304.937 3.44005 -4.53486 0
M  V30 3358 N 306.139 4.82094 -3.23367 0
M  V30 3359 H 308.904 0.764585 -2.89783 0
M  V30 3360 H 306.465 0.270664 -1.59621 0
M  V30 3361 H 308.457 3.24891 -2.41304 0
M  V30 3362 H 307.027 2.75843 -1.4707 0
M  V30 3363 H 306.247 1.53134 -3.6324 0
M  V30 3364 H 307.535 2.39889 -4.48699 0
M  V30 3365 H 306.933 4.99713 -2.65148 0
M  V30 3366 H 305.49 5.56753 -3.38923 0
M  V30 3367 N 308.923 1.53595 0.353017 0
M  V30 3368 C 310.17 1.70385 1.09431 0
M  V30 3369 C 310.498 0.462113 1.88931 0
M  V30 3370 O 309.753 -0.556074 1.87633 0
M  V30 3371 C 310.052 2.91313 2.07054 0
M  V30 3372 C 309.718 4.27308 1.43939 0
M  V30 3373 C 308.38 4.64287 1.26454 0
M  V30 3374 C 310.732 5.11829 0.983883 0
M  V30 3375 C 308.06 5.83412 0.620226 0
M  V30 3376 C 310.412 6.31611 0.353516 0
M  V30 3377 C 309.076 6.67293 0.166272 0
M  V30 3378 H 308.346 0.623484 0.400436 0
M  V30 3379 H 310.993 1.87799 0.374655 0
M  V30 3380 H 309.298 2.68463 2.85368 0
M  V30 3381 H 310.995 3.01497 2.64387 0
M  V30 3382 H 307.585 3.98198 1.58543 0
M  V30 3383 H 311.769 4.838 1.10685 0
M  V30 3384 H 307.025 6.09639 0.463681 0
M  V30 3385 H 311.199 6.964 -0.00757555 0
M  V30 3386 H 308.826 7.59461 -0.335047 0
M  V30 3387 N 310.401 -0.613514 1.45168 0
M  V30 3388 C 311.626 -1.40437 1.52618 0
M  V30 3389 C 312.051 -1.87438 0.157707 0
M  V30 3390 O 311.409 -1.59791 -0.856537 0
M  V30 3391 C 311.457 -2.58894 2.51011 0
M  V30 3392 O 310.561 -3.59326 2.02382 0
M  V30 3393 H 309.902 -0.419506 0.514695 0
M  V30 3394 H 312.432 -0.747215 1.90467 0
M  V30 3395 H 312.442 -3.06214 2.69624 0
M  V30 3396 H 311.117 -2.24032 3.50403 0
M  V30 3397 H 309.694 -3.18695 1.93618 0
M  V30 3398 N 311.879 -1.3236 -0.855495 0
M  V30 3399 C 313.128 -1.22226 -1.60448 0
M  V30 3400 C 313.441 0.214733 -1.94418 0
M  V30 3401 O 314.647 0.437917 -2.67945 0
M  V30 3402 C 313.103 -2.14063 -2.89318 0
M  V30 3403 C 312.711 -3.62839 -2.62777 0
M  V30 3404 C 314.455 -2.12764 -3.67331 0
M  V30 3405 C 312.362 -4.4664 -3.87643 0
M  V30 3406 H 311.292 -0.453904 -0.602069 0
M  V30 3407 H 313.943 -1.57314 -0.944698 0
M  V30 3408 H 312.325 -1.71889 -3.5675 0
M  V30 3409 H 313.499 -4.1335 -2.03662 0
M  V30 3410 H 311.814 -3.66261 -1.98096 0
M  V30 3411 H 314.411 -2.72611 -4.59987 0
M  V30 3412 H 314.754 -1.11841 -4.00995 0
M  V30 3413 H 315.287 -2.53214 -3.06802 0
M  V30 3414 H 312.026 -5.48373 -3.5912 0
M  V30 3415 H 311.546 -4.0088 -4.46156 0
M  V30 3416 H 313.225 -4.59597 -4.55389 0
M  V30 3417 N 313.357 1.07166 -1.15556 0
M  V30 3418 C 314.603 1.80065 -0.932984 0
M  V30 3419 C 314.936 1.86586 0.53845 0
M  V30 3420 O 314.211 1.35098 1.39924 0
M  V30 3421 C 314.494 3.25022 -1.55025 0
M  V30 3422 C 314.347 3.26634 -3.09242 0
M  V30 3423 C 315.666 4.22341 -1.2376 0
M  V30 3424 H 312.785 0.653697 -0.340366 0
M  V30 3425 H 315.427 1.25389 -1.4275 0
M  V30 3426 H 313.577 3.71712 -1.12972 0
M  V30 3427 H 315.249 2.88173 -3.60214 0
M  V30 3428 H 313.492 2.65539 -3.43033 0
M  V30 3429 H 314.163 4.28854 -3.47546 0
M  V30 3430 H 316.639 3.8405 -1.60139 0
M  V30 3431 H 315.515 5.22053 -1.69564 0
M  V30 3432 H 315.776 4.41828 -0.154938 0
M  V30 3433 N 314.835 0.952656 1.25548 0
M  V30 3434 C 316.112 0.523818 1.88456 0
M  V30 3435 C 316.492 -0.998871 1.85973 0
M  V30 3436 O 315.84 -1.86381 1.3219 0
M  V30 3437 C 316.05 1.0982 3.31271 0
M  V30 3438 C 317.398 1.17385 4.08051 0
M  V30 3439 O 318.422 1.04961 3.40384 0
M  V30 3440 O 317.281 1.36852 5.29088 0
M  V30 3441 H 314.375 0.172485 0.808813 0
M  V30 3442 H 316.921 1.04596 1.33633 0
M  V30 3443 H 315.693 2.1415 3.27499 0
M  V30 3444 H 315.316 0.559191 3.93648 0
M  V30 3445 N 316.313 -1.40141 0.720998 0
M  V30 3446 C 317.543 -2.04798 0.27226 0
M  V30 3447 C 317.951 -1.54442 -1.09289 0
M  V30 3448 O 317.294 -0.698342 -1.69908 0
M  V30 3449 C 317.356 -3.59048 0.18027 0
M  V30 3450 C 317.02 -4.32317 1.48159 0
M  V30 3451 C 318.017 -4.59902 2.42458 0
M  V30 3452 C 315.702 -4.71125 1.74202 0
M  V30 3453 C 317.696 -5.25288 3.61042 0
M  V30 3454 C 315.383 -5.36242 2.93066 0
M  V30 3455 C 316.381 -5.63254 3.86308 0
M  V30 3456 O 316.069 -6.27024 5.03086 0
M  V30 3457 H 315.801 -0.665419 0.119139 0
M  V30 3458 H 318.355 -1.80436 0.981432 0
M  V30 3459 H 316.585 -3.82251 -0.58489 0
M  V30 3460 H 318.274 -4.05221 -0.234618 0
M  V30 3461 H 319.04 -4.30379 2.23604 0
M  V30 3462 H 314.919 -4.49466 1.02477 0
M  V30 3463 H 318.463 -5.46289 4.33837 0
M  V30 3464 H 314.36 -5.65185 3.11826 0
M  V30 3465 H 315.128 -6.4552 5.03235 0
M  V30 3466 N 317.792 -0.46758 -1.50504 0
M  V30 3467 C 318.739 0.328413 -2.28452 0
M  V30 3468 C 319.709 0.990313 -1.33349 0
M  V30 3469 O 320.894 1.00343 -1.62284 0
M  V30 3470 C 318.034 1.40648 -3.15138 0
M  V30 3471 C 317.147 0.759709 -4.25267 0
M  V30 3472 C 316.282 1.81537 -4.99217 0
M  V30 3473 C 315.321 1.14866 -6.01226 0
M  V30 3474 N 314.458 2.14702 -6.68467 0
M  V30 3475 H 319.298 -0.342603 -2.96024 0
M  V30 3476 H 316.835 -0.180801 -1.45985 0
M  V30 3477 H 318.793 2.04315 -3.63746 0
M  V30 3478 H 317.423 2.04671 -2.49619 0
M  V30 3479 H 316.475 0.0105671 -3.80399 0
M  V30 3480 H 317.787 0.233243 -4.98254 0
M  V30 3481 H 316.941 2.52793 -5.51526 0
M  V30 3482 H 315.68 2.37564 -4.25928 0
M  V30 3483 H 314.685 0.42171 -5.4818 0
M  V30 3484 H 315.91 0.595334 -6.76485 0
M  V30 3485 H 313.856 2.69752 -5.97972 0
M  V30 3486 H 313.773 1.6703 -7.37317 0
M  V30 3487 H 315.041 2.85348 -7.25394 0
M  V30 3488 N 319.27 1.56325 -0.20005 0
M  V30 3489 C 320.2 2.22318 0.713916 0
M  V30 3490 C 321.181 1.18788 1.21752 0
M  V30 3491 O 322.366 1.47309 1.26545 0
M  V30 3492 C 319.496 2.88639 1.93144 0
M  V30 3493 C 318.45 3.98457 1.56255 0
M  V30 3494 C 317.776 4.51967 2.85709 0
M  V30 3495 C 319.076 5.16612 0.768747 0
M  V30 3496 H 320.77 2.98952 0.163755 0
M  V30 3497 H 318.316 1.43792 0.0773219 0
M  V30 3498 H 320.269 3.33491 2.57608 0
M  V30 3499 H 318.993 2.09419 2.50621 0
M  V30 3500 H 317.652 3.54305 0.941471 0
M  V30 3501 H 317.3 3.69503 3.41287 0
M  V30 3502 H 317 5.26071 2.6177 0
M  V30 3503 H 318.524 4.99523 3.51154 0
M  V30 3504 H 319.938 5.57977 1.3166 0
M  V30 3505 H 318.335 5.96812 0.627286 0
M  V30 3506 H 319.405 4.84358 -0.229168 0
M  V30 3507 N 320.748 -0.0735177 1.57428 0
M  V30 3508 C 321.997 -0.771809 1.86349 0
M  V30 3509 C 322.31 -1.78828 0.792452 0
M  V30 3510 O 323.516 -2.53602 0.96945 0
M  V30 3511 C 321.972 -1.42358 3.30548 0
M  V30 3512 C 321.58 -0.445761 4.45777 0
M  V30 3513 C 323.324 -2.10434 3.6867 0
M  V30 3514 C 321.231 -1.10335 5.81016 0
M  V30 3515 H 320.161 -0.291999 0.695164 0
M  V30 3516 H 322.812 -0.0250749 1.83483 0
M  V30 3517 H 321.194 -2.21852 3.28021 0
M  V30 3518 H 322.368 0.319239 4.59693 0
M  V30 3519 H 320.683 0.130457 4.16196 0
M  V30 3520 H 323.28 -2.60405 4.67004 0
M  V30 3521 H 323.623 -2.90298 2.98383 0
M  V30 3522 H 324.156 -1.37773 3.7318 0
M  V30 3523 H 320.895 -0.345061 6.54591 0
M  V30 3524 H 320.415 -1.83925 5.70904 0
M  V30 3525 H 322.094 -1.62367 6.26295 0
M  V30 3526 N 322.226 -1.5378 -0.344866 0
M  V30 3527 C 323.454 -1.74899 -1.10534 0
M  V30 3528 C 323.869 -0.487534 -1.82397 0
M  V30 3529 O 323.226 0.540741 -1.74305 0
M  V30 3530 C 323.277 -2.92822 -2.11984 0
M  V30 3531 O 322.998 -4.14089 -1.43044 0
M  V30 3532 C 324.499 -3.25982 -3.00417 0
M  V30 3533 H 321.719 -0.584426 -0.329678 0
M  V30 3534 H 324.263 -2.006 -0.397474 0
M  V30 3535 H 322.418 -2.69457 -2.78338 0
M  V30 3536 H 322.832 -4.80272 -2.10805 0
M  V30 3537 H 324.306 -4.11848 -3.67539 0
M  V30 3538 H 324.783 -2.42228 -3.66363 0
M  V30 3539 H 325.389 -3.51349 -2.39654 0
M  V30 3540 N 323.704 0.605807 -1.45491 0
M  V30 3541 C 324.651 1.7164 -1.54299 0
M  V30 3542 C 325.621 1.61486 -0.388761 0
M  V30 3543 O 326.806 1.81039 -0.602445 0
M  V30 3544 C 323.946 3.09953 -1.51734 0
M  V30 3545 C 323.059 3.309 -2.77721 0
M  V30 3546 C 322.194 4.59329 -2.66816 0
M  V30 3547 C 321.233 4.7354 -3.87848 0
M  V30 3548 N 320.37 5.9327 -3.75467 0
M  V30 3549 H 325.21 1.63449 -2.49176 0
M  V30 3550 H 322.747 0.796957 -1.23641 0
M  V30 3551 H 324.705 3.89977 -1.48235 0
M  V30 3552 H 323.335 3.17098 -0.604068 0
M  V30 3553 H 322.387 2.44639 -2.913 0
M  V30 3554 H 323.699 3.37274 -3.67488 0
M  V30 3555 H 322.853 5.4755 -2.61292 0
M  V30 3556 H 321.592 4.55355 -1.74651 0
M  V30 3557 H 320.597 3.83741 -3.93729 0
M  V30 3558 H 321.822 4.79309 -4.81082 0
M  V30 3559 H 319.768 5.90338 -2.86072 0
M  V30 3560 H 319.685 6.00811 -4.5887 0
M  V30 3561 H 320.953 6.83984 -3.73879 0
M  V30 3562 N 325.182 1.32811 0.848464 0
M  V30 3563 C 326.129 1.22265 1.95755 0
M  V30 3564 C 327.099 0.103413 1.65778 0
M  V30 3565 O 328.284 0.280033 1.88734 0
M  V30 3566 C 325.424 0.958014 3.31536 0
M  V30 3567 C 324.537 2.16262 3.73971 0
M  V30 3568 C 323.672 1.83295 4.98575 0
M  V30 3569 C 322.711 3.00041 5.33518 0
M  V30 3570 N 321.848 2.67125 6.49299 0
M  V30 3571 H 326.688 2.17128 2.04107 0
M  V30 3572 H 324.225 1.07982 0.998913 0
M  V30 3573 H 326.183 0.785052 4.09747 0
M  V30 3574 H 324.813 0.046159 3.22767 0
M  V30 3575 H 323.865 2.44565 2.91362 0
M  V30 3576 H 325.177 3.03572 3.95785 0
M  V30 3577 H 324.331 1.62586 5.84509 0
M  V30 3578 H 323.07 0.932078 4.7871 0
M  V30 3579 H 322.075 3.21374 4.46093 0
M  V30 3580 H 323.3 3.90869 5.55336 0
M  V30 3581 H 321.246 1.79586 6.3094 0
M  V30 3582 H 321.163 3.47965 6.71161 0
M  V30 3583 H 322.431 2.49861 7.3837 0
M  V30 3584 N 326.66 -1.06551 1.16123 0
M  V30 3585 C 327.906 -1.79567 0.94252 0
M  V30 3586 C 328.239 -1.86869 -0.528547 0
M  V30 3587 O 327.514 -1.35838 -1.39206 0
M  V30 3588 C 327.797 -3.24195 1.56747 0
M  V30 3589 C 327.65 -3.24989 3.10969 0
M  V30 3590 C 328.969 -4.21678 1.25998 0
M  V30 3591 H 326.088 -0.651883 0.343828 0
M  V30 3592 H 328.73 -1.2463 1.43413 0
M  V30 3593 H 326.88 -3.71107 1.14942 0
M  V30 3594 H 328.552 -2.86258 3.61737 0
M  V30 3595 H 326.795 -2.63716 3.44436 0
M  V30 3596 H 327.466 -4.27005 3.49815 0
M  V30 3597 H 329.942 -3.83196 1.62174 0
M  V30 3598 H 328.818 -5.21146 1.7233 0
M  V30 3599 H 329.079 -4.4174 0.178367 0
M  V30 3600 N 328.138 -0.959301 -1.25041 0
M  V30 3601 C 329.384 -0.617525 -1.9317 0
M  V30 3602 C 329.717 0.843981 -1.74902 0
M  V30 3603 O 328.992 1.60615 -1.09696 0
M  V30 3604 C 329.275 -0.982736 -3.46431 0
M  V30 3605 C 329.128 -2.50032 -3.73904 0
M  V30 3606 C 330.447 -0.511176 -4.37121 0
M  V30 3607 H 327.566 -0.22582 -0.701552 0
M  V30 3608 H 330.208 -1.19679 -1.4757 0
M  V30 3609 H 328.358 -0.489806 -3.854 0
M  V30 3610 H 330.03 -3.06737 -3.44544 0
M  V30 3611 H 328.273 -2.93598 -3.19348 0
M  V30 3612 H 328.944 -2.70635 -4.81103 0
M  V30 3613 H 331.42 -0.934075 -4.0548 0
M  V30 3614 H 330.296 -0.795361 -5.43107 0
M  V30 3615 H 330.557 0.588834 -4.38161 0
M  V30 3616 N 329.616 1.39756 -0.72842 0
M  V30 3617 C 330.863 2.00645 -0.273487 0
M  V30 3618 C 331.191 1.57786 1.13727 0
M  V30 3619 O 330.446 0.794886 1.7883 0
M  V30 3620 C 330.745 3.56002 -0.315776 0
M  V30 3621 C 330.411 4.18489 -1.67863 0
M  V30 3622 C 329.073 4.3527 -2.05166 0
M  V30 3623 C 331.425 4.53219 -2.57375 0
M  V30 3624 C 328.753 4.84069 -3.31503 0
M  V30 3625 C 331.105 5.03423 -3.83077 0
M  V30 3626 C 329.769 5.18413 -4.20481 0
M  V30 3627 H 329.039 0.734211 -0.100076 0
M  V30 3628 H 331.686 1.6718 -0.933972 0
M  V30 3629 H 329.991 3.89452 0.428285 0
M  V30 3630 H 331.688 4.00963 0.0542575 0
M  V30 3631 H 328.278 4.05824 -1.37858 0
M  V30 3632 H 332.462 4.39878 -2.29827 0
M  V30 3633 H 327.718 4.93859 -3.60435 0
M  V30 3634 H 331.892 5.2927 -4.52599 0
M  V30 3635 H 329.519 5.55987 -5.18443 0
M  V30 3636 N 331.094 0.475555 1.50254 0
M  V30 3637 C 332.319 -0.0777042 2.07254 0
M  V30 3638 C 332.744 -1.3235 1.3366 0
M  V30 3639 O 332.102 -1.77152 0.385597 0
M  V30 3640 C 332.15 -0.340169 3.58992 0
M  V30 3641 O 331.254 -1.41982 3.87188 0
M  V30 3642 H 330.595 0.0149556 0.663832 0
M  V30 3643 H 333.125 0.667878 1.93392 0
M  V30 3644 H 333.135 -0.579332 4.03866 0
M  V30 3645 H 331.81 0.570167 4.11973 0
M  V30 3646 H 330.387 -1.16762 3.54148 0
M  V30 3647 N 332.573 -1.56217 0.208337 0
M  V30 3648 C 333.801 -2.02337 -0.43215 0
M  V30 3649 C 334.216 -1.08834 -1.54275 0
M  V30 3650 O 333.573 -0.0955462 -1.8225 0
M  V30 3651 C 333.624 -3.48072 -0.976138 0
M  V30 3652 O 333.345 -4.38007 0.0901621 0
M  V30 3653 C 334.846 -4.09773 -1.69119 0
M  V30 3654 H 332.066 -0.662385 -0.10718 0
M  V30 3655 H 334.61 -2.01966 0.320923 0
M  V30 3656 H 332.765 -3.49099 -1.67954 0
M  V30 3657 H 333.179 -5.23543 -0.316701 0
M  V30 3658 H 334.653 -5.13556 -2.02397 0
M  V30 3659 H 335.13 -3.53999 -2.59964 0
M  V30 3660 H 335.736 -4.12556 -1.03332 0
M  V30 3661 N 334.051 0.0651679 -1.57465 0
M  V30 3662 C 335.299 0.761555 -1.87202 0
M  V30 3663 C 335.62 1.77778 -0.801243 0
M  V30 3664 O 334.89 1.95166 0.16937 0
M  V30 3665 H 333.47 0.284251 -0.690804 0
M  V30 3666 H 336.132 0.0396827 -1.9486 0
M  V30 3667 H 335.228 1.27365 -2.84929 0
M  V30 3668 N 335.529 1.53961 0.336706 0
M  V30 3669 C 336.754 1.75797 1.10046 0
M  V30 3670 C 337.179 0.498985 1.81361 0
M  V30 3671 O 336.537 -0.548769 1.72795 0
M  V30 3672 C 336.585 2.94257 2.08436 0
M  V30 3673 O 335.689 2.64883 3.16087 0
M  V30 3674 H 335.03 0.582936 0.317934 0
M  V30 3675 H 337.56 2.00945 0.38501 0
M  V30 3676 H 337.57 3.21237 2.51537 0
M  V30 3677 H 336.245 3.85564 1.55927 0
M  V30 3678 H 334.822 2.48812 2.77753 0
M  V30 3679 N 337.007 -0.598083 1.45811 0
M  V30 3680 C 338.237 -1.38121 1.53643 0
M  V30 3681 C 338.645 -1.88425 0.171081 0
M  V30 3682 O 337.988 -1.63409 -0.839237 0
M  V30 3683 C 338.05 -2.61432 2.46766 0
M  V30 3684 C 337.714 -2.32702 3.93318 0
M  V30 3685 C 338.711 -1.92479 4.82957 0
M  V30 3686 C 336.396 -2.45321 4.38318 0
M  V30 3687 C 338.39 -1.65248 6.15607 0
M  V30 3688 C 336.077 -2.17703 5.71007 0
M  V30 3689 C 337.075 -1.7773 6.5947 0
M  V30 3690 O 336.763 -1.50441 7.89698 0
M  V30 3691 H 336.495 -0.428863 0.522544 0
M  V30 3692 H 339.049 -0.73557 1.91777 0
M  V30 3693 H 337.279 -3.28749 2.0362 0
M  V30 3694 H 338.968 -3.23487 2.45175 0
M  V30 3695 H 339.734 -1.82258 4.49452 0
M  V30 3696 H 335.613 -2.75399 3.69697 0
M  V30 3697 H 339.157 -1.33973 6.84614 0
M  V30 3698 H 335.054 -2.27544 6.04065 0
M  V30 3699 H 335.822 -1.64415 8.01817 0
M  V30 3700 N 338.485 -1.33259 -0.841409 0
M  V30 3701 C 339.896 -1.22066 -1.41269 0
M  V30 3702 C 340.247 0.161479 -1.95534 0
M  V30 3703 O 339.372 1.06094 -1.88608 0
M  V30 3704 C 339.967 -2.20996 -2.568 0
M  V30 3705 C 338.526 -2.13649 -3.09888 0
M  V30 3706 C 337.673 -2.08623 -1.82679 0
M  V30 3707 H 340.624 -1.44895 -0.647395 0
M  V30 3708 H 340.645 -1.81621 -3.34356 0
M  V30 3709 H 340.157 -3.2158 -2.17274 0
M  V30 3710 H 338.258 -1.16359 -3.53965 0
M  V30 3711 H 338.371 -3.04079 -3.70234 0
M  V30 3712 H 336.735 -1.54061 -2.02824 0
M  V30 3713 H 337.518 -3.1101 -1.45353 0
M  V30 3714 N 339.963 1.05934 -1.16686 0
M  V30 3715 C 341.379 1.30938 -0.912542 0
M  V30 3716 C 341.579 1.96803 0.432533 0
M  V30 3717 O 340.635 2.23693 1.17123 0
M  V30 3718 C 341.948 2.18649 -2.06429 0
M  V30 3719 C 343.496 2.32055 -2.10047 0
M  V30 3720 C 343.971 3.23122 -3.24586 0
M  V30 3721 N 345.462 3.30706 -3.24327 0
M  V30 3722 C 346.197 4.01273 -4.09594 0
M  V30 3723 N 345.693 4.74332 -5.04956 0
M  V30 3724 N 347.486 3.97361 -3.97569 0
M  V30 3725 H 339.637 0.615777 -2.03278 0
M  V30 3726 H 341.9 0.334077 -0.887185 0
M  V30 3727 H 341.606 1.77534 -3.03603 0
M  V30 3728 H 341.48 3.19252 -2.00894 0
M  V30 3729 H 343.867 2.72415 -1.13464 0
M  V30 3730 H 343.948 1.31107 -2.19647 0
M  V30 3731 H 343.592 2.83477 -4.2143 0
M  V30 3732 H 343.522 4.24057 -3.12223 0
M  V30 3733 H 346.013 2.78644 -2.55276 0
M  V30 3734 H 346.326 5.25716 -5.6643 0
M  V30 3735 H 344.671 4.733 -5.08933 0
M  V30 3736 H 347.862 3.39405 -3.22369 0
M  V30 3737 H 348.035 4.52089 -4.64241 0
M  V30 3738 N 341.441 0.965919 1.2453 0
M  V30 3739 C 342.371 0.513476 2.27784 0
M  V30 3740 C 343.352 -0.445974 1.6415 0
M  V30 3741 O 344.537 -0.342485 1.91156 0
M  V30 3742 C 341.667 -0.198839 3.4673 0
M  V30 3743 C 340.621 0.676456 4.2262 0
M  V30 3744 C 339.947 -0.167248 5.34438 0
M  V30 3745 C 341.247 1.96017 4.84123 0
M  V30 3746 H 342.941 1.3765 2.65881 0
M  V30 3747 H 340.487 0.663321 1.27813 0
M  V30 3748 H 342.44 -0.526567 4.18097 0
M  V30 3749 H 341.164 -1.0962 3.07654 0
M  V30 3750 H 339.823 0.98743 3.53052 0
M  V30 3751 H 339.471 -1.0647 4.91603 0
M  V30 3752 H 339.171 0.415181 5.86131 0
M  V30 3753 H 340.695 -0.489688 6.08633 0
M  V30 3754 H 342.109 1.69814 5.47573 0
M  V30 3755 H 340.506 2.48918 5.4604 0
M  V30 3756 H 341.576 2.65622 4.05676 0
M  V30 3757 N 342.919 -1.39368 0.735821 0
M  V30 3758 C 344.144 -2.05319 0.293052 0
M  V30 3759 C 344.569 -1.55115 -1.064 0
M  V30 3760 O 343.927 -0.695261 -1.67439 0
M  V30 3761 C 343.975 -3.59305 0.305323 0
M  V30 3762 O 343.079 -4.06299 -0.706761 0
M  V30 3763 H 342.42 -0.650529 0.13307 0
M  V30 3764 H 344.95 -1.78386 1.00197 0
M  V30 3765 H 344.96 -4.07724 0.149997 0
M  V30 3766 H 343.635 -3.95207 1.29553 0
M  V30 3767 H 342.212 -3.69292 -0.517504 0
M  V30 3768 N 344.397 -0.483516 -1.5 0
M  V30 3769 C 345.327 0.293829 -2.31644 0
M  V30 3770 C 346.308 0.978864 -1.39112 0
M  V30 3771 O 347.493 0.973644 -1.68029 0
M  V30 3772 C 344.623 1.36897 -3.19181 0
M  V30 3773 C 343.577 0.804833 -4.20365 0
M  V30 3774 C 342.903 1.9792 -4.96721 0
M  V30 3775 C 344.203 -0.192313 -5.21946 0
M  V30 3776 H 345.897 -0.387616 -2.9688 0
M  V30 3777 H 343.443 -0.187856 -1.42769 0
M  V30 3778 H 345.396 1.92037 -3.751 0
M  V30 3779 H 344.12 2.07936 -2.51853 0
M  V30 3780 H 342.779 0.275319 -3.65565 0
M  V30 3781 H 342.427 2.67686 -4.25856 0
M  V30 3782 H 342.127 1.60789 -5.65173 0
M  V30 3783 H 343.651 2.53526 -5.55479 0
M  V30 3784 H 345.065 0.270333 -5.72662 0
M  V30 3785 H 343.462 -0.478543 -5.98189 0
M  V30 3786 H 344.532 -1.11409 -4.71928 0
M  V30 3787 N 345.875 1.56104 -0.216619 0
M  V30 3788 C 347.1 2.0301 0.424462 0
M  V30 3789 C 347.525 1.0955 1.52907 0
M  V30 3790 O 346.883 0.0827914 1.81111 0
M  V30 3791 C 346.931 3.4819 0.937883 0
M  V30 3792 O 346.035 3.57865 2.04955 0
M  V30 3793 H 345.376 0.656925 0.0966755 0
M  V30 3794 H 347.906 2.01859 -0.33381 0
M  V30 3795 H 347.916 3.88413 1.24897 0
M  V30 3796 H 346.591 4.15699 0.129387 0
M  V30 3797 H 345.168 3.29527 1.74546 0
M  V30 3798 N 347.353 -0.0568162 1.57498 0
M  V30 3799 C 348.6 -0.753104 1.87975 0
M  V30 3800 C 348.928 -1.76815 0.81035 0
M  V30 3801 O 348.183 -1.94756 -0.19199 0
M  V30 3802 C 348.482 -1.48359 3.25153 0
M  V30 3803 C 348.148 -0.60713 4.46794 0
M  V30 3804 C 346.81 -0.365642 4.79809 0
M  V30 3805 C 349.162 -0.000305978 5.212 0
M  V30 3806 C 346.49 0.491905 5.84634 0
M  V30 3807 C 348.842 0.844781 6.26934 0
M  V30 3808 C 347.506 1.096 6.58441 0
M  V30 3809 H 346.776 -0.27558 0.687849 0
M  V30 3810 H 349.423 -0.0135173 1.91495 0
M  V30 3811 H 347.728 -2.29577 3.17492 0
M  V30 3812 H 349.425 -2.02739 3.45974 0
M  V30 3813 H 346.015 -0.805487 4.20963 0
M  V30 3814 H 350.199 -0.173961 4.95995 0
M  V30 3815 H 345.455 0.695131 6.07436 0
M  V30 3816 H 349.629 1.32165 6.83744 0
M  V30 3817 H 347.256 1.76224 7.39492 0
M  V30 3818 N 348.832 -1.54138 -0.328536 0
M  V30 3819 C 349.779 -1.83176 -1.40411 0
M  V30 3820 C 350.749 -0.678494 -1.5161 0
M  V30 3821 O 351.934 -0.92443 -1.6691 0
M  V30 3822 C 349.074 -2.06035 -2.76846 0
M  V30 3823 C 348.187 -3.33727 -2.74318 0
M  V30 3824 C 347.322 -3.46574 -4.02567 0
M  V30 3825 C 346.361 -4.68159 -3.94327 0
M  V30 3826 N 345.498 -4.77959 -5.14296 0
M  V30 3827 H 350.338 -2.74938 -1.14948 0
M  V30 3828 H 347.875 -1.36166 -0.556538 0
M  V30 3829 H 349.833 -2.1728 -3.56153 0
M  V30 3830 H 348.463 -1.1757 -3.00628 0
M  V30 3831 H 347.515 -3.31246 -1.8703 0
M  V30 3832 H 348.827 -4.23139 -2.64111 0
M  V30 3833 H 347.981 -3.57333 -4.90304 0
M  V30 3834 H 346.72 -2.55245 -4.15574 0
M  V30 3835 H 345.725 -4.57461 -3.04974 0
M  V30 3836 H 346.95 -5.60868 -3.82889 0
M  V30 3837 H 344.896 -3.89544 -5.27818 0
M  V30 3838 H 344.813 -5.6133 -5.06404 0
M  V30 3839 H 346.081 -4.93044 -6.03761 0
M  V30 3840 N 350.31 0.590341 -1.46126 0
M  V30 3841 C 351.24 1.71032 -1.58966 0
M  V30 3842 C 352.221 1.64302 -0.440335 0
M  V30 3843 O 353.406 1.82436 -0.665634 0
M  V30 3844 C 350.536 3.09665 -1.57241 0
M  V30 3845 C 349.49 3.31221 -2.71066 0
M  V30 3846 C 348.816 4.70303 -2.54399 0
M  V30 3847 C 350.116 3.19796 -4.1295 0
M  V30 3848 H 351.81 1.60543 -2.52718 0
M  V30 3849 H 349.356 0.770933 -1.21625 0
M  V30 3850 H 351.309 3.87831 -1.64819 0
M  V30 3851 H 350.033 3.21036 -0.600289 0
M  V30 3852 H 348.692 2.55452 -2.62944 0
M  V30 3853 H 348.34 4.78429 -1.55288 0
M  V30 3854 H 348.04 4.85679 -3.30741 0
M  V30 3855 H 349.564 5.50647 -2.63857 0
M  V30 3856 H 350.978 3.87815 -4.22223 0
M  V30 3857 H 349.375 3.46696 -4.89818 0
M  V30 3858 H 350.445 2.16983 -4.33643 0
M  V30 3859 N 351.788 1.33704 0.83433 0
M  V30 3860 C 352.735 1.24335 1.94447 0
M  V30 3861 C 353.705 0.120991 1.65659 0
M  V30 3862 O 354.89 0.300035 1.88426 0
M  V30 3863 C 352.03 0.993124 3.30501 0
M  V30 3864 C 351.143 2.20217 3.71657 0
M  V30 3865 C 350.278 1.88572 4.96602 0
M  V30 3866 C 349.317 3.05683 5.30306 0
M  V30 3867 N 348.454 2.73997 6.46429 0
M  V30 3868 H 353.294 2.1928 2.01792 0
M  V30 3869 H 350.831 1.09035 0.987404 0
M  V30 3870 H 352.789 0.828467 4.08892 0
M  V30 3871 H 351.419 0.0803902 3.227 0
M  V30 3872 H 350.471 2.47642 2.88752 0
M  V30 3873 H 351.783 3.07752 3.92543 0
M  V30 3874 H 350.937 1.68776 5.82752 0
M  V30 3875 H 349.676 0.982799 4.77695 0
M  V30 3876 H 348.681 3.26088 4.42659 0
M  V30 3877 H 349.906 3.96737 5.51159 0
M  V30 3878 H 347.852 1.86268 6.28999 0
M  V30 3879 H 347.769 3.55064 6.67432 0
M  V30 3880 H 349.037 2.57679 7.35678 0
M  V30 3881 N 353.266 -1.05314 1.17247 0
M  V30 3882 C 354.682 -1.30452 0.919473 0
M  V30 3883 C 354.882 -1.9703 -0.42209 0
M  V30 3884 O 353.938 -2.24311 -1.15935 0
M  V30 3885 C 355.251 -2.17551 2.07586 0
M  V30 3886 C 356.799 -2.30937 2.11275 0
M  V30 3887 C 357.274 -3.21396 3.26296 0
M  V30 3888 N 358.765 -3.28981 3.26076 0
M  V30 3889 C 359.5 -3.99095 4.11716 0
M  V30 3890 N 358.996 -4.71648 5.07465 0
M  V30 3891 N 360.789 -3.95247 3.9967 0
M  V30 3892 H 352.94 -0.604988 2.03602 0
M  V30 3893 H 355.203 -0.329368 0.888944 0
M  V30 3894 H 354.909 -1.75921 3.0454 0
M  V30 3895 H 354.783 -3.18182 2.02584 0
M  V30 3896 H 357.17 -2.71809 1.14907 0
M  V30 3897 H 357.251 -1.2994 2.20339 0
M  V30 3898 H 356.895 -2.81238 4.22927 0
M  V30 3899 H 356.825 -4.22395 3.14467 0
M  V30 3900 H 359.316 -2.77286 2.5675 0
M  V30 3901 H 359.629 -5.22705 5.6921 0
M  V30 3902 H 357.974 -4.70594 5.11435 0
M  V30 3903 H 361.165 -3.37691 3.24164 0
M  V30 3904 H 361.338 -4.4962 4.66632 0
M  V30 3905 N 354.744 -0.972509 -1.24016 0
M  V30 3906 C 355.692 -0.498562 -2.27194 0
M  V30 3907 C 356.686 0.440372 -1.63576 0
M  V30 3908 O 357.892 0.315133 -1.7722 0
M  V30 3909 H 354.267 -0.142775 -0.738322 0
M  V30 3910 H 356.238 -1.38065 -2.64539 0
M  V30 3911 C 354.987 0.191072 -3.47175 0
M  V30 3912 H 354.31 -0.522318 -3.96373 0
M  V30 3913 H 355.75 0.486445 -4.212 0
M  V30 3914 C 354.209 1.41967 -3.05527 0
M  V30 3915 O 354.739 2.51642 -3.13112 0
M  V30 3916 N 352.945 1.28746 -2.60524 0
M  V30 3917 H 352.492 0.395089 -2.54552 0
M  V30 3918 H 352.45 2.11061 -2.33025 0
M  V30 3919 N 356.222 1.38976 -0.743202 0
M  V30 3920 C 357.471 1.99581 -0.291592 0
M  V30 3921 C 357.784 1.59656 1.13001 0
M  V30 3922 O 358.99 2.13157 1.68156 0
M  V30 3923 C 357.446 3.56813 -0.470391 0
M  V30 3924 C 357.054 4.05695 -1.90041 0
M  V30 3925 C 358.798 4.24423 -0.0809709 0
M  V30 3926 C 356.705 5.5553 -2.02832 0
M  V30 3927 H 355.635 0.746615 -0.105272 0
M  V30 3928 H 358.286 1.58872 -0.918258 0
M  V30 3929 H 356.668 3.95359 0.225299 0
M  V30 3930 H 357.842 3.78464 -2.62872 0
M  V30 3931 H 356.157 3.50775 -2.24379 0
M  V30 3932 H 358.754 5.34474 -0.155445 0
M  V30 3933 H 359.097 4.04962 0.96497 0
M  V30 3934 H 359.63 3.9108 -0.728124 0
M  V30 3935 H 356.369 5.79881 -3.05643 0
M  V30 3936 H 355.889 5.84537 -1.34448 0
M  V30 3937 H 357.568 6.21069 -1.81335 0
M  V30 3938 N 357.7 0.491464 1.49741 0
M  V30 3939 C 358.948 -0.0563141 2.02022 0
M  V30 3940 C 359.269 -1.38363 1.37407 0
M  V30 3941 O 358.539 -1.88702 0.526166 0
M  V30 3942 H 357.119 -0.0238014 0.746621 0
M  V30 3943 H 359.781 0.646533 1.83864 0
M  V30 3944 H 358.877 -0.192967 3.11503 0
M  V30 3945 N 359.178 -1.55987 0.224894 0
M  V30 3946 C 360.408 -2.02489 -0.41007 0
M  V30 3947 C 360.816 -1.10391 -1.53657 0
M  V30 3948 O 360.159 -0.106458 -1.83391 0
M  V30 3949 C 360.221 -3.45319 -0.999757 0
M  V30 3950 C 359.885 -4.56999 -0.00827976 0
M  V30 3951 C 360.882 -5.13812 0.793314 0
M  V30 3952 C 358.567 -5.02176 0.111442 0
M  V30 3953 C 360.561 -6.14276 1.7013 0
M  V30 3954 C 358.248 -6.02477 1.02296 0
M  V30 3955 C 359.246 -6.58403 1.81643 0
M  V30 3956 O 358.934 -7.56751 2.71262 0
M  V30 3957 H 358.666 -0.667915 -0.104235 0
M  V30 3958 H 361.22 -2.0257 0.339782 0
M  V30 3959 H 359.45 -3.42318 -1.79876 0
M  V30 3960 H 361.139 -3.7545 -1.54248 0
M  V30 3961 H 361.905 -4.79756 0.711288 0
M  V30 3962 H 357.784 -4.58323 -0.49605 0
M  V30 3963 H 361.328 -6.57854 2.32107 0
M  V30 3964 H 357.225 -6.35954 1.10599 0
M  V30 3965 H 357.993 -7.74286 2.65375 0
M  V30 3966 N 360.656 0.0484629 -1.57525 0
M  V30 3967 C 361.903 0.743125 -1.88372 0
M  V30 3968 C 362.231 1.76383 -0.819715 0
M  V30 3969 O 361.486 1.94855 0.181659 0
M  V30 3970 C 361.785 1.46632 -3.25935 0
M  V30 3971 C 361.451 0.583427 -4.4711 0
M  V30 3972 C 360.113 0.340191 -4.79996 0
M  V30 3973 C 362.465 -0.0273345 -5.21193 0
M  V30 3974 C 359.793 -0.522903 -5.84365 0
M  V30 3975 C 362.145 -0.878017 -6.26477 0
M  V30 3976 C 360.809 -1.1309 -6.5785 0
M  V30 3977 H 360.079 0.271929 -0.689301 0
M  V30 3978 H 362.726 0.00336166 -1.915 0
M  V30 3979 H 361.031 2.2789 -3.18706 0
M  V30 3980 H 362.728 2.00902 -3.47044 0
M  V30 3981 H 359.318 0.783151 -4.21384 0
M  V30 3982 H 363.502 0.147654 -4.9608 0
M  V30 3983 H 358.758 -0.727335 -6.07058 0
M  V30 3984 H 362.932 -1.35789 -6.83033 0
M  V30 3985 H 360.559 -1.80144 -7.38547 0
M  V30 3986 N 362.134 1.5431 0.320358 0
M  V30 3987 C 363.383 1.7188 1.05546 0
M  V30 3988 C 363.696 0.501143 1.89071 0
M  V30 3989 O 364.902 0.558258 2.65699 0
M  V30 3990 C 363.358 3.04025 1.92605 0
M  V30 3991 C 362.966 4.33207 1.14176 0
M  V30 3992 C 364.71 3.30959 2.65832 0
M  V30 3993 C 362.617 5.56412 2.00399 0
M  V30 3994 H 361.547 0.640547 0.397763 0
M  V30 3995 H 364.198 1.80802 0.313522 0
M  V30 3996 H 362.58 2.89019 2.7071 0
M  V30 3997 H 363.754 4.58989 0.40819 0
M  V30 3998 H 362.069 4.13062 0.526165 0
M  V30 3999 H 364.666 4.20203 3.30656 0
M  V30 4000 H 365.009 2.48979 3.33639 0
M  V30 4001 H 365.542 3.46847 1.94787 0
M  V30 4002 H 362.281 6.41004 1.37094 0
M  V30 4003 H 361.801 5.34844 2.7148 0
M  V30 4004 H 363.48 5.92938 2.58908 0
M  V30 4005 N 363.613 -0.582584 1.46437 0
M  V30 4006 C 364.543 -1.70187 1.59871 0
M  V30 4007 C 365.524 -1.64066 0.449042 0
M  V30 4008 O 366.709 -1.82081 0.6753 0
M  V30 4009 C 363.839 -3.08827 1.58881 0
M  V30 4010 C 362.793 -3.29779 2.72819 0
M  V30 4011 C 362.119 -4.68947 2.5689 0
M  V30 4012 C 363.419 -3.17601 4.1464 0
M  V30 4013 H 365.113 -1.592 2.53566 0
M  V30 4014 H 362.659 -0.764472 1.22032 0
M  V30 4015 H 364.612 -3.86951 1.66873 0
M  V30 4016 H 363.336 -3.20713 0.617306 0
M  V30 4017 H 361.995 -2.54054 2.64296 0
M  V30 4018 H 361.643 -4.77599 1.57823 0
M  V30 4019 H 361.343 -4.83919 3.33312 0
M  V30 4020 H 362.867 -5.4924 2.66773 0
M  V30 4021 H 364.281 -3.8557 4.24274 0
M  V30 4022 H 362.678 -3.44094 4.9165 0
M  V30 4023 H 363.748 -2.14681 4.34788 0
M  V30 4024 N 365.091 -1.34144 -0.827227 0
M  V30 4025 C 366.023 -1.21206 -1.9453 0
M  V30 4026 C 367.036 -0.140176 -1.62195 0
M  V30 4027 O 368.225 -0.391647 -1.7415 0
M  V30 4028 C 365.325 -0.839141 -3.28347 0
M  V30 4029 C 364.498 -2.0051 -3.88734 0
M  V30 4030 C 363.557 -1.61128 -5.00923 0
M  V30 4031 O 362.583 -2.32726 -5.19449 0
M  V30 4032 N 363.785 -0.522958 -5.7814 0
M  V30 4033 H 366.55 -2.17525 -2.06162 0
M  V30 4034 H 364.111 -1.27043 -1.00358 0
M  V30 4035 H 366.103 -0.557556 -4.00841 0
M  V30 4036 H 364.673 0.0337293 -3.12582 0
M  V30 4037 H 363.893 -2.45166 -3.08686 0
M  V30 4038 H 365.181 -2.78498 -4.25812 0
M  V30 4039 H 364.579 0.0723518 -5.65654 0
M  V30 4040 H 363.136 -0.301089 -6.51104 0
M  V30 4041 N 366.569 1.04691 -1.17803 0
M  V30 4042 C 367.797 1.81446 -0.99423 0
M  V30 4043 C 368.212 1.83174 0.457459 0
M  V30 4044 O 367.569 1.26265 1.31771 0
M  V30 4045 C 367.62 3.27334 -1.5341 0
M  V30 4046 O 367.341 3.25798 -2.92895 0
M  V30 4047 C 368.842 4.20759 -1.39559 0
M  V30 4048 H 366.062 0.571599 -0.351447 0
M  V30 4049 H 368.606 1.31982 -1.56208 0
M  V30 4050 H 366.761 3.74052 -1.00815 0
M  V30 4051 H 367.175 4.17144 -3.17949 0
M  V30 4052 H 368.649 5.21084 -1.82141 0
M  V30 4053 H 369.126 4.37856 -0.343394 0
M  V30 4054 H 369.732 3.79901 -1.91195 0
M  V30 4055 N 368.047 0.979072 1.23499 0
M  V30 4056 C 369.277 0.664237 1.95631 0
M  V30 4057 C 369.685 -0.772653 1.72704 0
M  V30 4058 O 369.028 -1.53141 1.01457 0
M  V30 4059 C 369.09 0.873115 3.48736 0
M  V30 4060 C 368.754 2.29182 3.95379 0
M  V30 4061 C 369.751 3.2704 4.04155 0
M  V30 4062 C 367.436 2.62256 4.28401 0
M  V30 4063 C 369.43 4.56052 4.45304 0
M  V30 4064 C 367.117 3.91491 4.69231 0
M  V30 4065 C 368.115 4.88201 4.77649 0
M  V30 4066 O 367.803 6.15129 5.17563 0
M  V30 4067 H 367.535 0.245915 0.629684 0
M  V30 4068 H 370.089 1.3127 1.57979 0
M  V30 4069 H 368.319 0.167476 3.86337 0
M  V30 4070 H 370.008 0.555642 4.02079 0
M  V30 4071 H 370.774 3.02819 3.78848 0
M  V30 4072 H 366.653 1.87692 4.21061 0
M  V30 4073 H 370.197 5.31538 4.51789 0
M  V30 4074 H 366.094 4.15508 4.93987 0
M  V30 4075 H 366.862 6.18862 5.35679 0
M  V30 4076 N 369.525 -1.3858 0.750561 0
M  V30 4077 C 370.458 -2.28095 0.0693139 0
M  V30 4078 C 371.436 -1.45217 -0.731491 0
M  V30 4079 O 372.62 -1.74587 -0.71076 0
M  V30 4080 C 369.747 -3.26282 -0.90871 0
M  V30 4081 C 368.793 -4.26056 -0.194507 0
M  V30 4082 S 369.626 -5.24026 1.10257 0
M  V30 4083 C 370.782 -6.2577 0.127542 0
M  V30 4084 H 371.015 -2.85526 0.8284 0
M  V30 4085 H 368.548 -1.44536 0.543014 0
M  V30 4086 H 370.506 -3.83367 -1.46766 0
M  V30 4087 H 369.167 -2.6784 -1.64075 0
M  V30 4088 H 368.36 -4.95249 -0.93512 0
M  V30 4089 H 367.962 -3.72852 0.292837 0
M  V30 4090 H 370.254 -6.73796 -0.707516 0
M  V30 4091 H 371.197 -7.03712 0.787044 0
M  V30 4092 H 371.605 -5.63938 -0.251803 0
M  V30 4093 N 371.003 -0.499398 -1.49478 0
M  V30 4094 C 372.414 -0.051215 -1.8663 0
M  V30 4095 C 372.765 1.36238 -1.41186 0
M  V30 4096 O 371.89 2.01502 -0.789051 0
M  V30 4097 C 372.485 -0.0861651 -3.3869 0
M  V30 4098 C 371.044 0.30667 -3.75149 0
M  V30 4099 C 370.191 -0.459397 -2.73468 0
M  V30 4100 H 373.142 -0.712264 -1.41818 0
M  V30 4101 H 373.163 0.709507 -3.73826 0
M  V30 4102 H 372.675 -1.11512 -3.71735 0
M  V30 4103 H 370.776 1.33892 -3.47712 0
M  V30 4104 H 370.889 -0.0116669 -4.79099 0
M  V30 4105 H 369.253 0.0905645 -2.54539 0
M  V30 4106 H 370.036 -1.4884 -3.09357 0
M  V30 4107 N 372.481 1.55866 -0.233164 0
M  V30 4108 C 373.706 2.03449 0.402906 0
M  V30 4109 C 374.131 1.11166 1.51736 0
M  V30 4110 O 373.489 0.101996 1.81013 0
M  V30 4111 C 373.537 3.49165 0.9009 0
M  V30 4112 O 372.641 3.60019 2.01147 0
M  V30 4113 H 371.982 0.657913 0.0897025 0
M  V30 4114 H 374.512 2.01493 -0.355201 0
M  V30 4115 H 374.522 3.89716 1.2077 0
M  V30 4116 H 373.197 4.15813 0.0852889 0
M  V30 4117 H 371.774 3.3136 1.71042 0
M  V30 4118 N 373.959 -0.0401083 1.57549 0
M  V30 4119 C 375.208 -0.732108 1.87944 0
M  V30 4120 C 375.521 -1.77107 0.830206 0
M  V30 4121 O 376.727 -2.51488 1.02302 0
M  V30 4122 C 375.183 -1.35315 3.33494 0
M  V30 4123 C 374.791 -0.351105 4.46622 0
M  V30 4124 C 376.535 -2.02566 3.73051 0
M  V30 4125 C 374.442 -0.979859 5.83226 0
M  V30 4126 H 373.372 -0.277188 0.701201 0
M  V30 4127 H 376.023 0.0138501 1.83495 0
M  V30 4128 H 374.405 -2.14844 3.32653 0
M  V30 4129 H 375.579 0.416674 4.58912 0
M  V30 4130 H 373.894 0.218708 4.15825 0
M  V30 4131 H 376.491 -2.50441 4.72423 0
M  V30 4132 H 376.834 -2.83904 3.04474 0
M  V30 4133 H 377.367 -1.29827 3.76018 0
M  V30 4134 H 374.106 -0.206135 6.55176 0
M  V30 4135 H 373.626 -1.71774 5.74677 0
M  V30 4136 H 375.305 -1.49046 6.29599 0
M  V30 4137 N 375.437 -1.54477 -0.31217 0
M  V30 4138 C 376.367 -1.87652 -1.38957 0
M  V30 4139 C 377.348 -0.734358 -1.53431 0
M  V30 4140 O 378.533 -0.98911 -1.67123 0
M  V30 4141 C 375.663 -2.11396 -2.75552 0
M  V30 4142 C 374.617 -3.27243 -2.75855 0
M  V30 4143 C 373.943 -3.36382 -4.15633 0
M  V30 4144 C 375.243 -4.64622 -2.38587 0
M  V30 4145 H 376.937 -2.77887 -1.11442 0
M  V30 4146 H 374.483 -1.33707 -0.534655 0
M  V30 4147 H 376.436 -2.33189 -3.51 0
M  V30 4148 H 375.16 -1.17921 -3.04569 0
M  V30 4149 H 373.819 -3.05356 -2.02863 0
M  V30 4150 H 373.467 -2.40445 -4.41809 0
M  V30 4151 H 373.167 -4.14249 -4.1674 0
M  V30 4152 H 374.691 -3.60422 -4.92877 0
M  V30 4153 H 376.105 -4.86219 -3.03749 0
M  V30 4154 H 374.502 -5.45121 -2.50925 0
M  V30 4155 H 375.572 -4.66097 -1.33723 0
M  V30 4156 N 376.915 0.57481 -1.46744 0
M  V30 4157 C 378.164 1.32898 -1.51727 0
M  V30 4158 C 378.477 1.948 -0.176692 0
M  V30 4159 O 379.683 2.71299 -0.104385 0
M  V30 4160 C 378.139 2.40901 -2.67385 0
M  V30 4161 C 377.747 1.85266 -4.07898 0
M  V30 4162 C 379.491 3.17609 -2.81646 0
M  V30 4163 C 377.398 2.90945 -5.14883 0
M  V30 4164 H 376.328 0.499631 -0.564699 0
M  V30 4165 H 378.979 0.612536 -1.72975 0
M  V30 4166 H 377.361 3.15379 -2.39483 0
M  V30 4167 H 378.535 1.17278 -4.45626 0
M  V30 4168 H 376.85 1.21199 -3.98371 0
M  V30 4169 H 379.447 3.96493 -3.58744 0
M  V30 4170 H 379.79 3.70696 -1.89448 0
M  V30 4171 H 380.323 2.50239 -3.09233 0
M  V30 4172 H 377.062 2.42736 -6.089 0
M  V30 4173 H 376.582 3.57398 -4.81691 0
M  V30 4174 H 378.261 3.54755 -5.41071 0
M  V30 4175 N 378.394 1.34581 0.820102 0
M  V30 4176 C 379.622 1.3018 1.60813 0
M  V30 4177 C 380.037 -0.123551 1.88395 0
M  V30 4178 O 379.394 -1.07148 1.47735 0
M  V30 4179 C 379.445 2.09312 2.94739 0
M  V30 4180 O 379.166 3.46288 2.68358 0
M  V30 4181 C 380.667 2.1234 3.89136 0
M  V30 4182 H 377.887 0.447726 0.499782 0
M  V30 4183 H 380.431 1.77237 1.02017 0
M  V30 4184 H 378.586 1.65889 3.50085 0
M  V30 4185 H 379 3.87227 3.53774 0
M  V30 4186 H 380.474 2.72126 4.80262 0
M  V30 4187 H 380.951 1.11854 4.24718 0
M  V30 4188 H 381.557 2.55864 3.39726 0
M  V30 4189 N 379.872 -1.04064 1.18357 0
M  V30 4190 C 381.121 -1.76662 0.973313 0
M  V30 4191 C 381.434 -1.89154 -0.497991 0
M  V30 4192 O 382.64 -2.58606 -0.826762 0
M  V30 4193 C 381.096 -3.17624 1.69242 0
M  V30 4194 C 380.704 -3.13225 3.20303 0
M  V30 4195 C 382.448 -3.946 1.56497 0
M  V30 4196 C 380.355 -4.49046 3.84853 0
M  V30 4197 H 379.285 -0.662214 0.36054 0
M  V30 4198 H 381.936 -1.16553 1.41731 0
M  V30 4199 H 380.318 -3.78129 1.1762 0
M  V30 4200 H 381.492 -2.62172 3.78949 0
M  V30 4201 H 379.807 -2.49749 3.33189 0
M  V30 4202 H 382.404 -4.95042 2.02084 0
M  V30 4203 H 382.747 -4.13074 0.517243 0
M  V30 4204 H 383.28 -3.4067 2.05399 0
M  V30 4205 H 380.019 -4.35777 4.89672 0
M  V30 4206 H 379.539 -5.00203 3.30994 0
M  V30 4207 H 381.218 -5.17961 3.87718 0
M  V30 4208 N 381.35 -0.985608 -1.22978 0
M  V30 4209 C 382.28 -0.549649 -2.26939 0
M  V30 4210 C 383.261 0.419803 -1.64838 0
M  V30 4211 O 384.446 0.31203 -1.91677 0
M  V30 4212 C 381.576 0.143652 -3.47003 0
M  V30 4213 C 380.53 -0.743606 -4.21491 0
M  V30 4214 C 379.856 0.0822027 -5.34637 0
M  V30 4215 C 381.156 -2.03694 -4.80943 0
M  V30 4216 H 382.85 -1.41862 -2.63658 0
M  V30 4217 H 380.396 -0.683571 -1.26741 0
M  V30 4218 H 382.349 0.459985 -4.18882 0
M  V30 4219 H 381.073 1.04711 -3.09359 0
M  V30 4220 H 379.732 -1.04347 -3.51436 0
M  V30 4221 H 379.38 0.986359 -4.93234 0
M  V30 4222 H 379.08 -0.508377 -5.85397 0
M  V30 4223 H 380.604 0.392797 -6.09335 0
M  V30 4224 H 382.018 -1.78504 -5.44802 0
M  V30 4225 H 380.415 -2.57573 -5.42011 0
M  V30 4226 H 381.485 -2.72042 -4.01399 0
M  V30 4227 N 382.828 1.3818 -0.7579 0
M  V30 4228 C 384.053 2.04827 -0.325679 0
M  V30 4229 C 384.478 1.56788 1.03919 0
M  V30 4230 O 383.836 0.721811 1.66312 0
M  V30 4231 C 383.884 3.58774 -0.362447 0
M  V30 4232 O 382.988 4.07372 0.642033 0
M  V30 4233 H 382.329 0.64833 -0.143402 0
M  V30 4234 H 384.859 1.7677 -1.03023 0
M  V30 4235 H 384.869 4.07434 -0.214844 0
M  V30 4236 H 383.544 3.93096 -1.35824 0
M  V30 4237 H 382.121 3.70068 0.458688 0
M  V30 4238 N 384.306 0.507319 1.49211 0
M  V30 4239 C 385.552 -0.0269732 2.03382 0
M  V30 4240 C 385.907 -1.34111 1.37957 0
M  V30 4241 O 385.2 -1.84733 0.508351 0
M  V30 4242 C 385.394 -0.229513 3.56662 0
M  V30 4243 C 385.223 1.06344 4.36945 0
M  V30 4244 C 383.993 1.617 4.78729 0
M  V30 4245 C 386.191 1.96833 4.75143 0
M  V30 4246 N 384.173 2.8552 5.43463 0
M  V30 4247 C 385.544 3.0523 5.39661 0
M  V30 4248 C 387.599 1.97434 4.57082 0
M  V30 4249 C 386.302 4.14265 5.88028 0
M  V30 4250 C 388.328 3.05448 5.06414 0
M  V30 4251 C 387.69 4.12564 5.70938 0
M  V30 4252 H 383.789 0.0310673 0.781383 0
M  V30 4253 H 386.373 0.683579 1.82305 0
M  V30 4254 H 384.544 -0.909127 3.7761 0
M  V30 4255 H 386.276 -0.761377 3.97473 0
M  V30 4256 H 383.031 1.16132 4.59141 0
M  V30 4257 H 383.455 3.48499 5.80412 0
M  V30 4258 H 388.097 1.15924 4.06597 0
M  V30 4259 H 385.815 4.96569 6.3753 0
M  V30 4260 H 389.401 3.06941 4.94246 0
M  V30 4261 H 388.281 4.94767 6.0842 0
M  V30 4262 N 385.784 -1.5574 0.241426 0
M  V30 4263 C 387.03 -1.99104 -0.385406 0
M  V30 4264 C 387.363 -1.1293 -1.57988 0
M  V30 4265 O 386.638 -0.191449 -1.93555 0
M  V30 4266 C 386.921 -3.51087 -0.800616 0
M  V30 4267 C 386.774 -4.48028 0.398874 0
M  V30 4268 C 388.093 -4.08015 -1.64959 0
M  V30 4269 H 385.212 -0.723848 -0.138614 0
M  V30 4270 H 387.854 -1.86903 0.341642 0
M  V30 4271 H 386.004 -3.61615 -1.4201 0
M  V30 4272 H 387.676 -4.49487 1.03726 0
M  V30 4273 H 385.919 -4.21077 1.04293 0
M  V30 4274 H 386.59 -5.51962 0.0651056 0
M  V30 4275 H 389.066 -4.00555 -1.12672 0
M  V30 4276 H 387.942 -5.14635 -1.90898 0
M  V30 4277 H 388.203 -3.56131 -2.61961 0
M  V30 4278 N 387.262 0.0317525 -1.57568 0
M  V30 4279 C 388.487 0.738664 -1.938 0
M  V30 4280 C 388.912 1.68242 -0.841208 0
M  V30 4281 O 388.27 1.80157 0.203267 0
M  V30 4282 C 388.318 1.47417 -3.29091 0
M  V30 4283 O 387.422 2.5872 -3.2115 0
M  V30 4284 H 386.763 0.198856 -0.633524 0
M  V30 4285 H 389.293 -0.0119713 -2.04596 0
M  V30 4286 H 389.303 1.84468 -3.63917 0
M  V30 4287 H 387.978 0.781988 -4.08482 0
M  V30 4288 H 386.555 2.24231 -2.97951 0
M  V30 4289 N 388.74 1.54641 0.303973 0
M  V30 4290 C 389.987 1.7378 1.03955 0
M  V30 4291 C 390.315 0.521986 1.87365 0
M  V30 4292 O 389.57 -0.496099 1.89308 0
M  V30 4293 C 389.869 2.97753 1.97681 0
M  V30 4294 C 389.535 4.31671 1.30271 0
M  V30 4295 C 388.197 4.68075 1.11619 0
M  V30 4296 C 390.549 5.147 0.82055 0
M  V30 4297 C 387.877 5.8509 0.434304 0
M  V30 4298 C 390.229 6.32416 0.152395 0
M  V30 4299 C 388.893 6.67484 -0.0461067 0
M  V30 4300 H 388.163 0.635908 0.380398 0
M  V30 4301 H 390.81 1.88896 0.314718 0
M  V30 4302 H 389.115 2.77406 2.76682 0
M  V30 4303 H 390.812 3.09756 2.54661 0
M  V30 4304 H 387.402 4.03041 1.45795 0
M  V30 4305 H 391.586 4.87077 0.952374 0
M  V30 4306 H 386.842 6.10806 0.269495 0
M  V30 4307 H 391.016 6.96023 -0.229126 0
M  V30 4308 H 388.643 7.58011 -0.576494 0
M  V30 4309 N 390.218 -0.567019 1.47046 0
M  V30 4310 C 391.464 -1.32434 1.54379 0
M  V30 4311 C 391.819 -1.91365 0.199276 0
M  V30 4312 O 391.112 -1.74378 -0.793915 0
M  V30 4313 C 391.306 -2.4623 2.59047 0
M  V30 4314 C 391.135 -1.98448 4.03545 0
M  V30 4315 C 389.905 -1.82741 4.71098 0
M  V30 4316 C 392.103 -1.53477 4.90866 0
M  V30 4317 N 390.085 -1.29196 6.00151 0
M  V30 4318 C 391.456 -1.1163 6.09868 0
M  V30 4319 C 393.511 -1.41438 4.77388 0
M  V30 4320 C 392.214 -0.589425 7.16881 0
M  V30 4321 C 394.24 -0.901528 5.84488 0
M  V30 4322 C 393.602 -0.492932 7.02673 0
M  V30 4323 H 389.701 -0.477005 0.61967 0
M  V30 4324 H 392.285 -0.643856 1.83746 0
M  V30 4325 H 390.456 -3.11821 2.31564 0
M  V30 4326 H 392.188 -3.13213 2.56281 0
M  V30 4327 H 388.943 -2.05162 4.26855 0
M  V30 4328 H 389.367 -1.0454 6.6888 0
M  V30 4329 H 394.009 -1.71643 3.86392 0
M  V30 4330 H 391.727 -0.274994 8.07632 0
M  V30 4331 H 395.313 -0.812071 5.76105 0
M  V30 4332 H 394.193 -0.102227 7.84133 0
M  V30 4333 N 391.696 -1.35014 -0.812953 0
M  V30 4334 C 392.945 -1.27269 -1.56479 0
M  V30 4335 C 393.258 0.152771 -1.95002 0
M  V30 4336 O 394.464 0.352451 -2.69203 0
M  V30 4337 C 392.92 -2.23159 -2.82362 0
M  V30 4338 C 392.528 -3.71016 -2.511 0
M  V30 4339 C 394.272 -2.24342 -3.60376 0
M  V30 4340 C 392.179 -4.58746 -3.73237 0
M  V30 4341 H 391.109 -0.472829 -0.587324 0
M  V30 4342 H 393.76 -1.6024 -0.894171 0
M  V30 4343 H 392.142 -1.83151 -3.51101 0
M  V30 4344 H 393.316 -4.1962 -1.90409 0
M  V30 4345 H 391.631 -3.72378 -1.86343 0
M  V30 4346 H 394.228 -2.87107 -4.51081 0
M  V30 4347 H 394.571 -1.24542 -3.97234 0
M  V30 4348 H 395.104 -2.62846 -2.98591 0
M  V30 4349 H 391.843 -5.59521 -3.41492 0
M  V30 4350 H 391.363 -4.14871 -4.33176 0
M  V30 4351 H 393.042 -4.73852 -4.40537 0
M  V30 4352 N 393.175 1.03435 -1.18907 0
M  V30 4353 C 394.123 2.13703 -0.918353 0
M  V30 4354 C 395.117 1.68947 0.123767 0
M  V30 4355 O 396.323 1.79983 -0.0249701 0
M  V30 4356 H 392.698 0.698112 -0.279542 0
M  V30 4357 H 394.669 2.33731 -1.85506 0
M  V30 4358 C 393.418 3.44542 -0.467532 0
M  V30 4359 H 392.741 3.79394 -1.26095 0
M  V30 4360 H 394.181 4.22812 -0.317164 0
M  V30 4361 C 392.64 3.26829 0.817588 0
M  V30 4362 O 393.17 3.54975 1.88031 0
M  V30 4363 N 391.376 2.80139 0.772677 0
M  V30 4364 H 390.923 2.57434 -0.0923883 0
M  V30 4365 H 390.881 2.68668 1.63294 0
M  V30 4366 N 394.653 0.992116 1.22453 0
M  V30 4367 C 395.883 0.684949 1.94915 0
M  V30 4368 C 396.291 -0.754292 1.73514 0
M  V30 4369 O 395.634 -1.52056 1.03076 0
M  V30 4370 C 395.696 0.910054 3.47791 0
M  V30 4371 C 395.36 2.33363 3.92926 0
M  V30 4372 C 396.357 3.31308 4.00663 0
M  V30 4373 C 394.042 2.66785 4.25595 0
M  V30 4374 C 396.036 4.6075 4.40441 0
M  V30 4375 C 393.723 3.96446 4.65053 0
M  V30 4376 C 394.721 4.9324 4.72444 0
M  V30 4377 O 394.409 6.20584 5.1101 0
M  V30 4378 H 394.141 0.25258 0.62704 0
M  V30 4379 H 396.695 1.32939 1.56577 0
M  V30 4380 H 394.925 0.208443 3.86138 0
M  V30 4381 H 396.614 0.598257 4.01467 0
M  V30 4382 H 397.38 3.0682 3.75615 0
M  V30 4383 H 393.259 1.92148 4.19047 0
M  V30 4384 H 396.803 5.363 4.46126 0
M  V30 4385 H 392.7 4.20724 4.89552 0
M  V30 4386 H 393.468 6.24509 5.29085 0
M  V30 4387 N 396.131 -1.37776 0.765217 0
M  V30 4388 C 397.408 -1.93975 0.251596 0
M  V30 4389 C 397.788 -1.69949 -1.25222 0
M  V30 4390 O 397.136 -1.04457 -2.03226 0
M  V30 4391 C 397.346 -3.43487 0.617895 0
M  V30 4392 C 398.694 -4.20564 0.584029 0
M  V30 4393 O 399.718 -3.5182 0.556888 0
M  V30 4394 O 398.577 -5.43138 0.605291 0
M  V30 4395 H 395.671 -0.82509 0.0561806 0
M  V30 4396 H 398.217 -1.47101 0.846128 0
M  V30 4397 H 396.989 -3.5453 1.65602 0
M  V30 4398 H 396.612 -3.976 -0.00403411 0
M  V30 4399 N 397.609 -0.515225 -1.4894 0
M  V30 4400 C 398.572 0.244681 -2.2789 0
M  V30 4401 C 399.572 0.881166 -1.34507 0
M  V30 4402 O 400.762 0.743497 -1.57537 0
M  V30 4403 C 397.894 1.35247 -3.12923 0
M  V30 4404 H 399.087 -0.448289 -2.96531 0
M  V30 4405 H 396.64 -0.270656 -1.53939 0
M  V30 4406 H 397.375 2.07916 -2.48881 0
M  V30 4407 H 397.16 0.901374 -3.81599 0
M  V30 4408 H 398.65 1.88737 -3.72516 0
M  V30 4409 N 399.087 1.5561 -0.249682 0
M  V30 4410 C 400.312 2.03865 0.381305 0
M  V30 4411 C 400.737 1.12769 1.50548 0
M  V30 4412 O 400.095 0.121189 1.80895 0
M  V30 4413 C 400.143 3.50101 0.863816 0
M  V30 4414 O 399.247 3.62132 1.97318 0
M  V30 4415 H 398.588 0.658827 0.0827194 0
M  V30 4416 H 401.118 2.01105 -0.376552 0
M  V30 4417 H 401.128 3.90975 1.1663 0
M  V30 4418 H 399.803 4.1588 0.0411816 0
M  V30 4419 H 398.38 3.33155 1.67517 0
M  V30 4420 N 400.565 -0.0233959 1.57583 0
M  V30 4421 C 401.528 -1.00693 2.05897 0
M  V30 4422 C 402.528 -1.28693 0.964092 0
M  V30 4423 O 403.718 -1.23602 1.22753 0
M  V30 4424 C 400.85 -2.33825 2.4807 0
M  V30 4425 H 402.043 -0.589476 2.9405 0
M  V30 4426 H 399.596 -0.270354 1.53944 0
M  V30 4427 H 400.331 -2.80307 1.6309 0
M  V30 4428 H 400.116 -2.1483 3.2801 0
M  V30 4429 H 401.606 -3.04426 2.85857 0
M  V30 4430 N 402.043 -1.548 -0.295768 0
M  V30 4431 C 403.006 -1.85363 -1.34808 0
M  V30 4432 C 404.006 -0.726817 -1.43436 0
M  V30 4433 O 405.196 -0.995088 -1.42981 0
M  V30 4434 C 402.328 -2.03859 -2.73229 0
M  V30 4435 H 403.521 -2.7941 -1.08949 0
M  V30 4436 H 401.074 -1.46942 -0.532702 0
M  V30 4437 H 401.809 -1.12117 -3.04303 0
M  V30 4438 H 401.594 -2.8588 -2.68356 0
M  V30 4439 H 403.084 -2.28857 -3.49305 0
M  V30 4440 N 403.521 0.559213 -1.47345 0
M  V30 4441 C 404.937 0.884943 -1.32819 0
M  V30 4442 C 405.137 1.98988 -0.317173 0
M  V30 4443 O 404.193 2.51031 0.272011 0
M  V30 4444 C 405.506 1.28007 -2.72093 0
M  V30 4445 C 407.054 1.39161 -2.80363 0
M  V30 4446 C 407.529 1.82031 -4.20272 0
M  V30 4447 N 409.02 1.89185 -4.22804 0
M  V30 4448 C 409.755 2.2368 -5.27973 0
M  V30 4449 N 409.251 2.56802 -6.43447 0
M  V30 4450 N 411.044 2.24436 -5.15349 0
M  V30 4451 H 403.195 -0.170304 -2.11716 0
M  V30 4452 H 405.458 -0.0135247 -0.947904 0
M  V30 4453 H 405.164 0.542027 -3.47498 0
M  V30 4454 H 405.038 2.23665 -3.03733 0
M  V30 4455 H 407.425 2.12048 -2.05231 0
M  V30 4456 H 407.506 0.41696 -2.52379 0
M  V30 4457 H 407.15 1.09715 -4.95908 0
M  V30 4458 H 407.08 2.80495 -4.45679 0
M  V30 4459 H 409.571 1.65982 -3.39497 0
M  V30 4460 H 409.884 2.82144 -7.19454 0
M  V30 4461 H 408.229 2.54387 -6.46771 0
M  V30 4462 H 411.42 1.97998 -4.24163 0
M  V30 4463 H 411.593 2.50989 -5.97418 0
M  V30 4464 N 404.999 1.35443 0.805782 0
M  V30 4465 C 406.245 1.28952 1.56522 0
M  V30 4466 C 406.578 -0.135597 1.93726 0
M  V30 4467 O 405.853 -1.08516 1.61414 0
M  V30 4468 C 406.136 2.19678 2.85331 0
M  V30 4469 C 405.989 3.7081 2.54598 0
M  V30 4470 C 407.308 2.09495 3.8704 0
M  V30 4471 H 404.427 0.469764 0.567883 0
M  V30 4472 H 407.069 1.65851 0.927001 0
M  V30 4473 H 405.219 1.8834 3.39795 0
M  V30 4474 H 406.891 4.12593 2.06312 0
M  V30 4475 H 405.134 3.91051 1.8778 0
M  V30 4476 H 405.805 4.29679 3.46525 0
M  V30 4477 H 408.281 2.37045 3.41978 0
M  V30 4478 H 407.157 2.75173 4.74943 0
M  V30 4479 H 407.418 1.07714 4.28777 0
M  V30 4480 N 406.477 -1.02803 1.19454 0
M  V30 4481 C 407.44 -2.09264 0.934955 0
M  V30 4482 C 408.44 -1.60576 -0.0849015 0
M  V30 4483 O 409.63 -1.73554 0.149933 0
M  V30 4484 C 406.762 -3.38482 0.40531 0
M  V30 4485 H 407.955 -2.33726 1.87916 0
M  V30 4486 H 405.508 -1.19426 1.00832 0
M  V30 4487 H 406.243 -3.19689 -0.544899 0
M  V30 4488 H 406.028 -3.75142 1.14065 0
M  V30 4489 H 407.518 -4.16894 0.242806 0
M  V30 4490 N 407.956 -0.998596 -1.21925 0
M  V30 4491 C 408.886 -0.573688 -2.26343 0
M  V30 4492 C 409.867 0.402296 -1.65274 0
M  V30 4493 O 411.052 0.291683 -1.91997 0
M  V30 4494 C 408.182 0.106839 -3.47136 0
M  V30 4495 C 407.136 -0.788269 -4.20678 0
M  V30 4496 C 406.462 0.0254927 -5.34694 0
M  V30 4497 C 407.762 -2.08784 -4.78755 0
M  V30 4498 H 409.456 -1.44651 -2.62138 0
M  V30 4499 H 407.002 -0.696975 -1.26009 0
M  V30 4500 H 408.955 0.415531 -4.19346 0
M  V30 4501 H 407.679 1.01424 -3.10452 0
M  V30 4502 H 406.338 -1.08069 -3.50309 0
M  V30 4503 H 405.986 0.933989 -4.94253 0
M  V30 4504 H 405.686 -0.570437 -5.84825 0
M  V30 4505 H 407.21 0.328147 -6.09718 0
M  V30 4506 H 408.624 -1.84272 -5.42878 0
M  V30 4507 H 407.021 -2.63307 -5.39249 0
M  V30 4508 H 408.091 -2.76284 -3.98491 0
M  V30 4509 N 409.434 1.37368 -0.772513 0
M  V30 4510 C 410.682 1.99279 -0.336516 0
M  V30 4511 C 411.003 1.6163 1.09091 0
M  V30 4512 O 410.273 0.882109 1.74916 0
M  V30 4513 H 408.853 0.737063 -0.121435 0
M  V30 4514 H 411.515 1.67836 -0.990809 0
M  V30 4515 H 410.611 3.09332 -0.414763 0
M  V30 4516 N 410.912 0.523116 1.48665 0
M  V30 4517 C 412.161 -0.01544 2.01694 0
M  V30 4518 C 412.474 -1.35975 1.40606 0
M  V30 4519 O 413.68 -1.98627 1.85093 0
M  V30 4520 C 412.136 -0.0779303 3.59816 0
M  V30 4521 C 411.744 1.26107 4.29885 0
M  V30 4522 C 413.488 -0.565678 4.20714 0
M  V30 4523 C 411.395 1.15954 5.79921 0
M  V30 4524 H 410.325 -0.00954163 0.75394 0
M  V30 4525 H 412.976 0.665865 1.70993 0
M  V30 4526 H 411.358 -0.824165 3.87329 0
M  V30 4527 H 412.532 2.02233 4.14051 0
M  V30 4528 H 410.847 1.68401 3.80828 0
M  V30 4529 H 413.444 -0.6595 5.30617 0
M  V30 4530 H 413.787 -1.56984 3.85567 0
M  V30 4531 H 414.32 0.12467 3.97605 0
M  V30 4532 H 411.059 2.13864 6.19631 0
M  V30 4533 H 410.579 0.439529 5.98187 0
M  V30 4534 H 412.258 0.847361 6.41427 0
M  V30 4535 N 412.39 -1.55475 0.257931 0
M  V30 4536 C 413.618 -2.03609 -0.367559 0
M  V30 4537 C 414.033 -1.13687 -1.50734 0
M  V30 4538 O 413.39 -0.153479 -1.81853 0
M  V30 4539 C 413.441 -3.51001 -0.864908 0
M  V30 4540 O 413.162 -4.37499 0.229465 0
M  V30 4541 C 414.663 -4.14946 -1.55997 0
M  V30 4542 H 411.883 -0.665459 -0.0860521 0
M  V30 4543 H 414.427 -2.00843 0.385014 0
M  V30 4544 H 412.582 -3.54266 -1.56762 0
M  V30 4545 H 412.996 -5.24286 -0.14998 0
M  V30 4546 H 414.47 -5.19735 -1.85956 0
M  V30 4547 H 414.947 -3.6209 -2.4857 0
M  V30 4548 H 415.553 -4.15635 -0.901543 0
M  V30 4549 N 413.868 0.0150385 -1.57593 0
M  V30 4550 C 415.096 0.714395 -1.94175 0
M  V30 4551 C 415.511 1.68135 -0.858841 0
M  V30 4552 O 414.868 1.81766 0.163567 0
M  V30 4553 C 414.919 1.45933 -3.30735 0
M  V30 4554 O 414.64 0.531167 -4.34868 0
M  V30 4555 C 416.141 2.25456 -3.81686 0
M  V30 4556 H 413.361 0.199923 -0.640525 0
M  V30 4557 H 415.905 -0.0316096 -2.04476 0
M  V30 4558 H 414.06 2.15709 -3.21789 0
M  V30 4559 H 414.474 1.05509 -5.13778 0
M  V30 4560 H 415.948 2.731 -4.79709 0
M  V30 4561 H 416.425 3.07485 -3.13607 0
M  V30 4562 H 417.031 1.60727 -3.9376 0
M  V30 4563 N 415.346 1.54954 0.287554 0
M  V30 4564 C 416.592 1.75132 1.02257 0
M  V30 4565 C 416.925 0.542858 1.86458 0
M  V30 4566 O 416.2 -0.459856 1.88986 0
M  V30 4567 C 416.483 3.04812 1.91733 0
M  V30 4568 C 416.336 4.35985 1.10622 0
M  V30 4569 C 417.655 3.30438 2.90687 0
M  V30 4570 H 414.774 0.637194 0.370341 0
M  V30 4571 H 417.416 1.87678 0.296111 0
M  V30 4572 H 415.566 2.94247 2.53675 0
M  V30 4573 H 417.238 4.58487 0.508636 0
M  V30 4574 H 415.481 4.31865 0.409271 0
M  V30 4575 H 416.152 5.23017 1.76513 0
M  V30 4576 H 418.628 3.40701 2.38877 0
M  V30 4577 H 417.504 4.22467 3.50447 0
M  V30 4578 H 417.765 2.49377 3.65053 0
M  V30 4579 N 416.824 -0.551391 1.4764 0
M  V30 4580 C 417.754 -1.66757 1.63445 0
M  V30 4581 C 418.735 -1.63077 0.483742 0
M  V30 4582 O 419.92 -1.80607 0.71377 0
M  V30 4583 C 417.05 -3.05387 1.65396 0
M  V30 4584 C 416.004 -3.23918 2.79752 0
M  V30 4585 C 415.33 -4.63393 2.66779 0
M  V30 4586 C 416.63 -3.08735 4.21284 0
M  V30 4587 H 418.324 -1.53786 2.56886 0
M  V30 4588 H 415.87 -0.738415 1.23626 0
M  V30 4589 H 417.823 -3.83325 1.75043 0
M  V30 4590 H 416.547 -3.19332 0.685195 0
M  V30 4591 H 415.206 -2.48391 2.69625 0
M  V30 4592 H 414.854 -4.74144 1.67918 0
M  V30 4593 H 414.554 -4.7674 3.43501 0
M  V30 4594 H 416.078 -5.43458 2.78364 0
M  V30 4595 H 417.492 -3.76484 4.32357 0
M  V30 4596 H 415.889 -3.33588 4.98838 0
M  V30 4597 H 416.959 -2.0541 4.39243 0
M  V30 4598 N 418.302 -1.35869 -0.798587 0
M  V30 4599 C 419.53 -1.32722 -1.58722 0
M  V30 4600 C 419.945 0.0935631 -1.88568 0
M  V30 4601 O 419.302 1.04784 -1.49421 0
M  V30 4602 C 419.353 -2.13974 -2.91371 0
M  V30 4603 O 419.074 -3.50514 -2.62815 0
M  V30 4604 C 420.575 -2.18504 -3.85708 0
M  V30 4605 H 417.795 -0.45562 -0.492596 0
M  V30 4606 H 420.339 -1.78837 -0.991843 0
M  V30 4607 H 418.494 -1.71438 -3.47402 0
M  V30 4608 H 418.908 -3.92806 -3.47568 0
M  V30 4609 H 420.382 -2.79732 -4.75872 0
M  V30 4610 H 420.859 -1.18597 -4.22885 0
M  V30 4611 H 421.465 -2.61236 -3.35612 0
M  V30 4612 N 419.78 1.02168 -1.19998 0
M  V30 4613 C 420.713 2.10232 -0.887558 0
M  V30 4614 C 421.691 1.61827 0.158317 0
M  V30 4615 O 422.875 1.88471 0.0330249 0
M  V30 4616 C 420.002 3.37092 -0.32964 0
M  V30 4617 C 419.048 4.0438 -1.3557 0
M  V30 4618 S 419.881 4.48956 -2.91888 0
M  V30 4619 C 421.037 5.79024 -2.37658 0
M  V30 4620 H 421.27 2.36409 -1.80272 0
M  V30 4621 H 418.803 1.15211 -1.0279 0
M  V30 4622 H 420.761 4.10498 -0.0142824 0
M  V30 4623 H 419.422 3.08996 0.563941 0
M  V30 4624 H 418.615 4.95632 -0.9146 0
M  V30 4625 H 418.217 3.37176 -1.61828 0
M  V30 4626 H 420.509 6.53942 -1.77103 0
M  V30 4627 H 421.452 6.27924 -3.27287 0
M  V30 4628 H 421.86 5.35043 -1.79971 0
M  V30 4629 N 421.258 1.00505 1.21394 0
M  V30 4630 C 422.486 0.706609 1.9446 0
M  V30 4631 C 422.901 -0.73081 1.74082 0
M  V30 4632 O 422.258 -1.49446 1.04747 0
M  V30 4633 C 422.309 1.01824 3.46863 0
M  V30 4634 O 422.03 2.39919 3.66566 0
M  V30 4635 C 423.531 0.739216 4.37093 0
M  V30 4636 H 420.751 0.260394 0.618414 0
M  V30 4637 H 423.295 1.34311 1.54211 0
M  V30 4638 H 421.45 0.427343 3.85036 0
M  V30 4639 H 421.864 2.50784 4.6066 0
M  V30 4640 H 423.338 1.00744 5.42729 0
M  V30 4641 H 423.815 -0.326746 4.37983 0
M  V30 4642 H 424.421 1.31173 4.04566 0
M  V30 4643 N 422.737 -1.36956 0.779787 0
M  V30 4644 C 423.965 -2.03755 0.359398 0
M  V30 4645 C 424.38 -1.58807 -1.02106 0
M  V30 4646 O 423.737 -0.773024 -1.6532 0
M  V30 4647 C 423.788 -3.59251 0.402568 0
M  V30 4648 O 423.509 -4.02557 1.72858 0
M  V30 4649 C 425.01 -4.43291 -0.0284068 0
M  V30 4650 H 422.23 -0.654148 0.149437 0
M  V30 4651 H 424.774 -1.75128 1.05595 0
M  V30 4652 H 422.929 -3.86621 -0.245478 0
M  V30 4653 H 423.343 -4.97111 1.67275 0
M  V30 4654 H 424.817 -5.51975 0.0529466 0
M  V30 4655 H 425.294 -4.25719 -1.07982 0
M  V30 4656 H 425.9 -4.21163 0.591758 0
M  V30 4657 N 424.215 -0.530993 -1.48385 0
M  V30 4658 C 425.464 0.00474348 -2.01699 0
M  V30 4659 C 425.777 1.35227 -1.41325 0
M  V30 4660 O 426.983 1.97643 -1.86144 0
M  V30 4661 C 425.439 0.0588473 -3.59852 0
M  V30 4662 C 425.047 -1.28385 -4.2921 0
M  V30 4663 C 426.791 0.543358 -4.21008 0
M  V30 4664 C 424.698 -1.19028 -5.79298 0
M  V30 4665 H 423.628 0.00554317 -0.75398 0
M  V30 4666 H 426.279 -0.674924 -1.70637 0
M  V30 4667 H 424.661 0.803612 -3.8776 0
M  V30 4668 H 425.835 -2.04426 -4.12973 0
M  V30 4669 H 424.15 -1.70418 -3.7993 0
M  V30 4670 H 426.747 0.631351 -5.3096 0
M  V30 4671 H 427.09 1.54937 -3.86394 0
M  V30 4672 H 427.623 -0.145754 -3.97533 0
M  V30 4673 H 424.362 -2.17147 -6.18488 0
M  V30 4674 H 423.882 -0.471246 -5.97946 0
M  V30 4675 H 425.561 -0.881365 -6.40969 0
M  V30 4676 N 425.693 1.55336 -0.266172 0
M  V30 4677 C 426.641 2.23587 0.641228 0
M  V30 4678 C 427.635 1.22986 1.16494 0
M  V30 4679 O 428.841 1.40943 1.1196 0
M  V30 4680 H 425.216 0.717452 0.225315 0
M  V30 4681 H 427.187 2.9837 0.0426561 0
M  V30 4682 C 425.936 2.96369 1.81826 0
M  V30 4683 H 425.259 3.73563 1.42445 0
M  V30 4684 H 426.699 3.47459 2.42998 0
M  V30 4685 C 425.158 2.0133 2.70125 0
M  V30 4686 O 425.688 1.55875 3.70224 0
M  V30 4687 N 423.894 1.6802 2.37102 0
M  V30 4688 H 423.441 2.05181 1.55751 0
M  V30 4689 H 423.399 1.047 2.96454 0
M  V30 4690 N 427.171 -0.0066808 1.57599 0
M  V30 4691 C 428.399 -0.704087 1.94551 0
M  V30 4692 C 428.814 -1.67677 0.867746 0
M  V30 4693 O 428.171 -1.8185 -0.153925 0
M  V30 4694 C 428.222 -1.44177 3.31505 0
M  V30 4695 O 427.943 -0.508097 4.35144 0
M  V30 4696 C 429.444 -2.23429 3.82876 0
M  V30 4697 H 426.664 -0.196523 0.641576 0
M  V30 4698 H 429.208 0.042453 2.04456 0
M  V30 4699 H 427.363 -2.13999 3.22929 0
M  V30 4700 H 427.777 -1.02782 5.14331 0
M  V30 4701 H 429.251 -2.70552 4.8115 0
M  V30 4702 H 429.728 -3.05818 3.15233 0
M  V30 4703 H 430.334 -1.58636 3.94607 0
M  V30 4704 N 428.649 -1.55105 -0.279332 0
M  V30 4705 C 429.599 -1.83937 -1.34727 0
M  V30 4706 C 430.583 -0.69785 -1.44979 0
M  V30 4707 O 431.775 -0.95904 -1.48766 0
M  V30 4708 C 428.904 -2.1092 -2.70864 0
M  V30 4709 C 427.99 -3.31314 -2.64748 0
M  V30 4710 N 428.381 -4.51371 -2.2825 0
M  V30 4711 C 426.679 -3.33777 -2.95819 0
M  V30 4712 C 427.38 -5.33447 -2.31969 0
M  V30 4713 N 426.356 -4.71697 -2.7019 0
M  V30 4714 H 430.158 -2.74309 -1.05506 0
M  V30 4715 H 427.672 -1.54896 -0.487959 0
M  V30 4716 H 429.669 -2.2973 -3.47893 0
M  V30 4717 H 428.329 -1.21828 -3.00979 0
M  V30 4718 H 429.34 -4.77584 -2.00335 0
M  V30 4719 H 426.017 -2.54858 -3.30687 0
M  V30 4720 H 427.407 -6.39424 -2.06365 0
M  V30 4721 N 430.127 0.543554 -1.4793 0
M  V30 4722 C 431.057 1.65888 -1.64327 0
M  V30 4723 C 432.038 1.62818 -0.492383 0
M  V30 4724 O 433.223 1.80226 -0.723338 0
M  V30 4725 C 430.353 3.04506 -1.67013 0
M  V30 4726 C 429.307 3.2243 -2.81466 0
M  V30 4727 C 428.633 4.61972 -2.69233 0
M  V30 4728 C 429.933 3.06496 -4.22915 0
M  V30 4729 H 431.627 1.52421 -2.57698 0
M  V30 4730 H 429.173 0.731849 -1.24016 0
M  V30 4731 H 431.126 3.82391 -1.77074 0
M  V30 4732 H 429.85 3.18964 -0.70212 0
M  V30 4733 H 428.509 2.46957 -2.70938 0
M  V30 4734 H 428.157 4.73247 -1.7043 0
M  V30 4735 H 427.857 4.74911 -3.46025 0
M  V30 4736 H 429.381 5.41974 -2.81242 0
M  V30 4737 H 430.795 3.74186 -4.34348 0
M  V30 4738 H 429.192 3.30938 -5.006 0
M  V30 4739 H 430.262 2.03077 -4.40327 0
M  V30 4740 N 431.605 1.3629 0.791371 0
M  V30 4741 C 433.021 1.16661 1.08914 0
M  V30 4742 C 433.221 -0.0106266 2.01497 0
M  V30 4743 O 432.277 -0.676596 2.43266 0
M  V30 4744 C 433.59 2.47656 1.70549 0
M  V30 4745 C 435.138 2.54002 1.82899 0
M  V30 4746 C 435.613 3.85078 2.47949 0
M  V30 4747 N 437.104 3.86413 2.5542 0
M  V30 4748 C 437.839 4.84572 3.06557 0
M  V30 4749 N 437.335 5.93124 3.58016 0
M  V30 4750 N 439.128 4.71994 3.05251 0
M  V30 4751 H 431.279 2.11668 0.176238 0
M  V30 4752 H 433.542 0.937486 0.140796 0
M  V30 4753 H 433.248 3.34059 1.09989 0
M  V30 4754 H 433.122 2.63319 2.70079 0
M  V30 4755 H 435.509 1.68018 2.42598 0
M  V30 4756 H 435.59 2.42239 0.821808 0
M  V30 4757 H 435.234 4.71467 1.88895 0
M  V30 4758 H 435.164 3.94135 3.49235 0
M  V30 4759 H 437.655 3.07988 2.18979 0
M  V30 4760 H 437.968 6.63999 3.95381 0
M  V30 4761 H 436.313 5.96796 3.56173 0
M  V30 4762 H 439.504 3.86321 2.64336 0
M  V30 4763 H 439.677 5.48653 3.44796 0
M  V30 4764 N 433.083 -1.0153 1.20538 0
M  V30 4765 C 433.993 -2.13557 0.971113 0
M  V30 4766 C 435.009 -1.73845 -0.0734366 0
M  V30 4767 O 436.185 -2.01075 0.114299 0
M  V30 4768 C 433.25 -3.42661 0.527639 0
M  V30 4769 C 432.311 -3.96608 1.64319 0
M  V30 4770 C 431.544 -5.1955 1.22078 0
M  V30 4771 O 431.767 -5.70329 0.0900198 0
M  V30 4772 O 430.701 -5.66681 2.02871 0
M  V30 4773 H 434.527 -2.3619 1.90913 0
M  V30 4774 H 432.112 -1.11946 0.989362 0
M  V30 4775 H 433.994 -4.20404 0.289621 0
M  V30 4776 H 432.669 -3.21441 -0.381779 0
M  V30 4777 H 431.576 -3.20139 1.93551 0
M  V30 4778 H 432.909 -4.22219 2.52966 0
M  V30 4779 N 434.561 -1.01147 -1.20859 0
M  V30 4780 C 435.789 -0.716911 -1.94082 0
M  V30 4781 C 436.204 0.721568 -1.74467 0
M  V30 4782 O 435.561 1.48889 -1.05539 0
M  V30 4783 C 435.612 -1.03662 -3.46318 0
M  V30 4784 O 435.333 -2.4186 -3.65288 0
M  V30 4785 C 436.834 -0.762386 -4.36695 0
M  V30 4786 H 434.054 -0.26367 -0.617024 0
M  V30 4787 H 436.598 -1.35127 -1.53496 0
M  V30 4788 H 434.753 -0.447757 -3.84804 0
M  V30 4789 H 435.167 -2.53224 -4.59323 0
M  V30 4790 H 436.641 -1.03621 -5.42187 0
M  V30 4791 H 437.118 0.303514 -4.3815 0
M  V30 4792 H 437.724 -1.33316 -4.03865 0
M  V30 4793 N 436.039 1.36541 -0.78704 0
M  V30 4794 C 436.969 2.32659 -0.197992 0
M  V30 4795 C 437.95 1.56533 0.665697 0
M  V30 4796 O 439.135 1.84698 0.60001 0
M  V30 4797 C 436.265 3.40778 0.669901 0
M  V30 4798 C 435.219 4.27897 -0.0937039 0
M  V30 4799 C 434.545 5.27163 0.894629 0
M  V30 4800 C 435.845 5.06334 -1.28154 0
M  V30 4801 H 437.539 2.82171 -1.00099 0
M  V30 4802 H 435.085 1.35665 -0.482793 0
M  V30 4803 H 437.038 4.07008 1.09191 0
M  V30 4804 H 435.762 2.89827 1.50558 0
M  V30 4805 H 434.421 3.6322 -0.49666 0
M  V30 4806 H 434.069 4.72486 1.72527 0
M  V30 4807 H 433.769 5.86317 0.388149 0
M  V30 4808 H 435.293 5.96266 1.31525 0
M  V30 4809 H 436.707 5.65617 -0.93541 0
M  V30 4810 H 435.104 5.74888 -1.72115 0
M  V30 4811 H 436.174 4.38114 -2.07807 0
M  V30 4812 N 437.518 0.538854 1.48102 0
M  V30 4813 C 438.929 0.100679 1.86428 0
M  V30 4814 C 439.28 -1.32447 1.44749 0
M  V30 4815 O 438.405 -1.99339 0.842199 0
M  V30 4816 C 439 0.175933 3.38343 0
M  V30 4817 C 437.559 -0.207098 3.7583 0
M  V30 4818 C 436.706 0.531741 2.72154 0
M  V30 4819 H 439.657 0.749614 1.3988 0
M  V30 4820 H 439.678 -0.610144 3.75576 0
M  V30 4821 H 439.19 1.21328 3.68648 0
M  V30 4822 H 437.291 -1.24626 3.5114 0
M  V30 4823 H 437.404 0.138687 4.78899 0
M  V30 4824 H 435.768 -0.0230462 2.5469 0
M  V30 4825 H 436.551 1.56989 3.05302 0
M  V30 4826 N 438.996 -1.55193 0.274407 0
M  V30 4827 C 439.943 -2.225 -0.613374 0
M  V30 4828 C 440.913 -1.19823 -1.15029 0
M  V30 4829 O 442.098 -1.48362 -1.19973 0
M  V30 4830 C 439.238 -2.94927 -1.79199 0
M  V30 4831 C 438.351 -4.12322 -1.28899 0
M  V30 4832 C 437.486 -4.72394 -2.42934 0
M  V30 4833 C 436.525 -5.81984 -1.89634 0
M  V30 4834 N 435.662 -6.36123 -2.9714 0
M  V30 4835 H 440.502 -2.97982 -0.032756 0
M  V30 4836 H 438.039 -1.47099 -0.00440146 0
M  V30 4837 H 439.997 -3.35134 -2.48478 0
M  V30 4838 H 438.627 -2.2187 -2.34465 0
M  V30 4839 H 437.679 -3.7724 -0.489327 0
M  V30 4840 H 438.991 -4.91355 -0.858587 0
M  V30 4841 H 438.145 -5.15317 -3.20208 0
M  V30 4842 H 436.884 -3.92636 -2.8929 0
M  V30 4843 H 435.889 -5.38511 -1.1084 0
M  V30 4844 H 437.114 -6.6361 -1.44215 0
M  V30 4845 H 435.06 -5.59259 -3.42878 0
M  V30 4846 H 434.977 -7.10427 -2.58515 0
M  V30 4847 H 436.245 -6.83704 -3.74391 0
M  V30 4848 N 440.474 -0.00167713 -1.576 0
M  V30 4849 C 441.723 0.682021 -1.89819 0
M  V30 4850 C 442.036 1.74844 -0.876871 0
M  V30 4851 O 443.242 2.48688 -1.08934 0
M  V30 4852 C 441.698 1.26425 -3.36964 0
M  V30 4853 C 441.306 0.232568 -4.47396 0
M  V30 4854 C 443.05 1.92604 -3.78291 0
M  V30 4855 C 440.957 0.824882 -5.85619 0
M  V30 4856 H 439.887 0.258499 -0.708304 0
M  V30 4857 H 442.538 -0.0624957 -1.83394 0
M  V30 4858 H 440.92 2.05949 -3.38232 0
M  V30 4859 H 442.094 -0.5382 -4.57646 0
M  V30 4860 H 440.409 -0.32888 -4.15099 0
M  V30 4861 H 443.006 2.37827 -4.78897 0
M  V30 4862 H 443.349 2.75732 -3.11894 0
M  V30 4863 H 443.882 1.19812 -3.79328 0
M  V30 4864 H 440.621 0.0323542 -6.55492 0
M  V30 4865 H 440.141 1.56477 -5.79029 0
M  V30 4866 H 441.82 1.32301 -6.33329 0
M  V30 4867 N 441.952 1.55251 0.271103 0
M  V30 4868 C 443.363 1.66635 0.842007 0
M  V30 4869 C 443.714 0.594631 1.86972 0
M  V30 4870 O 442.839 -0.263532 2.14789 0
M  V30 4871 C 443.434 3.02082 1.53401 0
M  V30 4872 C 441.993 3.15487 2.05293 0
M  V30 4873 C 441.14 2.62438 0.895631 0
M  V30 4874 H 444.091 1.58629 0.0474117 0
M  V30 4875 H 444.112 2.95176 2.40107 0
M  V30 4876 H 443.624 3.80062 0.785786 0
M  V30 4877 H 441.725 2.42284 2.83071 0
M  V30 4878 H 441.838 4.22075 2.26693 0
M  V30 4879 H 440.202 2.19644 1.28953 0
M  V30 4880 H 440.985 3.42923 0.160878 0
M  V30 4881 N 443.43 -0.535701 1.48216 0
M  V30 4882 C 444.66 -1.3148 1.59363 0
M  V30 4883 C 445.068 -1.8753 0.250844 0
M  V30 4884 O 444.411 -1.66821 -0.769174 0
M  V30 4885 C 444.473 -2.50731 2.57632 0
M  V30 4886 C 444.137 -2.15811 4.02833 0
M  V30 4887 C 445.134 -1.71822 4.90686 0
M  V30 4888 C 442.819 -2.26509 4.48329 0
M  V30 4889 C 444.813 -1.3899 6.22062 0
M  V30 4890 C 442.5 -1.93289 5.79726 0
M  V30 4891 C 443.498 -1.49599 6.66415 0
M  V30 4892 O 443.186 -1.16812 7.95368 0
M  V30 4893 H 442.918 -0.406315 0.540263 0
M  V30 4894 H 445.472 -0.653569 1.94725 0
M  V30 4895 H 443.702 -3.19817 2.1738 0
M  V30 4896 H 445.391 -3.12797 2.58675 0
M  V30 4897 H 446.157 -1.63031 4.56778 0
M  V30 4898 H 442.036 -2.59471 3.81045 0
M  V30 4899 H 445.58 -1.04816 6.89681 0
M  V30 4900 H 441.477 -2.01718 6.13172 0
M  V30 4901 H 442.245 -1.30259 8.08069 0
M  V30 4902 N 444.908 -1.36708 -0.784132 0
M  V30 4903 C 446.154 -1.31426 -1.54451 0
M  V30 4904 C 446.487 0.10476 -1.93917 0
M  V30 4905 O 445.762 1.05934 -1.6312 0
M  V30 4906 C 446.045 -2.24189 -2.818 0
M  V30 4907 C 445.898 -3.74813 -2.48667 0
M  V30 4908 C 447.217 -2.15626 -3.83658 0
M  V30 4909 H 444.336 -0.478739 -0.560337 0
M  V30 4910 H 446.978 -1.67305 -0.900498 0
M  V30 4911 H 445.128 -1.93722 -3.36755 0
M  V30 4912 H 446.8 -4.15823 -1.99722 0
M  V30 4913 H 445.043 -3.93989 -1.81535 0
M  V30 4914 H 445.714 -4.35138 -3.39646 0
M  V30 4915 H 448.19 -2.42456 -3.38163 0
M  V30 4916 H 447.066 -2.82694 -4.70506 0
M  V30 4917 H 447.327 -1.14522 -4.27009 0
M  V30 4918 N 446.386 1.0089 -1.21074 0
M  V30 4919 C 447.333 2.09588 -0.966512 0
M  V30 4920 C 448.303 1.65761 0.106089 0
M  V30 4921 O 449.488 1.90758 -0.0402287 0
M  V30 4922 C 446.628 3.40958 -0.533058 0
M  V30 4923 C 445.741 3.9822 -1.67467 0
M  V30 4924 C 444.876 5.17682 -1.19076 0
M  V30 4925 C 443.915 5.67043 -2.30496 0
M  V30 4926 N 443.052 6.77759 -1.83267 0
M  V30 4927 H 447.892 2.29815 -1.89708 0
M  V30 4928 H 445.429 1.12689 -0.945489 0
M  V30 4929 H 447.387 4.1637 -0.263019 0
M  V30 4930 H 446.017 3.20781 0.360505 0
M  V30 4931 H 445.069 3.1983 -2.05944 0
M  V30 4932 H 446.381 4.3085 -2.51336 0
M  V30 4933 H 445.535 6.00326 -0.877151 0
M  V30 4934 H 444.274 4.86635 -0.322066 0
M  V30 4935 H 443.279 4.82999 -2.62664 0
M  V30 4936 H 444.504 6.00121 -3.17855 0
M  V30 4937 H 442.45 6.48527 -0.987356 0
M  V30 4938 H 442.367 7.09624 -2.60711 0
M  V30 4939 H 443.635 7.63949 -1.54928 0
M  V30 4940 N 447.864 1.01787 1.20321 0
M  V30 4941 C 448.827 0.593972 2.2137 0
M  V30 4942 C 449.827 -0.336553 1.57239 0
M  V30 4943 O 451.017 -0.125069 1.7375 0
M  V30 4944 C 448.149 -0.132433 3.40643 0
M  V30 4945 H 449.342 1.48791 2.60387 0
M  V30 4946 H 446.895 0.807803 1.33807 0
M  V30 4947 H 447.63 -1.04123 3.0713 0
M  V30 4948 H 447.415 0.53605 3.88418 0
M  V30 4949 H 448.905 -0.416314 4.1552 0
M  V30 4950 N 449.342 -1.36122 0.79427 0
M  V30 4951 C 450.591 -1.98361 0.365464 0
M  V30 4952 C 450.904 -1.6374 -1.06997 0
M  V30 4953 O 452.11 -2.19251 -1.60129 0
M  V30 4954 C 450.566 -3.54821 0.602496 0
M  V30 4955 C 450.174 -3.98362 2.04967 0
M  V30 4956 C 451.918 -4.2383 0.238437 0
M  V30 4957 C 449.825 -5.47619 2.2331 0
M  V30 4958 H 448.755 -0.742193 0.13291 0
M  V30 4959 H 451.406 -1.55354 0.976589 0
M  V30 4960 H 449.788 -3.95922 -0.078409 0
M  V30 4961 H 450.962 -3.68447 2.76737 0
M  V30 4962 H 449.277 -3.42206 2.37243 0
M  V30 4963 H 451.874 -5.33529 0.353705 0
M  V30 4964 H 452.217 -4.08264 -0.814006 0
M  V30 4965 H 452.75 -3.88108 0.872769 0
M  V30 4966 H 449.489 -5.68138 3.26955 0
M  V30 4967 H 449.009 -5.79145 1.5605 0
M  V30 4968 H 450.688 -6.13911 2.0426 0
M  V30 4969 N 450.82 -0.546701 -1.47814 0
M  V30 4970 C 452.097 0.0464413 -1.95545 0
M  V30 4971 C 452.477 1.4962 -1.48919 0
M  V30 4972 O 451.825 2.16752 -0.723232 0
M  V30 4973 C 452.035 -0.0881298 -3.48889 0
M  V30 4974 C 453.383 0.0626059 -4.24554 0
M  V30 4975 O 454.407 -0.0151555 -3.56197 0
M  V30 4976 O 453.266 0.228071 -5.46024 0
M  V30 4977 H 450.36 0.0700004 -0.824032 0
M  V30 4978 H 452.906 -0.612482 -1.58262 0
M  V30 4979 H 451.678 -1.09737 -3.75597 0
M  V30 4980 H 451.301 0.608886 -3.9291 0
M  V30 4981 N 452.299 1.55045 -0.282633 0
M  V30 4982 C 453.232 2.18951 0.64311 0
M  V30 4983 C 454.21 1.15287 1.14664 0
M  V30 4984 O 455.394 1.43846 1.21822 0
M  V30 4985 C 452.521 2.81874 1.87789 0
M  V30 4986 C 451.567 3.98906 1.50919 0
M  V30 4987 S 452.4 5.3234 0.580884 0
M  V30 4988 C 453.556 5.98737 1.82387 0
M  V30 4989 H 453.789 2.97131 0.100138 0
M  V30 4990 H 451.322 1.54255 -0.0668514 0
M  V30 4991 H 453.28 3.18757 2.58658 0
M  V30 4992 H 451.941 2.03573 2.392 0
M  V30 4993 H 451.134 4.4165 2.42819 0
M  V30 4994 H 450.736 3.63485 0.88061 0
M  V30 4995 H 453.028 6.18427 2.76684 0
M  V30 4996 H 453.971 6.93318 1.4393 0
M  V30 4997 H 454.379 5.28177 1.99223 0
M  V30 4998 N 453.777 0.010035 1.57597 0
M  V30 4999 C 455.007 -0.682422 1.95004 0
M  V30 5000 C 455.415 -1.67278 0.884014 0
M  V30 5001 O 454.758 -1.83129 -0.144672 0
M  V30 5002 C 454.82 -1.46141 3.28456 0
M  V30 5003 C 454.484 -0.631523 4.52615 0
M  V30 5004 C 455.481 0.0850905 5.1983 0
M  V30 5005 C 453.166 -0.574539 4.99003 0
M  V30 5006 C 455.16 0.847566 6.3174 0
M  V30 5007 C 452.847 0.191655 6.10799 0
M  V30 5008 C 453.845 0.901432 6.77025 0
M  V30 5009 O 453.533 1.65511 7.86677 0
M  V30 5010 H 453.265 -0.194361 0.647456 0
M  V30 5011 H 455.819 0.060312 2.05311 0
M  V30 5012 H 454.049 -2.24885 3.14585 0
M  V30 5013 H 455.738 -2.04016 3.50902 0
M  V30 5014 H 456.504 0.0502812 4.84974 0
M  V30 5015 H 452.383 -1.11654 4.47274 0
M  V30 5016 H 455.927 1.4021 6.83364 0
M  V30 5017 H 451.824 0.228249 6.45096 0
M  V30 5018 H 452.592 1.57287 8.03245 0
M  V30 5019 N 455.255 -1.55392 -0.262866 0
M  V30 5020 C 456.185 -1.91978 -1.32917 0
M  V30 5021 C 457.166 -0.7828 -1.51017 0
M  V30 5022 O 458.351 -1.04178 -1.63892 0
M  V30 5023 C 455.481 -2.20055 -2.68687 0
M  V30 5024 C 454.435 -3.35854 -2.65304 0
M  V30 5025 C 453.761 -3.49435 -4.04721 0
M  V30 5026 C 455.061 -4.71977 -2.23685 0
M  V30 5027 H 456.755 -2.81292 -1.02544 0
M  V30 5028 H 454.301 -1.3534 -0.491846 0
M  V30 5029 H 456.254 -2.44237 -3.43404 0
M  V30 5030 H 454.978 -1.27551 -3.00663 0
M  V30 5031 H 453.637 -3.11655 -1.93045 0
M  V30 5032 H 453.285 -2.54379 -4.33936 0
M  V30 5033 H 452.985 -4.27297 -4.0335 0
M  V30 5034 H 454.509 -3.7592 -4.81161 0
M  V30 5035 H 455.923 -4.95637 -2.88127 0
M  V30 5036 H 454.32 -5.52828 -2.33456 0
M  V30 5037 H 455.39 -4.70115 -1.18827 0
M  V30 5038 N 456.733 0.527833 -1.48498 0
M  V30 5039 C 457.666 1.64892 -1.57753 0
M  V30 5040 C 458.644 1.5687 -0.427867 0
M  V30 5041 O 459.828 1.77311 -0.639764 0
M  V30 5042 C 456.955 3.03301 -1.50752 0
M  V30 5043 C 456.001 3.29675 -2.70586 0
M  V30 5044 S 456.834 3.15712 -4.32535 0
M  V30 5045 C 457.99 4.56564 -4.28136 0
M  V30 5046 H 458.223 1.56792 -2.52594 0
M  V30 5047 H 455.756 0.710959 -1.37057 0
M  V30 5048 H 457.714 3.83123 -1.474 0
M  V30 5049 H 456.375 3.08839 -0.572454 0
M  V30 5050 H 455.568 4.3065 -2.61833 0
M  V30 5051 H 455.17 2.57526 -2.71212 0
M  V30 5052 H 457.462 5.48126 -3.98201 0
M  V30 5053 H 458.405 4.70371 -5.29298 0
M  V30 5054 H 458.813 4.35987 -3.58574 0
M  V30 5055 N 458.211 1.37122 0.776871 0
M  V30 5056 C 459.459 1.31787 1.53221 0
M  V30 5057 C 459.78 -0.0987589 1.9475 0
M  V30 5058 O 459.05 -1.0417 1.65908 0
M  V30 5059 H 457.63 0.484839 0.568278 0
M  V30 5060 H 460.292 1.71556 0.924917 0
M  V30 5061 H 459.388 1.95355 2.43398 0
M  V30 5062 N 459.689 -1.00246 1.21608 0
M  V30 5063 C 460.929 -1.75589 1.04631 0
M  V30 5064 C 461.293 -1.87513 -0.412648 0
M  V30 5065 O 462.494 -2.59444 -0.703003 0
M  V30 5066 C 460.765 -3.12893 1.72722 0
M  V30 5067 S 462.324 -4.04095 1.71034 0
M  V30 5068 H 459.142 -0.604133 0.374892 0
M  V30 5069 H 461.744 -1.19927 1.54395 0
M  V30 5070 H 460.448 -3.0185 2.78055 0
M  V30 5071 H 459.979 -3.73628 1.23149 0
M  V30 5072 H 461.994 -4.9045 0.753231 0
M  V30 5073 N 461.167 -1.02423 -1.1978 0
M  V30 5074 C 462.414 -0.717988 -1.89344 0
M  V30 5075 C 462.742 0.753036 -1.79331 0
M  V30 5076 O 461.997 1.56355 -1.17692 0
M  V30 5077 C 462.296 -1.1088 -3.39765 0
M  V30 5078 C 461.962 -2.57731 -3.6998 0
M  V30 5079 C 460.624 -2.97854 -3.77937 0
M  V30 5080 C 462.976 -3.52763 -3.83677 0
M  V30 5081 C 460.304 -4.31931 -3.97054 0
M  V30 5082 C 462.656 -4.86538 -4.04306 0
M  V30 5083 C 461.32 -5.26356 -4.10494 0
M  V30 5084 H 460.59 -0.26273 -0.692859 0
M  V30 5085 H 463.237 -1.28623 -1.41875 0
M  V30 5086 H 461.542 -0.459094 -3.89101 0
M  V30 5087 H 463.239 -0.849432 -3.919 0
M  V30 5088 H 459.829 -2.25646 -3.64393 0
M  V30 5089 H 464.013 -3.2292 -3.76877 0
M  V30 5090 H 459.269 -4.62324 -4.00083 0
M  V30 5091 H 463.443 -5.60093 -4.13846 0
M  V30 5092 H 461.07 -6.3026 -4.2506 0
M  V30 5093 N 462.645 1.35699 -0.801477 0
M  V30 5094 C 463.891 1.99208 -0.380022 0
M  V30 5095 C 464.224 1.63445 1.04878 0
M  V30 5096 O 463.499 0.895223 1.72673 0
M  V30 5097 C 463.782 3.55755 -0.557708 0
M  V30 5098 C 463.635 4.01332 -2.03107 0
M  V30 5099 C 464.954 4.40096 0.0197968 0
M  V30 5100 H 462.073 0.723667 -0.139552 0
M  V30 5101 H 464.715 1.60928 -1.01006 0
M  V30 5102 H 462.865 3.88494 -0.0213741 0
M  V30 5103 H 464.537 3.79026 -2.62939 0
M  V30 5104 H 462.78 3.52429 -2.52936 0
M  V30 5105 H 463.451 5.10234 -2.1063 0
M  V30 5106 H 465.927 4.13786 -0.438179 0
M  V30 5107 H 464.803 5.48735 -0.134477 0
M  V30 5108 H 465.064 4.2786 1.11303 0
M  V30 5109 N 464.123 0.554532 1.47522 0
M  V30 5110 C 465.37 0.029479 2.02479 0
M  V30 5111 C 465.698 -1.31929 1.42916 0
M  V30 5112 O 464.953 -1.87112 0.573385 0
M  V30 5113 C 465.252 -0.115927 3.57212 0
M  V30 5114 C 464.918 1.16161 4.3568 0
M  V30 5115 C 463.58 1.51168 4.56839 0
M  V30 5116 C 465.932 2.0083 4.80954 0
M  V30 5117 C 463.26 2.70696 5.2052 0
M  V30 5118 C 465.612 3.19559 5.45953 0
M  V30 5119 C 464.276 3.54882 5.65345 0
M  V30 5120 H 463.546 0.0107871 0.740921 0
M  V30 5121 H 466.193 0.725506 1.77225 0
M  V30 5122 H 464.498 -0.894902 3.81443 0
M  V30 5123 H 466.195 -0.53749 3.97381 0
M  V30 5124 H 462.785 0.879026 4.19489 0
M  V30 5125 H 466.969 1.75093 4.64388 0
M  V30 5126 H 462.225 2.98236 5.33728 0
M  V30 5127 H 466.399 3.85456 5.79997 0
M  V30 5128 H 464.026 4.47596 6.1446 0
M  V30 5129 N 465.601 -1.54893 0.290851 0
M  V30 5130 C 466.847 -2.0023 -0.321867 0
M  V30 5131 C 467.18 -1.179 -1.54316 0
M  V30 5132 O 466.455 -0.25293 -1.92848 0
M  V30 5133 C 466.738 -3.53456 -0.688515 0
M  V30 5134 C 466.591 -4.46532 0.541209 0
M  V30 5135 C 467.91 -4.13057 -1.51895 0
M  V30 5136 H 465.029 -0.727891 -0.115515 0
M  V30 5137 H 467.671 -1.85722 0.400931 0
M  V30 5138 H 465.821 -3.6595 -1.30433 0
M  V30 5139 H 467.493 -4.4596 1.17973 0
M  V30 5140 H 465.736 -4.17545 1.17636 0
M  V30 5141 H 466.407 -5.51475 0.240675 0
M  V30 5142 H 468.883 -4.03937 -0.99872 0
M  V30 5143 H 467.759 -5.20448 -1.74429 0
M  V30 5144 H 468.02 -3.64284 -2.50498 0
M  V30 5145 N 467.08 -0.0183926 -1.57589 0
M  V30 5146 C 468.327 0.662562 -1.91354 0
M  V30 5147 C 468.655 1.72747 -0.893788 0
M  V30 5148 O 467.91 1.9545 0.0988509 0
M  V30 5149 C 468.209 1.32676 -3.31861 0
M  V30 5150 C 467.875 0.393267 -4.49182 0
M  V30 5151 C 466.537 0.136302 -4.81007 0
M  V30 5152 C 468.889 -0.248366 -5.20608 0
M  V30 5153 C 466.217 -0.770282 -5.81621 0
M  V30 5154 C 468.569 -1.14294 -6.22189 0
M  V30 5155 C 467.233 -1.4089 -6.52462 0
M  V30 5156 H 466.503 0.242448 -0.700214 0
M  V30 5157 H 469.15 -0.0778629 -1.91342 0
M  V30 5158 H 467.455 2.14168 -3.28084 0
M  V30 5159 H 469.152 1.86001 -3.55253 0
M  V30 5160 H 465.742 0.603723 -4.24327 0
M  V30 5161 H 469.926 -0.062883 -4.9626 0
M  V30 5162 H 465.182 -0.984154 -6.03427 0
M  V30 5163 H 469.356 -1.64637 -6.76659 0
M  V30 5164 H 466.983 -2.11306 -7.30242 0
M  V30 5165 N 468.558 1.5553 0.254621 0
M  V30 5166 C 469.491 1.84624 1.34124 0
M  V30 5167 C 470.469 0.700693 1.46728 0
M  V30 5168 O 471.653 0.94564 1.63064 0
M  V30 5169 C 468.78 2.02412 2.71564 0
M  V30 5170 C 467.826 3.25028 2.7615 0
M  V30 5171 S 468.659 4.81893 2.33538 0
M  V30 5172 C 469.815 5.02677 3.72917 0
M  V30 5173 H 470.048 2.76501 1.09245 0
M  V30 5174 H 467.581 1.47537 0.455211 0
M  V30 5175 H 469.539 2.13345 3.50705 0
M  V30 5176 H 468.2 1.11391 2.93685 0
M  V30 5177 H 467.393 3.34418 3.77069 0
M  V30 5178 H 466.995 3.12781 2.05046 0
M  V30 5179 H 469.287 4.89546 4.68349 0
M  V30 5180 H 470.23 6.0468 3.68467 0
M  V30 5181 H 470.638 4.30561 3.65072 0
M  V30 5182 N 470.036 -0.519951 1.48776 0
M  V30 5183 C 470.999 -1.60574 1.6355 0
M  V30 5184 C 471.999 -1.52557 0.508234 0
M  V30 5185 O 473.189 -1.56047 0.774262 0
M  V30 5186 C 470.321 -3.00211 1.61512 0
M  V30 5187 H 471.514 -1.4881 2.60376 0
M  V30 5188 H 469.067 -0.742772 1.37523 0
M  V30 5189 H 469.802 -3.17471 0.662009 0
M  V30 5190 H 469.587 -3.07439 2.43359 0
M  V30 5191 H 471.077 -3.79134 1.75064 0
M  V30 5192 N 471.514 -1.37532 -0.769588 0
M  V30 5193 C 472.444 -1.36172 -1.89682 0
M  V30 5194 C 473.425 -0.23001 -1.68538 0
M  V30 5195 O 474.61 -0.43069 -1.89364 0
M  V30 5196 C 471.74 -1.1701 -3.26995 0
M  V30 5197 C 470.694 -2.27216 -3.62708 0
M  V30 5198 C 470.02 -1.93174 -4.98586 0
M  V30 5199 C 471.32 -3.6941 -3.69234 0
M  V30 5200 H 473.014 -2.30499 -1.91078 0
M  V30 5201 H 470.56 -1.10953 -0.917902 0
M  V30 5202 H 472.513 -1.14688 -4.05493 0
M  V30 5203 H 471.237 -0.191395 -3.26039 0
M  V30 5204 H 469.896 -2.28697 -2.86519 0
M  V30 5205 H 469.544 -0.938281 -4.94171 0
M  V30 5206 H 469.244 -2.66973 -5.23449 0
M  V30 5207 H 470.768 -1.92443 -5.79481 0
M  V30 5208 H 472.182 -3.70047 -4.37879 0
M  V30 5209 H 470.579 -4.4228 -4.05597 0
M  V30 5210 H 471.649 -4.0288 -2.69844 0
M  V30 5211 N 472.992 0.995999 -1.22138 0
M  V30 5212 C 473.922 2.10387 -1.01289 0
M  V30 5213 C 474.903 1.69975 0.0651454 0
M  V30 5214 O 476.088 1.9396 -0.0964628 0
M  V30 5215 C 473.218 3.42312 -0.586517 0
M  V30 5216 C 472.172 3.96558 -1.61014 0
M  V30 5217 C 471.498 5.24494 -1.0397 0
M  V30 5218 C 472.798 4.27595 -2.99933 0
M  V30 5219 H 474.492 2.28086 -1.93951 0
M  V30 5220 H 472.038 1.09607 -0.933928 0
M  V30 5221 H 473.991 4.19223 -0.427793 0
M  V30 5222 H 472.715 3.24431 0.375761 0
M  V30 5223 H 471.374 3.21776 -1.75658 0
M  V30 5224 H 471.022 5.02953 -0.0688703 0
M  V30 5225 H 470.722 5.61755 -1.72352 0
M  V30 5226 H 472.246 6.04042 -0.892494 0
M  V30 5227 H 473.66 4.95315 -2.8868 0
M  V30 5228 H 472.057 4.76021 -3.6541 0
M  V30 5229 H 473.127 3.35498 -3.50099 0
M  V30 5230 N 474.47 1.03057 1.19235 0
M  V30 5231 C 475.38 0.622922 2.26179 0
M  V30 5232 C 476.396 -0.346113 1.70523 0
M  V30 5233 O 477.572 -0.203572 2.00369 0
M  V30 5234 C 474.637 -0.0182063 3.46695 0
M  V30 5235 C 473.698 0.998546 4.17526 0
M  V30 5236 C 472.931 0.387917 5.32288 0
M  V30 5237 O 473.154 -0.808668 5.64639 0
M  V30 5238 O 472.088 1.1116 5.91546 0
M  V30 5239 H 475.914 1.51363 2.63292 0
M  V30 5240 H 473.499 0.800856 1.26122 0
M  V30 5241 H 475.381 -0.375606 4.19723 0
M  V30 5242 H 474.056 -0.882895 3.11427 0
M  V30 5243 H 472.963 1.40756 3.4661 0
M  V30 5244 H 474.296 1.83366 4.56769 0
M  V30 5245 N 475.948 -1.35272 0.808662 0
M  V30 5246 C 477.178 -2.02652 0.401953 0
M  V30 5247 C 477.586 -1.6108 -0.992462 0
M  V30 5248 O 476.929 -0.804984 -1.65123 0
M  V30 5249 C 476.991 -3.57174 0.408246 0
M  V30 5250 C 476.655 -4.22019 1.75353 0
M  V30 5251 C 477.652 -4.43552 2.71215 0
M  V30 5252 C 475.337 -4.59093 2.03811 0
M  V30 5253 C 477.331 -5.01264 3.93717 0
M  V30 5254 C 475.018 -5.16519 3.26576 0
M  V30 5255 C 476.016 -5.37546 4.21347 0
M  V30 5256 O 475.704 -5.93761 5.41944 0
M  V30 5257 H 475.436 -0.656495 0.161216 0
M  V30 5258 H 477.99 -1.73829 1.0942 0
M  V30 5259 H 476.22 -3.85197 -0.340608 0
M  V30 5260 H 477.909 -4.05893 0.0235623 0
M  V30 5261 H 478.675 -4.15288 2.50522 0
M  V30 5262 H 474.554 -4.42039 1.30854 0
M  V30 5263 H 478.098 -5.17592 4.67701 0
M  V30 5264 H 473.995 -5.4421 3.47139 0
M  V30 5265 H 474.763 -6.1221 5.43269 0
M  V30 5266 N 477.426 -0.562348 -1.47226 0
M  V30 5267 C 478.389 0.172056 -2.28553 0
M  V30 5268 C 479.389 0.837928 -1.37242 0
M  V30 5269 O 480.579 0.693001 -1.59822 0
M  V30 5270 C 477.711 1.25223 -3.17068 0
M  V30 5271 H 478.904 -0.542401 -2.94954 0
M  V30 5272 H 476.457 -0.319493 -1.53 0
M  V30 5273 H 477.192 1.99892 -2.55369 0
M  V30 5274 H 476.977 0.779515 -3.84273 0
M  V30 5275 H 478.467 1.76791 -3.78332 0
M  V30 5276 N 478.904 1.54736 -0.299062 0
M  V30 5277 C 479.834 2.26409 0.571085 0
M  V30 5278 C 480.815 1.2629 1.13951 0
M  V30 5279 O 482 1.55059 1.16921 0
M  V30 5280 C 479.13 3.00338 1.74396 0
M  V30 5281 C 478.084 4.07588 1.30599 0
M  V30 5282 C 477.41 4.69222 2.56387 0
M  V30 5283 C 478.71 5.20455 0.438645 0
M  V30 5284 H 480.404 2.99388 -0.0266991 0
M  V30 5285 H 477.95 1.43993 -0.0142812 0
M  V30 5286 H 479.903 3.49198 2.35878 0
M  V30 5287 H 478.627 2.24934 2.36796 0
M  V30 5288 H 477.286 3.59575 0.71424 0
M  V30 5289 H 476.934 3.9046 3.17097 0
M  V30 5290 H 476.634 5.41653 2.27784 0
M  V30 5291 H 478.158 5.20844 3.18675 0
M  V30 5292 H 479.572 5.65221 0.959085 0
M  V30 5293 H 477.969 5.99594 0.246466 0
M  V30 5294 H 479.039 4.8192 -0.536738 0
M  V30 5295 N 480.382 0.0267497 1.57577 0
M  V30 5296 C 481.628 -0.653371 1.91987 0
M  V30 5297 C 481.961 -1.71915 0.903263 0
M  V30 5298 O 481.236 -1.94358 -0.0743387 0
M  V30 5299 C 481.519 -1.272 3.36886 0
M  V30 5300 C 481.372 -0.215938 4.49281 0
M  V30 5301 C 482.691 -2.19069 3.81703 0
M  V30 5302 H 479.81 -0.236047 0.698177 0
M  V30 5303 H 482.452 0.0835236 1.89816 0
M  V30 5304 H 480.602 -1.90005 3.38866 0
M  V30 5305 H 482.274 0.41449 4.59434 0
M  V30 5306 H 480.517 0.458855 4.31366 0
M  V30 5307 H 481.188 -0.688347 5.47691 0
M  V30 5308 H 483.664 -1.66253 3.81444 0
M  V30 5309 H 482.54 -2.59307 4.83788 0
M  V30 5310 H 482.801 -3.08087 3.17072 0
M  V30 5311 N 481.861 -1.55662 -0.24637 0
M  V30 5312 C 482.809 -1.91186 -1.3248 0
M  V30 5313 C 483.803 -0.790996 -1.49799 0
M  V30 5314 O 485.009 -0.975617 -1.51267 0
M  V30 5315 H 481.384 -0.607207 -0.443626 0
M  V30 5316 H 483.355 -2.81221 -0.997853 0
M  V30 5317 C 482.104 -2.22349 -2.67313 0
M  V30 5318 H 481.427 -3.08097 -2.54786 0
M  V30 5319 H 482.867 -2.51107 -3.41645 0
M  V30 5320 C 481.326 -1.04001 -3.20446 0
M  V30 5321 O 481.856 -0.28828 -4.00664 0
M  V30 5322 N 480.062 -0.830494 -2.7848 0
M  V30 5323 H 479.609 -1.4435 -2.13356 0
M  V30 5324 H 479.567 -0.0403258 -3.14374 0
M  V30 5325 N 483.339 0.512053 -1.4905 0
M  V30 5326 C 484.569 1.28928 -1.61434 0
M  V30 5327 C 484.977 1.87107 -0.280647 0
M  V30 5328 O 484.32 1.68024 0.742537 0
M  V30 5329 C 484.382 2.466 -2.61588 0
M  V30 5330 C 484.046 2.09375 -4.06216 0
M  V30 5331 C 485.043 1.63994 -4.93358 0
M  V30 5332 C 482.728 2.19348 -4.51876 0
M  V30 5333 C 484.722 1.29076 -6.24194 0
M  V30 5334 C 482.409 1.84041 -5.82728 0
M  V30 5335 C 483.407 1.38978 -6.68711 0
M  V30 5336 O 483.095 1.04144 -7.97126 0
M  V30 5337 H 482.827 0.397668 -0.546659 0
M  V30 5338 H 485.381 0.622507 -1.9574 0
M  V30 5339 H 483.611 3.16318 -2.22441 0
M  V30 5340 H 485.3 3.08642 -2.63619 0
M  V30 5341 H 486.066 1.55744 -4.59313 0
M  V30 5342 H 481.945 2.53376 -3.85125 0
M  V30 5343 H 485.489 0.938303 -6.91261 0
M  V30 5344 H 481.386 1.91938 -6.16304 0
M  V30 5345 H 482.154 1.17387 -8.10039 0
M  V30 5346 N 484.817 1.37938 0.762283 0
M  V30 5347 C 486.066 1.32989 1.51647 0
M  V30 5348 C 486.379 -0.0802922 1.95435 0
M  V30 5349 O 487.585 -0.252295 2.70325 0
M  V30 5350 C 486.041 2.33485 2.73885 0
M  V30 5351 C 485.649 3.80079 2.37157 0
M  V30 5352 C 487.393 2.37563 3.51801 0
M  V30 5353 C 485.3 4.72283 3.55954 0
M  V30 5354 H 484.23 0.494301 0.56937 0
M  V30 5355 H 486.881 1.63448 0.834083 0
M  V30 5356 H 485.263 1.96056 3.44061 0
M  V30 5357 H 486.437 4.26398 1.74704 0
M  V30 5358 H 484.752 3.79037 1.72395 0
M  V30 5359 H 487.349 3.0365 4.40114 0
M  V30 5360 H 487.692 1.39199 3.92338 0
M  V30 5361 H 488.225 2.73747 2.8863 0
M  V30 5362 H 484.964 5.7181 3.2049 0
M  V30 5363 H 484.484 4.30663 4.1748 0
M  V30 5364 H 486.163 4.89876 4.22647 0
M  V30 5365 N 486.295 -0.989507 1.22664 0
M  V30 5366 C 487.542 -1.72953 1.05325 0
M  V30 5367 C 487.87 -1.90104 -0.411168 0
M  V30 5368 O 487.125 -1.44386 -1.32103 0
M  V30 5369 C 487.424 -3.13649 1.71345 0
M  V30 5370 C 487.09 -3.16403 3.21248 0
M  V30 5371 C 485.752 -3.16862 3.62149 0
M  V30 5372 C 488.104 -3.12428 4.17179 0
M  V30 5373 C 485.432 -3.11051 4.97458 0
M  V30 5374 C 487.784 -3.08159 5.52468 0
M  V30 5375 C 486.448 -3.06935 5.92746 0
M  V30 5376 H 485.718 -0.632881 0.385412 0
M  V30 5377 H 488.365 -1.15863 1.52473 0
M  V30 5378 H 486.67 -3.74069 1.16532 0
M  V30 5379 H 488.367 -3.69658 1.55416 0
M  V30 5380 H 484.957 -3.16798 2.88682 0
M  V30 5381 H 489.141 -3.11221 3.86595 0
M  V30 5382 H 484.397 -3.0845 5.27891 0
M  V30 5383 H 488.571 -3.04039 6.26525 0
M  V30 5384 H 486.198 -3.02186 6.97558 0
M  V30 5385 N 487.773 -1.03688 -1.18687 0
M  V30 5386 C 489.02 -0.73803 -1.88572 0
M  V30 5387 C 489.348 0.733973 -1.8012 0
M  V30 5388 O 488.603 1.55098 -1.19344 0
M  V30 5389 C 488.902 -1.14477 -3.3857 0
M  V30 5390 C 488.568 -2.61641 -3.67226 0
M  V30 5391 C 487.23 -3.01846 -3.74757 0
M  V30 5392 C 489.582 -3.56812 -3.79914 0
M  V30 5393 C 486.91 -4.36118 -3.92451 0
M  V30 5394 C 489.262 -4.90799 -3.99123 0
M  V30 5395 C 487.926 -5.3068 -4.04888 0
M  V30 5396 H 487.196 -0.270064 -0.690034 0
M  V30 5397 H 489.843 -1.3012 -1.40503 0
M  V30 5398 H 488.148 -0.500337 -3.88592 0
M  V30 5399 H 489.845 -0.89095 -3.90977 0
M  V30 5400 H 486.435 -2.29498 -3.61979 0
M  V30 5401 H 490.619 -3.26899 -3.73431 0
M  V30 5402 H 485.875 -4.66542 -3.95157 0
M  V30 5403 H 490.049 -5.64451 -4.07882 0
M  V30 5404 H 487.676 -6.34733 -4.18351 0
M  V30 5405 N 489.251 1.34841 -0.815825 0
M  V30 5406 C 490.499 1.98107 -0.399744 0
M  V30 5407 C 490.82 1.65019 1.03894 0
M  V30 5408 O 490.09 0.937311 1.72021 0
M  V30 5409 H 488.67 0.732827 -0.144823 0
M  V30 5410 H 491.332 1.64599 -1.0437 0
M  V30 5411 H 490.428 3.07856 -0.512965 0
M  V30 5412 N 490.729 0.570148 1.46925 0
M  V30 5413 C 492.145 0.23087 1.57921 0
M  V30 5414 C 492.345 -1.26676 1.56702 0
M  V30 5415 O 491.401 -2.04774 1.47729 0
M  V30 5416 C 492.714 0.868973 2.8787 0
M  V30 5417 C 494.262 0.841397 3.01479 0
M  V30 5418 C 494.737 1.45881 4.34146 0
M  V30 5419 N 496.228 1.42258 4.40814 0
M  V30 5420 C 496.963 1.8698 5.42057 0
M  V30 5421 N 496.459 2.39618 6.50042 0
M  V30 5422 N 498.252 1.77972 5.33181 0
M  V30 5423 H 490.403 1.54301 1.45962 0
M  V30 5424 H 492.666 0.644224 0.69547 0
M  V30 5425 H 492.372 1.922 2.94537 0
M  V30 5426 H 492.246 0.369682 3.75384 0
M  V30 5427 H 494.633 -0.202973 2.94401 0
M  V30 5428 H 494.714 1.37858 2.15474 0
M  V30 5429 H 494.358 2.50231 4.4198 0
M  V30 5430 H 494.288 0.896958 5.18905 0
M  V30 5431 H 496.779 1.03768 3.63374 0
M  V30 5432 H 497.092 2.71633 7.23488 0
M  V30 5433 H 495.437 2.43636 6.50897 0
M  V30 5434 H 498.628 1.36617 4.4772 0
M  V30 5435 H 498.801 2.13143 6.11943 0
M  V30 5436 N 492.207 -1.54576 0.307264 0
M  V30 5437 C 493.455 -1.99867 -0.299574 0
M  V30 5438 C 493.776 -1.19714 -1.53927 0
M  V30 5439 O 493.046 -0.29472 -1.9367 0
M  V30 5440 H 491.626 -0.738299 -0.113683 0
M  V30 5441 H 494.288 -1.9032 0.420042 0
M  V30 5442 H 493.384 -3.06901 -0.567283 0
M  V30 5443 N 493.685 -0.035106 -1.57561 0
M  V30 5444 C 495.096 0.502885 -1.798 0
M  V30 5445 C 495.447 1.71892 -0.945921 0
M  V30 5446 O 494.572 2.15822 -0.157991 0
M  V30 5447 C 495.167 0.919097 -3.26095 0
M  V30 5448 C 493.726 1.40216 -3.49308 0
M  V30 5449 C 492.873 0.369709 -2.74824 0
M  V30 5450 H 495.824 -0.261102 -1.56537 0
M  V30 5451 H 495.845 1.78308 -3.36135 0
M  V30 5452 H 495.357 0.0338526 -3.88085 0
M  V30 5453 H 493.458 2.30714 -2.92578 0
M  V30 5454 H 493.571 1.40541 -4.58023 0
M  V30 5455 H 491.935 0.839113 -2.40481 0
M  V30 5456 H 492.718 -0.507173 -3.39533 0
M  V30 5457 N 495.163 1.55791 0.238111 0
M  V30 5458 C 496.095 1.87513 1.31802 0
M  V30 5459 C 497.108 0.762053 1.43863 0
M  V30 5460 O 498.297 1.04024 1.45056 0
M  V30 5461 C 495.397 2.05402 2.69561 0
M  V30 5462 C 494.57 3.3632 2.79656 0
M  V30 5463 C 493.629 3.43844 3.98319 0
M  V30 5464 O 492.655 4.16994 3.87433 0
M  V30 5465 N 493.857 2.73777 5.11885 0
M  V30 5466 H 496.622 2.80734 1.04922 0
M  V30 5467 H 494.183 1.56135 0.428196 0
M  V30 5468 H 496.175 2.07769 3.47296 0
M  V30 5469 H 494.745 1.18884 2.89111 0
M  V30 5470 H 493.965 3.46195 1.88528 0
M  V30 5471 H 495.253 4.22594 2.83358 0
M  V30 5472 H 494.651 2.14094 5.23622 0
M  V30 5473 H 493.208 2.81825 5.87723 0
M  V30 5474 N 496.642 -0.504142 1.49319 0
M  V30 5475 C 498.058 -0.835039 1.36012 0
M  V30 5476 C 498.258 -1.97674 0.390808 0
M  V30 5477 O 497.314 -2.51867 -0.178655 0
M  V30 5478 C 498.627 -1.17821 2.76656 0
M  V30 5479 C 500.175 -1.2866 2.85334 0
M  V30 5480 C 500.65 -1.66307 4.26739 0
M  V30 5481 N 502.141 -1.73362 4.29534 0
M  V30 5482 C 502.876 -2.0393 5.35911 0
M  V30 5483 N 502.372 -2.32744 6.52535 0
M  V30 5484 N 504.165 -2.05155 5.23324 0
M  V30 5485 H 496.316 0.248764 2.10938 0
M  V30 5486 H 498.579 0.0486962 0.946748 0
M  V30 5487 H 498.285 -0.412682 3.4927 0
M  V30 5488 H 498.159 -2.12239 3.11825 0
M  V30 5489 H 500.546 -2.04285 2.1296 0
M  V30 5490 H 500.627 -0.323004 2.53752 0
M  V30 5491 H 500.271 -0.91234 4.99639 0
M  V30 5492 H 500.201 -2.63761 4.55782 0
M  V30 5493 H 502.692 -1.53268 3.45424 0
M  V30 5494 H 503.005 -2.55248 7.2943 0
M  V30 5495 H 501.35 -2.30207 6.55767 0
M  V30 5496 H 504.541 -1.82119 4.3122 0
M  V30 5497 H 504.714 -2.28644 6.06322 0
M  V30 5498 N 498.12 -1.38341 -0.754957 0
M  V30 5499 C 499.052 -1.31347 -1.87831 0
M  V30 5500 C 500.065 -0.225955 -1.61224 0
M  V30 5501 O 501.254 -0.48341 -1.7183 0
M  V30 5502 C 498.354 -1.01201 -3.23437 0
M  V30 5503 C 497.527 -2.20834 -3.77559 0
M  V30 5504 C 496.586 -1.87454 -4.91678 0
M  V30 5505 O 495.612 -2.59934 -5.06382 0
M  V30 5506 N 496.814 -0.828682 -5.74555 0
M  V30 5507 H 499.579 -2.28147 -1.94342 0
M  V30 5508 H 497.14 -1.32184 -0.934828 0
M  V30 5509 H 499.132 -0.769249 -3.97322 0
M  V30 5510 H 497.702 -0.132011 -3.12321 0
M  V30 5511 H 496.922 -2.61184 -2.95256 0
M  V30 5512 H 498.21 -3.00678 -4.10451 0
M  V30 5513 H 497.608 -0.227591 -5.65242 0
M  V30 5514 H 496.165 -0.645802 -6.48593 0
M  V30 5515 N 499.598 0.982988 -1.23187 0
M  V30 5516 C 500.545 2.07491 -1.01075 0
M  V30 5517 C 501.515 1.65949 0.070905 0
M  V30 5518 O 502.7 1.90629 -0.0806822 0
M  V30 5519 C 499.84 3.39751 -0.605261 0
M  V30 5520 C 498.953 3.94578 -1.75876 0
M  V30 5521 C 498.088 5.15039 -1.3003 0
M  V30 5522 C 497.127 5.62027 -2.42472 0
M  V30 5523 N 496.264 6.73719 -1.97602 0
M  V30 5524 H 501.104 2.25739 -1.9454 0
M  V30 5525 H 498.641 1.10659 -0.969179 0
M  V30 5526 H 500.599 4.15719 -0.351279 0
M  V30 5527 H 499.229 3.21473 0.292382 0
M  V30 5528 H 498.281 3.1539 -2.12681 0
M  V30 5529 H 499.593 4.25422 -2.60418 0
M  V30 5530 H 498.747 5.9833 -1.00429 0
M  V30 5531 H 497.486 4.85843 -0.425216 0
M  V30 5532 H 496.491 4.77318 -2.7285 0
M  V30 5533 H 497.716 5.93244 -3.30512 0
M  V30 5534 H 495.662 6.46287 -1.1247 0
M  V30 5535 H 495.579 7.03934 -2.75705 0
M  V30 5536 H 496.847 7.6049 -1.71098 0
M  V30 5537 N 501.076 1.04316 1.18135 0
M  V30 5538 C 502.023 0.636398 2.21853 0
M  V30 5539 C 502.993 -0.357039 1.62217 0
M  V30 5540 O 504.178 -0.250453 1.89149 0
M  V30 5541 C 501.318 0.00812779 3.45099 0
M  V30 5542 C 500.431 1.04933 4.19062 0
M  V30 5543 C 499.566 0.389313 5.29771 0
M  V30 5544 C 498.605 1.41544 5.9551 0
M  V30 5545 N 497.742 0.78021 6.97751 0
M  V30 5546 H 502.582 1.52536 2.56002 0
M  V30 5547 H 500.119 0.76304 1.25762 0
M  V30 5548 H 502.077 -0.373497 4.15525 0
M  V30 5549 H 500.707 -0.844336 3.11562 0
M  V30 5550 H 499.759 1.54888 3.47439 0
M  V30 5551 H 501.071 1.82862 4.64072 0
M  V30 5552 H 500.225 -0.0463805 6.06682 0
M  V30 5553 H 498.964 -0.422038 4.8587 0
M  V30 5554 H 497.969 1.86124 5.17337 0
M  V30 5555 H 499.194 2.22854 6.41493 0
M  V30 5556 H 497.14 -0.0107899 6.55999 0
M  V30 5557 H 497.057 1.49716 7.41027 0
M  V30 5558 H 498.325 0.368996 7.78626 0
M  V30 5559 N 502.554 -1.34406 0.822964 0
M  V30 5560 C 503.517 -2.2783 0.250271 0
M  V30 5561 C 504.517 -1.50288 -0.571854 0
M  V30 5562 O 505.707 -1.69825 -0.387952 0
M  V30 5563 C 502.839 -3.34663 -0.649137 0
M  V30 5564 H 504.032 -2.79992 1.07444 0
M  V30 5565 H 501.585 -1.44539 0.594829 0
M  V30 5566 H 502.32 -2.87714 -1.49637 0
M  V30 5567 H 502.105 -3.92052 -0.0611199 0
M  V30 5568 H 503.595 -4.04349 -1.04363 0
M  V30 5569 N 504.032 -0.577932 -1.46621 0
M  V30 5570 C 504.995 0.147805 -2.28723 0
M  V30 5571 C 505.995 0.823325 -1.38123 0
M  V30 5572 O 507.185 0.676011 -1.60548 0
M  V30 5573 C 504.317 1.21853 -3.18378 0
M  V30 5574 H 505.51 -0.573654 -2.94362 0
M  V30 5575 H 503.063 -0.335703 -1.52652 0
M  V30 5576 H 503.798 1.97173 -2.57475 0
M  V30 5577 H 503.583 0.738714 -3.85078 0
M  V30 5578 H 505.073 1.72768 -3.80186 0
M  V30 5579 N 505.51 1.54411 -0.315457 0
M  V30 5580 C 506.42 2.27737 0.56329 0
M  V30 5581 C 507.436 1.31787 1.13614 0
M  V30 5582 O 508.612 1.64791 1.15784 0
M  V30 5583 C 505.677 3.01478 1.71207 0
M  V30 5584 C 504.738 4.12997 1.17185 0
M  V30 5585 C 503.971 4.83212 2.26588 0
M  V30 5586 O 504.194 4.52884 3.46775 0
M  V30 5587 O 503.128 5.70299 1.92463 0
M  V30 5588 H 506.954 3.03683 -0.0319614 0
M  V30 5589 H 504.539 1.49178 -0.0814188 0
M  V30 5590 H 506.421 3.47683 2.38106 0
M  V30 5591 H 505.096 2.28414 2.29366 0
M  V30 5592 H 504.003 3.71159 0.468174 0
M  V30 5593 H 505.336 4.8808 0.635501 0
M  V30 5594 N 506.988 0.0434614 1.5754 0
M  V30 5595 C 507.935 -0.93356 2.11077 0
M  V30 5596 C 508.905 -1.31383 1.01626 0
M  V30 5597 O 510.09 -1.40465 1.29129 0
M  V30 5598 C 507.23 -2.20578 2.65404 0
M  V30 5599 C 506.343 -1.88068 3.88914 0
M  V30 5600 C 505.478 -3.09691 4.31584 0
M  V30 5601 C 504.517 -2.73067 5.47815 0
M  V30 5602 N 503.654 -3.87359 5.85574 0
M  V30 5603 H 508.494 -0.470118 2.94268 0
M  V30 5604 H 506.031 -0.220434 1.45439 0
M  V30 5605 H 507.989 -2.95011 2.94999 0
M  V30 5606 H 506.619 -2.64513 1.85021 0
M  V30 5607 H 505.671 -1.03816 3.6596 0
M  V30 5608 H 506.983 -1.57104 4.73413 0
M  V30 5609 H 506.137 -3.92431 4.62691 0
M  V30 5610 H 504.876 -3.43827 3.45882 0
M  V30 5611 H 503.881 -1.88742 5.16388 0
M  V30 5612 H 505.106 -2.40131 6.35227 0
M  V30 5613 H 503.052 -4.21311 5.02825 0
M  V30 5614 H 502.969 -3.60068 6.64746 0
M  V30 5615 H 504.237 -4.70761 6.21292 0
M  V30 5616 N 508.466 -1.55915 -0.229846 0
M  V30 5617 C 509.429 -1.90914 -1.26824 0
M  V30 5618 C 510.429 -0.786999 -1.40225 0
M  V30 5619 O 511.619 -1.05484 -1.38632 0
M  V30 5620 C 508.751 -2.15264 -2.64337 0
M  V30 5621 H 509.944 -2.8378 -0.969998 0
M  V30 5622 H 507.497 -1.49069 -0.4699 0
M  V30 5623 H 508.232 -1.24923 -2.99274 0
M  V30 5624 H 508.017 -2.97005 -2.55989 0
M  V30 5625 H 509.507 -2.43467 -3.39284 0
M  V30 5626 N 509.944 0.496216 -1.49584 0
M  V30 5627 C 510.907 1.57952 -1.66084 0
M  V30 5628 C 511.907 1.51729 -0.53244 0
M  V30 5629 O 513.097 1.54796 -0.79899 0
M  V30 5630 C 510.229 2.97604 -1.66268 0
M  V30 5631 H 511.422 1.44649 -2.6271 0
M  V30 5632 H 508.975 0.7208 -1.38687 0
M  V30 5633 H 509.71 3.16378 -0.712432 0
M  V30 5634 H 509.495 3.03528 -2.4822 0
M  V30 5635 H 510.985 3.76301 -1.81073 0
M  V30 5636 N 511.423 1.38739 0.74761 0
M  V30 5637 C 512.648 1.38702 1.54197 0
M  V30 5638 C 513.073 -0.019664 1.8809 0
M  V30 5639 O 512.431 -1.00333 1.51006 0
M  V30 5640 C 512.479 2.25492 2.814 0
M  V30 5641 O 511.583 1.67613 3.76802 0
M  V30 5642 H 510.924 0.472863 0.466151 0
M  V30 5643 H 513.454 1.82577 0.923413 0
M  V30 5644 H 513.464 2.39561 3.30264 0
M  V30 5645 H 512.139 3.27727 2.56062 0
M  V30 5646 H 510.716 1.62718 3.35526 0
M  V30 5647 N 512.901 -0.976442 1.23707 0
M  V30 5648 C 513.864 -2.0511 1.02287 0
M  V30 5649 C 514.864 -1.60791 -0.0167195 0
M  V30 5650 O 516.054 -1.72761 0.223408 0
M  V30 5651 C 513.186 -3.36458 0.548507 0
M  V30 5652 H 514.379 -2.25545 1.9766 0
M  V30 5653 H 511.932 -1.15042 1.05806 0
M  V30 5654 H 512.667 -3.21713 -0.408818 0
M  V30 5655 H 512.452 -3.69967 1.29874 0
M  V30 5656 H 513.942 -4.15489 0.419406 0
M  V30 5657 N 514.379 -1.04941 -1.1758 0
M  V30 5658 C 515.327 -0.64204 -2.23563 0
M  V30 5659 C 516.321 0.335453 -1.66045 0
M  V30 5660 O 517.527 0.20179 -1.78865 0
M  V30 5661 H 513.902 -0.18944 -0.727748 0
M  V30 5662 H 515.873 -1.54609 -2.55223 0
M  V30 5663 C 514.622 -0.0301051 -3.47687 0
M  V30 5664 H 513.945 -0.773339 -3.92249 0
M  V30 5665 H 515.385 0.217592 -4.23441 0
M  V30 5666 C 513.844 1.2225 -3.13937 0
M  V30 5667 O 514.374 2.3122 -3.28482 0
M  V30 5668 N 512.58 1.11917 -2.68185 0
M  V30 5669 H 512.127 0.232403 -2.5655 0
M  V30 5670 H 512.085 1.95814 -2.45976 0
M  V30 5671 N 515.857 1.33968 -0.830081 0
M  V30 5672 C 516.805 2.31301 -0.245435 0
M  V30 5673 C 517.799 1.57734 0.617762 0
M  V30 5674 O 519.005 1.72674 0.508303 0
M  V30 5675 H 515.38 0.749552 -0.0606316 0
M  V30 5676 H 517.351 2.78129 -1.08105 0
M  V30 5677 C 516.1 3.42961 0.572084 0
M  V30 5678 H 515.423 3.99714 -0.0828118 0
M  V30 5679 H 516.863 4.13286 0.94715 0
M  V30 5680 C 515.322 2.88043 1.74737 0
M  V30 5681 O 515.852 2.83508 2.8458 0
M  V30 5682 N 514.058 2.44768 1.56642 0
M  V30 5683 H 513.605 2.48656 0.672901 0
M  V30 5684 H 513.563 2.08375 2.3543 0
M  V30 5685 N 517.335 0.585699 1.46312 0
M  V30 5686 C 518.245 -0.148236 2.34131 0
M  V30 5687 C 519.261 -0.882972 1.49932 0
M  V30 5688 O 520.437 -0.845484 1.82794 0
M  V30 5689 C 517.502 -1.14714 3.27172 0
M  V30 5690 C 516.563 -0.416746 4.27272 0
M  V30 5691 C 515.796 -1.36806 5.15868 0
M  V30 5692 O 516.019 -2.60475 5.07454 0
M  V30 5693 O 514.953 -0.877018 5.95476 0
M  V30 5694 H 518.779 0.572882 2.98248 0
M  V30 5695 H 516.364 0.346082 1.45336 0
M  V30 5696 H 518.246 -1.72303 3.84564 0
M  V30 5697 H 516.921 -1.84967 2.65648 0
M  V30 5698 H 515.828 0.201061 3.73559 0
M  V30 5699 H 517.161 0.244872 4.9159 0
M  V30 5700 N 518.813 -1.54241 0.323641 0
M  V30 5701 C 519.76 -2.24339 -0.542277 0
M  V30 5702 C 520.73 -1.23421 -1.11159 0
M  V30 5703 O 521.915 -1.52104 -1.15192 0
M  V30 5704 C 519.055 -3.00479 -1.69725 0
M  V30 5705 C 518.168 -4.16214 -1.15716 0
M  V30 5706 C 517.303 -4.79884 -2.27783 0
M  V30 5707 C 516.342 -5.87722 -1.71023 0
M  V30 5708 N 515.479 -6.45254 -2.76752 0
M  V30 5709 H 520.319 -2.97935 0.0620613 0
M  V30 5710 H 517.856 -1.47039 0.0423993 0
M  V30 5711 H 519.814 -3.42869 -2.3769 0
M  V30 5712 H 518.444 -2.29217 -2.27288 0
M  V30 5713 H 517.496 -3.78605 -0.369063 0
M  V30 5714 H 518.808 -4.93838 -0.701832 0
M  V30 5715 H 517.962 -5.25243 -3.03651 0
M  V30 5716 H 516.701 -4.01641 -2.76652 0
M  V30 5717 H 515.706 -5.41765 -0.936518 0
M  V30 5718 H 516.931 -6.67863 -1.2303 0
M  V30 5719 H 514.877 -5.69884 -3.24912 0
M  V30 5720 H 514.794 -7.18292 -2.35782 0
M  V30 5721 H 516.062 -6.95269 -3.5245 0
M  V30 5722 N 520.291 -0.0518155 -1.57515 0
M  V30 5723 C 521.224 0.957758 -2.07129 0
M  V30 5724 C 522.202 1.30355 -0.971927 0
M  V30 5725 O 523.386 1.41631 -1.2439 0
M  V30 5726 C 520.513 2.27157 -2.51232 0
M  V30 5727 C 519.559 2.07879 -3.72409 0
M  V30 5728 S 520.392 1.35656 -5.18033 0
M  V30 5729 C 521.548 2.68359 -5.65451 0
M  V30 5730 H 521.781 0.53552 -2.92437 0
M  V30 5731 H 519.314 0.160465 -1.53564 0
M  V30 5732 H 521.272 3.02676 -2.77304 0
M  V30 5733 H 519.933 2.66509 -1.66228 0
M  V30 5734 H 519.126 3.05061 -4.01191 0
M  V30 5735 H 518.728 1.40499 -3.46606 0
M  V30 5736 H 521.02 3.64526 -5.71076 0
M  V30 5737 H 521.963 2.44213 -6.64654 0
M  V30 5738 H 522.371 2.74647 -4.93183 0
M  V30 5739 N 521.769 1.56035 0.221574 0
M  V30 5740 C 523.185 1.49026 0.571271 0
M  V30 5741 C 523.385 0.746912 1.87146 0
M  V30 5742 O 522.441 0.286566 2.50869 0
M  V30 5743 C 523.754 2.93579 0.650522 0
M  V30 5744 C 525.302 3.04099 0.741151 0
M  V30 5745 C 525.777 4.5001 0.851747 0
M  V30 5746 N 527.268 4.54053 0.915968 0
M  V30 5747 C 528.003 5.64232 1.02125 0
M  V30 5748 N 527.499 6.84164 1.09049 0
M  V30 5749 N 529.292 5.52084 1.05639 0
M  V30 5750 H 521.443 2.02791 -0.63162 0
M  V30 5751 H 523.706 0.921736 -0.221602 0
M  V30 5752 H 523.412 3.50912 -0.235253 0
M  V30 5753 H 523.286 3.45476 1.51413 0
M  V30 5754 H 525.673 2.4683 1.61737 0
M  V30 5755 H 525.754 2.55371 -0.148128 0
M  V30 5756 H 525.398 5.07896 -0.0200117 0
M  V30 5757 H 525.328 4.96444 1.75644 0
M  V30 5758 H 527.819 3.67683 0.872782 0
M  V30 5759 H 528.132 7.63883 1.1706 0
M  V30 5760 H 526.477 6.86875 1.05962 0
M  V30 5761 H 529.668 4.57317 0.998953 0
M  V30 5762 H 529.841 6.37983 1.13498 0
M  V30 5763 N 523.247 -0.488276 1.49845 0
M  V30 5764 C 524.177 -1.59675 1.70371 0
M  V30 5765 C 525.158 -1.60878 0.552473 0
M  V30 5766 O 526.343 -1.77417 0.78973 0
M  V30 5767 C 523.473 -2.98098 1.782 0
M  V30 5768 C 522.427 -3.11761 2.93239 0
M  V30 5769 C 521.753 -4.51661 2.86193 0
M  V30 5770 C 523.053 -2.90589 4.33999 0
M  V30 5771 H 524.747 -1.42752 2.63177 0
M  V30 5772 H 522.293 -0.685317 1.26647 0
M  V30 5773 H 524.246 -3.75555 1.91144 0
M  V30 5774 H 522.97 -3.16138 0.820018 0
M  V30 5775 H 521.629 -2.36732 2.79917 0
M  V30 5776 H 521.277 -4.66595 1.87877 0
M  V30 5777 H 520.977 -4.61742 3.63412 0
M  V30 5778 H 522.501 -5.31162 3.01163 0
M  V30 5779 H 523.915 -3.57807 4.47936 0
M  V30 5780 H 522.312 -3.1213 5.12538 0
M  V30 5781 H 523.382 -1.86595 4.4756 0
M  V30 5782 N 524.725 -1.39134 -0.740242 0
M  V30 5783 C 526.002 -1.26584 -1.49117 0
M  V30 5784 C 526.382 0.126902 -2.10718 0
M  V30 5785 O 525.73 1.13765 -1.98166 0
M  V30 5786 C 525.94 -2.38619 -2.54681 0
M  V30 5787 C 527.288 -2.77685 -3.21211 0
M  V30 5788 O 528.312 -2.38029 -2.64991 0
M  V30 5789 O 527.171 -3.46115 -4.22926 0
M  V30 5790 H 524.265 -0.495769 -0.661923 0
M  V30 5791 H 526.811 -1.50995 -0.774514 0
M  V30 5792 H 525.583 -3.3175 -2.07504 0
M  V30 5793 H 525.206 -2.15845 -3.33911 0
M  V30 5794 N 526.204 0.969867 -1.24223 0
M  V30 5795 C 527.45 1.7151 -1.08223 0
M  V30 5796 C 527.783 1.90478 0.37838 0
M  V30 5797 O 527.058 1.4647 1.27971 0
M  V30 5798 C 527.341 3.10714 -1.82013 0
M  V30 5799 C 527.194 2.9925 -3.35811 0
M  V30 5800 C 528.513 4.10332 -1.59108 0
M  V30 5801 H 525.632 0.622499 -0.394543 0
M  V30 5802 H 528.274 1.1284 -1.52863 0
M  V30 5803 H 526.424 3.608 -1.44068 0
M  V30 5804 H 528.096 2.56608 -3.83341 0
M  V30 5805 H 526.339 2.35512 -3.64303 0
M  V30 5806 H 527.01 3.97857 -3.82641 0
M  V30 5807 H 529.486 3.69097 -1.92111 0
M  V30 5808 H 528.362 5.05804 -2.13198 0
M  V30 5809 H 528.623 4.38926 -0.528832 0
M  V30 5810 N 527.682 1.05563 1.17022 0
M  V30 5811 C 528.63 0.653887 2.2322 0
M  V30 5812 C 529.624 -0.326642 1.66221 0
M  V30 5813 O 530.83 -0.192301 1.7897 0
M  V30 5814 H 527.205 0.193297 0.726733 0
M  V30 5815 H 529.176 1.5596 2.54399 0
M  V30 5816 C 527.925 0.0485434 3.47666 0
M  V30 5817 H 527.248 0.79413 3.91834 0
M  V30 5818 H 528.688 -0.195133 4.23551 0
M  V30 5819 C 527.147 -1.20583 3.14581 0
M  V30 5820 O 527.677 -2.29475 3.29703 0
M  V30 5821 N 525.883 -1.10493 2.68774 0
M  V30 5822 H 525.43 -0.218795 2.56669 0
M  V30 5823 H 525.388 -1.94507 2.47011 0
M  V30 5824 N 529.16 -1.33526 0.837174 0
M  V30 5825 C 530.107 -2.29248 0.267169 0
M  V30 5826 C 531.077 -1.54252 -0.616071 0
M  V30 5827 O 532.262 -1.82559 -0.554699 0
M  V30 5828 C 529.402 -3.40638 -0.553152 0
M  V30 5829 C 528.515 -4.30548 0.353921 0
M  V30 5830 C 527.65 -5.29051 -0.477339 0
M  V30 5831 C 526.689 -6.106 0.42823 0
M  V30 5832 N 525.826 -7.01152 -0.364801 0
M  V30 5833 H 530.666 -2.77398 1.08877 0
M  V30 5834 H 528.203 -1.36496 0.54838 0
M  V30 5835 H 530.161 -4.03921 -1.04422 0
M  V30 5836 H 528.791 -2.93685 -1.33973 0
M  V30 5837 H 527.843 -3.68001 0.963289 0
M  V30 5838 H 529.155 -4.87631 1.04964 0
M  V30 5839 H 528.309 -5.97853 -1.0323 0
M  V30 5840 H 527.048 -4.72541 -1.2065 0
M  V30 5841 H 526.053 -5.40718 0.995219 0
M  V30 5842 H 527.278 -6.69193 1.15573 0
M  V30 5843 H 525.224 -6.47092 -1.07738 0
M  V30 5844 H 525.141 -7.5551 0.272238 0
M  V30 5845 H 526.409 -7.74263 -0.902054 0
M  V30 5846 N 530.638 -0.59345 -1.46 0
M  V30 5847 C 531.887 -0.0808084 -2.01538 0
M  V30 5848 C 532.2 1.29112 -1.46934 0
M  V30 5849 O 533.406 1.8957 -1.94359 0
M  V30 5850 C 531.862 -0.0938311 -3.59778 0
M  V30 5851 C 531.47 -1.46474 -4.23379 0
M  V30 5852 C 533.214 0.364306 -4.22934 0
M  V30 5853 C 531.121 -1.4349 -5.73729 0
M  V30 5854 H 530.051 -0.0264407 -0.753536 0
M  V30 5855 H 532.702 -0.746689 -1.67621 0
M  V30 5856 H 531.084 0.638427 -3.9082 0
M  V30 5857 H 532.258 -2.21758 -4.03931 0
M  V30 5858 H 530.573 -1.86379 -3.7236 0
M  V30 5859 H 533.17 0.405584 -5.3316 0
M  V30 5860 H 533.513 1.38409 -3.92618 0
M  V30 5861 H 534.046 -0.31423 -3.96557 0
M  V30 5862 H 530.785 -2.43184 -6.08722 0
M  V30 5863 H 530.305 -0.724431 -5.95409 0
M  V30 5864 H 531.984 -1.15243 -6.36654 0
M  V30 5865 N 532.116 1.54067 -0.331816 0
M  V30 5866 C 533.363 2.00715 0.268269 0
M  V30 5867 C 533.691 1.21986 1.51491 0
M  V30 5868 O 532.946 0.292309 1.93505 0
M  V30 5869 C 533.245 3.51634 0.639392 0
M  V30 5870 C 532.911 4.48018 -0.509019 0
M  V30 5871 C 531.573 4.74089 -0.824209 0
M  V30 5872 C 533.925 5.05237 -1.28003 0
M  V30 5873 C 531.253 5.54637 -1.91298 0
M  V30 5874 C 533.605 5.86972 -2.35895 0
M  V30 5875 C 532.269 6.11342 -2.67987 0
M  V30 5876 H 531.539 0.734469 0.0981667 0
M  V30 5877 H 534.186 1.8596 -0.457304 0
M  V30 5878 H 532.491 3.6416 1.44551 0
M  V30 5879 H 534.188 3.85175 1.11539 0
M  V30 5880 H 530.778 4.27851 -0.253287 0
M  V30 5881 H 534.962 4.8507 -1.04978 0
M  V30 5882 H 530.218 5.71747 -2.16599 0
M  V30 5883 H 534.392 6.30327 -2.96076 0
M  V30 5884 H 532.019 6.73544 -3.5248 0
M  V30 5885 N 533.594 0.0601682 1.57485 0
M  V30 5886 C 534.824 -0.620037 1.97076 0
M  V30 5887 C 535.232 -1.64381 0.936784 0
M  V30 5888 O 534.575 -1.83497 -0.0863377 0
M  V30 5889 C 534.637 -1.35617 3.32939 0
M  V30 5890 C 534.301 -0.487208 4.54396 0
M  V30 5891 C 535.298 0.250428 5.19297 0
M  V30 5892 C 532.983 -0.415494 5.00579 0
M  V30 5893 C 534.977 1.04812 6.28723 0
M  V30 5894 C 532.664 0.385879 6.0988 0
M  V30 5895 C 533.662 1.11637 6.73815 0
M  V30 5896 O 533.35 1.90454 7.81014 0
M  V30 5897 H 533.082 -0.173664 0.653312 0
M  V30 5898 H 535.636 0.1256 2.05016 0
M  V30 5899 H 533.866 -2.14763 3.2158 0
M  V30 5900 H 535.555 -1.92749 3.57215 0
M  V30 5901 H 536.321 0.204546 4.84568 0
M  V30 5902 H 532.2 -0.973679 4.506 0
M  V30 5903 H 535.744 1.6188 6.78558 0
M  V30 5904 H 531.641 0.433366 6.44044 0
M  V30 5905 H 532.409 1.82762 7.97835 0
M  V30 5906 N 535.072 -1.5615 -0.213296 0
M  V30 5907 C 536.019 -1.93086 -1.26437 0
M  V30 5908 C 536.989 -0.789086 -1.4616 0
M  V30 5909 O 538.174 -1.04569 -1.59593 0
M  V30 5910 C 535.314 -2.26003 -2.608 0
M  V30 5911 C 534.427 -3.53156 -2.48807 0
M  V30 5912 C 533.562 -3.7548 -3.7575 0
M  V30 5913 C 532.601 -4.96119 -3.58514 0
M  V30 5914 N 531.738 -5.14791 -4.77425 0
M  V30 5915 H 536.578 -2.82707 -0.942376 0
M  V30 5916 H 534.115 -1.39919 -0.454001 0
M  V30 5917 H 536.073 -2.431 -3.39055 0
M  V30 5918 H 534.703 -1.39546 -2.91079 0
M  V30 5919 H 533.755 -3.44207 -1.61944 0
M  V30 5920 H 535.067 -4.41565 -2.31996 0
M  V30 5921 H 534.221 -3.92718 -4.62447 0
M  V30 5922 H 532.96 -2.85368 -3.95495 0
M  V30 5923 H 531.965 -4.78823 -2.70201 0
M  V30 5924 H 533.19 -5.87724 -3.40231 0
M  V30 5925 H 531.136 -4.27623 -4.97468 0
M  V30 5926 H 531.053 -5.97347 -4.63371 0
M  V30 5927 H 532.321 -5.36471 -5.65525 0
M  V30 5928 N 536.55 0.480323 -1.50102 0
M  V30 5929 C 537.827 1.24159 -1.51142 0
M  V30 5930 C 538.207 2.09605 -0.250818 0
M  V30 5931 O 537.555 2.15274 0.766118 0
M  V30 5932 C 537.765 2.08057 -2.80202 0
M  V30 5933 C 539.113 2.66556 -3.30504 0
M  V30 5934 O 540.137 2.18308 -2.81461 0
M  V30 5935 O 538.996 3.54442 -4.15973 0
M  V30 5936 H 536.09 0.562928 -0.605839 0
M  V30 5937 H 538.636 0.492899 -1.62384 0
M  V30 5938 H 537.408 1.45032 -3.6343 0
M  V30 5939 H 537.031 2.90079 -2.71919 0
M  V30 5940 N 538.028 1.39524 0.732853 0
M  V30 5941 C 539.277 1.36175 1.48792 0
M  V30 5942 C 539.59 -0.0388195 1.95561 0
M  V30 5943 O 540.796 -0.194899 2.708 0
M  V30 5944 C 539.252 2.39242 2.68871 0
M  V30 5945 C 538.86 3.85024 2.29042 0
M  V30 5946 C 540.604 2.44972 3.46683 0
M  V30 5947 C 538.511 4.79727 3.45856 0
M  V30 5948 H 537.441 0.506267 0.558757 0
M  V30 5949 H 540.092 1.65181 0.799226 0
M  V30 5950 H 538.474 2.0331 3.39825 0
M  V30 5951 H 539.648 4.30008 1.6562 0
M  V30 5952 H 537.963 3.82609 1.64316 0
M  V30 5953 H 540.56 3.12918 4.33574 0
M  V30 5954 H 540.903 1.4749 3.89297 0
M  V30 5955 H 541.436 2.79808 2.82759 0
M  V30 5956 H 538.175 5.78479 3.08289 0
M  V30 5957 H 537.695 4.39421 4.08251 0
M  V30 5958 H 539.374 4.98731 4.12161 0
M  V30 5959 N 539.506 -0.963266 1.24736 0
M  V30 5960 C 540.453 -2.05857 1.04363 0
M  V30 5961 C 541.423 -1.6604 -0.0444951 0
M  V30 5962 O 542.608 -1.90477 0.110999 0
M  V30 5963 C 539.748 -3.38745 0.659235 0
M  V30 5964 C 538.861 -3.9173 1.82131 0
M  V30 5965 C 537.996 -5.12906 1.38208 0
M  V30 5966 C 537.035 -5.58098 2.51382 0
M  V30 5967 N 536.172 -6.7049 2.08295 0
M  V30 5968 H 541.012 -2.22616 1.98107 0
M  V30 5969 H 538.549 -1.09103 0.986661 0
M  V30 5970 H 540.507 -4.15107 0.417371 0
M  V30 5971 H 539.137 -3.21898 -0.241201 0
M  V30 5972 H 538.189 -3.11966 2.17672 0
M  V30 5973 H 539.501 -4.21225 2.67153 0
M  V30 5974 H 538.655 -5.96657 1.09935 0
M  V30 5975 H 537.394 -4.85105 0.502456 0
M  V30 5976 H 536.399 -4.72917 2.80409 0
M  V30 5977 H 537.624 -5.87911 3.39909 0
M  V30 5978 H 535.57 -6.44416 1.22737 0
M  V30 5979 H 535.487 -6.99458 2.86869 0
M  V30 5980 H 536.755 -7.57672 1.83175 0
M  V30 5981 N 540.985 -1.06182 -1.16461 0
M  V30 5982 C 541.917 -0.629584 -2.20383 0
M  V30 5983 C 542.93 0.311834 -1.59786 0
M  V30 5984 O 544.119 0.103 -1.78203 0
M  V30 5985 C 541.219 0.0973695 -3.3876 0
M  V30 5986 C 540.392 -0.857252 -4.28917 0
M  V30 5987 C 539.451 -0.169749 -5.25926 0
M  V30 5988 O 538.477 -0.807044 -5.6345 0
M  V30 5989 N 539.679 1.08911 -5.70192 0
M  V30 5990 H 542.444 -1.52352 -2.58087 0
M  V30 5991 H 540.005 -0.944993 -1.31459 0
M  V30 5992 H 541.997 0.567676 -4.00699 0
M  V30 5993 H 540.567 0.893093 -2.99571 0
M  V30 5994 H 539.787 -1.50696 -3.64259 0
M  V30 5995 H 541.075 -1.50489 -4.86035 0
M  V30 5996 H 540.473 1.62703 -5.41797 0
M  V30 5997 H 539.03 1.50331 -6.34227 0
M  V30 5998 N 542.463 1.3308 -0.844243 0
M  V30 5999 C 543.411 2.31028 -0.269954 0
M  V30 6000 C 544.405 1.58381 0.600997 0
M  V30 6001 O 545.611 1.73203 0.48996 0
M  V30 6002 H 541.986 0.748866 -0.0685782 0
M  V30 6003 H 543.957 2.76967 -1.11049 0
M  V30 6004 C 542.706 3.43549 0.535676 0
M  V30 6005 H 542.029 3.99604 -0.125202 0
M  V30 6006 H 543.469 4.14267 0.903262 0
M  V30 6007 C 541.928 2.8988 1.71672 0
M  V30 6008 O 542.458 2.86511 2.81557 0
M  V30 6009 N 540.664 2.46416 1.54037 0
M  V30 6010 H 540.211 2.49356 0.64649 0
M  V30 6011 H 540.169 2.1086 2.33207 0
M  V30 6012 N 543.941 0.601185 1.45683 0
M  V30 6013 C 545.189 0.0936957 2.01883 0
M  V30 6014 C 545.51 -1.2779 1.47291 0
M  V30 6015 O 544.78 -1.84279 0.664691 0
M  V30 6016 H 543.36 0.0316466 0.746329 0
M  V30 6017 H 546.022 0.781137 1.78562 0
M  V30 6018 H 545.118 0.0386297 3.12076 0
M  V30 6019 N 545.419 -1.53889 0.339982 0
M  V30 6020 C 546.647 -2.05271 -0.259114 0
M  V30 6021 C 547.062 -1.21517 -1.44496 0
M  V30 6022 O 546.419 -0.24966 -1.80784 0
M  V30 6023 C 546.47 -3.55092 -0.677634 0
M  V30 6024 O 546.191 -4.35667 0.461051 0
M  V30 6025 C 547.692 -4.22631 -1.33782 0
M  V30 6026 H 544.912 -0.669085 -0.0506566 0
M  V30 6027 H 547.456 -1.9852 0.490935 0
M  V30 6028 H 545.611 -3.62077 -1.37763 0
M  V30 6029 H 546.025 -5.24343 0.128144 0
M  V30 6030 H 547.499 -5.28861 -1.58145 0
M  V30 6031 H 547.976 -3.74758 -2.29027 0
M  V30 6032 H 548.582 -4.19829 -0.679957 0
M  V30 6033 N 546.897 -0.0685191 -1.57451 0
M  V30 6034 C 547.829 0.929372 -2.09512 0
M  V30 6035 C 548.842 1.26354 -1.02657 0
M  V30 6036 O 550.031 1.2213 -1.30179 0
M  V30 6037 C 547.131 2.24612 -2.53777 0
M  V30 6038 C 546.304 2.09128 -3.84167 0
M  V30 6039 C 545.363 3.24079 -4.14559 0
M  V30 6040 O 544.389 2.99215 -4.8421 0
M  V30 6041 N 545.591 4.49077 -3.67845 0
M  V30 6042 H 548.356 0.484901 -2.95751 0
M  V30 6043 H 545.917 0.11729 -1.61475 0
M  V30 6044 H 547.909 3.00412 -2.71172 0
M  V30 6045 H 546.479 2.60569 -1.72692 0
M  V30 6046 H 545.699 1.17815 -3.76182 0
M  V30 6047 H 546.987 1.9603 -4.69521 0
M  V30 6048 H 546.385 4.72165 -3.11571 0
M  V30 6049 H 544.942 5.21915 -3.90446 0
M  V30 6050 N 548.375 1.56261 0.205012 0
M  V30 6051 C 549.605 1.83874 0.942018 0
M  V30 6052 C 550.013 0.647595 1.77772 0
M  V30 6053 O 549.356 -0.393098 1.79445 0
M  V30 6054 C 549.418 3.05453 1.89575 0
M  V30 6055 C 549.082 4.39772 1.24296 0
M  V30 6056 C 550.079 5.16133 0.624724 0
M  V30 6057 C 547.764 4.86504 1.24978 0
M  V30 6058 C 549.758 6.37396 0.0220117 0
M  V30 6059 C 547.445 6.07705 0.643232 0
M  V30 6060 C 548.443 6.82993 0.0304164 0
M  V30 6061 O 548.131 8.019 -0.566654 0
M  V30 6062 H 547.863 0.614896 0.280854 0
M  V30 6063 H 550.417 2.04215 0.220285 0
M  V30 6064 H 548.647 2.80972 2.65691 0
M  V30 6065 H 550.336 3.19797 2.4997 0
M  V30 6066 H 551.102 4.81127 0.611666 0
M  V30 6067 H 546.981 4.27865 1.71616 0
M  V30 6068 H 550.525 6.96102 -0.456926 0
M  V30 6069 H 546.422 6.42181 0.653759 0
M  V30 6070 H 547.19 8.17192 -0.462588 0
M  V30 6071 N 549.853 -0.472356 1.50355 0
M  V30 6072 C 551.269 -0.806001 1.37753 0
M  V30 6073 C 551.469 -1.968 0.432649 0
M  V30 6074 O 550.525 -2.52189 -0.12519 0
M  V30 6075 C 551.838 -1.11926 2.79093 0
M  V30 6076 C 553.386 -1.22579 2.87999 0
M  V30 6077 C 553.861 -1.57218 4.3017 0
M  V30 6078 N 555.352 -1.64212 4.33115 0
M  V30 6079 C 556.087 -1.92517 5.40116 0
M  V30 6080 N 555.583 -2.1885 6.57325 0
M  V30 6081 N 557.376 -1.94008 5.27558 0
M  V30 6082 H 549.527 0.293451 2.10363 0
M  V30 6083 H 551.79 0.0687672 0.945503 0
M  V30 6084 H 551.496 -0.338504 3.50067 0
M  V30 6085 H 551.37 -2.05577 3.16256 0
M  V30 6086 H 553.757 -1.99722 2.17245 0
M  V30 6087 H 553.838 -0.269107 2.54381 0
M  V30 6088 H 553.482 -0.806154 5.01461 0
M  V30 6089 H 553.412 -2.54034 4.61275 0
M  V30 6090 H 555.903 -1.45906 3.48597 0
M  V30 6091 H 556.216 -2.39718 7.3468 0
M  V30 6092 H 554.561 -2.16245 6.60502 0
M  V30 6093 H 557.752 -1.72931 4.34986 0
M  V30 6094 H 557.925 -2.15731 6.11035 0
M  V30 6095 N 551.331 -1.39911 -0.725443 0
M  V30 6096 C 552.556 -1.41137 -1.5197 0
M  V30 6097 C 552.981 -0.010262 -1.88097 0
M  V30 6098 O 552.339 0.979184 -1.52583 0
M  V30 6099 C 552.387 -2.2994 -2.77777 0
M  V30 6100 O 551.491 -1.73586 -3.74088 0
M  V30 6101 H 550.832 -0.480219 -0.458569 0
M  V30 6102 H 553.362 -1.84023 -0.894249 0
M  V30 6103 H 553.372 -2.44785 -3.26411 0
M  V30 6104 H 552.047 -3.31759 -2.50816 0
M  V30 6105 H 550.624 -1.68035 -3.32894 0
M  V30 6106 N 552.809 0.956637 -1.25245 0
M  V30 6107 C 553.739 2.07058 -1.07931 0
M  V30 6108 C 554.72 1.70096 0.0110361 0
M  V30 6109 O 555.905 1.93555 -0.158121 0
M  V30 6110 C 553.035 3.40272 -0.695124 0
M  V30 6111 C 551.989 3.91235 -1.73549 0
M  V30 6112 C 551.315 5.20921 -1.20604 0
M  V30 6113 C 552.615 4.17837 -3.13385 0
M  V30 6114 H 554.309 2.218 -2.01109 0
M  V30 6115 H 551.855 1.06581 -0.968326 0
M  V30 6116 H 553.808 4.1765 -0.560949 0
M  V30 6117 H 552.532 3.25462 0.272355 0
M  V30 6118 H 551.191 3.16025 -1.85807 0
M  V30 6119 H 550.839 5.02479 -0.228846 0
M  V30 6120 H 550.539 5.55987 -1.90136 0
M  V30 6121 H 552.063 6.00897 -1.08421 0
M  V30 6122 H 553.477 4.8588 -3.04292 0
M  V30 6123 H 551.874 4.64154 -3.80369 0
M  V30 6124 H 552.944 3.2419 -3.60595 0
M  V30 6125 N 554.287 1.06798 1.15896 0
M  V30 6126 C 555.533 0.798757 1.8706 0
M  V30 6127 C 555.888 -0.667739 1.80441 0
M  V30 6128 O 555.181 -1.48334 1.21274 0
M  V30 6129 C 555.375 1.23414 3.35416 0
M  V30 6130 C 555.204 2.74142 3.56478 0
M  V30 6131 C 553.974 3.41675 3.72272 0
M  V30 6132 C 556.172 3.72348 3.5477 0
M  V30 6133 N 554.154 4.81101 3.81333 0
M  V30 6134 C 555.525 4.97585 3.69877 0
M  V30 6135 C 557.58 3.65585 3.38011 0
M  V30 6136 C 556.283 6.16866 3.69959 0
M  V30 6137 C 558.309 4.84323 3.39389 0
M  V30 6138 C 557.671 6.08391 3.5502 0
M  V30 6139 H 553.77 0.344761 0.7019 0
M  V30 6140 H 556.354 1.36314 1.3902 0
M  V30 6141 H 554.525 0.697522 3.82085 0
M  V30 6142 H 556.257 0.91304 3.94266 0
M  V30 6143 H 553.012 2.92078 3.7281 0
M  V30 6144 H 553.436 5.53647 3.8962 0
M  V30 6145 H 558.078 2.70615 3.2485 0
M  V30 6146 H 555.796 7.12164 3.819 0
M  V30 6147 H 559.382 4.80762 3.27658 0
M  V30 6148 H 558.262 6.98731 3.56012 0
M  V30 6149 N 555.766 -1.3263 0.851289 0
M  V30 6150 C 557.043 -1.91982 0.374448 0
M  V30 6151 C 557.423 -1.77568 -1.14161 0
M  V30 6152 O 556.771 -1.1717 -1.96172 0
M  V30 6153 C 556.981 -3.38862 0.835088 0
M  V30 6154 C 558.329 -4.15999 0.850309 0
M  V30 6155 O 559.353 -3.47566 0.779505 0
M  V30 6156 O 558.212 -5.38189 0.949481 0
M  V30 6157 H 555.306 -0.819846 0.10854 0
M  V30 6158 H 557.852 -1.41422 0.937966 0
M  V30 6159 H 556.624 -3.43281 1.87814 0
M  V30 6160 H 556.247 -3.96821 0.248833 0
M  V30 6161 N 557.244 -0.608902 -1.45362 0
M  V30 6162 C 558.655 -0.189511 -1.85736 0
M  V30 6163 C 559.006 1.2539 -1.50903 0
M  V30 6164 O 558.131 1.95094 -0.936347 0
M  V30 6165 C 558.726 -0.33716 -3.37118 0
M  V30 6166 C 557.285 0.0275487 -3.7639 0
M  V30 6167 C 556.432 -0.660983 -2.69307 0
M  V30 6168 H 559.383 -0.815499 -1.36144 0
M  V30 6169 H 559.404 0.430257 -3.7806 0
M  V30 6170 H 558.916 -1.38779 -3.62439 0
M  V30 6171 H 557.017 1.0773 -3.56686 0
M  V30 6172 H 557.13 -0.367018 -4.77692 0
M  V30 6173 H 555.494 -0.0984958 -2.54509 0
M  V30 6174 H 556.277 -1.71377 -2.97464 0
M  V30 6175 N 558.722 1.53707 -0.348139 0
M  V30 6176 C 559.95 2.05406 0.248224 0
M  V30 6177 C 560.365 1.22282 1.43849 0
M  V30 6178 O 559.722 0.259244 1.80649 0
M  V30 6179 C 559.773 3.55446 0.658793 0
M  V30 6180 O 559.494 4.35417 -0.484149 0
M  V30 6181 C 560.995 4.23335 1.31539 0
M  V30 6182 H 558.215 0.669344 0.0471075 0
M  V30 6183 H 560.759 1.98257 -0.501456 0
M  V30 6184 H 558.914 3.62803 1.35841 0
M  V30 6185 H 559.328 5.24268 -0.155949 0
M  V30 6186 H 560.802 5.29692 1.55338 0
M  V30 6187 H 561.279 3.75967 2.27036 0
M  V30 6188 H 561.885 4.20184 0.657683 0
M  V30 6189 N 560.2 0.0768682 1.57412 0
M  V30 6190 C 561.448 -0.589918 1.93299 0
M  V30 6191 C 561.769 -1.69842 0.958049 0
M  V30 6192 O 561.039 -1.95899 0.00703261 0
M  V30 6193 H 559.619 -0.220901 0.713591 0
M  V30 6194 H 562.281 0.135917 1.94425 0
M  V30 6195 H 561.377 -1.01195 2.95239 0
M  V30 6196 N 561.678 -1.56367 -0.196722 0
M  V30 6197 C 562.626 -1.95304 -1.2633 0
M  V30 6198 C 563.62 -0.838252 -1.47206 0
M  V30 6199 O 564.826 -1.02325 -1.48087 0
M  V30 6200 H 561.201 -0.621013 -0.424083 0
M  V30 6201 H 563.172 -2.84254 -0.907879 0
M  V30 6202 C 561.921 -2.3074 -2.60104 0
M  V30 6203 H 561.244 -3.16047 -2.44856 0
M  V30 6204 H 562.684 -2.61849 -3.33484 0
M  V30 6205 C 561.143 -1.14143 -3.16975 0
M  V30 6206 O 561.673 -0.415602 -3.99544 0
M  V30 6207 N 559.879 -0.91867 -2.75697 0
M  V30 6208 H 559.426 -1.51065 -2.08656 0
M  V30 6209 H 559.384 -0.140321 -3.14087 0
M  V30 6210 N 563.156 0.464375 -1.50603 0
M  V30 6211 C 564.086 1.56944 -1.72889 0
M  V30 6212 C 565.067 1.59979 -0.577997 0
M  V30 6213 O 566.252 1.76138 -0.817855 0
M  V30 6214 C 563.382 2.95225 -1.8292 0
M  V30 6215 C 562.336 3.07056 -2.98162 0
M  V30 6216 C 561.662 4.47051 -2.93343 0
M  V30 6217 C 562.962 2.83648 -4.38567 0
M  V30 6218 H 564.656 1.38547 -2.65415 0
M  V30 6219 H 562.202 0.665082 -1.27721 0
M  V30 6220 H 564.155 3.72467 -1.97095 0
M  V30 6221 H 562.879 3.14793 -0.870209 0
M  V30 6222 H 561.538 2.32248 -2.83648 0
M  V30 6223 H 561.186 4.63547 -1.95276 0
M  V30 6224 H 560.886 4.55902 -3.70712 0
M  V30 6225 H 562.41 5.26304 -3.09575 0
M  V30 6226 H 563.824 3.50636 -4.53572 0
M  V30 6227 H 562.221 3.03937 -5.17438 0
M  V30 6228 H 563.291 1.79451 -4.50472 0
M  V30 6229 N 564.634 1.40294 0.718013 0
M  V30 6230 C 565.859 1.41941 1.5122 0
M  V30 6231 C 566.284 0.0202371 1.88089 0
M  V30 6232 O 565.642 -0.971078 1.53101 0
M  V30 6233 C 565.69 2.3141 2.76554 0
M  V30 6234 O 564.794 1.75567 3.73162 0
M  V30 6235 H 564.135 0.482644 0.456016 0
M  V30 6236 H 566.665 1.84494 0.884478 0
M  V30 6237 H 566.675 2.46513 3.25108 0
M  V30 6238 H 565.35 3.33085 2.49053 0
M  V30 6239 H 563.927 1.69798 3.31999 0
M  V30 6240 N 566.112 -0.949982 1.2575 0
M  V30 6241 C 567.523 -1.50989 1.09815 0
M  V30 6242 C 567.874 -1.93497 -0.324556 0
M  V30 6243 O 566.999 -1.79068 -1.21506 0
M  V30 6244 C 567.594 -2.74394 1.98729 0
M  V30 6245 C 566.153 -3.26682 1.86965 0
M  V30 6246 C 565.3 -1.99498 1.92603 0
M  V30 6247 H 568.251 -0.766387 1.38968 0
M  V30 6248 H 568.272 -3.48383 1.53001 0
M  V30 6249 H 567.784 -2.43425 3.02268 0
M  V30 6250 H 565.885 -3.62461 0.863279 0
M  V30 6251 H 565.998 -3.94383 2.72027 0
M  V30 6252 H 564.362 -2.15005 1.36546 0
M  V30 6253 H 565.145 -1.70871 2.97755 0
M  V30 6254 N 567.59 -1.07411 -1.15328 0
M  V30 6255 C 568.818 -0.818782 -1.90009 0
M  V30 6256 C 569.233 0.628072 -1.78047 0
M  V30 6257 O 568.59 1.43085 -1.13282 0
M  V30 6258 C 568.641 -1.21874 -3.40337 0
M  V30 6259 O 568.362 -2.60883 -3.51954 0
M  V30 6260 C 569.863 -0.992796 -4.3204 0
M  V30 6261 H 567.083 -0.296007 -0.60218 0
M  V30 6262 H 569.627 -1.43073 -1.46117 0
M  V30 6263 H 567.782 -0.651103 -3.81889 0
M  V30 6264 H 568.196 -2.77216 -4.45255 0
M  V30 6265 H 569.67 -1.32215 -5.35932 0
M  V30 6266 H 570.147 0.0708331 -4.39143 0
M  V30 6267 H 570.753 -1.54537 -3.9623 0
M  V30 6268 N 569.068 1.32177 -0.85831 0
M  V30 6269 C 570.484 1.49873 -0.548656 0
M  V30 6270 C 570.684 1.79278 0.919874 0
M  V30 6271 O 569.74 1.86451 1.70271 0
M  V30 6272 C 571.053 2.64043 -1.4388 0
M  V30 6273 C 572.601 2.77928 -1.43961 0
M  V30 6274 C 573.076 3.95182 -2.31506 0
M  V30 6275 N 574.567 4.0245 -2.29321 0
M  V30 6276 C 575.302 4.9242 -2.93786 0
M  V30 6277 N 574.798 5.87373 -3.67376 0
M  V30 6278 N 576.591 4.85572 -2.83155 0
M  V30 6279 H 568.742 1.11357 -1.80868 0
M  V30 6280 H 571.005 0.549175 -0.772729 0
M  V30 6281 H 570.711 2.49055 -2.48324 0
M  V30 6282 H 570.585 3.59912 -1.12885 0
M  V30 6283 H 572.972 2.92338 -0.402813 0
M  V30 6284 H 573.053 1.82762 -1.78974 0
M  V30 6285 H 572.697 3.81531 -3.35256 0
M  V30 6286 H 572.627 4.89633 -1.93823 0
M  V30 6287 H 575.118 3.34507 -1.75822 0
M  V30 6288 H 575.431 6.52728 -4.13722 0
M  V30 6289 H 573.776 5.87388 -3.71484 0
M  V30 6290 H 576.967 4.10363 -2.25211 0
M  V30 6291 H 577.14 5.55486 -3.33676 0
M  V30 6292 N 570.547 0.616602 1.45037 0
M  V30 6293 C 571.963 0.280994 1.57107 0
M  V30 6294 C 572.163 -1.21627 1.60653 0
M  V30 6295 O 571.219 -1.9997 1.54169 0
M  V30 6296 C 572.532 0.960116 2.8496 0
M  V30 6297 C 574.08 0.936884 2.98649 0
M  V30 6298 C 574.555 1.59619 4.29285 0
M  V30 6299 N 576.046 1.5621 4.36065 0
M  V30 6300 C 576.781 2.04131 5.35834 0
M  V30 6301 N 576.277 2.60177 6.4209 0
M  V30 6302 N 578.07 1.94845 5.27249 0
M  V30 6303 H 570.221 1.58867 1.40979 0
M  V30 6304 H 572.484 0.666024 0.674623 0
M  V30 6305 H 572.19 2.01473 2.88273 0
M  V30 6306 H 572.064 0.488921 3.74018 0
M  V30 6307 H 574.451 -0.109209 2.94898 0
M  V30 6308 H 574.532 1.44643 2.10979 0
M  V30 6309 H 574.176 2.64166 4.33796 0
M  V30 6310 H 574.106 1.06159 5.15789 0
M  V30 6311 H 576.597 1.15276 3.59889 0
M  V30 6312 H 576.91 2.94513 7.1448 0
M  V30 6313 H 575.255 2.64221 6.42816 0
M  V30 6314 H 578.446 1.50792 4.43147 0
M  V30 6315 H 578.619 2.32504 6.04852 0
M  V30 6316 N 572.025 -1.5352 0.356285 0
M  V30 6317 C 573.253 -2.05534 -0.237328 0
M  V30 6318 C 573.668 -1.23043 -1.43199 0
M  V30 6319 O 573.025 -0.268821 -1.80509 0
M  V30 6320 C 573.076 -3.55791 -0.639933 0
M  V30 6321 O 572.797 -4.35154 0.507233 0
M  V30 6322 C 574.298 -4.24027 -1.29292 0
M  V30 6323 H 571.518 -0.669585 -0.0435572 0
M  V30 6324 H 574.062 -1.97988 0.511963 0
M  V30 6325 H 572.217 -3.63518 -1.33915 0
M  V30 6326 H 572.631 -5.24178 0.18375 0
M  V30 6327 H 574.105 -5.30509 -1.52527 0
M  V30 6328 H 574.582 -3.77166 -2.25039 0
M  V30 6329 H 575.188 -4.20527 -0.63539 0
M  V30 6330 N 573.503 -0.0852151 -1.57369 0
M  V30 6331 C 574.731 0.58946 -1.98325 0
M  V30 6332 C 575.146 1.62333 -0.96403 0
M  V30 6333 O 574.503 1.82438 0.0476395 0
M  V30 6334 C 574.554 1.24604 -3.39347 0
M  V30 6335 O 574.275 0.253532 -4.37366 0
M  V30 6336 C 575.776 2.00726 -3.95252 0
M  V30 6337 H 572.996 0.158783 -0.651942 0
M  V30 6338 H 575.54 -0.161584 -2.03861 0
M  V30 6339 H 573.695 1.94808 -3.34856 0
M  V30 6340 H 574.109 0.726207 -5.19448 0
M  V30 6341 H 575.583 2.42039 -4.96106 0
M  V30 6342 H 576.06 2.86919 -3.32527 0
M  V30 6343 H 576.666 1.3536 -4.03185 0
M  V30 6344 N 574.981 1.5647 0.188427 0
M  V30 6345 C 575.929 1.95971 1.25293 0
M  V30 6346 C 576.923 0.846047 1.4676 0
M  V30 6347 O 578.129 1.03109 1.47542 0
M  V30 6348 H 574.504 0.623253 0.420784 0
M  V30 6349 H 576.475 2.84731 0.892792 0
M  V30 6350 C 575.224 2.32116 2.58877 0
M  V30 6351 H 574.547 3.17341 2.43176 0
M  V30 6352 H 575.987 2.63613 3.3209 0
M  V30 6353 C 574.446 1.15823 3.16365 0
M  V30 6354 O 574.976 0.436785 3.99318 0
M  V30 6355 N 573.182 0.933278 2.75206 0
M  V30 6356 H 572.729 1.52169 2.07852 0
M  V30 6357 H 572.687 0.156976 3.14008 0
M  V30 6358 N 576.459 -0.456382 1.50847 0
M  V30 6359 C 577.689 -1.22848 1.66108 0
M  V30 6360 C 578.097 -1.85936 0.349897 0
M  V30 6361 O 577.44 -1.70664 -0.679665 0
M  V30 6362 C 577.502 -2.36722 2.70561 0
M  V30 6363 C 577.166 -1.94154 4.13707 0
M  V30 6364 C 578.163 -1.4557 4.99105 0
M  V30 6365 C 575.848 -2.02426 4.59705 0
M  V30 6366 C 577.842 -1.0582 6.28555 0
M  V30 6367 C 575.529 -1.62287 5.89157 0
M  V30 6368 C 576.527 -1.14064 6.73408 0
M  V30 6369 O 576.215 -0.744873 8.00442 0
M  V30 6370 H 575.947 -0.377105 0.561042 0
M  V30 6371 H 578.501 -0.549431 1.97915 0
M  V30 6372 H 576.731 -3.07844 2.34027 0
M  V30 6373 H 578.42 -2.98646 2.74892 0
M  V30 6374 H 579.186 -1.38589 4.64777 0
M  V30 6375 H 575.065 -2.38908 3.94264 0
M  V30 6376 H 578.609 -0.6811 6.94267 0
M  V30 6377 H 574.506 -1.68932 6.23003 0
M  V30 6378 H 575.274 -0.87242 8.13837 0
M  V30 6379 N 577.937 -1.40673 -0.710563 0
M  V30 6380 C 579.214 -1.29718 -1.46398 0
M  V30 6381 C 579.594 0.082177 -2.1094 0
M  V30 6382 O 578.942 1.09536 -2.00534 0
M  V30 6383 C 579.152 -2.43967 -2.49562 0
M  V30 6384 C 580.5 -2.84436 -3.15248 0
M  V30 6385 O 581.524 -2.43597 -2.59883 0
M  V30 6386 O 580.383 -3.55008 -4.1549 0
M  V30 6387 H 577.477 -0.509697 -0.651258 0
M  V30 6388 H 580.023 -1.52603 -0.742312 0
M  V30 6389 H 578.795 -3.36076 -2.0042 0
M  V30 6390 H 578.418 -2.22879 -3.29258 0
M  V30 6391 N 579.415 0.9433 -1.26252 0
M  V30 6392 C 580.662 1.68925 -1.11672 0
M  V30 6393 C 580.99 1.91499 0.340329 0
M  V30 6394 O 580.245 1.49189 1.26653 0
M  V30 6395 C 580.544 3.07073 -1.82868 0
M  V30 6396 C 580.21 3.04262 -3.32769 0
M  V30 6397 C 578.872 3.03203 -3.7366 0
M  V30 6398 C 581.224 2.96729 -4.28487 0
M  V30 6399 C 578.552 2.92373 -5.0866 0
M  V30 6400 C 580.904 2.87442 -5.63525 0
M  V30 6401 C 579.568 2.84724 -6.03729 0
M  V30 6402 H 578.838 0.618141 -0.408635 0
M  V30 6403 H 581.485 1.10124 -1.56668 0
M  V30 6404 H 579.79 3.69486 -1.30335 0
M  V30 6405 H 581.487 3.63635 -1.69029 0
M  V30 6406 H 578.077 3.05865 -3.00241 0
M  V30 6407 H 582.261 2.96658 -3.97879 0
M  V30 6408 H 577.517 2.88645 -5.38975 0
M  V30 6409 H 581.691 2.80576 -6.37377 0
M  V30 6410 H 579.318 2.76089 -7.08293 0
M  V30 6411 N 580.893 1.08022 1.14757 0
M  V30 6412 C 582.118 0.82895 1.90114 0
M  V30 6413 C 582.543 -0.612772 1.77839 0
M  V30 6414 O 581.901 -1.42895 1.11583 0
M  V30 6415 C 581.949 1.25062 3.38219 0
M  V30 6416 O 581.053 0.400119 4.10454 0
M  V30 6417 H 580.394 0.301412 0.591648 0
M  V30 6418 H 582.924 1.44062 1.45284 0
M  V30 6419 H 582.934 1.22977 3.89025 0
M  V30 6420 H 581.609 2.30067 3.46471 0
M  V30 6421 H 580.186 0.484052 3.69745 0
M  V30 6422 N 582.371 -1.3172 0.865308 0
M  V30 6423 C 583.301 -2.31109 0.333302 0
M  V30 6424 C 584.282 -1.60148 -0.573301 0
M  V30 6425 O 585.467 -1.87882 -0.491305 0
M  V30 6426 C 582.597 -3.44104 -0.470078 0
M  V30 6427 C 581.551 -4.26623 0.343021 0
M  V30 6428 C 580.877 -5.31482 -0.585756 0
M  V30 6429 C 582.177 -4.98001 1.57456 0
M  V30 6430 H 583.871 -2.75855 1.1638 0
M  V30 6431 H 581.417 -1.3262 0.561069 0
M  V30 6432 H 583.37 -4.12682 -0.852752 0
M  V30 6433 H 582.094 -2.98112 -1.33404 0
M  V30 6434 H 580.753 -3.59707 0.707583 0
M  V30 6435 H 580.401 -4.81741 -1.44686 0
M  V30 6436 H 580.101 -5.87582 -0.0456494 0
M  V30 6437 H 581.625 -6.0292 -0.965375 0
M  V30 6438 H 583.039 -5.59201 1.26359 0
M  V30 6439 H 581.436 -5.63876 2.05339 0
M  V30 6440 H 582.506 -4.25253 2.32997 0
M  V30 6441 N 583.85 -0.624285 -1.44708 0
M  V30 6442 C 585.08 -0.132726 -2.06173 0
M  V30 6443 C 585.488 1.19513 -1.46674 0
M  V30 6444 O 584.831 1.74254 -0.581491 0
M  V30 6445 C 584.893 0.0636732 -3.59444 0
M  V30 6446 C 584.557 -1.18496 -4.4137 0
M  V30 6447 C 585.553 -2.10706 -4.75288 0
M  V30 6448 C 583.239 -1.41846 -4.81856 0
M  V30 6449 C 585.233 -3.24582 -5.48567 0
M  V30 6450 C 582.92 -2.5602 -5.54885 0
M  V30 6451 C 583.918 -3.47215 -5.88159 0
M  V30 6452 O 583.606 -4.59399 -6.59703 0
M  V30 6453 H 583.338 -0.0737313 -0.671967 0
M  V30 6454 H 585.892 -0.856789 -1.86677 0
M  V30 6455 H 584.122 0.842809 -3.77404 0
M  V30 6456 H 585.811 0.508924 -4.02697 0
M  V30 6457 H 586.577 -1.93898 -4.44554 0
M  V30 6458 H 582.456 -0.717556 -4.55381 0
M  V30 6459 H 586 -3.95785 -5.74456 0
M  V30 6460 H 581.897 -2.72774 -5.85034 0
M  V30 6461 H 582.665 -4.58293 -6.78166 0
M  V30 6462 N 585.328 1.53329 -0.364422 0
M  V30 6463 C 586.556 2.05657 0.226424 0
M  V30 6464 C 586.971 1.23801 1.42544 0
M  V30 6465 O 586.328 0.27839 1.80364 0
M  V30 6466 C 586.379 3.56125 0.621056 0
M  V30 6467 O 586.1 4.34879 -0.530304 0
M  V30 6468 C 587.601 4.24706 1.27041 0
M  V30 6469 H 584.821 0.669806 0.0400056 0
M  V30 6470 H 587.365 1.97714 -0.522456 0
M  V30 6471 H 585.52 3.64223 1.31985 0
M  V30 6472 H 585.934 5.24073 -0.211546 0
M  V30 6473 H 587.408 5.3131 1.49711 0
M  V30 6474 H 587.885 3.78354 2.23036 0
M  V30 6475 H 588.491 4.20858 0.613079 0
M  V30 6476 N 586.806 0.0935595 1.57322 0
M  V30 6477 C 587.739 -0.902505 2.09595 0
M  V30 6478 C 588.717 -1.27732 1.00615 0
M  V30 6479 O 589.901 -1.38283 1.28102 0
M  V30 6480 C 587.028 -2.20416 2.57166 0
M  V30 6481 C 586.074 -1.97932 3.7779 0
M  V30 6482 S 586.907 -1.21873 5.21447 0
M  V30 6483 C 588.063 -2.53273 5.72367 0
M  V30 6484 H 588.296 -0.457797 2.93754 0
M  V30 6485 H 585.829 -0.119694 1.53935 0
M  V30 6486 H 587.787 -2.95217 2.85232 0
M  V30 6487 H 586.448 -2.62008 1.73235 0
M  V30 6488 H 585.641 -2.94316 4.09138 0
M  V30 6489 H 585.243 -1.3126 3.5021 0
M  V30 6490 H 587.535 -3.49256 5.8054 0
M  V30 6491 H 588.478 -2.26505 6.70896 0
M  V30 6492 H 588.886 -2.61475 5.00291 0
M  V30 6493 N 588.284 -1.56567 -0.180126 0
M  V30 6494 C 589.561 -1.7235 -0.924931 0
M  V30 6495 C 589.941 -0.652523 -2.00762 0
M  V30 6496 O 589.289 0.334115 -2.26044 0
M  V30 6497 C 589.499 -3.1523 -1.49771 0
M  V30 6498 C 590.847 -3.75921 -1.97405 0
M  V30 6499 O 591.871 -3.18452 -1.59583 0
M  V30 6500 O 590.73 -4.7681 -2.67048 0
M  V30 6501 H 587.824 -0.703502 -0.434758 0
M  V30 6502 H 590.37 -1.6886 -0.168647 0
M  V30 6503 H 589.142 -3.84656 -0.718027 0
M  V30 6504 H 588.765 -3.23009 -2.31842 0
M  V30 6505 N 589.762 0.448376 -1.51087 0
M  V30 6506 C 591.173 1.0286 -1.5581 0
M  V30 6507 C 591.524 1.92583 -0.374989 0
M  V30 6508 O 590.649 2.10316 0.509533 0
M  V30 6509 C 591.244 1.87223 -2.8237 0
M  V30 6510 C 589.803 2.40314 -2.897 0
M  V30 6511 C 588.95 1.19238 -2.50355 0
M  V30 6512 H 591.901 0.230075 -1.57023 0
M  V30 6513 H 591.922 2.72553 -2.6551 0
M  V30 6514 H 591.434 1.21894 -3.68461 0
M  V30 6515 H 589.535 3.09129 -2.08014 0
M  V30 6516 H 589.648 2.73866 -3.93108 0
M  V30 6517 H 588.012 1.53428 -2.03303 0
M  V30 6518 H 588.795 0.555367 -3.38778 0
M  V30 6519 N 591.24 1.41047 0.703093 0
M  V30 6520 C 592.19 1.38774 1.80903 0
M  V30 6521 C 593.174 0.263275 1.58731 0
M  V30 6522 O 594.366 0.503362 1.69692 0
M  V30 6523 C 591.495 1.26497 3.19145 0
M  V30 6524 C 590.581 2.43775 3.47037 0
M  V30 6525 N 590.972 3.69249 3.45672 0
M  V30 6526 C 589.27 2.37425 3.77552 0
M  V30 6527 C 589.971 4.46989 3.72258 0
M  V30 6528 N 588.947 3.76998 3.91629 0
M  V30 6529 H 592.749 2.33714 1.78199 0
M  V30 6530 H 590.263 1.34996 0.902762 0
M  V30 6531 H 592.26 1.2295 3.98358 0
M  V30 6532 H 590.92 0.32534 3.23066 0
M  V30 6533 H 591.931 4.02239 3.26228 0
M  V30 6534 H 588.608 1.51895 3.88888 0
M  V30 6535 H 589.998 5.55894 3.77402 0
M  V30 6536 N 592.718 -0.936591 1.26751 0
M  V30 6537 C 593.628 -2.06949 1.10496 0
M  V30 6538 C 594.644 -1.7396 0.037271 0
M  V30 6539 O 595.82 -1.99941 0.241944 0
M  V30 6540 C 592.885 -3.38612 0.744491 0
M  V30 6541 C 591.946 -3.85355 1.89209 0
M  V30 6542 C 591.179 -5.10735 1.54873 0
M  V30 6543 O 591.402 -5.68602 0.452546 0
M  V30 6544 O 590.336 -5.52632 2.38499 0
M  V30 6545 H 594.162 -2.23571 2.05547 0
M  V30 6546 H 591.747 -1.05428 1.05855 0
M  V30 6547 H 593.629 -4.17711 0.556396 0
M  V30 6548 H 592.304 -3.23218 -0.176582 0
M  V30 6549 H 591.211 -3.07182 2.13518 0
M  V30 6550 H 592.544 -4.05277 2.79305 0
M  V30 6551 N 594.196 -1.08629 -1.14182 0
M  V30 6552 C 595.144 -0.71284 -2.21408 0
M  V30 6553 C 596.138 0.282457 -1.67029 0
M  V30 6554 O 597.344 0.144783 -1.79417 0
M  V30 6555 H 593.719 -0.212497 -0.721352 0
M  V30 6556 H 595.69 -1.6265 -2.50175 0
M  V30 6557 C 594.439 -0.140704 -3.47415 0
M  V30 6558 H 593.762 -0.897739 -3.8959 0
M  V30 6559 H 595.202 0.0827677 -4.23919 0
M  V30 6560 C 593.661 1.122 -3.17668 0
M  V30 6561 O 594.191 2.20652 -3.35672 0
M  V30 6562 N 592.397 1.03328 -2.71609 0
M  V30 6563 H 591.944 0.150666 -2.57159 0
M  V30 6564 H 591.902 1.8789 -2.52081 0
M  V30 6565 N 595.674 1.31259 -0.872281 0
M  V30 6566 C 596.923 1.95893 -0.480493 0
M  V30 6567 C 597.236 1.697 0.972688 0
M  V30 6568 O 598.442 2.28214 1.47073 0
M  V30 6569 C 596.898 3.50705 -0.808342 0
M  V30 6570 C 596.506 3.85735 -2.27844 0
M  V30 6571 C 598.25 4.21719 -0.485136 0
M  V30 6572 C 596.157 5.33668 -2.54858 0
M  V30 6573 H 595.087 0.733182 -0.175955 0
M  V30 6574 H 597.738 1.49396 -1.0655 0
M  V30 6575 H 596.12 3.95706 -0.152558 0
M  V30 6576 H 597.294 3.51686 -2.97748 0
M  V30 6577 H 595.609 3.27792 -2.56791 0
M  V30 6578 H 598.206 5.30559 -0.664166 0
M  V30 6579 H 598.549 4.12316 0.574592 0
M  V30 6580 H 599.082 3.82359 -1.09756 0
M  V30 6581 H 595.821 5.48109 -3.59523 0
M  V30 6582 H 595.341 5.69061 -1.8955 0
M  V30 6583 H 597.02 6.00958 -2.39706 0
M  V30 6584 N 597.152 0.631951 1.44375 0
M  V30 6585 C 598.082 -0.0593243 2.33425 0
M  V30 6586 C 599.063 -0.833964 1.48253 0
M  V30 6587 O 600.248 -0.799682 1.76971 0
M  V30 6588 C 597.378 -1.04096 3.31333 0
M  V30 6589 C 596.332 -0.377899 4.26328 0
M  V30 6590 C 595.658 -1.4695 5.14111 0
M  V30 6591 C 596.958 0.716371 5.17364 0
M  V30 6592 H 598.652 0.684287 2.91475 0
M  V30 6593 H 596.198 0.330518 1.40156 0
M  V30 6594 H 598.151 -1.53331 3.92514 0
M  V30 6595 H 596.875 -1.81547 2.71493 0
M  V30 6596 H 595.534 0.0938054 3.6648 0
M  V30 6597 H 595.182 -2.2349 4.50623 0
M  V30 6598 H 594.882 -1.03121 5.78481 0
M  V30 6599 H 596.406 -1.96363 5.78164 0
M  V30 6600 H 597.82 0.307089 5.72477 0
M  V30 6601 H 596.217 1.07784 5.90341 0
M  V30 6602 H 597.287 1.58316 4.58327 0
M  V30 6603 N 598.631 -1.53133 0.372548 0
M  V30 6604 C 599.561 -2.28876 -0.462412 0
M  V30 6605 C 600.542 -1.31583 -1.07796 0
M  V30 6606 O 601.727 -1.60461 -1.09389 0
M  V30 6607 C 598.857 -3.08317 -1.59868 0
M  V30 6608 C 597.811 -4.13355 -1.11003 0
M  V30 6609 C 597.137 -4.8092 -2.33708 0
M  V30 6610 C 598.437 -5.21955 -0.18983 0
M  V30 6611 H 600.131 -2.9892 0.169511 0
M  V30 6612 H 597.677 -1.43761 0.0829658 0
M  V30 6613 H 599.63 -3.60055 -2.18949 0
M  V30 6614 H 598.354 -2.35976 -2.25794 0
M  V30 6615 H 597.013 -3.62573 -0.541869 0
M  V30 6616 H 596.661 -4.05144 -2.98106 0
M  V30 6617 H 596.361 -5.51904 -2.01682 0
M  V30 6618 H 597.885 -5.35455 -2.93462 0
M  V30 6619 H 599.299 -5.69153 -0.688319 0
M  V30 6620 H 597.696 -6.00087 0.0398887 0
M  V30 6621 H 598.766 -4.78811 0.766057 0
M  V30 6622 N 600.109 -0.101901 -1.5727 0
M  V30 6623 C 601.334 0.571759 -1.99363 0
M  V30 6624 C 601.759 1.60507 -0.980768 0
M  V30 6625 O 601.117 1.81231 0.0498517 0
M  V30 6626 C 601.165 1.18996 -3.404 0
M  V30 6627 O 600.269 2.30572 -3.41922 0
M  V30 6628 H 599.61 0.144449 -0.648098 0
M  V30 6629 H 602.14 -0.185325 -2.03759 0
M  V30 6630 H 602.15 1.52962 -3.78241 0
M  V30 6631 H 600.825 0.432984 -4.1364 0
M  V30 6632 H 599.402 1.98173 -3.15883 0
M  V30 6633 N 601.587 1.56661 0.17182 0
M  V30 6634 C 602.815 1.861 0.904115 0
M  V30 6635 C 603.23 0.687227 1.75848 0
M  V30 6636 O 602.587 -0.343671 1.79235 0
M  V30 6637 C 602.638 3.14568 1.78127 0
M  V30 6638 O 602.359 4.27422 0.961366 0
M  V30 6639 C 603.86 3.5735 2.62327 0
M  V30 6640 H 601.08 0.617445 0.262684 0
M  V30 6641 H 603.624 2.03775 0.172068 0
M  V30 6642 H 601.779 2.98721 2.46666 0
M  V30 6643 H 602.193 5.00725 1.56123 0
M  V30 6644 H 603.667 4.50144 3.1949 0
M  V30 6645 H 604.144 2.81445 3.37173 0
M  V30 6646 H 604.75 3.75807 1.99121 0
M  V30 6647 N 603.065 -0.440357 1.51323 0
M  V30 6648 C 603.995 -1.54174 1.75364 0
M  V30 6649 C 604.976 -1.59039 0.603375 0
M  V30 6650 O 606.161 -1.74815 0.845774 0
M  V30 6651 C 603.291 -2.92277 1.87593 0
M  V30 6652 C 602.245 -3.02274 3.03009 0
M  V30 6653 C 601.571 -4.42327 3.00418 0
M  V30 6654 C 602.871 -2.76634 4.43024 0
M  V30 6655 H 604.565 -1.34307 2.67585 0
M  V30 6656 H 602.111 -0.644678 1.28763 0
M  V30 6657 H 604.064 -3.69284 2.02995 0
M  V30 6658 H 602.788 -3.13369 0.920179 0
M  V30 6659 H 601.447 -2.27706 2.87307 0
M  V30 6660 H 601.095 -4.60382 2.02626 0
M  V30 6661 H 600.795 -4.49946 3.77918 0
M  V30 6662 H 602.319 -5.21312 3.17909 0
M  V30 6663 H 603.733 -3.43376 4.59093 0
M  V30 6664 H 602.13 -2.95666 5.22208 0
M  V30 6665 H 603.2 -1.72262 4.5327 0
M  V30 6666 N 604.543 -1.41418 -0.695603 0
M  V30 6667 C 605.453 -1.45622 -1.83933 0
M  V30 6668 C 606.469 -0.346825 -1.70508 0
M  V30 6669 O 607.645 -0.59454 -1.92424 0
M  V30 6670 C 604.71 -1.33627 -3.19914 0
M  V30 6671 C 603.771 -2.54882 -3.45447 0
M  V30 6672 C 603.004 -2.43449 -4.7494 0
M  V30 6673 O 603.227 -1.45905 -5.51424 0
M  V30 6674 O 602.161 -3.33206 -5.01256 0
M  V30 6675 H 605.987 -2.42114 -1.83342 0
M  V30 6676 H 603.572 -1.22956 -0.848658 0
M  V30 6677 H 605.454 -1.29221 -4.01098 0
M  V30 6678 H 604.129 -0.402508 -3.21188 0
M  V30 6679 H 603.036 -2.64865 -2.64192 0
M  V30 6680 H 604.369 -3.47087 -3.48987 0
M  V30 6681 N 606.021 0.929856 -1.27246 0
M  V30 6682 C 607.27 1.67182 -1.12842 0
M  V30 6683 C 607.583 1.9287 0.325666 0
M  V30 6684 O 608.789 2.64999 0.590572 0
M  V30 6685 C 607.245 3.01097 -1.97151 0
M  V30 6686 C 606.853 2.83115 -3.47203 0
M  V30 6687 C 608.597 3.78907 -1.91389 0
M  V30 6688 C 606.504 4.12573 -4.23719 0
M  V30 6689 H 605.434 0.627064 -0.418697 0
M  V30 6690 H 608.085 1.0332 -1.51649 0
M  V30 6691 H 606.467 3.66004 -1.51186 0
M  V30 6692 H 607.641 2.26989 -4.01015 0
M  V30 6693 H 605.956 2.18736 -3.54321 0
M  V30 6694 H 608.553 4.74837 -2.45834 0
M  V30 6695 H 608.896 4.0674 -0.887047 0
M  V30 6696 H 609.429 3.20794 -2.35237 0
M  V30 6697 H 606.168 3.8992 -5.26918 0
M  V30 6698 H 605.688 4.68371 -3.74685 0
M  V30 6699 H 607.367 4.8095 -4.32777 0
M  V30 6700 N 607.499 1.09233 1.13605 0
M  V30 6701 C 608.446 0.729921 2.18954 0
M  V30 6702 C 609.416 -0.287916 1.63586 0
M  V30 6703 O 610.601 -0.170003 1.90041 0
M  V30 6704 C 607.741 0.154489 3.44754 0
M  V30 6705 C 606.854 1.22613 4.14234 0
M  V30 6706 C 605.989 0.613657 5.27644 0
M  V30 6707 C 605.028 1.66674 5.8897 0
M  V30 6708 N 604.165 1.07545 6.93814 0
M  V30 6709 H 609.005 1.63257 2.49302 0
M  V30 6710 H 606.542 0.815693 1.22413 0
M  V30 6711 H 608.5 -0.196923 4.16735 0
M  V30 6712 H 607.13 -0.711433 3.14863 0
M  V30 6713 H 606.182 1.69485 3.40557 0
M  V30 6714 H 607.494 2.0238 4.55899 0
M  V30 6715 H 606.648 0.210976 6.06333 0
M  V30 6716 H 605.387 -0.215584 4.87223 0
M  V30 6717 H 604.392 2.07899 5.08978 0
M  V30 6718 H 605.617 2.49861 6.31464 0
M  V30 6719 H 603.563 0.267451 6.55455 0
M  V30 6720 H 603.48 1.81011 7.3401 0
M  V30 6721 H 604.748 0.698906 7.7636 0
M  V30 6722 N 608.977 -1.30795 0.87923 0
M  V30 6723 C 609.925 -2.30231 0.331112 0
M  V30 6724 C 610.919 -1.59918 -0.558794 0
M  V30 6725 O 612.125 -1.74441 -0.443866 0
M  V30 6726 H 608.5 -0.746785 0.088409 0
M  V30 6727 H 610.471 -2.73925 1.18353 0
M  V30 6728 C 609.22 -3.44848 -0.444401 0
M  V30 6729 H 608.543 -3.99131 0.231106 0
M  V30 6730 H 609.983 -4.16516 -0.793109 0
M  V30 6731 C 608.442 -2.94329 -1.63926 0
M  V30 6732 O 608.972 -2.93875 -2.73862 0
M  V30 6733 N 607.178 -2.50413 -1.4745 0
M  V30 6734 H 606.725 -2.50982 -0.58015 0
M  V30 6735 H 606.683 -2.16969 -2.27534 0
M  V30 6736 N 610.455 -0.639598 -1.44038 0
M  V30 6737 C 611.365 0.0612377 -2.3452 0
M  V30 6738 C 612.381 0.826717 -1.53106 0
M  V30 6739 O 613.557 0.777059 -1.85806 0
M  V30 6740 C 610.622 1.02492 -3.31204 0
M  V30 6741 C 609.683 0.25788 -4.28525 0
M  V30 6742 C 608.916 1.17566 -5.2059 0
M  V30 6743 O 609.139 2.41461 -5.16771 0
M  V30 6744 O 608.073 0.655407 -5.98321 0
M  V30 6745 H 611.899 -0.68318 -2.95916 0
M  V30 6746 H 609.484 -0.399784 -1.43952 0
M  V30 6747 H 611.366 1.57911 -3.90694 0
M  V30 6748 H 610.041 1.7498 -2.7233 0
M  V30 6749 H 608.948 -0.339566 -3.72556 0
M  V30 6750 H 610.281 -0.427154 -4.90343 0
M  V30 6751 N 611.933 1.52934 -0.380664 0
M  V30 6752 C 612.866 2.22597 0.502564 0
M  V30 6753 C 613.844 1.22345 1.071 0
M  V30 6754 O 615.028 1.51302 1.12428 0
M  V30 6755 C 612.155 2.93246 1.69482 0
M  V30 6756 C 611.201 4.07696 1.25244 0
M  V30 6757 S 612.034 5.34957 0.241159 0
M  V30 6758 C 613.19 6.09124 1.4394 0
M  V30 6759 H 613.423 2.97167 -0.089029 0
M  V30 6760 H 610.956 1.53518 -0.164817 0
M  V30 6761 H 612.914 3.34562 2.37863 0
M  V30 6762 H 611.575 2.18373 2.2577 0
M  V30 6763 H 610.768 4.56199 2.1424 0
M  V30 6764 H 610.37 3.68349 0.647664 0
M  V30 6765 H 612.662 6.34771 2.36794 0
M  V30 6766 H 613.605 7.01068 0.995464 0
M  V30 6767 H 614.013 5.39777 1.65229 0
M  V30 6768 N 613.412 0.11024 1.57214 0
M  V30 6769 C 614.375 -0.828808 2.1369 0
M  V30 6770 C 615.375 -1.20059 1.06969 0
M  V30 6771 O 616.565 -1.12754 1.32786 0
M  V30 6772 C 613.697 -2.11959 2.66994 0
M  V30 6773 H 614.89 -0.338146 2.97988 0
M  V30 6774 H 612.443 -0.138913 1.55681 0
M  V30 6775 H 613.178 -2.65476 1.8626 0
M  V30 6776 H 612.963 -1.86258 3.45037 0
M  V30 6777 H 614.453 -2.79105 3.10629 0
M  V30 6778 N 614.89 -1.56749 -0.16351 0
M  V30 6779 C 616.118 -1.86577 -0.894233 0
M  V30 6780 C 616.533 -0.696543 -1.75481 0
M  V30 6781 O 615.89 0.334161 -1.79415 0
M  V30 6782 C 615.941 -3.15508 -1.76456 0
M  V30 6783 O 615.662 -4.27926 -0.938685 0
M  V30 6784 C 617.163 -3.58737 -2.60428 0
M  V30 6785 H 614.383 -0.618829 -0.259405 0
M  V30 6786 H 616.927 -2.03863 -0.161259 0
M  V30 6787 H 615.082 -3.00025 -2.45079 0
M  V30 6788 H 615.496 -5.01546 -1.53465 0
M  V30 6789 H 616.97 -4.51832 -3.17099 0
M  V30 6790 H 617.447 -2.83229 -3.35675 0
M  V30 6791 H 618.053 -3.76858 -1.97125 0
M  V30 6792 N 616.368 0.432326 -1.51554 0
M  V30 6793 C 617.593 1.20824 -1.68571 0
M  V30 6794 C 618.018 1.84126 -0.384596 0
M  V30 6795 O 617.376 1.69025 0.655751 0
M  V30 6796 C 617.424 2.26429 -2.80646 0
M  V30 6797 O 616.528 3.32032 -2.44598 0
M  V30 6798 H 615.869 0.353765 -0.561913 0
M  V30 6799 H 618.399 0.509916 -1.98144 0
M  V30 6800 H 618.409 2.71133 -3.04878 0
M  V30 6801 H 617.084 1.79733 -3.75058 0
M  V30 6802 H 615.661 2.92769 -2.30956 0
M  V30 6803 N 617.846 1.41785 0.688094 0
M  V30 6804 C 618.756 1.46596 1.83158 0
M  V30 6805 C 619.772 0.355862 1.70322 0
M  V30 6806 O 620.948 0.604737 1.92106 0
M  V30 6807 C 618.013 1.35322 3.192 0
M  V30 6808 C 617.074 2.56711 3.4409 0
M  V30 6809 C 616.307 2.45965 4.73642 0
M  V30 6810 O 616.53 1.48827 5.50642 0
M  V30 6811 O 615.464 3.35859 4.99482 0
M  V30 6812 H 619.29 2.43083 1.82056 0
M  V30 6813 H 616.875 1.23404 0.842126 0
M  V30 6814 H 618.757 1.31347 4.00407 0
M  V30 6815 H 617.432 0.419536 3.2097 0
M  V30 6816 H 616.339 2.66262 2.62784 0
M  V30 6817 H 617.672 3.48933 3.47141 0
M  V30 6818 N 619.324 -0.923095 1.27737 0
M  V30 6819 C 620.287 -2.00587 1.10894 0
M  V30 6820 C 621.287 -1.60718 0.0514927 0
M  V30 6821 O 622.477 -1.71658 0.296481 0
M  V30 6822 C 619.609 -3.33829 0.690717 0
M  V30 6823 H 620.802 -2.16959 2.07048 0
M  V30 6824 H 618.355 -1.10451 1.1059 0
M  V30 6825 H 619.09 -3.23157 -0.272 0
M  V30 6826 H 618.875 -3.64125 1.45448 0
M  V30 6827 H 620.365 -4.13336 0.595252 0
M  V30 6828 N 620.802 -1.09834 -1.13024 0
M  V30 6829 C 622.048 -0.83819 -1.84668 0
M  V30 6830 C 622.381 0.634645 -1.83537 0
M  V30 6831 O 621.656 1.46753 -1.27647 0
M  V30 6832 C 621.939 -1.37933 -3.32636 0
M  V30 6833 C 621.792 -2.91857 -3.42257 0
M  V30 6834 C 623.111 -1.01654 -4.28199 0
M  V30 6835 H 620.23 -0.30595 -0.670495 0
M  V30 6836 H 622.872 -1.36044 -1.32635 0
M  V30 6837 H 621.022 -0.935111 -3.77078 0
M  V30 6838 H 622.694 -3.44759 -3.06495 0
M  V30 6839 H 620.937 -3.28776 -2.83 0
M  V30 6840 H 621.608 -3.24799 -4.46329 0
M  V30 6841 H 624.084 -1.39973 -3.9185 0
M  V30 6842 H 622.96 -1.42217 -5.30156 0
M  V30 6843 H 623.221 0.0747794 -4.42037 0
M  V30 6844 N 622.28 1.30327 -0.886154 0
M  V30 6845 C 623.213 2.26241 -0.298407 0
M  V30 6846 C 624.191 1.51839 0.581704 0
M  V30 6847 O 625.375 1.80851 0.531536 0
M  V30 6848 C 622.502 3.33768 0.575888 0
M  V30 6849 C 621.548 4.25852 -0.235057 0
M  V30 6850 S 622.381 5.10277 -1.62411 0
M  V30 6851 C 623.537 6.21313 -0.756368 0
M  V30 6852 H 623.77 2.75744 -1.11141 0
M  V30 6853 H 621.303 1.38341 -0.685651 0
M  V30 6854 H 623.261 3.96186 1.07458 0
M  V30 6855 H 621.922 2.82986 1.363 0
M  V30 6856 H 621.115 5.02143 0.432198 0
M  V30 6857 H 620.717 3.68015 -0.666409 0
M  V30 6858 H 623.009 6.77495 0.0261451 0
M  V30 6859 H 623.952 6.92226 -1.49093 0
M  V30 6860 H 624.36 5.63611 -0.316749 0
M  V30 6861 N 623.758 0.647228 1.43697 0
M  V30 6862 C 625.006 0.157876 2.01482 0
M  V30 6863 C 625.327 -1.23039 1.51282 0
M  V30 6864 O 624.597 -1.82071 0.722982 0
M  V30 6865 H 623.177 0.0553745 0.744945 0
M  V30 6866 H 625.839 0.83755 1.75986 0
M  V30 6867 H 624.935 0.137895 3.11795 0
M  V30 6868 N 625.236 -1.5273 0.388769 0
M  V30 6869 C 626.166 -2.29353 -0.438111 0
M  V30 6870 C 627.147 -1.32719 -1.06394 0
M  V30 6871 O 628.332 -1.61612 -1.07681 0
M  V30 6872 C 625.462 -3.09995 -1.56589 0
M  V30 6873 C 624.416 -4.14509 -1.06613 0
M  V30 6874 C 623.742 -4.83372 -2.28594 0
M  V30 6875 C 625.042 -5.22127 -0.134459 0
M  V30 6876 H 626.736 -2.98723 0.201206 0
M  V30 6877 H 624.282 -1.43665 0.0982089 0
M  V30 6878 H 626.235 -3.62357 -2.15118 0
M  V30 6879 H 624.959 -2.38357 -2.23279 0
M  V30 6880 H 623.618 -3.63128 -0.503383 0
M  V30 6881 H 623.266 -4.08283 -2.93792 0
M  V30 6882 H 622.966 -5.54012 -1.95817 0
M  V30 6883 H 624.49 -5.38538 -2.87766 0
M  V30 6884 H 625.904 -5.69851 -0.627914 0
M  V30 6885 H 624.301 -6.00011 0.103534 0
M  V30 6886 H 625.371 -4.77971 0.816798 0
M  V30 6887 N 626.714 -0.118576 -1.57153 0
M  V30 6888 C 627.962 0.538461 -1.94795 0
M  V30 6889 C 628.283 1.67243 -1.00274 0
M  V30 6890 O 627.553 1.95811 -0.0589692 0
M  V30 6891 H 626.133 0.201904 -0.719197 0
M  V30 6892 H 628.795 -0.187418 -1.93997 0
M  V30 6893 H 627.891 0.933315 -2.97818 0
M  V30 6894 N 628.193 1.56834 0.155195 0
M  V30 6895 C 629.47 1.73799 0.897395 0
M  V30 6896 C 629.85 0.684379 1.99698 0
M  V30 6897 O 629.198 -0.298111 2.26547 0
M  V30 6898 C 629.408 3.17572 1.44737 0
M  V30 6899 C 630.756 3.79014 1.91399 0
M  V30 6900 O 631.78 3.20951 1.54496 0
M  V30 6901 O 630.639 4.80998 2.59429 0
M  V30 6902 H 627.733 0.710329 0.423511 0
M  V30 6903 H 630.279 1.69107 0.141761 0
M  V30 6904 H 629.051 3.85749 0.656741 0
M  V30 6905 H 628.674 3.26657 2.26674 0
M  V30 6906 N 629.671 -0.424282 1.51781 0
M  V30 6907 C 631.082 -1.00368 1.57427 0
M  V30 6908 C 631.433 -1.91962 0.40558 0
M  V30 6909 O 630.558 -2.111 -0.47601 0
M  V30 6910 C 631.153 -1.82707 2.85313 0
M  V30 6911 C 629.712 -2.35675 2.93487 0
M  V30 6912 C 628.859 -1.1524 2.5222 0
M  V30 6913 H 631.81 -0.205064 1.5737 0
M  V30 6914 H 631.831 -2.68294 2.69812 0
M  V30 6915 H 631.343 -1.16017 3.70353 0
M  V30 6916 H 629.444 -3.05781 2.12906 0
M  V30 6917 H 629.557 -2.67578 3.97415 0
M  V30 6918 H 627.921 -1.50174 2.05718 0
M  V30 6919 H 628.704 -0.5014 3.39619 0
M  V30 6920 N 631.149 -1.42148 -0.680565 0
M  V30 6921 C 632.565 -1.24947 -0.992995 0
M  V30 6922 C 632.765 -0.149527 -2.00944 0
M  V30 6923 O 631.821 0.481145 -2.47873 0
M  V30 6924 C 633.134 -2.60426 -1.5033 0
M  V30 6925 C 634.682 -2.67733 -1.62137 0
M  V30 6926 C 635.157 -4.03564 -2.16565 0
M  V30 6927 N 636.648 -4.05488 -2.23905 0
M  V30 6928 C 637.383 -5.07401 -2.67081 0
M  V30 6929 N 636.879 -6.19698 -3.09751 0
M  V30 6930 N 638.672 -4.94758 -2.66778 0
M  V30 6931 H 630.823 -2.12399 -0.0074788 0
M  V30 6932 H 633.086 -0.94571 -0.0658529 0
M  V30 6933 H 632.792 -3.41743 -0.830947 0
M  V30 6934 H 632.666 -2.83949 -2.483 0
M  V30 6935 H 635.053 -1.86765 -2.2848 0
M  V30 6936 H 635.134 -2.48004 -0.626713 0
M  V30 6937 H 634.778 -4.84987 -1.50833 0
M  V30 6938 H 634.708 -4.20641 -3.1681 0
M  V30 6939 H 637.199 -3.24415 -1.93812 0
M  V30 6940 H 637.512 -6.93318 -3.41365 0
M  V30 6941 H 635.857 -6.23212 -3.07623 0
M  V30 6942 H 639.048 -4.06105 -2.32801 0
M  V30 6943 H 639.221 -5.74317 -3.00107 0
M  V30 6944 N 632.627 0.916307 -1.28225 0
M  V30 6945 C 633.852 1.7043 -1.18188 0
M  V30 6946 C 634.277 1.86346 0.256274 0
M  V30 6947 O 633.635 1.37175 1.18544 0
M  V30 6948 C 633.683 3.07546 -1.88275 0
M  V30 6949 O 632.787 3.94904 -1.18848 0
M  V30 6950 H 632.128 0.521967 -0.410423 0
M  V30 6951 H 634.658 1.14589 -1.69501 0
M  V30 6952 H 634.668 3.57793 -1.96082 0
M  V30 6953 H 633.343 2.95279 -2.92887 0
M  V30 6954 H 631.92 3.53339 -1.19187 0
M  V30 6955 N 634.105 1.10431 1.1244 0
M  V30 6956 C 635.333 0.868872 1.87772 0
M  V30 6957 C 635.748 -0.580645 1.7965 0
M  V30 6958 O 635.105 -1.40031 1.17036 0
M  V30 6959 C 635.156 1.30855 3.36986 0
M  V30 6960 O 634.877 2.70123 3.44914 0
M  V30 6961 C 636.378 1.107 4.29256 0
M  V30 6962 H 633.598 0.311868 0.59412 0
M  V30 6963 H 636.142 1.46897 1.42273 0
M  V30 6964 H 634.297 0.752126 3.80029 0
M  V30 6965 H 634.711 2.88923 4.37748 0
M  V30 6966 H 636.185 1.46378 5.32238 0
M  V30 6967 H 636.662 0.0456228 4.39176 0
M  V30 6968 H 637.268 1.64988 3.91994 0
M  V30 6969 N 635.583 -1.29855 0.893053 0
M  V30 6970 C 636.516 -2.26079 0.3104 0
M  V30 6971 C 637.494 -1.52145 -0.573644 0
M  V30 6972 O 638.678 -1.8113 -0.521937 0
M  V30 6973 C 635.805 -3.34069 -0.558179 0
M  V30 6974 C 634.851 -4.25721 0.257638 0
M  V30 6975 S 635.684 -5.09409 1.65114 0
M  V30 6976 C 636.84 -6.20903 0.789307 0
M  V30 6977 H 637.073 -2.75151 1.12602 0
M  V30 6978 H 634.606 -1.37975 0.692978 0
M  V30 6979 H 636.564 -3.9675 -1.05355 0
M  V30 6980 H 635.225 -2.83705 -1.34797 0
M  V30 6981 H 634.418 -5.02366 -0.405562 0
M  V30 6982 H 634.02 -3.67656 0.685917 0
M  V30 6983 H 636.312 -6.77499 0.00978451 0
M  V30 6984 H 637.255 -6.91426 1.52762 0
M  V30 6985 H 637.663 -5.63435 0.346634 0
M  V30 6986 N 637.061 -0.65484 -1.43351 0
M  V30 6987 C 637.991 0.0221809 -2.33489 0
M  V30 6988 C 638.972 0.810272 -1.49561 0
M  V30 6989 O 640.157 0.771426 -1.78221 0
M  V30 6990 C 637.287 0.988117 -3.32947 0
M  V30 6991 C 636.241 0.310026 -4.26876 0
M  V30 6992 C 635.567 1.38752 -5.16384 0
M  V30 6993 C 636.867 -0.798589 -5.16159 0
M  V30 6994 H 638.561 -0.730571 -2.9035 0
M  V30 6995 H 636.107 -0.352773 -1.39612 0
M  V30 6996 H 638.06 1.47067 -3.94904 0
M  V30 6997 H 636.784 1.77205 -2.74346 0
M  V30 6998 H 635.443 -0.152097 -3.66284 0
M  V30 6999 H 635.091 2.16293 -4.54121 0
M  V30 7000 H 634.791 0.939051 -5.80048 0
M  V30 7001 H 636.315 1.87141 -5.81215 0
M  V30 7002 H 637.729 -0.398126 -5.71916 0
M  V30 7003 H 636.126 -1.17163 -5.88552 0
M  V30 7004 H 637.196 -1.65588 -4.55751 0
M  V30 7005 N 638.539 1.52521 -0.396863 0
M  V30 7006 C 639.502 2.2527 0.422604 0
M  V30 7007 C 640.502 1.27184 0.983913 0
M  V30 7008 O 641.692 1.51222 0.864723 0
M  V30 7009 C 638.824 3.01356 1.59365 0
M  V30 7010 H 640.017 2.99133 -0.214416 0
M  V30 7011 H 637.57 1.55587 -0.149128 0
M  V30 7012 H 638.305 2.31813 2.26789 0
M  V30 7013 H 638.09 3.73357 1.19779 0
M  V30 7014 H 639.58 3.56571 2.17363 0
M  V30 7015 N 640.017 0.126909 1.57088 0
M  V30 7016 C 641.247 -0.535892 1.99529 0
M  V30 7017 C 641.655 -1.60259 1.00566 0
M  V30 7018 O 640.998 -1.83698 -0.00843269 0
M  V30 7019 C 641.06 -1.21374 3.38391 0
M  V30 7020 C 640.724 -0.294044 4.56053 0
M  V30 7021 C 641.721 0.470454 5.17767 0
M  V30 7022 C 639.406 -0.202808 5.0189 0
M  V30 7023 C 641.4 1.31384 6.23712 0
M  V30 7024 C 639.087 0.644203 6.07695 0
M  V30 7025 C 640.085 1.40115 6.68473 0
M  V30 7026 O 639.773 2.23408 7.72233 0
M  V30 7027 H 639.505 -0.145799 0.66009 0
M  V30 7028 H 642.059 0.212441 2.04298 0
M  V30 7029 H 640.289 -2.00931 3.30399 0
M  V30 7030 H 641.978 -1.77424 3.65069 0
M  V30 7031 H 642.744 0.409884 4.83265 0
M  V30 7032 H 638.623 -0.781688 4.54324 0
M  V30 7033 H 642.167 1.90514 6.71081 0
M  V30 7034 H 638.064 0.706137 6.41626 0
M  V30 7035 H 638.832 2.16436 7.89365 0
M  V30 7036 N 641.495 -1.56914 -0.146875 0
M  V30 7037 C 642.772 -1.74273 -0.888165 0
M  V30 7038 C 643.152 -0.69496 -1.99333 0
M  V30 7039 O 642.5 0.286093 -2.26702 0
M  V30 7040 C 642.71 -3.18336 -1.43051 0
M  V30 7041 C 644.058 -3.80024 -1.89387 0
M  V30 7042 O 645.082 -3.21765 -1.52792 0
M  V30 7043 O 643.941 -4.82367 -2.56874 0
M  V30 7044 H 641.035 -0.712565 -0.419738 0
M  V30 7045 H 643.581 -1.6918 -0.132791 0
M  V30 7046 H 642.353 -3.86092 -0.636274 0
M  V30 7047 H 641.976 -3.27854 -2.24938 0
M  V30 7048 N 642.974 0.416227 -1.52004 0
M  V30 7049 C 643.937 1.48926 -1.74223 0
M  V30 7050 C 644.937 1.48693 -0.612119 0
M  V30 7051 O 646.127 1.50343 -0.879921 0
M  V30 7052 C 643.259 2.88372 -1.81809 0
M  V30 7053 H 644.452 1.3052 -2.70008 0
M  V30 7054 H 642.005 0.646271 -1.42313 0
M  V30 7055 H 642.74 3.12157 -0.879135 0
M  V30 7056 H 642.525 2.89944 -2.6396 0
M  V30 7057 H 644.015 3.66173 -2.00766 0
M  V30 7058 N 644.452 1.42507 0.673017 0
M  V30 7059 C 645.677 1.4668 1.46627 0
M  V30 7060 C 646.102 0.080066 1.8793 0
M  V30 7061 O 645.46 -0.921879 1.56112 0
M  V30 7062 C 645.508 2.40091 2.69051 0
M  V30 7063 O 644.612 1.8735 3.67387 0
M  V30 7064 H 643.953 0.496908 0.44043 0
M  V30 7065 H 646.483 1.87215 0.825334 0
M  V30 7066 H 646.493 2.56731 3.17101 0
M  V30 7067 H 645.168 3.4084 2.3833 0
M  V30 7068 H 643.745 1.80274 3.26429 0
M  V30 7069 N 645.93 -0.909495 1.28709 0
M  V30 7070 C 647.155 -1.69801 1.1909 0
M  V30 7071 C 647.58 -1.86479 -0.246388 0
M  V30 7072 O 646.938 -1.37802 -1.17815 0
M  V30 7073 C 646.986 -3.06543 1.89904 0
M  V30 7074 O 646.09 -3.94268 1.2094 0
M  V30 7075 H 645.431 -0.519783 0.413185 0
M  V30 7076 H 647.961 -1.13689 1.70106 0
M  V30 7077 H 647.971 -3.56748 1.97977 0
M  V30 7078 H 646.646 -2.93722 2.94449 0
M  V30 7079 H 645.223 -3.52702 1.2106 0
M  V30 7080 N 647.408 -1.11026 -1.11852 0
M  V30 7081 C 648.657 -0.851249 -1.82857 0
M  V30 7082 C 648.97 0.62514 -1.85341 0
M  V30 7083 O 650.176 1.00026 -2.52403 0
M  V30 7084 C 648.632 -1.47309 -3.28372 0
M  V30 7085 C 648.24 -2.9832 -3.34229 0
M  V30 7086 C 649.984 -1.29373 -4.04306 0
M  V30 7087 C 647.891 -3.53509 -4.74115 0
M  V30 7088 H 646.821 -0.314794 -0.685143 0
M  V30 7089 H 649.472 -1.33499 -1.25898 0
M  V30 7090 H 647.854 -0.917017 -3.85236 0
M  V30 7091 H 649.028 -3.60295 -2.87271 0
M  V30 7092 H 647.343 -3.15482 -2.71772 0
M  V30 7093 H 649.94 -1.68042 -5.07608 0
M  V30 7094 H 650.283 -0.235879 -4.15631 0
M  V30 7095 H 650.816 -1.8182 -3.53817 0
M  V30 7096 H 647.555 -4.58987 -4.67986 0
M  V30 7097 H 647.075 -2.96305 -5.21501 0
M  V30 7098 H 648.754 -3.51693 -5.43066 0
M  V30 7099 N 648.886 1.2938 -0.899927 0
M  V30 7100 C 649.818 2.26737 -0.335139 0
M  V30 7101 C 650.831 1.54316 0.518681 0
M  V30 7102 O 652.02 1.75313 0.335803 0
M  V30 7103 C 649.12 3.34558 0.540774 0
M  V30 7104 C 648.293 4.36455 -0.287372 0
M  V30 7105 C 647.352 5.2361 0.52141 0
M  V30 7106 O 646.378 5.69167 -0.0611735 0
M  V30 7107 N 647.58 5.50985 1.82745 0
M  V30 7108 H 650.345 2.75838 -1.17191 0
M  V30 7109 H 647.906 1.42716 -0.764438 0
M  V30 7110 H 649.898 3.89794 1.08825 0
M  V30 7111 H 648.468 2.85272 1.27823 0
M  V30 7112 H 647.688 3.80875 -1.01626 0
M  V30 7113 H 648.976 5.01573 -0.854518 0
M  V30 7114 H 648.374 5.15781 2.32349 0
M  V30 7115 H 646.931 6.09036 2.32204 0
M  V30 7116 N 650.364 0.662433 1.43002 0
M  V30 7117 C 651.594 0.187343 2.05749 0
M  V30 7118 C 652.002 -1.15582 1.49791 0
M  V30 7119 O 651.345 -1.72651 0.627487 0
M  V30 7120 C 651.407 0.0316493 3.59486 0
M  V30 7121 C 651.071 1.30156 4.38073 0
M  V30 7122 C 652.068 2.23234 4.69535 0
M  V30 7123 C 649.753 1.54572 4.77926 0
M  V30 7124 C 651.747 3.39012 5.39768 0
M  V30 7125 C 649.434 2.70641 5.47902 0
M  V30 7126 C 650.432 3.62687 5.78746 0
M  V30 7127 O 650.12 4.76728 6.47291 0
M  V30 7128 H 649.852 0.0915214 0.669776 0
M  V30 7129 H 652.406 0.905982 1.8434 0
M  V30 7130 H 650.636 -0.742451 3.79506 0
M  V30 7131 H 652.325 -0.401977 4.03905 0
M  V30 7132 H 653.091 2.05616 4.39257 0
M  V30 7133 H 648.97 0.83804 4.53319 0
M  V30 7134 H 652.514 4.10877 5.63761 0
M  V30 7135 H 648.411 2.88189 5.77596 0
M  V30 7136 H 649.179 4.76113 6.65777 0
M  V30 7137 N 651.842 -1.52309 0.404946 0
M  V30 7138 C 653.258 -1.59503 0.0556255 0
M  V30 7139 C 653.458 -1.41805 -1.43156 0
M  V30 7140 O 652.514 -1.2429 -2.19792 0
M  V30 7141 C 653.827 -2.95687 0.546801 0
M  V30 7142 C 655.375 -3.08909 0.504413 0
M  V30 7143 C 655.85 -4.47566 0.97203 0
M  V30 7144 N 657.341 -4.53795 0.928679 0
M  V30 7145 C 658.076 -5.59346 1.26174 0
M  V30 7146 N 657.572 -6.72469 1.66604 0
M  V30 7147 N 659.365 -5.49532 1.18198 0
M  V30 7148 H 651.516 -1.6206 1.37296 0
M  V30 7149 H 653.779 -0.762161 0.563751 0
M  V30 7150 H 653.485 -3.13905 1.58609 0
M  V30 7151 H 653.359 -3.77172 -0.0457905 0
M  V30 7152 H 655.746 -2.90378 -0.525819 0
M  V30 7153 H 655.827 -2.2934 1.13301 0
M  V30 7154 H 655.471 -4.6684 2.00057 0
M  V30 7155 H 655.401 -5.25625 0.320292 0
M  V30 7156 H 657.892 -3.72588 0.631369 0
M  V30 7157 H 658.205 -7.48993 1.9034 0
M  V30 7158 H 656.55 -6.73761 1.70504 0
M  V30 7159 H 659.741 -4.60038 0.865011 0
M  V30 7160 H 659.914 -6.31687 1.44485 0
M  V30 7161 N 653.32 -0.135238 -1.57019 0
M  V30 7162 C 654.267 0.808908 -2.1616 0
M  V30 7163 C 655.237 1.25234 -1.09113 0
M  V30 7164 O 656.422 1.32697 -1.37099 0
M  V30 7165 C 653.562 2.04729 -2.77813 0
M  V30 7166 C 652.675 1.65074 -3.99218 0
M  V30 7167 C 651.81 2.84002 -4.48906 0
M  V30 7168 C 650.849 2.40663 -5.62803 0
M  V30 7169 N 649.986 3.5256 -6.07162 0
M  V30 7170 H 654.826 0.297751 -2.96509 0
M  V30 7171 H 652.363 0.135264 -1.46477 0
M  V30 7172 H 654.321 2.7731 -3.11697 0
M  V30 7173 H 652.951 2.53275 -2.00128 0
M  V30 7174 H 652.003 0.823029 -3.7139 0
M  V30 7175 H 653.315 1.29236 -4.81767 0
M  V30 7176 H 652.469 3.64788 -4.84783 0
M  V30 7177 H 651.208 3.23076 -3.65339 0
M  V30 7178 H 650.213 1.58314 -5.26514 0
M  V30 7179 H 651.438 2.02687 -6.48147 0
M  V30 7180 H 649.384 3.91278 -5.26534 0
M  V30 7181 H 649.301 3.20699 -6.84608 0
M  V30 7182 H 650.569 4.33738 -6.47682 0
M  V30 7183 N 654.798 1.5699 0.138552 0
M  V30 7184 C 655.761 1.97984 1.15478 0
M  V30 7185 C 656.761 0.867416 1.35398 0
M  V30 7186 O 657.951 1.13387 1.32246 0
M  V30 7187 C 655.083 2.3031 2.51337 0
M  V30 7188 H 656.276 2.88953 0.802896 0
M  V30 7189 H 653.829 1.51555 0.382189 0
M  V30 7190 H 654.564 1.42159 2.91481 0
M  V30 7191 H 654.349 3.11425 2.38237 0
M  V30 7192 H 655.839 2.62834 3.24512 0
M  V30 7193 N 656.276 -0.40816 1.52223 0
M  V30 7194 C 657.524 -1.15274 1.66001 0
M  V30 7195 C 657.845 -1.91003 0.392803 0
M  V30 7196 O 657.115 -1.8673 -0.592336 0
M  V30 7197 H 655.695 -0.428526 0.611861 0
M  V30 7198 H 658.357 -0.46512 1.89269 0
M  V30 7199 H 657.453 -1.86628 2.50153 0
M  V30 7200 N 657.755 -1.42862 -0.66545 0
M  V30 7201 C 658.685 -1.49867 -1.79059 0
M  V30 7202 C 659.666 -0.354394 -1.66367 0
M  V30 7203 O 660.851 -0.569969 -1.85647 0
M  V30 7204 C 657.981 -1.40943 -3.17415 0
M  V30 7205 C 656.935 -2.53495 -3.44854 0
M  V30 7206 C 656.261 -2.29626 -4.82883 0
M  V30 7207 C 657.561 -3.95781 -3.40815 0
M  V30 7208 H 659.255 -2.44037 -1.73453 0
M  V30 7209 H 656.801 -1.17456 -0.833071 0
M  V30 7210 H 658.754 -1.4445 -3.95869 0
M  V30 7211 H 657.478 -0.432716 -3.23721 0
M  V30 7212 H 656.137 -2.4932 -2.68766 0
M  V30 7213 H 655.785 -1.30226 -4.8585 0
M  V30 7214 H 655.485 -3.05065 -5.02204 0
M  V30 7215 H 657.009 -2.34897 -5.63609 0
M  V30 7216 H 658.423 -4.01508 -4.09224 0
M  V30 7217 H 656.82 -4.71148 -3.71672 0
M  V30 7218 H 657.89 -4.21786 -2.39216 0
M  V30 7219 N 659.233 0.902656 -1.29189 0
M  V30 7220 C 660.644 1.46809 -1.15343 0
M  V30 7221 C 660.995 1.94568 0.252517 0
M  V30 7222 O 660.12 1.83454 1.14777 0
M  V30 7223 C 660.715 2.66829 -2.08776 0
M  V30 7224 C 659.274 3.19518 -1.98961 0
M  V30 7225 C 658.421 1.92212 -1.99874 0
M  V30 7226 H 661.372 0.714282 -1.41717 0
M  V30 7227 H 661.393 3.42465 -1.65826 0
M  V30 7228 H 660.905 2.32039 -3.11094 0
M  V30 7229 H 659.006 3.59008 -0.99721 0
M  V30 7230 H 659.119 3.84016 -2.86477 0
M  V30 7231 H 657.483 2.0979 -1.44431 0
M  V30 7232 H 658.266 1.59702 -3.03891 0
M  V30 7233 N 660.711 1.11618 1.11262 0
M  V30 7234 C 662.127 0.850468 1.35053 0
M  V30 7235 C 662.327 -0.523868 1.94571 0
M  V30 7236 O 661.383 -1.2743 2.17986 0
M  V30 7237 C 662.696 1.96005 2.28041 0
M  V30 7238 C 664.244 1.98993 2.416 0
M  V30 7239 C 664.719 3.0916 3.37911 0
M  V30 7240 N 666.21 3.08547 3.45475 0
M  V30 7241 C 666.945 3.9043 4.19943 0
M  V30 7242 N 666.441 4.8228 4.97371 0
M  V30 7243 N 668.234 3.786 4.15474 0
M  V30 7244 H 660.385 2.00184 0.709932 0
M  V30 7245 H 662.648 0.870635 0.375099 0
M  V30 7246 H 662.354 2.9499 1.91503 0
M  V30 7247 H 662.228 1.85782 3.28275 0
M  V30 7248 H 664.615 1.00633 2.77411 0
M  V30 7249 H 664.696 2.13292 1.4121 0
M  V30 7250 H 664.34 4.07748 3.02827 0
M  V30 7251 H 664.27 2.92102 4.3816 0
M  V30 7252 H 666.761 2.42 2.90249 0
M  V30 7253 H 667.074 5.41289 5.51567 0
M  V30 7254 H 665.419 4.863 4.96525 0
M  V30 7255 H 668.61 3.06185 3.54074 0
M  V30 7256 H 668.783 4.42647 4.73253 0
M  V30 7257 N 662.189 -1.289 0.906776 0
M  V30 7258 C 663.139 -2.25122 0.361109 0
M  V30 7259 C 664.123 -1.52169 -0.52283 0
M  V30 7260 O 665.315 -1.73223 -0.363691 0
M  V30 7261 C 662.444 -3.40915 -0.403982 0
M  V30 7262 C 661.53 -4.21198 0.495279 0
M  V30 7263 N 661.921 -4.79636 1.60572 0
M  V30 7264 C 660.219 -4.45027 0.294372 0
M  V30 7265 C 660.92 -5.39977 2.16332 0
M  V30 7266 N 659.896 -5.23753 1.45546 0
M  V30 7267 H 663.698 -2.67869 1.20927 0
M  V30 7268 H 661.212 -1.43592 0.758632 0
M  V30 7269 H 663.209 -4.08922 -0.811695 0
M  V30 7270 H 661.869 -2.99703 -1.24932 0
M  V30 7271 H 662.88 -4.78209 1.98838 0
M  V30 7272 H 659.557 -4.14348 -0.512021 0
M  V30 7273 H 660.947 -5.96266 3.09704 0
M  V30 7274 N 663.667 -0.670007 -1.42649 0
M  V30 7275 C 664.892 -0.196955 -2.06463 0
M  V30 7276 C 665.317 1.1352 -1.49983 0
M  V30 7277 O 664.675 1.705 -0.616397 0
M  V30 7278 C 664.723 -0.137381 -3.60338 0
M  V30 7279 O 663.827 0.895523 -4.02559 0
M  V30 7280 H 663.168 -0.102579 -0.656029 0
M  V30 7281 H 665.698 -0.917669 -1.82866 0
M  V30 7282 H 665.708 0.0403625 -4.0798 0
M  V30 7283 H 664.383 -1.10977 -4.0082 0
M  V30 7284 H 662.96 0.689209 -3.66476 0
M  V30 7285 N 665.145 1.52092 -0.413018 0
M  V30 7286 C 666.392 2.01855 0.161497 0
M  V30 7287 C 666.72 1.29845 1.44812 0
M  V30 7288 O 665.975 0.394471 1.91683 0
M  V30 7289 C 666.274 3.54529 0.4521 0
M  V30 7290 C 665.94 4.4469 -0.745788 0
M  V30 7291 C 664.602 4.69053 -1.07435 0
M  V30 7292 C 666.954 4.97742 -1.54604 0
M  V30 7293 C 664.282 5.43717 -2.20429 0
M  V30 7294 C 666.634 5.73642 -2.66678 0
M  V30 7295 C 665.298 5.96277 -3.00016 0
M  V30 7296 H 664.568 0.73864 0.0590961 0
M  V30 7297 H 667.215 1.83274 -0.555234 0
M  V30 7298 H 665.52 3.7131 1.25045 0
M  V30 7299 H 667.217 3.90546 0.909647 0
M  V30 7300 H 663.807 4.25907 -0.479725 0
M  V30 7301 H 667.991 4.78824 -1.30543 0
M  V30 7302 H 663.247 5.59462 -2.46602 0
M  V30 7303 H 667.421 6.13746 -3.29072 0
M  V30 7304 H 665.048 6.53913 -3.87688 0
M  V30 7305 N 666.623 0.143563 1.56945 0
M  V30 7306 C 667.871 -0.507402 1.95627 0
M  V30 7307 C 668.192 -1.65626 1.02922 0
M  V30 7308 O 667.462 -1.95693 0.0901136 0
M  V30 7309 H 666.042 -0.190436 0.722318 0
M  V30 7310 H 668.704 0.218257 1.93674 0
M  V30 7311 H 667.8 -0.885816 2.99265 0
M  V30 7312 N 668.101 -1.57061 -0.130224 0
M  V30 7313 C 669.517 -1.52103 -0.483413 0
M  V30 7314 C 669.717 -0.854752 -1.82473 0
M  V30 7315 O 668.773 -0.432342 -2.48771 0
M  V30 7316 C 670.086 -2.96872 -0.47825 0
M  V30 7317 C 671.634 -3.07902 -0.562592 0
M  V30 7318 C 672.109 -4.54211 -0.587929 0
M  V30 7319 N 673.6 -4.58621 -0.649684 0
M  V30 7320 C 674.335 -5.69227 -0.690551 0
M  V30 7321 N 673.831 -6.89358 -0.689743 0
M  V30 7322 N 675.624 -5.57304 -0.732708 0
M  V30 7323 H 667.775 -1.98764 0.748779 0
M  V30 7324 H 670.038 -0.907248 0.274965 0
M  V30 7325 H 669.744 -3.48944 0.439444 0
M  V30 7326 H 669.618 -3.53716 -1.31013 0
M  V30 7327 H 672.005 -2.5584 -1.47071 0
M  V30 7328 H 672.086 -2.54073 0.296764 0
M  V30 7329 H 671.73 -5.06915 0.316096 0
M  V30 7330 H 671.66 -5.0584 -1.46401 0
M  V30 7331 H 674.151 -3.72146 -0.656927 0
M  V30 7332 H 674.464 -7.69408 -0.723239 0
M  V30 7333 H 672.809 -6.91884 -0.657347 0
M  V30 7334 H 676 -4.62363 -0.730625 0
M  V30 7335 H 676.173 -6.43515 -0.76109 0
M  V30 7336 N 669.579 0.400081 -1.52437 0
M  V30 7337 C 670.527 1.50851 -1.7705 0
M  V30 7338 C 671.521 1.56928 -0.637969 0
M  V30 7339 O 672.727 1.60226 -0.820212 0
M  V30 7340 H 669.102 0.50186 -0.560036 0
M  V30 7341 H 671.073 1.27281 -2.69893 0
M  V30 7342 C 669.822 2.88117 -1.94638 0
M  V30 7343 H 669.145 2.84187 -2.81208 0
M  V30 7344 H 670.585 3.64942 -2.15855 0
M  V30 7345 C 669.044 3.29206 -0.715899 0
M  V30 7346 O 669.574 4.01544 0.111944 0
M  V30 7347 N 667.78 2.85363 -0.549191 0
M  V30 7348 H 667.327 2.26664 -1.22397 0
M  V30 7349 H 667.285 3.13214 0.27278 0
M  V30 7350 N 671.057 1.43213 0.657864 0
M  V30 7351 C 672.02 1.47687 1.75275 0
M  V30 7352 C 673.02 0.362179 1.56668 0
M  V30 7353 O 674.21 0.623734 1.62651 0
M  V30 7354 C 671.342 1.32497 3.14098 0
M  V30 7355 H 672.535 2.4519 1.7269 0
M  V30 7356 H 670.088 1.2991 0.869087 0
M  V30 7357 H 670.823 0.359831 3.22298 0
M  V30 7358 H 670.608 2.13299 3.29008 0
M  V30 7359 H 672.098 1.38549 3.93946 0
M  V30 7360 N 672.536 -0.895792 1.29666 0
M  V30 7361 C 673.466 -2.01673 1.17688 0
M  V30 7362 C 674.447 -1.69955 0.0701317 0
M  V30 7363 O 675.632 -1.9258 0.250289 0
M  V30 7364 C 672.762 -3.36568 0.856681 0
M  V30 7365 C 671.716 -3.82509 1.92017 0
M  V30 7366 C 671.042 -5.14574 1.4532 0
M  V30 7367 C 672.342 -4.02409 3.32963 0
M  V30 7368 H 674.036 -2.11953 2.11463 0
M  V30 7369 H 671.582 -1.01839 1.01807 0
M  V30 7370 H 673.535 -4.14498 0.759577 0
M  V30 7371 H 672.259 -3.26391 -0.116763 0
M  V30 7372 H 670.918 -3.068 2.00673 0
M  V30 7373 H 670.566 -5.00815 0.468325 0
M  V30 7374 H 670.266 -5.46283 2.16447 0
M  V30 7375 H 671.79 -5.9504 1.36968 0
M  V30 7376 H 673.204 -4.70808 3.27127 0
M  V30 7377 H 671.601 -4.45478 4.02082 0
M  V30 7378 H 672.671 -3.06616 3.75652 0
M  V30 7379 N 674.014 -1.12206 -1.10668 0
M  V30 7380 C 674.924 -0.800686 -2.20513 0
M  V30 7381 C 675.94 0.209512 -1.72734 0
M  V30 7382 O 677.116 0.043705 -2.01353 0
M  V30 7383 C 674.181 -0.257353 -3.45744 0
M  V30 7384 C 673.242 -1.32718 -4.0827 0
M  V30 7385 C 672.475 -0.809674 -5.27522 0
M  V30 7386 O 672.698 0.35742 -5.69279 0
M  V30 7387 O 671.632 -1.57816 -5.80842 0
M  V30 7388 H 675.458 -1.71807 -2.50432 0
M  V30 7389 H 673.043 -0.898546 -1.19359 0
M  V30 7390 H 674.925 0.0408849 -4.2138 0
M  V30 7391 H 673.6 0.632627 -3.17458 0
M  V30 7392 H 672.507 -1.67855 -3.34329 0
M  V30 7393 H 673.84 -2.19083 -4.40753 0
M  V30 7394 N 675.492 1.28418 -0.913599 0
M  V30 7395 C 676.908 1.47411 -0.611728 0
M  V30 7396 C 677.108 1.83018 0.843008 0
M  V30 7397 O 676.164 1.93505 1.6221 0
M  V30 7398 C 677.477 2.57703 -1.5495 0
M  V30 7399 C 679.025 2.71572 -1.5562 0
M  V30 7400 C 679.5 3.85008 -2.48058 0
M  V30 7401 N 680.991 3.92361 -2.46184 0
M  V30 7402 C 681.726 4.79516 -3.14407 0
M  V30 7403 N 681.222 5.71262 -3.91958 0
M  V30 7404 N 683.015 4.73125 -3.03495 0
M  V30 7405 H 675.166 1.03585 -1.85429 0
M  V30 7406 H 677.429 0.515907 -0.795326 0
M  V30 7407 H 677.135 2.38298 -2.58663 0
M  V30 7408 H 677.009 3.54801 -1.28048 0
M  V30 7409 H 679.396 2.90366 -0.526441 0
M  V30 7410 H 679.477 1.75006 -1.86565 0
M  V30 7411 H 679.121 3.66969 -3.51136 0
M  V30 7412 H 679.051 4.80971 -2.14416 0
M  V30 7413 H 681.542 3.26749 -1.89851 0
M  V30 7414 H 681.855 6.34593 -4.41034 0
M  V30 7415 H 680.2 5.71103 -3.96063 0
M  V30 7416 H 683.391 4.00442 -2.42413 0
M  V30 7417 H 683.564 5.40834 -3.56935 0
M  V30 7418 N 676.97 0.677563 1.42291 0
M  V30 7419 C 677.92 -0.0218641 2.2799 0
M  V30 7420 C 678.904 -0.770816 1.41235 0
M  V30 7421 O 680.096 -0.649273 1.64662 0
M  V30 7422 C 677.225 -0.970449 3.29298 0
M  V30 7423 C 676.311 -0.218695 4.23536 0
M  V30 7424 N 676.702 0.777908 4.99782 0
M  V30 7425 C 675 -0.456748 4.43655 0
M  V30 7426 C 675.701 1.22632 5.68627 0
M  V30 7427 N 674.677 0.55573 5.40752 0
M  V30 7428 H 678.479 0.742516 2.84366 0
M  V30 7429 H 675.993 0.506862 1.54288 0
M  V30 7430 H 677.99 -1.48652 3.89497 0
M  V30 7431 H 676.65 -1.73463 2.74483 0
M  V30 7432 H 677.661 1.15754 5.04798 0
M  V30 7433 H 674.338 -1.20021 3.99877 0
M  V30 7434 H 675.728 2.05231 6.39789 0
M  V30 7435 N 678.448 -1.51871 0.421078 0
M  V30 7436 C 679.694 -2.02237 -0.151014 0
M  V30 7437 C 680.027 -1.30554 -1.43768 0
M  V30 7438 O 679.302 -0.41546 -1.90011 0
M  V30 7439 C 679.585 -3.5802 -0.386482 0
M  V30 7440 C 679.438 -4.40339 0.9177 0
M  V30 7441 C 680.757 -4.24444 -1.16342 0
M  V30 7442 H 677.876 -0.735062 -0.0534102 0
M  V30 7443 H 680.518 -1.81656 0.556888 0
M  V30 7444 H 678.668 -3.75688 -0.989494 0
M  V30 7445 H 680.34 -4.34357 1.55344 0
M  V30 7446 H 678.583 -4.06073 1.526 0
M  V30 7447 H 679.254 -5.47451 0.707187 0
M  V30 7448 H 681.73 -4.10948 -0.652788 0
M  V30 7449 H 680.606 -5.33358 -1.29693 0
M  V30 7450 H 680.867 -3.84204 -2.18724 0
M  V30 7451 N 679.926 -0.151884 -1.56866 0
M  V30 7452 C 680.889 0.771861 -2.15812 0
M  V30 7453 C 681.889 1.17181 -1.10115 0
M  V30 7454 O 683.079 1.09194 -1.35729 0
M  V30 7455 C 680.211 2.04806 -2.7252 0
M  V30 7456 H 681.404 0.259021 -2.98779 0
M  V30 7457 H 678.957 0.097588 -1.55995 0
M  V30 7458 H 679.692 2.60445 -1.93233 0
M  V30 7459 H 679.477 1.77044 -3.49854 0
M  V30 7460 H 680.967 2.70771 -3.1792 0
M  V30 7461 N 681.404 1.57128 0.121893 0
M  V30 7462 C 682.336 1.96773 1.17529 0
M  V30 7463 C 683.349 0.866668 1.37814 0
M  V30 7464 O 684.538 1.14497 1.3694 0
M  V30 7465 C 681.638 2.24832 2.53582 0
M  V30 7466 C 680.811 3.56138 2.53939 0
M  V30 7467 C 679.87 3.72443 3.71716 0
M  V30 7468 O 678.896 4.44584 3.55434 0
M  V30 7469 N 680.098 3.10993 4.90167 0
M  V30 7470 H 682.863 2.87743 0.838086 0
M  V30 7471 H 680.424 1.58881 0.311199 0
M  V30 7472 H 682.416 2.32958 3.30927 0
M  V30 7473 H 680.986 1.40002 2.79496 0
M  V30 7474 H 680.206 3.59226 1.62329 0
M  V30 7475 H 681.494 4.42448 2.51231 0
M  V30 7476 H 680.892 2.52345 5.06299 0
M  V30 7477 H 679.449 3.24644 5.65198 0
M  V30 7478 N 682.882 -0.391992 1.52647 0
M  V30 7479 C 683.829 -1.47866 1.77213 0
M  V30 7480 C 684.799 -1.54286 0.615223 0
M  V30 7481 O 685.984 -1.7059 0.854622 0
M  V30 7482 C 683.124 -2.85129 1.94411 0
M  V30 7483 C 682.237 -2.87883 3.22098 0
M  V30 7484 C 681.372 -4.16553 3.29631 0
M  V30 7485 C 680.411 -4.13348 4.51453 0
M  V30 7486 N 679.548 -5.33619 4.56284 0
M  V30 7487 H 684.388 -1.26219 2.6995 0
M  V30 7488 H 681.925 -0.612367 1.33748 0
M  V30 7489 H 683.883 -3.64833 2.02367 0
M  V30 7490 H 682.513 -3.05232 1.05038 0
M  V30 7491 H 681.565 -2.00567 3.23229 0
M  V30 7492 H 682.877 -2.81382 4.11856 0
M  V30 7493 H 682.031 -5.0466 3.36753 0
M  V30 7494 H 680.77 -4.25773 2.37842 0
M  V30 7495 H 679.775 -3.23629 4.44459 0
M  V30 7496 H 681 -4.05754 5.44555 0
M  V30 7497 H 678.946 -5.43474 3.67385 0
M  V30 7498 H 678.863 -5.29182 5.3991 0
M  V30 7499 H 680.131 -6.23632 4.67657 0
M  V30 7500 N 684.36 -1.4356 -0.65026 0
M  V30 7501 C 685.307 -1.48948 -1.76304 0
M  V30 7502 C 686.277 -0.338919 -1.62605 0
M  V30 7503 O 687.462 -0.54649 -1.82806 0
M  V30 7504 C 684.602 -1.42131 -3.14472 0
M  V30 7505 C 683.715 -2.67415 -3.39284 0
M  V30 7506 C 682.85 -2.52565 -4.67316 0
M  V30 7507 C 681.889 -3.73103 -4.85243 0
M  V30 7508 N 681.026 -3.57046 -6.04535 0
M  V30 7509 H 685.866 -2.44032 -1.71034 0
M  V30 7510 H 683.403 -1.21131 -0.834601 0
M  V30 7511 H 685.361 -1.36172 -3.94351 0
M  V30 7512 H 683.991 -0.506273 -3.18805 0
M  V30 7513 H 683.043 -2.8364 -2.53481 0
M  V30 7514 H 684.355 -3.56943 -3.48415 0
M  V30 7515 H 683.509 -2.44331 -5.55326 0
M  V30 7516 H 682.248 -1.60566 -4.60511 0
M  V30 7517 H 681.253 -3.81743 -3.95667 0
M  V30 7518 H 682.478 -4.66115 -4.93876 0
M  V30 7519 H 680.424 -2.67783 -5.98856 0
M  V30 7520 H 680.341 -4.40178 -6.14638 0
M  V30 7521 H 681.609 -3.52669 -6.95158 0
M  V30 7522 N 685.838 0.888903 -1.30139 0
M  V30 7523 C 687.063 1.67884 -1.21777 0
M  V30 7524 C 687.488 1.86848 0.216689 0
M  V30 7525 O 686.846 1.39659 1.15608 0
M  V30 7526 C 686.894 3.03483 -1.94757 0
M  V30 7527 O 685.998 3.92294 -1.27198 0
M  V30 7528 H 685.339 0.513144 -0.421402 0
M  V30 7529 H 687.869 1.10968 -1.71893 0
M  V30 7530 H 687.879 3.53553 -2.03627 0
M  V30 7531 H 686.554 2.89 -2.99085 0
M  V30 7532 H 685.131 3.50732 -1.26655 0
M  V30 7533 N 687.317 1.12792 1.10072 0
M  V30 7534 C 688.733 0.864745 1.34143 0
M  V30 7535 C 688.933 -0.503201 1.95116 0
M  V30 7536 O 687.989 -1.25111 2.19325 0
M  V30 7537 C 689.302 1.98413 2.25949 0
M  V30 7538 C 690.85 2.01545 2.39476 0
M  V30 7539 C 691.325 3.12727 3.34613 0
M  V30 7540 N 692.816 3.12194 3.42183 0
M  V30 7541 C 693.551 3.94862 4.15779 0
M  V30 7542 N 693.047 4.87528 4.92228 0
M  V30 7543 N 694.84 3.82985 4.11435 0
M  V30 7544 H 686.991 2.00926 0.68866 0
M  V30 7545 H 689.254 0.874564 0.365844 0
M  V30 7546 H 688.96 2.97005 1.88364 0
M  V30 7547 H 688.834 1.89254 3.26287 0
M  V30 7548 H 691.221 1.0357 2.76328 0
M  V30 7549 H 691.302 2.14777 1.3894 0
M  V30 7550 H 690.946 4.10936 2.98486 0
M  V30 7551 H 690.876 2.96732 4.35037 0
M  V30 7552 H 693.367 2.45065 2.87666 0
M  V30 7553 H 693.68 5.47109 5.45794 0
M  V30 7554 H 692.025 4.91539 4.9134 0
M  V30 7555 H 695.216 3.09923 3.50807 0
M  V30 7556 H 695.389 4.47641 4.68531 0
M  V30 7557 N 688.795 -1.27931 0.920396 0
M  V30 7558 C 689.725 -2.29487 0.431024 0
M  V30 7559 C 690.706 -1.62435 -0.504861 0
M  V30 7560 O 691.891 -1.89797 -0.411176 0
M  V30 7561 C 689.021 -3.45788 -0.323709 0
M  V30 7562 C 687.975 -4.24784 0.523658 0
M  V30 7563 C 687.301 -5.33488 -0.359809 0
M  V30 7564 C 688.601 -4.90874 1.78437 0
M  V30 7565 H 690.295 -2.70671 1.27975 0
M  V30 7566 H 687.841 -1.30121 0.616813 0
M  V30 7567 H 689.794 -4.15927 -0.676952 0
M  V30 7568 H 688.518 -3.03502 -1.2064 0
M  V30 7569 H 687.177 -3.56382 0.85951 0
M  V30 7570 H 686.825 -4.87445 -1.24124 0
M  V30 7571 H 686.525 -5.87247 0.203605 0
M  V30 7572 H 688.049 -6.06472 -0.708787 0
M  V30 7573 H 689.463 -5.53339 1.49963 0
M  V30 7574 H 687.86 -5.54659 2.29071 0
M  V30 7575 H 688.93 -4.14988 2.50824 0
M  V30 7576 N 690.273 -0.685099 -1.4193 0
M  V30 7577 C 691.689 -0.355632 -1.55587 0
M  V30 7578 C 691.889 1.13823 -1.66273 0
M  V30 7579 O 690.945 1.92387 -1.63534 0
M  V30 7580 C 692.258 -1.09498 -2.80055 0
M  V30 7581 C 693.806 -1.07831 -2.93839 0
M  V30 7582 C 694.281 -1.79919 -4.21181 0
M  V30 7583 N 695.772 -1.76837 -4.28115 0
M  V30 7584 C 696.507 -2.29463 -5.25485 0
M  V30 7585 N 696.003 -2.90516 -6.28945 0
M  V30 7586 N 697.796 -2.19779 -5.17353 0
M  V30 7587 H 689.947 -1.65412 -1.33239 0
M  V30 7588 H 692.21 -0.697453 -0.642078 0
M  V30 7589 H 691.916 -2.14997 -2.78333 0
M  V30 7590 H 691.79 -0.666813 -3.71259 0
M  V30 7591 H 694.177 -0.0316152 -2.95083 0
M  V30 7592 H 694.258 -1.54545 -2.03837 0
M  V30 7593 H 693.902 -2.84562 -4.20698 0
M  V30 7594 H 693.832 -1.30647 -5.10136 0
M  V30 7595 H 696.323 -1.32315 -3.53979 0
M  V30 7596 H 696.636 -3.28266 -6.99615 0
M  V30 7597 H 694.981 -2.94589 -6.29478 0
M  V30 7598 H 698.172 -1.71763 -4.35448 0
M  V30 7599 H 698.345 -2.61097 -5.9307 0
M  V30 7600 N 691.751 1.51645 -0.429126 0
M  V30 7601 C 693.167 1.59394 -0.080994 0
M  V30 7602 C 693.367 1.44064 1.40882 0
M  V30 7603 O 692.423 1.27771 2.17786 0
M  V30 7604 C 693.736 2.94779 -0.593773 0
M  V30 7605 C 695.284 3.08067 -0.553494 0
M  V30 7606 C 695.759 4.45963 -1.04311 0
M  V30 7607 N 697.25 4.5226 -1.00076 0
M  V30 7608 C 697.985 5.57268 -1.35056 0
M  V30 7609 N 697.481 6.69734 -1.77282 0
M  V30 7610 N 699.274 5.47582 -1.26925 0
M  V30 7611 H 691.425 1.59856 -1.39857 0
M  V30 7612 H 693.688 0.753095 -0.575805 0
M  V30 7613 H 693.394 3.11342 -1.63583 0
M  V30 7614 H 693.268 3.77197 -0.0142202 0
M  V30 7615 H 695.655 2.91177 0.479556 0
M  V30 7616 H 695.736 2.27508 -1.16935 0
M  V30 7617 H 695.38 4.63598 -2.07459 0
M  V30 7618 H 695.31 5.25049 -0.403873 0
M  V30 7619 H 697.801 3.71537 -0.690564 0
M  V30 7620 H 698.114 7.4587 -2.02232 0
M  V30 7621 H 696.459 6.70963 -1.81202 0
M  V30 7622 H 699.65 4.58604 -0.93809 0
M  V30 7623 H 699.823 6.29308 -1.54516 0
M  V30 7624 N 693.229 0.160201 1.56784 0
M  V30 7625 C 694.645 -0.196089 1.58391 0
M  V30 7626 C 694.845 -1.63689 1.17508 0
M  V30 7627 O 693.901 -2.36613 0.881506 0
M  V30 7628 C 695.214 0.0746449 3.00607 0
M  V30 7629 C 696.762 0.0119762 3.12998 0
M  V30 7630 C 697.237 0.255551 4.57286 0
M  V30 7631 N 698.728 0.202938 4.62755 0
M  V30 7632 C 699.463 0.365731 5.72232 0
M  V30 7633 N 698.959 0.586972 6.90309 0
M  V30 7634 N 700.752 0.302411 5.61286 0
M  V30 7635 H 692.903 1.1008 1.81648 0
M  V30 7636 H 695.166 0.436779 0.841384 0
M  V30 7637 H 694.872 1.07231 3.34954 0
M  V30 7638 H 694.746 -0.638802 3.71751 0
M  V30 7639 H 697.133 -0.976254 2.78484 0
M  V30 7640 H 697.214 0.75796 2.44313 0
M  V30 7641 H 696.858 1.24094 4.92507 0
M  V30 7642 H 696.788 -0.510912 5.24116 0
M  V30 7643 H 699.279 0.0371328 3.77882 0
M  V30 7644 H 699.592 0.700941 7.69615 0
M  V30 7645 H 697.937 0.623453 6.92198 0
M  V30 7646 H 701.128 0.130238 4.67919 0
M  V30 7647 H 701.301 0.432712 6.46554 0
M  V30 7648 N 694.707 -1.5719 -0.113559 0
M  V30 7649 C 695.67 -1.99796 -1.12314 0
M  V30 7650 C 696.67 -0.888847 -1.34001 0
M  V30 7651 O 697.86 -1.15476 -1.30426 0
M  V30 7652 C 694.992 -2.34279 -2.47641 0
M  V30 7653 H 696.185 -2.90193 -0.756825 0
M  V30 7654 H 693.738 -1.52144 -0.358029 0
M  V30 7655 H 694.473 -1.46778 -2.89183 0
M  V30 7656 H 694.258 -3.15175 -2.33253 0
M  V30 7657 H 695.748 -2.67963 -3.2029 0
M  V30 7658 N 696.185 0.383891 -1.52853 0
M  V30 7659 C 697.41 1.154 -1.7233 0
M  V30 7660 C 697.835 1.82809 -0.44298 0
M  V30 7661 O 697.193 1.71026 0.601645 0
M  V30 7662 C 697.241 2.17386 -2.87708 0
M  V30 7663 O 696.345 3.24082 -2.55038 0
M  V30 7664 H 695.686 0.335709 -0.572883 0
M  V30 7665 H 698.216 0.44662 -1.99666 0
M  V30 7666 H 698.226 2.61296 -3.1335 0
M  V30 7667 H 696.901 1.6771 -3.80587 0
M  V30 7668 H 695.478 2.85273 -2.40153 0
M  V30 7669 N 697.663 1.43903 0.642637 0
M  V30 7670 C 698.595 1.45857 1.768 0
M  V30 7671 C 699.608 0.353358 1.58919 0
M  V30 7672 O 700.797 0.618426 1.67445 0
M  V30 7673 C 697.897 1.26583 3.14372 0
M  V30 7674 C 697.07 2.50139 3.58817 0
M  V30 7675 C 696.129 2.25933 4.75227 0
M  V30 7676 O 695.155 2.99351 4.84125 0
M  V30 7677 N 696.357 1.28263 5.66153 0
M  V30 7678 H 699.122 2.42869 1.75598 0
M  V30 7679 H 696.683 1.39194 0.826832 0
M  V30 7680 H 698.675 1.08255 3.89953 0
M  V30 7681 H 697.245 0.37978 3.10284 0
M  V30 7682 H 696.465 2.83821 2.73568 0
M  V30 7683 H 697.753 3.32344 3.8526 0
M  V30 7684 H 697.151 0.676041 5.61646 0
M  V30 7685 H 695.708 1.15916 6.4141 0
M  V30 7686 N 699.141 -0.881989 1.30609 0
M  V30 7687 C 700.071 -2.00413 1.1982 0
M  V30 7688 C 701.052 -1.69871 0.0881538 0
M  V30 7689 O 702.237 -1.92304 0.2707 0
M  V30 7690 C 699.367 -3.35641 0.89233 0
M  V30 7691 C 698.321 -3.80451 1.96064 0
M  V30 7692 C 697.647 -5.13003 1.5077 0
M  V30 7693 C 698.947 -3.98855 3.37213 0
M  V30 7694 H 700.641 -2.09698 2.13699 0
M  V30 7695 H 698.187 -1.00754 1.02882 0
M  V30 7696 H 700.14 -4.13669 0.803497 0
M  V30 7697 H 698.864 -3.26497 -0.0821381 0
M  V30 7698 H 697.523 -3.04654 2.03916 0
M  V30 7699 H 697.171 -5.0029 0.521417 0
M  V30 7700 H 696.871 -5.43956 2.22229 0
M  V30 7701 H 698.395 -5.93554 1.43271 0
M  V30 7702 H 699.809 -4.67312 3.32103 0
M  V30 7703 H 698.206 -4.41188 4.06784 0
M  V30 7704 H 699.276 -3.02614 3.78883 0
M  V30 7705 N 700.619 -1.13374 -1.09472 0
M  V30 7706 C 701.566 -0.810682 -2.16094 0
M  V30 7707 C 702.536 0.227003 -1.64541 0
M  V30 7708 O 703.721 0.0993538 -1.90541 0
M  V30 7709 C 700.861 -0.282336 -3.43943 0
M  V30 7710 C 699.974 -1.37902 -4.09398 0
M  V30 7711 C 699.109 -0.809066 -5.25002 0
M  V30 7712 C 698.148 -1.88419 -5.82379 0
M  V30 7713 N 697.285 -1.33221 -6.89345 0
M  V30 7714 H 702.125 -1.72397 -2.43071 0
M  V30 7715 H 699.662 -0.860564 -1.19301 0
M  V30 7716 H 701.62 0.0421189 -4.17179 0
M  V30 7717 H 700.25 0.594083 -3.17286 0
M  V30 7718 H 699.302 -1.82008 -3.34032 0
M  V30 7719 H 700.614 -2.19161 -4.48074 0
M  V30 7720 H 699.768 -0.435867 -6.05132 0
M  V30 7721 H 698.507 0.0346058 -4.87688 0
M  V30 7722 H 697.512 -2.26646 -5.00911 0
M  V30 7723 H 698.737 -2.73125 -6.21755 0
M  V30 7724 H 696.683 -0.510535 -6.5401 0
M  V30 7725 H 696.6 -2.08129 -7.26786 0
M  V30 7726 H 697.868 -0.986565 -7.73232 0
M  V30 7727 N 702.098 1.27442 -0.927168 0
M  V30 7728 C 703.347 1.93679 -0.563146 0
M  V30 7729 C 703.66 1.73673 0.899837 0
M  V30 7730 O 704.866 2.34247 1.37262 0
M  V30 7731 C 703.322 3.46961 -0.95636 0
M  V30 7732 C 702.93 3.75724 -2.43999 0
M  V30 7733 C 704.674 4.19282 -0.663565 0
M  V30 7734 C 702.581 5.22378 -2.77263 0
M  V30 7735 H 701.511 0.725059 -0.206894 0
M  V30 7736 H 704.162 1.44743 -1.12791 0
M  V30 7737 H 702.544 3.94703 -0.320254 0
M  V30 7738 H 703.718 3.38741 -3.12396 0
M  V30 7739 H 702.033 3.16605 -2.70463 0
M  V30 7740 H 704.63 5.27265 -0.888596 0
M  V30 7741 H 704.973 4.14382 0.399198 0
M  V30 7742 H 705.506 3.7736 -1.25875 0
M  V30 7743 H 702.245 5.32367 -3.82446 0
M  V30 7744 H 701.765 5.6051 -2.13516 0
M  V30 7745 H 703.444 5.9025 -2.64979 0
M  V30 7746 N 703.576 0.692616 1.41565 0
M  V30 7747 C 704.804 0.231279 2.05603 0
M  V30 7748 C 705.219 -1.11837 1.52111 0
M  V30 7749 O 704.576 -1.6983 0.66813 0
M  V30 7750 C 704.627 0.177125 3.61066 0
M  V30 7751 O 704.348 1.47346 4.12578 0
M  V30 7752 C 705.849 -0.30556 4.42246 0
M  V30 7753 H 703.069 0.108238 0.662213 0
M  V30 7754 H 705.613 0.944369 1.81389 0
M  V30 7755 H 703.768 -0.486769 3.8433 0
M  V30 7756 H 704.182 1.35861 5.06599 0
M  V30 7757 H 705.656 -0.29233 5.51225 0
M  V30 7758 H 706.133 -1.34393 4.18133 0
M  V30 7759 H 706.739 0.327229 4.24039 0
M  V30 7760 N 705.054 -1.51416 0.437162 0
M  V30 7761 C 706.303 -2.01275 -0.130865 0
M  V30 7762 C 706.616 -1.32593 -1.438 0
M  V30 7763 O 707.822 -1.7342 -2.08897 0
M  V30 7764 C 706.278 -3.5878 -0.283763 0
M  V30 7765 C 705.886 -4.36399 1.01293 0
M  V30 7766 C 707.63 -4.16786 -0.805569 0
M  V30 7767 C 705.537 -5.85608 0.825687 0
M  V30 7768 H 704.467 -0.752157 -0.0526818 0
M  V30 7769 H 707.118 -1.74524 0.566896 0
M  V30 7770 H 705.5 -3.81976 -1.04452 0
M  V30 7771 H 706.674 -4.24948 1.78201 0
M  V30 7772 H 704.989 -3.89843 1.46326 0
M  V30 7773 H 707.586 -5.25972 -0.962146 0
M  V30 7774 H 707.929 -3.75949 -1.78796 0
M  V30 7775 H 708.462 -3.97666 -0.103125 0
M  V30 7776 H 705.201 -6.30857 1.78045 0
M  V30 7777 H 704.721 -5.99723 0.0964029 0
M  V30 7778 H 706.4 -6.45226 0.478815 0
M  V30 7779 N 706.532 -0.168513 -1.56696 0
M  V30 7780 C 707.943 0.348694 -1.83415 0
M  V30 7781 C 708.294 1.63257 -1.0882 0
M  V30 7782 O 707.419 2.13707 -0.340333 0
M  V30 7783 C 708.014 0.639423 -3.32711 0
M  V30 7784 C 706.573 1.10108 -3.59935 0
M  V30 7785 C 705.72 0.135464 -2.76969 0
M  V30 7786 H 708.671 -0.392829 -1.53761 0
M  V30 7787 H 708.692 1.49179 -3.50037 0
M  V30 7788 H 708.204 -0.295173 -3.86976 0
M  V30 7789 H 706.305 2.05088 -3.11079 0
M  V30 7790 H 706.418 1.01218 -4.68286 0
M  V30 7791 H 704.782 0.632286 -2.46727 0
M  V30 7792 H 705.565 -0.793104 -3.34013 0
M  V30 7793 N 708.01 1.57248 0.105221 0
M  V30 7794 C 709.287 1.76566 0.841647 0
M  V30 7795 C 709.667 0.747566 1.9742 0
M  V30 7796 O 709.015 -0.225886 2.27381 0
M  V30 7797 C 709.225 3.22016 1.3456 0
M  V30 7798 C 710.573 3.84911 1.79244 0
M  V30 7799 O 711.597 3.25703 1.44207 0
M  V30 7800 O 710.456 4.89008 2.43995 0
M  V30 7801 H 707.55 0.723443 0.400698 0
M  V30 7802 H 710.096 1.69472 0.0878893 0
M  V30 7803 H 708.868 3.87644 0.533685 0
M  V30 7804 H 708.491 3.33703 2.16167 0
M  V30 7805 N 709.488 -0.375779 1.53054 0
M  V30 7806 C 710.418 -1.46598 1.81745 0
M  V30 7807 C 711.399 -1.56337 0.670286 0
M  V30 7808 O 712.584 -1.71071 0.919158 0
M  V30 7809 C 709.714 -2.84058 1.99821 0
M  V30 7810 C 708.668 -2.8915 3.15557 0
M  V30 7811 C 707.994 -4.29187 3.18908 0
M  V30 7812 C 709.294 -2.57595 4.54359 0
M  V30 7813 H 710.988 -1.22837 2.73041 0
M  V30 7814 H 708.534 -0.589485 1.31381 0
M  V30 7815 H 710.487 -3.60342 2.18475 0
M  V30 7816 H 709.211 -3.09184 1.05226 0
M  V30 7817 H 707.87 -2.15316 2.96706 0
M  V30 7818 H 707.518 -4.51374 2.2197 0
M  V30 7819 H 707.218 -4.33512 3.96662 0
M  V30 7820 H 708.742 -5.07359 3.39734 0
M  V30 7821 H 710.156 -3.23595 4.73243 0
M  V30 7822 H 708.553 -2.73252 5.34279 0
M  V30 7823 H 709.623 -1.52882 4.60169 0
M  V30 7824 N 710.966 -1.44241 -0.634997 0
M  V30 7825 C 712.194 -1.50296 -1.42193 0
M  V30 7826 C 712.609 -0.12658 -1.88375 0
M  V30 7827 O 711.966 0.86678 -1.60603 0
M  V30 7828 C 712.017 -2.46437 -2.64482 0
M  V30 7829 O 711.738 -3.78724 -2.20226 0
M  V30 7830 C 713.239 -2.61918 -3.57651 0
M  V30 7831 H 710.459 -0.509865 -0.43621 0
M  V30 7832 H 713.003 -1.89167 -0.776921 0
M  V30 7833 H 711.158 -2.10712 -3.25083 0
M  V30 7834 H 711.572 -4.30595 -2.9948 0
M  V30 7835 H 713.046 -3.33225 -4.40074 0
M  V30 7836 H 713.523 -1.67017 -4.06204 0
M  V30 7837 H 714.129 -2.98528 -3.02921 0
M  V30 7838 N 712.444 0.87505 -1.31075 0
M  V30 7839 C 713.721 1.60976 -1.11113 0
M  V30 7840 C 714.101 2.08409 0.336006 0
M  V30 7841 O 713.449 1.85858 1.32924 0
M  V30 7842 C 713.659 2.77166 -2.12085 0
M  V30 7843 C 715.007 3.47254 -2.44335 0
M  V30 7844 O 716.031 2.87367 -2.10472 0
M  V30 7845 O 714.89 4.55276 -3.02301 0
M  V30 7846 H 711.984 0.707982 -0.427424 0
M  V30 7847 H 714.53 0.920957 -1.42536 0
M  V30 7848 H 713.302 2.39494 -3.09449 0
M  V30 7849 H 712.925 3.53737 -1.81538 0
M  V30 7850 N 713.922 1.13953 1.08869 0
M  V30 7851 C 715.168 0.906151 1.8143 0
M  V30 7852 C 715.501 -0.566089 1.85766 0
M  V30 7853 O 714.776 -1.41915 1.33006 0
M  V30 7854 C 715.059 1.50183 3.27287 0
M  V30 7855 C 714.912 3.04359 3.31189 0
M  V30 7856 C 716.231 1.17477 4.24131 0
M  V30 7857 H 713.35 0.330624 0.658678 0
M  V30 7858 H 715.992 1.40873 1.27495 0
M  V30 7859 H 714.142 1.07442 3.73348 0
M  V30 7860 H 715.814 3.55896 2.93488 0
M  V30 7861 H 714.057 3.39053 2.70602 0
M  V30 7862 H 714.728 3.41141 4.33966 0
M  V30 7863 H 717.204 1.5442 3.86385 0
M  V30 7864 H 716.08 1.61795 5.24513 0
M  V30 7865 H 716.341 0.0893312 4.4201 0
M  V30 7866 N 715.4 -1.26948 0.933913 0
M  V30 7867 C 716.348 -2.2862 0.428463 0
M  V30 7868 C 717.342 -1.62144 -0.490464 0
M  V30 7869 O 718.548 -1.76167 -0.36948 0
M  V30 7870 H 714.923 -0.742363 0.120003 0
M  V30 7871 H 716.894 -2.68659 1.29865 0
M  V30 7872 C 715.643 -3.46423 -0.29774 0
M  V30 7873 H 714.966 -3.97792 0.400183 0
M  V30 7874 H 716.406 -4.19505 -0.615736 0
M  V30 7875 C 714.865 -3.01017 -1.51295 0
M  V30 7876 O 715.395 -3.05226 -2.61151 0
M  V30 7877 N 713.601 -2.56442 -1.36696 0
M  V30 7878 H 713.148 -2.53217 -0.473178 0
M  V30 7879 H 713.106 -2.26424 -2.18127 0
M  V30 7880 N 716.879 -0.700114 -1.41195 0
M  V30 7881 C 717.842 -0.0465706 -2.29153 0
M  V30 7882 C 718.842 0.703302 -1.44604 0
M  V30 7883 O 720.032 0.537513 -1.657 0
M  V30 7884 C 717.164 0.944324 -3.2756 0
M  V30 7885 H 718.357 -0.821064 -2.88442 0
M  V30 7886 H 715.91 -0.463869 -1.49258 0
M  V30 7887 H 716.645 1.74642 -2.73259 0
M  V30 7888 H 716.43 0.409701 -3.89954 0
M  V30 7889 H 717.92 1.39925 -3.9346 0
M  V30 7890 N 718.357 1.51182 -0.445186 0
M  V30 7891 C 719.606 2.01342 0.120189 0
M  V30 7892 C 719.919 1.33353 1.43095 0
M  V30 7893 O 721.125 1.74525 2.07974 0
M  V30 7894 C 719.581 3.58925 0.264732 0
M  V30 7895 C 719.189 4.35855 -1.03606 0
M  V30 7896 C 720.933 4.17208 0.783455 0
M  V30 7897 C 718.84 5.85162 -0.856731 0
M  V30 7898 H 717.77 0.752426 0.0486922 0
M  V30 7899 H 720.421 1.74221 -0.576143 0
M  V30 7900 H 718.803 3.82525 1.02425 0
M  V30 7901 H 719.977 4.23997 -1.80452 0
M  V30 7902 H 718.292 3.89062 -1.48391 0
M  V30 7903 H 720.889 5.26475 0.934239 0
M  V30 7904 H 721.232 3.76892 1.768 0
M  V30 7905 H 721.765 3.97715 0.0820346 0
M  V30 7906 H 718.504 6.29904 -1.81388 0
M  V30 7907 H 718.024 5.99663 -0.128206 0
M  V30 7908 H 719.703 6.44963 -0.513027 0
M  V30 7909 N 719.835 0.176821 1.56605 0
M  V30 7910 C 721.112 -0.513365 1.88743 0
M  V30 7911 C 721.492 -1.80929 1.08757 0
M  V30 7912 O 720.84 -2.27765 0.183127 0
M  V30 7913 C 721.05 -0.749925 3.40848 0
M  V30 7914 C 722.398 -1.07747 4.10701 0
M  V30 7915 O 723.422 -0.838277 3.46196 0
M  V30 7916 O 722.281 -1.52901 5.24675 0
M  V30 7917 H 719.375 -0.265296 0.783292 0
M  V30 7918 H 721.921 0.215669 1.68324 0
M  V30 7919 H 720.693 0.16599 3.90948 0
M  V30 7920 H 720.316 -1.53208 3.66897 0
M  V30 7921 N 721.313 -1.57302 -0.09688 0
M  V30 7922 C 722.729 -1.53094 -0.451041 0
M  V30 7923 C 722.929 -0.893265 -1.80618 0
M  V30 7924 O 721.985 -0.485013 -2.47798 0
M  V30 7925 C 723.298 -2.9782 -0.415172 0
M  V30 7926 C 724.846 -3.09026 -0.497155 0
M  V30 7927 C 725.321 -4.55356 -0.491452 0
M  V30 7928 N 726.812 -4.59896 -0.552258 0
M  V30 7929 C 727.547 -5.70563 -0.569654 0
M  V30 7930 N 727.043 -6.90666 -0.543365 0
M  V30 7931 N 728.836 -5.58733 -0.614331 0
M  V30 7932 H 720.987 -1.97131 0.790771 0
M  V30 7933 H 723.25 -0.901211 0.294147 0
M  V30 7934 H 722.956 -3.47933 0.513362 0
M  V30 7935 H 722.83 -3.56416 -1.23481 0
M  V30 7936 H 725.217 -2.58902 -1.41611 0
M  V30 7937 H 725.298 -2.53386 0.35059 0
M  V30 7938 H 724.942 -5.06131 0.423549 0
M  V30 7939 H 724.872 -5.08832 -1.35639 0
M  V30 7940 H 727.363 -3.73456 -0.577842 0
M  V30 7941 H 727.676 -7.70769 -0.559873 0
M  V30 7942 H 726.021 -6.93123 -0.510441 0
M  V30 7943 H 729.212 -4.63809 -0.632387 0
M  V30 7944 H 729.385 -6.44984 -0.62442 0
M  V30 7945 N 722.791 0.367657 -1.53252 0
M  V30 7946 C 724.037 1.10864 -1.70531 0
M  V30 7947 C 724.392 1.87051 -0.4505 0
M  V30 7948 O 723.685 1.83342 0.556431 0
M  V30 7949 C 723.879 2.09825 -2.89324 0
M  V30 7950 C 723.708 1.43361 -4.26237 0
M  V30 7951 C 722.478 1.18861 -4.91121 0
M  V30 7952 C 724.676 0.872409 -5.06847 0
M  V30 7953 N 722.658 0.487258 -6.11963 0
M  V30 7954 C 724.029 0.300301 -6.19272 0
M  V30 7955 C 726.084 0.770895 -4.91896 0
M  V30 7956 C 724.787 -0.363419 -7.18381 0
M  V30 7957 C 726.813 0.12096 -5.91276 0
M  V30 7958 C 726.175 -0.440283 -7.03023 0
M  V30 7959 H 722.274 0.390902 -0.677288 0
M  V30 7960 H 724.858 0.395305 -1.90645 0
M  V30 7961 H 723.029 2.78473 -2.70753 0
M  V30 7962 H 724.761 2.76585 -2.95436 0
M  V30 7963 H 721.516 1.46934 -4.5023 0
M  V30 7964 H 721.94 0.152005 -6.76829 0
M  V30 7965 H 726.582 1.19058 -4.05691 0
M  V30 7966 H 724.3 -0.795057 -8.04179 0
M  V30 7967 H 727.886 0.0433702 -5.81784 0
M  V30 7968 H 726.766 -0.935244 -7.78603 0
M  V30 7969 N 724.269 1.44576 0.627338 0
M  V30 7970 C 725.494 1.51271 1.41887 0
M  V30 7971 C 725.919 0.139814 1.8758 0
M  V30 7972 O 725.277 -0.871746 1.58966 0
M  V30 7973 C 725.325 2.48529 2.61277 0
M  V30 7974 O 724.429 1.98944 3.61241 0
M  V30 7975 H 723.77 0.510668 0.424399 0
M  V30 7976 H 726.3 1.89746 0.765356 0
M  V30 7977 H 726.31 2.66689 3.08773 0
M  V30 7978 H 724.985 3.48249 2.27366 0
M  V30 7979 H 723.562 1.90568 3.20528 0
M  V30 7980 N 725.747 -0.868086 1.31537 0
M  V30 7981 C 727.163 -1.15414 1.10235 0
M  V30 7982 C 727.363 -2.01106 -0.125947 0
M  V30 7983 O 726.419 -2.38994 -0.814734 0
M  V30 7984 C 727.732 -1.84445 2.37488 0
M  V30 7985 C 729.28 -1.97139 2.43116 0
M  V30 7986 C 729.755 -2.69585 3.70254 0
M  V30 7987 N 731.246 -2.77119 3.71159 0
M  V30 7988 C 731.981 -3.33791 4.6623 0
M  V30 7989 N 731.477 -3.9138 5.71659 0
M  V30 7990 N 733.27 -3.31767 4.53747 0
M  V30 7991 H 725.421 -0.297109 2.10312 0
M  V30 7992 H 727.684 -0.194227 0.92789 0
M  V30 7993 H 727.39 -1.2893 3.27215 0
M  V30 7994 H 727.264 -2.84709 2.47428 0
M  V30 7995 H 729.651 -2.51818 1.53856 0
M  V30 7996 H 729.732 -0.95912 2.37138 0
M  V30 7997 H 729.376 -2.15572 4.59881 0
M  V30 7998 H 729.306 -3.71223 3.73499 0
M  V30 7999 H 731.797 -2.3625 2.94948 0
M  V30 8000 H 732.11 -4.3274 6.40278 0
M  V30 8001 H 730.455 -3.8975 5.7543 0
M  V30 8002 H 733.646 -2.86016 3.70557 0
M  V30 8003 H 733.819 -3.75636 5.28017 0
M  V30 8004 N 727.225 -1.14528 -1.08264 0
M  V30 8005 C 728.474 -0.908992 -1.80056 0
M  V30 8006 C 728.787 0.565859 -1.87236 0
M  V30 8007 O 729.993 0.919454 -2.55457 0
M  V30 8008 C 728.449 -1.57681 -3.23519 0
M  V30 8009 C 728.057 -3.08803 -3.24569 0
M  V30 8010 C 729.801 -1.4217 -3.99985 0
M  V30 8011 C 727.708 -3.68414 -4.62629 0
M  V30 8012 H 726.638 -0.336432 -0.674781 0
M  V30 8013 H 729.289 -1.37437 -1.21587 0
M  V30 8014 H 727.671 -1.03911 -3.82124 0
M  V30 8015 H 728.845 -3.69252 -2.75663 0
M  V30 8016 H 727.16 -3.23968 -2.61598 0
M  V30 8017 H 729.757 -1.84106 -5.02005 0
M  V30 8018 H 730.1 -0.367989 -4.1467 0
M  V30 8019 H 730.633 -1.92984 -3.47853 0
M  V30 8020 H 727.372 -4.73644 -4.53147 0
M  V30 8021 H 726.892 -3.12746 -5.11811 0
M  V30 8022 H 728.571 -3.68793 -5.31602 0
M  V30 8023 N 728.703 1.26451 -0.940633 0
M  V30 8024 C 729.95 1.93778 -0.587909 0
M  V30 8025 C 730.278 1.73811 0.872935 0
M  V30 8026 O 729.533 1.06816 1.63978 0
M  V30 8027 C 729.832 3.46503 -0.875794 0
M  V30 8028 C 729.498 3.86609 -2.32043 0
M  V30 8029 C 728.16 3.97269 -2.71534 0
M  V30 8030 C 730.512 4.0672 -3.25927 0
M  V30 8031 C 727.84 4.25436 -4.04006 0
M  V30 8032 C 730.192 4.36375 -4.57995 0
M  V30 8033 C 728.856 4.45249 -4.97302 0
M  V30 8034 H 728.126 0.709084 -0.215131 0
M  V30 8035 H 730.773 1.50272 -1.18704 0
M  V30 8036 H 729.078 3.91319 -0.194124 0
M  V30 8037 H 730.775 3.96759 -0.581665 0
M  V30 8038 H 727.365 3.78858 -2.00411 0
M  V30 8039 H 731.549 3.97912 -2.96614 0
M  V30 8040 H 726.805 4.30519 -4.34124 0
M  V30 8041 H 730.979 4.50882 -5.30734 0
M  V30 8042 H 728.606 4.66829 -5.99979 0
M  V30 8043 N 730.181 0.707592 1.40822 0
M  V30 8044 C 731.428 0.243671 2.01029 0
M  V30 8045 C 731.756 -1.16057 1.5608 0
M  V30 8046 O 731.011 -1.7999 0.768251 0
M  V30 8047 C 731.31 0.262892 3.56432 0
M  V30 8048 C 730.976 1.61632 4.20935 0
M  V30 8049 C 729.638 1.98682 4.38268 0
M  V30 8050 C 731.99 2.50619 4.5699 0
M  V30 8051 C 729.318 3.2428 4.88937 0
M  V30 8052 C 731.67 3.75562 5.09054 0
M  V30 8053 C 730.334 4.12739 5.24598 0
M  V30 8054 H 729.604 0.0891654 0.735616 0
M  V30 8055 H 732.251 0.909051 1.68548 0
M  V30 8056 H 730.556 -0.486052 3.88773 0
M  V30 8057 H 732.253 -0.113775 4.00839 0
M  V30 8058 H 728.843 1.31818 4.07826 0
M  V30 8059 H 733.027 2.23272 4.43242 0
M  V30 8060 H 728.283 3.53064 4.99155 0
M  V30 8061 H 732.457 4.44692 5.35931 0
M  V30 8062 H 730.084 5.10132 5.63622 0
M  V30 8063 N 731.66 -1.50943 0.453197 0
M  V30 8064 C 733.071 -1.86699 -0.00619892 0
M  V30 8065 C 733.422 -1.3693 -1.40515 0
M  V30 8066 O 732.547 -0.726715 -2.03833 0
M  V30 8067 C 733.142 -3.38795 -0.018025 0
M  V30 8068 C 731.701 -3.74028 -0.421885 0
M  V30 8069 C 730.848 -2.74752 0.375087 0
M  V30 8070 H 733.799 -1.43942 0.668317 0
M  V30 8071 H 733.82 -3.71468 -0.824125 0
M  V30 8072 H 733.332 -3.74988 1.00028 0
M  V30 8073 H 731.433 -3.43431 -1.44521 0
M  V30 8074 H 731.546 -4.78908 -0.135664 0
M  V30 8075 H 729.91 -2.5414 -0.168794 0
M  V30 8076 H 730.693 -3.13787 1.39256 0
M  V30 8077 N 733.138 -0.185124 -1.56509 0
M  V30 8078 C 734.384 0.456934 -1.97585 0
M  V30 8079 C 734.717 1.61957 -1.07161 0
M  V30 8080 O 733.992 1.9412 -0.121546 0
M  V30 8081 C 734.275 0.926666 -3.47973 0
M  V30 8082 C 734.128 -0.237097 -4.49175 0
M  V30 8083 C 735.447 1.79561 -4.01803 0
M  V30 8084 H 732.566 0.164619 -0.71838 0
M  V30 8085 H 735.208 -0.274039 -1.88013 0
M  V30 8086 H 733.358 1.54954 -3.56261 0
M  V30 8087 H 735.03 -0.87454 -4.52934 0
M  V30 8088 H 733.273 -0.890446 -4.24563 0
M  V30 8089 H 733.944 0.133924 -5.51838 0
M  V30 8090 H 736.42 1.27039 -3.96232 0
M  V30 8091 H 735.296 2.09327 -5.07418 0
M  V30 8092 H 735.557 2.74629 -3.46455 0
M  V30 8093 N 734.616 1.57351 0.0885366 0
M  V30 8094 C 735.862 1.86696 0.791996 0
M  V30 8095 C 736.195 0.775148 1.78059 0
M  V30 8096 O 735.47 -0.216247 1.93294 0
M  V30 8097 C 735.753 3.26684 1.51491 0
M  V30 8098 C 735.606 4.465 0.543858 0
M  V30 8099 C 736.925 3.64664 2.46391 0
M  V30 8100 H 734.044 0.679049 0.286463 0
M  V30 8101 H 736.686 1.89919 0.0554866 0
M  V30 8102 H 734.836 3.24067 2.14273 0
M  V30 8103 H 736.508 4.61235 -0.0774597 0
M  V30 8104 H 734.751 4.33567 -0.142228 0
M  V30 8105 H 735.422 5.41192 1.08696 0
M  V30 8106 H 737.898 3.68267 1.93698 0
M  V30 8107 H 736.774 4.63534 2.93986 0
M  V30 8108 H 737.035 2.93698 3.30445 0
M  V30 8109 N 736.094 -0.359525 1.53444 0
M  V30 8110 C 737.341 -1.10152 1.6992 0
M  V30 8111 C 737.669 -1.89125 0.4541 0
M  V30 8112 O 736.924 -1.87396 -0.564023 0
M  V30 8113 C 737.223 -2.08287 2.90433 0
M  V30 8114 C 736.889 -1.45749 4.26694 0
M  V30 8115 C 735.551 -1.28421 4.63747 0
M  V30 8116 C 737.903 -1.00557 5.11408 0
M  V30 8117 C 735.231 -0.644951 5.83144 0
M  V30 8118 C 737.583 -0.380288 6.31456 0
M  V30 8119 C 736.247 -0.194557 6.67216 0
M  V30 8120 H 735.517 -0.403076 0.621781 0
M  V30 8121 H 738.164 -0.382612 1.87639 0
M  V30 8122 H 736.469 -2.86503 2.67251 0
M  V30 8123 H 738.166 -2.65662 3.00374 0
M  V30 8124 H 734.756 -1.6023 3.97523 0
M  V30 8125 H 738.94 -1.12735 4.83326 0
M  V30 8126 H 734.196 -0.48952 6.09437 0
M  V30 8127 H 738.37 -0.0219455 6.96397 0
M  V30 8128 H 735.997 0.30285 7.59597 0
M  V30 8129 N 737.572 -1.44907 -0.619662 0
M  V30 8130 C 738.797 -1.52021 -1.41083 0
M  V30 8131 C 739.222 -0.14976 -1.87503 0
M  V30 8132 O 738.58 0.863303 -1.59426 0
M  V30 8133 C 738.628 -2.49911 -2.59955 0
M  V30 8134 O 737.732 -2.00857 -3.60181 0
M  V30 8135 H 737.073 -0.512912 -0.421684 0
M  V30 8136 H 739.603 -1.90149 -0.755282 0
M  V30 8137 H 739.613 -2.68323 -3.07354 0
M  V30 8138 H 738.288 -3.4945 -2.25516 0
M  V30 8139 H 736.865 -1.92265 -3.19513 0
M  V30 8140 N 739.05 0.861098 -1.31996 0
M  V30 8141 C 740.297 1.61481 -1.22188 0
M  V30 8142 C 740.625 1.93276 0.217853 0
M  V30 8143 O 739.88 1.56942 1.16909 0
M  V30 8144 C 740.179 2.94822 -2.02027 0
M  V30 8145 C 739.845 2.82483 -3.51446 0
M  V30 8146 C 738.507 2.78825 -3.92186 0
M  V30 8147 C 740.859 2.68878 -4.46491 0
M  V30 8148 C 738.187 2.59433 -5.26224 0
M  V30 8149 C 740.539 2.51022 -5.80664 0
M  V30 8150 C 739.203 2.45753 -6.20614 0
M  V30 8151 H 738.473 0.590902 -0.447119 0
M  V30 8152 H 741.12 0.999376 -1.63355 0
M  V30 8153 H 739.425 3.6045 -1.53569 0
M  V30 8154 H 741.122 3.52149 -1.91812 0
M  V30 8155 H 737.712 2.86152 -3.19085 0
M  V30 8156 H 741.896 2.70754 -4.1594 0
M  V30 8157 H 737.152 2.53784 -5.5624 0
M  V30 8158 H 741.326 2.39473 -6.53931 0
M  V30 8159 H 738.953 2.30485 -7.24417 0
M  V30 8160 N 740.528 1.15101 1.07655 0
M  V30 8161 C 741.775 0.923974 1.80191 0
M  V30 8162 C 742.103 -0.549065 1.86589 0
M  V30 8163 O 741.358 -1.42307 1.3434 0
M  V30 8164 C 741.657 1.47954 3.25337 0
M  V30 8165 C 741.323 2.97253 3.39044 0
M  V30 8166 C 739.985 3.38012 3.42493 0
M  V30 8167 C 742.337 3.93219 3.42094 0
M  V30 8168 C 739.665 4.73384 3.4659 0
M  V30 8169 C 742.017 5.28458 3.47728 0
M  V30 8170 C 740.681 5.68717 3.49453 0
M  V30 8171 H 739.951 0.338106 0.659367 0
M  V30 8172 H 742.598 1.43594 1.26701 0
M  V30 8173 H 740.903 0.888691 3.81588 0
M  V30 8174 H 742.6 1.27972 3.80032 0
M  V30 8175 H 739.19 2.64746 3.37057 0
M  V30 8176 H 743.374 3.62805 3.38654 0
M  V30 8177 H 738.63 5.03925 3.46222 0
M  V30 8178 H 742.804 6.02618 3.49034 0
M  V30 8179 H 740.431 6.73596 3.5238 0
M  V30 8180 N 742.006 -1.2595 0.947325 0
M  V30 8181 C 742.954 -2.28152 0.452687 0
M  V30 8182 C 743.948 -1.62655 -0.473239 0
M  V30 8183 O 745.154 -1.76549 -0.350774 0
M  V30 8184 H 741.529 -0.741049 0.12787 0
M  V30 8185 H 743.5 -2.67267 1.32707 0
M  V30 8186 C 742.249 -3.46719 -0.26098 0
M  V30 8187 H 741.572 -3.97345 0.442352 0
M  V30 8188 H 743.012 -4.20135 -0.571208 0
M  V30 8189 C 741.471 -3.02605 -1.48094 0
M  V30 8190 O 742.001 -3.07979 -2.57899 0
M  V30 8191 N 740.207 -2.57877 -1.33969 0
M  V30 8192 H 739.754 -2.53704 -0.446295 0
M  V30 8193 H 739.712 -2.28725 -2.15713 0
M  V30 8194 N 743.484 -0.715051 -1.40445 0
M  V30 8195 C 744.733 -0.251322 -2.00128 0
M  V30 8196 C 745.046 1.16194 -1.57347 0
M  V30 8197 O 746.252 1.72416 -2.09726 0
M  V30 8198 C 744.708 -0.398407 -3.57688 0
M  V30 8199 C 744.316 -1.81828 -4.09442 0
M  V30 8200 C 746.06 0.00455625 -4.245 0
M  V30 8201 C 743.967 -1.91598 -5.59503 0
M  V30 8202 H 742.897 -0.0902081 -0.748584 0
M  V30 8203 H 745.548 -0.886062 -1.6069 0
M  V30 8204 H 743.93 0.304908 -3.94824 0
M  V30 8205 H 745.104 -2.55193 -3.83684 0
M  V30 8206 H 743.419 -2.17266 -3.55225 0
M  V30 8207 H 746.016 -0.0477303 -5.34679 0
M  V30 8208 H 746.359 1.04636 -4.02935 0
M  V30 8209 H 746.892 -0.649184 -3.92467 0
M  V30 8210 H 743.631 -2.93898 -5.85922 0
M  V30 8211 H 743.151 -1.22644 -5.87127 0
M  V30 8212 H 744.83 -1.68785 -6.24596 0
M  V30 8213 N 744.962 1.50701 -0.461195 0
M  V30 8214 C 746.208 2.02566 0.0973411 0
M  V30 8215 C 746.541 1.3432 1.40257 0
M  V30 8216 O 745.816 0.465692 1.88843 0
M  V30 8217 C 746.099 3.58919 0.291423 0
M  V30 8218 C 745.952 4.37751 -1.03413 0
M  V30 8219 C 747.271 4.27379 1.05048 0
M  V30 8220 H 744.39 0.73622 0.0339026 0
M  V30 8221 H 747.032 1.80115 -0.604855 0
M  V30 8222 H 745.182 3.78179 0.889539 0
M  V30 8223 H 746.854 4.30085 -1.66806 0
M  V30 8224 H 745.097 4.01885 -1.63313 0
M  V30 8225 H 745.768 5.45384 -0.852085 0
M  V30 8226 H 748.244 4.12534 0.543603 0
M  V30 8227 H 747.12 5.36609 1.15506 0
M  V30 8228 H 747.381 3.89868 2.0846 0
M  V30 8229 N 746.441 0.193421 1.56409 0
M  V30 8230 C 747.671 -0.450783 2.01622 0
M  V30 8231 C 748.079 -1.5585 1.07273 0
M  V30 8232 O 747.422 -1.83569 0.0694875 0
M  V30 8233 C 747.484 -1.06913 3.43235 0
M  V30 8234 C 747.148 -0.100352 4.5689 0
M  V30 8235 C 748.145 0.689633 5.15306 0
M  V30 8236 C 745.83 0.0102436 5.02299 0
M  V30 8237 C 747.824 1.5772 6.17579 0
M  V30 8238 C 745.511 0.901368 6.04416 0
M  V30 8239 C 746.509 1.68341 6.61929 0
M  V30 8240 O 746.197 2.5596 7.62063 0
M  V30 8241 H 745.929 -0.117671 0.66568 0
M  V30 8242 H 748.483 0.2989 2.03214 0
M  V30 8243 H 746.713 -1.86736 3.38624 0
M  V30 8244 H 748.402 -1.61781 3.72266 0
M  V30 8245 H 749.168 0.614485 4.81092 0
M  V30 8246 H 745.047 -0.58829 4.57231 0
M  V30 8247 H 748.591 2.18805 6.62397 0
M  V30 8248 H 744.488 0.977637 6.38054 0
M  V30 8249 H 745.256 2.49721 7.79475 0
M  V30 8250 N 747.919 -1.57396 -0.0801906 0
M  V30 8251 C 749.165 -1.87979 -0.776884 0
M  V30 8252 C 749.52 -0.786098 -1.75608 0
M  V30 8253 O 748.813 0.210541 -1.9044 0
M  V30 8254 C 749.007 -3.22915 -1.53169 0
M  V30 8255 C 748.836 -4.45306 -0.627099 0
M  V30 8256 C 747.606 -5.04593 -0.267201 0
M  V30 8257 C 749.804 -5.14249 0.0724916 0
M  V30 8258 N 747.786 -6.10513 0.643995 0
M  V30 8259 C 749.157 -6.14267 0.841191 0
M  V30 8260 C 751.212 -4.97689 0.144847 0
M  V30 8261 C 749.915 -6.99514 1.67551 0
M  V30 8262 C 751.941 -5.83455 0.966112 0
M  V30 8263 C 751.303 -6.83005 1.72288 0
M  V30 8264 H 747.402 -0.737519 -0.259979 0
M  V30 8265 H 749.986 -1.94661 -0.0387512 0
M  V30 8266 H 748.157 -3.17256 -2.2406 0
M  V30 8267 H 749.889 -3.41174 -2.17675 0
M  V30 8268 H 746.644 -4.69548 -0.618194 0
M  V30 8269 H 747.068 -6.68125 1.09259 0
M  V30 8270 H 751.71 -4.20649 -0.4259 0
M  V30 8271 H 749.428 -7.75934 2.25726 0
M  V30 8272 H 753.014 -5.727 1.02497 0
M  V30 8273 H 751.894 -7.48219 2.34813 0
M  V30 8274 N 749.397 0.351382 -1.53633 0
M  V30 8275 C 750.327 1.43688 -1.84055 0
M  V30 8276 C 751.308 1.55251 -0.695073 0
M  V30 8277 O 752.493 1.69587 -0.946257 0
M  V30 8278 C 749.623 2.80843 -2.04315 0
M  V30 8279 C 748.577 2.84094 -3.20117 0
M  V30 8280 C 747.903 4.2406 -3.25696 0
M  V30 8281 C 749.203 2.50334 -4.58399 0
M  V30 8282 H 750.897 1.18478 -2.74961 0
M  V30 8283 H 748.443 0.568509 -1.32303 0
M  V30 8284 H 750.396 3.56821 -2.2418 0
M  V30 8285 H 749.12 3.07471 -1.10132 0
M  V30 8286 H 747.779 2.10568 -3.00094 0
M  V30 8287 H 747.427 4.47785 -2.29123 0
M  V30 8288 H 747.127 4.27147 -4.03509 0
M  V30 8289 H 748.651 5.0189 -3.47762 0
M  V30 8290 H 750.065 3.16025 -4.78332 0
M  V30 8291 H 748.462 2.64717 -5.38558 0
M  V30 8292 H 749.532 1.45542 -4.62543 0
M  V30 8293 N 750.875 1.45233 0.611969 0
M  V30 8294 C 752.105 1.52318 1.39581 0
M  V30 8295 C 752.513 0.153093 1.8858 0
M  V30 8296 O 751.856 -0.854792 1.62601 0
M  V30 8297 C 751.918 2.4426 2.63775 0
M  V30 8298 C 751.582 3.91079 2.36445 0
M  V30 8299 C 752.579 4.81099 1.97079 0
M  V30 8300 C 750.264 4.35958 2.49492 0
M  V30 8301 C 752.258 6.14002 1.71115 0
M  V30 8302 C 749.945 5.68903 2.23142 0
M  V30 8303 C 750.943 6.57744 1.84015 0
M  V30 8304 O 750.631 7.88226 1.5797 0
M  V30 8305 H 750.363 0.518428 0.43383 0
M  V30 8306 H 752.917 1.91067 0.753837 0
M  V30 8307 H 751.147 2.00474 3.30677 0
M  V30 8308 H 752.836 2.42077 3.25812 0
M  V30 8309 H 753.602 4.47692 1.86539 0
M  V30 8310 H 749.481 3.67053 2.78914 0
M  V30 8311 H 753.025 6.83305 1.405 0
M  V30 8312 H 748.922 6.01866 2.33297 0
M  V30 8313 H 749.69 8.00211 1.72058 0
M  V30 8314 N 752.353 -0.854086 1.3245 0
M  V30 8315 C 753.583 -1.63836 1.25862 0
M  V30 8316 C 753.991 -1.88383 -0.175588 0
M  V30 8317 O 753.334 -1.45353 -1.1233 0
M  V30 8318 C 753.396 -3.02068 1.94923 0
M  V30 8319 C 753.06 -3.0056 3.44257 0
M  V30 8320 C 754.057 -2.77368 4.39731 0
M  V30 8321 C 751.742 -3.21177 3.862 0
M  V30 8322 C 753.736 -2.74797 5.75122 0
M  V30 8323 C 751.423 -3.18234 5.217 0
M  V30 8324 C 752.421 -2.95072 6.15972 0
M  V30 8325 O 752.109 -2.92003 7.48992 0
M  V30 8326 H 751.841 -0.517007 0.435523 0
M  V30 8327 H 754.395 -1.07314 1.75137 0
M  V30 8328 H 752.625 -3.60382 1.40219 0
M  V30 8329 H 754.314 -3.62791 1.82037 0
M  V30 8330 H 755.08 -2.61205 4.08653 0
M  V30 8331 H 750.959 -3.38231 3.13243 0
M  V30 8332 H 754.503 -2.56638 6.48678 0
M  V30 8333 H 750.4 -3.33941 5.52407 0
M  V30 8334 H 751.168 -3.07953 7.58358 0
M  V30 8335 N 753.831 -1.1567 -1.07043 0
M  V30 8336 C 755.077 -0.9349 -1.79965 0
M  V30 8337 C 755.41 0.536464 -1.86643 0
M  V30 8338 O 754.685 1.39781 -1.35247 0
M  V30 8339 C 754.968 -1.55371 -3.24857 0
M  V30 8340 C 754.821 -3.09589 -3.26305 0
M  V30 8341 C 756.14 -1.24209 -4.22209 0
M  V30 8342 H 753.259 -0.341061 -0.653335 0
M  V30 8343 H 755.901 -1.42883 -1.25237 0
M  V30 8344 H 754.051 -1.13368 -3.71591 0
M  V30 8345 H 755.723 -3.60521 -2.87789 0
M  V30 8346 H 753.966 -3.43315 -2.65174 0
M  V30 8347 H 754.637 -3.48002 -4.28484 0
M  V30 8348 H 757.113 -1.60548 -3.8388 0
M  V30 8349 H 755.989 -1.70119 -5.21872 0
M  V30 8350 H 756.25 -0.15964 -4.41812 0
M  V30 8351 N 755.309 1.25446 -0.953992 0
M  V30 8352 C 756.257 2.27909 -0.46478 0
M  V30 8353 C 757.251 1.62904 0.464607 0
M  V30 8354 O 758.457 1.76733 0.341407 0
M  V30 8355 H 754.832 0.74036 -0.131798 0
M  V30 8356 H 756.803 2.66559 -1.34122 0
M  V30 8357 C 755.552 3.46853 0.242589 0
M  V30 8358 H 754.875 3.97105 -0.463418 0
M  V30 8359 H 756.315 4.20432 0.548919 0
M  V30 8360 C 754.774 3.03386 1.46487 0
M  V30 8361 O 755.304 3.09342 2.56262 0
M  V30 8362 N 753.51 2.58584 1.32599 0
M  V30 8363 H 753.057 2.53938 0.432834 0
M  V30 8364 H 753.015 2.29866 2.14497 0
M  V30 8365 O 756.826 0.86056 1.36662 0
M  V30 8366 H 757.517 0.45661 1.88241 0
M  V30 END ATOM
M  V30 BEGIN BOND
M  V30 END BOND
M  V30 END CTAB
M  END
$$$$
