drugbank_target|P04252 Bacterial hemoglobin (DB03366)
 OpenBabel12092120263D

  0  0  0     0  0            999 V3000
M  V30 BEGIN CTAB
M  V30 COUNTS 2254 2274 0 0 0
M  V30 BEGIN ATOM
M  V30 1 H -0.908 1.98254 -0.117106 0
M  V30 2 N 0 1.576 0 0
M  V30 3 C 0.933 2.03868 1.02534 0
M  V30 4 C 1.911 0.928543 1.3348 0
M  V30 5 O 3.095 1.19667 1.45644 0
M  V30 6 C 0.222 2.43627 2.35294 0
M  V30 7 C -0.732 3.65373 2.2001 0
M  V30 8 S 0.101 5.13292 1.52614 0
M  V30 9 C 1.257 5.56322 2.86805 0
M  V30 10 H 1.49 2.90518 0.631377 0
M  V30 11 H -0.977 1.52953 0.210867 0
M  V30 12 H 0.981 2.67203 3.11629 0
M  V30 13 H -0.358 1.57376 2.7183 0
M  V30 14 H -1.165 3.90944 3.18086 0
M  V30 15 H -1.563 3.418 1.51819 0
M  V30 16 H 0.729 5.58782 3.83104 0
M  V30 17 H 1.672 6.56266 2.65933 0
M  V30 18 H 2.08 4.83886 2.90714 0
M  V30 19 N 1.4781 -0.272755 1.55222 0
M  V30 20 C 2.4081 -1.34136 1.91127 0
M  V30 21 C 3.3891 -1.51513 0.773168 0
M  V30 22 O 4.5741 -1.64552 1.03132 0
M  V30 23 C 1.7041 -2.70083 2.1834 0
M  V30 24 C 0.6581 -2.67437 3.34158 0
M  V30 25 C -0.0159 -4.06938 3.46851 0
M  V30 26 C 1.2841 -2.26686 4.70543 0
M  V30 27 H 2.9781 -1.04333 2.80633 0
M  V30 28 H 0.5241 -0.500454 1.35024 0
M  V30 29 H 2.4771 -3.44952 2.42046 0
M  V30 30 H 1.2011 -3.01469 1.25634 0
M  V30 31 H -0.1399 -1.95026 3.1042 0
M  V30 32 H -0.4919 -4.35547 2.51611 0
M  V30 33 H -0.7919 -4.06062 4.2472 0
M  V30 34 H 0.7321 -4.83545 3.72849 0
M  V30 35 H 2.1461 -2.91277 4.93792 0
M  V30 36 H 0.5431 -2.36971 5.5133 0
M  V30 37 H 1.6131 -1.21818 4.69349 0
M  V30 38 N 2.9562 -1.48159 -0.537278 0
M  V30 39 C 4.2332 -1.46291 -1.29839 0
M  V30 40 C 4.6132 -0.170613 -2.10409 0
M  V30 41 O 3.9612 0.847746 -2.12192 0
M  V30 42 C 4.1712 -2.72055 -2.18603 0
M  V30 43 C 5.5192 -3.20087 -2.7898 0
M  V30 44 O 6.5432 -2.72921 -2.28894 0
M  V30 45 O 5.4022 -4.02138 -3.70064 0
M  V30 46 H 2.4962 -0.583906 -0.585647 0
M  V30 47 H 5.0422 -1.60384 -0.554534 0
M  V30 48 H 3.8142 -3.57628 -1.58801 0
M  V30 49 H 3.4372 -2.60646 -3.00249 0
M  V30 50 N 4.4343 0.785586 -1.36625 0
M  V30 51 C 5.3663 1.90711 -1.2713 0
M  V30 52 C 6.3793 1.61688 -0.189986 0
M  V30 53 O 7.5683 1.72864 -0.445014 0
M  V30 54 C 4.6683 3.25611 -0.939713 0
M  V30 55 C 3.8413 3.82385 -2.12369 0
M  V30 56 C 2.9003 4.95732 -1.76456 0
M  V30 57 O 1.9263 5.12047 -2.48589 0
M  V30 58 N 3.1283 5.76258 -0.700492 0
M  V30 59 H 5.8933 1.99376 -2.23762 0
M  V30 60 H 3.4543 0.964041 -1.30069 0
M  V30 61 H 5.4463 3.98937 -0.680554 0
M  V30 62 H 4.0163 3.12538 -0.0624074 0
M  V30 63 H 3.2363 3.01001 -2.54543 0
M  V30 64 H 4.5243 4.17047 -2.9146 0
M  V30 65 H 3.9223 5.65609 -0.101624 0
M  V30 66 H 2.4793 6.4987 -0.501165 0
M  V30 67 N 5.9124 1.20967 1.01018 0
M  V30 68 C 6.8444 0.922059 2.09835 0
M  V30 69 C 7.8574 -0.0927106 1.62536 0
M  V30 70 O 9.0464 0.139127 1.77957 0
M  V30 71 C 6.1464 0.362004 3.36961 0
M  V30 72 C 5.3194 1.42986 4.13369 0
M  V30 73 C 4.3784 0.879976 5.1879 0
M  V30 74 O 3.4044 1.56219 5.47343 0
M  V30 75 N 4.6064 -0.307396 5.79686 0
M  V30 76 H 7.3714 1.8588 2.35093 0
M  V30 77 H 4.9324 1.11422 1.1746 0
M  V30 78 H 6.9244 -0.0201474 4.04695 0
M  V30 79 H 5.4944 -0.479437 3.08902 0
M  V30 80 H 4.7144 1.98608 3.40512 0
M  V30 81 H 6.0024 2.14885 4.61196 0
M  V30 82 H 5.4004 -0.878796 5.58832 0
M  V30 83 H 3.9574 -0.631115 6.48737 0
M  V30 84 N 7.3905 -1.2043 1.01659 0
M  V30 85 C 8.6185 -1.93777 0.725132 0
M  V30 86 C 9.0335 -1.74772 -0.714166 0
M  V30 87 O 8.3905 -1.06169 -1.4844 0
M  V30 88 C 8.4415 -3.45876 1.05129 0
M  V30 89 O 8.1625 -3.6426 2.43406 0
M  V30 90 C 9.6635 -4.36368 0.780891 0
M  V30 91 H 6.8835 -0.615901 0.266284 0
M  V30 92 H 9.4275 -1.52922 1.35776 0
M  V30 93 H 7.5825 -3.8461 0.464065 0
M  V30 94 H 7.9965 -4.58246 2.55169 0
M  V30 95 H 9.4705 -5.41743 1.05918 0
M  V30 96 H 9.9475 -4.38275 -0.284937 0
M  V30 97 H 10.5535 -4.03296 1.35027 0
M  V30 98 N 8.8686 -0.792821 -1.36206 0
M  V30 99 C 10.1176 -0.363353 -1.984 0
M  V30 100 C 10.4306 1.07172 -1.63626 0
M  V30 101 O 11.6366 1.60362 -2.19081 0
M  V30 102 C 10.0926 -0.59872 -3.54885 0
M  V30 103 C 9.7006 -2.04543 -3.9858 0
M  V30 104 C 11.4446 -0.233926 -4.23855 0
M  V30 105 C 9.3516 -2.22727 -5.47856 0
M  V30 106 H 8.2816 -0.13212 -0.742334 0
M  V30 107 H 10.9326 -0.974935 -1.55458 0
M  V30 108 H 9.3146 0.0826222 -3.95914 0
M  V30 109 H 10.4886 -2.76345 -3.68741 0
M  V30 110 H 8.8036 -2.36879 -3.42458 0
M  V30 111 H 11.4006 -0.348027 -5.33566 0
M  V30 112 H 11.7436 0.818351 -4.08177 0
M  V30 113 H 12.2766 -0.868639 -3.882 0
M  V30 114 H 9.0156 -3.2635 -5.68486 0
M  V30 115 H 8.5356 -1.55434 -5.7931 0
M  V30 116 H 10.2146 -2.03607 -6.14128 0
M  V30 117 N 10.3467 1.47872 -0.545128 0
M  V30 118 C 11.2947 2.31533 0.222512 0
M  V30 119 C 12.2887 1.42177 0.920985 0
M  V30 120 O 13.4947 1.59005 0.843645 0
M  V30 121 H 9.8697 0.746519 0.0906278 0
M  V30 122 H 11.8407 2.94139 -0.50246 0
M  V30 123 C 10.5897 3.2457 1.24699 0
M  V30 124 H 9.9127 3.93283 0.718944 0
M  V30 125 H 11.3527 3.85963 1.75523 0
M  V30 126 C 9.8117 2.47237 2.28856 0
M  V30 127 O 10.3417 2.20808 3.35569 0
M  V30 128 N 8.5477 2.08461 2.02466 0
M  V30 129 H 8.0947 2.30155 1.157 0
M  V30 130 H 8.0527 1.57033 2.72375 0
M  V30 131 N 11.8248 0.280983 1.55075 0
M  V30 132 C 13.0738 -0.334784 1.98902 0
M  V30 133 C 13.3868 -1.56534 1.17288 0
M  V30 134 O 14.5928 -2.25443 1.51287 0
M  V30 135 C 13.0488 -0.646994 3.54037 0
M  V30 136 C 12.6568 0.564085 4.44435 0
M  V30 137 C 14.4008 -1.22506 4.06439 0
M  V30 138 C 12.3078 0.226137 5.90967 0
M  V30 139 H 11.2378 -0.128866 0.742906 0
M  V30 140 H 13.8888 0.386556 1.79382 0
M  V30 141 H 12.2708 -1.42739 3.6938 0
M  V30 142 H 13.4448 1.34082 4.40861 0
M  V30 143 H 11.7598 1.0594 4.02698 0
M  V30 144 H 14.3568 -1.49182 5.13468 0
M  V30 145 H 14.6998 -2.16085 3.55827 0
M  V30 146 H 15.2328 -0.50682 3.94558 0
M  V30 147 H 11.9718 1.12996 6.45687 0
M  V30 148 H 11.4918 -0.513717 5.97596 0
M  V30 149 H 13.1708 -0.179539 6.46751 0
M  V30 150 N 13.3029 -1.57598 0.00835791 0
M  V30 151 C 14.5519 -1.90107 -0.673968 0
M  V30 152 C 14.8649 -0.884275 -1.7447 0
M  V30 153 O 16.0709 -1.09987 -2.48224 0
M  V30 154 C 14.5269 -3.37497 -1.24995 0
M  V30 155 C 14.1349 -4.47491 -0.2136 0
M  V30 156 C 15.8789 -3.79104 -1.90999 0
M  V30 157 C 13.7859 -5.85963 -0.80005 0
M  V30 158 H 12.7159 -0.709393 -0.255495 0
M  V30 159 H 15.3669 -1.83365 0.0702693 0
M  V30 160 H 13.7489 -3.39102 -2.04513 0
M  V30 161 H 14.9229 -4.57414 0.557596 0
M  V30 162 H 13.2379 -4.14956 0.346474 0
M  V30 163 H 15.8349 -4.79901 -2.35795 0
M  V30 164 H 16.1779 -3.1306 -2.74407 0
M  V30 165 H 16.7109 -3.79833 -1.18203 0
M  V30 166 H 13.4499 -6.555 -0.00456708 0
M  V30 167 H 12.9699 -5.79687 -1.54021 0
M  V30 168 H 14.6489 -6.33884 -1.29615 0
M  V30 169 N 14.781 0.264519 -1.55364 0
M  V30 170 C 15.728 1.32717 -1.88825 0
M  V30 171 C 16.698 1.48675 -0.740605 0
M  V30 172 O 17.883 1.62945 -0.992657 0
M  V30 173 C 15.023 2.68089 -2.17307 0
M  V30 174 C 14.136 2.60284 -3.44785 0
M  V30 175 C 13.271 3.87892 -3.62924 0
M  V30 176 C 12.31 3.74631 -4.84064 0
M  V30 177 N 11.447 4.94092 -4.98816 0
M  V30 178 H 16.287 1.03481 -2.79456 0
M  V30 179 H 13.824 0.499757 -1.3835 0
M  V30 180 H 15.782 3.46864 -2.31821 0
M  V30 181 H 14.412 2.95509 -1.299 0
M  V30 182 H 13.464 1.73173 -3.38697 0
M  V30 183 H 14.776 2.46388 -4.33698 0
M  V30 184 H 13.93 4.75109 -3.77302 0
M  V30 185 H 12.669 4.04664 -2.7221 0
M  V30 186 H 11.674 2.85797 -4.69681 0
M  V30 187 H 12.899 3.5937 -5.76221 0
M  V30 188 H 10.845 5.11259 -4.11036 0
M  V30 189 H 10.762 4.8276 -5.81789 0
M  V30 190 H 12.03 5.82857 -5.17588 0
M  V30 191 N 16.2591 1.48442 0.529413 0
M  V30 192 C 17.2221 1.62524 1.61612 0
M  V30 193 C 18.2221 0.498509 1.52877 0
M  V30 194 O 19.4121 0.76431 1.56537 0
M  V30 195 C 16.5441 1.59597 3.01233 0
M  V30 196 H 17.7371 2.59423 1.50465 0
M  V30 197 H 15.2901 1.37047 0.751514 0
M  V30 198 H 16.0251 0.641781 3.17886 0
M  V30 199 H 15.8101 2.41397 3.08982 0
M  V30 200 H 17.3001 1.72646 3.80241 0
M  V30 201 N 17.7372 -0.778329 1.37039 0
M  V30 202 C 18.9652 -1.56734 1.35063 0
M  V30 203 C 19.3802 -1.88686 -0.0655597 0
M  V30 204 O 18.7372 -1.5096 -1.02554 0
M  V30 205 C 18.7882 -2.88163 2.18276 0
M  V30 206 O 18.5092 -2.57583 3.54376 0
M  V30 207 C 20.0102 -3.82422 2.24206 0
M  V30 208 H 17.2302 -0.485778 0.462883 0
M  V30 209 H 19.7742 -0.965185 1.8029 0
M  V30 210 H 17.9292 -3.44818 1.76576 0
M  V30 211 H 18.3432 -3.41699 3.97922 0
M  V30 212 H 19.8172 -4.71667 2.86765 0
M  V30 213 H 20.2942 -4.21078 1.24861 0
M  V30 214 H 20.9002 -3.31697 2.6619 0
M  V30 215 N 19.2153 -1.21501 -1.00376 0
M  V30 216 C 20.4613 -1.03452 -1.74429 0
M  V30 217 C 20.7943 0.430764 -1.89362 0
M  V30 218 O 20.0693 1.31962 -1.42886 0
M  V30 219 C 20.3523 -1.73375 -3.15615 0
M  V30 220 C 20.2053 -3.27431 -3.08397 0
M  V30 221 C 21.5243 -1.47732 -4.14564 0
M  V30 222 H 18.6433 -0.377226 -0.633143 0
M  V30 223 H 21.2853 -1.49693 -1.17013 0
M  V30 224 H 19.4353 -1.34064 -3.64636 0
M  V30 225 H 21.1073 -3.76119 -2.67081 0
M  V30 226 H 19.3503 -3.5767 -2.45468 0
M  V30 227 H 20.0213 -3.71524 -4.08258 0
M  V30 228 H 22.4973 -1.8186 -3.74254 0
M  V30 229 H 21.3733 -1.99169 -5.11491 0
M  V30 230 H 21.6343 -0.407589 -4.40217 0
M  V30 231 N 20.6934 1.19889 -1.02296 0
M  V30 232 C 22.1044 1.71124 -0.746568 0
M  V30 233 C 22.4554 1.81939 0.734335 0
M  V30 234 O 21.5804 1.48639 1.57275 0
M  V30 235 C 22.1754 3.10804 -1.34857 0
M  V30 236 C 20.7344 3.59323 -1.1209 0
M  V30 237 C 19.8814 2.3635 -1.45031 0
M  V30 238 H 22.8324 1.04813 -1.19163 0
M  V30 239 H 22.8534 3.73186 -0.742437 0
M  V30 240 H 22.3654 3.029 -2.42638 0
M  V30 241 H 20.4664 3.7255 -0.0610337 0
M  V30 242 H 20.5794 4.4378 -1.80544 0
M  V30 243 H 18.9434 2.39399 -0.869487 0
M  V30 244 H 19.7264 2.31081 -2.53883 0
M  V30 245 N 22.1715 0.800033 1.35784 0
M  V30 246 C 23.4175 0.377901 1.99248 0
M  V30 247 C 23.7505 -1.05052 1.63333 0
M  V30 248 O 23.0255 -1.72768 0.893385 0
M  V30 249 C 23.3085 0.553922 3.55814 0
M  V30 250 C 23.1615 2.0268 4.01548 0
M  V30 251 C 24.4805 -0.0244802 4.40093 0
M  V30 252 H 21.5995 0.138782 0.723815 0
M  V30 253 H 24.2415 1.00835 1.61035 0
M  V30 254 H 22.3915 0.0172398 3.88496 0
M  V30 255 H 24.0635 2.62536 3.79305 0
M  V30 256 H 22.3065 2.5256 3.52698 0
M  V30 257 H 22.9775 2.10087 5.10458 0
M  V30 258 H 25.4535 0.433775 4.13833 0
M  V30 259 H 24.3295 0.128637 5.48749 0
M  V30 260 H 24.5905 -1.11758 4.27741 0
M  V30 261 N 23.6496 -1.47581 0.552962 0
M  V30 262 C 24.5796 -2.32762 -0.185451 0
M  V30 263 C 25.5606 -1.43527 -0.912905 0
M  V30 264 O 26.7456 -1.72388 -0.894201 0
M  V30 265 C 23.8756 -3.25219 -1.21859 0
M  V30 266 C 22.8296 -4.23661 -0.607864 0
M  V30 267 C 22.1556 -5.05413 -1.74533 0
M  V30 268 C 23.4556 -5.20481 0.435582 0
M  V30 269 H 25.1496 -2.94749 0.525684 0
M  V30 270 H 22.6956 -1.41738 0.254251 0
M  V30 271 H 24.6486 -3.8365 -1.7433 0
M  V30 272 H 23.3726 -2.61279 -1.95961 0
M  V30 273 H 22.0316 -3.66451 -0.104489 0
M  V30 274 H 21.6796 -4.3788 -2.47529 0
M  V30 275 H 21.3796 -5.72059 -1.34249 0
M  V30 276 H 22.9036 -5.66701 -2.27338 0
M  V30 277 H 24.3176 -5.733 -0.00290157 0
M  V30 278 H 22.7146 -5.95305 0.757067 0
M  V30 279 H 23.7846 -4.66217 1.33303 0
M  V30 280 N 25.1277 -0.289203 -1.54924 0
M  V30 281 C 26.0747 0.592115 -2.23075 0
M  V30 282 C 27.0447 1.13881 -1.20915 0
M  V30 283 O 28.2297 1.18551 -1.495 0
M  V30 284 C 25.3697 1.76376 -2.96623 0
M  V30 285 C 24.4827 1.24959 -4.13533 0
M  V30 286 C 23.6177 2.38416 -4.74691 0
M  V30 287 C 22.6567 1.84072 -5.83767 0
M  V30 288 N 21.7937 2.91057 -6.38929 0
M  V30 289 H 26.6337 0.00432038 -2.98 0
M  V30 290 H 24.1707 -0.00963529 -1.47097 0
M  V30 291 H 26.1287 2.45268 -3.3749 0
M  V30 292 H 24.7587 2.32337 -2.24097 0
M  V30 293 H 23.8107 0.453307 -3.77689 0
M  V30 294 H 25.1227 0.811662 -4.92152 0
M  V30 295 H 24.2767 3.15276 -5.18349 0
M  V30 296 H 23.0157 2.8553 -3.95378 0
M  V30 297 H 22.0207 1.05697 -5.39545 0
M  V30 298 H 23.2457 1.37877 -6.64956 0
M  V30 299 H 21.1917 3.37526 -5.62505 0
M  V30 300 H 21.1087 2.51724 -7.12861 0
M  V30 301 H 22.3767 3.6785 -6.87246 0
M  V30 302 N 26.6058 1.57591 -0.0167156 0
M  V30 303 C 27.5158 2.1291 0.98521 0
M  V30 304 C 28.5318 1.07834 1.36557 0
M  V30 305 O 29.7078 1.39826 1.44951 0
M  V30 306 C 26.7728 2.63512 2.25305 0
M  V30 307 C 25.8338 3.83256 1.93426 0
M  V30 308 C 25.0668 4.31435 3.14165 0
M  V30 309 O 25.2898 3.78851 4.26413 0
M  V30 310 O 24.2238 5.23416 2.97186 0
M  V30 311 H 28.0498 2.98772 0.544888 0
M  V30 312 H 25.6348 1.48012 0.203141 0
M  V30 313 H 27.5168 2.96183 2.99756 0
M  V30 314 H 26.1918 1.8074 2.68542 0
M  V30 315 H 25.0988 3.55531 1.16398 0
M  V30 316 H 26.4318 4.67153 1.55013 0
M  V30 317 N 28.0839 -0.256276 1.55502 0
M  V30 318 C 29.0339 -1.31981 1.85916 0
M  V30 319 C 30.0179 -1.43927 0.719296 0
M  V30 320 O 31.2099 -1.47326 0.981019 0
M  V30 321 C 28.3389 -2.67703 2.14918 0
M  V30 322 C 27.4249 -2.59801 3.35208 0
M  V30 323 N 27.8159 -2.21524 4.54709 0
M  V30 324 C 26.1139 -2.90832 3.38131 0
M  V30 325 C 26.8149 -2.24024 5.36832 0
M  V30 326 N 25.7909 -2.63158 4.75656 0
M  V30 327 H 29.5929 -1.01423 2.75845 0
M  V30 328 H 27.1069 -0.464911 1.55603 0
M  V30 329 H 29.1039 -3.44445 2.34869 0
M  V30 330 H 27.7639 -2.99137 1.26282 0
M  V30 331 H 28.7749 -1.93223 4.80505 0
M  V30 332 H 25.4519 -3.26867 2.59739 0
M  V30 333 H 26.8419 -1.9685 6.42417 0
M  V30 334 N 29.562 -1.4872 -0.521534 0
M  V30 335 C 30.81 -1.56857 -1.27437 0
M  V30 336 C 31.131 -0.247982 -1.93417 0
M  V30 337 O 30.401 0.731151 -1.81744 0
M  V30 338 H 28.981 -0.577885 -0.473347 0
M  V30 339 H 31.643 -1.85233 -0.606205 0
M  V30 340 H 30.739 -2.35402 -2.0492 0
M  V30 341 N 31.0401 0.771051 -1.3745 0
M  V30 342 C 32.2861 1.5319 -1.32894 0
M  V30 343 C 32.6191 1.94008 0.0862511 0
M  V30 344 O 31.8941 1.64124 1.04373 0
M  V30 345 C 32.1771 2.79648 -2.26868 0
M  V30 346 C 32.0301 2.45079 -3.77169 0
M  V30 347 C 33.3491 3.81583 -2.19277 0
M  V30 348 H 30.4681 0.555744 -0.484064 0
M  V30 349 H 33.1101 0.884492 -1.68157 0
M  V30 350 H 31.2601 3.34891 -1.96926 0
M  V30 351 H 32.9321 1.95745 -4.1771 0
M  V30 352 H 31.1751 1.77767 -3.95704 0
M  V30 353 H 31.8461 3.35478 -4.38359 0
M  V30 354 H 34.3221 3.35835 -2.45671 0
M  V30 355 H 33.1981 4.67787 -2.87171 0
M  V30 356 H 33.4591 4.25897 -1.18592 0
M  V30 357 N 32.5182 1.22032 0.997298 0
M  V30 358 C 33.7462 1.06841 1.7718 0
M  V30 359 C 34.1612 -0.381325 1.84909 0
M  V30 360 O 33.5182 -1.26437 1.31605 0
M  V30 361 C 33.5692 1.66814 3.20711 0
M  V30 362 O 33.2902 3.06116 3.13408 0
M  V30 363 C 34.7912 1.56838 4.14628 0
M  V30 364 H 32.0112 0.374782 0.556578 0
M  V30 365 H 34.5552 1.61532 1.2541 0
M  V30 366 H 32.7102 1.16196 3.69564 0
M  V30 367 H 33.1242 3.34926 4.0364 0
M  V30 368 H 34.5982 2.03532 5.13107 0
M  V30 369 H 35.0752 0.524155 4.36061 0
M  V30 370 H 35.6812 2.06741 3.7167 0
M  V30 371 N 33.9963 -1.19345 1.0293 0
M  V30 372 C 35.2453 -1.88363 0.721256 0
M  V30 373 C 35.5583 -1.80514 -0.753254 0
M  V30 374 O 36.7643 -2.44788 -1.17436 0
M  V30 375 C 35.2203 -3.37872 1.23978 0
M  V30 376 C 34.8283 -3.54278 2.74211 0
M  V30 377 C 36.5723 -4.12365 1.00775 0
M  V30 378 C 34.4793 -4.97682 3.19479 0
M  V30 379 H 33.4093 -0.705484 0.266098 0
M  V30 380 H 36.0603 -1.34928 1.24365 0
M  V30 381 H 34.4423 -3.90707 0.6453 0
M  V30 382 H 35.6163 -3.11769 3.39318 0
M  V30 383 H 33.9313 -2.93174 2.95699 0
M  V30 384 H 36.5283 -5.18119 1.32123 0
M  V30 385 H 36.8713 -4.16263 -0.0554308 0
M  V30 386 H 37.4043 -3.65668 1.56625 0
M  V30 387 H 34.1433 -4.98945 4.25128 0
M  V30 388 H 33.6633 -5.4095 2.591 0
M  V30 389 H 35.3423 -5.66337 3.12845 0
M  V30 390 N 35.4744 -0.807222 -1.35358 0
M  V30 391 C 36.7024 -0.400377 -2.02989 0
M  V30 392 C 37.1174 0.988859 -1.60832 0
M  V30 393 O 36.4744 1.63729 -0.806175 0
M  V30 394 C 36.5254 -0.474867 -3.58368 0
M  V30 395 O 36.2464 -1.80933 -3.98992 0
M  V30 396 C 37.7474 -0.0609112 -4.43258 0
M  V30 397 H 34.9674 -0.162587 -0.651004 0
M  V30 398 H 37.5114 -1.09102 -1.72965 0
M  V30 399 H 35.6664 0.167534 -3.87038 0
M  V30 400 H 36.0804 -1.77256 -4.9364 0
M  V30 401 H 37.5544 -0.164145 -5.51756 0
M  V30 402 H 38.0314 0.993831 -4.27808 0
M  V30 403 H 38.6374 -0.676492 -4.19885 0
M  V30 404 N 36.9525 1.47285 -0.560781 0
M  V30 405 C 38.1805 2.06855 -0.0430262 0
M  V30 406 C 38.5955 1.41291 1.25229 0
M  V30 407 O 37.9525 0.510648 1.7521 0
M  V30 408 C 38.0035 3.61178 0.152518 0
M  V30 409 O 37.7245 4.24285 -1.0915 0
M  V30 410 C 39.2255 4.37624 0.707145 0
M  V30 411 H 36.4455 0.669319 -0.0474652 0
M  V30 412 H 38.9895 1.89237 -0.77521 0
M  V30 413 H 37.1445 3.78298 0.834843 0
M  V30 414 H 37.5585 5.16868 -0.891482 0
M  V30 415 H 39.0325 5.46271 0.793244 0
M  V30 416 H 39.5095 4.04152 1.71923 0
M  V30 417 H 40.1155 4.25257 0.0604027 0
M  V30 418 N 38.4306 0.297415 1.54768 0
M  V30 419 C 39.6586 -0.315623 2.04478 0
M  V30 420 C 40.0736 -1.47792 1.17486 0
M  V30 421 O 39.4306 -1.81404 0.19971 0
M  V30 422 C 39.4816 -0.7753 3.53088 0
M  V30 423 O 39.2026 0.340732 4.36773 0
M  V30 424 C 40.7036 -1.45386 4.18781 0
M  V30 425 H 37.9236 -0.0690887 0.667434 0
M  V30 426 H 40.4676 0.436003 1.99798 0
M  V30 427 H 38.6226 -1.47696 3.58141 0
M  V30 428 H 39.0366 -0.0165035 5.24497 0
M  V30 429 H 40.5106 -1.72669 5.24299 0
M  V30 430 H 40.9876 -2.39275 3.68299 0
M  V30 431 H 41.5936 -0.795475 4.17795 0
M  V30 432 N 39.9087 -1.5758 0.0250728 0
M  V30 433 C 41.1557 -1.91633 -0.654444 0
M  V30 434 C 41.4837 -0.901103 -1.72367 0
M  V30 435 O 40.7387 0.0905647 -1.9549 0
M  V30 436 C 41.0377 -3.32421 -1.31268 0
M  V30 437 C 40.7037 -4.49344 -0.374223 0
M  V30 438 C 39.3657 -4.8106 -0.115911 0
M  V30 439 C 41.7177 -5.20498 0.270432 0
M  V30 440 C 39.0457 -5.8129 0.79493 0
M  V30 441 C 41.3977 -6.21699 1.1693 0
M  V30 442 C 40.0617 -6.51859 1.43655 0
M  V30 443 H 39.3317 -0.701236 -0.239478 0
M  V30 444 H 41.9787 -1.91307 0.0859734 0
M  V30 445 H 40.2837 -3.28989 -2.12775 0
M  V30 446 H 41.9807 -3.56038 -1.84494 0
M  V30 447 H 38.5707 -4.24579 -0.58573 0
M  V30 448 H 42.7547 -4.96229 0.0839194 0
M  V30 449 H 38.0107 -6.03005 1.00973 0
M  V30 450 H 42.1847 -6.75955 1.67504 0
M  V30 451 H 39.8117 -7.2934 2.144 0
M  V30 452 N 41.3868 0.248026 -1.55636 0
M  V30 453 C 42.6168 0.992367 -1.81206 0
M  V30 454 C 43.0248 1.7949 -0.598324 0
M  V30 455 O 42.3678 1.78292 0.442434 0
M  V30 456 C 42.4298 1.97926 -3.00109 0
M  V30 457 C 42.0938 1.36377 -4.36177 0
M  V30 458 C 43.0908 0.76682 -5.14214 0
M  V30 459 C 40.7758 1.38347 -4.82872 0
M  V30 460 C 42.7698 0.197778 -6.37093 0
M  V30 461 C 40.4568 0.810574 -6.057 0
M  V30 462 C 41.4548 0.218754 -6.8265 0
M  V30 463 O 41.1428 -0.345298 -8.03158 0
M  V30 464 H 40.8748 0.297704 -0.606917 0
M  V30 465 H 43.4288 0.276517 -2.0353 0
M  V30 466 H 41.6588 2.73339 -2.73538 0
M  V30 467 H 43.3478 2.58694 -3.12781 0
M  V30 468 H 44.1138 0.744114 -4.79258 0
M  V30 469 H 39.9928 1.8335 -4.2297 0
M  V30 470 H 43.5368 -0.264788 -6.97097 0
M  V30 471 H 39.4338 0.830604 -6.40134 0
M  V30 472 H 40.2018 -0.237055 -8.18157 0
M  V30 473 N 42.8649 1.48995 0.513639 0
M  V30 474 C 43.8119 1.6473 1.61656 0
M  V30 475 C 44.7819 0.488984 1.58739 0
M  V30 476 O 45.9669 0.714478 1.76918 0
M  V30 477 C 43.1069 1.7082 2.99858 0
M  V30 478 C 42.2199 2.9787 3.12885 0
M  V30 479 C 41.3549 2.95017 4.41744 0
M  V30 480 C 40.3939 4.16702 4.48359 0
M  V30 481 N 39.5309 4.11832 5.68629 0
M  V30 482 H 44.3709 2.58909 1.47547 0
M  V30 483 H 41.9079 1.28382 0.71808 0
M  V30 484 H 43.8659 1.72331 3.79944 0
M  V30 485 H 42.4959 0.801181 3.12699 0
M  V30 486 H 41.5479 3.06029 2.25944 0
M  V30 487 H 42.8599 3.8786 3.13633 0
M  V30 488 H 42.0139 2.95021 5.30139 0
M  V30 489 H 40.7529 2.02784 4.43542 0
M  V30 490 H 39.7579 4.16955 3.58369 0
M  V30 491 H 40.9829 5.10113 4.48287 0
M  V30 492 H 38.9289 3.22428 5.71293 0
M  V30 493 H 38.8459 4.95543 5.7094 0
M  V30 494 H 40.1139 4.1592 6.59266 0
M  V30 495 N 44.343 -0.763751 1.37857 0
M  V30 496 C 45.291 -1.89864 1.34367 0
M  V30 497 C 46.285 -1.67816 0.231143 0
M  V30 498 O 47.491 -1.75508 0.399617 0
M  V30 499 H 43.866 -0.624501 0.41893 0
M  V30 500 H 45.837 -1.89925 2.30155 0
M  V30 501 C 44.586 -3.27227 1.1755 0
M  V30 502 H 43.909 -3.44773 2.02414 0
M  V30 503 H 45.349 -4.06911 1.1916 0
M  V30 504 C 43.808 -3.36692 -0.118311 0
M  V30 505 O 44.338 -3.86374 -1.09902 0
M  V30 506 N 42.544 -2.90092 -0.171717 0
M  V30 507 H 42.091 -2.49853 0.627012 0
M  V30 508 H 42.049 -2.96806 -1.03699 0
M  V30 509 N 45.8211 -1.22559 -0.990812 0
M  V30 510 C 46.7511 -1.0218 -2.09956 0
M  V30 511 C 47.7321 0.0579394 -1.70001 0
M  V30 512 O 48.9171 -0.104684 -1.93918 0
M  V30 513 C 46.0471 -0.601023 -3.4206 0
M  V30 514 C 45.0011 -1.62694 -3.95872 0
M  V30 515 C 44.3271 -1.06193 -5.24049 0
M  V30 516 C 45.6271 -3.01743 -4.2632 0
M  V30 517 H 47.3211 -1.94916 -2.27262 0
M  V30 518 H 44.8671 -0.938566 -1.09211 0
M  V30 519 H 46.8201 -0.445561 -4.19038 0
M  V30 520 H 45.5441 0.362005 -3.24588 0
M  V30 521 H 44.2031 -1.77021 -3.21028 0
M  V30 522 H 43.8511 -0.0901903 -5.02919 0
M  V30 523 H 43.5511 -1.74732 -5.61019 0
M  V30 524 H 45.0751 -0.918092 -6.03658 0
M  V30 525 H 46.4891 -2.90777 -4.94087 0
M  V30 526 H 44.8861 -3.67425 -4.74467 0
M  V30 527 H 45.9561 -3.51518 -3.34011 0
M  V30 528 N 47.2992 1.18797 -1.03562 0
M  V30 529 C 48.5462 1.8865 -0.736023 0
M  V30 530 C 48.8742 1.80041 0.735889 0
M  V30 531 O 48.1292 1.19179 1.55225 0
M  V30 532 C 48.4282 3.38692 -1.14117 0
M  V30 533 C 48.0942 3.67504 -2.6125 0
M  V30 534 C 46.7562 3.75078 -3.01447 0
M  V30 535 C 49.1082 3.80293 -3.56408 0
M  V30 536 C 46.4362 3.92915 -4.35701 0
M  V30 537 C 48.7882 3.99645 -4.90374 0
M  V30 538 C 47.4522 4.05453 -5.30249 0
M  V30 539 H 46.7222 0.690321 -0.26933 0
M  V30 540 H 49.3692 1.40641 -1.29971 0
M  V30 541 H 47.6742 3.88645 -0.496202 0
M  V30 542 H 49.3712 3.91072 -0.886789 0
M  V30 543 H 45.9612 3.62223 -2.29113 0
M  V30 544 H 50.1452 3.73779 -3.26501 0
M  V30 545 H 45.4012 3.95653 -4.66121 0
M  V30 546 H 49.5752 4.08482 -5.64017 0
M  V30 547 H 47.2022 4.19027 -6.34288 0
M  V30 548 N 48.7773 0.814389 1.34928 0
M  V30 549 C 49.7403 0.235759 2.27984 0
M  V30 550 C 50.7403 -0.581412 1.49921 0
M  V30 551 O 51.9303 -0.398758 1.69575 0
M  V30 552 C 49.0623 -0.670433 3.34242 0
M  V30 553 H 50.2553 1.05659 2.80671 0
M  V30 554 H 47.8083 0.585614 1.44915 0
M  V30 555 H 48.5433 -1.51466 2.86755 0
M  V30 556 H 48.3283 -0.0860822 3.92005 0
M  V30 557 H 49.8183 -1.06935 4.03676 0
M  V30 558 N 50.2554 -1.46986 0.568584 0
M  V30 559 C 51.2024 -2.30153 -0.172707 0
M  V30 560 C 52.1724 -1.39759 -0.897586 0
M  V30 561 O 53.3574 -1.68716 -0.891044 0
M  V30 562 C 50.4974 -3.23952 -1.1895 0
M  V30 563 C 49.6104 -4.29441 -0.469517 0
M  V30 564 C 48.7454 -5.1038 -1.47259 0
M  V30 565 C 47.7844 -6.07632 -0.738225 0
M  V30 566 N 46.9214 -6.8149 -1.68868 0
M  V30 567 H 51.7614 -2.93019 0.542596 0
M  V30 568 H 49.2984 -1.44422 0.279401 0
M  V30 569 H 51.2564 -3.76767 -1.79173 0
M  V30 570 H 49.8864 -2.62926 -1.87269 0
M  V30 571 H 48.9384 -3.79594 0.247467 0
M  V30 572 H 50.2504 -4.98689 0.105241 0
M  V30 573 H 49.4044 -5.67402 -2.14803 0
M  V30 574 H 48.1434 -4.4106 -2.08128 0
M  V30 575 H 47.1484 -5.49778 -0.0489293 0
M  V30 576 H 48.3734 -6.78966 -0.135129 0
M  V30 577 H 46.3194 -6.14891 -2.28573 0
M  V30 578 H 46.2364 -7.46948 -1.16636 0
M  V30 579 H 47.5044 -7.43078 -2.3549 0
M  V30 580 N 51.7335 -0.305618 -1.54608 0
M  V30 581 C 52.6835 0.583595 -2.20405 0
M  V30 582 C 53.6675 1.09539 -1.17856 0
M  V30 583 O 54.8595 1.0354 -1.43557 0
M  V30 584 C 51.9885 1.75277 -2.95183 0
M  V30 585 C 51.0745 1.25672 -4.05052 0
M  V30 586 N 51.4655 0.478998 -5.03527 0
M  V30 587 C 49.7635 1.53704 -4.18678 0
M  V30 588 C 50.4645 0.214269 -5.81305 0
M  V30 589 N 49.4405 0.795374 -5.3775 0
M  V30 590 H 53.2425 -0.0180946 -2.93894 0
M  V30 591 H 50.7565 -0.110601 -1.62023 0
M  V30 592 H 52.7535 2.4014 -3.40791 0
M  V30 593 H 51.4135 2.35812 -2.23211 0
M  V30 594 H 52.4245 0.123473 -5.17753 0
M  V30 595 H 49.1015 2.14954 -3.57912 0
M  V30 596 H 50.4915 -0.410656 -6.70644 0
M  V30 597 N 53.2116 1.57565 -0.0334293 0
M  V30 598 C 54.6226 1.79746 0.504798 0
M  V30 599 C 54.9736 0.944091 1.71992 0
M  V30 600 O 54.0986 0.155694 2.15839 0
M  V30 601 C 54.6936 3.25997 0.922567 0
M  V30 602 C 53.2526 3.49159 1.40588 0
M  V30 603 C 52.3996 2.74785 0.372633 0
M  V30 604 H 55.3506 1.56565 -0.259436 0
M  V30 605 H 55.3716 3.35945 1.78666 0
M  V30 606 H 54.8836 3.88081 0.0379825 0
M  V30 607 H 52.9846 2.92332 2.31025 0
M  V30 608 H 53.0976 4.57873 1.41028 0
M  V30 609 H 51.4616 2.40391 0.841672 0
M  V30 610 H 52.2446 3.39587 -0.503559 0
M  V30 611 N 54.6897 -0.239769 1.55765 0
M  V30 612 C 55.5997 -1.31831 1.94056 0
M  V30 613 C 56.6157 -1.52275 0.841925 0
M  V30 614 O 57.7917 -1.65759 1.14394 0
M  V30 615 C 54.8567 -2.65156 2.23368 0
M  V30 616 C 53.9177 -2.53173 3.46701 0
M  V30 617 C 53.1507 -3.8014 3.74606 0
M  V30 618 O 53.3737 -4.82343 3.04469 0
M  V30 619 O 52.3077 -3.78344 4.68123 0
M  V30 620 H 56.1337 -1.02347 2.85935 0
M  V30 621 H 53.7187 -0.441123 1.42739 0
M  V30 622 H 55.6007 -3.43929 2.43497 0
M  V30 623 H 54.2757 -2.94358 1.34666 0
M  V30 624 H 53.1827 -1.72662 3.31871 0
M  V30 625 H 54.5157 -2.28915 4.35728 0
M  V30 626 N 56.1678 -1.49265 -0.50573 0
M  V30 627 C 57.4138 -1.58748 -1.26202 0
M  V30 628 C 57.7468 -0.271227 -1.92297 0
M  V30 629 O 57.0218 0.724831 -1.80489 0
M  V30 630 C 57.3048 -2.74332 -2.33268 0
M  V30 631 C 57.1578 -4.15737 -1.71705 0
M  V30 632 C 58.4768 -2.85576 -3.34865 0
M  V30 633 H 55.5958 -0.577826 -0.457478 0
M  V30 634 H 58.2378 -1.81532 -0.560897 0
M  V30 635 H 56.3878 -2.55036 -2.93068 0
M  V30 636 H 58.0598 -4.46537 -1.15769 0
M  V30 637 H 56.3028 -4.21605 -1.02135 0
M  V30 638 H 56.9738 -4.92477 -2.49341 0
M  V30 639 H 59.4498 -3.03127 -2.8505 0
M  V30 640 H 58.3258 -3.68135 -4.07146 0
M  V30 641 H 58.5868 -1.94732 -3.96903 0
M  V30 642 N 57.6459 0.756429 -1.3826 0
M  V30 643 C 59.0619 1.0591 -1.19395 0
M  V30 644 C 59.2619 2.01459 -0.0406567 0
M  V30 645 O 58.3179 2.44909 0.614467 0
M  V30 646 C 59.6309 1.64191 -2.51916 0
M  V30 647 C 61.1789 1.76376 -2.58574 0
M  V30 648 C 61.6539 2.38069 -3.91264 0
M  V30 649 N 63.1449 2.45503 -3.92788 0
M  V30 650 C 63.8799 2.94126 -4.92217 0
M  V30 651 N 63.3759 3.42805 -6.02043 0
M  V30 652 N 65.1689 2.9314 -4.7961 0
M  V30 653 H 57.3199 0.122313 -2.12048 0
M  V30 654 H 59.5829 0.116892 -0.940766 0
M  V30 655 H 59.2889 1.01451 -3.3675 0
M  V30 656 H 59.1629 2.6329 -2.70108 0
M  V30 657 H 61.5499 2.38244 -1.74137 0
M  V30 658 H 61.6309 0.759894 -2.44252 0
M  V30 659 H 61.2749 1.76835 -4.76121 0
M  V30 660 H 61.2049 3.39091 -4.02895 0
M  V30 661 H 63.6959 2.1107 -3.13461 0
M  V30 662 H 64.0089 3.78354 -6.73846 0
M  V30 663 H 62.3539 3.4087 -6.05667 0
M  V30 664 H 65.5449 2.54419 -3.92923 0
M  V30 665 H 65.7179 3.30721 -5.5725 0
M  V30 666 N 59.124 1.23083 0.984299 0
M  V30 667 C 60.535 1.05609 1.5396 0
M  V30 668 C 60.886 -0.377793 1.92528 0
M  V30 669 O 60.011 -1.26398 1.75649 0
M  V30 670 C 60.606 1.91087 2.7977 0
M  V30 671 C 59.165 1.77885 3.31713 0
M  V30 672 C 58.312 1.87028 2.04733 0
M  V30 673 H 61.263 1.36802 0.804419 0
M  V30 674 H 61.284 1.43336 3.5247 0
M  V30 675 H 60.796 2.9544 2.51668 0
M  V30 676 H 58.897 0.762995 3.64704 0
M  V30 677 H 59.01 2.61047 4.01735 0
M  V30 678 H 57.374 1.30565 2.18689 0
M  V30 679 H 58.157 2.92929 1.79017 0
M  V30 680 N 60.6021 -1.18246 1.0419 0
M  V30 681 C 61.5321 -2.24127 0.654914 0
M  V30 682 C 62.5131 -1.66617 -0.342451 0
M  V30 683 O 63.6981 -1.92924 -0.222277 0
M  V30 684 C 60.8281 -3.47295 0.0183757 0
M  V30 685 C 59.7821 -4.17563 0.939414 0
M  V30 686 C 59.1081 -5.34438 0.167286 0
M  V30 687 C 60.4081 -4.70917 2.25908 0
M  V30 688 H 62.1021 -2.56753 1.54007 0
M  V30 689 H 59.6481 -1.23414 0.74195 0
M  V30 690 H 61.6011 -4.20572 -0.264082 0
M  V30 691 H 60.3251 -3.13907 -0.901664 0
M  V30 692 H 58.9841 -3.46186 1.20628 0
M  V30 693 H 58.6321 -4.97298 -0.7552 0
M  V30 694 H 58.3321 -5.82388 0.780901 0
M  V30 695 H 59.8561 -6.10504 -0.108125 0
M  V30 696 H 61.2701 -5.35882 2.03724 0
M  V30 697 H 59.6671 -5.29406 2.82577 0
M  V30 698 H 60.7371 -3.88272 2.9047 0
M  V30 699 N 62.0802 -0.821533 -1.34494 0
M  V30 700 C 63.3272 -0.408946 -1.98328 0
M  V30 701 C 63.6552 1.02764 -1.65136 0
M  V30 702 O 62.9102 1.73026 -0.914349 0
M  V30 703 C 63.2092 -0.556512 -3.53041 0
M  V30 704 C 62.8752 -1.95861 -4.0614 0
M  V30 705 C 61.5372 -2.34217 -4.20352 0
M  V30 706 C 63.8892 -2.87523 -4.34718 0
M  V30 707 C 61.2172 -3.63572 -4.6047 0
M  V30 708 C 63.5692 -4.1634 -4.76281 0
M  V30 709 C 62.2332 -4.54675 -4.88699 0
M  V30 710 H 61.5032 -0.149644 -0.725732 0
M  V30 711 H 64.1502 -1.04521 -1.6046 0
M  V30 712 H 62.4552 0.163148 -3.9146 0
M  V30 713 H 64.1522 -0.217826 -4.00408 0
M  V30 714 H 60.7422 -1.65066 -3.95539 0
M  V30 715 H 64.9262 -2.59133 -4.23277 0
M  V30 716 H 60.1822 -3.93101 -4.68275 0
M  V30 717 H 64.3562 -4.87455 -4.97354 0
M  V30 718 H 61.9832 -5.54959 -5.19542 0
M  V30 719 N 63.5583 1.46682 -0.576371 0
M  V30 720 C 64.8353 1.95599 0.00703437 0
M  V30 721 C 65.2153 1.51904 1.46589 0
M  V30 722 O 64.5633 0.766755 2.15251 0
M  V30 723 C 64.7733 3.4864 -0.158404 0
M  V30 724 C 66.1213 4.24594 -0.0229439 0
M  V30 725 O 67.1453 3.56094 -0.0869173 0
M  V30 726 O 66.0043 5.46373 0.118015 0
M  V30 727 H 63.0983 0.825275 0.053384 0
M  V30 728 H 65.6443 1.56996 -0.644244 0
M  V30 729 H 64.4163 3.7331 -1.17282 0
M  V30 730 H 64.0393 3.94057 0.5296 0
M  V30 731 N 65.0364 0.313813 1.54444 0
M  V30 732 C 65.9694 -0.598866 2.20202 0
M  V30 733 C 66.9474 -1.12318 1.17573 0
M  V30 734 O 68.1314 -1.18899 1.46271 0
M  V30 735 C 65.2584 -1.82071 2.85601 0
M  V30 736 C 64.3044 -1.42851 4.01865 0
M  V30 737 S 65.1374 -0.473512 5.33402 0
M  V30 738 C 66.2934 -1.70286 6.0229 0
M  V30 739 H 66.5264 -0.0402532 2.97273 0
M  V30 740 H 64.0594 0.0979165 1.54089 0
M  V30 741 H 66.0174 -2.52184 3.23904 0
M  V30 742 H 64.6784 -2.3505 2.08351 0
M  V30 743 H 63.8714 -2.33871 4.46453 0
M  V30 744 H 63.4734 -0.807198 3.65185 0
M  V30 745 H 65.7654 -2.64168 6.23876 0
M  V30 746 H 66.7084 -1.29932 6.96077 0
M  V30 747 H 67.1164 -1.88541 5.32083 0
M  V30 748 N 66.5145 -1.57545 0.0417849 0
M  V30 749 C 67.7625 -1.91937 -0.632829 0
M  V30 750 C 68.0835 -0.919978 -1.71934 0
M  V30 751 O 67.3535 0.0366064 -1.95866 0
M  V30 752 H 65.9335 -0.708493 -0.236742 0
M  V30 753 H 68.5955 -1.9468 0.0925745 0
M  V30 754 H 67.6915 -2.92912 -1.07746 0
M  V30 755 N 67.9926 0.231505 -1.5589 0
M  V30 756 C 69.4086 0.580748 -1.48659 0
M  V30 757 C 69.6086 1.87617 -0.73498 0
M  V30 758 O 68.6646 2.51046 -0.270586 0
M  V30 759 C 69.9776 0.669202 -2.93159 0
M  V30 760 C 71.5256 0.760499 -3.03621 0
M  V30 761 C 72.0006 0.880383 -4.49459 0
M  V30 762 N 73.4916 0.944861 -4.53461 0
M  V30 763 C 74.2266 1.05716 -5.63571 0
M  V30 764 N 73.7226 1.13403 -6.83456 0
M  V30 765 N 75.5156 1.09152 -5.514 0
M  V30 766 H 67.6666 -0.618695 -2.03189 0
M  V30 767 H 69.9296 -0.215728 -0.923128 0
M  V30 768 H 69.6356 -0.212904 -3.51055 0
M  V30 769 H 69.5096 1.5361 -3.44505 0
M  V30 770 H 71.8966 1.63305 -2.45796 0
M  V30 771 H 71.9776 -0.131864 -2.5546 0
M  V30 772 H 71.6216 0.0123284 -5.07899 0
M  V30 773 H 71.5516 1.78802 -4.95316 0
M  V30 774 H 74.0426 0.896176 -3.6712 0
M  V30 775 H 74.3556 1.21921 -7.63122 0
M  V30 776 H 72.7006 1.10333 -6.86186 0
M  V30 777 H 75.8916 1.02805 -4.56671 0
M  V30 778 H 76.0646 1.17558 -6.37247 0
M  V30 779 N 69.4707 1.49531 0.497807 0
M  V30 780 C 70.4027 1.62559 1.61578 0
M  V30 781 C 71.4157 0.508134 1.54667 0
M  V30 782 O 72.6047 0.780309 1.60541 0
M  V30 783 C 69.7047 1.56925 3.00379 0
M  V30 784 C 68.8777 2.84257 3.3244 0
M  V30 785 C 67.9367 2.71632 4.50669 0
M  V30 786 O 66.9627 3.4557 4.52294 0
M  V30 787 N 68.1647 1.83391 5.5077 0
M  V30 788 H 70.9297 2.58981 1.50828 0
M  V30 789 H 68.4907 1.4666 0.685743 0
M  V30 790 H 70.4827 1.46129 3.77397 0
M  V30 791 H 69.0527 0.683483 3.05037 0
M  V30 792 H 68.2727 3.09381 2.44289 0
M  V30 793 H 69.5607 3.68666 3.5066 0
M  V30 794 H 68.9587 1.22583 5.52259 0
M  V30 795 H 67.5157 1.78515 6.26878 0
M  V30 796 N 70.9488 -0.749086 1.3866 0
M  V30 797 C 71.8588 -1.89358 1.38494 0
M  V30 798 C 72.8748 -1.71708 0.281476 0
M  V30 799 O 74.0508 -1.94554 0.520643 0
M  V30 800 C 71.1158 -3.24782 1.21316 0
M  V30 801 C 70.1768 -3.54926 2.41508 0
M  V30 802 C 69.4098 -4.83888 2.2514 0
M  V30 803 O 69.6328 -5.56592 1.24746 0
M  V30 804 O 68.5668 -5.13612 3.13826 0
M  V30 805 H 72.3928 -1.92452 2.34938 0
M  V30 806 H 69.9778 -0.894981 1.19626 0
M  V30 807 H 71.8598 -4.05739 1.13814 0
M  V30 808 H 70.5348 -3.2249 0.279592 0
M  V30 809 H 69.4418 -2.74112 2.54585 0
M  V30 810 H 70.7748 -3.61983 3.3351 0
M  V30 811 N 72.4269 -1.23603 -0.977757 0
M  V30 812 C 73.6519 -1.09735 -1.75991 0
M  V30 813 C 74.0769 0.346858 -1.84874 0
M  V30 814 O 73.4349 1.25093 -1.3123 0
M  V30 815 C 73.4829 -1.73051 -3.16363 0
M  V30 816 O 72.5869 -0.994452 -4.0023 0
M  V30 817 H 71.9279 -0.384476 -0.541364 0
M  V30 818 H 74.4579 -1.6371 -1.2272 0
M  V30 819 H 74.4679 -1.78398 -3.66931 0
M  V30 820 H 73.1429 -2.78137 -3.09213 0
M  V30 821 H 71.7199 -1.01812 -3.58732 0
M  V30 822 N 73.905 1.17692 -1.04816 0
M  V30 823 C 74.835 2.23777 -0.666791 0
M  V30 824 C 75.816 1.66796 0.33361 0
M  V30 825 O 77.001 1.93039 0.212042 0
M  V30 826 C 74.131 3.47281 -0.0367933 0
M  V30 827 C 73.085 4.17059 -0.961546 0
M  V30 828 C 72.411 5.34342 -0.195626 0
M  V30 829 C 73.711 4.69713 -2.28402 0
M  V30 830 H 75.405 2.55933 -1.55367 0
M  V30 831 H 72.951 1.23019 -0.748484 0
M  V30 832 H 74.904 4.20706 0.241775 0
M  V30 833 H 73.628 3.14381 0.885004 0
M  V30 834 H 72.287 3.45541 -1.22462 0
M  V30 835 H 71.935 4.97692 0.728816 0
M  V30 836 H 71.635 5.81966 -0.811775 0
M  V30 837 H 73.159 6.10553 0.0757473 0
M  V30 838 H 74.573 5.34794 -2.06563 0
M  V30 839 H 72.97 5.279 -2.8538 0
M  V30 840 H 74.04 3.86726 -2.92525 0
M  V30 841 N 75.3831 0.828654 1.34056 0
M  V30 842 C 76.2931 0.256725 2.33191 0
M  V30 843 C 77.3091 -0.611898 1.62886 0
M  V30 844 O 78.4851 -0.51844 1.94613 0
M  V30 845 C 75.5501 -0.567238 3.42028 0
M  V30 846 C 74.6111 0.324458 4.28072 0
M  V30 847 C 73.8441 -0.460274 5.31712 0
M  V30 848 O 74.0671 -1.693 5.44696 0
M  V30 849 O 73.0011 0.160391 6.01686 0
M  V30 850 H 76.8271 1.07739 2.83947 0
M  V30 851 H 74.4121 0.59093 1.37217 0
M  V30 852 H 76.2941 -1.03582 4.08471 0
M  V30 853 H 74.9691 -1.36513 2.93506 0
M  V30 854 H 73.8761 0.840659 3.64532 0
M  V30 855 H 75.2091 1.08685 4.8005 0
M  V30 856 N 76.8612 -1.46375 0.584142 0
M  V30 857 C 77.7932 -2.28443 -0.186119 0
M  V30 858 C 78.8062 -1.38596 -0.854115 0
M  V30 859 O 79.9952 -1.63183 -0.723438 0
M  V30 860 C 77.0952 -3.13671 -1.28311 0
M  V30 861 C 76.2682 -4.31652 -0.706758 0
M  V30 862 C 75.3272 -4.98267 -1.69163 0
M  V30 863 O 74.3532 -5.55815 -1.22712 0
M  V30 864 N 75.5552 -4.95408 -3.02575 0
M  V30 865 H 78.3202 -2.9519 0.517986 0
M  V30 866 H 75.8812 -1.56303 0.42201 0
M  V30 867 H 77.8732 -3.55101 -1.94128 0
M  V30 868 H 76.4432 -2.48989 -1.89005 0
M  V30 869 H 75.6632 -3.93989 0.128908 0
M  V30 870 H 76.9512 -5.07906 -0.301506 0
M  V30 871 H 76.3492 -4.49902 -3.42936 0
M  V30 872 H 74.9062 -5.40774 -3.63877 0
M  V30 873 N 78.3393 -0.321999 -1.54275 0
M  V30 874 C 79.7503 0.166384 -1.85957 0
M  V30 875 C 80.1013 1.51747 -1.24367 0
M  V30 876 O 79.2263 2.09317 -0.549124 0
M  V30 877 C 79.8213 0.308681 -3.37391 0
M  V30 878 C 78.3803 0.741286 -3.69028 0
M  V30 879 C 77.5273 -0.137937 -2.76957 0
M  V30 880 H 80.4783 -0.542335 -1.49146 0
M  V30 881 H 80.4993 1.13984 -3.63026 0
M  V30 882 H 80.0113 -0.674809 -3.82188 0
M  V30 883 H 78.1123 1.73458 -3.29762 0
M  V30 884 H 78.2253 0.546118 -4.75977 0
M  V30 885 H 76.5893 0.386251 -2.51754 0
M  V30 886 H 77.3723 -1.11816 -3.2458 0
M  V30 887 N 79.8174 1.5752 -0.0501392 0
M  V30 888 C 80.7644 2.1147 0.924603 0
M  V30 889 C 81.7344 1.02182 1.30951 0
M  V30 890 O 82.9194 1.29723 1.39916 0
M  V30 891 C 80.0594 2.66337 2.19451 0
M  V30 892 C 79.1724 3.89708 1.86418 0
M  V30 893 C 78.3074 4.32893 3.07859 0
M  V30 894 C 77.3464 5.48967 2.70742 0
M  V30 895 N 76.4834 5.87211 3.84874 0
M  V30 896 H 81.3234 2.94465 0.457639 0
M  V30 897 H 78.8604 1.45531 0.214266 0
M  V30 898 H 80.8184 2.96247 2.93758 0
M  V30 899 H 79.4484 1.86141 2.63726 0
M  V30 900 H 78.5004 3.66396 1.02264 0
M  V30 901 H 79.8124 4.74074 1.55096 0
M  V30 902 H 78.9664 4.6435 3.90466 0
M  V30 903 H 77.7054 3.47336 3.42358 0
M  V30 904 H 76.7104 5.17183 1.86551 0
M  V30 905 H 77.9354 6.3624 2.37436 0
M  V30 906 H 75.8814 5.04607 4.19175 0
M  V30 907 H 75.7984 6.66266 3.57247 0
M  V30 908 H 77.0664 6.23282 4.68123 0
M  V30 909 N 81.2955 -0.223234 1.56011 0
M  V30 910 C 82.2585 -1.26014 1.9145 0
M  V30 911 C 83.2585 -1.3989 0.792937 0
M  V30 912 O 84.4485 -1.38184 1.0607 0
M  V30 913 C 81.5805 -2.63422 2.16383 0
M  V30 914 H 82.7735 -0.95796 2.84189 0
M  V30 915 H 80.3265 -0.463576 1.49267 0
M  V30 916 H 81.0615 -2.98741 1.2619 0
M  V30 917 H 80.8465 -2.54728 2.98088 0
M  V30 918 H 82.3365 -3.38249 2.44903 0
M  V30 919 N 82.7736 -1.49793 -0.48987 0
M  V30 920 C 83.7036 -1.70201 -1.59856 0
M  V30 921 C 84.6846 -0.55076 -1.60937 0
M  V30 922 O 85.8696 -0.787841 -1.77501 0
M  V30 923 C 82.9996 -1.77882 -2.98287 0
M  V30 924 C 81.9536 -2.92907 -3.12073 0
M  V30 925 C 81.2796 -2.85712 -4.51965 0
M  V30 926 C 82.5796 -4.3369 -2.91051 0
M  V30 927 H 84.2736 -2.63025 -1.43032 0
M  V30 928 H 81.8196 -1.26574 -0.686664 0
M  V30 929 H 83.7726 -1.90744 -3.75759 0
M  V30 930 H 82.4966 -0.816653 -3.16225 0
M  V30 931 H 81.1556 -2.79665 -2.37029 0
M  V30 932 H 80.8036 -1.8738 -4.66795 0
M  V30 933 H 80.5036 -3.62921 -4.62128 0
M  V30 934 H 82.0276 -3.00598 -5.31482 0
M  V30 935 H 83.4416 -4.47555 -3.58284 0
M  V30 936 H 81.8386 -5.12205 -3.12675 0
M  V30 937 H 82.9086 -4.47362 -1.87071 0
M  V30 938 N 84.2517 0.741722 -1.39055 0
M  V30 939 C 85.2147 1.83733 -1.37021 0
M  V30 940 C 86.2147 1.58542 -0.268534 0
M  V30 941 O 87.4047 1.66067 -0.526076 0
M  V30 942 C 84.5367 3.2141 -1.13617 0
M  V30 943 H 85.7297 1.86941 -2.34506 0
M  V30 944 H 83.2827 0.944676 -1.24521 0
M  V30 945 H 84.0177 3.23865 -0.167863 0
M  V30 946 H 83.8027 3.4109 -1.93391 0
M  V30 947 H 85.2927 4.01477 -1.14918 0
M  V30 948 N 85.7298 1.2412 0.971189 0
M  V30 949 C 86.6628 0.97373 2.06382 0
M  V30 950 C 87.6408 -0.0912662 1.62344 0
M  V30 951 O 88.8248 0.0449365 1.88446 0
M  V30 952 C 85.9518 0.468746 3.35441 0
M  V30 953 C 84.9978 1.52176 3.98428 0
M  V30 954 S 85.8308 3.10203 4.36503 0
M  V30 955 C 86.9868 2.61398 5.68702 0
M  V30 956 H 87.2198 1.89893 2.28753 0
M  V30 957 H 84.7528 1.07466 1.10862 0
M  V30 958 H 86.7108 0.184012 4.10087 0
M  V30 959 H 85.3718 -0.435688 3.11064 0
M  V30 960 H 84.5648 1.11876 4.91426 0
M  V30 961 H 84.1668 1.75632 3.30196 0
M  V30 962 H 86.4588 2.03992 6.4606 0
M  V30 963 H 87.4018 3.52972 6.13854 0
M  V30 964 H 87.8098 2.01941 5.27143 0
M  V30 965 N 87.2079 -1.17134 1.05439 0
M  V30 966 C 88.4359 -1.91372 0.786414 0
M  V30 967 C 88.8509 -1.76955 -0.658202 0
M  V30 968 O 88.2079 -1.10838 -1.44987 0
M  V30 969 C 88.2589 -3.42356 1.1608 0
M  V30 970 O 87.9799 -3.56332 2.54871 0
M  V30 971 C 89.4809 -4.33663 0.919322 0
M  V30 972 H 86.7009 -0.607118 0.285743 0
M  V30 973 H 89.2449 -1.48525 1.40572 0
M  V30 974 H 87.3999 -3.82939 0.586191 0
M  V30 975 H 87.8139 -4.49896 2.69618 0
M  V30 976 H 89.2879 -5.38099 1.231 0
M  V30 977 H 89.7649 -4.38959 -0.145359 0
M  V30 978 H 90.3709 -3.98796 1.47789 0
M  V30 979 N 88.686 -0.835752 -1.33615 0
M  V30 980 C 89.932 -0.430596 -1.98176 0
M  V30 981 C 90.265 1.00684 -1.66061 0
M  V30 982 O 89.54 1.70339 -0.938877 0
M  V30 983 C 89.823 -0.648065 -3.5422 0
M  V30 984 C 89.676 -2.13255 -3.96033 0
M  V30 985 C 90.995 -0.0922113 -4.40003 0
M  V30 986 H 88.114 -0.157924 -0.719881 0
M  V30 987 H 90.756 -1.05069 -1.58305 0
M  V30 988 H 88.906 -0.120237 -3.88314 0
M  V30 989 H 90.578 -2.725 -3.72211 0
M  V30 990 H 88.821 -2.61823 -3.45878 0
M  V30 991 H 89.492 -2.23547 -5.04708 0
M  V30 992 H 91.968 -0.543343 -4.12537 0
M  V30 993 H 90.844 -0.274083 -5.48215 0
M  V30 994 H 91.105 1.00378 -4.30554 0
M  V30 995 N 90.1641 1.46063 -0.591896 0
M  V30 996 C 91.0941 2.33172 0.123673 0
M  V30 997 C 92.0751 1.45897 0.87453 0
M  V30 998 O 93.2601 1.74698 0.848181 0
M  V30 999 C 90.3901 3.28336 1.13194 0
M  V30 1000 C 89.3441 4.25124 0.495324 0
M  V30 1001 C 88.6701 5.09863 1.61071 0
M  V30 1002 C 89.9701 5.19143 -0.573425 0
M  V30 1003 H 91.6641 2.93252 -0.603646 0
M  V30 1004 H 89.2101 1.41014 -0.291741 0
M  V30 1005 H 91.1631 3.88137 1.64097 0
M  V30 1006 H 89.8871 2.66383 1.88965 0
M  V30 1007 H 88.5461 3.66599 0.00729452 0
M  V30 1008 H 88.1941 4.44288 2.35832 0
M  V30 1009 H 87.8941 5.75417 1.19035 0
M  V30 1010 H 89.4181 5.72529 2.12233 0
M  V30 1011 H 90.8321 5.73106 -0.1491 0
M  V30 1012 H 89.2291 5.93089 -0.914636 0
M  V30 1013 H 90.2991 4.62519 -1.45617 0
M  V30 1014 N 91.6422 0.330177 1.54103 0
M  V30 1015 C 92.6052 -0.520144 2.2322 0
M  V30 1016 C 93.6052 -1.03828 1.22786 0
M  V30 1017 O 94.7952 -0.929652 1.4732 0
M  V30 1018 C 91.9272 -1.72317 2.94142 0
M  V30 1019 H 93.1202 0.0841605 2.99782 0
M  V30 1020 H 90.6732 0.0813433 1.56088 0
M  V30 1021 H 91.4082 -2.36653 2.21734 0
M  V30 1022 H 91.1932 -1.35898 3.67796 0
M  V30 1023 H 92.6832 -2.3266 3.46784 0
M  V30 1024 N 93.1203 -1.57491 0.0584922 0
M  V30 1025 C 94.0833 -2.1085 -0.898617 0
M  V30 1026 C 95.0833 -1.02964 -1.23511 0
M  V30 1027 O 96.2733 -1.29007 -1.17059 0
M  V30 1028 C 93.4053 -2.59881 -2.20623 0
M  V30 1029 H 94.5983 -2.96715 -0.435936 0
M  V30 1030 H 92.1513 -1.55141 -0.190023 0
M  V30 1031 H 92.8863 -1.77431 -2.71457 0
M  V30 1032 H 92.6713 -3.38727 -1.97501 0
M  V30 1033 H 94.1613 -3.01285 -2.89166 0
M  V30 1034 N 94.5984 0.214957 -1.56127 0
M  V30 1035 C 95.5614 1.24997 -1.92116 0
M  V30 1036 C 96.5614 1.39467 -0.800344 0
M  V30 1037 O 97.7514 1.37619 -1.06802 0
M  V30 1038 C 94.8834 2.62271 -2.17777 0
M  V30 1039 H 96.0764 0.942875 -2.84693 0
M  V30 1040 H 93.6294 0.455654 -1.49511 0
M  V30 1041 H 94.3644 2.98068 -1.27773 0
M  V30 1042 H 94.1494 2.53143 -2.99434 0
M  V30 1043 H 95.6394 3.36946 -2.46693 0
M  V30 1044 N 96.0765 1.50051 0.48192 0
M  V30 1045 C 97.0085 1.64263 1.59844 0
M  V30 1046 C 98.0215 0.52451 1.54119 0
M  V30 1047 O 99.2105 0.797293 1.59704 0
M  V30 1048 C 96.3105 1.60102 2.98698 0
M  V30 1049 C 95.4835 2.87767 3.29407 0
M  V30 1050 C 94.5425 2.76397 4.47762 0
M  V30 1051 O 93.5685 3.50348 4.48603 0
M  V30 1052 N 94.7705 1.89222 5.48794 0
M  V30 1053 H 97.5355 2.60566 1.48073 0
M  V30 1054 H 95.0965 1.47379 0.670149 0
M  V30 1055 H 97.0885 1.50123 3.75826 0
M  V30 1056 H 95.6585 0.715798 3.04294 0
M  V30 1057 H 94.8785 3.11954 2.40994 0
M  V30 1058 H 96.1665 3.72365 3.4673 0
M  V30 1059 H 95.5645 1.28434 5.50928 0
M  V30 1060 H 94.1215 1.85154 6.24949 0
M  V30 1061 N 97.5546 -0.734337 1.39446 0
M  V30 1062 C 98.5026 -1.86971 1.38364 0
M  V30 1063 C 99.4966 -1.67288 0.266687 0
M  V30 1064 O 100.703 -1.74621 0.436755 0
M  V30 1065 H 97.0776 -0.615474 0.432082 0
M  V30 1066 H 99.0486 -1.85 2.34132 0
M  V30 1067 C 97.7976 -3.2466 1.24465 0
M  V30 1068 H 97.1206 -3.40402 2.09682 0
M  V30 1069 H 98.5606 -4.04292 1.27764 0
M  V30 1070 C 97.0196 -3.36867 -0.0468674 0
M  V30 1071 O 97.5496 -3.88618 -1.01681 0
M  V30 1072 N 95.7556 -2.90391 -0.110145 0
M  V30 1073 H 95.3026 -2.48466 0.679868 0
M  V30 1074 H 95.2606 -2.98939 -0.973799 0
M  V30 1075 N 99.0327 -1.24633 -0.964593 0
M  V30 1076 C 100.282 -1.08188 -1.7023 0
M  V30 1077 C 100.595 0.37873 -1.91898 0
M  V30 1078 O 101.801 0.663427 -2.6327 0
M  V30 1079 C 100.257 -1.88773 -3.06419 0
M  V30 1080 C 99.8647 -3.39263 -2.92582 0
M  V30 1081 C 101.609 -1.80867 -3.84041 0
M  V30 1082 C 99.5157 -4.1218 -4.24101 0
M  V30 1083 H 98.4457 -0.401245 -0.638372 0
M  V30 1084 H 101.097 -1.48742 -1.07462 0
M  V30 1085 H 99.4787 -1.41035 -3.70034 0
M  V30 1086 H 100.653 -3.94603 -2.37961 0
M  V30 1087 H 98.9677 -3.48154 -2.28424 0
M  V30 1088 H 101.565 -2.32646 -4.81435 0
M  V30 1089 H 101.908 -0.774543 -4.09031 0
M  V30 1090 H 102.441 -2.26301 -3.27159 0
M  V30 1091 H 99.1797 -5.15965 -4.04303 0
M  V30 1092 H 98.6997 -3.61626 -4.78526 0
M  V30 1093 H 100.379 -4.19349 -4.92702 0
M  V30 1094 N 100.511 1.16574 -1.06058 0
M  V30 1095 C 101.421 2.2452 -0.680282 0
M  V30 1096 C 102.437 1.71348 0.302604 0
M  V30 1097 O 103.613 2.00822 0.152513 0
M  V30 1098 C 100.678 3.46629 -0.0700315 0
M  V30 1099 C 99.7388 4.14849 -1.10448 0
M  V30 1100 C 98.9718 5.31129 -0.523256 0
M  V30 1101 O 99.1948 5.66514 0.664709 0
M  V30 1102 O 98.1288 5.88526 -1.26179 0
M  V30 1103 H 101.955 2.59355 -1.58015 0
M  V30 1104 H 99.5398 1.24043 -0.832694 0
M  V30 1105 H 101.422 4.20543 0.268667 0
M  V30 1106 H 100.097 3.13573 0.803353 0
M  V30 1107 H 99.0038 3.42916 -1.49532 0
M  V30 1108 H 100.337 4.51954 -1.94931 0
M  V30 1109 N 101.989 0.842826 1.3317 0
M  V30 1110 C 102.937 0.267495 2.31057 0
M  V30 1111 C 103.931 -0.602682 1.58316 0
M  V30 1112 O 105.137 -0.491803 1.73151 0
M  V30 1113 H 101.512 0.0677813 0.748939 0
M  V30 1114 H 103.483 1.10754 2.77085 0
M  V30 1115 C 102.232 -0.539331 3.43492 0
M  V30 1116 H 101.555 0.12095 3.99617 0
M  V30 1117 H 102.995 -0.90767 4.14171 0
M  V30 1118 C 101.454 -1.71981 2.89697 0
M  V30 1119 O 101.984 -2.81862 2.86211 0
M  V30 1120 N 100.19 -1.54299 2.46252 0
M  V30 1121 H 99.7369 -0.649143 2.49287 0
M  V30 1122 H 99.6949 -2.33431 2.10612 0
M  V30 1123 N 103.467 -1.45747 0.599634 0
M  V30 1124 C 104.397 -2.33235 -0.111306 0
M  V30 1125 C 105.378 -1.46359 -0.866781 0
M  V30 1126 O 106.563 -1.75146 -0.838904 0
M  V30 1127 C 103.693 -3.28932 -1.11451 0
M  V30 1128 C 102.647 -4.25381 -0.472772 0
M  V30 1129 C 101.973 -5.1071 -1.58365 0
M  V30 1130 C 103.273 -5.18831 0.600948 0
M  V30 1131 H 104.967 -2.92927 0.61919 0
M  V30 1132 H 102.513 -1.40857 0.299215 0
M  V30 1133 H 104.466 -3.89002 -1.62036 0
M  V30 1134 H 103.19 -2.67381 -1.8755 0
M  V30 1135 H 101.849 -3.66598 0.0121472 0
M  V30 1136 H 101.497 -4.45533 -2.33473 0
M  V30 1137 H 101.197 -5.7604 -1.15982 0
M  V30 1138 H 102.721 -5.73647 -2.09194 0
M  V30 1139 H 104.135 -5.73019 0.179491 0
M  V30 1140 H 102.532 -5.92595 0.946076 0
M  V30 1141 H 103.602 -4.6174 1.48068 0
M  V30 1142 N 104.945 -0.338344 -1.53925 0
M  V30 1143 C 106.356 0.146651 -1.86123 0
M  V30 1144 C 106.707 1.5042 -1.2597 0
M  V30 1145 O 105.832 2.08723 -0.571294 0
M  V30 1146 C 106.427 0.272879 -3.37699 0
M  V30 1147 C 104.986 0.702103 -3.69794 0
M  V30 1148 C 104.133 -0.167304 -2.76795 0
M  V30 1149 H 107.084 -0.558123 -1.48562 0
M  V30 1150 H 107.105 1.10128 -3.64214 0
M  V30 1151 H 106.617 -0.715307 -3.81451 0
M  V30 1152 H 104.718 1.6995 -3.31584 0
M  V30 1153 H 104.831 0.495604 -4.7653 0
M  V30 1154 H 103.195 0.359527 -2.5215 0
M  V30 1155 H 103.978 -1.15253 -3.23375 0
M  V30 1156 N 106.423 1.57458 -0.0668435 0
M  V30 1157 C 107.386 2.11323 0.887422 0
M  V30 1158 C 108.386 1.03618 1.22964 0
M  V30 1159 O 109.576 1.29626 1.16373 0
M  V30 1160 C 106.708 2.61048 2.19242 0
M  V30 1161 H 107.901 2.96942 0.420194 0
M  V30 1162 H 105.454 1.55239 0.181793 0
M  V30 1163 H 106.189 1.78868 2.70512 0
M  V30 1164 H 105.974 3.39769 1.95702 0
M  V30 1165 H 107.464 3.02814 2.87565 0
M  V30 1166 N 107.901 -0.206675 1.56239 0
M  V30 1167 C 109.15 -0.926964 1.79138 0
M  V30 1168 C 109.463 -1.84901 0.638043 0
M  V30 1169 O 110.669 -2.60906 0.751033 0
M  V30 1170 C 109.125 -1.6986 3.17294 0
M  V30 1171 C 108.733 -0.821956 4.40395 0
M  V30 1172 C 110.477 -2.40922 3.4951 0
M  V30 1173 C 108.384 -1.59179 5.69575 0
M  V30 1174 H 107.314 -0.349864 0.667915 0
M  V30 1175 H 109.965 -0.180487 1.8261 0
M  V30 1176 H 108.347 -2.48853 3.08039 0
M  V30 1177 H 109.521 -0.0715019 4.60745 0
M  V30 1178 H 107.836 -0.222741 4.15804 0
M  V30 1179 H 110.433 -2.99047 4.43255 0
M  V30 1180 H 110.776 -3.14542 2.72707 0
M  V30 1181 H 111.309 -1.68905 3.60161 0
M  V30 1182 H 108.048 -0.898589 6.49312 0
M  V30 1183 H 107.568 -2.31648 5.53262 0
M  V30 1184 H 109.247 -2.14862 6.10281 0
M  V30 1185 N 109.379 -1.50304 -0.473955 0
M  V30 1186 C 110.309 -1.71886 -1.58042 0
M  V30 1187 C 111.29 -0.567799 -1.60344 0
M  V30 1188 O 112.475 -0.806623 -1.76656 0
M  V30 1189 C 109.605 -1.81036 -2.96384 0
M  V30 1190 C 108.559 -2.962 -3.08949 0
M  V30 1191 C 107.885 -2.9049 -4.48909 0
M  V30 1192 C 109.185 -4.36752 -2.86434 0
M  V30 1193 H 110.879 -2.64527 -1.40234 0
M  V30 1194 H 108.425 -1.27295 -0.673201 0
M  V30 1195 H 110.378 -1.94719 -3.73714 0
M  V30 1196 H 109.102 -0.850147 -3.15341 0
M  V30 1197 H 107.761 -2.82164 -2.3405 0
M  V30 1198 H 107.409 -1.92321 -4.64781 0
M  V30 1199 H 107.109 -3.67802 -4.58253 0
M  V30 1200 H 108.633 -3.06218 -5.28264 0
M  V30 1201 H 110.047 -4.5133 -3.53517 0
M  V30 1202 H 108.444 -5.15493 -3.07225 0
M  V30 1203 H 109.514 -4.49321 -1.82316 0
M  V30 1204 N 110.857 0.726932 -1.39834 0
M  V30 1205 C 112.268 1.30558 -1.3346 0
M  V30 1206 C 112.619 1.962 -0.00273003 0
M  V30 1207 O 111.744 1.96826 0.899371 0
M  V30 1208 C 112.339 2.37404 -2.41713 0
M  V30 1209 C 110.898 2.90921 -2.38835 0
M  V30 1210 C 110.045 1.64578 -2.2318 0
M  V30 1211 H 112.996 0.523862 -1.49804 0
M  V30 1212 H 113.017 3.17984 -2.08966 0
M  V30 1213 H 112.529 1.89599 -3.38635 0
M  V30 1214 H 110.63 3.42985 -1.45575 0
M  V30 1215 H 110.743 3.43487 -3.33997 0
M  V30 1216 H 109.107 1.89219 -1.70494 0
M  V30 1217 H 109.89 1.18814 -3.22084 0
M  V30 1218 N 112.336 1.25143 0.95797 0
M  V30 1219 C 113.299 1.05321 2.03569 0
M  V30 1220 C 114.299 0.007152 1.60798 0
M  V30 1221 O 115.489 0.24903 1.72411 0
M  V30 1222 C 112.621 0.598394 3.35607 0
M  V30 1223 H 113.814 2.00986 2.22586 0
M  V30 1224 H 111.367 1.07502 1.13459 0
M  V30 1225 H 112.102 -0.361014 3.22284 0
M  V30 1226 H 111.887 1.35351 3.67998 0
M  V30 1227 H 113.377 0.48104 4.1482 0
M  V30 1228 N 113.814 -1.1601 1.06675 0
M  V30 1229 C 115.06 -1.86909 0.786945 0
M  V30 1230 C 115.393 -1.81717 -0.685018 0
M  V30 1231 O 114.668 -1.23551 -1.50218 0
M  V30 1232 C 114.951 -3.36313 1.28707 0
M  V30 1233 C 114.804 -3.50175 2.82308 0
M  V30 1234 C 116.123 -4.3084 0.898071 0
M  V30 1235 H 113.242 -0.678677 0.287343 0
M  V30 1236 H 115.884 -1.36336 1.32334 0
M  V30 1237 H 114.034 -3.79513 0.830768 0
M  V30 1238 H 115.706 -3.15886 3.36175 0
M  V30 1239 H 113.949 -2.91959 3.20847 0
M  V30 1240 H 114.62 -4.55116 3.12368 0
M  V30 1241 H 117.096 -3.95561 1.29114 0
M  V30 1242 H 115.972 -5.33876 1.27543 0
M  V30 1243 H 116.233 -4.41662 -0.196651 0
M  V30 1244 N 115.292 -0.849877 -1.32721 0
M  V30 1245 C 116.239 -0.289033 -2.28983 0
M  V30 1246 C 117.209 0.601324 -1.54833 0
M  V30 1247 O 118.394 0.537253 -1.8308 0
M  V30 1248 C 115.534 0.520623 -3.4115 0
M  V30 1249 C 114.647 -0.394989 -4.3019 0
M  V30 1250 C 113.782 0.426834 -5.29482 0
M  V30 1251 C 112.821 -0.486476 -6.10164 0
M  V30 1252 N 111.958 0.297879 -7.01468 0
M  V30 1253 H 116.798 -1.11519 -2.76347 0
M  V30 1254 H 114.335 -0.56138 -1.35967 0
M  V30 1255 H 116.293 1.00563 -4.04899 0
M  V30 1256 H 114.923 1.31165 -2.9495 0
M  V30 1257 H 113.975 -0.99836 -3.67065 0
M  V30 1258 H 115.287 -1.09612 -4.86607 0
M  V30 1259 H 114.441 0.975205 -5.98811 0
M  V30 1260 H 113.18 1.16136 -4.73671 0
M  V30 1261 H 112.185 -1.04677 -5.39743 0
M  V30 1262 H 113.41 -1.21953 -6.6806 0
M  V30 1263 H 111.356 1.01558 -6.48091 0
M  V30 1264 H 111.273 -0.344318 -7.55216 0
M  V30 1265 H 112.541 0.828131 -7.75089 0
M  V30 1266 N 116.77 1.45427 -0.607355 0
M  V30 1267 C 117.717 2.3053 0.111625 0
M  V30 1268 C 118.687 1.4209 0.860216 0
M  V30 1269 O 119.872 1.71019 0.845998 0
M  V30 1270 C 117.012 3.26992 1.10319 0
M  V30 1271 C 116.125 4.30535 0.355493 0
M  V30 1272 C 115.26 5.14105 1.33676 0
M  V30 1273 C 114.299 6.09376 0.576862 0
M  V30 1274 N 113.436 6.85727 1.5074 0
M  V30 1275 H 118.276 2.91477 -0.620093 0
M  V30 1276 H 115.813 1.43631 -0.317594 0
M  V30 1277 H 117.771 3.81385 1.6912 0
M  V30 1278 H 116.401 2.67799 1.80232 0
M  V30 1279 H 115.453 3.78805 -0.348023 0
M  V30 1280 H 116.765 4.98235 -0.237423 0
M  V30 1281 H 115.919 5.72897 1.99684 0
M  V30 1282 H 114.658 4.46423 1.9636 0
M  V30 1283 H 113.663 5.49715 -0.0968519 0
M  V30 1284 H 114.888 6.79085 -0.0449341 0
M  V30 1285 H 112.834 6.20735 2.12189 0
M  V30 1286 H 112.751 7.49778 0.967913 0
M  V30 1287 H 114.019 7.4906 2.15706 0
M  V30 1288 N 118.248 0.346503 1.53744 0
M  V30 1289 C 119.497 -0.250122 2.00143 0
M  V30 1290 C 119.81 -1.51418 1.23822 0
M  V30 1291 O 121.016 -2.18823 1.60713 0
M  V30 1292 C 119.472 -0.496252 3.56462 0
M  V30 1293 C 119.08 0.752077 4.41642 0
M  V30 1294 C 120.824 -1.05157 4.11269 0
M  V30 1295 C 118.731 0.476583 5.89477 0
M  V30 1296 H 117.661 -0.0972409 0.747703 0
M  V30 1297 H 120.312 0.46229 1.77581 0
M  V30 1298 H 118.694 -1.26944 3.75102 0
M  V30 1299 H 119.868 1.5266 4.34778 0
M  V30 1300 H 118.183 1.22925 3.97842 0
M  V30 1301 H 120.78 -1.27269 5.19333 0
M  V30 1302 H 121.123 -2.00799 3.64672 0
M  V30 1303 H 121.656 -0.339019 3.96353 0
M  V30 1304 H 118.395 1.4028 6.40314 0
M  V30 1305 H 117.915 -0.259794 5.99237 0
M  V30 1306 H 119.594 0.0949315 6.4693 0
M  V30 1307 N 119.726 -1.57421 0.075193 0
M  V30 1308 C 120.689 -2.11791 -0.876203 0
M  V30 1309 C 121.689 -1.04268 -1.22412 0
M  V30 1310 O 122.879 -1.30242 -1.15684 0
M  V30 1311 C 120.011 -2.62207 -2.17854 0
M  V30 1312 H 121.204 -2.9716 -0.40444 0
M  V30 1313 H 118.757 -1.55333 -0.173557 0
M  V30 1314 H 119.492 -1.803 -2.6956 0
M  V30 1315 H 119.277 -3.40802 -1.93897 0
M  V30 1316 H 120.767 -3.04335 -2.85955 0
M  V30 1317 N 121.204 0.198386 -1.56346 0
M  V30 1318 C 122.45 0.920648 -1.80698 0
M  V30 1319 C 122.783 1.83045 -0.648697 0
M  V30 1320 O 122.058 1.91308 0.350925 0
M  V30 1321 C 122.341 1.73971 -3.15287 0
M  V30 1322 C 122.194 0.85485 -4.41602 0
M  V30 1323 C 123.513 2.71296 -3.46535 0
M  V30 1324 H 120.632 0.333261 -0.657348 0
M  V30 1325 H 123.274 0.188198 -1.89066 0
M  V30 1326 H 121.424 2.36416 -3.08285 0
M  V30 1327 H 123.096 0.245362 -4.60647 0
M  V30 1328 H 121.339 0.161398 -4.335 0
M  V30 1329 H 122.01 1.46286 -5.32264 0
M  V30 1330 H 124.486 2.18983 -3.53816 0
M  V30 1331 H 123.362 3.2569 -4.41834 0
M  V30 1332 H 123.623 3.5018 -2.69864 0
M  V30 1333 N 122.682 1.50554 0.465978 0
M  V30 1334 C 123.629 1.6979 1.56333 0
M  V30 1335 C 124.599 0.539239 1.57103 0
M  V30 1336 O 125.784 0.770401 1.74555 0
M  V30 1337 C 122.924 1.80273 2.94271 0
M  V30 1338 C 122.037 3.07674 3.0325 0
M  V30 1339 C 121.172 3.08922 4.32135 0
M  V30 1340 C 120.211 4.30755 4.34875 0
M  V30 1341 N 119.348 4.29714 5.55239 0
M  V30 1342 H 124.188 2.63472 1.39235 0
M  V30 1343 H 121.725 1.30602 0.676873 0
M  V30 1344 H 123.683 1.84332 3.74269 0
M  V30 1345 H 122.313 0.900258 3.09992 0
M  V30 1346 H 121.365 3.13062 2.16094 0
M  V30 1347 H 122.677 3.97642 3.01135 0
M  V30 1348 H 121.831 3.11738 5.20485 0
M  V30 1349 H 120.57 2.16792 4.36866 0
M  V30 1350 H 119.575 4.28146 3.44922 0
M  V30 1351 H 120.8 5.24117 4.31831 0
M  V30 1352 H 118.746 3.4044 5.60746 0
M  V30 1353 H 118.663 5.13456 5.54886 0
M  V30 1354 H 119.931 4.36683 6.457 0
M  V30 1355 N 124.16 -0.719506 1.40217 0
M  V30 1356 C 125.11 -1.8251 1.36653 0
M  V30 1357 C 126.094 -1.59028 0.244732 0
M  V30 1358 O 127.286 -1.70268 0.483524 0
M  V30 1359 C 124.415 -3.20599 1.22763 0
M  V30 1360 C 123.501 -3.49858 2.39708 0
M  V30 1361 N 123.892 -3.49957 3.6519 0
M  V30 1362 C 122.19 -3.80297 2.33002 0
M  V30 1363 C 122.891 -3.77449 4.42614 0
M  V30 1364 N 121.867 -3.96002 3.72402 0
M  V30 1365 H 125.669 -1.80914 2.31619 0
M  V30 1366 H 123.183 -0.918455 1.33933 0
M  V30 1367 H 125.18 -3.99766 1.18292 0
M  V30 1368 H 123.84 -3.23424 0.287614 0
M  V30 1369 H 124.851 -3.309 3.98404 0
M  V30 1370 H 121.528 -3.90635 1.47346 0
M  V30 1371 H 122.918 -3.83863 5.51451 0
M  V30 1372 N 125.638 -1.25649 -0.95132 0
M  V30 1373 C 126.878 -1.11802 -1.71113 0
M  V30 1374 C 127.242 0.334758 -1.89059 0
M  V30 1375 O 128.443 0.595121 -2.62129 0
M  V30 1376 C 126.714 -1.85512 -3.05483 0
M  V30 1377 S 128.273 -1.87597 -3.96677 0
M  V30 1378 H 125.091 -0.399552 -0.588115 0
M  V30 1379 H 127.693 -1.59222 -1.1344 0
M  V30 1380 H 126.397 -2.90299 -2.90094 0
M  V30 1381 H 125.928 -1.38493 -3.68216 0
M  V30 1382 H 127.943 -0.955389 -4.86916 0
M  V30 1383 N 127.117 1.15442 -1.07289 0
M  V30 1384 C 128.049 2.19773 -0.650585 0
M  V30 1385 C 129.062 1.60076 0.296572 0
M  V30 1386 O 130.251 1.78293 0.0859905 0
M  V30 1387 C 127.351 3.38838 0.0650398 0
M  V30 1388 C 126.524 4.2808 -0.898141 0
M  V30 1389 C 125.583 5.2574 -0.219926 0
M  V30 1390 O 124.609 5.62654 -0.860773 0
M  V30 1391 N 125.811 5.71205 1.03466 0
M  V30 1392 H 128.576 2.56622 -1.54808 0
M  V30 1393 H 126.137 1.30551 -0.957494 0
M  V30 1394 H 128.129 4.01222 0.529415 0
M  V30 1395 H 126.699 3.00409 0.864466 0
M  V30 1396 H 125.919 3.62804 -1.54165 0
M  V30 1397 H 127.207 4.84577 -1.5512 0
M  V30 1398 H 126.605 5.43325 1.57526 0
M  V30 1399 H 125.162 6.35633 1.44272 0
M  V30 1400 N 128.595 0.856903 1.32268 0
M  V30 1401 C 129.558 0.308171 2.27119 0
M  V30 1402 C 130.558 -0.533421 1.51695 0
M  V30 1403 O 131.748 -0.344607 1.70757 0
M  V30 1404 C 128.88 -0.563757 3.36206 0
M  V30 1405 H 130.073 1.14535 2.77167 0
M  V30 1406 H 127.626 0.631421 1.42978 0
M  V30 1407 H 128.361 -1.42266 2.91429 0
M  V30 1408 H 128.146 0.0386749 3.92081 0
M  V30 1409 H 129.636 -0.940386 4.06874 0
M  V30 1410 N 130.073 -1.45103 0.615059 0
M  V30 1411 C 131.321 -2.01784 0.112955 0
M  V30 1412 C 131.642 -1.48504 -1.26378 0
M  V30 1413 O 130.912 -0.682245 -1.83636 0
M  V30 1414 H 129.492 -0.745993 0.0387668 0
M  V30 1415 H 132.154 -1.77808 0.798141 0
M  V30 1416 H 131.25 -3.12025 0.0684069 0
M  V30 1417 N 131.551 -0.354651 -1.53558 0
M  V30 1418 C 132.797 0.238797 -2.01389 0
M  V30 1419 C 133.13 1.49309 -1.2418 0
M  V30 1420 O 132.405 1.91638 -0.332457 0
M  V30 1421 C 132.688 0.541771 -3.56001 0
M  V30 1422 C 132.541 -0.725388 -4.43912 0
M  V30 1423 C 133.86 1.34685 -4.18984 0
M  V30 1424 H 130.979 0.0853177 -0.732045 0
M  V30 1425 H 133.621 -0.477384 -1.83905 0
M  V30 1426 H 131.771 1.15189 -3.71031 0
M  V30 1427 H 133.443 -1.36313 -4.407 0
M  V30 1428 H 131.686 -1.34801 -4.12324 0
M  V30 1429 H 132.357 -0.468505 -5.50008 0
M  V30 1430 H 134.833 0.830837 -4.07721 0
M  V30 1431 H 133.709 1.52759 -5.27215 0
M  V30 1432 H 133.97 2.35221 -3.74331 0
M  V30 1433 N 133.029 1.57378 -0.0835403 0
M  V30 1434 C 133.992 2.12252 0.864959 0
M  V30 1435 C 134.992 1.04916 1.21858 0
M  V30 1436 O 136.182 1.30853 1.14991 0
M  V30 1437 C 133.314 2.63358 2.16461 0
M  V30 1438 H 134.507 2.97371 0.388676 0
M  V30 1439 H 132.06 1.55423 0.165317 0
M  V30 1440 H 132.795 1.81727 2.686 0
M  V30 1441 H 132.58 3.41826 1.92087 0
M  V30 1442 H 134.07 3.05847 2.84337 0
M  V30 1443 N 134.507 -0.190092 1.56449 0
M  V30 1444 C 135.47 -1.21925 1.9408 0
M  V30 1445 C 136.47 -1.38176 0.822431 0
M  V30 1446 O 137.66 -1.35903 1.08977 0
M  V30 1447 C 134.792 -2.58773 2.21922 0
M  V30 1448 H 135.985 -0.897464 2.86157 0
M  V30 1449 H 133.538 -0.43181 1.50217 0
M  V30 1450 H 134.273 -2.95998 1.32499 0
M  V30 1451 H 134.058 -2.48348 3.03424 0
M  V30 1452 H 135.548 -3.32978 2.52022 0
M  V30 1453 N 135.985 -1.50799 -0.457987 0
M  V30 1454 C 136.948 -1.7005 -1.53674 0
M  V30 1455 C 137.948 -0.570881 -1.50325 0
M  V30 1456 O 139.138 -0.838126 -1.52712 0
M  V30 1457 C 136.27 -1.73788 -2.93276 0
M  V30 1458 H 137.463 -2.66306 -1.37917 0
M  V30 1459 H 135.016 -1.40477 -0.685271 0
M  V30 1460 H 135.751 -0.792717 -3.14462 0
M  V30 1461 H 135.536 -2.55864 -2.97113 0
M  V30 1462 H 137.026 -1.90591 -3.71571 0
M  V30 1463 N 137.463 0.71206 -1.40597 0
M  V30 1464 C 138.413 1.81783 -1.37619 0
M  V30 1465 C 139.397 1.58896 -0.253162 0
M  V30 1466 O 140.589 1.70009 -0.492547 0
M  V30 1467 C 137.718 3.19944 -1.24462 0
M  V30 1468 C 136.804 3.48582 -2.4156 0
M  V30 1469 N 137.195 3.48016 -3.67041 0
M  V30 1470 C 135.493 3.79056 -2.35016 0
M  V30 1471 C 136.194 3.75096 -4.44609 0
M  V30 1472 N 135.17 3.94022 -3.74497 0
M  V30 1473 H 138.972 1.79683 -2.32575 0
M  V30 1474 H 136.486 0.91134 -1.34419 0
M  V30 1475 H 138.483 3.99133 -1.20411 0
M  V30 1476 H 137.143 3.23267 -0.304762 0
M  V30 1477 H 138.154 3.28782 -4.00153 0
M  V30 1478 H 134.831 3.89848 -1.49415 0
M  V30 1479 H 136.221 3.80934 -5.53479 0
M  V30 1480 N 138.941 1.26152 0.944643 0
M  V30 1481 C 140.171 1.14094 1.72239 0
M  V30 1482 C 140.579 -0.306931 1.86694 0
M  V30 1483 O 139.922 -1.22222 1.3714 0
M  V30 1484 C 139.984 1.73316 3.14963 0
M  V30 1485 C 139.648 3.2239 3.23904 0
M  V30 1486 C 140.645 4.19252 3.07447 0
M  V30 1487 C 138.33 3.62788 3.47405 0
M  V30 1488 C 140.324 5.54491 3.14353 0
M  V30 1489 C 138.011 4.98162 3.53947 0
M  V30 1490 C 139.009 5.93823 3.37436 0
M  V30 1491 O 138.697 7.26732 3.43679 0
M  V30 1492 H 138.429 0.398292 0.546205 0
M  V30 1493 H 140.983 1.67201 1.19301 0
M  V30 1494 H 139.213 1.14667 3.69308 0
M  V30 1495 H 140.902 1.56214 3.74636 0
M  V30 1496 H 141.668 3.8938 2.8915 0
M  V30 1497 H 137.547 2.88816 3.59313 0
M  V30 1498 H 141.091 6.29137 3.01384 0
M  V30 1499 H 136.988 5.27695 3.71763 0
M  V30 1500 H 137.756 7.3496 3.60245 0
M  V30 1501 N 140.419 -1.14872 1.07899 0
M  V30 1502 C 141.83 -1.67367 0.827363 0
M  V30 1503 C 142.181 -1.85236 -0.646693 0
M  V30 1504 O 141.306 -1.55974 -1.50004 0
M  V30 1505 C 141.901 -3.04016 1.49532 0
M  V30 1506 C 140.46 -3.53566 1.29106 0
M  V30 1507 C 139.607 -2.29161 1.56143 0
M  V30 1508 H 142.558 -0.990083 1.24028 0
M  V30 1509 H 142.579 -3.69219 0.919643 0
M  V30 1510 H 142.091 -2.90978 2.56814 0
M  V30 1511 H 140.192 -3.71835 0.238713 0
M  V30 1512 H 140.305 -4.34661 2.01511 0
M  V30 1513 H 138.669 -2.34978 0.982717 0
M  V30 1514 H 139.452 -2.18705 2.64619 0
M  V30 1515 N 141.898 -0.863906 -1.31812 0
M  V30 1516 C 143.147 -0.46801 -1.96195 0
M  V30 1517 C 143.46 0.983474 -1.69077 0
M  V30 1518 O 144.666 1.48523 -2.27273 0
M  V30 1519 C 143.122 -0.785995 -3.51212 0
M  V30 1520 C 142.73 -2.25383 -3.87178 0
M  V30 1521 C 144.474 -0.458274 -4.22019 0
M  V30 1522 C 142.381 -2.51455 -5.3528 0
M  V30 1523 H 141.311 -0.171283 -0.734287 0
M  V30 1524 H 143.962 -1.05597 -1.50072 0
M  V30 1525 H 142.344 -0.127359 -3.95795 0
M  V30 1526 H 143.518 -2.95502 -3.53575 0
M  V30 1527 H 141.833 -2.54698 -3.2942 0
M  V30 1528 H 144.43 -0.630369 -5.30971 0
M  V30 1529 H 144.773 0.600834 -4.11941 0
M  V30 1530 H 145.306 -1.07319 -3.8305 0
M  V30 1531 H 142.045 -3.56025 -5.50387 0
M  V30 1532 H 141.565 -1.85923 -5.70257 0
M  V30 1533 H 143.244 -2.35874 -6.02472 0
M  V30 1534 N 143.376 1.44774 -0.622745 0
M  V30 1535 C 144.622 2.0242 -0.124083 0
M  V30 1536 C 144.955 1.4881 1.24777 0
M  V30 1537 O 144.23 0.668799 1.8264 0
M  V30 1538 C 144.513 3.59957 -0.101619 0
M  V30 1539 C 144.366 4.23867 -1.50521 0
M  V30 1540 C 145.685 4.36284 0.578272 0
M  V30 1541 H 142.804 0.735528 -0.0465645 0
M  V30 1542 H 145.446 1.72447 -0.797617 0
M  V30 1543 H 143.596 3.85623 0.471934 0
M  V30 1544 H 145.268 4.09336 -2.12701 0
M  V30 1545 H 143.511 3.81684 -2.06154 0
M  V30 1546 H 144.182 5.32843 -1.4416 0
M  V30 1547 H 146.658 4.16001 0.0906057 0
M  V30 1548 H 145.534 5.46004 0.563149 0
M  V30 1549 H 145.795 4.10271 1.64713 0
M  V30 1550 N 144.854 0.36279 1.53368 0
M  V30 1551 C 146.102 -0.227326 2.00817 0
M  V30 1552 C 146.423 -1.49511 1.25186 0
M  V30 1553 O 145.693 -1.92482 0.364348 0
M  V30 1554 H 144.273 -0.0869923 0.741917 0
M  V30 1555 H 146.935 0.488381 1.88682 0
M  V30 1556 H 146.031 -0.456273 3.08747 0
M  V30 1557 N 146.332 -1.57332 0.0918853 0
M  V30 1558 C 147.264 -2.10869 -0.898168 0
M  V30 1559 C 148.277 -1.04521 -1.24817 0
M  V30 1560 O 149.466 -1.31977 -1.20184 0
M  V30 1561 C 146.566 -2.57083 -2.2082 0
M  V30 1562 C 145.739 -3.87229 -2.03402 0
M  V30 1563 C 144.798 -4.19324 -3.17889 0
M  V30 1564 O 143.824 -4.88598 -2.91994 0
M  V30 1565 N 145.026 -3.74471 -4.43567 0
M  V30 1566 H 147.791 -2.96439 -0.440943 0
M  V30 1567 H 145.352 -1.61631 -0.0933064 0
M  V30 1568 H 147.344 -2.75602 -2.96354 0
M  V30 1569 H 145.914 -1.76541 -2.57977 0
M  V30 1570 H 145.134 -3.7789 -1.12218 0
M  V30 1571 H 146.422 -4.72379 -1.89038 0
M  V30 1572 H 145.82 -3.18546 -4.67488 0
M  V30 1573 H 144.377 -3.98151 -5.16061 0
M  V30 1574 N 147.81 0.181792 -1.56548 0
M  V30 1575 C 148.72 1.24538 -1.98815 0
M  V30 1576 C 149.736 1.49045 -0.897861 0
M  V30 1577 O 150.912 1.61399 -1.20467 0
M  V30 1578 C 147.977 2.56683 -2.33055 0
M  V30 1579 C 147.038 2.40131 -3.55859 0
M  V30 1580 C 146.271 3.65975 -3.88456 0
M  V30 1581 O 146.494 4.70711 -3.22161 0
M  V30 1582 O 145.428 3.6071 -4.81842 0
M  V30 1583 H 149.254 0.916647 -2.89536 0
M  V30 1584 H 146.839 0.387842 -1.44278 0
M  V30 1585 H 148.721 3.34655 -2.56094 0
M  V30 1586 H 147.396 2.89157 -1.45498 0
M  V30 1587 H 146.303 1.60226 -3.38051 0
M  V30 1588 H 147.636 2.12585 -4.43924 0
M  V30 1589 N 149.288 1.51039 0.449983 0
M  V30 1590 C 150.218 1.74379 1.55288 0
M  V30 1591 C 151.199 0.593236 1.5942 0
M  V30 1592 O 152.384 0.834625 1.7535 0
M  V30 1593 C 149.514 1.85728 2.93466 0
M  V30 1594 C 148.468 3.01078 3.04197 0
M  V30 1595 C 147.794 2.97595 4.44231 0
M  V30 1596 C 149.094 4.41254 2.7945 0
M  V30 1597 H 150.788 2.66725 1.36008 0
M  V30 1598 H 148.334 1.2835 0.652864 0
M  V30 1599 H 150.287 2.0064 3.70569 0
M  V30 1600 H 149.011 0.900207 3.13949 0
M  V30 1601 H 147.67 2.85851 2.29531 0
M  V30 1602 H 147.318 1.99691 4.61663 0
M  V30 1603 H 147.018 3.75046 4.52343 0
M  V30 1604 H 148.542 3.14583 5.23326 0
M  V30 1605 H 149.956 4.56897 3.46292 0
M  V30 1606 H 148.353 5.20315 2.98985 0
M  V30 1607 H 149.423 4.52164 1.75144 0
M  V30 1608 N 150.766 -0.704594 1.40972 0
M  V30 1609 C 151.696 -1.83124 1.44872 0
M  V30 1610 C 152.677 -1.67281 0.30838 0
M  V30 1611 O 153.862 -1.87149 0.518556 0
M  V30 1612 C 150.992 -3.21181 1.32136 0
M  V30 1613 C 149.946 -3.51714 2.43888 0
M  V30 1614 C 149.272 -4.89032 2.16222 0
M  V30 1615 C 150.572 -3.516 3.86232 0
M  V30 1616 H 152.266 -1.80117 2.39161 0
M  V30 1617 H 149.812 -0.865145 1.15114 0
M  V30 1618 H 151.765 -3.99702 1.33479 0
M  V30 1619 H 150.489 -3.24791 0.343279 0
M  V30 1620 H 149.148 -2.75539 2.41813 0
M  V30 1621 H 148.796 -4.89256 1.16778 0
M  V30 1622 H 148.496 -5.10426 2.911 0
M  V30 1623 H 150.02 -5.69873 2.19265 0
M  V30 1624 H 151.434 -4.2014 3.9007 0
M  V30 1625 H 149.831 -3.84523 4.60719 0
M  V30 1626 H 150.901 -2.50757 4.15029 0
M  V30 1627 N 152.244 -1.26651 -0.937939 0
M  V30 1628 C 153.492 -1.12165 -1.68118 0
M  V30 1629 C 153.813 0.334983 -1.92101 0
M  V30 1630 O 153.083 1.23583 -1.52 0
M  V30 1631 H 151.663 -0.412093 -0.623048 0
M  V30 1632 H 154.325 -1.59027 -1.12678 0
M  V30 1633 H 153.421 -1.64289 -2.6536 0
M  V30 1634 N 153.722 1.14298 -1.08507 0
M  V30 1635 C 154.685 2.17607 -0.719711 0
M  V30 1636 C 155.685 1.58907 0.245997 0
M  V30 1637 O 156.875 1.74181 0.0254081 0
M  V30 1638 C 154.007 3.40842 -0.0627695 0
M  V30 1639 H 155.2 2.51443 -1.63452 0
M  V30 1640 H 152.753 1.28963 -0.88307 0
M  V30 1641 H 153.488 3.12587 0.863716 0
M  V30 1642 H 153.273 3.84713 -0.757504 0
M  V30 1643 H 154.763 4.17221 0.177786 0
M  V30 1644 N 155.201 0.870884 1.31352 0
M  V30 1645 C 156.45 0.478408 1.95944 0
M  V30 1646 C 156.763 -0.974493 1.69597 0
M  V30 1647 O 157.969 -1.47316 2.28058 0
M  V30 1648 C 156.425 0.804609 3.50791 0
M  V30 1649 C 156.033 2.27433 3.85977 0
M  V30 1650 C 157.777 0.480648 4.2177 0
M  V30 1651 C 155.684 2.5429 5.33939 0
M  V30 1652 H 154.614 0.175175 0.733369 0
M  V30 1653 H 157.265 1.06391 1.4951 0
M  V30 1654 H 155.647 0.148347 3.95722 0
M  V30 1655 H 156.821 2.97373 3.52002 0
M  V30 1656 H 155.136 2.56442 3.28065 0
M  V30 1657 H 157.733 0.658519 5.30629 0
M  V30 1658 H 158.076 -0.578979 4.12254 0
M  V30 1659 H 158.609 1.09349 3.82476 0
M  V30 1660 H 155.348 3.58939 5.48491 0
M  V30 1661 H 154.868 1.88945 5.69263 0
M  V30 1662 H 156.547 2.39066 6.01212 0
M  V30 1663 N 156.679 -1.44442 0.630414 0
M  V30 1664 C 157.626 -2.30678 -0.0749355 0
M  V30 1665 C 158.596 -1.4344 -0.837502 0
M  V30 1666 O 159.781 -1.72343 -0.818684 0
M  V30 1667 C 156.921 -3.28706 -1.05103 0
M  V30 1668 C 156.034 -4.31046 -0.286954 0
M  V30 1669 C 155.169 -5.16167 -1.2548 0
M  V30 1670 C 154.208 -6.10216 -0.479843 0
M  V30 1671 N 153.345 -6.88039 -1.39811 0
M  V30 1672 H 158.185 -2.90454 0.666386 0
M  V30 1673 H 155.722 -1.43107 0.340404 0
M  V30 1674 H 157.68 -3.84027 -1.63031 0
M  V30 1675 H 156.31 -2.70632 -1.75949 0
M  V30 1676 H 155.362 -3.78203 0.408243 0
M  V30 1677 H 156.674 -4.97794 0.316657 0
M  V30 1678 H 155.828 -5.76002 -1.90544 0
M  V30 1679 H 154.567 -4.49491 -1.89233 0
M  V30 1680 H 153.572 -5.49491 0.184295 0
M  V30 1681 H 154.797 -6.78928 0.152965 0
M  V30 1682 H 152.743 -6.24032 -2.02287 0
M  V30 1683 H 152.66 -7.51223 -0.848508 0
M  V30 1684 H 153.928 -7.52397 -2.03762 0
M  V30 1685 N 158.157 -0.370918 -1.53173 0
M  V30 1686 C 159.067 0.480823 -2.2962 0
M  V30 1687 C 160.083 1.08789 -1.35798 0
M  V30 1688 O 161.259 1.09768 -1.68858 0
M  V30 1689 C 158.324 1.60227 -3.07454 0
M  V30 1690 C 157.385 1.0222 -4.16953 0
M  V30 1691 C 156.618 2.0902 -4.91066 0
M  V30 1692 O 156.841 3.30222 -4.65091 0
M  V30 1693 O 155.775 1.71778 -5.76867 0
M  V30 1694 H 159.601 -0.141421 -3.03371 0
M  V30 1695 H 157.186 -0.135146 -1.48787 0
M  V30 1696 H 159.068 2.25417 -3.56041 0
M  V30 1697 H 157.743 2.20982 -2.36535 0
M  V30 1698 H 156.65 0.334064 -3.72605 0
M  V30 1699 H 157.983 0.459131 -4.90054 0
M  V30 1700 N 159.635 1.57281 -0.100228 0
M  V30 1701 C 160.881 1.94826 0.563101 0
M  V30 1702 C 161.214 0.982475 1.67514 0
M  V30 1703 O 160.489 0.0164069 1.94493 0
M  V30 1704 C 160.772 3.42453 1.11346 0
M  V30 1705 C 160.625 4.498 0.00612081 0
M  V30 1706 C 161.944 3.91506 2.01024 0
M  V30 1707 H 159.063 0.708428 0.203221 0
M  V30 1708 H 161.705 1.8922 -0.171979 0
M  V30 1709 H 159.855 3.47361 1.7399 0
M  V30 1710 H 161.527 4.57 -0.628357 0
M  V30 1711 H 159.77 4.28756 -0.659581 0
M  V30 1712 H 160.441 5.50306 0.432109 0
M  V30 1713 H 162.917 3.88784 1.48278 0
M  V30 1714 H 161.793 4.95358 2.36457 0
M  V30 1715 H 162.054 3.31099 2.92961 0
M  V30 1716 N 161.113 -0.173488 1.56642 0
M  V30 1717 C 162.043 -1.2171 1.99271 0
M  V30 1718 C 163.024 -1.46289 0.867959 0
M  V30 1719 O 164.209 -1.5766 1.13388 0
M  V30 1720 C 161.339 -2.55651 2.35074 0
M  V30 1721 C 160.293 -2.45645 3.50489 0
M  V30 1722 C 159.619 -3.84056 3.72028 0
M  V30 1723 C 160.919 -1.96302 4.84007 0
M  V30 1724 H 162.613 -0.86275 2.867 0
M  V30 1725 H 160.159 -0.413571 1.37933 0
M  V30 1726 H 162.112 -3.2886 2.63494 0
M  V30 1727 H 160.836 -2.92869 1.44552 0
M  V30 1728 H 159.495 -1.7489 3.22194 0
M  V30 1729 H 159.143 -4.18664 2.788 0
M  V30 1730 H 158.843 -3.7823 4.49684 0
M  V30 1731 H 160.367 -4.58854 4.02846 0
M  V30 1732 H 161.781 -2.59284 5.11317 0
M  V30 1733 H 160.178 -2.01429 5.65284 0
M  V30 1734 H 161.248 -0.917226 4.76146 0
M  V30 1735 N 162.591 -1.51276 -0.441967 0
M  V30 1736 C 163.839 -1.63392 -1.18943 0
M  V30 1737 C 164.16 -0.350159 -1.9183 0
M  V30 1738 O 163.43 0.633784 -1.85364 0
M  V30 1739 H 162.01 -0.602164 -0.442049 0
M  V30 1740 H 164.672 -1.88186 -0.507165 0
M  V30 1741 H 163.768 -2.45934 -1.92154 0
M  V30 1742 N 164.069 0.697108 -1.41344 0
M  V30 1743 C 165.346 1.45154 -1.31109 0
M  V30 1744 C 165.726 2.11009 0.0620449 0
M  V30 1745 O 165.074 2.01571 1.07618 0
M  V30 1746 C 165.284 2.47223 -2.46337 0
M  V30 1747 C 166.632 3.1252 -2.87431 0
M  V30 1748 O 167.656 2.57547 -2.46065 0
M  V30 1749 O 166.515 4.12083 -3.58957 0
M  V30 1750 H 163.609 0.646365 -0.515889 0
M  V30 1751 H 166.155 0.727716 -1.53305 0
M  V30 1752 H 164.927 1.97204 -3.37974 0
M  V30 1753 H 164.55 3.27116 -2.2601 0
M  V30 1754 N 165.547 1.27147 0.931209 0
M  V30 1755 C 166.51 1.09615 2.01289 0
M  V30 1756 C 167.51 0.0412581 1.60747 0
M  V30 1757 O 168.7 0.285545 1.71844 0
M  V30 1758 C 165.832 0.669447 3.34262 0
M  V30 1759 H 167.025 2.05662 2.18273 0
M  V30 1760 H 164.578 1.09885 1.11153 0
M  V30 1761 H 165.313 -0.292572 3.22978 0
M  V30 1762 H 165.098 1.43127 3.65044 0
M  V30 1763 H 166.588 0.568921 4.13706 0
M  V30 1764 N 167.025 -1.13721 1.09112 0
M  V30 1765 C 167.988 -2.17222 0.731241 0
M  V30 1766 C 168.988 -1.59035 -0.237566 0
M  V30 1767 O 170.178 -1.74192 -0.0161704 0
M  V30 1768 C 167.31 -3.40804 0.0808443 0
M  V30 1769 H 168.503 -2.50573 1.64783 0
M  V30 1770 H 166.056 -1.28493 0.889897 0
M  V30 1771 H 166.791 -3.1304 -0.847127 0
M  V30 1772 H 166.576 -3.84306 0.777896 0
M  V30 1773 H 168.066 -4.1731 -0.155657 0
M  V30 1774 N 168.503 -0.877838 -1.30888 0
M  V30 1775 C 169.731 -0.507414 -2.00581 0
M  V30 1776 C 170.146 0.902216 -1.65848 0
M  V30 1777 O 169.503 1.59225 -0.891831 0
M  V30 1778 C 169.554 -0.664162 -3.55347 0
M  V30 1779 O 169.275 -2.01829 -3.8884 0
M  V30 1780 C 170.776 -0.295787 -4.42312 0
M  V30 1781 H 167.996 -0.196866 -0.641471 0
M  V30 1782 H 170.54 -1.18117 -1.66939 0
M  V30 1783 H 168.695 -0.0378619 -3.87381 0
M  V30 1784 H 169.109 -2.03174 -4.8355 0
M  V30 1785 H 170.583 -0.456388 -5.5011 0
M  V30 1786 H 171.06 0.765663 -4.32475 0
M  V30 1787 H 171.666 -0.898113 -4.15709 0
M  V30 1788 N 169.982 1.44106 -0.638065 0
M  V30 1789 C 171.259 1.95453 -0.0759321 0
M  V30 1790 C 171.639 1.57984 1.40015 0
M  V30 1791 O 170.987 0.857361 2.11806 0
M  V30 1792 C 171.197 3.47655 -0.306132 0
M  V30 1793 C 172.545 4.24114 -0.203008 0
M  V30 1794 O 173.569 3.55405 -0.237871 0
M  V30 1795 O 172.428 5.46381 -0.113827 0
M  V30 1796 H 169.522 0.826797 0.0183332 0
M  V30 1797 H 172.068 1.54122 -0.710251 0
M  V30 1798 H 170.84 3.68 -1.3301 0
M  V30 1799 H 170.463 3.95949 0.361991 0
M  V30 1800 N 171.46 0.379036 1.52974 0
M  V30 1801 C 172.737 -0.263479 1.93817 0
M  V30 1802 C 173.117 -1.65244 1.31368 0
M  V30 1803 O 172.465 -2.23448 0.477856 0
M  V30 1804 C 172.675 -0.300166 3.47707 0
M  V30 1805 C 174.023 -0.534061 4.21228 0
M  V30 1806 O 175.047 -0.38081 3.54159 0
M  V30 1807 O 173.906 -0.833501 5.40106 0
M  V30 1808 H 171 -0.161149 0.811147 0
M  V30 1809 H 173.546 0.432798 1.64088 0
M  V30 1810 H 172.318 0.673138 3.85467 0
M  V30 1811 H 171.941 -1.04179 3.83709 0
M  V30 1812 N 172.938 -1.57226 0.108567 0
M  V30 1813 C 174.187 -1.94008 -0.551703 0
M  V30 1814 C 174.5 -0.993442 -1.68494 0
M  V30 1815 O 175.706 -1.25551 -2.40726 0
M  V30 1816 C 174.162 -3.44763 -1.03279 0
M  V30 1817 C 173.77 -4.47943 0.0714193 0
M  V30 1818 C 175.514 -3.90483 -1.66503 0
M  V30 1819 C 173.421 -5.89865 -0.425779 0
M  V30 1820 H 172.351 -0.724206 -0.209863 0
M  V30 1821 H 175.002 -1.82547 0.186741 0
M  V30 1822 H 173.384 -3.51422 -1.82533 0
M  V30 1823 H 174.558 -4.52942 0.847365 0
M  V30 1824 H 172.873 -4.11913 0.609669 0
M  V30 1825 H 175.47 -4.93925 -2.04798 0
M  V30 1826 H 175.813 -3.29877 -2.53942 0
M  V30 1827 H 176.346 -3.86581 -0.938074 0
M  V30 1828 H 173.085 -6.54202 0.412316 0
M  V30 1829 H 172.605 -5.88309 -1.16843 0
M  V30 1830 H 174.284 -6.40844 -0.890397 0
M  V30 1831 N 174.416 0.165178 -1.56732 0
M  V30 1832 C 175.346 1.20651 -1.99914 0
M  V30 1833 C 176.327 1.45827 -0.875705 0
M  V30 1834 O 177.512 1.57057 -1.14223 0
M  V30 1835 C 174.642 2.54401 -2.36427 0
M  V30 1836 C 173.596 2.43782 -3.51787 0
M  V30 1837 C 172.922 3.82078 -3.7406 0
M  V30 1838 C 174.222 1.93732 -4.85041 0
M  V30 1839 H 175.916 0.847534 -2.87154 0
M  V30 1840 H 173.462 0.40625 -1.38151 0
M  V30 1841 H 175.415 3.27458 -2.65234 0
M  V30 1842 H 174.139 2.92098 -1.46103 0
M  V30 1843 H 172.798 1.73178 -3.23117 0
M  V30 1844 H 172.446 4.17179 -2.81017 0
M  V30 1845 H 172.146 3.7584 -4.51684 0
M  V30 1846 H 173.67 4.56712 -4.05274 0
M  V30 1847 H 175.084 2.56569 -5.12684 0
M  V30 1848 H 173.481 1.98428 -5.66345 0
M  V30 1849 H 174.551 0.891962 -4.76626 0
M  V30 1850 N 175.894 1.51508 0.433938 0
M  V30 1851 C 177.171 1.54888 1.19453 0
M  V30 1852 C 177.551 0.315154 2.08734 0
M  V30 1853 O 176.899 -0.699558 2.17528 0
M  V30 1854 C 177.109 2.86467 1.99342 0
M  V30 1855 C 178.457 3.38545 2.56267 0
M  V30 1856 O 179.481 2.88041 2.0955 0
M  V30 1857 O 178.34 4.26675 3.41483 0
M  V30 1858 H 175.434 0.622863 0.544032 0
M  V30 1859 H 177.98 1.63823 0.442732 0
M  V30 1860 H 176.752 3.67718 1.33788 0
M  V30 1861 H 176.375 2.8071 2.8158 0
M  V30 1862 N 177.372 -0.689602 1.41712 0
M  V30 1863 C 178.335 -1.78521 1.43746 0
M  V30 1864 C 179.335 -1.57436 0.327191 0
M  V30 1865 O 180.525 -1.64 0.587348 0
M  V30 1866 C 177.657 -3.16971 1.25467 0
M  V30 1867 H 178.85 -1.78108 2.41283 0
M  V30 1868 H 176.403 -0.89781 1.27942 0
M  V30 1869 H 177.138 -3.23019 0.287948 0
M  V30 1870 H 176.923 -3.33678 2.05917 0
M  V30 1871 H 178.413 -3.96935 1.2974 0
M  V30 1872 N 178.85 -1.27639 -0.924453 0
M  V30 1873 C 180.096 -1.15345 -1.67532 0
M  V30 1874 C 180.451 0.297096 -1.90092 0
M  V30 1875 O 179.744 1.21374 -1.48253 0
M  V30 1876 C 179.938 -1.87407 -3.04325 0
M  V30 1877 C 179.767 -3.3932 -2.95114 0
M  V30 1878 C 178.537 -4.08644 -2.97218 0
M  V30 1879 C 180.735 -4.35242 -2.73987 0
M  V30 1880 N 178.717 -5.47102 -2.78482 0
M  V30 1881 C 180.088 -5.6099 -2.63988 0
M  V30 1882 C 182.143 -4.25294 -2.589 0
M  V30 1883 C 180.846 -6.77924 -2.40442 0
M  V30 1884 C 182.872 -5.41952 -2.36731 0
M  V30 1885 C 182.234 -6.66658 -2.27478 0
M  V30 1886 H 178.333 -0.47696 -0.619704 0
M  V30 1887 H 180.917 -1.6115 -1.09265 0
M  V30 1888 H 179.088 -1.44053 -3.60699 0
M  V30 1889 H 180.82 -1.6759 -3.68369 0
M  V30 1890 H 177.575 -3.60136 -3.07569 0
M  V30 1891 H 177.999 -6.19852 -2.72236 0
M  V30 1892 H 182.641 -3.29598 -2.64811 0
M  V30 1893 H 180.359 -7.73699 -2.3327 0
M  V30 1894 H 183.945 -5.36137 -2.25938 0
M  V30 1895 H 182.825 -7.55405 -2.10555 0
M  V30 1896 N 180.328 1.1314 -1.09713 0
M  V30 1897 C 181.576 1.84119 -0.833338 0
M  V30 1898 C 181.897 1.84097 0.642904 0
M  V30 1899 O 181.167 1.29881 1.46655 0
M  V30 1900 H 179.747 0.681766 -0.305293 0
M  V30 1901 H 182.409 1.37038 -1.38588 0
M  V30 1902 H 181.505 2.88543 -1.18951 0
M  V30 1903 N 181.806 0.884767 1.30421 0
M  V30 1904 C 182.753 0.349642 2.28136 0
M  V30 1905 C 183.723 -0.560061 1.56373 0
M  V30 1906 O 184.908 -0.488524 1.8444 0
M  V30 1907 C 182.048 -0.42999 3.42411 0
M  V30 1908 C 181.161 0.508907 4.28992 0
M  V30 1909 C 180.296 -0.286301 5.30428 0
M  V30 1910 C 179.335 0.648079 6.08659 0
M  V30 1911 N 178.472 -0.111792 7.02011 0
M  V30 1912 H 183.312 1.18807 2.73293 0
M  V30 1913 H 180.849 0.597231 1.3443 0
M  V30 1914 H 182.807 -0.897923 4.07423 0
M  V30 1915 H 181.437 -1.23299 2.98324 0
M  V30 1916 H 180.489 1.09533 3.64289 0
M  V30 1917 H 181.801 1.22475 4.8353 0
M  V30 1918 H 180.955 -0.816098 6.01186 0
M  V30 1919 H 179.694 -1.03536 4.76583 0
M  V30 1920 H 178.699 1.18951 5.36778 0
M  V30 1921 H 179.924 1.39623 6.64592 0
M  V30 1922 H 177.87 -0.843395 6.50556 0
M  V30 1923 H 177.787 0.544429 7.54037 0
M  V30 1924 H 179.055 -0.622339 7.77012 0
M  V30 1925 N 183.284 -1.43765 0.645699 0
M  V30 1926 C 184.247 -2.29163 -0.0409488 0
M  V30 1927 C 185.247 -1.41813 -0.757996 0
M  V30 1928 O 186.437 -1.63527 -0.600382 0
M  V30 1929 C 183.569 -3.23716 -1.06869 0
M  V30 1930 H 184.762 -2.91366 0.710345 0
M  V30 1931 H 182.315 -1.5092 0.406547 0
M  V30 1932 H 183.05 -2.66393 -1.84947 0
M  V30 1933 H 182.835 -3.88105 -0.558277 0
M  V30 1934 H 184.325 -3.87831 -1.54845 0
M  V30 1935 N 184.763 -0.387143 -1.52771 0
M  V30 1936 C 185.993 0.195585 -2.05672 0
M  V30 1937 C 186.401 1.41241 -1.25887 0
M  V30 1938 O 185.744 1.81265 -0.298081 0
M  V30 1939 C 185.806 0.632327 -3.53895 0
M  V30 1940 C 185.47 -0.470739 -4.54569 0
M  V30 1941 C 186.467 -1.32746 -5.02667 0
M  V30 1942 C 184.152 -0.637151 -4.98243 0
M  V30 1943 C 186.146 -2.33574 -5.93061 0
M  V30 1944 C 183.833 -1.64877 -5.88438 0
M  V30 1945 C 184.831 -2.49649 -6.35739 0
M  V30 1946 O 184.519 -3.49082 -7.24153 0
M  V30 1947 H 184.251 0.033658 -0.675162 0
M  V30 1948 H 186.805 -0.550221 -1.97893 0
M  V30 1949 H 185.035 1.43008 -3.59285 0
M  V30 1950 H 186.724 1.14048 -3.89548 0
M  V30 1951 H 187.49 -1.21019 -4.69659 0
M  V30 1952 H 183.369 0.0129567 -4.60998 0
M  V30 1953 H 186.913 -2.99777 -6.29904 0
M  V30 1954 H 182.81 -1.76643 -6.2086 0
M  V30 1955 H 183.578 -3.45065 -7.42208 0
M  V30 1956 N 186.241 1.57166 -0.116904 0
M  V30 1957 C 187.489 1.94737 0.540533 0
M  V30 1958 C 187.81 1.00096 1.67349 0
M  V30 1959 O 187.08 0.0568854 1.95817 0
M  V30 1960 H 185.66 0.718981 0.202669 0
M  V30 1961 H 188.322 1.94017 -0.185353 0
M  V30 1962 H 187.418 2.97719 0.936483 0
M  V30 1963 N 187.719 -0.156864 1.56817 0
M  V30 1964 C 188.965 -0.872416 1.83076 0
M  V30 1965 C 189.298 -1.81261 0.697001 0
M  V30 1966 O 188.573 -1.92171 -0.30008 0
M  V30 1967 C 188.856 -1.65551 3.19789 0
M  V30 1968 C 188.709 -0.737467 4.43713 0
M  V30 1969 C 190.028 -2.62012 3.53606 0
M  V30 1970 H 187.147 -0.315715 0.665953 0
M  V30 1971 H 189.789 -0.138004 1.89498 0
M  V30 1972 H 187.939 -2.28159 3.14445 0
M  V30 1973 H 189.611 -0.123143 4.61136 0
M  V30 1974 H 187.854 -0.0464067 4.33775 0
M  V30 1975 H 188.525 -1.32122 5.35955 0
M  V30 1976 H 191.001 -2.09525 3.59497 0
M  V30 1977 H 189.877 -3.13861 4.50314 0
M  V30 1978 H 190.138 -3.42902 2.79053 0
M  V30 1979 N 189.197 -1.51736 -0.425897 0
M  V30 1980 C 190.446 -1.64201 -1.17136 0
M  V30 1981 C 190.759 -0.369705 -1.92074 0
M  V30 1982 O 191.965 -0.373898 -2.68913 0
M  V30 1983 C 190.421 -2.90035 -2.13091 0
M  V30 1984 C 190.029 -4.24312 -1.43747 0
M  V30 1985 C 191.773 -3.1186 -2.87999 0
M  V30 1986 C 189.68 -5.41285 -2.38253 0
M  V30 1987 H 188.61 -0.611624 -0.440944 0
M  V30 1988 H 191.261 -1.78212 -0.437328 0
M  V30 1989 H 189.643 -2.69684 -2.89977 0
M  V30 1990 H 190.817 -4.55086 -0.723408 0
M  V30 1991 H 189.132 -4.08456 -0.809465 0
M  V30 1992 H 191.729 -3.96427 -3.58817 0
M  V30 1993 H 192.072 -2.25403 -3.49999 0
M  V30 1994 H 192.605 -3.32605 -2.18217 0
M  V30 1995 H 189.344 -6.30037 -1.80925 0
M  V30 1996 H 188.864 -5.14872 -3.0768 0
M  V30 1997 H 190.543 -5.73694 -2.99139 0
M  V30 1998 N 190.675 0.682077 -1.42076 0
M  V30 1999 C 191.638 1.77756 -1.44691 0
M  V30 2000 C 192.638 1.5726 -0.335535 0
M  V30 2001 O 193.828 1.63686 -0.596037 0
M  V30 2002 C 190.96 3.16301 -1.27146 0
M  V30 2003 H 192.153 1.76826 -2.42224 0
M  V30 2004 H 189.706 0.891012 -1.28416 0
M  V30 2005 H 190.441 3.22862 -0.305075 0
M  V30 2006 H 190.226 3.32581 -2.07683 0
M  V30 2007 H 191.716 3.96241 -1.31843 0
M  V30 2008 N 192.153 1.28127 0.917671 0
M  V30 2009 C 193.43 1.05761 1.64542 0
M  V30 2010 C 193.81 -0.404344 2.07191 0
M  V30 2011 O 193.158 -1.38963 1.81388 0
M  V30 2012 C 193.368 2.02857 2.83989 0
M  V30 2013 C 194.716 2.32786 3.551 0
M  V30 2014 O 195.74 2.0091 2.94132 0
M  V30 2015 O 194.599 2.87169 4.64969 0
M  V30 2016 H 191.693 0.403916 0.721652 0
M  V30 2017 H 194.239 1.39431 0.967322 0
M  V30 2018 H 193.011 3.01407 2.49538 0
M  V30 2019 H 192.634 1.69809 3.59514 0
M  V30 2020 N 193.631 -1.12557 1.10312 0
M  V30 2021 C 194.877 -1.84311 0.846011 0
M  V30 2022 C 195.21 -1.83805 -0.626859 0
M  V30 2023 O 194.485 -1.28268 -1.46211 0
M  V30 2024 C 194.768 -3.32048 1.39341 0
M  V30 2025 C 194.621 -3.41016 2.93305 0
M  V30 2026 C 195.94 -4.27764 1.03468 0
M  V30 2027 H 193.059 -0.669192 0.30879 0
M  V30 2028 H 195.701 -1.32057 1.36605 0
M  V30 2029 H 193.851 -3.76678 0.951087 0
M  V30 2030 H 195.523 -3.05031 3.46055 0
M  V30 2031 H 193.766 -2.81603 3.29973 0
M  V30 2032 H 194.437 -4.44948 3.26689 0
M  V30 2033 H 196.913 -3.91253 1.41633 0
M  V30 2034 H 195.789 -5.29549 1.44463 0
M  V30 2035 H 196.05 -4.42064 -0.0560404 0
M  V30 2036 N 195.109 -0.891671 -1.2995 0
M  V30 2037 C 196.356 -0.513501 -1.95881 0
M  V30 2038 C 196.684 0.938655 -1.70351 0
M  V30 2039 O 195.939 1.67936 -1.00478 0
M  V30 2040 C 196.238 -0.742868 -3.49594 0
M  V30 2041 C 195.904 -2.17114 -3.95186 0
M  V30 2042 C 194.566 -2.56169 -4.07346 0
M  V30 2043 C 196.918 -3.10162 -4.18866 0
M  V30 2044 C 194.246 -3.87469 -4.4055 0
M  V30 2045 C 196.598 -4.41001 -4.53542 0
M  V30 2046 C 195.262 -4.79941 -4.63911 0
M  V30 2047 H 194.532 -0.187903 -0.71678 0
M  V30 2048 H 197.179 -1.1288 -1.54694 0
M  V30 2049 H 195.484 -0.044586 -3.91775 0
M  V30 2050 H 197.181 -0.429767 -3.9869 0
M  V30 2051 H 193.771 -1.85801 -3.86233 0
M  V30 2052 H 197.955 -2.81206 -4.08946 0
M  V30 2053 H 193.211 -4.17371 -4.46779 0
M  V30 2054 H 197.385 -5.13133 -4.70815 0
M  V30 2055 H 195.012 -5.81719 -4.89395 0
M  V30 2056 N 196.587 1.43421 -0.653314 0
M  V30 2057 C 197.836 2.01032 -0.164076 0
M  V30 2058 C 198.149 1.52147 1.22926 0
M  V30 2059 O 199.355 2.02031 1.81371 0
M  V30 2060 C 197.811 3.59082 -0.24252 0
M  V30 2061 C 197.419 4.1696 -1.63855 0
M  V30 2062 C 199.163 4.24079 0.18911 0
M  V30 2063 C 197.07 5.67304 -1.67092 0
M  V30 2064 H 196 0.751798 -0.0575769 0
M  V30 2065 H 198.651 1.6439 -0.815362 0
M  V30 2066 H 197.033 3.93125 0.476276 0
M  V30 2067 H 198.207 3.94416 -2.38271 0
M  V30 2068 H 196.522 3.64335 -2.01616 0
M  V30 2069 H 199.119 5.34381 0.184775 0
M  V30 2070 H 199.462 3.98005 1.22056 0
M  V30 2071 H 199.995 3.94918 -0.477938 0
M  V30 2072 H 196.734 5.98145 -2.68146 0
M  V30 2073 H 196.254 5.91904 -0.970014 0
M  V30 2074 H 197.933 6.31344 -1.4147 0
M  V30 2075 N 198.065 0.39524 1.52563 0
M  V30 2076 C 198.997 -0.472201 2.24283 0
M  V30 2077 C 200.01 -1.02178 1.26742 0
M  V30 2078 O 201.199 -0.923097 1.52778 0
M  V30 2079 C 198.299 -1.66775 2.95024 0
M  V30 2080 C 197.472 -1.2445 4.19322 0
M  V30 2081 C 196.531 -2.30539 4.7301 0
M  V30 2082 O 195.557 -1.91702 5.35947 0
M  V30 2083 N 196.759 -3.6253 4.53379 0
M  V30 2084 H 199.524 0.142282 2.99362 0
M  V30 2085 H 197.085 0.2219 1.60372 0
M  V30 2086 H 199.077 -2.37283 3.27839 0
M  V30 2087 H 197.647 -2.18845 2.23217 0
M  V30 2088 H 196.867 -0.368069 3.92478 0
M  V30 2089 H 198.155 -0.938457 5.0007 0
M  V30 2090 H 197.553 -3.96841 4.03154 0
M  V30 2091 H 196.11 -4.29055 4.90668 0
M  V30 2092 N 199.544 -1.57102 0.125237 0
M  V30 2093 C 200.79 -1.95697 -0.532035 0
M  V30 2094 C 201.123 -1.009 -1.6593 0
M  V30 2095 O 200.398 -0.047347 -1.94442 0
M  V30 2096 C 200.681 -3.44181 -1.05884 0
M  V30 2097 C 200.534 -4.49752 0.0654392 0
M  V30 2098 C 201.853 -3.94655 -1.9477 0
M  V30 2099 H 198.972 -0.711571 -0.191925 0
M  V30 2100 H 201.614 -1.88923 0.20206 0
M  V30 2101 H 199.764 -3.50085 -1.68442 0
M  V30 2102 H 201.436 -4.55943 0.700982 0
M  V30 2103 H 199.679 -4.27653 0.727709 0
M  V30 2104 H 200.35 -5.50924 -0.344505 0
M  V30 2105 H 202.826 -3.91094 -1.42074 0
M  V30 2106 H 201.702 -4.99057 -2.28546 0
M  V30 2107 H 201.963 -3.35718 -2.87656 0
M  V30 2108 N 201.022 0.148545 -1.56898 0
M  V30 2109 C 201.932 1.20293 -2.01412 0
M  V30 2110 C 202.948 1.47107 -0.929273 0
M  V30 2111 O 204.124 1.58807 -1.23863 0
M  V30 2112 C 201.189 2.51682 -2.38447 0
M  V30 2113 C 200.25 2.32529 -3.60872 0
M  V30 2114 C 199.483 3.57653 -3.96132 0
M  V30 2115 O 199.706 4.63771 -3.32073 0
M  V30 2116 O 198.64 3.50408 -4.89385 0
M  V30 2117 H 202.466 0.855025 -2.91416 0
M  V30 2118 H 200.051 0.357151 -1.45068 0
M  V30 2119 H 201.933 3.29147 -2.63135 0
M  V30 2120 H 200.608 2.86006 -1.51599 0
M  V30 2121 H 199.515 1.53019 -3.41373 0
M  V30 2122 H 200.848 2.03121 -4.48333 0
M  V30 2123 N 202.5 1.5196 0.417844 0
M  V30 2124 C 203.463 1.74065 1.49111 0
M  V30 2125 C 204.463 0.610537 1.48758 0
M  V30 2126 O 205.653 0.87832 1.50437 0
M  V30 2127 C 202.785 1.81502 2.88565 0
M  V30 2128 H 203.978 2.69869 1.30807 0
M  V30 2129 H 201.531 1.42244 0.647785 0
M  V30 2130 H 202.266 0.875813 3.1225 0
M  V30 2131 H 202.051 2.63651 2.90225 0
M  V30 2132 H 203.541 2.00376 3.66387 0
M  V30 2133 N 203.978 -0.674533 1.42435 0
M  V30 2134 C 205.255 -1.4305 1.33402 0
M  V30 2135 C 205.635 -2.11081 -0.0284674 0
M  V30 2136 O 204.983 -2.03257 -1.04397 0
M  V30 2137 C 205.193 -2.43272 2.50239 0
M  V30 2138 C 206.541 -3.07907 2.92367 0
M  V30 2139 O 207.565 -2.53599 2.50132 0
M  V30 2140 O 206.424 -4.0632 3.65467 0
M  V30 2141 H 203.518 -0.638076 0.526106 0
M  V30 2142 H 206.064 -0.703235 1.54443 0
M  V30 2143 H 204.836 -1.91803 3.41068 0
M  V30 2144 H 204.459 -3.23479 2.31186 0
M  V30 2145 N 205.456 -1.28612 -0.910864 0
M  V30 2146 C 206.386 -1.15326 -2.03032 0
M  V30 2147 C 207.367 -0.0502924 -1.70026 0
M  V30 2148 O 208.552 -0.227797 -1.92859 0
M  V30 2149 C 205.682 -0.817343 -3.37545 0
M  V30 2150 C 204.636 -1.8754 -3.84724 0
M  V30 2151 C 203.962 -1.39305 -5.16235 0
M  V30 2152 C 205.262 -3.28244 -4.06267 0
M  V30 2153 H 206.956 -2.08975 -2.14406 0
M  V30 2154 H 204.502 -1.00612 -1.03021 0
M  V30 2155 H 206.455 -0.711151 -4.15356 0
M  V30 2156 H 205.179 0.154846 -3.26233 0
M  V30 2157 H 203.838 -1.97079 -3.09121 0
M  V30 2158 H 203.486 -0.409846 -5.01328 0
M  V30 2159 H 203.186 -2.10057 -5.48771 0
M  V30 2160 H 204.71 -1.30014 -5.96598 0
M  V30 2161 H 206.124 -3.21611 -4.74594 0
M  V30 2162 H 204.521 -3.96855 -4.5014 0
M  V30 2163 H 205.591 -3.72048 -3.10979 0
M  V30 2164 N 206.934 1.1197 -1.10907 0
M  V30 2165 C 208.164 1.8713 -0.875553 0
M  V30 2166 C 208.572 1.8016 0.577843 0
M  V30 2167 O 207.915 1.17699 1.41042 0
M  V30 2168 C 207.977 3.37005 -1.2517 0
M  V30 2169 C 207.641 3.67748 -2.71313 0
M  V30 2170 C 208.638 3.65698 -3.69542 0
M  V30 2171 C 206.323 3.96928 -3.07821 0
M  V30 2172 C 208.317 3.92395 -5.023 0
M  V30 2173 C 206.004 4.23284 -4.40765 0
M  V30 2174 C 207.002 4.21005 -5.37814 0
M  V30 2175 O 206.69 4.46704 -6.68364 0
M  V30 2176 H 206.422 0.598786 -0.313737 0
M  V30 2177 H 208.976 1.42568 -1.47863 0
M  V30 2178 H 207.206 3.82146 -0.591741 0
M  V30 2179 H 208.895 3.93519 -0.994877 0
M  V30 2180 H 209.661 3.43211 -3.42682 0
M  V30 2181 H 205.54 3.97841 -2.32902 0
M  V30 2182 H 209.084 3.90531 -5.78041 0
M  V30 2183 H 204.981 4.45246 -4.67361 0
M  V30 2184 H 205.749 4.64299 -6.74069 0
M  V30 2185 N 208.412 0.89855 1.29475 0
M  V30 2186 C 209.375 0.380272 2.26023 0
M  V30 2187 C 210.375 -0.484891 1.53315 0
M  V30 2188 O 211.565 -0.290108 1.71767 0
M  V30 2189 C 208.697 -0.45651 3.3783 0
M  V30 2190 H 209.89 1.23295 2.73383 0
M  V30 2191 H 207.443 0.676589 1.40897 0
M  V30 2192 H 208.178 -1.32922 2.95808 0
M  V30 2193 H 207.963 0.163393 3.91759 0
M  V30 2194 H 209.453 -0.810466 4.0966 0
M  V30 2195 N 209.89 -1.43072 0.660911 0
M  V30 2196 C 210.822 -2.29108 -0.0647641 0
M  V30 2197 C 211.835 -1.42928 -0.779448 0
M  V30 2198 O 213.024 -1.66788 -0.635921 0
M  V30 2199 C 210.124 -3.20032 -1.11503 0
M  V30 2200 C 209.297 -4.34792 -0.476955 0
M  V30 2201 C 208.356 -5.06534 -1.42513 0
M  V30 2202 O 207.382 -5.61538 -0.930771 0
M  V30 2203 N 208.584 -5.1075 -2.75889 0
M  V30 2204 H 211.349 -2.92029 0.673731 0
M  V30 2205 H 208.91 -1.53846 0.50427 0
M  V30 2206 H 210.902 -3.64892 -1.75032 0
M  V30 2207 H 209.472 -2.58658 -1.75541 0
M  V30 2208 H 208.692 -3.92752 0.337572 0
M  V30 2209 H 209.98 -5.0879 -0.0318525 0
M  V30 2210 H 209.378 -4.67447 -3.18606 0
M  V30 2211 H 207.935 -5.59302 -3.347 0
M  V30 2212 N 211.368 -0.403325 -1.52352 0
M  V30 2213 C 212.331 0.413051 -2.25447 0
M  V30 2214 C 213.331 0.978513 -1.276 0
M  V30 2215 O 214.521 0.858305 -1.51587 0
M  V30 2216 C 211.653 1.58087 -3.02029 0
M  V30 2217 H 212.846 -0.227094 -2.99039 0
M  V30 2218 H 210.399 -0.155722 -1.55522 0
M  V30 2219 H 211.134 2.25804 -2.32772 0
M  V30 2220 H 210.919 1.18195 -3.73861 0
M  V30 2221 H 212.409 2.1585 -3.57489 0
M  V30 2222 N 212.846 1.57033 -0.133567 0
M  V30 2223 C 214.092 1.95976 0.521649 0
M  V30 2224 C 214.425 1.01779 1.65393 0
M  V30 2225 O 213.7 0.0576581 1.94415 0
M  V30 2226 C 213.983 3.44738 1.04057 0
M  V30 2227 C 213.836 4.49711 -0.0892897 0
M  V30 2228 C 215.155 3.95682 1.92675 0
M  V30 2229 H 212.274 0.712579 0.188149 0
M  V30 2230 H 214.916 1.88813 -0.212076 0
M  V30 2231 H 213.066 3.50973 1.66583 0
M  V30 2232 H 214.738 4.55565 -0.725152 0
M  V30 2233 H 212.981 4.27261 -0.750378 0
M  V30 2234 H 213.652 5.51099 0.315284 0
M  V30 2235 H 216.128 3.91841 1.39998 0
M  V30 2236 H 215.004 5.00262 2.25897 0
M  V30 2237 H 215.265 3.37239 2.85872 0
M  V30 2238 N 214.325 -0.140222 1.56975 0
M  V30 2239 C 215.235 -1.19223 2.02047 0
M  V30 2240 C 216.251 -1.46612 0.937062 0
M  V30 2241 O 217.427 -1.58148 1.24704 0
M  V30 2242 C 214.492 -2.50414 2.39778 0
M  V30 2243 C 213.553 -2.30612 3.621 0
M  V30 2244 C 212.786 -3.55547 3.98023 0
M  V30 2245 O 213.009 -4.62004 3.34528 0
M  V30 2246 O 211.943 -3.47808 4.91237 0
M  V30 2247 H 215.769 -0.839559 2.91865 0
M  V30 2248 H 213.354 -0.349453 1.45256 0
M  V30 2249 H 215.236 -3.27747 2.64877 0
M  V30 2250 H 213.911 -2.85198 1.53114 0
M  V30 2251 H 212.818 -1.51207 3.4218 0
M  V30 2252 H 214.151 -2.00741 4.49404 0
M  V30 2253 O 215.842 -1.58968 -0.284834 0
M  V30 2254 H 216.533 -1.69867 -0.930848 0
M  V30 END ATOM
M  V30 BEGIN BOND
M  V30 END BOND
M  V30 END CTAB
M  END
$$$$
