drugbank_target|P0CG48 Polyubiquitin-C (DB04464)
 OpenBabel12092120463D

  0  0  0     0  0            999 V3000
M  V30 BEGIN CTAB
M  V30 COUNTS 11071 11133 0 0 0
M  V30 BEGIN ATOM
M  V30 1 H -0.908 1.98254 -0.117106 0
M  V30 2 N 0 1.576 0 0
M  V30 3 C 0.933 2.03868 1.02534 0
M  V30 4 C 1.911 0.928543 1.3348 0
M  V30 5 O 3.095 1.19667 1.45644 0
M  V30 6 C 0.222 2.43627 2.35294 0
M  V30 7 C -0.732 3.65373 2.2001 0
M  V30 8 S 0.101 5.13292 1.52614 0
M  V30 9 C 1.257 5.56322 2.86805 0
M  V30 10 H 1.49 2.90518 0.631377 0
M  V30 11 H -0.977 1.52953 0.210867 0
M  V30 12 H 0.981 2.67203 3.11629 0
M  V30 13 H -0.358 1.57376 2.7183 0
M  V30 14 H -1.165 3.90944 3.18086 0
M  V30 15 H -1.563 3.418 1.51819 0
M  V30 16 H 0.729 5.58782 3.83104 0
M  V30 17 H 1.672 6.56266 2.65933 0
M  V30 18 H 2.08 4.83886 2.90714 0
M  V30 19 N 1.4781 -0.272755 1.55222 0
M  V30 20 C 2.4101 -1.35946 1.8453 0
M  V30 21 C 3.4231 -1.45525 0.729818 0
M  V30 22 O 4.6121 -1.47337 1.00767 0
M  V30 23 C 1.7121 -2.74069 1.99347 0
M  V30 24 C 0.8851 -2.87079 3.30007 0
M  V30 25 C -0.0559 -4.05879 3.34886 0
M  V30 26 O -1.0299 -3.96626 4.08261 0
M  V30 27 N 0.1721 -5.17857 2.62307 0
M  V30 28 H 2.9371 -1.11149 2.78327 0
M  V30 29 H 0.4981 -0.462869 1.55142 0
M  V30 30 H 2.4901 -3.51838 1.99981 0
M  V30 31 H 1.0601 -2.91688 1.12415 0
M  V30 32 H 0.2801 -1.96193 3.41909 0
M  V30 33 H 1.5681 -2.92701 4.16177 0
M  V30 34 H 0.9661 -5.28261 2.02377 0
M  V30 35 H -0.4769 -5.93855 2.68663 0
M  V30 36 N 2.9562 -1.48159 -0.537278 0
M  V30 37 C 4.2052 -1.5506 -1.28993 0
M  V30 38 C 4.5182 -0.226211 -1.94288 0
M  V30 39 O 5.7242 -0.173395 -2.70946 0
M  V30 40 C 4.1802 -2.73429 -2.34018 0
M  V30 41 C 3.7882 -4.1248 -1.74825 0
M  V30 42 C 5.5322 -2.89638 -3.10339 0
M  V30 43 C 3.4392 -5.22121 -2.77747 0
M  V30 44 H 2.3692 -0.577231 -0.485098 0
M  V30 45 H 5.0202 -1.74478 -0.568317 0
M  V30 46 H 3.4022 -2.47431 -3.09182 0
M  V30 47 H 4.5762 -4.48466 -1.05899 0
M  V30 48 H 2.8912 -4.01327 -1.11022 0
M  V30 49 H 5.4882 -3.68718 -3.87235 0
M  V30 50 H 5.8312 -1.9882 -3.65754 0
M  V30 51 H 6.3642 -3.15502 -2.42288 0
M  V30 52 H 3.1032 -6.1488 -2.27161 0
M  V30 53 H 2.6232 -4.90631 -3.45024 0
M  V30 54 H 4.3022 -5.49924 -3.4087 0
M  V30 55 N 4.4343 0.785586 -1.36625 0
M  V30 56 C 5.6813 1.54362 -1.31067 0
M  V30 57 C 6.0093 1.94195 0.10893 0
M  V30 58 O 5.2643 1.63262 1.07908 0
M  V30 59 C 5.5633 2.83007 -2.1827 0
M  V30 60 C 5.2293 2.62294 -3.6676 0
M  V30 61 C 3.8913 2.56353 -4.0723 0
M  V30 62 C 6.2433 2.43371 -4.6089 0
M  V30 63 C 3.5713 2.29461 -5.39967 0
M  V30 64 C 5.9233 2.18005 -5.93849 0
M  V30 65 C 4.5873 2.105 -6.3344 0
M  V30 66 H 3.8573 0.564851 -0.479609 0
M  V30 67 H 6.5043 0.906028 -1.68711 0
M  V30 68 H 4.8093 3.51253 -1.73576 0
M  V30 69 H 6.5063 3.40817 -2.11292 0
M  V30 70 H 3.0963 2.67774 -3.34656 0
M  V30 71 H 7.2803 2.46959 -4.30494 0
M  V30 72 H 2.5363 2.22135 -5.69619 0
M  V30 73 H 6.7103 2.02359 -6.66351 0
M  V30 74 H 4.3373 1.89425 -7.36222 0
M  V30 75 N 5.9124 1.20967 1.01018 0
M  V30 76 C 7.1584 1.02526 1.74975 0
M  V30 77 C 7.4914 -0.4408 1.89131 0
M  V30 78 O 6.7664 -1.32718 1.42184 0
M  V30 79 C 7.0494 1.71699 3.1653 0
M  V30 80 C 6.9024 3.25791 3.10129 0
M  V30 81 C 8.2214 1.45531 4.15342 0
M  V30 82 H 5.3404 0.373863 0.635134 0
M  V30 83 H 7.9824 1.49071 1.17805 0
M  V30 84 H 6.1324 1.32128 3.65341 0
M  V30 85 H 7.8044 3.74697 2.69072 0
M  V30 86 H 6.0474 3.56363 2.47362 0
M  V30 87 H 6.7184 3.69353 4.10222 0
M  V30 88 H 9.1944 1.79872 3.75213 0
M  V30 89 H 8.0704 1.96453 5.1254 0
M  V30 90 H 8.3314 0.384237 4.40427 0
M  V30 91 N 7.3905 -1.2043 1.01659 0
M  V30 92 C 8.3375 -2.23215 0.586822 0
M  V30 93 C 9.3075 -1.61382 -0.393085 0
M  V30 94 O 10.4925 -1.88544 -0.292525 0
M  V30 95 C 7.6325 -3.45032 -0.0687464 0
M  V30 96 C 6.7455 -4.21296 0.955724 0
M  V30 97 C 5.8805 -5.30507 0.271208 0
M  V30 98 C 4.9195 -5.98515 1.28244 0
M  V30 99 N 4.0565 -6.99316 0.62459 0
M  V30 100 H 8.8965 -2.59336 1.46796 0
M  V30 101 H 6.4335 -1.27431 0.734836 0
M  V30 102 H 8.3915 -4.1459 -0.465965 0
M  V30 103 H 7.0215 -3.09604 -0.913529 0
M  V30 104 H 6.0735 -3.50803 1.4711 0
M  V30 105 H 7.3855 -4.6803 1.72479 0
M  V30 106 H 6.5395 -6.06428 -0.18151 0
M  V30 107 H 5.2785 -4.8481 -0.530163 0
M  V30 108 H 4.2835 -5.21355 1.74554 0
M  V30 109 H 5.5085 -6.46298 2.08509 0
M  V30 110 H 3.4545 -6.55812 -0.156914 0
M  V30 111 H 3.3715 -7.44178 1.33172 0
M  V30 112 H 4.6395 -7.79255 0.195462 0
M  V30 113 N 8.8686 -0.792821 -1.36206 0
M  V30 114 C 10.0966 -0.378825 -2.03402 0
M  V30 115 C 10.5116 1.00586 -1.59774 0
M  V30 116 O 9.8686 1.64574 -0.788764 0
M  V30 117 C 9.9196 -0.43683 -3.58851 0
M  V30 118 O 9.6406 -1.76691 -4.00889 0
M  V30 119 C 11.1416 -0.0138943 -4.43298 0
M  V30 120 H 8.3616 -0.155673 -0.652692 0
M  V30 121 H 10.9056 -1.07261 -1.74113 0
M  V30 122 H 9.0606 0.208575 -3.86838 0
M  V30 123 H 9.4746 -1.72011 -4.95492 0
M  V30 124 H 10.9486 -0.105615 -5.51899 0
M  V30 125 H 11.4256 1.03915 -4.2673 0
M  V30 126 H 12.0316 -0.63192 -4.20579 0
M  V30 127 N 10.3467 1.47872 -0.545128 0
M  V30 128 C 11.2767 2.32661 0.197793 0
M  V30 129 C 12.2577 1.43041 0.920504 0
M  V30 130 O 13.4427 1.71912 0.90333 0
M  V30 131 C 10.5727 3.24569 1.23582 0
M  V30 132 C 9.5267 4.23333 0.630323 0
M  V30 133 C 8.8527 5.0448 1.77211 0
M  V30 134 C 10.1527 5.20704 -0.407974 0
M  V30 135 H 11.8467 2.95024 -0.510045 0
M  V30 136 H 9.3927 1.4187 -0.246731 0
M  V30 137 H 11.3457 3.8272 1.76362 0
M  V30 138 H 10.0697 2.60236 1.97344 0
M  V30 139 H 8.7287 3.6639 0.123922 0
M  V30 140 H 8.3767 4.36561 2.49847 0
M  V30 141 H 8.0767 5.71339 1.37281 0
M  V30 142 H 9.6007 5.65487 2.3034 0
M  V30 143 H 11.0147 5.7329 0.033305 0
M  V30 144 H 9.4117 5.95699 -0.725486 0
M  V30 145 H 10.4817 4.66917 -1.30828 0
M  V30 146 N 11.8248 0.280983 1.55075 0
M  V30 147 C 13.0528 -0.337293 2.04132 0
M  V30 148 C 13.4678 -1.4903 1.15912 0
M  V30 149 O 12.8248 -1.81606 0.180459 0
M  V30 150 C 12.8758 -0.812706 3.52246 0
M  V30 151 O 12.5968 0.294387 4.3711 0
M  V30 152 C 14.0978 -1.4982 4.17216 0
M  V30 153 H 11.3178 -0.0761638 0.666663 0
M  V30 154 H 13.8618 0.414787 2.00249 0
M  V30 155 H 12.0168 -1.51486 3.56554 0
M  V30 156 H 12.4308 -0.0721325 5.2445 0
M  V30 157 H 13.9048 -1.7822 5.22438 0
M  V30 158 H 14.3818 -2.43168 3.65741 0
M  V30 159 H 14.9878 -0.839742 4.16927 0
M  V30 160 N 13.3029 -1.57598 0.00835791 0
M  V30 161 C 14.5509 -1.90551 -0.6734 0
M  V30 162 C 14.8719 -0.883301 -1.73847 0
M  V30 163 O 14.1419 0.0781442 -1.95744 0
M  V30 164 H 12.7219 -0.703312 -0.251717 0
M  V30 165 H 15.3839 -1.94833 0.0512592 0
M  V30 166 H 14.4799 -2.9056 -1.13935 0
M  V30 167 N 14.781 0.264519 -1.55364 0
M  V30 168 C 15.728 1.32717 -1.88825 0
M  V30 169 C 16.698 1.48675 -0.740605 0
M  V30 170 O 17.883 1.62945 -0.992657 0
M  V30 171 C 15.023 2.68089 -2.17307 0
M  V30 172 C 14.136 2.60284 -3.44785 0
M  V30 173 C 13.271 3.87892 -3.62924 0
M  V30 174 C 12.31 3.74631 -4.84064 0
M  V30 175 N 11.447 4.94092 -4.98816 0
M  V30 176 H 16.287 1.03481 -2.79456 0
M  V30 177 H 13.824 0.499757 -1.3835 0
M  V30 178 H 15.782 3.46864 -2.31821 0
M  V30 179 H 14.412 2.95509 -1.299 0
M  V30 180 H 13.464 1.73173 -3.38697 0
M  V30 181 H 14.776 2.46388 -4.33698 0
M  V30 182 H 13.93 4.75109 -3.77302 0
M  V30 183 H 12.669 4.04664 -2.7221 0
M  V30 184 H 11.674 2.85797 -4.69681 0
M  V30 185 H 12.899 3.5937 -5.76221 0
M  V30 186 H 10.845 5.11259 -4.11036 0
M  V30 187 H 10.762 4.8276 -5.81789 0
M  V30 188 H 12.03 5.82857 -5.17588 0
M  V30 189 N 16.2591 1.48442 0.529413 0
M  V30 190 C 17.4871 1.60151 1.30994 0
M  V30 191 C 17.9021 0.261985 1.86973 0
M  V30 192 O 17.2591 -0.748805 1.66431 0
M  V30 193 C 17.3101 2.64854 2.46038 0
M  V30 194 O 17.0311 3.93608 1.92365 0
M  V30 195 C 18.5321 2.87007 3.37849 0
M  V30 196 H 15.7521 0.539971 0.398338 0
M  V30 197 H 18.2961 1.94273 0.638597 0
M  V30 198 H 16.4511 2.33589 3.09055 0
M  V30 199 H 16.8651 4.51055 2.67675 0
M  V30 200 H 18.3391 3.64068 4.14919 0
M  V30 201 H 18.8161 1.95852 3.93114 0
M  V30 202 H 19.4221 3.19579 2.80623 0
M  V30 203 N 17.7372 -0.778329 1.37039 0
M  V30 204 C 18.9862 -1.53189 1.3121 0
M  V30 205 C 19.2992 -1.95328 -0.103095 0
M  V30 206 O 20.5052 -2.70012 -0.283826 0
M  V30 207 C 18.9612 -2.76591 2.30272 0
M  V30 208 C 18.5692 -2.41577 3.77286 0
M  V30 209 C 20.3132 -3.5455 2.33441 0
M  V30 210 C 18.2202 -3.61441 4.68096 0
M  V30 211 H 17.1502 -0.5751 0.487622 0
M  V30 212 H 19.8012 -0.853101 1.62464 0
M  V30 213 H 18.1832 -3.46326 1.92027 0
M  V30 214 H 19.3572 -1.79668 4.2433 0
M  V30 215 H 17.6722 -1.76806 3.76999 0
M  V30 216 H 20.2692 -4.43628 2.98493 0
M  V30 217 H 20.6122 -3.93936 1.34611 0
M  V30 218 H 21.1452 -2.91805 2.7036 0
M  V30 219 H 17.8842 -3.27142 5.6803 0
M  V30 220 H 17.4042 -4.22478 4.25761 0
M  V30 221 H 19.0832 -4.28335 4.8491 0
M  V30 222 N 19.2153 -1.21501 -1.00376 0
M  V30 223 C 20.4433 -1.059 -1.77744 0
M  V30 224 C 20.8583 0.391125 -1.84704 0
M  V30 225 O 20.2153 1.27133 -1.30933 0
M  V30 226 C 20.2663 -1.65111 -3.21591 0
M  V30 227 O 19.9873 -3.0445 -3.15027 0
M  V30 228 C 21.4883 -1.54637 -4.15454 0
M  V30 229 H 18.7083 -0.371825 -0.558558 0
M  V30 230 H 21.2523 -1.60865 -1.26264 0
M  V30 231 H 19.4073 -1.14235 -3.70175 0
M  V30 232 H 19.8213 -3.3278 -4.0541 0
M  V30 233 H 21.2953 -2.00808 -5.14179 0
M  V30 234 H 21.7723 -0.501022 -4.36333 0
M  V30 235 H 22.3783 -2.04767 -3.72761 0
M  V30 236 N 20.6934 1.19889 -1.02296 0
M  V30 237 C 21.6234 2.25141 -0.619174 0
M  V30 238 C 22.6044 1.66051 0.368915 0
M  V30 239 O 23.7894 1.92546 0.252941 0
M  V30 240 C 20.9194 3.4728 0.0368783 0
M  V30 241 C 19.8734 4.19005 -0.872865 0
M  V30 242 C 19.1994 5.34637 -0.0822402 0
M  V30 243 C 20.4994 4.74452 -2.18387 0
M  V30 244 H 22.1934 2.59171 -1.49903 0
M  V30 245 H 19.7394 1.24579 -0.722222 0
M  V30 246 H 21.6924 4.20098 0.330958 0
M  V30 247 H 20.4164 3.12433 0.95149 0
M  V30 248 H 19.0754 3.48061 -1.15105 0
M  V30 249 H 18.7234 4.96034 0.83422 0
M  V30 250 H 18.4234 5.83557 -0.688149 0
M  V30 251 H 19.9474 6.10255 0.205238 0
M  V30 252 H 21.3614 5.39055 -1.95172 0
M  V30 253 H 19.7584 5.33834 -2.74119 0
M  V30 254 H 20.8284 3.92844 -2.84257 0
M  V30 255 N 22.1715 0.800033 1.35784 0
M  V30 256 C 23.0815 0.207204 2.33683 0
M  V30 257 C 24.0975 -0.64631 1.61551 0
M  V30 258 O 25.2735 -0.559604 1.93469 0
M  V30 259 C 22.3385 -0.639659 3.40748 0
M  V30 260 C 21.3995 0.233585 4.28664 0
M  V30 261 C 20.6325 -0.572954 5.30616 0
M  V30 262 O 20.8555 -1.80816 5.40982 0
M  V30 263 O 19.7895 0.0327285 6.01891 0
M  V30 264 H 23.6155 1.01692 2.86169 0
M  V30 265 H 21.2005 0.561691 1.38439 0
M  V30 266 H 23.0825 -1.12223 4.06182 0
M  V30 267 H 21.7575 -1.42708 2.90544 0
M  V30 268 H 20.6645 0.763147 3.66233 0
M  V30 269 H 21.9975 0.984784 4.82248 0
M  V30 270 N 23.6496 -1.47581 0.552962 0
M  V30 271 C 24.8956 -2.02782 0.0273648 0
M  V30 272 C 25.2286 -1.42687 -1.31734 0
M  V30 273 O 24.5036 -0.580897 -1.85623 0
M  V30 274 C 24.7866 -3.60031 -0.0702371 0
M  V30 275 C 24.6396 -4.30566 1.30126 0
M  V30 276 C 25.9586 -4.33028 -0.785771 0
M  V30 277 H 23.0776 -0.736912 0.0114185 0
M  V30 278 H 25.7196 -1.76056 0.714432 0
M  V30 279 H 23.8696 -3.82932 -0.655382 0
M  V30 280 H 25.5416 -4.19018 1.92929 0
M  V30 281 H 23.7846 -3.91086 1.87709 0
M  V30 282 H 24.4556 -5.39114 1.18573 0
M  V30 283 H 26.9316 -4.15095 -0.288982 0
M  V30 284 H 25.8076 -5.42695 -0.823013 0
M  V30 285 H 26.0686 -4.01945 -1.841 0
M  V30 286 N 25.1277 -0.289203 -1.54924 0
M  V30 287 C 26.0377 0.601863 -2.26748 0
M  V30 288 C 27.0537 1.15834 -1.2984 0
M  V30 289 O 28.2297 1.18564 -1.62802 0
M  V30 290 C 25.2947 1.76299 -2.98529 0
M  V30 291 C 24.3557 1.24178 -4.10948 0
M  V30 292 C 23.5887 2.34757 -4.79296 0
M  V30 293 O 23.8117 3.54411 -4.46933 0
M  V30 294 O 22.7457 2.02115 -5.66951 0
M  V30 295 H 26.5717 0.0195879 -3.03694 0
M  V30 296 H 24.1567 -0.0560868 -1.49295 0
M  V30 297 H 26.0387 2.43973 -3.43592 0
M  V30 298 H 24.7137 2.33209 -2.24488 0
M  V30 299 H 23.6207 0.531104 -3.70311 0
M  V30 300 H 24.9537 0.718252 -4.86931 0
M  V30 301 N 26.6058 1.57591 -0.0167156 0
M  V30 302 C 28.0168 1.79201 0.523834 0
M  V30 303 C 28.3678 0.925796 1.72984 0
M  V30 304 O 27.4928 0.132792 2.15992 0
M  V30 305 C 28.0878 3.25 0.957091 0
M  V30 306 C 26.6468 3.47648 1.44283 0
M  V30 307 C 25.7938 2.74374 0.401757 0
M  V30 308 H 28.7448 1.56831 -0.242816 0
M  V30 309 H 28.7658 3.34031 1.82219 0
M  V30 310 H 28.2778 3.88019 0.0791415 0
M  V30 311 H 26.3788 2.89866 2.34113 0
M  V30 312 H 26.4918 4.56352 1.45877 0
M  V30 313 H 24.8558 2.39485 0.867121 0
M  V30 314 H 25.6388 3.40102 -0.467513 0
M  V30 315 N 28.0839 -0.256276 1.55502 0
M  V30 316 C 29.3089 -1.00766 1.81276 0
M  V30 317 C 29.7339 -1.78524 0.59252 0
M  V30 318 O 29.0919 -1.75413 -0.45827 0
M  V30 319 C 29.1399 -1.92869 3.04687 0
M  V30 320 O 28.2439 -3.019 2.80945 0
M  V30 321 H 27.5849 -0.287224 0.598664 0
M  V30 322 H 30.1149 -0.280109 2.02674 0
M  V30 323 H 30.1249 -2.34511 3.33869 0
M  V30 324 H 28.7999 -1.35689 3.93143 0
M  V30 325 H 27.3769 -2.64454 2.62904 0
M  V30 326 N 29.562 -1.4872 -0.521534 0
M  V30 327 C 30.839 -1.4766 -1.2828 0
M  V30 328 C 31.219 -0.19292 -2.10217 0
M  V30 329 O 30.567 0.825193 -2.13079 0
M  V30 330 C 30.777 -2.74358 -2.15705 0
M  V30 331 C 32.125 -3.23028 -2.75569 0
M  V30 332 O 33.149 -2.75333 -2.25987 0
M  V30 333 O 32.008 -4.0604 -3.65778 0
M  V30 334 H 29.102 -0.590085 -0.579421 0
M  V30 335 H 31.648 -1.60963 -0.537492 0
M  V30 336 H 30.42 -3.59292 -1.54999 0
M  V30 337 H 30.043 -2.63816 -2.97467 0
M  V30 338 N 31.0401 0.771051 -1.3745 0
M  V30 339 C 32.2681 1.56015 -1.35893 0
M  V30 340 C 32.6831 1.88718 0.0555523 0
M  V30 341 O 32.0401 1.51502 1.01752 0
M  V30 342 C 32.0911 2.87001 -2.19801 0
M  V30 343 O 31.8121 2.557 -3.55738 0
M  V30 344 C 33.3131 3.81228 -2.26231 0
M  V30 345 H 30.5331 0.483317 -0.465453 0
M  V30 346 H 33.0771 0.955611 -1.80799 0
M  V30 347 H 31.2321 3.43877 -1.78402 0
M  V30 348 H 31.6461 3.39584 -3.99729 0
M  V30 349 H 33.1201 4.70139 -2.89263 0
M  V30 350 H 33.5971 4.20409 -1.27093 0
M  V30 351 H 34.2031 3.30281 -2.67945 0
M  V30 352 N 32.5182 1.22032 0.997298 0
M  V30 353 C 33.7672 1.03637 1.73038 0
M  V30 354 C 34.0802 -0.429475 1.90827 0
M  V30 355 O 35.2862 -0.732995 2.61418 0
M  V30 356 C 33.7422 1.80582 3.11317 0
M  V30 357 C 33.3502 3.31387 3.01474 0
M  V30 358 C 35.0942 1.70621 3.88701 0
M  V30 359 C 33.0012 4.00791 4.3488 0
M  V30 360 H 31.9312 0.384179 0.648785 0
M  V30 361 H 34.5822 1.4584 1.11368 0
M  V30 362 H 32.9642 1.31175 3.73643 0
M  V30 363 H 34.1382 3.88155 2.4834 0
M  V30 364 H 32.4532 3.41976 2.37575 0
M  V30 365 H 35.0502 2.19799 4.87434 0
M  V30 366 H 35.3932 0.665823 4.10941 0
M  V30 367 H 35.9262 2.17547 3.33044 0
M  V30 368 H 32.6652 5.05064 4.1784 0
M  V30 369 H 32.1852 3.48811 4.87945 0
M  V30 370 H 33.8642 4.06139 5.03647 0
M  V30 371 N 33.9963 -1.19345 1.0293 0
M  V30 372 C 34.9063 -2.26245 0.620515 0
M  V30 373 C 35.9223 -1.70486 -0.347928 0
M  V30 374 O 37.0983 -2.00347 -0.205704 0
M  V30 375 C 34.1633 -3.46693 -0.0218957 0
M  V30 376 C 33.2243 -4.17632 0.994102 0
M  V30 377 C 32.4573 -5.32329 0.382253 0
M  V30 378 O 32.6803 -5.64552 -0.814676 0
M  V30 379 O 31.6143 -5.91664 1.10531 0
M  V30 380 H 35.4403 -2.63453 1.51083 0
M  V30 381 H 33.0253 -1.26207 0.799513 0
M  V30 382 H 34.9073 -4.19683 -0.380072 0
M  V30 383 H 33.5823 -3.11333 -0.886209 0
M  V30 384 H 32.4893 -3.4676 1.40387 0
M  V30 385 H 33.8223 -4.56964 1.8288 0
M  V30 386 N 35.4744 -0.807222 -1.35358 0
M  V30 387 C 36.4224 -0.20614 -2.31685 0
M  V30 388 C 37.4164 0.644445 -1.56663 0
M  V30 389 O 38.6224 0.537538 -1.71786 0
M  V30 390 H 34.9974 -0.0479006 -0.750473 0
M  V30 391 H 36.9684 -1.03369 -2.79924 0
M  V30 392 C 35.7174 0.630212 -3.41941 0
M  V30 393 H 35.0404 -0.0149558 -3.99797 0
M  V30 394 H 36.4804 1.01716 -4.11619 0
M  V30 395 C 34.9394 1.79601 -2.85035 0
M  V30 396 O 35.4694 2.89351 -2.78637 0
M  V30 397 N 33.6754 1.60774 -2.42074 0
M  V30 398 H 33.2224 0.715009 -2.47478 0
M  V30 399 H 33.1804 2.38933 -2.04349 0
M  V30 400 N 36.9525 1.47285 -0.560781 0
M  V30 401 C 38.1985 2.02764 -0.0381184 0
M  V30 402 C 38.5315 1.43384 1.30976 0
M  V30 403 O 37.8065 0.590733 1.85312 0
M  V30 404 C 38.0895 3.60064 0.0511427 0
M  V30 405 C 37.9425 4.2987 -1.32408 0
M  V30 406 C 39.2615 4.33439 0.762795 0
M  V30 407 H 36.3805 0.736841 -0.0153264 0
M  V30 408 H 39.0225 1.75675 -0.723759 0
M  V30 409 H 37.1725 3.83274 0.635065 0
M  V30 410 H 38.8445 4.17989 -1.95148 0
M  V30 411 H 37.0875 3.90085 -1.8978 0
M  V30 412 H 37.7585 5.38478 -1.21431 0
M  V30 413 H 40.2345 4.15243 0.266965 0
M  V30 414 H 39.1105 5.43124 0.794221 0
M  V30 415 H 39.3715 4.02915 1.81966 0
M  V30 416 N 38.4306 0.297415 1.54768 0
M  V30 417 C 39.3776 -0.580276 2.23386 0
M  V30 418 C 40.3476 -1.13238 1.21517 0
M  V30 419 O 41.5326 -1.17757 1.50126 0
M  V30 420 C 38.6726 -1.74801 2.97555 0
M  V30 421 C 37.7856 -1.22764 4.1419 0
M  V30 422 C 36.9206 -2.35895 4.75949 0
M  V30 423 C 35.9596 -1.80974 5.84735 0
M  V30 424 N 35.0966 -2.87664 6.40464 0
M  V30 425 H 39.9366 0.0114833 2.97998 0
M  V30 426 H 37.4736 0.0174361 1.4709 0
M  V30 427 H 39.4316 -2.43475 3.38786 0
M  V30 428 H 38.0616 -2.31145 2.25326 0
M  V30 429 H 37.1136 -0.433271 3.77924 0
M  V30 430 H 38.4256 -0.785551 4.92575 0
M  V30 431 H 37.5796 -3.12523 5.20014 0
M  V30 432 H 36.3186 -2.83429 3.96887 0
M  V30 433 H 35.3236 -1.02834 5.40097 0
M  V30 434 H 36.5486 -1.34348 6.65678 0
M  V30 435 H 34.4946 -3.34538 5.64287 0
M  V30 436 H 34.4116 -2.4794 7.14186 0
M  V30 437 H 35.6796 -3.642 6.89187 0
M  V30 438 N 39.9087 -1.5758 0.0250728 0
M  V30 439 C 40.8717 -2.08896 -0.943139 0
M  V30 440 C 41.8717 -1.00321 -1.25668 0
M  V30 441 O 43.0617 -1.26495 -1.19769 0
M  V30 442 C 40.1937 -2.55143 -2.26086 0
M  V30 443 H 41.3867 -2.95723 -0.498775 0
M  V30 444 H 38.9397 -1.54703 -0.222888 0
M  V30 445 H 39.6747 -1.71633 -2.75159 0
M  V30 446 H 39.4597 -3.34461 -2.04641 0
M  V30 447 H 40.9497 -2.95083 -2.95492 0
M  V30 448 N 41.3868 0.248026 -1.55636 0
M  V30 449 C 42.3338 1.30707 -1.90222 0
M  V30 450 C 43.3038 1.47881 -0.756332 0
M  V30 451 O 44.4888 1.61883 -1.00988 0
M  V30 452 C 41.6288 2.65769 -2.20138 0
M  V30 453 C 40.7418 2.56612 -3.47526 0
M  V30 454 C 39.8768 3.8402 -3.67017 0
M  V30 455 C 38.9158 3.69476 -4.8801 0
M  V30 456 N 38.0528 4.88774 -5.04029 0
M  V30 457 H 42.8928 1.00512 -2.80538 0
M  V30 458 H 40.4298 0.485055 -1.38873 0
M  V30 459 H 42.3878 3.44386 -2.35487 0
M  V30 460 H 41.0178 2.94115 -1.33027 0
M  V30 461 H 40.0698 1.69571 -3.40514 0
M  V30 462 H 41.3818 2.41774 -4.36287 0
M  V30 463 H 40.5358 4.7108 -3.8232 0
M  V30 464 H 39.2748 4.01754 -2.76487 0
M  V30 465 H 38.2798 2.80799 -4.72686 0
M  V30 466 H 39.5048 3.53238 -5.8 0
M  V30 467 H 37.4508 5.0687 -4.16435 0
M  V30 468 H 37.3678 4.76562 -5.86877 0
M  V30 469 H 38.6358 5.77335 -5.23741 0
M  V30 470 N 42.8649 1.48995 0.513639 0
M  V30 471 C 44.1139 1.57093 1.2651 0
M  V30 472 C 44.4269 0.257091 1.93903 0
M  V30 473 O 45.6329 0.216478 2.70636 0
M  V30 474 C 44.0889 2.77118 2.29638 0
M  V30 475 C 43.6969 4.15209 1.68241 0
M  V30 476 C 45.4409 2.94538 3.05692 0
M  V30 477 C 43.3479 5.26474 2.69406 0
M  V30 478 H 42.2779 0.584876 0.475854 0
M  V30 479 H 44.9289 1.7536 0.540487 0
M  V30 480 H 43.3109 2.52319 3.05207 0
M  V30 481 H 44.4849 4.50094 0.987505 0
M  V30 482 H 42.7999 4.03042 1.04623 0
M  V30 483 H 45.3969 3.74832 3.8132 0
M  V30 484 H 45.7399 2.04614 3.62545 0
M  V30 485 H 46.2729 3.19316 2.37238 0
M  V30 486 H 43.0119 6.18417 2.17351 0
M  V30 487 H 42.5319 4.96058 3.37175 0
M  V30 488 H 44.2109 5.55277 3.32078 0
M  V30 489 N 44.343 -0.763751 1.37857 0
M  V30 490 C 45.275 -1.88664 1.30148 0
M  V30 491 C 46.288 -1.61365 0.215685 0
M  V30 492 O 47.477 -1.72134 0.472459 0
M  V30 493 C 44.577 -3.24075 0.991396 0
M  V30 494 C 43.75 -3.78958 2.18426 0
M  V30 495 C 42.809 -4.92862 1.8432 0
M  V30 496 O 41.835 -5.08027 2.56704 0
M  V30 497 N 43.037 -5.75071 0.792081 0
M  V30 498 H 45.802 -1.95791 2.26905 0
M  V30 499 H 43.363 -0.943226 1.31586 0
M  V30 500 H 45.355 -3.97804 0.743935 0
M  V30 501 H 43.925 -3.12399 0.112122 0
M  V30 502 H 43.145 -2.96913 2.59299 0
M  V30 503 H 44.433 -4.12357 2.98058 0
M  V30 504 H 43.831 -5.65375 0.191595 0
M  V30 505 H 42.388 -6.48991 0.60449 0
M  V30 506 N 45.8211 -1.22559 -0.990812 0
M  V30 507 C 47.0981 -0.959875 -1.70428 0
M  V30 508 C 47.4781 0.524455 -2.04481 0
M  V30 509 O 46.8261 1.49302 -1.72977 0
M  V30 510 C 47.0361 -1.85955 -2.95333 0
M  V30 511 C 48.3841 -2.11687 -3.68068 0
M  V30 512 O 49.4081 -1.8342 -3.05345 0
M  V30 513 O 48.2671 -2.59572 -4.80921 0
M  V30 514 H 45.3611 -0.361154 -0.743974 0
M  V30 515 H 47.9071 -1.33554 -1.04697 0
M  V30 516 H 46.6791 -2.86346 -2.66687 0
M  V30 517 H 46.3021 -1.4856 -3.68803 0
M  V30 518 N 47.2992 1.18797 -1.03562 0
M  V30 519 C 48.2462 2.22253 -0.622259 0
M  V30 520 C 49.2162 1.61987 0.36736 0
M  V30 521 O 50.4012 1.88986 0.262492 0
M  V30 522 C 47.5412 3.45097 0.0138462 0
M  V30 523 C 46.6542 4.19722 -1.02263 0
M  V30 524 C 45.7892 5.30009 -0.355573 0
M  V30 525 C 44.8282 5.96399 -1.37749 0
M  V30 526 N 43.9652 6.98234 -0.735766 0
M  V30 527 H 48.8052 2.56968 -1.50903 0
M  V30 528 H 46.3422 1.26245 -0.755017 0
M  V30 529 H 48.3002 4.15279 0.399948 0
M  V30 530 H 46.9302 3.11018 0.864158 0
M  V30 531 H 45.9822 3.48418 -1.52673 0
M  V30 532 H 47.2942 4.65227 -1.79903 0
M  V30 533 H 46.4482 6.0664 0.0850095 0
M  V30 534 H 45.1872 4.85592 0.452967 0
M  V30 535 H 44.1922 5.18512 -1.82826 0
M  V30 536 H 45.4172 6.42899 -2.18764 0
M  V30 537 H 43.3632 6.55979 0.0525597 0
M  V30 538 H 43.2802 7.41965 -1.44995 0
M  V30 539 H 44.5482 7.78845 -0.31941 0
M  V30 540 N 48.7773 0.814389 1.34928 0
M  V30 541 C 49.6873 0.231978 2.3345 0
M  V30 542 C 50.7033 -0.629139 1.62228 0
M  V30 543 O 51.8793 -0.539052 1.94052 0
M  V30 544 C 48.9443 -0.603482 3.41407 0
M  V30 545 C 48.0053 0.279037 4.28392 0
M  V30 546 C 47.2383 -0.516643 5.31193 0
M  V30 547 O 47.4613 -1.75068 5.4287 0
M  V30 548 O 46.3953 0.0965652 6.01823 0
M  V30 549 H 50.2213 1.04721 2.85074 0
M  V30 550 H 47.8063 0.576343 1.37836 0
M  V30 551 H 49.6883 -1.07908 4.0735 0
M  V30 552 H 48.3633 -1.39618 2.92042 0
M  V30 553 H 47.2703 0.801948 3.65403 0
M  V30 554 H 48.6033 1.03588 4.81176 0
M  V30 555 N 50.2554 -1.46986 0.568584 0
M  V30 556 C 51.5034 -2.02041 0.0487022 0
M  V30 557 C 51.8244 -1.44408 -1.31039 0
M  V30 558 O 51.0944 -0.623477 -1.85714 0
M  V30 559 H 49.6744 -0.746849 0.015014 0
M  V30 560 H 52.3364 -1.80257 0.741168 0
M  V30 561 H 51.4324 -3.12085 -0.0308961 0
M  V30 562 N 51.7335 -0.305618 -1.54608 0
M  V30 563 C 52.9825 0.303098 -1.9941 0
M  V30 564 C 53.2955 1.54648 -1.19764 0
M  V30 565 O 54.5015 2.23007 -1.54855 0
M  V30 566 C 52.9575 0.590588 -3.55021 0
M  V30 567 C 52.5655 -0.634719 -4.43481 0
M  V30 568 C 54.3095 1.16025 -4.08336 0
M  V30 569 C 52.2165 -0.320126 -5.90533 0
M  V30 570 H 51.1465 0.117031 -0.744862 0
M  V30 571 H 53.7975 -0.415045 -1.78745 0
M  V30 572 H 52.1795 1.36845 -3.71604 0
M  V30 573 H 53.3535 -1.41079 -4.38672 0
M  V30 574 H 51.6685 -1.12333 -4.00962 0
M  V30 575 H 54.2655 1.40994 -5.15776 0
M  V30 576 H 54.6085 2.10397 -3.5922 0
M  V30 577 H 55.1415 0.443985 -3.95315 0
M  V30 578 H 51.8805 -1.23254 -6.43808 0
M  V30 579 H 51.4005 0.418579 -5.98338 0
M  V30 580 H 53.0795 0.0766241 -6.46955 0
M  V30 581 N 53.2116 1.57565 -0.0334293 0
M  V30 582 C 54.6226 1.79746 0.504798 0
M  V30 583 C 54.9736 0.944091 1.71992 0
M  V30 584 O 54.0986 0.155694 2.15839 0
M  V30 585 C 54.6936 3.25997 0.922567 0
M  V30 586 C 53.2526 3.49159 1.40588 0
M  V30 587 C 52.3996 2.74785 0.372633 0
M  V30 588 H 55.3506 1.56565 -0.259436 0
M  V30 589 H 55.3716 3.35945 1.78666 0
M  V30 590 H 54.8836 3.88081 0.0379825 0
M  V30 591 H 52.9846 2.92332 2.31025 0
M  V30 592 H 53.0976 4.57873 1.41028 0
M  V30 593 H 51.4616 2.40391 0.841672 0
M  V30 594 H 52.2446 3.39587 -0.503559 0
M  V30 595 N 54.6897 -0.239769 1.55765 0
M  V30 596 C 56.1007 -0.808263 1.68297 0
M  V30 597 C 56.4517 -1.85736 0.632181 0
M  V30 598 O 55.5767 -2.15277 -0.220204 0
M  V30 599 C 56.1717 -1.47284 3.05111 0
M  V30 600 C 54.7307 -1.98895 3.19559 0
M  V30 601 C 53.8777 -0.842575 2.64189 0
M  V30 602 H 56.8287 -0.0154422 1.58692 0
M  V30 603 H 56.8497 -2.34111 2.99954 0
M  V30 604 H 56.3617 -0.709053 3.81568 0
M  V30 605 H 54.4627 -2.78132 2.47938 0
M  V30 606 H 54.5757 -2.18143 4.26556 0
M  V30 607 H 52.9397 -1.24501 2.22197 0
M  V30 608 H 53.7227 -0.0917552 3.43177 0
M  V30 609 N 56.1678 -1.49265 -0.50573 0
M  V30 610 C 57.4448 -1.49012 -1.26707 0
M  V30 611 C 57.8248 -0.215205 -2.1 0
M  V30 612 O 57.1728 0.802547 -2.13943 0
M  V30 613 C 57.3828 -2.7663 -2.12783 0
M  V30 614 C 58.7308 -3.25932 -2.72127 0
M  V30 615 O 59.7548 -2.77715 -2.23054 0
M  V30 616 O 58.6138 -4.09897 -3.61451 0
M  V30 617 H 55.7078 -0.596197 -0.57313 0
M  V30 618 H 58.2538 -1.61524 -0.52039 0
M  V30 619 H 57.0258 -3.60916 -1.5118 0
M  V30 620 H 56.6488 -2.66956 -2.94653 0
M  V30 621 N 57.6459 0.756429 -1.3826 0
M  V30 622 C 58.5779 1.87971 -1.31147 0
M  V30 623 C 59.5909 1.61248 -0.224239 0
M  V30 624 O 60.7799 1.71881 -0.481581 0
M  V30 625 C 57.8799 3.23545 -1.00857 0
M  V30 626 C 57.0529 3.77794 -2.20432 0
M  V30 627 C 56.1119 4.91877 -1.86931 0
M  V30 628 O 55.1379 5.06659 -2.59395 0
M  V30 629 N 56.3399 5.74643 -0.822568 0
M  V30 630 H 59.1049 1.94585 -2.2794 0
M  V30 631 H 56.6659 0.936234 -1.32084 0
M  V30 632 H 58.6579 3.97403 -0.765021 0
M  V30 633 H 57.2279 3.12335 -0.128687 0
M  V30 634 H 56.4479 2.95534 -2.6087 0
M  V30 635 H 57.7359 4.10771 -3.00241 0
M  V30 636 H 57.1339 5.65266 -0.221575 0
M  V30 637 H 55.6909 6.48661 -0.638899 0
M  V30 638 N 59.124 1.23083 0.984299 0
M  V30 639 C 60.056 0.96636 2.07832 0
M  V30 640 C 61.069 -0.0582135 1.62696 0
M  V30 641 O 62.258 0.176843 1.77622 0
M  V30 642 C 59.358 0.433397 3.36117 0
M  V30 643 C 58.531 1.51722 4.10243 0
M  V30 644 C 57.59 0.989821 5.16807 0
M  V30 645 O 56.616 1.67794 5.43906 0
M  V30 646 N 57.818 -0.184367 5.80207 0
M  V30 647 H 60.583 1.90824 2.31098 0
M  V30 648 H 58.144 1.13888 1.1507 0
M  V30 649 H 60.136 0.065699 4.04647 0
M  V30 650 H 58.706 -0.413806 3.09849 0
M  V30 651 H 57.926 2.05786 3.36223 0
M  V30 652 H 59.214 2.24619 4.56534 0
M  V30 653 H 58.612 -0.760062 5.60571 0
M  V30 654 H 57.169 -0.493366 6.4993 0
M  V30 655 N 60.6021 -1.18246 1.0419 0
M  V30 656 C 62.0181 -1.40269 0.761366 0
M  V30 657 C 62.2181 -1.90777 -0.648578 0
M  V30 658 O 61.2741 -2.0929 -1.41258 0
M  V30 659 C 62.5871 -2.40237 1.8085 0
M  V30 660 C 64.1351 -2.53961 1.82955 0
M  V30 661 C 64.6101 -3.57194 2.86664 0
M  V30 662 N 66.1011 -3.64702 2.85563 0
M  V30 663 C 66.8361 -4.44309 3.6246 0
M  V30 664 N 66.3321 -5.27514 4.49111 0
M  V30 665 N 68.1251 -4.39084 3.50944 0
M  V30 666 H 60.2761 -0.837882 1.95175 0
M  V30 667 H 62.5391 -0.430608 0.84456 0
M  V30 668 H 62.2451 -2.10176 2.81991 0
M  V30 669 H 62.1191 -3.39601 1.64168 0
M  V30 670 H 64.5061 -2.83338 0.824855 0
M  V30 671 H 64.5871 -1.54706 2.03715 0
M  V30 672 H 64.2311 -3.28558 3.87314 0
M  V30 673 H 64.1611 -4.5613 2.6316 0
M  V30 674 H 66.6521 -3.05289 2.22727 0
M  V30 675 H 66.9651 -5.85411 5.04493 0
M  V30 676 H 65.3101 -5.2693 4.53178 0
M  V30 677 H 68.5011 -3.7313 2.82651 0
M  V30 678 H 68.6741 -5.00883 4.11121 0
M  V30 679 N 62.0802 -0.821533 -1.34494 0
M  V30 680 C 63.0102 -0.257138 -2.3208 0
M  V30 681 C 63.9912 0.625645 -1.58176 0
M  V30 682 O 65.1762 0.552811 -1.86166 0
M  V30 683 C 62.3062 0.582958 -3.42372 0
M  V30 684 C 61.2602 -0.202571 -4.2752 0
M  V30 685 C 60.5862 0.760179 -5.29269 0
M  V30 686 C 61.8862 -1.40998 -5.02908 0
M  V30 687 H 63.5802 -1.07247 -2.79532 0
M  V30 688 H 61.1262 -0.517163 -1.34393 0
M  V30 689 H 63.0792 0.987972 -4.09655 0
M  V30 690 H 61.8032 1.43133 -2.93565 0
M  V30 691 H 60.4622 -0.588936 -3.61838 0
M  V30 692 H 60.1102 1.60447 -4.76724 0
M  V30 693 H 59.8102 0.238809 -5.87115 0
M  V30 694 H 61.3342 1.16308 -5.9942 0
M  V30 695 H 62.7482 -1.07905 -5.63054 0
M  V30 696 H 61.1452 -1.86689 -5.70322 0
M  V30 697 H 62.2152 -2.1889 -4.32684 0
M  V30 698 N 63.5583 1.46682 -0.576371 0
M  V30 699 C 64.8073 2.01619 -0.0572825 0
M  V30 700 C 65.1203 1.45417 1.30818 0
M  V30 701 O 66.3263 1.92133 1.91825 0
M  V30 702 C 64.7823 3.59863 -0.0518371 0
M  V30 703 C 64.3903 4.25059 -1.41523 0
M  V30 704 C 66.1343 4.2248 0.413639 0
M  V30 705 C 64.0413 5.75364 -1.36785 0
M  V30 706 H 62.9713 0.753794 -0.0176448 0
M  V30 707 H 65.6223 1.68481 -0.727076 0
M  V30 708 H 64.0043 3.90048 0.683994 0
M  V30 709 H 65.1783 4.06491 -2.17029 0
M  V30 710 H 63.4933 3.7451 -1.8202 0
M  V30 711 H 66.0903 5.3265 0.467779 0
M  V30 712 H 66.4333 3.90976 1.42982 0
M  V30 713 H 66.9663 3.96897 -0.267929 0
M  V30 714 H 63.7053 6.11518 -2.36063 0
M  V30 715 H 63.2253 5.96214 -0.654895 0
M  V30 716 H 64.9043 6.37955 -1.07805 0
M  V30 717 N 65.0364 0.313813 1.54444 0
M  V30 718 C 66.2834 -0.291675 2.00388 0
M  V30 719 C 66.6114 -1.52904 1.2021 0
M  V30 720 O 65.8664 -1.93833 0.269707 0
M  V30 721 C 66.1654 -0.680386 3.50864 0
M  V30 722 C 65.8314 0.456699 4.48581 0
M  V30 723 C 64.4934 0.768824 4.75018 0
M  V30 724 C 66.8454 1.22098 5.06697 0
M  V30 725 C 64.1734 1.84812 5.56831 0
M  V30 726 C 66.5254 2.29029 5.89685 0
M  V30 727 C 65.1894 2.60834 6.14428 0
M  V30 728 H 64.4594 -0.106732 0.733273 0
M  V30 729 H 67.1064 0.43557 1.86481 0
M  V30 730 H 65.4114 -1.48791 3.62448 0
M  V30 731 H 67.1084 -1.16026 3.83847 0
M  V30 732 H 63.6984 0.203337 4.28117 0
M  V30 733 H 67.8824 0.993096 4.86263 0
M  V30 734 H 63.1384 2.09912 5.74236 0
M  V30 735 H 67.3124 2.887 6.33739 0
M  V30 736 H 64.9394 3.44596 6.77612 0
M  V30 737 N 66.5145 -1.57545 0.0417849 0
M  V30 738 C 67.4775 -2.09885 -0.92093 0
M  V30 739 C 68.4775 -1.01648 -1.24596 0
M  V30 740 O 69.6675 -1.27759 -1.1842 0
M  V30 741 C 66.7995 -2.57527 -2.23367 0
M  V30 742 H 67.9925 -2.96236 -0.467382 0
M  V30 743 H 65.5455 -1.5493 -0.206467 0
M  V30 744 H 66.2805 -1.74542 -2.73323 0
M  V30 745 H 66.0655 -3.36613 -2.01083 0
M  V30 746 H 67.5555 -2.98201 -2.92346 0
M  V30 747 N 67.9926 0.231505 -1.5589 0
M  V30 748 C 69.2406 0.955461 -1.78088 0
M  V30 749 C 69.5616 1.85262 -0.608533 0
M  V30 750 O 68.8316 1.92277 0.375035 0
M  V30 751 H 67.4116 0.355787 -0.656829 0
M  V30 752 H 70.0736 0.245751 -1.93344 0
M  V30 753 H 69.1696 1.56814 -2.69844 0
M  V30 754 N 69.4707 1.49531 0.497807 0
M  V30 755 C 70.4177 1.66436 1.59899 0
M  V30 756 C 71.3877 0.505793 1.58212 0
M  V30 757 O 72.5727 0.733202 1.7615 0
M  V30 758 C 69.7127 1.7399 2.98029 0
M  V30 759 C 68.8257 3.01172 3.09708 0
M  V30 760 C 67.9607 2.99686 4.38591 0
M  V30 761 C 66.9997 4.21434 4.43914 0
M  V30 762 N 66.1367 4.1784 5.64229 0
M  V30 763 H 70.9767 2.60459 1.44793 0
M  V30 764 H 68.5137 1.29137 0.704423 0
M  V30 765 H 70.4717 1.76352 3.78095 0
M  V30 766 H 69.1017 0.834301 3.11832 0
M  V30 767 H 68.1537 3.08408 2.22685 0
M  V30 768 H 69.4657 3.91165 3.09502 0
M  V30 769 H 68.6197 3.00628 5.2698 0
M  V30 770 H 67.3587 2.07477 4.41367 0
M  V30 771 H 66.3637 4.20733 3.53926 0
M  V30 772 H 67.5887 5.14839 4.42851 0
M  V30 773 H 65.5347 3.28469 5.67841 0
M  V30 774 H 65.4517 5.01571 5.65652 0
M  V30 775 H 66.7197 4.22889 6.54817 0
M  V30 776 N 70.9488 -0.749086 1.3866 0
M  V30 777 C 71.8808 -1.87273 1.32142 0
M  V30 778 C 72.8938 -1.61127 0.232787 0
M  V30 779 O 74.0828 -1.71623 0.49069 0
M  V30 780 C 71.1828 -3.23005 1.02571 0
M  V30 781 C 70.3558 -3.7662 2.22433 0
M  V30 782 C 69.4148 -4.90879 1.89537 0
M  V30 783 O 68.4408 -5.05276 2.62078 0
M  V30 784 N 69.6428 -5.74198 0.853031 0
M  V30 785 H 72.4078 -1.93373 2.28969 0
M  V30 786 H 69.9688 -0.929216 1.32579 0
M  V30 787 H 71.9608 -3.96992 0.786085 0
M  V30 788 H 70.5308 -3.12262 0.145249 0
M  V30 789 H 69.7508 -2.94147 2.62434 0
M  V30 790 H 71.0388 -4.09173 3.02415 0
M  V30 791 H 70.4368 -5.6514 0.25155 0
M  V30 792 H 68.9938 -6.48313 0.67329 0
M  V30 793 N 72.4269 -1.23603 -0.977757 0
M  V30 794 C 73.3569 -1.04401 -2.0886 0
M  V30 795 C 74.3379 0.0399052 -1.70053 0
M  V30 796 O 75.5229 -0.125246 -1.93796 0
M  V30 797 C 72.6529 -0.637269 -3.41403 0
M  V30 798 C 71.6069 -1.66883 -3.94124 0
M  V30 799 C 70.9329 -1.11745 -5.22893 0
M  V30 800 C 72.2329 -3.06247 -4.23096 0
M  V30 801 H 73.9269 -1.97316 -2.25182 0
M  V30 802 H 71.4729 -0.950096 -1.08209 0
M  V30 803 H 73.4259 -0.48998 -4.18542 0
M  V30 804 H 72.1499 0.327557 -3.24953 0
M  V30 805 H 70.8089 -1.80416 -3.19133 0
M  V30 806 H 70.4569 -0.143527 -5.02795 0
M  V30 807 H 70.1569 -1.80672 -5.59134 0
M  V30 808 H 71.6809 -0.982067 -6.02651 0
M  V30 809 H 73.0949 -2.96001 -4.90975 0
M  V30 810 H 71.4919 -3.72436 -4.70544 0
M  V30 811 H 72.5619 -3.55041 -3.30263 0
M  V30 812 N 73.905 1.17692 -1.04816 0
M  V30 813 C 74.815 2.25229 -0.65643 0
M  V30 814 C 75.831 1.71018 0.320761 0
M  V30 815 O 77.007 2.00649 0.173805 0
M  V30 816 C 74.072 3.46684 -0.0332629 0
M  V30 817 C 73.133 4.15997 -1.06042 0
M  V30 818 C 72.366 5.31654 -0.466893 0
M  V30 819 O 72.589 5.65777 0.724758 0
M  V30 820 O 71.523 5.89831 -1.1993 0
M  V30 821 H 75.349 2.61016 -1.55255 0
M  V30 822 H 72.934 1.24919 -0.81949 0
M  V30 823 H 74.816 4.20234 0.313256 0
M  V30 824 H 73.491 3.12703 0.836566 0
M  V30 825 H 72.398 3.44482 -1.45886 0
M  V30 826 H 73.731 4.53996 -1.90127 0
M  V30 827 N 75.3831 0.828654 1.34056 0
M  V30 828 C 76.6601 0.341809 1.9259 0
M  V30 829 C 77.0401 -1.17158 1.75605 0
M  V30 830 O 76.3881 -1.98132 1.13824 0
M  V30 831 C 76.5981 0.777453 3.4023 0
M  V30 832 C 77.9461 0.779579 4.17382 0
M  V30 833 O 78.9701 0.7204 3.48839 0
M  V30 834 O 77.8291 0.857996 5.39723 0
M  V30 835 H 74.9231 0.0946085 0.821571 0
M  V30 836 H 77.4691 0.913827 1.42994 0
M  V30 837 H 76.2411 1.8196 3.46419 0
M  V30 838 H 75.8641 0.181444 3.97186 0
M  V30 839 N 76.8612 -1.46375 0.584142 0
M  V30 840 C 78.1092 -2.01978 0.0701287 0
M  V30 841 C 78.4302 -1.4579 -1.295 0
M  V30 842 O 77.7002 -0.64314 -1.85042 0
M  V30 843 H 76.2802 -0.746648 0.0229345 0
M  V30 844 H 78.9422 -1.79461 0.760245 0
M  V30 845 H 78.0382 -3.121 0.0022064 0
M  V30 846 N 78.3393 -0.321999 -1.54275 0
M  V30 847 C 79.7553 0.0306999 -1.5957 0
M  V30 848 C 79.9553 1.50614 -1.33857 0
M  V30 849 O 79.0113 2.2619 -1.12223 0
M  V30 850 C 80.3243 -0.386122 -2.98211 0
M  V30 851 C 81.8723 -0.336647 -3.11184 0
M  V30 852 C 82.3473 -0.728607 -4.52167 0
M  V30 853 N 83.8383 -0.681952 -4.58152 0
M  V30 854 C 84.5733 -0.957449 -5.6535 0
M  V30 855 N 84.0693 -1.3 -6.80494 0
M  V30 856 N 85.8623 -0.883113 -5.55119 0
M  V30 857 H 78.0133 -1.28332 -1.69247 0
M  V30 858 H 80.2763 -0.521716 -0.791528 0
M  V30 859 H 79.9823 -1.41404 -3.22022 0
M  V30 860 H 79.8563 0.249662 -3.76373 0
M  V30 861 H 82.2433 0.682058 -2.8711 0
M  V30 862 H 82.3243 -1.00734 -2.3513 0
M  V30 863 H 81.9683 -1.74522 -4.76974 0
M  V30 864 H 81.8983 -0.0356152 -5.26588 0
M  V30 865 H 84.3893 -0.428985 -3.75457 0
M  V30 866 H 84.7023 -1.49563 -7.58189 0
M  V30 867 H 83.0473 -1.33824 -6.81994 0
M  V30 868 H 86.2383 -0.615001 -4.64042 0
M  V30 869 H 86.4113 -1.10118 -6.38575 0
M  V30 870 N 79.8174 1.5752 -0.0501392 0
M  V30 871 C 81.0454 1.96963 0.633492 0
M  V30 872 C 81.4604 0.927631 1.6444 0
M  V30 873 O 80.8174 -0.0882665 1.82286 0
M  V30 874 C 80.8684 3.36487 1.32132 0
M  V30 875 O 80.5894 4.36693 0.350894 0
M  V30 876 C 82.0904 3.90682 2.09481 0
M  V30 877 H 79.3104 0.648244 0.173266 0
M  V30 878 H 81.8544 2.0417 -0.116134 0
M  V30 879 H 80.0094 3.30434 2.02218 0
M  V30 880 H 80.4234 5.17702 0.841735 0
M  V30 881 H 81.8974 4.90591 2.5303 0
M  V30 882 H 82.3744 3.26053 2.94255 0
M  V30 883 H 82.9804 4.00069 1.44307 0
M  V30 884 N 81.2955 -0.223234 1.56011 0
M  V30 885 C 82.2255 -1.27988 1.95298 0
M  V30 886 C 83.2065 -1.48976 0.820979 0
M  V30 887 O 84.3915 -1.61188 1.08315 0
M  V30 888 C 81.5215 -2.63 2.26822 0
M  V30 889 C 80.4755 -2.56671 3.42497 0
M  V30 890 C 79.8015 -3.95697 3.59622 0
M  V30 891 C 81.1015 -2.11601 4.77517 0
M  V30 892 H 82.7955 -0.953525 2.8381 0
M  V30 893 H 80.3415 -0.457244 1.36548 0
M  V30 894 H 82.2945 -3.37077 2.52898 0
M  V30 895 H 81.0185 -2.9732 1.35161 0
M  V30 896 H 79.6775 -1.85051 3.16467 0
M  V30 897 H 79.3255 -4.27322 2.6534 0
M  V30 898 H 79.0255 -3.92345 4.37424 0
M  V30 899 H 80.5495 -4.71438 3.88044 0
M  V30 900 H 81.9635 -2.7542 5.02809 0
M  V30 901 H 80.3605 -2.19311 5.5859 0
M  V30 902 H 81.4305 -1.06824 4.72987 0
M  V30 903 N 82.7736 -1.49793 -0.48987 0
M  V30 904 C 83.9986 -1.63836 -1.27172 0
M  V30 905 C 84.4236 -0.31402 -1.8546 0
M  V30 906 O 83.7816 0.719803 -1.66399 0
M  V30 907 C 83.8296 -2.71797 -2.36978 0
M  V30 908 O 82.9336 -2.31744 -3.41128 0
M  V30 909 H 82.2746 -0.547997 -0.37496 0
M  V30 910 H 84.8046 -1.96053 -0.585191 0
M  V30 911 H 84.8146 -2.94305 -2.82575 0
M  V30 912 H 83.4896 -3.67923 -1.93921 0
M  V30 913 H 82.0666 -2.1961 -3.01373 0
M  V30 914 N 84.2517 0.741722 -1.39055 0
M  V30 915 C 85.5287 1.49252 -1.26425 0
M  V30 916 C 85.9087 2.10705 0.129144 0
M  V30 917 O 85.2567 1.98045 1.13976 0
M  V30 918 C 85.4667 2.54934 -2.38347 0
M  V30 919 C 86.8147 3.21506 -2.77343 0
M  V30 920 O 87.8387 2.65245 -2.37747 0
M  V30 921 O 86.6977 4.23294 -3.45665 0
M  V30 922 H 83.7917 0.662451 -0.495064 0
M  V30 923 H 86.3377 0.776121 -1.50912 0
M  V30 924 H 85.1097 2.07857 -3.31529 0
M  V30 925 H 84.7327 3.34141 -2.15489 0
M  V30 926 N 85.7298 1.2412 0.971189 0
M  V30 927 C 86.9598 1.10415 1.7462 0
M  V30 928 C 87.3678 -0.346462 1.86001 0
M  V30 929 O 86.7108 -1.25104 1.34517 0
M  V30 930 C 86.7728 1.66596 3.18568 0
M  V30 931 C 86.4368 3.15446 3.3067 0
M  V30 932 C 87.4338 4.12636 3.16271 0
M  V30 933 C 85.1188 3.55337 3.55022 0
M  V30 934 C 87.1128 5.47699 3.26044 0
M  V30 935 C 84.7998 4.90542 3.64434 0
M  V30 936 C 85.7978 5.86532 3.49956 0
M  V30 937 O 85.4858 7.19279 3.59017 0
M  V30 938 H 85.2178 0.386616 0.55453 0
M  V30 939 H 87.7718 1.64633 1.22821 0
M  V30 940 H 86.0018 1.06808 3.71657 0
M  V30 941 H 87.6908 1.48232 3.77865 0
M  V30 942 H 88.4568 3.8316 2.97344 0
M  V30 943 H 84.3358 2.8113 3.65359 0
M  V30 944 H 87.8798 6.22603 3.14661 0
M  V30 945 H 83.7768 5.19691 3.82873 0
M  V30 946 H 84.5448 7.27153 3.75754 0
M  V30 947 N 87.2079 -1.17134 1.05439 0
M  V30 948 C 88.1559 -2.23289 0.651511 0
M  V30 949 C 89.1499 -1.66186 -0.328411 0
M  V30 950 O 90.3559 -1.78949 -0.194206 0
M  V30 951 H 86.7309 -0.726938 0.192523 0
M  V30 952 H 88.7019 -2.54565 1.55689 0
M  V30 953 C 87.4509 -3.47671 0.0448436 0
M  V30 954 H 86.7739 -3.91918 0.78996 0
M  V30 955 H 88.2139 -4.2353 -0.19964 0
M  V30 956 C 86.6729 -3.14453 -1.20918 0
M  V30 957 O 87.2029 -3.29459 -2.29825 0
M  V30 958 N 85.4089 -2.68657 -1.10779 0
M  V30 959 H 84.9559 -2.56646 -0.221526 0
M  V30 960 H 84.9139 -2.46804 -1.9477 0
M  V30 961 N 88.686 -0.835752 -1.33615 0
M  V30 962 C 89.935 -0.426289 -1.97144 0
M  V30 963 C 90.248 1.01912 -1.66953 0
M  V30 964 O 91.454 1.53311 -2.24072 0
M  V30 965 C 89.91 -0.711321 -3.52801 0
M  V30 966 C 89.518 -2.1712 -3.91871 0
M  V30 967 C 91.262 -0.368654 -4.22896 0
M  V30 968 C 89.169 -2.40044 -5.40493 0
M  V30 969 H 88.099 -0.15567 -0.737755 0
M  V30 970 H 90.75 -1.0239 -1.52278 0
M  V30 971 H 89.132 -0.0433766 -3.95976 0
M  V30 972 H 90.306 -2.87936 -3.59763 0
M  V30 973 H 88.621 -2.47654 -3.34749 0
M  V30 974 H 91.218 -0.517601 -5.32189 0
M  V30 975 H 91.561 0.688078 -4.10574 0
M  V30 976 H 92.094 -0.991702 -3.8524 0
M  V30 977 H 88.833 -3.44271 -5.57815 0
M  V30 978 H 88.353 -1.73785 -5.74072 0
M  V30 979 H 90.032 -2.23042 -6.0734 0
M  V30 980 N 90.1641 1.46063 -0.591896 0
M  V30 981 C 91.0961 2.28539 0.174001 0
M  V30 982 C 92.1091 1.39047 0.846753 0
M  V30 983 O 93.2981 1.63564 0.714774 0
M  V30 984 C 90.3981 3.14347 1.26645 0
M  V30 985 C 89.5711 4.32021 0.683856 0
M  V30 986 C 88.6301 4.99157 1.66518 0
M  V30 987 O 87.6561 5.56458 1.19763 0
M  V30 988 N 88.8581 4.97005 2.99943 0
M  V30 989 H 91.6231 2.94911 -0.533633 0
M  V30 990 H 89.1841 1.56077 -0.430294 0
M  V30 991 H 91.1761 3.56125 1.92242 0
M  V30 992 H 89.7461 2.49988 1.87682 0
M  V30 993 H 88.9661 3.93915 -0.1498 0
M  V30 994 H 90.2541 5.08059 0.274567 0
M  V30 995 H 89.6521 4.51714 3.40545 0
M  V30 996 H 88.2091 5.42696 3.61004 0
M  V30 997 N 91.6422 0.330177 1.54103 0
M  V30 998 C 92.5892 -0.532762 2.24567 0
M  V30 999 C 93.5592 -1.10635 1.23892 0
M  V30 1000 O 94.7442 -1.14546 1.5259 0
M  V30 1001 C 91.8842 -1.6845 3.01195 0
M  V30 1002 C 90.9972 -1.13951 4.167 0
M  V30 1003 C 90.1322 -2.25746 4.80845 0
M  V30 1004 C 89.1712 -1.6853 5.88442 0
M  V30 1005 N 88.3082 -2.74014 6.46421 0
M  V30 1006 H 93.1482 0.0746905 2.97906 0
M  V30 1007 H 90.6852 0.048632 1.4702 0
M  V30 1008 H 92.6432 -2.36234 3.43874 0
M  V30 1009 H 91.2732 -2.26314 2.30178 0
M  V30 1010 H 90.3252 -0.35301 3.78758 0
M  V30 1011 H 91.6372 -0.680892 4.94131 0
M  V30 1012 H 90.7912 -3.01422 5.26526 0
M  V30 1013 H 89.5302 -2.74947 4.0281 0
M  V30 1014 H 88.5352 -0.913543 5.42157 0
M  V30 1015 H 89.7602 -1.20198 6.68378 0
M  V30 1016 H 87.7062 -3.22494 5.71256 0
M  V30 1017 H 87.6232 -2.32735 7.19285 0
M  V30 1018 H 88.8912 -3.49499 6.96757 0
M  V30 1019 N 93.1203 -1.57491 0.0584922 0
M  V30 1020 C 94.0303 -2.15448 -0.928414 0
M  V30 1021 C 95.0463 -1.11416 -1.3365 0
M  V30 1022 O 96.2223 -1.4362 -1.41193 0
M  V30 1023 C 93.2873 -2.69393 -2.18239 0
M  V30 1024 C 92.3483 -3.88249 -1.83196 0
M  V30 1025 C 91.5813 -4.39613 -3.02616 0
M  V30 1026 O 91.8043 -3.90023 -4.16219 0
M  V30 1027 O 90.7383 -5.31111 -2.83204 0
M  V30 1028 H 94.5643 -3.00112 -0.465483 0
M  V30 1029 H 92.1493 -1.48499 -0.163826 0
M  V30 1030 H 94.0313 -3.04026 -2.91798 0
M  V30 1031 H 92.7063 -1.87796 -2.63656 0
M  V30 1032 H 91.6133 -3.58492 -1.06931 0
M  V30 1033 H 92.9463 -4.71098 -1.42573 0
M  V30 1034 N 94.5984 0.214957 -1.56127 0
M  V30 1035 C 95.8234 0.95924 -1.83884 0
M  V30 1036 C 96.2484 1.7689 -0.639644 0
M  V30 1037 O 95.6064 1.76566 0.411601 0
M  V30 1038 C 95.6544 1.84723 -3.09693 0
M  V30 1039 O 94.7584 2.94346 -2.8885 0
M  V30 1040 H 94.0994 0.27125 -0.606069 0
M  V30 1041 H 96.6294 0.226276 -2.03345 0
M  V30 1042 H 96.6394 2.25576 -3.39969 0
M  V30 1043 H 95.3144 1.25218 -3.96602 0
M  V30 1044 H 93.8914 2.57391 -2.69823 0
M  V30 1045 N 96.0765 1.50051 0.48192 0
M  V30 1046 C 97.3045 1.64237 1.25832 0
M  V30 1047 C 97.7195 0.321336 1.86045 0
M  V30 1048 O 97.0765 -0.695478 1.68729 0
M  V30 1049 C 97.1275 2.72548 2.37487 0
M  V30 1050 O 96.8485 3.99529 1.79745 0
M  V30 1051 C 98.3495 2.9761 3.28547 0
M  V30 1052 H 95.5695 0.55237 0.380957 0
M  V30 1053 H 98.1135 1.96207 0.576467 0
M  V30 1054 H 96.2685 2.43303 3.01467 0
M  V30 1055 H 96.6825 4.59342 2.5319 0
M  V30 1056 H 98.1565 3.77084 4.03127 0
M  V30 1057 H 98.6335 2.0826 3.86684 0
M  V30 1058 H 99.2395 3.28345 2.70314 0
M  V30 1059 N 97.5546 -0.734337 1.39446 0
M  V30 1060 C 98.4846 -1.86155 1.40955 0
M  V30 1061 C 99.4656 -1.67898 0.272827 0
M  V30 1062 O 100.651 -1.88207 0.478743 0
M  V30 1063 C 97.7806 -3.23912 1.25294 0
M  V30 1064 C 96.7346 -3.56808 2.36373 0
M  V30 1065 C 96.0606 -4.93508 2.058 0
M  V30 1066 C 97.3606 -3.59713 3.78687 0
M  V30 1067 H 99.0546 -1.8515 2.35287 0
M  V30 1068 H 96.6006 -0.889367 1.13253 0
M  V30 1069 H 98.5536 -4.02443 1.2497 0
M  V30 1070 H 97.2776 -3.25446 0.274308 0
M  V30 1071 H 95.9366 -2.80606 2.35914 0
M  V30 1072 H 95.5846 -4.91623 1.06374 0
M  V30 1073 H 95.2846 -5.16486 2.80208 0
M  V30 1074 H 96.8086 -5.74396 2.07128 0
M  V30 1075 H 98.2226 -4.2832 3.81071 0
M  V30 1076 H 96.6196 -3.94209 4.52459 0
M  V30 1077 H 97.6896 -2.59504 4.09617 0
M  V30 1078 N 99.0327 -1.24633 -0.964593 0
M  V30 1079 C 99.9827 -1.00841 -2.04487 0
M  V30 1080 C 100.967 0.0512468 -1.60818 0
M  V30 1081 O 102.159 -0.162865 -1.76249 0
M  V30 1082 C 99.2877 -0.618474 -3.37683 0
M  V30 1083 C 98.3737 -1.71437 -3.87905 0
M  V30 1084 N 98.7647 -2.9477 -4.11029 0
M  V30 1085 C 97.0627 -1.5926 -4.16596 0
M  V30 1086 C 97.7637 -3.65834 -4.52261 0
M  V30 1087 N 96.7397 -2.9341 -4.57615 0
M  V30 1088 H 100.542 -1.94487 -2.20345 0
M  V30 1089 H 98.0557 -1.14805 -1.14863 0
M  V30 1090 H 100.053 -0.429247 -4.14684 0
M  V30 1091 H 98.7127 0.310766 -3.23209 0
M  V30 1092 H 99.7237 -3.30917 -3.9839 0
M  V30 1093 H 96.4007 -0.731606 -4.1104 0
M  V30 1094 H 97.7907 -4.71646 -4.78539 0
M  V30 1095 N 100.511 1.16574 -1.06058 0
M  V30 1096 C 101.441 2.23057 -0.690488 0
M  V30 1097 C 102.422 1.67141 0.315901 0
M  V30 1098 O 103.607 1.93253 0.191556 0
M  V30 1099 C 100.737 3.47222 -0.073625 0
M  V30 1100 C 99.6908 4.16016 -1.00573 0
M  V30 1101 C 99.0168 5.34104 -0.252289 0
M  V30 1102 C 100.317 4.67264 -2.33371 0
M  V30 1103 H 102.011 2.54271 -1.58072 0
M  V30 1104 H 99.5568 1.22218 -0.76149 0
M  V30 1105 H 101.51 4.20939 0.19714 0
M  V30 1106 H 100.234 3.15302 0.85161 0
M  V30 1107 H 98.8928 3.44223 -1.2612 0
M  V30 1108 H 98.5408 4.98437 0.675988 0
M  V30 1109 H 98.2408 5.81072 -0.873455 0
M  V30 1110 H 99.7648 6.10599 0.0109857 0
M  V30 1111 H 101.179 5.32573 -2.12223 0
M  V30 1112 H 99.5758 5.24843 -2.90963 0
M  V30 1113 H 100.646 3.83602 -2.96611 0
M  V30 1114 N 101.989 0.842826 1.3317 0
M  V30 1115 C 103.235 0.441099 1.97945 0
M  V30 1116 C 103.568 -0.998024 1.66593 0
M  V30 1117 O 102.843 -1.69839 0.947898 0
M  V30 1118 C 103.126 0.666841 3.53872 0
M  V30 1119 C 102.979 2.15352 3.94897 0
M  V30 1120 C 104.298 0.115544 4.39948 0
M  V30 1121 H 101.417 0.161739 0.719034 0
M  V30 1122 H 104.059 1.05907 1.57746 0
M  V30 1123 H 102.209 0.140828 3.88245 0
M  V30 1124 H 103.881 2.7447 3.70761 0
M  V30 1125 H 102.124 2.63653 3.44484 0
M  V30 1126 H 102.795 2.26221 5.03516 0
M  V30 1127 H 105.271 0.565213 4.12243 0
M  V30 1128 H 104.147 0.303152 5.48062 0
M  V30 1129 H 104.408 -0.980935 4.3108 0
M  V30 1130 N 103.467 -1.45747 0.599634 0
M  V30 1131 C 104.397 -2.33235 -0.111306 0
M  V30 1132 C 105.378 -1.46359 -0.866781 0
M  V30 1133 O 106.563 -1.75146 -0.838904 0
M  V30 1134 C 103.693 -3.28932 -1.11451 0
M  V30 1135 C 102.647 -4.25381 -0.472772 0
M  V30 1136 C 101.973 -5.1071 -1.58365 0
M  V30 1137 C 103.273 -5.18831 0.600948 0
M  V30 1138 H 104.967 -2.92927 0.61919 0
M  V30 1139 H 102.513 -1.40857 0.299215 0
M  V30 1140 H 104.466 -3.89002 -1.62036 0
M  V30 1141 H 103.19 -2.67381 -1.8755 0
M  V30 1142 H 101.849 -3.66598 0.0121472 0
M  V30 1143 H 101.497 -4.45533 -2.33473 0
M  V30 1144 H 101.197 -5.7604 -1.15982 0
M  V30 1145 H 102.721 -5.73647 -2.09194 0
M  V30 1146 H 104.135 -5.73019 0.179491 0
M  V30 1147 H 102.532 -5.92595 0.946076 0
M  V30 1148 H 103.602 -4.6174 1.48068 0
M  V30 1149 N 104.945 -0.338344 -1.53925 0
M  V30 1150 C 106.361 0.0137736 -1.59594 0
M  V30 1151 C 106.561 1.49186 -1.35447 0
M  V30 1152 O 105.617 2.24987 -1.14616 0
M  V30 1153 C 106.93 -0.41773 -2.97784 0
M  V30 1154 C 108.478 -0.369633 -3.1081 0
M  V30 1155 C 108.953 -0.776524 -4.51369 0
M  V30 1156 N 110.444 -0.730506 -4.57403 0
M  V30 1157 C 111.179 -1.01736 -5.64303 0
M  V30 1158 N 110.675 -1.3721 -6.79077 0
M  V30 1159 N 112.468 -0.941942 -5.54151 0
M  V30 1160 H 104.619 -1.3012 -1.67876 0
M  V30 1161 H 106.882 -0.530082 -0.78595 0
M  V30 1162 H 106.588 -1.44811 -3.20504 0
M  V30 1163 H 106.462 0.209729 -3.76616 0
M  V30 1164 H 108.849 0.651568 -2.87817 0
M  V30 1165 H 108.93 -1.03223 -2.34049 0
M  V30 1166 H 108.574 -1.79571 -4.75096 0
M  V30 1167 H 108.504 -0.0914649 -5.26521 0
M  V30 1168 H 110.995 -0.468783 -3.74981 0
M  V30 1169 H 111.308 -1.57597 -7.5656 0
M  V30 1170 H 109.653 -1.4105 -6.80536 0
M  V30 1171 H 112.844 -0.664184 -4.63364 0
M  V30 1172 H 113.017 -1.16884 -6.37371 0
M  V30 1173 N 106.423 1.57458 -0.0668435 0
M  V30 1174 C 107.353 2.15468 0.899764 0
M  V30 1175 C 108.334 1.08042 1.31381 0
M  V30 1176 O 109.519 1.36054 1.38574 0
M  V30 1177 C 106.649 2.71232 2.16911 0
M  V30 1178 C 105.603 3.83781 1.89463 0
M  V30 1179 C 104.929 4.26127 3.22986 0
M  V30 1180 C 106.229 5.08238 1.20381 0
M  V30 1181 H 107.923 2.96488 0.416529 0
M  V30 1182 H 105.469 1.4262 0.198908 0
M  V30 1183 H 107.422 3.10458 2.84945 0
M  V30 1184 H 106.146 1.87426 2.67468 0
M  V30 1185 H 104.805 3.45051 1.23836 0
M  V30 1186 H 104.453 3.39249 3.71374 0
M  V30 1187 H 104.153 5.01993 3.05413 0
M  V30 1188 H 105.677 4.67966 3.92225 0
M  V30 1189 H 107.091 5.44811 1.78475 0
M  V30 1190 H 105.488 5.89349 1.13083 0
M  V30 1191 H 106.558 4.84558 0.182153 0
M  V30 1192 N 107.901 -0.206675 1.56239 0
M  V30 1193 C 109.317 -0.557025 1.49564 0
M  V30 1194 C 109.517 -1.86424 0.764735 0
M  V30 1195 O 108.573 -2.50584 0.310491 0
M  V30 1196 C 109.886 -0.622478 2.94186 0
M  V30 1197 C 111.434 -0.712099 3.04792 0
M  V30 1198 C 111.909 -0.808767 4.50803 0
M  V30 1199 N 113.4 -0.8726 4.54907 0
M  V30 1200 C 114.135 -0.967365 5.65181 0
M  V30 1201 N 113.631 -1.02515 6.85173 0
M  V30 1202 N 115.424 -1.00366 5.53067 0
M  V30 1203 H 107.575 0.650943 2.02179 0
M  V30 1204 H 109.838 0.230387 0.919579 0
M  V30 1205 H 109.544 0.268727 3.50672 0
M  V30 1206 H 109.418 -1.4811 3.46905 0
M  V30 1207 H 111.805 -1.59374 2.48363 0
M  V30 1208 H 111.886 0.172489 2.55218 0
M  V30 1209 H 111.53 0.0684754 5.07854 0
M  V30 1210 H 111.46 -1.70899 4.98098 0
M  V30 1211 H 113.951 -0.837657 3.68499 0
M  V30 1212 H 114.264 -1.09765 7.64965 0
M  V30 1213 H 112.609 -0.994026 6.87855 0
M  V30 1214 H 115.8 -0.95527 4.58249 0
M  V30 1215 H 115.973 -1.07405 6.39037 0
M  V30 1216 N 109.379 -1.50304 -0.473955 0
M  V30 1217 C 110.627 -1.60832 -1.22382 0
M  V30 1218 C 110.948 -0.30939 -1.9253 0
M  V30 1219 O 110.218 0.67296 -1.83978 0
M  V30 1220 H 108.798 -0.592652 -0.454723 0
M  V30 1221 H 111.46 -1.87068 -0.546968 0
M  V30 1222 H 110.556 -2.41803 -1.97327 0
M  V30 1223 N 110.857 0.726932 -1.39834 0
M  V30 1224 C 112.105 1.4837 -1.37225 0
M  V30 1225 C 112.426 1.94979 0.0284857 0
M  V30 1226 O 111.696 1.69555 0.981213 0
M  V30 1227 H 110.276 0.55043 -0.505011 0
M  V30 1228 H 112.938 0.862468 -1.74778 0
M  V30 1229 H 112.034 2.36198 -2.04003 0
M  V30 1230 N 112.336 1.25143 0.95797 0
M  V30 1231 C 113.269 0.995565 2.05338 0
M  V30 1232 C 114.247 -0.0740423 1.62431 0
M  V30 1233 O 115.431 0.0649212 1.88388 0
M  V30 1234 C 112.558 0.504298 3.34925 0
M  V30 1235 C 111.604 1.56393 3.96792 0
M  V30 1236 S 112.437 3.14815 4.33188 0
M  V30 1237 C 113.593 2.67415 5.65898 0
M  V30 1238 H 113.826 1.92309 2.26726 0
M  V30 1239 H 111.359 1.08635 1.09716 0
M  V30 1240 H 113.317 0.227497 4.09869 0
M  V30 1241 H 111.978 -0.402671 3.11508 0
M  V30 1242 H 111.171 1.17082 4.90212 0
M  V30 1243 H 110.773 1.79124 3.28315 0
M  V30 1244 H 113.065 2.10833 6.4386 0
M  V30 1245 H 114.008 3.59463 6.10076 0
M  V30 1246 H 114.416 2.07521 5.24972 0
M  V30 1247 N 113.814 -1.1601 1.06675 0
M  V30 1248 C 114.746 -2.20115 0.638921 0
M  V30 1249 C 115.759 -1.59916 -0.305057 0
M  V30 1250 O 116.948 -1.78245 -0.0954446 0
M  V30 1251 C 114.048 -3.38798 -0.0830083 0
M  V30 1252 C 113.221 -4.2855 0.875426 0
M  V30 1253 C 112.28 -5.25849 0.192042 0
M  V30 1254 O 111.306 -5.63102 0.830921 0
M  V30 1255 N 112.508 -5.70648 -1.06493 0
M  V30 1256 H 115.273 -2.57439 1.53444 0
M  V30 1257 H 112.834 -1.31057 0.950557 0
M  V30 1258 H 114.826 -4.00936 -0.550685 0
M  V30 1259 H 113.396 -2.99947 -0.880386 0
M  V30 1260 H 112.616 -3.63617 1.52238 0
M  V30 1261 H 113.904 -4.85393 1.52548 0
M  V30 1262 H 113.302 -5.42482 -1.60405 0
M  V30 1263 H 111.859 -6.34859 -1.47641 0
M  V30 1264 N 115.292 -0.849877 -1.32721 0
M  V30 1265 C 116.541 -0.447175 -1.96681 0
M  V30 1266 C 116.854 1.00135 -1.68025 0
M  V30 1267 O 118.06 1.50926 -2.25685 0
M  V30 1268 C 116.516 -0.7487 -3.52026 0
M  V30 1269 C 116.124 -2.21264 -3.89546 0
M  V30 1270 C 117.868 -0.413487 -4.22481 0
M  V30 1271 C 115.775 -2.45763 -5.37917 0
M  V30 1272 H 114.705 -0.163486 -0.736063 0
M  V30 1273 H 117.356 -1.03999 -1.51183 0
M  V30 1274 H 115.738 -0.0853727 -3.95908 0
M  V30 1275 H 116.912 -2.91736 -3.56689 0
M  V30 1276 H 115.227 -2.5119 -3.32103 0
M  V30 1277 H 117.824 -0.574017 -5.3161 0
M  V30 1278 H 118.167 0.644492 -4.11281 0
M  V30 1279 H 118.7 -1.03251 -3.84167 0
M  V30 1280 H 115.439 -3.50168 -5.54132 0
M  V30 1281 H 114.959 -1.79864 -5.72197 0
M  V30 1282 H 116.638 -2.29471 -6.0494 0
M  V30 1283 N 116.77 1.45427 -0.607355 0
M  V30 1284 C 118.017 2.02241 -0.102455 0
M  V30 1285 C 118.345 1.4758 1.26691 0
M  V30 1286 O 117.6 0.640468 1.84923 0
M  V30 1287 C 117.899 3.57398 -0.0129263 0
M  V30 1288 C 117.565 4.3121 -1.31792 0
M  V30 1289 C 116.227 4.51092 -1.67539 0
M  V30 1290 C 118.579 4.73401 -2.18039 0
M  V30 1291 C 115.907 5.10422 -2.89285 0
M  V30 1292 C 118.259 5.34078 -3.39034 0
M  V30 1293 C 116.923 5.52184 -3.75033 0
M  V30 1294 H 116.193 0.740051 -0.037491 0
M  V30 1295 H 118.84 1.74494 -0.788926 0
M  V30 1296 H 117.145 3.84421 0.756806 0
M  V30 1297 H 118.842 3.99061 0.393881 0
M  V30 1298 H 115.432 4.16047 -1.02968 0
M  V30 1299 H 119.616 4.57774 -1.91721 0
M  V30 1300 H 114.872 5.22629 -3.17283 0
M  V30 1301 H 119.046 5.65724 -4.06115 0
M  V30 1302 H 116.673 5.97925 -4.69457 0
M  V30 1303 N 118.248 0.346503 1.53744 0
M  V30 1304 C 119.494 -0.249473 2.0126 0
M  V30 1305 C 119.827 -1.49965 1.23386 0
M  V30 1306 O 119.102 -1.91811 0.32229 0
M  V30 1307 C 119.385 -0.560643 3.55709 0
M  V30 1308 C 119.238 0.701836 4.44291 0
M  V30 1309 C 120.557 -1.36905 4.18264 0
M  V30 1310 H 117.676 -0.0891987 0.731582 0
M  V30 1311 H 120.318 0.467624 1.84156 0
M  V30 1312 H 118.468 -1.17156 3.70414 0
M  V30 1313 H 120.14 1.33974 4.41417 0
M  V30 1314 H 118.383 1.32612 4.13033 0
M  V30 1315 H 119.054 0.43933 5.50249 0
M  V30 1316 H 121.53 -0.852448 4.07275 0
M  V30 1317 H 120.406 -1.55553 5.26398 0
M  V30 1318 H 120.667 -2.37203 3.73078 0
M  V30 1319 N 119.726 -1.57421 0.075193 0
M  V30 1320 C 120.673 -2.12915 -0.890843 0
M  V30 1321 C 121.643 -1.04252 -1.29309 0
M  V30 1322 O 122.828 -1.31933 -1.37834 0
M  V30 1323 C 119.968 -2.69795 -2.15186 0
M  V30 1324 C 119.081 -3.92624 -1.80194 0
M  V30 1325 C 118.216 -4.37736 -3.00933 0
M  V30 1326 C 117.255 -5.53205 -2.61974 0
M  V30 1327 N 116.392 -5.9326 -3.75483 0
M  V30 1328 H 121.232 -2.95156 -0.410735 0
M  V30 1329 H 118.769 -1.45854 -0.191086 0
M  V30 1330 H 120.727 -3.00883 -2.89008 0
M  V30 1331 H 119.357 -1.90313 -2.60731 0
M  V30 1332 H 118.409 -3.67977 -0.964218 0
M  V30 1333 H 119.721 -4.76482 -1.47534 0
M  V30 1334 H 118.875 -4.70503 -3.8303 0
M  V30 1335 H 117.614 -3.52739 -3.36789 0
M  V30 1336 H 116.619 -5.20086 -1.783 0
M  V30 1337 H 117.844 -6.39936 -2.27284 0
M  V30 1338 H 115.79 -5.11212 -4.11094 0
M  V30 1339 H 115.707 -6.71865 -3.46602 0
M  V30 1340 H 116.975 -6.30651 -4.58148 0
M  V30 1341 N 121.204 0.198386 -1.56346 0
M  V30 1342 C 122.432 0.935572 -1.84539 0
M  V30 1343 C 122.847 1.76989 -0.657281 0
M  V30 1344 O 122.204 1.78626 0.374043 0
M  V30 1345 C 122.255 1.8344 -3.11499 0
M  V30 1346 O 121.976 1.03377 -4.25728 0
M  V30 1347 C 123.477 2.68355 -3.52846 0
M  V30 1348 H 120.697 0.273126 -0.612897 0
M  V30 1349 H 123.241 0.20663 -2.03453 0
M  V30 1350 H 121.396 2.51701 -2.94492 0
M  V30 1351 H 121.81 1.64599 -4.98003 0
M  V30 1352 H 123.284 3.27085 -4.44657 0
M  V30 1353 H 123.761 3.41901 -2.75681 0
M  V30 1354 H 124.367 2.05471 -3.72373 0
M  V30 1355 N 122.682 1.50554 0.465978 0
M  V30 1356 C 123.612 1.72722 1.57128 0
M  V30 1357 C 124.593 0.576294 1.6004 0
M  V30 1358 O 125.778 0.81598 1.76225 0
M  V30 1359 C 122.908 1.82605 2.95419 0
M  V30 1360 C 121.862 2.97835 3.07373 0
M  V30 1361 C 121.188 2.92867 4.47363 0
M  V30 1362 C 122.488 4.38265 2.84114 0
M  V30 1363 H 124.182 2.65267 1.38829 0
M  V30 1364 H 121.728 1.2765 0.666441 0
M  V30 1365 H 123.681 1.96698 3.72677 0
M  V30 1366 H 122.405 0.866858 3.14886 0
M  V30 1367 H 121.064 2.83401 2.3255 0
M  V30 1368 H 120.712 1.94783 4.63755 0
M  V30 1369 H 120.412 3.70227 4.56296 0
M  V30 1370 H 121.936 3.09015 5.26633 0
M  V30 1371 H 123.35 4.53198 3.51118 0
M  V30 1372 H 121.747 5.17115 3.04487 0
M  V30 1373 H 122.817 4.50281 1.7993 0
M  V30 1374 N 124.16 -0.719506 1.40217 0
M  V30 1375 C 125.388 -1.50864 1.41589 0
M  V30 1376 C 125.803 -1.88794 0.0145275 0
M  V30 1377 O 125.16 -1.55174 -0.960594 0
M  V30 1378 C 125.211 -2.78646 2.30302 0
M  V30 1379 O 124.932 -2.42321 3.64983 0
M  V30 1380 C 126.433 -3.72569 2.40224 0
M  V30 1381 H 123.653 -0.465709 0.48307 0
M  V30 1382 H 126.197 -0.88785 1.84221 0
M  V30 1383 H 124.352 -3.37019 1.91042 0
M  V30 1384 H 124.766 -3.24514 4.12057 0
M  V30 1385 H 126.24 -4.5908 3.06512 0
M  V30 1386 H 126.717 -4.15403 1.42608 0
M  V30 1387 H 127.323 -3.20109 2.80019 0
M  V30 1388 N 125.638 -1.25649 -0.95132 0
M  V30 1389 C 126.886 -1.10375 -1.69298 0
M  V30 1390 C 127.207 0.355339 -1.91735 0
M  V30 1391 O 126.477 1.25188 -1.50681 0
M  V30 1392 H 125.057 -0.405461 -0.627384 0
M  V30 1393 H 127.719 -1.57823 -1.14358 0
M  V30 1394 H 126.815 -1.61465 -2.67087 0
M  V30 1395 N 127.117 1.15442 -1.07289 0
M  V30 1396 C 128.064 2.20161 -0.692653 0
M  V30 1397 C 129.034 1.63073 0.31564 0
M  V30 1398 O 130.219 1.89725 0.202235 0
M  V30 1399 C 127.359 3.44967 -0.0959509 0
M  V30 1400 C 126.472 4.16256 -1.15564 0
M  V30 1401 C 125.607 5.28609 -0.524011 0
M  V30 1402 C 124.646 5.91715 -1.56653 0
M  V30 1403 N 123.783 6.9554 -0.957531 0
M  V30 1404 H 128.623 2.52037 -1.59002 0
M  V30 1405 H 126.16 1.2378 -0.794798 0
M  V30 1406 H 128.118 4.16341 0.267628 0
M  V30 1407 H 126.748 3.1361 0.764772 0
M  V30 1408 H 125.8 3.43385 -1.6368 0
M  V30 1409 H 127.112 4.59268 -1.94613 0
M  V30 1410 H 126.266 6.06604 -0.108032 0
M  V30 1411 H 125.005 4.86787 0.29825 0
M  V30 1412 H 124.01 5.12433 -1.9923 0
M  V30 1413 H 125.235 6.35614 -2.39107 0
M  V30 1414 H 123.181 6.55814 -0.156162 0
M  V30 1415 H 123.098 7.36977 -1.68526 0
M  V30 1416 H 124.366 7.77435 -0.567032 0
M  V30 1417 N 128.595 0.856903 1.32268 0
M  V30 1418 C 129.823 0.475439 2.01363 0
M  V30 1419 C 130.238 -0.928486 1.64392 0
M  V30 1420 O 129.595 -1.60624 0.866387 0
M  V30 1421 C 129.646 0.607545 3.56358 0
M  V30 1422 O 129.367 1.95617 3.92002 0
M  V30 1423 C 130.868 0.225382 4.42727 0
M  V30 1424 H 128.088 0.186636 0.644521 0
M  V30 1425 H 130.632 1.15446 1.68797 0
M  V30 1426 H 128.787 -0.0237719 3.87393 0
M  V30 1427 H 129.201 1.95455 4.86721 0
M  V30 1428 H 130.675 0.368813 5.50767 0
M  V30 1429 H 131.152 -0.834369 4.31202 0
M  V30 1430 H 131.758 0.831864 4.17085 0
M  V30 1431 N 130.073 -1.45103 0.615059 0
M  V30 1432 C 131.322 -2.01396 0.110718 0
M  V30 1433 C 131.635 -1.48834 -1.26916 0
M  V30 1434 O 132.841 -1.97152 -1.86664 0
M  V30 1435 C 131.297 -3.59599 0.14723 0
M  V30 1436 C 130.905 -4.21158 1.52743 0
M  V30 1437 C 132.649 -4.23428 -0.30148 0
M  V30 1438 C 130.556 -5.71535 1.51992 0
M  V30 1439 H 129.486 -0.753061 0.0376241 0
M  V30 1440 H 132.137 -1.66494 0.77149 0
M  V30 1441 H 130.519 -3.91724 -0.580339 0
M  V30 1442 H 131.693 -4.00594 2.2773 0
M  V30 1443 H 130.008 -3.69552 1.91886 0
M  V30 1444 H 132.605 -5.33703 -0.326392 0
M  V30 1445 H 132.948 -3.94629 -1.32565 0
M  V30 1446 H 133.481 -3.96047 0.373065 0
M  V30 1447 H 130.22 -6.05044 2.52193 0
M  V30 1448 H 129.74 -5.94268 0.81274 0
M  V30 1449 H 131.419 -6.34873 1.24681 0
M  V30 1450 N 131.551 -0.354651 -1.53558 0
M  V30 1451 C 132.779 0.239515 -2.05509 0
M  V30 1452 C 133.194 1.4333 -1.2289 0
M  V30 1453 O 132.551 1.80538 -0.266899 0
M  V30 1454 C 132.602 0.643719 -3.55723 0
M  V30 1455 O 132.323 -0.502602 -4.35207 0
M  V30 1456 C 133.824 1.29743 -4.23889 0
M  V30 1457 H 131.044 0.0442697 -0.669538 0
M  V30 1458 H 133.588 -0.509856 -1.98042 0
M  V30 1459 H 131.743 1.34302 -3.63376 0
M  V30 1460 H 132.157 -0.178172 -5.24197 0
M  V30 1461 H 133.631 1.53091 -5.30346 0
M  V30 1462 H 134.108 2.25441 -3.76926 0
M  V30 1463 H 134.714 0.639865 -4.20459 0
M  V30 1464 N 133.029 1.57378 -0.0835403 0
M  V30 1465 C 133.959 2.1641 0.87686 0
M  V30 1466 C 134.94 1.09429 1.30228 0
M  V30 1467 O 136.125 1.37516 1.37124 0
M  V30 1468 C 133.255 2.73517 2.14022 0
M  V30 1469 C 132.209 3.85769 1.85381 0
M  V30 1470 C 131.535 4.29529 3.18448 0
M  V30 1471 C 132.835 5.09486 1.14984 0
M  V30 1472 H 134.529 2.96914 0.385059 0
M  V30 1473 H 132.075 1.42823 0.18377 0
M  V30 1474 H 134.028 3.13463 2.81636 0
M  V30 1475 H 132.752 1.90252 2.65465 0
M  V30 1476 H 131.411 3.46345 1.20169 0
M  V30 1477 H 131.059 3.43169 3.67755 0
M  V30 1478 H 130.759 5.05204 3.00071 0
M  V30 1479 H 132.283 4.72099 3.8724 0
M  V30 1480 H 133.697 5.46674 1.72687 0
M  V30 1481 H 132.094 5.90515 1.06826 0
M  V30 1482 H 133.164 4.84724 0.130749 0
M  V30 1483 N 134.507 -0.190092 1.56449 0
M  V30 1484 C 135.417 -1.25591 1.98152 0
M  V30 1485 C 136.433 -1.49519 0.889944 0
M  V30 1486 O 137.609 -1.62036 1.19609 0
M  V30 1487 C 134.674 -2.57916 2.3169 0
M  V30 1488 C 133.735 -2.42015 3.5458 0
M  V30 1489 C 132.968 -3.6803 3.8651 0
M  V30 1490 O 133.191 -4.72413 3.1966 0
M  V30 1491 O 132.125 -3.6326 4.79923 0
M  V30 1492 H 135.951 -0.931988 2.89046 0
M  V30 1493 H 133.536 -0.395488 1.4407 0
M  V30 1494 H 135.418 -3.36008 2.54316 0
M  V30 1495 H 134.093 -2.89925 1.43963 0
M  V30 1496 H 133 -1.62017 3.37196 0
M  V30 1497 H 134.333 -2.14937 4.4279 0
M  V30 1498 N 135.985 -1.50799 -0.457987 0
M  V30 1499 C 137.231 -1.62683 -1.21088 0
M  V30 1500 C 137.564 -0.332268 -1.91336 0
M  V30 1501 O 136.839 0.667043 -1.82704 0
M  V30 1502 C 137.122 -2.81615 -2.24422 0
M  V30 1503 C 136.975 -4.20989 -1.58392 0
M  V30 1504 C 138.294 -2.96085 -3.2561 0
M  V30 1505 H 135.413 -0.592087 -0.438864 0
M  V30 1506 H 138.055 -1.83225 -0.50286 0
M  V30 1507 H 136.205 -2.64231 -2.84806 0
M  V30 1508 H 137.877 -4.49994 -1.01504 0
M  V30 1509 H 136.12 -4.24641 -0.886704 0
M  V30 1510 H 136.791 -5.0016 -2.33547 0
M  V30 1511 H 139.267 -3.12042 -2.75262 0
M  V30 1512 H 138.143 -3.80902 -3.95228 0
M  V30 1513 H 138.404 -2.0726 -3.90507 0
M  V30 1514 N 137.463 0.71206 -1.40597 0
M  V30 1515 C 138.373 1.8562 -1.43466 0
M  V30 1516 C 139.389 1.70902 -0.326902 0
M  V30 1517 O 140.565 1.93105 -0.572043 0
M  V30 1518 C 137.63 3.21451 -1.29884 0
M  V30 1519 C 136.691 3.48398 -2.50833 0
M  V30 1520 C 135.924 4.77749 -2.3789 0
M  V30 1521 O 136.147 5.53089 -1.39459 0
M  V30 1522 O 135.081 5.05111 -3.27333 0
M  V30 1523 H 138.907 1.86155 -2.39958 0
M  V30 1524 H 136.492 0.86295 -1.21957 0
M  V30 1525 H 138.374 4.02579 -1.24531 0
M  V30 1526 H 137.049 3.21636 -0.364997 0
M  V30 1527 H 135.956 2.67265 -2.61763 0
M  V30 1528 H 137.289 3.53014 -3.4299 0
M  V30 1529 N 138.941 1.26152 0.944643 0
M  V30 1530 C 140.352 1.10454 1.50522 0
M  V30 1531 C 140.703 -0.31635 1.93633 0
M  V30 1532 O 139.828 -1.20746 1.79581 0
M  V30 1533 C 140.423 1.99891 2.73549 0
M  V30 1534 C 138.982 1.88348 3.25886 0
M  V30 1535 C 138.129 1.93447 1.9868 0
M  V30 1536 H 141.08 1.39292 0.760489 0
M  V30 1537 H 141.101 1.54477 3.47732 0
M  V30 1538 H 140.613 3.03297 2.42141 0
M  V30 1539 H 138.714 0.878636 3.62092 0
M  V30 1540 H 138.827 2.73696 3.93227 0
M  V30 1541 H 137.191 1.37456 2.14425 0
M  V30 1542 H 137.974 2.98476 1.69607 0
M  V30 1543 N 140.419 -1.14872 1.07899 0
M  V30 1544 C 141.644 -1.90202 0.826926 0
M  V30 1545 C 142.069 -1.77774 -0.614664 0
M  V30 1546 O 141.427 -1.11431 -1.43013 0
M  V30 1547 C 141.475 -3.38352 1.24702 0
M  V30 1548 O 140.579 -4.10497 0.39575 0
M  V30 1549 H 139.92 -0.591968 0.300782 0
M  V30 1550 H 142.45 -1.45437 1.43907 0
M  V30 1551 H 142.46 -3.89156 1.22563 0
M  V30 1552 H 141.135 -3.46715 2.29698 0
M  V30 1553 H 139.712 -3.69796 0.480117 0
M  V30 1554 N 141.898 -0.863906 -1.31812 0
M  V30 1555 C 143.175 -0.39275 -1.91616 0
M  V30 1556 C 143.555 1.12461 -1.7865 0
M  V30 1557 O 142.903 1.95045 -1.19037 0
M  V30 1558 C 143.113 -0.867385 -3.38049 0
M  V30 1559 C 144.461 -0.889966 -4.15168 0
M  V30 1560 O 145.485 -0.812635 -3.46806 0
M  V30 1561 O 144.344 -1.00079 -5.37258 0
M  V30 1562 H 141.438 -0.116358 -0.818773 0
M  V30 1563 H 143.984 -0.951418 -1.40521 0
M  V30 1564 H 142.756 -1.91081 -3.41473 0
M  V30 1565 H 142.379 -0.286687 -3.96565 0
M  V30 1566 N 143.376 1.44774 -0.622745 0
M  V30 1567 C 144.604 2.06487 -0.130722 0
M  V30 1568 C 145.019 1.46476 1.19123 0
M  V30 1569 O 144.376 0.584502 1.72887 0
M  V30 1570 C 144.427 3.615 -0.000807207 0
M  V30 1571 O 144.148 4.19274 -1.27048 0
M  V30 1572 C 145.649 4.40229 0.520898 0
M  V30 1573 H 142.869 0.666704 -0.0758106 0
M  V30 1574 H 145.413 1.85779 -0.854774 0
M  V30 1575 H 143.568 3.81498 0.673643 0
M  V30 1576 H 143.982 5.12622 -1.1099 0
M  V30 1577 H 145.456 5.49144 0.560838 0
M  V30 1578 H 145.933 4.1108 1.54627 0
M  V30 1579 H 146.539 4.25131 -0.120018 0
M  V30 1580 N 144.854 0.36279 1.53368 0
M  V30 1581 C 146.103 -0.22888 2.00397 0
M  V30 1582 C 146.416 -1.50096 1.25421 0
M  V30 1583 O 147.622 -2.17106 1.63025 0
M  V30 1584 C 146.078 -0.458417 3.56969 0
M  V30 1585 C 145.686 0.798877 4.4082 0
M  V30 1586 C 147.43 -1.00789 4.12361 0
M  V30 1587 C 145.337 0.539078 5.88938 0
M  V30 1588 H 144.267 -0.089305 0.748693 0
M  V30 1589 H 146.918 0.481099 1.77081 0
M  V30 1590 H 145.3 -1.22959 3.76427 0
M  V30 1591 H 146.474 1.57262 4.33134 0
M  V30 1592 H 144.789 1.27137 3.96516 0
M  V30 1593 H 147.386 -1.21754 5.20653 0
M  V30 1594 H 147.729 -1.9692 3.66781 0
M  V30 1595 H 148.262 -0.296961 3.9669 0
M  V30 1596 H 145.001 1.47064 6.3879 0
M  V30 1597 H 144.521 -0.196222 5.99479 0
M  V30 1598 H 146.2 0.163542 6.46793 0
M  V30 1599 N 146.332 -1.57332 0.0918853 0
M  V30 1600 C 147.242 -2.17368 -0.882505 0
M  V30 1601 C 148.258 -1.14226 -1.31257 0
M  V30 1602 O 149.434 -1.46582 -1.38115 0
M  V30 1603 C 146.499 -2.73962 -2.12476 0
M  V30 1604 C 145.56 -3.92048 -1.7492 0
M  V30 1605 C 144.793 -4.45933 -2.93223 0
M  V30 1606 O 145.016 -3.98764 -4.07852 0
M  V30 1607 O 143.95 -5.36999 -2.71875 0
M  V30 1608 H 147.776 -3.01031 -0.40172 0
M  V30 1609 H 145.361 -1.48813 -0.132291 0
M  V30 1610 H 147.243 -3.10147 -2.85283 0
M  V30 1611 H 145.918 -1.93347 -2.59613 0
M  V30 1612 H 144.825 -3.6068 -0.993025 0
M  V30 1613 H 146.158 -4.74017 -1.32548 0
M  V30 1614 N 147.81 0.181792 -1.56548 0
M  V30 1615 C 148.758 1.24461 -1.965 0
M  V30 1616 C 149.752 1.464 -0.852261 0
M  V30 1617 O 150.958 1.47103 -1.03733 0
M  V30 1618 H 147.333 0.418138 -0.625031 0
M  V30 1619 H 149.304 0.880714 -2.85107 0
M  V30 1620 C 148.053 2.57891 -2.33212 0
M  V30 1621 H 147.376 2.41829 -3.18369 0
M  V30 1622 H 148.816 3.3097 -2.65019 0
M  V30 1623 C 147.275 3.15871 -1.17163 0
M  V30 1624 O 147.805 3.9913 -0.453708 0
M  V30 1625 N 146.011 2.74808 -0.944936 0
M  V30 1626 H 145.558 2.07205 -1.53049 0
M  V30 1627 H 145.516 3.13939 -0.170286 0
M  V30 1628 N 149.288 1.51039 0.449983 0
M  V30 1629 C 150.534 1.63322 1.20223 0
M  V30 1630 C 150.867 0.34241 1.91158 0
M  V30 1631 O 150.142 -0.657344 1.83055 0
M  V30 1632 C 150.425 2.82801 2.22925 0
M  V30 1633 C 150.278 4.21823 1.56157 0
M  V30 1634 C 151.597 2.97807 3.24035 0
M  V30 1635 H 148.716 0.594407 0.435718 0
M  V30 1636 H 151.358 1.83489 0.493136 0
M  V30 1637 H 149.508 2.65738 2.834 0
M  V30 1638 H 151.18 4.50526 0.991162 0
M  V30 1639 H 149.423 4.25105 0.864172 0
M  V30 1640 H 150.094 5.01391 2.30891 0
M  V30 1641 H 152.57 3.13497 2.73603 0
M  V30 1642 H 151.446 3.82992 3.93202 0
M  V30 1643 H 151.707 2.09328 3.89402 0
M  V30 1644 N 150.766 -0.704594 1.40972 0
M  V30 1645 C 151.713 -1.81862 1.42109 0
M  V30 1646 C 152.683 -1.63781 0.276593 0
M  V30 1647 O 153.868 -1.84759 0.4763 0
M  V30 1648 C 151.008 -3.19669 1.30022 0
M  V30 1649 C 150.121 -3.49246 2.54267 0
M  V30 1650 C 149.256 -4.76618 2.3454 0
M  V30 1651 C 148.295 -4.99133 3.54306 0
M  V30 1652 N 147.432 -6.17726 3.33706 0
M  V30 1653 H 152.272 -1.80226 2.37324 0
M  V30 1654 H 149.809 -0.880238 1.17857 0
M  V30 1655 H 151.767 -3.99263 1.21018 0
M  V30 1656 H 150.397 -3.20506 0.384192 0
M  V30 1657 H 149.449 -2.64125 2.73756 0
M  V30 1658 H 150.761 -3.61788 3.43381 0
M  V30 1659 H 149.915 -5.64249 2.22952 0
M  V30 1660 H 148.654 -4.66305 1.42867 0
M  V30 1661 H 147.659 -4.09953 3.66359 0
M  V30 1662 H 148.884 -5.11311 4.4692 0
M  V30 1663 H 146.83 -6.08642 2.44725 0
M  V30 1664 H 146.747 -6.30995 4.16391 0
M  V30 1665 H 148.015 -7.08115 3.25873 0
M  V30 1666 N 152.244 -1.26651 -0.937939 0
M  V30 1667 C 153.207 -1.08546 -2.01867 0
M  V30 1668 C 154.207 -0.0327327 -1.60767 0
M  V30 1669 O 155.397 -0.276427 -1.71993 0
M  V30 1670 C 152.529 -0.651711 -3.34613 0
M  V30 1671 H 153.722 -2.04502 -2.1936 0
M  V30 1672 H 151.275 -1.09294 -1.11734 0
M  V30 1673 H 152.01 0.309696 -3.22818 0
M  V30 1674 H 151.795 -1.41189 -3.65798 0
M  V30 1675 H 153.285 -0.546973 -4.14002 0
M  V30 1676 N 153.722 1.14298 -1.08507 0
M  V30 1677 C 154.669 2.19414 -0.715965 0
M  V30 1678 C 155.639 1.63399 0.298326 0
M  V30 1679 O 156.824 1.89929 0.182101 0
M  V30 1680 C 153.964 3.44845 -0.132534 0
M  V30 1681 C 153.077 4.15007 -1.19973 0
M  V30 1682 C 152.212 5.28024 -0.580048 0
M  V30 1683 C 151.251 5.9002 -1.62921 0
M  V30 1684 N 150.388 6.94485 -1.03125 0
M  V30 1685 H 155.228 2.50336 -1.61666 0
M  V30 1686 H 152.765 1.2293 -0.807882 0
M  V30 1687 H 154.723 4.16601 0.223454 0
M  V30 1688 H 153.353 3.14403 0.731467 0
M  V30 1689 H 152.405 3.41629 -1.67313 0
M  V30 1690 H 153.717 4.57178 -1.99473 0
M  V30 1691 H 152.871 6.06455 -0.172364 0
M  V30 1692 H 151.61 4.87076 0.246603 0
M  V30 1693 H 150.615 5.10291 -2.04654 0
M  V30 1694 H 151.84 6.33042 -2.45835 0
M  V30 1695 H 149.786 6.55612 -0.225711 0
M  V30 1696 H 149.703 7.35148 -1.76334 0
M  V30 1697 H 150.971 7.7679 -0.649458 0
M  V30 1698 N 155.201 0.870884 1.31352 0
M  V30 1699 C 156.45 0.478408 1.95944 0
M  V30 1700 C 156.763 -0.974493 1.69597 0
M  V30 1701 O 157.969 -1.47316 2.28058 0
M  V30 1702 C 156.425 0.804609 3.50791 0
M  V30 1703 C 156.033 2.27433 3.85977 0
M  V30 1704 C 157.777 0.480648 4.2177 0
M  V30 1705 C 155.684 2.5429 5.33939 0
M  V30 1706 H 154.614 0.175175 0.733369 0
M  V30 1707 H 157.265 1.06391 1.4951 0
M  V30 1708 H 155.647 0.148347 3.95722 0
M  V30 1709 H 156.821 2.97373 3.52002 0
M  V30 1710 H 155.136 2.56442 3.28065 0
M  V30 1711 H 157.733 0.658519 5.30629 0
M  V30 1712 H 158.076 -0.578979 4.12254 0
M  V30 1713 H 158.609 1.09349 3.82476 0
M  V30 1714 H 155.348 3.58939 5.48491 0
M  V30 1715 H 154.868 1.88945 5.69263 0
M  V30 1716 H 156.547 2.39066 6.01212 0
M  V30 1717 N 156.679 -1.44442 0.630414 0
M  V30 1718 C 157.611 -2.2892 -0.113347 0
M  V30 1719 C 158.624 -1.41243 -0.80959 0
M  V30 1720 O 159.813 -1.65402 -0.671156 0
M  V30 1721 C 156.913 -3.17594 -1.18266 0
M  V30 1722 C 156.086 -4.33682 -0.569073 0
M  V30 1723 C 155.145 -5.03397 -1.53226 0
M  V30 1724 O 154.171 -5.59438 -1.04967 0
M  V30 1725 N 155.373 -5.04783 -2.86661 0
M  V30 1726 H 158.138 -2.93392 0.611636 0
M  V30 1727 H 155.699 -1.54881 0.471523 0
M  V30 1728 H 157.691 -3.61097 -1.82732 0
M  V30 1729 H 156.261 -2.54876 -1.80988 0
M  V30 1730 H 155.481 -3.9338 0.254187 0
M  V30 1731 H 156.769 -5.08608 -0.139767 0
M  V30 1732 H 156.167 -4.60584 -3.28449 0
M  V30 1733 H 154.724 -5.52077 -3.46489 0
M  V30 1734 N 158.157 -0.370918 -1.53173 0
M  V30 1735 C 159.434 0.273754 -1.93675 0
M  V30 1736 C 159.814 1.65938 -1.3049 0
M  V30 1737 O 159.162 2.23698 -0.465999 0
M  V30 1738 C 159.372 0.318602 -3.47543 0
M  V30 1739 C 160.72 0.556392 -4.20939 0
M  V30 1740 O 161.744 0.399587 -3.53952 0
M  V30 1741 O 160.603 0.862133 -5.39657 0
M  V30 1742 H 157.697 0.165448 -0.810281 0
M  V30 1743 H 160.243 -0.42409 -1.64315 0
M  V30 1744 H 159.015 -0.652687 -3.85818 0
M  V30 1745 H 158.638 1.06212 -3.83151 0
M  V30 1746 N 159.635 1.57281 -0.100228 0
M  V30 1747 C 160.582 2.14305 0.856858 0
M  V30 1748 C 161.552 1.06296 1.27634 0
M  V30 1749 O 162.737 1.34109 1.35718 0
M  V30 1750 C 159.877 2.73184 2.10866 0
M  V30 1751 C 158.99 3.95442 1.73925 0
M  V30 1752 C 158.125 4.42468 2.93931 0
M  V30 1753 C 157.164 5.57303 2.5314 0
M  V30 1754 N 156.301 5.99158 3.65997 0
M  V30 1755 H 161.141 2.95772 0.363726 0
M  V30 1756 H 158.678 1.46139 0.167858 0
M  V30 1757 H 160.636 3.05442 2.84185 0
M  V30 1758 H 159.266 1.94437 2.57671 0
M  V30 1759 H 158.318 3.69464 0.905554 0
M  V30 1760 H 159.63 4.78769 1.39935 0
M  V30 1761 H 158.784 4.76537 3.75496 0
M  V30 1762 H 157.523 3.58052 3.31134 0
M  V30 1763 H 156.528 5.22857 1.70003 0
M  V30 1764 H 157.753 6.43471 2.17075 0
M  V30 1765 H 155.699 5.17687 4.02909 0
M  V30 1766 H 155.616 6.77295 3.35869 0
M  V30 1767 H 156.884 6.3786 4.48057 0
M  V30 1768 N 161.113 -0.173488 1.56642 0
M  V30 1769 C 162.023 -1.23482 1.99473 0
M  V30 1770 C 163.039 -1.48567 0.905752 0
M  V30 1771 O 164.215 -1.60758 1.21321 0
M  V30 1772 C 161.28 -2.55444 2.34413 0
M  V30 1773 C 160.341 -2.38241 3.57127 0
M  V30 1774 C 159.574 -3.63909 3.90392 0
M  V30 1775 O 159.797 -4.68996 3.24653 0
M  V30 1776 O 158.731 -3.58149 4.83749 0
M  V30 1777 H 162.557 -0.901279 2.90018 0
M  V30 1778 H 160.142 -0.380185 1.44482 0
M  V30 1779 H 162.024 -3.33292 2.57865 0
M  V30 1780 H 160.699 -2.88382 1.4703 0
M  V30 1781 H 159.606 -1.58431 3.38896 0
M  V30 1782 H 160.939 -2.10228 4.45045 0
M  V30 1783 N 162.591 -1.51276 -0.441967 0
M  V30 1784 C 163.839 -1.63392 -1.18943 0
M  V30 1785 C 164.16 -0.350159 -1.9183 0
M  V30 1786 O 163.43 0.633784 -1.85364 0
M  V30 1787 H 162.01 -0.602164 -0.442049 0
M  V30 1788 H 164.672 -1.88186 -0.507165 0
M  V30 1789 H 163.768 -2.45934 -1.92154 0
M  V30 1790 N 164.069 0.697108 -1.41344 0
M  V30 1791 C 165.318 1.45279 -1.39918 0
M  V30 1792 C 165.631 1.95597 -0.0109624 0
M  V30 1793 O 166.837 2.71208 0.125919 0
M  V30 1794 C 165.293 2.62695 -2.46007 0
M  V30 1795 C 164.901 2.19169 -3.90729 0
M  V30 1796 C 166.645 3.40336 -2.53715 0
M  V30 1797 C 164.552 3.33535 -4.88373 0
M  V30 1798 H 163.482 0.545692 -0.520323 0
M  V30 1799 H 166.133 0.756929 -1.67161 0
M  V30 1800 H 164.515 3.34541 -2.11892 0
M  V30 1801 H 165.689 1.54623 -4.34083 0
M  V30 1802 H 164.004 1.54525 -3.86666 0
M  V30 1803 H 166.601 4.2547 -3.2385 0
M  V30 1804 H 166.944 3.85418 -1.5735 0
M  V30 1805 H 167.477 2.75546 -2.86913 0
M  V30 1806 H 164.216 2.93468 -5.86137 0
M  V30 1807 H 163.736 3.96936 -4.49668 0
M  V30 1808 H 165.415 3.99335 -5.09059 0
M  V30 1809 N 165.547 1.27147 0.931209 0
M  V30 1810 C 166.958 1.12044 1.49342 0
M  V30 1811 C 167.309 -0.295795 1.93957 0
M  V30 1812 O 166.434 -1.18835 1.80852 0
M  V30 1813 C 167.029 2.02781 2.71414 0
M  V30 1814 C 165.588 1.91794 3.2387 0
M  V30 1815 C 164.735 1.95543 1.96617 0
M  V30 1816 H 167.686 1.40091 0.745672 0
M  V30 1817 H 167.707 1.58156 3.46074 0
M  V30 1818 H 167.219 3.05848 2.38911 0
M  V30 1819 H 165.32 0.916992 3.6114 0
M  V30 1820 H 165.433 2.77852 3.90302 0
M  V30 1821 H 163.797 1.39722 2.12955 0
M  V30 1822 H 164.58 3.00259 1.66432 0
M  V30 1823 N 167.025 -1.13721 1.09112 0
M  V30 1824 C 168.436 -1.6648 0.845068 0
M  V30 1825 C 168.787 -1.85911 -0.62701 0
M  V30 1826 O 167.912 -1.57556 -1.48341 0
M  V30 1827 C 168.507 -3.02413 1.52748 0
M  V30 1828 C 167.066 -3.52176 1.32849 0
M  V30 1829 C 166.213 -2.27492 1.58564 0
M  V30 1830 H 169.164 -0.976872 1.25072 0
M  V30 1831 H 169.185 -3.68223 0.958752 0
M  V30 1832 H 168.697 -2.88238 2.59885 0
M  V30 1833 H 166.798 -3.7156 0.278137 0
M  V30 1834 H 166.911 -4.32499 2.0611 0
M  V30 1835 H 165.275 -2.33923 1.00758 0
M  V30 1836 H 166.058 -2.15886 2.66924 0
M  V30 1837 N 168.503 -0.877838 -1.30888 0
M  V30 1838 C 169.78 -0.413052 -1.91189 0
M  V30 1839 C 170.16 1.1056 -1.79832 0
M  V30 1840 O 169.508 1.93771 -1.21099 0
M  V30 1841 C 169.718 -0.903191 -3.3711 0
M  V30 1842 C 171.066 -0.93395 -4.14201 0
M  V30 1843 O 172.09 -0.849373 -3.45925 0
M  V30 1844 O 170.949 -1.05772 -5.36167 0
M  V30 1845 H 168.043 -0.125035 -0.817493 0
M  V30 1846 H 170.589 -0.966269 -1.39504 0
M  V30 1847 H 169.361 -1.94692 -3.39427 0
M  V30 1848 H 168.984 -0.328732 -3.96239 0
M  V30 1849 N 169.982 1.44106 -0.638065 0
M  V30 1850 C 170.914 2.28976 0.101205 0
M  V30 1851 C 171.927 1.4167 0.802088 0
M  V30 1852 O 173.116 1.65755 0.662375 0
M  V30 1853 C 170.216 3.18217 1.16581 0
M  V30 1854 C 169.389 4.33978 0.546066 0
M  V30 1855 C 168.448 5.04202 1.50554 0
M  V30 1856 O 167.474 5.59986 1.01999 0
M  V30 1857 N 168.676 5.06296 2.8398 0
M  V30 1858 H 171.441 2.93064 -0.627186 0
M  V30 1859 H 169.002 1.54629 -0.479731 0
M  V30 1860 H 170.994 3.62061 1.80815 0
M  V30 1861 H 169.564 2.55833 1.79634 0
M  V30 1862 H 168.784 3.93239 -0.275046 0
M  V30 1863 H 170.072 5.08675 0.112793 0
M  V30 1864 H 169.47 4.62319 3.26002 0
M  V30 1865 H 168.027 5.53907 3.43556 0
M  V30 1866 N 171.46 0.379036 1.52974 0
M  V30 1867 C 172.392 -0.495963 2.2377 0
M  V30 1868 C 173.405 -1.03517 1.25651 0
M  V30 1869 O 174.594 -0.939249 1.51791 0
M  V30 1870 C 171.694 -1.69894 2.93239 0
M  V30 1871 C 170.867 -1.2889 4.17979 0
M  V30 1872 C 169.926 -2.35543 4.70538 0
M  V30 1873 O 168.952 -1.97375 5.33883 0
M  V30 1874 N 170.154 -3.67318 4.49508 0
M  V30 1875 H 172.919 0.110523 2.99496 0
M  V30 1876 H 170.48 0.204878 1.60598 0
M  V30 1877 H 172.472 -2.40747 3.25304 0
M  V30 1878 H 171.042 -2.212 2.20883 0
M  V30 1879 H 170.262 -0.409676 3.92065 0
M  V30 1880 H 171.55 -0.991443 4.99047 0
M  V30 1881 H 170.948 -4.01095 3.98923 0
M  V30 1882 H 169.505 -4.34235 4.8609 0
M  V30 1883 N 172.938 -1.57226 0.108567 0
M  V30 1884 C 174.354 -1.5766 -0.248058 0
M  V30 1885 C 174.554 -1.12063 -1.67464 0
M  V30 1886 O 173.61 -0.803236 -2.39383 0
M  V30 1887 C 174.923 -3.0069 -0.0242287 0
M  V30 1888 C 176.471 -3.12868 -0.0909372 0
M  V30 1889 C 176.946 -4.57879 0.105067 0
M  V30 1890 N 178.437 -4.63172 0.0506846 0
M  V30 1891 C 179.172 -5.73126 0.177396 0
M  V30 1892 N 178.668 -6.91866 0.359696 0
M  V30 1893 N 180.461 -5.61977 0.117709 0
M  V30 1894 H 172.612 -1.85169 1.04049 0
M  V30 1895 H 174.875 -0.85529 0.40888 0
M  V30 1896 H 174.581 -3.38299 0.961604 0
M  V30 1897 H 174.455 -3.6945 -0.76068 0
M  V30 1898 H 176.842 -2.75124 -1.06729 0
M  V30 1899 H 176.923 -2.46672 0.677225 0
M  V30 1900 H 176.567 -4.96321 1.07834 0
M  V30 1901 H 176.497 -5.22153 -0.682954 0
M  V30 1902 H 178.988 -3.778 -0.0871266 0
M  V30 1903 H 179.301 -7.71503 0.447529 0
M  V30 1904 H 177.646 -6.93874 0.395536 0
M  V30 1905 H 180.837 -4.68094 -0.0236741 0
M  V30 1906 H 181.01 -6.47627 0.219905 0
M  V30 1907 N 174.416 0.165178 -1.56732 0
M  V30 1908 C 175.346 1.20651 -1.99914 0
M  V30 1909 C 176.327 1.45827 -0.875705 0
M  V30 1910 O 177.512 1.57057 -1.14223 0
M  V30 1911 C 174.642 2.54401 -2.36427 0
M  V30 1912 C 173.596 2.43782 -3.51787 0
M  V30 1913 C 172.922 3.82078 -3.7406 0
M  V30 1914 C 174.222 1.93732 -4.85041 0
M  V30 1915 H 175.916 0.847534 -2.87154 0
M  V30 1916 H 173.462 0.40625 -1.38151 0
M  V30 1917 H 175.415 3.27458 -2.65234 0
M  V30 1918 H 174.139 2.92098 -1.46103 0
M  V30 1919 H 172.798 1.73178 -3.23117 0
M  V30 1920 H 172.446 4.17179 -2.81017 0
M  V30 1921 H 172.146 3.7584 -4.51684 0
M  V30 1922 H 173.67 4.56712 -4.05274 0
M  V30 1923 H 175.084 2.56569 -5.12684 0
M  V30 1924 H 173.481 1.98428 -5.66345 0
M  V30 1925 H 174.551 0.891962 -4.76626 0
M  V30 1926 N 175.894 1.51508 0.433938 0
M  V30 1927 C 177.143 1.63578 1.18005 0
M  V30 1928 C 177.456 0.359514 1.92268 0
M  V30 1929 O 178.662 0.359632 2.69108 0
M  V30 1930 C 177.118 2.88901 2.14626 0
M  V30 1931 C 176.726 4.23544 1.45995 0
M  V30 1932 C 178.47 3.10328 2.89649 0
M  V30 1933 C 176.377 5.40014 2.4112 0
M  V30 1934 H 175.307 0.609277 0.444182 0
M  V30 1935 H 177.958 1.77978 0.446773 0
M  V30 1936 H 176.34 2.68142 2.91403 0
M  V30 1937 H 177.514 4.54696 0.747532 0
M  V30 1938 H 175.829 4.08021 0.831115 0
M  V30 1939 H 178.426 3.94518 3.60915 0
M  V30 1940 H 178.769 2.23544 3.51189 0
M  V30 1941 H 179.302 3.31443 2.19978 0
M  V30 1942 H 176.041 6.29068 1.84264 0
M  V30 1943 H 175.561 5.13233 3.10406 0
M  V30 1944 H 177.24 5.72099 3.02177 0
M  V30 1945 N 177.372 -0.689602 1.41712 0
M  V30 1946 C 178.619 -1.44966 1.4139 0
M  V30 1947 C 178.947 -1.94484 0.025105 0
M  V30 1948 O 178.202 -1.70307 -0.964048 0
M  V30 1949 C 178.501 -2.67298 2.37247 0
M  V30 1950 C 178.167 -2.36405 3.83958 0
M  V30 1951 C 176.829 -2.27691 4.23923 0
M  V30 1952 C 179.181 -2.11043 4.76561 0
M  V30 1953 C 176.509 -1.91719 5.54492 0
M  V30 1954 C 178.861 -1.76578 6.07456 0
M  V30 1955 C 177.525 -1.66363 6.46436 0
M  V30 1956 H 176.795 -0.53047 0.517381 0
M  V30 1957 H 179.442 -0.787655 1.74552 0
M  V30 1958 H 177.747 -3.38461 1.9736 0
M  V30 1959 H 179.444 -3.25452 2.34269 0
M  V30 1960 H 176.034 -2.44085 3.52308 0
M  V30 1961 H 180.218 -2.16717 4.46483 0
M  V30 1962 H 175.474 -1.82367 5.83568 0
M  V30 1963 H 179.648 -1.55974 6.78708 0
M  V30 1964 H 177.275 -1.38258 7.47522 0
M  V30 1965 N 178.85 -1.27639 -0.924453 0
M  V30 1966 C 179.813 -1.10681 -2.00705 0
M  V30 1967 C 180.813 -0.0497823 -1.60723 0
M  V30 1968 O 182.003 -0.294654 -1.7169 0
M  V30 1969 C 179.135 -0.687164 -3.33902 0
M  V30 1970 H 180.328 -2.06817 -2.17179 0
M  V30 1971 H 177.881 -1.10473 -1.10569 0
M  V30 1972 H 178.616 0.275439 -3.23128 0
M  V30 1973 H 178.401 -1.45061 -3.6428 0
M  V30 1974 H 179.891 -0.590853 -4.13399 0
M  V30 1975 N 180.328 1.1314 -1.09713 0
M  V30 1976 C 181.576 1.84119 -0.833338 0
M  V30 1977 C 181.897 1.84097 0.642904 0
M  V30 1978 O 181.167 1.29881 1.46655 0
M  V30 1979 H 179.747 0.681766 -0.305293 0
M  V30 1980 H 182.409 1.37038 -1.38588 0
M  V30 1981 H 181.505 2.88543 -1.18951 0
M  V30 1982 N 181.806 0.884767 1.30421 0
M  V30 1983 C 182.753 0.349642 2.28136 0
M  V30 1984 C 183.723 -0.560061 1.56373 0
M  V30 1985 O 184.908 -0.488524 1.8444 0
M  V30 1986 C 182.048 -0.42999 3.42411 0
M  V30 1987 C 181.161 0.508907 4.28992 0
M  V30 1988 C 180.296 -0.286301 5.30428 0
M  V30 1989 C 179.335 0.648079 6.08659 0
M  V30 1990 N 178.472 -0.111792 7.02011 0
M  V30 1991 H 183.312 1.18807 2.73293 0
M  V30 1992 H 180.849 0.597231 1.3443 0
M  V30 1993 H 182.807 -0.897923 4.07423 0
M  V30 1994 H 181.437 -1.23299 2.98324 0
M  V30 1995 H 180.489 1.09533 3.64289 0
M  V30 1996 H 181.801 1.22475 4.8353 0
M  V30 1997 H 180.955 -0.816098 6.01186 0
M  V30 1998 H 179.694 -1.03536 4.76583 0
M  V30 1999 H 178.699 1.18951 5.36778 0
M  V30 2000 H 179.924 1.39623 6.64592 0
M  V30 2001 H 177.87 -0.843395 6.50556 0
M  V30 2002 H 177.787 0.544429 7.54037 0
M  V30 2003 H 179.055 -0.622339 7.77012 0
M  V30 2004 N 183.284 -1.43765 0.645699 0
M  V30 2005 C 184.216 -2.29027 -0.0890605 0
M  V30 2006 C 185.229 -1.42093 -0.794563 0
M  V30 2007 O 186.418 -1.66104 -0.653575 0
M  V30 2008 C 183.518 -3.18831 -1.14891 0
M  V30 2009 C 182.691 -4.34261 -0.523043 0
M  V30 2010 C 181.75 -5.04994 -1.47878 0
M  V30 2011 O 180.776 -5.6052 -0.990277 0
M  V30 2012 N 181.978 -5.07795 -2.81291 0
M  V30 2013 H 184.743 -2.92727 0.64272 0
M  V30 2014 H 182.304 -1.54373 0.487924 0
M  V30 2015 H 184.296 -3.63015 -1.78892 0
M  V30 2016 H 182.866 -2.56782 -1.78275 0
M  V30 2017 H 182.086 -3.93088 0.295896 0
M  V30 2018 H 183.374 -5.08728 -0.0858147 0
M  V30 2019 H 182.772 -4.64042 -3.23546 0
M  V30 2020 H 181.329 -5.55721 -3.40614 0
M  V30 2021 N 184.763 -0.387143 -1.52771 0
M  V30 2022 C 185.693 0.440551 -2.29306 0
M  V30 2023 C 186.674 1.06535 -1.32606 0
M  V30 2024 O 187.859 1.07853 -1.61497 0
M  V30 2025 C 184.989 1.56919 -3.09829 0
M  V30 2026 C 183.943 1.07054 -4.14395 0
M  V30 2027 C 183.269 2.29109 -4.83129 0
M  V30 2028 C 184.569 0.140015 -5.22112 0
M  V30 2029 H 186.263 -0.198026 -2.98744 0
M  V30 2030 H 183.809 -0.09668 -1.43675 0
M  V30 2031 H 185.762 2.15503 -3.62128 0
M  V30 2032 H 184.486 2.23532 -2.3812 0
M  V30 2033 H 183.145 0.507247 -3.63074 0
M  V30 2034 H 182.793 2.94227 -4.0797 0
M  V30 2035 H 182.493 1.96406 -5.53804 0
M  V30 2036 H 184.017 2.88339 -5.38231 0
M  V30 2037 H 185.431 0.633978 -5.69784 0
M  V30 2038 H 183.828 -0.0971485 -6.00021 0
M  V30 2039 H 184.898 -0.811711 -4.78058 0
M  V30 2040 N 186.241 1.57166 -0.116904 0
M  V30 2041 C 187.151 2.18745 0.847812 0
M  V30 2042 C 188.167 1.163 1.29423 0
M  V30 2043 O 189.343 1.48761 1.35765 0
M  V30 2044 C 186.408 2.77307 2.0809 0
M  V30 2045 C 185.469 3.94781 1.68661 0
M  V30 2046 C 184.702 4.50541 2.86091 0
M  V30 2047 O 184.925 4.05202 4.01456 0
M  V30 2048 O 183.859 5.41256 2.63298 0
M  V30 2049 H 187.685 3.01632 0.353778 0
M  V30 2050 H 185.27 1.49005 0.108599 0
M  V30 2051 H 187.152 3.14647 2.80313 0
M  V30 2052 H 185.827 1.97452 2.56504 0
M  V30 2053 H 184.734 3.62214 0.935518 0
M  V30 2054 H 186.067 4.76065 1.24991 0
M  V30 2055 N 187.719 -0.156864 1.56817 0
M  V30 2056 C 188.996 -0.899244 1.73704 0
M  V30 2057 C 189.376 -1.99771 0.682254 0
M  V30 2058 O 188.724 -2.26515 -0.300522 0
M  V30 2059 C 188.934 -1.45075 3.17418 0
M  V30 2060 C 190.282 -1.91802 3.7881 0
M  V30 2061 O 191.306 -1.54838 3.20786 0
M  V30 2062 O 190.165 -2.5994 4.80722 0
M  V30 2063 H 187.259 -0.424267 0.709878 0
M  V30 2064 H 189.805 -0.143561 1.69092 0
M  V30 2065 H 188.577 -0.660846 3.85679 0
M  V30 2066 H 188.2 -2.27021 3.26416 0
M  V30 2067 N 189.197 -1.51736 -0.425897 0
M  V30 2068 C 190.445 -1.64644 -1.17204 0
M  V30 2069 C 190.766 -0.370486 -1.91448 0
M  V30 2070 O 190.036 0.614088 -1.86026 0
M  V30 2071 H 188.616 -0.606819 -0.435638 0
M  V30 2072 H 191.278 -1.88713 -0.487177 0
M  V30 2073 H 190.374 -2.47958 -1.89534 0
M  V30 2074 N 190.675 0.682077 -1.42076 0
M  V30 2075 C 192.091 0.994324 -1.24841 0
M  V30 2076 C 192.291 2.0096 -0.147389 0
M  V30 2077 O 191.347 2.47822 0.483782 0
M  V30 2078 C 192.66 1.50607 -2.60265 0
M  V30 2079 C 194.208 1.62421 -2.6756 0
M  V30 2080 C 194.683 2.16994 -4.03333 0
M  V30 2081 N 196.174 2.24337 -4.0525 0
M  V30 2082 C 196.909 2.67621 -5.07116 0
M  V30 2083 N 196.405 3.1041 -6.19368 0
M  V30 2084 N 198.198 2.67305 -4.94474 0
M  V30 2085 H 190.349 0.00973908 -2.12398 0
M  V30 2086 H 192.612 0.0668593 -0.945639 0
M  V30 2087 H 192.318 0.834583 -3.41654 0
M  V30 2088 H 192.192 2.48602 -2.83684 0
M  V30 2089 H 194.579 2.28678 -1.86521 0
M  V30 2090 H 194.66 0.629352 -2.47937 0
M  V30 2091 H 194.304 1.51349 -4.84826 0
M  V30 2092 H 194.234 3.17258 -4.20304 0
M  V30 2093 H 196.725 1.94158 -3.24209 0
M  V30 2094 H 197.038 3.42103 -6.92954 0
M  V30 2095 H 195.383 3.08286 -6.22884 0
M  V30 2096 H 198.574 2.33233 -4.05857 0
M  V30 2097 H 198.747 3.00718 -5.73997 0
M  V30 2098 N 192.153 1.28127 0.917671 0
M  V30 2099 C 193.381 1.17892 1.70026 0
M  V30 2100 C 193.796 -0.262958 1.8696 0
M  V30 2101 O 193.153 -1.17811 1.3938 0
M  V30 2102 C 193.204 1.86872 3.09453 0
M  V30 2103 O 192.925 3.25428 2.93306 0
M  V30 2104 C 194.426 1.8289 4.03815 0
M  V30 2105 H 191.646 0.40942 0.531617 0
M  V30 2106 H 194.19 1.69181 1.14883 0
M  V30 2107 H 192.345 1.39464 3.61426 0
M  V30 2108 H 192.759 3.59918 3.81523 0
M  V30 2109 H 194.233 2.35751 4.99125 0
M  V30 2110 H 194.71 0.800412 4.31845 0
M  V30 2111 H 195.316 2.29959 3.57769 0
M  V30 2112 N 193.631 -1.12557 1.10312 0
M  V30 2113 C 194.561 -2.20341 0.772798 0
M  V30 2114 C 195.542 -1.68198 -0.25365 0
M  V30 2115 O 196.727 -1.93831 -0.119699 0
M  V30 2116 C 193.857 -3.46709 0.202443 0
M  V30 2117 C 192.811 -4.11996 1.15943 0
M  V30 2118 C 192.137 -5.328 0.450345 0
M  V30 2119 C 193.437 -4.5828 2.50552 0
M  V30 2120 H 195.131 -2.48229 1.674 0
M  V30 2121 H 192.677 -1.19308 0.806326 0
M  V30 2122 H 194.63 -4.2138 -0.0407752 0
M  V30 2123 H 193.354 -3.18245 -0.734001 0
M  V30 2124 H 192.013 -3.39305 1.38808 0
M  V30 2125 H 191.661 -5.00602 -0.490531 0
M  V30 2126 H 191.361 -5.7743 1.08851 0
M  V30 2127 H 192.885 -6.10219 0.215642 0
M  V30 2128 H 194.299 -5.2433 2.31843 0
M  V30 2129 H 192.696 -5.13683 3.10242 0
M  V30 2130 H 193.766 -3.72329 3.10643 0
M  V30 2131 N 195.109 -0.891671 -1.2995 0
M  V30 2132 C 196.334 -0.527932 -2.00568 0
M  V30 2133 C 196.759 0.877969 -1.66353 0
M  V30 2134 O 196.117 1.58301 -0.883762 0
M  V30 2135 C 196.165 -0.717745 -3.53385 0
M  V30 2136 O 195.269 0.233376 -4.11739 0
M  V30 2137 H 194.61 -0.20722 -0.630837 0
M  V30 2138 H 197.14 -1.20105 -1.65638 0
M  V30 2139 H 197.15 -0.619307 -4.03272 0
M  V30 2140 H 195.825 -1.74276 -3.77625 0
M  V30 2141 H 194.402 0.0880706 -3.72796 0
M  V30 2142 N 196.587 1.43421 -0.653314 0
M  V30 2143 C 197.864 1.95361 -0.0966581 0
M  V30 2144 C 198.244 1.59461 1.38331 0
M  V30 2145 O 197.592 0.879777 2.10884 0
M  V30 2146 C 197.802 3.47311 -0.342988 0
M  V30 2147 C 199.15 4.23875 -0.24798 0
M  V30 2148 O 200.174 3.55133 -0.275553 0
M  V30 2149 O 199.033 5.4623 -0.171771 0
M  V30 2150 H 196.127 0.826945 0.00956291 0
M  V30 2151 H 198.673 1.5336 -0.726558 0
M  V30 2152 H 197.445 3.66569 -1.36906 0
M  V30 2153 H 197.068 3.9631 0.319975 0
M  V30 2154 N 198.065 0.39524 1.52563 0
M  V30 2155 C 199.295 -0.184675 2.05773 0
M  V30 2156 C 199.703 -1.40571 1.26635 0
M  V30 2157 O 199.046 -1.81105 0.30769 0
M  V30 2158 C 199.108 -0.613551 3.54226 0
M  V30 2159 C 198.772 0.49484 4.54313 0
M  V30 2160 C 199.769 1.3541 5.01956 0
M  V30 2161 C 197.454 0.663565 4.97898 0
M  V30 2162 C 199.448 2.36716 5.91814 0
M  V30 2163 C 197.135 1.67996 5.87555 0
M  V30 2164 C 198.133 2.53017 6.34406 0
M  V30 2165 O 197.821 3.52917 7.22291 0
M  V30 2166 H 197.553 -0.030077 0.675331 0
M  V30 2167 H 200.107 0.560708 1.97599 0
M  V30 2168 H 198.337 -1.411 3.60038 0
M  V30 2169 H 200.026 -1.11981 3.90148 0
M  V30 2170 H 200.792 1.23509 4.6901 0
M  V30 2171 H 196.671 0.0114913 4.60999 0
M  V30 2172 H 200.215 3.03113 6.28306 0
M  V30 2173 H 196.112 1.79933 6.19915 0
M  V30 2174 H 196.88 3.48996 7.40367 0
M  V30 2175 N 199.544 -1.57102 0.125237 0
M  V30 2176 C 200.492 -2.16905 -0.839927 0
M  V30 2177 C 201.486 -1.11998 -1.27094 0
M  V30 2178 O 202.692 -1.3029 -1.24195 0
M  V30 2179 H 199.067 -0.694252 -0.288995 0
M  V30 2180 H 201.038 -2.96774 -0.311115 0
M  V30 2181 C 199.787 -2.78795 -2.07771 0
M  V30 2182 H 199.11 -3.59221 -1.755 0
M  V30 2183 H 200.55 -3.2417 -2.73295 0
M  V30 2184 C 199.009 -1.76193 -2.87155 0
M  V30 2185 O 199.539 -1.21909 -3.82755 0
M  V30 2186 N 197.745 -1.45991 -2.51267 0
M  V30 2187 H 197.292 -1.90325 -1.73592 0
M  V30 2188 H 197.25 -0.775844 -3.04677 0
M  V30 2189 N 201.022 0.148545 -1.56898 0
M  V30 2190 C 202.271 0.85984 -1.82454 0
M  V30 2191 C 202.584 1.82406 -0.706229 0
M  V30 2192 O 203.79 2.57938 -0.847349 0
M  V30 2193 C 202.246 1.57967 -3.2338 0
M  V30 2194 C 201.854 0.65794 -4.43142 0
M  V30 2195 C 203.598 2.27784 -3.58211 0
M  V30 2196 C 201.505 1.3793 -5.75091 0
M  V30 2197 H 200.435 0.324834 -0.68044 0
M  V30 2198 H 203.086 0.112588 -1.83154 0
M  V30 2199 H 201.468 2.37249 -3.17063 0
M  V30 2200 H 202.642 -0.0995497 -4.60692 0
M  V30 2201 H 200.957 0.0682643 -4.16344 0
M  V30 2202 H 203.554 2.8239 -4.54048 0
M  V30 2203 H 203.897 3.04204 -2.84193 0
M  V30 2204 H 204.43 1.55421 -3.66182 0
M  V30 2205 H 201.169 0.656982 -6.52199 0
M  V30 2206 H 200.689 2.10954 -5.61479 0
M  V30 2207 H 202.368 1.92063 -6.17835 0
M  V30 2208 N 202.5 1.5196 0.417844 0
M  V30 2209 C 203.432 1.70895 1.52733 0
M  V30 2210 C 204.445 0.589405 1.51756 0
M  V30 2211 O 205.634 0.864312 1.56179 0
M  V30 2212 C 202.734 1.72627 2.91639 0
M  V30 2213 C 201.907 3.01479 3.16905 0
M  V30 2214 C 200.966 2.95139 4.35637 0
M  V30 2215 O 199.992 3.69059 4.3334 0
M  V30 2216 N 201.194 2.12328 5.40275 0
M  V30 2217 H 203.959 2.66612 1.36888 0
M  V30 2218 H 201.52 1.50089 0.607037 0
M  V30 2219 H 203.512 1.65928 3.6912 0
M  V30 2220 H 202.082 0.844216 3.00985 0
M  V30 2221 H 201.302 3.21895 2.27546 0
M  V30 2222 H 202.59 3.86736 3.30625 0
M  V30 2223 H 201.988 1.51685 5.44985 0
M  V30 2224 H 200.545 2.11494 6.16534 0
M  V30 2225 N 203.978 -0.674533 1.42435 0
M  V30 2226 C 204.925 -1.78807 1.45934 0
M  V30 2227 C 205.895 -1.63157 0.311271 0
M  V30 2228 O 207.08 -1.83707 0.515383 0
M  V30 2229 C 204.22 -3.16839 1.36773 0
M  V30 2230 C 203.333 -3.43774 2.61617 0
M  V30 2231 C 202.468 -4.71536 2.44597 0
M  V30 2232 C 201.507 -4.91505 3.64814 0
M  V30 2233 N 200.644 -6.10508 3.46734 0
M  V30 2234 H 205.484 -1.75151 2.41093 0
M  V30 2235 H 203.021 -0.85504 1.19697 0
M  V30 2236 H 204.979 -3.96606 1.29459 0
M  V30 2237 H 203.609 -3.19619 0.452089 0
M  V30 2238 H 202.661 -2.58259 2.79297 0
M  V30 2239 H 203.973 -3.54423 3.50978 0
M  V30 2240 H 203.127 -5.59393 2.3487 0
M  V30 2241 H 201.866 -4.6317 1.52726 0
M  V30 2242 H 200.871 -4.0209 3.74972 0
M  V30 2243 H 202.096 -5.01716 4.57665 0
M  V30 2244 H 200.042 -6.03315 2.5758 0
M  V30 2245 H 199.959 -6.2202 4.29682 0
M  V30 2246 H 201.227 -7.01044 3.40819 0
M  V30 2247 N 205.456 -1.28612 -0.910864 0
M  V30 2248 C 206.366 -1.14643 -2.0468 0
M  V30 2249 C 207.382 -0.0723121 -1.7385 0
M  V30 2250 O 208.558 -0.282178 -1.99413 0
M  V30 2251 C 205.623 -0.812561 -3.37044 0
M  V30 2252 C 204.684 -1.96935 -3.81465 0
M  V30 2253 C 203.917 -1.65131 -5.07511 0
M  V30 2254 O 204.14 -0.567013 -5.67575 0
M  V30 2255 O 203.074 -2.49585 -5.47714 0
M  V30 2256 H 206.9 -2.1001 -2.19384 0
M  V30 2257 H 204.485 -1.07958 -1.03274 0
M  V30 2258 H 206.367 -0.640441 -4.16505 0
M  V30 2259 H 205.042 0.111426 -3.23508 0
M  V30 2260 H 203.949 -2.19664 -3.02818 0
M  V30 2261 H 205.282 -2.87414 -3.99567 0
M  V30 2262 N 206.934 1.1197 -1.10907 0
M  V30 2263 C 208.159 1.87942 -0.877064 0
M  V30 2264 C 208.584 1.79341 0.567314 0
M  V30 2265 O 207.942 1.15184 1.40009 0
M  V30 2266 C 207.99 3.34926 -1.33629 0
M  V30 2267 O 207.094 4.09303 -0.504447 0
M  V30 2268 H 206.435 0.583785 -0.316371 0
M  V30 2269 H 208.965 1.4157 -1.47712 0
M  V30 2270 H 208.975 3.8577 -1.32837 0
M  V30 2271 H 207.65 3.40504 -2.3881 0
M  V30 2272 H 206.227 3.68393 -0.577993 0
M  V30 2273 N 208.412 0.89855 1.29475 0
M  V30 2274 C 209.64 0.539261 1.99749 0
M  V30 2275 C 210.055 -0.875716 1.67262 0
M  V30 2276 O 209.412 -1.57786 0.917049 0
M  V30 2277 C 209.463 0.72061 3.54245 0
M  V30 2278 O 209.184 2.07989 3.8558 0
M  V30 2279 C 210.685 0.366118 4.41786 0
M  V30 2280 H 207.905 0.207047 0.638258 0
M  V30 2281 H 210.449 1.20758 1.65039 0
M  V30 2282 H 208.604 0.0994862 3.87272 0
M  V30 2283 H 209.018 2.10841 4.80257 0
M  V30 2284 H 210.492 0.543848 5.49314 0
M  V30 2285 H 210.969 -0.696763 4.33638 0
M  V30 2286 H 211.575 0.964135 4.14228 0
M  V30 2287 N 209.89 -1.43072 0.660911 0
M  V30 2288 C 210.82 -2.33497 -0.0122829 0
M  V30 2289 C 211.801 -1.49903 -0.803925 0
M  V30 2290 O 212.986 -1.78546 -0.763864 0
M  V30 2291 C 210.116 -3.33363 -0.973994 0
M  V30 2292 C 209.07 -4.27003 -0.291928 0
M  V30 2293 C 208.396 -5.16967 -1.36562 0
M  V30 2294 C 209.696 -5.15816 0.820462 0
M  V30 2295 H 211.39 -2.90038 0.742873 0
M  V30 2296 H 208.936 -1.39461 0.358688 0
M  V30 2297 H 210.889 -3.95524 -1.45392 0
M  V30 2298 H 209.613 -2.75095 -1.7604 0
M  V30 2299 H 208.272 -3.66217 0.167623 0
M  V30 2300 H 207.92 -4.55034 -2.14366 0
M  V30 2301 H 207.62 -5.80441 -0.914454 0
M  V30 2302 H 209.144 -5.82003 -1.84675 0
M  V30 2303 H 210.558 -5.71742 0.422366 0
M  V30 2304 H 208.955 -5.8805 1.19656 0
M  V30 2305 H 210.025 -4.55045 1.67518 0
M  V30 2306 N 211.368 -0.403325 -1.52352 0
M  V30 2307 C 212.318 0.442244 -2.2367 0
M  V30 2308 C 213.302 1.01823 -1.24583 0
M  V30 2309 O 214.494 0.942005 -1.49851 0
M  V30 2310 C 211.623 1.5615 -3.05732 0
M  V30 2311 C 210.709 0.996575 -4.12225 0
M  V30 2312 N 211.1 0.157804 -5.05554 0
M  V30 2313 C 209.398 1.26767 -4.27605 0
M  V30 2314 C 210.099 -0.155853 -5.81491 0
M  V30 2315 N 209.075 0.451775 -5.41719 0
M  V30 2316 H 212.877 -0.204964 -2.93184 0
M  V30 2317 H 210.391 -0.213418 -1.60992 0
M  V30 2318 H 212.388 2.17981 -3.55373 0
M  V30 2319 H 211.048 2.21139 -2.37755 0
M  V30 2320 H 212.059 -0.206049 -5.1749 0
M  V30 2321 H 208.736 1.91757 -3.70858 0
M  V30 2322 H 210.126 -0.836329 -6.66675 0
M  V30 2323 N 212.846 1.57033 -0.133567 0
M  V30 2324 C 213.776 2.1909 0.807567 0
M  V30 2325 C 214.757 1.13517 1.26681 0
M  V30 2326 O 215.942 1.41809 1.32679 0
M  V30 2327 C 213.072 2.80188 2.05212 0
M  V30 2328 C 212.026 3.91471 1.73015 0
M  V30 2329 C 211.352 4.39443 3.04622 0
M  V30 2330 C 212.652 5.12886 0.987168 0
M  V30 2331 H 214.346 2.97988 0.290403 0
M  V30 2332 H 211.892 1.43335 0.138239 0
M  V30 2333 H 213.845 3.22264 2.71521 0
M  V30 2334 H 212.569 1.98601 2.59278 0
M  V30 2335 H 211.228 3.49993 1.0909 0
M  V30 2336 H 210.876 3.54695 3.56651 0
M  V30 2337 H 210.576 5.14495 2.83847 0
M  V30 2338 H 212.1 4.8418 3.72024 0
M  V30 2339 H 213.514 5.51891 1.55208 0
M  V30 2340 H 211.911 5.93615 0.87985 0
M  V30 2341 H 212.981 4.84894 -0.0235286 0
M  V30 2342 N 214.325 -0.140222 1.56975 0
M  V30 2343 C 215.571 -0.852949 1.83991 0
M  V30 2344 C 215.904 -1.80512 0.716187 0
M  V30 2345 O 215.179 -1.92479 -0.279681 0
M  V30 2346 C 215.462 -1.6215 3.21527 0
M  V30 2347 C 215.315 -0.690363 4.4447 0
M  V30 2348 C 216.634 -2.58247 3.56366 0
M  V30 2349 H 213.753 -0.308634 0.669264 0
M  V30 2350 H 216.395 -0.117898 1.89634 0
M  V30 2351 H 214.545 -2.24812 3.16847 0
M  V30 2352 H 216.217 -0.0742264 4.6124 0
M  V30 2353 H 214.46 -0.000396433 4.338 0
M  V30 2354 H 215.131 -1.2643 5.37326 0
M  V30 2355 H 217.607 -2.05701 3.61699 0
M  V30 2356 H 216.483 -3.09067 4.53617 0
M  V30 2357 H 216.744 -3.39923 2.82674 0
M  V30 2358 N 215.803 -1.52179 -0.40978 0
M  V30 2359 C 216.733 -1.78435 -1.5061 0
M  V30 2360 C 217.714 -0.635295 -1.57791 0
M  V30 2361 O 218.899 -0.880823 -1.73076 0
M  V30 2362 C 216.029 -1.93444 -2.88439 0
M  V30 2363 C 214.983 -3.09038 -2.96108 0
M  V30 2364 C 214.309 -3.09268 -4.36185 0
M  V30 2365 C 215.609 -4.48508 -2.67652 0
M  V30 2366 H 217.303 -2.70237 -1.28889 0
M  V30 2367 H 214.849 -1.30036 -0.618605 0
M  V30 2368 H 216.802 -2.10394 -3.65119 0
M  V30 2369 H 215.526 -0.983129 -3.11452 0
M  V30 2370 H 214.185 -2.91837 -2.21872 0
M  V30 2371 H 213.833 -2.11861 -4.56206 0
M  V30 2372 H 213.533 -3.86907 -4.42241 0
M  V30 2373 H 215.057 -3.28348 -5.14801 0
M  V30 2374 H 216.471 -4.65918 -3.34056 0
M  V30 2375 H 214.868 -5.28059 -2.85085 0
M  V30 2376 H 215.938 -4.56649 -1.63095 0
M  V30 2377 N 217.281 0.66697 -1.42791 0
M  V30 2378 C 218.697 0.981027 -1.25889 0
M  V30 2379 C 218.897 2.00793 -0.168695 0
M  V30 2380 O 217.953 2.48321 0.45747 0
M  V30 2381 C 219.266 1.47838 -2.61848 0
M  V30 2382 C 220.814 1.59575 -2.69267 0
M  V30 2383 C 221.289 2.12704 -4.05612 0
M  V30 2384 N 222.78 2.20026 -4.07606 0
M  V30 2385 C 223.515 2.62227 -5.09926 0
M  V30 2386 N 223.011 3.03824 -6.22626 0
M  V30 2387 N 224.804 2.62045 -4.97281 0
M  V30 2388 H 216.955 -0.0127891 -2.12396 0
M  V30 2389 H 219.218 0.0568258 -0.946295 0
M  V30 2390 H 218.924 0.798299 -3.4252 0
M  V30 2391 H 218.798 2.45579 -2.86305 0
M  V30 2392 H 221.185 2.26687 -1.88936 0
M  V30 2393 H 221.266 0.60302 -2.48591 0
M  V30 2394 H 220.91 1.46198 -4.86404 0
M  V30 2395 H 220.84 3.12782 -4.23645 0
M  V30 2396 H 223.331 1.90708 -3.2625 0
M  V30 2397 H 223.644 3.34734 -6.96544 0
M  V30 2398 H 221.989 3.01662 -6.26119 0
M  V30 2399 H 225.18 2.28916 -4.08308 0
M  V30 2400 H 225.353 2.94613 -5.77154 0
M  V30 2401 N 218.759 1.29093 0.90403 0
M  V30 2402 C 219.689 1.16401 2.02418 0
M  V30 2403 C 220.67 0.0593085 1.69997 0
M  V30 2404 O 221.855 0.238021 1.92736 0
M  V30 2405 C 218.985 0.835233 3.37107 0
M  V30 2406 C 217.939 1.89578 3.83724 0
M  V30 2407 C 217.265 1.42041 5.15489 0
M  V30 2408 C 218.565 3.30394 4.04521 0
M  V30 2409 H 220.259 2.10109 2.13295 0
M  V30 2410 H 217.805 1.01157 1.02486 0
M  V30 2411 H 219.758 0.733169 4.14973 0
M  V30 2412 H 218.482 -0.137543 3.2631 0
M  V30 2413 H 217.141 1.98715 3.08071 0
M  V30 2414 H 216.789 0.436426 5.01103 0
M  V30 2415 H 216.489 2.12964 5.4765 0
M  V30 2416 H 218.013 1.33176 5.959 0
M  V30 2417 H 219.427 3.24123 4.72882 0
M  V30 2418 H 217.824 3.99237 4.48029 0
M  V30 2419 H 218.894 3.73692 3.09002 0
M  V30 2420 N 220.237 -1.11381 1.11499 0
M  V30 2421 C 221.653 -1.35143 0.849031 0
M  V30 2422 C 221.853 -1.94515 -0.525938 0
M  V30 2423 O 220.909 -2.1785 -1.27662 0
M  V30 2424 C 222.222 -2.28249 1.95762 0
M  V30 2425 C 223.77 -2.41812 1.98736 0
M  V30 2426 C 224.245 -3.3824 3.088 0
M  V30 2427 N 225.736 -3.45803 3.08179 0
M  V30 2428 C 226.471 -4.20358 3.89982 0
M  V30 2429 N 225.967 -4.97884 4.8175 0
M  V30 2430 N 227.76 -4.15877 3.78157 0
M  V30 2431 H 219.911 -0.712062 2.00109 0
M  V30 2432 H 222.174 -0.376025 0.870235 0
M  V30 2433 H 221.88 -1.91817 2.94787 0
M  V30 2434 H 221.754 -3.28473 1.85433 0
M  V30 2435 H 224.141 -2.77518 1.00338 0
M  V30 2436 H 224.222 -1.41437 2.13141 0
M  V30 2437 H 223.866 -3.03261 4.07425 0
M  V30 2438 H 223.796 -4.38471 2.91635 0
M  V30 2439 H 226.287 -2.90506 2.41691 0
M  V30 2440 H 226.6 -5.52142 5.40702 0
M  V30 2441 H 224.945 -4.97043 4.85771 0
M  V30 2442 H 228.136 -3.544 3.05808 0
M  V30 2443 H 228.309 -4.73723 4.42143 0
M  V30 2444 N 221.715 -0.905404 -1.28997 0
M  V30 2445 C 222.963 -0.533192 -1.9494 0
M  V30 2446 C 223.284 0.924618 -1.71685 0
M  V30 2447 O 222.554 1.65268 -1.05183 0
M  V30 2448 H 221.134 -0.194194 -0.721317 0
M  V30 2449 H 223.796 -1.15294 -1.57141 0
M  V30 2450 H 222.892 -0.72059 -3.03667 0
M  V30 2451 N 223.193 1.4272 -0.668489 0
M  V30 2452 C 224.441 2.01226 -0.187769 0
M  V30 2453 C 224.762 1.53092 1.2078 0
M  V30 2454 O 224.032 0.74993 1.80977 0
M  V30 2455 H 222.612 0.744041 -0.0664272 0
M  V30 2456 H 225.274 1.74723 -0.863583 0
M  V30 2457 H 224.37 3.11556 -0.184166 0
M  V30 2458 N 224.671 0.411399 1.52136 0
M  V30 2459 C 225.604 -0.457614 2.23565 0
M  V30 2460 C 226.582 -1.04613 1.24478 0
M  V30 2461 O 227.766 -1.09356 1.53536 0
M  V30 2462 C 224.893 -1.6354 2.96602 0
M  V30 2463 C 223.939 -1.17005 4.10137 0
M  V30 2464 S 224.772 -0.13333 5.35334 0
M  V30 2465 C 225.928 -1.31638 6.119 0
M  V30 2466 H 226.161 0.148883 2.96927 0
M  V30 2467 H 223.694 0.195713 1.53155 0
M  V30 2468 H 225.652 -2.31074 3.39286 0
M  V30 2469 H 224.313 -2.21324 2.22878 0
M  V30 2470 H 223.506 -2.05005 4.60422 0
M  V30 2471 H 223.108 -0.573319 3.6958 0
M  V30 2472 H 225.4 -2.23957 6.39413 0
M  V30 2473 H 226.343 -0.854014 7.02931 0
M  V30 2474 H 226.751 -1.54321 5.42997 0
M  V30 2475 N 226.149 -1.5696 0.141893 0
M  V30 2476 C 227.081 -2.13619 -0.830627 0
M  V30 2477 C 228.094 -1.08439 -1.21428 0
M  V30 2478 O 229.283 -1.35734 -1.15925 0
M  V30 2479 C 226.383 -2.63978 -2.12529 0
M  V30 2480 C 225.556 -3.93504 -1.9098 0
M  V30 2481 C 224.615 -4.29225 -3.04388 0
M  V30 2482 O 223.641 -4.97641 -2.76302 0
M  V30 2483 N 224.843 -3.88393 -4.31429 0
M  V30 2484 H 227.608 -2.97691 -0.34641 0
M  V30 2485 H 225.169 -1.61846 -0.0418375 0
M  V30 2486 H 227.161 -2.84891 -2.87436 0
M  V30 2487 H 225.731 -1.84659 -2.52229 0
M  V30 2488 H 224.951 -3.81269 -1.00139 0
M  V30 2489 H 226.239 -4.78154 -1.73914 0
M  V30 2490 H 225.637 -3.33257 -4.57117 0
M  V30 2491 H 224.194 -4.14368 -5.03133 0
M  V30 2492 N 227.627 0.131896 -1.57047 0
M  V30 2493 C 228.876 0.84044 -1.83356 0
M  V30 2494 C 229.189 1.81646 -0.725535 0
M  V30 2495 O 230.395 2.57025 -0.874659 0
M  V30 2496 C 228.851 1.54528 -3.25037 0
M  V30 2497 C 228.459 0.610902 -4.43815 0
M  V30 2498 C 230.203 2.23972 -3.60606 0
M  V30 2499 C 228.11 1.31823 -5.76521 0
M  V30 2500 H 227.04 0.317599 -0.683847 0
M  V30 2501 H 229.691 0.0931561 -1.83263 0
M  V30 2502 H 228.073 2.33873 -3.19561 0
M  V30 2503 H 229.247 -0.148407 -4.60561 0
M  V30 2504 H 227.562 0.0241016 -4.16393 0
M  V30 2505 H 230.159 2.77558 -4.57018 0
M  V30 2506 H 230.502 3.01173 -2.87403 0
M  V30 2507 H 231.035 1.51529 -3.6781 0
M  V30 2508 H 227.774 0.587771 -6.52859 0
M  V30 2509 H 227.294 2.04987 -5.63685 0
M  V30 2510 H 228.973 1.855 -6.19838 0
M  V30 2511 N 229.106 1.52395 0.401703 0
M  V30 2512 C 230.353 1.66817 1.14796 0
M  V30 2513 C 230.681 0.401772 1.90305 0
M  V30 2514 O 229.936 -0.615487 1.85769 0
M  V30 2515 C 230.235 2.84578 2.16217 0
M  V30 2516 C 229.901 4.22513 1.5746 0
M  V30 2517 C 228.563 4.60029 1.41161 0
M  V30 2518 C 230.915 5.0844 1.14622 0
M  V30 2519 C 228.243 5.81144 0.80552 0
M  V30 2520 C 230.595 6.30167 0.55428 0
M  V30 2521 C 229.259 6.66426 0.378482 0
M  V30 2522 H 228.529 0.610428 0.420069 0
M  V30 2523 H 231.176 1.86512 0.434212 0
M  V30 2524 H 229.481 2.59248 2.93764 0
M  V30 2525 H 231.178 2.92933 2.73845 0
M  V30 2526 H 227.768 3.92953 1.71132 0
M  V30 2527 H 231.952 4.80034 1.26021 0
M  V30 2528 H 227.208 6.07855 0.657399 0
M  V30 2529 H 231.382 6.96071 0.213983 0
M  V30 2530 H 229.009 7.60143 -0.0932606 0
M  V30 2531 N 230.584 -0.659388 1.43143 0
M  V30 2532 C 231.83 -1.42145 1.44647 0
M  V30 2533 C 232.163 -1.9408 0.0681907 0
M  V30 2534 O 231.438 -1.71899 -0.910007 0
M  V30 2535 C 231.721 -2.60735 2.48373 0
M  V30 2536 C 231.574 -2.14332 3.95451 0
M  V30 2537 C 232.893 -3.62951 2.48906 0
M  V30 2538 H 230.012 -0.51552 0.526696 0
M  V30 2539 H 232.654 -0.748069 1.74654 0
M  V30 2540 H 230.804 -3.18184 2.22916 0
M  V30 2541 H 232.476 -1.61932 4.31944 0
M  V30 2542 H 230.719 -1.4576 4.08578 0
M  V30 2543 H 231.39 -2.99583 4.63631 0
M  V30 2544 H 233.866 -3.1525 2.71582 0
M  V30 2545 H 232.742 -4.43487 3.23435 0
M  V30 2546 H 233.003 -4.15126 1.52061 0
M  V30 2547 N 232.062 -1.29571 -0.897171 0
M  V30 2548 C 233.009 -1.14916 -2.00158 0
M  V30 2549 C 233.979 -0.0418149 -1.66047 0
M  V30 2550 O 235.164 -0.209793 -1.89643 0
M  V30 2551 C 232.304 -0.834307 -3.34863 0
M  V30 2552 C 231.417 -2.02234 -3.8174 0
M  V30 2553 C 230.552 -1.64664 -5.05034 0
M  V30 2554 C 229.591 -2.80033 -5.44286 0
M  V30 2555 N 228.728 -2.42843 -6.58765 0
M  V30 2556 H 233.568 -2.09403 -2.12025 0
M  V30 2557 H 231.105 -1.042 -1.0383 0
M  V30 2558 H 233.063 -0.632436 -4.12379 0
M  V30 2559 H 231.693 0.0736656 -3.22716 0
M  V30 2560 H 230.745 -2.33583 -3.00238 0
M  V30 2561 H 232.057 -2.88673 -4.06779 0
M  V30 2562 H 231.211 -1.4078 -5.9014 0
M  V30 2563 H 229.95 -0.753766 -4.8184 0
M  V30 2564 H 228.955 -3.04596 -4.57713 0
M  V30 2565 H 230.18 -3.69989 -5.6946 0
M  V30 2566 H 228.126 -1.56046 -6.3717 0
M  V30 2567 H 228.043 -3.22815 -6.83613 0
M  V30 2568 H 229.311 -2.22285 -7.47134 0
M  V30 2569 N 233.54 1.10788 -1.12088 0
M  V30 2570 C 234.768 1.86461 -0.896651 0
M  V30 2571 C 235.183 1.80492 0.553912 0
M  V30 2572 O 234.54 1.19102 1.38278 0
M  V30 2573 C 234.591 3.35006 -1.35843 0
M  V30 2574 O 234.312 3.40866 -2.75213 0
M  V30 2575 C 235.813 4.27565 -1.1706 0
M  V30 2576 H 233.033 0.589425 -0.320654 0
M  V30 2577 H 235.577 1.40076 -1.48993 0
M  V30 2578 H 233.732 3.7887 -0.808458 0
M  V30 2579 H 234.146 4.33411 -2.9539 0
M  V30 2580 H 235.62 5.30007 -1.54263 0
M  V30 2581 H 236.097 4.3906 -0.110814 0
M  V30 2582 H 236.703 3.89501 -1.70789 0
M  V30 2583 N 235.018 0.912232 1.28515 0
M  V30 2584 C 235.948 0.416403 2.29757 0
M  V30 2585 C 236.929 -0.515194 1.6211 0
M  V30 2586 O 238.114 -0.423253 1.89532 0
M  V30 2587 C 235.244 -0.34572 3.45575 0
M  V30 2588 C 234.198 0.496599 4.25109 0
M  V30 2589 C 233.524 -0.393771 5.33248 0
M  V30 2590 C 234.824 1.75307 4.92001 0
M  V30 2591 H 236.518 1.26249 2.7148 0
M  V30 2592 H 234.064 0.608515 1.30511 0
M  V30 2593 H 236.017 -0.703422 4.15488 0
M  V30 2594 H 234.741 -1.2257 3.02728 0
M  V30 2595 H 233.4 0.8368 3.56922 0
M  V30 2596 H 233.048 -1.27225 4.86644 0
M  V30 2597 H 232.748 0.166209 5.87365 0
M  V30 2598 H 234.272 -0.747389 6.06009 0
M  V30 2599 H 235.686 1.46437 5.54283 0
M  V30 2600 H 234.083 2.25534 5.56106 0
M  V30 2601 H 235.153 2.48176 4.16577 0
M  V30 2602 N 236.496 -1.42363 0.676048 0
M  V30 2603 C 237.724 -2.05859 0.207268 0
M  V30 2604 C 238.139 -1.50796 -1.13605 0
M  V30 2605 O 237.496 -0.648265 -1.70598 0
M  V30 2606 C 237.547 -3.61248 0.134975 0
M  V30 2607 O 237.268 -4.1427 1.42521 0
M  V30 2608 C 238.769 -4.41859 -0.357151 0
M  V30 2609 H 235.989 -0.663431 0.100503 0
M  V30 2610 H 238.533 -1.82479 0.923136 0
M  V30 2611 H 236.688 -3.83735 -0.531588 0
M  V30 2612 H 237.102 -5.0815 1.29939 0
M  V30 2613 H 238.576 -5.50847 -0.356641 0
M  V30 2614 H 239.053 -4.16536 -1.39264 0
M  V30 2615 H 239.659 -4.24392 0.27772 0
M  V30 2616 N 237.974 -0.419461 -1.51915 0
M  V30 2617 C 239.222 0.152637 -2.01523 0
M  V30 2618 C 239.543 1.44762 -1.30649 0
M  V30 2619 O 238.813 1.90997 -0.435535 0
M  V30 2620 H 237.393 0.0593966 -0.744635 0
M  V30 2621 H 240.055 -0.558073 -1.86739 0
M  V30 2622 H 239.151 0.341369 -3.10227 0
M  V30 2623 N 239.452 1.56882 -0.150215 0
M  V30 2624 C 240.399 2.16922 0.788244 0
M  V30 2625 C 241.369 1.10303 1.24187 0
M  V30 2626 O 242.554 1.38359 1.31383 0
M  V30 2627 C 239.694 2.79754 2.02068 0
M  V30 2628 C 238.807 4.00775 1.61257 0
M  V30 2629 C 237.942 4.51595 2.79705 0
M  V30 2630 C 236.981 5.65074 2.35282 0
M  V30 2631 N 236.118 6.10499 3.4675 0
M  V30 2632 H 240.958 2.96779 0.269444 0
M  V30 2633 H 238.495 1.46599 0.12128 0
M  V30 2634 H 240.453 3.14329 2.74323 0
M  V30 2635 H 239.083 2.02536 2.51354 0
M  V30 2636 H 238.135 3.72158 0.787553 0
M  V30 2637 H 239.447 4.82978 1.24633 0
M  V30 2638 H 238.601 4.88242 3.60145 0
M  V30 2639 H 237.34 3.68406 3.19576 0
M  V30 2640 H 236.345 5.28 1.53283 0
M  V30 2641 H 237.57 6.50052 1.96493 0
M  V30 2642 H 235.516 5.30243 3.86236 0
M  V30 2643 H 235.433 6.87637 3.14152 0
M  V30 2644 H 236.701 6.51791 4.27537 0
M  V30 2645 N 240.93 -0.123565 1.57115 0
M  V30 2646 C 242.158 -0.846461 1.88793 0
M  V30 2647 C 242.573 -1.73652 0.740976 0
M  V30 2648 O 241.93 -1.80207 -0.288393 0
M  V30 2649 C 241.981 -1.6837 3.19897 0
M  V30 2650 O 241.702 -0.829477 4.30176 0
M  V30 2651 C 243.203 -2.51214 3.65248 0
M  V30 2652 H 240.423 -0.243573 0.625231 0
M  V30 2653 H 242.967 -0.109324 2.04208 0
M  V30 2654 H 241.122 -2.37364 3.06165 0
M  V30 2655 H 241.536 -1.40651 5.0529 0
M  V30 2656 H 243.01 -3.05497 4.59756 0
M  V30 2657 H 243.487 -3.28359 2.9168 0
M  V30 2658 H 244.093 -1.8747 3.81752 0
M  V30 2659 N 242.408 -1.52605 -0.393616 0
M  V30 2660 C 243.657 -1.66649 -1.13627 0
M  V30 2661 C 243.97 -0.410364 -1.91247 0
M  V30 2662 O 245.176 -0.430854 -2.68059 0
M  V30 2663 C 243.632 -2.9449 -2.06891 0
M  V30 2664 C 243.24 -4.27266 -1.34714 0
M  V30 2665 C 244.984 -3.17899 -2.81319 0
M  V30 2666 C 242.891 -5.46217 -2.26717 0
M  V30 2667 H 241.821 -0.62084 -0.427871 0
M  V30 2668 H 244.472 -1.791 -0.399428 0
M  V30 2669 H 242.854 -2.75774 -2.84191 0
M  V30 2670 H 244.028 -4.56518 -0.626714 0
M  V30 2671 H 242.343 -4.10081 -0.722643 0
M  V30 2672 H 244.94 -4.03949 -3.50328 0
M  V30 2673 H 245.283 -2.32777 -3.45139 0
M  V30 2674 H 245.816 -3.37159 -2.11113 0
M  V30 2675 H 242.555 -6.33733 -1.67521 0
M  V30 2676 H 242.075 -5.21283 -2.96689 0
M  V30 2677 H 243.754 -5.7991 -2.86903 0
M  V30 2678 N 243.887 0.651787 -1.4349 0
M  V30 2679 C 245.115 1.43937 -1.48626 0
M  V30 2680 C 245.53 1.8851 -0.104587 0
M  V30 2681 O 244.887 1.5958 0.885464 0
M  V30 2682 C 244.938 2.6734 -2.43334 0
M  V30 2683 O 244.659 2.24631 -3.76128 0
M  V30 2684 C 246.16 3.60683 -2.57726 0
M  V30 2685 H 243.38 0.44213 -0.504739 0
M  V30 2686 H 245.924 0.798944 -1.88248 0
M  V30 2687 H 244.079 3.2752 -2.06904 0
M  V30 2688 H 244.493 3.04485 -4.2707 0
M  V30 2689 H 245.967 4.43933 -3.28067 0
M  V30 2690 H 246.444 4.08126 -1.62265 0
M  V30 2691 H 247.05 3.06384 -2.94973 0
M  V30 2692 N 245.365 1.30045 0.890287 0
M  V30 2693 C 246.295 1.18541 2.01172 0
M  V30 2694 C 247.276 0.0773356 1.69924 0
M  V30 2695 O 248.461 0.25845 1.92473 0
M  V30 2696 C 245.591 0.870941 3.36202 0
M  V30 2697 C 244.545 1.93637 3.81692 0
M  V30 2698 C 243.871 1.475 5.13953 0
M  V30 2699 C 245.171 3.34666 4.00994 0
M  V30 2700 H 246.865 2.12359 2.11054 0
M  V30 2701 H 244.411 1.02238 1.01407 0
M  V30 2702 H 246.364 0.777141 4.14172 0
M  V30 2703 H 245.088 -0.102926 3.26438 0
M  V30 2704 H 243.747 2.01972 3.05946 0
M  V30 2705 H 243.395 0.489551 5.00612 0
M  V30 2706 H 243.095 2.1876 5.4536 0
M  V30 2707 H 244.619 1.39489 5.94454 0
M  V30 2708 H 246.033 3.2912 4.69417 0
M  V30 2709 H 244.43 4.03966 4.43769 0
M  V30 2710 H 245.5 3.76949 3.05021 0
M  V30 2711 N 246.843 -1.10192 1.12674 0
M  V30 2712 C 247.753 -2.20172 0.810026 0
M  V30 2713 C 248.769 -1.72821 -0.202188 0
M  V30 2714 O 249.945 -2.01369 -0.0351691 0
M  V30 2715 C 247.01 -3.45631 0.272007 0
M  V30 2716 C 246.071 -4.07704 1.34447 0
M  V30 2717 C 245.304 -5.27175 0.832029 0
M  V30 2718 O 245.527 -5.69425 -0.333284 0
M  V30 2719 O 244.461 -5.80168 1.60277 0
M  V30 2720 H 248.287 -2.49701 1.72867 0
M  V30 2721 H 245.872 -1.18977 0.903597 0
M  V30 2722 H 247.754 -4.21394 -0.0230219 0
M  V30 2723 H 246.429 -3.17723 -0.619164 0
M  V30 2724 H 245.336 -3.33614 1.6927 0
M  V30 2725 H 246.669 -4.3982 2.2095 0
M  V30 2726 N 248.321 -0.919034 -1.28029 0
M  V30 2727 C 249.567 -0.555757 -1.95036 0
M  V30 2728 C 249.9 0.899198 -1.72128 0
M  V30 2729 O 249.175 1.64023 -1.04531 0
M  V30 2730 C 249.458 -0.872024 -3.49382 0
M  V30 2731 C 249.311 -2.3801 -3.81669 0
M  V30 2732 C 250.63 -0.37185 -4.38526 0
M  V30 2733 H 247.749 -0.203386 -0.708381 0
M  V30 2734 H 250.391 -1.14924 -1.51303 0
M  V30 2735 H 248.541 -0.366946 -3.86763 0
M  V30 2736 H 250.213 -2.9562 -3.54128 0
M  V30 2737 H 248.456 -2.83289 -3.28526 0
M  V30 2738 H 249.127 -2.55192 -4.8947 0
M  V30 2739 H 251.603 -0.804602 -4.08247 0
M  V30 2740 H 250.479 -0.622173 -5.45362 0
M  V30 2741 H 250.74 0.727934 -4.36066 0
M  V30 2742 N 249.799 1.42003 -0.683588 0
M  V30 2743 C 250.709 2.34597 -0.0109075 0
M  V30 2744 C 251.725 1.55576 0.779245 0
M  V30 2745 O 252.901 1.88107 0.719555 0
M  V30 2746 C 249.966 3.34199 0.922588 0
M  V30 2747 C 249.027 4.29115 0.125984 0
M  V30 2748 C 248.26 5.23959 1.01502 0
M  V30 2749 O 248.483 5.23952 2.25456 0
M  V30 2750 O 247.417 6.00053 0.47111 0
M  V30 2751 H 251.243 2.93675 -0.773853 0
M  V30 2752 H 248.828 1.42654 -0.443861 0
M  V30 2753 H 250.71 3.95365 1.45823 0
M  V30 2754 H 249.385 2.77582 1.66523 0
M  V30 2755 H 248.292 3.71335 -0.453969 0
M  V30 2756 H 249.625 4.88798 -0.577736 0
M  V30 2757 N 251.277 0.427512 1.51691 0
M  V30 2758 C 252.688 -0.0378867 1.86662 0
M  V30 2759 C 253.039 -1.42819 1.34525 0
M  V30 2760 O 252.164 -2.05037 0.692014 0
M  V30 2761 C 252.759 -0.0755266 3.38716 0
M  V30 2762 C 251.318 -0.485309 3.73258 0
M  V30 2763 C 250.465 0.328399 2.75349 0
M  V30 2764 H 253.416 0.64379 1.45055 0
M  V30 2765 H 253.437 -0.887056 3.70016 0
M  V30 2766 H 252.949 0.936487 3.76632 0
M  V30 2767 H 251.05 -1.50329 3.40928 0
M  V30 2768 H 251.163 -0.21693 4.78609 0
M  V30 2769 H 249.527 -0.211905 2.53817 0
M  V30 2770 H 250.31 1.3391 3.16106 0
M  V30 2771 N 252.755 -1.56801 0.158532 0
M  V30 2772 C 253.98 -2.01295 -0.499516 0
M  V30 2773 C 254.405 -1.03799 -1.56867 0
M  V30 2774 O 253.763 -0.0155162 -1.81293 0
M  V30 2775 C 253.811 -3.44469 -1.06647 0
M  V30 2776 O 252.915 -3.50012 -2.18095 0
M  V30 2777 H 252.256 -0.652884 -0.12099 0
M  V30 2778 H 254.786 -2.02958 0.258661 0
M  V30 2779 H 254.796 -3.8351 -1.39227 0
M  V30 2780 H 253.471 -4.14932 -0.283581 0
M  V30 2781 H 252.048 -3.22822 -1.86656 0
M  V30 2782 N 254.233 0.115231 -1.57178 0
M  V30 2783 C 255.51 0.852873 -1.76027 0
M  V30 2784 C 255.89 1.97892 -0.73498 0
M  V30 2785 O 255.238 2.27232 0.24036 0
M  V30 2786 C 255.448 1.36608 -3.21153 0
M  V30 2787 C 256.796 1.81692 -3.83762 0
M  V30 2788 O 257.82 1.46278 -3.24779 0
M  V30 2789 O 256.679 2.47104 -4.87444 0
M  V30 2790 H 253.773 0.405296 -0.720877 0
M  V30 2791 H 256.319 0.0986785 -1.69413 0
M  V30 2792 H 255.091 0.558357 -3.87296 0
M  V30 2793 H 254.714 2.18287 -3.3232 0
M  V30 2794 N 255.711 1.52812 0.385517 0
M  V30 2795 C 256.939 1.71907 1.15133 0
M  V30 2796 C 257.354 0.439004 1.83625 0
M  V30 2797 O 256.711 -0.586765 1.7281 0
M  V30 2798 C 256.762 2.87099 2.19673 0
M  V30 2799 O 256.483 4.10151 1.53973 0
M  V30 2800 C 257.984 3.17902 3.08955 0
M  V30 2801 H 255.204 0.575479 0.345057 0
M  V30 2802 H 257.748 1.99476 0.45052 0
M  V30 2803 H 255.903 2.61982 2.85384 0
M  V30 2804 H 256.317 4.74514 2.23465 0
M  V30 2805 H 257.791 4.01959 3.7833 0
M  V30 2806 H 258.268 2.3243 3.72657 0
M  V30 2807 H 258.874 3.44871 2.48885 0
M  V30 2808 N 257.189 -0.644168 1.43834 0
M  V30 2809 C 258.438 -1.39985 1.45214 0
M  V30 2810 C 258.751 -1.95421 0.0835494 0
M  V30 2811 O 259.957 -2.71488 -0.0251748 0
M  V30 2812 C 258.413 -2.53384 2.55587 0
M  V30 2813 C 258.021 -2.04517 3.98594 0
M  V30 2814 C 259.765 -3.30685 2.66172 0
M  V30 2815 C 257.672 -3.1518 5.00416 0
M  V30 2816 H 256.602 -0.526005 0.540218 0
M  V30 2817 H 259.253 -0.694367 1.69855 0
M  V30 2818 H 257.635 -3.26446 2.24163 0
M  V30 2819 H 258.809 -1.38405 4.39523 0
M  V30 2820 H 257.124 -1.40068 3.92135 0
M  V30 2821 H 259.721 -4.13158 3.39418 0
M  V30 2822 H 260.064 -3.79312 1.71546 0
M  V30 2823 H 260.597 -2.64708 2.96942 0
M  V30 2824 H 257.336 -2.71511 5.96625 0
M  V30 2825 H 256.856 -3.79974 4.64091 0
M  V30 2826 H 258.535 -3.80166 5.23529 0
M  V30 2827 N 258.668 -1.30515 -0.883378 0
M  V30 2828 C 259.578 -1.18959 -2.02203 0
M  V30 2829 C 260.594 -0.109172 -1.73657 0
M  V30 2830 O 261.77 -0.324413 -1.9877 0
M  V30 2831 C 258.835 -0.883871 -3.35244 0
M  V30 2832 C 257.896 -2.04982 -3.77201 0
M  V30 2833 C 257.129 -1.75859 -5.03894 0
M  V30 2834 O 257.352 -0.687276 -5.66244 0
M  V30 2835 O 256.286 -2.61146 -5.42297 0
M  V30 2836 H 260.112 -2.14616 -2.1488 0
M  V30 2837 H 257.697 -1.10124 -1.0096 0
M  V30 2838 H 259.579 -0.728644 -4.15053 0
M  V30 2839 H 258.254 0.0427798 -3.23672 0
M  V30 2840 H 257.161 -2.26038 -2.9809 0
M  V30 2841 H 258.494 -2.95825 -3.93381 0
M  V30 2842 N 260.146 1.09593 -1.13257 0
M  V30 2843 C 261.094 2.18271 -0.803783 0
M  V30 2844 C 262.088 1.68054 0.213148 0
M  V30 2845 O 263.294 1.79862 0.0704699 0
M  V30 2846 H 259.669 0.711949 -0.242143 0
M  V30 2847 H 261.64 2.43235 -1.72856 0
M  V30 2848 C 260.389 3.46536 -0.28424 0
M  V30 2849 H 259.712 3.85545 -1.05807 0
M  V30 2850 H 261.152 4.23899 -0.0925945 0
M  V30 2851 C 259.611 3.22036 0.989684 0
M  V30 2852 O 260.141 3.44509 2.06584 0
M  V30 2853 N 258.347 2.7565 0.920086 0
M  V30 2854 H 257.894 2.57562 0.0442019 0
M  V30 2855 H 257.852 2.59635 1.77306 0
M  V30 2856 N 261.624 0.925811 1.2754 0
M  V30 2857 C 262.87 0.566092 1.94739 0
M  V30 2858 C 263.203 -0.890057 1.72603 0
M  V30 2859 O 262.478 -1.63467 1.05399 0
M  V30 2860 C 262.761 0.89054 3.48915 0
M  V30 2861 C 262.614 2.4003 3.80402 0
M  V30 2862 C 263.933 0.395101 4.38323 0
M  V30 2863 H 261.052 0.20714 0.707292 0
M  V30 2864 H 263.694 1.15725 1.50691 0
M  V30 2865 H 261.844 0.387452 3.86563 0
M  V30 2866 H 263.516 2.97494 3.52555 0
M  V30 2867 H 261.759 2.85028 3.2702 0
M  V30 2868 H 262.43 2.57785 4.8811 0
M  V30 2869 H 264.906 0.826241 4.07814 0
M  V30 2870 H 263.782 0.651086 5.45025 0
M  V30 2871 H 264.043 -0.704798 4.36446 0
M  V30 2872 N 263.102 -1.41638 0.69111 0
M  V30 2873 C 264.049 -2.30789 0.0229705 0
M  V30 2874 C 265.019 -1.46863 -0.775911 0
M  V30 2875 O 266.204 -1.75661 -0.74485 0
M  V30 2876 C 263.344 -3.32868 -0.910666 0
M  V30 2877 C 262.457 -4.31875 -0.103874 0
M  V30 2878 C 261.592 -5.21024 -1.03475 0
M  V30 2879 C 260.631 -6.11702 -0.220598 0
M  V30 2880 N 259.768 -6.93349 -1.10504 0
M  V30 2881 H 264.608 -2.87366 0.788978 0
M  V30 2882 H 262.145 -1.41535 0.400794 0
M  V30 2883 H 264.103 -3.90596 -1.46597 0
M  V30 2884 H 262.733 -2.77851 -1.64312 0
M  V30 2885 H 261.785 -3.76131 0.568285 0
M  V30 2886 H 263.097 -4.96003 0.527504 0
M  V30 2887 H 262.251 -5.83565 -1.65943 0
M  V30 2888 H 260.99 -4.57112 -1.69999 0
M  V30 2889 H 259.995 -5.48215 0.417187 0
M  V30 2890 H 261.22 -6.77668 0.440784 0
M  V30 2891 H 259.166 -6.3205 -1.75638 0
M  V30 2892 H 259.083 -7.54146 -0.529125 0
M  V30 2893 H 260.351 -7.60362 -1.71667 0
M  V30 2894 N 264.58 -0.43555 -1.51462 0
M  V30 2895 C 265.543 0.365137 -2.26273 0
M  V30 2896 C 266.543 0.951227 -1.29647 0
M  V30 2897 O 267.733 0.825958 -1.53374 0
M  V30 2898 C 264.865 1.51645 -3.05314 0
M  V30 2899 H 266.058 -0.290474 -2.9849 0
M  V30 2900 H 263.611 -0.188676 -1.55157 0
M  V30 2901 H 264.346 2.20816 -2.3751 0
M  V30 2902 H 264.131 1.10238 -3.76284 0
M  V30 2903 H 265.621 2.08218 -3.61987 0
M  V30 2904 N 266.058 1.56714 -0.166846 0
M  V30 2905 C 267.005 2.17746 0.765193 0
M  V30 2906 C 267.975 1.11614 1.23011 0
M  V30 2907 O 269.16 1.39745 1.29908 0
M  V30 2908 C 266.3 2.81882 1.9909 0
M  V30 2909 C 265.413 4.02462 1.56997 0
M  V30 2910 C 264.548 4.54537 2.749 0
M  V30 2911 C 263.587 5.67538 2.29275 0
M  V30 2912 N 262.724 6.14142 3.40255 0
M  V30 2913 H 267.564 2.97048 0.237952 0
M  V30 2914 H 265.101 1.4672 0.105725 0
M  V30 2915 H 267.059 3.17221 2.70974 0
M  V30 2916 H 265.689 2.05191 2.49192 0
M  V30 2917 H 264.741 3.72973 0.748037 0
M  V30 2918 H 266.053 4.84273 1.19503 0
M  V30 2919 H 265.207 4.92035 3.54946 0
M  V30 2920 H 263.946 3.71774 3.1565 0
M  V30 2921 H 262.951 5.29597 1.47674 0
M  V30 2922 H 264.176 6.52099 1.89588 0
M  V30 2923 H 262.122 5.3431 3.8059 0
M  V30 2924 H 262.039 6.9093 3.06841 0
M  V30 2925 H 263.307 6.56289 4.206 0
M  V30 2926 N 267.536 -0.106894 1.57237 0
M  V30 2927 C 268.785 -0.811163 1.8467 0
M  V30 2928 C 269.098 -1.80469 0.754342 0
M  V30 2929 O 270.304 -2.55601 0.915439 0
M  V30 2930 C 268.76 -1.49337 3.27454 0
M  V30 2931 C 268.368 -0.540217 4.44731 0
M  V30 2932 C 270.112 -2.18206 3.64124 0
M  V30 2933 C 268.019 -1.22634 5.78545 0
M  V30 2934 H 266.949 -0.306679 0.688813 0
M  V30 2935 H 269.6 -0.0639887 1.83388 0
M  V30 2936 H 267.982 -2.2876 3.23241 0
M  V30 2937 H 269.156 0.221659 4.60267 0
M  V30 2938 H 267.471 0.042146 4.16379 0
M  V30 2939 H 270.068 -2.70253 4.61376 0
M  V30 2940 H 270.411 -2.96562 2.92158 0
M  V30 2941 H 270.944 -1.45658 3.70174 0
M  V30 2942 H 267.683 -0.483832 6.53712 0
M  V30 2943 H 267.203 -1.95993 5.66874 0
M  V30 2944 H 268.882 -1.75615 6.2271 0
M  V30 2945 N 269.014 -1.53014 -0.377408 0
M  V30 2946 C 269.946 -1.74884 -1.48149 0
M  V30 2947 C 270.959 -0.629433 -1.5014 0
M  V30 2948 O 272.148 -0.905416 -1.53833 0
M  V30 2949 C 269.248 -1.80299 -2.86959 0
M  V30 2950 C 268.421 -3.09776 -3.08801 0
M  V30 2951 C 267.48 -3.06586 -4.27658 0
M  V30 2952 O 266.506 -3.80419 -4.23403 0
M  V30 2953 N 267.708 -2.26578 -5.34455 0
M  V30 2954 H 270.473 -2.70147 -1.29771 0
M  V30 2955 H 268.034 -1.51646 -0.56703 0
M  V30 2956 H 270.026 -1.75657 -3.64591 0
M  V30 2957 H 268.596 -0.92372 -2.98641 0
M  V30 2958 H 267.816 -3.27815 -2.18931 0
M  V30 2959 H 269.104 -3.95366 -3.20255 0
M  V30 2960 H 268.502 -1.66081 -5.40771 0
M  V30 2961 H 267.059 -2.27766 -6.10709 0
M  V30 2962 N 270.492 0.636531 -1.44174 0
M  V30 2963 C 271.769 1.39463 -1.37148 0
M  V30 2964 C 272.149 2.11082 -0.027507 0
M  V30 2965 O 271.497 2.05954 0.989716 0
M  V30 2966 C 271.707 2.36552 -2.56601 0
M  V30 2967 C 273.055 3.00048 -3.00427 0
M  V30 2968 O 274.079 2.46878 -2.56767 0
M  V30 2969 O 272.938 3.96488 -3.76111 0
M  V30 2970 H 270.032 0.623903 -0.542839 0
M  V30 2971 H 272.578 0.662039 -1.56253 0
M  V30 2972 H 271.35 1.82692 -3.46034 0
M  V30 2973 H 270.973 3.17236 -2.39681 0
M  V30 2974 N 271.97 1.30982 0.876444 0
M  V30 2975 C 272.917 1.18085 1.98304 0
M  V30 2976 C 273.887 0.0682263 1.6596 0
M  V30 2977 O 275.072 0.239937 1.89285 0
M  V30 2978 C 272.212 0.887475 3.33493 0
M  V30 2979 C 271.325 2.08281 3.78475 0
M  V30 2980 C 270.46 1.72678 5.0235 0
M  V30 2981 C 269.499 2.88657 5.39762 0
M  V30 2982 N 268.636 2.53292 6.54819 0
M  V30 2983 H 273.476 2.1275 2.08666 0
M  V30 2984 H 271.013 1.05839 1.02159 0
M  V30 2985 H 272.971 0.697961 4.1132 0
M  V30 2986 H 271.601 -0.022315 3.22792 0
M  V30 2987 H 270.653 2.3833 2.96484 0
M  V30 2988 H 271.965 2.95108 4.02135 0
M  V30 2989 H 271.119 1.50151 5.87826 0
M  V30 2990 H 269.858 0.830327 4.8058 0
M  V30 2991 H 268.863 3.1184 4.52809 0
M  V30 2992 H 270.088 3.79002 5.63502 0
M  V30 2993 H 268.034 1.66163 6.34607 0
M  V30 2994 H 267.951 3.3365 6.7839 0
M  V30 2995 H 269.219 2.34143 7.43503 0
M  V30 2996 N 273.449 -1.08991 1.13837 0
M  V30 2997 C 274.359 -2.19301 0.833333 0
M  V30 2998 C 275.375 -1.73026 -0.183847 0
M  V30 2999 O 276.551 -2.01395 -0.0138092 0
M  V30 3000 C 273.616 -3.45323 0.308651 0
M  V30 3001 C 272.677 -4.06255 1.38764 0
M  V30 3002 C 271.91 -5.26262 0.887896 0
M  V30 3003 O 272.133 -5.69747 -0.27287 0
M  V30 3004 O 271.067 -5.78435 1.66421 0
M  V30 3005 H 274.893 -2.47854 1.75506 0
M  V30 3006 H 272.478 -1.18012 0.916166 0
M  V30 3007 H 274.36 -4.21394 0.0216739 0
M  V30 3008 H 273.035 -3.18362 -0.585431 0
M  V30 3009 H 271.942 -3.318 1.72799 0
M  V30 3010 H 273.275 -4.37452 2.25602 0
M  V30 3011 N 274.927 -0.932562 -1.27047 0
M  V30 3012 C 276.175 -0.574422 -1.93765 0
M  V30 3013 C 276.496 0.887993 -1.73608 0
M  V30 3014 O 275.766 1.62999 -1.08665 0
M  V30 3015 H 274.346 -0.209451 -0.717035 0
M  V30 3016 H 277.008 -1.18601 -1.5466 0
M  V30 3017 H 276.104 -0.784841 -3.02071 0
M  V30 3018 N 276.405 1.4127 -0.698611 0
M  V30 3019 C 277.654 2.00408 -0.227949 0
M  V30 3020 C 277.967 1.55981 1.18023 0
M  V30 3021 O 279.173 2.07699 1.74852 0
M  V30 3022 C 277.629 3.58129 -0.356636 0
M  V30 3023 C 277.237 4.11536 -1.77037 0
M  V30 3024 C 278.981 4.24466 0.0540969 0
M  V30 3025 C 276.888 5.61701 -1.85055 0
M  V30 3026 H 275.818 0.749586 -0.0814657 0
M  V30 3027 H 278.469 1.61713 -0.867249 0
M  V30 3028 H 276.851 3.94442 0.350965 0
M  V30 3029 H 278.025 3.86636 -2.50698 0
M  V30 3030 H 276.34 3.57736 -2.13105 0
M  V30 3031 H 278.937 5.34698 0.0146723 0
M  V30 3032 H 279.28 4.01687 1.09332 0
M  V30 3033 H 279.813 3.93198 -0.603337 0
M  V30 3034 H 276.552 5.89312 -2.8704 0
M  V30 3035 H 276.072 5.88519 -1.15783 0
M  V30 3036 H 277.751 6.26524 -1.61484 0
M  V30 3037 N 277.883 0.443576 1.51229 0
M  V30 3038 C 279.294 -0.0180867 1.86691 0
M  V30 3039 C 279.645 -1.41384 1.36033 0
M  V30 3040 O 278.77 -2.04291 0.713722 0
M  V30 3041 C 279.365 -0.039597 3.38777 0
M  V30 3042 C 277.924 -0.445692 3.73752 0
M  V30 3043 C 277.071 0.357584 2.74985 0
M  V30 3044 H 280.022 0.659138 1.44364 0
M  V30 3045 H 280.043 -0.847761 3.70936 0
M  V30 3046 H 279.555 0.976382 3.75617 0
M  V30 3047 H 277.656 -1.46704 3.42503 0
M  V30 3048 H 277.769 -0.166155 4.78812 0
M  V30 3049 H 276.133 -0.184973 2.54027 0
M  V30 3050 H 276.916 1.37256 3.14668 0
M  V30 3051 N 279.361 -1.56624 0.175154 0
M  V30 3052 C 280.772 -1.83561 -0.340916 0
M  V30 3053 C 281.123 -1.09511 -1.62794 0
M  V30 3054 O 280.248 -0.349389 -2.13561 0
M  V30 3055 C 280.843 -3.32979 -0.625313 0
M  V30 3056 C 279.402 -3.60399 -1.08581 0
M  V30 3057 C 278.549 -2.77024 -0.123722 0
M  V30 3058 H 281.5 -1.53593 0.399344 0
M  V30 3059 H 281.521 -3.50666 -1.47694 0
M  V30 3060 H 281.033 -3.86847 0.311575 0
M  V30 3061 H 279.134 -3.11945 -2.03767 0
M  V30 3062 H 279.247 -4.68711 -0.992317 0
M  V30 3063 H 277.611 -2.46993 -0.621821 0
M  V30 3064 H 278.394 -3.33674 0.807256 0
M  V30 3065 N 280.839 0.0985539 -1.57292 0
M  V30 3066 C 282.116 0.834155 -1.76921 0
M  V30 3067 C 282.496 1.97101 -0.755928 0
M  V30 3068 O 281.844 2.27474 0.216245 0
M  V30 3069 C 282.054 1.33194 -3.22584 0
M  V30 3070 C 283.402 1.77611 -3.85668 0
M  V30 3071 O 284.426 1.42825 -3.26312 0
M  V30 3072 O 283.285 2.4192 -4.90038 0
M  V30 3073 H 280.379 0.397628 -0.725135 0
M  V30 3074 H 282.925 0.0807044 -1.69508 0
M  V30 3075 H 281.697 0.517248 -3.87866 0
M  V30 3076 H 281.32 2.1475 -3.34616 0
M  V30 3077 N 282.317 1.53212 0.369288 0
M  V30 3078 C 283.249 1.75668 1.47219 0
M  V30 3079 C 284.262 0.637387 1.49804 0
M  V30 3080 O 285.451 0.913561 1.5335 0
M  V30 3081 C 282.551 1.81818 2.85999 0
M  V30 3082 C 281.724 3.11409 3.07153 0
M  V30 3083 C 280.783 3.08849 4.26026 0
M  V30 3084 O 279.809 3.82659 4.2138 0
M  V30 3085 N 281.011 2.29409 5.33246 0
M  V30 3086 H 283.776 2.70832 1.28337 0
M  V30 3087 H 281.337 1.51944 0.55898 0
M  V30 3088 H 283.329 1.77588 3.63655 0
M  V30 3089 H 281.899 0.939544 2.98146 0
M  V30 3090 H 281.119 3.28971 2.1719 0
M  V30 3091 H 282.407 3.97059 3.18154 0
M  V30 3092 H 281.805 1.68946 5.39883 0
M  V30 3093 H 280.362 2.31001 6.09493 0
M  V30 3094 N 283.795 -0.628877 1.44509 0
M  V30 3095 C 284.727 -1.754 1.47538 0
M  V30 3096 C 285.74 -1.58575 0.368506 0
M  V30 3097 O 286.929 -1.66847 0.634376 0
M  V30 3098 C 284.029 -3.1315 1.29577 0
M  V30 3099 C 283.202 -3.56413 2.53551 0
M  V30 3100 C 282.261 -4.7305 2.30457 0
M  V30 3101 O 281.287 -4.81247 3.03957 0
M  V30 3102 N 282.489 -5.64903 1.3366 0
M  V30 3103 H 285.254 -1.73272 2.44534 0
M  V30 3104 H 282.815 -0.813512 1.39977 0
M  V30 3105 H 284.807 -3.88902 1.11971 0
M  V30 3106 H 283.377 -3.09908 0.409371 0
M  V30 3107 H 282.597 -2.70847 2.86419 0
M  V30 3108 H 283.885 -3.82071 3.36005 0
M  V30 3109 H 283.283 -5.60975 0.729604 0
M  V30 3110 H 281.84 -6.40275 1.22032 0
M  V30 3111 N 285.273 -1.31445 -0.869486 0
M  V30 3112 C 286.689 -1.10113 -1.15531 0
M  V30 3113 C 286.889 0.128087 -2.01092 0
M  V30 3114 O 285.945 0.817276 -2.38908 0
M  V30 3115 C 287.258 -2.37291 -1.84698 0
M  V30 3116 C 288.806 -2.42906 -1.97397 0
M  V30 3117 C 289.281 -3.69967 -2.69979 0
M  V30 3118 N 290.772 -3.70864 -2.77514 0
M  V30 3119 C 291.507 -4.65875 -3.34287 0
M  V30 3120 N 291.003 -5.71242 -3.91988 0
M  V30 3121 N 292.796 -4.53394 -3.3225 0
M  V30 3122 H 284.947 -2.1028 -0.299347 0
M  V30 3123 H 287.21 -0.927683 -0.195214 0
M  V30 3124 H 286.916 -3.27078 -1.29278 0
M  V30 3125 H 286.79 -2.47125 -2.84972 0
M  V30 3126 H 289.177 -1.53588 -2.51982 0
M  V30 3127 H 289.258 -2.37036 -0.961643 0
M  V30 3128 H 288.902 -4.59652 -2.16062 0
M  V30 3129 H 288.832 -3.73103 -3.7162 0
M  V30 3130 H 291.323 -2.94697 -2.36563 0
M  V30 3131 H 291.636 -6.39817 -4.33421 0
M  V30 3132 H 289.981 -5.75015 -3.90362 0
M  V30 3133 H 293.172 -3.70252 -2.8641 0
M  V30 3134 H 293.345 -5.27617 -3.76197 0
M  V30 3135 N 286.751 1.08385 -1.14413 0
M  V30 3136 C 287.681 2.17321 -0.854044 0
M  V30 3137 C 288.662 1.69024 0.191049 0
M  V30 3138 O 289.847 1.94141 0.0476779 0
M  V30 3139 C 286.977 3.45719 -0.330983 0
M  V30 3140 C 285.931 4.07409 -1.31155 0
M  V30 3141 C 285.257 5.30762 -0.64778 0
M  V30 3142 C 286.557 4.48665 -2.67388 0
M  V30 3143 H 288.251 2.41845 -1.76498 0
M  V30 3144 H 285.797 1.16233 -0.850051 0
M  V30 3145 H 287.75 4.21241 -0.115645 0
M  V30 3146 H 286.474 3.2075 0.615381 0
M  V30 3147 H 285.133 3.33919 -1.51306 0
M  V30 3148 H 284.781 5.02078 0.304398 0
M  V30 3149 H 284.481 5.72992 -1.30207 0
M  V30 3150 H 286.005 6.08998 -0.441972 0
M  V30 3151 H 287.419 5.15364 -2.51143 0
M  V30 3152 H 285.816 5.01814 -3.29093 0
M  V30 3153 H 286.886 3.60543 -3.24248 0
M  V30 3154 N 288.23 0.939286 1.26551 0
M  V30 3155 C 289.479 0.581601 1.93133 0
M  V30 3156 C 289.792 -0.883224 1.74524 0
M  V30 3157 O 290.998 -1.3502 2.35546 0
M  V30 3158 C 289.454 0.989425 3.46032 0
M  V30 3159 C 289.062 2.47573 3.73379 0
M  V30 3160 C 290.806 0.703544 4.18629 0
M  V30 3161 C 288.713 2.82235 5.19709 0
M  V30 3162 H 287.643 0.213803 0.723052 0
M  V30 3163 H 290.294 1.14167 1.4366 0
M  V30 3164 H 288.676 0.357902 3.94379 0
M  V30 3165 H 289.85 3.15614 3.35744 0
M  V30 3166 H 288.165 2.73471 3.1401 0
M  V30 3167 H 290.762 0.938869 5.26393 0
M  V30 3168 H 291.105 -0.359639 4.14744 0
M  V30 3169 H 291.638 1.2947 3.76141 0
M  V30 3170 H 288.377 3.87509 5.28694 0
M  V30 3171 H 287.897 2.18854 5.58447 0
M  V30 3172 H 289.576 2.70599 5.87695 0
M  V30 3173 N 289.708 -1.40897 0.706093 0
M  V30 3174 C 290.955 -2.01054 0.241531 0
M  V30 3175 C 291.283 -1.55956 -1.16223 0
M  V30 3176 O 290.538 -0.766336 -1.80072 0
M  V30 3177 C 290.837 -3.5646 0.259099 0
M  V30 3178 C 290.503 -4.21106 1.61184 0
M  V30 3179 C 289.165 -4.38479 1.98216 0
M  V30 3180 C 291.517 -4.57256 2.50132 0
M  V30 3181 C 288.845 -4.89282 3.2376 0
M  V30 3182 C 291.197 -5.09454 3.7502 0
M  V30 3183 C 289.861 -5.25037 4.12181 0
M  V30 3184 H 289.131 -0.73571 0.0883825 0
M  V30 3185 H 291.778 -1.68645 0.907257 0
M  V30 3186 H 290.083 -3.88721 -0.490189 0
M  V30 3187 H 291.78 -4.00826 -0.11804 0
M  V30 3188 H 288.37 -4.07966 1.31384 0
M  V30 3189 H 292.554 -4.43479 2.228 0
M  V30 3190 H 287.81 -4.99531 3.52532 0
M  V30 3191 H 291.984 -5.36404 4.44121 0
M  V30 3192 H 289.611 -5.64164 5.09532 0
M  V30 3193 N 291.186 -0.45159 -1.50991 0
M  V30 3194 C 292.149 0.341117 -2.26647 0
M  V30 3195 C 293.149 0.937422 -1.30649 0
M  V30 3196 O 294.339 0.809644 -1.54241 0
M  V30 3197 C 291.471 1.48398 -3.06905 0
M  V30 3198 H 292.664 -0.322117 -2.98165 0
M  V30 3199 H 290.217 -0.205122 -1.54948 0
M  V30 3200 H 290.952 2.18284 -2.39838 0
M  V30 3201 H 290.737 1.06241 -3.77432 0
M  V30 3202 H 292.227 2.04367 -3.64176 0
M  V30 3203 N 292.664 1.56529 -0.183458 0
M  V30 3204 C 293.912 1.96855 0.457452 0
M  V30 3205 C 294.233 1.07104 1.62953 0
M  V30 3206 O 293.503 0.139887 1.954 0
M  V30 3207 H 292.083 0.72693 0.171992 0
M  V30 3208 H 294.745 1.93056 -0.267476 0
M  V30 3209 H 293.841 3.01423 0.809368 0
M  V30 3210 N 294.142 -0.090211 1.57342 0
M  V30 3211 C 295.089 -1.10909 2.02405 0
M  V30 3212 C 296.059 -1.39523 0.901252 0
M  V30 3213 O 297.244 -1.50903 1.1676 0
M  V30 3214 C 294.384 -2.42277 2.45755 0
M  V30 3215 C 293.497 -2.20352 3.71576 0
M  V30 3216 C 292.632 -3.45154 4.03785 0
M  V30 3217 C 291.671 -3.18512 5.22701 0
M  V30 3218 N 290.808 -4.35593 5.50639 0
M  V30 3219 H 295.648 -0.71782 2.89225 0
M  V30 3220 H 293.185 -0.342901 1.43048 0
M  V30 3221 H 295.143 -3.18951 2.68935 0
M  V30 3222 H 293.773 -2.79242 1.61938 0
M  V30 3223 H 292.825 -1.34458 3.55844 0
M  V30 3224 H 294.137 -1.96661 4.58395 0
M  V30 3225 H 293.291 -4.30233 4.27767 0
M  V30 3226 H 292.03 -3.71904 3.15498 0
M  V30 3227 H 291.035 -2.31827 4.98534 0
M  V30 3228 H 292.26 -2.93103 6.12591 0
M  V30 3229 H 290.206 -4.6241 4.6531 0
M  V30 3230 H 290.123 -4.1511 6.31838 0
M  V30 3231 H 291.391 -5.21723 5.7916 0
M  V30 3232 N 295.62 -1.53406 -0.361157 0
M  V30 3233 C 296.552 -1.76446 -1.46286 0
M  V30 3234 C 297.565 -0.645322 -1.49464 0
M  V30 3235 O 298.754 -0.921681 -1.52864 0
M  V30 3236 C 295.854 -1.83332 -2.85031 0
M  V30 3237 C 295.027 -3.13033 -3.05498 0
M  V30 3238 C 294.086 -3.11104 -4.24383 0
M  V30 3239 O 293.112 -3.84888 -4.19344 0
M  V30 3240 N 294.314 -2.32234 -5.32022 0
M  V30 3241 H 297.079 -2.71508 -1.26899 0
M  V30 3242 H 294.64 -1.52238 -0.550915 0
M  V30 3243 H 296.632 -1.79514 -3.62708 0
M  V30 3244 H 295.202 -0.955342 -2.97644 0
M  V30 3245 H 294.422 -3.30119 -2.15442 0
M  V30 3246 H 295.71 -3.9874 -3.16044 0
M  V30 3247 H 295.108 -1.71807 -5.38979 0
M  V30 3248 H 293.665 -2.3423 -6.08259 0
M  V30 3249 N 297.098 0.621204 -1.44841 0
M  V30 3250 C 298.028 1.74366 -1.55303 0
M  V30 3251 C 299.009 1.65199 -0.405385 0
M  V30 3252 O 300.194 1.83807 -0.626787 0
M  V30 3253 C 297.324 3.12931 -1.50637 0
M  V30 3254 C 296.278 3.36896 -2.63979 0
M  V30 3255 C 295.604 4.75594 -2.44366 0
M  V30 3256 C 296.904 3.28483 -4.06074 0
M  V30 3257 H 298.598 1.65867 -2.49256 0
M  V30 3258 H 296.144 0.796558 -1.19962 0
M  V30 3259 H 298.097 3.9124 -1.56555 0
M  V30 3260 H 296.821 3.22237 -0.532057 0
M  V30 3261 H 295.48 2.60972 -2.57467 0
M  V30 3262 H 295.128 4.81616 -1.45105 0
M  V30 3263 H 294.828 4.92586 -3.20364 0
M  V30 3264 H 296.352 5.5612 -2.52117 0
M  V30 3265 H 297.766 3.96684 -4.13902 0
M  V30 3266 H 296.163 3.57008 -4.82354 0
M  V30 3267 H 297.233 2.26133 -4.28943 0
M  V30 3268 N 298.576 1.31904 0.862503 0
M  V30 3269 C 299.486 1.22161 2.00285 0
M  V30 3270 C 300.502 0.136785 1.73462 0
M  V30 3271 O 301.678 0.355994 1.98229 0
M  V30 3272 C 298.743 0.937093 3.33796 0
M  V30 3273 C 297.804 2.10957 3.73893 0
M  V30 3274 C 297.037 1.83853 5.01033 0
M  V30 3275 O 297.26 0.777274 5.65079 0
M  V30 3276 O 296.194 2.69741 5.38074 0
M  V30 3277 H 300.02 2.18008 2.11439 0
M  V30 3278 H 297.605 1.11716 0.991957 0
M  V30 3279 H 299.487 0.794583 4.13841 0
M  V30 3280 H 298.162 0.00871894 3.23699 0
M  V30 3281 H 297.069 2.30752 2.94456 0
M  V30 3282 H 298.402 3.02046 3.88625 0
M  V30 3283 N 300.054 -1.07777 1.14986 0
M  V30 3284 C 301.331 -1.7699 0.832695 0
M  V30 3285 C 301.711 -2.001 -0.672561 0
M  V30 3286 O 301.059 -1.61598 -1.6155 0
M  V30 3287 C 301.269 -3.08139 1.63863 0
M  V30 3288 C 302.617 -3.8256 1.84208 0
M  V30 3289 O 303.641 -3.17939 1.60603 0
M  V30 3290 O 302.5 -4.98612 2.23714 0
M  V30 3291 H 299.594 -0.768389 0.305791 0
M  V30 3292 H 302.14 -1.14182 1.25541 0
M  V30 3293 H 300.912 -2.86909 2.6608 0
M  V30 3294 H 300.535 -3.78678 1.21197 0
M  V30 3295 N 301.532 -0.945985 -1.26051 0
M  V30 3296 C 302.78 -0.594941 -1.93145 0
M  V30 3297 C 303.101 0.86953 -1.7454 0
M  V30 3298 O 302.371 1.61838 -1.10387 0
M  V30 3299 H 300.951 -0.217044 -0.714773 0
M  V30 3300 H 303.613 -1.20235 -1.53393 0
M  V30 3301 H 302.709 -0.816835 -3.01221 0
M  V30 3302 N 303.011 1.40521 -0.713556 0
M  V30 3303 C 304.427 1.54839 -0.386907 0
M  V30 3304 C 304.627 1.68532 1.1045 0
M  V30 3305 O 303.683 1.67377 1.89053 0
M  V30 3306 C 304.996 2.77792 -1.15118 0
M  V30 3307 C 306.544 2.91607 -1.13729 0
M  V30 3308 C 307.019 4.1747 -1.88368 0
M  V30 3309 N 308.51 4.24466 -1.85427 0
M  V30 3310 C 309.245 5.20755 -2.40004 0
M  V30 3311 N 308.741 6.22965 -3.03129 0
M  V30 3312 N 310.534 5.1282 -2.30158 0
M  V30 3313 H 302.685 1.29879 -1.68063 0
M  V30 3314 H 304.948 0.627896 -0.710247 0
M  V30 3315 H 304.654 2.73944 -2.20561 0
M  V30 3316 H 304.528 3.6984 -0.741477 0
M  V30 3317 H 306.915 2.94959 -0.0910608 0
M  V30 3318 H 306.996 2.00682 -1.5862 0
M  V30 3319 H 306.64 4.1488 -2.9298 0
M  V30 3320 H 306.57 5.074 -1.40898 0
M  V30 3321 H 309.061 3.51241 -1.3942 0
M  V30 3322 H 309.374 6.92859 -3.42295 0
M  V30 3323 H 307.719 6.23415 -3.07212 0
M  V30 3324 H 310.91 4.31899 -1.80501 0
M  V30 3325 H 311.083 5.87689 -2.72993 0
M  V30 3326 N 304.489 0.459591 1.5075 0
M  V30 3327 C 305.717 -0.0973749 2.06671 0
M  V30 3328 C 306.132 -1.34524 1.32472 0
M  V30 3329 O 305.489 -1.7827 0.390634 0
M  V30 3330 C 305.54 -0.39714 3.59312 0
M  V30 3331 O 305.261 0.801214 4.30711 0
M  V30 3332 C 306.762 -1.00234 4.31819 0
M  V30 3333 H 303.982 0.00195854 0.670997 0
M  V30 3334 H 306.526 0.645072 1.94059 0
M  V30 3335 H 304.681 -1.08951 3.71764 0
M  V30 3336 H 305.095 0.538857 5.21725 0
M  V30 3337 H 306.569 -1.16193 5.39632 0
M  V30 3338 H 307.046 -1.98939 3.91561 0
M  V30 3339 H 307.652 -0.348699 4.23868 0
M  V30 3340 N 305.967 -1.56429 0.191757 0
M  V30 3341 C 306.897 -2.21937 -0.725696 0
M  V30 3342 C 307.878 -1.1814 -1.2238 0
M  V30 3343 O 309.063 -1.46636 -1.27325 0
M  V30 3344 C 306.193 -2.87611 -1.94672 0
M  V30 3345 C 305.147 -3.97623 -1.58366 0
M  V30 3346 C 304.473 -4.50446 -2.88102 0
M  V30 3347 C 305.773 -5.16197 -0.796133 0
M  V30 3348 H 307.467 -2.98861 -0.179606 0
M  V30 3349 H 305.013 -1.43749 -0.0849464 0
M  V30 3350 H 306.966 -3.3212 -2.59373 0
M  V30 3351 H 305.69 -2.08087 -2.51728 0
M  V30 3352 H 304.349 -3.53801 -0.960247 0
M  V30 3353 H 303.997 -3.67688 -3.43241 0
M  V30 3354 H 303.697 -5.24675 -2.64556 0
M  V30 3355 H 305.221 -4.97654 -3.53798 0
M  V30 3356 H 306.635 -5.57271 -1.34618 0
M  V30 3357 H 305.032 -5.96471 -0.658928 0
M  V30 3358 H 306.102 -4.84473 0.203478 0
M  V30 3359 N 307.445 0.0818655 -1.57387 0
M  V30 3360 C 308.67 0.799946 -1.91352 0
M  V30 3361 C 309.095 1.70833 -0.787258 0
M  V30 3362 O 308.453 1.79419 0.26048 0
M  V30 3363 C 308.501 1.57812 -3.24234 0
M  V30 3364 O 307.605 2.68806 -3.12757 0
M  V30 3365 H 306.946 0.21891 -0.626877 0
M  V30 3366 H 309.476 0.0531256 -2.04531 0
M  V30 3367 H 309.486 1.95952 -3.57864 0
M  V30 3368 H 308.161 0.911548 -4.05788 0
M  V30 3369 H 306.738 2.33597 -2.90666 0
M  V30 3370 N 308.923 1.53595 0.353017 0
M  V30 3371 C 310.2 1.61002 1.11075 0
M  V30 3372 C 310.58 0.425356 2.0677 0
M  V30 3373 O 309.928 -0.583267 2.2093 0
M  V30 3374 C 310.138 2.96631 1.83877 0
M  V30 3375 C 311.486 3.51653 2.37961 0
M  V30 3376 O 312.51 2.98743 1.93987 0
M  V30 3377 O 311.369 4.44177 3.18386 0
M  V30 3378 H 308.463 0.650825 0.510251 0
M  V30 3379 H 311.009 1.6594 0.35527 0
M  V30 3380 H 309.781 3.74293 1.14108 0
M  V30 3381 H 309.404 2.95242 2.66304 0
M  V30 3382 N 310.401 -0.613514 1.45168 0
M  V30 3383 C 311.631 -1.39743 1.52169 0
M  V30 3384 C 312.039 -1.88596 0.151086 0
M  V30 3385 O 311.382 -1.6251 -0.856521 0
M  V30 3386 C 311.444 -2.64035 2.43979 0
M  V30 3387 C 311.108 -2.36861 3.90827 0
M  V30 3388 C 312.105 -1.97591 4.80889 0
M  V30 3389 C 309.79 -2.49956 4.35692 0
M  V30 3390 C 311.784 -1.71768 6.1382 0
M  V30 3391 C 309.471 -2.23747 5.68665 0
M  V30 3392 C 310.469 -1.84714 6.57548 0
M  V30 3393 O 310.157 -1.58809 7.88058 0
M  V30 3394 H 309.889 -0.434382 0.517966 0
M  V30 3395 H 312.443 -0.75587 1.90986 0
M  V30 3396 H 310.673 -3.3089 2.00122 0
M  V30 3397 H 312.362 -3.26069 2.41731 0
M  V30 3398 H 313.128 -1.87015 4.47493 0
M  V30 3399 H 309.007 -2.79305 3.66756 0
M  V30 3400 H 312.551 -1.41227 6.83155 0
M  V30 3401 H 308.448 -2.33938 6.01617 0
M  V30 3402 H 309.216 -1.7291 8.00028 0
M  V30 3403 N 311.879 -1.3236 -0.855495 0
M  V30 3404 C 312.827 -1.2118 -1.9854 0
M  V30 3405 C 313.821 -0.116788 -1.68997 0
M  V30 3406 O 315.027 -0.279657 -1.77814 0
M  V30 3407 H 311.402 -0.375608 -0.651477 0
M  V30 3408 H 313.373 -2.16743 -2.05098 0
M  V30 3409 C 312.122 -0.950849 -3.34446 0
M  V30 3410 H 311.445 -1.78563 -3.57708 0
M  V30 3411 H 312.885 -0.912863 -4.14057 0
M  V30 3412 C 311.344 0.346404 -3.35114 0
M  V30 3413 O 311.874 1.35855 -3.7803 0
M  V30 3414 N 310.08 0.36808 -2.88259 0
M  V30 3415 H 309.627 -0.456102 -2.5353 0
M  V30 3416 H 309.585 1.23591 -2.89089 0
M  V30 3417 N 313.357 1.07166 -1.15556 0
M  V30 3418 C 314.606 1.79181 -0.926132 0
M  V30 3419 C 314.919 1.87768 0.547967 0
M  V30 3420 O 316.125 2.56323 0.895036 0
M  V30 3421 C 314.581 3.22 -1.60761 0
M  V30 3422 C 314.189 3.21607 -3.11886 0
M  V30 3423 C 315.933 3.9861 -1.4598 0
M  V30 3424 C 313.84 4.59092 -3.72812 0
M  V30 3425 H 312.77 0.67154 -0.342856 0
M  V30 3426 H 315.421 1.2027 -1.3859 0
M  V30 3427 H 313.803 3.81115 -1.07553 0
M  V30 3428 H 314.977 2.72127 -3.71865 0
M  V30 3429 H 313.292 2.58495 -3.2645 0
M  V30 3430 H 315.889 5.00225 -1.88888 0
M  V30 3431 H 316.232 4.143 -0.407541 0
M  V30 3432 H 316.765 3.45996 -1.96295 0
M  V30 3433 H 313.504 4.48606 -4.77946 0
M  V30 3434 H 313.024 5.08803 -3.17616 0
M  V30 3435 H 314.703 5.28059 -3.73848 0
M  V30 3436 N 314.835 0.952656 1.25548 0
M  V30 3437 C 315.767 0.428609 2.25157 0
M  V30 3438 C 316.78 -0.454428 1.56329 0
M  V30 3439 O 317.969 -0.263023 1.76552 0
M  V30 3440 C 315.069 -0.401972 3.36508 0
M  V30 3441 C 314.242 0.467601 4.34893 0
M  V30 3442 C 313.301 -0.30445 5.25319 0
M  V30 3443 O 312.327 0.296473 5.68427 0
M  V30 3444 N 313.529 -1.59805 5.5807 0
M  V30 3445 H 316.294 1.28497 2.70756 0
M  V30 3446 H 313.855 0.822798 1.39433 0
M  V30 3447 H 315.847 -0.926134 3.9396 0
M  V30 3448 H 314.417 -1.15918 2.90313 0
M  V30 3449 H 313.637 1.17288 3.76347 0
M  V30 3450 H 314.925 1.06119 4.97611 0
M  V30 3451 H 314.323 -2.10823 5.24948 0
M  V30 3452 H 312.88 -2.06822 6.18116 0
M  V30 3453 N 316.313 -1.40141 0.720998 0
M  V30 3454 C 317.26 -2.30688 0.071919 0
M  V30 3455 C 318.23 -1.48476 -0.744584 0
M  V30 3456 O 319.415 -1.77201 -0.707423 0
M  V30 3457 C 316.555 -3.34724 -0.839855 0
M  V30 3458 C 315.668 -4.31998 -0.0122438 0
M  V30 3459 C 314.803 -5.23102 -0.923995 0
M  V30 3460 C 313.842 -6.12033 -0.0907969 0
M  V30 3461 N 312.979 -6.95537 -0.957718 0
M  V30 3462 H 317.819 -2.85628 0.849755 0
M  V30 3463 H 315.356 -1.40653 0.430726 0
M  V30 3464 H 317.314 -3.93618 -1.38279 0
M  V30 3465 H 315.944 -2.81274 -1.58381 0
M  V30 3466 H 314.996 -3.74841 0.64794 0
M  V30 3467 H 316.308 -4.94772 0.632595 0
M  V30 3468 H 315.462 -5.86953 -1.53527 0
M  V30 3469 H 314.201 -4.60615 -1.60264 0
M  V30 3470 H 313.206 -5.47207 0.533377 0
M  V30 3471 H 314.431 -6.76581 0.584428 0
M  V30 3472 H 312.377 -6.35633 -1.62192 0
M  V30 3473 H 312.294 -7.55099 -0.36904 0
M  V30 3474 H 313.562 -7.63832 -1.555 0
M  V30 3475 N 317.792 -0.46758 -1.50504 0
M  V30 3476 C 318.702 0.33382 -2.32213 0
M  V30 3477 C 319.718 0.999323 -1.42441 0
M  V30 3478 O 320.894 0.988068 -1.75497 0
M  V30 3479 C 317.959 1.4035 -3.17022 0
M  V30 3480 C 317.02 0.754961 -4.2261 0
M  V30 3481 C 316.253 1.77367 -5.03365 0
M  V30 3482 O 316.476 2.99976 -4.8515 0
M  V30 3483 O 315.41 1.34744 -5.86624 0
M  V30 3484 H 319.236 -0.334067 -3.01857 0
M  V30 3485 H 316.821 -0.229496 -1.47627 0
M  V30 3486 H 318.703 2.02318 -3.69656 0
M  V30 3487 H 317.378 2.05492 -2.5011 0
M  V30 3488 H 316.285 0.0964244 -3.73976 0
M  V30 3489 H 317.618 0.146545 -4.91982 0
M  V30 3490 N 319.27 1.56325 -0.20005 0
M  V30 3491 C 320.495 2.02548 0.44597 0
M  V30 3492 C 320.92 1.07922 1.5406 0
M  V30 3493 O 320.278 0.0635775 1.81188 0
M  V30 3494 C 320.326 3.47175 0.974761 0
M  V30 3495 O 319.43 3.55671 2.08739 0
M  V30 3496 H 318.771 0.655862 0.103638 0
M  V30 3497 H 321.301 2.02201 -0.312381 0
M  V30 3498 H 321.311 3.87067 1.2901 0
M  V30 3499 H 319.986 4.15538 0.17347 0
M  V30 3500 H 318.563 3.27657 1.78032 0
M  V30 3501 N 320.748 -0.0735177 1.57428 0
M  V30 3502 C 321.976 -0.785969 1.9139 0
M  V30 3503 C 322.391 -1.71207 0.795847 0
M  V30 3504 O 321.748 -1.81033 -0.230915 0
M  V30 3505 C 321.799 -1.58107 3.25091 0
M  V30 3506 O 321.52 -0.6922 4.32597 0
M  V30 3507 C 323.021 -2.39467 3.73055 0
M  V30 3508 H 320.241 -0.223558 0.632663 0
M  V30 3509 H 322.785 -0.044302 2.04452 0
M  V30 3510 H 320.94 -2.27503 3.13562 0
M  V30 3511 H 321.354 -1.24504 5.09508 0
M  V30 3512 H 322.828 -2.90716 4.69242 0
M  V30 3513 H 323.305 -3.18913 3.01979 0
M  V30 3514 H 323.911 -1.7523 3.87523 0
M  V30 3515 N 322.226 -1.5378 -0.344866 0
M  V30 3516 C 323.156 -1.84662 -1.42906 0
M  V30 3517 C 324.137 -0.701648 -1.54955 0
M  V30 3518 O 325.322 -0.953438 -1.69184 0
M  V30 3519 C 322.452 -2.05503 -2.79974 0
M  V30 3520 C 321.406 -3.21318 -2.82734 0
M  V30 3521 C 320.732 -3.2749 -4.22675 0
M  V30 3522 C 322.032 -4.59456 -2.48389 0
M  V30 3523 H 323.726 -2.75461 -1.17311 0
M  V30 3524 H 321.272 -1.32542 -0.562896 0
M  V30 3525 H 323.225 -2.25691 -3.55867 0
M  V30 3526 H 321.949 -1.11434 -3.07002 0
M  V30 3527 H 320.608 -3.00984 -2.09294 0
M  V30 3528 H 320.256 -2.31019 -4.4681 0
M  V30 3529 H 319.956 -4.05316 -4.25433 0
M  V30 3530 H 321.48 -3.49887 -5.00412 0
M  V30 3531 H 322.894 -4.79667 -3.13995 0
M  V30 3532 H 321.291 -5.39675 -2.62432 0
M  V30 3533 H 322.361 -4.63155 -1.4358 0
M  V30 3534 N 323.704 0.605807 -1.45491 0
M  V30 3535 C 324.654 1.71074 -1.50724 0
M  V30 3536 C 325.638 1.5658 -0.37033 0
M  V30 3537 O 326.83 1.65887 -0.617299 0
M  V30 3538 C 323.959 3.0983 -1.47852 0
M  V30 3539 C 323.045 3.29704 -2.66751 0
M  V30 3540 N 323.436 3.19831 -3.91844 0
M  V30 3541 C 321.734 3.60579 -2.62486 0
M  V30 3542 C 322.435 3.41083 -4.71208 0
M  V30 3543 N 321.411 3.65157 -4.02693 0
M  V30 3544 H 325.213 1.61937 -2.45263 0
M  V30 3545 H 322.727 0.80912 -1.40808 0
M  V30 3546 H 324.724 3.89101 -1.49686 0
M  V30 3547 H 323.384 3.20115 -0.543714 0
M  V30 3548 H 324.395 2.98194 -4.23439 0
M  V30 3549 H 321.072 3.7769 -1.77922 0
M  V30 3550 H 322.462 3.38828 -5.80211 0
M  V30 3551 N 325.182 1.32811 0.848464 0
M  V30 3552 C 326.112 1.24882 1.97299 0
M  V30 3553 C 327.093 0.131357 1.69592 0
M  V30 3554 O 328.278 0.319553 1.91553 0
M  V30 3555 C 325.408 0.97746 3.33261 0
M  V30 3556 C 324.362 2.05682 3.75338 0
M  V30 3557 C 323.688 1.63777 5.09 0
M  V30 3558 C 324.988 3.47254 3.90144 0
M  V30 3559 H 326.682 2.18966 2.04191 0
M  V30 3560 H 324.228 1.05413 0.981029 0
M  V30 3561 H 326.181 0.908513 4.1149 0
M  V30 3562 H 324.905 0.000980011 3.266 0
M  V30 3563 H 323.564 2.11603 2.99366 0
M  V30 3564 H 323.212 0.648569 4.98801 0
M  V30 3565 H 322.912 2.36 5.38124 0
M  V30 3566 H 324.436 1.5833 5.89715 0
M  V30 3567 H 325.85 3.43888 4.58709 0
M  V30 3568 H 324.247 4.1788 4.30693 0
M  V30 3569 H 325.317 3.86462 2.92874 0
M  V30 3570 N 326.66 -1.06551 1.16123 0
M  V30 3571 C 327.906 -1.79567 0.94252 0
M  V30 3572 C 328.239 -1.86869 -0.528547 0
M  V30 3573 O 327.514 -1.35838 -1.39206 0
M  V30 3574 C 327.797 -3.24195 1.56747 0
M  V30 3575 C 327.65 -3.24989 3.10969 0
M  V30 3576 C 328.969 -4.21678 1.25998 0
M  V30 3577 H 326.088 -0.651883 0.343828 0
M  V30 3578 H 328.73 -1.2463 1.43413 0
M  V30 3579 H 326.88 -3.71107 1.14942 0
M  V30 3580 H 328.552 -2.86258 3.61737 0
M  V30 3581 H 326.795 -2.63716 3.44436 0
M  V30 3582 H 327.466 -4.27005 3.49815 0
M  V30 3583 H 329.942 -3.83196 1.62174 0
M  V30 3584 H 328.818 -5.21146 1.7233 0
M  V30 3585 H 329.079 -4.4174 0.178367 0
M  V30 3586 N 328.138 -0.959301 -1.25041 0
M  V30 3587 C 329.068 -0.501388 -2.28053 0
M  V30 3588 C 330.049 0.454673 -1.63911 0
M  V30 3589 O 331.234 0.352618 -1.90972 0
M  V30 3590 C 328.364 0.217224 -3.4662 0
M  V30 3591 C 327.318 -0.654034 -4.22973 0
M  V30 3592 C 326.644 0.195589 -5.34342 0
M  V30 3593 C 327.944 -1.93447 -4.85155 0
M  V30 3594 H 329.638 -1.36238 -2.66608 0
M  V30 3595 H 327.184 -0.656534 -1.28163 0
M  V30 3596 H 329.137 0.548732 -4.17812 0
M  V30 3597 H 327.861 1.1125 -3.07068 0
M  V30 3598 H 326.52 -0.968693 -3.5357 0
M  V30 3599 H 326.168 1.09076 -4.91031 0
M  V30 3600 H 325.868 -0.384091 -5.86343 0
M  V30 3601 H 327.392 0.521958 -6.08365 0
M  V30 3602 H 328.806 -1.66908 -5.48466 0
M  V30 3603 H 327.203 -2.46018 -5.47353 0
M  V30 3604 H 328.273 -2.63466 -4.07079 0
M  V30 3605 N 329.616 1.39756 -0.72842 0
M  V30 3606 C 331.032 1.5442 -0.403308 0
M  V30 3607 C 331.232 1.69694 1.08656 0
M  V30 3608 O 330.288 1.69373 1.87267 0
M  V30 3609 C 331.601 2.76555 -1.18058 0
M  V30 3610 C 333.149 2.90384 -1.16815 0
M  V30 3611 C 333.624 4.15449 -1.92785 0
M  V30 3612 N 335.115 4.22475 -1.89918 0
M  V30 3613 C 335.85 5.1818 -2.45514 0
M  V30 3614 N 335.346 6.19714 -3.09719 0
M  V30 3615 N 337.139 5.1035 -2.35584 0
M  V30 3616 H 329.29 1.28089 -1.69431 0
M  V30 3617 H 331.553 0.620327 -0.716867 0
M  V30 3618 H 331.259 2.7159 -2.23455 0
M  V30 3619 H 331.133 3.69033 -0.780662 0
M  V30 3620 H 333.52 2.94846 -0.12234 0
M  V30 3621 H 333.601 1.98988 -1.6074 0
M  V30 3622 H 333.245 4.11749 -2.97364 0
M  V30 3623 H 333.175 5.05877 -1.46272 0
M  V30 3624 H 335.666 3.49743 -1.43138 0
M  V30 3625 H 335.979 6.8919 -3.49625 0
M  V30 3626 H 334.324 6.20121 -3.13807 0
M  V30 3627 H 337.515 4.2996 -1.85072 0
M  V30 3628 H 337.688 5.84761 -2.79211 0
M  V30 3629 N 331.094 0.475555 1.50254 0
M  V30 3630 C 332.024 -0.30611 2.31485 0
M  V30 3631 C 333.005 -0.986228 1.38591 0
M  V30 3632 O 334.19 -0.982541 1.67511 0
M  V30 3633 C 331.32 -1.38588 3.1845 0
M  V30 3634 C 330.274 -0.827115 4.19932 0
M  V30 3635 C 329.6 -2.00551 4.95665 0
M  V30 3636 C 330.9 0.16463 5.2204 0
M  V30 3637 H 332.594 0.371866 2.97082 0
M  V30 3638 H 330.14 0.180282 1.42867 0
M  V30 3639 H 332.093 -1.94023 3.74076 0
M  V30 3640 H 330.817 -2.09269 2.50747 0
M  V30 3641 H 329.476 -0.294702 3.65414 0
M  V30 3642 H 329.124 -2.6994 4.2443 0
M  V30 3643 H 328.824 -1.63784 5.64313 0
M  V30 3644 H 330.348 -2.56468 5.54127 0
M  V30 3645 H 331.762 -0.300699 5.72511 0
M  V30 3646 H 330.159 0.446813 5.98434 0
M  V30 3647 H 331.229 1.08905 4.72512 0
M  V30 3648 N 332.573 -1.56217 0.208337 0
M  V30 3649 C 333.989 -1.58919 -0.14729 0
M  V30 3650 C 334.189 -1.22486 -1.59998 0
M  V30 3651 O 333.245 -0.953849 -2.3379 0
M  V30 3652 C 334.558 -3.00236 0.167048 0
M  V30 3653 C 336.106 -3.12813 0.108219 0
M  V30 3654 C 336.581 -4.56284 0.396049 0
M  V30 3655 N 338.072 -4.61912 0.345142 0
M  V30 3656 C 338.807 -5.70837 0.541523 0
M  V30 3657 N 338.303 -6.88178 0.798968 0
M  V30 3658 N 340.096 -5.60091 0.474867 0
M  V30 3659 H 332.247 -1.78177 1.15614 0
M  V30 3660 H 334.51 -0.827555 0.462446 0
M  V30 3661 H 334.216 -3.31499 1.1748 0
M  V30 3662 H 334.09 -3.7354 -0.524184 0
M  V30 3663 H 336.477 -2.81354 -0.890157 0
M  V30 3664 H 336.558 -2.41866 0.832729 0
M  V30 3665 H 336.202 -4.88458 1.3918 0
M  V30 3666 H 336.132 -5.25439 -0.349502 0
M  V30 3667 H 338.623 -3.77589 0.153316 0
M  V30 3668 H 338.936 -7.67095 0.93727 0
M  V30 3669 H 337.281 -6.89953 0.836013 0
M  V30 3670 H 340.472 -4.67297 0.274064 0
M  V30 3671 H 340.645 -6.44917 0.631326 0
M  V30 3672 N 334.051 0.0651679 -1.57465 0
M  V30 3673 C 335.299 0.761555 -1.87202 0
M  V30 3674 C 335.62 1.77778 -0.801243 0
M  V30 3675 O 334.89 1.95166 0.16937 0
M  V30 3676 H 333.47 0.284251 -0.690804 0
M  V30 3677 H 336.132 0.0396827 -1.9486 0
M  V30 3678 H 335.228 1.27365 -2.84929 0
M  V30 3679 N 335.529 1.53961 0.336706 0
M  V30 3680 C 336.777 1.71197 1.07405 0
M  V30 3681 C 337.098 0.481475 1.88962 0
M  V30 3682 O 336.368 -0.504585 1.8929 0
M  V30 3683 H 334.948 0.631185 0.399517 0
M  V30 3684 H 337.61 1.91232 0.376323 0
M  V30 3685 H 336.706 2.58587 1.74755 0
M  V30 3686 N 337.007 -0.598083 1.45811 0
M  V30 3687 C 337.94 -1.7223 1.49706 0
M  V30 3688 C 338.918 -1.58732 0.352535 0
M  V30 3689 O 340.102 -1.80162 0.554438 0
M  V30 3690 C 337.229 -3.10148 1.3611 0
M  V30 3691 C 336.275 -3.42209 2.54549 0
M  V30 3692 S 337.108 -3.35989 4.16979 0
M  V30 3693 C 338.264 -4.76471 4.05865 0
M  V30 3694 H 338.497 -1.68665 2.44826 0
M  V30 3695 H 336.03 -0.775541 1.33509 0
M  V30 3696 H 337.988 -3.8972 1.28953 0
M  V30 3697 H 336.649 -3.11219 0.424451 0
M  V30 3698 H 335.842 -4.42652 2.40988 0
M  V30 3699 H 335.444 -2.70173 2.58617 0
M  V30 3700 H 337.736 -5.665 3.71596 0
M  V30 3701 H 338.679 -4.95089 5.06253 0
M  V30 3702 H 339.087 -4.52599 3.37364 0
M  V30 3703 N 338.485 -1.33259 -0.841409 0
M  V30 3704 C 339.417 -1.19136 -1.95804 0
M  V30 3705 C 340.43 -0.122965 -1.62335 0
M  V30 3706 O 341.619 -0.373154 -1.74556 0
M  V30 3707 C 338.719 -0.804268 -3.29218 0
M  V30 3708 C 337.892 -1.96376 -3.90839 0
M  V30 3709 C 336.951 -1.55806 -5.02604 0
M  V30 3710 O 335.977 -2.27203 -5.21888 0
M  V30 3711 N 337.179 -0.461609 -5.78662 0
M  V30 3712 H 339.944 -2.15326 -2.08458 0
M  V30 3713 H 337.505 -1.25971 -1.017 0
M  V30 3714 H 339.497 -0.51501 -4.0141 0
M  V30 3715 H 338.067 0.0668809 -3.12528 0
M  V30 3716 H 337.287 -2.41879 -3.11269 0
M  V30 3717 H 338.575 -2.73966 -4.28742 0
M  V30 3718 H 337.973 0.132343 -5.65545 0
M  V30 3719 H 336.53 -0.232013 -6.51387 0
M  V30 3720 N 339.963 1.05934 -1.16686 0
M  V30 3721 C 341.212 1.78188 -0.945085 0
M  V30 3722 C 341.525 1.88338 0.528021 0
M  V30 3723 O 342.731 2.57258 0.867799 0
M  V30 3724 C 341.187 3.20277 -1.64167 0
M  V30 3725 C 340.795 3.18281 -3.15279 0
M  V30 3726 C 342.539 3.97039 -1.502 0
M  V30 3727 C 340.446 4.55112 -3.7766 0
M  V30 3728 H 339.376 0.667866 -0.349959 0
M  V30 3729 H 342.027 1.18794 -1.39858 0
M  V30 3730 H 340.409 3.79952 -1.11589 0
M  V30 3731 H 341.583 2.68167 -3.74731 0
M  V30 3732 H 339.898 2.55018 -3.29173 0
M  V30 3733 H 342.495 4.98194 -1.94183 0
M  V30 3734 H 342.838 4.13845 -0.451461 0
M  V30 3735 H 343.371 3.43894 -1.99954 0
M  V30 3736 H 340.11 4.43512 -4.82677 0
M  V30 3737 H 339.63 5.05406 -3.22994 0
M  V30 3738 H 341.309 5.24064 -3.79428 0
M  V30 3739 N 341.441 0.965919 1.2453 0
M  V30 3740 C 342.688 0.626831 1.92554 0
M  V30 3741 C 343.016 -0.837739 1.75534 0
M  V30 3742 O 342.271 -1.61793 1.10098 0
M  V30 3743 C 342.57 0.945428 3.44669 0
M  V30 3744 C 342.236 2.39785 3.81856 0
M  V30 3745 C 340.898 2.79483 3.91718 0
M  V30 3746 C 343.25 3.34055 4.00071 0
M  V30 3747 C 340.578 4.12496 4.1721 0
M  V30 3748 C 342.93 4.66694 4.27059 0
M  V30 3749 C 341.594 5.06172 4.3514 0
M  V30 3750 H 340.864 0.229374 0.704605 0
M  V30 3751 H 343.511 1.21707 1.4785 0
M  V30 3752 H 341.816 0.272926 3.90848 0
M  V30 3753 H 343.513 0.661484 3.95507 0
M  V30 3754 H 340.103 2.08003 3.74743 0
M  V30 3755 H 344.287 3.04571 3.91855 0
M  V30 3756 H 339.543 4.42709 4.21685 0
M  V30 3757 H 343.717 5.3971 4.40097 0
M  V30 3758 H 341.344 6.09262 4.54646 0
M  V30 3759 N 342.919 -1.39368 0.735821 0
M  V30 3760 C 344.165 -2.00794 0.284544 0
M  V30 3761 C 344.498 -1.58255 -1.12557 0
M  V30 3762 O 343.773 -0.811819 -1.76748 0
M  V30 3763 C 344.056 -3.58011 0.387337 0
M  V30 3764 C 343.909 -4.10566 1.83728 0
M  V30 3765 C 345.228 -4.395 -0.22975 0
M  V30 3766 H 342.347 -0.729501 0.104866 0
M  V30 3767 H 344.989 -1.65564 0.93213 0
M  V30 3768 H 343.139 -3.88154 -0.164006 0
M  V30 3769 H 344.811 -3.91139 2.44556 0
M  V30 3770 H 343.054 -3.64095 2.35833 0
M  V30 3771 H 343.725 -5.19702 1.86047 0
M  V30 3772 H 346.201 -4.15406 0.240257 0
M  V30 3773 H 345.077 -5.48752 -0.127485 0
M  V30 3774 H 345.338 -4.22062 -1.3159 0
M  V30 3775 N 344.397 -0.483516 -1.5 0
M  V30 3776 C 345.344 0.304164 -2.28787 0
M  V30 3777 C 346.314 0.976114 -1.34392 0
M  V30 3778 O 347.499 0.986156 -1.63339 0
M  V30 3779 C 344.639 1.37298 -3.16612 0
M  V30 3780 C 343.752 0.714561 -4.26049 0
M  V30 3781 C 342.887 1.76232 -5.01114 0
M  V30 3782 C 341.926 1.08483 -6.0241 0
M  V30 3783 N 341.063 2.076 -6.70706 0
M  V30 3784 H 345.903 -0.373981 -2.95644 0
M  V30 3785 H 343.44 -0.196275 -1.45785 0
M  V30 3786 H 345.398 2.00445 -3.65893 0
M  V30 3787 H 344.028 2.02012 -2.51776 0
M  V30 3788 H 343.08 -0.0297798 -3.80388 0
M  V30 3789 H 344.392 0.180383 -4.98474 0
M  V30 3790 H 343.546 2.46929 -5.54176 0
M  V30 3791 H 342.285 2.33033 -4.28424 0
M  V30 3792 H 341.29 0.363545 -5.48597 0
M  V30 3793 H 342.515 0.523551 -6.77079 0
M  V30 3794 H 340.461 2.63394 -6.00799 0
M  V30 3795 H 340.378 1.59201 -7.39047 0
M  V30 3796 H 341.646 2.77639 -7.2838 0
M  V30 3797 N 345.875 1.56104 -0.216619 0
M  V30 3798 C 347.103 2.02563 0.421413 0
M  V30 3799 C 347.518 1.0965 1.53695 0
M  V30 3800 O 346.875 0.10521 1.82196 0
M  V30 3801 C 346.926 3.48584 0.957665 0
M  V30 3802 O 346.647 4.37953 -0.113389 0
M  V30 3803 C 348.148 4.10664 1.66943 0
M  V30 3804 H 345.368 0.662944 0.103665 0
M  V30 3805 H 347.912 2.01793 -0.331629 0
M  V30 3806 H 346.067 3.49985 1.661 0
M  V30 3807 H 346.481 5.23704 0.288932 0
M  V30 3808 H 347.955 5.14622 1.99671 0
M  V30 3809 H 348.432 3.55373 2.58083 0
M  V30 3810 H 349.038 4.13098 1.01142 0
M  V30 3811 N 347.353 -0.0568162 1.57498 0
M  V30 3812 C 348.283 -1.06593 2.0775 0
M  V30 3813 C 349.264 -1.39448 0.974082 0
M  V30 3814 O 350.449 -1.48815 1.24771 0
M  V30 3815 C 347.579 -2.37509 2.5339 0
M  V30 3816 C 346.533 -2.1897 3.67745 0
M  V30 3817 C 345.859 -3.55402 3.99492 0
M  V30 3818 C 347.159 -1.59859 4.97235 0
M  V30 3819 H 348.853 -0.647706 2.9231 0
M  V30 3820 H 346.399 -0.310116 1.40621 0
M  V30 3821 H 348.352 -3.08409 2.87162 0
M  V30 3822 H 347.076 -2.8134 1.65878 0
M  V30 3823 H 345.735 -1.50508 3.3428 0
M  V30 3824 H 345.383 -3.9683 3.09088 0
M  V30 3825 H 345.083 -3.43831 4.76502 0
M  V30 3826 H 346.607 -4.27708 4.35773 0
M  V30 3827 H 348.021 -2.20642 5.29141 0
M  V30 3828 H 346.418 -1.58942 5.78669 0
M  V30 3829 H 347.488 -0.561506 4.81638 0
M  V30 3830 N 348.832 -1.54138 -0.328536 0
M  V30 3831 C 350.06 -1.76062 -1.08673 0
M  V30 3832 C 350.475 -0.506852 -1.81869 0
M  V30 3833 O 349.832 0.522223 -1.74869 0
M  V30 3834 C 349.883 -2.95054 -2.08866 0
M  V30 3835 O 349.604 -4.15583 -1.38644 0
M  V30 3836 C 351.105 -3.2915 -2.96943 0
M  V30 3837 H 348.325 -0.587889 -0.323461 0
M  V30 3838 H 350.869 -2.0101 -0.376175 0
M  V30 3839 H 349.024 -2.72394 -2.75464 0
M  V30 3840 H 349.438 -4.82481 -2.05699 0
M  V30 3841 H 350.912 -4.15723 -3.63151 0
M  V30 3842 H 351.389 -2.461 -3.63774 0
M  V30 3843 H 351.995 -3.53871 -2.35914 0
M  V30 3844 N 350.31 0.590341 -1.46126 0
M  V30 3845 C 351.558 1.34616 -1.50742 0
M  V30 3846 C 351.879 1.94363 -0.157486 0
M  V30 3847 O 351.149 1.78136 0.815136 0
M  V30 3848 H 349.729 0.499789 -0.555175 0
M  V30 3849 H 352.391 0.691953 -1.82203 0
M  V30 3850 H 351.487 2.15678 -2.25587 0
M  V30 3851 N 351.788 1.33704 0.83433 0
M  V30 3852 C 352.735 1.24335 1.94447 0
M  V30 3853 C 353.705 0.120991 1.65659 0
M  V30 3854 O 354.89 0.300035 1.88426 0
M  V30 3855 C 352.03 0.993124 3.30501 0
M  V30 3856 C 351.143 2.20217 3.71657 0
M  V30 3857 C 350.278 1.88572 4.96602 0
M  V30 3858 C 349.317 3.05683 5.30306 0
M  V30 3859 N 348.454 2.73997 6.46429 0
M  V30 3860 H 353.294 2.1928 2.01792 0
M  V30 3861 H 350.831 1.09035 0.987404 0
M  V30 3862 H 352.789 0.828467 4.08892 0
M  V30 3863 H 351.419 0.0803902 3.227 0
M  V30 3864 H 350.471 2.47642 2.88752 0
M  V30 3865 H 351.783 3.07752 3.92543 0
M  V30 3866 H 350.937 1.68776 5.82752 0
M  V30 3867 H 349.676 0.982799 4.77695 0
M  V30 3868 H 348.681 3.26088 4.42659 0
M  V30 3869 H 349.906 3.96737 5.51159 0
M  V30 3870 H 347.852 1.86268 6.28999 0
M  V30 3871 H 347.769 3.55064 6.67432 0
M  V30 3872 H 349.037 2.57679 7.35678 0
M  V30 3873 N 353.266 -1.05314 1.17247 0
M  V30 3874 C 354.494 -1.81971 0.984593 0
M  V30 3875 C 354.909 -1.82929 -0.467166 0
M  V30 3876 O 354.266 -1.25564 -1.32438 0
M  V30 3877 C 354.317 -3.28143 1.51672 0
M  V30 3878 O 354.038 -3.27347 2.91163 0
M  V30 3879 C 355.539 -4.21493 1.37326 0
M  V30 3880 H 352.759 -0.573455 0.348411 0
M  V30 3881 H 355.303 -1.32808 1.55506 0
M  V30 3882 H 353.458 -3.74582 0.988302 0
M  V30 3883 H 353.872 -4.18824 3.15732 0
M  V30 3884 H 355.346 -5.22043 1.79375 0
M  V30 3885 H 355.823 -4.38031 0.320169 0
M  V30 3886 H 356.429 -3.80909 1.89178 0
M  V30 3887 N 354.744 -0.972509 -1.24016 0
M  V30 3888 C 355.993 -0.632603 -1.91523 0
M  V30 3889 C 356.306 0.836641 -1.76804 0
M  V30 3890 O 357.512 1.28728 -2.39043 0
M  V30 3891 C 355.968 -1.08082 -3.43287 0
M  V30 3892 C 355.576 -2.57386 -3.66683 0
M  V30 3893 C 357.32 -0.814288 -4.16617 0
M  V30 3894 C 355.227 -2.95915 -5.12043 0
M  V30 3895 H 354.157 -0.232898 -0.717129 0
M  V30 3896 H 356.808 -1.17936 -1.40582 0
M  V30 3897 H 355.19 -0.462339 -3.93292 0
M  V30 3898 H 356.364 -3.24405 -3.27258 0
M  V30 3899 H 354.679 -2.81701 -3.06649 0
M  V30 3900 H 357.276 -1.0781 -5.23718 0
M  V30 3901 H 357.619 0.24955 -4.15551 0
M  V30 3902 H 358.152 -1.39397 -3.72577 0
M  V30 3903 H 354.891 -4.0139 -5.18234 0
M  V30 3904 H 354.411 -2.33584 -5.52448 0
M  V30 3905 H 356.09 -2.86086 -5.80314 0
M  V30 3906 N 356.222 1.38976 -0.743202 0
M  V30 3907 C 357.45 2.04636 -0.30525 0
M  V30 3908 C 357.865 1.56044 1.06281 0
M  V30 3909 O 357.222 0.728921 1.67311 0
M  V30 3910 C 357.273 3.60193 -0.307177 0
M  V30 3911 O 356.994 4.06998 -1.62124 0
M  V30 3912 C 358.495 4.4306 0.145928 0
M  V30 3913 H 355.715 0.65788 -0.132041 0
M  V30 3914 H 358.259 1.77866 -1.00915 0
M  V30 3915 H 356.414 3.85835 0.347898 0
M  V30 3916 H 356.828 5.01371 -1.54036 0
M  V30 3917 H 358.302 5.51921 0.0934183 0
M  V30 3918 H 358.779 4.22706 1.19231 0
M  V30 3919 H 359.385 4.22584 -0.479886 0
M  V30 3920 N 357.7 0.491464 1.49741 0
M  V30 3921 C 358.63 -0.28154 2.31796 0
M  V30 3922 C 359.611 -0.971473 1.3963 0
M  V30 3923 O 360.796 -0.964719 1.68543 0
M  V30 3924 C 357.926 -1.35203 3.19902 0
M  V30 3925 C 356.88 -0.782529 4.20786 0
M  V30 3926 C 356.206 -1.95283 4.97764 0
M  V30 3927 C 357.506 0.21999 5.21837 0
M  V30 3928 H 359.2 0.403355 2.96671 0
M  V30 3929 H 356.746 0.195425 1.42668 0
M  V30 3930 H 358.699 -1.90045 3.76113 0
M  V30 3931 H 357.423 -2.06598 2.52953 0
M  V30 3932 H 356.082 -0.255928 3.65706 0
M  V30 3933 H 355.73 -2.65423 4.2727 0
M  V30 3934 H 355.43 -1.57789 5.66018 0
M  V30 3935 H 356.954 -2.50577 5.56816 0
M  V30 3936 H 358.368 -0.23996 5.72798 0
M  V30 3937 H 356.765 0.51026 5.97927 0
M  V30 3938 H 357.835 1.13911 4.7133 0
M  V30 3939 N 359.178 -1.55987 0.224894 0
M  V30 3940 C 360.088 -2.24066 -0.69511 0
M  V30 3941 C 361.104 -1.24939 -1.21104 0
M  V30 3942 O 362.28 -1.5776 -1.25195 0
M  V30 3943 C 359.345 -2.90983 -1.88493 0
M  V30 3944 C 358.406 -4.05462 -1.41064 0
M  V30 3945 C 357.639 -4.69179 -2.54375 0
M  V30 3946 O 357.862 -4.31895 -3.72589 0
M  V30 3947 O 356.796 -5.58108 -2.25386 0
M  V30 3948 H 360.622 -3.03353 -0.145149 0
M  V30 3949 H 358.207 -1.49399 -0.00569476 0
M  V30 3950 H 360.089 -3.33209 -2.57972 0
M  V30 3951 H 358.764 -2.14653 -2.42293 0
M  V30 3952 H 357.671 -3.67798 -0.683774 0
M  V30 3953 H 359.004 -4.83545 -0.918985 0
M  V30 3954 N 360.656 0.0484629 -1.57525 0
M  V30 3955 C 361.902 0.744226 -1.88651 0
M  V30 3956 C 362.235 1.76029 -0.820212 0
M  V30 3957 O 361.51 1.93782 0.166985 0
M  V30 3958 C 361.793 1.43128 -3.30434 0
M  V30 3959 C 361.646 0.43005 -4.47739 0
M  V30 3960 C 362.965 2.37031 -3.70816 0
M  V30 3961 H 360.084 0.269089 -0.68612 0
M  V30 3962 H 362.726 0.00713532 -1.89999 0
M  V30 3963 H 360.876 2.05956 -3.29415 0
M  V30 3964 H 362.548 -0.194816 -4.60888 0
M  V30 3965 H 360.791 -0.252522 -4.33064 0
M  V30 3966 H 361.462 0.948874 -5.43783 0
M  V30 3967 H 363.938 1.84263 -3.73077 0
M  V30 3968 H 362.814 2.82094 -4.70865 0
M  V30 3969 H 363.075 3.22864 -3.02012 0
M  V30 3970 N 362.134 1.5431 0.320358 0
M  V30 3971 C 363.044 1.86946 1.41734 0
M  V30 3972 C 364.06 0.761689 1.56443 0
M  V30 3973 O 365.236 1.05629 1.71477 0
M  V30 3974 C 362.301 2.09293 2.76401 0
M  V30 3975 C 361.362 3.33082 2.70841 0
M  V30 3976 C 360.595 3.54353 3.99086 0
M  V30 3977 O 360.818 2.79002 4.97508 0
M  V30 3978 O 359.752 4.47838 4.0215 0
M  V30 3979 H 363.578 2.80232 1.17062 0
M  V30 3980 H 361.163 1.40255 0.514673 0
M  V30 3981 H 363.045 2.25303 3.56113 0
M  V30 3982 H 361.72 1.19194 3.00956 0
M  V30 3983 H 360.627 3.22454 1.89668 0
M  V30 3984 H 361.96 4.23249 2.5124 0
M  V30 3985 N 363.613 -0.582584 1.46437 0
M  V30 3986 C 365.024 -1.1647 1.45916 0
M  V30 3987 C 365.375 -1.95177 0.200077 0
M  V30 3988 O 364.5 -2.04874 -0.696819 0
M  V30 3989 C 365.095 -2.11885 2.64367 0
M  V30 3990 C 363.654 -2.65421 2.66887 0
M  V30 3991 C 362.801 -1.41294 2.38603 0
M  V30 3992 H 365.752 -0.370514 1.54314 0
M  V30 3993 H 365.773 -2.9535 2.39892 0
M  V30 3994 H 365.285 -1.54573 3.5599 0
M  V30 3995 H 363.386 -3.26602 1.79338 0
M  V30 3996 H 363.499 -3.08147 3.66854 0
M  V30 3997 H 361.863 -1.71109 1.88663 0
M  V30 3998 H 362.646 -0.858125 3.32402 0
M  V30 3999 N 365.091 -1.34144 -0.827227 0
M  V30 4000 C 366.316 -1.29476 -1.62021 0
M  V30 4001 C 366.741 0.129292 -1.87655 0
M  V30 4002 O 366.099 1.08967 -1.449 0
M  V30 4003 C 366.147 -2.08702 -2.94068 0
M  V30 4004 O 365.251 -1.45359 -3.85933 0
M  V30 4005 H 364.592 -0.444881 -0.492927 0
M  V30 4006 H 367.122 -1.76882 -1.02829 0
M  V30 4007 H 367.132 -2.19898 -3.43669 0
M  V30 4008 H 365.807 -3.12241 -2.74734 0
M  V30 4009 H 364.384 -1.42879 -3.44442 0
M  V30 4010 N 366.569 1.04691 -1.17803 0
M  V30 4011 C 367.846 1.7472 -0.879328 0
M  V30 4012 C 368.226 2.01812 0.619271 0
M  V30 4013 O 367.574 1.65824 1.57209 0
M  V30 4014 C 367.784 3.03686 -1.71976 0
M  V30 4015 C 369.132 3.77542 -1.94286 0
M  V30 4016 O 370.156 3.13569 -1.68976 0
M  V30 4017 O 369.015 4.92506 -2.36855 0
M  V30 4018 H 366.109 0.760011 -0.326056 0
M  V30 4019 H 368.655 1.10813 -1.28525 0
M  V30 4020 H 367.427 2.79754 -2.73594 0
M  V30 4021 H 367.05 3.75332 -1.31194 0
M  V30 4022 N 368.047 0.979072 1.23499 0
M  V30 4023 C 369.275 0.665202 1.95915 0
M  V30 4024 C 369.69 -0.767571 1.72493 0
M  V30 4025 O 369.047 -1.51635 1.01554 0
M  V30 4026 C 369.098 0.944438 3.48945 0
M  V30 4027 O 368.819 2.3209 3.71572 0
M  V30 4028 C 370.32 0.646336 4.38563 0
M  V30 4029 H 367.54 0.247218 0.623798 0
M  V30 4030 H 370.084 1.31009 1.57025 0
M  V30 4031 H 368.239 0.345575 3.85856 0
M  V30 4032 H 368.653 2.40957 4.65876 0
M  V30 4033 H 370.127 0.892091 5.44744 0
M  V30 4034 H 370.604 -0.419575 4.37191 0
M  V30 4035 H 371.21 1.22562 4.07258 0
M  V30 4036 N 369.525 -1.3858 0.750561 0
M  V30 4037 C 370.774 -1.99424 0.302172 0
M  V30 4038 C 371.087 -1.60254 -1.12152 0
M  V30 4039 O 372.293 -2.14046 -1.67023 0
M  V30 4040 C 370.749 -3.56558 0.489307 0
M  V30 4041 C 370.357 -4.04682 1.92189 0
M  V30 4042 C 372.101 -4.24374 0.103478 0
M  V30 4043 C 370.008 -5.54446 2.05775 0
M  V30 4044 H 368.938 -0.746046 0.10923 0
M  V30 4045 H 371.589 -1.58383 0.92667 0
M  V30 4046 H 369.971 -3.95472 -0.204329 0
M  V30 4047 H 371.145 -3.77065 2.64875 0
M  V30 4048 H 369.46 -3.4958 2.26236 0
M  V30 4049 H 372.057 -5.34384 0.183787 0
M  V30 4050 H 372.4 -4.05468 -0.943481 0
M  V30 4051 H 372.933 -3.90688 0.748854 0
M  V30 4052 H 369.672 -5.78252 3.08714 0
M  V30 4053 H 369.192 -5.83816 1.37546 0
M  V30 4054 H 370.871 -6.20099 1.84626 0
M  V30 4055 N 371.003 -0.499398 -1.49478 0
M  V30 4056 C 371.913 0.284489 -2.32869 0
M  V30 4057 C 372.929 0.968885 -1.44529 0
M  V30 4058 O 374.105 0.95062 -1.77553 0
M  V30 4059 C 371.17 1.33594 -3.19928 0
M  V30 4060 C 370.231 0.665149 -4.24116 0
M  V30 4061 C 369.464 1.6665 -5.07014 0
M  V30 4062 O 369.687 2.89618 -4.91404 0
M  V30 4063 O 368.621 1.22271 -5.8935 0
M  V30 4064 H 372.447 -0.39802 -3.01081 0
M  V30 4065 H 370.032 -0.260758 -1.47107 0
M  V30 4066 H 371.914 1.94431 -3.73864 0
M  V30 4067 H 370.589 2.0014 -2.54412 0
M  V30 4068 H 369.496 0.0170769 -3.74096 0
M  V30 4069 H 370.829 0.0421555 -4.92182 0
M  V30 4070 N 372.481 1.55866 -0.233164 0
M  V30 4071 C 373.429 2.22176 0.68851 0
M  V30 4072 C 374.423 1.20487 1.19076 0
M  V30 4073 O 375.629 1.38536 1.14925 0
M  V30 4074 H 372.004 0.712511 0.240483 0
M  V30 4075 H 373.975 2.98212 0.105935 0
M  V30 4076 C 372.724 2.92446 1.88071 0
M  V30 4077 H 372.047 3.70458 1.50337 0
M  V30 4078 H 373.487 3.42226 2.50314 0
M  V30 4079 C 371.946 1.95555 2.74335 0
M  V30 4080 O 372.476 1.47986 3.73447 0
M  V30 4081 N 370.682 1.62953 2.40613 0
M  V30 4082 H 370.229 2.01831 1.60069 0
M  V30 4083 H 370.187 0.983886 2.98609 0
M  V30 4084 N 373.959 -0.0401083 1.57549 0
M  V30 4085 C 375.205 -0.734211 1.89043 0
M  V30 4086 C 375.538 -1.75591 0.829535 0
M  V30 4087 O 374.813 -1.93868 -0.156706 0
M  V30 4088 C 375.096 -1.41374 3.31188 0
M  V30 4089 C 374.949 -0.406299 4.47961 0
M  V30 4090 C 376.268 -2.35061 3.72068 0
M  V30 4091 H 373.387 -0.265447 0.687537 0
M  V30 4092 H 376.029 0.00294087 1.9 0
M  V30 4093 H 374.179 -2.04206 3.30503 0
M  V30 4094 H 375.851 0.219255 4.60779 0
M  V30 4095 H 374.094 0.275485 4.32924 0
M  V30 4096 H 374.765 -0.920022 5.44279 0
M  V30 4097 H 377.241 -1.82282 3.74049 0
M  V30 4098 H 376.117 -2.79593 4.72355 0
M  V30 4099 H 376.378 -3.21258 3.0372 0
M  V30 4100 N 375.437 -1.54477 -0.31217 0
M  V30 4101 C 376.384 -1.84655 -1.38461 0
M  V30 4102 C 377.354 -0.694536 -1.50882 0
M  V30 4103 O 378.539 -0.942081 -1.6592 0
M  V30 4104 C 375.679 -2.0896 -2.74645 0
M  V30 4105 C 374.792 -3.36618 -2.70763 0
M  V30 4106 C 373.927 -3.50824 -3.98868 0
M  V30 4107 C 372.966 -4.72315 -3.89339 0
M  V30 4108 N 372.103 -4.83387 -5.09197 0
M  V30 4109 H 376.943 -2.76142 -1.12026 0
M  V30 4110 H 374.48 -1.36748 -0.542065 0
M  V30 4111 H 376.438 -2.21045 -3.53829 0
M  V30 4112 H 375.068 -1.20752 -2.99364 0
M  V30 4113 H 374.12 -3.33211 -1.83506 0
M  V30 4114 H 375.432 -4.25917 -2.59608 0
M  V30 4115 H 374.586 -3.62513 -4.86486 0
M  V30 4116 H 373.325 -2.59638 -4.12843 0
M  V30 4117 H 372.33 -4.6067 -3.00105 0
M  V30 4118 H 373.555 -5.64897 -3.76919 0
M  V30 4119 H 371.501 -3.9512 -5.23657 0
M  V30 4120 H 371.418 -5.66669 -5.00422 0
M  V30 4121 H 372.686 -4.9942 -5.98498 0
M  V30 4122 N 376.915 0.57481 -1.46744 0
M  V30 4123 C 377.878 1.66533 -1.57478 0
M  V30 4124 C 378.878 1.54338 -0.451263 0
M  V30 4125 O 380.068 1.58814 -0.715813 0
M  V30 4126 C 377.2 3.05999 -1.50259 0
M  V30 4127 H 378.393 1.58372 -2.54673 0
M  V30 4128 H 375.946 0.793301 -1.34672 0
M  V30 4129 H 376.681 3.19709 -0.543725 0
M  V30 4130 H 376.466 3.16259 -2.31781 0
M  V30 4131 H 377.956 3.8537 -1.60872 0
M  V30 4132 N 378.394 1.34581 0.820102 0
M  V30 4133 C 379.341 1.2639 1.93117 0
M  V30 4134 C 380.311 0.138554 1.65521 0
M  V30 4135 O 381.496 0.320004 1.88097 0
M  V30 4136 C 378.636 1.02812 3.29429 0
M  V30 4137 C 377.749 2.24146 3.693 0
M  V30 4138 C 376.884 1.93829 4.94574 0
M  V30 4139 C 375.923 3.1129 5.27034 0
M  V30 4140 N 375.06 2.80838 6.43486 0
M  V30 4141 H 379.9 2.21408 1.99455 0
M  V30 4142 H 377.437 1.10077 0.975784 0
M  V30 4143 H 379.395 0.871788 4.0799 0
M  V30 4144 H 378.025 0.114612 3.22596 0
M  V30 4145 H 377.077 2.50691 2.86109 0
M  V30 4146 H 378.389 3.11899 3.89257 0
M  V30 4147 H 377.543 1.74948 5.80929 0
M  V30 4148 H 376.282 1.03341 4.76626 0
M  V30 4149 H 375.287 3.30764 4.39175 0
M  V30 4150 H 376.512 4.02561 5.4692 0
M  V30 4151 H 374.458 1.92929 6.26988 0
M  V30 4152 H 374.375 3.62123 6.63629 0
M  V30 4153 H 375.643 2.65467 7.32903 0
M  V30 4154 N 379.872 -1.04064 1.18357 0
M  V30 4155 C 381.121 -1.76662 0.973313 0
M  V30 4156 C 381.434 -1.89154 -0.497991 0
M  V30 4157 O 382.64 -2.58606 -0.826762 0
M  V30 4158 C 381.096 -3.17624 1.69242 0
M  V30 4159 C 380.704 -3.13225 3.20303 0
M  V30 4160 C 382.448 -3.946 1.56497 0
M  V30 4161 C 380.355 -4.49046 3.84853 0
M  V30 4162 H 379.285 -0.662214 0.36054 0
M  V30 4163 H 381.936 -1.16553 1.41731 0
M  V30 4164 H 380.318 -3.78129 1.1762 0
M  V30 4165 H 381.492 -2.62172 3.78949 0
M  V30 4166 H 379.807 -2.49749 3.33189 0
M  V30 4167 H 382.404 -4.95042 2.02084 0
M  V30 4168 H 382.747 -4.13074 0.517243 0
M  V30 4169 H 383.28 -3.4067 2.05399 0
M  V30 4170 H 380.019 -4.35777 4.89672 0
M  V30 4171 H 379.539 -5.00203 3.30994 0
M  V30 4172 H 381.218 -5.17961 3.87718 0
M  V30 4173 N 381.35 -0.985608 -1.22978 0
M  V30 4174 C 382.282 -0.488154 -2.23941 0
M  V30 4175 C 383.295 0.41282 -1.57479 0
M  V30 4176 O 384.484 0.216121 -1.77187 0
M  V30 4177 C 381.584 0.312611 -3.37455 0
M  V30 4178 C 380.757 -0.582741 -4.33501 0
M  V30 4179 C 379.816 0.165064 -5.25941 0
M  V30 4180 O 378.842 -0.447077 -5.67442 0
M  V30 4181 N 380.044 1.44953 -5.62111 0
M  V30 4182 H 382.809 -1.3563 -2.67254 0
M  V30 4183 H 380.37 -0.859477 -1.37203 0
M  V30 4184 H 382.362 0.821357 -3.96277 0
M  V30 4185 H 380.932 1.0818 -2.93285 0
M  V30 4186 H 380.152 -1.27225 -3.73105 0
M  V30 4187 H 381.44 -1.19275 -4.94622 0
M  V30 4188 H 380.838 1.9683 -5.30353 0
M  V30 4189 H 379.395 1.90361 -6.23383 0
M  V30 4190 N 382.828 1.3818 -0.7579 0
M  V30 4191 C 384.105 1.94106 -0.241306 0
M  V30 4192 C 384.485 1.69282 1.26122 0
M  V30 4193 O 383.833 1.03378 2.03777 0
M  V30 4194 C 384.043 3.43809 -0.59967 0
M  V30 4195 C 385.391 4.20868 -0.561717 0
M  V30 4196 O 386.415 3.5211 -0.538222 0
M  V30 4197 O 385.274 5.43451 -0.576478 0
M  V30 4198 H 382.368 0.825376 -0.0518042 0
M  V30 4199 H 384.914 1.47548 -0.838315 0
M  V30 4200 H 383.686 3.55403 -1.6372 0
M  V30 4201 H 383.309 3.97592 0.0251197 0
M  V30 4202 N 384.306 0.507319 1.49211 0
M  V30 4203 C 385.253 -0.267728 2.29242 0
M  V30 4204 C 386.223 -0.954609 1.35928 0
M  V30 4205 O 387.408 -0.960046 1.64887 0
M  V30 4206 C 384.548 -1.32243 3.18756 0
M  V30 4207 C 383.661 -0.64669 4.27132 0
M  V30 4208 C 382.796 -1.68238 5.03855 0
M  V30 4209 C 381.835 -0.98885 6.0406 0
M  V30 4210 N 380.972 -1.96903 6.73924 0
M  V30 4211 H 385.812 0.420968 2.95012 0
M  V30 4212 H 383.349 0.219443 1.45454 0
M  V30 4213 H 385.307 -1.94599 3.69036 0
M  V30 4214 H 383.937 -1.97981 2.54958 0
M  V30 4215 H 382.989 0.0902926 3.80293 0
M  V30 4216 H 384.301 -0.101058 4.98698 0
M  V30 4217 H 383.455 -2.38081 5.58034 0
M  V30 4218 H 382.194 -2.26187 4.32077 0
M  V30 4219 H 381.199 -0.276222 5.49106 0
M  V30 4220 H 382.424 -0.415767 6.77826 0
M  V30 4221 H 380.37 -2.53803 6.04913 0
M  V30 4222 H 380.287 -1.47423 7.41487 0
M  V30 4223 H 381.555 -2.66015 7.32705 0
M  V30 4224 N 385.784 -1.5574 0.241426 0
M  V30 4225 C 386.694 -2.2479 -0.671305 0
M  V30 4226 C 387.71 -1.26217 -1.19772 0
M  V30 4227 O 388.886 -1.59079 -1.23514 0
M  V30 4228 C 385.951 -2.92966 -1.85396 0
M  V30 4229 C 385.012 -4.06935 -1.36756 0
M  V30 4230 C 384.245 -4.71851 -2.49384 0
M  V30 4231 O 384.468 -4.35823 -3.67987 0
M  V30 4232 O 383.402 -5.60467 -2.19454 0
M  V30 4233 H 387.228 -3.0349 -0.112966 0
M  V30 4234 H 384.813 -1.49397 0.0101513 0
M  V30 4235 H 386.695 -3.35927 -2.54423 0
M  V30 4236 H 385.37 -2.17211 -2.40002 0
M  V30 4237 H 384.277 -3.68503 -0.644726 0
M  V30 4238 H 385.61 -4.84492 -0.867647 0
M  V30 4239 N 387.262 0.0317525 -1.57568 0
M  V30 4240 C 388.51 0.721676 -1.88776 0
M  V30 4241 C 388.831 1.76039 -0.838772 0
M  V30 4242 O 388.101 1.95482 0.127935 0
M  V30 4243 H 386.681 0.269534 -0.696678 0
M  V30 4244 H 389.343 -0.00165879 -1.949 0
M  V30 4245 H 388.439 1.21293 -2.87566 0
M  V30 4246 N 388.74 1.54641 0.303973 0
M  V30 4247 C 389.989 1.7299 1.03717 0
M  V30 4248 C 390.302 0.521168 1.88529 0
M  V30 4249 O 391.508 0.586408 2.65092 0
M  V30 4250 C 389.964 3.06051 1.89369 0
M  V30 4251 C 389.572 4.34393 1.09574 0
M  V30 4252 C 391.316 3.3376 2.62306 0
M  V30 4253 C 389.223 5.58506 1.94486 0
M  V30 4254 H 388.153 0.64473 0.390947 0
M  V30 4255 H 390.804 1.81124 0.294328 0
M  V30 4256 H 389.186 2.91874 2.67629 0
M  V30 4257 H 390.36 4.59396 0.359485 0
M  V30 4258 H 388.675 4.13597 0.482324 0
M  V30 4259 H 391.272 4.23687 3.26181 0
M  V30 4260 H 391.615 2.52503 3.3098 0
M  V30 4261 H 392.148 3.48894 1.91097 0
M  V30 4262 H 388.887 6.42422 1.30287 0
M  V30 4263 H 388.407 5.37694 2.65792 0
M  V30 4264 H 390.086 5.95651 2.52605 0
M  V30 4265 N 390.218 -0.567019 1.47046 0
M  V30 4266 C 391.629 -1.14916 1.47143 0
M  V30 4267 C 391.98 -1.94954 0.220767 0
M  V30 4268 O 391.105 -2.05602 -0.67505 0
M  V30 4269 C 391.7 -2.09069 2.666 0
M  V30 4270 C 390.259 -2.62575 2.69687 0
M  V30 4271 C 389.406 -1.38755 2.40088 0
M  V30 4272 H 392.357 -0.354126 1.54699 0
M  V30 4273 H 392.378 -2.92789 2.43011 0
M  V30 4274 H 391.89 -1.50789 3.57609 0
M  V30 4275 H 389.991 -3.24681 1.82792 0
M  V30 4276 H 390.104 -3.04239 3.70102 0
M  V30 4277 H 388.468 -1.69098 1.90468 0
M  V30 4278 H 389.251 -0.822822 3.33293 0
M  V30 4279 N 391.696 -1.35014 -0.812953 0
M  V30 4280 C 393.107 -1.25035 -1.38648 0
M  V30 4281 C 393.458 0.119967 -1.95833 0
M  V30 4282 O 392.583 1.02069 -1.90816 0
M  V30 4283 C 393.178 -2.26394 -2.52054 0
M  V30 4284 C 391.737 -2.20175 -3.05287 0
M  V30 4285 C 390.884 -2.12451 -1.78213 0
M  V30 4286 H 393.835 -1.46235 -0.616516 0
M  V30 4287 H 393.856 -1.88672 -3.30429 0
M  V30 4288 H 393.368 -3.26116 -2.10404 0
M  V30 4289 H 391.469 -1.23841 -3.51417 0
M  V30 4290 H 391.582 -3.11863 -3.63701 0
M  V30 4291 H 389.946 -1.58328 -1.9951 0
M  V30 4292 H 390.729 -3.14024 -1.38723 0
M  V30 4293 N 393.175 1.03435 -1.18907 0
M  V30 4294 C 394.452 1.73778 -0.89781 0
M  V30 4295 C 394.832 2.02458 0.597832 0
M  V30 4296 O 394.18 1.67482 1.55441 0
M  V30 4297 C 394.39 3.01845 -1.75187 0
M  V30 4298 C 395.738 3.7546 -1.9828 0
M  V30 4299 O 396.762 3.11759 -1.72293 0
M  V30 4300 O 395.621 4.89966 -2.42065 0
M  V30 4301 H 392.715 0.75651 -0.334098 0
M  V30 4302 H 395.261 1.09444 -1.29693 0
M  V30 4303 H 394.033 2.76836 -2.76545 0
M  V30 4304 H 393.656 3.73919 -1.35167 0
M  V30 4305 N 394.653 0.992116 1.22453 0
M  V30 4306 C 395.585 0.500024 2.23679 0
M  V30 4307 C 396.598 -0.404463 1.57696 0
M  V30 4308 O 397.787 -0.206722 1.77299 0
M  V30 4309 C 394.887 -0.294711 3.37616 0
M  V30 4310 C 394.06 0.605723 4.33186 0
M  V30 4311 C 393.119 -0.13717 5.26021 0
M  V30 4312 O 392.145 0.477164 5.67196 0
M  V30 4313 N 393.347 -1.4197 5.62872 0
M  V30 4314 H 396.112 1.37045 2.66531 0
M  V30 4315 H 393.673 0.866741 1.36745 0
M  V30 4316 H 395.665 -0.800329 3.96707 0
M  V30 4317 H 394.235 -1.06623 2.93854 0
M  V30 4318 H 393.455 1.29202 3.72425 0
M  V30 4319 H 394.743 1.21896 4.93983 0
M  V30 4320 H 394.141 -1.94015 5.31389 0
M  V30 4321 H 392.698 -1.87052 6.24383 0
M  V30 4322 N 396.131 -1.37776 0.765217 0
M  V30 4323 C 397.063 -2.28958 0.105361 0
M  V30 4324 C 398.076 -1.48316 -0.67128 0
M  V30 4325 O 399.265 -1.71046 -0.51045 0
M  V30 4326 C 396.365 -3.27421 -0.874569 0
M  V30 4327 C 395.538 -4.37132 -0.153123 0
M  V30 4328 C 394.597 -5.1571 -1.04547 0
M  V30 4329 O 393.623 -5.66896 -0.511672 0
M  V30 4330 N 394.825 -5.29808 -2.37243 0
M  V30 4331 H 397.59 -2.86227 0.888495 0
M  V30 4332 H 395.151 -1.49682 0.617 0
M  V30 4333 H 397.143 -3.7687 -1.47483 0
M  V30 4334 H 395.713 -2.70967 -1.55871 0
M  V30 4335 H 394.933 -3.89166 0.627975 0
M  V30 4336 H 396.221 -5.07625 0.345643 0
M  V30 4337 H 395.619 -4.89793 -2.83054 0
M  V30 4338 H 394.176 -5.82589 -2.9229 0
M  V30 4339 N 397.609 -0.515225 -1.4894 0
M  V30 4340 C 399.025 -0.172099 -1.58669 0
M  V30 4341 C 399.225 1.32405 -1.51892 0
M  V30 4342 O 398.281 2.10116 -1.40027 0
M  V30 4343 C 399.594 -0.761533 -2.90897 0
M  V30 4344 C 401.142 -0.728926 -3.04394 0
M  V30 4345 C 401.617 -1.29667 -4.39261 0
M  V30 4346 N 403.108 -1.25799 -4.4579 0
M  V30 4347 C 403.843 -1.66733 -5.48623 0
M  V30 4348 N 403.339 -2.15327 -6.58488 0
M  V30 4349 N 405.132 -1.58061 -5.39419 0
M  V30 4350 H 397.283 -1.48778 -1.51588 0
M  V30 4351 H 399.546 -0.617968 -0.718901 0
M  V30 4352 H 399.252 -1.81136 -3.01468 0
M  V30 4353 H 399.126 -0.230106 -3.76497 0
M  V30 4354 H 401.513 0.312098 -2.93445 0
M  V30 4355 H 401.594 -1.29766 -2.20442 0
M  V30 4356 H 401.238 -2.33655 -4.50963 0
M  V30 4357 H 401.168 -0.703752 -5.21876 0
M  V30 4358 H 403.659 -0.902102 -3.66975 0
M  V30 4359 H 403.972 -2.44594 -7.33071 0
M  V30 4360 H 402.317 -2.19311 -6.59491 0
M  V30 4361 H 405.508 -1.19906 -4.52482 0
M  V30 4362 H 405.681 -1.90284 -6.19432 0
M  V30 4363 N 399.087 1.5561 -0.249682 0
M  V30 4364 C 400.017 2.24477 0.642826 0
M  V30 4365 C 400.998 1.22601 1.17911 0
M  V30 4366 O 402.183 1.5126 1.21795 0
M  V30 4367 C 399.313 2.94638 1.83863 0
M  V30 4368 C 398.267 4.03227 1.435 0
M  V30 4369 C 397.593 4.60828 2.71186 0
M  V30 4370 C 398.893 5.18796 0.604002 0
M  V30 4371 H 400.587 2.99321 0.0685625 0
M  V30 4372 H 398.133 1.43965 0.0315363 0
M  V30 4373 H 400.086 3.41517 2.46868 0
M  V30 4374 H 398.81 2.17287 2.43832 0
M  V30 4375 H 397.469 3.57121 0.828275 0
M  V30 4376 H 397.117 3.80174 3.29358 0
M  V30 4377 H 396.817 5.34132 2.44901 0
M  V30 4378 H 398.341 5.10442 3.35084 0
M  V30 4379 H 399.755 5.61883 1.13842 0
M  V30 4380 H 398.152 5.98506 0.437097 0
M  V30 4381 H 399.222 4.83384 -0.383147 0
M  V30 4382 N 400.565 -0.0233959 1.57583 0
M  V30 4383 C 401.814 -0.712133 1.8871 0
M  V30 4384 C 402.127 -1.76217 0.848944 0
M  V30 4385 O 403.333 -2.50389 1.04964 0
M  V30 4386 C 401.789 -1.3177 3.3491 0
M  V30 4387 C 401.397 -0.303715 4.46969 0
M  V30 4388 C 403.141 -1.98598 3.75179 0
M  V30 4389 C 401.048 -0.917945 5.84233 0
M  V30 4390 H 399.978 -0.269735 0.704101 0
M  V30 4391 H 402.629 0.0333114 1.8347 0
M  V30 4392 H 401.011 -2.11304 3.34913 0
M  V30 4393 H 402.185 0.465325 4.58445 0
M  V30 4394 H 400.5 0.2628 4.1557 0
M  V30 4395 H 403.097 -2.45416 4.75053 0
M  V30 4396 H 403.44 -2.80659 3.07468 0
M  V30 4397 H 403.973 -1.25831 3.77374 0
M  V30 4398 H 400.712 -0.136633 6.55358 0
M  V30 4399 H 400.232 -1.65669 5.76467 0
M  V30 4400 H 401.911 -1.4236 6.31144 0
M  V30 4401 N 402.043 -1.548 -0.295768 0
M  V30 4402 C 403.29 -1.74329 -1.03032 0
M  V30 4403 C 403.618 -0.531915 -1.87085 0
M  V30 4404 O 402.873 0.486052 -1.89568 0
M  V30 4405 C 403.172 -2.98797 -1.961 0
M  V30 4406 C 402.838 -4.32356 -1.2798 0
M  V30 4407 C 401.5 -4.68661 -1.09135 0
M  V30 4408 C 403.852 -5.15128 -0.793243 0
M  V30 4409 C 401.18 -5.85312 -0.403269 0
M  V30 4410 C 403.532 -6.32488 -0.118854 0
M  V30 4411 C 402.196 -6.6745 0.0815043 0
M  V30 4412 H 401.466 -0.637916 -0.37702 0
M  V30 4413 H 404.113 -1.8906 -0.304696 0
M  V30 4414 H 402.418 -2.78869 -2.75207 0
M  V30 4415 H 404.115 -3.11102 -2.53015 0
M  V30 4416 H 400.705 -4.03808 -1.43655 0
M  V30 4417 H 404.889 -4.87575 -0.92653 0
M  V30 4418 H 400.145 -6.1094 -0.237098 0
M  V30 4419 H 404.319 -6.95892 0.266035 0
M  V30 4420 H 401.946 -7.57695 0.616685 0
M  V30 4421 N 403.521 0.559213 -1.47345 0
M  V30 4422 C 404.484 1.64854 -1.59235 0
M  V30 4423 C 405.484 1.53851 -0.467607 0
M  V30 4424 O 406.674 1.58045 -0.732617 0
M  V30 4425 C 403.806 3.04388 -1.53496 0
M  V30 4426 H 404.999 1.55662 -2.56339 0
M  V30 4427 H 402.552 0.778973 -1.35505 0
M  V30 4428 H 403.287 3.19115 -0.577604 0
M  V30 4429 H 403.072 3.13783 -2.35123 0
M  V30 4430 H 404.562 3.83642 -1.6495 0
M  V30 4431 N 404.999 1.35443 0.805782 0
M  V30 4432 C 406.247 1.28507 1.55982 0
M  V30 4433 C 406.568 -0.140046 1.94496 0
M  V30 4434 O 405.838 -1.07666 1.63661 0
M  V30 4435 H 404.418 0.472676 0.578434 0
M  V30 4436 H 407.08 1.69555 0.961098 0
M  V30 4437 H 406.176 1.90148 2.47488 0
M  V30 4438 N 406.477 -1.02803 1.19454 0
M  V30 4439 C 407.424 -2.11099 0.933046 0
M  V30 4440 C 408.394 -1.65571 -0.132447 0
M  V30 4441 O 409.579 -1.90797 0.00987576 0
M  V30 4442 C 406.719 -3.41763 0.478747 0
M  V30 4443 C 405.832 -4.00833 1.6111 0
M  V30 4444 C 404.967 -5.19511 1.10825 0
M  V30 4445 C 404.006 -5.70639 2.21445 0
M  V30 4446 N 403.143 -6.80589 1.72461 0
M  V30 4447 H 407.983 -2.32804 1.86028 0
M  V30 4448 H 405.52 -1.14179 0.927441 0
M  V30 4449 H 407.478 -4.16736 0.196745 0
M  V30 4450 H 406.108 -3.20166 -0.411493 0
M  V30 4451 H 405.16 -3.23066 2.00829 0
M  V30 4452 H 406.472 -4.34794 2.4445 0
M  V30 4453 H 405.626 -6.01645 0.781533 0
M  V30 4454 H 404.365 -4.87086 0.244606 0
M  V30 4455 H 403.37 -4.87116 2.54947 0
M  V30 4456 H 404.595 -6.05102 3.08267 0
M  V30 4457 H 402.541 -6.50016 0.884056 0
M  V30 4458 H 402.458 -7.13681 2.49389 0
M  V30 4459 H 403.726 -7.66317 1.42755 0
M  V30 4460 N 407.956 -0.998596 -1.21925 0
M  V30 4461 C 408.888 -0.511879 -2.23411 0
M  V30 4462 C 409.901 0.396094 -1.57908 0
M  V30 4463 O 411.09 0.197316 -1.77406 0
M  V30 4464 C 408.19 0.276802 -3.37768 0
M  V30 4465 C 407.363 -0.628687 -4.32858 0
M  V30 4466 C 406.422 0.109272 -5.26087 0
M  V30 4467 O 405.448 -0.507237 -5.66935 0
M  V30 4468 N 406.65 1.38983 -5.63617 0
M  V30 4469 H 409.415 -1.38457 -2.658 0
M  V30 4470 H 406.976 -0.873981 -1.36283 0
M  V30 4471 H 408.968 0.77928 -3.97126 0
M  V30 4472 H 407.538 1.05063 -2.94415 0
M  V30 4473 H 406.758 -1.31175 -3.71735 0
M  V30 4474 H 408.046 -1.24514 -4.93329 0
M  V30 4475 H 407.444 1.91194 -5.32411 0
M  V30 4476 H 406.001 1.83739 -6.25367 0
M  V30 4477 N 409.434 1.37368 -0.772513 0
M  V30 4478 C 410.364 2.32856 -0.173304 0
M  V30 4479 C 411.345 1.55818 0.682262 0
M  V30 4480 O 412.53 1.84052 0.619566 0
M  V30 4481 C 409.66 3.40048 0.706007 0
M  V30 4482 C 408.614 4.27973 -0.0483144 0
M  V30 4483 C 407.94 5.26184 0.950491 0
M  V30 4484 C 409.24 5.07665 -1.22776 0
M  V30 4485 H 410.934 2.83217 -0.971002 0
M  V30 4486 H 408.48 1.3617 -0.468377 0
M  V30 4487 H 410.433 4.05827 1.13501 0
M  V30 4488 H 409.157 2.88214 1.53623 0
M  V30 4489 H 407.816 3.63726 -0.458107 0
M  V30 4490 H 407.464 4.7063 1.77529 0
M  V30 4491 H 407.164 5.85872 0.450314 0
M  V30 4492 H 408.688 5.94838 1.37842 0
M  V30 4493 H 410.102 5.66578 -0.875366 0
M  V30 4494 H 408.499 5.76681 -1.66007 0
M  V30 4495 H 409.569 4.40294 -2.03149 0
M  V30 4496 N 410.912 0.523116 1.48665 0
M  V30 4497 C 411.822 -0.247406 2.33292 0
M  V30 4498 C 412.838 -0.945769 1.46052 0
M  V30 4499 O 414.014 -0.922253 1.79043 0
M  V30 4500 C 411.079 -1.28487 3.22012 0
M  V30 4501 C 410.14 -0.597592 4.2512 0
M  V30 4502 C 409.373 -1.58563 5.09601 0
M  V30 4503 O 409.596 -2.81763 4.95949 0
M  V30 4504 O 408.53 -1.12879 5.91221 0
M  V30 4505 H 412.356 0.445869 3.00409 0
M  V30 4506 H 409.941 0.284128 1.46673 0
M  V30 4507 H 411.823 -1.88459 3.7691 0
M  V30 4508 H 410.498 -1.96068 2.57564 0
M  V30 4509 H 409.405 0.0424407 3.74076 0
M  V30 4510 H 410.738 0.0361517 4.92187 0
M  V30 4511 N 412.39 -1.55475 0.257931 0
M  V30 4512 C 413.667 -1.91155 -0.414629 0
M  V30 4513 C 414.047 -1.18008 -1.75035 0
M  V30 4514 O 413.395 -0.301193 -2.26506 0
M  V30 4515 C 413.605 -3.44283 -0.571859 0
M  V30 4516 C 414.953 -4.15744 -0.862678 0
M  V30 4517 O 415.977 -3.50083 -0.657314 0
M  V30 4518 O 414.836 -5.31909 -1.2544 0
M  V30 4519 H 411.93 -0.796016 -0.22425 0
M  V30 4520 H 414.476 -1.66976 0.302814 0
M  V30 4521 H 413.248 -3.89558 0.368844 0
M  V30 4522 H 412.871 -3.7436 -1.33943 0
M  V30 4523 N 413.868 0.0150385 -1.57593 0
M  V30 4524 C 415.116 0.701613 -1.8953 0
M  V30 4525 C 415.437 1.75139 -0.857396 0
M  V30 4526 O 414.707 1.95607 0.107194 0
M  V30 4527 H 413.287 0.26213 -0.699498 0
M  V30 4528 H 415.949 -0.0223304 -1.94887 0
M  V30 4529 H 415.045 1.18236 -2.88837 0
M  V30 4530 N 415.346 1.54954 0.287554 0
M  V30 4531 C 416.762 1.46469 0.633964 0
M  V30 4532 C 416.962 0.666865 1.90145 0
M  V30 4533 O 416.018 0.179906 2.51858 0
M  V30 4534 C 417.331 2.90556 0.774454 0
M  V30 4535 C 418.879 3.00681 0.869462 0
M  V30 4536 C 419.354 4.45993 1.04184 0
M  V30 4537 N 420.845 4.4976 1.10772 0
M  V30 4538 C 421.58 5.59393 1.25964 0
M  V30 4539 N 421.076 6.78923 1.37968 0
M  V30 4540 N 422.869 5.47107 1.28959 0
M  V30 4541 H 415.02 2.05288 -0.545041 0
M  V30 4542 H 417.283 0.930305 -0.182308 0
M  V30 4543 H 416.989 3.51594 -0.086207 0
M  V30 4544 H 416.863 3.38743 1.6593 0
M  V30 4545 H 419.25 2.39749 1.7206 0
M  V30 4546 H 419.331 2.55769 -0.0396831 0
M  V30 4547 H 418.975 5.07524 0.195422 0
M  V30 4548 H 418.905 4.88548 1.96542 0
M  V30 4549 H 421.396 3.63651 1.02794 0
M  V30 4550 H 421.709 7.58231 1.49353 0
M  V30 4551 H 420.054 6.81763 1.34999 0
M  V30 4552 H 423.245 4.52668 1.19202 0
M  V30 4553 H 423.418 6.32595 1.40455 0
M  V30 4554 N 416.824 -0.551391 1.4764 0
M  V30 4555 C 418.052 -1.33357 1.58189 0
M  V30 4556 C 418.467 -1.87342 0.234199 0
M  V30 4557 O 417.824 -1.65301 -0.77343 0
M  V30 4558 C 417.875 -2.49942 2.61173 0
M  V30 4559 O 417.596 -1.98187 3.90709 0
M  V30 4560 C 419.097 -3.42072 2.8196 0
M  V30 4561 H 416.317 -0.40631 0.533998 0
M  V30 4562 H 418.861 -0.667367 1.93304 0
M  V30 4563 H 417.016 -3.12489 2.28975 0
M  V30 4564 H 417.43 -2.74342 4.47031 0
M  V30 4565 H 418.904 -4.20278 3.57869 0
M  V30 4566 H 419.381 -3.95978 1.89995 0
M  V30 4567 H 419.987 -2.85336 3.15378 0
M  V30 4568 N 418.302 -1.35869 -0.798587 0
M  V30 4569 C 419.232 -1.32118 -1.92528 0
M  V30 4570 C 420.213 -0.194209 -1.68988 0
M  V30 4571 O 421.398 -0.390426 -1.90235 0
M  V30 4572 C 418.528 -1.10047 -3.29404 0
M  V30 4573 C 417.482 -2.19471 -3.67446 0
M  V30 4574 C 416.808 -1.82555 -5.02571 0
M  V30 4575 C 418.108 -3.61495 -3.76987 0
M  V30 4576 H 419.802 -2.26394 -1.95924 0
M  V30 4577 H 417.348 -1.08981 -0.94123 0
M  V30 4578 H 419.301 -1.06061 -4.07835 0
M  V30 4579 H 418.025 -0.122195 -3.26371 0
M  V30 4580 H 416.684 -2.22568 -2.91306 0
M  V30 4581 H 416.332 -0.833249 -4.9605 0
M  V30 4582 H 416.032 -2.5581 -5.28995 0
M  V30 4583 H 417.556 -1.80108 -5.83432 0
M  V30 4584 H 418.97 -3.60676 -4.4563 0
M  V30 4585 H 417.367 -4.33577 -4.14887 0
M  V30 4586 H 418.437 -3.97065 -2.78329 0
M  V30 4587 N 419.78 1.02168 -1.19998 0
M  V30 4588 C 421.005 1.79833 -1.03319 0
M  V30 4589 C 421.43 1.83504 0.413281 0
M  V30 4590 O 420.788 1.26635 1.29743 0
M  V30 4591 C 420.836 3.22396 -1.61533 0
M  V30 4592 O 419.94 4.03555 -0.849519 0
M  V30 4593 H 419.281 0.554872 -0.364709 0
M  V30 4594 H 421.811 1.28542 -1.59179 0
M  V30 4595 H 421.821 3.73124 -1.65054 0
M  V30 4596 H 420.496 3.19039 -2.66809 0
M  V30 4597 H 419.073 3.62169 -0.888129 0
M  V30 4598 N 421.258 1.00505 1.21394 0
M  V30 4599 C 422.535 0.603277 1.86064 0
M  V30 4600 C 422.915 -0.919095 1.90042 0
M  V30 4601 O 422.263 -1.80607 1.39977 0
M  V30 4602 C 422.473 1.23772 3.26315 0
M  V30 4603 C 423.821 1.34586 4.02705 0
M  V30 4604 O 424.845 1.19304 3.35626 0
M  V30 4605 O 423.704 1.59169 5.22807 0
M  V30 4606 H 420.798 0.206634 0.800769 0
M  V30 4607 H 423.344 1.1017 1.29076 0
M  V30 4608 H 422.116 2.27848 3.18121 0
M  V30 4609 H 421.739 0.725648 3.90922 0
M  V30 4610 N 422.737 -1.36956 0.779787 0
M  V30 4611 C 423.967 -2.03459 0.358877 0
M  V30 4612 C 424.375 -1.58939 -1.02641 0
M  V30 4613 O 423.718 -0.769777 -1.66794 0
M  V30 4614 C 423.78 -3.5796 0.332393 0
M  V30 4615 C 423.444 -4.25644 1.66362 0
M  V30 4616 C 424.441 -4.49205 2.61746 0
M  V30 4617 C 422.126 -4.63313 1.94027 0
M  V30 4618 C 424.12 -5.09503 3.82996 0
M  V30 4619 C 421.807 -5.2333 3.15546 0
M  V30 4620 C 422.805 -5.46363 4.0985 0
M  V30 4621 O 422.493 -6.05122 5.29228 0
M  V30 4622 H 422.225 -0.659767 0.147254 0
M  V30 4623 H 424.779 -1.76111 1.05708 0
M  V30 4624 H 423.009 -3.84388 -0.422237 0
M  V30 4625 H 424.698 -4.05852 -0.0625389 0
M  V30 4626 H 425.464 -4.20508 2.41657 0
M  V30 4627 H 421.343 -4.44715 1.21448 0
M  V30 4628 H 424.887 -5.27397 4.56617 0
M  V30 4629 H 420.784 -5.51451 3.35517 0
M  V30 4630 H 421.552 -6.23595 5.30161 0
M  V30 4631 N 424.215 -0.530993 -1.48385 0
M  V30 4632 C 425.163 0.244595 -2.3131 0
M  V30 4633 C 426.157 0.93451 -1.41291 0
M  V30 4634 O 427.363 0.85878 -1.58193 0
M  V30 4635 H 423.738 0.0977472 -0.74562 0
M  V30 4636 H 425.709 -0.474369 -2.94605 0
M  V30 4637 C 424.458 1.2779 -3.23365 0
M  V30 4638 H 423.781 0.756439 -3.92579 0
M  V30 4639 H 425.221 1.79198 -3.84271 0
M  V30 4640 C 423.68 2.31205 -2.45042 0
M  V30 4641 O 424.21 3.37661 -2.17596 0
M  V30 4642 N 422.416 2.04446 -2.0652 0
M  V30 4643 H 421.963 1.17891 -2.2904 0
M  V30 4644 H 421.921 2.73861 -1.54427 0
M  V30 4645 N 425.693 1.55336 -0.266172 0
M  V30 4646 C 426.942 1.98574 0.353749 0
M  V30 4647 C 427.255 1.15789 1.57646 0
M  V30 4648 O 428.461 1.49129 2.26876 0
M  V30 4649 C 426.917 3.53403 0.680747 0
M  V30 4650 C 426.525 4.44953 -0.52165 0
M  V30 4651 C 428.269 4.05251 1.26379 0
M  V30 4652 C 426.176 5.91156 -0.169736 0
M  V30 4653 H 425.106 0.741643 0.135949 0
M  V30 4654 H 427.757 1.79743 -0.369421 0
M  V30 4655 H 426.139 3.68001 1.46257 0
M  V30 4656 H 427.313 4.42121 -1.29869 0
M  V30 4657 H 425.628 4.03691 -1.02093 0
M  V30 4658 H 428.225 5.12021 1.54074 0
M  V30 4659 H 428.568 3.53749 2.19471 0
M  V30 4660 H 429.101 3.94057 0.544447 0
M  V30 4661 H 425.84 6.46736 -1.0683 0
M  V30 4662 H 425.36 5.97079 0.570717 0
M  V30 4663 H 427.039 6.4655 0.241245 0
M  V30 4664 N 427.171 -0.0066808 1.57599 0
M  V30 4665 C 428.103 -1.02827 2.04839 0
M  V30 4666 C 429.116 -1.31108 0.965113 0
M  V30 4667 O 430.305 -1.28202 1.24203 0
M  V30 4668 C 427.405 -2.36464 2.42771 0
M  V30 4669 C 426.578 -2.27219 3.73751 0
M  V30 4670 C 425.637 -3.43489 3.98625 0
M  V30 4671 O 424.663 -3.21976 4.69382 0
M  V30 4672 N 425.865 -4.66116 3.46 0
M  V30 4673 H 428.63 -0.625455 2.93101 0
M  V30 4674 H 426.191 -0.194198 1.60731 0
M  V30 4675 H 428.183 -3.13008 2.56531 0
M  V30 4676 H 426.753 -2.68512 1.60063 0
M  V30 4677 H 425.973 -1.35629 3.70133 0
M  V30 4678 H 427.261 -2.18208 4.59633 0
M  V30 4679 H 426.659 -4.86493 2.88688 0
M  V30 4680 H 425.216 -5.39949 3.65101 0
M  V30 4681 N 428.649 -1.55105 -0.279332 0
M  V30 4682 C 429.596 -1.8755 -1.34513 0
M  V30 4683 C 430.566 -0.726384 -1.49375 0
M  V30 4684 O 431.751 -0.977063 -1.63884 0
M  V30 4685 C 428.891 -2.14738 -2.70151 0
M  V30 4686 C 428.004 -3.42285 -2.63562 0
M  V30 4687 C 427.139 -3.59206 -3.91337 0
M  V30 4688 C 426.178 -4.80467 -3.79233 0
M  V30 4689 N 425.315 -4.94079 -4.98829 0
M  V30 4690 H 430.155 -2.78456 -1.06143 0
M  V30 4691 H 427.692 -1.37867 -0.512936 0
M  V30 4692 H 429.65 -2.28501 -3.49061 0
M  V30 4693 H 428.28 -1.27075 -2.96735 0
M  V30 4694 H 427.332 -3.37029 -1.76397 0
M  V30 4695 H 428.644 -4.31328 -2.50515 0
M  V30 4696 H 427.798 -3.72751 -4.78687 0
M  V30 4697 H 426.537 -2.68337 -4.07243 0
M  V30 4698 H 425.542 -4.66932 -2.90266 0
M  V30 4699 H 426.767 -5.72765 -3.64852 0
M  V30 4700 H 424.713 -4.06139 -5.15158 0
M  V30 4701 H 424.63 -5.77156 -4.8829 0
M  V30 4702 H 425.898 -5.12003 -5.8777 0
M  V30 4703 N 430.127 0.543554 -1.4793 0
M  V30 4704 C 431.037 1.67657 -1.64098 0
M  V30 4705 C 432.053 1.65934 -0.523622 0
M  V30 4706 O 433.229 1.85133 -0.792943 0
M  V30 4707 C 430.294 3.04146 -1.66421 0
M  V30 4708 C 429.355 3.16831 -2.89684 0
M  V30 4709 C 428.588 4.46809 -2.91886 0
M  V30 4710 O 428.811 5.33095 -2.02895 0
M  V30 4711 O 427.745 4.63573 -3.83906 0
M  V30 4712 H 431.571 1.56957 -2.59997 0
M  V30 4713 H 429.156 0.715116 -1.31173 0
M  V30 4714 H 431.038 3.85346 -1.70548 0
M  V30 4715 H 429.713 3.152 -0.736923 0
M  V30 4716 H 428.62 2.34977 -2.91095 0
M  V30 4717 H 429.953 3.10687 -3.81752 0
M  V30 4718 N 431.605 1.3629 0.791371 0
M  V30 4719 C 432.83 1.33726 1.58531 0
M  V30 4720 C 433.255 -0.0794933 1.87932 0
M  V30 4721 O 432.613 -1.05087 1.47738 0
M  V30 4722 C 432.661 2.16425 2.88431 0
M  V30 4723 O 431.765 1.5554 3.81944 0
M  V30 4724 H 431.106 0.457793 0.480959 0
M  V30 4725 H 433.636 1.79547 0.981031 0
M  V30 4726 H 433.646 2.28933 3.37718 0
M  V30 4727 H 432.321 3.19415 2.66359 0
M  V30 4728 H 430.898 1.51961 3.40532 0
M  V30 4729 N 433.083 -1.0153 1.20538 0
M  V30 4730 C 434.311 -1.78746 1.04199 0
M  V30 4731 C 434.726 -1.84323 -0.408733 0
M  V30 4732 O 434.083 -1.29714 -1.28377 0
M  V30 4733 C 434.134 -3.23152 1.62035 0
M  V30 4734 O 433.855 -3.17918 3.0143 0
M  V30 4735 C 435.356 -4.16911 1.50666 0
M  V30 4736 H 432.576 -0.56208 0.366479 0
M  V30 4737 H 435.12 -1.27794 1.59653 0
M  V30 4738 H 433.275 -3.71248 1.10697 0
M  V30 4739 H 433.689 -4.08567 3.28897 0
M  V30 4740 H 435.163 -5.16072 1.95892 0
M  V30 4741 H 435.64 -4.36791 0.459363 0
M  V30 4742 H 436.246 -3.74698 2.01201 0
M  V30 4743 N 434.561 -1.01147 -1.20859 0
M  V30 4744 C 435.491 -0.597663 -2.25722 0
M  V30 4745 C 436.472 0.384744 -1.65692 0
M  V30 4746 O 437.657 0.271303 -1.92296 0
M  V30 4747 C 434.787 0.0700149 -3.47229 0
M  V30 4748 C 433.741 -0.832843 -4.19819 0
M  V30 4749 C 433.067 -0.0312202 -5.34691 0
M  V30 4750 C 434.367 -2.1385 -4.76514 0
M  V30 4751 H 436.061 -1.47423 -2.60589 0
M  V30 4752 H 433.607 -0.710301 -1.25263 0
M  V30 4753 H 435.56 0.37103 -4.19763 0
M  V30 4754 H 434.284 0.981259 -3.11511 0
M  V30 4755 H 432.943 -1.11778 -3.49144 0
M  V30 4756 H 432.591 0.881515 -4.95215 0
M  V30 4757 H 432.291 -0.632434 -5.84187 0
M  V30 4758 H 433.815 0.26346 -6.10031 0
M  V30 4759 H 435.229 -1.9002 -5.40893 0
M  V30 4760 H 433.626 -2.69012 -5.36426 0
M  V30 4761 H 434.696 -2.80495 -3.95538 0
M  V30 4762 N 436.039 1.36541 -0.78704 0
M  V30 4763 C 436.989 2.27459 -0.156957 0
M  V30 4764 C 437.973 1.46843 0.657709 0
M  V30 4765 O 439.165 1.69245 0.518173 0
M  V30 4766 C 436.294 3.35893 0.709278 0
M  V30 4767 C 435.38 4.23947 -0.114049 0
M  V30 4768 N 435.771 4.92145 -1.16736 0
M  V30 4769 C 434.069 4.4587 0.107497 0
M  V30 4770 C 434.77 5.57261 -1.66837 0
M  V30 4771 N 433.746 5.3473 -0.977992 0
M  V30 4772 H 437.548 2.77669 -0.963185 0
M  V30 4773 H 435.062 1.49839 -0.62627 0
M  V30 4774 H 437.059 3.99953 1.17656 0
M  V30 4775 H 435.719 2.87238 1.51408 0
M  V30 4776 H 436.73 4.94169 -1.54976 0
M  V30 4777 H 433.407 4.08056 0.882994 0
M  V30 4778 H 434.797 6.21728 -2.54762 0
M  V30 4779 N 437.518 0.538854 1.48102 0
M  V30 4780 C 438.448 -0.207654 2.32575 0
M  V30 4781 C 439.429 -0.926559 1.4265 0
M  V30 4782 O 440.614 -0.91061 1.71527 0
M  V30 4783 C 437.744 -1.24957 3.24042 0
M  V30 4784 C 436.698 -0.648263 4.23062 0
M  V30 4785 C 436.024 -1.79348 5.03725 0
M  V30 4786 C 437.324 0.385897 5.20872 0
M  V30 4787 H 439.018 0.497534 2.95237 0
M  V30 4788 H 436.564 0.240715 1.41974 0
M  V30 4789 H 438.517 -1.77983 3.81969 0
M  V30 4790 H 437.241 -1.98446 2.59397 0
M  V30 4791 H 435.9 -0.139452 3.66335 0
M  V30 4792 H 435.548 -2.51696 4.35498 0
M  V30 4793 H 435.248 -1.39702 5.70751 0
M  V30 4794 H 436.772 -2.32735 5.64506 0
M  V30 4795 H 438.186 -0.057607 5.73271 0
M  V30 4796 H 436.583 0.700227 5.96001 0
M  V30 4797 H 437.653 1.28848 4.67468 0
M  V30 4798 N 438.996 -1.55193 0.274407 0
M  V30 4799 C 440.242 -1.99877 -0.343086 0
M  V30 4800 C 440.575 -1.16256 -1.55558 0
M  V30 4801 O 439.85 -0.232462 -1.93106 0
M  V30 4802 C 440.133 -3.52706 -0.725965 0
M  V30 4803 C 439.986 -4.47081 0.493818 0
M  V30 4804 C 441.305 -4.11422 -1.56268 0
M  V30 4805 H 438.424 -0.726625 -0.123229 0
M  V30 4806 H 441.066 -1.86136 0.38121 0
M  V30 4807 H 439.216 -3.64546 -1.34307 0
M  V30 4808 H 440.888 -4.47186 1.13237 0
M  V30 4809 H 439.131 -4.1877 1.13201 0
M  V30 4810 H 439.802 -5.51699 0.18217 0
M  V30 4811 H 442.278 -4.02855 -1.04151 0
M  V30 4812 H 441.154 -5.18568 -1.79939 0
M  V30 4813 H 441.415 -3.61607 -2.54348 0
M  V30 4814 N 440.474 -0.00167713 -1.576 0
M  V30 4815 C 441.404 0.988091 -2.11563 0
M  V30 4816 C 442.385 1.35736 -1.02517 0
M  V30 4817 O 443.57 1.44082 -1.30208 0
M  V30 4818 C 440.7 2.27941 -2.62031 0
M  V30 4819 C 439.654 2.0517 -3.75619 0
M  V30 4820 C 438.98 3.4033 -4.12407 0
M  V30 4821 C 440.28 1.41294 -5.02825 0
M  V30 4822 H 441.974 0.538771 -2.94513 0
M  V30 4823 H 439.52 0.257712 -1.41675 0
M  V30 4824 H 441.473 2.97539 -2.9841 0
M  V30 4825 H 440.197 2.74989 -1.76205 0
M  V30 4826 H 438.856 1.37998 -3.39635 0
M  V30 4827 H 438.504 3.85085 -3.23603 0
M  V30 4828 H 438.204 3.25909 -4.88935 0
M  V30 4829 H 439.728 4.1124 -4.51347 0
M  V30 4830 H 441.142 2.00851 -5.36965 0
M  V30 4831 H 439.539 1.37356 -5.84169 0
M  V30 4832 H 440.609 0.382362 -4.8339 0
M  V30 4833 N 441.952 1.55251 0.271103 0
M  V30 4834 C 443.368 1.47133 0.618393 0
M  V30 4835 C 443.568 0.686994 1.89427 0
M  V30 4836 O 442.624 0.206609 2.51653 0
M  V30 4837 C 443.937 2.91361 0.743593 0
M  V30 4838 C 445.485 3.01587 0.837522 0
M  V30 4839 C 445.96 4.47073 0.994483 0
M  V30 4840 N 447.451 4.50909 1.05996 0
M  V30 4841 C 448.186 5.60698 1.20024 0
M  V30 4842 N 447.682 6.80348 1.30759 0
M  V30 4843 N 449.475 5.48444 1.23149 0
M  V30 4844 H 441.626 2.04698 -0.566784 0
M  V30 4845 H 443.889 0.928319 -0.192165 0
M  V30 4846 H 443.595 3.51483 -0.123493 0
M  V30 4847 H 443.469 3.40484 1.62328 0
M  V30 4848 H 445.856 2.4156 1.69507 0
M  V30 4849 H 445.937 2.55713 -0.0668086 0
M  V30 4850 H 445.581 5.07703 0.141582 0
M  V30 4851 H 445.511 4.90605 1.91349 0
M  V30 4852 H 448.002 3.6472 0.989316 0
M  V30 4853 H 448.315 7.59772 1.41303 0
M  V30 4854 H 446.66 6.83156 1.27761 0
M  V30 4855 H 449.851 4.53907 1.14394 0
M  V30 4856 H 450.024 6.34049 1.33738 0
M  V30 4857 N 443.43 -0.535701 1.48216 0
M  V30 4858 C 444.36 -1.65014 1.65204 0
M  V30 4859 C 445.341 -1.62554 0.501011 0
M  V30 4860 O 446.526 -1.7984 0.732886 0
M  V30 4861 C 443.656 -3.03616 1.68626 0
M  V30 4862 C 442.61 -3.20932 2.83172 0
M  V30 4863 C 441.936 -4.60537 2.71679 0
M  V30 4864 C 443.236 -3.04249 4.24535 0
M  V30 4865 H 444.93 -1.51053 2.58502 0
M  V30 4866 H 442.476 -0.725262 1.24402 0
M  V30 4867 H 444.429 -3.81446 1.79099 0
M  V30 4868 H 443.153 -3.18587 0.719026 0
M  V30 4869 H 441.812 -2.45517 2.72244 0
M  V30 4870 H 441.46 -4.72336 1.72937 0
M  V30 4871 H 441.16 -4.73069 3.48538 0
M  V30 4872 H 442.684 -5.40475 2.84112 0
M  V30 4873 H 444.098 -3.71877 4.36326 0
M  V30 4874 H 442.495 -3.28278 5.02348 0
M  V30 4875 H 443.565 -2.00739 4.41397 0
M  V30 4876 N 444.908 -1.36708 -0.784132 0
M  V30 4877 C 446.324 -1.17237 -1.08294 0
M  V30 4878 C 446.524 -5.93947e-05 -2.015 0
M  V30 4879 O 445.58 0.663686 -2.43622 0
M  V30 4880 C 446.893 -2.48557 -1.69233 0
M  V30 4881 C 448.441 -2.54968 -1.8155 0
M  V30 4882 C 448.916 -3.86388 -2.45904 0
M  V30 4883 N 450.407 -3.87762 -2.53367 0
M  V30 4884 C 451.142 -4.86191 -3.03983 0
M  V30 4885 N 450.638 -5.95015 -3.54866 0
M  V30 4886 N 452.431 -4.73606 -3.02743 0
M  V30 4887 H 444.582 -2.11758 -0.16501 0
M  V30 4888 H 446.845 -0.93822 -0.135822 0
M  V30 4889 H 446.551 -3.34638 -1.08215 0
M  V30 4890 H 446.425 -2.64748 -2.68679 0
M  V30 4891 H 448.812 -1.69302 -2.41704 0
M  V30 4892 H 448.893 -2.42672 -0.80895 0
M  V30 4893 H 448.537 -4.72462 -1.86392 0
M  V30 4894 H 448.467 -3.95982 -3.4714 0
M  V30 4895 H 450.958 -3.09145 -2.17343 0
M  V30 4896 H 451.271 -6.66086 -3.91854 0
M  V30 4897 H 449.616 -5.98676 -3.53003 0
M  V30 4898 H 452.807 -3.87717 -2.62284 0
M  V30 4899 H 452.98 -5.50473 -3.41881 0
M  V30 4900 N 446.386 1.0089 -1.21074 0
M  V30 4901 C 447.634 1.74262 -1.02358 0
M  V30 4902 C 447.955 1.89869 0.444393 0
M  V30 4903 O 447.225 1.44677 1.32081 0
M  V30 4904 H 445.805 0.645615 -0.375754 0
M  V30 4905 H 448.467 1.21596 -1.52317 0
M  V30 4906 H 447.563 2.74328 -1.4883 0
M  V30 4907 N 447.864 1.01787 1.20321 0
M  V30 4908 C 449.112 0.706538 1.89347 0
M  V30 4909 C 449.433 -0.766289 1.79313 0
M  V30 4910 O 448.703 -1.55126 1.19635 0
M  V30 4911 H 447.283 0.258348 0.700903 0
M  V30 4912 H 449.945 1.28974 1.46122 0
M  V30 4913 H 449.041 0.991066 2.95946 0
M  V30 4914 N 449.342 -1.36122 0.79427 0
M  V30 4915 C 450.275 -2.27759 0.141845 0
M  V30 4916 C 451.253 -1.47471 -0.684921 0
M  V30 4917 O 452.437 -1.76759 -0.654857 0
M  V30 4918 C 449.564 -3.29008 -0.804446 0
M  V30 4919 C 448.61 -4.26459 -0.0588617 0
M  V30 4920 S 449.443 -5.20253 1.26873 0
M  V30 4921 C 450.599 -6.25048 0.326562 0
M  V30 4922 H 450.832 -2.82746 0.918818 0
M  V30 4923 H 448.365 -1.42736 0.588722 0
M  V30 4924 H 450.323 -3.87842 -1.34495 0
M  V30 4925 H 448.984 -2.72924 -1.5547 0
M  V30 4926 H 448.177 -4.97973 -0.777087 0
M  V30 4927 H 447.779 -3.71731 0.411309 0
M  V30 4928 H 450.071 -6.75705 -0.492795 0
M  V30 4929 H 451.014 -7.00852 1.01053 0
M  V30 4930 H 451.422 -5.64454 -0.0722627 0
M  V30 4931 N 450.82 -0.546701 -1.47814 0
M  V30 4932 C 451.752 0.244196 -2.27895 0
M  V30 4933 C 452.765 0.88911 -1.36377 0
M  V30 4934 O 453.954 0.764733 -1.61289 0
M  V30 4935 C 451.054 1.36252 -3.10304 0
M  V30 4936 C 450.227 0.816382 -4.29714 0
M  V30 4937 C 449.286 1.81789 -4.93801 0
M  V30 4938 O 448.312 1.36818 -5.52512 0
M  V30 4939 N 449.514 3.15085 -4.87547 0
M  V30 4940 H 452.279 -0.442694 -2.96412 0
M  V30 4941 H 449.84 -0.382095 -1.57327 0
M  V30 4942 H 451.832 2.03102 -3.50045 0
M  V30 4943 H 450.402 1.95281 -2.44099 0
M  V30 4944 H 449.622 -0.0285981 -3.9419 0
M  V30 4945 H 450.91 0.430668 -5.06974 0
M  V30 4946 H 450.308 3.54275 -4.41028 0
M  V30 4947 H 448.865 3.77522 -5.31339 0
M  V30 4948 N 452.299 1.55045 -0.282633 0
M  V30 4949 C 453.548 1.98938 0.332667 0
M  V30 4950 C 453.861 1.17455 1.56409 0
M  V30 4951 O 455.067 1.51527 2.25282 0
M  V30 4952 C 453.523 3.54105 0.643226 0
M  V30 4953 C 453.131 4.44374 -0.568814 0
M  V30 4954 C 454.875 4.06569 1.22074 0
M  V30 4955 C 452.782 5.90943 -0.232426 0
M  V30 4956 H 451.712 0.743043 0.128075 0
M  V30 4957 H 454.363 1.79341 -0.388464 0
M  V30 4958 H 452.745 3.69532 1.42346 0
M  V30 4959 H 453.919 4.40718 -1.34551 0
M  V30 4960 H 452.234 4.02585 -1.06369 0
M  V30 4961 H 454.831 5.13626 1.48635 0
M  V30 4962 H 455.174 3.56057 2.15707 0
M  V30 4963 H 455.707 3.94612 0.502621 0
M  V30 4964 H 452.446 6.45567 -1.13683 0
M  V30 4965 H 451.966 5.9765 0.507357 0
M  V30 4966 H 453.645 6.4677 0.172657 0
M  V30 4967 N 453.777 0.010035 1.57597 0
M  V30 4968 C 455.024 -0.6727 1.91 0
M  V30 4969 C 455.352 -1.73219 0.884614 0
M  V30 4970 O 454.607 -1.95395 -0.109215 0
M  V30 4971 C 454.906 -1.34434 3.31153 0
M  V30 4972 C 454.572 -0.417083 4.48967 0
M  V30 4973 C 453.234 -0.161809 4.80928 0
M  V30 4974 C 455.586 0.220753 5.20732 0
M  V30 4975 C 452.914 0.739426 5.82022 0
M  V30 4976 C 455.266 1.10993 6.22787 0
M  V30 4977 C 453.93 1.37428 6.532 0
M  V30 4978 H 453.2 -0.246158 0.698918 0
M  V30 4979 H 455.847 0.0677145 1.9138 0
M  V30 4980 H 454.152 -2.15905 3.26944 0
M  V30 4981 H 455.849 -1.87883 3.54261 0
M  V30 4982 H 452.439 -0.626217 4.24001 0
M  V30 4983 H 456.623 0.0365643 4.96287 0
M  V30 4984 H 451.879 0.952139 6.03941 0
M  V30 4985 H 456.053 1.61046 6.77523 0
M  V30 4986 H 453.68 2.0743 7.31353 0
M  V30 4987 N 455.255 -1.55392 -0.262866 0
M  V30 4988 C 456.501 -1.76737 -0.99458 0
M  V30 4989 C 456.834 -0.572453 -1.85571 0
M  V30 4990 O 456.109 0.429732 -1.89693 0
M  V30 4991 C 456.392 -3.07824 -1.8686 0
M  V30 4992 C 456.245 -4.3769 -1.03672 0
M  V30 4993 C 457.564 -3.35021 -2.85393 0
M  V30 4994 H 454.683 -0.643005 -0.360157 0
M  V30 4995 H 457.325 -1.88126 -0.266216 0
M  V30 4996 H 455.475 -2.98245 -2.48962 0
M  V30 4997 H 457.147 -4.59238 -0.43563 0
M  V30 4998 H 455.39 -4.32461 -0.340513 0
M  V30 4999 H 456.061 -5.25759 -1.6817 0
M  V30 5000 H 458.537 -3.44458 -2.33426 0
M  V30 5001 H 457.413 -4.27989 -3.43681 0
M  V30 5002 H 457.674 -2.55153 -3.61039 0
M  V30 5003 N 456.733 0.527833 -1.48498 0
M  V30 5004 C 457.68 1.6322 -1.6318 0
M  V30 5005 C 458.65 1.59199 -0.473815 0
M  V30 5006 O 459.835 1.77591 -0.697563 0
M  V30 5007 C 456.975 3.01474 -1.67951 0
M  V30 5008 C 456.088 3.15713 -2.94871 0
M  V30 5009 C 455.223 4.44539 -2.90789 0
M  V30 5010 C 454.262 4.52315 -4.12404 0
M  V30 5011 N 453.399 5.72533 -4.06387 0
M  V30 5012 H 458.239 1.50011 -2.57489 0
M  V30 5013 H 455.776 0.730298 -1.27691 0
M  V30 5014 H 457.734 3.81572 -1.68698 0
M  V30 5015 H 456.364 3.1345 -0.771306 0
M  V30 5016 H 455.416 2.28854 -3.03859 0
M  V30 5017 H 456.728 3.1732 -3.8485 0
M  V30 5018 H 455.882 5.3293 -2.89949 0
M  V30 5019 H 454.621 4.45457 -1.98542 0
M  V30 5020 H 453.626 3.62331 -4.13517 0
M  V30 5021 H 454.851 4.53134 -5.05812 0
M  V30 5022 H 452.797 5.74344 -3.16962 0
M  V30 5023 H 452.714 5.75643 -4.90073 0
M  V30 5024 H 453.982 6.63204 -4.0961 0
M  V30 5025 N 458.211 1.37122 0.776871 0
M  V30 5026 C 459.439 1.3523 1.5659 0
M  V30 5027 C 459.854 -0.0635518 1.88693 0
M  V30 5028 O 459.211 -1.02394 1.51069 0
M  V30 5029 C 459.262 2.18583 2.8793 0
M  V30 5030 O 458.983 3.5465 2.57206 0
M  V30 5031 C 460.484 2.24612 3.82183 0
M  V30 5032 H 457.704 0.4634 0.485285 0
M  V30 5033 H 460.248 1.80392 0.963266 0
M  V30 5034 H 458.403 1.76943 3.4463 0
M  V30 5035 H 458.817 3.98286 3.41275 0
M  V30 5036 H 460.291 2.87267 4.71361 0
M  V30 5037 H 460.768 1.25309 4.20944 0
M  V30 5038 H 461.374 2.66543 3.31414 0
M  V30 5039 N 459.689 -1.00246 1.21608 0
M  V30 5040 C 460.619 -2.10921 1.00172 0
M  V30 5041 C 461.6 -1.69938 -0.0741587 0
M  V30 5042 O 462.785 -1.94009 0.0861753 0
M  V30 5043 C 459.915 -3.42618 0.568355 0
M  V30 5044 C 458.869 -3.97407 1.58909 0
M  V30 5045 C 458.195 -5.25038 1.01187 0
M  V30 5046 C 459.495 -4.2918 2.97661 0
M  V30 5047 H 461.189 -2.29112 1.92739 0
M  V30 5048 H 458.735 -1.10101 0.928102 0
M  V30 5049 H 460.688 -4.19444 0.405555 0
M  V30 5050 H 459.412 -3.24227 -0.392961 0
M  V30 5051 H 458.071 -3.22703 1.73949 0
M  V30 5052 H 457.719 -5.02982 0.0421965 0
M  V30 5053 H 457.419 -5.62661 1.6937 0
M  V30 5054 H 458.943 -6.04507 0.860448 0
M  V30 5055 H 460.357 -4.96839 2.86049 0
M  V30 5056 H 458.754 -4.77952 3.6288 0
M  V30 5057 H 459.824 -3.3735 3.48315 0
M  V30 5058 N 461.167 -1.02423 -1.1978 0
M  V30 5059 C 462.395 -0.737456 -1.93311 0
M  V30 5060 C 462.81 0.703023 -1.75223 0
M  V30 5061 O 462.167 1.47761 -1.07112 0
M  V30 5062 C 462.218 -1.0733 -3.45199 0
M  V30 5063 O 461.939 -2.4572 -3.62702 0
M  V30 5064 C 463.44 -0.80866 -4.35862 0
M  V30 5065 H 460.66 -0.2702 -0.614193 0
M  V30 5066 H 463.204 -1.36747 -1.52054 0
M  V30 5067 H 461.359 -0.488545 -3.84307 0
M  V30 5068 H 461.773 -2.58081 -4.56612 0
M  V30 5069 H 463.247 -1.09365 -5.41057 0
M  V30 5070 H 463.724 0.257025 -4.38447 0
M  V30 5071 H 464.33 -1.37592 -4.02428 0
M  V30 5072 N 462.645 1.35699 -0.801477 0
M  V30 5073 C 463.893 1.9852 -0.37871 0
M  V30 5074 C 464.214 1.63907 1.05638 0
M  V30 5075 O 463.484 0.919013 1.73006 0
M  V30 5076 H 462.064 0.734322 -0.137042 0
M  V30 5077 H 464.726 1.65697 -1.02619 0
M  V30 5078 H 463.822 3.08382 -0.480284 0
M  V30 5079 N 464.123 0.554532 1.47522 0
M  V30 5080 C 465.07 -0.19466 2.29978 0
M  V30 5081 C 466.04 -0.910882 1.38896 0
M  V30 5082 O 467.225 -0.907102 1.67858 0
M  V30 5083 C 464.365 -1.22035 3.22802 0
M  V30 5084 C 463.478 -0.510474 4.28973 0
M  V30 5085 C 462.613 -1.52123 5.08952 0
M  V30 5086 C 461.652 -0.796173 6.069 0
M  V30 5087 N 460.789 -1.75363 6.79847 0
M  V30 5088 H 465.629 0.51461 2.93523 0
M  V30 5089 H 463.166 0.265607 1.44682 0
M  V30 5090 H 465.124 -1.8276 3.7504 0
M  V30 5091 H 463.754 -1.89769 2.61127 0
M  V30 5092 H 462.806 0.211234 3.79813 0
M  V30 5093 H 464.118 0.0576503 4.98767 0
M  V30 5094 H 463.272 -2.20207 5.65326 0
M  V30 5095 H 462.011 -2.12327 4.39054 0
M  V30 5096 H 461.016 -0.101388 5.49707 0
M  V30 5097 H 462.241 -0.199911 6.78806 0
M  V30 5098 H 460.187 -2.3443 6.12682 0
M  V30 5099 H 460.104 -1.23759 7.45801 0
M  V30 5100 H 461.372 -2.4257 7.40797 0
M  V30 5101 N 465.601 -1.54893 0.290851 0
M  V30 5102 C 466.829 -2.04343 -0.324288 0
M  V30 5103 C 467.244 -1.16859 -1.48289 0
M  V30 5104 O 466.601 -0.192018 -1.81487 0
M  V30 5105 C 466.652 -3.52756 -0.79026 0
M  V30 5106 O 466.373 -4.36913 0.322213 0
M  V30 5107 C 467.874 -4.18161 -1.4716 0
M  V30 5108 H 465.094 -0.667135 -0.0719173 0
M  V30 5109 H 467.638 -1.99981 0.427529 0
M  V30 5110 H 465.793 -3.57511 -1.49213 0
M  V30 5111 H 466.207 -5.24486 -0.0387372 0
M  V30 5112 H 467.681 -5.23562 -1.7489 0
M  V30 5113 H 468.158 -3.67282 -2.40834 0
M  V30 5114 H 468.764 -4.17454 -0.813178 0
M  V30 5115 N 467.08 -0.0183926 -1.57589 0
M  V30 5116 C 468.329 0.66185 -1.90532 0
M  V30 5117 C 468.642 1.73904 -0.895366 0
M  V30 5118 O 469.848 2.47518 -1.11566 0
M  V30 5119 C 468.304 1.22844 -3.38286 0
M  V30 5120 C 467.912 0.185103 -4.47617 0
M  V30 5121 C 469.656 1.88581 -3.80312 0
M  V30 5122 C 467.563 0.762723 -5.86461 0
M  V30 5123 H 466.493 0.250972 -0.711006 0
M  V30 5124 H 469.144 -0.0819435 -1.83317 0
M  V30 5125 H 467.526 2.0235 -3.40398 0
M  V30 5126 H 468.7 -0.58671 -4.5705 0
M  V30 5127 H 467.015 -0.372889 -4.14727 0
M  V30 5128 H 469.612 2.32735 -4.81392 0
M  V30 5129 H 469.955 2.72408 -3.14801 0
M  V30 5130 H 470.488 1.15782 -3.80578 0
M  V30 5131 H 467.227 -0.0371713 -6.55489 0
M  V30 5132 H 466.747 1.50327 -5.80656 0
M  V30 5133 H 468.426 1.25576 -6.34697 0
M  V30 5134 N 468.558 1.5553 0.254621 0
M  V30 5135 C 469.786 1.81046 1.00149 0
M  V30 5136 C 470.201 0.593047 1.79244 0
M  V30 5137 O 469.558 -0.438196 1.77161 0
M  V30 5138 C 469.609 3.04684 1.94551 0
M  V30 5139 O 469.33 4.21725 1.18658 0
M  V30 5140 C 470.831 3.42943 2.80901 0
M  V30 5141 H 468.051 0.602653 0.295044 0
M  V30 5142 H 470.595 2.02576 0.279842 0
M  V30 5143 H 468.75 2.85226 2.62154 0
M  V30 5144 H 469.164 4.91746 1.82445 0
M  V30 5145 H 470.638 4.32576 3.42902 0
M  V30 5146 H 471.115 2.63176 3.51617 0
M  V30 5147 H 471.721 3.64724 2.18762 0
M  V30 5148 N 470.036 -0.519951 1.48776 0
M  V30 5149 C 470.966 -1.63253 1.66945 0
M  V30 5150 C 471.947 -1.62014 0.518224 0
M  V30 5151 O 473.132 -1.79053 0.751919 0
M  V30 5152 C 470.262 -3.0181 1.71836 0
M  V30 5153 C 469.216 -3.17911 2.8656 0
M  V30 5154 C 468.542 -4.5763 2.76548 0
M  V30 5155 C 469.842 -2.99729 4.27738 0
M  V30 5156 H 471.536 -1.48302 2.6009 0
M  V30 5157 H 469.082 -0.712026 1.25165 0
M  V30 5158 H 471.035 -3.79525 1.83135 0
M  V30 5159 H 469.759 -3.17806 0.752775 0
M  V30 5160 H 468.418 -2.42616 2.74833 0
M  V30 5161 H 468.066 -4.70476 1.77937 0
M  V30 5162 H 467.766 -4.69346 3.53536 0
M  V30 5163 H 469.29 -5.37431 2.89828 0
M  V30 5164 H 470.704 -3.67228 4.40246 0
M  V30 5165 H 469.101 -3.22932 5.05801 0
M  V30 5166 H 470.171 -1.96047 4.43502 0
M  V30 5167 N 471.514 -1.37532 -0.769588 0
M  V30 5168 C 472.424 -1.35668 -1.91393 0
M  V30 5169 C 473.44 -0.255954 -1.72107 0
M  V30 5170 O 474.616 -0.491704 -1.95305 0
M  V30 5171 C 471.681 -1.16481 -3.26547 0
M  V30 5172 C 470.742 -2.36212 -3.58472 0
M  V30 5173 C 469.975 -2.17932 -4.87177 0
M  V30 5174 O 470.198 -1.1647 -5.58382 0
M  V30 5175 O 469.132 -3.06167 -5.18214 0
M  V30 5176 H 472.958 -2.32055 -1.95918 0
M  V30 5177 H 470.543 -1.18284 -0.912641 0
M  V30 5178 H 472.425 -1.07778 -4.07384 0
M  V30 5179 H 471.1 -0.231687 -3.2287 0
M  V30 5180 H 470.007 -2.50488 -2.77861 0
M  V30 5181 H 471.34 -3.281 -3.66894 0
M  V30 5182 N 472.992 0.995999 -1.22138 0
M  V30 5183 C 474.238 1.73767 -1.04561 0
M  V30 5184 C 474.571 1.89633 0.418698 0
M  V30 5185 O 473.846 1.43723 1.3105 0
M  V30 5186 C 474.129 3.14505 -1.75382 0
M  V30 5187 C 473.982 3.06306 -3.29388 0
M  V30 5188 C 475.301 4.13615 -1.50369 0
M  V30 5189 H 472.42 0.630728 -0.38125 0
M  V30 5190 H 475.062 1.16057 -1.50435 0
M  V30 5191 H 473.212 3.63775 -1.36383 0
M  V30 5192 H 474.884 2.64681 -3.77812 0
M  V30 5193 H 473.127 2.43186 -3.59226 0
M  V30 5194 H 473.798 4.05884 -3.74116 0
M  V30 5195 H 476.274 3.73089 -1.84239 0
M  V30 5196 H 475.15 5.10212 -2.02421 0
M  V30 5197 H 475.411 4.39949 -0.435611 0
M  V30 5198 N 474.47 1.03057 1.19235 0
M  V30 5199 C 475.38 0.622922 2.26179 0
M  V30 5200 C 476.396 -0.346113 1.70523 0
M  V30 5201 O 477.572 -0.203572 2.00369 0
M  V30 5202 C 474.637 -0.0182063 3.46695 0
M  V30 5203 C 473.698 0.998546 4.17526 0
M  V30 5204 C 472.931 0.387917 5.32288 0
M  V30 5205 O 473.154 -0.808668 5.64639 0
M  V30 5206 O 472.088 1.1116 5.91546 0
M  V30 5207 H 475.914 1.51363 2.63292 0
M  V30 5208 H 473.499 0.800856 1.26122 0
M  V30 5209 H 475.381 -0.375606 4.19723 0
M  V30 5210 H 474.056 -0.882895 3.11427 0
M  V30 5211 H 472.963 1.40756 3.4661 0
M  V30 5212 H 474.296 1.83366 4.56769 0
M  V30 5213 N 475.948 -1.35272 0.808662 0
M  V30 5214 C 477.359 -1.81179 0.450688 0
M  V30 5215 C 477.71 -1.67143 -1.02751 0
M  V30 5216 O 476.835 -1.20325 -1.79864 0
M  V30 5217 C 477.43 -3.28943 0.811275 0
M  V30 5218 C 475.989 -3.72985 0.505871 0
M  V30 5219 C 475.136 -2.57229 1.03578 0
M  V30 5220 H 478.087 -1.2322 1.00012 0
M  V30 5221 H 478.108 -3.80342 0.109588 0
M  V30 5222 H 477.62 -3.39127 1.88718 0
M  V30 5223 H 475.721 -3.68349 -0.561209 0
M  V30 5224 H 475.834 -4.67677 1.03995 0
M  V30 5225 H 474.198 -2.50548 0.458005 0
M  V30 5226 H 474.981 -2.7019 2.11784 0
M  V30 5227 N 477.426 -0.562348 -1.47226 0
M  V30 5228 C 478.651 -0.0432632 -2.07355 0
M  V30 5229 C 479.076 1.24332 -1.41149 0
M  V30 5230 O 478.434 1.74603 -0.488226 0
M  V30 5231 C 478.482 0.130288 -3.60365 0
M  V30 5232 O 477.586 1.19166 -3.94808 0
M  V30 5233 H 476.927 -0.0536334 -0.66183 0
M  V30 5234 H 479.457 -0.779495 -1.89169 0
M  V30 5235 H 479.467 0.342881 -4.06557 0
M  V30 5236 H 478.142 -0.809389 -4.07948 0
M  V30 5237 H 476.719 0.959153 -3.60354 0
M  V30 5238 N 478.904 1.54736 -0.299062 0
M  V30 5239 C 480.181 1.92187 0.363802 0
M  V30 5240 C 480.561 1.22607 1.71845 0
M  V30 5241 O 479.909 0.361141 2.25628 0
M  V30 5242 C 480.119 3.45678 0.480377 0
M  V30 5243 C 481.467 4.17885 0.752147 0
M  V30 5244 O 482.491 3.51702 0.564264 0
M  V30 5245 O 481.35 5.35048 1.11294 0
M  V30 5246 H 478.444 0.801681 0.203066 0
M  V30 5247 H 480.99 1.66115 -0.346978 0
M  V30 5248 H 479.762 3.88443 -0.471999 0
M  V30 5249 H 479.385 3.77779 1.2397 0
M  V30 5250 N 480.382 0.0267497 1.57577 0
M  V30 5251 C 481.61 -0.662661 1.96001 0
M  V30 5252 C 482.025 -1.65799 0.903117 0
M  V30 5253 O 481.382 -1.82135 -0.115317 0
M  V30 5254 C 481.433 -1.37112 3.34488 0
M  V30 5255 O 481.154 -0.415683 4.36123 0
M  V30 5256 C 482.655 -2.15257 3.8753 0
M  V30 5257 H 479.875 -0.18287 0.6456 0
M  V30 5258 H 482.419 0.0858116 2.0432 0
M  V30 5259 H 480.574 -2.07101 3.27395 0
M  V30 5260 H 480.988 -0.918496 5.16395 0
M  V30 5261 H 482.462 -2.60285 4.86781 0
M  V30 5262 H 482.939 -2.99063 3.21649 0
M  V30 5263 H 483.545 -1.50231 3.97883 0
M  V30 5264 N 481.861 -1.55662 -0.24637 0
M  V30 5265 C 483.11 -1.7672 -0.972254 0
M  V30 5266 C 483.423 -0.59078 -1.86465 0
M  V30 5267 O 484.629 -0.684391 -2.62732 0
M  V30 5268 C 483.085 -3.12869 -1.7788 0
M  V30 5269 C 482.693 -4.38161 -0.933768 0
M  V30 5270 C 484.437 -3.43265 -2.49738 0
M  V30 5271 C 482.344 -5.6534 -1.73623 0
M  V30 5272 H 481.274 -0.658795 -0.366749 0
M  V30 5273 H 483.925 -1.82092 -0.226902 0
M  V30 5274 H 482.307 -3.01606 -2.56612 0
M  V30 5275 H 483.481 -4.60413 -0.188736 0
M  V30 5276 H 481.796 -4.15102 -0.328488 0
M  V30 5277 H 484.393 -4.35501 -3.10231 0
M  V30 5278 H 484.736 -2.64614 -3.2138 0
M  V30 5279 H 485.269 -3.55746 -1.78016 0
M  V30 5280 H 482.008 -6.46814 -1.06354 0
M  V30 5281 H 481.528 -5.47188 -2.45653 0
M  V30 5282 H 483.207 -6.04616 -2.30323 0
M  V30 5283 N 483.339 0.512053 -1.4905 0
M  V30 5284 C 484.249 1.64139 -1.67617 0
M  V30 5285 C 485.265 1.64786 -0.558701 0
M  V30 5286 O 486.441 1.8341 -0.832034 0
M  V30 5287 C 483.506 3.00548 -1.72835 0
M  V30 5288 C 482.567 3.10615 -2.96339 0
M  V30 5289 C 481.8 4.40517 -3.01298 0
M  V30 5290 O 482.023 5.28671 -2.14157 0
M  V30 5291 O 480.957 4.55325 -3.93653 0
M  V30 5292 H 484.783 1.51407 -2.63267 0
M  V30 5293 H 482.368 0.687131 -1.32661 0
M  V30 5294 H 484.25 3.81641 -1.78683 0
M  V30 5295 H 482.925 3.13566 -0.803616 0
M  V30 5296 H 481.832 2.2875 -2.96014 0
M  V30 5297 H 483.165 3.0252 -3.88256 0
M  V30 5298 N 484.817 1.37938 0.762283 0
M  V30 5299 C 485.765 1.34569 1.89721 0
M  V30 5300 C 486.759 0.232929 1.67791 0
M  V30 5301 O 487.965 0.401485 1.75465 0
M  V30 5302 H 484.34 0.419594 0.624055 0
M  V30 5303 H 486.311 2.30357 1.8968 0
M  V30 5304 C 485.06 1.17898 3.27101 0
M  V30 5305 H 484.383 2.02781 3.44558 0
M  V30 5306 H 485.823 1.19593 4.06784 0
M  V30 5307 C 484.282 -0.114728 3.36705 0
M  V30 5308 O 484.812 -1.0949 3.8649 0
M  V30 5309 N 483.018 -0.16863 2.9011 0
M  V30 5310 H 482.565 0.62967 2.49786 0
M  V30 5311 H 482.523 -1.03383 2.96916 0
M  V30 5312 N 486.295 -0.989507 1.22664 0
M  V30 5313 C 487.541 -1.7321 1.05481 0
M  V30 5314 C 487.874 -1.89852 -0.408635 0
M  V30 5315 O 487.149 -1.44416 -1.30285 0
M  V30 5316 C 487.432 -3.1357 1.77047 0
M  V30 5317 C 487.285 -3.04555 3.31008 0
M  V30 5318 C 488.604 -4.12812 1.5256 0
M  V30 5319 H 485.723 -0.628697 0.384589 0
M  V30 5320 H 488.365 -1.15258 1.51049 0
M  V30 5321 H 486.515 -3.63046 1.3831 0
M  V30 5322 H 488.187 -2.62674 3.7921 0
M  V30 5323 H 486.43 -2.41278 3.6051 0
M  V30 5324 H 487.101 -4.03894 3.76263 0
M  V30 5325 H 489.577 -3.72106 1.86215 0
M  V30 5326 H 488.453 -5.09132 2.05124 0
M  V30 5327 H 488.714 -4.39711 0.458936 0
M  V30 5328 N 487.773 -1.03688 -1.18687 0
M  V30 5329 C 488.72 -0.624624 -2.22187 0
M  V30 5330 C 489.69 0.365636 -1.62026 0
M  V30 5331 O 490.875 0.260481 -1.89014 0
M  V30 5332 C 488.015 0.0101738 -3.45099 0
M  V30 5333 C 487.128 -1.02709 -4.19613 0
M  V30 5334 C 486.263 -0.361213 -5.2997 0
M  V30 5335 C 485.302 -1.38384 -5.96252 0
M  V30 5336 N 484.439 -0.743196 -6.98155 0
M  V30 5337 H 489.279 -1.51176 -2.56807 0
M  V30 5338 H 486.816 -0.75636 -1.26165 0
M  V30 5339 H 488.774 0.395528 -4.15321 0
M  V30 5340 H 487.404 0.860848 -3.1111 0
M  V30 5341 H 486.456 -1.53043 -3.48256 0
M  V30 5342 H 487.768 -1.80398 -4.65036 0
M  V30 5343 H 486.922 0.0785537 -6.06649 0
M  V30 5344 H 485.661 0.447799 -4.8564 0
M  V30 5345 H 484.666 -1.83378 -5.18317 0
M  V30 5346 H 485.891 -2.19448 -6.42666 0
M  V30 5347 H 483.837 0.0455789 -6.55984 0
M  V30 5348 H 483.754 -1.45784 -7.41811 0
M  V30 5349 H 485.022 -0.327698 -7.78811 0
M  V30 5350 N 489.251 1.34841 -0.815825 0
M  V30 5351 C 490.214 2.27959 -0.238185 0
M  V30 5352 C 491.214 1.49983 0.579816 0
M  V30 5353 O 492.404 1.69617 0.396953 0
M  V30 5354 C 489.536 3.34314 0.666876 0
M  V30 5355 H 490.729 2.80558 -1.05958 0
M  V30 5356 H 488.282 1.44852 -0.587156 0
M  V30 5357 H 489.017 2.86916 1.5116 0
M  V30 5358 H 488.802 3.92014 0.0819106 0
M  V30 5359 H 490.292 4.0379 1.06506 0
M  V30 5360 N 490.729 0.570148 1.46925 0
M  V30 5361 C 491.676 -0.170257 2.30171 0
M  V30 5362 C 492.646 -0.896099 1.39855 0
M  V30 5363 O 493.831 -0.889248 1.68811 0
M  V30 5364 C 490.971 -1.18605 3.24079 0
M  V30 5365 C 490.084 -0.464947 4.29491 0
M  V30 5366 C 489.219 -1.46716 5.10537 0
M  V30 5367 C 488.258 -0.731758 6.0771 0
M  V30 5368 N 487.395 -1.68142 6.81669 0
M  V30 5369 H 492.235 0.545713 2.92961 0
M  V30 5370 H 489.772 0.280938 1.44392 0
M  V30 5371 H 491.73 -1.78771 3.76957 0
M  V30 5372 H 490.36 -1.86989 2.63125 0
M  V30 5373 H 489.412 0.251506 3.79568 0
M  V30 5374 H 490.724 0.110548 4.98677 0
M  V30 5375 H 489.878 -2.14199 5.6763 0
M  V30 5376 H 488.617 -2.07658 4.41282 0
M  V30 5377 H 487.622 -0.0430787 5.49783 0
M  V30 5378 H 488.847 -0.127904 6.7898 0
M  V30 5379 H 486.793 -2.27918 6.15134 0
M  V30 5380 H 486.71 -1.15841 7.47072 0
M  V30 5381 H 487.978 -2.347 7.43328 0
M  V30 5382 N 492.207 -1.54576 0.307264 0
M  V30 5383 C 493.456 -1.99442 -0.300976 0
M  V30 5384 C 493.769 -1.19928 -1.5452 0
M  V30 5385 O 494.975 -1.55092 -2.22842 0
M  V30 5386 C 493.431 -3.55084 -0.586809 0
M  V30 5387 C 493.039 -4.43413 0.639438 0
M  V30 5388 C 494.783 -4.0846 -1.1559 0
M  V30 5389 C 492.69 -5.90499 0.326411 0
M  V30 5390 H 491.62 -0.744986 -0.116238 0
M  V30 5391 H 494.271 -1.787 0.416947 0
M  V30 5392 H 492.653 -3.71749 -1.36449 0
M  V30 5393 H 493.827 -4.38522 1.41545 0
M  V30 5394 H 492.142 -4.00842 1.1276 0
M  V30 5395 H 494.739 -5.15926 -1.40445 0
M  V30 5396 H 495.082 -3.59443 -2.10015 0
M  V30 5397 H 495.615 -3.95362 -0.439778 0
M  V30 5398 H 492.354 -6.43676 1.23939 0
M  V30 5399 H 491.874 -5.98382 -0.412212 0
M  V30 5400 H 493.553 -6.46962 -0.0697393 0
M  V30 5401 N 493.685 -0.035106 -1.57561 0
M  V30 5402 C 494.617 0.973604 -2.07494 0
M  V30 5403 C 495.63 1.28504 -0.999534 0
M  V30 5404 O 496.819 1.24864 -1.27559 0
M  V30 5405 C 493.919 2.29945 -2.48955 0
M  V30 5406 C 493.092 2.1723 -3.79644 0
M  V30 5407 C 492.151 3.328 -4.07592 0
M  V30 5408 O 491.177 3.09418 -4.77754 0
M  V30 5409 N 492.379 4.56779 -3.58236 0
M  V30 5410 H 495.144 0.547525 -2.94656 0
M  V30 5411 H 492.705 0.151515 -1.61189 0
M  V30 5412 H 494.697 3.06097 -2.64739 0
M  V30 5413 H 493.267 2.64173 -1.67126 0
M  V30 5414 H 492.487 1.25768 -3.73599 0
M  V30 5415 H 493.775 2.05945 -4.65257 0
M  V30 5416 H 493.173 4.78668 -3.01485 0
M  V30 5417 H 491.73 5.30079 -3.79288 0
M  V30 5418 N 495.163 1.55791 0.238111 0
M  V30 5419 C 496.44 1.68798 0.98826 0
M  V30 5420 C 496.82 0.577562 2.03045 0
M  V30 5421 O 496.168 -0.41778 2.24648 0
M  V30 5422 C 496.378 3.09454 1.61367 0
M  V30 5423 C 497.726 3.68335 2.11221 0
M  V30 5424 O 498.75 3.1231 1.71292 0
M  V30 5425 O 497.609 4.6657 2.84561 0
M  V30 5426 H 494.703 0.686881 0.460568 0
M  V30 5427 H 497.249 1.68118 0.231202 0
M  V30 5428 H 496.021 3.81726 0.860295 0
M  V30 5429 H 495.644 3.14182 2.4367 0
M  V30 5430 N 496.642 -0.504142 1.49319 0
M  V30 5431 C 497.589 -1.60603 1.65756 0
M  V30 5432 C 498.559 -1.58425 0.499082 0
M  V30 5433 O 499.744 -1.76459 0.725728 0
M  V30 5434 C 496.884 -2.98764 1.72726 0
M  V30 5435 C 495.997 -3.10982 2.99857 0
M  V30 5436 C 495.132 -4.39857 2.97824 0
M  V30 5437 C 494.171 -4.45697 4.19548 0
M  V30 5438 N 493.308 -5.65995 4.15444 0
M  V30 5439 H 498.148 -1.45895 2.59843 0
M  V30 5440 H 495.685 -0.709891 1.28837 0
M  V30 5441 H 497.643 -3.78839 1.74747 0
M  V30 5442 H 496.273 -3.12183 0.821075 0
M  V30 5443 H 495.325 -2.23991 3.07461 0
M  V30 5444 H 496.637 -3.11157 3.89849 0
M  V30 5445 H 495.791 -5.2825 2.98391 0
M  V30 5446 H 494.53 -4.42242 2.05604 0
M  V30 5447 H 493.535 -3.55707 4.19229 0
M  V30 5448 H 494.76 -4.4503 5.12957 0
M  V30 5449 H 492.706 -5.69229 3.26059 0
M  V30 5450 H 492.623 -5.67773 4.99169 0
M  V30 5451 H 493.891 -6.56604 4.20109 0
M  V30 5452 N 498.12 -1.38341 -0.754957 0
M  V30 5453 C 499.03 -1.3769 -1.89944 0
M  V30 5454 C 500.046 -0.274194 -1.71826 0
M  V30 5455 O 501.222 -0.512391 -1.94773 0
M  V30 5456 C 498.287 -1.19938 -3.25293 0
M  V30 5457 C 497.348 -2.40001 -3.55946 0
M  V30 5458 C 496.581 -2.23087 -4.84838 0
M  V30 5459 O 496.804 -1.22386 -5.57116 0
M  V30 5460 O 495.738 -3.11646 -5.14937 0
M  V30 5461 H 499.564 -2.3412 -1.93446 0
M  V30 5462 H 497.149 -1.19246 -0.900044 0
M  V30 5463 H 499.031 -1.12093 -4.06218 0
M  V30 5464 H 497.706 -0.265919 -3.22606 0
M  V30 5465 H 496.613 -2.53421 -2.75188 0
M  V30 5466 H 497.946 -3.31973 -3.63394 0
M  V30 5467 N 499.598 0.982988 -1.23187 0
M  V30 5468 C 500.846 1.72052 -1.06031 0
M  V30 5469 C 501.167 1.90769 0.404019 0
M  V30 5470 O 500.437 1.47446 1.28982 0
M  V30 5471 H 499.017 0.637499 -0.389363 0
M  V30 5472 H 501.679 1.18338 -1.54862 0
M  V30 5473 H 500.775 2.7111 -1.54615 0
M  V30 5474 N 501.076 1.04316 1.18135 0
M  V30 5475 C 502.325 0.74319 1.87509 0
M  V30 5476 C 502.638 -0.732136 1.81381 0
M  V30 5477 O 503.844 -1.14572 2.46141 0
M  V30 5478 C 502.3 1.27913 3.36402 0
M  V30 5479 C 501.908 2.78326 3.51053 0
M  V30 5480 C 503.652 1.0558 4.11161 0
M  V30 5481 C 501.559 3.25266 4.93919 0
M  V30 5482 H 500.489 0.274313 0.702331 0
M  V30 5483 H 503.14 1.25931 1.33467 0
M  V30 5484 H 501.522 0.690853 3.89927 0
M  V30 5485 H 502.696 3.42933 3.07788 0
M  V30 5486 H 501.011 2.991 2.89704 0
M  V30 5487 H 503.608 1.38161 5.16542 0
M  V30 5488 H 503.951 -0.00684729 4.16299 0
M  V30 5489 H 504.484 1.60882 3.63816 0
M  V30 5490 H 501.223 4.30922 4.9395 0
M  V30 5491 H 500.743 2.65396 5.3789 0
M  V30 5492 H 502.422 3.19433 5.62647 0
M  V30 5493 N 502.554 -1.34406 0.822964 0
M  V30 5494 C 503.965 -1.8069 0.469879 0
M  V30 5495 C 504.316 -1.68223 -1.00972 0
M  V30 5496 O 503.441 -1.22226 -1.78577 0
M  V30 5497 C 504.036 -3.28064 0.846118 0
M  V30 5498 C 502.595 -3.72428 0.545402 0
M  V30 5499 C 501.742 -2.56116 1.06301 0
M  V30 5500 H 504.693 -1.22153 1.01313 0
M  V30 5501 H 504.714 -3.80205 0.149922 0
M  V30 5502 H 504.226 -3.37107 1.92304 0
M  V30 5503 H 502.327 -3.68924 -0.522109 0
M  V30 5504 H 502.44 -4.66548 1.0895 0
M  V30 5505 H 500.804 -2.50048 0.484554 0
M  V30 5506 H 501.587 -2.67928 2.14638 0
M  V30 5507 N 504.032 -0.577932 -1.46621 0
M  V30 5508 C 505.443 -0.150071 -1.86096 0
M  V30 5509 C 505.794 1.28563 -1.48209 0
M  V30 5510 O 504.919 1.97036 -0.894754 0
M  V30 5511 C 505.514 -0.265576 -3.37758 0
M  V30 5512 C 504.073 0.10738 -3.76247 0
M  V30 5513 C 503.22 -0.603711 -2.70649 0
M  V30 5514 H 506.171 -0.786438 -1.37844 0
M  V30 5515 H 506.192 0.510352 -3.77062 0
M  V30 5516 H 505.704 -1.3106 -3.65301 0
M  V30 5517 H 503.805 1.15272 -3.54321 0
M  V30 5518 H 503.918 -0.26561 -4.78363 0
M  V30 5519 H 502.282 -0.0444884 -2.54661 0
M  V30 5520 H 503.065 -1.65029 -3.01032 0
M  V30 5521 N 505.51 1.54411 -0.315457 0
M  V30 5522 C 506.787 1.92562 0.343398 0
M  V30 5523 C 507.167 1.24423 1.70535 0
M  V30 5524 O 506.515 0.385051 2.25232 0
M  V30 5525 C 506.725 3.46168 0.443687 0
M  V30 5526 C 508.073 4.18659 0.707783 0
M  V30 5527 O 509.097 3.52281 0.52693 0
M  V30 5528 O 507.956 5.36198 1.05612 0
M  V30 5529 H 505.05 0.80379 0.194552 0
M  V30 5530 H 507.596 1.65738 -0.364577 0
M  V30 5531 H 506.368 3.8792 -0.513172 0
M  V30 5532 H 505.991 3.79073 1.19956 0
M  V30 5533 N 506.988 0.0434614 1.5754 0
M  V30 5534 C 507.92 -0.962586 2.08007 0
M  V30 5535 C 508.933 -1.27972 1.00634 0
M  V30 5536 O 510.122 -1.24186 1.28219 0
M  V30 5537 C 507.222 -2.28621 2.50171 0
M  V30 5538 C 506.395 -2.15214 3.80791 0
M  V30 5539 C 505.454 -3.30633 4.09351 0
M  V30 5540 O 504.48 -3.0688 4.79388 0
M  V30 5541 N 505.682 -4.54873 3.60654 0
M  V30 5542 H 508.447 -0.531891 2.94942 0
M  V30 5543 H 506.008 -0.142965 1.61268 0
M  V30 5544 H 508 -3.04689 2.66359 0
M  V30 5545 H 506.57 -2.63283 1.68525 0
M  V30 5546 H 505.79 -1.23785 3.74261 0
M  V30 5547 H 507.078 -2.03475 4.66343 0
M  V30 5548 H 506.476 -4.77063 3.04019 0
M  V30 5549 H 505.033 -5.2806 3.82094 0
M  V30 5550 N 508.466 -1.55915 -0.229846 0
M  V30 5551 C 509.398 -1.88209 -1.30805 0
M  V30 5552 C 510.411 -0.769672 -1.43457 0
M  V30 5553 O 511.6 -1.04792 -1.44502 0
M  V30 5554 C 508.7 -2.06829 -2.68468 0
M  V30 5555 C 507.873 -3.37798 -2.77869 0
M  V30 5556 C 506.932 -3.45952 -3.96489 0
M  V30 5557 O 505.958 -4.19043 -3.85216 0
M  V30 5558 N 507.16 -2.76488 -5.10426 0
M  V30 5559 H 509.925 -2.81286 -1.03431 0
M  V30 5560 H 507.486 -1.5636 -0.41991 0
M  V30 5561 H 509.478 -2.09608 -3.46189 0
M  V30 5562 H 508.048 -1.20416 -2.88477 0
M  V30 5563 H 507.268 -3.4719 -1.86689 0
M  V30 5564 H 508.556 -4.24091 -2.81113 0
M  V30 5565 H 507.954 -2.16868 -5.2248 0
M  V30 5566 H 506.511 -2.84938 -5.8622 0
M  V30 5567 N 509.944 0.496216 -1.49584 0
M  V30 5568 C 511.36 0.827814 -1.36453 0
M  V30 5569 C 511.56 1.97464 -0.401285 0
M  V30 5570 O 510.616 2.51958 0.165296 0
M  V30 5571 C 511.929 1.16352 -2.77277 0
M  V30 5572 C 513.477 1.27145 -2.86013 0
M  V30 5573 C 513.952 1.64042 -4.27615 0
M  V30 5574 N 515.443 1.71082 -4.30448 0
M  V30 5575 C 516.178 2.01085 -5.36984 0
M  V30 5576 N 515.674 2.2928 -6.5376 0
M  V30 5577 N 517.467 2.02376 -5.24405 0
M  V30 5578 H 509.618 -0.259947 -2.10803 0
M  V30 5579 H 511.881 -0.0537163 -0.946477 0
M  V30 5580 H 511.587 0.394153 -3.49484 0
M  V30 5581 H 511.461 2.10582 -3.12946 0
M  V30 5582 H 513.848 2.03152 -2.1404 0
M  V30 5583 H 513.929 0.309542 -2.5392 0
M  V30 5584 H 513.573 0.88583 -5.00115 0
M  V30 5585 H 513.503 2.6134 -4.57175 0
M  V30 5586 H 515.994 1.51434 -3.46232 0
M  V30 5587 H 516.307 2.51376 -7.30774 0
M  V30 5588 H 514.652 2.26726 -6.56978 0
M  V30 5589 H 517.843 1.79829 -4.32179 0
M  V30 5590 H 518.016 2.25425 -6.07526 0
M  V30 5591 N 511.423 1.38739 0.74761 0
M  V30 5592 C 512.353 1.39173 1.87492 0
M  V30 5593 C 513.334 0.256794 1.6815 0
M  V30 5594 O 514.519 0.460762 1.88655 0
M  V30 5595 C 511.649 1.22197 3.25093 0
M  V30 5596 C 510.603 2.32957 3.59047 0
M  V30 5597 C 509.929 2.01082 4.95449 0
M  V30 5598 C 511.229 3.75237 3.6331 0
M  V30 5599 H 512.923 2.3351 1.87386 0
M  V30 5600 H 510.469 1.12399 0.900134 0
M  V30 5601 H 512.422 1.21124 4.03617 0
M  V30 5602 H 511.146 0.243241 3.25693 0
M  V30 5603 H 509.805 2.33226 2.82845 0
M  V30 5604 H 509.453 1.01678 4.92616 0
M  V30 5605 H 509.153 2.75267 5.19136 0
M  V30 5606 H 510.677 2.01638 5.76346 0
M  V30 5607 H 512.091 3.76966 4.31937 0
M  V30 5608 H 510.488 4.48677 3.98509 0
M  V30 5609 H 511.558 4.07122 2.634 0
M  V30 5610 N 512.901 -0.976442 1.23707 0
M  V30 5611 C 514.15 -1.71254 1.06559 0
M  V30 5612 C 514.463 -1.91528 -0.397024 0
M  V30 5613 O 515.669 -2.62625 -0.688518 0
M  V30 5614 C 514.125 -3.08207 1.8584 0
M  V30 5615 C 513.733 -2.95806 3.36456 0
M  V30 5616 C 515.477 -3.85749 1.77194 0
M  V30 5617 C 513.384 -4.28015 4.08114 0
M  V30 5618 H 512.314 -0.642171 0.395136 0
M  V30 5619 H 514.965 -1.08877 1.4771 0
M  V30 5620 H 513.347 -3.71363 1.37498 0
M  V30 5621 H 514.521 -2.41716 3.92314 0
M  V30 5622 H 512.836 -2.31736 3.45959 0
M  V30 5623 H 515.433 -4.83633 2.28041 0
M  V30 5624 H 515.776 -4.09752 0.735477 0
M  V30 5625 H 516.309 -3.29303 2.23169 0
M  V30 5626 H 513.048 -4.09208 5.12083 0
M  V30 5627 H 512.568 -4.81955 3.57043 0
M  V30 5628 H 514.247 -4.96681 4.14629 0
M  V30 5629 N 514.379 -1.04941 -1.1758 0
M  V30 5630 C 515.626 -0.757989 -1.87779 0
M  V30 5631 C 515.954 0.714827 -1.80888 0
M  V30 5632 O 515.209 1.53824 -1.20982 0
M  V30 5633 C 515.508 -1.18062 -3.37337 0
M  V30 5634 C 515.174 -2.65521 -3.6443 0
M  V30 5635 C 513.836 -3.05804 -3.71534 0
M  V30 5636 C 516.188 -3.60822 -3.76108 0
M  V30 5637 C 513.516 -4.40256 -3.87803 0
M  V30 5638 C 515.868 -4.95005 -3.93895 0
M  V30 5639 C 514.532 -5.34945 -3.99237 0
M  V30 5640 H 513.802 -0.277368 -0.68713 0
M  V30 5641 H 516.449 -1.31603 -1.39115 0
M  V30 5642 H 514.754 -0.541525 -3.8804 0
M  V30 5643 H 516.451 -0.932368 -3.9001 0
M  V30 5644 H 513.041 -2.33324 -3.59524 0
M  V30 5645 H 517.225 -3.30841 -3.69943 0
M  V30 5646 H 512.481 -4.70707 -3.90186 0
M  V30 5647 H 516.655 -5.68746 -4.01872 0
M  V30 5648 H 514.282 -6.39135 -4.11596 0
M  V30 5649 N 515.857 1.33968 -0.830081 0
M  V30 5650 C 516.82 2.27694 -0.26235 0
M  V30 5651 C 517.82 1.50589 0.563876 0
M  V30 5652 O 519.01 1.70028 0.378941 0
M  V30 5653 C 516.142 3.35002 0.63138 0
M  V30 5654 H 517.335 2.79419 -1.08928 0
M  V30 5655 H 514.888 1.44221 -0.602486 0
M  V30 5656 H 515.623 2.88504 1.48109 0
M  V30 5657 H 515.408 3.92079 0.0403276 0
M  V30 5658 H 516.898 4.04897 1.02217 0
M  V30 5659 N 517.335 0.585699 1.46312 0
M  V30 5660 C 518.583 0.072278 2.01971 0
M  V30 5661 C 518.904 -1.29345 1.45928 0
M  V30 5662 O 518.174 -1.84973 0.645109 0
M  V30 5663 H 516.754 0.023729 0.746623 0
M  V30 5664 H 519.416 0.762155 1.7938 0
M  V30 5665 H 518.512 0.00552767 3.121 0
M  V30 5666 N 518.813 -1.54241 0.323641 0
M  V30 5667 C 519.76 -2.24339 -0.542277 0
M  V30 5668 C 520.73 -1.23421 -1.11159 0
M  V30 5669 O 521.915 -1.52104 -1.15192 0
M  V30 5670 C 519.055 -3.00479 -1.69725 0
M  V30 5671 C 518.168 -4.16214 -1.15716 0
M  V30 5672 C 517.303 -4.79884 -2.27783 0
M  V30 5673 C 516.342 -5.87722 -1.71023 0
M  V30 5674 N 515.479 -6.45254 -2.76752 0
M  V30 5675 H 520.319 -2.97935 0.0620613 0
M  V30 5676 H 517.856 -1.47039 0.0423993 0
M  V30 5677 H 519.814 -3.42869 -2.3769 0
M  V30 5678 H 518.444 -2.29217 -2.27288 0
M  V30 5679 H 517.496 -3.78605 -0.369063 0
M  V30 5680 H 518.808 -4.93838 -0.701832 0
M  V30 5681 H 517.962 -5.25243 -3.03651 0
M  V30 5682 H 516.701 -4.01641 -2.76652 0
M  V30 5683 H 515.706 -5.41765 -0.936518 0
M  V30 5684 H 516.931 -6.67863 -1.2303 0
M  V30 5685 H 514.877 -5.69884 -3.24912 0
M  V30 5686 H 514.794 -7.18292 -2.35782 0
M  V30 5687 H 516.062 -6.95269 -3.5245 0
M  V30 5688 N 520.291 -0.0518155 -1.57515 0
M  V30 5689 C 521.223 0.951542 -2.08515 0
M  V30 5690 C 522.236 1.27436 -1.01311 0
M  V30 5691 O 523.425 1.23504 -1.28876 0
M  V30 5692 C 520.525 2.27291 -2.5138 0
M  V30 5693 C 519.698 2.13191 -3.81927 0
M  V30 5694 C 518.757 3.28458 -4.11098 0
M  V30 5695 O 517.783 3.04334 -4.81009 0
M  V30 5696 N 518.985 4.52954 -3.63061 0
M  V30 5697 H 521.75 0.516242 -2.9522 0
M  V30 5698 H 519.311 0.13441 -1.61341 0
M  V30 5699 H 521.303 3.03272 -2.67971 0
M  V30 5700 H 519.873 2.62386 -1.69919 0
M  V30 5701 H 519.093 1.21798 -3.74912 0
M  V30 5702 H 520.381 2.00999 -4.67415 0
M  V30 5703 H 519.779 4.75444 -3.06545 0
M  V30 5704 H 518.336 5.26026 -3.84889 0
M  V30 5705 N 521.769 1.56035 0.221574 0
M  V30 5706 C 522.699 1.95434 1.2778 0
M  V30 5707 C 523.68 0.822564 1.48889 0
M  V30 5708 O 524.865 1.08486 1.61072 0
M  V30 5709 C 521.995 2.27102 2.62759 0
M  V30 5710 C 520.949 3.4277 2.56306 0
M  V30 5711 C 520.275 3.60043 3.95314 0
M  V30 5712 C 521.575 4.77742 2.11093 0
M  V30 5713 H 523.269 2.83912 0.950504 0
M  V30 5714 H 520.815 1.36596 0.455791 0
M  V30 5715 H 522.768 2.53256 3.36807 0
M  V30 5716 H 521.492 1.35478 2.97176 0
M  V30 5717 H 520.151 3.16664 1.84715 0
M  V30 5718 H 519.799 2.65794 4.27039 0
M  V30 5719 H 519.499 4.37841 3.91879 0
M  V30 5720 H 521.023 3.88545 4.71025 0
M  V30 5721 H 522.437 5.03102 2.74885 0
M  V30 5722 H 520.834 5.58823 2.18716 0
M  V30 5723 H 521.904 4.731 1.06321 0
M  V30 5724 N 523.247 -0.488276 1.49845 0
M  V30 5725 C 524.157 -1.61451 1.70207 0
M  V30 5726 C 525.173 -1.63877 0.584846 0
M  V30 5727 O 526.349 -1.82063 0.861107 0
M  V30 5728 C 523.414 -2.9776 1.77594 0
M  V30 5729 C 522.475 -3.05861 3.01243 0
M  V30 5730 C 521.708 -4.35668 3.08268 0
M  V30 5731 O 521.931 -5.25197 2.22541 0
M  V30 5732 O 520.865 -4.49005 4.00847 0
M  V30 5733 H 524.691 -1.47199 2.65643 0
M  V30 5734 H 522.276 -0.665939 1.33737 0
M  V30 5735 H 524.158 -3.7875 1.84732 0
M  V30 5736 H 522.833 -3.12248 0.8534 0
M  V30 5737 H 521.74 -2.24012 2.99616 0
M  V30 5738 H 523.073 -2.96304 3.9302 0
M  V30 5739 N 524.725 -1.39134 -0.740242 0
M  V30 5740 C 526.002 -1.26584 -1.49117 0
M  V30 5741 C 526.382 0.126902 -2.10718 0
M  V30 5742 O 525.73 1.13765 -1.98166 0
M  V30 5743 C 525.94 -2.38619 -2.54681 0
M  V30 5744 C 527.288 -2.77685 -3.21211 0
M  V30 5745 O 528.312 -2.38029 -2.64991 0
M  V30 5746 O 527.171 -3.46115 -4.22926 0
M  V30 5747 H 524.265 -0.495769 -0.661923 0
M  V30 5748 H 526.811 -1.50995 -0.774514 0
M  V30 5749 H 525.583 -3.3175 -2.07504 0
M  V30 5750 H 525.206 -2.15845 -3.33911 0
M  V30 5751 N 526.204 0.969867 -1.24223 0
M  V30 5752 C 527.452 1.70918 -1.0785 0
M  V30 5753 C 527.773 1.91186 0.383763 0
M  V30 5754 O 527.043 1.48806 1.27411 0
M  V30 5755 H 525.623 0.633334 -0.396103 0
M  V30 5756 H 528.285 1.16689 -1.56108 0
M  V30 5757 H 527.381 2.69455 -1.57482 0
M  V30 5758 N 527.682 1.05563 1.17022 0
M  V30 5759 C 529.098 0.777684 1.39371 0
M  V30 5760 C 529.298 -0.626269 1.91521 0
M  V30 5761 O 528.354 -1.38806 2.10924 0
M  V30 5762 C 529.667 1.83642 2.3811 0
M  V30 5763 C 531.215 1.85907 2.51809 0
M  V30 5764 C 531.69 2.90813 3.53824 0
M  V30 5765 N 533.181 2.898 3.61345 0
M  V30 5766 C 533.916 3.6762 4.40049 0
M  V30 5767 N 533.412 4.55237 5.22237 0
M  V30 5768 N 535.205 3.56044 4.34959 0
M  V30 5769 H 527.356 1.9614 0.815047 0
M  V30 5770 H 529.619 0.849527 0.420722 0
M  V30 5771 H 529.325 2.84425 2.06871 0
M  V30 5772 H 529.199 1.6812 3.37662 0
M  V30 5773 H 531.586 0.857865 2.82356 0
M  V30 5774 H 531.667 2.05506 1.52318 0
M  V30 5775 H 531.311 3.91122 3.24015 0
M  V30 5776 H 531.241 2.68465 4.53028 0
M  V30 5777 H 533.732 2.26274 3.02669 0
M  V30 5778 H 534.045 5.11291 5.79484 0
M  V30 5779 H 532.39 4.59296 5.21605 0
M  V30 5780 H 535.581 2.86986 3.69806 0
M  V30 5781 H 535.754 4.16938 4.96051 0
M  V30 5782 N 529.16 -1.33526 0.837174 0
M  V30 5783 C 530.388 -2.02047 0.445494 0
M  V30 5784 C 530.803 -1.62995 -0.952788 0
M  V30 5785 O 530.16 -0.842447 -1.61892 0
M  V30 5786 C 530.211 -3.57221 0.554577 0
M  V30 5787 O 529.932 -3.94863 1.89776 0
M  V30 5788 C 531.433 -4.43012 0.159634 0
M  V30 5789 H 528.653 -0.647221 0.177048 0
M  V30 5790 H 531.197 -1.70492 1.12928 0
M  V30 5791 H 529.352 -3.87315 -0.0812781 0
M  V30 5792 H 529.766 -4.89569 1.88208 0
M  V30 5793 H 531.24 -5.51253 0.28701 0
M  V30 5794 H 531.717 -4.29916 -0.898289 0
M  V30 5795 H 532.323 -4.18274 0.769855 0
M  V30 5796 N 530.638 -0.59345 -1.46 0
M  V30 5797 C 531.568 0.121192 -2.33185 0
M  V30 5798 C 532.549 0.872977 -1.4599 0
M  V30 5799 O 533.734 0.846321 -1.74789 0
M  V30 5800 C 530.864 1.12844 -3.28456 0
M  V30 5801 C 529.818 0.4908 -4.25177 0
M  V30 5802 C 529.144 1.60529 -5.10034 0
M  V30 5803 C 530.444 -0.578949 -5.19081 0
M  V30 5804 H 532.138 -0.606767 -2.93187 0
M  V30 5805 H 529.684 -0.293242 -1.40983 0
M  V30 5806 H 531.637 1.63684 -3.88311 0
M  V30 5807 H 530.361 1.88681 -2.66584 0
M  V30 5808 H 529.02 0.00339328 -3.666 0
M  V30 5809 H 528.668 2.35359 -4.44539 0
M  V30 5810 H 528.368 1.18422 -5.75543 0
M  V30 5811 H 529.892 2.11623 -5.72755 0
M  V30 5812 H 531.306 -0.155199 -5.7309 0
M  V30 5813 H 529.703 -0.920947 -5.92991 0
M  V30 5814 H 530.773 -1.46109 -4.62364 0
M  V30 5815 N 532.116 1.54067 -0.331816 0
M  V30 5816 C 533.341 2.05599 0.272705 0
M  V30 5817 C 533.766 1.2059 1.44359 0
M  V30 5818 O 533.124 0.216907 1.79998 0
M  V30 5819 C 533.172 3.54188 0.677021 0
M  V30 5820 O 532.276 3.72082 1.77844 0
M  V30 5821 H 531.617 0.662286 0.0476801 0
M  V30 5822 H 534.147 1.98826 -0.482624 0
M  V30 5823 H 534.157 3.96608 0.957415 0
M  V30 5824 H 532.832 4.15513 -0.179325 0
M  V30 5825 H 531.409 3.41566 1.49622 0
M  V30 5826 N 533.594 0.0601682 1.57485 0
M  V30 5827 C 534.871 -0.651956 1.84415 0
M  V30 5828 C 535.251 -1.88498 0.950361 0
M  V30 5829 O 534.599 -2.28496 0.0136719 0
M  V30 5830 C 534.809 -1.00069 3.34346 0
M  V30 5831 C 536.157 -1.37915 4.01578 0
M  V30 5832 O 537.181 -1.09277 3.39024 0
M  V30 5833 O 536.04 -1.91399 5.11887 0
M  V30 5834 H 533.134 -0.322668 0.761455 0
M  V30 5835 H 535.68 0.0902159 1.6946 0
M  V30 5836 H 534.452 -0.124463 3.91102 0
M  V30 5837 H 534.075 -1.80001 3.54521 0
M  V30 5838 N 535.072 -1.5615 -0.213296 0
M  V30 5839 C 536.302 -1.83372 -0.951757 0
M  V30 5840 C 536.71 -0.638158 -1.78113 0
M  V30 5841 O 536.053 0.402609 -1.79234 0
M  V30 5842 C 536.115 -3.04444 -1.91192 0
M  V30 5843 C 535.779 -4.39107 -1.26627 0
M  V30 5844 C 536.776 -5.15794 -0.652087 0
M  V30 5845 C 534.461 -4.85834 -1.27556 0
M  V30 5846 C 536.455 -6.37376 -0.055814 0
M  V30 5847 C 534.142 -6.07356 -0.675451 0
M  V30 5848 C 535.14 -6.82967 -0.0666367 0
M  V30 5849 O 534.828 -8.0219 0.524119 0
M  V30 5850 H 534.56 -0.613398 -0.284111 0
M  V30 5851 H 537.114 -2.04096 -0.231112 0
M  V30 5852 H 535.344 -2.79559 -2.67178 0
M  V30 5853 H 537.033 -3.18466 -2.51662 0
M  V30 5854 H 537.799 -4.80796 -0.637172 0
M  V30 5855 H 533.678 -4.26949 -1.73883 0
M  V30 5856 H 537.222 -6.96334 0.420004 0
M  V30 5857 H 533.119 -6.41825 -0.687806 0
M  V30 5858 H 533.887 -8.17426 0.419243 0
M  V30 5859 N 536.55 0.480323 -1.50102 0
M  V30 5860 C 537.498 1.60024 -1.68805 0
M  V30 5861 C 538.492 1.60089 -0.553888 0
M  V30 5862 O 539.698 1.64349 -0.734127 0
M  V30 5863 H 536.073 0.530841 -0.532646 0
M  V30 5864 H 538.044 1.41408 -2.62767 0
M  V30 5865 C 536.793 2.98029 -1.79092 0
M  V30 5866 H 536.116 2.98694 -2.65748 0
M  V30 5867 H 537.556 3.75871 -1.96206 0
M  V30 5868 C 536.015 3.32538 -0.540388 0
M  V30 5869 O 536.545 4.00386 0.324637 0
M  V30 5870 N 534.751 2.87873 -0.397154 0
M  V30 5871 H 534.298 2.32834 -1.1021 0
M  V30 5872 H 534.256 3.11328 0.438425 0
M  V30 5873 N 538.028 1.39524 0.732853 0
M  V30 5874 C 539.277 1.36175 1.48792 0
M  V30 5875 C 539.59 -0.0388195 1.95561 0
M  V30 5876 O 540.796 -0.194899 2.708 0
M  V30 5877 C 539.252 2.39242 2.68871 0
M  V30 5878 C 538.86 3.85024 2.29042 0
M  V30 5879 C 540.604 2.44972 3.46683 0
M  V30 5880 C 538.511 4.79727 3.45856 0
M  V30 5881 H 537.441 0.506267 0.558757 0
M  V30 5882 H 540.092 1.65181 0.799226 0
M  V30 5883 H 538.474 2.0331 3.39825 0
M  V30 5884 H 539.648 4.30008 1.6562 0
M  V30 5885 H 537.963 3.82609 1.64316 0
M  V30 5886 H 540.56 3.12918 4.33574 0
M  V30 5887 H 540.903 1.4749 3.89297 0
M  V30 5888 H 541.436 2.79808 2.82759 0
M  V30 5889 H 538.175 5.78479 3.08289 0
M  V30 5890 H 537.695 4.39421 4.08251 0
M  V30 5891 H 539.374 4.98731 4.12161 0
M  V30 5892 N 539.506 -0.963266 1.24736 0
M  V30 5893 C 540.438 -2.06162 1.0015 0
M  V30 5894 C 541.451 -1.62771 -0.0305905 0
M  V30 5895 O 542.64 -1.77296 0.206966 0
M  V30 5896 C 539.74 -3.35333 0.490385 0
M  V30 5897 C 538.913 -4.07609 1.58663 0
M  V30 5898 C 537.972 -5.15052 1.0774 0
M  V30 5899 O 536.998 -5.4098 1.77002 0
M  V30 5900 N 538.2 -5.80436 -0.0858605 0
M  V30 5901 H 540.965 -2.27825 1.94719 0
M  V30 5902 H 538.526 -1.13121 1.15825 0
M  V30 5903 H 540.518 -4.04477 0.134371 0
M  V30 5904 H 539.088 -3.10507 -0.361155 0
M  V30 5905 H 538.308 -3.32681 2.11463 0
M  V30 5906 H 539.596 -4.52656 2.32336 0
M  V30 5907 H 538.994 -5.6178 -0.664806 0
M  V30 5908 H 537.551 -6.50674 -0.382981 0
M  V30 5909 N 540.985 -1.06182 -1.16461 0
M  V30 5910 C 541.932 -0.671613 -2.20812 0
M  V30 5911 C 542.902 0.331186 -1.62765 0
M  V30 5912 O 544.087 0.22033 -1.89524 0
M  V30 5913 C 541.227 -0.063029 -3.45042 0
M  V30 5914 C 540.34 -1.11587 -4.1734 0
M  V30 5915 C 539.475 -0.473546 -5.29085 0
M  V30 5916 C 538.514 -1.51 -5.93182 0
M  V30 5917 N 537.651 -0.891118 -6.96422 0
M  V30 5918 H 542.491 -1.56589 -2.53542 0
M  V30 5919 H 540.028 -0.782951 -1.24532 0
M  V30 5920 H 541.986 0.307344 -4.16066 0
M  V30 5921 H 540.616 0.794663 -3.12866 0
M  V30 5922 H 539.668 -1.60396 -3.44931 0
M  V30 5923 H 540.98 -1.90221 -4.61104 0
M  V30 5924 H 540.134 -0.0501432 -6.06679 0
M  V30 5925 H 538.873 0.344687 -4.8648 0
M  V30 5926 H 537.878 -1.94331 -5.14311 0
M  V30 5927 H 539.103 -2.33031 -6.37866 0
M  V30 5928 H 537.049 -0.0935753 -6.55933 0
M  V30 5929 H 536.966 -1.61486 -7.38551 0
M  V30 5930 H 538.234 -0.492822 -7.77941 0
M  V30 5931 N 542.463 1.3308 -0.844243 0
M  V30 5932 C 543.373 2.32876 -0.283922 0
M  V30 5933 C 544.389 1.63589 0.592846 0
M  V30 5934 O 545.565 1.95205 0.495693 0
M  V30 5935 C 542.63 3.42667 0.527283 0
M  V30 5936 C 541.691 4.27664 -0.374394 0
M  V30 5937 C 540.924 5.32212 0.39819 0
M  V30 5938 O 541.147 5.46635 1.62932 0
M  V30 5939 O 540.081 6.01458 -0.2306 0
M  V30 5940 H 543.907 2.82671 -1.11045 0
M  V30 5941 H 541.492 1.36518 -0.606903 0
M  V30 5942 H 543.374 4.09652 0.988078 0
M  V30 5943 H 542.049 2.95079 1.33078 0
M  V30 5944 H 540.956 3.63526 -0.883144 0
M  V30 5945 H 542.289 4.78749 -1.1428 0
M  V30 5946 N 543.941 0.601185 1.45683 0
M  V30 5947 C 545.166 0.0982245 2.07167 0
M  V30 5948 C 545.591 -1.20546 1.44396 0
M  V30 5949 O 544.949 -1.73247 0.534347 0
M  V30 5950 C 544.997 -0.0346976 3.60583 0
M  V30 5951 O 544.101 -1.08657 3.97828 0
M  V30 5952 H 543.442 0.0711618 0.660176 0
M  V30 5953 H 545.972 0.829376 1.87036 0
M  V30 5954 H 545.982 -0.234969 4.07323 0
M  V30 5955 H 544.657 0.917265 4.05659 0
M  V30 5956 H 543.234 -0.863275 3.6277 0
M  V30 5957 N 545.419 -1.53889 0.339982 0
M  V30 5958 C 546.647 -2.05271 -0.259114 0
M  V30 5959 C 547.062 -1.21517 -1.44496 0
M  V30 5960 O 546.419 -0.24966 -1.80784 0
M  V30 5961 C 546.47 -3.55092 -0.677634 0
M  V30 5962 O 546.191 -4.35667 0.461051 0
M  V30 5963 C 547.692 -4.22631 -1.33782 0
M  V30 5964 H 544.912 -0.669085 -0.0506566 0
M  V30 5965 H 547.456 -1.9852 0.490935 0
M  V30 5966 H 545.611 -3.62077 -1.37763 0
M  V30 5967 H 546.025 -5.24343 0.128144 0
M  V30 5968 H 547.499 -5.28861 -1.58145 0
M  V30 5969 H 547.976 -3.74758 -2.29027 0
M  V30 5970 H 548.582 -4.19829 -0.679957 0
M  V30 5971 N 546.897 -0.0685191 -1.57451 0
M  V30 5972 C 547.827 0.89747 -2.15564 0
M  V30 5973 C 548.808 1.31266 -1.08181 0
M  V30 5974 O 549.993 1.38429 -1.36202 0
M  V30 5975 C 547.123 2.16623 -2.71463 0
M  V30 5976 C 546.077 1.89054 -3.83982 0
M  V30 5977 C 545.403 3.22532 -4.26471 0
M  V30 5978 C 546.703 1.1984 -5.08366 0
M  V30 5979 H 548.397 0.413373 -2.96533 0
M  V30 5980 H 545.943 0.197391 -1.42641 0
M  V30 5981 H 547.896 2.84614 -3.10761 0
M  V30 5982 H 546.62 2.67269 -1.8771 0
M  V30 5983 H 545.279 1.23469 -3.45183 0
M  V30 5984 H 544.927 3.71013 -3.39644 0
M  V30 5985 H 544.627 3.04879 -5.02317 0
M  V30 5986 H 546.151 3.91727 -4.68383 0
M  V30 5987 H 547.565 1.77896 -5.45001 0
M  V30 5988 H 545.962 1.12456 -5.89469 0
M  V30 5989 H 547.032 0.176996 -4.84577 0
M  V30 5990 N 548.375 1.56261 0.205012 0
M  V30 5991 C 549.325 1.90155 1.25798 0
M  V30 5992 C 550.309 0.766227 1.41484 0
M  V30 5993 O 551.501 1.02893 1.44021 0
M  V30 5994 C 548.63 2.23603 2.60493 0
M  V30 5995 C 547.716 3.43568 2.48639 0
M  V30 5996 N 548.107 4.61747 2.06455 0
M  V30 5997 C 546.405 3.4751 2.79558 0
M  V30 5998 C 547.106 5.43907 2.06253 0
M  V30 5999 N 546.082 4.84051 2.47377 0
M  V30 6000 H 549.884 2.79031 0.922986 0
M  V30 6001 H 547.398 1.57048 0.413501 0
M  V30 6002 H 549.395 2.46067 3.36537 0
M  V30 6003 H 548.055 1.36049 2.94823 0
M  V30 6004 H 549.066 4.86598 1.77321 0
M  V30 6005 H 545.743 2.70345 3.18151 0
M  V30 6006 H 547.133 6.48542 1.75622 0
M  V30 6007 N 549.853 -0.472356 1.50355 0
M  V30 6008 C 550.783 -1.57859 1.72055 0
M  V30 6009 C 551.764 -1.60283 0.569505 0
M  V30 6010 O 552.949 -1.7657 0.808503 0
M  V30 6011 C 550.079 -2.96191 1.81351 0
M  V30 6012 C 549.033 -3.08633 2.96529 0
M  V30 6013 C 548.359 -4.486 2.90968 0
M  V30 6014 C 549.659 -2.85969 4.37057 0
M  V30 6015 H 551.353 -1.39953 2.64676 0
M  V30 6016 H 548.899 -0.671846 1.27367 0
M  V30 6017 H 550.852 -3.73507 1.95117 0
M  V30 6018 H 549.576 -3.15251 0.853502 0
M  V30 6019 H 548.235 -2.33749 2.82413 0
M  V30 6020 H 547.883 -4.64577 1.92815 0
M  V30 6021 H 547.583 -4.57861 3.68289 0
M  V30 6022 H 549.107 -5.27938 3.0678 0
M  V30 6023 H 550.521 -3.53036 4.51706 0
M  V30 6024 H 548.918 -3.06677 5.15819 0
M  V30 6025 H 549.988 -1.81838 4.49514 0
M  V30 6026 N 551.331 -1.39911 -0.725443 0
M  V30 6027 C 552.577 -1.37858 -1.48738 0
M  V30 6028 C 552.91 0.0224187 -1.94187 0
M  V30 6029 O 552.185 0.989204 -1.67466 0
M  V30 6030 C 552.468 -2.3594 -2.72038 0
M  V30 6031 C 552.321 -3.85023 -2.32546 0
M  V30 6032 C 553.64 -2.31704 -3.74167 0
M  V30 6033 H 550.759 -0.502074 -0.539528 0
M  V30 6034 H 553.401 -1.70974 -0.828728 0
M  V30 6035 H 551.551 -2.0783 -3.28236 0
M  V30 6036 H 553.223 -4.2392 -1.81905 0
M  V30 6037 H 551.466 -4.01334 -1.64661 0
M  V30 6038 H 552.137 -4.49152 -3.20884 0
M  V30 6039 H 554.613 -2.5658 -3.27576 0
M  V30 6040 H 553.489 -3.02395 -4.58092 0
M  V30 6041 H 553.75 -1.3253 -4.21768 0
M  V30 6042 N 552.809 0.956637 -1.25245 0
M  V30 6043 C 553.739 2.07058 -1.07931 0
M  V30 6044 C 554.72 1.70096 0.0110361 0
M  V30 6045 O 555.905 1.93555 -0.158121 0
M  V30 6046 C 553.035 3.40272 -0.695124 0
M  V30 6047 C 551.989 3.91235 -1.73549 0
M  V30 6048 C 551.315 5.20921 -1.20604 0
M  V30 6049 C 552.615 4.17837 -3.13385 0
M  V30 6050 H 554.309 2.218 -2.01109 0
M  V30 6051 H 551.855 1.06581 -0.968326 0
M  V30 6052 H 553.808 4.1765 -0.560949 0
M  V30 6053 H 552.532 3.25462 0.272355 0
M  V30 6054 H 551.191 3.16025 -1.85807 0
M  V30 6055 H 550.839 5.02479 -0.228846 0
M  V30 6056 H 550.539 5.55987 -1.90136 0
M  V30 6057 H 552.063 6.00897 -1.08421 0
M  V30 6058 H 553.477 4.8588 -3.04292 0
M  V30 6059 H 551.874 4.64154 -3.80369 0
M  V30 6060 H 552.944 3.2419 -3.60595 0
M  V30 6061 N 554.287 1.06798 1.15896 0
M  V30 6062 C 555.703 0.792423 1.38538 0
M  V30 6063 C 555.903 -0.60592 1.92174 0
M  V30 6064 O 554.959 -1.36561 2.12385 0
M  V30 6065 C 556.272 1.86157 2.36149 0
M  V30 6066 C 557.82 1.88567 2.49823 0
M  V30 6067 C 558.295 2.9455 3.5072 0
M  V30 6068 N 559.786 2.93616 3.58251 0
M  V30 6069 C 560.521 3.72267 4.36125 0
M  V30 6070 N 560.017 4.60751 5.17379 0
M  V30 6071 N 561.81 3.60637 4.31158 0
M  V30 6072 H 553.961 1.96993 0.794198 0
M  V30 6073 H 556.224 0.853942 0.411688 0
M  V30 6074 H 555.93 2.86603 2.03843 0
M  V30 6075 H 555.804 1.71692 3.3586 0
M  V30 6076 H 558.191 0.887765 2.8143 0
M  V30 6077 H 558.272 2.0711 1.5013 0
M  V30 6078 H 557.916 3.94537 3.19849 0
M  V30 6079 H 557.846 2.73255 4.50155 0
M  V30 6080 H 560.337 2.29472 3.00252 0
M  V30 6081 H 560.65 5.17408 5.74028 0
M  V30 6082 H 558.995 4.64803 5.16704 0
M  V30 6083 H 562.186 2.90892 3.66742 0
M  V30 6084 H 562.359 4.22176 4.91601 0
M  V30 6085 N 555.766 -1.3263 0.851289 0
M  V30 6086 C 556.696 -2.31449 0.308771 0
M  V30 6087 C 557.677 -1.59531 -0.590255 0
M  V30 6088 O 558.862 -1.87351 -0.511205 0
M  V30 6089 C 555.992 -3.43586 -0.506548 0
M  V30 6090 C 554.946 -4.26963 0.297753 0
M  V30 6091 C 554.272 -5.30831 -0.642094 0
M  V30 6092 C 555.572 -4.99643 1.52166 0
M  V30 6093 H 557.266 -2.77074 1.13447 0
M  V30 6094 H 554.812 -1.33207 0.546971 0
M  V30 6095 H 556.765 -4.11754 -0.896474 0
M  V30 6096 H 555.489 -2.96681 -1.36558 0
M  V30 6097 H 554.148 -3.60437 0.669391 0
M  V30 6098 H 553.796 -4.8018 -1.49788 0
M  V30 6099 H 553.496 -5.87501 -0.107968 0
M  V30 6100 H 555.02 -6.01862 -1.02927 0
M  V30 6101 H 556.434 -5.6051 1.20421 0
M  V30 6102 H 554.831 -5.66022 1.99347 0
M  V30 6103 H 555.901 -4.27701 2.28474 0
M  V30 6104 N 557.244 -0.608902 -1.45362 0
M  V30 6105 C 558.66 -0.272659 -1.57254 0
M  V30 6106 C 558.86 1.22477 -1.60005 0
M  V30 6107 O 557.916 2.00785 -1.53106 0
M  V30 6108 C 559.229 -0.944991 -2.85465 0
M  V30 6109 C 560.777 -0.921033 -2.99142 0
M  V30 6110 C 561.252 -1.5734 -4.30126 0
M  V30 6111 N 562.743 -1.53895 -4.36887 0
M  V30 6112 C 563.478 -2.01286 -5.36909 0
M  V30 6113 N 562.974 -2.56768 -6.43461 0
M  V30 6114 N 564.767 -1.92046 -5.28275 0
M  V30 6115 H 556.918 -1.58117 -1.4182 0
M  V30 6116 H 559.181 -0.662437 -0.678146 0
M  V30 6117 H 558.887 -1.99941 -2.89338 0
M  V30 6118 H 558.761 -0.469079 -3.74272 0
M  V30 6119 H 561.148 0.124846 -2.94836 0
M  V30 6120 H 561.229 -1.43522 -2.11743 0
M  V30 6121 H 560.873 -2.61862 -4.35191 0
M  V30 6122 H 560.803 -1.03422 -5.16344 0
M  V30 6123 H 563.294 -1.13366 -3.60495 0
M  V30 6124 H 563.607 -2.9072 -7.16032 0
M  V30 6125 H 561.952 -2.60808 -6.44208 0
M  V30 6126 H 565.143 -1.48439 -4.43941 0
M  V30 6127 H 565.316 -2.29293 -6.06077 0
M  V30 6128 N 558.722 1.53707 -0.348139 0
M  V30 6129 C 559.97 2.00591 0.246478 0
M  V30 6130 C 560.291 1.23753 1.50699 0
M  V30 6131 O 559.561 0.345964 1.92821 0
M  V30 6132 H 558.141 0.741053 0.0940679 0
M  V30 6133 H 560.803 1.89139 -0.470354 0
M  V30 6134 H 559.899 3.08297 0.485714 0
M  V30 6135 N 560.2 0.0768682 1.57412 0
M  V30 6136 C 561.448 -0.589918 1.93299 0
M  V30 6137 C 561.769 -1.69842 0.958049 0
M  V30 6138 O 561.039 -1.95899 0.00703261 0
M  V30 6139 H 559.619 -0.220901 0.713591 0
M  V30 6140 H 562.281 0.135917 1.94425 0
M  V30 6141 H 561.377 -1.01195 2.95239 0
M  V30 6142 N 561.678 -1.56367 -0.196722 0
M  V30 6143 C 562.611 -1.89475 -1.2718 0
M  V30 6144 C 563.589 -0.754667 -1.44026 0
M  V30 6145 O 564.773 -1.00551 -1.59442 0
M  V30 6146 C 561.9 -2.12352 -2.63864 0
M  V30 6147 C 560.946 -3.35053 -2.63897 0
M  V30 6148 S 561.779 -4.90228 -2.15492 0
M  V30 6149 C 562.935 -5.16171 -3.54004 0
M  V30 6150 H 563.168 -2.80365 -0.989075 0
M  V30 6151 H 560.701 -1.49125 -0.40014 0
M  V30 6152 H 562.659 -2.26214 -3.42545 0
M  V30 6153 H 561.32 -1.22214 -2.89349 0
M  V30 6154 H 560.513 -3.48182 -3.64397 0
M  V30 6155 H 560.115 -3.20176 -1.93296 0
M  V30 6156 H 562.407 -5.06591 -4.49857 0
M  V30 6157 H 563.35 -6.17938 -3.45771 0
M  V30 6158 H 563.758 -4.43814 -3.48841 0
M  V30 6159 N 563.156 0.464375 -1.50603 0
M  V30 6160 C 564.088 1.57916 -1.66118 0
M  V30 6161 C 565.101 1.53497 -0.54246 0
M  V30 6162 O 566.29 1.58763 -0.815877 0
M  V30 6163 C 563.39 2.96809 -1.63577 0
M  V30 6164 C 562.563 3.26026 -2.91592 0
M  V30 6165 C 561.622 4.44506 -2.81604 0
M  V30 6166 O 560.648 4.44484 -3.55559 0
M  V30 6167 N 561.85 5.46549 -1.95614 0
M  V30 6168 H 564.615 1.45022 -2.62276 0
M  V30 6169 H 562.176 0.652903 -1.48151 0
M  V30 6170 H 564.168 3.74048 -1.54499 0
M  V30 6171 H 562.738 3.03438 -0.751262 0
M  V30 6172 H 561.958 2.37337 -3.14746 0
M  V30 6173 H 563.246 3.42361 -3.76386 0
M  V30 6174 H 562.644 5.49391 -1.34854 0
M  V30 6175 H 561.201 6.22746 -1.92435 0
M  V30 6176 N 564.634 1.40294 0.718013 0
M  V30 6177 C 565.883 1.37746 1.4734 0
M  V30 6178 C 566.196 -0.0180754 1.95592 0
M  V30 6179 O 567.402 -0.166166 2.70991 0
M  V30 6180 C 565.858 2.4208 2.66318 0
M  V30 6181 C 565.466 3.87432 2.24945 0
M  V30 6182 C 567.21 2.48635 3.44065 0
M  V30 6183 C 565.117 4.83368 3.40748 0
M  V30 6184 H 564.047 0.512165 0.553356 0
M  V30 6185 H 566.698 1.66019 0.781661 0
M  V30 6186 H 565.08 2.06903 3.3765 0
M  V30 6187 H 566.254 4.3174 1.6105 0
M  V30 6188 H 564.569 3.8433 1.60249 0
M  V30 6189 H 567.166 3.17499 4.30231 0
M  V30 6190 H 567.509 1.51611 3.87711 0
M  V30 6191 H 568.042 2.82791 2.79775 0
M  V30 6192 H 564.781 5.81716 3.02136 0
M  V30 6193 H 564.301 4.43726 4.03568 0
M  V30 6194 H 565.98 5.03074 4.06848 0
M  V30 6195 N 566.112 -0.949982 1.2575 0
M  V30 6196 C 567.359 -1.69515 1.10774 0
M  V30 6197 C 567.687 -1.91316 -0.350479 0
M  V30 6198 O 566.942 -1.48515 -1.27443 0
M  V30 6199 C 567.241 -3.08039 1.81237 0
M  V30 6200 C 566.907 -3.06023 3.31151 0
M  V30 6201 C 565.569 -3.0518 3.72047 0
M  V30 6202 C 567.921 -2.98998 4.26907 0
M  V30 6203 C 565.249 -2.95067 5.07102 0
M  V30 6204 C 567.601 -2.90426 5.61992 0
M  V30 6205 C 566.265 -2.87922 6.0221 0
M  V30 6206 H 565.535 -0.6203 0.405351 0
M  V30 6207 H 568.182 -1.10953 1.56082 0
M  V30 6208 H 566.487 -3.70172 1.28373 0
M  V30 6209 H 568.184 -3.64526 1.67098 0
M  V30 6210 H 564.774 -3.07453 2.98614 0
M  V30 6211 H 568.958 -2.98764 3.963 0
M  V30 6212 H 564.214 -2.915 5.37436 0
M  V30 6213 H 568.388 -2.83952 6.35881 0
M  V30 6214 H 566.015 -2.79841 7.06819 0
M  V30 6215 N 567.59 -1.07411 -1.15328 0
M  V30 6216 C 568.836 -0.798831 -1.86404 0
M  V30 6217 C 569.169 0.673433 -1.8215 0
M  V30 6218 O 568.444 1.49428 -1.24505 0
M  V30 6219 C 568.727 -1.30846 -3.35487 0
M  V30 6220 C 568.58 -2.84532 -3.4837 0
M  V30 6221 C 569.899 -0.925486 -4.30259 0
M  V30 6222 H 567.018 -0.291659 -0.676834 0
M  V30 6223 H 569.66 -1.332 -1.35491 0
M  V30 6224 H 567.81 -0.854916 -3.78977 0
M  V30 6225 H 569.482 -3.3818 -3.13739 0
M  V30 6226 H 567.725 -3.22699 -2.8991 0
M  V30 6227 H 568.396 -3.15259 -4.53118 0
M  V30 6228 H 570.872 -1.3163 -3.94731 0
M  V30 6229 H 569.748 -1.3094 -5.33053 0
M  V30 6230 H 570.009 0.168525 -4.41779 0
M  V30 6231 N 569.068 1.32177 -0.85831 0
M  V30 6232 C 570.015 2.28794 -0.303607 0
M  V30 6233 C 570.985 1.55213 0.591453 0
M  V30 6234 O 572.17 1.83418 0.525585 0
M  V30 6235 C 569.31 3.41475 0.49889 0
M  V30 6236 C 568.423 4.2993 -0.422373 0
M  V30 6237 C 567.558 5.29743 0.393111 0
M  V30 6238 C 566.597 6.09842 -0.525317 0
M  V30 6239 N 565.734 7.01643 0.253208 0
M  V30 6240 H 570.574 2.75631 -1.13276 0
M  V30 6241 H 568.111 1.35606 -0.570026 0
M  V30 6242 H 570.069 4.05531 0.979826 0
M  V30 6243 H 568.699 2.95779 1.29284 0
M  V30 6244 H 567.751 3.66422 -1.02171 0
M  V30 6245 H 569.063 4.85899 -1.12709 0
M  V30 6246 H 568.217 5.9942 0.937056 0
M  V30 6247 H 566.956 4.744 1.13117 0
M  V30 6248 H 565.961 5.39066 -1.08112 0
M  V30 6249 H 567.186 6.6727 -1.26205 0
M  V30 6250 H 565.132 6.48725 0.974295 0
M  V30 6251 H 565.049 7.54981 -0.392398 0
M  V30 6252 H 566.317 7.756 0.778761 0
M  V30 6253 N 570.547 0.616602 1.45037 0
M  V30 6254 C 571.775 0.121968 2.0654 0
M  V30 6255 C 572.19 -1.19743 1.45969 0
M  V30 6256 O 571.547 -1.73133 0.577168 0
M  V30 6257 C 571.598 -0.0145171 3.61497 0
M  V30 6258 O 571.319 1.25269 4.19809 0
M  V30 6259 C 572.82 -0.539555 4.40004 0
M  V30 6260 H 570.04 0.0729837 0.667019 0
M  V30 6261 H 572.584 0.846891 1.8614 0
M  V30 6262 H 570.739 -0.689809 3.81209 0
M  V30 6263 H 571.153 1.08816 5.13088 0
M  V30 6264 H 572.627 -0.584112 5.48901 0
M  V30 6265 H 573.104 -1.56368 4.10421 0
M  V30 6266 H 573.71 0.101995 4.25178 0
M  V30 6267 N 572.025 -1.5352 0.356285 0
M  V30 6268 C 572.955 -2.28372 -0.486661 0
M  V30 6269 C 573.936 -1.30432 -1.09185 0
M  V30 6270 O 575.121 -1.59291 -1.11085 0
M  V30 6271 C 572.251 -3.06604 -1.63129 0
M  V30 6272 C 571.205 -4.12154 -1.15381 0
M  V30 6273 C 570.531 -4.78415 -2.38796 0
M  V30 6274 C 571.831 -5.21724 -0.245179 0
M  V30 6275 H 573.525 -2.99083 0.137797 0
M  V30 6276 H 571.071 -1.43841 0.0677134 0
M  V30 6277 H 573.024 -3.57712 -2.22755 0
M  V30 6278 H 571.748 -2.33568 -2.28284 0
M  V30 6279 H 570.407 -3.61978 -0.580294 0
M  V30 6280 H 570.055 -4.01959 -3.02387 0
M  V30 6281 H 569.755 -5.49734 -2.07524 0
M  V30 6282 H 571.279 -5.32313 -2.99125 0
M  V30 6283 H 572.693 -5.68391 -0.748646 0
M  V30 6284 H 571.09 -6.00095 -0.0237608 0
M  V30 6285 H 572.16 -4.79596 0.715229 0
M  V30 6286 N 573.503 -0.0852151 -1.57369 0
M  V30 6287 C 574.731 0.58946 -1.98325 0
M  V30 6288 C 575.146 1.62333 -0.96403 0
M  V30 6289 O 574.503 1.82438 0.0476395 0
M  V30 6290 C 574.554 1.24604 -3.39347 0
M  V30 6291 O 574.275 0.253532 -4.37366 0
M  V30 6292 C 575.776 2.00726 -3.95252 0
M  V30 6293 H 572.996 0.158783 -0.651942 0
M  V30 6294 H 575.54 -0.161584 -2.03861 0
M  V30 6295 H 573.695 1.94808 -3.34856 0
M  V30 6296 H 574.109 0.726207 -5.19448 0
M  V30 6297 H 575.583 2.42039 -4.96106 0
M  V30 6298 H 576.06 2.86919 -3.32527 0
M  V30 6299 H 576.666 1.3536 -4.03185 0
M  V30 6300 N 574.981 1.5647 0.188427 0
M  V30 6301 C 576.229 1.80655 0.905986 0
M  V30 6302 C 576.55 0.659391 1.83513 0
M  V30 6303 O 575.82 -0.321868 1.93238 0
M  V30 6304 H 574.4 0.666391 0.337538 0
M  V30 6305 H 577.062 1.93949 0.192339 0
M  V30 6306 H 576.158 2.74066 1.49313 0
M  V30 6307 N 576.459 -0.456382 1.50847 0
M  V30 6308 C 577.406 -1.55249 1.70782 0
M  V30 6309 C 578.376 -1.56757 0.549231 0
M  V30 6310 O 579.561 -1.74061 0.7815 0
M  V30 6311 C 576.701 -2.93118 1.82143 0
M  V30 6312 C 575.814 -3.01285 3.09598 0
M  V30 6313 C 574.949 -4.30159 3.11667 0
M  V30 6314 C 573.988 -4.32124 4.33515 0
M  V30 6315 N 573.125 -5.52492 4.3324 0
M  V30 6316 H 577.965 -1.37555 2.64353 0
M  V30 6317 H 575.502 -0.668543 1.3103 0
M  V30 6318 H 577.46 -3.73088 1.86711 0
M  V30 6319 H 576.09 -3.09413 0.919978 0
M  V30 6320 H 575.142 -2.14096 3.14431 0
M  V30 6321 H 576.454 -2.98597 3.99551 0
M  V30 6322 H 575.608 -5.18489 3.15046 0
M  V30 6323 H 574.347 -4.35477 2.1957 0
M  V30 6324 H 573.352 -3.42189 4.30333 0
M  V30 6325 H 574.577 -4.28485 5.26856 0
M  V30 6326 H 572.523 -5.58567 3.44004 0
M  V30 6327 H 572.44 -5.51605 5.16979 0
M  V30 6328 H 573.708 -6.42906 4.40786 0
M  V30 6329 N 577.937 -1.40673 -0.710563 0
M  V30 6330 C 579.165 -1.42547 -1.4996 0
M  V30 6331 C 579.58 -0.0265485 -1.88781 0
M  V30 6332 O 578.937 0.950694 -1.55782 0
M  V30 6333 C 578.988 -2.32071 -2.77173 0
M  V30 6334 O 578.709 -3.66518 -2.39992 0
M  V30 6335 C 580.21 -2.42591 -3.71032 0
M  V30 6336 H 577.43 -0.486025 -0.462623 0
M  V30 6337 H 579.974 -1.84783 -0.876102 0
M  V30 6338 H 578.129 -1.93184 -3.35795 0
M  V30 6339 H 578.543 -4.14115 -3.21884 0
M  V30 6340 H 580.017 -3.09429 -4.57119 0
M  V30 6341 H 580.494 -1.4525 -4.14486 0
M  V30 6342 H 581.1 -2.82051 -3.18319 0
M  V30 6343 N 579.415 0.9433 -1.26252 0
M  V30 6344 C 580.664 1.68369 -1.11062 0
M  V30 6345 C 580.977 1.92514 0.346104 0
M  V30 6346 O 582.183 2.64358 0.618646 0
M  V30 6347 C 580.639 3.03171 -1.93946 0
M  V30 6348 C 580.247 2.86782 -3.4418 0
M  V30 6349 C 581.991 3.80916 -1.87359 0
M  V30 6350 C 579.898 4.17044 -4.19319 0
M  V30 6351 H 578.828 0.631469 -0.412023 0
M  V30 6352 H 581.479 1.04922 -1.50544 0
M  V30 6353 H 579.861 3.67587 -1.47296 0
M  V30 6354 H 581.035 2.31229 -3.98585 0
M  V30 6355 H 579.35 2.22482 -3.51981 0
M  V30 6356 H 581.947 4.77417 -2.40784 0
M  V30 6357 H 582.29 4.07658 -0.843857 0
M  V30 6358 H 582.823 3.2327 -2.31821 0
M  V30 6359 H 579.562 3.95487 -5.22753 0
M  V30 6360 H 579.082 4.72319 -3.69696 0
M  V30 6361 H 580.761 4.85513 -4.27651 0
M  V30 6362 N 580.893 1.08022 1.14757 0
M  V30 6363 C 582.121 0.828847 1.89572 0
M  V30 6364 C 582.536 -0.618621 1.78377 0
M  V30 6365 O 581.893 -1.42482 1.1404 0
M  V30 6366 C 581.944 1.23677 3.39685 0
M  V30 6367 O 581.665 2.62746 3.50566 0
M  V30 6368 C 583.166 1.01569 4.31507 0
M  V30 6369 H 580.386 0.299196 0.600602 0
M  V30 6370 H 582.93 1.43846 1.45357 0
M  V30 6371 H 581.085 0.671347 3.81539 0
M  V30 6372 H 581.499 2.79573 4.43778 0
M  V30 6373 H 582.973 1.35055 5.35223 0
M  V30 6374 H 583.45 -0.0475433 4.39174 0
M  V30 6375 H 584.056 1.56636 3.95405 0
M  V30 6376 N 582.371 -1.3172 0.865308 0
M  V30 6377 C 583.301 -2.31109 0.333302 0
M  V30 6378 C 584.282 -1.60148 -0.573301 0
M  V30 6379 O 585.467 -1.87882 -0.491305 0
M  V30 6380 C 582.597 -3.44104 -0.470078 0
M  V30 6381 C 581.551 -4.26623 0.343021 0
M  V30 6382 C 580.877 -5.31482 -0.585756 0
M  V30 6383 C 582.177 -4.98001 1.57456 0
M  V30 6384 H 583.871 -2.75855 1.1638 0
M  V30 6385 H 581.417 -1.3262 0.561069 0
M  V30 6386 H 583.37 -4.12682 -0.852752 0
M  V30 6387 H 582.094 -2.98112 -1.33404 0
M  V30 6388 H 580.753 -3.59707 0.707583 0
M  V30 6389 H 580.401 -4.81741 -1.44686 0
M  V30 6390 H 580.101 -5.87582 -0.0456494 0
M  V30 6391 H 581.625 -6.0292 -0.965375 0
M  V30 6392 H 583.039 -5.59201 1.26359 0
M  V30 6393 H 581.436 -5.63876 2.05339 0
M  V30 6394 H 582.506 -4.25253 2.32997 0
M  V30 6395 N 583.85 -0.624285 -1.44708 0
M  V30 6396 C 584.76 0.0861083 -2.34442 0
M  V30 6397 C 585.776 0.84291 -1.5222 0
M  V30 6398 O 586.952 0.796723 -1.84971 0
M  V30 6399 C 584.017 1.05999 -3.30099 0
M  V30 6400 C 583.077 0.303316 -4.28227 0
M  V30 6401 C 582.311 1.23081 -5.19314 0
M  V30 6402 O 582.534 2.46929 -5.14181 0
M  V30 6403 O 581.468 0.71883 -5.97592 0
M  V30 6404 H 585.293 -0.651756 -2.96624 0
M  V30 6405 H 582.879 -0.384493 -1.44368 0
M  V30 6406 H 584.76 1.62046 -3.88997 0
M  V30 6407 H 583.436 1.77859 -2.70459 0
M  V30 6408 H 582.343 -0.300033 -3.72895 0
M  V30 6409 H 583.676 -0.375123 -4.90768 0
M  V30 6410 N 585.328 1.53329 -0.364422 0
M  V30 6411 C 586.574 2.01537 0.225969 0
M  V30 6412 C 586.907 1.25128 1.48515 0
M  V30 6413 O 586.182 0.344653 1.91422 0
M  V30 6414 C 586.465 3.56339 0.519092 0
M  V30 6415 C 586.318 4.43441 -0.753639 0
M  V30 6416 C 587.637 4.19833 1.32015 0
M  V30 6417 H 584.756 0.732573 0.0806548 0
M  V30 6418 H 587.398 1.83597 -0.489084 0
M  V30 6419 H 585.548 3.71756 1.12825 0
M  V30 6420 H 587.22 4.39823 -1.39116 0
M  V30 6421 H 585.463 4.11457 -1.37424 0
M  V30 6422 H 586.134 5.49699 -0.503517 0
M  V30 6423 H 588.61 4.08242 0.804859 0
M  V30 6424 H 587.486 5.28177 1.49399 0
M  V30 6425 H 587.747 3.75821 2.32832 0
M  V30 6426 N 586.806 0.0935595 1.57322 0
M  V30 6427 C 587.716 -0.880192 2.17462 0
M  V30 6428 C 588.732 -1.31135 1.14366 0
M  V30 6429 O 589.908 -1.37958 1.46729 0
M  V30 6430 C 586.973 -2.12184 2.74188 0
M  V30 6431 C 586.034 -1.74503 3.92234 0
M  V30 6432 C 585.267 -2.92748 4.46245 0
M  V30 6433 O 585.49 -4.07427 3.99198 0
M  V30 6434 O 584.424 -2.71303 5.37288 0
M  V30 6435 H 588.25 -0.398516 3.01074 0
M  V30 6436 H 585.835 -0.130707 1.48827 0
M  V30 6437 H 587.717 -2.84953 3.10451 0
M  V30 6438 H 586.392 -2.59407 1.93623 0
M  V30 6439 H 585.299 -0.989186 3.60785 0
M  V30 6440 H 586.632 -1.32044 4.74157 0
M  V30 6441 N 588.284 -1.56567 -0.180126 0
M  V30 6442 C 589.695 -1.7126 -0.743422 0
M  V30 6443 C 590.046 -0.70263 -1.83187 0
M  V30 6444 O 589.171 0.137856 -2.1596 0
M  V30 6445 C 589.766 -3.10512 -1.35528 0
M  V30 6446 C 588.325 -3.26919 -1.8655 0
M  V30 6447 C 587.472 -2.67213 -0.741099 0
M  V30 6448 H 590.423 -1.58636 0.0451543 0
M  V30 6449 H 590.444 -3.08673 -2.22489 0
M  V30 6450 H 589.956 -3.83997 -0.562862 0
M  V30 6451 H 588.057 -2.58376 -2.68464 0
M  V30 6452 H 588.17 -4.34574 -2.01699 0
M  V30 6453 H 586.534 -2.26788 -1.15927 0
M  V30 6454 H 587.317 -3.43277 0.0393291 0
M  V30 6455 N 589.762 0.448376 -1.51087 0
M  V30 6456 C 590.987 1.22605 -1.6728 0
M  V30 6457 C 591.412 1.84524 -0.365045 0
M  V30 6458 O 590.77 1.6832 0.673642 0
M  V30 6459 C 590.818 2.29393 -2.78229 0
M  V30 6460 O 589.922 3.34608 -2.41063 0
M  V30 6461 H 589.263 0.359705 -0.558129 0
M  V30 6462 H 591.793 0.530903 -1.97592 0
M  V30 6463 H 591.803 2.74352 -3.01986 0
M  V30 6464 H 590.478 1.83701 -3.73131 0
M  V30 6465 H 589.055 2.95202 -2.27838 0
M  V30 6466 N 591.24 1.41047 0.703093 0
M  V30 6467 C 592.517 1.30493 1.45708 0
M  V30 6468 C 592.897 -0.0709892 2.10981 0
M  V30 6469 O 592.245 -1.08471 2.01113 0
M  V30 6470 C 592.455 2.45287 2.48265 0
M  V30 6471 C 593.803 2.86104 3.13735 0
M  V30 6472 O 594.827 2.44971 2.58587 0
M  V30 6473 O 593.686 3.57206 4.13601 0
M  V30 6474 H 590.78 0.513144 0.648546 0
M  V30 6475 H 593.326 1.52995 0.734208 0
M  V30 6476 H 592.098 3.37135 1.98635 0
M  V30 6477 H 591.721 2.24622 3.28071 0
M  V30 6478 N 592.718 -0.936591 1.26751 0
M  V30 6479 C 593.946 -1.71758 1.15355 0
M  V30 6480 C 594.361 -1.86549 -0.290683 0
M  V30 6481 O 593.718 -1.37616 -1.19868 0
M  V30 6482 C 593.769 -3.12193 1.82258 0
M  V30 6483 O 593.49 -2.98105 3.21038 0
M  V30 6484 C 594.991 -4.06485 1.76875 0
M  V30 6485 H 592.211 -0.537636 0.401483 0
M  V30 6486 H 594.755 -1.17382 1.67457 0
M  V30 6487 H 592.91 -3.63456 1.34083 0
M  V30 6488 H 593.324 -3.86824 3.54214 0
M  V30 6489 H 594.798 -5.02569 2.28316 0
M  V30 6490 H 595.275 -4.32986 0.736216 0
M  V30 6491 H 595.881 -3.61144 2.24623 0
M  V30 6492 N 594.196 -1.08629 -1.14182 0
M  V30 6493 C 595.445 -0.812271 -1.84621 0
M  V30 6494 C 595.758 0.664313 -1.83973 0
M  V30 6495 O 596.964 1.05357 -2.50224 0
M  V30 6496 C 595.42 -1.4031 -3.31423 0
M  V30 6497 C 595.028 -2.91164 -3.40481 0
M  V30 6498 C 596.772 -1.20767 -4.06959 0
M  V30 6499 C 594.679 -3.43373 -4.81507 0
M  V30 6500 H 593.609 -0.30019 -0.691666 0
M  V30 6501 H 596.26 -1.30798 -1.28701 0
M  V30 6502 H 594.642 -0.835096 -3.87094 0
M  V30 6503 H 595.816 -3.5412 -2.94848 0
M  V30 6504 H 594.131 -3.09646 -2.78403 0
M  V30 6505 H 596.728 -1.57237 -5.11058 0
M  V30 6506 H 597.071 -0.147664 -4.16038 0
M  V30 6507 H 597.604 -1.74274 -3.57594 0
M  V30 6508 H 594.343 -4.48958 -4.77616 0
M  V30 6509 H 593.863 -2.85176 -5.27669 0
M  V30 6510 H 595.542 -3.40095 -5.50404 0
M  V30 6511 N 595.674 1.31259 -0.872281 0
M  V30 6512 C 596.584 2.32221 -0.333255 0
M  V30 6513 C 597.6 1.6481 0.558013 0
M  V30 6514 O 598.776 1.96212 0.454175 0
M  V30 6515 C 595.841 3.43708 0.454479 0
M  V30 6516 C 594.902 4.26774 -0.465024 0
M  V30 6517 C 594.135 5.32937 0.28521 0
M  V30 6518 O 594.358 5.49968 1.513 0
M  V30 6519 O 593.292 6.00834 -0.358126 0
M  V30 6520 H 597.118 2.80252 -1.17016 0
M  V30 6521 H 594.703 1.352 -0.635724 0
M  V30 6522 H 596.585 4.11656 0.900963 0
M  V30 6523 H 595.26 2.97836 1.26789 0
M  V30 6524 H 594.167 3.61571 -0.960055 0
M  V30 6525 H 595.5 4.76217 -1.2441 0
M  V30 6526 N 597.152 0.631951 1.44375 0
M  V30 6527 C 598.1 -0.0846693 2.32446 0
M  V30 6528 C 599.094 -0.834957 1.47393 0
M  V30 6529 O 600.3 -0.747764 1.63733 0
M  V30 6530 H 596.675 -0.0461508 0.750583 0
M  V30 6531 H 598.646 0.67619 2.90638 0
M  V30 6532 C 597.395 -1.05211 3.314 0
M  V30 6533 H 596.718 -0.484203 3.96857 0
M  V30 6534 H 598.158 -1.523 3.95703 0
M  V30 6535 C 596.617 -2.13776 2.60387 0
M  V30 6536 O 597.147 -3.21869 2.4034 0
M  V30 6537 N 595.353 -1.89733 2.20113 0
M  V30 6538 H 594.9 -1.01833 2.36618 0
M  V30 6539 H 594.858 -2.62572 1.72926 0
M  V30 6540 N 598.631 -1.53133 0.372548 0
M  V30 6541 C 599.877 -2.01654 -0.215277 0
M  V30 6542 C 600.21 -1.25914 -1.47849 0
M  V30 6543 O 599.485 -0.3548 -1.91237 0
M  V30 6544 C 599.768 -3.56609 -0.500187 0
M  V30 6545 C 599.621 -4.43036 0.777145 0
M  V30 6546 C 600.94 -4.20528 -1.29786 0
M  V30 6547 H 598.059 -0.732991 -0.0767686 0
M  V30 6548 H 600.701 -1.83335 0.498814 0
M  V30 6549 H 598.851 -3.7235 -1.10852 0
M  V30 6550 H 600.523 -4.39079 1.41447 0
M  V30 6551 H 598.766 -4.10723 1.39604 0
M  V30 6552 H 599.437 -5.49424 0.532662 0
M  V30 6553 H 601.913 -4.08663 -0.783198 0
M  V30 6554 H 600.789 -5.28962 -1.46596 0
M  V30 6555 H 601.05 -3.77051 -2.30836 0
M  V30 6556 N 600.109 -0.101901 -1.5727 0
M  V30 6557 C 601.056 0.854577 -2.14396 0
M  V30 6558 C 602.026 1.27521 -1.06432 0
M  V30 6559 O 603.211 1.35575 -1.34253 0
M  V30 6560 C 600.351 2.10576 -2.73408 0
M  V30 6561 C 599.464 1.73504 -3.95626 0
M  V30 6562 C 598.599 2.9346 -4.42781 0
M  V30 6563 C 597.638 2.52547 -5.57572 0
M  V30 6564 N 596.775 3.65359 -5.99547 0
M  V30 6565 H 601.615 0.360578 -2.9581 0
M  V30 6566 H 599.152 0.166303 -1.46157 0
M  V30 6567 H 601.11 2.83859 -3.05745 0
M  V30 6568 H 599.74 2.57463 -1.94711 0
M  V30 6569 H 598.792 0.901622 -3.6956 0
M  V30 6570 H 600.104 1.39426 -4.78917 0
M  V30 6571 H 599.258 3.74988 -4.76937 0
M  V30 6572 H 597.997 3.30753 -3.58404 0
M  V30 6573 H 597.002 1.69446 -5.23037 0
M  V30 6574 H 598.227 2.1639 -6.43702 0
M  V30 6575 H 596.173 4.02358 -5.18116 0
M  V30 6576 H 596.09 3.35148 -6.77652 0
M  V30 6577 H 597.358 4.47378 -6.38336 0
M  V30 6578 N 601.587 1.56661 0.17182 0
M  V30 6579 C 602.55 1.9549 1.19651 0
M  V30 6580 C 603.55 0.838501 1.37207 0
M  V30 6581 O 604.74 1.10556 1.34622 0
M  V30 6582 C 601.872 2.24927 2.56166 0
M  V30 6583 H 603.065 2.87184 0.864007 0
M  V30 6584 H 600.618 1.50711 0.41425 0
M  V30 6585 H 601.353 1.35944 2.94431 0
M  V30 6586 H 601.138 3.06301 2.4479 0
M  V30 6587 H 602.628 2.55891 3.30014 0
M  V30 6588 N 603.065 -0.440357 1.51323 0
M  V30 6589 C 604.012 -1.53429 1.72419 0
M  V30 6590 C 604.982 -1.56165 0.565826 0
M  V30 6591 O 606.167 -1.73222 0.799917 0
M  V30 6592 C 603.307 -2.91169 1.85242 0
M  V30 6593 C 602.42 -2.97985 3.12777 0
M  V30 6594 C 601.555 -4.26829 3.16212 0
M  V30 6595 C 600.594 -4.27501 4.38074 0
M  V30 6596 N 599.731 -5.47866 4.39076 0
M  V30 6597 H 604.571 -1.34743 2.65797 0
M  V30 6598 H 602.108 -0.654608 1.31732 0
M  V30 6599 H 604.066 -3.71087 1.90658 0
M  V30 6600 H 602.696 -3.0842 0.952744 0
M  V30 6601 H 601.748 -2.10749 3.16685 0
M  V30 6602 H 603.06 -2.94342 4.02696 0
M  V30 6603 H 602.214 -5.15118 3.20527 0
M  V30 6604 H 600.953 -4.33124 2.24176 0
M  V30 6605 H 599.958 -3.37606 4.33938 0
M  V30 6606 H 601.183 -4.22873 5.31371 0
M  V30 6607 H 599.129 -5.54887 3.49909 0
M  V30 6608 H 599.046 -5.46091 5.22801 0
M  V30 6609 H 600.314 -6.38195 4.4758 0
M  V30 6610 N 604.543 -1.41418 -0.695603 0
M  V30 6611 C 605.792 -1.40073 -1.4513 0
M  V30 6612 C 606.105 -0.0130439 -1.95596 0
M  V30 6613 O 607.311 0.123032 -2.71221 0
M  V30 6614 C 605.767 -2.46286 -2.62433 0
M  V30 6615 C 605.375 -3.90962 -2.18753 0
M  V30 6616 C 607.119 -2.54077 -3.40066 0
M  V30 6617 C 605.026 -4.88728 -3.33015 0
M  V30 6618 H 603.956 -0.520903 -0.545138 0
M  V30 6619 H 606.607 -1.67242 -0.75515 0
M  V30 6620 H 604.989 -2.12248 -3.34315 0
M  V30 6621 H 606.163 -4.34248 -1.54161 0
M  V30 6622 H 604.478 -3.86831 -1.54114 0
M  V30 6623 H 607.075 -3.24303 -4.25125 0
M  V30 6624 H 607.418 -1.5776 -3.8525 0
M  V30 6625 H 607.951 -2.87206 -2.75241 0
M  V30 6626 H 604.69 -5.86449 -2.92844 0
M  V30 6627 H 604.21 -4.50091 -3.96457 0
M  V30 6628 H 605.889 -5.09483 -3.98793 0
M  V30 6629 N 606.021 0.929856 -1.27246 0
M  V30 6630 C 606.953 2.03434 -1.0558 0
M  V30 6631 C 607.966 1.62795 -0.0125762 0
M  V30 6632 O 609.155 1.76685 -0.2539 0
M  V30 6633 C 606.255 3.33915 -0.57912 0
M  V30 6634 C 605.428 4.03259 -1.69415 0
M  V30 6635 C 604.487 5.12014 -1.21357 0
M  V30 6636 O 603.513 5.36097 -1.91282 0
M  V30 6637 N 604.715 5.8046 -0.0680622 0
M  V30 6638 H 607.48 2.22583 -2.00691 0
M  V30 6639 H 605.041 1.1001 -1.18783 0
M  V30 6640 H 607.033 4.03978 -0.241563 0
M  V30 6641 H 605.603 3.11355 0.278703 0
M  V30 6642 H 604.823 3.26958 -2.20209 0
M  V30 6643 H 606.111 4.46337 -2.44255 0
M  V30 6644 H 605.509 5.63345 0.515626 0
M  V30 6645 H 604.066 6.51461 0.210332 0
M  V30 6646 N 607.499 1.09233 1.13605 0
M  V30 6647 C 608.776 0.739633 1.81077 0
M  V30 6648 C 609.156 -0.775595 1.96336 0
M  V30 6649 O 608.504 -1.69726 1.52988 0
M  V30 6650 C 608.714 1.47636 3.16235 0
M  V30 6651 C 610.062 1.64087 3.91613 0
M  V30 6652 O 611.086 1.43871 3.25852 0
M  V30 6653 O 609.945 1.97511 5.0956 0
M  V30 6654 H 607.039 0.265464 0.783236 0
M  V30 6655 H 609.585 1.19441 1.20549 0
M  V30 6656 H 608.357 2.50818 3.00344 0
M  V30 6657 H 607.98 1.01362 3.84462 0
M  V30 6658 N 608.977 -1.30795 0.87923 0
M  V30 6659 C 609.924 -2.28282 0.339968 0
M  V30 6660 C 610.894 -1.56134 -0.566685 0
M  V30 6661 O 612.079 -1.84231 -0.496338 0
M  V30 6662 C 609.219 -3.42225 -0.444501 0
M  V30 6663 C 608.332 -4.29204 0.490717 0
M  V30 6664 C 607.467 -5.30302 -0.308784 0
M  V30 6665 C 606.506 -6.08929 0.622272 0
M  V30 6666 N 605.643 -7.01957 -0.14155 0
M  V30 6667 H 610.483 -2.73794 1.17647 0
M  V30 6668 H 608.02 -1.34682 0.591527 0
M  V30 6669 H 609.978 -4.07038 -0.915186 0
M  V30 6670 H 608.608 -2.97799 -1.24562 0
M  V30 6671 H 607.66 -3.6475 1.07988 0
M  V30 6672 H 608.972 -4.84045 1.20425 0
M  V30 6673 H 608.126 -6.00835 -0.841575 0
M  V30 6674 H 606.865 -4.7614 -1.05556 0
M  V30 6675 H 605.87 -5.37278 1.16674 0
M  V30 6676 H 607.095 -6.65178 1.36804 0
M  V30 6677 H 605.041 -6.50192 -0.870966 0
M  V30 6678 H 604.958 -7.54261 0.51246 0
M  V30 6679 H 606.226 -7.76741 -0.655271 0
M  V30 6680 N 610.455 -0.639598 -1.44038 0
M  V30 6681 C 611.365 0.0612377 -2.3452 0
M  V30 6682 C 612.381 0.826717 -1.53106 0
M  V30 6683 O 613.557 0.777059 -1.85806 0
M  V30 6684 C 610.622 1.02492 -3.31204 0
M  V30 6685 C 609.683 0.25788 -4.28525 0
M  V30 6686 C 608.916 1.17566 -5.2059 0
M  V30 6687 O 609.139 2.41461 -5.16771 0
M  V30 6688 O 608.073 0.655407 -5.98321 0
M  V30 6689 H 611.899 -0.68318 -2.95916 0
M  V30 6690 H 609.484 -0.399784 -1.43952 0
M  V30 6691 H 611.366 1.57911 -3.90694 0
M  V30 6692 H 610.041 1.7498 -2.7233 0
M  V30 6693 H 608.948 -0.339566 -3.72556 0
M  V30 6694 H 610.281 -0.427154 -4.90343 0
M  V30 6695 N 611.933 1.52934 -0.380664 0
M  V30 6696 C 613.181 2.01069 0.203874 0
M  V30 6697 C 613.502 1.26922 1.4804 0
M  V30 6698 O 612.772 0.386787 1.92044 0
M  V30 6699 H 611.352 0.742882 0.0783279 0
M  V30 6700 H 614.014 1.88099 -0.510368 0
M  V30 6701 H 613.11 3.09258 0.42021 0
M  V30 6702 N 613.412 0.11024 1.57214 0
M  V30 6703 C 614.661 -0.549638 1.94067 0
M  V30 6704 C 614.974 -1.68388 0.995234 0
M  V30 6705 O 616.18 -2.40593 1.25807 0
M  V30 6706 C 614.636 -1.02912 3.44873 0
M  V30 6707 C 614.244 0.0761861 4.47935 0
M  V30 6708 C 615.988 -1.66087 3.9066 0
M  V30 6709 C 613.895 -0.419502 5.8991 0
M  V30 6710 H 612.825 -0.209092 0.724428 0
M  V30 6711 H 615.476 0.188683 1.82527 0
M  V30 6712 H 613.858 -1.82159 3.51616 0
M  V30 6713 H 615.032 0.852185 4.52851 0
M  V30 6714 H 613.347 0.614052 4.11847 0
M  V30 6715 H 615.944 -2.04272 4.94143 0
M  V30 6716 H 616.287 -2.53591 3.30148 0
M  V30 6717 H 616.82 -0.933959 3.86681 0
M  V30 6718 H 613.559 0.419277 6.54158 0
M  V30 6719 H 613.079 -1.16217 5.88433 0
M  V30 6720 H 614.758 -0.883577 6.40938 0
M  V30 6721 N 614.89 -1.56749 -0.16351 0
M  V30 6722 C 616.301 -1.72039 -0.725216 0
M  V30 6723 C 616.652 -0.72202 -1.82432 0
M  V30 6724 O 615.777 0.114942 -2.16095 0
M  V30 6725 C 616.372 -3.11932 -1.32227 0
M  V30 6726 C 614.931 -3.28879 -1.83072 0
M  V30 6727 C 614.078 -2.67984 -0.712716 0
M  V30 6728 H 617.029 -1.58579 0.0619772 0
M  V30 6729 H 617.05 -3.11015 -2.19202 0
M  V30 6730 H 616.562 -3.84572 -0.522103 0
M  V30 6731 H 614.663 -2.61209 -2.65708 0
M  V30 6732 H 614.776 -4.36688 -1.97079 0
M  V30 6733 H 613.14 -2.28005 -1.13515 0
M  V30 6734 H 613.923 -3.43216 0.0757361 0
M  V30 6735 N 616.368 0.432326 -1.51554 0
M  V30 6736 C 617.779 1.01202 -1.56892 0
M  V30 6737 C 618.13 1.92175 -0.395394 0
M  V30 6738 O 617.255 2.10844 0.487198 0
M  V30 6739 C 617.85 1.84217 -2.8434 0
M  V30 6740 C 616.409 2.37228 -2.92233 0
M  V30 6741 C 615.556 1.16576 -2.51606 0
M  V30 6742 H 618.507 0.213407 -1.57259 0
M  V30 6743 H 618.528 2.69721 -2.68385 0
M  V30 6744 H 618.04 1.17979 -3.69733 0
M  V30 6745 H 616.141 3.06905 -2.11282 0
M  V30 6746 H 616.254 2.69682 -3.95991 0
M  V30 6747 H 614.618 1.51263 -2.04919 0
M  V30 6748 H 615.401 0.519404 -3.39348 0
M  V30 6749 N 617.846 1.41785 0.688094 0
M  V30 6750 C 619.123 1.32031 1.44316 0
M  V30 6751 C 619.503 -0.0486079 2.11044 0
M  V30 6752 O 618.851 -1.06332 2.02252 0
M  V30 6753 C 619.061 2.47906 2.45649 0
M  V30 6754 C 620.409 2.89415 3.10683 0
M  V30 6755 O 621.433 2.477 2.55975 0
M  V30 6756 O 620.292 3.61573 4.09789 0
M  V30 6757 H 617.386 0.519994 0.643067 0
M  V30 6758 H 619.932 1.53765 0.71794 0
M  V30 6759 H 618.704 3.39222 1.95048 0
M  V30 6760 H 618.327 2.28089 3.25671 0
M  V30 6761 N 619.324 -0.923095 1.27737 0
M  V30 6762 C 620.256 -2.02871 1.06658 0
M  V30 6763 C 621.269 -1.62786 0.0212095 0
M  V30 6764 O 622.458 -1.76548 0.263267 0
M  V30 6765 C 619.558 -3.33603 0.59682 0
M  V30 6766 C 618.731 -4.02354 1.71551 0
M  V30 6767 C 617.79 -5.11364 1.24071 0
M  V30 6768 O 616.816 -5.35075 1.94123 0
M  V30 6769 N 618.018 -5.80416 0.0988444 0
M  V30 6770 H 620.783 -2.21515 2.01869 0
M  V30 6771 H 618.344 -1.09378 1.19365 0
M  V30 6772 H 620.336 -4.03845 0.262984 0
M  V30 6773 H 618.906 -3.11499 -0.262187 0
M  V30 6774 H 618.126 -3.25786 2.2194 0
M  V30 6775 H 619.414 -4.45035 2.46619 0
M  V30 6776 H 618.812 -5.63611 -0.485743 0
M  V30 6777 H 617.369 -6.51563 -0.17578 0
M  V30 6778 N 620.802 -1.09834 -1.13024 0
M  V30 6779 C 621.734 -0.699379 -2.18269 0
M  V30 6780 C 622.747 0.260841 -1.60697 0
M  V30 6781 O 623.936 0.0462538 -1.7844 0
M  V30 6782 C 621.036 -0.0104537 -3.38898 0
M  V30 6783 C 620.209 -0.993275 -4.25973 0
M  V30 6784 C 619.268 -0.336982 -5.2512 0
M  V30 6785 O 618.294 -0.985892 -5.60597 0
M  V30 6786 N 619.496 0.90716 -5.73368 0
M  V30 6787 H 622.261 -1.60486 -2.5311 0
M  V30 6788 H 619.822 -0.986337 -1.28386 0
M  V30 6789 H 621.814 0.43991 -4.02302 0
M  V30 6790 H 620.384 0.797335 -3.0226 0
M  V30 6791 H 619.604 -1.62208 -3.5928 0
M  V30 6792 H 620.892 -1.65876 -4.81002 0
M  V30 6793 H 620.29 1.45384 -5.46699 0
M  V30 6794 H 618.847 1.30077 -6.38689 0
M  V30 6795 N 622.28 1.30327 -0.886154 0
M  V30 6796 C 623.696 1.48676 -0.580323 0
M  V30 6797 C 623.896 1.81189 0.881639 0
M  V30 6798 O 622.952 1.90021 1.66278 0
M  V30 6799 C 624.265 2.60932 -1.49449 0
M  V30 6800 C 625.813 2.74812 -1.49824 0
M  V30 6801 C 626.288 3.90183 -2.39836 0
M  V30 6802 N 627.779 3.97495 -2.37806 0
M  V30 6803 C 628.514 4.86078 -3.04165 0
M  V30 6804 N 628.01 5.79448 -3.79753 0
M  V30 6805 N 629.803 4.79456 -2.93391 0
M  V30 6806 H 621.954 1.07495 -1.8319 0
M  V30 6807 H 624.217 0.532661 -0.784204 0
M  V30 6808 H 623.923 2.43731 -2.5355 0
M  V30 6809 H 623.797 3.57437 -1.20494 0
M  V30 6810 H 626.184 2.91418 -0.464731 0
M  V30 6811 H 626.265 1.78924 -1.82811 0
M  V30 6812 H 625.909 3.74334 -3.43273 0
M  V30 6813 H 625.839 4.85411 -2.04166 0
M  V30 6814 H 628.33 3.30703 -1.82877 0
M  V30 6815 H 628.643 6.43805 -4.27475 0
M  V30 6816 H 626.988 5.79376 -3.8386 0
M  V30 6817 H 630.179 4.05494 -2.33864 0
M  V30 6818 H 630.352 5.48283 -3.45383 0
M  V30 6819 N 623.758 0.647228 1.43697 0
M  V30 6820 C 624.688 -0.0345631 2.33474 0
M  V30 6821 C 625.669 -0.818193 1.4913 0
M  V30 6822 O 626.854 -0.780867 1.77809 0
M  V30 6823 C 623.984 -1.00576 3.32418 0
M  V30 6824 C 622.938 -0.33266 4.26705 0
M  V30 6825 C 622.264 -1.41489 5.1564 0
M  V30 6826 C 623.564 0.771204 5.16575 0
M  V30 6827 H 625.258 0.715163 2.90733 0
M  V30 6828 H 622.804 0.345364 1.39797 0
M  V30 6829 H 624.757 -1.49159 3.94119 0
M  V30 6830 H 623.481 -1.78657 2.73403 0
M  V30 6831 H 622.14 0.13267 3.6636 0
M  V30 6832 H 621.788 -2.18698 4.52968 0
M  V30 6833 H 621.488 -0.969799 5.79542 0
M  V30 6834 H 623.012 -1.9022 5.80214 0
M  V30 6835 H 624.426 0.36779 5.72119 0
M  V30 6836 H 622.823 1.1404 5.89165 0
M  V30 6837 H 623.893 1.63169 4.56622 0
M  V30 6838 N 625.236 -1.5273 0.388769 0
M  V30 6839 C 626.485 -2.00757 -0.194833 0
M  V30 6840 C 626.798 -1.27951 -1.47946 0
M  V30 6841 O 628.004 -1.66686 -2.14308 0
M  V30 6842 C 626.46 -3.57695 -0.397762 0
M  V30 6843 C 626.068 -4.394 0.873583 0
M  V30 6844 C 627.812 -4.14012 -0.937759 0
M  V30 6845 C 625.719 -5.87938 0.638962 0
M  V30 6846 H 624.649 -0.750101 -0.0765845 0
M  V30 6847 H 627.3 -1.76239 0.511086 0
M  V30 6848 H 625.682 -3.7846 -1.16552 0
M  V30 6849 H 626.856 -4.30403 1.64591 0
M  V30 6850 H 625.171 -3.94301 1.33849 0
M  V30 6851 H 627.768 -5.22645 -1.12899 0
M  V30 6852 H 628.111 -3.7007 -1.90666 0
M  V30 6853 H 628.644 -3.97137 -0.229588 0
M  V30 6854 H 625.383 -6.36202 1.57885 0
M  V30 6855 H 624.903 -5.99726 -0.094443 0
M  V30 6856 H 626.582 -6.46423 0.273299 0
M  V30 6857 N 626.714 -0.118576 -1.57153 0
M  V30 6858 C 627.961 0.539526 -1.9518 0
M  V30 6859 C 628.289 1.66714 -1.00184 0
M  V30 6860 O 627.544 1.95683 -0.0256482 0
M  V30 6861 C 627.843 1.11303 -3.39627 0
M  V30 6862 C 627.509 0.106809 -4.50773 0
M  V30 6863 C 626.171 -0.169876 -4.809 0
M  V30 6864 C 628.523 -0.57895 -5.17975 0
M  V30 6865 C 625.851 -1.13861 -5.75545 0
M  V30 6866 C 628.203 -1.53631 -6.13661 0
M  V30 6867 C 626.867 -1.82099 -6.42181 0
M  V30 6868 H 626.137 0.197427 -0.714215 0
M  V30 6869 H 628.784 -0.199391 -1.90459 0
M  V30 6870 H 627.089 1.92869 -3.4104 0
M  V30 6871 H 628.786 1.63032 -3.66363 0
M  V30 6872 H 625.376 0.332645 -4.27307 0
M  V30 6873 H 629.56 -0.378359 -4.94856 0
M  V30 6874 H 624.816 -1.36592 -5.95947 0
M  V30 6875 H 628.99 -2.07337 -6.64819 0
M  V30 6876 H 626.617 -2.57319 -7.15326 0
M  V30 6877 N 628.193 1.56834 0.155195 0
M  V30 6878 C 629.156 1.96748 1.17571 0
M  V30 6879 C 630.156 0.853006 1.3631 0
M  V30 6880 O 631.346 1.11978 1.33441 0
M  V30 6881 C 628.478 2.27631 2.53765 0
M  V30 6882 H 629.671 2.88085 0.833498 0
M  V30 6883 H 627.224 1.51141 0.398242 0
M  V30 6884 H 627.959 1.39059 2.92973 0
M  V30 6885 H 627.744 3.0888 2.41527 0
M  V30 6886 H 629.234 2.59377 3.27282 0
M  V30 6887 N 629.671 -0.424282 1.51781 0
M  V30 6888 C 630.919 -1.17028 1.64769 0
M  V30 6889 C 631.24 -1.91409 0.372523 0
M  V30 6890 O 630.51 -1.86091 -0.612108 0
M  V30 6891 H 629.09 -0.434992 0.607282 0
M  V30 6892 H 631.752 -0.485169 1.88765 0
M  V30 6893 H 630.848 -1.8927 2.4816 0
M  V30 6894 N 631.149 -1.42148 -0.680565 0
M  V30 6895 C 632.096 -1.45175 -1.79424 0
M  V30 6896 C 633.066 -0.304352 -1.63288 0
M  V30 6897 O 634.251 -0.507591 -1.83924 0
M  V30 6898 C 631.391 -1.35429 -3.17416 0
M  V30 6899 C 630.504 -2.60158 -3.4488 0
M  V30 6900 C 629.639 -2.42596 -4.72568 0
M  V30 6901 C 628.678 -3.62727 -4.93047 0
M  V30 6902 N 627.815 -3.44143 -6.11973 0
M  V30 6903 H 632.655 -2.40349 -1.76172 0
M  V30 6904 H 630.192 -1.19334 -0.860107 0
M  V30 6905 H 632.15 -1.27777 -3.97151 0
M  V30 6906 H 630.78 -0.438536 -3.19807 0
M  V30 6907 H 629.832 -2.78199 -2.5944 0
M  V30 6908 H 631.144 -3.49473 -3.55908 0
M  V30 6909 H 630.298 -2.32497 -5.60384 0
M  V30 6910 H 629.037 -1.50761 -4.63813 0
M  V30 6911 H 628.042 -3.73264 -4.03676 0
M  V30 6912 H 629.267 -4.55534 -5.03652 0
M  V30 6913 H 627.213 -2.5502 -6.04401 0
M  V30 6914 H 627.13 -4.27041 -6.23836 0
M  V30 6915 H 628.398 -3.37845 -7.02482 0
M  V30 6916 N 632.627 0.916307 -1.28225 0
M  V30 6917 C 633.559 2.02303 -1.07732 0
M  V30 6918 C 634.572 1.62773 -0.0298421 0
M  V30 6919 O 635.761 1.76406 -0.272626 0
M  V30 6920 C 632.861 3.33282 -0.614504 0
M  V30 6921 C 632.034 4.01439 -1.73682 0
M  V30 6922 C 631.093 5.10698 -1.26781 0
M  V30 6923 O 630.119 5.34038 -1.96958 0
M  V30 6924 N 631.321 5.80355 -0.129624 0
M  V30 6925 H 634.086 2.20442 -2.03041 0
M  V30 6926 H 631.647 1.08744 -1.19943 0
M  V30 6927 H 633.639 4.03699 -0.284397 0
M  V30 6928 H 632.209 3.11633 0.245664 0
M  V30 6929 H 631.429 3.24604 -2.23665 0
M  V30 6930 H 632.717 4.43721 -2.48976 0
M  V30 6931 H 632.115 5.6386 0.455847 0
M  V30 6932 H 630.672 6.51647 0.141224 0
M  V30 6933 N 634.105 1.10431 1.1244 0
M  V30 6934 C 635.035 0.775143 2.20258 0
M  V30 6935 C 636.016 -0.25186 1.68225 0
M  V30 6936 O 637.201 -0.117637 1.93843 0
M  V30 6937 C 634.331 0.206133 3.46688 0
M  V30 6938 C 633.285 1.16382 4.11873 0
M  V30 6939 C 632.611 0.456014 5.32752 0
M  V30 6940 C 633.911 2.5104 4.58013 0
M  V30 6941 H 635.605 1.67665 2.4805 0
M  V30 6942 H 633.151 0.807595 1.19222 0
M  V30 6943 H 635.104 -0.036291 4.21384 0
M  V30 6944 H 633.828 -0.730614 3.18323 0
M  V30 6945 H 632.487 1.39169 3.39157 0
M  V30 6946 H 632.135 -0.485203 5.00654 0
M  V30 6947 H 631.835 1.09466 5.77314 0
M  V30 6948 H 633.359 0.222135 6.10196 0
M  V30 6949 H 634.773 2.32401 5.24083 0
M  V30 6950 H 633.17 3.10789 5.13352 0
M  V30 6951 H 634.24 3.11039 3.71998 0
M  V30 6952 N 635.583 -1.29855 0.893053 0
M  V30 6953 C 636.493 -2.31661 0.370157 0
M  V30 6954 C 637.509 -1.65677 -0.531723 0
M  V30 6955 O 638.685 -1.9691 -0.422902 0
M  V30 6956 C 635.75 -3.44388 -0.399741 0
M  V30 6957 C 634.811 -4.2598 0.532861 0
M  V30 6958 C 634.044 -5.33324 -0.200388 0
M  V30 6959 O 634.267 -5.52305 -1.42531 0
M  V30 6960 O 633.201 -6.00188 0.453668 0
M  V30 6961 H 637.027 -2.78354 1.2146 0
M  V30 6962 H 634.612 -1.34171 0.657153 0
M  V30 6963 H 636.494 -4.13037 -0.835358 0
M  V30 6964 H 635.169 -2.99815 -1.22035 0
M  V30 6965 H 634.076 -3.59998 1.01746 0
M  V30 6966 H 635.409 -4.74178 1.3197 0
M  V30 6967 N 637.061 -0.65484 -1.43351 0
M  V30 6968 C 638.338 -0.0987371 -1.95351 0
M  V30 6969 C 638.718 1.38161 -1.59608 0
M  V30 6970 O 638.066 2.10791 -0.882021 0
M  V30 6971 C 638.276 -0.346684 -3.47274 0
M  V30 6972 C 639.624 -0.25249 -4.23849 0
M  V30 6973 O 640.648 -0.279332 -3.55103 0
M  V30 6974 O 639.507 -0.177584 -5.46211 0
M  V30 6975 H 636.601 0.0086829 -0.826954 0
M  V30 6976 H 639.147 -0.728189 -1.53282 0
M  V30 6977 H 637.919 -1.37296 -3.66423 0
M  V30 6978 H 637.542 0.315757 -3.96344 0
M  V30 6979 N 638.539 1.52521 -0.396863 0
M  V30 6980 C 639.787 2.01274 0.182536 0
M  V30 6981 C 640.108 1.28485 1.46685 0
M  V30 6982 O 639.378 0.407134 1.91623 0
M  V30 6983 H 637.958 0.743671 0.0704442 0
M  V30 6984 H 640.62 1.87547 -0.530289 0
M  V30 6985 H 639.716 3.09687 0.387385 0
M  V30 6986 N 640.017 0.126909 1.57088 0
M  V30 6987 C 641.433 -0.229641 1.57939 0
M  V30 6988 C 641.633 -1.66145 1.1401 0
M  V30 6989 O 640.689 -2.3843 0.831119 0
M  V30 6990 C 642.002 0.0108648 3.00698 0
M  V30 6991 C 643.55 -0.054418 3.12953 0
M  V30 6992 C 644.025 0.158497 4.57726 0
M  V30 6993 N 645.516 0.104735 4.63082 0
M  V30 6994 C 646.251 0.24427 5.72879 0
M  V30 6995 N 645.747 0.440415 6.91399 0
M  V30 6996 N 647.54 0.183286 5.61801 0
M  V30 6997 H 639.691 1.06203 1.83942 0
M  V30 6998 H 641.954 0.418834 0.85046 0
M  V30 6999 H 641.66 1.00102 3.37154 0
M  V30 7000 H 641.534 -0.717512 3.70313 0
M  V30 7001 H 643.921 -1.0351 2.7635 0
M  V30 7002 H 644.002 0.705967 2.45865 0
M  V30 7003 H 643.646 1.13619 4.95028 0
M  V30 7004 H 643.576 -0.62197 5.22914 0
M  V30 7005 H 646.067 -0.0430298 3.77876 0
M  V30 7006 H 646.38 0.537536 7.70928 0
M  V30 7007 H 644.725 0.476488 6.93365 0
M  V30 7008 H 647.916 0.0309561 4.6809 0
M  V30 7009 H 648.089 0.295471 6.47326 0
M  V30 7010 N 641.495 -1.56914 -0.146875 0
M  V30 7011 C 642.723 -1.87515 -0.874394 0
M  V30 7012 C 643.138 -0.715116 -1.74733 0
M  V30 7013 O 642.495 0.315113 -1.79759 0
M  V30 7014 C 642.546 -3.17362 -1.731 0
M  V30 7015 O 642.267 -4.28897 -0.893245 0
M  V30 7016 C 643.768 -3.61479 -2.56609 0
M  V30 7017 H 640.988 -0.621546 -0.252827 0
M  V30 7018 H 643.532 -2.04023 -0.139627 0
M  V30 7019 H 641.687 -3.02608 -2.41883 0
M  V30 7020 H 642.101 -5.03146 -1.48137 0
M  V30 7021 H 643.575 -4.5517 -3.12289 0
M  V30 7022 H 644.052 -2.86773 -3.32653 0
M  V30 7023 H 644.658 -3.78927 -1.93117 0
M  V30 7024 N 642.974 0.416227 -1.52004 0
M  V30 7025 C 643.904 1.51365 -1.77795 0
M  V30 7026 C 644.885 1.58059 -0.628601 0
M  V30 7027 O 646.07 1.73447 -0.873478 0
M  V30 7028 C 643.2 2.89256 -1.92219 0
M  V30 7029 C 642.154 2.97415 -3.0778 0
M  V30 7030 C 641.48 4.37492 -3.07417 0
M  V30 7031 C 642.78 2.69551 -4.47369 0
M  V30 7032 H 644.474 1.30033 -2.69688 0
M  V30 7033 H 642.02 0.624112 -1.29772 0
M  V30 7034 H 643.973 3.66008 -2.08845 0
M  V30 7035 H 642.697 3.11866 -0.969917 0
M  V30 7036 H 641.356 2.23107 -2.90893 0
M  V30 7037 H 641.004 4.571 -2.09925 0
M  V30 7038 H 640.704 4.43877 -3.85029 0
M  V30 7039 H 642.228 5.16188 -3.26162 0
M  V30 7040 H 643.642 3.36028 -4.64497 0
M  V30 7041 H 642.039 2.87321 -5.26846 0
M  V30 7042 H 643.109 1.65029 -4.55953 0
M  V30 7043 N 644.452 1.42507 0.673017 0
M  V30 7044 C 645.677 1.4668 1.46627 0
M  V30 7045 C 646.102 0.080066 1.8793 0
M  V30 7046 O 645.46 -0.921879 1.56112 0
M  V30 7047 C 645.508 2.40091 2.69051 0
M  V30 7048 O 644.612 1.8735 3.67387 0
M  V30 7049 H 643.953 0.496908 0.44043 0
M  V30 7050 H 646.483 1.87215 0.825334 0
M  V30 7051 H 646.493 2.56731 3.17101 0
M  V30 7052 H 645.168 3.4084 2.3833 0
M  V30 7053 H 643.745 1.80274 3.26429 0
M  V30 7054 N 645.93 -0.909495 1.28709 0
M  V30 7055 C 647.207 -1.63865 1.06806 0
M  V30 7056 C 647.587 -2.07445 -0.391143 0
M  V30 7057 O 646.935 -1.82269 -1.37805 0
M  V30 7058 C 647.145 -2.82692 2.04661 0
M  V30 7059 C 648.493 -3.5361 2.35042 0
M  V30 7060 O 649.517 -2.92847 2.02779 0
M  V30 7061 O 648.376 -4.63131 2.90124 0
M  V30 7062 H 645.47 -0.719065 0.408502 0
M  V30 7063 H 648.016 -0.958424 1.40044 0
M  V30 7064 H 646.788 -2.47614 3.0299 0
M  V30 7065 H 646.411 -3.58426 1.72095 0
M  V30 7066 N 647.408 -1.11026 -1.11852 0
M  V30 7067 C 648.638 -0.877544 -1.87037 0
M  V30 7068 C 649.046 0.575925 -1.80221 0
M  V30 7069 O 648.389 1.40916 -1.17849 0
M  V30 7070 C 648.451 -1.25529 -3.36872 0
M  V30 7071 C 648.115 -2.71704 -3.67459 0
M  V30 7072 C 649.112 -3.69931 -3.65304 0
M  V30 7073 C 646.797 -3.08243 -3.966 0
M  V30 7074 C 648.791 -5.02717 -3.9186 0
M  V30 7075 C 646.478 -4.41215 -4.22815 0
M  V30 7076 C 647.476 -5.38262 -4.20432 0
M  V30 7077 O 647.164 -6.68839 -4.45992 0
M  V30 7078 H 646.896 -0.314374 -0.598452 0
M  V30 7079 H 649.45 -1.48015 -1.42411 0
M  V30 7080 H 647.68 -0.595808 -3.82082 0
M  V30 7081 H 649.369 -0.999064 -3.93413 0
M  V30 7082 H 650.135 -3.43047 -3.42846 0
M  V30 7083 H 646.014 -2.33326 -3.97593 0
M  V30 7084 H 649.558 -5.78456 -3.89916 0
M  V30 7085 H 645.455 -4.67835 -4.44748 0
M  V30 7086 H 646.223 -6.74563 -4.63581 0
M  V30 7087 N 648.886 1.2938 -0.899927 0
M  V30 7088 C 649.834 2.29675 -0.367698 0
M  V30 7089 C 650.828 1.60787 0.533282 0
M  V30 7090 O 652.034 1.75126 0.416058 0
M  V30 7091 H 648.409 0.745284 -0.100279 0
M  V30 7092 H 650.38 2.72008 -1.22696 0
M  V30 7093 C 649.129 3.45512 0.389483 0
M  V30 7094 H 648.452 3.98713 -0.294575 0
M  V30 7095 H 649.892 4.17725 0.726744 0
M  V30 7096 C 648.351 2.969 1.59223 0
M  V30 7097 O 648.881 2.98195 2.69152 0
M  V30 7098 N 647.087 2.52728 1.43447 0
M  V30 7099 H 646.634 2.51873 0.540148 0
M  V30 7100 H 646.592 2.20561 2.24054 0
M  V30 7101 N 650.364 0.662433 1.43002 0
M  V30 7102 C 651.613 0.176873 2.00923 0
M  V30 7103 C 651.926 -1.21954 1.52927 0
M  V30 7104 O 653.132 -1.80081 2.03182 0
M  V30 7105 C 651.588 0.265379 3.5892 0
M  V30 7106 C 651.196 1.66507 4.15908 0
M  V30 7107 C 652.94 -0.162103 4.2419 0
M  V30 7108 C 650.847 1.707 5.66229 0
M  V30 7109 H 649.777 0.0623627 0.751417 0
M  V30 7110 H 652.428 0.825813 1.63868 0
M  V30 7111 H 650.81 -0.451235 3.93421 0
M  V30 7112 H 651.984 2.40777 3.92891 0
M  V30 7113 H 650.299 2.03932 3.63044 0
M  V30 7114 H 652.896 -0.150745 5.34487 0
M  V30 7115 H 653.239 -1.19519 3.98774 0
M  V30 7116 H 653.772 0.503075 3.94606 0
M  V30 7117 H 650.511 2.7195 5.96426 0
M  V30 7118 H 650.031 1.00768 5.91275 0
M  V30 7119 H 651.71 1.45487 6.3043 0
M  V30 7120 N 651.842 -1.52309 0.404946 0
M  V30 7121 C 652.774 -2.24579 -0.45791 0
M  V30 7122 C 653.787 -1.2739 -1.01369 0
M  V30 7123 O 654.976 -1.53363 -0.91335 0
M  V30 7124 C 652.076 -2.9608 -1.64893 0
M  V30 7125 C 651.249 -4.20106 -1.21777 0
M  V30 7126 C 650.308 -4.74468 -2.27523 0
M  V30 7127 O 649.334 -5.37157 -1.88285 0
M  V30 7128 N 650.536 -4.55678 -3.59635 0
M  V30 7129 H 653.301 -2.99265 0.161341 0
M  V30 7130 H 650.862 -1.60228 0.232107 0
M  V30 7131 H 652.854 -3.29344 -2.35191 0
M  V30 7132 H 651.424 -2.24606 -2.17419 0
M  V30 7133 H 650.644 -3.92704 -0.343071 0
M  V30 7134 H 651.932 -5.00658 -0.906596 0
M  V30 7135 H 651.33 -4.05673 -3.94266 0
M  V30 7136 H 649.887 -4.9339 -4.25922 0
M  V30 7137 N 653.32 -0.135238 -1.57019 0
M  V30 7138 C 654.267 0.808908 -2.1616 0
M  V30 7139 C 655.237 1.25234 -1.09113 0
M  V30 7140 O 656.422 1.32697 -1.37099 0
M  V30 7141 C 653.562 2.04729 -2.77813 0
M  V30 7142 C 652.675 1.65074 -3.99218 0
M  V30 7143 C 651.81 2.84002 -4.48906 0
M  V30 7144 C 650.849 2.40663 -5.62803 0
M  V30 7145 N 649.986 3.5256 -6.07162 0
M  V30 7146 H 654.826 0.297751 -2.96509 0
M  V30 7147 H 652.363 0.135264 -1.46477 0
M  V30 7148 H 654.321 2.7731 -3.11697 0
M  V30 7149 H 652.951 2.53275 -2.00128 0
M  V30 7150 H 652.003 0.823029 -3.7139 0
M  V30 7151 H 653.315 1.29236 -4.81767 0
M  V30 7152 H 652.469 3.64788 -4.84783 0
M  V30 7153 H 651.208 3.23076 -3.65339 0
M  V30 7154 H 650.213 1.58314 -5.26514 0
M  V30 7155 H 651.438 2.02687 -6.48147 0
M  V30 7156 H 649.384 3.91278 -5.26534 0
M  V30 7157 H 649.301 3.20699 -6.84608 0
M  V30 7158 H 650.569 4.33738 -6.47682 0
M  V30 7159 N 654.798 1.5699 0.138552 0
M  V30 7160 C 655.708 2.02174 1.19008 0
M  V30 7161 C 656.724 0.938622 1.46512 0
M  V30 7162 O 657.9 1.24872 1.58016 0
M  V30 7163 C 654.965 2.40045 2.50159 0
M  V30 7164 C 654.026 3.62346 2.30226 0
M  V30 7165 C 653.259 3.98401 3.55123 0
M  V30 7166 O 653.482 3.35019 4.61647 0
M  V30 7167 O 652.416 4.91606 3.47285 0
M  V30 7168 H 656.242 2.91954 0.836452 0
M  V30 7169 H 653.827 1.45293 0.347907 0
M  V30 7170 H 655.709 2.65225 3.27465 0
M  V30 7171 H 654.384 1.53417 2.85035 0
M  V30 7172 H 653.291 3.42341 1.50843 0
M  V30 7173 H 654.624 4.49617 2.00262 0
M  V30 7174 N 656.276 -0.40816 1.52223 0
M  V30 7175 C 657.501 -1.18127 1.70472 0
M  V30 7176 C 657.926 -1.83491 0.41384 0
M  V30 7177 O 657.284 -1.70047 -0.628778 0
M  V30 7178 C 657.332 -2.21935 2.84213 0
M  V30 7179 O 656.436 -3.28099 2.4985 0
M  V30 7180 H 655.777 -0.344781 0.56747 0
M  V30 7181 H 658.307 -0.478328 1.9893 0
M  V30 7182 H 658.317 -2.66248 3.09153 0
M  V30 7183 H 656.992 -1.73744 3.7787 0
M  V30 7184 H 655.569 -2.89058 2.35584 0
M  V30 7185 N 657.755 -1.42862 -0.66545 0
M  V30 7186 C 658.983 -1.47246 -1.45349 0
M  V30 7187 C 659.398 -0.0865944 -1.88601 0
M  V30 7188 O 658.755 0.900652 -1.58728 0
M  V30 7189 C 658.806 -2.40772 -2.6965 0
M  V30 7190 O 658.527 -3.73968 -2.2821 0
M  V30 7191 C 660.028 -2.54272 -3.63126 0
M  V30 7192 H 657.248 -0.500497 -0.446927 0
M  V30 7193 H 659.792 -1.87477 -0.816871 0
M  V30 7194 H 657.947 -2.0377 -3.29479 0
M  V30 7195 H 658.361 -4.24146 -3.08546 0
M  V30 7196 H 659.835 -3.23815 -4.47043 0
M  V30 7197 H 660.312 -1.58364 -4.09656 0
M  V30 7198 H 660.918 -2.92036 -3.09185 0
M  V30 7199 N 659.233 0.902656 -1.29189 0
M  V30 7200 C 660.163 2.02294 -1.16616 0
M  V30 7201 C 661.144 1.6999 -0.0611175 0
M  V30 7202 O 662.329 1.9271 -0.240072 0
M  V30 7203 C 659.459 3.37018 -0.83882 0
M  V30 7204 C 658.413 3.83522 -1.89986 0
M  V30 7205 C 657.739 5.15337 -1.42589 0
M  V30 7206 C 659.039 4.04169 -3.30824 0
M  V30 7207 H 660.733 2.13071 -2.10336 0
M  V30 7208 H 658.279 1.02378 -1.01266 0
M  V30 7209 H 660.232 4.14895 -0.737584 0
M  V30 7210 H 658.956 3.26325 0.134071 0
M  V30 7211 H 657.615 3.07859 -1.99043 0
M  V30 7212 H 657.263 5.01056 -0.441759 0
M  V30 7213 H 656.963 5.47423 -2.13547 0
M  V30 7214 H 658.487 5.95758 -1.3381 0
M  V30 7215 H 659.901 4.72537 -3.24626 0
M  V30 7216 H 658.298 4.47604 -3.99713 0
M  V30 7217 H 659.368 3.08604 -3.74021 0
M  V30 7218 N 660.711 1.11618 1.11262 0
M  V30 7219 C 661.661 0.745274 2.15475 0
M  V30 7220 C 662.645 -0.251585 1.58921 0
M  V30 7221 O 663.837 -0.0584093 1.76904 0
M  V30 7222 C 660.966 0.192128 3.42762 0
M  V30 7223 C 660.052 1.21676 4.0627 0
M  V30 7224 N 660.443 2.41158 4.44608 0
M  V30 7225 C 658.741 1.06013 4.33217 0
M  V30 7226 C 659.442 3.0652 4.94389 0
M  V30 7227 N 658.418 2.33994 4.9066 0
M  V30 7228 H 662.22 1.65462 2.42898 0
M  V30 7229 H 659.734 0.995695 1.28295 0
M  V30 7230 H 661.731 -0.0917339 4.16799 0
M  V30 7231 H 660.391 -0.711778 3.16802 0
M  V30 7232 H 661.402 2.786 4.3658 0
M  V30 7233 H 658.079 0.212809 4.16957 0
M  V30 7234 H 659.469 4.08225 5.33669 0
M  V30 7235 N 662.189 -1.289 0.906776 0
M  V30 7236 C 663.119 -2.29932 0.406659 0
M  V30 7237 C 664.1 -1.6189 -0.522061 0
M  V30 7238 O 665.285 -1.8935 -0.431283 0
M  V30 7239 C 662.415 -3.45425 -0.360366 0
M  V30 7240 C 661.369 -4.25316 0.478574 0
M  V30 7241 C 660.695 -5.33076 -0.416373 0
M  V30 7242 C 661.995 -4.92739 1.7322 0
M  V30 7243 H 663.689 -2.72013 1.25097 0
M  V30 7244 H 661.235 -1.30768 0.602977 0
M  V30 7245 H 663.188 -4.15186 -0.721029 0
M  V30 7246 H 661.912 -3.02206 -1.23852 0
M  V30 7247 H 660.571 -3.57273 0.821662 0
M  V30 7248 H 660.219 -4.86101 -1.29287 0
M  V30 7249 H 659.919 -5.8743 0.141309 0
M  V30 7250 H 661.443 -6.05686 -0.773072 0
M  V30 7251 H 662.857 -5.54898 1.44086 0
M  V30 7252 H 661.254 -5.57057 2.23175 0
M  V30 7253 H 662.324 -4.17625 2.46408 0
M  V30 7254 N 663.667 -0.670007 -1.42649 0
M  V30 7255 C 664.913 -0.190568 -2.01903 0
M  V30 7256 C 665.246 1.19817 -1.52832 0
M  V30 7257 O 664.521 1.80342 -0.728485 0
M  V30 7258 C 664.804 -0.21991 -3.59428 0
M  V30 7259 C 664.657 -1.64376 -4.18689 0
M  V30 7260 C 665.976 0.434519 -4.3795 0
M  V30 7261 H 663.095 -0.0707219 -0.733599 0
M  V30 7262 H 665.737 -0.853883 -1.69732 0
M  V30 7263 H 663.887 0.344894 -3.86966 0
M  V30 7264 H 665.559 -2.26044 -4.02122 0
M  V30 7265 H 663.802 -2.18591 -3.747 0
M  V30 7266 H 664.473 -1.61601 -5.27815 0
M  V30 7267 H 666.949 -0.0462156 -4.16074 0
M  V30 7268 H 665.825 0.38333 -5.4756 0
M  V30 7269 H 666.086 1.51135 -4.15464 0
M  V30 7270 N 665.145 1.52092 -0.413018 0
M  V30 7271 C 666.075 2.30021 0.401567 0
M  V30 7272 C 667.056 1.34395 1.04269 0
M  V30 7273 O 668.241 1.63304 1.05097 0
M  V30 7274 C 665.371 3.12447 1.51638 0
M  V30 7275 C 664.325 4.16153 1.00005 0
M  V30 7276 C 663.651 4.86948 2.20875 0
M  V30 7277 C 664.951 5.22275 0.0513757 0
M  V30 7278 H 666.645 2.98365 -0.248704 0
M  V30 7279 H 664.191 1.4349 -0.121052 0
M  V30 7280 H 666.144 3.65733 2.09326 0
M  V30 7281 H 664.868 2.41879 2.19458 0
M  V30 7282 H 663.527 3.63882 0.445549 0
M  V30 7283 H 663.175 4.12905 2.8726 0
M  V30 7284 H 662.875 5.57057 1.86978 0
M  V30 7285 H 664.399 5.43048 2.79162 0
M  V30 7286 H 665.813 5.70778 0.537176 0
M  V30 7287 H 664.21 5.9977 -0.198977 0
M  V30 7288 H 665.28 4.76611 -0.892736 0
M  V30 7289 N 666.623 0.143563 1.56945 0
M  V30 7290 C 668.039 -0.212877 1.58174 0
M  V30 7291 C 668.239 -1.64926 1.15766 0
M  V30 7292 O 667.295 -2.37535 0.856361 0
M  V30 7293 C 668.608 0.0427573 3.0067 0
M  V30 7294 C 670.156 -0.0212221 3.12993 0
M  V30 7295 C 670.631 0.207036 4.57532 0
M  V30 7296 N 672.122 0.153845 4.62944 0
M  V30 7297 C 672.857 0.305018 5.72588 0
M  V30 7298 N 672.353 0.513722 6.90893 0
M  V30 7299 N 674.146 0.242862 5.61575 0
M  V30 7300 H 666.297 1.08148 1.82805 0
M  V30 7301 H 668.56 0.427831 0.84597 0
M  V30 7302 H 668.266 1.03672 3.36073 0
M  V30 7303 H 668.14 -0.678195 3.71053 0
M  V30 7304 H 670.527 -1.00574 2.77433 0
M  V30 7305 H 670.608 0.732004 2.45103 0
M  V30 7306 H 670.252 1.18863 4.93795 0
M  V30 7307 H 670.182 -0.566473 5.23544 0
M  V30 7308 H 672.673 -0.00294866 3.779 0
M  V30 7309 H 672.986 0.619273 7.70315 0
M  V30 7310 H 671.331 0.550001 6.9282 0
M  V30 7311 H 674.522 0.0806015 4.68031 0
M  V30 7312 H 674.695 0.364112 6.46976 0
M  V30 7313 N 668.101 -1.57061 -0.130224 0
M  V30 7314 C 669.031 -2.02552 -1.16168 0
M  V30 7315 C 670.012 -0.907971 -1.4384 0
M  V30 7316 O 671.197 -1.17693 -1.54473 0
M  V30 7317 C 668.327 -2.42035 -2.49071 0
M  V30 7318 C 667.281 -3.5713 -2.35886 0
M  V30 7319 C 666.607 -3.82478 -3.7365 0
M  V30 7320 C 667.907 -4.89236 -1.8288 0
M  V30 7321 H 669.601 -2.8897 -0.783359 0
M  V30 7322 H 667.147 -1.39021 -0.375376 0
M  V30 7323 H 669.1 -2.72462 -3.21469 0
M  V30 7324 H 667.824 -1.52573 -2.88771 0
M  V30 7325 H 666.483 -3.26895 -1.65938 0
M  V30 7326 H 666.131 -2.9024 -4.10816 0
M  V30 7327 H 665.831 -4.59944 -3.65685 0
M  V30 7328 H 667.355 -4.15347 -4.47571 0
M  V30 7329 H 668.769 -5.18272 -2.45085 0
M  V30 7330 H 667.166 -5.70624 -1.85763 0
M  V30 7331 H 668.236 -4.78494 -0.785571 0
M  V30 7332 N 669.579 0.400081 -1.52437 0
M  V30 7333 C 670.995 0.739359 -1.41441 0
M  V30 7334 C 671.195 1.94512 -0.526053 0
M  V30 7335 O 670.251 2.525 0.00472502 0
M  V30 7336 C 671.564 0.984824 -2.84116 0
M  V30 7337 C 673.112 1.08698 -2.93519 0
M  V30 7338 C 673.587 1.36515 -4.37181 0
M  V30 7339 N 675.078 1.43361 -4.40457 0
M  V30 7340 C 675.813 1.66528 -5.48686 0
M  V30 7341 N 675.309 1.87239 -6.67018 0
M  V30 7342 N 677.102 1.68617 -5.36213 0
M  V30 7343 H 669.253 -0.393484 -2.08723 0
M  V30 7344 H 671.516 -0.1138 -0.941145 0
M  V30 7345 H 671.222 0.171096 -3.51284 0
M  V30 7346 H 671.096 1.90253 -3.25705 0
M  V30 7347 H 673.483 1.89129 -2.26526 0
M  V30 7348 H 673.564 0.147432 -2.55375 0
M  V30 7349 H 673.208 0.565982 -5.04737 0
M  V30 7350 H 673.138 2.31737 -4.7287 0
M  V30 7351 H 675.629 1.29108 -3.55161 0
M  V30 7352 H 675.942 2.04392 -7.45281 0
M  V30 7353 H 674.287 1.84486 -6.70067 0
M  V30 7354 H 677.478 1.5198 -4.42741 0
M  V30 7355 H 677.651 1.86332 -6.20632 0
M  V30 7356 N 671.057 1.43213 0.657864 0
M  V30 7357 C 672.305 1.44298 1.41501 0
M  V30 7358 C 672.626 0.0666478 1.94886 0
M  V30 7359 O 671.896 -0.897345 1.74139 0
M  V30 7360 H 670.476 0.531257 0.525143 0
M  V30 7361 H 673.138 1.78777 0.776195 0
M  V30 7362 H 672.234 2.1528 2.25966 0
M  V30 7363 N 672.536 -0.895792 1.29666 0
M  V30 7364 C 673.784 -1.64339 1.17631 0
M  V30 7365 C 674.105 -1.93099 -0.271643 0
M  V30 7366 O 673.375 -1.55981 -1.18518 0
M  V30 7367 H 671.955 -0.609162 0.432354 0
M  V30 7368 H 674.617 -1.07389 1.62646 0
M  V30 7369 H 673.713 -2.59815 1.72924 0
M  V30 7370 N 674.014 -1.12206 -1.10668 0
M  V30 7371 C 674.947 -0.731468 -2.16159 0
M  V30 7372 C 675.925 0.276216 -1.60237 0
M  V30 7373 O 677.109 0.17074 -1.87725 0
M  V30 7374 C 674.236 -0.0822882 -3.386 0
M  V30 7375 C 673.282 -1.05641 -4.1321 0
M  V30 7376 S 674.115 -2.58281 -4.69096 0
M  V30 7377 C 675.271 -1.94686 -5.94851 0
M  V30 7378 H 675.504 -1.62504 -2.48957 0
M  V30 7379 H 673.037 -0.940906 -1.22419 0
M  V30 7380 H 674.995 0.285896 -4.09503 0
M  V30 7381 H 673.656 0.788358 -3.04046 0
M  V30 7382 H 672.849 -0.549764 -5.00993 0
M  V30 7383 H 672.451 -1.36741 -3.48106 0
M  V30 7384 H 674.743 -1.28815 -6.65141 0
M  V30 7385 H 675.686 -2.80499 -6.50174 0
M  V30 7386 H 676.094 -1.40369 -5.46769 0
M  V30 7387 N 675.492 1.28418 -0.913599 0
M  V30 7388 C 676.424 2.26368 -0.359169 0
M  V30 7389 C 677.437 1.54858 0.502285 0
M  V30 7390 O 678.626 1.75659 0.31719 0
M  V30 7391 C 675.726 3.35112 0.50526 0
M  V30 7392 C 674.899 4.36126 -0.333648 0
M  V30 7393 C 673.958 5.24134 0.465845 0
M  V30 7394 O 672.984 5.6907 -0.121538 0
M  V30 7395 N 674.186 5.52892 1.76891 0
M  V30 7396 H 676.951 2.74579 -1.2011 0
M  V30 7397 H 674.512 1.41898 -0.779532 0
M  V30 7398 H 676.504 3.90926 1.04684 0
M  V30 7399 H 675.074 2.86611 1.2479 0
M  V30 7400 H 674.294 3.79776 -1.0566 0
M  V30 7401 H 675.582 5.00638 -0.907669 0
M  V30 7402 H 674.98 5.18217 2.26865 0
M  V30 7403 H 673.537 6.11464 2.25732 0
M  V30 7404 N 676.97 0.677563 1.42291 0
M  V30 7405 C 678.219 0.198173 2.00724 0
M  V30 7406 C 678.532 -1.20325 1.54211 0
M  V30 7407 O 679.738 -1.77916 2.05081 0
M  V30 7408 C 678.194 0.303432 3.58619 0
M  V30 7409 C 677.802 1.70909 4.14119 0
M  V30 7410 C 679.546 -0.117103 4.24338 0
M  V30 7411 C 677.453 1.76696 5.64387 0
M  V30 7412 H 676.383 0.070329 0.750713 0
M  V30 7413 H 679.034 0.843147 1.62982 0
M  V30 7414 H 677.416 -0.409482 3.93877 0
M  V30 7415 H 678.59 2.44931 3.90315 0
M  V30 7416 H 676.905 2.07771 3.6086 0
M  V30 7417 H 679.502 -0.0940471 5.34617 0
M  V30 7418 H 679.845 -1.15283 4.00019 0
M  V30 7419 H 680.378 0.5449 3.9405 0
M  V30 7420 H 677.117 2.7826 5.93508 0
M  V30 7421 H 676.637 1.07034 5.90173 0
M  V30 7422 H 678.316 1.52166 6.28852 0
M  V30 7423 N 678.448 -1.51871 0.421078 0
M  V30 7424 C 679.695 -2.01938 -0.15079 0
M  V30 7425 C 680.023 -1.30611 -1.44121 0
M  V30 7426 O 679.278 -0.404631 -1.91471 0
M  V30 7427 C 679.577 -3.54764 -0.433292 0
M  V30 7428 C 679.243 -4.44288 0.76936 0
M  V30 7429 C 677.905 -4.68477 1.09921 0
M  V30 7430 C 680.257 -4.96915 1.57242 0
M  V30 7431 C 677.585 -5.4254 2.2331 0
M  V30 7432 C 679.937 -5.7222 2.69716 0
M  V30 7433 C 678.601 -5.94678 3.03174 0
M  V30 7434 H 677.871 -0.738943 -0.0551781 0
M  V30 7435 H 680.518 -1.82977 0.564945 0
M  V30 7436 H 678.823 -3.71968 -1.23074 0
M  V30 7437 H 680.52 -3.91023 -0.888922 0
M  V30 7438 H 677.11 -4.25646 0.502305 0
M  V30 7439 H 681.294 -4.78125 1.3308 0
M  V30 7440 H 676.55 -5.58146 2.49565 0
M  V30 7441 H 680.724 -6.11992 3.32323 0
M  V30 7442 H 678.351 -6.51848 3.9115 0
M  V30 7443 N 679.926 -0.151884 -1.56866 0
M  V30 7444 C 681.172 0.498742 -1.96572 0
M  V30 7445 C 681.505 1.64194 -1.03702 0
M  V30 7446 O 680.78 1.94334 -0.0803432 0
M  V30 7447 C 681.063 1.00027 -3.45929 0
M  V30 7448 C 680.916 -0.141767 -4.49577 0
M  V30 7449 C 682.235 1.88044 -3.97904 0
M  V30 7450 H 679.354 0.17982 -0.714726 0
M  V30 7451 H 681.996 -0.234097 -1.88552 0
M  V30 7452 H 680.146 1.62476 -3.52894 0
M  V30 7453 H 681.818 -0.778269 -4.54687 0
M  V30 7454 H 680.061 -0.80019 -4.26356 0
M  V30 7455 H 680.732 0.250947 -5.51429 0
M  V30 7456 H 683.208 1.35416 -3.93449 0
M  V30 7457 H 682.084 2.20043 -5.02864 0
M  V30 7458 H 682.345 2.81916 -3.40552 0
M  V30 7459 N 681.404 1.57128 0.121893 0
M  V30 7460 C 682.351 2.0013 1.14964 0
M  V30 7461 C 683.321 0.872959 1.4131 0
M  V30 7462 O 684.506 1.13696 1.53225 0
M  V30 7463 C 681.646 2.40824 2.4718 0
M  V30 7464 C 680.759 3.67061 2.27794 0
M  V30 7465 C 679.894 3.96749 3.53219 0
M  V30 7466 C 678.933 5.16178 3.28978 0
M  V30 7467 N 678.07 5.41751 4.46599 0
M  V30 7468 H 682.91 2.8772 0.775947 0
M  V30 7469 H 680.447 1.42328 0.371652 0
M  V30 7470 H 682.405 2.62454 3.24305 0
M  V30 7471 H 681.035 1.56279 2.82448 0
M  V30 7472 H 680.087 3.53063 1.416 0
M  V30 7473 H 681.399 4.5434 2.05857 0
M  V30 7474 H 680.553 4.19012 4.38764 0
M  V30 7475 H 679.292 3.07941 3.78185 0
M  V30 7476 H 678.297 4.93762 2.41824 0
M  V30 7477 H 679.522 6.06561 3.05386 0
M  V30 7478 H 677.468 4.55899 4.71691 0
M  V30 7479 H 677.385 6.23347 4.27756 0
M  V30 7480 H 678.653 5.68531 5.33285 0
M  V30 7481 N 682.882 -0.391992 1.52647 0
M  V30 7482 C 684.11 -1.1586 1.71418 0
M  V30 7483 C 684.525 -1.8381 0.431216 0
M  V30 7484 O 683.882 -1.7256 -0.594085 0
M  V30 7485 C 683.933 -2.20888 2.86165 0
M  V30 7486 O 683.654 -1.5571 4.09495 0
M  V30 7487 C 685.155 -3.103 3.1659 0
M  V30 7488 H 682.375 -0.347494 0.574011 0
M  V30 7489 H 684.919 -0.458972 1.99283 0
M  V30 7490 H 683.074 -2.86492 2.6077 0
M  V30 7491 H 683.488 -2.25474 4.73563 0
M  V30 7492 H 684.962 -3.8003 4.00351 0
M  V30 7493 H 685.439 -3.73639 2.30848 0
M  V30 7494 H 686.045 -2.50345 3.43813 0
M  V30 7495 N 684.36 -1.4356 -0.65026 0
M  V30 7496 C 685.29 -1.51758 -1.77459 0
M  V30 7497 C 686.271 -0.372019 -1.65982 0
M  V30 7498 O 687.456 -0.589627 -1.85033 0
M  V30 7499 C 684.586 -1.44302 -3.15902 0
M  V30 7500 C 683.54 -2.57138 -3.42146 0
M  V30 7501 C 682.866 -2.34735 -4.8042 0
M  V30 7502 C 684.166 -3.99373 -3.36598 0
M  V30 7503 H 685.86 -2.45863 -1.70855 0
M  V30 7504 H 683.406 -1.18333 -0.820566 0
M  V30 7505 H 685.359 -1.48641 -3.94314 0
M  V30 7506 H 684.083 -0.467026 -3.23244 0
M  V30 7507 H 682.742 -2.52157 -2.66106 0
M  V30 7508 H 682.39 -1.35372 -4.84441 0
M  V30 7509 H 682.09 -3.10375 -4.9894 0
M  V30 7510 H 683.614 -2.40862 -5.61086 0
M  V30 7511 H 685.028 -4.05826 -4.04942 0
M  V30 7512 H 683.425 -4.75063 -3.66654 0
M  V30 7513 H 684.495 -4.243 -2.34729 0
M  V30 7514 N 685.838 0.888903 -1.30139 0
M  V30 7515 C 687.066 1.67358 -1.21651 0
M  V30 7516 C 687.481 1.87499 0.221246 0
M  V30 7517 O 686.838 1.41969 1.14677 0
M  V30 7518 C 686.889 3.05213 -1.93719 0
M  V30 7519 O 686.61 2.85984 -3.31881 0
M  V30 7520 C 688.111 3.9964 -1.9184 0
M  V30 7521 H 685.331 0.522365 -0.42116 0
M  V30 7522 H 687.875 1.11086 -1.71698 0
M  V30 7523 H 686.03 3.5823 -1.4748 0
M  V30 7524 H 686.444 3.73411 -3.68327 0
M  V30 7525 H 687.918 4.93749 -2.46811 0
M  V30 7526 H 688.395 4.29955 -0.896409 0
M  V30 7527 H 689.001 3.52558 -2.37872 0
M  V30 7528 N 687.317 1.12792 1.10072 0
M  V30 7529 C 688.565 0.883796 1.81751 0
M  V30 7530 C 688.886 -0.591891 1.858 0
M  V30 7531 O 688.156 -1.43017 1.33876 0
M  V30 7532 H 686.736 0.323978 0.673088 0
M  V30 7533 H 689.398 1.42314 1.33164 0
M  V30 7534 H 688.494 1.26863 2.85153 0
M  V30 7535 N 688.795 -1.27931 0.920396 0
M  V30 7536 C 689.742 -2.27085 0.412422 0
M  V30 7537 C 690.712 -1.57858 -0.516725 0
M  V30 7538 O 691.897 -1.85717 -0.437475 0
M  V30 7539 C 689.037 -3.43466 -0.335399 0
M  V30 7540 C 688.15 -4.27425 0.627017 0
M  V30 7541 C 687.285 -5.31016 -0.139916 0
M  V30 7542 C 686.324 -6.06641 0.815683 0
M  V30 7543 N 685.461 -7.02052 0.0818439 0
M  V30 7544 H 690.301 -2.69913 1.26298 0
M  V30 7545 H 687.838 -1.32732 0.634076 0
M  V30 7546 H 689.796 -4.09744 -0.785226 0
M  V30 7547 H 688.426 -3.01611 -1.15025 0
M  V30 7548 H 687.478 -3.6113 1.19537 0
M  V30 7549 H 688.79 -4.79969 1.35763 0
M  V30 7550 H 687.944 -6.03208 -0.649998 0
M  V30 7551 H 686.683 -4.79257 -0.903543 0
M  V30 7552 H 685.688 -5.33294 1.33708 0
M  V30 7553 H 686.913 -6.60489 1.57897 0
M  V30 7554 H 684.859 -6.52634 -0.663671 0
M  V30 7555 H 684.776 -7.52249 0.752163 0
M  V30 7556 H 686.044 -7.78432 -0.407825 0
M  V30 7557 N 690.273 -0.685099 -1.4193 0
M  V30 7558 C 691.501 -0.220372 -2.05723 0
M  V30 7559 C 691.916 1.12642 -1.51516 0
M  V30 7560 O 691.273 1.70182 -0.659114 0
M  V30 7561 C 691.324 -0.157974 -3.61155 0
M  V30 7562 O 691.045 -1.45156 -4.13354 0
M  V30 7563 C 692.546 0.329009 -4.42077 0
M  V30 7564 H 689.766 -0.104725 -0.662777 0
M  V30 7565 H 692.31 -0.934736 -1.81887 0
M  V30 7566 H 690.465 0.507144 -3.84066 0
M  V30 7567 H 690.879 -1.33172 -5.07312 0
M  V30 7568 H 692.353 0.321559 -5.51063 0
M  V30 7569 H 692.83 1.36608 -4.17414 0
M  V30 7570 H 693.436 -0.304737 -4.24207 0
M  V30 7571 N 691.751 1.51645 -0.429126 0
M  V30 7572 C 693 2.01203 0.141538 0
M  V30 7573 C 693.313 1.31828 1.44502 0
M  V30 7574 O 694.519 1.7231 2.09813 0
M  V30 7575 C 692.975 3.58624 0.302786 0
M  V30 7576 C 692.583 4.3693 -0.989775 0
M  V30 7577 C 694.327 4.16353 0.827661 0
M  V30 7578 C 692.234 5.86037 -0.794619 0
M  V30 7579 H 691.164 0.751867 0.05667 0
M  V30 7580 H 693.815 1.74822 -0.557633 0
M  V30 7581 H 692.197 3.81417 1.06476 0
M  V30 7582 H 693.371 4.25887 -1.75945 0
M  V30 7583 H 691.686 3.90614 -1.44256 0
M  V30 7584 H 694.283 5.25455 0.990026 0
M  V30 7585 H 694.626 3.74995 1.80787 0
M  V30 7586 H 695.159 3.97606 0.124213 0
M  V30 7587 H 691.898 6.31792 -1.74697 0
M  V30 7588 H 691.418 5.99765 -0.0645968 0
M  V30 7589 H 693.097 6.45471 -0.444591 0
M  V30 7590 N 693.229 0.160201 1.56784 0
M  V30 7591 C 694.457 -0.494165 2.00912 0
M  V30 7592 C 694.872 -1.57548 1.04038 0
M  V30 7593 O 694.229 -1.82457 0.0394581 0
M  V30 7594 C 694.28 -1.08271 3.44905 0
M  V30 7595 O 694.001 -0.0445704 4.38077 0
M  V30 7596 C 695.502 -1.8164 4.04378 0
M  V30 7597 H 692.722 -0.127498 0.658776 0
M  V30 7598 H 695.266 0.258665 2.02858 0
M  V30 7599 H 693.421 -1.78609 3.4377 0
M  V30 7600 H 693.835 -0.477544 5.22322 0
M  V30 7601 H 695.309 -2.18094 5.07089 0
M  V30 7602 H 695.786 -2.70727 3.45838 0
M  V30 7603 H 696.392 -1.15969 4.09184 0
M  V30 7604 N 694.707 -1.5719 -0.113559 0
M  V30 7605 C 695.637 -2.03772 -1.14013 0
M  V30 7606 C 696.618 -0.923176 -1.42869 0
M  V30 7607 O 697.803 -1.19325 -1.53216 0
M  V30 7608 C 694.933 -2.44663 -2.4649 0
M  V30 7609 C 693.887 -3.59612 -2.32085 0
M  V30 7610 C 693.213 -3.8642 -3.69573 0
M  V30 7611 C 694.513 -4.91149 -1.7768 0
M  V30 7612 H 696.207 -2.89785 -0.752665 0
M  V30 7613 H 693.753 -1.39412 -0.360609 0
M  V30 7614 H 695.706 -2.75857 -3.18561 0
M  V30 7615 H 694.43 -1.55628 -2.87137 0
M  V30 7616 H 693.089 -3.28636 -1.62461 0
M  V30 7617 H 692.737 -2.94581 -4.07715 0
M  V30 7618 H 692.437 -4.63797 -3.60786 0
M  V30 7619 H 693.961 -4.2007 -4.4314 0
M  V30 7620 H 695.375 -5.20843 -2.39574 0
M  V30 7621 H 693.772 -5.72562 -1.79701 0
M  V30 7622 H 694.842 -4.79301 -0.734776 0
M  V30 7623 N 696.185 0.383891 -1.52853 0
M  V30 7624 C 697.095 1.49343 -1.80925 0
M  V30 7625 C 698.111 1.59458 -0.696348 0
M  V30 7626 O 699.287 1.75698 -0.984481 0
M  V30 7627 C 696.352 2.84819 -1.97684 0
M  V30 7628 C 695.413 2.84382 -3.21598 0
M  V30 7629 C 694.646 4.13397 -3.37548 0
M  V30 7630 O 694.869 5.08619 -2.58192 0
M  V30 7631 O 693.803 4.20325 -4.30826 0
M  V30 7632 H 697.629 1.2855 -2.75152 0
M  V30 7633 H 695.214 0.572229 -1.38007 0
M  V30 7634 H 697.096 3.65125 -2.10385 0
M  V30 7635 H 695.771 3.05627 -1.06647 0
M  V30 7636 H 694.678 2.0284 -3.14336 0
M  V30 7637 H 696.011 2.68526 -4.12498 0
M  V30 7638 N 697.663 1.43903 0.642637 0
M  V30 7639 C 698.909 1.46296 1.40447 0
M  V30 7640 C 699.242 0.0908361 1.93987 0
M  V30 7641 O 698.517 -0.889884 1.72949 0
M  V30 7642 C 698.8 2.51399 2.57819 0
M  V30 7643 C 698.653 3.97926 2.09702 0
M  V30 7644 C 699.972 2.53125 3.60022 0
M  V30 7645 H 697.091 0.532676 0.509338 0
M  V30 7646 H 699.733 1.75515 0.727635 0
M  V30 7647 H 697.883 2.26614 3.1556 0
M  V30 7648 H 699.555 4.33804 1.5688 0
M  V30 7649 H 697.798 4.10252 1.40982 0
M  V30 7650 H 698.469 4.67096 2.94152 0
M  V30 7651 H 700.945 2.75242 3.12059 0
M  V30 7652 H 699.821 3.28589 4.39682 0
M  V30 7653 H 700.082 1.56895 4.13324 0
M  V30 7654 N 699.141 -0.881989 1.30609 0
M  V30 7655 C 700.051 -2.02076 1.19174 0
M  V30 7656 C 701.067 -1.73645 0.11102 0
M  V30 7657 O 702.243 -1.98735 0.326528 0
M  V30 7658 C 699.308 -3.3515 0.887438 0
M  V30 7659 C 698.369 -3.76983 2.05383 0
M  V30 7660 C 697.602 -5.03707 1.76395 0
M  V30 7661 O 697.825 -5.66171 0.693302 0
M  V30 7662 O 696.759 -5.42019 2.61723 0
M  V30 7663 H 700.585 -2.14652 2.14845 0
M  V30 7664 H 698.17 -1.00843 1.10232 0
M  V30 7665 H 700.052 -4.14975 0.73306 0
M  V30 7666 H 698.727 -3.23676 -0.0393354 0
M  V30 7667 H 697.634 -2.97849 2.26355 0
M  V30 7668 H 698.967 -3.93066 2.96243 0
M  V30 7669 N 700.619 -1.13374 -1.09472 0
M  V30 7670 C 702.03 -0.90801 -1.63132 0
M  V30 7671 C 702.381 0.555576 -1.8817 0
M  V30 7672 O 701.506 1.42218 -1.63104 0
M  V30 7673 C 702.101 -1.64182 -2.96361 0
M  V30 7674 C 700.66 -1.46197 -3.46848 0
M  V30 7675 C 699.807 -1.67134 -2.21273 0
M  V30 7676 H 702.758 -1.2871 -0.928411 0
M  V30 7677 H 702.779 -1.09863 -3.64294 0
M  V30 7678 H 702.291 -2.707 -2.78106 0
M  V30 7679 H 700.392 -0.419788 -3.70228 0
M  V30 7680 H 700.505 -2.22472 -4.24315 0
M  V30 7681 H 698.869 -1.09616 -2.29905 0
M  V30 7682 H 699.652 -2.74971 -2.05538 0
M  V30 7683 N 702.098 1.27442 -0.927168 0
M  V30 7684 C 703.323 1.99036 -0.583042 0
M  V30 7685 C 703.748 1.68711 0.83176 0
M  V30 7686 O 703.106 0.927081 1.55804 0
M  V30 7687 C 703.154 3.51271 -0.814925 0
M  V30 7688 O 702.258 4.12226 0.119742 0
M  V30 7689 H 701.599 0.624883 -0.224538 0
M  V30 7690 H 704.129 1.62263 -1.24628 0
M  V30 7691 H 704.139 4.01411 -0.730282 0
M  V30 7692 H 702.814 3.72676 -1.84623 0
M  V30 7693 H 701.391 3.72897 -0.0147688 0
M  V30 7694 N 703.576 0.692616 1.41565 0
M  V30 7695 C 704.853 0.150496 1.9502 0
M  V30 7696 C 705.233 -1.33881 1.63215 0
M  V30 7697 O 704.581 -2.08378 0.937598 0
M  V30 7698 C 704.791 0.438636 3.46233 0
M  V30 7699 C 706.139 0.364777 4.2303 0
M  V30 7700 O 707.163 0.373383 3.54238 0
M  V30 7701 O 706.022 0.32234 5.45549 0
M  V30 7702 H 703.116 0.0132454 0.826894 0
M  V30 7703 H 705.662 0.768574 1.51298 0
M  V30 7704 H 704.434 1.46962 3.62654 0
M  V30 7705 H 704.057 -0.210562 3.97042 0
M  V30 7706 N 705.054 -1.51416 0.437162 0
M  V30 7707 C 706.282 -2.06503 -0.128045 0
M  V30 7708 C 706.697 -1.30461 -1.36475 0
M  V30 7709 O 706.054 -0.364127 -1.78831 0
M  V30 7710 C 706.105 -3.58683 -0.450437 0
M  V30 7711 O 705.826 -4.31853 0.737186 0
M  V30 7712 C 707.327 -4.30284 -1.06633 0
M  V30 7713 H 704.547 -0.670952 -0.00800269 0
M  V30 7714 H 707.091 -1.94996 0.616193 0
M  V30 7715 H 705.246 -3.70106 -1.14457 0
M  V30 7716 H 705.66 -5.22467 0.461347 0
M  V30 7717 H 707.134 -5.37848 -1.24191 0
M  V30 7718 H 707.611 -3.88564 -2.0473 0
M  V30 7719 H 708.217 -4.23304 -0.411585 0
M  V30 7720 N 706.532 -0.168513 -1.56696 0
M  V30 7721 C 707.781 0.477233 -1.95973 0
M  V30 7722 C 708.094 1.64578 -1.05704 0
M  V30 7723 O 709.3 2.35758 -1.3465 0
M  V30 7724 C 707.756 0.900413 -3.48455 0
M  V30 7725 C 707.364 -0.242382 -4.47344 0
M  V30 7726 C 709.108 1.51474 -3.96555 0
M  V30 7727 C 707.015 0.200272 -5.91061 0
M  V30 7728 H 705.945 0.182061 -0.73169 0
M  V30 7729 H 708.596 -0.256297 -1.81701 0
M  V30 7730 H 706.978 1.68984 -3.58135 0
M  V30 7731 H 708.152 -1.01967 -4.49377 0
M  V30 7732 H 706.467 -0.766484 -4.09285 0
M  V30 7733 H 709.064 1.85792 -5.01384 0
M  V30 7734 H 709.407 2.41163 -3.39332 0
M  V30 7735 H 709.94 0.789802 -3.89881 0
M  V30 7736 H 706.679 -0.661775 -6.52151 0
M  V30 7737 H 706.199 0.942979 -5.92341 0
M  V30 7738 H 707.878 0.645088 -6.43776 0
M  V30 7739 N 708.01 1.57248 0.105221 0
M  V30 7740 C 708.92 2.04653 1.14693 0
M  V30 7741 C 709.936 0.969488 1.44489 0
M  V30 7742 O 711.112 1.28196 1.55331 0
M  V30 7743 C 708.177 2.45297 2.45011 0
M  V30 7744 C 707.238 3.67148 2.22489 0
M  V30 7745 C 706.471 4.05844 3.46592 0
M  V30 7746 O 706.694 3.44736 4.54437 0
M  V30 7747 O 705.628 4.98862 3.36779 0
M  V30 7748 H 709.454 2.93663 0.774336 0
M  V30 7749 H 707.039 1.45998 0.31701 0
M  V30 7750 H 708.921 2.72112 3.21766 0
M  V30 7751 H 707.596 1.59429 2.81717 0
M  V30 7752 H 706.503 3.45463 1.43547 0
M  V30 7753 H 707.836 4.53764 1.9068 0
M  V30 7754 N 709.488 -0.375779 1.53054 0
M  V30 7755 C 710.436 -1.48015 1.79428 0
M  V30 7756 C 711.43 -1.55893 0.662854 0
M  V30 7757 O 712.636 -1.58901 0.845599 0
M  V30 7758 H 709.011 -0.492887 0.56795 0
M  V30 7759 H 710.982 -1.22971 2.71884 0
M  V30 7760 C 709.731 -2.84984 1.99197 0
M  V30 7761 H 709.054 -2.79677 2.85693 0
M  V30 7762 H 710.494 -3.61462 2.21633 0
M  V30 7763 C 708.953 -3.28025 0.768183 0
M  V30 7764 O 709.483 -4.01671 -0.0480482 0
M  V30 7765 N 707.689 -2.84454 0.594521 0
M  V30 7766 H 707.236 -2.24688 1.25988 0
M  V30 7767 H 707.194 -3.13609 -0.222916 0
M  V30 7768 N 710.966 -1.44241 -0.634997 0
M  V30 7769 C 712.212 -1.47038 -1.39669 0
M  V30 7770 C 712.545 -0.101122 -1.93937 0
M  V30 7771 O 711.82 0.880699 -1.73418 0
M  V30 7772 C 712.103 -2.52763 -2.56482 0
M  V30 7773 C 711.956 -3.99032 -2.07589 0
M  V30 7774 C 713.275 -2.55031 -3.58674 0
M  V30 7775 H 710.394 -0.53537 -0.506506 0
M  V30 7776 H 713.036 -1.75898 -0.718317 0
M  V30 7777 H 711.186 -2.28284 -3.14354 0
M  V30 7778 H 712.858 -4.3463 -1.54577 0
M  V30 7779 H 711.101 -4.10994 -1.38804 0
M  V30 7780 H 711.772 -4.68649 -2.91671 0
M  V30 7781 H 714.248 -2.76893 -3.10595 0
M  V30 7782 H 713.124 -3.30916 -4.37934 0
M  V30 7783 H 713.385 -1.59085 -4.12486 0
M  V30 7784 N 712.444 0.87505 -1.31075 0
M  V30 7785 C 713.391 1.98178 -1.18296 0
M  V30 7786 C 714.361 1.65952 -0.0699923 0
M  V30 7787 O 715.546 1.8926 -0.241951 0
M  V30 7788 C 712.686 3.33399 -0.891024 0
M  V30 7789 C 711.799 3.78253 -2.08684 0
M  V30 7790 C 710.934 5.02166 -1.73212 0
M  V30 7791 C 709.973 5.39455 -2.89231 0
M  V30 7792 N 709.11 6.54549 -2.53989 0
M  V30 7793 H 713.95 2.0844 -2.12971 0
M  V30 7794 H 711.487 1.02047 -1.05948 0
M  V30 7795 H 713.445 4.11246 -0.702338 0
M  V30 7796 H 712.075 3.22794 0.0188799 0
M  V30 7797 H 711.127 2.9623 -2.38646 0
M  V30 7798 H 712.439 4.01821 -2.95536 0
M  V30 7799 H 711.593 5.87666 -1.50777 0
M  V30 7800 H 710.332 4.80491 -0.83544 0
M  V30 7801 H 709.337 4.52477 -3.12321 0
M  V30 7802 H 710.562 5.63098 -3.79601 0
M  V30 7803 H 708.508 6.3443 -1.66838 0
M  V30 7804 H 708.425 6.78035 -3.34372 0
M  V30 7805 H 709.693 7.43254 -2.34934 0
M  V30 7806 N 713.922 1.13953 1.08869 0
M  V30 7807 C 714.885 0.824991 2.13838 0
M  V30 7808 C 715.885 -0.168198 1.59918 0
M  V30 7809 O 717.075 0.0595778 1.74098 0
M  V30 7810 C 714.207 0.228938 3.4013 0
M  V30 7811 H 715.4 1.75521 2.43171 0
M  V30 7812 H 712.953 0.94492 1.24503 0
M  V30 7813 H 713.688 -0.710227 3.16427 0
M  V30 7814 H 713.473 0.944243 3.80561 0
M  V30 7815 H 714.963 0.0259223 4.17592 0
M  V30 7816 N 715.4 -1.26948 0.933913 0
M  V30 7817 C 716.347 -2.26635 0.436484 0
M  V30 7818 C 717.317 -1.58397 -0.499953 0
M  V30 7819 O 718.502 -1.86171 -0.417753 0
M  V30 7820 C 715.642 -3.43803 -0.298951 0
M  V30 7821 C 714.755 -4.26736 0.672316 0
M  V30 7822 C 713.89 -5.31134 -0.0835872 0
M  V30 7823 C 712.929 -6.05742 0.879979 0
M  V30 7824 N 712.066 -7.01926 0.156301 0
M  V30 7825 H 716.906 -2.68558 1.29154 0
M  V30 7826 H 714.443 -1.32052 0.648118 0
M  V30 7827 H 716.401 -4.10554 -0.741723 0
M  V30 7828 H 715.031 -3.02814 -1.1182 0
M  V30 7829 H 714.083 -3.59842 1.23361 0
M  V30 7830 H 715.395 -4.78502 1.40846 0
M  V30 7831 H 714.549 -6.03863 -0.585984 0
M  V30 7832 H 713.288 -4.80188 -0.852661 0
M  V30 7833 H 712.293 -5.31846 1.39357 0
M  V30 7834 H 713.518 -6.58777 1.64894 0
M  V30 7835 H 711.464 -6.53301 -0.594413 0
M  V30 7836 H 711.381 -7.51409 0.831906 0
M  V30 7837 H 712.649 -7.78821 -0.325239 0
M  V30 7838 N 716.879 -0.700114 -1.41195 0
M  V30 7839 C 718.128 -0.230082 -2.00383 0
M  V30 7840 C 718.441 1.17857 -1.56106 0
M  V30 7841 O 719.647 1.74631 -2.07885 0
M  V30 7842 C 718.103 -0.360447 -3.5809 0
M  V30 7843 C 717.711 -1.77475 -4.11347 0
M  V30 7844 C 719.455 0.0495799 -4.24471 0
M  V30 7845 C 717.362 -1.85653 -5.61504 0
M  V30 7846 H 716.292 -0.0822633 -0.749499 0
M  V30 7847 H 718.943 -0.868969 -1.6162 0
M  V30 7848 H 717.325 0.346768 -3.94479 0
M  V30 7849 H 718.499 -2.51109 -3.86369 0
M  V30 7850 H 716.814 -2.13486 -3.57509 0
M  V30 7851 H 719.411 0.00898219 -5.34699 0
M  V30 7852 H 719.754 1.08904 -4.01803 0
M  V30 7853 H 720.287 -0.607521 -3.93134 0
M  V30 7854 H 717.026 -2.87667 -5.89006 0
M  V30 7855 H 716.546 -1.1641 -5.88395 0
M  V30 7856 H 718.225 -1.62151 -6.26351 0
M  V30 7857 N 718.357 1.51182 -0.445186 0
M  V30 7858 C 719.289 2.25714 0.398206 0
M  V30 7859 C 720.302 1.30032 0.979562 0
M  V30 7860 O 721.491 1.55731 0.872368 0
M  V30 7861 C 718.591 3.00348 1.56985 0
M  V30 7862 C 717.764 4.23187 1.10596 0
M  V30 7863 C 716.823 4.80334 2.14863 0
M  V30 7864 O 715.849 5.4196 1.73977 0
M  V30 7865 N 717.051 4.65053 3.47427 0
M  V30 7866 H 719.816 2.98732 -0.240629 0
M  V30 7867 H 717.377 1.59556 -0.274507 0
M  V30 7868 H 719.369 3.35464 2.26376 0
M  V30 7869 H 717.939 2.30291 2.11387 0
M  V30 7870 H 717.159 3.93476 0.238832 0
M  V30 7871 H 718.447 5.02886 0.773537 0
M  V30 7872 H 717.845 4.15984 3.83372 0
M  V30 7873 H 716.402 5.04509 4.12691 0
M  V30 7874 N 719.835 0.176821 1.56605 0
M  V30 7875 C 721.112 -0.513365 1.88743 0
M  V30 7876 C 721.492 -1.80929 1.08757 0
M  V30 7877 O 720.84 -2.27765 0.183127 0
M  V30 7878 C 721.05 -0.749925 3.40848 0
M  V30 7879 C 722.398 -1.07747 4.10701 0
M  V30 7880 O 723.422 -0.838277 3.46196 0
M  V30 7881 O 722.281 -1.52901 5.24675 0
M  V30 7882 H 719.375 -0.265296 0.783292 0
M  V30 7883 H 721.921 0.215669 1.68324 0
M  V30 7884 H 720.693 0.16599 3.90948 0
M  V30 7885 H 720.316 -1.53208 3.66897 0
M  V30 7886 N 721.313 -1.57302 -0.09688 0
M  V30 7887 C 722.26 -2.01933 -1.11766 0
M  V30 7888 C 723.23 -0.895329 -1.39904 0
M  V30 7889 O 724.415 -1.16119 -1.51397 0
M  V30 7890 C 721.555 -2.44726 -2.43317 0
M  V30 7891 C 720.668 -3.70639 -2.21925 0
M  V30 7892 C 719.803 -4.02318 -3.46862 0
M  V30 7893 C 718.842 -5.21346 -3.20725 0
M  V30 7894 N 717.979 -5.48787 -4.37924 0
M  V30 7895 H 722.819 -2.88919 -0.730075 0
M  V30 7896 H 720.356 -1.42901 -0.348962 0
M  V30 7897 H 722.314 -2.6758 -3.20088 0
M  V30 7898 H 720.944 -1.60753 -2.79926 0
M  V30 7899 H 719.996 -3.55271 -1.35965 0
M  V30 7900 H 721.308 -4.57557 -1.98603 0
M  V30 7901 H 720.462 -4.25939 -4.32042 0
M  V30 7902 H 719.201 -3.13918 -3.73238 0
M  V30 7903 H 718.206 -4.97547 -2.33938 0
M  V30 7904 H 719.431 -6.11343 -2.95697 0
M  V30 7905 H 717.377 -4.63346 -4.64378 0
M  V30 7906 H 717.294 -6.30073 -4.17785 0
M  V30 7907 H 718.562 -5.76943 -5.24173 0
M  V30 7908 N 722.791 0.367657 -1.53252 0
M  V30 7909 C 723.701 1.47415 -1.82499 0
M  V30 7910 C 724.717 1.58711 -0.713222 0
M  V30 7911 O 725.893 1.74644 -1.00306 0
M  V30 7912 C 722.958 2.82706 -2.00694 0
M  V30 7913 C 722.019 2.80955 -3.24596 0
M  V30 7914 C 721.252 4.09793 -3.41914 0
M  V30 7915 O 721.475 5.05852 -2.63572 0
M  V30 7916 O 720.409 4.15731 -4.3526 0
M  V30 7917 H 724.235 1.25624 -2.765 0
M  V30 7918 H 721.82 0.557559 -1.38606 0
M  V30 7919 H 723.702 3.62873 -2.14246 0
M  V30 7920 H 722.377 3.04479 -1.09883 0
M  V30 7921 H 721.284 1.99494 -3.16469 0
M  V30 7922 H 722.617 2.64136 -4.15323 0
M  V30 7923 N 724.269 1.44576 0.627338 0
M  V30 7924 C 725.517 1.47267 1.38408 0
M  V30 7925 C 725.838 0.107971 1.94701 0
M  V30 7926 O 725.108 -0.860206 1.76004 0
M  V30 7927 H 723.688 0.542276 0.513756 0
M  V30 7928 H 726.35 1.80383 0.738099 0
M  V30 7929 H 725.446 2.20025 2.21349 0
M  V30 7930 N 725.747 -0.868086 1.31537 0
M  V30 7931 C 726.996 -1.61607 1.20689 0
M  V30 7932 C 727.309 -1.94204 -0.233275 0
M  V30 7933 O 728.515 -2.67515 -0.463465 0
M  V30 7934 C 726.971 -2.91348 2.11292 0
M  V30 7935 C 726.579 -2.66227 3.60315 0
M  V30 7936 C 728.323 -3.69344 2.09249 0
M  V30 7937 C 726.23 -3.91887 4.42921 0
M  V30 7938 H 725.16 -0.606373 0.448138 0
M  V30 7939 H 727.811 -0.959666 1.56405 0
M  V30 7940 H 726.193 -3.58374 1.68477 0
M  V30 7941 H 727.367 -2.07597 4.11388 0
M  V30 7942 H 725.682 -2.01582 3.64354 0
M  V30 7943 H 728.279 -4.62567 2.68209 0
M  V30 7944 H 728.622 -4.02044 1.0801 0
M  V30 7945 H 729.155 -3.09205 2.50274 0
M  V30 7946 H 725.894 -3.64336 5.44922 0
M  V30 7947 H 725.414 -4.49961 3.96605 0
M  V30 7948 H 727.093 -4.59754 4.55231 0
M  V30 7949 N 727.225 -1.14528 -1.08264 0
M  V30 7950 C 728.636 -0.925261 -1.6216 0
M  V30 7951 C 728.987 0.535587 -1.88748 0
M  V30 7952 O 728.112 1.4048 -1.64604 0
M  V30 7953 C 728.707 -1.67316 -2.94603 0
M  V30 7954 C 727.266 -1.49868 -3.45278 0
M  V30 7955 C 726.413 -1.69471 -2.19487 0
M  V30 7956 H 729.364 -1.29687 -0.914707 0
M  V30 7957 H 729.385 -1.13721 -3.63109 0
M  V30 7958 H 728.897 -2.73635 -2.75219 0
M  V30 7959 H 726.998 -0.459032 -3.69762 0
M  V30 7960 H 727.111 -2.2696 -4.21931 0
M  V30 7961 H 725.475 -1.12048 -2.2873 0
M  V30 7962 H 726.258 -2.77136 -2.0261 0
M  V30 7963 N 728.703 1.26451 -0.940633 0
M  V30 7964 C 730.114 1.75726 -0.630653 0
M  V30 7965 C 730.465 1.76631 0.854167 0
M  V30 7966 O 729.59 1.37807 1.66848 0
M  V30 7967 C 730.185 3.19114 -1.13805 0
M  V30 7968 C 728.744 3.66005 -0.878497 0
M  V30 7969 C 727.891 2.45505 -1.28928 0
M  V30 7970 H 730.842 1.12535 -1.119 0
M  V30 7971 H 730.863 3.77311 -0.491625 0
M  V30 7972 H 730.375 3.18424 -2.21874 0
M  V30 7973 H 728.476 3.72126 0.187833 0
M  V30 7974 H 728.589 4.54844 -1.50512 0
M  V30 7975 H 726.953 2.4467 -0.707713 0
M  V30 7976 H 727.736 2.47516 -2.37888 0
M  V30 7977 N 730.181 0.707592 1.40822 0
M  V30 7978 C 731.458 0.171172 1.9485 0
M  V30 7979 C 731.838 -1.32143 1.64625 0
M  V30 7980 O 731.186 -2.07372 0.959647 0
M  V30 7981 C 731.396 0.475334 3.45748 0
M  V30 7982 C 732.744 0.409625 4.22619 0
M  V30 7983 O 733.768 0.410934 3.53822 0
M  V30 7984 O 732.627 0.380185 5.45176 0
M  V30 7985 H 729.721 0.022015 0.826707 0
M  V30 7986 H 732.267 0.784577 1.50474 0
M  V30 7987 H 731.039 1.50801 3.61075 0
M  V30 7988 H 730.662 -0.168439 3.97243 0
M  V30 7989 N 731.66 -1.50943 0.453197 0
M  V30 7990 C 732.592 -2.25922 -0.38623 0
M  V30 7991 C 733.605 -1.3055 -0.972652 0
M  V30 7992 O 734.794 -1.56191 -0.864097 0
M  V30 7993 C 731.894 -3.01176 -1.5539 0
M  V30 7994 C 731.067 -4.23768 -1.0835 0
M  V30 7995 C 730.126 -4.81466 -2.12313 0
M  V30 7996 O 729.152 -5.42875 -1.71101 0
M  V30 7997 N 730.354 -4.66889 -3.44956 0
M  V30 7998 H 733.119 -2.98601 0.256468 0
M  V30 7999 H 730.68 -1.59408 0.282965 0
M  V30 8000 H 732.672 -3.36659 -2.24594 0
M  V30 8001 H 731.242 -2.31409 -2.10163 0
M  V30 8002 H 730.462 -3.93597 -0.217961 0
M  V30 8003 H 731.75 -5.03289 -0.746857 0
M  V30 8004 H 731.148 -4.18011 -3.81161 0
M  V30 8005 H 729.705 -5.06691 -4.1001 0
M  V30 8006 N 733.138 -0.185124 -1.56509 0
M  V30 8007 C 734.07 0.771401 -2.15829 0
M  V30 8008 C 735.083 1.18392 -1.11747 0
M  V30 8009 O 736.272 1.12137 -1.38879 0
M  V30 8010 C 733.372 2.05169 -2.69739 0
M  V30 8011 C 732.545 1.80056 -3.98621 0
M  V30 8012 C 731.604 2.92435 -4.37456 0
M  V30 8013 O 730.63 2.62473 -5.05071 0
M  V30 8014 N 731.832 4.20554 -4.00143 0
M  V30 8015 H 734.597 0.264184 -2.98533 0
M  V30 8016 H 732.158 -0.00281069 -1.619 0
M  V30 8017 H 734.15 2.7947 -2.92709 0
M  V30 8018 H 732.72 2.47041 -1.91545 0
M  V30 8019 H 731.94 0.895862 -3.83885 0
M  V30 8020 H 733.228 1.60662 -4.82768 0
M  V30 8021 H 732.626 4.47753 -3.45736 0
M  V30 8022 H 731.183 4.91514 -4.28085 0
M  V30 8023 N 734.616 1.57351 0.0885366 0
M  V30 8024 C 736.032 1.53331 0.442916 0
M  V30 8025 C 736.232 0.902831 1.80142 0
M  V30 8026 O 735.288 0.498147 2.47537 0
M  V30 8027 C 736.601 2.98036 0.399372 0
M  V30 8028 C 738.149 3.09286 0.480759 0
M  V30 8029 C 738.624 4.5561 0.467296 0
M  V30 8030 N 740.115 4.60182 0.52786 0
M  V30 8031 C 740.85 5.70857 0.539388 0
M  V30 8032 N 740.346 6.90944 0.506729 0
M  V30 8033 N 742.139 5.59051 0.584691 0
M  V30 8034 H 734.29 1.96709 -0.801215 0
M  V30 8035 H 736.553 0.899639 -0.298922 0
M  V30 8036 H 736.259 3.47656 -0.531806 0
M  V30 8037 H 736.133 3.57066 1.21589 0
M  V30 8038 H 738.52 2.5965 1.40236 0
M  V30 8039 H 738.601 2.53197 -0.364023 0
M  V30 8040 H 738.245 5.05899 -0.450384 0
M  V30 8041 H 738.175 5.09544 1.32938 0
M  V30 8042 H 740.666 3.73757 0.558028 0
M  V30 8043 H 740.979 7.71055 0.518989 0
M  V30 8044 H 739.324 6.93384 0.473675 0
M  V30 8045 H 742.515 4.64138 0.607781 0
M  V30 8046 H 742.688 6.45307 0.590206 0
M  V30 8047 N 736.094 -0.359525 1.53444 0
M  V30 8048 C 737.024 -1.44662 1.8329 0
M  V30 8049 C 738.005 -1.55617 0.68683 0
M  V30 8050 O 739.19 -1.70086 0.93725 0
M  V30 8051 C 736.32 -2.81923 2.02822 0
M  V30 8052 C 735.274 -2.85787 3.18606 0
M  V30 8053 C 734.6 -4.25781 3.23442 0
M  V30 8054 C 735.9 -2.52762 4.57065 0
M  V30 8055 H 737.594 -1.19934 2.74329 0
M  V30 8056 H 735.14 -0.575517 1.31999 0
M  V30 8057 H 737.093 -3.58005 2.22285 0
M  V30 8058 H 735.817 -3.08051 1.085 0
M  V30 8059 H 734.476 -2.12157 2.98973 0
M  V30 8060 H 734.124 -4.48994 2.26745 0
M  V30 8061 H 733.824 -4.29281 4.01238 0
M  V30 8062 H 735.348 -5.03727 3.45096 0
M  V30 8063 H 736.762 -3.18557 4.76649 0
M  V30 8064 H 735.159 -2.67569 5.37147 0
M  V30 8065 H 736.229 -1.47993 4.61764 0
M  V30 8066 N 737.572 -1.44907 -0.619662 0
M  V30 8067 C 738.821 -1.47569 -1.37501 0
M  V30 8068 C 739.134 -0.116707 -1.95252 0
M  V30 8069 O 740.34 -0.020909 -2.71492 0
M  V30 8070 C 738.796 -2.59851 -2.49009 0
M  V30 8071 C 738.404 -4.02008 -1.97722 0
M  V30 8072 C 740.148 -2.71746 -3.2612 0
M  V30 8073 C 738.055 -5.05693 -3.0664 0
M  V30 8074 H 736.985 -0.549068 -0.51676 0
M  V30 8075 H 739.636 -1.71009 -0.665437 0
M  V30 8076 H 738.018 -2.29671 -3.22594 0
M  V30 8077 H 739.192 -4.41809 -1.30925 0
M  V30 8078 H 737.507 -3.94456 -1.33392 0
M  V30 8079 H 740.104 -3.46382 -4.07337 0
M  V30 8080 H 740.447 -1.77959 -3.76346 0
M  V30 8081 H 740.98 -3.01392 -2.5963 0
M  V30 8082 H 737.719 -6.01148 -2.61345 0
M  V30 8083 H 737.239 -4.70473 -3.72042 0
M  V30 8084 H 738.918 -5.29906 -3.71226 0
M  V30 8085 N 739.05 0.861098 -1.31996 0
M  V30 8086 C 740.297 1.61481 -1.22188 0
M  V30 8087 C 740.625 1.93276 0.217853 0
M  V30 8088 O 739.88 1.56942 1.16909 0
M  V30 8089 C 740.179 2.94822 -2.02027 0
M  V30 8090 C 739.845 2.82483 -3.51446 0
M  V30 8091 C 738.507 2.78825 -3.92186 0
M  V30 8092 C 740.859 2.68878 -4.46491 0
M  V30 8093 C 738.187 2.59433 -5.26224 0
M  V30 8094 C 740.539 2.51022 -5.80664 0
M  V30 8095 C 739.203 2.45753 -6.20614 0
M  V30 8096 H 738.473 0.590902 -0.447119 0
M  V30 8097 H 741.12 0.999376 -1.63355 0
M  V30 8098 H 739.425 3.6045 -1.53569 0
M  V30 8099 H 741.122 3.52149 -1.91812 0
M  V30 8100 H 737.712 2.86152 -3.19085 0
M  V30 8101 H 741.896 2.70754 -4.1594 0
M  V30 8102 H 737.152 2.53784 -5.5624 0
M  V30 8103 H 741.326 2.39473 -6.53931 0
M  V30 8104 H 738.953 2.30485 -7.24417 0
M  V30 8105 N 740.528 1.15101 1.07655 0
M  V30 8106 C 741.491 0.847625 2.12951 0
M  V30 8107 C 742.491 -0.151227 1.60087 0
M  V30 8108 O 743.681 0.0780399 1.74025 0
M  V30 8109 C 740.813 0.265 3.39868 0
M  V30 8110 H 742.006 1.7809 2.41296 0
M  V30 8111 H 739.559 0.958072 1.23494 0
M  V30 8112 H 740.294 -0.676625 3.17163 0
M  V30 8113 H 740.079 0.984554 3.79538 0
M  V30 8114 H 741.569 0.0702121 4.17541 0
M  V30 8115 N 742.006 -1.2595 0.947325 0
M  V30 8116 C 743.254 -1.93081 0.596996 0
M  V30 8117 C 743.575 -1.74632 -0.867672 0
M  V30 8118 O 742.845 -1.1056 -1.6172 0
M  V30 8119 H 741.425 -0.714542 0.217805 0
M  V30 8120 H 744.087 -1.53265 1.20398 0
M  V30 8121 H 743.183 -3.01134 0.82004 0
M  V30 8122 N 743.484 -0.715051 -1.40445 0
M  V30 8123 C 744.431 -0.0621393 -2.30716 0
M  V30 8124 C 745.401 0.750871 -1.48159 0
M  V30 8125 O 746.586 0.714928 -1.76899 0
M  V30 8126 C 743.726 0.854036 -3.34365 0
M  V30 8127 C 742.839 0.0305565 -4.31989 0
M  V30 8128 C 741.974 0.946162 -5.22706 0
M  V30 8129 C 741.013 0.116741 -6.11989 0
M  V30 8130 N 740.15 0.987194 -6.95125 0
M  V30 8131 H 744.99 -0.83764 -2.85985 0
M  V30 8132 H 742.527 -0.424759 -1.40834 0
M  V30 8133 H 744.485 1.39946 -3.93028 0
M  V30 8134 H 743.115 1.59572 -2.806 0
M  V30 8135 H 742.167 -0.632044 -3.75112 0
M  V30 8136 H 743.479 -0.611615 -4.95036 0
M  V30 8137 H 742.633 1.56014 -5.86297 0
M  V30 8138 H 741.372 1.62216 -4.59932 0
M  V30 8139 H 740.377 -0.510176 -5.47428 0
M  V30 8140 H 741.602 -0.555742 -6.76822 0
M  V30 8141 H 739.548 1.64885 -6.3494 0
M  V30 8142 H 739.465 0.401046 -7.54936 0
M  V30 8143 H 740.733 1.58737 -7.63166 0
M  V30 8144 N 744.962 1.50701 -0.461195 0
M  V30 8145 C 745.894 2.26124 0.374244 0
M  V30 8146 C 746.907 1.31064 0.965715 0
M  V30 8147 O 748.096 1.56647 0.855801 0
M  V30 8148 C 745.196 3.01996 1.5379 0
M  V30 8149 C 744.369 4.24336 1.06101 0
M  V30 8150 C 743.428 4.82585 2.09756 0
M  V30 8151 O 742.454 5.43775 1.68219 0
M  V30 8152 N 743.656 4.68712 3.42475 0
M  V30 8153 H 746.421 2.9846 -0.2723 0
M  V30 8154 H 743.982 1.59256 -0.291415 0
M  V30 8155 H 745.974 3.37846 2.22806 0
M  V30 8156 H 744.544 2.32521 2.08933 0
M  V30 8157 H 743.764 3.93707 0.197085 0
M  V30 8158 H 745.052 5.03678 0.720156 0
M  V30 8159 H 744.45 4.20026 3.78938 0
M  V30 8160 H 743.007 5.08858 4.07317 0
M  V30 8161 N 746.441 0.193421 1.56409 0
M  V30 8162 C 747.371 -0.723334 2.22014 0
M  V30 8163 C 748.352 -1.22254 1.1827 0
M  V30 8164 O 749.537 -1.27168 1.46771 0
M  V30 8165 C 746.667 -1.94366 2.87818 0
M  V30 8166 C 745.621 -1.57943 3.97791 0
M  V30 8167 C 744.947 -2.87623 4.50752 0
M  V30 8168 C 746.247 -0.790639 5.16281 0
M  V30 8169 H 747.941 -0.176426 2.9888 0
M  V30 8170 H 745.487 -0.0834166 1.43758 0
M  V30 8171 H 747.44 -2.5902 3.32396 0
M  V30 8172 H 746.164 -2.51507 2.08355 0
M  V30 8173 H 744.823 -0.956482 3.53903 0
M  V30 8174 H 744.471 -3.4285 3.68053 0
M  V30 8175 H 744.171 -2.63998 5.24956 0
M  V30 8176 H 745.695 -3.53268 4.9803 0
M  V30 8177 H 747.109 -1.34024 5.57414 0
M  V30 8178 H 745.506 -0.65258 5.96541 0
M  V30 8179 H 746.576 0.208633 4.84451 0
M  V30 8180 N 747.919 -1.57396 -0.0801906 0
M  V30 8181 C 748.829 -2.06451 -1.11423 0
M  V30 8182 C 749.845 -0.992352 -1.42928 0
M  V30 8183 O 751.021 -1.30651 -1.53272 0
M  V30 8184 C 748.086 -2.49164 -2.41077 0
M  V30 8185 C 747.147 -3.70641 -2.16619 0
M  V30 8186 C 746.38 -4.11307 -3.40092 0
M  V30 8187 O 746.603 -3.51922 -4.48895 0
M  V30 8188 O 745.537 -5.04157 -3.288 0
M  V30 8189 H 749.363 -2.94857 -0.727519 0
M  V30 8190 H 746.948 -1.46484 -0.293743 0
M  V30 8191 H 748.83 -2.77196 -3.17396 0
M  V30 8192 H 747.505 -1.6389 -2.79145 0
M  V30 8193 H 746.412 -3.47703 -1.38033 0
M  V30 8194 H 747.745 -4.5674 -1.83437 0
M  V30 8195 N 749.397 0.351382 -1.53633 0
M  V30 8196 C 750.674 1.10903 -1.6112 0
M  V30 8197 C 751.054 2.06725 -0.427556 0
M  V30 8198 O 750.402 2.20992 0.580916 0
M  V30 8199 C 750.612 1.83561 -2.96827 0
M  V30 8200 C 751.96 2.37587 -3.51906 0
M  V30 8201 O 752.984 1.93669 -2.9895 0
M  V30 8202 O 751.843 3.17913 -4.44515 0
M  V30 8203 H 748.937 0.509558 -0.651368 0
M  V30 8204 H 751.483 0.353504 -1.65977 0
M  V30 8205 H 750.255 1.1371 -3.74414 0
M  V30 8206 H 749.878 2.6599 -2.95525 0
M  V30 8207 N 750.875 1.45233 0.611969 0
M  V30 8208 C 752.123 1.48727 1.36838 0
M  V30 8209 C 752.444 0.128616 1.94575 0
M  V30 8210 O 751.714 -0.84149 1.76906 0
M  V30 8211 H 750.294 0.547695 0.507976 0
M  V30 8212 H 752.956 1.81156 0.718925 0
M  V30 8213 H 752.052 2.2236 2.19003 0
M  V30 8214 N 752.353 -0.854086 1.3245 0
M  V30 8215 C 753.769 -1.14238 1.11453 0
M  V30 8216 C 753.969 -2.01228 -0.10461 0
M  V30 8217 O 753.025 -2.39845 -0.789339 0
M  V30 8218 C 754.338 -1.81916 2.39431 0
M  V30 8219 C 755.886 -1.94549 2.45193 0
M  V30 8220 C 756.361 -2.65642 3.73093 0
M  V30 8221 N 757.852 -2.73167 3.74078 0
M  V30 8222 C 758.587 -3.28828 4.69744 0
M  V30 8223 N 758.083 -3.85295 5.75778 0
M  V30 8224 N 759.876 -3.26936 4.57241 0
M  V30 8225 H 752.027 -0.274786 2.10615 0
M  V30 8226 H 754.29 -0.184375 0.929898 0
M  V30 8227 H 753.996 -1.25452 3.28565 0
M  V30 8228 H 753.87 -2.82068 2.50434 0
M  V30 8229 H 756.257 -2.50172 1.56518 0
M  V30 8230 H 756.338 -0.933914 2.38142 0
M  V30 8231 H 755.982 -2.10683 4.62142 0
M  V30 8232 H 755.912 -3.6724 3.77415 0
M  V30 8233 H 758.403 -2.33108 2.97438 0
M  V30 8234 H 758.716 -4.25925 6.44832 0
M  V30 8235 H 757.061 -3.83625 5.79531 0
M  V30 8236 H 760.252 -2.8207 3.7357 0
M  V30 8237 H 760.425 -3.70014 5.31971 0
M  V30 8238 N 753.831 -1.1567 -1.07043 0
M  V30 8239 C 755.059 -0.957471 -1.83412 0
M  V30 8240 C 755.474 0.494271 -1.82215 0
M  V30 8241 O 754.831 1.34288 -1.23584 0
M  V30 8242 C 754.882 -1.46784 -3.30359 0
M  V30 8243 O 754.603 -2.86271 -3.31633 0
M  V30 8244 C 756.104 -1.31054 -4.23485 0
M  V30 8245 H 753.324 -0.33986 -0.578564 0
M  V30 8246 H 755.868 -1.53518 -1.35102 0
M  V30 8247 H 754.023 -0.932586 -3.76007 0
M  V30 8248 H 754.437 -3.0948 -4.23465 0
M  V30 8249 H 755.911 -1.71605 -5.24648 0
M  V30 8250 H 756.388 -0.255107 -4.38458 0
M  V30 8251 H 756.994 -1.83503 -3.83676 0
M  V30 8252 N 755.309 1.25446 -0.953992 0
M  V30 8253 C 756.239 2.28264 -0.491717 0
M  V30 8254 C 757.22 1.63717 0.461617 0
M  V30 8255 O 758.405 1.90821 0.36071 0
M  V30 8256 C 755.535 3.46525 0.231915 0
M  V30 8257 C 754.489 4.23247 -0.636098 0
M  V30 8258 C 753.815 5.34254 0.218238 0
M  V30 8259 C 755.115 4.85971 -1.91389 0
M  V30 8260 H 756.809 2.67183 -1.35106 0
M  V30 8261 H 754.355 1.2844 -0.651095 0
M  V30 8262 H 756.308 4.17576 0.566439 0
M  V30 8263 H 755.032 3.06594 1.12551 0
M  V30 8264 H 753.691 3.53978 -0.953696 0
M  V30 8265 H 753.339 4.90564 1.11156 0
M  V30 8266 H 753.039 5.86501 -0.359232 0
M  V30 8267 H 754.563 6.08138 0.547743 0
M  V30 8268 H 755.977 5.49168 -1.64581 0
M  V30 8269 H 754.374 5.48391 -2.43696 0
M  V30 8270 H 755.444 4.08192 -2.61738 0
M  V30 8271 N 756.787 0.722489 1.40064 0
M  V30 8272 C 758.012 0.273446 2.05589 0
M  V30 8273 C 758.437 -1.07875 1.54093 0
M  V30 8274 O 757.795 -1.68095 0.679252 0
M  V30 8275 C 757.843 0.271023 3.5958 0
M  V30 8276 O 756.947 -0.745499 4.05606 0
M  V30 8277 H 756.288 0.126856 0.65177 0
M  V30 8278 H 758.818 0.984906 1.79334 0
M  V30 8279 H 758.828 0.111084 4.07849 0
M  V30 8280 H 757.503 1.25776 3.96425 0
M  V30 8281 H 756.08 -0.552719 3.68781 0
M  V30 8282 N 758.265 -1.50454 0.469181 0
M  V30 8283 C 759.542 -1.9504 -0.147955 0
M  V30 8284 C 759.922 -1.40946 -1.57154 0
M  V30 8285 O 759.27 -0.609663 -2.20217 0
M  V30 8286 C 759.48 -3.48875 -0.0932198 0
M  V30 8287 C 760.828 -4.23655 -0.283056 0
M  V30 8288 O 761.852 -3.55795 -0.169892 0
M  V30 8289 O 760.711 -5.44102 -0.511396 0
M  V30 8290 H 757.805 -0.819283 -0.11271 0
M  V30 8291 H 760.351 -1.6123 0.529446 0
M  V30 8292 H 759.123 -3.80791 0.900784 0
M  V30 8293 H 758.746 -3.89217 -0.812161 0
M  V30 8294 N 759.743 -0.201713 -1.56304 0
M  V30 8295 C 760.973 0.440084 -2.01858 0
M  V30 8296 C 761.381 1.55279 -1.08098 0
M  V30 8297 O 760.724 1.83529 -0.0792216 0
M  V30 8298 C 760.786 1.05091 -3.43797 0
M  V30 8299 C 760.45 0.0761208 -4.56937 0
M  V30 8300 C 761.447 -0.716951 -5.14933 0
M  V30 8301 C 759.132 -0.0368815 -5.02286 0
M  V30 8302 C 761.126 -1.60993 -6.16733 0
M  V30 8303 C 758.813 -0.933409 -6.03929 0
M  V30 8304 C 759.811 -1.71849 -6.61027 0
M  V30 8305 O 759.499 -2.59998 -7.60695 0
M  V30 8306 H 759.231 0.114139 -0.666294 0
M  V30 8307 H 761.785 -0.309672 -2.03052 0
M  V30 8308 H 760.015 1.84938 -3.3961 0
M  V30 8309 H 761.704 1.59804 -3.73118 0
M  V30 8310 H 762.47 -0.63999 -4.80759 0
M  V30 8311 H 758.349 0.564034 -4.57537 0
M  V30 8312 H 761.893 -2.22315 -6.61227 0
M  V30 8313 H 757.79 -1.01146 -6.37526 0
M  V30 8314 H 758.558 -2.53851 -7.7814 0
M  V30 8315 N 761.222 1.57436 0.0718424 0
M  V30 8316 C 762.17 2.04725 1.10411 0
M  V30 8317 C 763.164 0.952579 1.4008 0
M  V30 8318 O 764.37 1.13769 1.39487 0
M  V30 8319 H 760.745 0.652749 0.373393 0
M  V30 8320 H 762.716 2.90569 0.679126 0
M  V30 8321 C 761.465 2.5068 2.40946 0
M  V30 8322 H 760.788 3.34505 2.18967 0
M  V30 8323 H 762.228 2.87521 3.11621 0
M  V30 8324 C 760.687 1.38971 3.06902 0
M  V30 8325 O 761.217 0.731786 3.94978 0
M  V30 8326 N 759.423 1.13485 2.67525 0
M  V30 8327 H 758.97 1.67168 1.95991 0
M  V30 8328 H 758.928 0.389467 3.11978 0
M  V30 8329 N 762.7 -0.34323 1.53817 0
M  V30 8330 C 763.949 -1.08086 1.70295 0
M  V30 8331 C 764.262 -1.89794 0.47302 0
M  V30 8332 O 765.468 -2.66498 0.518754 0
M  V30 8333 C 763.924 -1.97097 3.01133 0
M  V30 8334 C 763.532 -1.20594 4.31464 0
M  V30 8335 C 765.276 -2.70715 3.26976 0
M  V30 8336 C 763.183 -2.08636 5.53376 0
M  V30 8337 H 762.113 -0.407228 0.634572 0
M  V30 8338 H 764.764 -0.340328 1.80316 0
M  V30 8339 H 763.146 -2.74971 2.84969 0
M  V30 8340 H 764.32 -0.476282 4.58332 0
M  V30 8341 H 762.635 -0.587426 4.12236 0
M  V30 8342 H 765.232 -3.36857 4.15248 0
M  V30 8343 H 765.575 -3.37299 2.43998 0
M  V30 8344 H 766.108 -1.99914 3.43917 0
M  V30 8345 H 762.847 -1.46594 6.38898 0
M  V30 8346 H 762.367 -2.7939 5.30755 0
M  V30 8347 H 764.046 -2.67682 5.89029 0
M  V30 8348 N 764.178 -1.45556 -0.604258 0
M  V30 8349 C 765.11 -1.50494 -1.72871 0
M  V30 8350 C 766.123 -0.395368 -1.57926 0
M  V30 8351 O 767.312 -0.662603 -1.65746 0
M  V30 8352 C 764.412 -1.34874 -3.10906 0
M  V30 8353 C 763.585 -2.59564 -3.52058 0
M  V30 8354 C 762.644 -2.38453 -4.6907 0
M  V30 8355 O 761.67 -3.12082 -4.76018 0
M  V30 8356 N 762.872 -1.43229 -5.62553 0
M  V30 8357 H 765.637 -2.4744 -1.69097 0
M  V30 8358 H 763.198 -1.41338 -0.789636 0
M  V30 8359 H 765.19 -1.18556 -3.86945 0
M  V30 8360 H 763.76 -0.461913 -3.09168 0
M  V30 8361 H 762.98 -2.90974 -2.65946 0
M  V30 8362 H 764.268 -3.42441 -3.76313 0
M  V30 8363 H 763.666 -0.824714 -5.59656 0
M  V30 8364 H 762.223 -1.32882 -6.38111 0
M  V30 8365 N 765.656 0.84705 -1.32902 0
M  V30 8366 C 766.603 1.95624 -1.22473 0
M  V30 8367 C 767.573 1.65767 -0.105178 0
M  V30 8368 O 768.758 1.88704 -0.282042 0
M  V30 8369 C 765.898 3.31434 -0.961542 0
M  V30 8370 C 765.011 3.73741 -2.1666 0
M  V30 8371 C 764.146 4.98379 -1.83825 0
M  V30 8372 C 763.185 5.33199 -3.00609 0
M  V30 8373 N 762.322 6.49014 -2.67816 0
M  V30 8374 H 767.162 2.03875 -2.17345 0
M  V30 8375 H 764.699 0.997764 -1.08088 0
M  V30 8376 H 766.657 4.09663 -0.789411 0
M  V30 8377 H 765.287 3.22762 -0.0495938 0
M  V30 8378 H 764.339 2.91102 -2.44875 0
M  V30 8379 H 765.651 3.95462 -3.03993 0
M  V30 8380 H 764.805 5.84336 -1.63208 0
M  V30 8381 H 763.544 4.78611 -0.937172 0
M  V30 8382 H 762.549 4.4575 -3.21849 0
M  V30 8383 H 763.774 5.5492 -3.9146 0
M  V30 8384 H 761.72 6.30748 -1.80258 0
M  V30 8385 H 761.637 6.7079 -3.48679 0
M  V30 8386 H 762.905 7.38103 -2.50647 0
M  V30 8387 N 767.134 1.16236 1.06428 0
M  V30 8388 C 768.044 0.881976 2.1739 0
M  V30 8389 C 769.06 -0.145259 1.73393 0
M  V30 8390 O 770.236 0.0310558 2.01376 0
M  V30 8391 C 767.301 0.385496 3.4455 0
M  V30 8392 C 766.362 1.47779 4.03063 0
M  V30 8393 C 765.595 1.0049 5.24154 0
M  V30 8394 O 765.818 -0.145889 5.70213 0
M  V30 8395 O 764.752 1.79265 5.74585 0
M  V30 8396 H 768.578 1.80983 2.43883 0
M  V30 8397 H 766.163 0.942226 1.15942 0
M  V30 8398 H 768.045 0.115536 4.21242 0
M  V30 8399 H 766.72 -0.514369 3.19587 0
M  V30 8400 H 765.627 1.80147 3.27869 0
M  V30 8401 H 766.96 2.35291 4.32318 0
M  V30 8402 N 768.612 -1.24939 0.960631 0
M  V30 8403 C 769.837 -1.9742 0.635608 0
M  V30 8404 C 770.262 -1.70857 -0.786737 0
M  V30 8405 O 769.62 -0.968063 -1.53291 0
M  V30 8406 C 769.668 -3.48987 0.907771 0
M  V30 8407 O 768.772 -4.12399 -0.0104053 0
M  V30 8408 H 768.113 -0.61871 0.241027 0
M  V30 8409 H 770.643 -1.58901 1.28886 0
M  V30 8410 H 770.653 -3.99334 0.836453 0
M  V30 8411 H 769.328 -3.6765 1.94439 0
M  V30 8412 H 767.905 -3.72727 0.113631 0
M  V30 8413 N 770.09 -0.729906 -1.39679 0
M  V30 8414 C 771.318 -0.285709 -2.04918 0
M  V30 8415 C 771.733 1.07765 -1.55023 0
M  V30 8416 O 771.09 1.67999 -0.712923 0
M  V30 8417 C 771.141 -0.272793 -3.60469 0
M  V30 8418 O 770.862 -1.58233 -4.08527 0
M  V30 8419 C 772.363 0.188199 -4.429 0
M  V30 8420 H 769.583 -0.125758 -0.65911 0
M  V30 8421 H 772.127 -0.992129 -1.78821 0
M  V30 8422 H 770.282 0.384699 -3.85485 0
M  V30 8423 H 770.696 -1.49245 -5.02818 0
M  V30 8424 H 772.17 0.14608 -5.51807 0
M  V30 8425 H 772.647 1.2326 -4.21549 0
M  V30 8426 H 773.253 -0.439541 -4.23023 0
M  V30 8427 N 771.568 1.50203 -0.477153 0
M  V30 8428 C 772.498 2.31517 0.303646 0
M  V30 8429 C 773.479 1.38696 0.984753 0
M  V30 8430 O 774.664 1.67615 0.980758 0
M  V30 8431 C 771.794 3.18598 1.38249 0
M  V30 8432 C 770.748 4.2002 0.822645 0
M  V30 8433 C 770.074 4.95878 2.00024 0
M  V30 8434 C 771.374 5.22023 -0.170185 0
M  V30 8435 H 773.068 2.97042 -0.375027 0
M  V30 8436 H 770.614 1.42848 -0.181802 0
M  V30 8437 H 772.567 3.74282 1.93625 0
M  V30 8438 H 771.291 2.5097 2.09002 0
M  V30 8439 H 769.95 3.65445 0.290813 0
M  V30 8440 H 769.598 4.24717 2.69489 0
M  V30 8441 H 769.298 5.64487 1.63183 0
M  V30 8442 H 770.822 5.54399 2.55878 0
M  V30 8443 H 772.236 5.72543 0.294606 0
M  V30 8444 H 770.633 5.98386 -0.453181 0
M  V30 8445 H 771.703 4.72396 -1.09408 0
M  V30 8446 N 773.046 0.209999 1.56195 0
M  V30 8447 C 773.996 -0.717978 2.164 0
M  V30 8448 C 774.98 -1.16577 1.10899 0
M  V30 8449 O 776.172 -1.12169 1.3692 0
M  V30 8450 C 773.301 -1.93091 2.8385 0
M  V30 8451 C 772.387 -1.50333 3.96561 0
M  V30 8452 N 772.778 -0.787621 4.9963 0
M  V30 8453 C 771.076 -1.79151 4.08437 0
M  V30 8454 C 771.777 -0.571204 5.78889 0
M  V30 8455 N 770.753 -1.12444 5.31843 0
M  V30 8456 H 774.555 -0.162603 2.9345 0
M  V30 8457 H 772.069 0.0107928 1.62396 0
M  V30 8458 H 774.066 -2.60635 3.25384 0
M  V30 8459 H 772.726 -2.49087 2.08293 0
M  V30 8460 H 773.737 -0.441513 5.16015 0
M  V30 8461 H 770.414 -2.36549 3.44022 0
M  V30 8462 H 771.804 -0.00237941 6.719 0
M  V30 8463 N 774.524 -1.57472 -0.0634922 0
M  V30 8464 C 775.454 -2.07297 -1.07473 0
M  V30 8465 C 776.435 -0.968162 -1.39859 0
M  V30 8466 O 777.62 -1.24139 -1.49343 0
M  V30 8467 C 774.75 -2.52381 -2.38581 0
M  V30 8468 C 773.704 -3.66813 -2.20526 0
M  V30 8469 C 773.03 -3.97982 -3.57092 0
M  V30 8470 C 774.33 -4.96553 -1.61965 0
M  V30 8471 H 776.024 -2.92033 -0.660092 0
M  V30 8472 H 773.57 -1.40488 -0.316074 0
M  V30 8473 H 775.523 -2.85852 -3.09624 0
M  V30 8474 H 774.247 -1.64684 -2.8204 0
M  V30 8475 H 772.906 -3.33639 -1.51924 0
M  V30 8476 H 772.554 -3.07403 -3.98136 0
M  V30 8477 H 772.254 -4.7504 -3.45848 0
M  V30 8478 H 773.778 -4.33956 -4.29552 0
M  V30 8479 H 775.192 -5.28201 -2.22883 0
M  V30 8480 H 773.589 -5.7799 -1.61394 0
M  V30 8481 H 774.659 -4.81396 -0.581918 0
M  V30 8482 N 776.003 0.335068 -1.53997 0
M  V30 8483 C 777.249 1.07594 -1.71905 0
M  V30 8484 C 777.582 1.88039 -0.485264 0
M  V30 8485 O 776.857 1.87482 0.517752 0
M  V30 8486 C 777.14 2.01016 -2.98772 0
M  V30 8487 C 776.993 1.23977 -4.32377 0
M  V30 8488 C 778.312 3.0071 -3.21343 0
M  V30 8489 H 775.431 0.38976 -0.625505 0
M  V30 8490 H 778.073 0.353684 -1.86679 0
M  V30 8491 H 776.223 2.62603 -2.86307 0
M  V30 8492 H 777.895 0.649383 -4.56706 0
M  V30 8493 H 776.138 0.541878 -4.30402 0
M  V30 8494 H 776.809 1.92512 -5.17342 0
M  V30 8495 H 779.285 2.4924 -3.33194 0
M  V30 8496 H 778.161 3.63272 -4.11491 0
M  V30 8497 H 778.422 3.72549 -2.38033 0
M  V30 8498 N 777.481 1.45874 0.596531 0
M  V30 8499 C 778.411 1.5824 1.71705 0
M  V30 8500 C 779.392 0.433366 1.64487 0
M  V30 8501 O 780.577 0.657895 1.82717 0
M  V30 8502 C 777.707 1.55927 3.10329 0
M  V30 8503 C 776.661 2.69659 3.32367 0
M  V30 8504 C 775.987 2.52403 4.71377 0
M  V30 8505 C 777.287 4.11591 3.21544 0
M  V30 8506 H 778.981 2.52035 1.61613 0
M  V30 8507 H 776.527 1.21297 0.776082 0
M  V30 8508 H 778.48 1.63173 3.88526 0
M  V30 8509 H 777.204 0.586674 3.21288 0
M  V30 8510 H 775.863 2.61859 2.56564 0
M  V30 8511 H 775.511 1.53258 4.79083 0
M  V30 8512 H 775.211 3.28679 4.87077 0
M  V30 8513 H 776.735 2.6152 5.5176 0
M  V30 8514 H 778.149 4.20576 3.89601 0
M  V30 8515 H 776.546 4.88344 3.4877 0
M  V30 8516 H 777.616 4.32719 2.1882 0
M  V30 8517 N 778.959 -0.83999 1.33349 0
M  V30 8518 C 780.375 -1.13049 1.12659 0
M  V30 8519 C 780.575 -2.01328 -0.0832613 0
M  V30 8520 O 779.631 -2.40669 -0.763856 0
M  V30 8521 C 780.944 -1.79366 2.41347 0
M  V30 8522 C 782.492 -1.91937 2.47243 0
M  V30 8523 C 782.967 -2.6167 3.75889 0
M  V30 8524 N 784.458 -2.69184 3.76954 0
M  V30 8525 C 785.193 -3.23827 4.73206 0
M  V30 8526 N 784.689 -3.79166 5.79832 0
M  V30 8527 N 786.482 -3.22068 4.60683 0
M  V30 8528 H 778.633 -0.252432 2.10895 0
M  V30 8529 H 780.896 -0.174501 0.931801 0
M  V30 8530 H 780.602 -1.2196 3.29877 0
M  V30 8531 H 780.476 -2.79396 2.53412 0
M  V30 8532 H 782.863 -2.48498 1.59163 0
M  V30 8533 H 782.944 -0.908604 2.39119 0
M  V30 8534 H 782.588 -2.05769 4.64351 0
M  V30 8535 H 782.518 -3.63217 3.81289 0
M  V30 8536 H 785.009 -2.2994 2.99893 0
M  V30 8537 H 785.322 -4.19061 6.49313 0
M  V30 8538 H 783.667 -3.77457 5.83568 0
M  V30 8539 H 786.858 -2.78092 3.7654 0
M  V30 8540 H 787.031 -3.64351 5.35866 0
M  V30 8541 N 780.437 -1.16799 -1.0581 0
M  V30 8542 C 781.367 -0.902241 -2.15364 0
M  V30 8543 C 782.348 0.153351 -1.69407 0
M  V30 8544 O 783.533 0.00442032 -1.94199 0
M  V30 8545 C 780.663 -0.407911 -3.44896 0
M  V30 8546 C 779.617 -1.40197 -4.04387 0
M  V30 8547 C 778.943 -0.765848 -5.29187 0
M  V30 8548 C 780.243 -2.77316 -4.42598 0
M  V30 8549 H 781.937 -1.81841 -2.37853 0
M  V30 8550 H 779.483 -0.875731 -1.14311 0
M  V30 8551 H 781.436 -0.20945 -4.20879 0
M  V30 8552 H 780.16 0.54378 -3.22041 0
M  V30 8553 H 778.819 -1.58707 -3.30466 0
M  V30 8554 H 778.467 0.192482 -5.02632 0
M  V30 8555 H 778.167 -1.42939 -5.69949 0
M  V30 8556 H 779.691 -0.577519 -6.07863 0
M  V30 8557 H 781.105 -2.62561 -5.09642 0
M  V30 8558 H 779.502 -3.4019 -4.94359 0
M  V30 8559 H 780.572 -3.32199 -3.53231 0
M  V30 8560 N 781.915 1.24427 -0.967243 0
M  V30 8561 C 783.331 1.44684 -0.6737 0
M  V30 8562 C 783.531 1.86429 0.764625 0
M  V30 8563 O 782.587 2.00211 1.53857 0
M  V30 8564 C 783.9 2.509 -1.6574 0
M  V30 8565 C 785.448 2.64728 -1.66998 0
M  V30 8566 C 785.923 3.7414 -2.64165 0
M  V30 8567 N 787.414 3.81567 -2.62604 0
M  V30 8568 C 788.149 4.6575 -3.34462 0
M  V30 8569 N 787.645 5.54124 -4.15835 0
M  V30 8570 N 789.438 4.59827 -3.23288 0
M  V30 8571 H 781.589 0.956276 -1.89655 0
M  V30 8572 H 783.852 0.48171 -0.816492 0
M  V30 8573 H 783.558 2.27113 -2.68538 0
M  V30 8574 H 783.432 3.4905 -1.42981 0
M  V30 8575 H 785.819 2.87872 -0.649121 0
M  V30 8576 H 785.9 1.66936 -1.93819 0
M  V30 8577 H 785.544 3.51745 -3.66384 0
M  V30 8578 H 785.474 4.71444 -2.34623 0
M  V30 8579 H 787.965 3.18403 -2.03539 0
M  V30 8580 H 788.278 6.15316 -4.67553 0
M  V30 8581 H 786.623 5.53791 -4.19929 0
M  V30 8582 H 789.814 3.898 -2.59179 0
M  V30 8583 H 789.987 5.25208 -3.79553 0
M  V30 8584 N 783.393 0.737304 1.3929 0
M  V30 8585 C 784.641 0.285691 2.00071 0
M  V30 8586 C 784.962 -1.13169 1.58801 0
M  V30 8587 O 784.232 -1.77104 0.837308 0
M  V30 8588 H 782.812 0.102638 0.739915 0
M  V30 8589 H 785.474 0.947775 1.70303 0
M  V30 8590 H 784.57 0.335906 3.10287 0
M  V30 8591 N 784.871 -1.49948 0.485112 0
M  V30 8592 C 786.119 -2.01996 -0.0648775 0
M  V30 8593 C 786.44 -1.36819 -1.38945 0
M  V30 8594 O 785.71 -0.518163 -1.88923 0
M  V30 8595 H 784.29 -0.746513 -0.0269662 0
M  V30 8596 H 786.952 -1.84136 0.638733 0
M  V30 8597 H 786.048 -3.11418 -0.20617 0
M  V30 8598 N 786.349 -0.21828 -1.56081 0
M  V30 8599 C 787.282 0.733096 -2.16104 0
M  V30 8600 C 788.26 1.19333 -1.10447 0
M  V30 8601 O 789.444 1.27666 -1.38685 0
M  V30 8602 C 786.571 1.99283 -2.73868 0
M  V30 8603 C 785.617 1.67285 -3.92324 0
M  V30 8604 S 786.45 0.800511 -5.29483 0
M  V30 8605 C 787.606 2.06988 -5.90683 0
M  V30 8606 H 787.839 0.222917 -2.96463 0
M  V30 8607 H 785.372 -0.00300946 -1.544 0
M  V30 8608 H 787.33 2.71618 -3.07789 0
M  V30 8609 H 785.991 2.47414 -1.93508 0
M  V30 8610 H 785.184 2.60874 -4.31232 0
M  V30 8611 H 784.786 1.03016 -3.59533 0
M  V30 8612 H 787.078 3.02019 -6.06457 0
M  V30 8613 H 788.021 1.72476 -6.86773 0
M  V30 8614 H 788.429 2.20893 -5.19487 0
M  V30 8615 N 787.827 1.57504 0.0551401 0
M  V30 8616 C 788.759 2.0158 1.09078 0
M  V30 8617 C 789.772 0.92434 1.34014 0
M  V30 8618 O 790.961 1.20202 1.31961 0
M  V30 8619 C 788.061 2.35385 2.43818 0
M  V30 8620 C 787.234 3.66588 2.38605 0
M  V30 8621 C 786.293 3.87874 3.55585 0
M  V30 8622 O 785.319 4.59259 3.36258 0
M  V30 8623 N 786.521 3.31503 4.76536 0
M  V30 8624 H 789.286 2.91039 0.71529 0
M  V30 8625 H 786.847 1.60058 0.243532 0
M  V30 8626 H 788.839 2.46784 3.20749 0
M  V30 8627 H 787.409 1.51731 2.73307 0
M  V30 8628 H 786.629 3.65787 1.46947 0
M  V30 8629 H 787.917 4.52706 2.32239 0
M  V30 8630 H 787.315 2.73592 4.9514 0
M  V30 8631 H 785.872 3.48324 5.50921 0
M  V30 8632 N 789.305 -0.326896 1.54172 0
M  V30 8633 C 790.554 -1.06274 1.71431 0
M  V30 8634 C 790.867 -1.89282 0.493123 0
M  V30 8635 O 792.073 -2.65933 0.54699 0
M  V30 8636 C 790.529 -1.93892 3.03206 0
M  V30 8637 C 790.137 -1.16011 4.32719 0
M  V30 8638 C 791.881 -2.67232 3.29829 0
M  V30 8639 C 789.788 -2.02755 5.55558 0
M  V30 8640 H 788.718 -0.400475 0.638855 0
M  V30 8641 H 791.369 -0.321184 1.80667 0
M  V30 8642 H 789.751 -2.71933 2.87869 0
M  V30 8643 H 790.925 -0.427643 4.58811 0
M  V30 8644 H 789.24 -0.54367 4.12836 0
M  V30 8645 H 791.837 -3.32434 4.18798 0
M  V30 8646 H 792.18 -3.34692 2.47562 0
M  V30 8647 H 792.713 -1.96255 3.46018 0
M  V30 8648 H 789.452 -1.3981 6.40417 0
M  V30 8649 H 788.972 -2.73745 5.33689 0
M  V30 8650 H 790.651 -2.61419 5.91835 0
M  V30 8651 N 790.784 -1.46188 -0.588786 0
M  V30 8652 C 792.031 -1.51184 -1.34721 0
M  V30 8653 C 792.359 -0.161084 -1.93832 0
M  V30 8654 O 791.614 0.842557 -1.76634 0
M  V30 8655 C 791.913 -2.55364 -2.50048 0
M  V30 8656 C 791.579 -3.99553 -2.08969 0
M  V30 8657 C 790.241 -4.38811 -1.9748 0
M  V30 8658 C 792.593 -4.90156 -1.77191 0
M  V30 8659 C 789.921 -5.66544 -1.52463 0
M  V30 8660 C 792.273 -6.1832 -1.33654 0
M  V30 8661 C 790.937 -6.5649 -1.20738 0
M  V30 8662 H 790.207 -0.55322 -0.49298 0
M  V30 8663 H 792.854 -1.79634 -0.663627 0
M  V30 8664 H 791.159 -2.20552 -3.23827 0
M  V30 8665 H 792.856 -2.5646 -3.08268 0
M  V30 8666 H 789.446 -3.68518 -2.18843 0
M  V30 8667 H 793.63 -4.60549 -1.84955 0
M  V30 8668 H 788.886 -5.94895 -1.411 0
M  V30 8669 H 793.06 -6.87956 -1.08117 0
M  V30 8670 H 790.687 -7.55362 -0.856307 0
M  V30 8671 N 792.262 0.832906 -1.33792 0
M  V30 8672 C 793.508 1.59089 -1.25772 0
M  V30 8673 C 793.841 1.93414 0.174601 0
M  V30 8674 O 793.116 1.59195 1.11746 0
M  V30 8675 C 793.399 2.89699 -2.13885 0
M  V30 8676 C 793.252 2.62017 -3.65605 0
M  V30 8677 C 794.571 3.91182 -2.01654 0
M  V30 8678 H 791.69 0.577232 -0.458227 0
M  V30 8679 H 794.332 0.960227 -1.6395 0
M  V30 8680 H 792.482 3.4352 -1.81456 0
M  V30 8681 H 794.154 2.14582 -4.08353 0
M  V30 8682 H 792.397 1.95621 -3.87189 0
M  V30 8683 H 793.068 3.55112 -4.2261 0
M  V30 8684 H 795.544 3.46684 -2.30107 0
M  V30 8685 H 794.42 4.80391 -2.65548 0
M  V30 8686 H 794.681 4.30861 -0.990536 0
M  V30 8687 N 793.74 1.17359 1.05189 0
M  V30 8688 C 794.687 0.890325 2.12936 0
M  V30 8689 C 795.657 -0.165779 1.65271 0
M  V30 8690 O 796.842 -0.0285672 1.90779 0
M  V30 8691 C 793.982 0.409793 3.42658 0
M  V30 8692 C 793.095 1.53002 4.03998 0
M  V30 8693 C 792.23 1.00336 5.21638 0
M  V30 8694 C 791.269 2.09903 5.74984 0
M  V30 8695 N 790.406 1.58714 6.83926 0
M  V30 8696 H 795.246 1.81299 2.36505 0
M  V30 8697 H 792.783 0.904249 1.16025 0
M  V30 8698 H 794.741 0.112743 4.17048 0
M  V30 8699 H 793.371 -0.475915 3.19272 0
M  V30 8700 H 792.423 1.9428 3.27047 0
M  V30 8701 H 793.735 2.3564 4.39631 0
M  V30 8702 H 792.889 0.660158 6.03098 0
M  V30 8703 H 791.628 0.14642 4.8748 0
M  V30 8704 H 790.633 2.45081 4.92154 0
M  V30 8705 H 791.858 2.96013 6.1119 0
M  V30 8706 H 789.804 0.752915 6.51665 0
M  V30 8707 H 789.721 2.34959 7.18561 0
M  V30 8708 H 790.989 1.27287 7.69037 0
M  V30 8709 N 795.218 -1.23913 0.973828 0
M  V30 8710 C 796.446 -1.96195 0.656891 0
M  V30 8711 C 796.861 -1.72166 -0.774876 0
M  V30 8712 O 796.218 -1.0091 -1.52064 0
M  V30 8713 C 796.269 -3.49342 0.929638 0
M  V30 8714 O 795.99 -3.72553 2.30512 0
M  V30 8715 C 797.491 -4.38833 0.627739 0
M  V30 8716 H 794.711 -0.624841 0.244572 0
M  V30 8717 H 797.255 -1.57579 1.30343 0
M  V30 8718 H 795.41 -3.85999 0.329216 0
M  V30 8719 H 795.824 -4.66893 2.3898 0
M  V30 8720 H 797.298 -5.45117 0.868991 0
M  V30 8721 H 797.775 -4.37009 -0.438104 0
M  V30 8722 H 798.381 -4.07773 1.20834 0
M  V30 8723 N 796.696 -0.74468 -1.38897 0
M  V30 8724 C 797.626 -0.126355 -2.33158 0
M  V30 8725 C 798.607 0.713517 -1.54412 0
M  V30 8726 O 799.792 0.656523 -1.82766 0
M  V30 8727 C 796.922 0.774375 -3.38557 0
M  V30 8728 C 795.876 0.0379214 -4.27983 0
M  V30 8729 C 795.202 1.05631 -5.24162 0
M  V30 8730 C 796.502 -1.12523 -5.10035 0
M  V30 8731 H 798.196 -0.913744 -2.85116 0
M  V30 8732 H 795.742 -0.440847 -1.37086 0
M  V30 8733 H 797.695 1.21655 -4.03458 0
M  V30 8734 H 796.419 1.59399 -2.85061 0
M  V30 8735 H 795.078 -0.384733 -3.64576 0
M  V30 8736 H 794.726 1.86975 -4.66958 0
M  V30 8737 H 794.426 0.568261 -5.84846 0
M  V30 8738 H 795.95 1.49799 -5.9194 0
M  V30 8739 H 797.364 -0.761037 -5.68226 0
M  V30 8740 H 795.761 -1.54355 -5.79909 0
M  V30 8741 H 796.831 -1.94237 -4.44297 0
M  V30 8742 N 798.174 1.49689 -0.493057 0
M  V30 8743 C 799.402 2.06836 0.0513141 0
M  V30 8744 C 799.817 1.35436 1.31539 0
M  V30 8745 O 799.174 0.430248 1.77356 0
M  V30 8746 C 799.225 3.60107 0.317003 0
M  V30 8747 O 798.946 4.2882 -0.896957 0
M  V30 8748 C 800.447 4.33945 0.905902 0
M  V30 8749 H 797.667 0.670787 -0.0169048 0
M  V30 8750 H 800.211 1.92574 -0.688139 0
M  V30 8751 H 798.366 3.74099 1.00642 0
M  V30 8752 H 798.78 5.20395 -0.654939 0
M  V30 8753 H 800.254 5.42087 1.04144 0
M  V30 8754 H 800.731 3.95895 1.90168 0
M  V30 8755 H 801.337 4.2454 0.254195 0
M  V30 8756 N 799.652 0.226554 1.55963 0
M  V30 8757 C 800.9 -0.402991 1.98041 0
M  V30 8758 C 801.221 -1.59938 1.11557 0
M  V30 8759 O 800.491 -1.9494 0.193719 0
M  V30 8760 H 799.071 -0.15188 0.731397 0
M  V30 8761 H 801.733 0.320613 1.92245 0
M  V30 8762 H 800.829 -0.725937 3.0354 0
M  V30 8763 N 801.13 -1.57531 -0.0467866 0
M  V30 8764 C 802.077 -2.05387 -1.05285 0
M  V30 8765 C 803.047 -0.939385 -1.36985 0
M  V30 8766 O 804.232 -1.20877 -1.47626 0
M  V30 8767 C 801.372 -2.52343 -2.35408 0
M  V30 8768 C 800.485 -3.77512 -2.10022 0
M  V30 8769 C 799.62 -4.1315 -3.33887 0
M  V30 8770 C 798.659 -5.31286 -3.03976 0
M  V30 8771 N 797.796 -5.62441 -4.20243 0
M  V30 8772 H 802.636 -2.91095 -0.637788 0
M  V30 8773 H 800.173 -1.43939 -0.303322 0
M  V30 8774 H 802.131 -2.77628 -3.11413 0
M  V30 8775 H 800.761 -1.69577 -2.7467 0
M  V30 8776 H 799.813 -3.59417 -1.24594 0
M  V30 8777 H 801.125 -4.63644 -1.83945 0
M  V30 8778 H 800.279 -4.39469 -4.18273 0
M  V30 8779 H 799.018 -3.25634 -3.63062 0
M  V30 8780 H 798.023 -5.04738 -2.17991 0
M  V30 8781 H 799.248 -6.20441 -2.76098 0
M  V30 8782 H 797.194 -4.77885 -4.49402 0
M  V30 8783 H 797.111 -6.43046 -3.97528 0
M  V30 8784 H 798.379 -5.93327 -5.05553 0
M  V30 8785 N 802.608 0.318715 -1.54344 0
M  V30 8786 C 803.836 1.0755 -1.7675 0
M  V30 8787 C 804.251 1.81543 -0.518422 0
M  V30 8788 O 803.608 1.75198 0.511078 0
M  V30 8789 C 803.659 2.06983 -2.96378 0
M  V30 8790 O 803.38 1.35995 -4.16458 0
M  V30 8791 C 804.881 2.94841 -3.31034 0
M  V30 8792 H 802.101 0.319711 -0.589937 0
M  V30 8793 H 804.645 0.363369 -2.01246 0
M  V30 8794 H 802.8 2.73724 -2.74142 0
M  V30 8795 H 803.214 2.02623 -4.83781 0
M  V30 8796 H 804.688 3.60496 -4.18027 0
M  V30 8797 H 805.165 3.62199 -2.48412 0
M  V30 8798 H 805.771 2.33656 -3.55366 0
M  V30 8799 N 804.086 1.46499 0.581025 0
M  V30 8800 C 805.335 1.51162 1.3354 0
M  V30 8801 C 805.648 0.168433 1.94873 0
M  V30 8802 O 806.854 0.092883 2.71341 0
M  V30 8803 C 805.31 2.66362 2.42032 0
M  V30 8804 C 804.918 4.07109 1.86994 0
M  V30 8805 C 806.662 2.80297 3.188 0
M  V30 8806 C 804.569 5.13645 2.93125 0
M  V30 8807 H 803.499 0.562576 0.502021 0
M  V30 8808 H 806.15 1.72713 0.619863 0
M  V30 8809 H 804.532 2.38143 3.16392 0
M  V30 8810 H 805.706 4.45125 1.19166 0
M  V30 8811 H 804.021 3.97854 1.22887 0
M  V30 8812 H 806.618 3.5706 3.9801 0
M  V30 8813 H 806.961 1.87875 3.71495 0
M  V30 8814 H 807.494 3.0817 2.51547 0
M  V30 8815 H 804.233 6.07866 2.45315 0
M  V30 8816 H 803.753 4.80172 3.59437 0
M  V30 8817 H 805.432 5.39562 3.57046 0
M  V30 8818 N 805.565 -0.825799 1.34232 0
M  V30 8819 C 806.793 -1.61363 1.29497 0
M  V30 8820 C 807.208 -1.88341 -0.131536 0
M  V30 8821 O 806.565 -1.47279 -1.07773 0
M  V30 8822 C 806.616 -2.95623 2.08061 0
M  V30 8823 O 806.337 -2.69824 3.45147 0
M  V30 8824 C 807.838 -3.90032 2.10688 0
M  V30 8825 H 805.058 -0.501676 0.445603 0
M  V30 8826 H 807.602 -1.02767 1.76803 0
M  V30 8827 H 805.757 -3.50785 1.64404 0
M  V30 8828 H 806.171 -3.55412 3.85723 0
M  V30 8829 H 807.645 -4.81411 2.70087 0
M  V30 8830 H 808.122 -4.25188 1.10052 0
M  V30 8831 H 808.728 -3.40807 2.54422 0
M  V30 8832 N 807.043 -1.17915 -1.04565 0
M  V30 8833 C 807.973 -0.925033 -2.14395 0
M  V30 8834 C 808.954 0.135375 -1.6956 0
M  V30 8835 O 810.139 -0.0161774 -1.94193 0
M  V30 8836 C 807.269 -0.444469 -3.44444 0
M  V30 8837 C 806.223 -1.44478 -4.02877 0
M  V30 8838 C 805.549 -0.821933 -5.28345 0
M  V30 8839 C 806.849 -2.81995 -4.39632 0
M  V30 8840 H 808.543 -1.84354 -2.35911 0
M  V30 8841 H 806.089 -0.887806 -1.13375 0
M  V30 8842 H 808.042 -0.254078 -4.20633 0
M  V30 8843 H 806.766 0.509592 -3.226 0
M  V30 8844 H 805.425 -1.62203 -3.28764 0
M  V30 8845 H 805.073 0.139161 -5.02807 0
M  V30 8846 H 804.773 -1.48976 -5.68401 0
M  V30 8847 H 806.297 -0.641959 -6.07216 0
M  V30 8848 H 807.711 -2.67952 -5.06828 0
M  V30 8849 H 806.108 -3.45414 -4.90723 0
M  V30 8850 H 807.178 -3.35927 -3.49687 0
M  V30 8851 N 808.521 1.23394 -0.980386 0
M  V30 8852 C 809.431 2.28561 -0.528864 0
M  V30 8853 C 810.447 1.68946 0.416329 0
M  V30 8854 O 811.623 1.99355 0.286251 0
M  V30 8855 C 808.688 3.46323 0.16155 0
M  V30 8856 C 807.749 4.21297 -0.825044 0
M  V30 8857 C 806.982 5.33437 -0.167483 0
M  V30 8858 O 807.205 5.60812 1.04146 0
M  V30 8859 O 806.139 5.95637 -0.866047 0
M  V30 8860 H 809.965 2.69326 -1.40346 0
M  V30 8861 H 807.55 1.29325 -0.748019 0
M  V30 8862 H 809.432 4.17811 0.548841 0
M  V30 8863 H 808.107 3.0751 1.01092 0
M  V30 8864 H 807.014 3.52134 -1.26303 0
M  V30 8865 H 808.347 4.6396 -1.64322 0
M  V30 8866 N 809.999 0.752036 1.385 0
M  V30 8867 C 811.245 0.307958 2.00448 0
M  V30 8868 C 811.578 -1.10702 1.59558 0
M  V30 8869 O 810.853 -1.75788 0.832391 0
M  V30 8870 C 811.136 0.429092 3.57534 0
M  V30 8871 C 810.989 1.88507 4.08393 0
M  V30 8872 C 812.308 -0.178442 4.39738 0
M  V30 8873 H 809.427 0.113373 0.728228 0
M  V30 8874 H 812.069 0.951389 1.64465 0
M  V30 8875 H 810.219 -0.118695 3.88319 0
M  V30 8876 H 811.891 2.49104 3.88259 0
M  V30 8877 H 810.134 2.40066 3.61318 0
M  V30 8878 H 810.805 1.92099 5.17496 0
M  V30 8879 H 813.281 0.28872 4.15097 0
M  V30 8880 H 812.157 -0.0634349 5.48863 0
M  V30 8881 H 812.418 -1.26655 4.23569 0
M  V30 8882 N 811.477 -1.49425 0.500989 0
M  V30 8883 C 812.387 -2.32899 -0.282011 0
M  V30 8884 C 813.403 -1.44632 -0.967346 0
M  V30 8885 O 814.579 -1.77654 -0.94873 0
M  V30 8886 C 811.644 -3.20069 -1.33253 0
M  V30 8887 C 810.705 -4.24186 -0.660636 0
M  V30 8888 C 809.938 -5.07191 -1.6611 0
M  V30 8889 O 810.161 -4.91712 -2.89094 0
M  V30 8890 O 809.095 -5.8948 -1.21643 0
M  V30 8891 H 812.921 -3.01038 0.401224 0
M  V30 8892 H 810.506 -1.47079 0.262323 0
M  V30 8893 H 812.388 -3.74071 -1.94033 0
M  V30 8894 H 811.063 -2.54625 -1.9987 0
M  V30 8895 H 809.97 -3.74098 -0.0130959 0
M  V30 8896 H 811.303 -4.92186 -0.0369179 0
M  V30 8897 N 812.955 -0.234822 -1.55841 0
M  V30 8898 C 814.366 0.270588 -1.84729 0
M  V30 8899 C 814.717 1.58494 -1.15646 0
M  V30 8900 O 813.842 2.12071 -0.430667 0
M  V30 8901 C 814.437 0.497733 -3.35124 0
M  V30 8902 C 812.996 0.947428 -3.64281 0
M  V30 8903 C 812.143 0.01787 -2.77294 0
M  V30 8904 H 815.094 -0.457691 -1.51957 0
M  V30 8905 H 815.115 1.34199 -3.56049 0
M  V30 8906 H 814.627 -0.459037 -3.85376 0
M  V30 8907 H 812.728 1.91709 -3.19497 0
M  V30 8908 H 812.841 0.812651 -4.72158 0
M  V30 8909 H 811.205 0.527071 -2.49187 0
M  V30 8910 H 811.988 -0.934056 -3.30349 0
M  V30 8911 N 814.433 1.57553 0.0384317 0
M  V30 8912 C 815.658 1.93485 0.746872 0
M  V30 8913 C 816.083 0.834069 1.68597 0
M  V30 8914 O 815.441 -0.210902 1.80069 0
M  V30 8915 C 815.489 3.28463 1.4881 0
M  V30 8916 O 814.593 3.20051 2.60079 0
M  V30 8917 H 813.934 0.632675 0.201539 0
M  V30 8918 H 816.464 2.046 -0.00329815 0
M  V30 8919 H 816.474 3.63132 1.86009 0
M  V30 8920 H 815.149 4.08147 0.799297 0
M  V30 8921 H 813.726 2.96998 2.25492 0
M  V30 8922 N 815.911 -0.310526 1.54511 0
M  V30 8923 C 817.188 -1.06593 1.64004 0
M  V30 8924 C 817.568 -2.05519 0.482216 0
M  V30 8925 O 816.916 -2.22455 -0.52212 0
M  V30 8926 C 817.126 -1.75627 3.01589 0
M  V30 8927 C 818.474 -2.28173 3.58081 0
M  V30 8928 O 819.498 -1.85674 3.03979 0
M  V30 8929 O 818.357 -3.06015 4.52788 0
M  V30 8930 H 815.451 -0.492109 0.664649 0
M  V30 8931 H 817.997 -0.309374 1.66856 0
M  V30 8932 H 816.769 -1.03743 3.77297 0
M  V30 8933 H 816.392 -2.58061 3.02473 0
M  V30 8934 N 817.389 -1.46805 -0.573248 0
M  V30 8935 C 818.617 -1.56191 -1.3569 0
M  V30 8936 C 819.032 -0.206362 -1.87669 0
M  V30 8937 O 818.389 0.797883 -1.64134 0
M  V30 8938 C 818.44 -2.57433 -2.53792 0
M  V30 8939 O 818.161 -3.87724 -2.03965 0
M  V30 8940 C 819.662 -2.76851 -3.4622 0
M  V30 8941 H 816.882 -0.527907 -0.414192 0
M  V30 8942 H 819.426 -1.92292 -0.695989 0
M  V30 8943 H 817.581 -2.24311 -3.15854 0
M  V30 8944 H 817.995 -4.42909 -2.80948 0
M  V30 8945 H 819.469 -3.5159 -4.25545 0
M  V30 8946 H 819.946 -1.84095 -3.98755 0
M  V30 8947 H 820.552 -3.11107 -2.89987 0
M  V30 8948 N 818.867 0.818669 -1.34668 0
M  V30 8949 C 820.116 1.57017 -1.26604 0
M  V30 8950 C 820.429 1.94936 0.161036 0
M  V30 8951 O 821.635 2.69051 0.36386 0
M  V30 8952 C 820.091 2.83305 -2.2196 0
M  V30 8953 C 819.699 2.52671 -3.69948 0
M  V30 8954 C 821.443 3.61324 -2.22813 0
M  V30 8955 C 819.35 3.75178 -4.5716 0
M  V30 8956 H 818.28 0.589323 -0.470335 0
M  V30 8957 H 820.931 0.900956 -1.59859 0
M  V30 8958 H 819.313 3.51874 -1.81661 0
M  V30 8959 H 820.487 1.92186 -4.18809 0
M  V30 8960 H 818.802 1.8792 -3.71584 0
M  V30 8961 H 821.399 4.52294 -2.85192 0
M  V30 8962 H 821.742 3.97759 -1.22857 0
M  V30 8963 H 822.275 2.99703 -2.61578 0
M  V30 8964 H 819.014 3.43861 -5.58068 0
M  V30 8965 H 818.534 4.34931 -4.13031 0
M  V30 8966 H 820.213 4.42542 -4.71981 0
M  V30 8967 N 820.346 1.18468 1.03938 0
M  V30 8968 C 821.256 0.927889 2.1547 0
M  V30 8969 C 822.272 -0.108447 1.73662 0
M  V30 8970 O 823.448 0.0737636 2.01265 0
M  V30 8971 C 820.513 0.458494 3.43655 0
M  V30 8972 C 819.574 1.56295 3.99838 0
M  V30 8973 C 818.807 1.11586 5.21904 0
M  V30 8974 O 819.03 -0.0249057 5.70395 0
M  V30 8975 O 817.964 1.91412 5.70653 0
M  V30 8976 H 821.79 1.86116 2.39989 0
M  V30 8977 H 819.375 0.966607 1.13917 0
M  V30 8978 H 821.257 0.204861 4.20902 0
M  V30 8979 H 819.932 -0.446464 3.20606 0
M  V30 8980 H 818.839 1.87061 3.23974 0
M  V30 8981 H 820.172 2.44408 4.2723 0
M  V30 8982 N 821.824 -1.22873 0.986916 0
M  V30 8983 C 822.772 -2.26597 0.525043 0
M  V30 8984 C 823.766 -1.64079 -0.421252 0
M  V30 8985 O 824.972 -1.77576 -0.294429 0
M  V30 8986 H 821.347 -0.736606 0.151381 0
M  V30 8987 H 823.318 -2.62909 1.41142 0
M  V30 8988 C 822.067 -3.47374 -0.150542 0
M  V30 8989 H 821.39 -3.95737 0.568541 0
M  V30 8990 H 822.83 -4.21739 -0.437256 0
M  V30 8991 C 821.289 -3.07163 -1.38392 0
M  V30 8992 O 821.819 -3.16028 -2.47971 0
M  V30 8993 N 820.025 -2.62009 -1.25697 0
M  V30 8994 H 819.572 -2.54996 -0.365355 0
M  V30 8995 H 819.53 -2.35472 -2.08327 0
M  V30 8996 N 823.302 -0.75937 -1.38099 0
M  V30 8997 C 824.548 -0.318584 -2.00282 0
M  V30 8998 C 824.881 1.09854 -1.60143 0
M  V30 8999 O 824.156 1.75344 -0.841702 0
M  V30 9000 C 824.439 -0.448047 -3.57302 0
M  V30 9001 C 824.292 -1.9067 -4.07388 0
M  V30 9002 C 825.611 0.155119 -4.39827 0
M  V30 9003 H 822.73 -0.117233 -0.727616 0
M  V30 9004 H 825.372 -0.960097 -1.63958 0
M  V30 9005 H 823.522 0.0981003 -3.88376 0
M  V30 9006 H 825.194 -2.5116 -3.86932 0
M  V30 9007 H 823.437 -2.41979 -3.6004 0
M  V30 9008 H 824.108 -1.94841 -5.1647 0
M  V30 9009 H 826.584 -0.31073 -4.14938 0
M  V30 9010 H 825.46 0.0343264 -5.48889 0
M  V30 9011 H 825.721 1.24407 -4.24235 0
M  V30 9012 N 824.78 1.49157 -0.508906 0
M  V30 9013 C 825.727 2.2927 0.265288 0
M  V30 9014 C 826.697 1.3603 0.953162 0
M  V30 9015 O 827.882 1.64989 0.958291 0
M  V30 9016 C 825.022 3.18897 1.31904 0
M  V30 9017 C 824.135 4.27201 0.642144 0
M  V30 9018 C 823.27 5.04033 1.67701 0
M  V30 9019 C 822.309 6.04165 0.982422 0
M  V30 9020 N 821.446 6.74133 1.96186 0
M  V30 9021 H 826.286 2.94967 -0.424107 0
M  V30 9022 H 823.823 1.45431 -0.220991 0
M  V30 9023 H 825.781 3.69242 1.94206 0
M  V30 9024 H 824.411 2.55168 1.97709 0
M  V30 9025 H 823.463 3.80283 -0.0943395 0
M  V30 9026 H 824.775 4.98708 0.0957507 0
M  V30 9027 H 823.929 5.58287 2.37487 0
M  V30 9028 H 822.668 4.32317 2.25728 0
M  V30 9029 H 821.673 5.49135 0.270378 0
M  V30 9030 H 822.898 6.7787 0.408554 0
M  V30 9031 H 820.844 6.05183 2.53159 0
M  V30 9032 H 820.761 7.41643 1.46634 0
M  V30 9033 H 822.029 7.32987 2.65236 0
M  V30 9034 N 826.258 0.243083 1.55714 0
M  V30 9035 C 827.221 -0.644723 2.19945 0
M  V30 9036 C 828.221 -1.10562 1.16759 0
M  V30 9037 O 829.411 -1.01095 1.41865 0
M  V30 9038 C 826.543 -1.88569 2.83997 0
M  V30 9039 H 827.736 -0.0843839 2.99781 0
M  V30 9040 H 825.289 -0.00647246 1.56299 0
M  V30 9041 H 826.024 -2.48736 2.08089 0
M  V30 9042 H 825.809 -1.56345 3.59581 0
M  V30 9043 H 827.299 -2.51774 3.33166 0
M  V30 9044 N 827.736 -1.57571 -0.0300757 0
M  V30 9045 C 828.683 -2.06492 -1.03101 0
M  V30 9046 C 829.653 -0.953862 -1.3598 0
M  V30 9047 O 830.838 -1.22436 -1.46335 0
M  V30 9048 C 827.978 -2.54826 -2.32718 0
M  V30 9049 C 827.091 -3.79718 -2.06006 0
M  V30 9050 C 826.226 -4.16668 -3.29487 0
M  V30 9051 C 825.265 -5.3448 -2.98324 0
M  V30 9052 N 824.402 -5.66867 -4.14254 0
M  V30 9053 H 829.242 -2.91755 -0.606877 0
M  V30 9054 H 826.779 -1.44252 -0.288038 0
M  V30 9055 H 828.737 -2.80916 -3.08451 0
M  V30 9056 H 827.367 -1.72481 -2.72856 0
M  V30 9057 H 826.419 -3.60718 -1.20774 0
M  V30 9058 H 827.731 -4.65569 -1.79017 0
M  V30 9059 H 826.885 -4.43881 -4.13588 0
M  V30 9060 H 825.624 -3.29466 -3.59588 0
M  V30 9061 H 824.629 -5.07021 -2.12625 0
M  V30 9062 H 825.854 -6.23334 -2.69502 0
M  V30 9063 H 823.8 -4.82625 -4.44308 0
M  V30 9064 H 823.717 -6.47226 -3.90685 0
M  V30 9065 H 824.985 -5.98656 -4.99231 0
M  V30 9066 N 829.214 0.302327 -1.54673 0
M  V30 9067 C 830.463 1.03533 -1.73101 0
M  V30 9068 C 830.776 1.88473 -0.523174 0
M  V30 9069 O 831.982 2.65029 -0.589229 0
M  V30 9070 C 830.438 1.89043 -3.06252 0
M  V30 9071 C 830.046 1.09112 -4.3451 0
M  V30 9072 C 831.79 2.61951 -3.34039 0
M  V30 9073 C 829.697 1.93891 -5.58713 0
M  V30 9074 H 828.627 0.390261 -0.645145 0
M  V30 9075 H 831.278 0.2924 -1.81155 0
M  V30 9076 H 829.66 2.67319 -2.92159 0
M  V30 9077 H 830.834 0.354596 -4.59434 0
M  V30 9078 H 829.149 0.477923 -4.13648 0
M  V30 9079 H 831.746 3.25729 -4.24033 0
M  V30 9080 H 832.089 3.30711 -2.52855 0
M  V30 9081 H 832.622 1.90725 -3.49097 0
M  V30 9082 H 829.361 1.29604 -6.4256 0
M  V30 9083 H 828.881 2.6522 -5.37976 0
M  V30 9084 H 830.56 2.51971 -5.95919 0
M  V30 9085 N 830.692 1.47107 0.565454 0
M  V30 9086 C 831.624 1.55024 1.6882 0
M  V30 9087 C 832.637 0.4371 1.56822 0
M  V30 9088 O 833.826 0.706315 1.63931 0
M  V30 9089 C 830.926 1.43069 3.0722 0
M  V30 9090 C 830.099 2.68807 3.45053 0
M  V30 9091 C 829.158 2.50806 4.62583 0
M  V30 9092 O 828.184 3.24593 4.67577 0
M  V30 9093 N 829.386 1.58093 5.58558 0
M  V30 9094 H 832.151 2.51836 1.62477 0
M  V30 9095 H 829.712 1.43382 0.751885 0
M  V30 9096 H 831.704 1.28773 3.83666 0
M  V30 9097 H 830.274 0.543721 3.07835 0
M  V30 9098 H 829.494 2.97923 2.58138 0
M  V30 9099 H 830.782 3.52298 3.67101 0
M  V30 9100 H 830.18 0.972807 5.57273 0
M  V30 9101 H 828.737 1.49753 6.34364 0
M  V30 9102 N 832.17 -0.811516 1.35101 0
M  V30 9103 C 833.447 -1.55491 1.18667 0
M  V30 9104 C 833.827 -2.09775 -0.236189 0
M  V30 9105 O 833.175 -1.91989 -1.23905 0
M  V30 9106 C 833.385 -2.66732 2.25067 0
M  V30 9107 C 834.733 -3.35201 2.60625 0
M  V30 9108 O 835.757 -2.76998 2.23943 0
M  V30 9109 O 834.616 -4.40334 3.23679 0
M  V30 9110 H 831.71 -0.686783 0.460716 0
M  V30 9111 H 834.256 -0.851903 1.46768 0
M  V30 9112 H 833.028 -2.24457 3.20523 0
M  V30 9113 H 832.651 -3.44673 1.98208 0
M  V30 9114 N 833.648 -1.19017 -1.03309 0
M  V30 9115 C 834.595 -0.924088 -2.11493 0
M  V30 9116 C 835.565 0.139464 -1.65513 0
M  V30 9117 O 836.75 -0.00178761 -1.908 0
M  V30 9118 C 833.89 -0.464255 -3.41963 0
M  V30 9119 C 833.003 -1.5941 -4.01513 0
M  V30 9120 C 832.138 -1.08622 -5.19976 0
M  V30 9121 C 831.177 -2.19024 -5.71572 0
M  V30 9122 N 830.314 -1.69575 -6.81314 0
M  V30 9123 H 835.154 -1.85039 -2.33591 0
M  V30 9124 H 832.691 -0.922593 -1.14572 0
M  V30 9125 H 834.649 -0.179078 -4.16815 0
M  V30 9126 H 833.279 0.425062 -3.19989 0
M  V30 9127 H 832.331 -1.99458 -3.23915 0
M  V30 9128 H 833.643 -2.42604 -4.35826 0
M  V30 9129 H 832.797 -0.756022 -6.01971 0
M  V30 9130 H 831.536 -0.223955 -4.87186 0
M  V30 9131 H 830.541 -2.5288 -4.88193 0
M  V30 9132 H 831.766 -3.05699 -6.06403 0
M  V30 9133 H 829.712 -0.856494 -6.50385 0
M  V30 9134 H 829.629 -2.46361 -7.14732 0
M  V30 9135 H 830.897 -1.39505 -7.66915 0
M  V30 9136 N 835.127 1.22348 -0.993418 0
M  V30 9137 C 836.037 2.27987 -0.553076 0
M  V30 9138 C 837.053 1.69378 0.398386 0
M  V30 9139 O 838.229 1.99648 0.26509 0
M  V30 9140 C 835.294 3.46475 0.124809 0
M  V30 9141 C 834.355 4.20399 -0.869682 0
M  V30 9142 C 833.588 5.33229 -0.224052 0
M  V30 9143 O 833.811 5.61885 0.981915 0
M  V30 9144 O 832.745 5.94685 -0.929174 0
M  V30 9145 H 836.571 2.67822 -1.43195 0
M  V30 9146 H 834.156 1.28525 -0.761694 0
M  V30 9147 H 836.038 4.18369 0.504496 0
M  V30 9148 H 834.713 3.08565 0.978243 0
M  V30 9149 H 833.62 3.50774 -1.30031 0
M  V30 9150 H 834.953 4.62191 -1.69233 0
M  V30 9151 N 836.605 0.766683 1.37694 0
M  V30 9152 C 837.853 0.328065 1.9942 0
M  V30 9153 C 838.174 -1.09775 1.61166 0
M  V30 9154 O 837.444 -1.75288 0.874686 0
M  V30 9155 H 836.024 0.11831 0.737572 0
M  V30 9156 H 838.686 0.983686 1.68255 0
M  V30 9157 H 837.782 0.401647 3.09505 0
M  V30 9158 N 838.083 -1.48885 0.516809 0
M  V30 9159 C 839.332 -2.01686 -0.0239899 0
M  V30 9160 C 839.645 -1.40029 -1.3657 0
M  V30 9161 O 840.851 -1.84249 -1.9941 0
M  V30 9162 C 839.307 -3.59779 -0.0931825 0
M  V30 9163 C 838.915 -4.30416 1.24283 0
M  V30 9164 C 840.659 -4.20471 -0.583507 0
M  V30 9165 C 838.566 -5.80408 1.13494 0
M  V30 9166 H 837.496 -0.753892 -0.0127376 0
M  V30 9167 H 840.147 -1.71273 0.65861 0
M  V30 9168 H 838.529 -3.86976 -0.840577 0
M  V30 9169 H 839.703 -4.14905 2.00476 0
M  V30 9170 H 838.018 -3.81539 1.66785 0
M  V30 9171 H 840.615 -5.30333 -0.681987 0
M  V30 9172 H 840.958 -3.84898 -1.58617 0
M  V30 9173 H 841.491 -3.97654 0.107814 0
M  V30 9174 H 838.23 -6.20532 2.11235 0
M  V30 9175 H 837.75 -5.98368 0.414167 0
M  V30 9176 H 839.429 -6.41781 0.820162 0
M  V30 9177 N 839.561 -0.251338 -1.55583 0
M  V30 9178 C 840.972 0.25098 -1.85005 0
M  V30 9179 C 841.323 1.57259 -1.17321 0
M  V30 9180 O 840.448 2.11603 -0.453136 0
M  V30 9181 C 841.043 0.462161 -3.35633 0
M  V30 9182 C 839.602 0.908737 -3.65266 0
M  V30 9183 C 838.749 -0.0115418 -2.77298 0
M  V30 9184 H 841.7 -0.473782 -1.51463 0
M  V30 9185 H 841.721 1.30415 -3.57452 0
M  V30 9186 H 841.233 -0.499886 -3.84867 0
M  V30 9187 H 839.334 1.8831 -3.21512 0
M  V30 9188 H 839.447 0.762526 -4.72993 0
M  V30 9189 H 837.811 0.500612 -2.49732 0
M  V30 9190 H 838.594 -0.969042 -3.29339 0
M  V30 9191 N 841.039 1.57585 0.0217189 0
M  V30 9192 C 842.45 1.7787 0.567377 0
M  V30 9193 C 842.801 0.883337 1.7519 0
M  V30 9194 O 841.926 0.0800819 2.16252 0
M  V30 9195 C 842.521 3.2257 1.03606 0
M  V30 9196 C 841.08 3.44026 1.52718 0
M  V30 9197 C 840.227 2.73313 0.468545 0
M  V30 9198 H 843.178 1.57377 -0.2045 0
M  V30 9199 H 843.199 3.29488 1.9031 0
M  V30 9200 H 842.711 3.87711 0.173739 0
M  V30 9201 H 840.812 2.8407 2.41111 0
M  V30 9202 H 840.925 4.52659 1.56962 0
M  V30 9203 H 839.289 2.37299 0.925263 0
M  V30 9204 H 840.072 3.41141 -0.384438 0
M  V30 9205 N 842.517 -0.29412 1.54831 0
M  V30 9206 C 843.794 -1.04847 1.65126 0
M  V30 9207 C 844.174 -2.04996 0.503986 0
M  V30 9208 O 843.522 -2.22996 -0.498496 0
M  V30 9209 C 843.732 -1.72418 3.03435 0
M  V30 9210 C 845.08 -2.24362 3.60481 0
M  V30 9211 O 846.104 -1.8244 3.05932 0
M  V30 9212 O 844.963 -3.01196 4.56008 0
M  V30 9213 H 842.057 -0.485032 0.669831 0
M  V30 9214 H 844.603 -0.291659 1.67175 0
M  V30 9215 H 843.375 -0.997351 3.78376 0
M  V30 9216 H 842.998 -2.54839 3.05193 0
M  V30 9217 N 843.995 -1.47404 -0.557645 0
M  V30 9218 C 844.927 -1.55917 -1.67995 0
M  V30 9219 C 845.94 -0.445411 -1.56588 0
M  V30 9220 O 847.129 -0.714999 -1.63554 0
M  V30 9221 C 844.229 -1.44697 -3.06457 0
M  V30 9222 C 843.402 -2.70633 -3.43622 0
M  V30 9223 C 842.461 -2.53256 -4.61246 0
M  V30 9224 O 841.487 -3.27068 -4.65849 0
M  V30 9225 N 842.689 -1.61053 -5.57711 0
M  V30 9226 H 845.454 -2.52694 -1.61139 0
M  V30 9227 H 843.015 -1.43778 -0.744271 0
M  V30 9228 H 845.007 -1.30806 -3.82978 0
M  V30 9229 H 843.577 -0.560039 -3.07542 0
M  V30 9230 H 842.797 -2.99288 -2.56555 0
M  V30 9231 H 844.085 -3.5424 -3.65228 0
M  V30 9232 H 843.483 -1.00235 -5.56749 0
M  V30 9233 H 842.04 -1.53115 -6.33561 0
M  V30 9234 N 845.473 0.80434 -1.35529 0
M  V30 9235 C 846.405 1.92445 -1.2449 0
M  V30 9236 C 847.418 1.61934 -0.167685 0
M  V30 9237 O 848.607 1.73461 -0.42115 0
M  V30 9238 C 845.707 3.26875 -0.894751 0
M  V30 9239 C 844.88 3.85275 -2.07079 0
M  V30 9240 C 843.939 4.98116 -1.69607 0
M  V30 9241 O 842.965 5.15424 -2.41509 0
M  V30 9242 N 844.167 5.77169 -0.621012 0
M  V30 9243 H 846.932 2.02441 -2.20993 0
M  V30 9244 H 844.493 0.981874 -1.28728 0
M  V30 9245 H 846.485 3.99837 -0.625511 0
M  V30 9246 H 845.055 3.12594 -0.0193306 0
M  V30 9247 H 844.275 3.0448 -2.5037 0
M  V30 9248 H 845.563 4.21024 -2.85685 0
M  V30 9249 H 844.961 5.65695 -0.0236679 0
M  V30 9250 H 843.518 6.50499 -0.411558 0
M  V30 9251 N 846.951 1.19563 1.02676 0
M  V30 9252 C 848.367 0.948304 1.28372 0
M  V30 9253 C 848.567 -0.378096 1.97921 0
M  V30 9254 O 847.623 -1.1091 2.26838 0
M  V30 9255 C 848.936 2.12381 2.12873 0
M  V30 9256 C 850.484 2.16366 2.26174 0
M  V30 9257 C 850.959 3.33374 3.14048 0
M  V30 9258 N 852.45 3.33323 3.21636 0
M  V30 9259 C 853.185 4.20504 3.89825 0
M  V30 9260 N 852.681 5.17845 4.60227 0
M  V30 9261 N 854.474 4.08375 3.86246 0
M  V30 9262 H 846.625 2.04899 0.559485 0
M  V30 9263 H 848.888 0.89606 0.309484 0
M  V30 9264 H 848.594 3.08383 1.69094 0
M  V30 9265 H 848.468 2.09621 3.1359 0
M  V30 9266 H 850.855 1.20933 2.69182 0
M  V30 9267 H 850.936 2.23179 1.25 0
M  V30 9268 H 850.58 4.29087 2.71747 0
M  V30 9269 H 850.51 3.23798 4.15286 0
M  V30 9270 H 853.001 2.62863 2.71498 0
M  V30 9271 H 853.314 5.80712 5.09896 0
M  V30 9272 H 851.659 5.21791 4.59085 0
M  V30 9273 H 854.85 3.31606 3.30386 0
M  V30 9274 H 855.023 4.76532 4.39114 0
M  V30 9275 N 848.429 -1.21819 0.999893 0
M  V30 9276 C 849.359 -2.26282 0.576096 0
M  V30 9277 C 850.34 -1.65317 -0.400537 0
M  V30 9278 O 851.525 -1.92028 -0.28964 0
M  V30 9279 C 848.655 -3.47147 -0.103145 0
M  V30 9280 C 847.609 -4.20594 0.792745 0
M  V30 9281 C 846.935 -5.34696 -0.0198026 0
M  V30 9282 C 848.235 -4.78533 2.09293 0
M  V30 9283 H 849.929 -2.61984 1.4493 0
M  V30 9284 H 847.475 -1.25935 0.698316 0
M  V30 9285 H 849.428 -4.1939 -0.411068 0
M  V30 9286 H 848.152 -3.1056 -1.01094 0
M  V30 9287 H 846.811 -3.50194 1.08442 0
M  V30 9288 H 846.459 -4.94352 -0.928729 0
M  V30 9289 H 846.159 -5.84764 0.576661 0
M  V30 9290 H 847.683 -6.09752 -0.321659 0
M  V30 9291 H 849.097 -5.42682 1.8485 0
M  V30 9292 H 847.494 -5.38968 2.63881 0
M  V30 9293 H 848.564 -3.98197 2.76708 0
M  V30 9294 N 849.908 -0.773975 -1.37286 0
M  V30 9295 C 851.157 -0.335977 -1.98882 0
M  V30 9296 C 851.47 1.09416 -1.62134 0
M  V30 9297 O 852.676 1.63366 -2.1685 0
M  V30 9298 C 851.132 -0.549756 -3.55676 0
M  V30 9299 C 850.74 -1.9903 -4.01361 0
M  V30 9300 C 852.484 -0.175493 -4.24137 0
M  V30 9301 C 850.391 -2.15156 -5.50874 0
M  V30 9302 H 849.321 -0.121877 -0.744085 0
M  V30 9303 H 851.972 -0.953419 -1.56787 0
M  V30 9304 H 850.354 0.137175 -3.95762 0
M  V30 9305 H 851.528 -2.71237 -3.72515 0
M  V30 9306 H 849.843 -2.32137 -3.4569 0
M  V30 9307 H 852.44 -0.274463 -5.33995 0
M  V30 9308 H 852.783 0.874524 -4.07011 0
M  V30 9309 H 853.316 -0.815058 -3.89361 0
M  V30 9310 H 850.055 -3.18485 -5.72929 0
M  V30 9311 H 849.575 -1.47435 -5.81397 0
M  V30 9312 H 851.254 -1.95124 -6.16876 0
M  V30 9313 N 851.386 1.48609 -0.524698 0
M  V30 9314 C 852.633 2.02497 0.0113214 0
M  V30 9315 C 852.961 1.40229 1.34781 0
M  V30 9316 O 852.216 0.53557 1.88229 0
M  V30 9317 C 852.515 3.56906 0.187873 0
M  V30 9318 C 852.181 4.37932 -1.07359 0
M  V30 9319 C 850.843 4.59792 -1.41933 0
M  V30 9320 C 853.195 4.84902 -1.911 0
M  V30 9321 C 850.523 5.25868 -2.60154 0
M  V30 9322 C 852.875 5.52281 -3.08495 0
M  V30 9323 C 851.539 5.7238 -3.4342 0
M  V30 9324 H 850.809 0.740988 0.0041428 0
M  V30 9325 H 853.456 1.78651 -0.689652 0
M  V30 9326 H 851.761 3.79563 0.971572 0
M  V30 9327 H 853.458 3.96218 0.617443 0
M  V30 9328 H 850.048 4.21175 -0.794331 0
M  V30 9329 H 854.232 4.67821 -1.65701 0
M  V30 9330 H 849.488 5.39628 -2.87422 0
M  V30 9331 H 853.662 5.87645 -3.73692 0
M  V30 9332 H 851.289 6.23354 -4.35126 0
M  V30 9333 N 852.864 0.259585 1.55447 0
M  V30 9334 C 853.827 -0.621359 2.20617 0
M  V30 9335 C 854.827 -1.09317 1.17925 0
M  V30 9336 O 856.017 -0.995842 1.42929 0
M  V30 9337 C 853.149 -1.85546 2.85982 0
M  V30 9338 H 854.342 -0.0525833 2.99854 0
M  V30 9339 H 851.895 0.0101055 1.56297 0
M  V30 9340 H 852.63 -2.46515 2.10715 0
M  V30 9341 H 852.415 -1.52523 3.61219 0
M  V30 9342 H 853.905 -2.48227 3.35817 0
M  V30 9343 N 854.342 -1.57594 -0.0133615 0
M  V30 9344 C 855.59 -1.89605 -0.699596 0
M  V30 9345 C 855.911 -0.85926 -1.75048 0
M  V30 9346 O 855.181 0.105112 -1.95618 0
M  V30 9347 H 853.761 -0.699776 -0.261385 0
M  V30 9348 H 856.423 -1.94885 0.0244044 0
M  V30 9349 H 855.519 -2.88962 -1.17928 0
M  V30 9350 N 855.82 0.285905 -1.54985 0
M  V30 9351 C 856.767 1.35306 -1.86978 0
M  V30 9352 C 857.737 1.49682 -0.720046 0
M  V30 9353 O 858.922 1.64297 -0.970107 0
M  V30 9354 C 856.062 2.71059 -2.13591 0
M  V30 9355 C 855.175 2.6501 -3.41165 0
M  V30 9356 C 854.31 3.92856 -3.57544 0
M  V30 9357 C 853.349 3.81266 -4.78855 0
M  V30 9358 N 852.486 5.00919 -4.9196 0
M  V30 9359 H 857.326 1.07323 -2.78003 0
M  V30 9360 H 854.863 0.518776 -1.37649 0
M  V30 9361 H 856.821 3.50026 -2.27019 0
M  V30 9362 H 855.451 2.97271 -1.25816 0
M  V30 9363 H 854.503 1.77824 -3.36278 0
M  V30 9364 H 855.815 2.52342 -4.30262 0
M  V30 9365 H 854.969 4.80263 -3.70718 0
M  V30 9366 H 853.708 4.08377 -2.66608 0
M  V30 9367 H 852.713 2.92243 -4.65698 0
M  V30 9368 H 853.938 3.67277 -5.71213 0
M  V30 9369 H 851.884 5.16875 -4.03951 0
M  V30 9370 H 851.801 4.90732 -5.75081 0
M  V30 9371 H 853.069 5.89935 -5.09507 0
M  V30 9372 N 857.298 1.47698 0.54982 0
M  V30 9373 C 858.23 1.56806 1.67166 0
M  V30 9374 C 859.243 0.453709 1.5635 0
M  V30 9375 O 860.432 0.723663 1.63173 0
M  V30 9376 C 857.532 1.4632 3.05686 0
M  V30 9377 C 856.705 2.72452 3.42182 0
M  V30 9378 C 855.764 2.55698 4.59897 0
M  V30 9379 O 854.79 3.29534 4.64108 0
M  V30 9380 N 855.992 1.64009 5.56849 0
M  V30 9381 H 858.757 2.53545 1.59797 0
M  V30 9382 H 856.318 1.44171 0.736635 0
M  V30 9383 H 858.31 1.32835 3.82279 0
M  V30 9384 H 856.88 0.57634 3.07241 0
M  V30 9385 H 856.1 3.00644 2.54964 0
M  V30 9386 H 857.388 3.56172 3.63344 0
M  V30 9387 H 856.786 1.03186 5.5621 0
M  V30 9388 H 855.343 1.56473 6.3274 0
M  V30 9389 N 858.776 -0.797141 1.35954 0
M  V30 9390 C 859.706 -1.92387 1.32323 0
M  V30 9391 C 860.687 -1.68967 0.196007 0
M  V30 9392 O 861.872 -1.90193 0.39245 0
M  V30 9393 C 859.002 -3.29286 1.10398 0
M  V30 9394 C 857.956 -3.67212 2.19862 0
M  V30 9395 C 857.282 -5.02377 1.8309 0
M  V30 9396 C 858.582 -3.76602 3.61896 0
M  V30 9397 H 860.276 -1.95683 2.26602 0
M  V30 9398 H 857.822 -0.94007 1.09081 0
M  V30 9399 H 859.775 -4.07721 1.06495 0
M  V30 9400 H 858.499 -3.26358 0.125668 0
M  V30 9401 H 857.158 -2.91069 2.22878 0
M  V30 9402 H 856.806 -4.95961 0.838527 0
M  V30 9403 H 856.506 -5.28722 2.56372 0
M  V30 9404 H 858.03 -5.8324 1.80729 0
M  V30 9405 H 859.444 -4.45246 3.6115 0
M  V30 9406 H 857.841 -4.14425 4.34018 0
M  V30 9407 H 858.911 -2.77906 3.97361 0
M  V30 9408 N 860.254 -1.20106 -1.0204 0
M  V30 9409 C 861.164 -0.962051 -2.13967 0
M  V30 9410 C 862.18 0.0808053 -1.73812 0
M  V30 9411 O 863.356 -0.105774 -2.01122 0
M  V30 9412 C 860.421 -0.513108 -3.42882 0
M  V30 9413 C 859.482 -1.62636 -3.97301 0
M  V30 9414 C 858.715 -1.19875 -5.20063 0
M  V30 9415 O 858.938 -0.0658423 -5.70362 0
M  V30 9416 O 857.872 -2.00467 -5.67536 0
M  V30 9417 H 861.698 -1.8991 -2.36998 0
M  V30 9418 H 859.283 -0.984608 -1.12365 0
M  V30 9419 H 861.165 -0.271797 -4.20523 0
M  V30 9420 H 859.84 0.395402 -3.21276 0
M  V30 9421 H 858.747 -1.92192 -3.20957 0
M  V30 9422 H 860.08 -2.51174 -4.23288 0
M  V30 9423 N 861.732 1.21287 -1.00634 0
M  V30 9424 C 863.009 1.86 -0.605257 0
M  V30 9425 C 863.389 1.90139 0.917072 0
M  V30 9426 O 862.737 1.40169 1.80458 0
M  V30 9427 C 862.947 3.26183 -1.24119 0
M  V30 9428 C 864.295 4.02562 -1.35015 0
M  V30 9429 O 865.319 3.35499 -1.19661 0
M  V30 9430 O 864.178 5.22638 -1.59726 0
M  V30 9431 H 861.272 0.800549 -0.207486 0
M  V30 9432 H 863.818 1.28959 -1.10307 0
M  V30 9433 H 862.59 3.17878 -2.28186 0
M  V30 9434 H 862.213 3.90845 -0.729807 0
M  V30 9435 N 863.21 0.781244 1.36873 0
M  V30 9436 C 864.458 0.349198 1.9906 0
M  V30 9437 C 864.779 -1.0806 1.62321 0
M  V30 9438 O 864.049 -1.74351 0.893229 0
M  V30 9439 H 862.629 0.126126 0.736275 0
M  V30 9440 H 865.291 1.00148 1.67202 0
M  V30 9441 H 864.387 0.434451 3.09061 0
M  V30 9442 N 864.689 -1.48329 0.532571 0
M  V30 9443 C 866.105 -1.58458 0.190605 0
M  V30 9444 C 866.305 -1.53427 -1.30623 0
M  V30 9445 O 865.361 -1.4247 -2.08467 0
M  V30 9446 C 866.674 -2.89989 0.79543 0
M  V30 9447 C 868.222 -3.03523 0.7644 0
M  V30 9448 C 868.697 -4.37718 1.34785 0
M  V30 9449 N 870.188 -4.44292 1.30993 0
M  V30 9450 C 870.923 -5.4664 1.73124 0
M  V30 9451 N 870.419 -6.5593 2.22997 0
M  V30 9452 N 872.212 -5.37538 1.64346 0
M  V30 9453 H 864.363 -1.49842 1.50537 0
M  V30 9454 H 866.626 -0.71164 0.626316 0
M  V30 9455 H 866.332 -2.99333 1.84642 0
M  V30 9456 H 866.206 -3.76203 0.27403 0
M  V30 9457 H 868.593 -2.93789 -0.277831 0
M  V30 9458 H 868.674 -2.18912 1.3233 0
M  V30 9459 H 868.318 -4.48206 2.38902 0
M  V30 9460 H 868.248 -5.21019 0.764609 0
M  V30 9461 H 870.739 -3.65897 0.944868 0
M  V30 9462 H 871.052 -7.30167 2.53133 0
M  V30 9463 H 869.397 -6.56886 2.26992 0
M  V30 9464 H 872.588 -4.51052 1.25178 0
M  V30 9465 H 872.761 -6.17169 1.97501 0
M  V30 9466 N 866.167 -0.267825 -1.55308 0
M  V30 9467 C 867.395 0.354587 -2.03839 0
M  V30 9468 C 867.81 1.50007 -1.14644 0
M  V30 9469 O 867.167 1.81752 -0.165055 0
M  V30 9470 C 867.218 0.84254 -3.51544 0
M  V30 9471 O 866.939 -0.257318 -4.37344 0
M  V30 9472 C 868.44 1.53351 -4.15931 0
M  V30 9473 H 865.66 0.0818131 -0.665994 0
M  V30 9474 H 868.204 -0.397795 -2.00594 0
M  V30 9475 H 866.359 1.54503 -3.55257 0
M  V30 9476 H 866.773 0.116593 -5.2437 0
M  V30 9477 H 868.247 1.82643 -5.20908 0
M  V30 9478 H 868.724 2.4626 -3.63666 0
M  V30 9479 H 869.33 0.87506 -4.162 0
M  V30 9480 N 867.645 1.57599 0.00500368 0
M  V30 9481 C 868.575 2.11143 0.99705 0
M  V30 9482 C 869.556 1.0194 1.3617 0
M  V30 9483 O 870.741 1.29596 1.44632 0
M  V30 9484 C 867.871 2.61062 2.2905 0
M  V30 9485 C 866.825 3.74745 2.0676 0
M  V30 9486 C 866.151 4.10961 3.42075 0
M  V30 9487 C 867.451 5.02222 1.43424 0
M  V30 9488 H 869.145 2.94281 0.551251 0
M  V30 9489 H 866.691 1.41565 0.263715 0
M  V30 9490 H 868.644 2.97146 2.98801 0
M  V30 9491 H 867.368 1.75038 2.75734 0
M  V30 9492 H 866.027 3.39047 1.39436 0
M  V30 9493 H 865.675 3.21968 3.86453 0
M  V30 9494 H 865.375 4.87549 3.27979 0
M  V30 9495 H 866.899 4.49599 4.1315 0
M  V30 9496 H 868.313 5.36109 2.03125 0
M  V30 9497 H 866.71 5.83581 1.39831 0
M  V30 9498 H 867.78 4.83224 0.40285 0
M  V30 9499 N 869.123 -0.277682 1.55134 0
M  V30 9500 C 870.348 -1.03254 1.7987 0
M  V30 9501 C 870.773 -1.79324 0.567861 0
M  V30 9502 O 870.131 -1.74764 -0.4824 0
M  V30 9503 C 870.179 -1.9705 3.02 0
M  V30 9504 O 869.283 -3.05744 2.76757 0
M  V30 9505 H 868.624 -0.295447 0.594649 0
M  V30 9506 H 871.154 -0.308013 2.02268 0
M  V30 9507 H 871.164 -2.3909 3.30606 0
M  V30 9508 H 869.839 -1.41094 3.91236 0
M  V30 9509 H 868.416 -2.68052 2.59235 0
M  V30 9510 N 870.601 -1.47988 -0.541979 0
M  V30 9511 C 871.878 -1.45878 -1.30303 0
M  V30 9512 C 872.258 -0.163931 -2.10463 0
M  V30 9513 O 871.606 0.854479 -2.11922 0
M  V30 9514 C 871.816 -2.71359 -2.19466 0
M  V30 9515 C 873.164 -3.19199 -2.79995 0
M  V30 9516 O 874.188 -2.72193 -2.2976 0
M  V30 9517 O 873.047 -4.00961 -3.71339 0
M  V30 9518 H 870.141 -0.582043 -0.587498 0
M  V30 9519 H 872.687 -1.60207 -0.559623 0
M  V30 9520 H 871.459 -3.57122 -1.59936 0
M  V30 9521 H 871.082 -2.59692 -3.01075 0
M  V30 9522 N 872.079 0.78992 -1.36375 0
M  V30 9523 C 873.309 1.57644 -1.33536 0
M  V30 9524 C 873.717 1.89007 0.0855075 0
M  V30 9525 O 873.06 1.50547 1.05267 0
M  V30 9526 C 873.122 2.92424 -2.09113 0
M  V30 9527 C 872.786 2.83793 -3.58205 0
M  V30 9528 C 873.783 2.56072 -4.52464 0
M  V30 9529 C 871.468 3.02386 -4.01084 0
M  V30 9530 C 873.462 2.47044 -5.87578 0
M  V30 9531 C 871.149 2.9298 -5.36289 0
M  V30 9532 C 872.147 2.65347 -6.29349 0
M  V30 9533 O 871.835 2.55935 -7.62071 0
M  V30 9534 H 871.567 0.495639 -0.459694 0
M  V30 9535 H 874.121 0.988354 -1.80058 0
M  V30 9536 H 872.351 3.53282 -1.57254 0
M  V30 9537 H 874.04 3.53693 -1.99139 0
M  V30 9538 H 874.806 2.4141 -4.2065 0
M  V30 9539 H 870.685 3.229 -3.29023 0
M  V30 9540 H 874.229 2.25396 -6.60184 0
M  V30 9541 H 870.126 3.07204 -5.67711 0
M  V30 9542 H 870.894 2.7142 -7.72187 0
M  V30 9543 N 873.557 1.20646 1.01402 0
M  V30 9544 C 874.505 0.954493 2.12114 0
M  V30 9545 C 875.499 -0.0950737 1.69133 0
M  V30 9546 O 876.705 0.0555153 1.79914 0
M  V30 9547 H 873.08 0.29135 0.693267 0
M  V30 9548 H 875.051 1.89447 2.30548 0
M  V30 9549 C 873.8 0.525944 3.43699 0
M  V30 9550 H 873.123 1.32516 3.772 0
M  V30 9551 H 874.563 0.388883 4.22213 0
M  V30 9552 C 873.022 -0.761997 3.28169 0
M  V30 9553 O 873.552 -1.81979 3.58115 0
M  V30 9554 N 871.758 -0.725017 2.8141 0
M  V30 9555 H 871.305 0.13607 2.5724 0
M  V30 9556 H 871.263 -1.5871 2.71401 0
M  V30 9557 N 875.035 -1.20752 1.01276 0
M  V30 9558 C 876.284 -1.8934 0.695229 0
M  V30 9559 C 876.597 -1.79459 -0.77806 0
M  V30 9560 O 877.803 -2.43146 -1.20799 0
M  V30 9561 C 876.259 -3.39548 1.1931 0
M  V30 9562 C 875.867 -3.58023 2.69302 0
M  V30 9563 C 877.611 -4.13714 0.950823 0
M  V30 9564 C 875.518 -5.02037 3.1259 0
M  V30 9565 H 874.448 -0.709084 0.25635 0
M  V30 9566 H 877.099 -1.36629 1.22494 0
M  V30 9567 H 875.481 -3.91559 0.591395 0
M  V30 9568 H 876.655 -3.16416 3.34989 0
M  V30 9569 H 874.97 -2.97222 2.9163 0
M  V30 9570 H 877.567 -5.19891 1.24971 0
M  V30 9571 H 877.91 -4.16147 -0.112791 0
M  V30 9572 H 878.443 -3.67792 1.51571 0
M  V30 9573 H 875.182 -5.04757 4.18211 0
M  V30 9574 H 874.702 -5.44469 2.51621 0
M  V30 9575 H 876.381 -5.70594 3.0501 0
M  V30 9576 N 876.513 -0.788492 -1.36457 0
M  V30 9577 C 877.445 -0.144208 -2.28746 0
M  V30 9578 C 878.458 0.646009 -1.49434 0
M  V30 9579 O 879.647 0.481344 -1.71888 0
M  V30 9580 C 876.747 0.818869 -3.28858 0
M  V30 9581 C 875.92 0.0789055 -4.37329 0
M  V30 9582 C 874.979 0.957791 -5.1741 0
M  V30 9583 O 874.005 0.415378 -5.67682 0
M  V30 9584 N 875.207 2.28216 -5.33758 0
M  V30 9585 H 877.972 -0.936949 -2.84678 0
M  V30 9586 H 875.533 -0.642317 -1.48613 0
M  V30 9587 H 877.525 1.41065 -3.79319 0
M  V30 9588 H 876.095 1.51249 -2.73573 0
M  V30 9589 H 875.315 -0.693939 -3.88044 0
M  V30 9590 H 876.603 -0.431753 -5.06965 0
M  V30 9591 H 876.001 2.747 -4.94527 0
M  V30 9592 H 874.558 2.8236 -5.87466 0
M  V30 9593 N 877.991 1.48044 -0.54043 0
M  V30 9594 C 878.938 2.29781 0.216597 0
M  V30 9595 C 879.908 1.38021 0.924094 0
M  V30 9596 O 881.093 1.66985 0.923078 0
M  V30 9597 C 878.233 3.21623 1.2511 0
M  V30 9598 C 877.346 4.28467 0.551384 0
M  V30 9599 C 876.481 5.07477 1.56972 0
M  V30 9600 C 875.52 6.06113 0.854048 0
M  V30 9601 N 874.657 6.78143 1.81842 0
M  V30 9602 H 879.497 2.94001 -0.486578 0
M  V30 9603 H 877.034 1.44929 -0.251789 0
M  V30 9604 H 878.992 3.73279 1.8633 0
M  V30 9605 H 877.622 2.59305 1.92252 0
M  V30 9606 H 876.674 3.79997 -0.174982 0
M  V30 9607 H 877.986 4.98799 -0.0100542 0
M  V30 9608 H 877.14 5.63199 2.25592 0
M  V30 9609 H 875.879 4.37008 2.16507 0
M  V30 9610 H 874.884 5.49585 0.153838 0
M  V30 9611 H 876.109 6.78584 0.264675 0
M  V30 9612 H 874.055 6.10417 2.40265 0
M  V30 9613 H 873.972 7.44587 1.3087 0
M  V30 9614 H 875.24 7.38448 2.49628 0
M  V30 9615 N 879.47 0.276058 1.55163 0
M  V30 9616 C 880.38 -0.621066 2.2623 0
M  V30 9617 C 881.396 -1.16931 1.28853 0
M  V30 9618 O 882.572 -1.1994 1.61791 0
M  V30 9619 C 879.637 -1.78824 2.97023 0
M  V30 9620 C 878.698 -1.27657 4.09881 0
M  V30 9621 C 877.931 -2.38812 4.77289 0
M  V30 9622 O 878.154 -3.58188 4.43912 0
M  V30 9623 O 877.088 -2.06915 5.65217 0
M  V30 9624 H 880.914 -0.0453346 3.03666 0
M  V30 9625 H 878.499 0.0434275 1.49337 0
M  V30 9626 H 880.381 -2.46877 3.41511 0
M  V30 9627 H 879.056 -2.35104 2.22503 0
M  V30 9628 H 877.963 -0.56248 3.69847 0
M  V30 9629 H 879.296 -0.759509 4.86305 0
M  V30 9630 N 880.948 -1.576 0.00335426 0
M  V30 9631 C 882.173 -1.95398 -0.695311 0
M  V30 9632 C 882.598 -0.878476 -1.66326 0
M  V30 9633 O 881.956 0.163086 -1.80565 0
M  V30 9634 C 882.004 -3.32293 -1.40049 0
M  V30 9635 O 881.108 -3.26834 -2.51502 0
M  V30 9636 H 880.449 -0.637796 -0.184694 0
M  V30 9637 H 882.979 -2.04519 0.057543 0
M  V30 9638 H 882.989 -3.67936 -1.76316 0
M  V30 9639 H 881.664 -4.10123 -0.690803 0
M  V30 9640 H 880.241 -3.02872 -2.17539 0
M  V30 9641 N 882.426 0.269451 -1.5528 0
M  V30 9642 C 883.654 1.01872 -1.80082 0
M  V30 9643 C 884.069 1.79802 -0.575917 0
M  V30 9644 O 883.426 1.76735 0.455081 0
M  V30 9645 C 883.477 1.9745 -3.02813 0
M  V30 9646 O 883.198 1.22677 -4.20573 0
M  V30 9647 C 884.699 2.8416 -3.40247 0
M  V30 9648 H 881.919 0.300781 -0.59981 0
M  V30 9649 H 884.463 0.29916 -2.023 0
M  V30 9650 H 882.618 2.64864 -2.82712 0
M  V30 9651 H 883.032 1.87129 -4.89982 0
M  V30 9652 H 884.506 3.47014 -4.29284 0
M  V30 9653 H 884.983 3.54113 -2.59809 0
M  V30 9654 H 885.589 2.22232 -3.6262 0
M  V30 9655 N 883.904 1.48273 0.534124 0
M  V30 9656 C 884.834 1.6538 1.64839 0
M  V30 9657 C 885.815 0.502741 1.62501 0
M  V30 9658 O 887 0.734799 1.79762 0
M  V30 9659 C 884.13 1.68949 3.03436 0
M  V30 9660 C 883.084 2.83513 3.20631 0
M  V30 9661 C 882.41 2.72169 4.60248 0
M  V30 9662 C 883.71 4.24858 3.03797 0
M  V30 9663 H 885.404 2.58663 1.50777 0
M  V30 9664 H 882.95 1.24479 0.723937 0
M  V30 9665 H 884.903 1.79505 3.81256 0
M  V30 9666 H 883.627 0.722415 3.1851 0
M  V30 9667 H 882.286 2.72505 2.45227 0
M  V30 9668 H 881.934 1.7344 4.72152 0
M  V30 9669 H 881.634 3.49042 4.72698 0
M  V30 9670 H 883.158 2.84687 5.40172 0
M  V30 9671 H 884.572 4.36721 3.71413 0
M  V30 9672 H 882.969 5.02697 3.27743 0
M  V30 9673 H 884.039 4.41611 2.0027 0
M  V30 9674 N 885.382 -0.782676 1.36792 0
M  V30 9675 C 886.332 -1.8855 1.28191 0
M  V30 9676 C 887.316 -1.59978 0.171984 0
M  V30 9677 O 888.508 -1.72295 0.405405 0
M  V30 9678 C 885.637 -3.25862 1.08021 0
M  V30 9679 C 884.723 -3.60422 2.2351 0
M  V30 9680 N 885.114 -3.66241 3.48857 0
M  V30 9681 C 883.412 -3.90523 2.15424 0
M  V30 9682 C 884.113 -3.97233 4.24948 0
M  V30 9683 N 883.089 -4.12567 3.53963 0
M  V30 9684 H 886.891 -1.91285 2.23131 0
M  V30 9685 H 884.405 -0.978554 1.29607 0
M  V30 9686 H 886.402 -4.04742 0.999458 0
M  V30 9687 H 885.062 -3.24399 0.139882 0
M  V30 9688 H 886.073 -3.48717 3.82906 0
M  V30 9689 H 882.75 -3.96945 1.29386 0
M  V30 9690 H 884.14 -4.08602 5.33379 0
M  V30 9691 N 886.86 -1.21182 -1.00761 0
M  V30 9692 C 887.79 -0.992773 -2.11344 0
M  V30 9693 C 888.771 0.0813618 -1.69905 0
M  V30 9694 O 889.956 -0.0779503 -1.94043 0
M  V30 9695 C 887.086 -0.553826 -3.42856 0
M  V30 9696 C 886.04 -1.57223 -3.98077 0
M  V30 9697 C 885.366 -0.989605 -5.25463 0
M  V30 9698 C 886.666 -2.95839 -4.30438 0
M  V30 9699 H 888.36 -1.91766 -2.29927 0
M  V30 9700 H 885.906 -0.923426 -1.10494 0
M  V30 9701 H 887.859 -0.387771 -4.19612 0
M  V30 9702 H 886.583 0.406702 -3.24058 0
M  V30 9703 H 885.242 -1.7258 -3.23437 0
M  V30 9704 H 884.89 -0.0208743 -5.02996 0
M  V30 9705 H 884.59 -1.66984 -5.63374 0
M  V30 9706 H 886.114 -0.834815 -6.04866 0
M  V30 9707 H 887.528 -2.8394 -4.98047 0
M  V30 9708 H 885.925 -3.60851 -4.79486 0
M  V30 9709 H 886.995 -3.46882 -3.38823 0
M  V30 9710 N 888.338 1.20213 -1.01915 0
M  V30 9711 C 889.584 1.89928 -0.711007 0
M  V30 9712 C 889.917 1.7881 0.75767 0
M  V30 9713 O 889.192 1.17399 1.55073 0
M  V30 9714 C 889.475 3.41225 -1.15053 0
M  V30 9715 C 889.328 3.61264 -2.67971 0
M  V30 9716 C 890.647 4.34108 -0.72377 0
M  V30 9717 H 887.766 0.689702 -0.259768 0
M  V30 9718 H 890.408 1.41557 -1.26734 0
M  V30 9719 H 888.558 3.82552 -0.677199 0
M  V30 9720 H 890.23 3.29173 -3.23176 0
M  V30 9721 H 888.473 3.04647 -3.08824 0
M  V30 9722 H 889.144 4.67331 -2.93779 0
M  V30 9723 H 891.62 4.00442 -1.13073 0
M  V30 9724 H 890.496 5.38581 -1.05931 0
M  V30 9725 H 890.757 4.40512 0.374424 0
M  V30 9726 N 889.816 0.795718 1.36037 0
M  V30 9727 C 890.746 0.212803 2.32528 0
M  V30 9728 C 891.727 -0.655716 1.56953 0
M  V30 9729 O 892.912 -0.588238 1.85077 0
M  V30 9730 C 890.042 -0.648189 3.41198 0
M  V30 9731 C 888.996 0.120948 4.27829 0
M  V30 9732 C 888.322 -0.861044 5.27722 0
M  V30 9733 C 889.622 1.31375 5.05508 0
M  V30 9734 H 891.316 1.01893 2.81528 0
M  V30 9735 H 888.862 0.491422 1.35355 0
M  V30 9736 H 890.815 -1.06597 4.07695 0
M  V30 9737 H 889.539 -1.48709 2.9078 0
M  V30 9738 H 888.198 0.519777 3.62897 0
M  V30 9739 H 887.846 -1.69515 4.73575 0
M  V30 9740 H 887.546 -0.350808 5.86552 0
M  V30 9741 H 889.07 -1.27726 5.97092 0
M  V30 9742 H 890.484 0.971406 5.6501 0
M  V30 9743 H 888.881 1.75772 5.73781 0
M  V30 9744 H 889.951 2.10593 4.36782 0
M  V30 9745 N 891.294 -1.47756 0.548274 0
M  V30 9746 C 892.71 -1.58247 0.207401 0
M  V30 9747 C 892.91 -1.54804 -1.28988 0
M  V30 9748 O 891.966 -1.44673 -2.06944 0
M  V30 9749 C 893.279 -2.89129 0.826142 0
M  V30 9750 C 894.827 -3.02695 0.79655 0
M  V30 9751 C 895.302 -4.36264 1.3942 0
M  V30 9752 N 896.793 -4.42877 1.35698 0
M  V30 9753 C 897.528 -5.44773 1.78913 0
M  V30 9754 N 897.024 -6.53528 2.29942 0
M  V30 9755 N 898.817 -5.35765 1.70038 0
M  V30 9756 H 890.968 -1.48236 1.52117 0
M  V30 9757 H 893.231 -0.704957 0.633829 0
M  V30 9758 H 892.937 -2.97358 1.87806 0
M  V30 9759 H 892.811 -3.75891 0.313916 0
M  V30 9760 H 895.198 -2.94067 -0.246655 0
M  V30 9761 H 895.279 -2.17496 1.34644 0
M  V30 9762 H 894.923 -4.45646 2.43642 0
M  V30 9763 H 894.853 -5.20179 0.819827 0
M  V30 9764 H 897.344 -3.64874 0.983623 0
M  V30 9765 H 897.657 -7.27441 2.60863 0
M  V30 9766 H 896.002 -6.54442 2.33947 0
M  V30 9767 H 899.193 -4.49699 1.29955 0
M  V30 9768 H 899.366 -6.1504 2.04035 0
M  V30 9769 N 892.772 -0.284283 -1.55015 0
M  V30 9770 C 893.702 0.592663 -2.25853 0
M  V30 9771 C 894.683 1.15151 -1.25197 0
M  V30 9772 O 895.868 1.18395 -1.53936 0
M  V30 9773 C 892.998 1.77254 -2.98661 0
M  V30 9774 C 891.952 1.34482 -4.06323 0
M  V30 9775 C 891.278 2.60853 -4.66754 0
M  V30 9776 C 892.578 0.488288 -5.20013 0
M  V30 9777 H 894.272 0.00187041 -2.994 0
M  V30 9778 H 891.818 -0.000540402 -1.44 0
M  V30 9779 H 893.771 2.39199 -3.46932 0
M  V30 9780 H 892.495 2.38931 -2.22664 0
M  V30 9781 H 891.154 0.748519 -3.58877 0
M  V30 9782 H 890.802 3.20808 -3.87416 0
M  V30 9783 H 890.502 2.32942 -5.39455 0
M  V30 9784 H 892.026 3.23631 -5.1778 0
M  V30 9785 H 893.44 1.01298 -5.6428 0
M  V30 9786 H 891.837 0.303669 -5.99331 0
M  V30 9787 H 892.907 -0.490727 -4.8241 0
M  V30 9788 N 894.251 1.57596 -0.0117121 0
M  V30 9789 C 895.667 1.55837 0.344506 0
M  V30 9790 C 895.867 1.01557 1.74036 0
M  V30 9791 O 894.923 0.654563 2.43868 0
M  V30 9792 C 896.236 2.99973 0.209023 0
M  V30 9793 C 897.784 3.11717 0.283092 0
M  V30 9794 C 898.259 4.57659 0.176599 0
M  V30 9795 N 899.75 4.62608 0.234133 0
M  V30 9796 C 900.485 5.73132 0.175252 0
M  V30 9797 N 899.981 6.92768 0.0662888 0
M  V30 9798 N 901.774 5.61638 0.227972 0
M  V30 9799 H 893.925 1.91215 -0.924692 0
M  V30 9800 H 896.188 0.878807 -0.355531 0
M  V30 9801 H 895.894 3.4357 -0.751826 0
M  V30 9802 H 895.768 3.64075 0.98635 0
M  V30 9803 H 898.155 2.68043 1.23439 0
M  V30 9804 H 898.236 2.50369 -0.52431 0
M  V30 9805 H 897.88 5.02011 -0.771205 0
M  V30 9806 H 897.81 5.16967 1.00264 0
M  V30 9807 H 900.301 3.76549 0.319203 0
M  V30 9808 H 900.614 7.72795 0.0275765 0
M  V30 9809 H 898.959 6.94993 0.0317502 0
M  V30 9810 H 902.15 4.67063 0.311377 0
M  V30 9811 H 902.323 6.47754 0.178621 0
M  V30 9812 N 895.729 -0.261212 1.5542 0
M  V30 9813 C 896.977 -0.989272 1.76232 0
M  V30 9814 C 897.298 -1.86389 0.573067 0
M  V30 9815 O 896.568 -1.91526 -0.41166 0
M  V30 9816 H 895.148 -0.368256 0.64992 0
M  V30 9817 H 897.81 -0.282603 1.9284 0
M  V30 9818 H 896.906 -1.61935 2.66802 0
M  V30 9819 N 897.207 -1.48554 -0.526253 0
M  V30 9820 C 898.455 -1.56452 -1.27935 0
M  V30 9821 C 898.776 -0.24184 -1.93495 0
M  V30 9822 O 898.046 0.736917 -1.81511 0
M  V30 9823 H 896.626 -0.576379 -0.47518 0
M  V30 9824 H 899.288 -1.85039 -0.612083 0
M  V30 9825 H 898.384 -2.34751 -2.05666 0
M  V30 9826 N 898.685 0.775411 -1.37205 0
M  V30 9827 C 899.618 1.8957 -1.27037 0
M  V30 9828 C 900.596 1.61891 -0.151643 0
M  V30 9829 O 901.78 1.85673 -0.325218 0
M  V30 9830 C 898.907 3.24712 -0.963316 0
M  V30 9831 C 897.953 3.71306 -2.09842 0
M  V30 9832 S 898.786 3.8541 -3.71778 0
M  V30 9833 C 899.942 5.23406 -3.43216 0
M  V30 9834 H 900.175 1.97905 -2.21857 0
M  V30 9835 H 897.708 0.936127 -1.22784 0
M  V30 9836 H 899.666 4.02768 -0.792983 0
M  V30 9837 H 898.327 3.14083 -0.0326561 0
M  V30 9838 H 897.52 4.69271 -1.83849 0
M  V30 9839 H 897.122 3.00341 -2.2287 0
M  V30 9840 H 899.414 6.08454 -2.97977 0
M  V30 9841 H 900.357 5.54409 -4.40495 0
M  V30 9842 H 900.765 4.9117 -2.78231 0
M  V30 9843 N 900.163 1.21714 1.00117 0
M  V30 9844 C 901.095 0.937627 2.09144 0
M  V30 9845 C 902.108 -0.0806291 1.626 0
M  V30 9846 O 903.297 0.152348 1.77849 0
M  V30 9847 C 900.397 0.387036 3.36683 0
M  V30 9848 C 899.57 1.46054 4.12295 0
M  V30 9849 C 898.629 0.918505 5.18122 0
M  V30 9850 O 897.655 1.60282 5.46167 0
M  V30 9851 N 898.857 -0.264308 5.79898 0
M  V30 9852 H 901.622 1.87622 2.33705 0
M  V30 9853 H 899.183 1.12291 1.16629 0
M  V30 9854 H 901.175 0.00992825 4.04699 0
M  V30 9855 H 899.745 -0.456467 3.09249 0
M  V30 9856 H 898.965 2.01133 3.39027 0
M  V30 9857 H 900.253 2.18306 4.59587 0
M  V30 9858 H 899.651 -0.837242 5.5947 0
M  V30 9859 H 898.208 -0.582886 6.49188 0
M  V30 9860 N 901.641 -1.19671 1.02551 0
M  V30 9861 C 902.89 -1.88591 0.715272 0
M  V30 9862 C 903.203 -1.80274 -0.758982 0
M  V30 9863 O 904.409 -2.44413 -1.18213 0
M  V30 9864 C 902.865 -3.38264 1.22905 0
M  V30 9865 C 902.473 -3.55146 2.73084 0
M  V30 9866 C 904.217 -4.12683 0.994649 0
M  V30 9867 C 902.124 -4.98693 3.17897 0
M  V30 9868 H 901.054 -0.706326 0.263857 0
M  V30 9869 H 903.705 -1.35322 1.23936 0
M  V30 9870 H 902.087 -3.9091 0.632892 0
M  V30 9871 H 903.261 -3.12845 3.38326 0
M  V30 9872 H 901.576 -2.94112 2.94766 0
M  V30 9873 H 904.173 -5.18536 1.30478 0
M  V30 9874 H 904.516 -4.16243 -0.0686466 0
M  V30 9875 H 905.049 -3.66164 1.55464 0
M  V30 9876 H 901.788 -5.00293 4.23542 0
M  V30 9877 H 901.308 -5.4177 2.57381 0
M  V30 9878 H 902.987 -5.67327 3.11045 0
M  V30 9879 N 903.119 -0.802921 -1.35613 0
M  V30 9880 C 904.366 -0.381576 -1.98872 0
M  V30 9881 C 904.694 1.0503 -1.63704 0
M  V30 9882 O 903.949 1.7427 -0.890418 0
M  V30 9883 C 904.248 -0.507806 -3.53774 0
M  V30 9884 C 903.914 -1.90245 -4.088 0
M  V30 9885 C 902.576 -2.28401 -4.2354 0
M  V30 9886 C 904.928 -2.81504 -4.3864 0
M  V30 9887 C 902.256 -3.57192 -4.65436 0
M  V30 9888 C 904.608 -4.09737 -4.81973 0
M  V30 9889 C 903.272 -4.47897 -4.94919 0
M  V30 9890 H 902.542 -0.139629 -0.727726 0
M  V30 9891 H 905.189 -1.023 -1.61886 0
M  V30 9892 H 903.494 0.21708 -3.91198 0
M  V30 9893 H 905.191 -0.162625 -4.0067 0
M  V30 9894 H 901.781 -1.596 -3.97776 0
M  V30 9895 H 905.965 -2.53276 -4.26808 0
M  V30 9896 H 901.221 -3.86611 -4.73648 0
M  V30 9897 H 905.395 -4.80555 -5.04024 0
M  V30 9898 H 903.022 -5.47747 -5.27141 0
M  V30 9899 N 904.597 1.47463 -0.556102 0
M  V30 9900 C 905.843 2.02775 -0.0316806 0
M  V30 9901 C 906.176 1.42967 1.3143 0
M  V30 9902 O 905.451 0.584847 1.85499 0
M  V30 9903 C 905.734 3.60046 0.0625742 0
M  V30 9904 C 905.587 4.30288 -1.31043 0
M  V30 9905 C 906.906 4.33195 0.776553 0
M  V30 9906 H 904.025 0.736886 -0.0129869 0
M  V30 9907 H 906.667 1.75904 -0.718177 0
M  V30 9908 H 904.817 3.83071 0.647231 0
M  V30 9909 H 906.489 4.18607 -1.9382 0
M  V30 9910 H 904.732 3.90685 -1.8854 0
M  V30 9911 H 905.403 5.38861 -1.1972 0
M  V30 9912 H 907.879 4.15156 0.280147 0
M  V30 9913 H 906.755 5.42869 0.81146 0
M  V30 9914 H 907.016 4.02336 1.83244 0
M  V30 9915 N 906.075 0.2925 1.54862 0
M  V30 9916 C 907.022 -0.587365 2.23201 0
M  V30 9917 C 907.992 -1.13623 1.21157 0
M  V30 9918 O 909.177 -1.18233 1.49752 0
M  V30 9919 C 906.317 -1.75745 2.96998 0
M  V30 9920 C 905.43 -1.24078 4.13798 0
M  V30 9921 C 904.565 -2.37405 4.75197 0
M  V30 9922 C 903.604 -1.82829 5.84157 0
M  V30 9923 N 902.741 -2.89696 6.39547 0
M  V30 9924 H 907.581 0.00202207 2.98 0
M  V30 9925 H 905.118 0.012766 1.47094 0
M  V30 9926 H 907.076 -2.44549 3.38011 0
M  V30 9927 H 905.706 -2.3186 2.24591 0
M  V30 9928 H 904.758 -0.445268 3.77785 0
M  V30 9929 H 906.07 -0.801186 4.92324 0
M  V30 9930 H 905.224 -3.14172 5.19019 0
M  V30 9931 H 903.963 -2.84688 3.95985 0
M  V30 9932 H 902.968 -1.04548 5.39768 0
M  V30 9933 H 904.193 -1.36461 6.65248 0
M  V30 9934 H 902.139 -3.36328 5.63222 0
M  V30 9935 H 902.056 -2.50206 7.13395 0
M  V30 9936 H 903.324 -3.66386 6.88027 0
M  V30 9937 N 907.553 -1.57587 0.0200696 0
M  V30 9938 C 908.781 -1.95718 -0.670964 0
M  V30 9939 C 909.196 -0.896081 -1.6618 0
M  V30 9940 O 908.553 0.123037 -1.82085 0
M  V30 9941 C 908.604 -3.33904 -1.38529 0
M  V30 9942 O 908.325 -4.35943 -0.434167 0
M  V30 9943 C 909.826 -3.86614 -2.16898 0
M  V30 9944 H 907.046 -0.644819 -0.185606 0
M  V30 9945 H 909.59 -2.04354 0.0771495 0
M  V30 9946 H 907.745 -3.26515 -2.08487 0
M  V30 9947 H 908.159 -5.16001 -0.940378 0
M  V30 9948 H 909.633 -4.85673 -2.62346 0
M  V30 9949 H 910.11 -3.20379 -3.00423 0
M  V30 9950 H 910.716 -3.97243 -1.51916 0
M  V30 9951 N 909.032 0.252966 -1.55557 0
M  V30 9952 C 909.962 1.31691 -1.9282 0
M  V30 9953 C 910.943 1.50516 -0.7924 0
M  V30 9954 O 912.128 1.63225 -1.05219 0
M  V30 9955 C 909.258 2.67281 -2.21762 0
M  V30 9956 C 908.212 2.6316 -3.37536 0
M  V30 9957 C 907.538 4.02488 -3.52005 0
M  V30 9958 C 908.838 2.20675 -4.73392 0
M  V30 9959 H 910.532 1.00751 -2.81939 0
M  V30 9960 H 908.078 0.483219 -1.3565 0
M  V30 9961 H 910.031 3.41842 -2.46419 0
M  V30 9962 H 908.755 2.99845 -1.29463 0
M  V30 9963 H 907.414 1.91057 -3.12878 0
M  V30 9964 H 907.062 4.32307 -2.57137 0
M  V30 9965 H 906.762 4.00621 -4.29857 0
M  V30 9966 H 908.286 4.78758 -3.78977 0
M  V30 9967 H 909.7 2.84965 -4.97461 0
M  V30 9968 H 908.097 2.29931 -5.54303 0
M  V30 9969 H 909.167 1.15831 -4.70862 0
M  V30 9970 N 910.51 1.48831 0.518367 0
M  V30 9971 C 911.738 1.6112 1.298 0
M  V30 9972 C 912.153 0.275872 1.86774 0
M  V30 9973 O 911.51 -0.736416 1.66983 0
M  V30 9974 C 911.561 2.66675 2.44063 0
M  V30 9975 O 911.282 3.95027 1.89434 0
M  V30 9976 C 912.783 2.8951 3.35706 0
M  V30 9977 H 910.003 0.542916 0.394314 0
M  V30 9978 H 912.547 1.94743 0.624142 0
M  V30 9979 H 910.702 2.35879 3.07311 0
M  V30 9980 H 911.116 4.53031 2.64316 0
M  V30 9981 H 912.59 3.67142 4.12202 0
M  V30 9982 H 913.067 1.98768 3.91648 0
M  V30 9983 H 913.673 3.21656 2.7824 0
M  V30 9984 N 911.988 -0.768124 1.37614 0
M  V30 9985 C 913.236 -1.52379 1.3276 0
M  V30 9986 C 913.557 -1.94809 -0.0863564 0
M  V30 9987 O 912.827 -1.66568 -1.03112 0
M  V30 9988 H 911.407 -0.565179 0.488448 0
M  V30 9989 H 914.069 -0.913974 1.72141 0
M  V30 9990 H 913.165 -2.4215 1.96901 0
M  V30 9991 N 913.466 -1.22244 -0.994698 0
M  V30 9992 C 914.413 -0.990906 -2.08446 0
M  V30 9993 C 915.383 0.086737 -1.65873 0
M  V30 9994 O 916.568 -0.0624882 -1.90698 0
M  V30 9995 C 913.708 -0.572813 -3.40313 0
M  V30 9996 C 912.821 -1.72103 -3.96238 0
M  V30 9997 C 911.956 -1.2511 -5.16257 0
M  V30 9998 C 910.995 -2.37098 -5.64315 0
M  V30 9999 N 910.132 -1.91164 -6.75574 0
M  V30 10000 H 914.972 -1.92377 -2.27585 0
M  V30 10001 H 912.509 -0.958576 -1.11578 0
M  V30 10002 H 914.467 -0.311594 -4.16035 0
M  V30 10003 H 913.097 0.323044 -3.21179 0
M  V30 10004 H 912.149 -2.09662 -3.17405 0
M  V30 10005 H 913.461 -2.56347 -4.27888 0
M  V30 10006 H 912.615 -0.947152 -5.99261 0
M  V30 10007 H 911.354 -0.378836 -4.86226 0
M  V30 10008 H 910.359 -2.68283 -4.799 0
M  V30 10009 H 911.584 -3.24837 -5.96371 0
M  V30 10010 H 909.53 -1.06298 -6.47331 0
M  V30 10011 H 909.447 -2.68975 -7.06533 0
M  V30 10012 H 910.715 -1.63833 -7.62088 0
M  V30 10013 N 914.944 1.19125 -1.03184 0
M  V30 10014 C 916.172 1.92838 -0.74975 0
M  V30 10015 C 916.587 1.75667 0.691851 0
M  V30 10016 O 915.944 1.0805 1.47076 0
M  V30 10017 C 915.995 3.44509 -1.09525 0
M  V30 10018 O 915.716 3.6113 -2.48025 0
M  V30 10019 C 917.217 4.35338 -0.836397 0
M  V30 10020 H 914.437 0.61246 -0.274105 0
M  V30 10021 H 916.981 1.5118 -1.37712 0
M  V30 10022 H 915.136 3.83988 -0.513006 0
M  V30 10023 H 915.55 4.54959 -2.60984 0
M  V30 10024 H 917.024 5.4035 -1.12808 0
M  V30 10025 H 917.501 4.38602 0.229102 0
M  V30 10026 H 918.107 4.01544 -1.40152 0
M  V30 10027 N 916.422 0.810101 1.35185 0
M  V30 10028 C 917.671 0.388589 1.97921 0
M  V30 10029 C 917.984 -1.05079 1.64978 0
M  V30 10030 O 919.19 -1.57559 2.21105 0
M  V30 10031 C 917.646 0.643864 3.54094 0
M  V30 10032 C 917.254 2.09602 3.95943 0
M  V30 10033 C 918.998 0.287883 4.23523 0
M  V30 10034 C 916.905 2.29686 5.44976 0
M  V30 10035 H 915.835 0.141562 0.740592 0
M  V30 10036 H 918.486 0.994653 1.54204 0
M  V30 10037 H 916.868 -0.0321978 3.95987 0
M  V30 10038 H 918.042 2.81018 3.65192 0
M  V30 10039 H 916.357 2.4122 3.39414 0
M  V30 10040 H 918.954 0.415946 5.3308 0
M  V30 10041 H 919.297 -0.766305 4.09186 0
M  V30 10042 H 919.83 0.918004 3.87063 0
M  V30 10043 H 916.569 3.33563 5.64284 0
M  V30 10044 H 916.089 1.62798 5.77284 0
M  V30 10045 H 917.768 2.11411 6.11485 0
M  V30 10046 N 917.9 -1.47166 0.563914 0
M  V30 10047 C 919.128 -2.06846 0.0474287 0
M  V30 10048 C 919.543 -1.41557 -1.24928 0
M  V30 10049 O 918.9 -0.514376 -1.75101 0
M  V30 10050 C 918.951 -3.6121 -0.144831 0
M  V30 10051 O 918.672 -4.24052 1.10053 0
M  V30 10052 C 920.173 -4.37773 -0.69783 0
M  V30 10053 H 917.393 -0.669217 0.0488896 0
M  V30 10054 H 919.937 -1.89072 0.779235 0
M  V30 10055 H 918.092 -3.78474 -0.82679 0
M  V30 10056 H 918.506 -5.16677 0.902481 0
M  V30 10057 H 919.98 -5.46438 -0.781616 0
M  V30 10058 H 920.457 -4.04517 -1.71063 0
M  V30 10059 H 921.063 -4.25269 -0.0513516 0
M  V30 10060 N 919.378 -0.300708 -1.54705 0
M  V30 10061 C 920.308 0.568675 -2.26469 0
M  V30 10062 C 921.289 1.13817 -1.26411 0
M  V30 10063 O 922.474 1.16756 -1.55183 0
M  V30 10064 C 919.604 1.74077 -3.00524 0
M  V30 10065 C 918.558 1.30165 -4.07727 0
M  V30 10066 C 917.884 2.55888 -4.69495 0
M  V30 10067 C 919.184 0.433106 -5.20501 0
M  V30 10068 H 920.878 -0.0298851 -2.99385 0
M  V30 10069 H 918.424 -0.0158135 -1.43991 0
M  V30 10070 H 920.377 2.35506 -3.49449 0
M  V30 10071 H 919.101 2.36556 -2.25186 0
M  V30 10072 H 917.76 0.710414 -3.59651 0
M  V30 10073 H 917.408 3.16681 -3.90797 0
M  V30 10074 H 917.108 2.27207 -5.41895 0
M  V30 10075 H 918.632 3.18121 -5.21183 0
M  V30 10076 H 920.046 0.95307 -5.65322 0
M  V30 10077 H 918.443 0.240085 -5.9962 0
M  V30 10078 H 919.513 -0.541866 -4.81863 0
M  V30 10079 N 920.856 1.57574 -0.0284266 0
M  V30 10080 C 921.766 2.13637 0.96936 0
M  V30 10081 C 922.782 1.08845 1.35752 0
M  V30 10082 O 923.958 1.40899 1.43908 0
M  V30 10083 C 921.023 2.65179 2.2334 0
M  V30 10084 C 920.084 3.84683 1.90572 0
M  V30 10085 C 919.317 4.33758 3.1095 0
M  V30 10086 O 919.54 3.82009 4.23586 0
M  V30 10087 O 918.474 5.2561 2.93288 0
M  V30 10088 H 922.3 2.99169 0.52267 0
M  V30 10089 H 919.885 1.48159 0.192135 0
M  V30 10090 H 921.767 2.98402 2.97547 0
M  V30 10091 H 920.442 1.82731 2.67191 0
M  V30 10092 H 919.349 3.56386 1.13753 0
M  V30 10093 H 920.682 4.68292 1.51538 0
M  V30 10094 N 922.334 -0.244713 1.55689 0
M  V30 10095 C 923.58 -0.973886 1.77886 0
M  V30 10096 C 923.913 -1.8489 0.594071 0
M  V30 10097 O 923.188 -1.90182 -0.407564 0
M  V30 10098 C 923.471 -1.83255 3.09983 0
M  V30 10099 C 923.324 -0.985571 4.3887 0
M  V30 10100 C 924.643 -2.81464 3.38329 0
M  V30 10101 H 921.762 -0.352629 0.647165 0
M  V30 10102 H 924.404 -0.244243 1.88424 0
M  V30 10103 H 922.554 -2.45464 3.01131 0
M  V30 10104 H 924.226 -0.382005 4.59716 0
M  V30 10105 H 922.469 -0.29002 4.32829 0
M  V30 10106 H 923.14 -1.62022 5.27686 0
M  V30 10107 H 925.616 -2.2939 3.47159 0
M  V30 10108 H 924.492 -3.38663 4.31971 0
M  V30 10109 H 924.753 -3.58037 2.59349 0
M  V30 10110 N 923.813 -1.49104 -0.510467 0
M  V30 10111 C 924.723 -1.67792 -1.6396 0
M  V30 10112 C 925.739 -0.560454 -1.64727 0
M  V30 10113 O 926.915 -0.833985 -1.83321 0
M  V30 10114 C 923.98 -1.73154 -3.00364 0
M  V30 10115 C 923.041 -2.9667 -3.10299 0
M  V30 10116 C 922.274 -3.01767 -4.40196 0
M  V30 10117 O 922.497 -2.1472 -5.28443 0
M  V30 10118 O 921.431 -3.94137 -4.54906 0
M  V30 10119 H 925.257 -2.63428 -1.51126 0
M  V30 10120 H 922.842 -1.32734 -0.685719 0
M  V30 10121 H 924.724 -1.79089 -3.81451 0
M  V30 10122 H 923.399 -0.806952 -3.1348 0
M  V30 10123 H 922.306 -2.96257 -2.28435 0
M  V30 10124 H 923.639 -3.88578 -3.02106 0
M  V30 10125 N 925.291 0.760815 -1.38019 0
M  V30 10126 C 926.702 1.33773 -1.30237 0
M  V30 10127 C 927.053 1.96148 0.0451153 0
M  V30 10128 O 926.178 1.94574 0.9471 0
M  V30 10129 C 926.773 2.43227 -2.35851 0
M  V30 10130 C 925.332 2.96659 -2.31669 0
M  V30 10131 C 924.479 1.69972 -2.191 0
M  V30 10132 H 927.43 0.560237 -1.48482 0
M  V30 10133 H 927.451 3.22985 -2.01149 0
M  V30 10134 H 926.963 1.978 -3.33911 0
M  V30 10135 H 925.064 3.46433 -1.37167 0
M  V30 10136 H 925.177 3.51529 -3.25521 0
M  V30 10137 H 923.541 1.9332 -1.65829 0
M  V30 10138 H 924.324 1.26633 -3.19091 0
M  V30 10139 N 926.769 1.22769 0.988202 0
M  V30 10140 C 927.994 1.08239 1.76915 0
M  V30 10141 C 928.419 -0.362519 1.84574 0
M  V30 10142 O 927.777 -1.26202 1.30165 0
M  V30 10143 C 927.825 1.70363 3.17819 0
M  V30 10144 O 926.929 0.960484 4.01059 0
M  V30 10145 H 926.27 0.379872 0.544604 0
M  V30 10146 H 928.8 1.62663 1.24104 0
M  V30 10147 H 928.81 1.7528 3.6843 0
M  V30 10148 H 927.485 2.75505 3.1156 0
M  V30 10149 H 926.062 0.987667 3.59582 0
M  V30 10150 N 928.247 -1.18576 1.03814 0
M  V30 10151 C 929.524 -1.8433 0.654358 0
M  V30 10152 C 929.904 -1.92504 -0.866338 0
M  V30 10153 O 929.252 -1.44904 -1.76678 0
M  V30 10154 C 929.462 -3.22778 1.32723 0
M  V30 10155 C 930.81 -3.98841 1.45641 0
M  V30 10156 O 931.834 -3.32209 1.28514 0
M  V30 10157 O 930.693 -5.18219 1.73526 0
M  V30 10158 H 927.787 -0.794766 0.228638 0
M  V30 10159 H 930.333 -1.25989 1.13687 0
M  V30 10160 H 929.105 -3.11717 2.36534 0
M  V30 10161 H 928.728 -3.88772 0.833176 0
M  V30 10162 N 929.725 -0.817259 -1.34754 0
M  V30 10163 C 930.953 -0.415451 -2.02686 0
M  V30 10164 C 931.368 0.97688 -1.61563 0
M  V30 10165 O 930.725 1.63125 -0.818321 0
M  V30 10166 C 930.776 -0.501486 -3.58005 0
M  V30 10167 O 930.497 -1.83893 -3.97637 0
M  V30 10168 C 931.998 -0.0938504 -4.43201 0
M  V30 10169 H 929.218 -0.16742 -0.649778 0
M  V30 10170 H 931.762 -1.10384 -1.7215 0
M  V30 10171 H 929.917 0.138766 -3.87151 0
M  V30 10172 H 930.331 -1.8092 -4.92309 0
M  V30 10173 H 931.805 -0.205145 -5.51619 0
M  V30 10174 H 932.282 0.962011 -4.28535 0
M  V30 10175 H 932.888 -0.707677 -4.19371 0
M  V30 10176 N 931.203 1.46865 -0.571711 0
M  V30 10177 C 932.452 2.01636 -0.050881 0
M  V30 10178 C 932.765 1.45001 1.31279 0
M  V30 10179 O 933.971 1.91523 1.92435 0
M  V30 10180 C 932.427 3.59877 -0.0404114 0
M  V30 10181 C 932.035 4.25506 -1.40172 0
M  V30 10182 C 933.779 4.22346 0.42705 0
M  V30 10183 C 931.686 5.75795 -1.34958 0
M  V30 10184 H 930.616 0.753846 -0.0152514 0
M  V30 10185 H 933.267 1.68711 -0.721723 0
M  V30 10186 H 931.649 3.89829 0.696374 0
M  V30 10187 H 932.823 4.07178 -2.15737 0
M  V30 10188 H 931.138 3.75086 -1.8083 0
M  V30 10189 H 933.735 5.32499 0.484688 0
M  V30 10190 H 934.078 3.9052 1.44222 0
M  V30 10191 H 934.611 3.9698 -0.255326 0
M  V30 10192 H 931.35 6.12265 -2.3412 0
M  V30 10193 H 930.87 5.96419 -0.635962 0
M  V30 10194 H 932.549 6.38294 -1.05779 0
M  V30 10195 N 932.681 0.308908 1.54543 0
M  V30 10196 C 933.591 -0.572939 2.27496 0
M  V30 10197 C 934.607 -1.14171 1.31305 0
M  V30 10198 O 935.783 -1.16481 1.64299 0
M  V30 10199 C 932.848 -1.72483 3.0075 0
M  V30 10200 C 931.909 -1.18934 4.12496 0
M  V30 10201 C 931.142 -2.28634 4.82247 0
M  V30 10202 O 931.365 -3.48691 4.5141 0
M  V30 10203 O 930.299 -1.94879 5.69478 0
M  V30 10204 H 934.125 0.0190877 3.03694 0
M  V30 10205 H 931.71 0.0750943 1.49211 0
M  V30 10206 H 933.592 -2.39578 3.46671 0
M  V30 10207 H 932.267 -2.30332 2.2744 0
M  V30 10208 H 931.174 -0.483904 3.70957 0
M  V30 10209 H 932.507 -0.656185 4.87806 0
M  V30 10210 N 934.159 -1.57557 0.0367827 0
M  V30 10211 C 935.107 -2.11844 -0.960454 0
M  V30 10212 C 936.101 -1.04681 -1.33185 0
M  V30 10213 O 937.307 -1.23108 -1.31318 0
M  V30 10214 H 933.682 -0.676921 -0.32754 0
M  V30 10215 H 935.653 -2.94557 -0.477346 0
M  V30 10216 C 934.402 -2.66683 -2.23105 0
M  V30 10217 H 933.725 -3.48795 -1.95403 0
M  V30 10218 H 935.165 -3.08305 -2.91074 0
M  V30 10219 C 933.624 -1.59782 -2.96599 0
M  V30 10220 O 934.154 -1.00214 -3.88999 0
M  V30 10221 N 932.36 -1.31644 -2.59072 0
M  V30 10222 H 931.907 -1.80272 -1.8401 0
M  V30 10223 H 931.865 -0.603457 -3.08554 0
M  V30 10224 N 935.637 0.236453 -1.55816 0
M  V30 10225 C 936.883 0.964439 -1.784 0
M  V30 10226 C 937.216 1.84573 -0.603868 0
M  V30 10227 O 936.491 1.90395 0.397473 0
M  V30 10228 C 936.774 1.81608 -3.10951 0
M  V30 10229 C 936.627 0.962283 -4.39386 0
M  V30 10230 C 937.946 2.79665 -3.39817 0
M  V30 10231 H 935.065 0.349192 -0.649026 0
M  V30 10232 H 937.707 0.234247 -1.8855 0
M  V30 10233 H 935.857 2.43864 -3.02428 0
M  V30 10234 H 937.529 0.35762 -4.59912 0
M  V30 10235 H 935.772 0.267062 -4.32977 0
M  V30 10236 H 936.443 1.59222 -5.28538 0
M  V30 10237 H 938.919 2.27546 -3.4837 0
M  V30 10238 H 937.795 3.36367 -4.33761 0
M  V30 10239 H 938.056 3.56657 -2.61244 0
M  V30 10240 N 937.115 1.49373 0.502552 0
M  V30 10241 C 938.062 1.65927 1.60427 0
M  V30 10242 C 939.032 0.500768 1.58371 0
M  V30 10243 O 940.217 0.727606 1.76382 0
M  V30 10244 C 937.357 1.73043 2.9858 0
M  V30 10245 C 936.47 3.00187 3.10663 0
M  V30 10246 C 935.605 2.98292 4.3954 0
M  V30 10247 C 934.644 4.20022 4.4525 0
M  V30 10248 N 933.781 4.16046 5.65553 0
M  V30 10249 H 938.621 2.59998 1.45619 0
M  V30 10250 H 936.158 1.28912 0.708519 0
M  V30 10251 H 938.116 1.7515 3.78653 0
M  V30 10252 H 936.746 0.824397 3.12095 0
M  V30 10253 H 935.798 3.07699 2.23663 0
M  V30 10254 H 937.11 3.9018 3.10742 0
M  V30 10255 H 936.264 2.98953 5.27932 0
M  V30 10256 H 935.003 2.06075 4.42023 0
M  V30 10257 H 934.008 4.19607 3.5526 0
M  V30 10258 H 935.233 5.13431 4.44484 0
M  V30 10259 H 933.179 3.26665 5.68881 0
M  V30 10260 H 933.096 4.99773 5.67242 0
M  V30 10261 H 934.364 4.20807 6.56156 0
M  V30 10262 N 938.594 -0.753485 1.38421 0
M  V30 10263 C 939.557 -1.84888 1.35459 0
M  V30 10264 C 940.557 -1.58764 0.255083 0
M  V30 10265 O 941.747 -1.66507 0.511978 0
M  V30 10266 C 938.879 -3.22361 1.10888 0
M  V30 10267 H 940.072 -1.88922 2.32913 0
M  V30 10268 H 937.625 -0.955199 1.23716 0
M  V30 10269 H 938.36 -3.23996 0.1404 0
M  V30 10270 H 938.145 -3.42717 1.90492 0
M  V30 10271 H 939.635 -4.02437 1.1151 0
M  V30 10272 N 940.072 -1.23292 -0.981677 0
M  V30 10273 C 941.019 -1.01296 -2.07383 0
M  V30 10274 C 941.989 0.069139 -1.65956 0
M  V30 10275 O 943.174 -0.0827108 -1.90621 0
M  V30 10276 C 940.314 -0.608876 -3.39686 0
M  V30 10277 C 939.427 -1.76296 -3.9439 0
M  V30 10278 C 938.562 -1.30578 -5.14901 0
M  V30 10279 C 937.601 -2.4307 -5.61768 0
M  V30 10280 N 936.738 -1.98319 -6.73509 0
M  V30 10281 H 941.578 -1.9478 -2.25532 0
M  V30 10282 H 939.115 -0.970356 -1.10555 0
M  V30 10283 H 941.073 -0.355702 -4.15681 0
M  V30 10284 H 939.703 0.288961 -3.21504 0
M  V30 10285 H 938.755 -2.13017 -3.15163 0
M  V30 10286 H 940.067 -2.60871 -4.25145 0
M  V30 10287 H 939.221 -1.01066 -5.98223 0
M  V30 10288 H 937.96 -0.430386 -4.85797 0
M  V30 10289 H 936.965 -2.73358 -4.77028 0
M  V30 10290 H 938.19 -3.31144 -5.92892 0
M  V30 10291 H 936.136 -1.13157 -6.46167 0
M  V30 10292 H 936.053 -2.76454 -7.0364 0
M  V30 10293 H 937.321 -1.71907 -7.60308 0
M  V30 10294 N 941.55 1.18024 -1.04442 0
M  V30 10295 C 942.799 1.8743 -0.745185 0
M  V30 10296 C 943.112 1.81459 0.730206 0
M  V30 10297 O 944.318 2.46263 1.1431 0
M  V30 10298 C 942.774 3.36266 -1.28271 0
M  V30 10299 C 942.382 3.50757 -2.787 0
M  V30 10300 C 944.126 4.11048 -1.06018 0
M  V30 10301 C 942.033 4.93573 -3.25791 0
M  V30 10302 H 940.963 0.702038 -0.27506 0
M  V30 10303 H 943.614 1.33333 -1.26073 0
M  V30 10304 H 941.996 3.89853 -0.695002 0
M  V30 10305 H 943.17 3.07423 -3.43261 0
M  V30 10306 H 941.485 2.89385 -2.99408 0
M  V30 10307 H 944.082 5.16395 -1.38711 0
M  V30 10308 H 944.425 4.163 0.00241716 0
M  V30 10309 H 944.958 3.63644 -1.61269 0
M  V30 10310 H 941.697 4.93491 -4.31447 0
M  V30 10311 H 941.217 5.37607 -2.65968 0
M  V30 10312 H 942.896 5.62307 -3.20031 0
M  V30 10313 N 943.028 0.824394 1.34319 0
M  V30 10314 C 943.96 0.204805 2.28283 0
M  V30 10315 C 944.973 -0.606162 1.51094 0
M  V30 10316 O 946.162 -0.435602 1.73103 0
M  V30 10317 C 943.262 -0.73139 3.30914 0
M  V30 10318 C 942.435 0.0370723 4.37384 0
M  V30 10319 C 941.494 -0.820272 5.19767 0
M  V30 10320 O 940.52 -0.264721 5.68584 0
M  V30 10321 N 941.722 -2.13984 5.39621 0
M  V30 10322 H 944.487 1.0121 2.82093 0
M  V30 10323 H 942.048 0.681494 1.46858 0
M  V30 10324 H 944.04 -1.30958 3.82926 0
M  V30 10325 H 942.61 -1.43943 2.77487 0
M  V30 10326 H 941.83 0.796578 3.86068 0
M  V30 10327 H 943.118 0.566014 5.05642 0
M  V30 10328 H 942.516 -2.61492 5.01636 0
M  V30 10329 H 941.073 -2.66685 5.94746 0
M  V30 10330 N 944.506 -1.46559 0.579492 0
M  V30 10331 C 945.783 -1.956 -0.00287136 0
M  V30 10332 C 946.163 -1.52215 -1.46266 0
M  V30 10333 O 945.511 -0.771335 -2.15088 0
M  V30 10334 C 945.721 -3.48606 0.165824 0
M  V30 10335 C 947.069 -4.24588 0.0319807 0
M  V30 10336 O 948.093 -3.56075 0.094496 0
M  V30 10337 O 946.952 -5.46396 -0.106386 0
M  V30 10338 H 944.046 -0.825387 -0.0516274 0
M  V30 10339 H 946.592 -1.56858 0.647584 0
M  V30 10340 H 945.364 -3.7306 1.18076 0
M  V30 10341 H 944.987 -3.94169 -0.521212 0
M  V30 10342 N 945.984 -0.3171 -1.54377 0
M  V30 10343 C 946.931 0.551782 -2.24107 0
M  V30 10344 C 947.901 1.11681 -1.22949 0
M  V30 10345 O 949.086 1.15836 -1.51614 0
M  V30 10346 C 946.226 1.70997 -2.99756 0
M  V30 10347 C 945.339 1.17479 -4.15719 0
M  V30 10348 C 944.474 2.29815 -4.78914 0
M  V30 10349 C 943.513 1.73513 -5.86992 0
M  V30 10350 N 942.65 2.79485 -6.44075 0
M  V30 10351 H 947.49 -0.049431 -2.97959 0
M  V30 10352 H 945.027 -0.0361658 -1.47056 0
M  V30 10353 H 946.985 2.39141 -3.41859 0
M  V30 10354 H 945.615 2.28257 -2.28251 0
M  V30 10355 H 944.667 0.385109 -3.78446 0
M  V30 10356 H 945.979 0.72276 -4.93536 0
M  V30 10357 H 945.133 3.05875 -5.23952 0
M  V30 10358 H 943.872 2.78352 -4.00464 0
M  V30 10359 H 942.877 0.959475 -5.41363 0
M  V30 10360 H 944.102 1.2586 -6.67335 0
M  V30 10361 H 942.048 3.27325 -5.68502 0
M  V30 10362 H 941.965 2.38825 -7.17286 0
M  V30 10363 H 943.233 3.55394 -6.93769 0
M  V30 10364 N 947.462 1.57535 -0.0451378 0
M  V30 10365 C 948.372 2.14653 0.946646 0
M  V30 10366 C 949.388 1.10279 1.3459 0
M  V30 10367 O 950.564 1.42417 1.42405 0
M  V30 10368 C 947.629 2.67533 2.20515 0
M  V30 10369 C 946.69 3.86682 1.86481 0
M  V30 10370 C 945.923 4.37031 3.06332 0
M  V30 10371 O 946.146 3.86481 4.1951 0
M  V30 10372 O 945.08 5.28691 2.87697 0
M  V30 10373 H 948.906 2.99706 0.49091 0
M  V30 10374 H 946.491 1.48355 0.17641 0
M  V30 10375 H 948.373 3.01542 2.94365 0
M  V30 10376 H 947.048 1.85554 2.65238 0
M  V30 10377 H 945.955 3.57573 1.09966 0
M  V30 10378 H 947.288 4.69873 1.46562 0
M  V30 10379 N 948.94 -0.228186 1.55939 0
M  V30 10380 C 950.188 -0.951668 1.78291 0
M  V30 10381 C 950.509 -1.85132 0.612474 0
M  V30 10382 O 949.779 -1.92356 -0.370942 0
M  V30 10383 H 948.359 -0.354388 0.657585 0
M  V30 10384 H 951.021 -0.241635 1.93396 0
M  V30 10385 H 950.117 -1.56239 2.70177 0
M  V30 10386 N 950.418 -1.49637 -0.494624 0
M  V30 10387 C 951.667 -1.58691 -1.24499 0
M  V30 10388 C 951.98 -0.281763 -1.9356 0
M  V30 10389 O 953.186 -0.250925 -2.70338 0
M  V30 10390 C 951.642 -2.8002 -2.26091 0
M  V30 10391 C 951.25 -4.17318 -1.6294 0
M  V30 10392 C 952.994 -2.98407 -3.01916 0
M  V30 10393 C 950.901 -5.29862 -2.62679 0
M  V30 10394 H 949.831 -0.590888 -0.468367 0
M  V30 10395 H 952.482 -1.76034 -0.518112 0
M  V30 10396 H 950.864 -2.56185 -3.01969 0
M  V30 10397 H 952.038 -4.51315 -0.930108 0
M  V30 10398 H 950.353 -4.04342 -0.994819 0
M  V30 10399 H 952.95 -3.79658 -3.76516 0
M  V30 10400 H 953.293 -2.09214 -3.5991 0
M  V30 10401 H 953.826 -3.22312 -2.33152 0
M  V30 10402 H 950.565 -6.21134 -2.09458 0
M  V30 10403 H 950.085 -5.00311 -3.3083 0
M  V30 10404 H 951.764 -5.59461 -3.2498 0
M  V30 10405 N 951.896 0.746133 -1.38819 0
M  V30 10406 C 953.307 1.32384 -1.31648 0
M  V30 10407 C 953.658 1.96185 0.0243086 0
M  V30 10408 O 952.783 1.95567 0.92641 0
M  V30 10409 C 953.378 2.40712 -2.38418 0
M  V30 10410 C 951.937 2.94185 -2.34803 0
M  V30 10411 C 951.084 1.67639 -2.20891 0
M  V30 10412 H 954.035 0.544457 -1.49068 0
M  V30 10413 H 954.056 3.20833 -2.04564 0
M  V30 10414 H 953.568 1.94247 -3.3599 0
M  V30 10415 H 951.669 3.44959 -1.40834 0
M  V30 10416 H 951.782 3.48057 -3.29231 0
M  V30 10417 H 950.146 1.9155 -1.67871 0
M  V30 10418 H 950.929 1.23242 -3.20416 0
M  V30 10419 N 953.375 1.23811 0.975125 0
M  V30 10420 C 954.786 1.0675 1.53171 0
M  V30 10421 C 955.137 -0.363475 1.92804 0
M  V30 10422 O 954.262 -1.25089 1.76583 0
M  V30 10423 C 954.857 1.93161 2.78342 0
M  V30 10424 C 953.416 1.80346 3.30382 0
M  V30 10425 C 952.563 1.88544 2.03338 0
M  V30 10426 H 955.514 1.37396 0.79423 0
M  V30 10427 H 955.535 1.45951 3.51395 0
M  V30 10428 H 955.047 2.97302 2.49465 0
M  V30 10429 H 953.148 0.790077 3.64127 0
M  V30 10430 H 953.261 2.64026 3.99784 0
M  V30 10431 H 951.625 1.32186 2.17713 0
M  V30 10432 H 952.408 2.94252 1.76836 0
M  V30 10433 N 954.853 -1.17469 1.05066 0
M  V30 10434 C 956.13 -1.83625 0.673872 0
M  V30 10435 C 956.51 -1.93412 -0.845871 0
M  V30 10436 O 955.858 -1.4677 -1.75131 0
M  V30 10437 C 956.068 -3.21352 1.36139 0
M  V30 10438 C 957.416 -3.97274 1.49863 0
M  V30 10439 O 958.44 -3.30827 1.3203 0
M  V30 10440 O 957.299 -5.16349 1.79013 0
M  V30 10441 H 954.393 -0.792297 0.237055 0
M  V30 10442 H 956.939 -1.24776 1.15017 0
M  V30 10443 H 955.711 -3.0919 2.39827 0
M  V30 10444 H 955.334 -3.87867 0.874364 0
M  V30 10445 N 956.331 -0.831506 -1.3388 0
M  V30 10446 C 957.263 -0.216908 -2.28171 0
M  V30 10447 C 958.276 0.598141 -1.51414 0
M  V30 10448 O 959.465 0.426416 -1.73332 0
M  V30 10449 C 956.565 0.713831 -3.31297 0
M  V30 10450 C 955.738 -0.0602673 -4.37358 0
M  V30 10451 C 954.797 0.792696 -5.20195 0
M  V30 10452 O 953.823 0.234564 -5.68716 0
M  V30 10453 N 955.025 2.11119 -5.40748 0
M  V30 10454 H 957.79 -1.02704 -2.81553 0
M  V30 10455 H 955.351 -0.689272 -1.46495 0
M  V30 10456 H 957.343 1.28925 -3.83615 0
M  V30 10457 H 955.913 1.42469 -2.78247 0
M  V30 10458 H 955.133 -0.817041 -3.8564 0
M  V30 10459 H 956.421 -0.592822 -5.05335 0
M  V30 10460 H 955.819 2.58828 -5.03016 0
M  V30 10461 H 954.376 2.63527 -5.96151 0
M  V30 10462 N 957.809 1.4625 -0.587256 0
M  V30 10463 C 958.741 2.28482 0.181256 0
M  V30 10464 C 959.754 1.38777 0.851163 0
M  V30 10465 O 960.943 1.63336 0.719963 0
M  V30 10466 C 958.043 3.13944 1.27643 0
M  V30 10467 C 957.216 4.31802 0.697569 0
M  V30 10468 C 956.275 4.98626 1.68102 0
M  V30 10469 O 955.301 5.56075 1.21529 0
M  V30 10470 N 956.503 4.96051 3.0152 0
M  V30 10471 H 959.268 2.95079 -0.524267 0
M  V30 10472 H 956.829 1.56213 -0.425336 0
M  V30 10473 H 958.821 3.55513 1.93371 0
M  V30 10474 H 957.391 2.49391 1.88475 0
M  V30 10475 H 956.611 3.93961 -0.137293 0
M  V30 10476 H 957.899 5.07969 0.290696 0
M  V30 10477 H 957.297 4.5063 3.41978 0
M  V30 10478 H 955.854 5.41547 3.62725 0
M  V30 10479 N 959.287 0.325282 1.54207 0
M  V30 10480 C 960.703 -0.0273036 1.59577 0
M  V30 10481 C 960.903 -1.50329 1.34177 0
M  V30 10482 O 959.959 -2.25951 1.12705 0
M  V30 10483 C 961.272 0.392468 2.98128 0
M  V30 10484 C 962.82 0.343269 3.11112 0
M  V30 10485 C 963.295 0.738229 4.52011 0
M  V30 10486 N 964.786 0.691701 4.58006 0
M  V30 10487 C 965.521 0.969479 5.65145 0
M  V30 10488 N 965.017 1.31448 6.80216 0
M  V30 10489 N 966.81 0.894926 5.5493 0
M  V30 10490 H 958.961 1.28692 1.68974 0
M  V30 10491 H 961.224 0.523399 0.790416 0
M  V30 10492 H 960.93 1.42089 3.2172 0
M  V30 10493 H 960.804 -0.241651 3.76425 0
M  V30 10494 H 963.191 -0.675946 2.87254 0
M  V30 10495 H 963.272 1.01235 2.34915 0
M  V30 10496 H 962.916 1.75537 4.76602 0
M  V30 10497 H 962.846 0.0468226 5.26579 0
M  V30 10498 H 965.337 0.436975 3.75365 0
M  V30 10499 H 965.65 1.51177 7.57869 0
M  V30 10500 H 963.995 1.35276 6.81708 0
M  V30 10501 H 967.186 0.624876 4.6391 0
M  V30 10502 H 967.359 1.11476 6.38339 0
M  V30 10503 N 960.765 -1.57509 0.0534917 0
M  V30 10504 C 961.695 -2.14698 -0.917999 0
M  V30 10505 C 962.676 -1.06924 -1.32292 0
M  V30 10506 O 963.861 -1.34875 -1.39723 0
M  V30 10507 C 960.991 -2.69383 -2.19203 0
M  V30 10508 C 959.945 -3.82161 -1.9271 0
M  V30 10509 C 959.271 -4.23373 -3.26587 0
M  V30 10510 C 960.571 -5.07199 -1.24686 0
M  V30 10511 H 962.265 -2.96125 -0.44165 0
M  V30 10512 H 959.811 -1.42446 -0.210993 0
M  V30 10513 H 961.764 -3.08031 -2.87567 0
M  V30 10514 H 960.488 -1.85151 -2.69048 0
M  V30 10515 H 959.147 -3.43989 -1.26757 0
M  V30 10516 H 958.795 -3.36089 -3.74237 0
M  V30 10517 H 958.495 -4.99385 -3.09658 0
M  V30 10518 H 960.019 -4.64623 -3.96178 0
M  V30 10519 H 961.433 -5.43279 -1.83088 0
M  V30 10520 H 959.83 -5.88369 -1.18076 0
M  V30 10521 H 960.9 -4.84386 -0.223227 0
M  V30 10522 N 962.243 0.219913 -1.56058 0
M  V30 10523 C 963.492 0.942119 -1.78345 0
M  V30 10524 C 963.805 1.85435 -0.622344 0
M  V30 10525 O 965.011 2.61533 -0.728886 0
M  V30 10526 C 963.467 1.72544 -3.15843 0
M  V30 10527 C 963.075 0.859263 -4.39682 0
M  V30 10528 C 964.819 2.43876 -3.47455 0
M  V30 10529 C 962.726 1.64003 -5.68205 0
M  V30 10530 H 961.656 0.355514 -0.664925 0
M  V30 10531 H 964.307 0.195963 -1.82451 0
M  V30 10532 H 962.689 2.51456 -3.05918 0
M  V30 10533 H 963.863 0.110562 -4.60667 0
M  V30 10534 H 962.178 0.257985 -4.156 0
M  V30 10535 H 964.775 3.02794 -4.40704 0
M  V30 10536 H 965.118 3.16843 -2.7003 0
M  V30 10537 H 965.651 1.71952 -3.58716 0
M  V30 10538 H 962.39 0.953606 -6.48526 0
M  V30 10539 H 961.91 2.3633 -5.51279 0
M  V30 10540 H 963.589 2.20028 -6.08438 0
M  V30 10541 N 963.721 1.49897 0.486681 0
M  V30 10542 C 964.968 1.60105 1.23986 0
M  V30 10543 C 965.296 0.294228 1.92262 0
M  V30 10544 O 964.551 -0.718876 1.82018 0
M  V30 10545 C 964.85 2.71982 2.31863 0
M  V30 10546 C 964.516 4.13 1.80948 0
M  V30 10547 C 963.178 4.51373 1.66782 0
M  V30 10548 C 965.53 5.01198 1.43004 0
M  V30 10549 C 962.858 5.75701 1.13072 0
M  V30 10550 C 965.21 6.26058 0.90742 0
M  V30 10551 C 963.874 6.63247 0.752269 0
M  V30 10552 H 963.144 0.585866 0.453698 0
M  V30 10553 H 965.791 1.83778 0.538305 0
M  V30 10554 H 964.096 2.42336 3.07865 0
M  V30 10555 H 965.793 2.77087 2.89869 0
M  V30 10556 H 962.383 3.82718 1.92937 0
M  V30 10557 H 966.567 4.72196 1.52789 0
M  V30 10558 H 961.823 6.03202 0.997842 0
M  V30 10559 H 965.997 6.9377 0.604684 0
M  V30 10560 H 963.624 7.59466 0.33392 0
M  V30 10561 N 965.199 -0.738761 1.39212 0
M  V30 10562 C 966.162 -1.83441 1.37412 0
M  V30 10563 C 967.162 -1.58484 0.271908 0
M  V30 10564 O 968.352 -1.65954 0.529609 0
M  V30 10565 C 965.484 -3.21167 1.143 0
M  V30 10566 H 966.677 -1.86441 2.34904 0
M  V30 10567 H 964.23 -0.942023 1.24722 0
M  V30 10568 H 964.965 -3.23829 0.174756 0
M  V30 10569 H 964.75 -3.40678 1.94116 0
M  V30 10570 H 966.24 -4.01231 1.15773 0
M  V30 10571 N 966.677 -1.24326 -0.968545 0
M  V30 10572 C 967.925 -1.08032 -1.70803 0
M  V30 10573 C 968.246 0.381728 -1.91227 0
M  V30 10574 O 967.516 1.27253 -1.48942 0
M  V30 10575 H 966.096 -0.396777 -0.632912 0
M  V30 10576 H 968.758 -1.56232 -1.16523 0
M  V30 10577 H 967.854 -1.57769 -2.69287 0
M  V30 10578 N 968.156 1.1691 -1.05688 0
M  V30 10579 C 969.103 2.21095 -0.662246 0
M  V30 10580 C 970.073 1.62623 0.338083 0
M  V30 10581 O 971.258 1.89428 0.228362 0
M  V30 10582 C 968.398 3.45066 -0.0484018 0
M  V30 10583 C 967.511 4.17809 -1.09817 0
M  V30 10584 C 966.646 5.29281 -0.451114 0
M  V30 10585 C 965.685 5.93817 -1.48484 0
M  V30 10586 N 964.822 6.96793 -0.861588 0
M  V30 10587 H 969.662 2.54204 -1.55513 0
M  V30 10588 H 967.199 1.24863 -0.777665 0
M  V30 10589 H 969.157 4.15932 0.324978 0
M  V30 10590 H 967.787 3.12526 0.807918 0
M  V30 10591 H 966.839 3.45608 -1.58932 0
M  V30 10592 H 968.151 4.61907 -1.88265 0
M  V30 10593 H 967.305 6.06695 -0.0244251 0
M  V30 10594 H 966.044 4.8633 0.365306 0
M  V30 10595 H 965.049 5.1513 -1.92149 0
M  V30 10596 H 966.274 6.38848 -2.30325 0
M  V30 10597 H 964.22 6.55967 -0.0657688 0
M  V30 10598 H 964.137 7.39229 -1.58354 0
M  V30 10599 H 965.405 7.78142 -0.45984 0
M  V30 10600 N 969.634 0.838594 1.33437 0
M  V30 10601 C 970.566 0.229006 2.28053 0
M  V30 10602 C 971.579 -0.590103 1.51729 0
M  V30 10603 O 972.768 -0.417218 1.73556 0
M  V30 10604 C 969.868 -0.696251 3.31671 0
M  V30 10605 C 969.041 0.0834606 4.3732 0
M  V30 10606 C 968.1 -0.765097 5.20608 0
M  V30 10607 O 967.126 -0.2044 5.68833 0
M  V30 10608 N 968.328 -2.08249 5.4186 0
M  V30 10609 H 971.093 1.04196 2.81004 0
M  V30 10610 H 968.654 0.697031 1.46127 0
M  V30 10611 H 970.646 -1.26889 3.84293 0
M  V30 10612 H 969.216 -1.40992 2.78998 0
M  V30 10613 H 968.436 0.837481 3.85201 0
M  V30 10614 H 969.724 0.619613 5.05013 0
M  V30 10615 H 969.122 -2.56156 5.04381 0
M  V30 10616 H 967.679 -2.60362 5.97541 0
M  V30 10617 N 971.112 -1.45937 0.595003 0
M  V30 10618 C 972.042 -2.33198 -0.11871 0
M  V30 10619 C 973.023 -1.46083 -0.871423 0
M  V30 10620 O 974.208 -1.74879 -0.844461 0
M  V30 10621 C 971.338 -3.28576 -1.12495 0
M  V30 10622 C 970.292 -4.25229 -0.486275 0
M  V30 10623 C 969.618 -5.10204 -1.59986 0
M  V30 10624 C 970.918 -5.19019 0.584473 0
M  V30 10625 H 972.612 -2.93122 0.609886 0
M  V30 10626 H 970.158 -1.40951 0.294742 0
M  V30 10627 H 972.111 -3.88485 -1.6327 0
M  V30 10628 H 970.835 -2.66784 -1.88398 0
M  V30 10629 H 969.494 -3.666 0.000507962 0
M  V30 10630 H 969.142 -4.44789 -2.34886 0
M  V30 10631 H 968.842 -5.75669 -1.1781 0
M  V30 10632 H 970.366 -5.7298 -2.11014 0
M  V30 10633 H 971.78 -5.73073 0.161297 0
M  V30 10634 H 970.177 -5.92893 0.927256 0
M  V30 10635 H 971.247 -4.62208 1.46601 0
M  V30 10636 N 972.59 -0.333456 -1.54032 0
M  V30 10637 C 973.5 0.536674 -2.28379 0
M  V30 10638 C 974.516 1.12068 -1.33104 0
M  V30 10639 O 975.692 1.13853 -1.66131 0
M  V30 10640 C 972.757 1.67677 -3.03456 0
M  V30 10641 C 971.818 1.12357 -4.14336 0
M  V30 10642 C 971.051 2.20933 -4.85823 0
M  V30 10643 O 971.274 3.41466 -4.569 0
M  V30 10644 O 970.208 1.85795 -5.72507 0
M  V30 10645 H 974.034 -0.0674003 -3.03625 0
M  V30 10646 H 971.619 -0.098823 -1.49073 0
M  V30 10647 H 973.501 2.34032 -3.50438 0
M  V30 10648 H 972.176 2.26684 -2.31076 0
M  V30 10649 H 971.083 0.424827 -3.7168 0
M  V30 10650 H 972.416 0.578497 -4.88789 0
M  V30 10651 N 974.068 1.57479 -0.061844 0
M  V30 10652 C 975.345 1.84484 0.649993 0
M  V30 10653 C 975.725 0.952366 1.88396 0
M  V30 10654 O 975.073 0.0161035 2.28494 0
M  V30 10655 C 975.283 3.34452 0.997133 0
M  V30 10656 C 976.631 4.01724 1.37488 0
M  V30 10657 O 977.655 3.3914 1.08916 0
M  V30 10658 O 976.514 5.12091 1.90854 0
M  V30 10659 H 973.608 0.761798 0.321858 0
M  V30 10660 H 976.154 1.6945 -0.0920192 0
M  V30 10661 H 974.926 3.91115 0.120301 0
M  V30 10662 H 974.549 3.54713 1.79624 0
M  V30 10663 N 975.546 -0.211634 1.56173 0
M  V30 10664 C 976.794 -0.932704 1.7929 0
M  V30 10665 C 977.115 -1.84472 0.632076 0
M  V30 10666 O 976.385 -1.92739 -0.350519 0
M  V30 10667 H 974.965 -0.347393 0.661307 0
M  V30 10668 H 977.627 -0.22111 1.93642 0
M  V30 10669 H 976.723 -1.53365 2.71819 0
M  V30 10670 N 977.024 -1.50153 -0.478725 0
M  V30 10671 C 978.44 -1.3741 -0.811833 0
M  V30 10672 C 978.64 -0.424303 -1.96982 0
M  V30 10673 O 977.696 0.13588 -2.52134 0
M  V30 10674 C 979.009 -2.78616 -1.13108 0
M  V30 10675 C 980.557 -2.87477 -1.23798 0
M  V30 10676 C 981.032 -4.295 -1.5904 0
M  V30 10677 N 982.523 -4.32415 -1.66047 0
M  V30 10678 C 983.258 -5.39295 -1.94805 0
M  V30 10679 N 982.754 -6.56392 -2.21635 0
M  V30 10680 N 984.547 -5.26731 -1.96243 0
M  V30 10681 H 976.698 -2.10486 0.284531 0
M  V30 10682 H 978.961 -0.945786 0.0647585 0
M  V30 10683 H 978.667 -3.49921 -0.35334 0
M  V30 10684 H 978.541 -3.15382 -2.06915 0
M  V30 10685 H 980.928 -2.16396 -2.00641 0
M  V30 10686 H 981.009 -2.54264 -0.279888 0
M  V30 10687 H 980.653 -5.01115 -0.827404 0
M  V30 10688 H 980.583 -4.60194 -2.55987 0
M  V30 10689 H 983.074 -3.47975 -1.47383 0
M  V30 10690 H 983.387 -7.33658 -2.4283 0
M  V30 10691 H 981.732 -6.59579 -2.19043 0
M  V30 10692 H 984.923 -4.34249 -1.74773 0
M  V30 10693 H 985.096 -6.10115 -2.1832 0
M  V30 10694 N 978.502 0.731368 -1.39602 0
M  V30 10695 C 979.73 1.52059 -1.40305 0
M  V30 10696 C 980.145 1.888 0.00147921 0
M  V30 10697 O 979.502 1.54354 0.973715 0
M  V30 10698 C 979.553 2.80588 -2.27931 0
M  V30 10699 O 979.274 2.45406 -3.62915 0
M  V30 10700 C 980.775 3.74592 -2.37056 0
M  V30 10701 H 977.995 0.469787 -0.479104 0
M  V30 10702 H 980.539 0.903436 -1.83462 0
M  V30 10703 H 978.694 3.38626 -1.88178 0
M  V30 10704 H 979.108 3.27996 -4.09291 0
M  V30 10705 H 980.582 4.61662 -3.02609 0
M  V30 10706 H 981.059 4.16597 -1.39081 0
M  V30 10707 H 981.665 3.22471 -2.77295 0
M  V30 10708 N 979.98 1.24838 0.961938 0
M  V30 10709 C 980.91 1.07053 2.07514 0
M  V30 10710 C 981.891 -0.0182465 1.7009 0
M  V30 10711 O 983.076 0.149915 1.9362 0
M  V30 10712 C 980.206 0.680693 3.40564 0
M  V30 10713 C 979.16 1.71889 3.91967 0
M  V30 10714 C 978.486 1.18395 5.21428 0
M  V30 10715 C 979.786 3.1161 4.19161 0
M  V30 10716 H 981.48 2.00167 2.22651 0
M  V30 10717 H 979.026 0.963799 1.0699 0
M  V30 10718 H 980.979 0.54324 4.17884 0
M  V30 10719 H 979.703 -0.28615 3.25344 0
M  V30 10720 H 978.362 1.84465 3.16809 0
M  V30 10721 H 978.01 0.207543 5.02572 0
M  V30 10722 H 977.71 1.87778 5.56788 0
M  V30 10723 H 979.234 1.05873 6.01351 0
M  V30 10724 H 980.648 3.0223 4.87165 0
M  V30 10725 H 979.045 3.78398 4.65763 0
M  V30 10726 H 980.115 3.59218 3.25715 0
M  V30 10727 N 981.458 -1.16348 1.06306 0
M  V30 10728 C 982.683 -1.91323 0.800636 0
M  V30 10729 C 983.108 -1.7691 -0.639105 0
M  V30 10730 O 982.466 -1.0945 -1.44535 0
M  V30 10731 C 982.514 -3.40038 1.20027 0
M  V30 10732 O 981.618 -4.11003 0.339142 0
M  V30 10733 H 980.959 -0.596057 0.292595 0
M  V30 10734 H 983.489 -1.47406 1.41889 0
M  V30 10735 H 983.499 -3.90808 1.17188 0
M  V30 10736 H 982.174 -3.49848 2.24898 0
M  V30 10737 H 980.751 -3.70423 0.42911 0
M  V30 10738 N 982.937 -0.845659 -1.3299 0
M  V30 10739 C 984.214 -0.366306 -1.92139 0
M  V30 10740 C 984.594 1.14912 -1.77083 0
M  V30 10741 O 983.942 1.96667 -1.16338 0
M  V30 10742 C 984.152 -0.820716 -3.39213 0
M  V30 10743 C 985.5 -0.832667 -4.16355 0
M  V30 10744 O 986.524 -0.764764 -3.47893 0
M  V30 10745 O 985.383 -0.926658 -5.38586 0
M  V30 10746 H 982.477 -0.105063 -0.820299 0
M  V30 10747 H 985.023 -0.931962 -1.41819 0
M  V30 10748 H 983.795 -1.86357 -3.44074 0
M  V30 10749 H 983.418 -0.232009 -3.96923 0
M  V30 10750 N 984.415 1.45619 -0.602734 0
M  V30 10751 C 985.645 2.06348 -0.102105 0
M  V30 10752 C 986.053 1.44884 1.21677 0
M  V30 10753 O 985.396 0.555559 1.75098 0
M  V30 10754 C 985.458 3.59309 0.117026 0
M  V30 10755 C 985.122 4.43081 -1.11931 0
M  V30 10756 C 986.119 4.78364 -2.03627 0
M  V30 10757 C 983.804 4.83908 -1.34677 0
M  V30 10758 C 985.798 5.53325 -3.16403 0
M  V30 10759 C 983.485 5.58624 -2.47754 0
M  V30 10760 C 984.483 5.93249 -3.38445 0
M  V30 10761 O 984.171 6.6645 -4.49555 0
M  V30 10762 H 983.903 0.672988 -0.0637478 0
M  V30 10763 H 986.457 1.87928 -0.828983 0
M  V30 10764 H 984.687 3.76111 0.898742 0
M  V30 10765 H 986.376 4.01897 0.568649 0
M  V30 10766 H 987.142 4.47384 -1.87277 0
M  V30 10767 H 983.021 4.56396 -0.649875 0
M  V30 10768 H 986.565 5.80268 -3.87214 0
M  V30 10769 H 982.462 5.89019 -2.64059 0
M  V30 10770 H 983.23 6.84895 -4.48175 0
M  V30 10771 N 985.893 0.34162 1.53853 0
M  V30 10772 C 986.841 -0.531412 2.26448 0
M  V30 10773 C 987.835 -1.10357 1.28521 0
M  V30 10774 O 989.041 -1.04953 1.46236 0
M  V30 10775 H 985.416 -0.190054 0.727588 0
M  V30 10776 H 987.387 0.102922 2.98222 0
M  V30 10777 C 986.136 -1.67154 3.04885 0
M  V30 10778 H 985.459 -1.24055 3.80066 0
M  V30 10779 H 986.899 -2.25762 3.58898 0
M  V30 10780 C 985.358 -2.59984 2.14266 0
M  V30 10781 O 985.888 -3.62181 1.73746 0
M  V30 10782 N 984.094 -2.28625 1.79385 0
M  V30 10783 H 983.641 -1.45559 2.12533 0
M  V30 10784 H 983.599 -2.90995 1.19035 0
M  V30 10785 N 987.371 -1.57444 0.0701946 0
M  V30 10786 C 988.62 -1.92605 -0.598849 0
M  V30 10787 C 988.933 -0.952058 -1.70866 0
M  V30 10788 O 990.139 -1.19643 -2.43716 0
M  V30 10789 C 988.595 -3.42142 -1.11655 0
M  V30 10790 C 988.203 -4.47984 -0.0378355 0
M  V30 10791 C 989.947 -3.86307 -1.75975 0
M  V30 10792 C 987.854 -5.88652 -0.569495 0
M  V30 10793 H 986.784 -0.718873 -0.22746 0
M  V30 10794 H 989.435 -1.82948 0.14217 0
M  V30 10795 H 987.817 -3.46866 -1.91049 0
M  V30 10796 H 988.991 -4.54874 0.736661 0
M  V30 10797 H 987.306 -4.13277 0.50904 0
M  V30 10798 H 989.903 -4.88784 -2.16782 0
M  V30 10799 H 990.246 -3.23587 -2.61911 0
M  V30 10800 H 990.779 -3.84179 -1.03206 0
M  V30 10801 H 987.518 -6.55013 0.252662 0
M  V30 10802 H 987.038 -5.85285 -1.31155 0
M  V30 10803 H 988.717 -6.38482 -1.04641 0
M  V30 10804 N 988.849 0.203349 -1.56283 0
M  V30 10805 C 989.781 1.27592 -1.90402 0
M  V30 10806 C 990.794 1.4213 -0.79391 0
M  V30 10807 O 991.983 1.42703 -1.07229 0
M  V30 10808 C 989.083 2.64919 -2.11356 0
M  V30 10809 C 988.256 2.72095 -3.42466 0
M  V30 10810 C 987.315 3.9056 -3.52631 0
M  V30 10811 O 986.341 3.78048 -4.25521 0
M  V30 10812 N 987.543 5.0566 -2.85111 0
M  V30 10813 H 990.308 0.986423 -2.83001 0
M  V30 10814 H 987.869 0.39331 -1.5705 0
M  V30 10815 H 989.861 3.42581 -2.15453 0
M  V30 10816 H 988.431 2.86391 -1.25295 0
M  V30 10817 H 987.651 1.8077 -3.50308 0
M  V30 10818 H 988.939 2.73874 -4.28801 0
M  V30 10819 H 988.337 5.18723 -2.25705 0
M  V30 10820 H 986.894 5.81299 -2.94847 0
M  V30 10821 N 990.327 1.50405 0.470755 0
M  V30 10822 C 991.274 1.69293 1.56871 0
M  V30 10823 C 992.244 0.534248 1.57274 0
M  V30 10824 O 993.429 0.764855 1.74799 0
M  V30 10825 C 990.569 1.79338 2.94842 0
M  V30 10826 C 989.682 3.06709 3.04226 0
M  V30 10827 C 988.817 3.07548 4.33114 0
M  V30 10828 C 987.856 4.29372 4.36241 0
M  V30 10829 N 986.993 4.27949 5.56601 0
M  V30 10830 H 991.833 2.63029 1.40071 0
M  V30 10831 H 989.37 1.30386 0.681016 0
M  V30 10832 H 991.328 1.83143 3.74853 0
M  V30 10833 H 989.958 0.890411 3.10277 0
M  V30 10834 H 989.01 3.12374 2.17086 0
M  V30 10835 H 990.322 3.96684 3.02396 0
M  V30 10836 H 989.476 3.10084 5.21472 0
M  V30 10837 H 988.215 2.15404 4.37553 0
M  V30 10838 H 987.22 4.27048 3.4628 0
M  V30 10839 H 988.445 5.22743 4.33493 0
M  V30 10840 H 986.391 3.38658 5.61824 0
M  V30 10841 H 986.308 5.11692 5.56513 0
M  V30 10842 H 987.576 4.34631 6.47083 0
M  V30 10843 N 991.805 -0.723954 1.39988 0
M  V30 10844 C 992.715 -1.86829 1.41887 0
M  V30 10845 C 993.731 -1.71173 0.312401 0
M  V30 10846 O 994.907 -1.93583 0.555651 0
M  V30 10847 C 991.972 -3.22541 1.27154 0
M  V30 10848 C 991.033 -3.50512 2.47871 0
M  V30 10849 C 990.266 -4.79749 2.33831 0
M  V30 10850 O 990.489 -5.54251 1.34765 0
M  V30 10851 O 989.423 -5.07868 3.23039 0
M  V30 10852 H 993.249 -1.88183 2.38371 0
M  V30 10853 H 990.834 -0.873259 1.21221 0
M  V30 10854 H 992.716 -4.0362 1.21114 0
M  V30 10855 H 991.391 -3.21933 0.337715 0
M  V30 10856 H 990.298 -2.69475 2.59488 0
M  V30 10857 H 991.631 -3.55909 3.39985 0
M  V30 10858 N 993.283 -1.25346 -0.955304 0
M  V30 10859 C 994.508 -1.12892 -1.73983 0
M  V30 10860 C 994.933 0.313455 -1.8547 0
M  V30 10861 O 994.291 1.22706 -1.33465 0
M  V30 10862 C 994.339 -1.78729 -3.1319 0
M  V30 10863 O 993.443 -1.06648 -3.98372 0
M  V30 10864 H 992.784 -0.394178 -0.534341 0
M  V30 10865 H 995.314 -1.65897 -1.19747 0
M  V30 10866 H 995.324 -1.84987 -3.63653 0
M  V30 10867 H 993.999 -2.83669 -3.04146 0
M  V30 10868 H 992.576 -1.08266 -3.56837 0
M  V30 10869 N 994.761 1.15782 -1.06922 0
M  V30 10870 C 995.989 1.90355 -0.81072 0
M  V30 10871 C 996.404 1.77779 0.635614 0
M  V30 10872 O 995.761 1.12675 1.43564 0
M  V30 10873 C 995.812 3.4085 -1.2043 0
M  V30 10874 O 995.533 3.53057 -2.59388 0
M  V30 10875 C 997.034 4.32457 -0.974473 0
M  V30 10876 H 994.254 0.60343 -0.293451 0
M  V30 10877 H 996.798 1.46723 -1.42452 0
M  V30 10878 H 994.953 3.82162 -0.634909 0
M  V30 10879 H 995.367 4.46426 -2.75326 0
M  V30 10880 H 996.841 5.36488 -1.29942 0
M  V30 10881 H 997.318 4.39109 0.0894481 0
M  V30 10882 H 997.924 3.96882 -1.52856 0
M  V30 10883 N 996.239 0.8527 1.3254 0
M  V30 10884 C 997.169 0.311234 2.31416 0
M  V30 10885 C 998.15 -0.588557 1.59593 0
M  V30 10886 O 999.335 -0.509211 1.87405 0
M  V30 10887 C 996.465 -0.502892 3.4364 0
M  V30 10888 C 995.419 0.302296 4.26931 0
M  V30 10889 C 994.745 -0.636445 5.30899 0
M  V30 10890 C 996.045 1.52697 4.99481 0
M  V30 10891 H 997.739 1.13742 2.76953 0
M  V30 10892 H 995.285 0.548389 1.33149 0
M  V30 10893 H 997.238 -0.892092 4.11849 0
M  V30 10894 H 995.962 -1.36242 2.96826 0
M  V30 10895 H 994.621 0.673226 3.60365 0
M  V30 10896 H 994.269 -1.49277 4.80339 0
M  V30 10897 H 993.969 -0.101716 5.87512 0
M  V30 10898 H 995.493 -1.02286 6.01972 0
M  V30 10899 H 996.907 1.21017 5.60382 0
M  V30 10900 H 995.304 1.9995 5.65809 0
M  V30 10901 H 996.374 2.28929 4.27457 0
M  V30 10902 N 997.718 -1.45297 0.610449 0
M  V30 10903 C 998.668 -2.27639 -0.128194 0
M  V30 10904 C 999.652 -1.37485 -0.835861 0
M  V30 10905 O 1000.84 -1.61454 -0.725378 0
M  V30 10906 C 997.973 -3.24413 -1.123 0
M  V30 10907 C 997.059 -4.22055 -0.416029 0
M  V30 10908 N 997.45 -5.02867 0.543921 0
M  V30 10909 C 995.748 -4.41041 -0.663208 0
M  V30 10910 C 996.449 -5.73728 0.959731 0
M  V30 10911 N 995.425 -5.42756 0.302873 0
M  V30 10912 H 999.227 -2.8752 0.609056 0
M  V30 10913 H 996.741 -1.56484 0.434338 0
M  V30 10914 H 998.738 -3.82139 -1.6666 0
M  V30 10915 H 997.398 -2.66092 -1.86078 0
M  V30 10916 H 998.409 -5.09649 0.920799 0
M  V30 10917 H 995.086 -3.93842 -1.38544 0
M  V30 10918 H 996.476 -6.48666 1.75163 0
M  V30 10919 N 999.196 -0.349774 -1.5367 0
M  V30 10920 C 1000.13 0.496338 -2.28164 0
M  V30 10921 C 1001.11 1.09737 -1.29968 0
M  V30 10922 O 1002.29 1.11759 -1.58819 0
M  V30 10923 C 999.422 1.64428 -3.0591 0
M  V30 10924 C 998.376 1.17127 -4.11661 0
M  V30 10925 C 997.702 2.40822 -4.77398 0
M  V30 10926 C 999.002 0.267293 -5.21616 0
M  V30 10927 H 1000.7 -0.125117 -2.99138 0
M  V30 10928 H 998.242 -0.0616152 -1.43868 0
M  V30 10929 H 1000.19 2.2427 -3.56765 0
M  V30 10930 H 998.919 2.29272 -2.32598 0
M  V30 10931 H 997.578 0.595634 -3.61729 0
M  V30 10932 H 997.226 3.04088 -4.00674 0
M  V30 10933 H 996.926 2.09852 -5.48849 0
M  V30 10934 H 998.45 3.01378 -5.3104 0
M  V30 10935 H 999.864 0.772734 -5.68068 0
M  V30 10936 H 998.261 0.0491991 -6.0008 0
M  V30 10937 H 999.331 -0.694892 -4.79895 0
M  V30 10938 N 1000.67 1.57404 -0.0785433 0
M  V30 10939 C 1001.92 1.94031 0.589896 0
M  V30 10940 C 1002.25 0.959297 1.68852 0
M  V30 10941 O 1001.53 -0.0103978 1.94497 0
M  V30 10942 C 1001.81 3.40886 1.16055 0
M  V30 10943 C 1001.66 4.49748 0.0681072 0
M  V30 10944 C 1002.98 3.88699 2.06401 0
M  V30 10945 H 1000.1 0.70556 0.212965 0
M  V30 10946 H 1002.74 1.89439 -0.145886 0
M  V30 10947 H 1000.89 3.4493 1.78761 0
M  V30 10948 H 1002.57 4.57823 -0.565318 0
M  V30 10949 H 1000.81 4.29625 -0.600431 0
M  V30 10950 H 1001.48 5.49658 0.507906 0
M  V30 10951 H 1003.96 3.86703 1.53622 0
M  V30 10952 H 1002.83 4.92052 2.43261 0
M  V30 10953 H 1003.09 3.2703 2.97496 0
M  V30 10954 N 1002.15 -0.195058 1.56388 0
M  V30 10955 C 1003.08 -1.24444 1.97575 0
M  V30 10956 C 1004.06 -1.47471 0.847717 0
M  V30 10957 O 1005.25 -1.59208 1.11205 0
M  V30 10958 C 1002.38 -2.58866 2.31529 0
M  V30 10959 C 1001.33 -2.50451 3.47071 0
M  V30 10960 C 1000.66 -3.89146 3.667 0
M  V30 10961 C 1001.96 -2.02953 4.81256 0
M  V30 10962 H 1003.65 -0.902178 2.85484 0
M  V30 10963 H 1001.2 -0.43254 1.3735 0
M  V30 10964 H 1003.15 -3.3246 2.58936 0
M  V30 10965 H 1001.87 -2.94833 1.40502 0
M  V30 10966 H 1000.53 -1.79313 3.19754 0
M  V30 10967 H 1000.18 -4.22466 2.73004 0
M  V30 10968 H 999.882 -3.84391 4.44429 0
M  V30 10969 H 1001.41 -4.64363 3.96484 0
M  V30 10970 H 1002.82 -2.66306 5.07695 0
M  V30 10971 H 1001.22 -2.092 5.62455 0
M  V30 10972 H 1002.29 -0.982757 4.74837 0
M  V30 10973 N 1003.63 -1.50653 -0.462772 0
M  V30 10974 C 1005.05 -1.38263 -0.797213 0
M  V30 10975 C 1005.25 -0.445172 -1.96521 0
M  V30 10976 O 1004.3 0.10913 -2.52264 0
M  V30 10977 C 1005.61 -2.798 -1.10146 0
M  V30 10978 C 1007.16 -2.88774 -1.20742 0
M  V30 10979 C 1007.64 -4.31163 -1.54476 0
M  V30 10980 N 1009.13 -4.34152 -1.61451 0
M  V30 10981 C 1009.86 -5.4133 -1.89074 0
M  V30 10982 N 1009.36 -6.58705 -2.1466 0
M  V30 10983 N 1011.15 -5.28783 -1.90645 0
M  V30 10984 H 1003.3 -2.10172 0.30684 0
M  V30 10985 H 1005.57 -0.945046 0.0747862 0
M  V30 10986 H 1005.27 -3.50276 -0.316207 0
M  V30 10987 H 1005.15 -3.17559 -2.03559 0
M  V30 10988 H 1007.53 -2.18512 -1.98334 0
M  V30 10989 H 1007.61 -2.54547 -0.252904 0
M  V30 10990 H 1007.26 -5.01965 -0.774207 0
M  V30 10991 H 1007.19 -4.62883 -2.51092 0
M  V30 10992 H 1009.68 -3.49519 -1.43684 0
M  V30 10993 H 1009.99 -7.36192 -2.35035 0
M  V30 10994 H 1008.34 -6.61866 -2.12035 0
M  V30 10995 H 1011.53 -4.36078 -1.70158 0
M  V30 10996 H 1011.7 -6.12396 -2.11836 0
M  V30 10997 N 1005.11 0.71652 -1.4037 0
M  V30 10998 C 1006.04 1.84345 -1.43315 0
M  V30 10999 C 1007.02 1.67537 -0.294186 0
M  V30 11000 O 1008.2 1.87582 -0.502671 0
M  V30 11001 C 1005.33 3.2229 -1.29408 0
M  V30 11002 C 1004.29 3.53769 -2.40897 0
M  V30 11003 C 1003.61 4.90847 -2.12068 0
M  V30 11004 C 1004.91 3.54862 -3.83237 0
M  V30 11005 H 1006.61 1.82138 -2.37626 0
M  V30 11006 H 1004.15 0.874873 -1.14376 0
M  V30 11007 H 1006.11 4.00819 -1.30085 0
M  V30 11008 H 1004.83 3.2507 -0.31573 0
M  V30 11009 H 1003.49 2.77579 -2.39469 0
M  V30 11010 H 1003.14 4.90229 -1.12626 0
M  V30 11011 H 1002.84 5.12875 -2.86762 0
M  V30 11012 H 1004.36 5.71711 -2.14426 0
M  V30 11013 H 1005.78 4.23432 -3.86494 0
M  V30 11014 H 1004.17 3.88416 -4.57442 0
M  V30 11015 H 1005.24 2.54266 -4.12888 0
M  V30 11016 N 1006.59 1.25851 0.948643 0
M  V30 11017 C 1008 1.02802 1.22081 0
M  V30 11018 C 1008.2 -0.251461 1.99925 0
M  V30 11019 O 1007.26 -0.962592 2.33432 0
M  V30 11020 C 1008.57 2.25489 1.98936 0
M  V30 11021 C 1010.12 2.30312 2.11956 0
M  V30 11022 C 1010.59 3.52671 2.92211 0
M  V30 11023 N 1012.09 3.53103 2.99787 0
M  V30 11024 C 1012.82 4.44445 3.62294 0
M  V30 11025 N 1012.32 5.46065 4.26362 0
M  V30 11026 N 1014.11 4.32113 3.59493 0
M  V30 11027 H 1006.26 2.08042 0.428044 0
M  V30 11028 H 1008.52 0.913928 0.251872 0
M  V30 11029 H 1008.23 3.18513 1.4914 0
M  V30 11030 H 1008.1 2.2914 2.99624 0
M  V30 11031 H 1010.49 1.37808 2.60946 0
M  V30 11032 H 1010.57 2.30676 1.10554 0
M  V30 11033 H 1010.22 4.45501 2.43909 0
M  V30 11034 H 1010.15 3.49554 3.93853 0
M  V30 11035 H 1012.64 2.79597 2.54232 0
M  V30 11036 H 1012.95 6.11964 4.71932 0
M  V30 11037 H 1011.29 5.49931 4.24972 0
M  V30 11038 H 1014.49 3.51946 3.08629 0
M  V30 11039 H 1014.66 5.03493 4.0792 0
M  V30 11040 N 1008.06 -1.15214 1.07534 0
M  V30 11041 C 1009.31 -1.85676 0.79805 0
M  V30 11042 C 1009.63 -1.82837 -0.677919 0
M  V30 11043 O 1008.9 -1.27059 -1.49107 0
M  V30 11044 H 1007.48 -0.687468 0.292227 0
M  V30 11045 H 1010.15 -1.39658 1.35947 0
M  V30 11046 H 1009.24 -2.9076 1.13423 0
M  V30 11047 N 1009.54 -0.859717 -1.32086 0
M  V30 11048 C 1010.79 -0.464662 -1.96686 0
M  V30 11049 C 1011.11 0.98412 -1.68345 0
M  V30 11050 O 1010.38 1.68847 -0.993361 0
M  V30 11051 H 1008.96 -0.168838 -0.727669 0
M  V30 11052 H 1011.62 -1.09726 -1.61079 0
M  V30 11053 H 1010.72 -0.613904 -3.06003 0
M  V30 11054 N 1011.02 1.44971 -0.618145 0
M  V30 11055 C 1012.27 2.02458 -0.117656 0
M  V30 11056 C 1012.6 1.48413 1.25248 0
M  V30 11057 O 1011.87 0.662997 1.82851 0
M  V30 11058 C 1012.16 3.59987 -0.0901897 0
M  V30 11059 C 1012.01 4.24343 -1.49175 0
M  V30 11060 C 1013.33 4.36099 0.592121 0
M  V30 11061 H 1010.45 0.735672 -0.0442291 0
M  V30 11062 H 1013.09 1.727 -0.792138 0
M  V30 11063 H 1011.24 3.85471 0.484175 0
M  V30 11064 H 1012.91 4.10009 -2.114 0
M  V30 11065 H 1011.16 3.82337 -2.04941 0
M  V30 11066 H 1011.83 5.33298 -1.42468 0
M  V30 11067 H 1014.3 4.1597 0.103813 0
M  V30 11068 H 1013.18 5.45822 0.580481 0
M  V30 11069 H 1013.44 4.09746 1.66015 0
M  V30 11070 O 1012.54 0.500115 1.53561 0
M  V30 11071 H 1013.23 -0.0177336 1.93692 0
M  V30 END ATOM
M  V30 BEGIN BOND
M  V30 END BOND
M  V30 END CTAB
M  END
$$$$
