drugbank_target|P25705 ATP synthase subunit alpha, mitochondrial (DB04216; DB07384; DB07394; DB08399; DB08629; DB11638)
 OpenBabel12092120423D

  0  0  0     0  0            999 V3000
M  V30 BEGIN CTAB
M  V30 COUNTS 8518 8574 0 0 0
M  V30 BEGIN ATOM
M  V30 1 H -0.908 1.98254 -0.117106 0
M  V30 2 N 0 1.576 0 0
M  V30 3 C 0.933 2.03868 1.02534 0
M  V30 4 C 1.911 0.928543 1.3348 0
M  V30 5 O 3.095 1.19667 1.45644 0
M  V30 6 C 0.222 2.43627 2.35294 0
M  V30 7 C -0.732 3.65373 2.2001 0
M  V30 8 S 0.101 5.13292 1.52614 0
M  V30 9 C 1.257 5.56322 2.86805 0
M  V30 10 H 1.49 2.90518 0.631377 0
M  V30 11 H -0.977 1.52953 0.210867 0
M  V30 12 H 0.981 2.67203 3.11629 0
M  V30 13 H -0.358 1.57376 2.7183 0
M  V30 14 H -1.165 3.90944 3.18086 0
M  V30 15 H -1.563 3.418 1.51819 0
M  V30 16 H 0.729 5.58782 3.83104 0
M  V30 17 H 1.672 6.56266 2.65933 0
M  V30 18 H 2.08 4.83886 2.90714 0
M  V30 19 N 1.4781 -0.272755 1.55222 0
M  V30 20 C 2.4081 -1.34136 1.91127 0
M  V30 21 C 3.3891 -1.51513 0.773168 0
M  V30 22 O 4.5741 -1.64552 1.03132 0
M  V30 23 C 1.7041 -2.70083 2.1834 0
M  V30 24 C 0.6581 -2.67437 3.34158 0
M  V30 25 C -0.0159 -4.06938 3.46851 0
M  V30 26 C 1.2841 -2.26686 4.70543 0
M  V30 27 H 2.9781 -1.04333 2.80633 0
M  V30 28 H 0.5241 -0.500454 1.35024 0
M  V30 29 H 2.4771 -3.44952 2.42046 0
M  V30 30 H 1.2011 -3.01469 1.25634 0
M  V30 31 H -0.1399 -1.95026 3.1042 0
M  V30 32 H -0.4919 -4.35547 2.51611 0
M  V30 33 H -0.7919 -4.06062 4.2472 0
M  V30 34 H 0.7321 -4.83545 3.72849 0
M  V30 35 H 2.1461 -2.91277 4.93792 0
M  V30 36 H 0.5431 -2.36971 5.5133 0
M  V30 37 H 1.6131 -1.21818 4.69349 0
M  V30 38 N 2.9562 -1.48159 -0.537278 0
M  V30 39 C 4.1812 -1.59707 -1.32319 0
M  V30 40 C 4.6062 -0.254859 -1.86365 0
M  V30 41 O 3.9642 0.772378 -1.64024 0
M  V30 42 C 4.0122 -2.6412 -2.45505 0
M  V30 43 O 3.1162 -2.20774 -3.48328 0
M  V30 44 H 2.4572 -0.535791 -0.392204 0
M  V30 45 H 4.9872 -1.94092 -0.647268 0
M  V30 46 H 4.9972 -2.85166 -2.91795 0
M  V30 47 H 3.6722 -3.61567 -2.05528 0
M  V30 48 H 2.2492 -2.09911 -3.08207 0
M  V30 49 N 4.4343 0.785586 -1.36625 0
M  V30 50 C 5.6803 1.54591 -1.31261 0
M  V30 51 C 6.0133 1.93906 0.106823 0
M  V30 52 O 5.2883 1.63007 1.06108 0
M  V30 53 C 5.5713 2.82038 -2.23889 0
M  V30 54 C 5.4243 2.49066 -3.74548 0
M  V30 55 C 6.7433 3.83887 -2.15217 0
M  V30 56 H 3.8623 0.560846 -0.478143 0
M  V30 57 H 6.5043 0.902278 -1.67209 0
M  V30 58 H 4.6543 3.36961 -1.93363 0
M  V30 59 H 6.3263 2.00164 -4.15611 0
M  V30 60 H 4.5693 1.81954 -3.93796 0
M  V30 61 H 5.2403 3.40109 -4.34776 0
M  V30 62 H 7.7163 3.38421 -2.42096 0
M  V30 63 H 6.5923 4.70806 -2.82193 0
M  V30 64 H 6.8533 4.27131 -1.14068 0
M  V30 65 N 5.9124 1.20967 1.01018 0
M  V30 66 C 7.3284 0.965905 1.27053 0
M  V30 67 C 7.5284 -0.350785 1.98423 0
M  V30 68 O 6.5844 -1.07773 2.28344 0
M  V30 69 C 7.8974 2.15294 2.09926 0
M  V30 70 C 9.4454 2.19463 2.23171 0
M  V30 71 C 9.9204 3.3767 3.09424 0
M  V30 72 N 11.4114 3.37724 3.17012 0
M  V30 73 C 12.1464 4.25837 3.83993 0
M  V30 74 N 11.6424 5.24138 4.53047 0
M  V30 75 N 13.4354 4.1366 3.80581 0
M  V30 76 H 5.5864 2.0565 0.531194 0
M  V30 77 H 7.8494 0.90024 0.297106 0
M  V30 78 H 7.5554 3.10684 1.64828 0
M  V30 79 H 7.4294 2.13923 3.10672 0
M  V30 80 H 9.8164 1.24632 2.6749 0
M  V30 81 H 9.8974 2.2488 1.21912 0
M  V30 82 H 9.5414 4.32791 2.65808 0
M  V30 83 H 9.4714 3.29491 4.10784 0
M  V30 84 H 11.9624 2.6658 2.6785 0
M  V30 85 H 12.2754 5.87684 5.01844 0
M  V30 86 H 10.6204 5.28068 4.5185 0
M  V30 87 H 13.8114 3.36127 3.25785 0
M  V30 88 H 13.9844 4.82538 4.32505 0
M  V30 89 N 7.3905 -1.2043 1.01659 0
M  V30 90 C 8.6365 -1.90079 0.706963 0
M  V30 91 C 8.9695 -1.78648 -0.761474 0
M  V30 92 O 8.2445 -1.17069 -1.55323 0
M  V30 93 C 8.5275 -3.41469 1.14327 0
M  V30 94 C 8.3805 -3.61833 2.67201 0
M  V30 95 C 9.6995 -4.34261 0.714529 0
M  V30 96 H 6.8185 -0.690254 0.2583 0
M  V30 97 H 9.4605 -1.41826 1.26433 0
M  V30 98 H 7.6105 -3.82696 0.669056 0
M  V30 99 H 9.2825 -3.2986 3.22475 0
M  V30 100 H 7.5255 -3.05304 3.08175 0
M  V30 101 H 8.1965 -4.67955 2.92783 0
M  V30 102 H 10.6725 -4.00682 1.12221 0
M  V30 103 H 9.5485 -5.38806 1.04784 0
M  V30 104 H 9.8095 -4.40431 -0.383799 0
M  V30 105 N 8.8686 -0.792821 -1.36206 0
M  V30 106 C 9.8316 -0.199459 -2.2833 0
M  V30 107 C 10.8316 0.605189 -1.48977 0
M  V30 108 O 12.0216 0.425685 -1.68919 0
M  V30 109 C 9.1536 0.723523 -3.33134 0
M  V30 110 H 10.3466 -1.01181 -2.82316 0
M  V30 111 H 7.8996 -0.562485 -1.45828 0
M  V30 112 H 8.6346 1.56008 -2.84309 0
M  V30 113 H 8.4196 0.148436 -3.91819 0
M  V30 114 H 9.9096 1.13344 -4.01924 0
M  V30 115 N 10.3467 1.47872 -0.545128 0
M  V30 116 C 11.3097 2.28337 0.198717 0
M  V30 117 C 12.3097 1.36255 0.853888 0
M  V30 118 O 13.4997 1.59003 0.711606 0
M  V30 119 C 10.6317 3.15585 1.28915 0
M  V30 120 H 11.8247 2.95567 -0.507941 0
M  V30 121 H 9.3777 1.53362 -0.301616 0
M  V30 122 H 10.1127 2.53019 2.02859 0
M  V30 123 H 9.8977 3.83337 0.824309 0
M  V30 124 H 11.3877 3.76243 1.81194 0
M  V30 125 N 11.8248 0.280983 1.55075 0
M  V30 126 C 12.7878 -0.590896 2.21452 0
M  V30 127 C 13.7878 -1.07682 1.19421 0
M  V30 128 O 14.9778 -0.97605 1.44288 0
M  V30 129 C 12.1098 -1.81587 2.88511 0
M  V30 130 H 13.3028 -0.0112554 2.99898 0
M  V30 131 H 10.8558 0.0316438 1.56268 0
M  V30 132 H 11.5908 -2.43587 2.14093 0
M  V30 133 H 11.3758 -1.4753 3.63287 0
M  V30 134 H 12.8658 -2.43575 3.39206 0
M  V30 135 N 13.3029 -1.57598 0.00835791 0
M  V30 136 C 14.5489 -1.91211 -0.675732 0
M  V30 137 C 14.8819 -0.883139 -1.72958 0
M  V30 138 O 14.1569 0.097016 -1.94258 0
M  V30 139 C 14.4399 -3.35379 -1.31123 0
M  V30 140 C 14.2929 -4.48999 -0.268356 0
M  V30 141 C 15.6119 -3.7912 -2.23508 0
M  V30 142 H 12.7309 -0.695374 -0.244179 0
M  V30 143 H 15.3729 -1.89901 0.0613655 0
M  V30 144 H 13.5229 -3.36626 -1.93946 0
M  V30 145 H 15.1949 -4.59887 0.360844 0
M  V30 146 H 13.4379 -4.31873 0.408482 0
M  V30 147 H 14.1089 -5.46851 -0.752218 0
M  V30 148 H 16.5849 -3.79477 -1.70693 0
M  V30 149 H 15.4609 -4.80729 -2.64936 0
M  V30 150 H 15.7219 -3.13455 -3.11766 0
M  V30 151 N 14.781 0.264519 -1.55364 0
M  V30 152 C 16.027 0.99646 -1.76631 0
M  V30 153 C 16.36 1.85632 -0.570478 0
M  V30 154 O 15.635 1.89647 0.43175 0
M  V30 155 C 15.918 1.87187 -3.07625 0
M  V30 156 C 15.771 1.04138 -4.37579 0
M  V30 157 C 17.09 2.85749 -3.34717 0
M  V30 158 H 14.209 0.360841 -0.642622 0
M  V30 159 H 16.851 0.268218 -1.88097 0
M  V30 160 H 15.001 2.49279 -2.9798 0
M  V30 161 H 16.673 0.440517 -4.59192 0
M  V30 162 H 14.916 0.345115 -4.32425 0
M  V30 163 H 15.587 1.68729 -5.2558 0
M  V30 164 H 18.063 2.33793 -3.4421 0
M  V30 165 H 16.939 3.44136 -4.27623 0
M  V30 166 H 17.2 3.61311 -2.54768 0
M  V30 167 N 16.2591 1.48442 0.529413 0
M  V30 168 C 17.6751 1.34575 0.858004 0
M  V30 169 C 17.8751 0.3572 1.98309 0
M  V30 170 O 16.9311 -0.221379 2.51528 0
M  V30 171 C 18.2441 2.74617 1.22499 0
M  V30 172 C 19.7921 2.83109 1.33484 0
M  V30 173 C 20.2671 4.23854 1.73526 0
M  V30 174 N 21.7581 4.2653 1.80628 0
M  V30 175 C 22.4931 5.32372 2.12997 0
M  V30 176 N 21.9891 6.48491 2.43786 0
M  V30 177 N 23.7821 5.19766 2.14008 0
M  V30 178 H 15.9331 2.1133 -0.212925 0
M  V30 179 H 18.1961 0.947439 -0.0326199 0
M  V30 180 H 17.9021 3.4852 0.471905 0
M  V30 181 H 17.7761 3.08177 2.17501 0
M  V30 182 H 20.1631 2.09462 2.0787 0
M  V30 183 H 20.2441 2.53168 0.366027 0
M  V30 184 H 19.8881 4.98018 0.997013 0
M  V30 185 H 19.8181 4.5124 2.71459 0
M  V30 186 H 22.3091 3.42772 1.59108 0
M  V30 187 H 22.6221 7.24993 2.67592 0
M  V30 188 H 20.9671 6.51765 2.41304 0
M  V30 189 H 24.1581 4.28066 1.89412 0
M  V30 190 H 24.3311 6.02354 2.38902 0
M  V30 191 N 17.7372 -0.778329 1.37039 0
M  V30 192 C 18.7002 -1.87301 1.32102 0
M  V30 193 C 19.7002 -1.59198 0.226405 0
M  V30 194 O 20.8902 -1.67403 0.481861 0
M  V30 195 C 18.0222 -3.24309 1.05055 0
M  V30 196 H 19.2152 -1.93093 2.29467 0
M  V30 197 H 16.7682 -0.977358 1.21973 0
M  V30 198 H 17.5032 -3.24196 0.0819373 0
M  V30 199 H 17.2882 -3.46098 1.84279 0
M  V30 200 H 18.7782 -4.04382 1.04234 0
M  V30 201 N 19.2153 -1.21501 -1.00376 0
M  V30 202 C 20.1453 -0.999478 -2.11028 0
M  V30 203 C 21.1263 0.0759671 -1.6993 0
M  V30 204 O 22.3113 -0.0841106 -1.94018 0
M  V30 205 C 19.4413 -0.564709 -3.42678 0
M  V30 206 C 18.3953 -1.58486 -3.97576 0
M  V30 207 C 17.7213 -1.00628 -5.25146 0
M  V30 208 C 19.0213 -2.97204 -4.29496 0
M  V30 209 H 20.7153 -1.92495 -2.29317 0
M  V30 210 H 18.2613 -0.92693 -1.102 0
M  V30 211 H 20.2143 -0.401091 -4.19487 0
M  V30 212 H 18.9383 0.396411 -3.24185 0
M  V30 213 H 17.5973 -1.73606 -3.22888 0
M  V30 214 H 17.2453 -0.0368439 -5.02987 0
M  V30 215 H 16.9453 -1.68771 -5.62841 0
M  V30 216 H 18.4693 -0.854015 -6.04598 0
M  V30 217 H 19.8833 -2.8552 -4.97143 0
M  V30 218 H 18.2803 -3.62372 -4.78338 0
M  V30 219 H 19.3503 -3.47956 -3.3772 0
M  V30 220 N 20.6934 1.19889 -1.02296 0
M  V30 221 C 22.1044 1.71124 -0.746568 0
M  V30 222 C 22.4554 1.81939 0.734335 0
M  V30 223 O 21.5804 1.48639 1.57275 0
M  V30 224 C 22.1754 3.10804 -1.34857 0
M  V30 225 C 20.7344 3.59323 -1.1209 0
M  V30 226 C 19.8814 2.3635 -1.45031 0
M  V30 227 H 22.8324 1.04813 -1.19163 0
M  V30 228 H 22.8534 3.73186 -0.742437 0
M  V30 229 H 22.3654 3.029 -2.42638 0
M  V30 230 H 20.4664 3.7255 -0.0610337 0
M  V30 231 H 20.5794 4.4378 -1.80544 0
M  V30 232 H 18.9434 2.39399 -0.869487 0
M  V30 233 H 19.7264 2.31081 -2.53883 0
M  V30 234 N 22.1715 0.800033 1.35784 0
M  V30 235 C 23.5875 0.482977 1.52117 0
M  V30 236 C 23.7875 -0.996948 1.75109 0
M  V30 237 O 22.8435 -1.78216 1.78872 0
M  V30 238 C 24.1565 1.32264 2.70049 0
M  V30 239 C 25.7045 1.31742 2.83924 0
M  V30 240 C 26.1795 2.14106 4.04874 0
M  V30 241 N 27.6705 2.11607 4.12039 0
M  V30 242 C 28.4055 2.72099 5.04727 0
M  V30 243 N 27.9015 3.41492 6.02789 0
M  V30 244 N 29.6945 2.61776 4.97423 0
M  V30 245 H 21.8455 1.75856 1.19115 0
M  V30 246 H 24.1085 0.748122 0.582252 0
M  V30 247 H 23.8145 2.37261 2.59616 0
M  V30 248 H 23.6885 0.971303 3.6448 0
M  V30 249 H 26.0755 0.275333 2.93813 0
M  V30 250 H 26.1565 1.70859 1.9037 0
M  V30 251 H 25.8005 3.18351 3.95746 0
M  V30 252 H 25.7305 1.72353 4.97596 0
M  V30 253 H 28.2215 1.61112 3.41835 0
M  V30 254 H 28.5345 3.84953 6.70098 0
M  V30 255 H 26.8795 3.45596 6.02983 0
M  V30 256 H 30.0705 2.07157 4.19766 0
M  V30 257 H 30.2435 3.0921 5.69468 0
M  V30 258 N 23.6496 -1.47581 0.552962 0
M  V30 259 C 25.0656 -1.5818 0.212424 0
M  V30 260 C 25.2656 -1.55213 -1.28496 0
M  V30 261 O 24.3216 -1.45329 -2.06484 0
M  V30 262 C 25.6346 -2.88865 0.835318 0
M  V30 263 C 27.1826 -3.0244 0.806156 0
M  V30 264 C 27.6576 -4.35819 1.40804 0
M  V30 265 N 29.1486 -4.42444 1.37103 0
M  V30 266 C 29.8836 -5.44202 1.80641 0
M  V30 267 N 29.3796 -6.52795 2.32015 0
M  V30 268 N 31.1726 -5.35222 1.71738 0
M  V30 269 H 23.3236 -1.47753 1.52587 0
M  V30 270 H 25.5866 -0.702941 0.636064 0
M  V30 271 H 25.2926 -2.9676 1.88749 0
M  V30 272 H 25.1666 -3.7579 0.325848 0
M  V30 273 H 27.5536 -2.94144 -0.237317 0
M  V30 274 H 27.6346 -2.17068 1.35334 0
M  V30 275 H 27.2786 -4.44871 2.45056 0
M  V30 276 H 27.2086 -5.19916 0.836338 0
M  V30 277 H 29.6996 -3.6456 0.995202 0
M  V30 278 H 30.0126 -7.26609 2.63171 0
M  V30 279 H 28.3576 -6.53696 2.36023 0
M  V30 280 H 31.5486 -4.49284 1.31382 0
M  V30 281 H 31.7216 -6.14389 2.05987 0
M  V30 282 N 25.1277 -0.289203 -1.54924 0
M  V30 283 C 26.0907 0.579144 -2.21762 0
M  V30 284 C 27.0907 1.07047 -1.1999 0
M  V30 285 O 28.2807 0.968384 -1.44803 0
M  V30 286 C 25.4127 1.80055 -2.8947 0
M  V30 287 H 26.6057 -0.00464908 -2.999 0
M  V30 288 H 24.1587 -0.0399306 -1.56249 0
M  V30 289 H 24.8937 2.42449 -2.15381 0
M  V30 290 H 24.6787 1.45602 -3.64064 0
M  V30 291 H 26.1687 2.41773 -3.40493 0
M  V30 292 N 26.6058 1.57591 -0.0167156 0
M  V30 293 C 27.8538 1.90906 0.663285 0
M  V30 294 C 28.1748 0.892509 1.73376 0
M  V30 295 O 27.4448 -0.0677623 1.95783 0
M  V30 296 H 26.0248 0.704637 0.247983 0
M  V30 297 H 28.6868 1.94803 -0.0615909 0
M  V30 298 H 27.7828 2.9116 1.12393 0
M  V30 299 N 28.0839 -0.256276 1.55502 0
M  V30 300 C 29.0139 -1.32102 1.92539 0
M  V30 301 C 29.9949 -1.50684 0.789194 0
M  V30 302 O 31.1799 -1.63449 1.04872 0
M  V30 303 C 28.3099 -2.67752 2.21192 0
M  V30 304 C 27.2639 -2.63878 3.36975 0
M  V30 305 C 26.5899 -4.03236 3.51147 0
M  V30 306 C 27.8899 -2.21682 4.72921 0
M  V30 307 H 29.5839 -1.01351 2.81724 0
M  V30 308 H 27.1299 -0.486105 1.35547 0
M  V30 309 H 29.0829 -3.42365 2.45691 0
M  V30 310 H 27.8069 -3.0012 1.28824 0
M  V30 311 H 26.4659 -1.91722 3.12471 0
M  V30 312 H 26.1139 -4.32854 2.56216 0
M  V30 313 H 25.8139 -4.01535 4.29003 0
M  V30 314 H 27.3379 -4.79563 3.77957 0
M  V30 315 H 28.7519 -2.86023 4.96854 0
M  V30 316 H 27.1489 -2.3111 5.53812 0
M  V30 317 H 28.2189 -1.16833 4.70615 0
M  V30 318 N 29.562 -1.4872 -0.521534 0
M  V30 319 C 30.808 -1.574 -1.27879 0
M  V30 320 C 31.141 -0.250817 -1.92573 0
M  V30 321 O 30.416 0.743934 -1.79711 0
M  V30 322 C 30.699 -2.71843 -2.36164 0
M  V30 323 C 30.552 -4.13893 -1.76105 0
M  V30 324 C 31.871 -2.82008 -3.37875 0
M  V30 325 H 28.99 -0.572941 -0.463581 0
M  V30 326 H 31.632 -1.80927 -0.580119 0
M  V30 327 H 29.782 -2.51914 -2.95756 0
M  V30 328 H 31.454 -4.45284 -1.20499 0
M  V30 329 H 29.697 -4.20498 -1.06601 0
M  V30 330 H 30.368 -4.89804 -2.5455 0
M  V30 331 H 32.844 -3.00086 -2.88249 0
M  V30 332 H 31.72 -3.63796 -4.11028 0
M  V30 333 H 31.981 -1.90511 -3.98946 0
M  V30 334 N 31.0401 0.771051 -1.3745 0
M  V30 335 C 32.2651 1.56529 -1.36065 0
M  V30 336 C 32.6901 1.88029 0.0515859 0
M  V30 337 O 32.0481 1.49282 1.02882 0
M  V30 338 C 32.0961 2.85187 -2.20683 0
M  V30 339 O 31.2001 3.79593 -1.61193 0
M  V30 340 H 30.5411 0.47411 -0.464883 0
M  V30 341 H 33.0711 0.954269 -1.80983 0
M  V30 342 H 33.0811 3.34283 -2.33921 0
M  V30 343 H 31.7561 2.61588 -3.23334 0
M  V30 344 H 30.3331 3.38239 -1.56999 0
M  V30 345 N 32.5182 1.22032 0.997298 0
M  V30 346 C 33.9342 0.979326 1.26021 0
M  V30 347 C 34.1342 -0.32972 1.98784 0
M  V30 348 O 33.1902 -1.05345 2.29475 0
M  V30 349 C 34.5032 2.17509 2.07631 0
M  V30 350 C 36.0512 2.21817 2.2083 0
M  V30 351 C 36.5262 3.40933 3.05825 0
M  V30 352 N 38.0172 3.41067 3.13412 0
M  V30 353 C 38.7522 4.29885 3.79455 0
M  V30 354 N 38.2482 5.28914 4.47462 0
M  V30 355 N 40.0412 4.17673 3.76173 0
M  V30 356 H 32.1922 2.06202 0.509352 0
M  V30 357 H 34.4552 0.90334 0.287541 0
M  V30 358 H 34.1612 3.12415 1.61524 0
M  V30 359 H 34.0352 2.17206 3.08385 0
M  V30 360 H 36.4222 1.27462 2.66153 0
M  V30 361 H 36.5032 2.2616 1.1952 0
M  V30 362 H 36.1472 4.35586 2.61203 0
M  V30 363 H 36.0772 3.33829 4.07266 0
M  V30 364 H 38.5682 2.69406 2.65007 0
M  V30 365 H 38.8812 5.92973 4.95583 0
M  V30 366 H 37.2262 5.32831 4.46224 0
M  V30 367 H 40.4172 3.39564 3.22202 0
M  V30 368 H 40.5902 4.87098 4.27363 0
M  V30 369 N 33.9963 -1.19345 1.0293 0
M  V30 370 C 34.9443 -2.24621 0.604001 0
M  V30 371 C 35.9383 -1.65452 -0.363587 0
M  V30 372 O 37.1443 -1.78497 -0.23212 0
M  V30 373 H 33.5193 -0.730858 0.177061 0
M  V30 374 H 35.4903 -2.5781 1.50255 0
M  V30 375 C 34.2393 -3.47688 -0.0289127 0
M  V30 376 H 33.5623 -3.93505 0.706651 0
M  V30 377 H 35.0023 -4.23011 -0.289432 0
M  V30 378 C 33.4613 -3.11817 -1.2756 0
M  V30 379 O 33.9913 -3.2451 -2.36762 0
M  V30 380 N 32.1973 -2.66246 -1.16453 0
M  V30 381 H 31.7443 -2.56118 -0.275914 0
M  V30 382 H 31.7023 -2.42617 -1.99961 0
M  V30 383 N 35.4744 -0.807222 -1.35358 0
M  V30 384 C 36.4374 -0.223665 -2.28106 0
M  V30 385 C 37.4374 0.589354 -1.4961 0
M  V30 386 O 38.6274 0.407745 -1.69361 0
M  V30 387 C 35.7594 0.688149 -3.33882 0
M  V30 388 H 36.9524 -1.04169 -2.81227 0
M  V30 389 H 34.5054 -0.577921 -1.45223 0
M  V30 390 H 35.2404 1.52984 -2.85948 0
M  V30 391 H 35.0254 0.10687 -3.91954 0
M  V30 392 H 36.5154 1.09075 -4.03104 0
M  V30 393 N 36.9525 1.47285 -0.560781 0
M  V30 394 C 37.8825 2.32857 0.173105 0
M  V30 395 C 38.8635 1.44009 0.905281 0
M  V30 396 O 40.0485 1.7286 0.885046 0
M  V30 397 C 37.1785 3.25861 1.20133 0
M  V30 398 C 36.1325 4.23978 0.585388 0
M  V30 399 C 35.4585 5.06332 1.7185 0
M  V30 400 C 36.7585 5.20242 -0.463178 0
M  V30 401 H 38.4525 2.94466 -0.541307 0
M  V30 402 H 35.9985 1.41601 -0.261764 0
M  V30 403 H 37.9515 3.84569 1.72293 0
M  V30 404 H 36.6755 2.62315 1.94573 0
M  V30 405 H 35.3345 3.66501 0.085054 0
M  V30 406 H 34.9825 4.39186 2.45203 0
M  V30 407 H 34.6825 5.72762 1.31213 0
M  V30 408 H 36.2065 5.67899 2.24329 0
M  V30 409 H 37.6205 5.73293 -0.027502 0
M  V30 410 H 36.0175 5.94896 -0.788627 0
M  V30 411 H 37.0875 4.65504 -1.35773 0
M  V30 412 N 38.4306 0.297415 1.54768 0
M  V30 413 C 39.6786 -0.312295 1.99673 0
M  V30 414 C 39.9996 -1.54686 1.18732 0
M  V30 415 O 39.2696 -1.93854 0.282382 0
M  V30 416 H 37.8496 -0.118381 0.73756 0
M  V30 417 H 40.5116 0.407915 1.90583 0
M  V30 418 H 39.6076 -0.586813 3.06534 0
M  V30 419 N 39.9087 -1.5758 0.0250728 0
M  V30 420 C 41.1337 -1.96337 -0.668317 0
M  V30 421 C 41.5587 -0.901314 -1.651 0
M  V30 422 O 40.9167 0.138187 -1.80773 0
M  V30 423 C 40.9647 -3.34191 -1.35457 0
M  V30 424 O 40.0687 -3.30269 -2.46974 0
M  V30 425 H 39.4097 -0.640281 -0.175887 0
M  V30 426 H 41.9397 -2.0442 0.0857224 0
M  V30 427 H 41.9497 -3.70331 -1.71228 0
M  V30 428 H 40.6247 -4.11036 -0.634218 0
M  V30 429 H 39.2017 -3.05841 -2.13344 0
M  V30 430 N 41.3868 0.248026 -1.55636 0
M  V30 431 C 42.6118 0.998028 -1.81808 0
M  V30 432 C 43.0368 1.78207 -0.601979 0
M  V30 433 O 42.3948 1.75653 0.448961 0
M  V30 434 C 42.4428 1.9125 -3.05705 0
M  V30 435 O 41.5468 3.00406 -2.82542 0
M  V30 436 H 40.8878 0.284045 -0.600179 0
M  V30 437 H 43.4178 0.269357 -2.02819 0
M  V30 438 H 43.4278 2.32737 -3.35108 0
M  V30 439 H 42.1028 1.33602 -3.93857 0
M  V30 440 H 40.6798 2.63056 -2.64303 0
M  V30 441 N 42.8649 1.48995 0.513639 0
M  V30 442 C 44.1119 1.57843 1.26854 0
M  V30 443 C 44.4399 0.259501 1.92761 0
M  V30 444 O 43.6949 -0.75159 1.80692 0
M  V30 445 C 43.9939 2.67756 2.36731 0
M  V30 446 C 43.6599 4.09669 1.88368 0
M  V30 447 C 42.3219 4.48291 1.74896 0
M  V30 448 C 44.6739 4.98537 1.52021 0
M  V30 449 C 42.0019 5.73568 1.23438 0
M  V30 450 C 44.3539 6.24319 1.0202 0
M  V30 451 C 43.0179 6.61783 0.871778 0
M  V30 452 H 42.2879 0.577587 0.464192 0
M  V30 453 H 44.9349 1.82778 0.571366 0
M  V30 454 H 43.2399 2.36743 3.12185 0
M  V30 455 H 44.9369 2.71813 2.9482 0
M  V30 456 H 41.5269 3.79176 1.99808 0
M  V30 457 H 45.7109 4.69363 1.61281 0
M  V30 458 H 40.9669 6.01304 1.10648 0
M  V30 459 H 45.1409 6.92566 0.729722 0
M  V30 460 H 42.7679 7.5874 0.470852 0
M  V30 461 N 44.343 -0.763751 1.37857 0
M  V30 462 C 45.592 -1.51789 1.32827 0
M  V30 463 C 45.905 -1.95426 -0.0823719 0
M  V30 464 O 47.111 -2.70298 -0.255172 0
M  V30 465 C 45.567 -2.74133 2.33193 0
M  V30 466 C 45.175 -2.37562 3.79827 0
M  V30 467 C 46.919 -3.52054 2.37188 0
M  V30 468 C 44.826 -3.56456 4.71904 0
M  V30 469 H 43.756 -0.569896 0.493695 0
M  V30 470 H 46.407 -0.835822 1.63359 0
M  V30 471 H 44.789 -3.4427 1.9569 0
M  V30 472 H 45.963 -1.75157 4.26212 0
M  V30 473 H 44.278 -1.72798 3.78853 0
M  V30 474 H 46.875 -4.40437 3.03182 0
M  V30 475 H 47.218 -3.92486 1.38782 0
M  V30 476 H 47.751 -2.88921 2.7344 0
M  V30 477 H 44.49 -3.21099 5.71468 0
M  V30 478 H 44.01 -4.17938 4.30218 0
M  V30 479 H 45.689 -4.23168 4.89426 0
M  V30 480 N 45.8211 -1.22559 -0.990812 0
M  V30 481 C 46.7841 -0.998863 -2.0629 0
M  V30 482 C 47.7841 0.0354834 -1.60761 0
M  V30 483 O 48.9741 -0.203231 -1.7301 0
M  V30 484 C 46.1061 -0.509203 -3.37076 0
M  V30 485 H 47.2991 -1.95014 -2.27837 0
M  V30 486 H 44.8521 -1.04456 -1.16269 0
M  V30 487 H 45.5871 0.446335 -3.21214 0
M  V30 488 H 45.3721 -1.25547 -3.71457 0
M  V30 489 H 46.8621 -0.370888 -4.1595 0
M  V30 490 N 47.2992 1.18797 -1.03562 0
M  V30 491 C 48.2622 2.20464 -0.626769 0
M  V30 492 C 49.2622 1.57721 0.313173 0
M  V30 493 O 50.4522 1.73917 0.0992615 0
M  V30 494 C 47.5842 3.40802 0.0818498 0
M  V30 495 H 48.7772 2.58149 -1.5264 0
M  V30 496 H 46.3302 1.32593 -0.827578 0
M  V30 497 H 47.0652 3.08642 0.995518 0
M  V30 498 H 46.8502 3.8758 -0.593652 0
M  V30 499 H 48.3402 4.16092 0.354584 0
M  V30 500 N 48.7773 0.814389 1.34928 0
M  V30 501 C 50.1933 0.499084 1.51596 0
M  V30 502 C 50.3933 -0.978319 1.76157 0
M  V30 503 O 49.4493 -1.76309 1.80752 0
M  V30 504 C 50.7623 1.35121 2.68631 0
M  V30 505 C 52.3103 1.34746 2.82511 0
M  V30 506 C 52.7853 2.18388 4.0258 0
M  V30 507 N 54.2763 2.15966 4.09772 0
M  V30 508 C 55.0113 2.77437 5.01813 0
M  V30 509 N 54.5073 3.47866 5.99134 0
M  V30 510 N 56.3003 2.67037 4.94619 0
M  V30 511 H 48.4513 1.7711 1.17243 0
M  V30 512 H 50.7143 0.754256 0.574284 0
M  V30 513 H 50.4203 2.40001 2.57085 0
M  V30 514 H 50.2943 1.00991 3.63429 0
M  V30 515 H 52.6813 0.30648 2.93504 0
M  V30 516 H 52.7623 1.72869 1.88547 0
M  V30 517 H 52.4063 3.2253 3.92347 0
M  V30 518 H 52.3363 1.77621 4.9574 0
M  V30 519 H 54.8273 1.64729 3.40107 0
M  V30 520 H 55.1403 3.92038 6.65977 0
M  V30 521 H 53.4853 3.51972 5.99284 0
M  V30 522 H 56.6763 2.11597 4.17546 0
M  V30 523 H 56.8493 3.15232 5.66156 0
M  V30 524 N 50.2554 -1.46986 0.568584 0
M  V30 525 C 51.2034 -2.31858 -0.185649 0
M  V30 526 C 52.1974 -1.43624 -0.898249 0
M  V30 527 O 53.4034 -1.60327 -0.818242 0
M  V30 528 H 49.7784 -0.747866 -0.0787399 0
M  V30 529 H 51.7494 -2.93303 0.549191 0
M  V30 530 C 50.4984 -3.26513 -1.19519 0
M  V30 531 H 49.8214 -3.94377 -0.656285 0
M  V30 532 H 51.2614 -3.88707 -1.6936 0
M  V30 533 C 49.7204 -2.50847 -2.24894 0
M  V30 534 O 50.2504 -2.26119 -3.32014 0
M  V30 535 N 48.4564 -2.11656 -1.99124 0
M  V30 536 H 48.0034 -2.31966 -1.12024 0
M  V30 537 H 47.9614 -1.61347 -2.69842 0
M  V30 538 N 51.7335 -0.305618 -1.54608 0
M  V30 539 C 52.9805 0.302298 -2.00231 0
M  V30 540 C 53.3085 1.5354 -1.19398 0
M  V30 541 O 52.5635 1.93973 -0.259423 0
M  V30 542 C 52.8625 0.698983 -3.50498 0
M  V30 543 C 52.5285 -0.432903 -4.48817 0
M  V30 544 C 51.1905 -0.743622 -4.75419 0
M  V30 545 C 53.5425 -1.19409 -5.07337 0
M  V30 546 C 50.8705 -1.81857 -5.57804 0
M  V30 547 C 53.2225 -2.25899 -5.90891 0
M  V30 548 C 51.8865 -2.57572 -6.15803 0
M  V30 549 H 51.1565 0.110619 -0.732697 0
M  V30 550 H 53.8035 -0.425674 -1.86709 0
M  V30 551 H 52.1085 1.50711 -3.61654 0
M  V30 552 H 53.8055 1.1806 -3.83227 0
M  V30 553 H 50.3955 -0.18063 -4.28219 0
M  V30 554 H 54.5795 -0.967295 -4.86782 0
M  V30 555 H 49.8355 -2.06864 -5.75341 0
M  V30 556 H 54.0095 -2.85335 -6.35261 0
M  V30 557 H 51.6365 -3.40998 -6.7943 0
M  V30 558 N 53.2116 1.57565 -0.0334293 0
M  V30 559 C 54.1616 2.06978 0.956237 0
M  V30 560 C 55.1456 0.971193 1.28283 0
M  V30 561 O 56.3376 1.23471 1.26822 0
M  V30 562 C 53.4666 2.60393 2.23719 0
M  V30 563 C 52.5526 3.7719 1.93877 0
M  V30 564 N 52.9436 4.87639 1.34321 0
M  V30 565 C 51.2416 3.85758 2.23845 0
M  V30 566 C 51.9426 5.68825 1.21709 0
M  V30 567 N 50.9186 5.1587 1.71404 0
M  V30 568 H 54.7206 2.89773 0.490815 0
M  V30 569 H 52.2346 1.61492 0.171478 0
M  V30 570 H 54.2316 2.94088 2.95496 0
M  V30 571 H 52.8916 1.79031 2.70884 0
M  V30 572 H 53.9026 5.07803 1.01767 0
M  V30 573 H 50.5796 3.1531 2.73653 0
M  V30 574 H 51.9696 6.67631 0.75621 0
M  V30 575 N 54.6897 -0.239769 1.55765 0
M  V30 576 C 55.6527 -1.28038 1.90103 0
M  V30 577 C 56.6527 -1.40723 0.778055 0
M  V30 578 O 57.8427 -1.39301 1.04599 0
M  V30 579 C 54.9747 -2.65702 2.13577 0
M  V30 580 H 56.1677 -0.988048 2.83157 0
M  V30 581 H 53.7207 -0.479382 1.48767 0
M  V30 582 H 54.4557 -3.00063 1.23015 0
M  V30 583 H 54.2407 -2.57875 2.95369 0
M  V30 584 H 55.7307 -3.40828 2.41301 0
M  V30 585 N 56.1678 -1.49265 -0.50573 0
M  V30 586 C 57.3928 -1.62478 -1.28902 0
M  V30 587 C 57.8178 -0.294332 -1.85783 0
M  V30 588 O 57.1758 0.737412 -1.65626 0
M  V30 589 C 57.2238 -2.69268 -2.39848 0
M  V30 590 O 56.3278 -2.28113 -3.43567 0
M  V30 591 H 55.6688 -0.54399 -0.380751 0
M  V30 592 H 58.1988 -1.95421 -0.605952 0
M  V30 593 H 58.2088 -2.91291 -2.85681 0
M  V30 594 H 56.8838 -3.65846 -1.97812 0
M  V30 595 H 55.4608 -2.16401 -3.03685 0
M  V30 596 N 57.6459 0.756429 -1.3826 0
M  V30 597 C 58.5939 1.89149 -1.35372 0
M  V30 598 C 59.5879 1.67691 -0.24004 0
M  V30 599 O 60.7939 1.75294 -0.408919 0
M  V30 600 H 57.1689 0.622271 -0.422236 0
M  V30 601 H 59.1399 1.88701 -2.31159 0
M  V30 602 C 57.8889 3.26599 -1.19284 0
M  V30 603 H 57.2119 3.43695 -2.0424 0
M  V30 604 H 58.6519 4.06274 -1.21316 0
M  V30 605 C 57.1109 3.3675 0.100454 0
M  V30 606 O 57.6409 3.86951 1.07851 0
M  V30 607 N 55.8469 2.90179 0.15633 0
M  V30 608 H 55.3939 2.49517 -0.640253 0
M  V30 609 H 55.3519 2.97352 1.02123 0
M  V30 610 N 59.124 1.23083 0.984299 0
M  V30 611 C 60.352 1.08714 1.76037 0
M  V30 612 C 60.767 -0.361691 1.85303 0
M  V30 613 O 60.124 -1.25034 1.32939 0
M  V30 614 C 60.175 1.70206 3.18923 0
M  V30 615 O 59.896 3.09423 3.10144 0
M  V30 616 C 61.397 1.61227 4.12941 0
M  V30 617 H 58.617 0.380664 0.552572 0
M  V30 618 H 61.161 1.62853 1.23689 0
M  V30 619 H 59.316 1.20109 3.6831 0
M  V30 620 H 59.73 3.39188 4.00065 0
M  V30 621 H 61.204 2.08962 5.10919 0
M  V30 622 H 61.681 0.570375 4.35481 0
M  V30 623 H 62.287 2.10671 3.69456 0
M  V30 624 N 60.6021 -1.18246 1.0419 0
M  V30 625 C 61.5521 -2.19843 0.604392 0
M  V30 626 C 62.5361 -1.56962 -0.353814 0
M  V30 627 O 63.7281 -1.76156 -0.17267 0
M  V30 628 C 60.8571 -3.43287 -0.0298975 0
M  V30 629 C 59.9431 -4.13288 0.951531 0
M  V30 630 N 60.3341 -4.59271 2.11906 0
M  V30 631 C 58.6321 -4.39165 0.7778 0
M  V30 632 C 59.3331 -5.13173 2.73912 0
M  V30 633 N 58.3091 -5.04763 2.01779 0
M  V30 634 H 62.1111 -2.53089 1.4941 0
M  V30 635 H 59.6251 -1.34465 0.910658 0
M  V30 636 H 61.6221 -4.15334 -0.361037 0
M  V30 637 H 60.2821 -3.11537 -0.915127 0
M  V30 638 H 61.2931 -4.5368 2.49789 0
M  V30 639 H 57.9701 -4.17461 -0.0572331 0
M  V30 640 H 59.3601 -5.58947 3.72864 0
M  V30 641 N 62.0802 -0.821533 -1.34494 0
M  V30 642 C 63.0102 -0.257138 -2.3208 0
M  V30 643 C 63.9912 0.625645 -1.58176 0
M  V30 644 O 65.1762 0.552811 -1.86166 0
M  V30 645 C 62.3062 0.582958 -3.42372 0
M  V30 646 C 61.2602 -0.202571 -4.2752 0
M  V30 647 C 60.5862 0.760179 -5.29269 0
M  V30 648 C 61.8862 -1.40998 -5.02908 0
M  V30 649 H 63.5802 -1.07247 -2.79532 0
M  V30 650 H 61.1262 -0.517163 -1.34393 0
M  V30 651 H 63.0792 0.987972 -4.09655 0
M  V30 652 H 61.8032 1.43133 -2.93565 0
M  V30 653 H 60.4622 -0.588936 -3.61838 0
M  V30 654 H 60.1102 1.60447 -4.76724 0
M  V30 655 H 59.8102 0.238809 -5.87115 0
M  V30 656 H 61.3342 1.16308 -5.9942 0
M  V30 657 H 62.7482 -1.07905 -5.63054 0
M  V30 658 H 61.1452 -1.86689 -5.70322 0
M  V30 659 H 62.2152 -2.1889 -4.32684 0
M  V30 660 N 63.5583 1.46682 -0.576371 0
M  V30 661 C 64.4903 2.28341 0.198231 0
M  V30 662 C 65.5033 1.38141 0.861453 0
M  V30 663 O 66.6923 1.62797 0.732082 0
M  V30 664 C 63.7923 3.12986 1.29972 0
M  V30 665 C 62.9653 4.31271 0.729639 0
M  V30 666 C 62.0243 4.97363 1.71803 0
M  V30 667 O 61.0503 5.55156 1.25658 0
M  V30 668 N 62.2523 4.93796 3.05198 0
M  V30 669 H 65.0173 2.9546 -0.502324 0
M  V30 670 H 62.5783 1.56525 -0.413715 0
M  V30 671 H 64.5703 3.54066 1.96008 0
M  V30 672 H 63.1403 2.47984 1.90323 0
M  V30 673 H 62.3603 3.94052 -0.108012 0
M  V30 674 H 63.6483 5.07739 0.328438 0
M  V30 675 H 63.0463 4.48077 3.45317 0
M  V30 676 H 61.6033 5.38837 3.6674 0
M  V30 677 N 65.0364 0.313813 1.54444 0
M  V30 678 C 65.9834 -0.55655 2.23989 0
M  V30 679 C 66.9534 -1.11943 1.22711 0
M  V30 680 O 68.1384 -1.16158 1.51367 0
M  V30 681 C 65.2784 -1.71635 2.99392 0
M  V30 682 C 64.3914 -1.18364 4.15468 0
M  V30 683 C 63.5264 -2.30834 4.78424 0
M  V30 684 C 62.5654 -1.74762 5.86622 0
M  V30 685 N 61.7024 -2.80855 6.43479 0
M  V30 686 H 66.5424 0.0430893 2.97969 0
M  V30 687 H 64.0794 0.0330359 1.47063 0
M  V30 688 H 66.0374 -2.39868 3.41349 0
M  V30 689 H 64.6674 -2.28742 2.27765 0
M  V30 690 H 63.7194 -0.393163 3.78363 0
M  V30 691 H 65.0314 -0.733262 4.93381 0
M  V30 692 H 64.1854 -3.0699 5.23299 0
M  V30 693 H 62.9244 -2.79204 3.99871 0
M  V30 694 H 61.9294 -0.970995 5.41158 0
M  V30 695 H 63.1544 -1.2728 6.67066 0
M  V30 696 H 61.1004 -3.28535 5.67804 0
M  V30 697 H 61.0174 -2.40351 7.16776 0
M  V30 698 H 62.2854 -3.5687 6.93011 0
M  V30 699 N 66.5145 -1.57545 0.0417849 0
M  V30 700 C 67.7425 -1.96624 -0.643928 0
M  V30 701 C 68.1575 -0.918897 -1.64929 0
M  V30 702 O 67.5145 0.0979323 -1.82237 0
M  V30 703 C 67.5655 -3.35781 -1.33914 0
M  V30 704 O 67.2865 -4.365 -0.374048 0
M  V30 705 C 68.7875 -3.89566 -2.1155 0
M  V30 706 H 66.0075 -0.647316 -0.176702 0
M  V30 707 H 68.5515 -2.04229 0.105304 0
M  V30 708 H 66.7065 -3.29357 -2.03968 0
M  V30 709 H 67.1205 -5.17248 -0.869179 0
M  V30 710 H 68.5945 -4.89242 -2.55628 0
M  V30 711 H 69.0715 -3.24488 -2.9598 0
M  V30 712 H 69.6775 -3.99298 -1.46427 0
M  V30 713 N 67.9926 0.231505 -1.5589 0
M  V30 714 C 69.2406 0.955461 -1.78088 0
M  V30 715 C 69.5616 1.85262 -0.608533 0
M  V30 716 O 68.8316 1.92277 0.375035 0
M  V30 717 H 67.4116 0.355787 -0.656829 0
M  V30 718 H 70.0736 0.245751 -1.93344 0
M  V30 719 H 69.1696 1.56814 -2.69844 0
M  V30 720 N 69.4707 1.49531 0.497807 0
M  V30 721 C 70.6987 1.62893 1.27567 0
M  V30 722 C 71.1137 0.301585 1.86376 0
M  V30 723 O 70.4707 -0.713335 1.67982 0
M  V30 724 C 70.5217 2.70013 2.40364 0
M  V30 725 O 70.2427 3.976 1.83972 0
M  V30 726 C 71.7437 2.94109 3.31685 0
M  V30 727 H 68.9637 0.548298 0.386794 0
M  V30 728 H 71.5077 1.95584 0.597245 0
M  V30 729 H 69.6627 2.40092 3.04031 0
M  V30 730 H 70.0767 4.56631 2.58047 0
M  V30 731 H 71.5507 3.72788 4.07104 0
M  V30 732 H 72.0277 2.04147 3.88871 0
M  V30 733 H 72.6337 3.2546 2.73781 0
M  V30 734 N 70.9488 -0.749086 1.3866 0
M  V30 735 C 71.9118 -1.84457 1.36045 0
M  V30 736 C 72.9118 -1.58682 0.260122 0
M  V30 737 O 74.1018 -1.66343 0.517261 0
M  V30 738 C 71.2338 -3.22008 1.11911 0
M  V30 739 H 72.4268 -1.88182 2.33512 0
M  V30 740 H 69.9798 -0.951266 1.24019 0
M  V30 741 H 70.7148 -3.2395 0.150686 0
M  V30 742 H 70.4998 -3.42111 1.91579 0
M  V30 743 H 71.9898 -4.0208 1.12788 0
M  V30 744 N 72.4269 -1.23603 -0.977757 0
M  V30 745 C 73.3369 -1.03632 -2.1047 0
M  V30 746 C 74.3529 0.0199435 -1.73989 0
M  V30 747 O 75.5289 -0.176076 -2.00629 0
M  V30 748 C 72.5939 -0.63276 -3.40877 0
M  V30 749 C 71.6549 -1.76437 -3.91367 0
M  V30 750 C 70.8879 -1.37997 -5.15551 0
M  V30 751 O 71.1109 -0.265357 -5.69782 0
M  V30 752 O 70.0449 -2.20201 -5.60174 0
M  V30 753 H 73.8709 -1.98086 -2.30208 0
M  V30 754 H 71.4559 -1.02332 -1.08851 0
M  V30 755 H 73.3379 -0.418761 -4.19314 0
M  V30 756 H 72.0129 0.282754 -3.22463 0
M  V30 757 H 70.9199 -2.03304 -3.14036 0
M  V30 758 H 72.2529 -2.6583 -4.14241 0
M  V30 759 N 73.905 1.17692 -1.04816 0
M  V30 760 C 74.838 2.20436 -0.590173 0
M  V30 761 C 75.816 1.58115 0.379244 0
M  V30 762 O 77 1.86228 0.291762 0
M  V30 763 C 74.127 3.38424 0.136817 0
M  V30 764 C 73.173 4.19176 -0.787023 0
M  V30 765 S 74.006 4.84815 -2.27409 0
M  V30 766 C 75.162 6.06195 -1.55817 0
M  V30 767 H 75.395 2.58944 -1.46067 0
M  V30 768 H 72.928 1.28246 -0.859784 0
M  V30 769 H 74.886 4.06798 0.550076 0
M  V30 770 H 73.547 2.98312 0.983299 0
M  V30 771 H 72.74 5.03499 -0.224681 0
M  V30 772 H 72.342 3.56219 -1.13947 0
M  V30 773 H 74.634 6.72078 -0.855387 0
M  V30 774 H 75.577 6.6695 -2.37873 0
M  V30 775 H 75.985 5.54701 -1.04722 0
M  V30 776 N 75.3831 0.828654 1.34056 0
M  V30 777 C 76.6081 0.431637 2.02859 0
M  V30 778 C 77.0331 -0.956339 1.61975 0
M  V30 779 O 76.3911 -1.62338 0.807228 0
M  V30 780 C 76.4391 0.548323 3.56407 0
M  V30 781 O 75.5431 -0.429556 4.10157 0
M  V30 782 H 74.8841 0.176886 0.640006 0
M  V30 783 H 77.4141 1.12066 1.71179 0
M  V30 784 H 77.4241 0.426196 4.05768 0
M  V30 785 H 76.0991 1.5606 3.8551 0
M  V30 786 H 74.6761 -0.265836 3.71951 0
M  V30 787 N 76.8612 -1.46375 0.584142 0
M  V30 788 C 78.0862 -2.07268 0.0740405 0
M  V30 789 C 78.5112 -1.42979 -1.22223 0
M  V30 790 O 77.8692 -0.514092 -1.73859 0
M  V30 791 C 77.9172 -3.60518 -0.0767769 0
M  V30 792 O 77.0212 -3.96533 -1.13292 0
M  V30 793 H 76.3622 -0.660961 0.0634524 0
M  V30 794 H 78.8922 -1.87991 0.807492 0
M  V30 795 H 78.9022 -4.07021 -0.282489 0
M  V30 796 H 77.5772 -4.06702 0.86986 0
M  V30 797 H 76.1542 -3.61738 -0.905553 0
M  V30 798 N 78.3393 -0.321999 -1.54275 0
M  V30 799 C 79.5883 0.281931 -1.9972 0
M  V30 800 C 79.9013 1.53369 -1.21397 0
M  V30 801 O 81.1073 2.21352 -1.57211 0
M  V30 802 C 79.5633 0.5529 -3.55628 0
M  V30 803 C 79.1713 -0.681721 -4.42783 0
M  V30 804 C 80.9153 1.11687 -4.09544 0
M  V30 805 C 78.8223 -0.382742 -5.9016 0
M  V30 806 H 77.7523 0.109124 -0.746062 0
M  V30 807 H 80.4033 -0.43398 -1.78294 0
M  V30 808 H 78.7853 1.32896 -3.73035 0
M  V30 809 H 79.9593 -1.45723 -4.37151 0
M  V30 810 H 78.2743 -1.1658 -3.99748 0
M  V30 811 H 80.8713 1.35515 -5.17242 0
M  V30 812 H 81.2143 2.06575 -3.61431 0
M  V30 813 H 81.7473 0.402032 -3.95763 0
M  V30 814 H 78.4863 -1.30076 -6.42464 0
M  V30 815 H 78.0063 0.355094 -5.98748 0
M  V30 816 H 79.6853 0.00800157 -6.47 0
M  V30 817 N 79.8174 1.5752 -0.0501392 0
M  V30 818 C 80.7474 2.14502 0.922566 0
M  V30 819 C 81.7284 1.06642 1.3252 0
M  V30 820 O 82.9134 1.34577 1.4001 0
M  V30 821 C 80.0434 2.68916 2.19776 0
M  V30 822 C 78.9974 3.8175 1.93523 0
M  V30 823 C 78.3234 4.22677 3.27487 0
M  V30 824 C 79.6234 5.06932 1.25765 0
M  V30 825 H 81.3174 2.9603 0.447952 0
M  V30 826 H 78.8634 1.42401 0.214024 0
M  V30 827 H 80.8164 3.07419 2.88222 0
M  V30 828 H 79.5404 1.84578 2.69441 0
M  V30 829 H 78.1994 3.43718 1.27489 0
M  V30 830 H 77.8474 3.35291 3.74952 0
M  V30 831 H 77.5474 4.98725 3.1072 0
M  V30 832 H 79.0714 4.63779 3.97166 0
M  V30 833 H 80.4854 5.42888 1.84244 0
M  V30 834 H 78.8824 5.88116 1.19328 0
M  V30 835 H 79.9524 4.84337 0.233536 0
M  V30 836 N 81.2955 -0.223234 1.56011 0
M  V30 837 C 82.2055 -1.29766 1.95443 0
M  V30 838 C 83.2215 -1.51373 0.858028 0
M  V30 839 O 84.3975 -1.64536 1.16146 0
M  V30 840 C 81.4625 -2.62772 2.26167 0
M  V30 841 C 80.5235 -2.49482 3.49367 0
M  V30 842 C 79.7565 -3.76145 3.78616 0
M  V30 843 O 79.9795 -4.79087 3.09568 0
M  V30 844 O 78.9135 -3.73358 4.72109 0
M  V30 845 H 82.7395 -0.99309 2.87004 0
M  V30 846 H 80.3245 -0.425958 1.43199 0
M  V30 847 H 82.2065 -3.41327 2.47131 0
M  V30 848 H 80.8815 -2.92913 1.37781 0
M  V30 849 H 79.7885 -1.69133 3.33684 0
M  V30 850 H 81.1215 -2.2428 4.38131 0
M  V30 851 N 82.7736 -1.49793 -0.48987 0
M  V30 852 C 83.6836 -1.70036 -1.61632 0
M  V30 853 C 84.6996 -0.583102 -1.63939 0
M  V30 854 O 85.8756 -0.859169 -1.82154 0
M  V30 855 C 82.9406 -1.77277 -2.97949 0
M  V30 856 C 82.0016 -3.00918 -3.06181 0
M  V30 857 C 81.2346 -3.07804 -4.35996 0
M  V30 858 O 81.4576 -2.21982 -5.25433 0
M  V30 859 O 80.3916 -4.00369 -4.49431 0
M  V30 860 H 84.2176 -2.65486 -1.47482 0
M  V30 861 H 81.8026 -1.33666 -0.667362 0
M  V30 862 H 83.6846 -1.84329 -3.78947 0
M  V30 863 H 82.3596 -0.850076 -3.12339 0
M  V30 864 H 81.2666 -2.99377 -2.2433 0
M  V30 865 H 82.5996 -3.92704 -2.96723 0
M  V30 866 N 84.2517 0.741722 -1.39055 0
M  V30 867 C 85.6677 1.04638 -1.20512 0
M  V30 868 C 85.8677 2.01405 -0.0620218 0
M  V30 869 O 84.9237 2.45547 0.588457 0
M  V30 870 C 86.2367 1.6151 -2.53643 0
M  V30 871 C 87.7847 1.73623 -2.6043 0
M  V30 872 C 88.2597 2.33906 -3.93767 0
M  V30 873 N 89.7507 2.41323 -3.9537 0
M  V30 874 C 90.4857 2.88888 -4.95309 0
M  V30 875 N 89.9817 3.36401 -6.05645 0
M  V30 876 N 91.7747 2.88037 -4.82692 0
M  V30 877 H 83.9257 0.0998155 -2.12165 0
M  V30 878 H 86.1887 0.106907 -0.941953 0
M  V30 879 H 85.8947 0.978739 -3.37807 0
M  V30 880 H 85.7687 2.60411 -2.72885 0
M  V30 881 H 88.1557 2.36384 -1.76655 0
M  V30 882 H 88.2367 0.733945 -2.45045 0
M  V30 883 H 87.8807 1.71776 -4.7797 0
M  V30 884 H 87.8107 3.34799 -4.06469 0
M  V30 885 H 90.3017 2.07734 -3.15682 0
M  V30 886 H 90.6147 3.71186 -6.77821 0
M  V30 887 H 88.9597 3.34427 -6.09248 0
M  V30 888 H 92.1507 2.50237 -3.95599 0
M  V30 889 H 92.3237 3.24792 -5.60726 0
M  V30 890 N 85.7298 1.2412 0.971189 0
M  V30 891 C 86.9788 1.07284 1.70801 0
M  V30 892 C 87.2918 -0.388902 1.91695 0
M  V30 893 O 88.4978 -0.677379 2.62914 0
M  V30 894 C 86.9538 1.87145 3.07416 0
M  V30 895 C 86.5618 3.37707 2.94377 0
M  V30 896 C 88.3058 1.78828 3.84995 0
M  V30 897 C 86.2128 4.09925 4.26281 0
M  V30 898 H 85.1428 0.397854 0.64049 0
M  V30 899 H 87.7938 1.4817 1.0825 0
M  V30 900 H 86.1758 1.39071 3.70777 0
M  V30 901 H 87.3498 3.93335 2.4005 0
M  V30 902 H 85.6648 3.46938 2.30267 0
M  V30 903 H 88.2618 2.30089 4.82662 0
M  V30 904 H 88.6048 0.75284 4.09436 0
M  V30 905 H 89.1378 2.24563 3.28354 0
M  V30 906 H 85.8768 5.13813 4.07033 0
M  V30 907 H 85.3968 3.59083 4.80437 0
M  V30 908 H 87.0758 4.1673 4.94919 0
M  V30 909 N 87.2079 -1.17134 1.05439 0
M  V30 910 C 88.1379 -2.2342 0.678649 0
M  V30 911 C 89.1189 -1.66971 -0.32476 0
M  V30 912 O 90.3039 -1.93149 -0.201802 0
M  V30 913 C 87.4339 -3.47256 0.0552099 0
M  V30 914 C 86.3879 -4.16543 0.98365 0
M  V30 915 C 85.7139 -5.34231 0.223961 0
M  V30 916 C 87.0139 -4.68495 2.3089 0
M  V30 917 H 88.7079 -2.55105 1.56722 0
M  V30 918 H 86.2539 -1.2262 0.754998 0
M  V30 919 H 88.2069 -4.20828 -0.21946 0
M  V30 920 H 86.9309 -3.14846 -0.868319 0
M  V30 921 H 85.5899 -3.44887 1.24293 0
M  V30 922 H 85.2379 -4.98071 -0.702412 0
M  V30 923 H 84.9379 -5.81527 0.842627 0
M  V30 924 H 86.4619 -6.10585 -0.0433671 0
M  V30 925 H 87.8759 -5.33691 2.09396 0
M  V30 926 H 86.2729 -5.26379 2.88176 0
M  V30 927 H 87.3429 -3.85169 2.94572 0
M  V30 928 N 88.686 -0.835752 -1.33615 0
M  V30 929 C 89.934 -0.429109 -1.97492 0
M  V30 930 C 90.255 1.01433 -1.66543 0
M  V30 931 O 89.525 1.70611 -0.962744 0
M  V30 932 H 88.105 -0.155686 -0.730596 0
M  V30 933 H 90.767 -1.06802 -1.63031 0
M  V30 934 H 89.863 -0.55861 -3.0706 0
M  V30 935 N 90.1641 1.46063 -0.591896 0
M  V30 936 C 91.1271 2.28854 0.125973 0
M  V30 937 C 92.1271 1.38903 0.810107 0
M  V30 938 O 93.3171 1.61186 0.66066 0
M  V30 939 C 90.4491 3.19526 1.1881 0
M  V30 940 H 91.6421 2.93802 -0.601717 0
M  V30 941 H 89.1951 1.52325 -0.350254 0
M  V30 942 H 89.9301 2.59345 1.94707 0
M  V30 943 H 89.7151 3.85766 0.701936 0
M  V30 944 H 91.2051 3.81817 1.69132 0
M  V30 945 N 91.6422 0.330177 1.54103 0
M  V30 946 C 92.9192 -0.325007 1.92881 0
M  V30 947 C 93.2992 -1.6934 1.26045 0
M  V30 948 O 92.6472 -2.24855 0.406526 0
M  V30 949 C 92.8572 -0.410634 3.46576 0
M  V30 950 C 94.2052 -0.667801 4.19316 0
M  V30 951 O 95.2292 -0.49329 3.52768 0
M  V30 952 O 94.0882 -1.00491 5.37181 0
M  V30 953 H 91.1822 -0.186873 0.80561 0
M  V30 954 H 93.7282 0.380376 1.65382 0
M  V30 955 H 92.5002 0.550164 3.87413 0
M  V30 956 H 92.1232 -1.16333 3.802 0
M  V30 957 N 93.1203 -1.57491 0.0584922 0
M  V30 958 C 94.3483 -1.97296 -0.623037 0
M  V30 959 C 94.7633 -0.936338 -1.63946 0
M  V30 960 O 94.1203 0.0785981 -1.82331 0
M  V30 961 C 94.1713 -3.37183 -1.30345 0
M  V30 962 O 93.8923 -4.36872 -0.32773 0
M  V30 963 C 95.3933 -3.91788 -2.07406 0
M  V30 964 H 92.6133 -0.649153 -0.169826 0
M  V30 965 H 95.1573 -2.04106 0.12696 0
M  V30 966 H 93.3123 -3.31502 -2.00463 0
M  V30 967 H 93.7263 -5.18141 -0.814269 0
M  V30 968 H 95.2003 -4.91926 -2.50425 0
M  V30 969 H 95.6773 -3.27609 -2.92521 0
M  V30 970 H 96.2833 -4.00829 -1.42184 0
M  V30 971 N 94.5984 0.214957 -1.56127 0
M  V30 972 C 95.8234 0.95924 -1.83884 0
M  V30 973 C 96.2484 1.7689 -0.639644 0
M  V30 974 O 95.6064 1.76566 0.411601 0
M  V30 975 C 95.6544 1.84723 -3.09693 0
M  V30 976 O 94.7584 2.94346 -2.8885 0
M  V30 977 H 94.0994 0.27125 -0.606069 0
M  V30 978 H 96.6294 0.226276 -2.03345 0
M  V30 979 H 96.6394 2.25576 -3.39969 0
M  V30 980 H 95.3144 1.25218 -3.96602 0
M  V30 981 H 93.8914 2.57391 -2.69823 0
M  V30 982 N 96.0765 1.50051 0.48192 0
M  V30 983 C 97.3225 1.60736 1.2366 0
M  V30 984 C 97.6555 0.301786 1.91841 0
M  V30 985 O 96.9305 -0.696025 1.8162 0
M  V30 986 C 97.2135 2.78009 2.28874 0
M  V30 987 C 97.0665 4.18416 1.65069 0
M  V30 988 C 98.3855 2.90867 3.30279 0
M  V30 989 H 95.5045 0.585031 0.448228 0
M  V30 990 H 98.1465 1.82402 0.531946 0
M  V30 991 H 96.2965 2.59667 2.88973 0
M  V30 992 H 97.9685 4.48322 1.0865 0
M  V30 993 H 96.2115 4.23177 0.954148 0
M  V30 994 H 96.8825 4.96381 2.41474 0
M  V30 995 H 99.3585 3.07623 2.80191 0
M  V30 996 H 98.2345 3.74566 4.01238 0
M  V30 997 H 98.4955 2.01021 3.93755 0
M  V30 998 N 97.5546 -0.734337 1.39446 0
M  V30 999 C 98.8316 -1.48579 1.27215 0
M  V30 1000 C 99.2116 -2.1077 -0.117968 0
M  V30 1001 O 98.5596 -1.98646 -1.12924 0
M  V30 1002 C 98.7696 -2.53667 2.39696 0
M  V30 1003 C 100.118 -3.20031 2.79044 0
M  V30 1004 O 101.142 -2.6398 2.39151 0
M  V30 1005 O 100.001 -4.21455 3.47905 0
M  V30 1006 H 97.0946 -0.659816 0.49857 0
M  V30 1007 H 99.6406 -0.768106 1.51322 0
M  V30 1008 H 98.4126 -2.06096 3.32626 0
M  V30 1009 H 98.0356 -3.32994 2.17258 0
M  V30 1010 N 99.0327 -1.24633 -0.964593 0
M  V30 1011 C 99.9627 -1.06611 -2.07741 0
M  V30 1012 C 100.944 0.0218666 -1.70086 0
M  V30 1013 O 102.129 -0.145793 -1.93652 0
M  V30 1014 C 99.2587 -0.673444 -3.40708 0
M  V30 1015 C 98.2127 -1.71054 -3.92332 0
M  V30 1016 C 97.5387 -1.17285 -5.21678 0
M  V30 1017 C 98.8387 -3.10718 -4.19824 0
M  V30 1018 H 100.533 -1.99693 -2.23076 0
M  V30 1019 H 98.0787 -0.96152 -1.07195 0
M  V30 1020 H 100.032 -0.534345 -4.17998 0
M  V30 1021 H 98.7557 0.293073 -3.25282 0
M  V30 1022 H 97.4147 -1.83791 -3.17201 0
M  V30 1023 H 97.0627 -0.196847 -5.02615 0
M  V30 1024 H 96.7627 -1.86592 -5.57187 0
M  V30 1025 H 98.2867 -1.04593 -6.01575 0
M  V30 1026 H 99.7007 -3.01192 -4.87808 0
M  V30 1027 H 98.0977 -3.77406 -4.66567 0
M  V30 1028 H 99.1677 -3.58524 -3.26479 0
M  V30 1029 N 100.511 1.16574 -1.06058 0
M  V30 1030 C 101.421 2.2452 -0.680282 0
M  V30 1031 C 102.437 1.71348 0.302604 0
M  V30 1032 O 103.613 2.00822 0.152513 0
M  V30 1033 C 100.678 3.46629 -0.0700315 0
M  V30 1034 C 99.7388 4.14849 -1.10448 0
M  V30 1035 C 98.9718 5.31129 -0.523256 0
M  V30 1036 O 99.1948 5.66514 0.664709 0
M  V30 1037 O 98.1288 5.88526 -1.26179 0
M  V30 1038 H 101.955 2.59355 -1.58015 0
M  V30 1039 H 99.5398 1.24043 -0.832694 0
M  V30 1040 H 101.422 4.20543 0.268667 0
M  V30 1041 H 100.097 3.13573 0.803353 0
M  V30 1042 H 99.0038 3.42916 -1.49532 0
M  V30 1043 H 100.337 4.51954 -1.94931 0
M  V30 1044 N 101.989 0.842826 1.3317 0
M  V30 1045 C 102.899 0.281444 2.32906 0
M  V30 1046 C 103.915 -0.594587 1.63526 0
M  V30 1047 O 105.091 -0.49777 1.95152 0
M  V30 1048 C 102.156 -0.530929 3.42611 0
M  V30 1049 C 101.217 0.369843 4.27704 0
M  V30 1050 C 100.45 -0.403853 5.3217 0
M  V30 1051 O 100.673 -1.63513 5.46461 0
M  V30 1052 O 99.6069 0.224199 6.01482 0
M  V30 1053 H 103.433 1.10744 2.82789 0
M  V30 1054 H 101.018 0.60545 1.36582 0
M  V30 1055 H 102.9 -0.992437 4.09547 0
M  V30 1056 H 101.575 -1.33392 2.94938 0
M  V30 1057 H 100.482 0.879275 3.6362 0
M  V30 1058 H 101.815 1.13771 4.78871 0
M  V30 1059 N 103.467 -1.45747 0.599634 0
M  V30 1060 C 104.695 -2.06668 0.0978551 0
M  V30 1061 C 105.11 -1.44562 -1.21439 0
M  V30 1062 O 104.467 -0.556923 -1.73795 0
M  V30 1063 C 104.518 -3.61456 -0.0567044 0
M  V30 1064 O 104.239 -4.21242 1.20361 0
M  V30 1065 C 105.74 -4.39345 -0.590869 0
M  V30 1066 H 102.96 -0.667825 0.0651943 0
M  V30 1067 H 105.504 -1.87115 0.82511 0
M  V30 1068 H 103.659 -3.80378 -0.734251 0
M  V30 1069 H 104.073 -5.14323 1.02821 0
M  V30 1070 H 105.547 -5.48182 -0.648131 0
M  V30 1071 H 106.024 -4.08568 -1.61147 0
M  V30 1072 H 106.63 -4.25268 0.0523679 0
M  V30 1073 N 104.945 -0.338344 -1.53925 0
M  V30 1074 C 106.193 0.259245 -2.0043 0
M  V30 1075 C 106.514 1.51484 -1.22791 0
M  V30 1076 O 105.784 1.93037 -0.33368 0
M  V30 1077 H 104.364 0.0987845 -0.740439 0
M  V30 1078 H 107.026 -0.458302 -1.89435 0
M  V30 1079 H 106.122 0.505334 -3.07982 0
M  V30 1080 N 106.423 1.57458 -0.0668435 0
M  V30 1081 C 107.839 1.56947 0.289772 0
M  V30 1082 C 108.039 1.07584 1.70376 0
M  V30 1083 O 107.095 0.739486 2.41429 0
M  V30 1084 C 108.408 3.0052 0.103943 0
M  V30 1085 C 109.956 3.12517 0.173857 0
M  V30 1086 C 110.431 4.57997 0.0163682 0
M  V30 1087 N 111.922 4.63144 0.0721352 0
M  V30 1088 C 112.657 5.73394 -0.0253794 0
M  V30 1089 N 112.153 6.92576 -0.176133 0
M  V30 1090 N 113.946 5.62091 0.0313305 0
M  V30 1091 H 106.097 1.87863 -0.991027 0
M  V30 1092 H 108.36 0.86583 -0.38606 0
M  V30 1093 H 108.066 3.40729 -0.871572 0
M  V30 1094 H 107.94 3.67304 0.858366 0
M  V30 1095 H 110.327 2.72197 1.13985 0
M  V30 1096 H 110.408 2.48381 -0.611586 0
M  V30 1097 H 110.052 4.99005 -0.946374 0
M  V30 1098 H 109.982 5.20158 0.821153 0
M  V30 1099 H 112.473 3.77436 0.187263 0
M  V30 1100 H 112.786 7.72418 -0.242821 0
M  V30 1101 H 111.131 6.94678 -0.211429 0
M  V30 1102 H 114.322 4.67867 0.147773 0
M  V30 1103 H 114.495 6.47982 -0.048121 0
M  V30 1104 N 107.901 -0.206675 1.56239 0
M  V30 1105 C 109.147 -0.930218 1.80208 0
M  V30 1106 C 109.48 -1.83387 0.638981 0
M  V30 1107 O 108.755 -1.91119 -0.361066 0
M  V30 1108 C 109.038 -1.75641 3.1436 0
M  V30 1109 C 108.891 -0.878257 4.41142 0
M  V30 1110 C 110.21 -2.73129 3.45092 0
M  V30 1111 H 107.329 -0.336742 0.655571 0
M  V30 1112 H 109.971 -0.198222 1.88963 0
M  V30 1113 H 108.121 -2.38048 3.07027 0
M  V30 1114 H 109.793 -0.269787 4.6051 0
M  V30 1115 H 108.036 -0.184385 4.33408 0
M  V30 1116 H 108.707 -1.49106 5.3148 0
M  V30 1117 H 111.183 -2.20856 3.52649 0
M  V30 1118 H 110.059 -3.28028 4.40101 0
M  V30 1119 H 110.32 -3.51606 2.68003 0
M  V30 1120 N 109.379 -1.50304 -0.473955 0
M  V30 1121 C 110.309 -1.71886 -1.58042 0
M  V30 1122 C 111.29 -0.567799 -1.60344 0
M  V30 1123 O 112.475 -0.806623 -1.76656 0
M  V30 1124 C 109.605 -1.81036 -2.96384 0
M  V30 1125 C 108.559 -2.962 -3.08949 0
M  V30 1126 C 107.885 -2.9049 -4.48909 0
M  V30 1127 C 109.185 -4.36752 -2.86434 0
M  V30 1128 H 110.879 -2.64527 -1.40234 0
M  V30 1129 H 108.425 -1.27295 -0.673201 0
M  V30 1130 H 110.378 -1.94719 -3.73714 0
M  V30 1131 H 109.102 -0.850147 -3.15341 0
M  V30 1132 H 107.761 -2.82164 -2.3405 0
M  V30 1133 H 107.409 -1.92321 -4.64781 0
M  V30 1134 H 107.109 -3.67802 -4.58253 0
M  V30 1135 H 108.633 -3.06218 -5.28264 0
M  V30 1136 H 110.047 -4.5133 -3.53517 0
M  V30 1137 H 108.444 -5.15493 -3.07225 0
M  V30 1138 H 109.514 -4.49321 -1.82316 0
M  V30 1139 N 110.857 0.726932 -1.39834 0
M  V30 1140 C 112.082 1.52121 -1.40976 0
M  V30 1141 C 112.507 1.88098 -0.00826029 0
M  V30 1142 O 111.865 1.52479 0.980807 0
M  V30 1143 C 111.913 2.78021 -2.29644 0
M  V30 1144 O 111.017 3.74272 -1.73188 0
M  V30 1145 H 110.358 0.45908 -0.479731 0
M  V30 1146 H 112.888 0.896207 -1.83927 0
M  V30 1147 H 112.898 3.26671 -2.44438 0
M  V30 1148 H 111.573 2.51169 -3.31492 0
M  V30 1149 H 110.15 3.33073 -1.6768 0
M  V30 1150 N 112.336 1.25143 0.95797 0
M  V30 1151 C 113.585 1.0909 1.69654 0
M  V30 1152 C 113.898 -0.368548 1.92097 0
M  V30 1153 O 115.104 -0.649455 2.63618 0
M  V30 1154 C 113.56 1.90395 3.05414 0
M  V30 1155 C 113.168 3.4081 2.90779 0
M  V30 1156 C 114.912 1.82901 3.83076 0
M  V30 1157 C 112.819 4.14423 4.21909 0
M  V30 1158 H 111.749 0.404625 0.636235 0
M  V30 1159 H 114.4 1.4931 1.06672 0
M  V30 1160 H 112.782 1.42996 3.69281 0
M  V30 1161 H 113.956 3.95859 2.35865 0
M  V30 1162 H 112.271 3.49361 2.26575 0
M  V30 1163 H 114.868 2.35196 4.80195 0
M  V30 1164 H 115.211 0.796224 4.08615 0
M  V30 1165 H 115.744 2.28033 3.25954 0
M  V30 1166 H 112.483 5.18102 4.01561 0
M  V30 1167 H 112.003 3.64159 4.76601 0
M  V30 1168 H 113.682 4.21956 4.90471 0
M  V30 1169 N 113.814 -1.1601 1.06675 0
M  V30 1170 C 115.062 -1.86264 0.784229 0
M  V30 1171 C 115.383 -1.82328 -0.691488 0
M  V30 1172 O 114.653 -1.25947 -1.50047 0
M  V30 1173 H 113.233 -0.689621 0.28711 0
M  V30 1174 H 115.895 -1.40664 1.34906 0
M  V30 1175 H 114.991 -2.91595 1.11259 0
M  V30 1176 N 115.292 -0.849877 -1.32721 0
M  V30 1177 C 116.569 -0.372405 -1.92022 0
M  V30 1178 C 116.949 1.1435 -1.77447 0
M  V30 1179 O 116.297 1.96296 -1.16962 0
M  V30 1180 C 116.507 -0.831482 -3.3895 0
M  V30 1181 C 117.855 -0.845882 -4.16089 0
M  V30 1182 O 118.879 -0.775806 -3.47649 0
M  V30 1183 O 117.738 -0.943753 -5.38289 0
M  V30 1184 H 114.832 -0.107667 -0.819961 0
M  V30 1185 H 117.378 -0.93646 -1.41522 0
M  V30 1186 H 116.15 -1.87448 -3.4348 0
M  V30 1187 H 115.773 -0.24461 -3.96847 0
M  V30 1188 N 116.77 1.45427 -0.607355 0
M  V30 1189 C 118.018 2.01841 -0.102253 0
M  V30 1190 C 118.339 1.47832 1.27164 0
M  V30 1191 O 117.609 0.672497 1.83995 0
M  V30 1192 H 116.189 0.746188 -0.0348101 0
M  V30 1193 H 118.851 1.78229 -0.7887 0
M  V30 1194 H 117.947 3.12057 -0.0518585 0
M  V30 1195 N 118.248 0.346503 1.53744 0
M  V30 1196 C 119.497 -0.250122 2.00143 0
M  V30 1197 C 119.81 -1.51418 1.23822 0
M  V30 1198 O 121.016 -2.18823 1.60713 0
M  V30 1199 C 119.472 -0.496252 3.56462 0
M  V30 1200 C 119.08 0.752077 4.41642 0
M  V30 1201 C 120.824 -1.05157 4.11269 0
M  V30 1202 C 118.731 0.476583 5.89477 0
M  V30 1203 H 117.661 -0.0972409 0.747703 0
M  V30 1204 H 120.312 0.46229 1.77581 0
M  V30 1205 H 118.694 -1.26944 3.75102 0
M  V30 1206 H 119.868 1.5266 4.34778 0
M  V30 1207 H 118.183 1.22925 3.97842 0
M  V30 1208 H 120.78 -1.27269 5.19333 0
M  V30 1209 H 121.123 -2.00799 3.64672 0
M  V30 1210 H 121.656 -0.339019 3.96353 0
M  V30 1211 H 118.395 1.4028 6.40314 0
M  V30 1212 H 117.915 -0.259794 5.99237 0
M  V30 1213 H 119.594 0.0949315 6.4693 0
M  V30 1214 N 119.726 -1.57421 0.075193 0
M  V30 1215 C 120.689 -2.11791 -0.876203 0
M  V30 1216 C 121.689 -1.04268 -1.22412 0
M  V30 1217 O 122.879 -1.30242 -1.15684 0
M  V30 1218 C 120.011 -2.62207 -2.17854 0
M  V30 1219 H 121.204 -2.9716 -0.40444 0
M  V30 1220 H 118.757 -1.55333 -0.173557 0
M  V30 1221 H 119.492 -1.803 -2.6956 0
M  V30 1222 H 119.277 -3.40802 -1.93897 0
M  V30 1223 H 120.767 -3.04335 -2.85955 0
M  V30 1224 N 121.204 0.198386 -1.56346 0
M  V30 1225 C 122.62 0.549085 -1.49857 0
M  V30 1226 C 122.82 1.86016 -0.774611 0
M  V30 1227 O 121.876 2.50416 -0.323776 0
M  V30 1228 C 123.189 0.606868 -2.94512 0
M  V30 1229 C 124.737 0.695925 -3.05165 0
M  V30 1230 C 125.212 0.784848 -4.51225 0
M  V30 1231 N 126.703 0.848463 -4.55363 0
M  V30 1232 C 127.438 0.937378 -5.65686 0
M  V30 1233 N 126.934 0.9888 -6.85707 0
M  V30 1234 N 128.727 0.974312 -5.53592 0
M  V30 1235 H 120.878 -0.661655 -2.01831 0
M  V30 1236 H 123.141 -0.235261 -0.918344 0
M  V30 1237 H 122.847 -0.28732 -3.50524 0
M  V30 1238 H 122.721 1.46268 -3.47686 0
M  V30 1239 H 125.108 1.58055 -2.49204 0
M  V30 1240 H 125.189 -0.186022 -2.55123 0
M  V30 1241 H 124.833 -0.0954072 -5.0781 0
M  V30 1242 H 124.763 1.68255 -4.98997 0
M  V30 1243 H 127.254 0.818103 -3.68938 0
M  V30 1244 H 127.567 1.05707 -7.65536 0
M  V30 1245 H 125.912 0.957534 -6.88372 0
M  V30 1246 H 129.103 0.930954 -4.58749 0
M  V30 1247 H 129.276 1.04015 -6.39597 0
M  V30 1248 N 122.682 1.50554 0.465978 0
M  V30 1249 C 123.928 1.62038 1.21949 0
M  V30 1250 C 124.261 0.322116 1.9151 0
M  V30 1251 O 123.536 -0.676723 1.82348 0
M  V30 1252 C 123.819 2.80421 2.25912 0
M  V30 1253 C 123.672 4.20144 1.60622 0
M  V30 1254 C 124.991 2.94354 3.27176 0
M  V30 1255 H 122.11 0.589752 0.441998 0
M  V30 1256 H 124.752 1.82956 0.51257 0
M  V30 1257 H 122.902 2.62717 2.86203 0
M  V30 1258 H 124.574 4.49449 1.03889 0
M  V30 1259 H 122.817 4.24165 0.909211 0
M  V30 1260 H 123.488 4.98914 2.36196 0
M  V30 1261 H 125.964 3.10578 2.76913 0
M  V30 1262 H 124.84 3.788 3.97242 0
M  V30 1263 H 125.101 2.05186 3.916 0
M  V30 1264 N 124.16 -0.719506 1.40217 0
M  V30 1265 C 125.11 -1.8251 1.36653 0
M  V30 1266 C 126.094 -1.59028 0.244732 0
M  V30 1267 O 127.286 -1.70268 0.483524 0
M  V30 1268 C 124.415 -3.20599 1.22763 0
M  V30 1269 C 123.501 -3.49858 2.39708 0
M  V30 1270 N 123.892 -3.49957 3.6519 0
M  V30 1271 C 122.19 -3.80297 2.33002 0
M  V30 1272 C 122.891 -3.77449 4.42614 0
M  V30 1273 N 121.867 -3.96002 3.72402 0
M  V30 1274 H 125.669 -1.80914 2.31619 0
M  V30 1275 H 123.183 -0.918455 1.33933 0
M  V30 1276 H 125.18 -3.99766 1.18292 0
M  V30 1277 H 123.84 -3.23424 0.287614 0
M  V30 1278 H 124.851 -3.309 3.98404 0
M  V30 1279 H 121.528 -3.90635 1.47346 0
M  V30 1280 H 122.918 -3.83863 5.51451 0
M  V30 1281 N 125.638 -1.25649 -0.95132 0
M  V30 1282 C 126.886 -1.10375 -1.69298 0
M  V30 1283 C 127.207 0.355339 -1.91735 0
M  V30 1284 O 126.477 1.25188 -1.50681 0
M  V30 1285 H 125.057 -0.405461 -0.627384 0
M  V30 1286 H 127.719 -1.57823 -1.14358 0
M  V30 1287 H 126.815 -1.61465 -2.67087 0
M  V30 1288 N 127.117 1.15442 -1.07289 0
M  V30 1289 C 128.047 2.22312 -0.714107 0
M  V30 1290 C 129.028 1.67467 0.298155 0
M  V30 1291 O 130.213 1.93445 0.171048 0
M  V30 1292 C 127.343 3.47124 -0.110448 0
M  V30 1293 C 126.297 4.14926 -1.04979 0
M  V30 1294 C 125.623 5.33807 -0.308924 0
M  V30 1295 C 126.923 4.64762 -2.38314 0
M  V30 1296 H 128.617 2.5258 -1.6076 0
M  V30 1297 H 126.163 1.21404 -0.77441 0
M  V30 1298 H 128.116 4.21124 0.152482 0
M  V30 1299 H 126.84 3.16187 0.81812 0
M  V30 1300 H 125.499 3.42866 -1.29764 0
M  V30 1301 H 125.147 4.99126 0.623084 0
M  V30 1302 H 124.847 5.80113 -0.935036 0
M  V30 1303 H 126.371 6.10576 -0.0537771 0
M  V30 1304 H 127.785 5.30292 -2.1786 0
M  V30 1305 H 126.182 5.21728 -2.96514 0
M  V30 1306 H 127.252 3.80434 -3.00663 0
M  V30 1307 N 128.595 0.856903 1.32268 0
M  V30 1308 C 130.011 0.547061 1.49931 0
M  V30 1309 C 130.211 -0.921781 1.7918 0
M  V30 1310 O 129.267 -1.70469 1.8627 0
M  V30 1311 C 130.58 1.43599 2.64196 0
M  V30 1312 C 132.128 1.43665 2.78081 0
M  V30 1313 C 132.603 2.31085 3.95428 0
M  V30 1314 N 134.094 2.28893 4.02694 0
M  V30 1315 C 134.829 2.93262 4.92732 0
M  V30 1316 N 134.325 3.66751 5.87763 0
M  V30 1317 N 136.118 2.82638 4.85873 0
M  V30 1318 H 128.269 1.8075 1.11549 0
M  V30 1319 H 130.532 0.772144 0.549997 0
M  V30 1320 H 130.238 2.48058 2.49319 0
M  V30 1321 H 130.112 1.12502 3.60032 0
M  V30 1322 H 132.499 0.399701 2.92381 0
M  V30 1323 H 132.58 1.7878 1.82952 0
M  V30 1324 H 132.224 3.34849 3.81888 0
M  V30 1325 H 132.154 1.93302 4.89839 0
M  V30 1326 H 134.645 1.75466 3.34694 0
M  V30 1327 H 134.958 4.13027 6.53168 0
M  V30 1328 H 133.303 3.70859 5.87783 0
M  V30 1329 H 136.494 2.24774 4.10602 0
M  V30 1330 H 136.667 3.33084 5.55841 0
M  V30 1331 N 130.073 -1.45103 0.615059 0
M  V30 1332 C 131.021 -2.32331 -0.111791 0
M  V30 1333 C 132.015 -1.46409 -0.852102 0
M  V30 1334 O 133.221 -1.62849 -0.766821 0
M  V30 1335 H 129.596 -0.749993 -0.0549072 0
M  V30 1336 H 131.567 -2.91407 0.642225 0
M  V30 1337 C 130.316 -3.3015 -1.09071 0
M  V30 1338 H 129.639 -3.96265 -0.530485 0
M  V30 1339 H 131.079 -3.93898 -1.56908 0
M  V30 1340 C 129.538 -2.57875 -2.168 0
M  V30 1341 O 130.068 -2.36567 -3.24652 0
M  V30 1342 N 128.274 -2.17884 -1.92289 0
M  V30 1343 H 127.821 -2.35413 -1.04587 0
M  V30 1344 H 127.779 -1.6985 -2.64572 0
M  V30 1345 N 131.551 -0.354651 -1.53558 0
M  V30 1346 C 132.797 0.238797 -2.01389 0
M  V30 1347 C 133.13 1.49309 -1.2418 0
M  V30 1348 O 132.405 1.91638 -0.332457 0
M  V30 1349 C 132.688 0.541771 -3.56001 0
M  V30 1350 C 132.541 -0.725388 -4.43912 0
M  V30 1351 C 133.86 1.34685 -4.18984 0
M  V30 1352 H 130.979 0.0853177 -0.732045 0
M  V30 1353 H 133.621 -0.477384 -1.83905 0
M  V30 1354 H 131.771 1.15189 -3.71031 0
M  V30 1355 H 133.443 -1.36313 -4.407 0
M  V30 1356 H 131.686 -1.34801 -4.12324 0
M  V30 1357 H 132.357 -0.468505 -5.50008 0
M  V30 1358 H 134.833 0.830837 -4.07721 0
M  V30 1359 H 133.709 1.52759 -5.27215 0
M  V30 1360 H 133.97 2.35221 -3.74331 0
M  V30 1361 N 133.029 1.57378 -0.0835403 0
M  V30 1362 C 133.961 2.10389 0.909338 0
M  V30 1363 C 134.974 1.03858 1.25369 0
M  V30 1364 O 136.163 1.31338 1.20882 0
M  V30 1365 C 133.263 2.55908 2.2218 0
M  V30 1366 C 132.436 3.86145 2.05453 0
M  V30 1367 C 131.495 4.17633 3.20108 0
M  V30 1368 O 130.521 4.87043 2.94581 0
M  V30 1369 N 131.723 3.72113 4.45547 0
M  V30 1370 H 134.488 2.962 0.456657 0
M  V30 1371 H 132.049 1.61579 0.101877 0
M  V30 1372 H 134.041 2.74027 2.97811 0
M  V30 1373 H 132.611 1.75171 2.58909 0
M  V30 1374 H 131.831 3.7729 1.1422 0
M  V30 1375 H 133.119 4.7137 1.91541 0
M  V30 1376 H 132.517 3.16062 4.69171 0
M  V30 1377 H 131.074 3.95409 5.18165 0
M  V30 1378 N 134.507 -0.190092 1.56449 0
M  V30 1379 C 135.47 -1.21925 1.9408 0
M  V30 1380 C 136.47 -1.38176 0.822431 0
M  V30 1381 O 137.66 -1.35903 1.08977 0
M  V30 1382 C 134.792 -2.58773 2.21922 0
M  V30 1383 H 135.985 -0.897464 2.86157 0
M  V30 1384 H 133.538 -0.43181 1.50217 0
M  V30 1385 H 134.273 -2.95998 1.32499 0
M  V30 1386 H 134.058 -2.48348 3.03424 0
M  V30 1387 H 135.548 -3.32978 2.52022 0
M  V30 1388 N 135.985 -1.50799 -0.457987 0
M  V30 1389 C 136.895 -1.73426 -1.57989 0
M  V30 1390 C 137.911 -0.617745 -1.62665 0
M  V30 1391 O 139.087 -0.897614 -1.80291 0
M  V30 1392 C 136.152 -1.83557 -2.94122 0
M  V30 1393 C 135.213 -3.07345 -2.99729 0
M  V30 1394 C 134.446 -3.16983 -4.29368 0
M  V30 1395 O 134.669 -2.33077 -5.20607 0
M  V30 1396 O 133.603 -4.09812 -4.40837 0
M  V30 1397 H 137.429 -2.68555 -1.41817 0
M  V30 1398 H 135.014 -1.35052 -0.638859 0
M  V30 1399 H 136.896 -1.92326 -3.74952 0
M  V30 1400 H 135.571 -0.916137 -3.10465 0
M  V30 1401 H 134.478 -3.04068 -2.1793 0
M  V30 1402 H 135.811 -3.9891 -2.88326 0
M  V30 1403 N 137.463 0.71206 -1.40597 0
M  V30 1404 C 138.373 1.8562 -1.43466 0
M  V30 1405 C 139.389 1.70902 -0.326902 0
M  V30 1406 O 140.565 1.93105 -0.572043 0
M  V30 1407 C 137.63 3.21451 -1.29884 0
M  V30 1408 C 136.691 3.48398 -2.50833 0
M  V30 1409 C 135.924 4.77749 -2.3789 0
M  V30 1410 O 136.147 5.53089 -1.39459 0
M  V30 1411 O 135.081 5.05111 -3.27333 0
M  V30 1412 H 138.907 1.86155 -2.39958 0
M  V30 1413 H 136.492 0.86295 -1.21957 0
M  V30 1414 H 138.374 4.02579 -1.24531 0
M  V30 1415 H 137.049 3.21636 -0.364997 0
M  V30 1416 H 135.956 2.67265 -2.61763 0
M  V30 1417 H 137.289 3.53014 -3.4299 0
M  V30 1418 N 138.941 1.26152 0.944643 0
M  V30 1419 C 139.874 1.01729 2.04271 0
M  V30 1420 C 140.852 -0.0568101 1.62501 0
M  V30 1421 O 142.036 0.0848987 1.88309 0
M  V30 1422 C 139.163 0.539792 3.34371 0
M  V30 1423 C 138.209 1.60593 3.9511 0
M  V30 1424 S 139.042 3.19392 4.29825 0
M  V30 1425 C 140.198 2.73402 5.63029 0
M  V30 1426 H 140.431 1.94703 2.24673 0
M  V30 1427 H 137.964 1.09793 1.08558 0
M  V30 1428 H 139.922 0.270956 4.09605 0
M  V30 1429 H 138.583 -0.369609 3.11918 0
M  V30 1430 H 137.776 1.22275 4.88943 0
M  V30 1431 H 137.378 1.82596 3.26397 0
M  V30 1432 H 139.67 2.1765 6.41588 0
M  V30 1433 H 140.613 3.65913 6.06229 0
M  V30 1434 H 141.021 2.13077 5.22741 0
M  V30 1435 N 140.419 -1.14872 1.07899 0
M  V30 1436 C 141.665 -1.86064 0.806725 0
M  V30 1437 C 141.998 -1.82434 -0.665706 0
M  V30 1438 O 141.273 -1.25138 -1.48899 0
M  V30 1439 C 141.556 -3.34929 1.32267 0
M  V30 1440 C 141.409 -3.47161 2.86006 0
M  V30 1441 C 142.728 -4.29863 0.943717 0
M  V30 1442 H 139.847 -0.675591 0.294526 0
M  V30 1443 H 142.489 -1.34925 1.33773 0
M  V30 1444 H 140.639 -3.78611 0.870974 0
M  V30 1445 H 142.311 -3.12302 3.39507 0
M  V30 1446 H 140.554 -2.88539 3.23925 0
M  V30 1447 H 141.225 -4.51777 3.17177 0
M  V30 1448 H 143.701 -3.9417 1.33302 0
M  V30 1449 H 142.577 -5.32494 1.33198 0
M  V30 1450 H 142.838 -4.41846 -0.149796 0
M  V30 1451 N 141.898 -0.863906 -1.31812 0
M  V30 1452 C 142.808 -0.318461 -2.32428 0
M  V30 1453 C 143.824 0.568496 -1.64451 0
M  V30 1454 O 145 0.46666 -1.95919 0
M  V30 1455 C 142.065 0.476355 -3.43412 0
M  V30 1456 C 141.126 -0.43784 -4.27061 0
M  V30 1457 C 140.359 0.319138 -5.32745 0
M  V30 1458 O 140.582 1.54799 -5.48993 0
M  V30 1459 O 139.516 -0.319861 -6.01049 0
M  V30 1460 H 143.342 -1.15229 -2.80991 0
M  V30 1461 H 140.927 -0.627103 -1.35602 0
M  V30 1462 H 142.809 0.927156 -4.11074 0
M  V30 1463 H 141.484 1.28683 -2.97022 0
M  V30 1464 H 140.391 -0.937013 -3.62175 0
M  V30 1465 H 141.724 -1.21375 -4.77 0
M  V30 1466 N 143.376 1.44774 -0.622745 0
M  V30 1467 C 144.623 2.02121 -0.1239 0
M  V30 1468 C 144.951 1.48915 1.25118 0
M  V30 1469 O 144.206 0.660045 1.84233 0
M  V30 1470 C 144.505 3.57364 -0.0508323 0
M  V30 1471 C 144.171 4.29787 -1.36358 0
M  V30 1472 C 142.833 4.4929 -1.72314 0
M  V30 1473 C 145.185 4.71062 -2.23048 0
M  V30 1474 C 142.513 5.07325 -2.94682 0
M  V30 1475 C 144.865 5.30452 -3.44679 0
M  V30 1476 C 143.529 5.48175 -3.80868 0
M  V30 1477 H 142.799 0.739612 -0.0453381 0
M  V30 1478 H 145.446 1.73648 -0.807389 0
M  V30 1479 H 143.751 3.85202 0.715991 0
M  V30 1480 H 145.448 3.99456 0.351533 0
M  V30 1481 H 142.038 4.14932 -1.07375 0
M  V30 1482 H 146.222 4.55715 -1.96565 0
M  V30 1483 H 141.478 5.19235 -3.22809 0
M  V30 1484 H 145.652 5.61385 -4.12092 0
M  V30 1485 H 143.279 5.92912 -4.75773 0
M  V30 1486 N 144.854 0.36279 1.53368 0
M  V30 1487 C 146.079 -0.231226 2.06107 0
M  V30 1488 C 146.504 -1.419 1.23474 0
M  V30 1489 O 145.862 -1.79524 0.253128 0
M  V30 1490 C 145.91 -0.605523 3.5548 0
M  V30 1491 O 145.014 -1.70312 3.7559 0
M  V30 1492 H 144.355 -0.034327 0.663112 0
M  V30 1493 H 146.885 0.522584 1.97814 0
M  V30 1494 H 146.895 -0.877314 3.98456 0
M  V30 1495 H 145.57 0.263004 4.15068 0
M  V30 1496 H 144.147 -1.4271 3.44512 0
M  V30 1497 N 146.332 -1.57332 0.0918853 0
M  V30 1498 C 147.557 -1.98995 -0.584442 0
M  V30 1499 C 147.982 -0.970528 -1.61128 0
M  V30 1500 O 147.34 0.0613904 -1.81196 0
M  V30 1501 C 147.388 -3.39636 -1.21161 0
M  V30 1502 O 146.492 -3.40447 -2.32744 0
M  V30 1503 H 145.833 -0.647165 -0.148572 0
M  V30 1504 H 148.363 -2.03873 0.172347 0
M  V30 1505 H 148.373 -3.7726 -1.55367 0
M  V30 1506 H 147.048 -4.13356 -0.459313 0
M  V30 1507 H 145.625 -3.14614 -2.0018 0
M  V30 1508 N 147.81 0.181792 -1.56548 0
M  V30 1509 C 149.058 0.89832 -1.81038 0
M  V30 1510 C 149.379 1.83232 -0.667164 0
M  V30 1511 O 148.649 1.93372 0.313673 0
M  V30 1512 H 147.229 0.33471 -0.667816 0
M  V30 1513 H 149.891 0.184116 -1.94028 0
M  V30 1514 H 148.987 1.4815 -2.74696 0
M  V30 1515 N 149.288 1.51039 0.449983 0
M  V30 1516 C 150.218 1.74379 1.55288 0
M  V30 1517 C 151.199 0.593236 1.5942 0
M  V30 1518 O 152.384 0.834625 1.7535 0
M  V30 1519 C 149.514 1.85728 2.93466 0
M  V30 1520 C 148.468 3.01078 3.04197 0
M  V30 1521 C 147.794 2.97595 4.44231 0
M  V30 1522 C 149.094 4.41254 2.7945 0
M  V30 1523 H 150.788 2.66725 1.36008 0
M  V30 1524 H 148.334 1.2835 0.652864 0
M  V30 1525 H 150.287 2.0064 3.70569 0
M  V30 1526 H 149.011 0.900207 3.13949 0
M  V30 1527 H 147.67 2.85851 2.29531 0
M  V30 1528 H 147.318 1.99691 4.61663 0
M  V30 1529 H 147.018 3.75046 4.52343 0
M  V30 1530 H 148.542 3.14583 5.23326 0
M  V30 1531 H 149.956 4.56897 3.46292 0
M  V30 1532 H 148.353 5.20315 2.98985 0
M  V30 1533 H 149.423 4.52164 1.75144 0
M  V30 1534 N 150.766 -0.704594 1.40972 0
M  V30 1535 C 151.713 -1.81862 1.42109 0
M  V30 1536 C 152.683 -1.63781 0.276593 0
M  V30 1537 O 153.868 -1.84759 0.4763 0
M  V30 1538 C 151.008 -3.19669 1.30022 0
M  V30 1539 C 150.121 -3.49246 2.54267 0
M  V30 1540 C 149.256 -4.76618 2.3454 0
M  V30 1541 C 148.295 -4.99133 3.54306 0
M  V30 1542 N 147.432 -6.17726 3.33706 0
M  V30 1543 H 152.272 -1.80226 2.37324 0
M  V30 1544 H 149.809 -0.880238 1.17857 0
M  V30 1545 H 151.767 -3.99263 1.21018 0
M  V30 1546 H 150.397 -3.20506 0.384192 0
M  V30 1547 H 149.449 -2.64125 2.73756 0
M  V30 1548 H 150.761 -3.61788 3.43381 0
M  V30 1549 H 149.915 -5.64249 2.22952 0
M  V30 1550 H 148.654 -4.66305 1.42867 0
M  V30 1551 H 147.659 -4.09953 3.66359 0
M  V30 1552 H 148.884 -5.11311 4.4692 0
M  V30 1553 H 146.83 -6.08642 2.44725 0
M  V30 1554 H 146.747 -6.30995 4.16391 0
M  V30 1555 H 148.015 -7.08115 3.25873 0
M  V30 1556 N 152.244 -1.26651 -0.937939 0
M  V30 1557 C 153.492 -1.12165 -1.68118 0
M  V30 1558 C 153.813 0.334983 -1.92101 0
M  V30 1559 O 153.083 1.23583 -1.52 0
M  V30 1560 H 151.663 -0.412093 -0.623048 0
M  V30 1561 H 154.325 -1.59027 -1.12678 0
M  V30 1562 H 153.421 -1.64289 -2.6536 0
M  V30 1563 N 153.722 1.14298 -1.08507 0
M  V30 1564 C 154.655 2.18447 -0.660004 0
M  V30 1565 C 155.633 1.59242 0.328749 0
M  V30 1566 O 156.817 1.87062 0.232367 0
M  V30 1567 C 153.944 3.38688 0.0290807 0
M  V30 1568 C 152.99 4.1646 -0.919982 0
M  V30 1569 S 153.823 4.77334 -2.42718 0
M  V30 1570 C 154.979 6.00931 -1.75024 0
M  V30 1571 H 155.212 2.54166 -1.54231 0
M  V30 1572 H 152.745 1.25446 -0.900149 0
M  V30 1573 H 154.703 4.08342 0.420378 0
M  V30 1574 H 153.364 3.01289 0.887895 0
M  V30 1575 H 152.557 5.02529 -0.384751 0
M  V30 1576 H 152.159 3.52414 -1.25223 0
M  V30 1577 H 154.451 6.69017 -1.06877 0
M  V30 1578 H 155.394 6.59044 -2.58971 0
M  V30 1579 H 155.802 5.51089 -1.22317 0
M  V30 1580 N 155.201 0.870884 1.31352 0
M  V30 1581 C 156.426 0.495957 2.01383 0
M  V30 1582 C 156.851 -0.904324 1.64935 0
M  V30 1583 O 156.209 -1.59687 0.858466 0
M  V30 1584 C 156.257 0.661433 3.54482 0
M  V30 1585 O 155.361 -0.298851 4.11316 0
M  V30 1586 H 154.702 0.197158 0.634054 0
M  V30 1587 H 157.232 1.17455 1.67527 0
M  V30 1588 H 157.242 0.555072 4.04207 0
M  V30 1589 H 155.917 1.68246 3.8035 0
M  V30 1590 H 154.494 -0.147368 3.72609 0
M  V30 1591 N 156.679 -1.44442 0.630414 0
M  V30 1592 C 157.609 -2.33418 -0.0618083 0
M  V30 1593 C 158.59 -1.48165 -0.835541 0
M  V30 1594 O 159.775 -1.76886 -0.801564 0
M  V30 1595 C 156.905 -3.31222 -1.04449 0
M  V30 1596 C 155.859 -4.26288 -0.382436 0
M  V30 1597 C 155.185 -5.13954 -1.47497 0
M  V30 1598 C 156.485 -5.1744 0.710865 0
M  V30 1599 H 158.179 -2.91548 0.681184 0
M  V30 1600 H 155.725 -1.40191 0.329026 0
M  V30 1601 H 157.678 -3.92351 -1.53748 0
M  V30 1602 H 156.402 -2.71299 -1.81836 0
M  V30 1603 H 155.061 -3.6649 0.0899054 0
M  V30 1604 H 154.709 -4.50385 -2.2397 0
M  V30 1605 H 154.409 -5.7837 -1.03737 0
M  V30 1606 H 155.933 -5.77955 -1.96979 0
M  V30 1607 H 157.347 -5.72509 0.300996 0
M  V30 1608 H 155.744 -5.90455 1.07156 0
M  V30 1609 H 156.814 -4.58496 1.57829 0
M  V30 1610 N 158.157 -0.370918 -1.53173 0
M  V30 1611 C 159.105 0.488101 -2.27421 0
M  V30 1612 C 160.099 1.07884 -1.30604 0
M  V30 1613 O 161.305 1.02143 -1.48212 0
M  V30 1614 H 157.68 0.176134 -0.731082 0
M  V30 1615 H 159.651 -0.159815 -2.97972 0
M  V30 1616 C 158.4 1.61306 -3.08019 0
M  V30 1617 H 157.723 1.1678 -3.82364 0
M  V30 1618 H 159.163 2.18872 -3.63141 0
M  V30 1619 C 157.622 2.55848 -2.19188 0
M  V30 1620 O 158.152 3.58799 -1.80626 0
M  V30 1621 N 156.358 2.2516 -1.83715 0
M  V30 1622 H 155.905 1.41476 -2.15273 0
M  V30 1623 H 155.863 2.8867 -1.24567 0
M  V30 1624 N 159.635 1.57281 -0.100228 0
M  V30 1625 C 160.565 2.17328 0.853857 0
M  V30 1626 C 161.546 1.10804 1.2906 0
M  V30 1627 O 162.731 1.38963 1.35657 0
M  V30 1628 C 159.861 2.75772 2.11109 0
M  V30 1629 C 158.815 3.87713 1.81279 0
M  V30 1630 C 158.141 4.32882 3.13874 0
M  V30 1631 C 159.441 5.10677 1.09574 0
M  V30 1632 H 161.135 2.97305 0.353545 0
M  V30 1633 H 158.681 1.43009 0.168612 0
M  V30 1634 H 160.634 3.16433 2.78296 0
M  V30 1635 H 159.358 1.93057 2.63432 0
M  V30 1636 H 158.017 3.476 1.16489 0
M  V30 1637 H 157.665 3.47051 3.64095 0
M  V30 1638 H 157.365 5.08358 2.94696 0
M  V30 1639 H 158.889 4.7618 3.82211 0
M  V30 1640 H 160.303 5.48474 1.66879 0
M  V30 1641 H 158.7 5.91615 1.00557 0
M  V30 1642 H 159.77 4.84835 0.0793299 0
M  V30 1643 N 161.113 -0.173488 1.56642 0
M  V30 1644 C 162.023 -1.23482 1.99473 0
M  V30 1645 C 163.039 -1.48567 0.905752 0
M  V30 1646 O 164.215 -1.60758 1.21321 0
M  V30 1647 C 161.28 -2.55444 2.34413 0
M  V30 1648 C 160.341 -2.38241 3.57127 0
M  V30 1649 C 159.574 -3.63909 3.90392 0
M  V30 1650 O 159.797 -4.68996 3.24653 0
M  V30 1651 O 158.731 -3.58149 4.83749 0
M  V30 1652 H 162.557 -0.901279 2.90018 0
M  V30 1653 H 160.142 -0.380185 1.44482 0
M  V30 1654 H 162.024 -3.33292 2.57865 0
M  V30 1655 H 160.699 -2.88382 1.4703 0
M  V30 1656 H 159.606 -1.58431 3.38896 0
M  V30 1657 H 160.939 -2.10228 4.45045 0
M  V30 1658 N 162.591 -1.51276 -0.441967 0
M  V30 1659 C 164.002 -1.56244 -1.02199 0
M  V30 1660 C 164.353 -0.383149 -1.92422 0
M  V30 1661 O 163.478 0.500613 -2.1053 0
M  V30 1662 C 164.073 -2.83162 -1.86024 0
M  V30 1663 C 162.632 -2.90716 -2.39084 0
M  V30 1664 C 161.779 -2.50858 -1.18175 0
M  V30 1665 H 164.73 -1.5712 -0.223416 0
M  V30 1666 H 164.751 -2.66663 -2.71425 0
M  V30 1667 H 164.263 -3.68974 -1.20331 0
M  V30 1668 H 162.364 -2.09323 -3.08244 0
M  V30 1669 H 162.477 -3.94266 -2.72198 0
M  V30 1670 H 160.841 -2.03951 -1.52565 0
M  V30 1671 H 161.624 -3.3901 -0.541001 0
M  V30 1672 N 164.069 0.697108 -1.41344 0
M  V30 1673 C 165.346 1.45154 -1.31109 0
M  V30 1674 C 165.726 2.11009 0.0620449 0
M  V30 1675 O 165.074 2.01571 1.07618 0
M  V30 1676 C 165.284 2.47223 -2.46337 0
M  V30 1677 C 166.632 3.1252 -2.87431 0
M  V30 1678 O 167.656 2.57547 -2.46065 0
M  V30 1679 O 166.515 4.12083 -3.58957 0
M  V30 1680 H 163.609 0.646365 -0.515889 0
M  V30 1681 H 166.155 0.727716 -1.53305 0
M  V30 1682 H 164.927 1.97204 -3.37974 0
M  V30 1683 H 164.55 3.27116 -2.2601 0
M  V30 1684 N 165.547 1.27147 0.931209 0
M  V30 1685 C 166.495 1.09398 2.05268 0
M  V30 1686 C 167.489 0.0180591 1.6939 0
M  V30 1687 O 168.695 0.17551 1.79142 0
M  V30 1688 H 165.07 0.336986 0.672268 0
M  V30 1689 H 167.041 2.04416 2.17386 0
M  V30 1690 C 165.79 0.75424 3.39421 0
M  V30 1691 H 165.113 1.57404 3.67511 0
M  V30 1692 H 166.553 0.669903 4.18674 0
M  V30 1693 C 165.012 -0.541197 3.32525 0
M  V30 1694 O 165.542 -1.57664 3.69466 0
M  V30 1695 N 163.748 -0.535517 2.85623 0
M  V30 1696 H 163.295 0.307511 2.55758 0
M  V30 1697 H 163.253 -1.40236 2.81392 0
M  V30 1698 N 167.025 -1.13721 1.09112 0
M  V30 1699 C 168.271 -1.85198 0.826414 0
M  V30 1700 C 168.604 -1.83129 -0.646319 0
M  V30 1701 O 167.879 -1.2671 -1.47563 0
M  V30 1702 C 168.162 -3.33507 1.35812 0
M  V30 1703 C 168.015 -3.44108 2.89672 0
M  V30 1704 C 169.334 -4.28838 0.989256 0
M  V30 1705 H 166.453 -0.67243 0.301675 0
M  V30 1706 H 169.095 -1.33499 1.35197 0
M  V30 1707 H 167.245 -3.77666 0.911082 0
M  V30 1708 H 168.917 -3.08684 3.428 0
M  V30 1709 H 167.16 -2.85087 3.26967 0
M  V30 1710 H 167.831 -4.48388 3.21951 0
M  V30 1711 H 170.307 -3.92734 1.37475 0
M  V30 1712 H 169.183 -5.31051 1.38838 0
M  V30 1713 H 169.444 -4.4198 -0.102924 0
M  V30 1714 N 168.503 -0.877838 -1.30888 0
M  V30 1715 C 169.751 -0.491723 -1.96027 0
M  V30 1716 C 170.072 0.960827 -1.69685 0
M  V30 1717 O 169.342 1.67462 -1.01654 0
M  V30 1718 H 167.922 -0.17885 -0.725273 0
M  V30 1719 H 170.584 -1.11935 -1.59551 0
M  V30 1720 H 169.68 -0.656016 -3.05128 0
M  V30 1721 N 169.982 1.44106 -0.638065 0
M  V30 1722 C 171.228 2.02277 -0.145546 0
M  V30 1723 C 171.561 1.50125 1.23191 0
M  V30 1724 O 170.836 0.688133 1.8192 0
M  V30 1725 C 171.119 3.59829 -0.139791 0
M  V30 1726 C 170.972 4.22247 -1.55008 0
M  V30 1727 C 172.291 4.36873 0.531966 0
M  V30 1728 H 169.41 0.734992 -0.0543632 0
M  V30 1729 H 172.052 1.71592 -0.815863 0
M  V30 1730 H 170.202 3.86102 0.431007 0
M  V30 1731 H 171.874 4.07057 -2.1703 0
M  V30 1732 H 170.117 3.79476 -2.10191 0
M  V30 1733 H 170.788 5.31284 -1.49804 0
M  V30 1734 H 173.264 4.16074 0.0464781 0
M  V30 1735 H 172.14 5.4657 0.505206 0
M  V30 1736 H 172.401 4.11995 1.60352 0
M  V30 1737 N 171.46 0.379036 1.52974 0
M  V30 1738 C 172.706 -0.206727 2.01744 0
M  V30 1739 C 173.039 -1.47314 1.26539 0
M  V30 1740 O 172.314 -1.91084 0.362903 0
M  V30 1741 C 172.597 -0.485066 3.56818 0
M  V30 1742 C 172.45 0.795919 4.42702 0
M  V30 1743 C 173.769 -1.28003 4.21074 0
M  V30 1744 H 170.888 -0.0736607 0.73331 0
M  V30 1745 H 173.53 0.506581 1.83122 0
M  V30 1746 H 171.68 -1.09272 3.72816 0
M  V30 1747 H 173.352 1.43307 4.38476 0
M  V30 1748 H 171.595 1.41344 4.10127 0
M  V30 1749 H 172.266 0.555947 5.49193 0
M  V30 1750 H 174.742 -0.765867 4.08991 0
M  V30 1751 H 173.618 -1.44352 5.29579 0
M  V30 1752 H 173.879 -2.29236 3.78026 0
M  V30 1753 N 172.938 -1.57226 0.108567 0
M  V30 1754 C 174.184 -1.95121 -0.552761 0
M  V30 1755 C 174.517 -0.991345 -1.66991 0
M  V30 1756 O 173.792 -0.0267211 -1.94482 0
M  V30 1757 C 174.075 -3.43039 -1.09528 0
M  V30 1758 C 173.928 -4.49797 0.0177332 0
M  V30 1759 C 175.247 -3.92567 -1.98945 0
M  V30 1760 H 172.366 -0.709496 -0.199461 0
M  V30 1761 H 175.008 -1.89126 0.182011 0
M  V30 1762 H 173.158 -3.48279 -1.72146 0
M  V30 1763 H 174.83 -4.56661 0.652584 0
M  V30 1764 H 173.073 -4.284 0.682309 0
M  V30 1765 H 173.744 -5.50528 -0.402919 0
M  V30 1766 H 176.22 -3.89565 -1.46214 0
M  V30 1767 H 175.096 -4.96605 -2.33827 0
M  V30 1768 H 175.357 -3.32648 -2.91201 0
M  V30 1769 N 174.416 0.165178 -1.56732 0
M  V30 1770 C 175.663 0.880807 -1.8234 0
M  V30 1771 C 175.991 1.81977 -0.686621 0
M  V30 1772 O 175.246 1.92971 0.325697 0
M  V30 1773 C 175.545 1.70405 -3.1416 0
M  V30 1774 C 175.211 0.913475 -4.4155 0
M  V30 1775 C 173.873 0.695303 -4.7615 0
M  V30 1776 C 176.225 0.359349 -5.1996 0
M  V30 1777 C 173.553 -0.0879947 -5.86634 0
M  V30 1778 C 175.905 -0.410893 -6.31264 0
M  V30 1779 C 174.569 -0.639808 -6.64427 0
M  V30 1780 H 173.839 0.32231 -0.667231 0
M  V30 1781 H 176.486 0.145402 -1.90947 0
M  V30 1782 H 174.791 2.50903 -3.00923 0
M  V30 1783 H 176.488 2.26091 -3.31186 0
M  V30 1784 H 173.078 1.09357 -4.14414 0
M  V30 1785 H 177.262 0.515228 -4.93618 0
M  V30 1786 H 172.518 -0.27503 -6.10781 0
M  V30 1787 H 176.692 -0.847494 -6.91224 0
M  V30 1788 H 174.319 -1.24864 -7.49875 0
M  V30 1789 N 175.894 1.51508 0.433938 0
M  V30 1790 C 177.142 1.6402 1.18075 0
M  V30 1791 C 177.463 0.360328 1.91642 0
M  V30 1792 O 176.733 -0.623945 1.85698 0
M  V30 1793 H 175.313 0.6045 0.43885 0
M  V30 1794 H 177.975 1.88452 0.497178 0
M  V30 1795 H 177.071 2.46949 1.90847 0
M  V30 1796 N 177.372 -0.689602 1.41712 0
M  V30 1797 C 178.32 -1.82475 1.44242 0
M  V30 1798 C 179.314 -1.66354 0.319774 0
M  V30 1799 O 180.52 -1.73143 0.492089 0
M  V30 1800 H 176.895 -0.601416 0.451445 0
M  V30 1801 H 178.866 -1.77458 2.39899 0
M  V30 1802 C 177.615 -3.20535 1.3473 0
M  V30 1803 H 176.938 -3.33559 2.20405 0
M  V30 1804 H 178.378 -4.00023 1.40562 0
M  V30 1805 C 176.837 -3.36846 0.0603281 0
M  V30 1806 O 177.367 -3.91656 -0.892663 0
M  V30 1807 N 175.573 -2.90595 -0.0177039 0
M  V30 1808 H 175.12 -2.46178 0.758572 0
M  V30 1809 H 175.078 -3.01886 -0.878201 0
M  V30 1810 N 178.85 -1.27639 -0.924453 0
M  V30 1811 C 180.127 -1.04887 -1.651 0
M  V30 1812 C 180.507 0.415327 -2.06974 0
M  V30 1813 O 179.855 1.39923 -1.80648 0
M  V30 1814 C 180.065 -2.01348 -2.85061 0
M  V30 1815 C 181.413 -2.30899 -3.56329 0
M  V30 1816 O 182.437 -1.99348 -2.95193 0
M  V30 1817 O 181.296 -2.84699 -4.66485 0
M  V30 1818 H 178.39 -0.400083 -0.723784 0
M  V30 1819 H 180.936 -1.38916 -0.974703 0
M  V30 1820 H 179.708 -3.0008 -2.51133 0
M  V30 1821 H 179.331 -1.679 -3.6041 0
M  V30 1822 N 180.328 1.1314 -1.09713 0
M  V30 1823 C 181.275 2.18642 -0.739196 0
M  V30 1824 C 182.245 1.63706 0.280978 0
M  V30 1825 O 183.43 1.90111 0.161946 0
M  V30 1826 C 180.57 3.44685 -0.169102 0
M  V30 1827 C 179.683 4.13711 -1.24367 0
M  V30 1828 C 178.818 5.27379 -0.636019 0
M  V30 1829 C 177.857 5.88259 -1.69169 0
M  V30 1830 N 176.994 6.93352 -1.10485 0
M  V30 1831 H 181.834 2.48607 -1.64312 0
M  V30 1832 H 179.371 1.22066 -0.820875 0
M  V30 1833 H 181.329 4.16815 0.179256 0
M  V30 1834 H 179.959 3.15161 0.698079 0
M  V30 1835 H 179.011 3.39835 -1.70927 0
M  V30 1836 H 180.323 4.55037 -2.04311 0
M  V30 1837 H 179.477 6.06238 -0.236677 0
M  V30 1838 H 178.216 4.8731 0.194928 0
M  V30 1839 H 177.221 5.08092 -2.10055 0
M  V30 1840 H 178.446 6.30399 -2.52536 0
M  V30 1841 H 176.392 6.55335 -0.295234 0
M  V30 1842 H 176.309 7.33236 -1.84121 0
M  V30 1843 H 177.577 7.76057 -0.73181 0
M  V30 1844 N 181.806 0.884767 1.30421 0
M  V30 1845 C 182.736 0.367574 2.30589 0
M  V30 1846 C 183.717 -0.549464 1.60981 0
M  V30 1847 O 184.902 -0.46336 1.88591 0
M  V30 1848 C 182.032 -0.418944 3.44764 0
M  V30 1849 C 180.986 0.406316 4.26067 0
M  V30 1850 C 180.312 -0.506793 5.32293 0
M  V30 1851 C 181.612 1.64832 4.95608 0
M  V30 1852 H 183.306 1.20462 2.74097 0
M  V30 1853 H 180.852 0.580695 1.31772 0
M  V30 1854 H 182.805 -0.791395 4.13902 0
M  V30 1855 H 181.529 -1.28964 3.0006 0
M  V30 1856 H 180.188 0.760903 3.58617 0
M  V30 1857 H 179.836 -1.37519 4.83836 0
M  V30 1858 H 179.536 0.0415828 5.87585 0
M  V30 1859 H 181.06 -0.875764 6.04287 0
M  V30 1860 H 182.474 1.34646 5.57264 0
M  V30 1861 H 180.871 2.13688 5.60765 0
M  V30 1862 H 181.941 2.39284 4.21748 0
M  V30 1863 N 183.284 -1.43765 0.645699 0
M  V30 1864 C 184.533 -2.01116 0.153412 0
M  V30 1865 C 184.846 -1.51493 -1.23731 0
M  V30 1866 O 186.052 -2.01067 -1.8244 0
M  V30 1867 C 184.508 -3.59206 0.223473 0
M  V30 1868 C 184.116 -4.17823 1.61642 0
M  V30 1869 C 185.86 -4.23972 -0.211597 0
M  V30 1870 C 183.767 -5.68183 1.64081 0
M  V30 1871 H 182.697 -0.752093 0.0535891 0
M  V30 1872 H 185.348 -1.6482 0.806633 0
M  V30 1873 H 183.73 -3.92867 -0.497118 0
M  V30 1874 H 184.904 -3.95674 2.36176 0
M  V30 1875 H 183.219 -3.65399 1.99681 0
M  V30 1876 H 185.816 -5.34275 -0.213112 0
M  V30 1877 H 186.159 -3.97352 -1.24165 0
M  V30 1878 H 186.692 -3.95166 0.456988 0
M  V30 1879 H 183.431 -5.99559 2.64971 0
M  V30 1880 H 182.951 -5.9241 0.938611 0
M  V30 1881 H 184.63 -6.32085 1.3812 0
M  V30 1882 N 184.763 -0.387143 -1.52771 0
M  V30 1883 C 185.71 0.449048 -2.26389 0
M  V30 1884 C 186.68 1.05961 -1.27912 0
M  V30 1885 O 187.865 1.08804 -1.56737 0
M  V30 1886 C 185.005 1.57155 -3.0724 0
M  V30 1887 C 184.118 0.984066 -4.20643 0
M  V30 1888 C 183.253 2.07745 -4.88892 0
M  V30 1889 C 182.292 1.46574 -5.94292 0
M  V30 1890 N 181.429 2.49834 -6.56146 0
M  V30 1891 H 186.269 -0.185205 -2.97424 0
M  V30 1892 H 183.806 -0.103164 -1.46738 0
M  V30 1893 H 185.764 2.23309 -3.52405 0
M  V30 1894 H 184.394 2.17615 -2.38419 0
M  V30 1895 H 183.446 0.212193 -3.79808 0
M  V30 1896 H 184.758 0.497029 -4.96318 0
M  V30 1897 H 183.912 2.81673 -5.3735 0
M  V30 1898 H 182.651 2.59807 -4.12737 0
M  V30 1899 H 181.656 0.711696 -5.45174 0
M  V30 1900 H 182.881 0.953088 -6.72379 0
M  V30 1901 H 180.827 3.0107 -5.82832 0
M  V30 1902 H 180.744 2.05879 -7.27427 0
M  V30 1903 H 182.012 3.23399 -7.09249 0
M  V30 1904 N 186.241 1.57166 -0.116904 0
M  V30 1905 C 187.151 2.18745 0.847812 0
M  V30 1906 C 188.167 1.163 1.29423 0
M  V30 1907 O 189.343 1.48761 1.35765 0
M  V30 1908 C 186.408 2.77307 2.0809 0
M  V30 1909 C 185.469 3.94781 1.68661 0
M  V30 1910 C 184.702 4.50541 2.86091 0
M  V30 1911 O 184.925 4.05202 4.01456 0
M  V30 1912 O 183.859 5.41256 2.63298 0
M  V30 1913 H 187.685 3.01632 0.353778 0
M  V30 1914 H 185.27 1.49005 0.108599 0
M  V30 1915 H 187.152 3.14647 2.80313 0
M  V30 1916 H 185.827 1.97452 2.56504 0
M  V30 1917 H 184.734 3.62214 0.935518 0
M  V30 1918 H 186.067 4.76065 1.24991 0
M  V30 1919 N 187.719 -0.156864 1.56817 0
M  V30 1920 C 188.967 -0.869404 1.82444 0
M  V30 1921 C 189.288 -1.82147 0.69623 0
M  V30 1922 O 188.558 -1.93847 -0.28287 0
M  V30 1923 H 187.138 -0.324043 0.673056 0
M  V30 1924 H 189.8 -0.153224 1.94297 0
M  V30 1925 H 188.896 -1.43761 2.77019 0
M  V30 1926 N 189.197 -1.51736 -0.425897 0
M  V30 1927 C 190.474 -1.55519 -1.1863 0
M  V30 1928 C 190.854 -0.326219 -2.08564 0
M  V30 1929 O 190.202 0.688012 -2.17896 0
M  V30 1930 C 190.412 -2.87521 -1.9782 0
M  V30 1931 C 191.76 -3.39899 -2.54468 0
M  V30 1932 O 192.784 -2.89148 -2.08019 0
M  V30 1933 O 191.643 -4.2848 -3.39215 0
M  V30 1934 H 188.737 -0.625739 -0.540721 0
M  V30 1935 H 191.283 -1.64055 -0.434038 0
M  V30 1936 H 190.055 -3.68422 -1.31836 0
M  V30 1937 H 189.678 -2.822 -2.80088 0
M  V30 1938 N 190.675 0.682077 -1.42076 0
M  V30 1939 C 191.924 1.43786 -1.41451 0
M  V30 1940 C 192.237 1.95574 -0.0317074 0
M  V30 1941 O 193.443 2.71326 0.0971462 0
M  V30 1942 C 191.899 2.60071 -2.48779 0
M  V30 1943 C 191.507 2.15013 -3.93031 0
M  V30 1944 C 193.251 3.37626 -2.57311 0
M  V30 1945 C 191.158 3.28336 -4.91883 0
M  V30 1946 H 190.088 0.540143 -0.526082 0
M  V30 1947 H 192.739 0.739157 -1.67955 0
M  V30 1948 H 191.121 3.32275 -2.15429 0
M  V30 1949 H 192.295 1.5001 -4.35699 0
M  V30 1950 H 190.61 1.50416 -3.88284 0
M  V30 1951 H 193.207 4.22012 -3.28345 0
M  V30 1952 H 193.55 3.83727 -1.61429 0
M  V30 1953 H 194.083 2.72488 -2.89819 0
M  V30 1954 H 190.822 2.87234 -5.89217 0
M  V30 1955 H 190.342 3.92145 -4.53853 0
M  V30 1956 H 192.021 3.93913 -5.13265 0
M  V30 1957 N 192.153 1.28127 0.917671 0
M  V30 1958 C 193.399 1.15223 1.66888 0
M  V30 1959 C 193.732 -0.299293 1.9188 0
M  V30 1960 O 193.007 -1.21805 1.51637 0
M  V30 1961 C 193.29 1.94706 3.02922 0
M  V30 1962 C 193.143 3.47898 2.85109 0
M  V30 1963 C 194.462 1.75939 4.03402 0
M  V30 1964 H 191.581 0.419946 0.605652 0
M  V30 1965 H 194.223 1.57398 1.06423 0
M  V30 1966 H 192.373 1.58864 3.54534 0
M  V30 1967 H 194.045 3.93624 2.40537 0
M  V30 1968 H 192.288 3.7373 2.20246 0
M  V30 1969 H 192.959 3.98765 3.81694 0
M  V30 1970 H 195.435 2.07209 3.60837 0
M  V30 1971 H 194.311 2.33931 4.96556 0
M  V30 1972 H 194.572 0.709877 4.36364 0
M  V30 1973 N 193.631 -1.12557 1.10312 0
M  V30 1974 C 194.578 -2.18247 0.750781 0
M  V30 1975 C 195.548 -1.63853 -0.272293 0
M  V30 1976 O 196.733 -1.90195 -0.151862 0
M  V30 1977 C 193.873 -3.44591 0.187379 0
M  V30 1978 C 192.986 -4.13046 1.2656 0
M  V30 1979 C 192.121 -5.27034 0.663978 0
M  V30 1980 C 191.16 -5.87353 1.72287 0
M  V30 1981 N 190.297 -6.92757 1.1416 0
M  V30 1982 H 195.137 -2.47732 1.65628 0
M  V30 1983 H 192.674 -1.21629 0.827337 0
M  V30 1984 H 194.632 -4.16904 -0.157148 0
M  V30 1985 H 193.262 -3.15527 -0.681355 0
M  V30 1986 H 192.314 -3.38924 1.72727 0
M  V30 1987 H 193.626 -4.53947 2.06721 0
M  V30 1988 H 192.78 -6.06104 0.268824 0
M  V30 1989 H 191.519 -4.87407 -0.169082 0
M  V30 1990 H 190.524 -5.06971 2.12746 0
M  V30 1991 H 191.749 -6.29051 2.55875 0
M  V30 1992 H 189.695 -6.5517 0.329984 0
M  V30 1993 H 189.612 -7.3225 1.88007 0
M  V30 1994 H 190.88 -7.75658 0.772956 0
M  V30 1995 N 195.109 -0.891671 -1.2995 0
M  V30 1996 C 196.525 -0.58662 -1.48428 0
M  V30 1997 C 196.725 0.873951 -1.81561 0
M  V30 1998 O 195.781 1.65471 -1.90724 0
M  V30 1999 C 197.094 -1.50553 -2.60296 0
M  V30 2000 C 198.642 -1.50988 -2.74175 0
M  V30 2001 C 199.117 -2.41488 -3.89163 0
M  V30 2002 N 200.608 -2.39489 -3.96483 0
M  V30 2003 C 201.343 -3.06223 -4.84784 0
M  V30 2004 N 200.839 -3.82206 -5.77833 0
M  V30 2005 N 202.632 -2.95421 -4.78208 0
M  V30 2006 H 194.783 -1.83644 -1.06718 0
M  V30 2007 H 197.046 -0.786455 -0.529332 0
M  V30 2008 H 196.752 -2.54581 -2.42654 0
M  V30 2009 H 196.626 -1.22008 -3.56923 0
M  V30 2010 H 199.013 -0.47708 -2.91218 0
M  V30 2011 H 199.094 -1.83567 -1.78148 0
M  V30 2012 H 198.738 -3.44857 -3.72876 0
M  V30 2013 H 198.668 -2.06222 -4.84541 0
M  V30 2014 H 201.159 -1.84278 -3.29924 0
M  V30 2015 H 201.472 -4.302 -6.41988 0
M  V30 2016 H 199.817 -3.86313 -5.77743 0
M  V30 2017 H 203.008 -2.35581 -4.04499 0
M  V30 2018 H 203.181 -3.47704 -5.46814 0
M  V30 2019 N 196.587 1.43421 -0.653314 0
M  V30 2020 C 197.815 2.06163 -0.174491 0
M  V30 2021 C 198.23 1.48969 1.1599 0
M  V30 2022 O 197.587 0.621042 1.71608 0
M  V30 2023 C 197.638 3.61417 -0.0774865 0
M  V30 2024 O 197.359 4.16485 -1.35912 0
M  V30 2025 C 198.86 4.41235 0.427402 0
M  V30 2026 H 196.08 0.664946 -0.0899353 0
M  V30 2027 H 198.624 1.83924 -0.893988 0
M  V30 2028 H 196.779 3.82841 0.59257 0
M  V30 2029 H 197.193 5.10153 -1.21839 0
M  V30 2030 H 198.667 5.5021 0.44423 0
M  V30 2031 H 199.144 4.14268 1.45873 0
M  V30 2032 H 199.75 4.2478 -0.210167 0
M  V30 2033 N 198.065 0.39524 1.52563 0
M  V30 2034 C 199.313 -0.184678 2.01254 0
M  V30 2035 C 199.634 -1.46822 1.28329 0
M  V30 2036 O 198.904 -1.91666 0.405094 0
M  V30 2037 H 197.484 -0.0712355 0.743596 0
M  V30 2038 H 200.146 0.528293 1.87603 0
M  V30 2039 H 199.242 -0.390681 3.09645 0
M  V30 2040 N 199.544 -1.57102 0.125237 0
M  V30 2041 C 200.507 -2.14471 -0.80838 0
M  V30 2042 C 201.507 -1.0811 -1.19033 0
M  V30 2043 O 202.697 -1.33856 -1.11482 0
M  V30 2044 C 199.829 -2.69005 -2.09402 0
M  V30 2045 H 201.022 -2.98297 -0.309696 0
M  V30 2046 H 198.575 -1.55807 -0.124051 0
M  V30 2047 H 199.31 -1.88785 -2.63687 0
M  V30 2048 H 199.095 -3.46799 -1.82957 0
M  V30 2049 H 200.585 -3.13278 -2.76128 0
M  V30 2050 N 201.022 0.148545 -1.56898 0
M  V30 2051 C 202.271 0.85984 -1.82454 0
M  V30 2052 C 202.584 1.82406 -0.706229 0
M  V30 2053 O 203.79 2.57938 -0.847349 0
M  V30 2054 C 202.246 1.57967 -3.2338 0
M  V30 2055 C 201.854 0.65794 -4.43142 0
M  V30 2056 C 203.598 2.27784 -3.58211 0
M  V30 2057 C 201.505 1.3793 -5.75091 0
M  V30 2058 H 200.435 0.324834 -0.68044 0
M  V30 2059 H 203.086 0.112588 -1.83154 0
M  V30 2060 H 201.468 2.37249 -3.17063 0
M  V30 2061 H 202.642 -0.0995497 -4.60692 0
M  V30 2062 H 200.957 0.0682643 -4.16344 0
M  V30 2063 H 203.554 2.8239 -4.54048 0
M  V30 2064 H 203.897 3.04204 -2.84193 0
M  V30 2065 H 204.43 1.55421 -3.66182 0
M  V30 2066 H 201.169 0.656982 -6.52199 0
M  V30 2067 H 200.689 2.10954 -5.61479 0
M  V30 2068 H 202.368 1.92063 -6.17835 0
M  V30 2069 N 202.5 1.5196 0.417844 0
M  V30 2070 C 203.746 1.65836 1.16732 0
M  V30 2071 C 204.079 0.382881 1.90388 0
M  V30 2072 O 203.354 -0.618368 1.84408 0
M  V30 2073 C 203.637 2.87466 2.16876 0
M  V30 2074 C 203.49 4.25041 1.47174 0
M  V30 2075 C 204.809 3.04613 3.17646 0
M  V30 2076 H 201.928 0.603515 0.423011 0
M  V30 2077 H 204.57 1.84494 0.454105 0
M  V30 2078 H 202.72 2.71689 2.777 0
M  V30 2079 H 204.392 4.52527 0.895376 0
M  V30 2080 H 202.635 4.26843 0.773806 0
M  V30 2081 H 203.306 5.06176 2.20204 0
M  V30 2082 H 205.782 3.1923 2.66892 0
M  V30 2083 H 204.658 3.91247 3.8499 0
M  V30 2084 H 204.919 2.17541 3.84874 0
M  V30 2085 N 203.978 -0.674533 1.42435 0
M  V30 2086 C 205.255 -1.4305 1.33402 0
M  V30 2087 C 205.635 -2.11081 -0.0284674 0
M  V30 2088 O 204.983 -2.03257 -1.04397 0
M  V30 2089 C 205.193 -2.43272 2.50239 0
M  V30 2090 C 206.541 -3.07907 2.92367 0
M  V30 2091 O 207.565 -2.53599 2.50132 0
M  V30 2092 O 206.424 -4.0632 3.65467 0
M  V30 2093 H 203.518 -0.638076 0.526106 0
M  V30 2094 H 206.064 -0.703235 1.54443 0
M  V30 2095 H 204.836 -1.91803 3.41068 0
M  V30 2096 H 204.459 -3.23479 2.31186 0
M  V30 2097 N 205.456 -1.28612 -0.910864 0
M  V30 2098 C 206.702 -1.16106 -1.66274 0
M  V30 2099 C 207.035 0.289113 -1.92036 0
M  V30 2100 O 206.31 1.21 -1.52281 0
M  V30 2101 C 206.593 -1.96309 -3.01885 0
M  V30 2102 C 206.446 -3.49405 -2.8326 0
M  V30 2103 C 207.765 -1.78076 -4.02463 0
M  V30 2104 H 204.884 -0.423152 -0.603417 0
M  V30 2105 H 207.526 -1.57961 -1.05586 0
M  V30 2106 H 205.676 -1.60742 -3.53687 0
M  V30 2107 H 207.348 -3.94894 -2.38446 0
M  V30 2108 H 205.591 -3.74893 -2.18261 0
M  V30 2109 H 206.262 -4.00784 -3.79574 0
M  V30 2110 H 208.738 -2.0912 -3.59733 0
M  V30 2111 H 207.614 -2.36561 -4.95308 0
M  V30 2112 H 207.875 -0.733008 -4.35981 0
M  V30 2113 N 206.934 1.1197 -1.10907 0
M  V30 2114 C 208.345 1.65114 -0.871446 0
M  V30 2115 C 208.696 1.86885 0.597353 0
M  V30 2116 O 207.821 1.59896 1.45816 0
M  V30 2117 C 208.416 2.99944 -1.5754 0
M  V30 2118 C 206.975 3.50018 -1.38435 0
M  V30 2119 C 206.122 2.24941 -1.62164 0
M  V30 2120 H 209.073 0.956851 -1.2661 0
M  V30 2121 H 209.094 3.66651 -1.01721 0
M  V30 2122 H 208.606 2.84067 -2.64438 0
M  V30 2123 H 206.707 3.71071 -0.337214 0
M  V30 2124 H 206.82 4.29165 -2.12965 0
M  V30 2125 H 205.184 2.3229 -1.04467 0
M  V30 2126 H 205.967 2.11612 -2.70324 0
M  V30 2127 N 208.412 0.89855 1.29475 0
M  V30 2128 C 209.658 0.524658 1.95896 0
M  V30 2129 C 209.991 -0.926468 1.70676 0
M  V30 2130 O 209.266 -1.65665 1.01908 0
M  V30 2131 C 209.549 0.81633 3.50725 0
M  V30 2132 C 209.402 2.31907 3.85408 0
M  V30 2133 C 210.721 0.302038 4.39062 0
M  V30 2134 H 207.84 0.19209 0.711527 0
M  V30 2135 H 210.482 1.12502 1.53112 0
M  V30 2136 H 208.632 0.305369 3.87298 0
M  V30 2137 H 210.304 2.89949 3.58786 0
M  V30 2138 H 208.547 2.78027 3.32992 0
M  V30 2139 H 209.218 2.47373 4.93468 0
M  V30 2140 H 211.694 0.739551 4.09475 0
M  V30 2141 H 210.57 0.535331 5.46283 0
M  V30 2142 H 210.831 -0.797216 4.34853 0
M  V30 2143 N 209.89 -1.43072 0.660911 0
M  V30 2144 C 211.138 -2.01323 0.177094 0
M  V30 2145 C 211.459 -1.5245 -1.2159 0
M  V30 2146 O 210.729 -0.740322 -1.81373 0
M  V30 2147 H 209.309 -0.744382 0.0624804 0
M  V30 2148 H 211.971 -1.75179 0.854305 0
M  V30 2149 H 211.067 -3.11649 0.167641 0
M  V30 2150 N 211.368 -0.403325 -1.52352 0
M  V30 2151 C 212.278 0.432009 -2.30588 0
M  V30 2152 C 213.294 1.05884 -1.38075 0
M  V30 2153 O 214.47 1.06161 -1.71148 0
M  V30 2154 C 211.535 1.53669 -3.10784 0
M  V30 2155 C 210.596 0.933525 -4.19027 0
M  V30 2156 C 209.829 1.98557 -4.9539 0
M  V30 2157 O 210.052 3.20283 -4.71991 0
M  V30 2158 O 208.986 1.59504 -5.80381 0
M  V30 2159 H 212.812 -0.205739 -3.03002 0
M  V30 2160 H 210.397 -0.166675 -1.48467 0
M  V30 2161 H 212.279 2.17814 -3.60742 0
M  V30 2162 H 210.954 2.15915 -2.41169 0
M  V30 2163 H 209.861 0.254954 -3.7323 0
M  V30 2164 H 211.194 0.35508 -4.90918 0
M  V30 2165 N 212.846 1.57033 -0.133567 0
M  V30 2166 C 213.756 2.19632 0.824564 0
M  V30 2167 C 214.772 1.17666 1.28182 0
M  V30 2168 O 215.948 1.50193 1.3418 0
M  V30 2169 C 213.013 2.79499 2.05137 0
M  V30 2170 C 212.074 3.96548 1.64464 0
M  V30 2171 C 211.307 4.5355 2.81297 0
M  V30 2172 O 211.53 4.09438 3.97136 0
M  V30 2173 O 210.464 5.44018 2.57542 0
M  V30 2174 H 214.29 3.01991 0.321766 0
M  V30 2175 H 211.875 1.49112 0.0927889 0
M  V30 2176 H 213.757 3.17602 2.7696 0
M  V30 2177 H 212.432 2.00162 2.54395 0
M  V30 2178 H 211.339 3.63186 0.897048 0
M  V30 2179 H 212.672 4.77364 1.19934 0
M  V30 2180 N 214.325 -0.140222 1.56975 0
M  V30 2181 C 215.255 -1.17456 2.01808 0
M  V30 2182 C 216.236 -1.44415 0.898794 0
M  V30 2183 O 217.421 -1.5522 1.16707 0
M  V30 2184 C 214.551 -2.50607 2.40444 0
M  V30 2185 C 213.505 -2.38155 3.55621 0
M  V30 2186 C 212.831 -3.76078 3.80091 0
M  V30 2187 C 214.131 -1.85991 4.88062 0
M  V30 2188 H 215.825 -0.801743 2.88466 0
M  V30 2189 H 213.371 -0.38422 1.38779 0
M  V30 2190 H 215.324 -3.23197 2.7041 0
M  V30 2191 H 214.048 -2.89737 1.50732 0
M  V30 2192 H 212.707 -1.68016 3.25832 0
M  V30 2193 H 212.355 -4.12656 2.87618 0
M  V30 2194 H 212.055 -3.68606 4.57606 0
M  V30 2195 H 213.579 -4.50206 4.12488 0
M  V30 2196 H 214.993 -2.4838 5.16701 0
M  V30 2197 H 213.39 -1.89393 5.6943 0
M  V30 2198 H 214.46 -0.816023 4.77984 0
M  V30 2199 N 215.803 -1.52179 -0.40978 0
M  V30 2200 C 216.733 -1.78435 -1.5061 0
M  V30 2201 C 217.714 -0.635295 -1.57791 0
M  V30 2202 O 218.899 -0.880823 -1.73076 0
M  V30 2203 C 216.029 -1.93444 -2.88439 0
M  V30 2204 C 214.983 -3.09038 -2.96108 0
M  V30 2205 C 214.309 -3.09268 -4.36185 0
M  V30 2206 C 215.609 -4.48508 -2.67652 0
M  V30 2207 H 217.303 -2.70237 -1.28889 0
M  V30 2208 H 214.849 -1.30036 -0.618605 0
M  V30 2209 H 216.802 -2.10394 -3.65119 0
M  V30 2210 H 215.526 -0.983129 -3.11452 0
M  V30 2211 H 214.185 -2.91837 -2.21872 0
M  V30 2212 H 213.833 -2.11861 -4.56206 0
M  V30 2213 H 213.533 -3.86907 -4.42241 0
M  V30 2214 H 215.057 -3.28348 -5.14801 0
M  V30 2215 H 216.471 -4.65918 -3.34056 0
M  V30 2216 H 214.868 -5.28059 -2.85085 0
M  V30 2217 H 215.938 -4.56649 -1.63095 0
M  V30 2218 N 217.281 0.66697 -1.42791 0
M  V30 2219 C 218.529 1.42417 -1.43394 0
M  V30 2220 C 218.85 1.94925 -0.0542373 0
M  V30 2221 O 218.12 1.73564 0.908415 0
M  V30 2222 H 216.7 0.528515 -0.527902 0
M  V30 2223 H 219.362 0.787562 -1.78279 0
M  V30 2224 H 218.458 2.27333 -2.13837 0
M  V30 2225 N 218.759 1.29093 0.90403 0
M  V30 2226 C 220.175 1.07011 1.1841 0
M  V30 2227 C 220.375 -0.181358 2.00682 0
M  V30 2228 O 219.431 -0.880331 2.36657 0
M  V30 2229 C 220.744 2.32311 1.90924 0
M  V30 2230 C 222.292 2.37587 2.03768 0
M  V30 2231 C 222.767 3.62679 2.79693 0
M  V30 2232 N 224.258 3.63376 2.87249 0
M  V30 2233 C 224.993 4.56848 3.46522 0
M  V30 2234 N 224.489 5.60648 4.06996 0
M  V30 2235 N 226.282 4.44426 3.44154 0
M  V30 2236 H 218.433 2.09412 0.354993 0
M  V30 2237 H 220.696 0.922181 0.219742 0
M  V30 2238 H 220.402 3.23536 1.37905 0
M  V30 2239 H 220.276 2.39483 2.91424 0
M  V30 2240 H 222.663 1.46853 2.55965 0
M  V30 2241 H 222.744 2.34403 1.02415 0
M  V30 2242 H 222.388 4.53762 2.28173 0
M  V30 2243 H 222.318 3.63119 3.81381 0
M  V30 2244 H 224.809 2.88321 2.44293 0
M  V30 2245 H 225.122 6.28101 4.50232 0
M  V30 2246 H 223.467 5.64463 4.05471 0
M  V30 2247 H 226.658 3.62529 2.96126 0
M  V30 2248 H 226.831 5.17457 3.90054 0
M  V30 2249 N 220.237 -1.11381 1.11499 0
M  V30 2250 C 221.483 -1.83403 0.865512 0
M  V30 2251 C 221.816 -1.84459 -0.607329 0
M  V30 2252 O 221.091 -1.29811 -1.44842 0
M  V30 2253 C 221.374 -3.30552 1.42855 0
M  V30 2254 C 221.227 -3.37886 2.96906 0
M  V30 2255 C 222.546 -4.26643 1.08 0
M  V30 2256 H 219.665 -0.665879 0.31587 0
M  V30 2257 H 222.307 -1.30601 1.37998 0
M  V30 2258 H 220.457 -3.75648 0.990985 0
M  V30 2259 H 222.129 -3.01343 3.49271 0
M  V30 2260 H 220.372 -2.78088 3.32941 0
M  V30 2261 H 221.043 -4.41458 3.31389 0
M  V30 2262 H 223.519 -3.89729 1.45775 0
M  V30 2263 H 222.395 -5.27986 1.50072 0
M  V30 2264 H 222.656 -4.42099 -0.00915037 0
M  V30 2265 N 221.715 -0.905404 -1.28997 0
M  V30 2266 C 222.961 -0.535039 -1.95615 0
M  V30 2267 C 223.294 0.917404 -1.71165 0
M  V30 2268 O 222.569 1.65123 -1.02785 0
M  V30 2269 C 222.852 -0.834918 -3.50287 0
M  V30 2270 C 222.705 -2.33948 -3.84172 0
M  V30 2271 C 224.024 -0.325318 -4.38896 0
M  V30 2272 H 221.143 -0.195861 -0.710498 0
M  V30 2273 H 223.785 -1.13313 -1.52513 0
M  V30 2274 H 221.935 -0.325904 -3.87131 0
M  V30 2275 H 223.607 -2.91847 -3.57243 0
M  V30 2276 H 221.85 -2.79789 -3.31513 0
M  V30 2277 H 222.521 -2.49987 -4.92149 0
M  V30 2278 H 224.997 -0.761256 -4.09077 0
M  V30 2279 H 223.873 -0.564295 -5.45992 0
M  V30 2280 H 224.134 0.774144 -4.35269 0
M  V30 2281 N 223.193 1.4272 -0.668489 0
M  V30 2282 C 224.47 1.95248 -0.117373 0
M  V30 2283 C 224.85 1.60919 1.36632 0
M  V30 2284 O 224.198 0.902095 2.09939 0
M  V30 2285 C 224.408 3.46927 -0.379806 0
M  V30 2286 C 225.756 4.23588 -0.292923 0
M  V30 2287 O 226.78 3.5482 -0.313204 0
M  V30 2288 O 225.639 5.46017 -0.229697 0
M  V30 2289 H 222.733 0.827 0.00079152 0
M  V30 2290 H 225.279 1.52581 -0.742783 0
M  V30 2291 H 224.051 3.65096 -1.40786 0
M  V30 2292 H 223.674 3.96627 0.277923 0
M  V30 2293 N 224.671 0.411399 1.52136 0
M  V30 2294 C 225.634 -0.401089 2.25663 0
M  V30 2295 C 226.634 -0.971732 1.28117 0
M  V30 2296 O 227.824 -0.850254 1.52041 0
M  V30 2297 C 224.956 -1.56483 3.02863 0
M  V30 2298 H 226.149 0.24295 2.98914 0
M  V30 2299 H 223.702 0.163968 1.55438 0
M  V30 2300 H 224.437 -2.24567 2.33967 0
M  V30 2301 H 224.222 -1.16211 3.74483 0
M  V30 2302 H 225.712 -2.13951 3.58629 0
M  V30 2303 N 226.149 -1.5696 0.141893 0
M  V30 2304 C 227.079 -2.19516 -0.795936 0
M  V30 2305 C 228.06 -1.14187 -1.26077 0
M  V30 2306 O 229.245 -1.42511 -1.31925 0
M  V30 2307 C 226.375 -2.81272 -2.03723 0
M  V30 2308 C 225.329 -3.92384 -1.70936 0
M  V30 2309 C 224.655 -4.41052 -3.02287 0
M  V30 2310 C 225.955 -5.13403 -0.959954 0
M  V30 2311 H 227.649 -2.98138 -0.274596 0
M  V30 2312 H 225.195 -1.43406 -0.130636 0
M  V30 2313 H 227.148 -3.237 -2.69808 0
M  V30 2314 H 225.872 -1.99973 -2.58221 0
M  V30 2315 H 224.531 -3.50566 -1.07232 0
M  V30 2316 H 224.179 -3.56582 -3.54765 0
M  V30 2317 H 223.879 -5.15993 -2.81114 0
M  V30 2318 H 225.403 -4.86146 -3.69451 0
M  V30 2319 H 226.817 -5.52706 -1.52279 0
M  V30 2320 H 225.214 -5.94073 -0.848357 0
M  V30 2321 H 226.284 -4.84875 0.0492434 0
M  V30 2322 N 227.627 0.131896 -1.57047 0
M  V30 2323 C 228.875 0.840269 -1.83804 0
M  V30 2324 C 229.196 1.81017 -0.72512 0
M  V30 2325 O 228.466 1.94272 0.251995 0
M  V30 2326 H 227.046 0.313294 -0.678127 0
M  V30 2327 H 229.708 0.122294 -1.94516 0
M  V30 2328 H 228.804 1.39335 -2.79271 0
M  V30 2329 N 229.106 1.52395 0.401703 0
M  V30 2330 C 230.054 1.7689 1.51039 0
M  V30 2331 C 231.048 0.636298 1.56996 0
M  V30 2332 O 232.254 0.818507 1.60314 0
M  V30 2333 H 228.629 0.559502 0.502456 0
M  V30 2334 H 230.6 2.69757 1.27568 0
M  V30 2335 C 229.349 1.94331 2.88324 0
M  V30 2336 H 228.672 2.80905 2.84486 0
M  V30 2337 H 230.112 2.15466 3.65172 0
M  V30 2338 C 228.571 0.712396 3.29282 0
M  V30 2339 O 229.101 -0.116218 4.01532 0
M  V30 2340 N 227.307 0.546154 2.85422 0
M  V30 2341 H 226.854 1.22156 2.26794 0
M  V30 2342 H 226.812 -0.276113 3.13185 0
M  V30 2343 N 230.584 -0.659388 1.43143 0
M  V30 2344 C 231.547 -1.75432 1.47501 0
M  V30 2345 C 232.547 -1.56707 0.360512 0
M  V30 2346 O 233.737 -1.62717 0.622002 0
M  V30 2347 C 230.869 -3.14239 1.32162 0
M  V30 2348 H 232.062 -1.7295 2.45006 0
M  V30 2349 H 229.615 -0.870469 1.29817 0
M  V30 2350 H 230.35 -3.22336 0.356401 0
M  V30 2351 H 230.135 -3.29235 2.12948 0
M  V30 2352 H 231.625 -3.94094 1.3813 0
M  V30 2353 N 232.062 -1.29571 -0.897171 0
M  V30 2354 C 233.311 -1.1706 -1.64256 0
M  V30 2355 C 233.624 0.276476 -1.93636 0
M  V30 2356 O 234.83 0.52294 -2.66416 0
M  V30 2357 C 233.286 -2.0475 -2.95982 0
M  V30 2358 C 232.894 -3.54295 -2.74187 0
M  V30 2359 C 234.638 -2.0097 -3.73914 0
M  V30 2360 C 232.545 -4.34081 -4.01656 0
M  V30 2361 H 231.475 -0.43452 -0.616205 0
M  V30 2362 H 234.126 -1.54229 -0.994268 0
M  V30 2363 H 232.508 -1.60452 -3.62038 0
M  V30 2364 H 233.682 -4.06662 -2.1671 0
M  V30 2365 H 231.997 -3.59773 -2.09648 0
M  V30 2366 H 234.594 -2.57838 -4.68427 0
M  V30 2367 H 234.937 -0.990273 -4.0435 0
M  V30 2368 H 235.47 -2.43325 -3.14703 0
M  V30 2369 H 232.209 -5.36671 -3.76384 0
M  V30 2370 H 231.729 -3.86483 -4.58684 0
M  V30 2371 H 233.408 -4.44877 -4.69781 0
M  V30 2372 N 233.54 1.10788 -1.12088 0
M  V30 2373 C 234.817 1.79136 -0.785476 0
M  V30 2374 C 235.197 1.98246 0.725377 0
M  V30 2375 O 234.545 1.57258 1.65778 0
M  V30 2376 C 234.755 3.12375 -1.55636 0
M  V30 2377 C 236.103 3.8731 -1.74001 0
M  V30 2378 O 237.127 3.22085 -1.52117 0
M  V30 2379 O 235.986 5.04369 -2.10415 0
M  V30 2380 H 233.08 0.776226 -0.285311 0
M  V30 2381 H 235.626 1.1747 -1.2247 0
M  V30 2382 H 234.398 2.93863 -2.5838 0
M  V30 2383 H 234.021 3.81758 -1.11114 0
M  V30 2384 N 235.018 0.912232 1.28515 0
M  V30 2385 C 236.266 0.543523 1.94654 0
M  V30 2386 C 236.587 -0.9155 1.72173 0
M  V30 2387 O 235.857 -1.64708 1.06058 0
M  V30 2388 H 234.437 0.198017 0.720277 0
M  V30 2389 H 237.099 1.16126 1.56527 0
M  V30 2390 H 236.195 0.736684 3.03281 0
M  V30 2391 N 236.496 -1.42363 0.676048 0
M  V30 2392 C 237.443 -2.308 -0.00150904 0
M  V30 2393 C 238.413 -1.46032 -0.791444 0
M  V30 2394 O 239.598 -1.74861 -0.76344 0
M  V30 2395 C 236.738 -3.31883 -0.945919 0
M  V30 2396 C 235.851 -4.31741 -0.149675 0
M  V30 2397 C 234.986 -5.19898 -1.08995 0
M  V30 2398 C 234.025 -6.11434 -0.285465 0
M  V30 2399 N 233.162 -6.92138 -1.17851 0
M  V30 2400 H 238.002 -2.88187 0.758455 0
M  V30 2401 H 235.539 -1.41952 0.38576 0
M  V30 2402 H 237.497 -3.89019 -1.50731 0
M  V30 2403 H 236.127 -2.76093 -1.6725 0
M  V30 2404 H 235.179 -3.76713 0.528359 0
M  V30 2405 H 236.491 -4.96534 0.474866 0
M  V30 2406 H 235.645 -5.81772 -1.72123 0
M  V30 2407 H 234.384 -4.55284 -1.74837 0
M  V30 2408 H 233.389 -5.48627 0.359018 0
M  V30 2409 H 234.614 -6.78097 0.368883 0
M  V30 2410 H 232.56 -6.30152 -1.82332 0
M  V30 2411 H 232.477 -7.53542 -0.609082 0
M  V30 2412 H 233.745 -7.58499 -1.79722 0
M  V30 2413 N 237.974 -0.419461 -1.51915 0
M  V30 2414 C 239.222 0.152637 -2.01523 0
M  V30 2415 C 239.543 1.44762 -1.30649 0
M  V30 2416 O 238.813 1.90997 -0.435535 0
M  V30 2417 H 237.393 0.0593966 -0.744635 0
M  V30 2418 H 240.055 -0.558073 -1.86739 0
M  V30 2419 H 239.151 0.341369 -3.10227 0
M  V30 2420 N 239.452 1.56882 -0.150215 0
M  V30 2421 C 240.863 1.82995 0.370076 0
M  V30 2422 C 241.214 1.06907 1.64515 0
M  V30 2423 O 240.339 0.315369 2.1409 0
M  V30 2424 C 240.934 3.31942 0.678208 0
M  V30 2425 C 239.493 3.58625 1.14301 0
M  V30 2426 C 238.64 2.76792 0.167778 0
M  V30 2427 H 241.591 1.54209 -0.374858 0
M  V30 2428 H 241.612 3.48272 1.53254 0
M  V30 2429 H 241.124 3.87294 -0.249991 0
M  V30 2430 H 239.225 3.08664 2.08704 0
M  V30 2431 H 239.338 4.67073 1.06676 0
M  V30 2432 H 237.702 2.45972 0.661037 0
M  V30 2433 H 238.485 3.34916 -0.754069 0
M  V30 2434 N 240.93 -0.123565 1.57115 0
M  V30 2435 C 242.179 -0.830704 1.83799 0
M  V30 2436 C 242.492 -1.81259 0.735158 0
M  V30 2437 O 243.698 -2.56558 0.888278 0
M  V30 2438 C 242.154 -1.52802 3.25852 0
M  V30 2439 C 241.762 -0.587356 4.44133 0
M  V30 2440 C 243.506 -2.22056 3.61789 0
M  V30 2441 C 241.413 -1.28764 5.77212 0
M  V30 2442 H 240.343 -0.313967 0.685522 0
M  V30 2443 H 242.994 -0.0834359 1.8331 0
M  V30 2444 H 241.376 -2.32175 3.20797 0
M  V30 2445 H 242.55 0.172829 4.60476 0
M  V30 2446 H 240.865 -0.00201892 4.164 0
M  V30 2447 H 243.462 -2.75131 4.58483 0
M  V30 2448 H 243.805 -2.99644 2.88997 0
M  V30 2449 H 244.338 -1.49576 3.68608 0
M  V30 2450 H 241.077 -0.55314 6.53162 0
M  V30 2451 H 240.597 -2.01995 5.64764 0
M  V30 2452 H 242.276 -1.8221 6.20813 0
M  V30 2453 N 242.408 -1.52605 -0.393616 0
M  V30 2454 C 243.656 -1.67093 -1.13685 0
M  V30 2455 C 243.977 -0.411011 -1.90619 0
M  V30 2456 O 243.247 0.574491 -1.87287 0
M  V30 2457 H 241.827 -0.615923 -0.422668 0
M  V30 2458 H 244.489 -1.89704 -0.447039 0
M  V30 2459 H 243.585 -2.51922 -1.84232 0
M  V30 2460 N 243.887 0.651787 -1.4349 0
M  V30 2461 C 245.112 1.44434 -1.48841 0
M  V30 2462 C 245.537 1.8779 -0.107955 0
M  V30 2463 O 244.895 1.57464 0.898602 0
M  V30 2464 C 244.943 2.65458 -2.44059 0
M  V30 2465 O 244.047 3.64566 -1.92784 0
M  V30 2466 H 243.388 0.433005 -0.503391 0
M  V30 2467 H 245.918 0.797451 -1.88419 0
M  V30 2468 H 245.928 3.13255 -2.6141 0
M  V30 2469 H 244.603 2.33244 -3.4434 0
M  V30 2470 H 243.18 3.23716 -1.851 0
M  V30 2471 N 245.365 1.30045 0.890287 0
M  V30 2472 C 246.312 1.15976 1.99545 0
M  V30 2473 C 247.282 0.0506202 1.66023 0
M  V30 2474 O 248.467 0.219847 1.89529 0
M  V30 2475 C 245.607 0.852054 3.34416 0
M  V30 2476 C 244.72 2.04255 3.80662 0
M  V30 2477 C 243.855 1.6734 5.04154 0
M  V30 2478 C 242.894 2.82916 5.42794 0
M  V30 2479 N 242.031 2.46333 6.57468 0
M  V30 2480 H 246.871 2.10524 2.10911 0
M  V30 2481 H 244.408 1.04749 1.03276 0
M  V30 2482 H 246.366 0.654296 4.12037 0
M  V30 2483 H 244.996 -0.0565502 3.2275 0
M  V30 2484 H 244.048 2.35172 2.98995 0
M  V30 2485 H 245.36 2.90826 4.05242 0
M  V30 2486 H 244.514 1.43908 5.89386 0
M  V30 2487 H 243.253 0.779308 4.81433 0
M  V30 2488 H 242.258 3.0702 4.56091 0
M  V30 2489 H 243.483 3.73004 5.6749 0
M  V30 2490 H 241.429 1.59423 6.36334 0
M  V30 2491 H 241.346 3.26436 6.81891 0
M  V30 2492 H 242.614 2.26244 7.45945 0
M  V30 2493 N 246.843 -1.10192 1.12674 0
M  V30 2494 C 248.071 -1.85983 0.906527 0
M  V30 2495 C 248.486 -1.80783 -0.544333 0
M  V30 2496 O 247.843 -1.19834 -1.37645 0
M  V30 2497 C 247.894 -3.34281 1.37618 0
M  V30 2498 O 247.615 -3.39401 2.77017 0
M  V30 2499 C 249.116 -4.26938 1.19325 0
M  V30 2500 H 246.336 -0.587716 0.323775 0
M  V30 2501 H 248.88 -1.39284 1.49734 0
M  V30 2502 H 247.035 -3.78436 0.828539 0
M  V30 2503 H 247.449 -4.31838 2.97684 0
M  V30 2504 H 248.923 -5.29181 1.57071 0
M  V30 2505 H 249.4 -4.38995 0.134097 0
M  V30 2506 H 250.006 -3.8859 1.72852 0
M  V30 2507 N 248.321 -0.919034 -1.28029 0
M  V30 2508 C 249.737 -0.617972 -1.4715 0
M  V30 2509 C 249.937 0.835242 -1.83374 0
M  V30 2510 O 248.993 1.61388 -1.94191 0
M  V30 2511 C 250.306 -1.56041 -2.57044 0
M  V30 2512 C 251.854 -1.56769 -2.7091 0
M  V30 2513 C 252.329 -2.49688 -3.83953 0
M  V30 2514 N 253.82 -2.47845 -3.91314 0
M  V30 2515 C 254.555 -3.16437 -4.78179 0
M  V30 2516 N 254.051 -3.94376 -5.69596 0
M  V30 2517 N 255.844 -3.05498 -4.71834 0
M  V30 2518 H 247.995 -1.85866 -1.02798 0
M  V30 2519 H 250.258 -0.797506 -0.512531 0
M  V30 2520 H 249.964 -2.59671 -2.372 0
M  V30 2521 H 249.838 -1.29551 -3.54255 0
M  V30 2522 H 252.225 -0.538745 -2.90141 0
M  V30 2523 H 252.306 -1.87305 -1.74214 0
M  V30 2524 H 251.95 -3.52688 -3.65477 0
M  V30 2525 H 251.88 -2.16453 -4.80058 0
M  V30 2526 H 254.371 -1.91234 -3.25941 0
M  V30 2527 H 254.684 -4.43721 -6.32718 0
M  V30 2528 H 253.029 -3.98481 -5.69419 0
M  V30 2529 H 256.22 -2.44108 -3.99411 0
M  V30 2530 H 256.393 -3.59225 -5.39316 0
M  V30 2531 N 249.799 1.42003 -0.683588 0
M  V30 2532 C 251.215 1.55625 -0.353976 0
M  V30 2533 C 251.415 1.66151 1.14 0
M  V30 2534 O 250.471 1.63329 1.92561 0
M  V30 2535 C 251.784 2.80171 -1.092 0
M  V30 2536 C 253.332 2.93954 -1.07518 0
M  V30 2537 C 253.807 4.21372 -1.79471 0
M  V30 2538 N 255.298 4.28303 -1.76381 0
M  V30 2539 C 256.033 5.25729 -2.28904 0
M  V30 2540 N 255.529 6.29254 -2.89846 0
M  V30 2541 N 257.322 5.17586 -2.19228 0
M  V30 2542 H 249.473 1.33415 -1.6527 0
M  V30 2543 H 251.736 0.64282 -0.696769 0
M  V30 2544 H 251.442 2.78561 -2.14701 0
M  V30 2545 H 251.316 3.7133 -0.662862 0
M  V30 2546 H 253.703 2.95086 -0.028475 0
M  V30 2547 H 253.784 2.04002 -1.54328 0
M  V30 2548 H 253.428 4.21001 -2.84114 0
M  V30 2549 H 253.358 5.10275 -1.30104 0
M  V30 2550 H 255.849 3.54119 -1.31939 0
M  V30 2551 H 256.162 6.99964 -3.27522 0
M  V30 2552 H 254.507 6.29791 -2.93919 0
M  V30 2553 H 257.698 4.35631 -1.71299 0
M  V30 2554 H 257.871 5.93348 -2.60466 0
M  V30 2555 N 251.277 0.427512 1.51691 0
M  V30 2556 C 252.693 0.0792977 1.59403 0
M  V30 2557 C 252.893 -1.41035 1.43914 0
M  V30 2558 O 251.949 -2.17922 1.27539 0
M  V30 2559 C 253.262 0.590636 2.94842 0
M  V30 2560 C 254.81 0.550215 3.08126 0
M  V30 2561 C 255.285 1.03836 4.46074 0
M  V30 2562 N 256.776 0.995943 4.52366 0
M  V30 2563 C 257.511 1.34463 5.57411 0
M  V30 2564 N 257.007 1.76569 6.69922 0
M  V30 2565 N 258.8 1.26343 5.47717 0
M  V30 2566 H 250.951 1.39687 1.60004 0
M  V30 2567 H 253.214 0.575003 0.753708 0
M  V30 2568 H 252.92 1.63251 3.11516 0
M  V30 2569 H 252.794 0.0102061 3.77199 0
M  V30 2570 H 255.181 -0.482654 2.91126 0
M  V30 2571 H 255.262 1.16693 2.27632 0
M  V30 2572 H 254.906 2.06965 4.63819 0
M  V30 2573 H 254.836 0.398286 5.25092 0
M  V30 2574 H 257.327 0.68661 3.7161 0
M  V30 2575 H 257.64 2.01438 7.46085 0
M  V30 2576 H 255.985 1.80488 6.71155 0
M  V30 2577 H 259.176 0.933209 4.58703 0
M  V30 2578 H 259.349 1.53846 6.29472 0
M  V30 2579 N 252.755 -1.56801 0.158532 0
M  V30 2580 C 254.001 -1.96781 -0.490405 0
M  V30 2581 C 254.334 -1.04397 -1.63753 0
M  V30 2582 O 253.609 -0.0885805 -1.94298 0
M  V30 2583 C 253.892 -3.4635 -0.985594 0
M  V30 2584 C 253.745 -4.49512 0.160824 0
M  V30 2585 C 255.064 -3.98697 -1.86355 0
M  V30 2586 H 252.183 -0.715482 -0.176788 0
M  V30 2587 H 254.825 -1.88451 0.242088 0
M  V30 2588 H 252.975 -3.53579 -1.60978 0
M  V30 2589 H 254.647 -4.54353 0.797537 0
M  V30 2590 H 252.89 -4.26013 0.818256 0
M  V30 2591 H 253.561 -5.51531 -0.227569 0
M  V30 2592 H 256.037 -3.94019 -1.33746 0
M  V30 2593 H 254.913 -5.03792 -2.17909 0
M  V30 2594 H 255.174 -3.41744 -2.8047 0
M  V30 2595 N 254.233 0.115231 -1.57178 0
M  V30 2596 C 255.481 0.820727 -1.84685 0
M  V30 2597 C 255.802 1.80237 -0.744279 0
M  V30 2598 O 255.072 1.94529 0.231375 0
M  V30 2599 H 253.652 0.306084 -0.681411 0
M  V30 2600 H 256.314 0.101656 -1.94635 0
M  V30 2601 H 255.41 1.36366 -2.80733 0
M  V30 2602 N 255.711 1.52812 0.385517 0
M  V30 2603 C 256.641 1.80808 1.47752 0
M  V30 2604 C 257.622 0.660318 1.5676 0
M  V30 2605 O 258.807 0.908246 1.71652 0
M  V30 2606 C 255.937 1.98008 2.85324 0
M  V30 2607 C 254.891 3.13709 2.91154 0
M  V30 2608 C 254.217 3.16169 4.31209 0
M  V30 2609 C 255.517 4.52709 2.60483 0
M  V30 2610 H 257.211 2.72253 1.24573 0
M  V30 2611 H 254.757 1.31003 0.597839 0
M  V30 2612 H 256.71 2.16176 3.61726 0
M  V30 2613 H 255.434 1.03255 3.09848 0
M  V30 2614 H 254.093 2.95329 2.17201 0
M  V30 2615 H 253.741 2.19092 4.52778 0
M  V30 2616 H 253.441 3.93894 4.36029 0
M  V30 2617 H 254.965 3.36496 5.09512 0
M  V30 2618 H 256.379 4.71173 3.26602 0
M  V30 2619 H 254.776 5.32528 2.76648 0
M  V30 2620 H 255.846 4.59186 1.55809 0
M  V30 2621 N 257.189 -0.644168 1.43834 0
M  V30 2622 C 258.136 -1.75671 1.49694 0
M  V30 2623 C 259.106 -1.6246 0.345809 0
M  V30 2624 O 260.291 -1.82573 0.554234 0
M  V30 2625 C 257.431 -3.13867 1.43463 0
M  V30 2626 C 256.544 -3.38147 2.6885 0
M  V30 2627 C 255.679 -4.66241 2.54544 0
M  V30 2628 C 254.718 -4.83657 3.75157 0
M  V30 2629 N 253.855 -6.03016 3.59605 0
M  V30 2630 H 258.695 -1.69998 2.44754 0
M  V30 2631 H 256.232 -0.829458 1.21484 0
M  V30 2632 H 258.19 -3.9377 1.37843 0
M  V30 2633 H 256.82 -3.18588 0.519783 0
M  V30 2634 H 255.872 -2.52276 2.84712 0
M  V30 2635 H 257.184 -3.46899 3.58417 0
M  V30 2636 H 256.338 -5.54285 2.46683 0
M  V30 2637 H 255.077 -4.59826 1.62516 0
M  V30 2638 H 254.082 -3.94046 3.83416 0
M  V30 2639 H 255.307 -4.91896 4.68204 0
M  V30 2640 H 253.253 -5.97715 2.7032 0
M  V30 2641 H 253.17 -6.12766 4.42779 0
M  V30 2642 H 254.438 -6.93657 3.55613 0
M  V30 2643 N 258.668 -1.30515 -0.883378 0
M  V30 2644 C 259.631 -1.1701 -1.97082 0
M  V30 2645 C 260.631 -0.10089 -1.60483 0
M  V30 2646 O 261.821 -0.349127 -1.70666 0
M  V30 2647 C 258.953 -0.793045 -3.31547 0
M  V30 2648 H 260.146 -2.13622 -2.10489 0
M  V30 2649 H 257.699 -1.13935 -1.06998 0
M  V30 2650 H 258.434 0.172499 -3.23841 0
M  V30 2651 H 258.219 -1.56576 -3.5948 0
M  V30 2652 H 259.709 -0.722073 -4.1131 0
M  V30 2653 N 260.146 1.09593 -1.13257 0
M  V30 2654 C 261.557 1.63229 -0.906274 0
M  V30 2655 C 261.908 1.8811 0.557578 0
M  V30 2656 O 261.033 1.62953 1.42391 0
M  V30 2657 C 261.628 2.96535 -1.63867 0
M  V30 2658 C 260.187 3.47003 -1.45828 0
M  V30 2659 C 259.334 2.2145 -1.66898 0
M  V30 2660 H 262.285 0.92978 -1.28611 0
M  V30 2661 H 262.306 3.64411 -1.09476 0
M  V30 2662 H 261.818 2.78394 -2.70404 0
M  V30 2663 H 259.919 3.70272 -0.415848 0
M  V30 2664 H 260.032 4.24551 -2.2202 0
M  V30 2665 H 258.396 2.30022 -1.09371 0
M  V30 2666 H 259.179 2.0583 -2.74752 0
M  V30 2667 N 261.624 0.925811 1.2754 0
M  V30 2668 C 262.872 0.564138 1.94067 0
M  V30 2669 C 263.193 -0.897188 1.73134 0
M  V30 2670 O 262.463 -1.63573 1.07799 0
M  V30 2671 H 261.043 0.205645 0.718136 0
M  V30 2672 H 263.705 1.1778 1.55287 0
M  V30 2673 H 262.801 0.76881 3.02483 0
M  V30 2674 N 263.102 -1.41638 0.69111 0
M  V30 2675 C 264.351 -2.00526 0.217318 0
M  V30 2676 C 264.664 -1.55353 -1.18848 0
M  V30 2677 O 265.87 -2.06769 -1.75951 0
M  V30 2678 C 264.326 -3.58313 0.337639 0
M  V30 2679 C 263.934 -4.12469 1.74852 0
M  V30 2680 C 265.678 -4.24431 -0.0766066 0
M  V30 2681 C 263.585 -5.62675 1.82074 0
M  V30 2682 H 262.515 -0.750008 0.0774893 0
M  V30 2683 H 265.166 -1.6217 0.858661 0
M  V30 2684 H 263.548 -3.9425 -0.371879 0
M  V30 2685 H 264.722 -3.8796 2.48644 0
M  V30 2686 H 263.037 -3.58861 2.11205 0
M  V30 2687 H 265.634 -5.34683 -0.0430284 0
M  V30 2688 H 265.977 -4.01101 -1.1146 0
M  V30 2689 H 266.51 -3.93512 0.582476 0
M  V30 2690 H 263.249 -5.90826 2.83911 0
M  V30 2691 H 262.769 -5.89124 1.12661 0
M  V30 2692 H 264.448 -6.27371 1.58159 0
M  V30 2693 N 264.58 -0.43555 -1.51462 0
M  V30 2694 C 265.829 0.133007 -2.01261 0
M  V30 2695 C 266.142 1.43942 -1.32439 0
M  V30 2696 O 267.348 2.09081 -1.73198 0
M  V30 2697 C 265.804 0.287581 -3.58749 0
M  V30 2698 C 265.412 -1.00829 -4.36506 0
M  V30 2699 C 267.156 0.810004 -4.167 0
M  V30 2700 C 265.063 -0.819454 -5.85695 0
M  V30 2701 H 263.993 0.0534822 -0.752101 0
M  V30 2702 H 266.644 -0.565038 -1.74584 0
M  V30 2703 H 265.026 1.04859 -3.81865 0
M  V30 2704 H 266.2 -1.77749 -4.25138 0
M  V30 2705 H 264.515 -1.45911 -3.89999 0
M  V30 2706 H 267.112 0.967743 -5.2587 0
M  V30 2707 H 267.455 1.79196 -3.75758 0
M  V30 2708 H 267.988 0.107357 -3.97655 0
M  V30 2709 H 264.727 -1.77374 -6.31046 0
M  V30 2710 H 264.247 -0.0900208 -5.99732 0
M  V30 2711 H 265.926 -0.471949 -6.45276 0
M  V30 2712 N 266.058 1.56714 -0.166846 0
M  V30 2713 C 267.469 1.83378 0.350646 0
M  V30 2714 C 267.82 1.08646 1.63372 0
M  V30 2715 O 266.945 0.338058 2.13743 0
M  V30 2716 C 267.54 3.32643 0.642963 0
M  V30 2717 C 266.099 3.59818 1.10491 0
M  V30 2718 C 265.246 2.76954 0.138411 0
M  V30 2719 H 268.197 1.53803 -0.391193 0
M  V30 2720 H 268.218 3.49878 1.49551 0
M  V30 2721 H 267.73 3.87007 -0.291055 0
M  V30 2722 H 265.831 3.1086 2.05418 0
M  V30 2723 H 265.944 4.68178 1.01716 0
M  V30 2724 H 264.308 2.4666 0.634911 0
M  V30 2725 H 265.091 3.34097 -0.789549 0
M  V30 2726 N 267.536 -0.106894 1.57237 0
M  V30 2727 C 268.952 -0.46078 1.52804 0
M  V30 2728 C 269.152 -1.81184 0.881746 0
M  V30 2729 O 268.208 -2.48102 0.469224 0
M  V30 2730 C 269.521 -0.434127 2.9755 0
M  V30 2731 C 271.069 -0.516821 3.08704 0
M  V30 2732 C 271.544 -0.520436 4.55033 0
M  V30 2733 N 273.035 -0.58153 4.59535 0
M  V30 2734 C 273.77 -0.605973 5.70189 0
M  V30 2735 N 273.266 -0.587331 6.90306 0
M  V30 2736 N 275.059 -0.649895 5.5833 0
M  V30 2737 H 267.21 0.778203 1.9763 0
M  V30 2738 H 269.473 0.288403 0.903066 0
M  V30 2739 H 269.179 0.491197 3.48253 0
M  V30 2740 H 269.053 -1.25748 3.55622 0
M  V30 2741 H 271.44 -1.43256 2.57995 0
M  V30 2742 H 271.521 0.334449 2.53604 0
M  V30 2743 H 271.165 0.391313 5.0639 0
M  V30 2744 H 271.095 -1.38876 5.07958 0
M  V30 2745 H 273.586 -0.60161 3.73081 0
M  V30 2746 H 273.899 -0.60894 7.70397 0
M  V30 2747 H 272.244 -0.554564 6.92784 0
M  V30 2748 H 275.435 -0.661907 4.63397 0
M  V30 2749 H 275.608 -0.665476 6.44574 0
M  V30 2750 N 269.014 -1.53014 -0.377408 0
M  V30 2751 C 270.263 -1.67845 -1.11853 0
M  V30 2752 C 270.576 -0.430625 -1.90801 0
M  V30 2753 O 271.782 -0.459261 -2.67587 0
M  V30 2754 C 270.238 -2.96668 -2.03756 0
M  V30 2755 C 269.846 -4.28671 -1.30175 0
M  V30 2756 C 271.59 -3.20865 -2.77932 0
M  V30 2757 C 269.497 -5.48591 -2.20911 0
M  V30 2758 H 268.427 -0.625343 -0.421263 0
M  V30 2759 H 271.078 -1.79514 -0.380409 0
M  V30 2760 H 269.46 -2.78773 -2.8125 0
M  V30 2761 H 270.634 -4.57157 -0.578259 0
M  V30 2762 H 268.949 -4.10825 -0.679108 0
M  V30 2763 H 271.546 -4.07642 -3.46024 0
M  V30 2764 H 271.889 -2.36424 -3.4265 0
M  V30 2765 H 272.422 -3.39379 -2.07525 0
M  V30 2766 H 269.161 -6.35474 -1.6079 0
M  V30 2767 H 268.681 -5.244 -2.91144 0
M  V30 2768 H 270.36 -5.8292 -2.80736 0
M  V30 2769 N 270.492 0.636531 -1.44174 0
M  V30 2770 C 271.717 1.42847 -1.50364 0
M  V30 2771 C 272.142 1.87665 -0.127867 0
M  V30 2772 O 271.5 1.58408 0.88185 0
M  V30 2773 C 271.548 2.62854 -2.4686 0
M  V30 2774 O 270.652 3.62501 -1.9664 0
M  V30 2775 H 269.993 0.427642 -0.507955 0
M  V30 2776 H 272.523 0.777422 -1.89255 0
M  V30 2777 H 272.533 3.10465 -2.64718 0
M  V30 2778 H 271.208 2.29578 -3.46795 0
M  V30 2779 H 269.785 3.21735 -1.88523 0
M  V30 2780 N 271.97 1.30982 0.876444 0
M  V30 2781 C 273.216 1.20474 1.63138 0
M  V30 2782 C 273.549 -0.238096 1.92735 0
M  V30 2783 O 272.824 -1.1692 1.55435 0
M  V30 2784 C 273.107 2.04244 2.96574 0
M  V30 2785 C 272.96 3.56793 2.73896 0
M  V30 2786 C 274.279 1.88684 3.97601 0
M  V30 2787 H 271.398 0.439001 0.591985 0
M  V30 2788 H 274.04 1.60704 1.01361 0
M  V30 2789 H 272.19 1.70063 3.493 0
M  V30 2790 H 273.862 4.01077 2.27892 0
M  V30 2791 H 272.105 3.80548 2.08245 0
M  V30 2792 H 272.776 4.10706 3.68815 0
M  V30 2793 H 275.252 2.18584 3.54062 0
M  V30 2794 H 274.128 2.4961 4.88862 0
M  V30 2795 H 274.389 0.848343 4.33884 0
M  V30 2796 N 273.449 -1.08991 1.13837 0
M  V30 2797 C 274.865 -1.33312 0.877506 0
M  V30 2798 C 275.065 -1.95587 -0.48456 0
M  V30 2799 O 274.121 -2.20509 -1.23013 0
M  V30 2800 C 275.434 -2.24045 2.0056 0
M  V30 2801 C 276.982 -2.37542 2.03821 0
M  V30 2802 C 277.457 -3.31614 3.15905 0
M  V30 2803 N 278.948 -3.39189 3.15445 0
M  V30 2804 C 279.683 -4.11992 3.98811 0
M  V30 2805 N 279.179 -4.87553 4.92203 0
M  V30 2806 N 280.972 -4.07762 3.86894 0
M  V30 2807 H 273.123 -0.669456 2.01574 0
M  V30 2808 H 275.386 -0.357482 0.878015 0
M  V30 2809 H 275.092 -1.85521 2.98789 0
M  V30 2810 H 274.966 -3.24466 1.92359 0
M  V30 2811 H 277.353 -2.75327 1.06202 0
M  V30 2812 H 277.434 -1.36884 2.16093 0
M  V30 2813 H 277.078 -2.94551 4.13766 0
M  V30 2814 H 277.008 -4.32186 3.0087 0
M  V30 2815 H 279.499 -2.85314 2.47799 0
M  V30 2816 H 279.812 -5.40549 5.52292 0
M  V30 2817 H 278.157 -4.86627 4.96205 0
M  V30 2818 H 281.348 -3.47833 3.13257 0
M  V30 2819 H 281.521 -4.64238 4.52092 0
M  V30 2820 N 274.927 -0.932562 -1.27047 0
M  V30 2821 C 275.837 -0.441219 -2.30414 0
M  V30 2822 C 276.853 0.480525 -1.67233 0
M  V30 2823 O 278.029 0.362151 -1.98117 0
M  V30 2824 C 275.094 0.293651 -3.45454 0
M  V30 2825 C 274.155 -0.663601 -4.2414 0
M  V30 2826 C 273.388 0.0362932 -5.33688 0
M  V30 2827 O 273.611 1.2548 -5.56427 0
M  V30 2828 O 272.545 -0.638015 -5.98509 0
M  V30 2829 H 276.371 -1.29962 -2.74488 0
M  V30 2830 H 273.956 -0.6981 -1.32087 0
M  V30 2831 H 275.838 0.707951 -4.15411 0
M  V30 2832 H 274.513 1.12758 -3.03426 0
M  V30 2833 H 273.42 -1.12768 -3.56699 0
M  V30 2834 H 274.753 -1.46489 -4.69896 0
M  V30 2835 N 276.405 1.4127 -0.698611 0
M  V30 2836 C 277.816 1.84187 -0.305289 0
M  V30 2837 C 278.167 1.58449 1.15708 0
M  V30 2838 O 277.292 1.05651 1.88856 0
M  V30 2839 C 277.887 3.3435 -0.547314 0
M  V30 2840 C 276.446 3.75826 -0.207878 0
M  V30 2841 C 275.593 2.64647 -0.828099 0
M  V30 2842 H 278.544 1.30778 -0.89904 0
M  V30 2843 H 278.565 3.8001 0.192998 0
M  V30 2844 H 278.077 3.53051 -1.61172 0
M  V30 2845 H 276.178 3.62725 0.852143 0
M  V30 2846 H 276.291 4.74462 -0.665021 0
M  V30 2847 H 274.655 2.53395 -0.257458 0
M  V30 2848 H 275.438 2.86165 -1.89643 0
M  V30 2849 N 277.883 0.443576 1.51229 0
M  V30 2850 C 278.816 -0.410089 2.24485 0
M  V30 2851 C 279.794 -1.01949 1.26669 0
M  V30 2852 O 280.978 -1.06075 1.55821 0
M  V30 2853 C 278.105 -1.57211 3.00004 0
M  V30 2854 C 277.151 -1.08279 4.12526 0
M  V30 2855 S 277.984 -0.0197476 5.35496 0
M  V30 2856 C 279.14 -1.18629 6.14555 0
M  V30 2857 H 279.373 0.211832 2.96544 0
M  V30 2858 H 276.906 0.228156 1.52705 0
M  V30 2859 H 278.864 -2.23825 3.44111 0
M  V30 2860 H 277.525 -2.16547 2.27522 0
M  V30 2861 H 276.718 -1.95193 4.64667 0
M  V30 2862 H 276.32 -0.494797 3.70713 0
M  V30 2863 H 278.612 -2.10344 6.4402 0
M  V30 2864 H 279.555 -0.70472 7.04584 0
M  V30 2865 H 279.963 -1.42768 5.46148 0
M  V30 2866 N 279.361 -1.56624 0.175154 0
M  V30 2867 C 280.293 -2.15333 -0.785128 0
M  V30 2868 C 281.306 -1.1099 -1.19101 0
M  V30 2869 O 282.495 -1.38162 -1.13019 0
M  V30 2870 C 279.595 -2.68427 -2.06882 0
M  V30 2871 C 278.768 -3.97466 -1.8259 0
M  V30 2872 C 277.827 -4.35585 -2.95215 0
M  V30 2873 O 276.853 -5.03389 -2.65684 0
M  V30 2874 N 278.055 -3.97457 -4.23094 0
M  V30 2875 H 280.82 -2.98359 -0.283187 0
M  V30 2876 H 278.381 -1.61898 -0.00749817 0
M  V30 2877 H 280.373 -2.90924 -2.81328 0
M  V30 2878 H 278.943 -1.89968 -2.48256 0
M  V30 2879 H 278.163 -3.83307 -0.920287 0
M  V30 2880 H 279.451 -4.81736 -1.63733 0
M  V30 2881 H 278.849 -3.42878 -4.49945 0
M  V30 2882 H 277.406 -4.24947 -4.9423 0
M  V30 2883 N 280.839 0.0985539 -1.57292 0
M  V30 2884 C 282.067 0.816318 -1.90115 0
M  V30 2885 C 282.482 1.72451 -0.768509 0
M  V30 2886 O 281.839 1.80643 0.259687 0
M  V30 2887 C 281.89 1.63259 -3.22535 0
M  V30 2888 O 281.611 0.760934 -4.31441 0
M  V30 2889 C 283.112 2.45372 -3.69199 0
M  V30 2890 H 280.332 0.233595 -0.629027 0
M  V30 2891 H 282.876 0.0768229 -2.04356 0
M  V30 2892 H 281.031 2.32463 -3.09903 0
M  V30 2893 H 281.445 1.32595 -5.07463 0
M  V30 2894 H 282.919 2.98144 -4.64558 0
M  V30 2895 H 283.396 3.23677 -2.96867 0
M  V30 2896 H 284.002 1.81373 -3.84687 0
M  V30 2897 N 282.317 1.53212 0.369288 0
M  V30 2898 C 283.565 1.68881 1.11012 0
M  V30 2899 C 283.886 0.441285 1.89941 0
M  V30 2900 O 283.156 -0.544623 1.88177 0
M  V30 2901 H 281.736 0.622569 0.412816 0
M  V30 2902 H 284.398 1.90391 0.416802 0
M  V30 2903 H 283.494 2.54822 1.80201 0
M  V30 2904 N 283.795 -0.628877 1.44509 0
M  V30 2905 C 285.044 -1.38437 1.4669 0
M  V30 2906 C 285.357 -1.95322 0.104272 0
M  V30 2907 O 286.563 -2.715 0.00362163 0
M  V30 2908 C 285.019 -2.50659 2.5826 0
M  V30 2909 C 284.627 -2.00277 4.0074 0
M  V30 2910 C 286.371 -3.27844 2.69664 0
M  V30 2911 C 284.278 -3.09854 5.0373 0
M  V30 2912 H 283.208 -0.520245 0.545766 0
M  V30 2913 H 285.859 -0.676313 1.70582 0
M  V30 2914 H 284.241 -3.2405 2.27612 0
M  V30 2915 H 285.415 -1.33736 4.40966 0
M  V30 2916 H 283.73 -1.35901 3.93599 0
M  V30 2917 H 286.327 -4.09534 3.43781 0
M  V30 2918 H 286.67 -3.77471 1.75559 0
M  V30 2919 H 287.203 -2.61543 2.99733 0
M  V30 2920 H 283.942 -2.65168 5.99472 0
M  V30 2921 H 283.462 -3.7503 4.68095 0
M  V30 2922 H 285.141 -3.74592 5.27532 0
M  V30 2923 N 285.273 -1.31445 -0.869486 0
M  V30 2924 C 286.22 -1.19135 -1.97675 0
M  V30 2925 C 287.19 -0.0770266 -1.65921 0
M  V30 2926 O 288.375 -0.249972 -1.89155 0
M  V30 2927 C 285.515 -0.905149 -3.33018 0
M  V30 2928 C 284.628 -2.10285 -3.77365 0
M  V30 2929 C 283.763 -1.75339 -5.01427 0
M  V30 2930 C 282.802 -2.91515 -5.38224 0
M  V30 2931 N 281.939 -2.56762 -6.53466 0
M  V30 2932 H 286.779 -2.13853 -2.07535 0
M  V30 2933 H 284.316 -1.06379 -1.01597 0
M  V30 2934 H 286.274 -0.719765 -4.10944 0
M  V30 2935 H 284.904 0.00519624 -3.228 0
M  V30 2936 H 283.956 -2.39899 -2.95216 0
M  V30 2937 H 285.268 -2.97237 -4.00564 0
M  V30 2938 H 284.422 -1.53266 -5.87022 0
M  V30 2939 H 283.161 -0.855801 -4.80133 0
M  V30 2940 H 282.166 -3.14237 -4.51149 0
M  V30 2941 H 283.391 -3.81985 -5.61484 0
M  V30 2942 H 281.337 -1.69526 -6.33717 0
M  V30 2943 H 281.254 -3.37243 -6.76612 0
M  V30 2944 H 282.522 -2.38083 -7.42251 0
M  V30 2945 N 286.751 1.08385 -1.14413 0
M  V30 2946 C 287.714 2.13486 -0.834048 0
M  V30 2947 C 288.714 1.59988 0.161418 0
M  V30 2948 O 289.904 1.74071 -0.0669575 0
M  V30 2949 C 287.036 3.4003 -0.243354 0
M  V30 2950 H 288.229 2.42425 -1.7655 0
M  V30 2951 H 285.782 1.24101 -0.950189 0
M  V30 2952 H 286.517 3.16726 0.696807 0
M  V30 2953 H 286.302 3.80157 -0.960367 0
M  V30 2954 H 287.792 4.17577 -0.0436242 0
M  V30 2955 N 288.23 0.939286 1.26551 0
M  V30 2956 C 289.476 0.586715 1.94128 0
M  V30 2957 C 289.809 -0.8717 1.73537 0
M  V30 2958 O 289.084 -1.62339 1.07127 0
M  V30 2959 C 289.367 0.927497 3.4795 0
M  V30 2960 C 289.22 2.44052 3.77834 0
M  V30 2961 C 290.539 0.441569 4.37879 0
M  V30 2962 H 287.658 0.21463 0.705055 0
M  V30 2963 H 290.3 1.17316 1.49455 0
M  V30 2964 H 288.45 0.428431 3.8613 0
M  V30 2965 H 290.122 3.01216 3.4938 0
M  V30 2966 H 288.365 2.8848 3.23978 0
M  V30 2967 H 289.036 2.62947 4.85348 0
M  V30 2968 H 291.512 0.869448 4.06915 0
M  V30 2969 H 290.388 0.708856 5.44304 0
M  V30 2970 H 290.649 -0.658467 4.37169 0
M  V30 2971 N 289.708 -1.40897 0.706093 0
M  V30 2972 C 290.985 -1.94868 0.169099 0
M  V30 2973 C 291.365 -1.64485 -1.32318 0
M  V30 2974 O 290.713 -0.95744 -2.07474 0
M  V30 2975 C 290.923 -3.45798 0.471654 0
M  V30 2976 C 292.271 -4.22663 0.405127 0
M  V30 2977 O 293.295 -3.53865 0.407168 0
M  V30 2978 O 292.154 -5.45216 0.374383 0
M  V30 2979 H 289.248 -0.82673 0.0211352 0
M  V30 2980 H 291.794 -1.50558 0.782976 0
M  V30 2981 H 290.566 -3.61235 1.50416 0
M  V30 2982 H 290.189 -3.97225 -0.172666 0
M  V30 2983 N 291.186 -0.45159 -1.50991 0
M  V30 2984 C 292.411 0.110667 -2.07105 0
M  V30 2985 C 292.836 1.3446 -1.31538 0
M  V30 2986 O 292.194 1.77743 -0.357365 0
M  V30 2987 C 292.242 0.397238 -3.58405 0
M  V30 2988 O 291.346 1.48124 -3.84881 0
M  V30 2989 H 290.687 -0.00439271 -0.663985 0
M  V30 2990 H 293.217 -0.637026 -1.9443 0
M  V30 2991 H 293.227 0.64351 -4.02893 0
M  V30 2992 H 291.902 -0.504553 -4.12828 0
M  V30 2993 H 290.479 1.22381 -3.52246 0
M  V30 2994 N 292.664 1.56529 -0.183458 0
M  V30 2995 C 293.594 2.21549 0.737456 0
M  V30 2996 C 294.575 1.17489 1.23005 0
M  V30 2997 O 295.76 1.45959 1.281 0
M  V30 2998 C 292.89 2.86575 1.96194 0
M  V30 2999 C 291.844 3.96778 1.60473 0
M  V30 3000 C 291.17 4.48911 2.90487 0
M  V30 3001 C 292.47 5.15767 0.823497 0
M  V30 3002 H 294.164 2.98761 0.195453 0
M  V30 3003 H 291.71 1.43702 0.0925686 0
M  V30 3004 H 293.663 3.30739 2.61131 0
M  V30 3005 H 292.387 2.06749 2.52828 0
M  V30 3006 H 291.046 3.53286 0.978997 0
M  V30 3007 H 290.694 3.65862 3.45186 0
M  V30 3008 H 290.394 5.23265 2.67335 0
M  V30 3009 H 291.918 4.95771 3.56432 0
M  V30 3010 H 293.332 5.56549 1.37571 0
M  V30 3011 H 291.729 5.96114 0.690551 0
M  V30 3012 H 292.799 4.84574 -0.177782 0
M  V30 3013 N 294.142 -0.090211 1.57342 0
M  V30 3014 C 295.388 -0.793982 1.86611 0
M  V30 3015 C 295.721 -1.78142 0.773252 0
M  V30 3016 O 294.996 -1.93271 -0.218304 0
M  V30 3017 C 295.279 -1.51839 3.26523 0
M  V30 3018 C 295.132 -0.548609 4.46442 0
M  V30 3019 C 296.451 -2.46779 3.64401 0
M  V30 3020 H 293.57 -0.287186 0.678744 0
M  V30 3021 H 296.212 -0.0575076 1.89913 0
M  V30 3022 H 294.362 -2.14617 3.23839 0
M  V30 3023 H 296.034 0.0725513 4.61243 0
M  V30 3024 H 294.277 0.137614 4.33582 0
M  V30 3025 H 294.948 -1.09271 5.41076 0
M  V30 3026 H 297.424 -1.94089 3.68061 0
M  V30 3027 H 296.3 -2.94479 4.63221 0
M  V30 3028 H 296.561 -3.30758 2.93346 0
M  V30 3029 N 295.62 -1.53406 -0.361157 0
M  V30 3030 C 297.031 -1.61442 -0.937728 0
M  V30 3031 C 297.382 -0.48461 -1.90121 0
M  V30 3032 O 296.507 0.388312 -2.12888 0
M  V30 3033 C 297.102 -2.92624 -1.70753 0
M  V30 3034 C 295.661 -3.02981 -2.23337 0
M  V30 3035 C 294.808 -2.5677 -1.04712 0
M  V30 3036 H 297.759 -1.58083 -0.139816 0
M  V30 3037 H 297.78 -2.80675 -2.56908 0
M  V30 3038 H 297.292 -3.74834 -1.00604 0
M  V30 3039 H 295.393 -2.25368 -2.96715 0
M  V30 3040 H 295.506 -4.0814 -2.50916 0
M  V30 3041 H 293.87 -2.11752 -1.41539 0
M  V30 3042 H 294.653 -3.41402 -0.360539 0
M  V30 3043 N 297.098 0.621204 -1.44841 0
M  V30 3044 C 298.347 1.37658 -1.47422 0
M  V30 3045 C 298.66 1.95264 -0.114629 0
M  V30 3046 O 299.866 2.71494 -0.0180199 0
M  V30 3047 C 298.322 2.49285 -2.59586 0
M  V30 3048 C 297.93 1.98149 -4.01797 0
M  V30 3049 C 299.674 3.26409 -2.71399 0
M  V30 3050 C 297.581 3.07178 -5.05367 0
M  V30 3051 H 296.511 0.517344 -0.548517 0
M  V30 3052 H 299.162 0.667257 -1.70938 0
M  V30 3053 H 297.544 3.22839 -2.29328 0
M  V30 3054 H 298.718 1.31395 -4.41669 0
M  V30 3055 H 297.033 1.33812 -3.94314 0
M  V30 3056 H 299.63 4.07706 -3.45948 0
M  V30 3057 H 299.973 3.76535 -1.77559 0
M  V30 3058 H 300.506 2.5995 -3.01116 0
M  V30 3059 H 297.245 2.61985 -6.00869 0
M  V30 3060 H 296.765 3.72542 -4.70077 0
M  V30 3061 H 298.444 3.71789 -5.29511 0
M  V30 3062 N 298.576 1.31904 0.862503 0
M  V30 3063 C 299.824 1.21776 1.61292 0
M  V30 3064 C 300.145 -0.222413 1.93727 0
M  V30 3065 O 299.415 -1.1451 1.58947 0
M  V30 3066 H 297.995 0.447717 0.597962 0
M  V30 3067 H 300.657 1.65326 1.03215 0
M  V30 3068 H 299.753 1.7948 2.5533 0
M  V30 3069 N 300.054 -1.07777 1.14986 0
M  V30 3070 C 301.47 -1.32373 0.891596 0
M  V30 3071 C 301.67 -1.9609 -0.463788 0
M  V30 3072 O 300.726 -2.21801 -1.20667 0
M  V30 3073 C 302.039 -2.21905 2.02925 0
M  V30 3074 C 303.587 -2.35367 2.06329 0
M  V30 3075 C 304.062 -3.28245 3.19405 0
M  V30 3076 N 305.553 -3.35824 3.19024 0
M  V30 3077 C 306.288 -4.07739 4.03158 0
M  V30 3078 N 305.784 -4.82306 4.97346 0
M  V30 3079 N 307.577 -4.03635 3.91197 0
M  V30 3080 H 299.728 -0.648039 2.02273 0
M  V30 3081 H 301.991 -0.348149 0.881757 0
M  V30 3082 H 301.697 -1.82342 3.0074 0
M  V30 3083 H 301.571 -3.22407 1.95789 0
M  V30 3084 H 303.958 -2.74186 1.09116 0
M  V30 3085 H 304.039 -1.34585 2.17533 0
M  V30 3086 H 303.683 -2.90146 4.16867 0
M  V30 3087 H 303.613 -4.28971 3.05437 0
M  V30 3088 H 306.104 -2.8267 2.50811 0
M  V30 3089 H 306.417 -5.34661 5.57994 0
M  V30 3090 H 304.762 -4.81337 5.01338 0
M  V30 3091 H 307.953 -3.44491 3.16928 0
M  V30 3092 H 308.126 -4.59417 4.5699 0
M  V30 3093 N 301.532 -0.945985 -1.26051 0
M  V30 3094 C 302.78 -0.594941 -1.93145 0
M  V30 3095 C 303.101 0.86953 -1.7454 0
M  V30 3096 O 302.371 1.61838 -1.10387 0
M  V30 3097 H 300.951 -0.217044 -0.714773 0
M  V30 3098 H 303.613 -1.20235 -1.53393 0
M  V30 3099 H 302.709 -0.816835 -3.01221 0
M  V30 3100 N 303.011 1.40521 -0.713556 0
M  V30 3101 C 303.943 2.29191 -0.0203126 0
M  V30 3102 C 304.956 1.45723 0.725864 0
M  V30 3103 O 306.145 1.69033 0.573581 0
M  V30 3104 C 303.245 3.2395 0.995486 0
M  V30 3105 C 302.418 4.36262 0.315256 0
M  V30 3106 C 301.477 5.11474 1.23616 0
M  V30 3107 O 300.503 5.64606 0.721719 0
M  V30 3108 N 301.705 5.20638 2.56743 0
M  V30 3109 H 304.47 2.89327 -0.781652 0
M  V30 3110 H 302.031 1.51869 -0.561022 0
M  V30 3111 H 304.023 3.71137 1.61368 0
M  V30 3112 H 302.593 2.64995 1.6582 0
M  V30 3113 H 301.813 3.91228 -0.483106 0
M  V30 3114 H 303.101 5.08558 -0.157004 0
M  V30 3115 H 302.499 4.7895 3.01037 0
M  V30 3116 H 301.056 5.71339 3.13712 0
M  V30 3117 N 304.489 0.459591 1.5075 0
M  V30 3118 C 305.905 0.113092 1.59199 0
M  V30 3119 C 306.105 -1.37951 1.46874 0
M  V30 3120 O 305.161 -2.15168 1.32132 0
M  V30 3121 C 306.474 0.653043 2.93523 0
M  V30 3122 C 308.022 0.615449 3.0689 0
M  V30 3123 C 308.497 1.13275 4.43771 0
M  V30 3124 N 309.988 1.09167 4.50152 0
M  V30 3125 C 310.723 1.46256 5.54434 0
M  V30 3126 N 310.219 1.90739 6.66026 0
M  V30 3127 N 312.012 1.37932 5.44914 0
M  V30 3128 H 304.163 1.43049 1.57005 0
M  V30 3129 H 306.426 0.590861 0.741341 0
M  V30 3130 H 306.132 1.69822 3.07983 0
M  V30 3131 H 306.006 0.0902132 3.77092 0
M  V30 3132 H 308.393 -0.420793 2.92084 0
M  V30 3133 H 308.474 1.21495 2.25106 0
M  V30 3134 H 308.118 2.16757 4.59324 0
M  V30 3135 H 308.048 0.509576 5.24129 0
M  V30 3136 H 310.539 0.76528 3.7007 0
M  V30 3137 H 310.852 2.17218 7.41644 0
M  V30 3138 H 309.197 1.94683 6.67176 0
M  V30 3139 H 312.388 1.0303 4.56621 0
M  V30 3140 H 312.561 1.67164 6.26067 0
M  V30 3141 N 305.967 -1.56429 0.191757 0
M  V30 3142 C 306.877 -2.22541 -0.742481 0
M  V30 3143 C 307.893 -1.22342 -1.23727 0
M  V30 3144 O 309.069 -1.55069 -1.28513 0
M  V30 3145 C 306.134 -2.8692 -1.94623 0
M  V30 3146 C 305.195 -4.02378 -1.49633 0
M  V30 3147 C 304.428 -4.63678 -2.6427 0
M  V30 3148 O 304.651 -4.23895 -3.81666 0
M  V30 3149 O 303.585 -5.53202 -2.37174 0
M  V30 3150 H 307.411 -3.02977 -0.209462 0
M  V30 3151 H 304.996 -1.49353 -0.0373832 0
M  V30 3152 H 306.878 -3.27663 -2.64982 0
M  V30 3153 H 305.553 -2.09466 -2.46791 0
M  V30 3154 H 304.46 -3.66265 -0.761636 0
M  V30 3155 H 305.793 -4.81487 -1.02134 0
M  V30 3156 N 307.445 0.0818655 -1.57387 0
M  V30 3157 C 308.375 1.09885 -2.06028 0
M  V30 3158 C 309.356 1.4098 -0.951774 0
M  V30 3159 O 310.541 1.50781 -1.22387 0
M  V30 3160 C 307.671 2.4151 -2.4958 0
M  V30 3161 C 306.625 2.24792 -3.64215 0
M  V30 3162 C 305.951 3.61712 -3.93787 0
M  V30 3163 C 307.251 1.67749 -4.94629 0
M  V30 3164 H 308.945 0.694128 -2.91243 0
M  V30 3165 H 306.491 0.332448 -1.4011 0
M  V30 3166 H 308.444 3.12939 -2.82219 0
M  V30 3167 H 307.168 2.83943 -1.61381 0
M  V30 3168 H 305.827 1.55807 -3.31843 0
M  V30 3169 H 305.475 4.01697 -3.02735 0
M  V30 3170 H 305.175 3.51368 -4.70971 0
M  V30 3171 H 306.699 4.34587 -4.28913 0
M  V30 3172 H 308.113 2.29032 -5.25564 0
M  V30 3173 H 306.51 1.68128 -5.76067 0
M  V30 3174 H 307.58 0.638059 -4.80684 0
M  V30 3175 N 308.923 1.53595 0.353017 0
M  V30 3176 C 310.172 1.69603 1.09168 0
M  V30 3177 C 310.485 0.460925 1.90092 0
M  V30 3178 O 311.691 0.501774 2.66823 0
M  V30 3179 C 310.147 2.99872 1.9901 0
M  V30 3180 C 309.755 4.30687 1.23339 0
M  V30 3181 C 311.499 3.25246 2.72792 0
M  V30 3182 C 309.406 5.52036 2.12156 0
M  V30 3183 H 308.336 0.631966 0.411261 0
M  V30 3184 H 310.987 1.80096 0.351802 0
M  V30 3185 H 309.369 2.83212 2.7678 0
M  V30 3186 H 310.543 4.58019 0.505456 0
M  V30 3187 H 308.858 4.11853 0.613663 0
M  V30 3188 H 311.455 4.13095 3.39495 0
M  V30 3189 H 311.798 2.41846 3.38846 0
M  V30 3190 H 312.331 3.42638 2.021 0
M  V30 3191 H 309.07 6.37951 1.50659 0
M  V30 3192 H 308.59 5.28966 2.82764 0
M  V30 3193 H 310.269 5.87313 2.71427 0
M  V30 3194 N 310.401 -0.613514 1.45168 0
M  V30 3195 C 311.65 -1.36874 1.4815 0
M  V30 3196 C 311.963 -1.952 0.124982 0
M  V30 3197 O 313.169 -2.71481 0.0324176 0
M  V30 3198 C 311.625 -2.47905 2.60904 0
M  V30 3199 C 311.233 -1.96016 4.02842 0
M  V30 3200 C 312.977 -3.24965 2.73126 0
M  V30 3201 C 310.884 -3.04494 5.06988 0
M  V30 3202 H 309.814 -0.514428 0.551253 0
M  V30 3203 H 312.465 -0.658182 1.7129 0
M  V30 3204 H 310.847 -3.21618 2.31037 0
M  V30 3205 H 312.021 -1.29051 4.4236 0
M  V30 3206 H 310.336 -1.31719 3.95018 0
M  V30 3207 H 312.933 -4.05865 3.48106 0
M  V30 3208 H 313.276 -3.75588 1.79553 0
M  V30 3209 H 313.809 -2.5835 3.0249 0
M  V30 3210 H 310.548 -2.58795 6.0225 0
M  V30 3211 H 310.068 -3.70044 4.72046 0
M  V30 3212 H 311.747 -3.68976 5.31475 0
M  V30 3213 N 311.879 -1.3236 -0.855495 0
M  V30 3214 C 313.127 -1.22629 -1.60644 0
M  V30 3215 C 313.448 0.212136 -1.93843 0
M  V30 3216 O 312.718 1.13666 -1.59552 0
M  V30 3217 H 311.298 -0.450882 -0.595579 0
M  V30 3218 H 313.96 -1.65871 -1.02337 0
M  V30 3219 H 313.056 -1.80832 -2.54374 0
M  V30 3220 N 313.357 1.07166 -1.15556 0
M  V30 3221 C 314.634 1.76546 -0.842069 0
M  V30 3222 C 315.014 2.00453 0.661939 0
M  V30 3223 O 314.362 1.62452 1.60691 0
M  V30 3224 C 314.572 3.07266 -1.65495 0
M  V30 3225 C 315.92 3.81578 -1.86234 0
M  V30 3226 O 316.944 3.17083 -1.62287 0
M  V30 3227 O 315.803 4.97419 -2.26355 0
M  V30 3228 H 312.897 0.766756 -0.309862 0
M  V30 3229 H 315.443 1.13514 -1.26145 0
M  V30 3230 H 314.215 2.85494 -2.67598 0
M  V30 3231 H 313.838 3.7803 -1.23203 0
M  V30 3232 N 314.835 0.952656 1.25548 0
M  V30 3233 C 316.251 0.656769 1.4546 0
M  V30 3234 C 316.451 -0.78633 1.85524 0
M  V30 3235 O 315.507 -1.56183 1.98402 0
M  V30 3236 C 316.82 1.62801 2.52817 0
M  V30 3237 C 318.368 1.63897 2.66659 0
M  V30 3238 C 318.843 2.5978 3.77198 0
M  V30 3239 N 320.334 2.58133 3.84606 0
M  V30 3240 C 321.069 3.29003 4.69621 0
M  V30 3241 N 320.565 4.09339 5.58939 0
M  V30 3242 N 322.358 3.179 4.63569 0
M  V30 3243 H 314.509 1.88526 0.978344 0
M  V30 3244 H 316.772 0.810815 0.491206 0
M  V30 3245 H 316.478 2.65869 2.30232 0
M  V30 3246 H 316.352 1.38898 3.50695 0
M  V30 3247 H 318.739 0.615481 2.8861 0
M  V30 3248 H 318.82 1.91858 1.69187 0
M  V30 3249 H 318.464 3.62254 3.55997 0
M  V30 3250 H 318.394 2.29105 4.7415 0
M  V30 3251 H 320.885 1.99809 3.20757 0
M  V30 3252 H 321.198 4.6034 6.20731 0
M  V30 3253 H 319.543 4.13438 5.58654 0
M  V30 3254 H 322.734 2.54612 3.92798 0
M  V30 3255 H 322.907 3.73398 5.29602 0
M  V30 3256 N 316.313 -1.40141 0.720998 0
M  V30 3257 C 317.245 -2.29177 0.0324669 0
M  V30 3258 C 318.258 -1.46105 -0.718126 0
M  V30 3259 O 319.447 -1.69335 -0.564608 0
M  V30 3260 C 316.547 -3.24473 -0.978292 0
M  V30 3261 C 315.72 -4.36423 -0.292115 0
M  V30 3262 C 314.779 -5.12122 -1.20901 0
M  V30 3263 O 313.805 -5.64981 -0.691766 0
M  V30 3264 N 315.007 -5.21992 -2.53978 0
M  V30 3265 H 317.772 -2.88909 0.796984 0
M  V30 3266 H 315.333 -1.51569 0.569068 0
M  V30 3267 H 317.325 -3.71987 -1.59398 0
M  V30 3268 H 315.895 -2.65871 -1.64413 0
M  V30 3269 H 315.115 -3.90967 0.503847 0
M  V30 3270 H 316.403 -5.08467 0.183971 0
M  V30 3271 H 315.801 -4.8054 -2.98493 0
M  V30 3272 H 314.358 -5.72995 -3.10677 0
M  V30 3273 N 317.792 -0.46758 -1.50504 0
M  V30 3274 C 319.02 0.0864133 -2.06719 0
M  V30 3275 C 319.435 1.33819 -1.33184 0
M  V30 3276 O 318.792 1.78061 -0.400083 0
M  V30 3277 C 318.843 0.378079 -3.59517 0
M  V30 3278 O 318.564 -0.824044 -4.3028 0
M  V30 3279 C 320.065 0.979426 -4.32345 0
M  V30 3280 H 317.285 -0.00551697 -0.670977 0
M  V30 3281 H 319.829 -0.655354 -1.93715 0
M  V30 3282 H 317.984 1.06977 -3.72337 0
M  V30 3283 H 318.398 -0.566518 -5.21432 0
M  V30 3284 H 319.872 1.1333 -5.40241 0
M  V30 3285 H 320.349 1.9686 -3.9261 0
M  V30 3286 H 320.955 0.326216 -4.24047 0
M  V30 3287 N 319.27 1.56325 -0.20005 0
M  V30 3288 C 320.518 1.97329 0.436547 0
M  V30 3289 C 320.839 1.08826 1.61808 0
M  V30 3290 O 320.109 0.160604 1.95241 0
M  V30 3291 H 318.689 0.728714 0.164272 0
M  V30 3292 H 321.351 1.92761 -0.287937 0
M  V30 3293 H 320.447 3.02264 0.777353 0
M  V30 3294 N 320.748 -0.0735177 1.57428 0
M  V30 3295 C 321.695 -1.08756 2.0357 0
M  V30 3296 C 322.665 -1.38559 0.916 0
M  V30 3297 O 323.85 -1.49656 1.18354 0
M  V30 3298 C 320.99 -2.39657 2.48311 0
M  V30 3299 C 320.103 -2.16399 3.73892 0
M  V30 3300 C 319.238 -3.40852 4.07423 0
M  V30 3301 C 318.277 -3.1295 5.2605 0
M  V30 3302 N 317.414 -4.29729 5.55228 0
M  V30 3303 H 322.254 -0.687104 2.8997 0
M  V30 3304 H 319.791 -0.327709 1.43403 0
M  V30 3305 H 321.749 -3.16081 2.72303 0
M  V30 3306 H 320.379 -2.77508 1.64891 0
M  V30 3307 H 319.431 -1.30676 3.57251 0
M  V30 3308 H 320.743 -1.91788 4.60455 0
M  V30 3309 H 319.897 -4.25671 4.32306 0
M  V30 3310 H 318.636 -3.68537 3.19425 0
M  V30 3311 H 317.641 -2.26526 5.00965 0
M  V30 3312 H 318.866 -2.86589 6.15665 0
M  V30 3313 H 316.812 -4.57448 4.70188 0
M  V30 3314 H 316.729 -4.08385 6.36206 0
M  V30 3315 H 317.997 -5.1555 5.84661 0
M  V30 3316 N 322.226 -1.5378 -0.344866 0
M  V30 3317 C 323.454 -1.74899 -1.10534 0
M  V30 3318 C 323.869 -0.487534 -1.82397 0
M  V30 3319 O 323.226 0.540741 -1.74305 0
M  V30 3320 C 323.277 -2.92822 -2.11984 0
M  V30 3321 O 322.998 -4.14089 -1.43044 0
M  V30 3322 C 324.499 -3.25982 -3.00417 0
M  V30 3323 H 321.719 -0.584426 -0.329678 0
M  V30 3324 H 324.263 -2.006 -0.397474 0
M  V30 3325 H 322.418 -2.69457 -2.78338 0
M  V30 3326 H 322.832 -4.80272 -2.10805 0
M  V30 3327 H 324.306 -4.11848 -3.67539 0
M  V30 3328 H 324.783 -2.42228 -3.66363 0
M  V30 3329 H 325.389 -3.51349 -2.39654 0
M  V30 3330 N 323.704 0.605807 -1.45491 0
M  V30 3331 C 324.929 1.39625 -1.53361 0
M  V30 3332 C 325.354 1.87351 -0.167645 0
M  V30 3333 O 324.712 1.60243 0.848051 0
M  V30 3334 C 324.76 2.57559 -2.5238 0
M  V30 3335 O 323.864 3.58248 -2.04285 0
M  V30 3336 H 323.205 0.416771 -0.516912 0
M  V30 3337 H 325.735 0.737103 -1.90861 0
M  V30 3338 H 325.745 3.0478 -2.71244 0
M  V30 3339 H 324.42 2.22171 -3.51586 0
M  V30 3340 H 322.997 3.17664 -1.95305 0
M  V30 3341 N 325.182 1.32811 0.848464 0
M  V30 3342 C 326.431 1.23075 1.59798 0
M  V30 3343 C 326.744 -0.204419 1.94529 0
M  V30 3344 O 327.95 -0.423701 2.68173 0
M  V30 3345 C 326.406 2.15594 2.88179 0
M  V30 3346 C 326.014 3.64228 2.60849 0
M  V30 3347 C 327.758 2.14709 3.66197 0
M  V30 3348 C 325.665 4.48689 3.85269 0
M  V30 3349 H 324.595 0.457091 0.599653 0
M  V30 3350 H 327.246 1.57813 0.936342 0
M  V30 3351 H 325.628 1.73778 3.55833 0
M  V30 3352 H 326.802 4.14424 2.01467 0
M  V30 3353 H 325.117 3.67306 1.96151 0
M  V30 3354 H 327.714 2.75046 4.58534 0
M  V30 3355 H 328.057 1.13966 4.00397 0
M  V30 3356 H 328.59 2.54837 3.05455 0
M  V30 3357 H 325.329 5.5027 3.56207 0
M  V30 3358 H 324.849 4.03241 4.44024 0
M  V30 3359 H 326.528 4.62006 4.52946 0
M  V30 3360 N 326.66 -1.06551 1.16123 0
M  V30 3361 C 327.623 -2.12132 0.867906 0
M  V30 3362 C 328.623 -1.60224 -0.135944 0
M  V30 3363 O 329.813 -1.73943 0.0946422 0
M  V30 3364 C 326.945 -3.396 0.297419 0
M  V30 3365 H 328.138 -2.39586 1.80385 0
M  V30 3366 H 325.691 -1.22574 0.969812 0
M  V30 3367 H 326.426 -3.17794 -0.64633 0
M  V30 3368 H 326.211 -3.78581 1.02073 0
M  V30 3369 H 327.701 -4.17455 0.110052 0
M  V30 3370 N 328.138 -0.959301 -1.25041 0
M  V30 3371 C 329.387 -0.612254 -1.92183 0
M  V30 3372 C 329.7 0.855347 -1.75907 0
M  V30 3373 O 330.906 1.31256 -2.37664 0
M  V30 3374 C 329.362 -1.04435 -3.44414 0
M  V30 3375 C 328.97 -2.53482 -3.69393 0
M  V30 3376 C 330.714 -0.770055 -4.17457 0
M  V30 3377 C 328.621 -2.90468 -5.15153 0
M  V30 3378 H 327.551 -0.225279 -0.719559 0
M  V30 3379 H 330.202 -1.16438 -1.41825 0
M  V30 3380 H 328.584 -0.4206 -3.9376 0
M  V30 3381 H 329.758 -3.20916 -3.30681 0
M  V30 3382 H 328.073 -2.78432 -3.0962 0
M  V30 3383 H 330.67 -1.02249 -5.24832 0
M  V30 3384 H 331.013 0.293611 -4.15263 0
M  V30 3385 H 331.546 -1.35437 -3.74034 0
M  V30 3386 H 328.285 -3.95871 -5.22462 0
M  V30 3387 H 327.805 -2.27711 -5.54894 0
M  V30 3388 H 329.484 -2.79914 -5.83315 0
M  V30 3389 N 329.616 1.39756 -0.72842 0
M  V30 3390 C 330.893 1.94574 -0.200079 0
M  V30 3391 C 331.273 1.66569 1.29684 0
M  V30 3392 O 330.621 0.990326 2.05924 0
M  V30 3393 C 330.831 3.45004 -0.526608 0
M  V30 3394 C 332.179 4.21965 -0.472318 0
M  V30 3395 O 333.203 3.53173 -0.463413 0
M  V30 3396 O 332.062 5.44552 -0.461075 0
M  V30 3397 H 329.156 0.826289 -0.0342851 0
M  V30 3398 H 331.702 1.49293 -0.806829 0
M  V30 3399 H 330.474 3.58796 -1.56144 0
M  V30 3400 H 330.097 3.97449 0.109449 0
M  V30 3401 N 331.094 0.475555 1.50254 0
M  V30 3402 C 332.322 -0.0754493 2.06762 0
M  V30 3403 C 332.737 -1.33111 1.33891 0
M  V30 3404 O 332.094 -1.77846 0.40952 0
M  V30 3405 C 332.145 -0.359008 3.59713 0
M  V30 3406 O 331.866 0.846851 4.29837 0
M  V30 3407 C 333.367 -0.956484 4.32858 0
M  V30 3408 H 330.587 0.00907525 0.670939 0
M  V30 3409 H 333.131 0.665618 1.93364 0
M  V30 3410 H 331.286 -1.05001 3.72899 0
M  V30 3411 H 331.7 0.594162 5.21124 0
M  V30 3412 H 333.174 -1.10463 5.40834 0
M  V30 3413 H 333.651 -1.94775 3.93649 0
M  V30 3414 H 334.257 -0.303723 4.24214 0
M  V30 3415 N 332.573 -1.56217 0.208337 0
M  V30 3416 C 333.822 -1.97124 -0.427204 0
M  V30 3417 C 334.135 -1.09859 -1.61835 0
M  V30 3418 O 335.341 -1.40606 -2.32255 0
M  V30 3419 C 333.797 -3.50633 -0.811442 0
M  V30 3420 C 333.405 -4.46582 0.35615 0
M  V30 3421 C 335.149 -4.00282 -1.41332 0
M  V30 3422 C 333.056 -5.91379 -0.0497852 0
M  V30 3423 H 331.986 -0.736086 -0.163381 0
M  V30 3424 H 334.637 -1.8099 0.302456 0
M  V30 3425 H 333.019 -3.62319 -1.59815 0
M  V30 3426 H 334.193 -4.46636 1.1337 0
M  V30 3427 H 332.508 -4.07202 0.870396 0
M  V30 3428 H 335.105 -5.0595 -1.72972 0
M  V30 3429 H 335.448 -3.45359 -2.32449 0
M  V30 3430 H 335.981 -3.91764 -0.690323 0
M  V30 3431 H 332.72 -6.50255 0.827529 0
M  V30 3432 H 332.24 -5.94549 -0.791926 0
M  V30 3433 H 333.919 -6.45209 -0.481042 0
M  V30 3434 N 334.051 0.0651679 -1.57465 0
M  V30 3435 C 335.3 0.761916 -1.86756 0
M  V30 3436 C 335.613 1.78406 -0.801925 0
M  V30 3437 O 336.819 2.53084 -0.982885 0
M  V30 3438 C 335.275 1.40603 -3.31299 0
M  V30 3439 C 334.883 0.422115 -4.46007 0
M  V30 3440 C 336.627 2.08476 -3.69781 0
M  V30 3441 C 334.534 1.07252 -5.81593 0
M  V30 3442 H 333.464 0.288308 -0.696702 0
M  V30 3443 H 336.115 0.015344 -1.83494 0
M  V30 3444 H 334.497 2.20109 -3.29193 0
M  V30 3445 H 335.671 -0.343613 -4.59517 0
M  V30 3446 H 333.986 -0.152527 -4.16121 0
M  V30 3447 H 336.583 2.57925 -4.68379 0
M  V30 3448 H 336.926 2.88712 -2.99919 0
M  V30 3449 H 337.459 1.35792 -3.73905 0
M  V30 3450 H 334.198 0.310342 -6.54765 0
M  V30 3451 H 333.718 1.80895 -5.71872 0
M  V30 3452 H 335.397 1.59043 -6.27148 0
M  V30 3453 N 335.529 1.53961 0.336706 0
M  V30 3454 C 336.477 1.83136 1.43401 0
M  V30 3455 C 337.471 0.702313 1.54156 0
M  V30 3456 O 338.677 0.885765 1.56698 0
M  V30 3457 H 335.052 0.580309 0.478273 0
M  V30 3458 H 337.023 2.74925 1.16012 0
M  V30 3459 C 335.772 2.06385 2.79822 0
M  V30 3460 H 335.095 2.92718 2.72316 0
M  V30 3461 H 336.535 2.30761 3.55704 0
M  V30 3462 C 334.994 0.851414 3.25964 0
M  V30 3463 O 335.524 0.0541904 4.01663 0
M  V30 3464 N 333.73 0.66672 2.82848 0
M  V30 3465 H 333.277 1.31665 2.21409 0
M  V30 3466 H 333.235 -0.143032 3.14074 0
M  V30 3467 N 337.007 -0.598083 1.45811 0
M  V30 3468 C 337.939 -1.72231 1.51225 0
M  V30 3469 C 338.952 -1.57757 0.402059 0
M  V30 3470 O 340.141 -1.65464 0.669624 0
M  V30 3471 C 337.241 -3.10331 1.3619 0
M  V30 3472 C 336.414 -3.50955 2.61054 0
M  V30 3473 C 335.473 -4.68055 2.40439 0
M  V30 3474 O 334.499 -4.74691 3.14097 0
M  V30 3475 N 335.701 -5.61941 1.45612 0
M  V30 3476 H 338.466 -1.68046 2.48154 0
M  V30 3477 H 336.027 -0.783637 1.41671 0
M  V30 3478 H 338.019 -3.86439 1.20195 0
M  V30 3479 H 336.589 -3.0897 0.475015 0
M  V30 3480 H 335.809 -2.64711 2.92099 0
M  V30 3481 H 337.097 -3.74858 3.44034 0
M  V30 3482 H 336.495 -5.59301 0.848431 0
M  V30 3483 H 335.052 -6.37542 1.35585 0
M  V30 3484 N 338.485 -1.33259 -0.841409 0
M  V30 3485 C 339.432 -1.23302 -1.95103 0
M  V30 3486 C 340.402 -0.112204 -1.65721 0
M  V30 3487 O 341.587 -0.290038 -1.88583 0
M  V30 3488 C 338.727 -0.975583 -3.31023 0
M  V30 3489 C 337.84 -2.18243 -3.72819 0
M  V30 3490 C 336.975 -1.85936 -4.97595 0
M  V30 3491 C 336.014 -3.02866 -5.3192 0
M  V30 3492 N 335.151 -2.70565 -6.47873 0
M  V30 3493 H 339.991 -2.18207 -2.02952 0
M  V30 3494 H 337.528 -1.0851 -0.993173 0
M  V30 3495 H 339.486 -0.80677 -4.09325 0
M  V30 3496 H 338.116 -0.0632755 -3.22738 0
M  V30 3497 H 337.168 -2.46107 -2.90061 0
M  V30 3498 H 338.48 -3.05666 -3.94169 0
M  V30 3499 H 337.634 -1.65684 -5.83638 0
M  V30 3500 H 336.373 -0.957452 -4.78209 0
M  V30 3501 H 335.378 -3.23736 -4.44382 0
M  V30 3502 H 336.603 -3.93809 -5.53255 0
M  V30 3503 H 334.549 -1.8293 -6.29978 0
M  V30 3504 H 334.466 -3.51519 -6.69306 0
M  V30 3505 H 335.734 -2.53774 -7.37034 0
M  V30 3506 N 339.963 1.05934 -1.16686 0
M  V30 3507 C 341.379 1.30938 -0.912542 0
M  V30 3508 C 341.579 1.96803 0.432533 0
M  V30 3509 O 340.635 2.23693 1.17123 0
M  V30 3510 C 341.948 2.18649 -2.06429 0
M  V30 3511 C 343.496 2.32055 -2.10047 0
M  V30 3512 C 343.971 3.23122 -3.24586 0
M  V30 3513 N 345.462 3.30706 -3.24327 0
M  V30 3514 C 346.197 4.01273 -4.09594 0
M  V30 3515 N 345.693 4.74332 -5.04956 0
M  V30 3516 N 347.486 3.97361 -3.97569 0
M  V30 3517 H 339.637 0.615777 -2.03278 0
M  V30 3518 H 341.9 0.334077 -0.887185 0
M  V30 3519 H 341.606 1.77534 -3.03603 0
M  V30 3520 H 341.48 3.19252 -2.00894 0
M  V30 3521 H 343.867 2.72415 -1.13464 0
M  V30 3522 H 343.948 1.31107 -2.19647 0
M  V30 3523 H 343.592 2.83477 -4.2143 0
M  V30 3524 H 343.522 4.24057 -3.12223 0
M  V30 3525 H 346.013 2.78644 -2.55276 0
M  V30 3526 H 346.326 5.25716 -5.6643 0
M  V30 3527 H 344.671 4.733 -5.08933 0
M  V30 3528 H 347.862 3.39405 -3.22369 0
M  V30 3529 H 348.035 4.52089 -4.64241 0
M  V30 3530 N 341.441 0.965919 1.2453 0
M  V30 3531 C 342.688 0.626831 1.92554 0
M  V30 3532 C 343.016 -0.837739 1.75534 0
M  V30 3533 O 342.271 -1.61793 1.10098 0
M  V30 3534 C 342.57 0.945428 3.44669 0
M  V30 3535 C 342.236 2.39785 3.81856 0
M  V30 3536 C 340.898 2.79483 3.91718 0
M  V30 3537 C 343.25 3.34055 4.00071 0
M  V30 3538 C 340.578 4.12496 4.1721 0
M  V30 3539 C 342.93 4.66694 4.27059 0
M  V30 3540 C 341.594 5.06172 4.3514 0
M  V30 3541 H 340.864 0.229374 0.704605 0
M  V30 3542 H 343.511 1.21707 1.4785 0
M  V30 3543 H 341.816 0.272926 3.90848 0
M  V30 3544 H 343.513 0.661484 3.95507 0
M  V30 3545 H 340.103 2.08003 3.74743 0
M  V30 3546 H 344.287 3.04571 3.91855 0
M  V30 3547 H 339.543 4.42709 4.21685 0
M  V30 3548 H 343.717 5.3971 4.40097 0
M  V30 3549 H 341.344 6.09262 4.54646 0
M  V30 3550 N 342.919 -1.39368 0.735821 0
M  V30 3551 C 343.867 -2.32443 0.0855131 0
M  V30 3552 C 344.861 -1.53104 -0.724954 0
M  V30 3553 O 346.067 -1.68762 -0.626047 0
M  V30 3554 H 342.442 -0.751948 0.00885257 0
M  V30 3555 H 344.413 -2.84916 0.886883 0
M  V30 3556 C 343.162 -3.38206 -0.806983 0
M  V30 3557 H 342.485 -3.99335 -0.19274 0
M  V30 3558 H 343.925 -4.05779 -1.2296 0
M  V30 3559 C 342.384 -2.75321 -1.94165 0
M  V30 3560 O 342.914 -2.63231 -3.03435 0
M  V30 3561 N 341.12 -2.33396 -1.73132 0
M  V30 3562 H 340.667 -2.4343 -0.842596 0
M  V30 3563 H 340.625 -1.91661 -2.49225 0
M  V30 3564 N 344.397 -0.483516 -1.5 0
M  V30 3565 C 345.674 0.129337 -1.95172 0
M  V30 3566 C 346.054 1.55802 -1.4244 0
M  V30 3567 O 345.402 2.19625 -0.630649 0
M  V30 3568 C 345.612 0.0599251 -3.48949 0
M  V30 3569 C 346.96 0.242617 -4.23906 0
M  V30 3570 O 347.984 0.135933 -3.55941 0
M  V30 3571 O 346.843 0.459454 -5.44565 0
M  V30 3572 H 343.937 0.104887 -0.820322 0
M  V30 3573 H 346.483 -0.544807 -1.60717 0
M  V30 3574 H 345.255 -0.937079 -3.79914 0
M  V30 3575 H 344.878 0.774984 -3.89974 0
M  V30 3576 N 345.875 1.56104 -0.216619 0
M  V30 3577 C 347.123 1.97781 0.415593 0
M  V30 3578 C 347.444 1.10536 1.60645 0
M  V30 3579 O 346.714 0.181303 1.95059 0
M  V30 3580 H 345.294 0.730415 0.156534 0
M  V30 3581 H 347.956 1.92445 -0.308366 0
M  V30 3582 H 347.052 3.03072 0.74525 0
M  V30 3583 N 347.353 -0.0568162 1.57498 0
M  V30 3584 C 348.578 -0.769402 1.92601 0
M  V30 3585 C 349.003 -1.69559 0.814336 0
M  V30 3586 O 348.361 -1.79811 -0.231903 0
M  V30 3587 C 348.409 -1.52634 3.26704 0
M  V30 3588 O 347.513 -2.63797 3.16994 0
M  V30 3589 H 346.854 -0.208909 0.63028 0
M  V30 3590 H 349.384 -0.0205798 2.0459 0
M  V30 3591 H 349.394 -1.90234 3.60936 0
M  V30 3592 H 348.069 -0.846875 4.07186 0
M  V30 3593 H 346.646 -2.28943 2.94346 0
M  V30 3594 N 348.832 -1.54138 -0.328536 0
M  V30 3595 C 350.109 -1.62749 -1.08499 0
M  V30 3596 C 350.489 -0.458198 -2.06067 0
M  V30 3597 O 349.837 0.548046 -2.2183 0
M  V30 3598 C 350.047 -2.99519 -1.79135 0
M  V30 3599 C 351.395 -3.55394 -2.32337 0
M  V30 3600 O 352.419 -3.01792 -1.89209 0
M  V30 3601 O 351.278 -4.49186 -3.11279 0
M  V30 3602 H 348.372 -0.65886 -0.499832 0
M  V30 3603 H 350.918 -1.66484 -0.328826 0
M  V30 3604 H 349.69 -3.76061 -1.08139 0
M  V30 3605 H 349.313 -2.99441 -2.61574 0
M  V30 3606 N 350.31 0.590341 -1.46126 0
M  V30 3607 C 351.22 1.72793 -1.58681 0
M  V30 3608 C 352.236 1.67516 -0.470566 0
M  V30 3609 O 353.412 1.87562 -0.733642 0
M  V30 3610 C 350.477 3.09287 -1.5666 0
M  V30 3611 C 349.538 3.25886 -2.79458 0
M  V30 3612 C 348.771 4.55869 -2.77524 0
M  V30 3613 O 348.994 5.3928 -1.85832 0
M  V30 3614 O 347.928 4.75552 -3.68964 0
M  V30 3615 H 351.754 1.65149 -2.54872 0
M  V30 3616 H 349.339 0.756486 -1.28832 0
M  V30 3617 H 351.221 3.90577 -1.58202 0
M  V30 3618 H 349.896 3.17385 -0.636271 0
M  V30 3619 H 348.803 2.44119 -2.83472 0
M  V30 3620 H 350.136 3.22675 -3.71674 0
M  V30 3621 N 351.788 1.33704 0.83433 0
M  V30 3622 C 352.735 1.24335 1.94447 0
M  V30 3623 C 353.705 0.120991 1.65659 0
M  V30 3624 O 354.89 0.300035 1.88426 0
M  V30 3625 C 352.03 0.993124 3.30501 0
M  V30 3626 C 351.143 2.20217 3.71657 0
M  V30 3627 C 350.278 1.88572 4.96602 0
M  V30 3628 C 349.317 3.05683 5.30306 0
M  V30 3629 N 348.454 2.73997 6.46429 0
M  V30 3630 H 353.294 2.1928 2.01792 0
M  V30 3631 H 350.831 1.09035 0.987404 0
M  V30 3632 H 352.789 0.828467 4.08892 0
M  V30 3633 H 351.419 0.0803902 3.227 0
M  V30 3634 H 350.471 2.47642 2.88752 0
M  V30 3635 H 351.783 3.07752 3.92543 0
M  V30 3636 H 350.937 1.68776 5.82752 0
M  V30 3637 H 349.676 0.982799 4.77695 0
M  V30 3638 H 348.681 3.26088 4.42659 0
M  V30 3639 H 349.906 3.96737 5.51159 0
M  V30 3640 H 347.852 1.86268 6.28999 0
M  V30 3641 H 347.769 3.55064 6.67432 0
M  V30 3642 H 349.037 2.57679 7.35678 0
M  V30 3643 N 353.266 -1.05314 1.17247 0
M  V30 3644 C 354.213 -2.13031 0.888058 0
M  V30 3645 C 355.183 -1.65253 -0.167537 0
M  V30 3646 O 356.368 -1.90775 -0.0305974 0
M  V30 3647 C 353.508 -3.42702 0.406147 0
M  V30 3648 C 352.621 -4.04161 1.52572 0
M  V30 3649 C 351.756 -5.21744 0.997808 0
M  V30 3650 C 350.795 -5.75207 2.09291 0
M  V30 3651 N 349.932 -6.84094 1.57986 0
M  V30 3652 H 354.772 -2.36698 1.81048 0
M  V30 3653 H 352.309 -1.16121 0.903013 0
M  V30 3654 H 354.267 -4.17059 0.108305 0
M  V30 3655 H 352.897 -3.19222 -0.479313 0
M  V30 3656 H 351.949 -3.27253 1.93931 0
M  V30 3657 H 353.261 -4.39881 2.35172 0
M  V30 3658 H 352.415 -6.03168 0.653739 0
M  V30 3659 H 351.154 -4.87495 0.141232 0
M  V30 3660 H 350.159 -4.92414 2.44557 0
M  V30 3661 H 351.384 -6.11505 2.95362 0
M  V30 3662 H 349.33 -6.51745 0.74598 0
M  V30 3663 H 349.247 -7.18811 2.34195 0
M  V30 3664 H 350.515 -7.69172 1.26468 0
M  V30 3665 N 354.744 -0.972509 -1.24016 0
M  V30 3666 C 355.691 -0.505969 -2.25186 0
M  V30 3667 C 356.661 0.451009 -1.5986 0
M  V30 3668 O 357.846 0.360307 -1.87367 0
M  V30 3669 C 354.986 0.193089 -3.44559 0
M  V30 3670 C 354.099 -0.803222 -4.24467 0
M  V30 3671 C 353.234 -0.0797793 -5.3114 0
M  V30 3672 C 352.273 -1.06583 -6.02749 0
M  V30 3673 N 351.41 -0.372074 -7.01113 0
M  V30 3674 H 356.25 -1.37351 -2.64459 0
M  V30 3675 H 353.787 -0.688419 -1.29997 0
M  V30 3676 H 355.745 0.615125 -4.1264 0
M  V30 3677 H 354.375 1.02455 -3.06109 0
M  V30 3678 H 353.427 -1.34368 -3.55878 0
M  V30 3679 H 354.739 -1.55494 -4.73944 0
M  V30 3680 H 353.893 0.400015 -6.0538 0
M  V30 3681 H 352.632 0.704597 -4.82583 0
M  V30 3682 H 351.637 -1.55645 -5.27309 0
M  V30 3683 H 352.862 -1.85074 -6.53395 0
M  V30 3684 H 350.808 0.393238 -6.5482 0
M  V30 3685 H 350.725 -1.06258 -7.48495 0
M  V30 3686 H 351.993 0.0855932 -7.79453 0
M  V30 3687 N 356.222 1.38976 -0.743202 0
M  V30 3688 C 357.152 2.33171 -0.123873 0
M  V30 3689 C 358.133 1.54336 0.71516 0
M  V30 3690 O 359.318 1.82696 0.658467 0
M  V30 3691 C 356.448 3.38474 0.777978 0
M  V30 3692 C 355.402 4.27979 0.0424758 0
M  V30 3693 C 354.728 5.2405 1.06189 0
M  V30 3694 C 356.028 5.10155 -1.1198 0
M  V30 3695 H 357.722 2.85213 -0.910709 0
M  V30 3696 H 355.268 1.37133 -0.439388 0
M  V30 3697 H 357.221 4.03328 1.22084 0
M  V30 3698 H 355.945 2.84891 1.59702 0
M  V30 3699 H 354.604 3.64616 -0.380853 0
M  V30 3700 H 354.252 4.66758 1.87472 0
M  V30 3701 H 353.952 5.84785 0.574485 0
M  V30 3702 H 355.476 5.9178 1.50428 0
M  V30 3703 H 356.89 5.68307 -0.75499 0
M  V30 3704 H 355.287 5.80073 -1.53738 0
M  V30 3705 H 356.357 4.44504 -1.93764 0
M  V30 3706 N 357.7 0.491464 1.49741 0
M  V30 3707 C 358.93 -0.0534375 2.06531 0
M  V30 3708 C 359.338 -1.32233 1.35318 0
M  V30 3709 O 358.681 -1.78781 0.422243 0
M  V30 3710 C 358.743 -0.387034 3.57411 0
M  V30 3711 C 358.407 0.782764 4.50246 0
M  V30 3712 C 359.404 1.67059 4.92329 0
M  V30 3713 C 357.089 0.978866 4.9267 0
M  V30 3714 C 359.083 2.73874 5.75562 0
M  V30 3715 C 356.77 2.05022 5.75682 0
M  V30 3716 C 357.768 2.92851 6.17031 0
M  V30 3717 O 357.456 3.98138 6.98385 0
M  V30 3718 H 357.188 0.0129324 0.675876 0
M  V30 3719 H 359.742 0.685238 1.93633 0
M  V30 3720 H 357.972 -1.17918 3.68283 0
M  V30 3721 H 359.661 -0.869419 3.96479 0
M  V30 3722 H 360.427 1.53086 4.60206 0
M  V30 3723 H 356.306 0.304646 4.59992 0
M  V30 3724 H 359.85 3.42458 6.07757 0
M  V30 3725 H 355.747 2.18993 6.07217 0
M  V30 3726 H 356.515 3.95374 7.16674 0
M  V30 3727 N 359.178 -1.55987 0.224894 0
M  V30 3728 C 360.418 -2.00293 -0.407706 0
M  V30 3729 C 360.782 -1.1093 -1.56711 0
M  V30 3730 O 361.983 -1.44597 -2.26595 0
M  V30 3731 C 360.254 -3.47675 -0.82805 0
M  V30 3732 S 361.813 -4.14 -1.45429 0
M  V30 3733 H 358.631 -0.699152 -0.129256 0
M  V30 3734 H 361.233 -1.92609 0.334967 0
M  V30 3735 H 359.937 -4.10392 0.0253964 0
M  V30 3736 H 359.468 -3.59239 -1.60345 0
M  V30 3737 H 361.483 -4.13465 -2.74337 0
M  V30 3738 N 360.656 0.0484629 -1.57525 0
M  V30 3739 C 361.905 0.742065 -1.87553 0
M  V30 3740 C 362.218 1.77545 -0.820802 0
M  V30 3741 O 363.424 2.52027 -1.00967 0
M  V30 3742 C 361.88 1.37081 -3.32771 0
M  V30 3743 C 361.488 0.374786 -4.4643 0
M  V30 3744 C 363.232 2.04542 -3.71972 0
M  V30 3745 C 361.139 1.01077 -5.82698 0
M  V30 3746 H 360.069 0.280903 -0.699721 0
M  V30 3747 H 362.72 -0.00411877 -1.835 0
M  V30 3748 H 361.102 2.16605 -3.31509 0
M  V30 3749 H 362.276 -0.392331 -4.59127 0
M  V30 3750 H 360.591 -0.196653 -4.15935 0
M  V30 3751 H 363.188 2.52943 -4.71088 0
M  V30 3752 H 363.531 2.85515 -3.02964 0
M  V30 3753 H 364.064 1.31819 -3.75325 0
M  V30 3754 H 360.803 0.240878 -6.55057 0
M  V30 3755 H 360.323 1.74819 -5.73758 0
M  V30 3756 H 362.002 1.52383 -6.28799 0
M  V30 3757 N 362.134 1.5431 0.320358 0
M  V30 3758 C 363.364 1.7638 1.07582 0
M  V30 3759 C 363.772 0.513944 1.82086 0
M  V30 3760 O 363.115 -0.525123 1.76035 0
M  V30 3761 C 363.177 2.9055 2.1171 0
M  V30 3762 C 362.841 4.2934 1.56575 0
M  V30 3763 C 363.838 5.10077 1.00586 0
M  V30 3764 C 361.523 4.75893 1.60722 0
M  V30 3765 C 363.517 6.35477 0.494756 0
M  V30 3766 C 361.204 6.0126 1.09224 0
M  V30 3767 C 362.202 6.80886 0.53696 0
M  V30 3768 O 361.89 8.03894 0.0297371 0
M  V30 3769 H 361.622 0.592369 0.325692 0
M  V30 3770 H 364.176 2.02019 0.37116 0
M  V30 3771 H 362.406 2.60489 2.85801 0
M  V30 3772 H 364.095 3.00373 2.73003 0
M  V30 3773 H 364.861 4.75265 0.966869 0
M  V30 3774 H 360.74 4.13957 2.02882 0
M  V30 3775 H 364.284 6.97574 0.0606842 0
M  V30 3776 H 360.181 6.35562 1.12831 0
M  V30 3777 H 360.949 8.18372 0.14486 0
M  V30 3778 N 363.613 -0.582584 1.46437 0
M  V30 3779 C 364.859 -1.34278 1.51978 0
M  V30 3780 C 365.192 -1.93446 0.170973 0
M  V30 3781 O 364.467 -1.76481 -0.817608 0
M  V30 3782 C 364.75 -2.47203 2.61845 0
M  V30 3783 C 364.603 -1.93069 4.06257 0
M  V30 3784 C 365.922 -3.49247 2.67795 0
M  V30 3785 H 363.041 -0.486876 0.553282 0
M  V30 3786 H 365.683 -0.654437 1.78374 0
M  V30 3787 H 363.833 -3.0592 2.39469 0
M  V30 3788 H 365.505 -1.38808 4.3992 0
M  V30 3789 H 363.748 -1.23898 4.1573 0
M  V30 3790 H 364.419 -2.74586 4.7886 0
M  V30 3791 H 366.895 -3.00411 2.8791 0
M  V30 3792 H 365.771 -4.25719 3.46489 0
M  V30 3793 H 366.032 -4.06482 1.73852 0
M  V30 3794 N 365.091 -1.34144 -0.827227 0
M  V30 3795 C 366.054 -1.25264 -1.91942 0
M  V30 3796 C 367.054 -0.168866 -1.59911 0
M  V30 3797 O 368.244 -0.421198 -1.69031 0
M  V30 3798 C 365.376 -0.932952 -3.27885 0
M  V30 3799 H 366.569 -2.22357 -2.0124 0
M  V30 3800 H 364.122 -1.1837 -1.0207 0
M  V30 3801 H 364.857 0.0349917 -3.24281 0
M  V30 3802 H 364.642 -1.71682 -3.52516 0
M  V30 3803 H 366.132 -0.895874 -4.07877 0
M  V30 3804 N 366.569 1.04691 -1.17803 0
M  V30 3805 C 367.818 1.77176 -0.963931 0
M  V30 3806 C 368.131 1.88888 0.508015 0
M  V30 3807 O 369.337 2.58164 0.840465 0
M  V30 3808 C 367.793 3.18518 -1.67555 0
M  V30 3809 C 367.401 3.14919 -3.18637 0
M  V30 3810 C 369.145 3.95424 -1.54402 0
M  V30 3811 C 367.052 4.51081 -3.82466 0
M  V30 3812 H 365.982 0.664116 -0.357023 0
M  V30 3813 H 368.633 1.17303 -1.4111 0
M  V30 3814 H 367.015 3.78748 -1.15613 0
M  V30 3815 H 368.189 2.64178 -3.77554 0
M  V30 3816 H 366.504 2.51512 -3.31859 0
M  V30 3817 H 369.101 4.96106 -1.99456 0
M  V30 3818 H 369.444 4.13343 -0.495329 0
M  V30 3819 H 369.977 3.41754 -2.0359 0
M  V30 3820 H 366.716 4.38368 -4.87354 0
M  V30 3821 H 366.236 5.01951 -3.28337 0
M  V30 3822 H 367.915 5.2001 -3.84965 0
M  V30 3823 N 368.047 0.979072 1.23499 0
M  V30 3824 C 369.295 0.645941 1.91499 0
M  V30 3825 C 369.616 -0.822948 1.76784 0
M  V30 3826 O 368.886 -1.58854 1.14639 0
M  V30 3827 H 367.466 0.235919 0.708767 0
M  V30 3828 H 370.128 1.2426 1.50152 0
M  V30 3829 H 369.224 0.896411 2.9895 0
M  V30 3830 N 369.525 -1.3858 0.750561 0
M  V30 3831 C 370.457 -2.29057 0.0810714 0
M  V30 3832 C 371.47 -1.47596 -0.686973 0
M  V30 3833 O 372.659 -1.70495 -0.528563 0
M  V30 3834 C 369.759 -3.26475 -0.909247 0
M  V30 3835 C 368.932 -4.36945 -0.199478 0
M  V30 3836 C 367.991 -5.14572 -1.10011 0
M  V30 3837 O 367.017 -5.66321 -0.57177 0
M  V30 3838 N 368.219 -5.27262 -2.42849 0
M  V30 3839 H 370.984 -2.87153 0.858087 0
M  V30 3840 H 368.545 -1.50328 0.60109 0
M  V30 3841 H 370.537 -3.75285 -1.51471 0
M  V30 3842 H 369.107 -2.69298 -1.58736 0
M  V30 3843 H 368.327 -3.8981 0.586664 0
M  V30 3844 H 369.615 -5.07963 0.291783 0
M  V30 3845 H 369.013 -4.86763 -2.88233 0
M  V30 3846 H 367.57 -5.79456 -2.98453 0
M  V30 3847 N 371.003 -0.499398 -1.49478 0
M  V30 3848 C 371.95 0.279881 -2.29097 0
M  V30 3849 C 372.92 0.961805 -1.3542 0
M  V30 3850 O 374.105 0.968777 -1.64376 0
M  V30 3851 C 371.245 1.33932 -3.18051 0
M  V30 3852 C 370.358 0.669333 -4.26783 0
M  V30 3853 C 369.493 1.70907 -5.02955 0
M  V30 3854 C 368.532 1.02087 -6.03527 0
M  V30 3855 N 367.669 2.00474 -6.7287 0
M  V30 3856 H 372.509 -0.405317 -2.95231 0
M  V30 3857 H 370.046 -0.211726 -1.45568 0
M  V30 3858 H 372.004 1.96553 -3.67998 0
M  V30 3859 H 370.634 1.9933 -2.53904 0
M  V30 3860 H 369.686 -0.0701234 -3.80335 0
M  V30 3861 H 370.998 0.127503 -4.98637 0
M  V30 3862 H 370.152 2.41037 -5.56764 0
M  V30 3863 H 368.891 2.28476 -4.30871 0
M  V30 3864 H 367.896 0.305338 -5.48951 0
M  V30 3865 H 369.121 0.451708 -6.77596 0
M  V30 3866 H 367.067 2.57007 -6.03559 0
M  V30 3867 H 366.984 1.51353 -7.40694 0
M  V30 3868 H 368.252 2.69897 -7.31284 0
M  V30 3869 N 372.481 1.55866 -0.233164 0
M  V30 3870 C 373.897 1.59133 0.121988 0
M  V30 3871 C 374.097 1.25016 1.58029 0
M  V30 3872 O 373.153 0.990922 2.32243 0
M  V30 3873 C 374.466 2.99932 -0.214792 0
M  V30 3874 C 376.014 3.12601 -0.157971 0
M  V30 3875 C 376.489 4.55597 -0.46859 0
M  V30 3876 N 377.98 4.61305 -0.418585 0
M  V30 3877 C 378.715 5.69903 -0.63227 0
M  V30 3878 N 378.211 6.86819 -0.90835 0
M  V30 3879 N 380.004 5.59264 -0.563913 0
M  V30 3880 H 372.155 1.76315 -1.18434 0
M  V30 3881 H 374.418 0.820093 -0.475553 0
M  V30 3882 H 374.124 3.29588 -1.22739 0
M  V30 3883 H 373.998 3.74327 0.464691 0
M  V30 3884 H 376.385 2.82735 0.845283 0
M  V30 3885 H 376.466 2.40511 -0.871102 0
M  V30 3886 H 376.11 4.86182 -1.46934 0
M  V30 3887 H 376.04 5.25928 0.265865 0
M  V30 3888 H 378.531 3.77297 -0.213368 0
M  V30 3889 H 378.844 7.65507 -1.05919 0
M  V30 3890 H 377.189 6.88536 -0.945673 0
M  V30 3891 H 380.38 4.66802 -0.348372 0
M  V30 3892 H 380.553 6.43831 -0.733847 0
M  V30 3893 N 373.959 -0.0401083 1.57549 0
M  V30 3894 C 375.184 -0.748931 1.93406 0
M  V30 3895 C 375.609 -1.68686 0.832274 0
M  V30 3896 O 374.967 -1.80047 -0.212818 0
M  V30 3897 C 375.015 -1.4916 3.28304 0
M  V30 3898 O 374.119 -2.6042 3.19774 0
M  V30 3899 H 373.46 -0.202212 0.63246 0
M  V30 3900 H 375.99 0.00112086 2.046 0
M  V30 3901 H 376 -1.86395 3.62934 0
M  V30 3902 H 374.675 -0.80364 4.08062 0
M  V30 3903 H 373.252 -2.25808 2.96758 0
M  V30 3904 N 375.437 -1.54477 -0.31217 0
M  V30 3905 C 376.665 -1.77205 -1.068 0
M  V30 3906 C 377.08 -0.526114 -1.81321 0
M  V30 3907 O 376.437 0.503647 -1.75413 0
M  V30 3908 C 376.488 -2.97253 -2.05725 0
M  V30 3909 O 376.209 -4.1703 -1.34228 0
M  V30 3910 C 377.71 -3.32281 -2.93435 0
M  V30 3911 H 374.93 -0.591287 -0.317208 0
M  V30 3912 H 377.474 -2.01398 -0.354834 0
M  V30 3913 H 375.629 -2.753 -2.72559 0
M  V30 3914 H 376.043 -4.84636 -2.00571 0
M  V30 3915 H 377.517 -4.19551 -3.58721 0
M  V30 3916 H 377.994 -2.49945 -3.61143 0
M  V30 3917 H 378.6 -3.56353 -2.32147 0
M  V30 3918 N 376.915 0.57481 -1.46744 0
M  V30 3919 C 378.161 1.3347 -1.52688 0
M  V30 3920 C 378.494 1.93353 -0.181229 0
M  V30 3921 O 377.769 1.76912 0.808237 0
M  V30 3922 C 378.052 2.45811 -2.63152 0
M  V30 3923 C 377.905 1.90912 -4.07275 0
M  V30 3924 C 379.224 3.47822 -2.69644 0
M  V30 3925 H 376.343 0.483935 -0.555856 0
M  V30 3926 H 378.985 0.644968 -1.78718 0
M  V30 3927 H 377.135 3.04646 -2.41088 0
M  V30 3928 H 378.807 1.36473 -4.4065 0
M  V30 3929 H 377.05 1.21691 -4.16382 0
M  V30 3930 H 377.721 2.72042 -4.80309 0
M  V30 3931 H 380.197 2.9888 -2.895 0
M  V30 3932 H 379.073 4.23876 -3.48742 0
M  V30 3933 H 379.334 4.05555 -1.76005 0
M  V30 3934 N 378.394 1.34581 0.820102 0
M  V30 3935 C 379.357 1.2628 1.91275 0
M  V30 3936 C 380.357 0.177344 1.59819 0
M  V30 3937 O 381.547 0.430156 1.68806 0
M  V30 3938 C 378.679 0.950327 3.27386 0
M  V30 3939 H 379.872 2.23421 2.00057 0
M  V30 3940 H 377.425 1.1891 1.0144 0
M  V30 3941 H 378.16 -0.0177938 3.24295 0
M  V30 3942 H 377.945 1.73549 3.51601 0
M  V30 3943 H 379.435 0.917492 4.07396 0
M  V30 3944 N 379.872 -1.04064 1.18357 0
M  V30 3945 C 380.804 -2.12114 0.868358 0
M  V30 3946 C 381.817 -1.62247 -0.134045 0
M  V30 3947 O 383.006 -1.78253 0.0937933 0
M  V30 3948 C 380.106 -3.37773 0.276132 0
M  V30 3949 C 379.279 -4.16874 1.3242 0
M  V30 3950 C 378.338 -5.20861 0.747662 0
M  V30 3951 O 377.364 -5.51141 1.42239 0
M  V30 3952 N 378.566 -5.78715 -0.454823 0
M  V30 3953 H 381.331 -2.39748 1.79836 0
M  V30 3954 H 378.892 -1.20258 1.08396 0
M  V30 3955 H 380.884 -4.04513 -0.123133 0
M  V30 3956 H 379.454 -3.07581 -0.557895 0
M  V30 3957 H 378.674 -3.45456 1.89878 0
M  V30 3958 H 379.962 -4.66516 2.03078 0
M  V30 3959 H 379.36 -5.56415 -1.02073 0
M  V30 3960 H 377.917 -6.46921 -0.79601 0
M  V30 3961 N 381.35 -0.985608 -1.22978 0
M  V30 3962 C 382.28 -0.549649 -2.26939 0
M  V30 3963 C 383.261 0.419803 -1.64838 0
M  V30 3964 O 384.446 0.31203 -1.91677 0
M  V30 3965 C 381.576 0.143652 -3.47003 0
M  V30 3966 C 380.53 -0.743606 -4.21491 0
M  V30 3967 C 379.856 0.0822027 -5.34637 0
M  V30 3968 C 381.156 -2.03694 -4.80943 0
M  V30 3969 H 382.85 -1.41862 -2.63658 0
M  V30 3970 H 380.396 -0.683571 -1.26741 0
M  V30 3971 H 382.349 0.459985 -4.18882 0
M  V30 3972 H 381.073 1.04711 -3.09359 0
M  V30 3973 H 379.732 -1.04347 -3.51436 0
M  V30 3974 H 379.38 0.986359 -4.93234 0
M  V30 3975 H 379.08 -0.508377 -5.85397 0
M  V30 3976 H 380.604 0.392797 -6.09335 0
M  V30 3977 H 382.018 -1.78504 -5.44802 0
M  V30 3978 H 380.415 -2.57573 -5.42011 0
M  V30 3979 H 381.485 -2.72042 -4.01399 0
M  V30 3980 N 382.828 1.3818 -0.7579 0
M  V30 3981 C 384.074 2.00316 -0.316453 0
M  V30 3982 C 384.407 1.60026 1.10025 0
M  V30 3983 O 383.682 0.839835 1.75434 0
M  V30 3984 C 383.965 3.57349 -0.444245 0
M  V30 3985 C 383.818 4.07591 -1.90236 0
M  V30 3986 C 385.137 4.3981 0.1598 0
M  V30 3987 H 382.256 0.727741 -0.116459 0
M  V30 3988 H 384.898 1.6406 -0.958352 0
M  V30 3989 H 383.048 3.88365 0.102233 0
M  V30 3990 H 384.72 3.87199 -2.50748 0
M  V30 3991 H 382.963 3.60297 -2.41595 0
M  V30 3992 H 383.634 5.16677 -1.94291 0
M  V30 3993 H 386.11 4.14971 -0.306314 0
M  V30 3994 H 384.986 5.48885 0.0401675 0
M  V30 3995 H 385.247 4.24102 1.24859 0
M  V30 3996 N 384.306 0.507319 1.49211 0
M  V30 3997 C 385.253 -0.267728 2.29242 0
M  V30 3998 C 386.223 -0.954609 1.35928 0
M  V30 3999 O 387.408 -0.960046 1.64887 0
M  V30 4000 C 384.548 -1.32243 3.18756 0
M  V30 4001 C 383.661 -0.64669 4.27132 0
M  V30 4002 C 382.796 -1.68238 5.03855 0
M  V30 4003 C 381.835 -0.98885 6.0406 0
M  V30 4004 N 380.972 -1.96903 6.73924 0
M  V30 4005 H 385.812 0.420968 2.95012 0
M  V30 4006 H 383.349 0.219443 1.45454 0
M  V30 4007 H 385.307 -1.94599 3.69036 0
M  V30 4008 H 383.937 -1.97981 2.54958 0
M  V30 4009 H 382.989 0.0902926 3.80293 0
M  V30 4010 H 384.301 -0.101058 4.98698 0
M  V30 4011 H 383.455 -2.38081 5.58034 0
M  V30 4012 H 382.194 -2.26187 4.32077 0
M  V30 4013 H 381.199 -0.276222 5.49106 0
M  V30 4014 H 382.424 -0.415767 6.77826 0
M  V30 4015 H 380.37 -2.53803 6.04913 0
M  V30 4016 H 380.287 -1.47423 7.41487 0
M  V30 4017 H 381.555 -2.66015 7.32705 0
M  V30 4018 N 385.784 -1.5574 0.241426 0
M  V30 4019 C 387.2 -1.59196 -0.113548 0
M  V30 4020 C 387.4 -1.25852 -1.57364 0
M  V30 4021 O 386.456 -1.00322 -2.31715 0
M  V30 4022 C 387.769 -2.99814 0.230695 0
M  V30 4023 C 389.317 -3.12513 0.174547 0
M  V30 4024 C 389.792 -4.55342 0.492744 0
M  V30 4025 N 391.283 -4.61076 0.443043 0
M  V30 4026 C 392.018 -5.6956 0.662484 0
M  V30 4027 N 391.514 -6.86328 0.944761 0
M  V30 4028 N 393.307 -5.58957 0.593564 0
M  V30 4029 H 385.458 -1.75685 1.19368 0
M  V30 4030 H 387.721 -0.81756 0.479896 0
M  V30 4031 H 387.427 -3.28932 1.24485 0
M  V30 4032 H 387.301 -3.74568 -0.444833 0
M  V30 4033 H 389.688 -2.83179 -0.830277 0
M  V30 4034 H 389.769 -2.40045 0.883845 0
M  V30 4035 H 389.413 -4.85396 1.4951 0
M  V30 4036 H 389.343 -5.26062 -0.23797 0
M  V30 4037 H 391.834 -3.77179 0.233374 0
M  V30 4038 H 392.147 -7.64935 1.09977 0
M  V30 4039 H 390.492 -6.88025 0.982175 0
M  V30 4040 H 393.683 -4.66611 0.373123 0
M  V30 4041 H 393.856 -6.43433 0.767981 0
M  V30 4042 N 387.262 0.0317525 -1.57568 0
M  V30 4043 C 388.192 1.03274 -2.0942 0
M  V30 4044 C 389.173 1.3788 -0.996143 0
M  V30 4045 O 390.358 1.46811 -1.27122 0
M  V30 4046 C 387.488 2.33448 -2.57137 0
M  V30 4047 C 386.442 2.13091 -3.71182 0
M  V30 4048 C 385.768 3.49001 -4.05095 0
M  V30 4049 C 387.068 1.51928 -4.99715 0
M  V30 4050 H 388.762 0.60112 -2.93303 0
M  V30 4051 H 386.308 0.287705 -1.41097 0
M  V30 4052 H 388.261 3.03802 -2.92032 0
M  V30 4053 H 386.985 2.78665 -1.70333 0
M  V30 4054 H 385.644 1.45171 -3.36632 0
M  V30 4055 H 385.292 3.91862 -3.15362 0
M  V30 4056 H 384.992 3.36207 -4.81911 0
M  V30 4057 H 386.516 4.20721 -4.42522 0
M  V30 4058 H 387.93 2.12196 -5.32584 0
M  V30 4059 H 386.327 1.49716 -5.81124 0
M  V30 4060 H 387.397 0.484811 -4.8247 0
M  V30 4061 N 388.74 1.54641 0.303973 0
M  V30 4062 C 389.968 1.77768 1.05858 0
M  V30 4063 C 390.383 0.535722 1.8104 0
M  V30 4064 O 389.74 -0.494337 1.75677 0
M  V30 4065 C 389.791 2.9834 2.04146 0
M  V30 4066 O 389.512 4.17736 1.32015 0
M  V30 4067 C 391.013 3.33832 2.91669 0
M  V30 4068 H 388.233 0.592961 0.314067 0
M  V30 4069 H 390.777 2.01583 0.344149 0
M  V30 4070 H 388.932 2.76742 2.71096 0
M  V30 4071 H 389.346 4.85693 1.97998 0
M  V30 4072 H 390.82 4.21448 3.56491 0
M  V30 4073 H 391.297 2.51857 3.59812 0
M  V30 4074 H 391.903 3.57579 2.30254 0
M  V30 4075 N 390.218 -0.567019 1.47046 0
M  V30 4076 C 391.495 -1.3276 1.43646 0
M  V30 4077 C 391.875 -2.1071 0.128186 0
M  V30 4078 O 391.223 -2.10441 -0.890326 0
M  V30 4079 C 391.433 -2.2404 2.67595 0
M  V30 4080 C 392.781 -2.85372 3.14401 0
M  V30 4081 O 393.805 -2.34346 2.68254 0
M  V30 4082 O 392.664 -3.78091 3.946 0
M  V30 4083 H 389.758 -0.597293 0.571988 0
M  V30 4084 H 392.304 -0.586735 1.59234 0
M  V30 4085 H 391.076 -1.65975 3.54356 0
M  V30 4086 H 390.699 -3.05439 2.54544 0
M  V30 4087 N 391.696 -1.35014 -0.812953 0
M  V30 4088 C 392.659 -1.27292 -1.90602 0
M  V30 4089 C 393.659 -0.185817 -1.59723 0
M  V30 4090 O 394.849 -0.439102 -1.68575 0
M  V30 4091 C 391.981 -0.967676 -3.26877 0
M  V30 4092 H 393.174 -2.24479 -1.9887 0
M  V30 4093 H 390.727 -1.19446 -1.00808 0
M  V30 4094 H 391.462 0.0005954 -3.243 0
M  V30 4095 H 391.247 -1.75412 -3.50675 0
M  V30 4096 H 392.737 -0.939085 -4.06904 0
M  V30 4097 N 393.175 1.03435 -1.18907 0
M  V30 4098 C 394.452 1.73778 -0.89781 0
M  V30 4099 C 394.832 2.02458 0.597832 0
M  V30 4100 O 394.18 1.67482 1.55441 0
M  V30 4101 C 394.39 3.01845 -1.75187 0
M  V30 4102 C 395.738 3.7546 -1.9828 0
M  V30 4103 O 396.762 3.11759 -1.72293 0
M  V30 4104 O 395.621 4.89966 -2.42065 0
M  V30 4105 H 392.715 0.75651 -0.334098 0
M  V30 4106 H 395.261 1.09444 -1.29693 0
M  V30 4107 H 394.033 2.76836 -2.76545 0
M  V30 4108 H 393.656 3.73919 -1.35167 0
M  V30 4109 N 394.653 0.992116 1.22453 0
M  V30 4110 C 395.616 0.546883 2.2258 0
M  V30 4111 C 396.616 -0.369829 1.56489 0
M  V30 4112 O 397.806 -0.161896 1.73446 0
M  V30 4113 C 394.938 -0.204659 3.40285 0
M  V30 4114 H 396.131 1.43234 2.63484 0
M  V30 4115 H 393.684 0.779239 1.3549 0
M  V30 4116 H 394.419 -1.10614 3.04853 0
M  V30 4117 H 394.204 0.45354 3.89468 0
M  V30 4118 H 395.694 -0.504358 4.14543 0
M  V30 4119 N 396.131 -1.37776 0.765217 0
M  V30 4120 C 397.064 -2.28008 0.0935025 0
M  V30 4121 C 398.042 -1.45985 -0.716047 0
M  V30 4122 O 399.226 -1.75331 -0.692203 0
M  V30 4123 C 396.353 -3.27228 -0.874052 0
M  V30 4124 C 395.399 -4.26239 -0.149307 0
M  V30 4125 S 396.232 -5.22827 1.15809 0
M  V30 4126 C 397.388 -6.256 0.193906 0
M  V30 4127 H 397.621 -2.84631 0.858637 0
M  V30 4128 H 395.154 -1.43952 0.558313 0
M  V30 4129 H 397.112 -3.84902 -1.42691 0
M  V30 4130 H 395.773 -2.69565 -1.61225 0
M  V30 4131 H 394.966 -4.96213 -0.88254 0
M  V30 4132 H 394.568 -3.7252 0.332366 0
M  V30 4133 H 396.86 -6.74508 -0.636011 0
M  V30 4134 H 397.803 -7.02838 0.861638 0
M  V30 4135 H 398.211 -5.64173 -0.191975 0
M  V30 4136 N 397.609 -0.515225 -1.4894 0
M  V30 4137 C 398.556 0.255567 -2.29381 0
M  V30 4138 C 399.526 0.947387 -1.36432 0
M  V30 4139 O 400.711 0.951288 -1.65394 0
M  V30 4140 C 397.851 1.30551 -3.19453 0
M  V30 4141 C 396.964 0.624029 -4.27469 0
M  V30 4142 C 396.099 1.65563 -5.0474 0
M  V30 4143 C 395.138 0.956802 -6.04576 0
M  V30 4144 N 394.275 1.93326 -6.74959 0
M  V30 4145 H 399.115 -0.436607 -2.94784 0
M  V30 4146 H 396.652 -0.227154 -1.45336 0
M  V30 4147 H 398.61 1.92639 -3.70062 0
M  V30 4148 H 397.24 1.96626 -2.56004 0
M  V30 4149 H 396.292 -0.110459 -3.8024 0
M  V30 4150 H 397.604 0.0746092 -4.98744 0
M  V30 4151 H 396.758 2.35119 -5.59289 0
M  V30 4152 H 395.497 2.23893 -4.3327 0
M  V30 4153 H 394.502 0.247097 -5.49244 0
M  V30 4154 H 395.727 0.379814 -6.78037 0
M  V30 4155 H 393.673 2.50591 -6.06251 0
M  V30 4156 H 393.59 1.43489 -7.42258 0
M  V30 4157 H 394.858 2.62126 -7.34105 0
M  V30 4158 N 399.087 1.5561 -0.249682 0
M  V30 4159 C 400.317 2.03116 0.377803 0
M  V30 4160 C 400.725 1.12822 1.51881 0
M  V30 4161 O 400.068 0.13562 1.83199 0
M  V30 4162 C 400.13 3.46866 0.944693 0
M  V30 4163 C 399.794 4.56955 -0.0644259 0
M  V30 4164 C 400.791 5.12485 -0.874957 0
M  V30 4165 C 398.476 5.01936 -0.19132 0
M  V30 4166 C 400.47 6.11491 -1.79881 0
M  V30 4167 C 398.157 6.00773 -1.11868 0
M  V30 4168 C 399.155 6.5543 -1.92095 0
M  V30 4169 O 398.843 7.5234 -2.83267 0
M  V30 4170 H 398.575 0.669489 0.0935961 0
M  V30 4171 H 401.129 2.02004 -0.371966 0
M  V30 4172 H 399.359 3.45136 1.74407 0
M  V30 4173 H 401.048 3.77856 1.48255 0
M  V30 4174 H 401.814 4.78564 -0.787523 0
M  V30 4175 H 397.693 4.59055 0.423072 0
M  V30 4176 H 401.237 6.54078 -2.42543 0
M  V30 4177 H 397.134 6.34114 -1.20703 0
M  V30 4178 H 397.902 7.69966 -2.7766 0
M  V30 4179 N 400.565 -0.0233959 1.57583 0
M  V30 4180 C 401.793 -0.724682 1.93794 0
M  V30 4181 C 402.208 -1.68588 0.849912 0
M  V30 4182 O 401.565 -1.81676 -0.173204 0
M  V30 4183 C 401.616 -1.47684 3.29957 0
M  V30 4184 O 401.337 -0.554222 4.3458 0
M  V30 4185 C 402.838 -2.27477 3.80485 0
M  V30 4186 H 400.058 -0.203317 0.639455 0
M  V30 4187 H 402.602 0.0207653 2.04489 0
M  V30 4188 H 400.757 -2.17412 3.20641 0
M  V30 4189 H 401.171 -1.08232 5.13212 0
M  V30 4190 H 402.645 -2.7564 4.78254 0
M  V30 4191 H 403.122 -3.09144 3.11972 0
M  V30 4192 H 403.728 -1.62813 3.92902 0
M  V30 4193 N 402.043 -1.548 -0.295768 0
M  V30 4194 C 403.292 -1.73538 -1.02798 0
M  V30 4195 C 403.605 -0.531159 -1.8825 0
M  V30 4196 O 404.811 -0.600458 -2.64777 0
M  V30 4197 C 403.267 -3.07051 -1.87744 0
M  V30 4198 C 402.875 -4.34968 -1.07269 0
M  V30 4199 C 404.619 -3.35146 -2.60533 0
M  V30 4200 C 402.526 -5.5953 -1.91521 0
M  V30 4201 H 401.456 -0.646794 -0.387522 0
M  V30 4202 H 404.107 -1.81278 -0.284718 0
M  V30 4203 H 402.489 -2.93289 -2.66078 0
M  V30 4204 H 403.663 -4.5958 -0.335117 0
M  V30 4205 H 401.978 -4.13847 -0.460384 0
M  V30 4206 H 404.575 -4.2541 -3.23929 0
M  V30 4207 H 404.918 -2.54255 -3.29636 0
M  V30 4208 H 405.451 -3.49902 -1.89244 0
M  V30 4209 H 402.19 -6.43103 -1.26878 0
M  V30 4210 H 401.71 -5.39096 -2.62937 0
M  V30 4211 H 403.389 -5.96982 -2.49442 0
M  V30 4212 N 403.521 0.559213 -1.47345 0
M  V30 4213 C 404.767 1.31843 -1.54095 0
M  V30 4214 C 405.1 1.93149 -0.201726 0
M  V30 4215 O 404.375 1.77759 0.789428 0
M  V30 4216 C 404.658 2.43006 -2.65744 0
M  V30 4217 C 404.511 1.86581 -4.09277 0
M  V30 4218 C 405.83 3.44943 -2.73318 0
M  V30 4219 H 402.949 0.478012 -0.560957 0
M  V30 4220 H 405.591 0.625977 -1.79392 0
M  V30 4221 H 403.741 3.02072 -2.44305 0
M  V30 4222 H 405.413 1.31792 -4.42073 0
M  V30 4223 H 403.656 1.17268 -4.17649 0
M  V30 4224 H 404.327 2.66933 -4.83168 0
M  V30 4225 H 406.803 2.95793 -2.92653 0
M  V30 4226 H 405.679 4.20153 -3.53218 0
M  V30 4227 H 405.94 4.03665 -1.80296 0
M  V30 4228 N 404.999 1.35443 0.805782 0
M  V30 4229 C 406.245 1.28952 1.56522 0
M  V30 4230 C 406.578 -0.135597 1.93726 0
M  V30 4231 O 405.853 -1.08516 1.61414 0
M  V30 4232 C 406.136 2.19678 2.85331 0
M  V30 4233 C 405.989 3.7081 2.54598 0
M  V30 4234 C 407.308 2.09495 3.8704 0
M  V30 4235 H 404.427 0.469764 0.567883 0
M  V30 4236 H 407.069 1.65851 0.927001 0
M  V30 4237 H 405.219 1.8834 3.39795 0
M  V30 4238 H 406.891 4.12593 2.06312 0
M  V30 4239 H 405.134 3.91051 1.8778 0
M  V30 4240 H 405.805 4.29679 3.46525 0
M  V30 4241 H 408.281 2.37045 3.41978 0
M  V30 4242 H 407.157 2.75173 4.74943 0
M  V30 4243 H 407.418 1.07714 4.28777 0
M  V30 4244 N 406.477 -1.02803 1.19454 0
M  V30 4245 C 407.702 -1.80378 1.02364 0
M  V30 4246 C 408.127 -1.83282 -0.423007 0
M  V30 4247 O 407.485 -1.25945 -1.30413 0
M  V30 4248 C 407.533 -3.23248 1.59821 0
M  V30 4249 O 406.637 -4.04 0.828105 0
M  V30 4250 H 405.978 -0.556799 0.361761 0
M  V30 4251 H 408.508 -1.29385 1.58495 0
M  V30 4252 H 408.518 -3.73994 1.63073 0
M  V30 4253 H 407.193 -3.2045 2.65113 0
M  V30 4254 H 405.77 -3.62635 0.86891 0
M  V30 4255 N 407.956 -0.998596 -1.21925 0
M  V30 4256 C 408.919 -0.558679 -2.22287 0
M  V30 4257 C 409.919 0.361525 -1.56683 0
M  V30 4258 O 411.109 0.152695 -1.73529 0
M  V30 4259 C 408.241 0.18661 -3.40389 0
M  V30 4260 H 409.434 -1.4463 -2.62721 0
M  V30 4261 H 406.987 -0.786413 -1.35075 0
M  V30 4262 H 407.722 1.08996 -3.05435 0
M  V30 4263 H 407.507 -0.474188 -3.89222 0
M  V30 4264 H 408.997 0.482367 -4.14805 0
M  V30 4265 N 409.434 1.37368 -0.772513 0
M  V30 4266 C 410.662 2.03942 -0.348588 0
M  V30 4267 C 411.077 1.58264 1.02947 0
M  V30 4268 O 410.434 0.764246 1.65727 0
M  V30 4269 C 410.485 3.5946 -0.38351 0
M  V30 4270 O 410.206 4.03468 -1.70721 0
M  V30 4271 C 411.707 4.4327 0.0519152 0
M  V30 4272 H 408.927 0.654931 -0.145966 0
M  V30 4273 H 411.471 1.75686 -1.04665 0
M  V30 4274 H 409.626 3.86486 0.265978 0
M  V30 4275 H 410.04 4.97991 -1.64636 0
M  V30 4276 H 411.514 5.51995 -0.0236733 0
M  V30 4277 H 411.991 4.2514 1.10238 0
M  V30 4278 H 412.597 4.21471 -0.569415 0
M  V30 4279 N 410.912 0.523116 1.48665 0
M  V30 4280 C 411.875 -0.232592 2.28017 0
M  V30 4281 C 412.875 -0.874021 1.34972 0
M  V30 4282 O 414.065 -0.735132 1.57929 0
M  V30 4283 C 411.197 -1.33586 3.13636 0
M  V30 4284 H 412.39 0.464008 2.96289 0
M  V30 4285 H 409.943 0.278816 1.53793 0
M  V30 4286 H 410.678 -2.06593 2.4998 0
M  V30 4287 H 410.463 -0.881125 3.82071 0
M  V30 4288 H 411.953 -1.86759 3.73511 0
M  V30 4289 N 412.39 -1.55475 0.257931 0
M  V30 4290 C 413.615 -2.04064 -0.370488 0
M  V30 4291 C 414.04 -1.13565 -1.49948 0
M  V30 4292 O 413.398 -0.130781 -1.80828 0
M  V30 4293 C 413.446 -3.50554 -0.845237 0
M  V30 4294 O 412.55 -3.63173 -1.95394 0
M  V30 4295 H 411.891 -0.659257 -0.0792243 0
M  V30 4296 H 414.421 -2.00903 0.387212 0
M  V30 4297 H 414.431 -3.91588 -1.14555 0
M  V30 4298 H 413.106 -4.15896 -0.0191259 0
M  V30 4299 H 411.683 -3.34039 -1.65748 0
M  V30 4300 N 413.868 0.0150385 -1.57593 0
M  V30 4301 C 415.145 0.7392 -1.81094 0
M  V30 4302 C 415.525 1.92817 -0.859344 0
M  V30 4303 O 414.873 2.28301 0.095362 0
M  V30 4304 C 415.083 1.15907 -3.29191 0
M  V30 4305 C 416.431 1.56918 -3.9454 0
M  V30 4306 O 417.455 1.25328 -3.33424 0
M  V30 4307 O 416.314 2.15604 -5.02173 0
M  V30 4308 H 413.408 0.358631 -0.745193 0
M  V30 4309 H 415.954 -0.00926156 -1.69697 0
M  V30 4310 H 414.726 0.310921 -3.90063 0
M  V30 4311 H 414.349 1.96711 -3.45529 0
M  V30 4312 N 415.346 1.54954 0.287554 0
M  V30 4313 C 416.309 1.86076 1.33823 0
M  V30 4314 C 417.309 0.734414 1.43049 0
M  V30 4315 O 418.499 1.00266 1.42452 0
M  V30 4316 C 415.631 2.05305 2.72144 0
M  V30 4317 H 416.824 2.79984 1.07465 0
M  V30 4318 H 414.377 1.47223 0.524902 0
M  V30 4319 H 415.112 1.1373 3.03704 0
M  V30 4320 H 414.897 2.873 2.66836 0
M  V30 4321 H 416.387 2.30706 3.48087 0
M  V30 4322 N 416.824 -0.551391 1.4764 0
M  V30 4323 C 417.787 -1.64007 1.60107 0
M  V30 4324 C 418.787 -1.53601 0.47576 0
M  V30 4325 O 419.977 -1.57655 0.740988 0
M  V30 4326 C 417.109 -3.03569 1.55108 0
M  V30 4327 H 418.302 -1.543 2.57161 0
M  V30 4328 H 415.855 -0.771776 1.35917 0
M  V30 4329 H 416.59 -3.18804 0.594519 0
M  V30 4330 H 416.375 -3.12532 2.36783 0
M  V30 4331 H 417.865 -3.82762 1.66982 0
M  V30 4332 N 418.302 -1.35869 -0.798587 0
M  V30 4333 C 419.713 -1.26498 -1.37314 0
M  V30 4334 C 420.064 0.0991899 -1.95949 0
M  V30 4335 O 419.189 1.0004 -1.91888 0
M  V30 4336 C 419.784 -2.29054 -2.49639 0
M  V30 4337 C 418.343 -2.234 -3.02935 0
M  V30 4338 C 417.49 -2.14329 -1.75949 0
M  V30 4339 H 420.441 -1.46881 -0.600971 0
M  V30 4340 H 420.462 -1.92166 -3.28409 0
M  V30 4341 H 419.974 -3.2833 -2.06933 0
M  V30 4342 H 418.075 -1.27562 -3.50084 0
M  V30 4343 H 418.188 -3.15703 -3.60372 0
M  V30 4344 H 416.552 -1.60435 -1.9782 0
M  V30 4345 H 417.335 -3.15477 -1.35384 0
M  V30 4346 N 419.78 1.02168 -1.19998 0
M  V30 4347 C 420.71 2.12488 -0.96804 0
M  V30 4348 C 421.691 1.69799 0.101185 0
M  V30 4349 O 422.876 1.94121 -0.0552993 0
M  V30 4350 C 420.006 3.43479 -0.513776 0
M  V30 4351 C 418.96 3.99884 -1.52566 0
M  V30 4352 C 418.286 5.26582 -0.928214 0
M  V30 4353 C 419.586 4.33861 -2.90795 0
M  V30 4354 H 421.28 2.32149 -1.89069 0
M  V30 4355 H 418.826 1.11564 -0.910468 0
M  V30 4356 H 420.779 4.20036 -0.338774 0
M  V30 4357 H 419.503 3.23561 0.444493 0
M  V30 4358 H 418.162 3.25429 -1.68794 0
M  V30 4359 H 417.81 5.02986 0.0378289 0
M  V30 4360 H 417.51 5.65284 -1.60397 0
M  V30 4361 H 419.034 6.05799 -0.764167 0
M  V30 4362 H 420.448 5.01327 -2.78109 0
M  V30 4363 H 418.845 4.83664 -3.55231 0
M  V30 4364 H 419.915 3.42848 -3.42904 0
M  V30 4365 N 421.258 1.00505 1.21394 0
M  V30 4366 C 422.19 0.52372 2.23136 0
M  V30 4367 C 423.203 -0.387714 1.58116 0
M  V30 4368 O 424.392 -0.187905 1.77508 0
M  V30 4369 C 421.492 -0.258885 3.3791 0
M  V30 4370 C 420.665 0.651634 4.32519 0
M  V30 4371 C 419.724 -0.0813705 5.26137 0
M  V30 4372 O 418.75 0.537295 5.66658 0
M  V30 4373 N 419.952 -1.35992 5.64346 0
M  V30 4374 H 422.717 1.39865 2.65062 0
M  V30 4375 H 420.278 0.881196 1.35818 0
M  V30 4376 H 422.27 -0.758208 3.97534 0
M  V30 4377 H 420.84 -1.035 2.94968 0
M  V30 4378 H 420.06 1.33145 3.71034 0
M  V30 4379 H 421.348 1.27129 4.92662 0
M  V30 4380 H 420.746 -1.88368 5.33417 0
M  V30 4381 H 419.303 -1.8042 6.26332 0
M  V30 4382 N 422.737 -1.36956 0.779787 0
M  V30 4383 C 423.967 -2.03459 0.358877 0
M  V30 4384 C 424.375 -1.58939 -1.02641 0
M  V30 4385 O 423.718 -0.769777 -1.66794 0
M  V30 4386 C 423.78 -3.5796 0.332393 0
M  V30 4387 C 423.444 -4.25644 1.66362 0
M  V30 4388 C 424.441 -4.49205 2.61746 0
M  V30 4389 C 422.126 -4.63313 1.94027 0
M  V30 4390 C 424.12 -5.09503 3.82996 0
M  V30 4391 C 421.807 -5.2333 3.15546 0
M  V30 4392 C 422.805 -5.46363 4.0985 0
M  V30 4393 O 422.493 -6.05122 5.29228 0
M  V30 4394 H 422.225 -0.659767 0.147254 0
M  V30 4395 H 424.779 -1.76111 1.05708 0
M  V30 4396 H 423.009 -3.84388 -0.422237 0
M  V30 4397 H 424.698 -4.05852 -0.0625389 0
M  V30 4398 H 425.464 -4.20508 2.41657 0
M  V30 4399 H 421.343 -4.44715 1.21448 0
M  V30 4400 H 424.887 -5.27397 4.56617 0
M  V30 4401 H 420.784 -5.51451 3.35517 0
M  V30 4402 H 421.552 -6.23595 5.30161 0
M  V30 4403 N 424.215 -0.530993 -1.48385 0
M  V30 4404 C 425.145 0.219985 -2.32461 0
M  V30 4405 C 426.126 0.934111 -1.42156 0
M  V30 4406 O 427.311 0.919694 -1.71042 0
M  V30 4407 C 424.441 1.26674 -3.23375 0
M  V30 4408 C 423.395 0.67069 -4.22712 0
M  V30 4409 C 422.721 1.82017 -5.02766 0
M  V30 4410 C 424.021 -0.358268 -5.2107 0
M  V30 4411 H 425.715 -0.48187 -2.95497 0
M  V30 4412 H 423.261 -0.233182 -1.42099 0
M  V30 4413 H 425.214 1.80006 -3.81019 0
M  V30 4414 H 423.938 1.99818 -2.58341 0
M  V30 4415 H 422.597 0.158878 -3.66256 0
M  V30 4416 H 422.245 2.54002 -4.34157 0
M  V30 4417 H 421.945 1.42727 -5.70003 0
M  V30 4418 H 423.469 2.35725 -5.63264 0
M  V30 4419 H 424.883 0.0880081 -5.73232 0
M  V30 4420 H 423.28 -0.66861 -5.96364 0
M  V30 4421 H 424.35 -1.26367 -4.68145 0
M  V30 4422 N 425.693 1.55336 -0.266172 0
M  V30 4423 C 426.656 2.20878 0.612001 0
M  V30 4424 C 427.656 1.18388 1.08816 0
M  V30 4425 O 428.846 1.4335 0.989774 0
M  V30 4426 C 425.978 2.86765 1.84332 0
M  V30 4427 H 427.171 2.99873 0.0398718 0
M  V30 4428 H 424.724 1.56291 -0.0167309 0
M  V30 4429 H 425.459 2.11759 2.45619 0
M  V30 4430 H 425.244 3.61862 1.5099 0
M  V30 4431 H 426.734 3.36867 2.46801 0
M  V30 4432 N 427.171 -0.0066808 1.57599 0
M  V30 4433 C 428.582 -0.550379 1.78403 0
M  V30 4434 C 428.933 -1.74339 0.900014 0
M  V30 4435 O 428.058 -2.16166 0.100713 0
M  V30 4436 C 428.653 -1.00523 3.23544 0
M  V30 4437 C 427.212 -1.49428 3.45468 0
M  V30 4438 C 426.359 -0.442444 2.73748 0
M  V30 4439 H 429.31 0.219508 1.57175 0
M  V30 4440 H 429.331 -1.87157 3.31289 0
M  V30 4441 H 428.843 -0.136735 3.87859 0
M  V30 4442 H 426.944 -2.3839 2.86358 0
M  V30 4443 H 427.057 -1.52635 4.54136 0
M  V30 4444 H 425.421 -0.902578 2.38171 0
M  V30 4445 H 426.204 0.416973 3.40758 0
M  V30 4446 N 428.649 -1.55105 -0.279332 0
M  V30 4447 C 429.879 -1.7917 -1.02867 0
M  V30 4448 C 430.287 -0.56204 -1.80659 0
M  V30 4449 O 429.63 0.478266 -1.77365 0
M  V30 4450 C 429.692 -2.96061 -2.03932 0
M  V30 4451 C 429.356 -4.33341 -1.45137 0
M  V30 4452 C 430.353 -5.12565 -0.870266 0
M  V30 4453 C 428.038 -4.79987 -1.48048 0
M  V30 4454 C 430.032 -6.36565 -0.326097 0
M  V30 4455 C 427.719 -6.03944 -0.932443 0
M  V30 4456 C 428.717 -6.8207 -0.356247 0
M  V30 4457 O 428.405 -8.03691 0.183412 0
M  V30 4458 H 428.137 -0.600796 -0.309872 0
M  V30 4459 H 430.691 -2.02932 -0.317468 0
M  V30 4460 H 428.921 -2.67975 -2.78794 0
M  V30 4461 H 430.61 -3.07506 -2.64943 0
M  V30 4462 H 431.376 -4.77661 -0.840521 0
M  V30 4463 H 427.255 -4.1919 -1.91835 0
M  V30 4464 H 430.799 -6.97489 0.124286 0
M  V30 4465 H 426.696 -6.3833 -0.959407 0
M  V30 4466 H 427.464 -8.18468 0.0721681 0
M  V30 4467 N 430.127 0.543554 -1.4793 0
M  V30 4468 C 431.352 1.32995 -1.59145 0
M  V30 4469 C 431.777 1.86472 -0.246956 0
M  V30 4470 O 431.135 1.63696 0.779324 0
M  V30 4471 C 431.183 2.46623 -2.63077 0
M  V30 4472 O 430.287 3.49261 -2.19295 0
M  V30 4473 H 429.628 0.394472 -0.534124 0
M  V30 4474 H 432.158 0.655489 -1.93816 0
M  V30 4475 H 432.168 2.93001 -2.83926 0
M  V30 4476 H 430.843 2.07059 -3.60693 0
M  V30 4477 H 429.42 3.09094 -2.08603 0
M  V30 4478 N 431.605 1.3629 0.791371 0
M  V30 4479 C 432.853 1.30154 1.5461 0
M  V30 4480 C 433.174 -0.119409 1.94634 0
M  V30 4481 O 432.444 -1.05924 1.64794 0
M  V30 4482 H 431.024 0.478784 0.573389 0
M  V30 4483 H 433.686 1.70565 0.94306 0
M  V30 4484 H 432.782 1.92762 2.45457 0
M  V30 4485 N 433.083 -1.0153 1.20538 0
M  V30 4486 C 434.323 -1.76689 1.02763 0
M  V30 4487 C 434.687 -1.87065 -0.432513 0
M  V30 4488 O 435.888 -2.58684 -0.730481 0
M  V30 4489 C 434.159 -3.14707 1.69393 0
M  V30 4490 S 435.718 -4.05886 1.66738 0
M  V30 4491 H 432.536 -0.608076 0.368463 0
M  V30 4492 H 435.138 -1.21558 1.53114 0
M  V30 4493 H 433.842 -3.04782 2.74838 0
M  V30 4494 H 433.373 -3.74913 1.19179 0
M  V30 4495 H 435.388 -4.91221 0.70117 0
M  V30 4496 N 434.561 -1.01147 -1.20859 0
M  V30 4497 C 435.786 -0.716698 -1.94623 0
M  V30 4498 C 436.211 0.715415 -1.73964 0
M  V30 4499 O 435.569 1.49157 -1.03062 0
M  V30 4500 C 435.617 -1.0513 -3.44935 0
M  V30 4501 O 434.721 -0.160131 -4.12089 0
M  V30 4502 H 434.062 -0.266404 -0.608214 0
M  V30 4503 H 436.592 -1.35346 -1.53436 0
M  V30 4504 H 436.602 -1.00086 -3.95533 0
M  V30 4505 H 435.277 -2.09475 -3.59295 0
M  V30 4506 H 433.854 -0.267657 -3.71938 0
M  V30 4507 N 436.039 1.36541 -0.78704 0
M  V30 4508 C 436.972 2.27831 -0.129765 0
M  V30 4509 C 437.95 1.47105 0.692732 0
M  V30 4510 O 439.134 1.7641 0.664222 0
M  V30 4511 C 436.261 3.28577 0.821883 0
M  V30 4512 C 435.307 4.26422 0.0814771 0
M  V30 4513 S 436.14 5.20919 -1.24112 0
M  V30 4514 C 437.296 6.25212 -0.293409 0
M  V30 4515 H 437.529 2.83229 -0.903811 0
M  V30 4516 H 435.062 1.43046 -0.581144 0
M  V30 4517 H 437.02 3.87123 1.3655 0
M  V30 4518 H 435.681 2.72096 1.56916 0
M  V30 4519 H 434.874 4.97554 0.803485 0
M  V30 4520 H 434.476 3.71944 -0.391589 0
M  V30 4521 H 436.768 6.75435 0.528622 0
M  V30 4522 H 437.711 7.01378 -0.973344 0
M  V30 4523 H 438.119 5.64407 0.102196 0
M  V30 4524 N 437.518 0.538854 1.48102 0
M  V30 4525 C 438.766 0.00798599 2.02098 0
M  V30 4526 C 439.087 -1.33922 1.41739 0
M  V30 4527 O 438.357 -1.86932 0.585934 0
M  V30 4528 H 436.937 -3.62179e-05 0.747 0
M  V30 4529 H 439.599 0.7047 1.81714 0
M  V30 4530 H 438.695 -0.0937672 3.11959 0
M  V30 4531 N 438.996 -1.55193 0.274407 0
M  V30 4532 C 439.906 -2.26164 -0.623473 0
M  V30 4533 C 440.922 -1.28729 -1.17068 0
M  V30 4534 O 442.098 -1.61663 -1.20112 0
M  V30 4535 C 439.163 -2.96833 -1.7914 0
M  V30 4536 C 438.224 -4.09745 -1.28093 0
M  V30 4537 C 437.457 -4.77034 -2.3932 0
M  V30 4538 O 437.68 -4.4353 -3.5866 0
M  V30 4539 O 436.614 -5.64996 -2.07516 0
M  V30 4540 H 440.44 -3.03661 -0.0485661 0
M  V30 4541 H 438.025 -1.49341 0.0418382 0
M  V30 4542 H 439.907 -3.41248 -2.4724 0
M  V30 4543 H 438.582 -2.22253 -2.35341 0
M  V30 4544 H 437.489 -3.69787 -0.566416 0
M  V30 4545 H 438.822 -4.86224 -0.764683 0
M  V30 4546 N 440.474 -0.00167713 -1.576 0
M  V30 4547 C 441.704 0.692754 -1.94639 0
M  V30 4548 C 442.112 1.67744 -0.87513 0
M  V30 4549 O 441.455 1.8305 0.154382 0
M  V30 4550 C 441.517 1.47881 -3.27676 0
M  V30 4551 C 441.181 0.655518 -4.52274 0
M  V30 4552 C 442.178 -0.0575214 -5.19868 0
M  V30 4553 C 439.863 0.600994 -4.98692 0
M  V30 4554 C 441.857 -0.814052 -6.3218 0
M  V30 4555 C 439.544 -0.15926 -6.10892 0
M  V30 4556 C 440.542 -0.865515 -6.77494 0
M  V30 4557 O 440.23 -1.61336 -7.87544 0
M  V30 4558 H 439.962 0.197792 -0.646417 0
M  V30 4559 H 442.516 -0.049423 -2.05341 0
M  V30 4560 H 440.746 2.2655 -3.13388 0
M  V30 4561 H 442.435 2.05874 -3.49816 0
M  V30 4562 H 443.201 -0.0245611 -4.84994 0
M  V30 4563 H 439.08 1.14025 -4.46676 0
M  V30 4564 H 442.624 -1.36584 -6.84098 0
M  V30 4565 H 438.521 -0.194035 -6.45208 0
M  V30 4566 H 439.289 -1.53025 -8.04068 0
M  V30 4567 N 441.952 1.55251 0.271103 0
M  V30 4568 C 443.199 1.75946 1.00245 0
M  V30 4569 C 443.527 0.561611 1.86215 0
M  V30 4570 O 442.782 -0.455832 1.90317 0
M  V30 4571 C 443.081 3.01879 1.91321 0
M  V30 4572 C 442.747 4.34337 1.21086 0
M  V30 4573 C 441.409 4.70338 1.01666 0
M  V30 4574 C 443.761 5.16325 0.71119 0
M  V30 4575 C 441.089 5.8588 0.310099 0
M  V30 4576 C 443.441 6.32597 0.0182157 0
M  V30 4577 C 442.105 6.67236 -0.18768 0
M  V30 4578 H 441.375 0.643833 0.366824 0
M  V30 4579 H 444.022 1.89521 0.27458 0
M  V30 4580 H 442.327 2.83212 2.70736 0
M  V30 4581 H 444.024 3.15088 2.48033 0
M  V30 4582 H 440.614 4.06043 1.37213 0
M  V30 4583 H 444.798 4.88987 0.848844 0
M  V30 4584 H 440.054 6.1124 0.139873 0
M  V30 4585 H 444.228 6.9538 -0.376711 0
M  V30 4586 H 441.855 7.56618 -0.73715 0
M  V30 4587 N 443.43 -0.535701 1.48216 0
M  V30 4588 C 444.846 -0.863701 1.3421 0
M  V30 4589 C 445.046 -1.98458 0.34879 0
M  V30 4590 O 444.102 -2.51432 -0.23204 0
M  V30 4591 C 445.415 -1.23662 2.74095 0
M  V30 4592 C 446.963 -1.34683 2.82541 0
M  V30 4593 C 447.438 -1.75322 4.23115 0
M  V30 4594 N 448.929 -1.82434 4.2576 0
M  V30 4595 C 449.664 -2.15252 5.31464 0
M  V30 4596 N 449.16 -2.46533 6.47452 0
M  V30 4597 N 450.953 -2.16209 5.18855 0
M  V30 4598 H 443.104 0.203965 2.11418 0
M  V30 4599 H 445.367 0.0286033 0.947568 0
M  V30 4600 H 445.073 -0.486674 3.48316 0
M  V30 4601 H 444.947 -2.18805 3.07253 0
M  V30 4602 H 447.334 -2.08756 2.08579 0
M  V30 4603 H 447.415 -0.376756 2.5301 0
M  V30 4604 H 447.059 -1.01812 4.97591 0
M  V30 4605 H 446.989 -2.7337 4.50085 0
M  V30 4606 H 449.48 -1.6056 3.42095 0
M  V30 4607 H 449.793 -2.70662 7.23852 0
M  V30 4608 H 448.138 -2.44065 6.50736 0
M  V30 4609 H 451.329 -1.91224 4.2726 0
M  V30 4610 H 451.502 -2.41453 6.01335 0
M  V30 4611 N 444.908 -1.36708 -0.784132 0
M  V30 4612 C 446.185 -1.21776 -1.53069 0
M  V30 4613 C 446.565 0.193876 -2.10208 0
M  V30 4614 O 445.913 1.20012 -1.94446 0
M  V30 4615 C 446.123 -2.30395 -2.62143 0
M  V30 4616 C 447.471 -2.67325 -3.29882 0
M  V30 4617 O 448.495 -2.29478 -2.7243 0
M  V30 4618 O 447.354 -3.32485 -4.33724 0
M  V30 4619 H 444.448 -0.474459 -0.677361 0
M  V30 4620 H 446.994 -1.48454 -0.82216 0
M  V30 4621 H 445.766 -3.2498 -2.17953 0
M  V30 4622 H 445.389 -2.05112 -3.40609 0
M  V30 4623 N 446.386 1.0089 -1.21074 0
M  V30 4624 C 447.334 2.11707 -0.963476 0
M  V30 4625 C 448.328 1.69172 0.0879032 0
M  V30 4626 O 449.534 1.79889 -0.0631415 0
M  V30 4627 H 445.909 0.692026 -0.294287 0
M  V30 4628 H 447.88 2.29743 -1.90422 0
M  V30 4629 C 446.629 3.43473 -0.540509 0
M  V30 4630 H 445.952 3.76634 -1.34114 0
M  V30 4631 H 447.392 4.22044 -0.406777 0
M  V30 4632 C 445.851 3.2849 0.748079 0
M  V30 4633 O 446.381 3.58883 1.8046 0
M  V30 4634 N 444.587 2.81715 0.713081 0
M  V30 4635 H 444.134 2.5718 -0.146973 0
M  V30 4636 H 444.092 2.72071 1.57558 0
M  V30 4637 N 447.864 1.01787 1.20321 0
M  V30 4638 C 449.112 0.706538 1.89347 0
M  V30 4639 C 449.433 -0.766289 1.79313 0
M  V30 4640 O 448.703 -1.55126 1.19635 0
M  V30 4641 H 447.283 0.258348 0.700903 0
M  V30 4642 H 449.945 1.28974 1.46122 0
M  V30 4643 H 449.041 0.991066 2.95946 0
M  V30 4644 N 449.342 -1.36122 0.79427 0
M  V30 4645 C 450.289 -2.29982 0.194101 0
M  V30 4646 C 451.259 -1.52214 -0.664833 0
M  V30 4647 O 452.444 -1.80702 -0.612498 0
M  V30 4648 C 449.584 -3.38706 -0.661244 0
M  V30 4649 C 448.697 -4.31456 0.216766 0
M  V30 4650 C 447.832 -5.27265 -0.645411 0
M  V30 4651 C 446.871 -6.11653 0.233756 0
M  V30 4652 N 446.008 -6.99636 -0.587682 0
M  V30 4653 H 450.848 -2.80722 0.999965 0
M  V30 4654 H 448.385 -1.38172 0.504677 0
M  V30 4655 H 450.343 -4.00394 -1.17219 0
M  V30 4656 H 448.973 -2.89274 -1.43249 0
M  V30 4657 H 448.025 -3.7088 0.845724 0
M  V30 4658 H 449.337 -4.90724 0.893973 0
M  V30 4659 H 448.491 -5.94266 -1.22198 0
M  V30 4660 H 447.23 -4.68463 -1.35623 0
M  V30 4661 H 446.235 -5.4361 0.82269 0
M  V30 4662 H 447.46 -6.72531 0.942247 0
M  V30 4663 H 445.406 -6.43337 -1.2827 0
M  V30 4664 H 445.323 -7.55993 0.0317402 0
M  V30 4665 H 446.591 -7.71001 -1.14792 0
M  V30 4666 N 450.82 -0.546701 -1.47814 0
M  V30 4667 C 451.77 0.227042 -2.26867 0
M  V30 4668 C 452.754 0.894844 -1.33721 0
M  V30 4669 O 453.946 0.794887 -1.58147 0
M  V30 4670 C 451.075 1.26299 -3.19223 0
M  V30 4671 C 450.161 0.59913 -4.19847 0
M  V30 4672 N 450.552 -0.324777 -5.04756 0
M  V30 4673 C 448.85 0.854331 -4.37741 0
M  V30 4674 C 449.551 -0.709386 -5.77358 0
M  V30 4675 N 448.527 -0.0666153 -5.43559 0
M  V30 4676 H 452.329 -0.483476 -2.89896 0
M  V30 4677 H 449.843 -0.365893 -1.58224 0
M  V30 4678 H 451.84 1.83116 -3.74532 0
M  V30 4679 H 450.5 1.97471 -2.57751 0
M  V30 4680 H 451.511 -0.698351 -5.1317 0
M  V30 4681 H 448.188 1.55536 -3.87447 0
M  V30 4682 H 449.578 -1.46796 -6.55668 0
M  V30 4683 N 452.299 1.55045 -0.282633 0
M  V30 4684 C 453.262 2.21515 0.588539 0
M  V30 4685 C 454.262 1.19535 1.07554 0
M  V30 4686 O 455.452 1.44391 0.974514 0
M  V30 4687 C 452.584 2.88704 1.8128 0
M  V30 4688 H 453.777 2.99899 0.00806397 0
M  V30 4689 H 451.33 1.56265 -0.0333067 0
M  V30 4690 H 452.065 2.14352 2.43359 0
M  V30 4691 H 451.85 3.63443 1.47144 0
M  V30 4692 H 453.34 3.39465 2.43214 0
M  V30 4693 N 453.777 0.010035 1.57597 0
M  V30 4694 C 454.707 -0.976857 2.12084 0
M  V30 4695 C 455.688 -1.35191 1.03235 0
M  V30 4696 O 456.873 -1.43389 1.3097 0
M  V30 4697 C 454.003 -2.26548 2.63236 0
M  V30 4698 C 452.957 -2.03175 3.76701 0
M  V30 4699 C 452.283 -3.38138 4.14206 0
M  V30 4700 C 453.583 -1.38625 5.03568 0
M  V30 4701 H 455.277 -0.523145 2.94794 0
M  V30 4702 H 452.823 -0.250195 1.4181 0
M  V30 4703 H 454.776 -2.95952 2.99984 0
M  V30 4704 H 453.5 -2.74051 1.77661 0
M  V30 4705 H 452.159 -1.36195 3.40362 0
M  V30 4706 H 451.807 -3.83363 3.25641 0
M  V30 4707 H 451.507 -3.23312 4.90656 0
M  V30 4708 H 453.031 -4.08841 4.53521 0
M  V30 4709 H 454.445 -1.98 5.38023 0
M  V30 4710 H 452.842 -1.34256 5.84889 0
M  V30 4711 H 453.912 -0.356722 4.83586 0
M  V30 4712 N 455.255 -1.55392 -0.262866 0
M  V30 4713 C 456.504 -1.75679 -0.990943 0
M  V30 4714 C 456.817 -0.57097 -1.87081 0
M  V30 4715 O 458.023 -0.656486 -2.63444 0
M  V30 4716 C 456.479 -3.10964 -1.81188 0
M  V30 4717 C 456.087 -4.37146 -0.980188 0
M  V30 4718 C 457.831 -3.40597 -2.53365 0
M  V30 4719 C 455.738 -5.63466 -1.7961 0
M  V30 4720 H 454.668 -0.654868 -0.373716 0
M  V30 4721 H 457.319 -1.81841 -0.246203 0
M  V30 4722 H 455.701 -2.98867 -2.59797 0
M  V30 4723 H 456.875 -4.60187 -0.237558 0
M  V30 4724 H 455.19 -4.14731 -0.372497 0
M  V30 4725 H 457.787 -4.32186 -3.14833 0
M  V30 4726 H 458.13 -2.6119 -3.24169 0
M  V30 4727 H 458.663 -3.53838 -1.81779 0
M  V30 4728 H 455.402 -6.4565 -1.13209 0
M  V30 4729 H 454.922 -5.44552 -2.51443 0
M  V30 4730 H 456.601 -6.02139 -2.36723 0
M  V30 4731 N 456.733 0.527833 -1.48498 0
M  V30 4732 C 457.982 1.28003 -1.55878 0
M  V30 4733 C 458.295 1.9414 -0.238577 0
M  V30 4734 O 459.501 2.7083 -0.190643 0
M  V30 4735 C 457.957 2.32272 -2.74914 0
M  V30 4736 C 457.565 1.72196 -4.13585 0
M  V30 4737 C 459.309 3.08488 -2.91608 0
M  V30 4738 C 457.216 2.74417 -5.23879 0
M  V30 4739 H 456.146 0.481413 -0.580308 0
M  V30 4740 H 458.797 0.557195 -1.74836 0
M  V30 4741 H 457.179 3.07601 -2.49395 0
M  V30 4742 H 458.353 1.03041 -4.49132 0
M  V30 4743 H 456.668 1.08464 -4.02025 0
M  V30 4744 H 459.265 3.84879 -3.71177 0
M  V30 4745 H 459.608 3.64481 -2.01145 0
M  V30 4746 H 460.141 2.40274 -3.17038 0
M  V30 4747 H 456.88 2.23242 -6.16314 0
M  V30 4748 H 456.4 3.41893 -4.92818 0
M  V30 4749 H 458.079 3.37362 -5.52083 0
M  V30 4750 N 458.211 1.37122 0.776871 0
M  V30 4751 C 459.441 1.35034 1.56363 0
M  V30 4752 C 459.849 -0.0674681 1.8908 0
M  V30 4753 O 459.192 -1.03826 1.51545 0
M  V30 4754 C 459.254 2.11894 2.90415 0
M  V30 4755 C 458.918 3.60897 2.80362 0
M  V30 4756 C 459.915 4.54887 2.51742 0
M  V30 4757 C 457.6 4.03951 2.98545 0
M  V30 4758 C 459.594 5.89909 2.41426 0
M  V30 4759 C 457.281 5.3906 2.87849 0
M  V30 4760 C 458.279 6.31852 2.5933 0
M  V30 4761 O 457.967 7.64479 2.48651 0
M  V30 4762 H 457.699 0.464402 0.49123 0
M  V30 4763 H 460.253 1.80992 0.971127 0
M  V30 4764 H 458.483 1.60618 3.51765 0
M  V30 4765 H 460.172 2.02505 3.51776 0
M  V30 4766 H 460.938 4.22934 2.37385 0
M  V30 4767 H 456.817 3.3209 3.19746 0
M  V30 4768 H 460.361 6.62304 2.19086 0
M  V30 4769 H 456.258 5.70617 3.01773 0
M  V30 4770 H 457.026 7.74742 2.64039 0
M  V30 4771 N 459.689 -1.00246 1.21608 0
M  V30 4772 C 460.966 -1.71336 0.943568 0
M  V30 4773 C 461.346 -2.03972 -0.543943 0
M  V30 4774 O 460.694 -1.71545 -1.50946 0
M  V30 4775 C 460.904 -2.97094 1.83128 0
M  V30 4776 C 462.252 -3.70071 2.08165 0
M  V30 4777 O 463.276 -3.07081 1.80498 0
M  V30 4778 O 462.135 -4.83376 2.54971 0
M  V30 4779 H 459.229 -0.747386 0.354039 0
M  V30 4780 H 461.775 -1.05967 1.32549 0
M  V30 4781 H 460.547 -2.69407 2.83788 0
M  V30 4782 H 460.17 -3.70204 1.45034 0
M  V30 4783 N 461.167 -1.02423 -1.1978 0
M  V30 4784 C 462.444 -0.632802 -1.85081 0
M  V30 4785 C 462.824 0.888745 -1.9148 0
M  V30 4786 O 462.172 1.78357 -1.42832 0
M  V30 4787 C 462.382 -1.28947 -3.24305 0
M  V30 4788 C 463.73 -1.40976 -4.00513 0
M  V30 4789 O 464.754 -1.24628 -3.33686 0
M  V30 4790 O 463.613 -1.67467 -5.20209 0
M  V30 4791 H 460.707 -0.219348 -0.79738 0
M  V30 4792 H 463.253 -1.12209 -1.27307 0
M  V30 4793 H 462.025 -2.3288 -3.14456 0
M  V30 4794 H 461.648 -0.787748 -3.89718 0
M  V30 4795 N 462.645 1.35699 -0.801477 0
M  V30 4796 C 463.575 2.32436 -0.222658 0
M  V30 4797 C 464.556 1.5723 0.649057 0
M  V30 4798 O 465.741 1.85324 0.580387 0
M  V30 4799 C 462.871 3.41469 0.633719 0
M  V30 4800 C 461.825 4.27774 -0.139083 0
M  V30 4801 C 461.151 5.28082 0.838666 0
M  V30 4802 C 462.451 5.04946 -1.33517 0
M  V30 4803 H 464.145 2.81094 -1.03086 0
M  V30 4804 H 461.691 1.35146 -0.497155 0
M  V30 4805 H 463.644 4.08143 1.04868 0
M  V30 4806 H 462.368 2.91408 1.47475 0
M  V30 4807 H 461.027 3.62673 -0.535156 0
M  V30 4808 H 460.675 4.7429 1.67506 0
M  V30 4809 H 460.375 5.86695 0.32594 0
M  V30 4810 H 461.899 5.97628 1.25194 0
M  V30 4811 H 463.313 5.64593 -0.995349 0
M  V30 4812 H 461.71 5.7303 -1.78202 0
M  V30 4813 H 462.78 4.35886 -2.12442 0
M  V30 4814 N 464.123 0.554532 1.47522 0
M  V30 4815 C 465.348 0.0322661 2.07375 0
M  V30 4816 C 465.773 -1.25079 1.40488 0
M  V30 4817 O 465.131 -1.74859 0.47896 0
M  V30 4818 C 465.179 -0.149397 3.6029 0
M  V30 4819 O 464.283 -1.21259 3.9417 0
M  V30 4820 H 463.624 0.0501228 0.662106 0
M  V30 4821 H 466.154 0.769452 1.8958 0
M  V30 4822 H 466.164 -0.364437 4.06369 0
M  V30 4823 H 464.839 0.787743 4.08372 0
M  V30 4824 H 463.416 -0.97825 3.5984 0
M  V30 4825 N 465.601 -1.54893 0.290851 0
M  V30 4826 C 466.548 -2.23138 -0.58974 0
M  V30 4827 C 467.518 -1.21036 -1.13752 0
M  V30 4828 O 468.703 -1.49626 -1.18392 0
M  V30 4829 C 465.843 -2.96811 -1.76061 0
M  V30 4830 C 464.956 -4.13665 -1.24519 0
M  V30 4831 C 464.091 -4.74944 -2.3791 0
M  V30 4832 C 463.13 -5.83963 -1.83451 0
M  V30 4833 N 462.267 -6.39239 -2.90376 0
M  V30 4834 H 467.107 -2.98 -0.00114915 0
M  V30 4835 H 464.644 -1.47096 0.0112006 0
M  V30 4836 H 466.602 -3.37751 -2.44909 0
M  V30 4837 H 465.232 -2.24344 -2.32098 0
M  V30 4838 H 464.284 -3.77737 -0.449288 0
M  V30 4839 H 465.596 -4.92238 -0.806424 0
M  V30 4840 H 464.75 -5.18684 -3.14724 0
M  V30 4841 H 463.489 -3.95682 -2.85109 0
M  V30 4842 H 462.494 -5.39657 -1.05122 0
M  V30 4843 H 463.719 -6.65103 -1.37169 0
M  V30 4844 H 461.665 -5.62864 -3.36927 0
M  V30 4845 H 461.582 -7.13129 -2.50965 0
M  V30 4846 H 462.85 -6.87637 -3.67118 0
M  V30 4847 N 467.08 -0.0183926 -1.57589 0
M  V30 4848 C 468.012 0.995557 -2.06449 0
M  V30 4849 C 469.025 1.29556 -0.985849 0
M  V30 4850 O 470.214 1.2621 -1.26227 0
M  V30 4851 C 467.314 2.32572 -2.46502 0
M  V30 4852 C 466.487 2.21245 -3.77319 0
M  V30 4853 C 465.546 3.37104 -4.04039 0
M  V30 4854 O 464.572 3.14468 -4.74445 0
M  V30 4855 N 465.774 4.60553 -3.53372 0
M  V30 4856 H 468.539 0.578746 -2.94059 0
M  V30 4857 H 466.1 0.168603 -1.6102 0
M  V30 4858 H 468.092 3.08887 -2.61478 0
M  V30 4859 H 466.662 2.65931 -1.64315 0
M  V30 4860 H 465.882 1.29723 -3.72244 0
M  V30 4861 H 467.17 2.10868 -4.63047 0
M  V30 4862 H 466.568 4.81839 -2.96391 0
M  V30 4863 H 465.125 5.34072 -3.73644 0
M  V30 4864 N 468.558 1.5553 0.254621 0
M  V30 4865 C 469.521 1.88872 1.29846 0
M  V30 4866 C 470.521 0.764591 1.41459 0
M  V30 4867 O 471.711 1.03265 1.40293 0
M  V30 4868 C 468.843 2.11032 2.67728 0
M  V30 4869 H 470.036 2.82201 1.01502 0
M  V30 4870 H 467.589 1.48303 0.493556 0
M  V30 4871 H 468.324 1.20146 3.01223 0
M  V30 4872 H 468.109 2.92895 2.60682 0
M  V30 4873 H 469.599 2.38038 3.43115 0
M  V30 4874 N 470.036 -0.519951 1.48776 0
M  V30 4875 C 471.282 -1.27711 1.57536 0
M  V30 4876 C 471.615 -1.92547 0.252866 0
M  V30 4877 O 470.89 -1.7979 -0.742021 0
M  V30 4878 C 471.173 -2.35875 2.72094 0
M  V30 4879 C 471.026 -1.75664 4.1408 0
M  V30 4880 C 472.345 -3.37575 2.82367 0
M  V30 4881 H 469.464 -0.462971 0.573434 0
M  V30 4882 H 472.106 -0.578194 1.80989 0
M  V30 4883 H 470.256 -2.95488 2.52228 0
M  V30 4884 H 471.928 -1.20025 4.45412 0
M  V30 4885 H 470.171 -1.06154 4.20611 0
M  V30 4886 H 470.842 -2.54029 4.90075 0
M  V30 4887 H 473.318 -2.87929 3.00393 0
M  V30 4888 H 472.194 -4.1064 3.64233 0
M  V30 4889 H 472.455 -3.98743 1.90936 0
M  V30 4890 N 471.514 -1.37532 -0.769588 0
M  V30 4891 C 472.477 -1.33292 -1.86456 0
M  V30 4892 C 473.477 -0.236537 -1.59051 0
M  V30 4893 O 474.667 -0.492511 -1.67093 0
M  V30 4894 C 471.799 -1.07118 -3.23633 0
M  V30 4895 H 472.992 -2.30692 -1.91628 0
M  V30 4896 H 470.545 -1.22593 -0.969572 0
M  V30 4897 H 471.28 -0.102578 -3.24138 0
M  V30 4898 H 471.065 -1.86479 -3.44917 0
M  V30 4899 H 472.555 -1.06806 -4.03711 0
M  V30 4900 N 472.992 0.995999 -1.22138 0
M  V30 4901 C 474.222 1.76809 -1.06874 0
M  V30 4902 C 474.63 1.85265 0.383866 0
M  V30 4903 O 473.973 1.31969 1.27789 0
M  V30 4904 C 474.035 3.2186 -1.60144 0
M  V30 4905 C 473.699 3.36958 -3.0872 0
M  V30 4906 C 474.696 3.2452 -4.0618 0
M  V30 4907 C 472.381 3.62109 -3.48112 0
M  V30 4908 C 474.375 3.37013 -5.41019 0
M  V30 4909 C 472.062 3.74243 -4.831 0
M  V30 4910 C 473.06 3.61702 -5.79362 0
M  V30 4911 O 472.748 3.73436 -7.119 0
M  V30 4912 H 472.48 0.562207 -0.375365 0
M  V30 4913 H 475.034 1.26113 -1.62125 0
M  V30 4914 H 473.264 3.73734 -0.992981 0
M  V30 4915 H 474.953 3.80775 -1.40589 0
M  V30 4916 H 475.719 3.05004 -3.77091 0
M  V30 4917 H 471.598 3.70949 -2.73712 0
M  V30 4918 H 475.142 3.27141 -6.16137 0
M  V30 4919 H 471.039 3.93266 -5.11872 0
M  V30 4920 H 471.807 3.90328 -7.19435 0
M  V30 4921 N 474.47 1.03057 1.19235 0
M  V30 4922 C 475.886 0.747947 1.40989 0
M  V30 4923 C 476.086 -0.666752 1.90149 0
M  V30 4924 O 475.142 -1.43249 2.07933 0
M  V30 4925 C 476.455 1.7855 2.41951 0
M  V30 4926 C 478.003 1.80524 2.55695 0
M  V30 4927 C 478.478 2.83243 3.59913 0
M  V30 4928 N 479.969 2.8207 3.67411 0
M  V30 4929 C 480.704 3.58204 4.47747 0
M  V30 4930 N 480.2 4.44057 5.31775 0
M  V30 4931 N 481.993 3.46738 4.42413 0
M  V30 4932 H 474.144 1.94367 0.856468 0
M  V30 4933 H 476.407 0.840412 0.438647 0
M  V30 4934 H 476.113 2.79973 2.12857 0
M  V30 4935 H 475.987 1.6092 3.41152 0
M  V30 4936 H 478.374 0.79778 2.84112 0
M  V30 4937 H 478.455 2.02229 1.56643 0
M  V30 4938 H 478.099 3.84161 3.32239 0
M  V30 4939 H 478.029 2.58795 4.5862 0
M  V30 4940 H 480.52 2.19803 3.074 0
M  V30 4941 H 480.833 4.98884 5.90199 0
M  V30 4942 H 479.178 4.48129 5.3123 0
M  V30 4943 H 482.369 2.79077 3.75811 0
M  V30 4944 H 482.542 4.06322 5.04783 0
M  V30 4945 N 475.948 -1.35272 0.808662 0
M  V30 4946 C 476.88 -2.28507 0.178149 0
M  V30 4947 C 477.893 -1.50377 -0.623754 0
M  V30 4948 O 479.082 -1.72583 -0.455774 0
M  V30 4949 C 476.182 -3.30038 -0.769959 0
M  V30 4950 C 475.355 -4.37398 -0.0139749 0
M  V30 4951 C 474.414 -5.18775 -0.880875 0
M  V30 4952 O 473.44 -5.68236 -0.331059 0
M  V30 4953 N 474.642 -5.37087 -2.20267 0
M  V30 4954 H 477.407 -2.83255 0.979106 0
M  V30 4955 H 474.968 -1.47643 0.664308 0
M  V30 4956 H 476.96 -3.81371 -1.35418 0
M  V30 4957 H 475.53 -2.75789 -1.47171 0
M  V30 4958 H 474.75 -3.86971 0.751468 0
M  V30 4959 H 476.038 -5.06268 0.506965 0
M  V30 4960 H 475.436 -4.9855 -2.67328 0
M  V30 4961 H 473.993 -5.91593 -2.73608 0
M  V30 4962 N 477.426 -0.562348 -1.47226 0
M  V30 4963 C 478.359 0.230405 -2.27034 0
M  V30 4964 C 479.337 0.915609 -1.3437 0
M  V30 4965 O 480.521 0.933573 -1.63758 0
M  V30 4966 C 477.648 1.32874 -3.11548 0
M  V30 4967 C 476.694 0.751552 -4.19826 0
M  V30 4968 S 477.527 -0.405848 -5.3396 0
M  V30 4969 C 478.683 0.694186 -6.22038 0
M  V30 4970 H 478.916 -0.446811 -2.93923 0
M  V30 4971 H 476.449 -0.348781 -1.50409 0
M  V30 4972 H 478.407 1.95773 -3.60809 0
M  V30 4973 H 477.068 1.97782 -2.44011 0
M  V30 4974 H 476.261 1.57651 -4.78709 0
M  V30 4975 H 475.863 0.198645 -3.73472 0
M  V30 4976 H 478.155 1.58501 -6.58698 0
M  V30 4977 H 479.098 0.142592 -7.07956 0
M  V30 4978 H 479.506 0.989169 -5.55766 0
M  V30 4979 N 478.904 1.54736 -0.299062 0
M  V30 4980 C 480.129 2.04975 0.316254 0
M  V30 4981 C 480.554 1.17501 1.46885 0
M  V30 4982 O 479.912 0.178678 1.80417 0
M  V30 4983 C 479.96 3.52672 0.751997 0
M  V30 4984 O 479.064 3.68226 1.85697 0
M  V30 4985 H 478.405 0.661126 0.0617175 0
M  V30 4986 H 480.935 1.99805 -0.440341 0
M  V30 4987 H 480.945 3.94488 1.04133 0
M  V30 4988 H 479.62 4.158 -0.0911482 0
M  V30 4989 H 478.197 3.38316 1.56834 0
M  V30 4990 N 480.382 0.0267497 1.57577 0
M  V30 4991 C 481.312 -0.954308 2.13108 0
M  V30 4992 C 482.293 -1.34088 1.04663 0
M  V30 4993 O 483.478 -1.41992 1.32484 0
M  V30 4994 C 480.608 -2.23744 2.65624 0
M  V30 4995 C 479.562 -1.99168 3.78835 0
M  V30 4996 C 478.888 -3.33726 4.17769 0
M  V30 4997 C 480.188 -1.33277 5.0501 0
M  V30 4998 H 481.882 -0.491848 2.95332 0
M  V30 4999 H 479.428 -0.23514 1.42067 0
M  V30 5000 H 481.381 -2.92754 3.03106 0
M  V30 5001 H 480.105 -2.72151 1.80558 0
M  V30 5002 H 478.764 -1.32577 3.41788 0
M  V30 5003 H 478.412 -3.79888 3.29688 0
M  V30 5004 H 478.112 -3.18089 4.94058 0
M  V30 5005 H 479.636 -4.04008 4.57832 0
M  V30 5006 H 481.05 -1.92283 5.40093 0
M  V30 5007 H 479.447 -1.28045 5.8628 0
M  V30 5008 H 480.517 -0.305411 4.83937 0
M  V30 5009 N 481.861 -1.55662 -0.24637 0
M  V30 5010 C 482.791 -1.93377 -1.30873 0
M  V30 5011 C 483.772 -0.798773 -1.50179 0
M  V30 5012 O 484.957 -1.0591 -1.62778 0
M  V30 5013 C 482.087 -2.22893 -2.66338 0
M  V30 5014 C 481.041 -3.38649 -2.61727 0
M  V30 5015 C 480.367 -3.53708 -4.00992 0
M  V30 5016 C 481.667 -4.74323 -2.18666 0
M  V30 5017 H 483.361 -2.82363 -0.995552 0
M  V30 5018 H 480.907 -1.35854 -0.477464 0
M  V30 5019 H 482.86 -2.47866 -3.40794 0
M  V30 5020 H 481.584 -1.30733 -2.99293 0
M  V30 5021 H 480.243 -3.13685 -1.89729 0
M  V30 5022 H 479.891 -2.58967 -4.31214 0
M  V30 5023 H 479.591 -4.31551 -3.98795 0
M  V30 5024 H 481.115 -3.81003 -4.77147 0
M  V30 5025 H 482.529 -4.98665 -2.82854 0
M  V30 5026 H 480.926 -5.55273 -2.27579 0
M  V30 5027 H 481.996 -4.71349 -1.13834 0
M  V30 5028 N 483.339 0.512053 -1.4905 0
M  V30 5029 C 484.269 1.62365 -1.67809 0
M  V30 5030 C 485.25 1.61737 -0.526809 0
M  V30 5031 O 486.435 1.78651 -0.761404 0
M  V30 5032 C 483.565 3.00895 -1.73435 0
M  V30 5033 C 482.519 3.16387 -2.88242 0
M  V30 5034 C 481.845 4.56157 -2.78971 0
M  V30 5035 C 483.145 2.97457 -4.29321 0
M  V30 5036 H 484.839 1.46921 -2.60873 0
M  V30 5037 H 482.385 0.705379 -1.2554 0
M  V30 5038 H 484.338 3.78549 -1.85145 0
M  V30 5039 H 483.062 3.17403 -0.769619 0
M  V30 5040 H 481.721 2.41155 -2.76116 0
M  V30 5041 H 481.369 4.69525 -1.8043 0
M  V30 5042 H 481.069 4.67465 -3.5602 0
M  V30 5043 H 482.593 5.35886 -2.92675 0
M  V30 5044 H 484.007 3.64888 -4.42187 0
M  V30 5045 H 482.404 3.20245 -5.07507 0
M  V30 5046 H 483.474 1.93692 -4.44535 0
M  V30 5047 N 484.817 1.37938 0.762283 0
M  V30 5048 C 486.233 1.18945 1.06415 0
M  V30 5049 C 486.433 0.0321163 2.01474 0
M  V30 5050 O 485.489 -0.624844 2.44647 0
M  V30 5051 C 486.802 2.51218 1.65258 0
M  V30 5052 C 488.35 2.57824 1.7747 0
M  V30 5053 C 488.825 3.90251 2.39725 0
M  V30 5054 N 490.316 3.91744 2.47166 0
M  V30 5055 C 491.051 4.90966 2.96209 0
M  V30 5056 N 490.547 6.00585 3.45354 0
M  V30 5057 N 492.34 4.78363 2.9517 0
M  V30 5058 H 484.491 2.11994 0.131301 0
M  V30 5059 H 486.754 0.940262 0.120879 0
M  V30 5060 H 486.46 3.36317 1.02878 0
M  V30 5061 H 486.334 2.68989 2.64433 0
M  V30 5062 H 488.721 1.73126 2.3898 0
M  V30 5063 H 488.802 2.43928 0.770241 0
M  V30 5064 H 488.446 4.75368 1.78852 0
M  V30 5065 H 488.376 4.01454 3.40796 0
M  V30 5066 H 490.867 3.12563 2.12397 0
M  V30 5067 H 491.18 6.72236 3.81207 0
M  V30 5068 H 489.525 6.04217 3.43434 0
M  V30 5069 H 492.716 3.91841 2.56082 0
M  V30 5070 H 492.889 5.55843 3.33081 0
M  V30 5071 N 486.295 -0.989507 1.22664 0
M  V30 5072 C 487.711 -1.25395 0.987331 0
M  V30 5073 C 487.911 -1.9899 -0.317056 0
M  V30 5074 O 486.967 -2.30141 -1.03882 0
M  V30 5075 C 488.28 -2.06242 2.18826 0
M  V30 5076 C 489.828 -2.19413 2.23219 0
M  V30 5077 C 490.303 -3.03648 3.42873 0
M  V30 5078 N 491.794 -3.11234 3.43056 0
M  V30 5079 C 492.529 -3.7671 4.32293 0
M  V30 5080 N 492.025 -4.44085 5.31752 0
M  V30 5081 N 493.818 -3.73505 4.2006 0
M  V30 5082 H 485.969 -0.496212 2.06522 0
M  V30 5083 H 488.232 -0.281784 0.905153 0
M  V30 5084 H 487.938 -1.59531 3.13437 0
M  V30 5085 H 487.812 -3.06996 2.19165 0
M  V30 5086 H 490.199 -2.65336 1.29154 0
M  V30 5087 H 490.28 -1.18078 2.26917 0
M  V30 5088 H 489.924 -2.58424 4.37241 0
M  V30 5089 H 489.854 -4.05132 3.36416 0
M  V30 5090 H 492.345 -2.63287 2.71088 0
M  V30 5091 H 492.658 -4.91797 5.96117 0
M  V30 5092 H 491.003 -4.42822 5.35662 0
M  V30 5093 H 494.194 -3.20033 3.41609 0
M  V30 5094 H 494.367 -4.24253 4.8981 0
M  V30 5095 N 487.773 -1.03688 -1.18687 0
M  V30 5096 C 489.184 -0.766488 -1.70241 0
M  V30 5097 C 489.535 0.713052 -1.82784 0
M  V30 5098 O 488.66 1.55529 -1.50465 0
M  V30 5099 C 489.255 -1.38475 -3.09209 0
M  V30 5100 C 487.814 -1.16276 -3.5799 0
M  V30 5101 C 486.961 -1.4778 -2.34641 0
M  V30 5102 H 489.912 -1.20378 -1.03415 0
M  V30 5103 H 489.933 -0.785939 -3.72295 0
M  V30 5104 H 489.445 -2.46157 -3.00048 0
M  V30 5105 H 487.546 -0.104508 -3.72453 0
M  V30 5106 H 487.659 -1.8571 -4.41643 0
M  V30 5107 H 486.023 -0.897366 -2.38368 0
M  V30 5108 H 486.806 -2.56562 -2.28102 0
M  V30 5109 N 489.251 1.34841 -0.815825 0
M  V30 5110 C 490.662 1.80937 -0.46029 0
M  V30 5111 C 491.013 1.67685 1.01863 0
M  V30 5112 O 490.138 1.21277 1.79223 0
M  V30 5113 C 490.733 3.28509 -0.828708 0
M  V30 5114 C 489.292 3.72712 -0.525644 0
M  V30 5115 C 488.439 2.56676 -1.04941 0
M  V30 5116 H 491.39 1.22688 -1.00664 0
M  V30 5117 H 491.411 3.80279 -0.129757 0
M  V30 5118 H 490.923 3.38122 -1.90513 0
M  V30 5119 H 489.024 3.68642 0.541666 0
M  V30 5120 H 489.137 4.67119 -1.06474 0
M  V30 5121 H 487.501 2.50302 -0.471286 0
M  V30 5122 H 488.284 2.69063 -2.13214 0
M  V30 5123 N 490.729 0.570148 1.46925 0
M  V30 5124 C 491.977 0.0508523 2.02036 0
M  V30 5125 C 492.298 -1.30885 1.44548 0
M  V30 5126 O 491.568 -1.85647 0.625453 0
M  V30 5127 H 490.148 0.0158088 0.746833 0
M  V30 5128 H 492.81 0.743086 1.80178 0
M  V30 5129 H 491.906 -0.027575 3.12088 0
M  V30 5130 N 492.207 -1.54576 0.307264 0
M  V30 5131 C 493.623 -1.59534 -0.0459251 0
M  V30 5132 C 493.823 -1.32414 -1.51884 0
M  V30 5133 O 492.879 -1.1006 -2.27251 0
M  V30 5134 C 494.192 -2.98566 0.357649 0
M  V30 5135 C 495.74 -3.11491 0.306937 0
M  V30 5136 C 496.215 -4.52842 0.685427 0
M  V30 5137 N 497.706 -4.58782 0.638203 0
M  V30 5138 C 498.441 -5.66238 0.903458 0
M  V30 5139 N 497.937 -6.81703 1.23501 0
M  V30 5140 N 499.73 -5.55937 0.830102 0
M  V30 5141 H 491.881 -1.70464 1.26712 0
M  V30 5142 H 494.144 -0.79647 0.514139 0
M  V30 5143 H 493.85 -3.23356 1.38325 0
M  V30 5144 H 493.724 -3.76117 -0.285565 0
M  V30 5145 H 496.111 -2.86446 -0.709424 0
M  V30 5146 H 496.192 -2.36081 0.984861 0
M  V30 5147 H 495.836 -4.78618 1.69963 0
M  V30 5148 H 495.766 -5.26598 -0.0146346 0
M  V30 5149 H 498.257 -3.75849 0.393138 0
M  V30 5150 H 498.57 -7.59582 1.42322 0
M  V30 5151 H 496.915 -6.8324 1.27311 0
M  V30 5152 H 500.106 -4.64608 0.570693 0
M  V30 5153 H 500.279 -6.39597 1.04019 0
M  V30 5154 N 493.685 -0.035106 -1.57561 0
M  V30 5155 C 494.595 0.960295 -2.14046 0
M  V30 5156 C 495.611 1.3529 -1.0942 0
M  V30 5157 O 496.787 1.43309 -1.41508 0
M  V30 5158 C 493.852 2.22214 -2.66124 0
M  V30 5159 C 492.913 1.8894 -3.85487 0
M  V30 5160 C 492.146 3.09109 -4.35072 0
M  V30 5161 O 492.369 4.21963 -3.83802 0
M  V30 5162 O 491.303 2.91058 -5.26848 0
M  V30 5163 H 495.129 0.509983 -2.99387 0
M  V30 5164 H 492.714 0.185853 -1.48239 0
M  V30 5165 H 494.596 2.96279 -2.99661 0
M  V30 5166 H 493.271 2.66414 -1.83862 0
M  V30 5167 H 492.178 1.12241 -3.56865 0
M  V30 5168 H 493.511 1.49551 -4.6893 0
M  V30 5169 N 495.163 1.55791 0.238111 0
M  V30 5170 C 496.126 1.90239 1.27835 0
M  V30 5171 C 497.126 0.779552 1.4064 0
M  V30 5172 O 498.316 1.04747 1.3919 0
M  V30 5173 C 495.448 2.13859 2.65475 0
M  V30 5174 H 496.641 2.83262 0.985034 0
M  V30 5175 H 494.194 1.48818 0.477799 0
M  V30 5176 H 494.929 1.23334 2.99932 0
M  V30 5177 H 494.714 2.95643 2.57561 0
M  V30 5178 H 496.204 2.41664 3.40571 0
M  V30 5179 N 496.642 -0.504142 1.49319 0
M  V30 5180 C 497.872 -1.28071 1.62116 0
M  V30 5181 C 498.28 -1.86955 0.290566 0
M  V30 5182 O 497.623 -1.68415 -0.733616 0
M  V30 5183 C 497.685 -2.4521 2.62893 0
M  V30 5184 C 497.349 -2.07218 4.0732 0
M  V30 5185 C 498.346 -1.61375 4.94221 0
M  V30 5186 C 496.031 -2.16949 4.53033 0
M  V30 5187 C 498.025 -1.25763 6.2487 0
M  V30 5188 C 495.712 -1.80949 5.83696 0
M  V30 5189 C 496.71 -1.3543 6.69438 0
M  V30 5190 O 496.398 -0.99915 7.97667 0
M  V30 5191 H 496.13 -0.394763 0.54876 0
M  V30 5192 H 498.684 -0.612118 1.96067 0
M  V30 5193 H 496.914 -3.15134 2.24115 0
M  V30 5194 H 498.603 -3.0724 2.65252 0
M  V30 5195 H 499.369 -1.53306 4.60133 0
M  V30 5196 H 495.248 -2.5133 3.86463 0
M  V30 5197 H 498.792 -0.901631 6.91749 0
M  V30 5198 H 494.689 -1.88667 6.17313 0
M  V30 5199 H 495.457 -1.13089 8.1065 0
M  V30 5200 N 498.12 -1.38341 -0.754957 0
M  V30 5201 C 499.531 -1.30803 -1.3322 0
M  V30 5202 C 499.882 0.0368 -1.96165 0
M  V30 5203 O 499.007 0.938844 -1.94974 0
M  V30 5204 C 499.602 -2.3688 -2.42225 0
M  V30 5205 C 498.161 -2.32925 -2.95674 0
M  V30 5206 C 497.308 -2.19819 -1.69042 0
M  V30 5207 H 500.259 -1.48719 -0.553937 0
M  V30 5208 H 500.28 -2.02517 -3.22129 0
M  V30 5209 H 499.792 -3.34747 -1.96383 0
M  V30 5210 H 497.893 -1.38635 -3.45848 0
M  V30 5211 H 498.006 -3.27008 -3.50146 0
M  V30 5212 H 496.37 -1.66648 -1.92615 0
M  V30 5213 H 497.153 -3.19625 -1.25279 0
M  V30 5214 N 499.598 0.982988 -1.23187 0
M  V30 5215 C 500.846 1.72052 -1.06031 0
M  V30 5216 C 501.167 1.90769 0.404019 0
M  V30 5217 O 500.437 1.47446 1.28982 0
M  V30 5218 H 499.017 0.637499 -0.389363 0
M  V30 5219 H 501.679 1.18338 -1.54862 0
M  V30 5220 H 500.775 2.7111 -1.54615 0
M  V30 5221 N 501.076 1.04316 1.18135 0
M  V30 5222 C 502.353 0.662166 1.84051 0
M  V30 5223 C 502.733 -0.858169 1.9287 0
M  V30 5224 O 502.081 -1.76062 1.45652 0
M  V30 5225 C 502.291 1.3409 3.22212 0
M  V30 5226 C 503.639 1.4733 3.9822 0
M  V30 5227 O 504.663 1.29921 3.31661 0
M  V30 5228 O 503.522 1.75722 5.17479 0
M  V30 5229 H 500.616 0.232005 0.79379 0
M  V30 5230 H 503.162 1.1422 1.25506 0
M  V30 5231 H 501.934 2.37853 3.10711 0
M  V30 5232 H 501.557 0.849649 3.88416 0
M  V30 5233 N 502.554 -1.34406 0.822964 0
M  V30 5234 C 503.8 -1.98578 0.411666 0
M  V30 5235 C 504.133 -1.65093 -1.02264 0
M  V30 5236 O 503.408 -0.92258 -1.71227 0
M  V30 5237 C 503.691 -3.54823 0.614235 0
M  V30 5238 C 503.544 -3.9805 2.09466 0
M  V30 5239 C 504.863 -4.40071 0.050221 0
M  V30 5240 H 501.982 -0.721355 0.151047 0
M  V30 5241 H 504.624 -1.59301 1.03554 0
M  V30 5242 H 502.774 -3.88411 0.0831774 0
M  V30 5243 H 504.446 -3.74795 2.68936 0
M  V30 5244 H 502.689 -3.4836 2.5851 0
M  V30 5245 H 503.36 -5.06819 2.18721 0
M  V30 5246 H 505.836 -4.13037 0.503953 0
M  V30 5247 H 504.712 -5.48452 0.221759 0
M  V30 5248 H 504.973 -4.29576 -1.04482 0
M  V30 5249 N 504.032 -0.577932 -1.46621 0
M  V30 5250 C 505.279 -0.0616879 -2.02406 0
M  V30 5251 C 505.607 1.29638 -1.44997 0
M  V30 5252 O 504.862 1.86176 -0.60308 0
M  V30 5253 C 505.161 0.0590832 -3.57351 0
M  V30 5254 C 504.827 -1.23077 -4.33777 0
M  V30 5255 C 503.489 -1.58416 -4.54376 0
M  V30 5256 C 505.841 -2.08457 -4.77698 0
M  V30 5257 C 503.169 -2.78943 -5.16147 0
M  V30 5258 C 505.521 -3.28204 -5.408 0
M  V30 5259 C 504.185 -3.63832 -5.59627 0
M  V30 5260 H 503.455 -0.0225732 -0.740656 0
M  V30 5261 H 506.102 -0.753609 -1.76048 0
M  V30 5262 H 504.407 0.834104 -3.82818 0
M  V30 5263 H 506.104 0.474202 -3.98186 0
M  V30 5264 H 502.694 -0.945652 -4.18038 0
M  V30 5265 H 506.878 -1.82459 -4.61544 0
M  V30 5266 H 502.134 -3.06689 -5.28916 0
M  V30 5267 H 506.308 -3.94634 -5.73792 0
M  V30 5268 H 503.935 -4.57315 -6.07262 0
M  V30 5269 N 505.51 1.54411 -0.315457 0
M  V30 5270 C 506.74 2.04536 0.291315 0
M  V30 5271 C 507.148 1.19162 1.4696 0
M  V30 5272 O 506.491 0.213199 1.82459 0
M  V30 5273 C 506.553 3.5056 0.796725 0
M  V30 5274 C 506.217 4.5627 -0.258178 0
M  V30 5275 C 507.214 5.08312 -1.09153 0
M  V30 5276 C 504.899 5.00672 -0.404036 0
M  V30 5277 C 506.893 6.03312 -2.05655 0
M  V30 5278 C 504.58 5.95488 -1.37248 0
M  V30 5279 C 505.578 6.46693 -2.19721 0
M  V30 5280 O 505.266 7.39648 -3.14921 0
M  V30 5281 H 504.998 0.672856 0.0651165 0
M  V30 5282 H 507.552 2.00244 -0.457308 0
M  V30 5283 H 505.782 3.52223 1.59612 0
M  V30 5284 H 507.471 3.83804 1.32096 0
M  V30 5285 H 508.237 4.74793 -0.98979 0
M  V30 5286 H 504.116 4.60436 0.22799 0
M  V30 5287 H 507.66 6.43203 -2.70067 0
M  V30 5288 H 503.557 6.28424 -1.47489 0
M  V30 5289 H 504.325 7.57496 -3.10067 0
M  V30 5290 N 506.988 0.0434614 1.5754 0
M  V30 5291 C 507.918 -0.931651 2.14109 0
M  V30 5292 C 508.899 -1.32971 1.06079 0
M  V30 5293 O 510.084 -1.40579 1.33982 0
M  V30 5294 C 507.214 -2.20914 2.67982 0
M  V30 5295 C 506.168 -1.95139 3.80926 0
M  V30 5296 C 505.494 -3.29276 4.21285 0
M  V30 5297 C 506.794 -1.27913 5.06395 0
M  V30 5298 H 508.488 -0.460497 2.95837 0
M  V30 5299 H 506.034 -0.220058 1.42309 0
M  V30 5300 H 507.987 -2.89522 3.06194 0
M  V30 5301 H 506.711 -2.70221 1.83434 0
M  V30 5302 H 505.37 -1.28945 3.43175 0
M  V30 5303 H 505.018 -3.76369 3.33699 0
M  V30 5304 H 504.718 -3.12831 4.97404 0
M  V30 5305 H 506.242 -3.99129 4.62091 0
M  V30 5306 H 507.656 -1.86544 5.42102 0
M  V30 5307 H 506.053 -1.2182 5.87605 0
M  V30 5308 H 507.123 -0.254066 4.84234 0
M  V30 5309 N 508.466 -1.55915 -0.229846 0
M  V30 5310 C 509.416 -1.8813 -1.28807 0
M  V30 5311 C 510.4 -0.743621 -1.42685 0
M  V30 5312 O 511.592 -1.00588 -1.4564 0
M  V30 5313 C 508.721 -2.19431 -2.64017 0
M  V30 5314 C 507.807 -3.39569 -2.54074 0
M  V30 5315 N 508.198 -4.58404 -2.13774 0
M  V30 5316 C 506.496 -3.43019 -2.85051 0
M  V30 5317 C 507.197 -5.40557 -2.1488 0
M  V30 5318 N 506.173 -4.80054 -2.55047 0
M  V30 5319 H 509.975 -2.77527 -0.967261 0
M  V30 5320 H 507.489 -1.5637 -0.438433 0
M  V30 5321 H 509.486 -2.40681 -3.40409 0
M  V30 5322 H 508.146 -1.31341 -2.9695 0
M  V30 5323 H 509.157 -4.83716 -1.8504 0
M  V30 5324 H 505.834 -2.65249 -3.22411 0
M  V30 5325 H 507.224 -6.45666 -1.85918 0
M  V30 5326 N 509.944 0.496216 -1.49584 0
M  V30 5327 C 511.169 1.27865 -1.63295 0
M  V30 5328 C 511.594 1.85592 -0.306156 0
M  V30 5329 O 510.952 1.66092 0.726851 0
M  V30 5330 C 511 2.38128 -2.7079 0
M  V30 5331 O 510.104 3.42108 -2.30296 0
M  V30 5332 H 509.445 0.377279 -0.546403 0
M  V30 5333 H 511.975 0.593497 -1.95803 0
M  V30 5334 H 511.985 2.8382 -2.93104 0
M  V30 5335 H 510.66 1.95479 -3.67098 0
M  V30 5336 H 509.237 3.02301 -2.18331 0
M  V30 5337 N 511.423 1.38739 0.74761 0
M  V30 5338 C 512.839 1.20067 1.05148 0
M  V30 5339 C 513.039 0.0534835 2.01429 0
M  V30 5340 O 512.095 -0.59886 2.45296 0
M  V30 5341 C 513.408 2.52957 1.62584 0
M  V30 5342 C 514.956 2.59692 1.74726 0
M  V30 5343 C 515.431 3.92772 2.35573 0
M  V30 5344 N 516.922 3.94343 2.42997 0
M  V30 5345 C 517.657 4.9408 2.90985 0
M  V30 5346 N 517.153 6.04214 3.38965 0
M  V30 5347 N 518.946 4.81466 2.9008 0
M  V30 5348 H 511.097 2.12121 0.108808 0
M  V30 5349 H 513.36 0.941491 0.110899 0
M  V30 5350 H 513.066 3.37389 0.993051 0
M  V30 5351 H 512.94 2.71779 2.61565 0
M  V30 5352 H 515.327 1.75651 2.3713 0
M  V30 5353 H 515.408 2.44731 0.744326 0
M  V30 5354 H 515.052 4.77238 1.738 0
M  V30 5355 H 514.982 4.05046 3.36519 0
M  V30 5356 H 517.473 3.14799 2.0907 0
M  V30 5357 H 517.786 6.76241 3.74056 0
M  V30 5358 H 516.131 6.07825 3.37007 0
M  V30 5359 H 519.322 3.94535 2.51912 0
M  V30 5360 H 519.495 5.59344 3.27166 0
M  V30 5361 N 512.901 -0.976442 1.23707 0
M  V30 5362 C 513.831 -2.08749 1.04624 0
M  V30 5363 C 514.812 -1.70057 -0.0380956 0
M  V30 5364 O 515.997 -1.93782 0.127308 0
M  V30 5365 C 513.127 -3.41335 0.640902 0
M  V30 5366 C 512.081 -3.93947 1.67302 0
M  V30 5367 C 511.407 -5.22774 1.12301 0
M  V30 5368 C 512.707 -4.22769 3.06697 0
M  V30 5369 H 514.401 -2.24972 1.97555 0
M  V30 5370 H 511.947 -1.08108 0.951247 0
M  V30 5371 H 513.9 -4.18489 0.494434 0
M  V30 5372 H 512.624 -3.24988 -0.324099 0
M  V30 5373 H 511.283 -3.18941 1.80755 0
M  V30 5374 H 510.931 -5.0278 0.148877 0
M  V30 5375 H 510.631 -5.58942 1.81267 0
M  V30 5376 H 512.155 -6.02546 0.988479 0
M  V30 5377 H 513.569 -4.90659 2.96524 0
M  V30 5378 H 511.966 -4.70147 3.72937 0
M  V30 5379 H 513.036 -3.29885 3.55392 0
M  V30 5380 N 514.379 -1.04941 -1.1758 0
M  V30 5381 C 515.309 -0.669172 -2.23706 0
M  V30 5382 C 516.29 0.331835 -1.66832 0
M  V30 5383 O 517.475 0.209988 -1.93061 0
M  V30 5384 C 514.605 -0.0404889 -3.47276 0
M  V30 5385 C 513.559 -0.965983 -4.16957 0
M  V30 5386 C 512.885 -0.201312 -5.34321 0
M  V30 5387 C 514.185 -2.28902 -4.69469 0
M  V30 5388 H 515.879 -1.55639 -2.55767 0
M  V30 5389 H 513.425 -0.749793 -1.22939 0
M  V30 5390 H 515.378 0.237298 -4.20731 0
M  V30 5391 H 514.102 0.881658 -3.14475 0
M  V30 5392 H 512.761 -1.22829 -3.45411 0
M  V30 5393 H 512.409 0.723519 -4.97769 0
M  V30 5394 H 512.109 -0.817968 -5.81879 0
M  V30 5395 H 513.633 0.0692499 -6.10561 0
M  V30 5396 H 515.047 -2.07132 -5.34574 0
M  V30 5397 H 513.444 -2.85942 -5.27596 0
M  V30 5398 H 514.514 -2.92937 -3.86414 0
M  V30 5399 N 515.857 1.33968 -0.830081 0
M  V30 5400 C 516.767 2.33164 -0.259207 0
M  V30 5401 C 517.783 1.62951 0.610164 0
M  V30 5402 O 518.959 1.94668 0.516369 0
M  V30 5403 C 516.024 3.42088 0.563598 0
M  V30 5404 C 515.085 4.28037 -0.329014 0
M  V30 5405 C 514.318 5.3176 0.454616 0
M  V30 5406 O 514.541 5.44876 1.6872 0
M  V30 5407 O 513.475 6.01669 -0.166794 0
M  V30 5408 H 517.301 2.83832 -1.08041 0
M  V30 5409 H 514.886 1.37154 -0.59239 0
M  V30 5410 H 516.768 4.08581 1.03147 0
M  V30 5411 H 515.443 2.93651 1.36201 0
M  V30 5412 H 514.35 3.64443 -0.844538 0
M  V30 5413 H 515.683 4.79934 -1.09196 0
M  V30 5414 N 517.335 0.585699 1.46312 0
M  V30 5415 C 518.751 0.247607 1.57668 0
M  V30 5416 C 518.951 -1.25007 1.58037 0
M  V30 5417 O 518.007 -2.03196 1.49893 0
M  V30 5418 C 519.32 0.899456 2.86933 0
M  V30 5419 C 520.868 0.873326 3.00569 0
M  V30 5420 C 521.343 1.50477 4.32574 0
M  V30 5421 N 522.834 1.46925 4.3928 0
M  V30 5422 C 523.569 1.92719 5.40044 0
M  V30 5423 N 523.065 2.46499 6.47464 0
M  V30 5424 N 524.858 1.83617 5.31264 0
M  V30 5425 H 517.009 1.55841 1.44317 0
M  V30 5426 H 519.272 0.651564 0.688599 0
M  V30 5427 H 518.978 1.95313 2.92482 0
M  V30 5428 H 518.852 0.409476 3.74971 0
M  V30 5429 H 521.239 -0.171736 2.946 0
M  V30 5430 H 521.32 1.40136 2.13999 0
M  V30 5431 H 520.964 2.54905 4.39302 0
M  V30 5432 H 520.894 0.951944 5.17924 0
M  V30 5433 H 523.385 1.07616 3.62253 0
M  V30 5434 H 523.698 2.79291 7.20567 0
M  V30 5435 H 522.043 2.50526 6.48276 0
M  V30 5436 H 525.234 1.41358 4.46246 0
M  V30 5437 H 525.407 2.19622 6.09648 0
M  V30 5438 N 518.813 -1.54241 0.323641 0
M  V30 5439 C 519.776 -2.22997 -0.529602 0
M  V30 5440 C 520.776 -1.22345 -1.04347 0
M  V30 5441 O 521.966 -1.46924 -0.935889 0
M  V30 5442 C 519.098 -2.93409 -1.73562 0
M  V30 5443 H 520.291 -2.99815 0.0714518 0
M  V30 5444 H 517.844 -1.56121 0.0747258 0
M  V30 5445 H 518.579 -2.20729 -2.37591 0
M  V30 5446 H 518.364 -3.67217 -1.37456 0
M  V30 5447 H 519.854 -3.45794 -2.34128 0
M  V30 5448 N 520.291 -0.0518155 -1.57515 0
M  V30 5449 C 521.254 0.907547 -2.10467 0
M  V30 5450 C 522.254 1.23947 -1.02439 0
M  V30 5451 O 523.444 1.17604 -1.2851 0
M  V30 5452 C 520.576 2.21723 -2.58944 0
M  V30 5453 H 521.769 0.44851 -2.96527 0
M  V30 5454 H 519.322 0.196598 -1.55059 0
M  V30 5455 H 520.057 2.72206 -1.76279 0
M  V30 5456 H 519.842 1.98935 -3.37886 0
M  V30 5457 H 521.332 2.90441 -3.00056 0
M  V30 5458 N 521.769 1.56035 0.221574 0
M  V30 5459 C 522.716 1.92413 1.27459 0
M  V30 5460 C 523.686 0.781323 1.46576 0
M  V30 5461 O 524.871 1.03721 1.60145 0
M  V30 5462 C 522.011 2.24617 2.61995 0
M  V30 5463 C 521.124 3.51831 2.50677 0
M  V30 5464 C 520.259 3.73482 3.77736 0
M  V30 5465 C 519.298 4.94211 3.6114 0
M  V30 5466 N 518.435 5.12252 4.80148 0
M  V30 5467 H 523.275 2.82203 0.957355 0
M  V30 5468 H 520.812 1.39676 0.461415 0
M  V30 5469 H 522.77 2.41298 3.40339 0
M  V30 5470 H 521.4 1.38 2.91815 0
M  V30 5471 H 520.452 3.43343 1.63767 0
M  V30 5472 H 521.764 4.40328 2.34334 0
M  V30 5473 H 520.918 3.9026 4.64523 0
M  V30 5474 H 519.657 2.83266 3.97003 0
M  V30 5475 H 518.662 4.77384 2.72736 0
M  V30 5476 H 519.887 5.85912 3.43343 0
M  V30 5477 H 517.833 4.24978 4.99729 0
M  V30 5478 H 517.75 5.94881 4.66532 0
M  V30 5479 H 519.018 5.33465 5.68362 0
M  V30 5480 N 523.247 -0.488276 1.49845 0
M  V30 5481 C 524.18 -1.60651 1.62069 0
M  V30 5482 C 525.158 -1.5568 0.469308 0
M  V30 5483 O 526.342 -1.75553 0.686551 0
M  V30 5484 C 523.469 -2.99197 1.58741 0
M  V30 5485 C 522.515 -3.22385 2.79232 0
M  V30 5486 S 523.348 -3.04133 4.40753 0
M  V30 5487 C 524.504 -4.45052 4.4009 0
M  V30 5488 H 524.737 -1.50039 2.56662 0
M  V30 5489 H 522.27 -0.674371 1.38894 0
M  V30 5490 H 524.228 -3.79081 1.57506 0
M  V30 5491 H 522.889 -3.07213 0.654136 0
M  V30 5492 H 522.082 -4.23557 2.73159 0
M  V30 5493 H 521.684 -2.50245 2.77945 0
M  V30 5494 H 523.976 -5.37375 4.12594 0
M  V30 5495 H 524.919 -4.56172 5.41583 0
M  V30 5496 H 525.327 -4.26327 3.70008 0
M  V30 5497 N 524.725 -1.39134 -0.740242 0
M  V30 5498 C 525.673 -1.3757 -1.87556 0
M  V30 5499 C 526.667 -0.259593 -1.67399 0
M  V30 5500 O 527.873 -0.429349 -1.74804 0
M  V30 5501 H 524.248 -0.42947 -0.6173 0
M  V30 5502 H 526.219 -2.33345 -1.85991 0
M  V30 5503 C 524.968 -1.23087 -3.25184 0
M  V30 5504 H 524.291 -2.08237 -3.41288 0
M  V30 5505 H 525.731 -1.26049 -4.0483 0
M  V30 5506 C 524.19 0.0611471 -3.36845 0
M  V30 5507 O 524.72 1.03328 -3.88183 0
M  V30 5508 N 522.926 0.122454 -2.90342 0
M  V30 5509 H 522.473 -0.669329 -2.48752 0
M  V30 5510 H 522.431 0.986463 -2.98523 0
M  V30 5511 N 526.204 0.969867 -1.24223 0
M  V30 5512 C 527.481 1.68774 -0.988664 0
M  V30 5513 C 527.861 2.05342 0.489673 0
M  V30 5514 O 527.209 1.75486 1.46345 0
M  V30 5515 C 527.419 2.92135 -1.90941 0
M  V30 5516 C 528.767 3.64422 -2.17903 0
M  V30 5517 O 529.791 3.02188 -1.88576 0
M  V30 5518 O 528.65 4.76446 -2.67697 0
M  V30 5519 H 525.744 0.737736 -0.37373 0
M  V30 5520 H 528.29 1.02415 -1.35312 0
M  V30 5521 H 527.062 2.61788 -2.90831 0
M  V30 5522 H 526.685 3.66228 -1.54798 0
M  V30 5523 N 527.682 1.05563 1.17022 0
M  V30 5524 C 528.645 0.664098 2.19368 0
M  V30 5525 C 529.645 -0.286358 1.5823 0
M  V30 5526 O 530.835 -0.069728 1.7406 0
M  V30 5527 C 527.967 -0.0239932 3.40892 0
M  V30 5528 H 529.16 1.57 2.55521 0
M  V30 5529 H 526.713 0.849964 1.31169 0
M  V30 5530 H 527.448 -0.942988 3.10287 0
M  V30 5531 H 527.233 0.659351 3.86516 0
M  V30 5532 H 528.723 -0.283909 4.16634 0
M  V30 5533 N 529.16 -1.33526 0.837174 0
M  V30 5534 C 530.407 -1.97837 0.432064 0
M  V30 5535 C 530.735 -1.66324 -1.00829 0
M  V30 5536 O 529.99 -0.93448 -1.71948 0
M  V30 5537 C 530.289 -3.52367 0.597675 0
M  V30 5538 C 529.955 -4.03826 2.00587 0
M  V30 5539 C 528.617 -4.1759 2.39106 0
M  V30 5540 C 530.969 -4.31333 2.92576 0
M  V30 5541 C 528.297 -4.56195 3.68921 0
M  V30 5542 C 530.649 -4.7139 4.2187 0
M  V30 5543 C 529.313 -4.8336 4.60347 0
M  V30 5544 H 528.583 -0.723937 0.158104 0
M  V30 5545 H 531.23 -1.5923 1.06387 0
M  V30 5546 H 529.535 -3.91624 -0.117452 0
M  V30 5547 H 531.232 -4.00126 0.26454 0
M  V30 5548 H 527.822 -3.93586 1.69671 0
M  V30 5549 H 532.006 -4.20224 2.64056 0
M  V30 5550 H 527.262 -4.63655 3.9854 0
M  V30 5551 H 531.436 -4.91631 4.93226 0
M  V30 5552 H 529.063 -5.1303 5.60985 0
M  V30 5553 N 530.638 -0.59345 -1.46 0
M  V30 5554 C 531.886 -0.082988 -2.0193 0
M  V30 5555 C 532.207 1.28569 -1.46612 0
M  V30 5556 O 531.477 1.84629 -0.654909 0
M  V30 5557 H 530.057 -0.0276882 -0.746487 0
M  V30 5558 H 532.719 -0.771657 -1.78973 0
M  V30 5559 H 531.815 -0.022079 -3.12092 0
M  V30 5560 N 532.116 1.54067 -0.331816 0
M  V30 5561 C 533.364 2.00319 0.267739 0
M  V30 5562 C 533.685 1.22148 1.52003 0
M  V30 5563 O 532.955 0.325494 1.93177 0
M  V30 5564 H 531.535 0.740014 0.101922 0
M  V30 5565 H 534.197 1.89628 -0.450267 0
M  V30 5566 H 533.293 3.07765 0.518385 0
M  V30 5567 N 533.594 0.0601682 1.57485 0
M  V30 5568 C 534.842 -0.610386 1.92662 0
M  V30 5569 C 535.163 -1.70849 0.939981 0
M  V30 5570 O 534.433 -1.95895 -0.0137455 0
M  V30 5571 H 533.013 -0.228457 0.711208 0
M  V30 5572 H 535.675 0.115288 1.94559 0
M  V30 5573 H 534.771 -1.0432 2.94149 0
M  V30 5574 N 535.072 -1.5615 -0.213296 0
M  V30 5575 C 536.297 -1.83986 -0.957282 0
M  V30 5576 C 536.722 -0.641526 -1.76822 0
M  V30 5577 O 536.08 0.409722 -1.7661 0
M  V30 5578 C 536.128 -3.09889 -1.84393 0
M  V30 5579 O 535.232 -2.89163 -2.94038 0
M  V30 5580 H 534.573 -0.606357 -0.270605 0
M  V30 5581 H 537.103 -2.03369 -0.224111 0
M  V30 5582 H 537.113 -3.40209 -2.25215 0
M  V30 5583 H 535.788 -3.96735 -1.24795 0
M  V30 5584 H 534.365 -2.70097 -2.57103 0
M  V30 5585 N 536.55 0.480323 -1.50102 0
M  V30 5586 C 537.48 1.58769 -1.71215 0
M  V30 5587 C 538.461 1.60583 -0.560997 0
M  V30 5588 O 539.646 1.76996 -0.799127 0
M  V30 5589 C 536.776 2.97148 -1.79778 0
M  V30 5590 C 535.73 3.10201 -2.94888 0
M  V30 5591 C 535.056 4.50137 -2.88584 0
M  V30 5592 C 536.356 2.88283 -4.35534 0
M  V30 5593 H 538.05 1.41354 -2.6393 0
M  V30 5594 H 535.596 0.678591 -1.27008 0
M  V30 5595 H 537.549 3.74536 -1.93133 0
M  V30 5596 H 536.273 3.15699 -0.836772 0
M  V30 5597 H 534.932 2.35244 -2.81169 0
M  V30 5598 H 534.58 4.65593 -1.90349 0
M  V30 5599 H 534.28 4.59808 -3.65856 0
M  V30 5600 H 535.804 5.29558 -3.03976 0
M  V30 5601 H 537.218 3.55427 -4.49827 0
M  V30 5602 H 535.615 3.09408 -5.14186 0
M  V30 5603 H 536.685 1.84219 -4.48544 0
M  V30 5604 N 538.028 1.39524 0.732853 0
M  V30 5605 C 539.256 1.40143 1.52209 0
M  V30 5606 C 539.671 -0.00348836 1.888 0
M  V30 5607 O 539.028 -0.975357 1.5425 0
M  V30 5608 C 539.079 2.27632 2.8083 0
M  V30 5609 O 538.8 3.62654 2.45792 0
M  V30 5610 C 540.301 2.36658 3.74844 0
M  V30 5611 H 537.521 0.478604 0.470297 0
M  V30 5612 H 540.065 1.83366 0.905388 0
M  V30 5613 H 538.22 1.87818 3.38826 0
M  V30 5614 H 538.634 4.08941 3.28431 0
M  V30 5615 H 540.108 3.02118 4.61984 0
M  V30 5616 H 540.585 1.38638 4.16745 0
M  V30 5617 H 541.191 2.76951 3.22766 0
M  V30 5618 N 539.506 -0.963266 1.24736 0
M  V30 5619 C 540.469 -2.04013 1.04457 0
M  V30 5620 C 541.469 -1.608 0.000335555 0
M  V30 5621 O 542.659 -1.72515 0.241719 0
M  V30 5622 C 539.791 -3.35858 0.584162 0
M  V30 5623 H 540.984 -2.23436 2.00041 0
M  V30 5624 H 538.537 -1.13914 1.07021 0
M  V30 5625 H 539.272 -3.22128 -0.374673 0
M  V30 5626 H 539.057 -3.68568 1.3379 0
M  V30 5627 H 540.547 -4.1502 0.463451 0
M  V30 5628 N 540.985 -1.06182 -1.16461 0
M  V30 5629 C 541.915 -0.692861 -2.22984 0
M  V30 5630 C 542.896 0.314122 -1.67174 0
M  V30 5631 O 544.081 0.189499 -1.93273 0
M  V30 5632 C 541.211 -0.07732 -3.47214 0
M  V30 5633 C 540.165 -1.01015 -4.15909 0
M  V30 5634 C 539.491 -0.257973 -5.34077 0
M  V30 5635 C 540.791 -2.33868 -4.67015 0
M  V30 5636 H 542.485 -1.58343 -2.54102 0
M  V30 5637 H 540.031 -0.76279 -1.22137 0
M  V30 5638 H 541.984 0.19266 -4.20959 0
M  V30 5639 H 540.708 0.848254 -3.15392 0
M  V30 5640 H 539.367 -1.26486 -3.44088 0
M  V30 5641 H 539.015 0.670684 -4.98509 0
M  V30 5642 H 538.715 -0.879638 -5.80979 0
M  V30 5643 H 540.239 0.00448788 -6.106 0
M  V30 5644 H 541.653 -2.1279 -5.32347 0
M  V30 5645 H 540.05 -2.91522 -5.24533 0
M  V30 5646 H 541.12 -2.97019 -3.83286 0
M  V30 5647 N 542.463 1.3308 -0.844243 0
M  V30 5648 C 543.874 1.7992 -0.498566 0
M  V30 5649 C 544.225 1.69808 0.982834 0
M  V30 5650 O 543.35 1.25051 1.7661 0
M  V30 5651 C 543.945 3.26677 -0.898204 0
M  V30 5652 C 542.504 3.71513 -0.604583 0
M  V30 5653 C 541.651 2.54393 -1.10362 0
M  V30 5654 H 544.602 1.20526 -1.03244 0
M  V30 5655 H 544.623 3.79918 -0.21039 0
M  V30 5656 H 544.135 3.34004 -1.97643 0
M  V30 5657 H 542.236 3.69708 0.46335 0
M  V30 5658 H 542.349 4.64755 -1.16358 0
M  V30 5659 H 540.713 2.49246 -0.524273 0
M  V30 5660 H 541.496 2.6448 -2.18873 0
M  V30 5661 N 543.941 0.601185 1.45683 0
M  V30 5662 C 545.187 0.0940202 2.02582 0
M  V30 5663 C 545.52 -1.26972 1.46941 0
M  V30 5664 O 544.795 -1.83613 0.641612 0
M  V30 5665 C 545.078 0.0481715 3.60068 0
M  V30 5666 C 544.931 1.44212 4.26055 0
M  V30 5667 C 546.25 -0.642975 4.35378 0
M  V30 5668 H 543.369 0.0356404 0.736138 0
M  V30 5669 H 546.011 0.771929 1.73612 0
M  V30 5670 H 544.161 -0.529128 3.8488 0
M  V30 5671 H 545.833 2.06601 4.12449 0
M  V30 5672 H 544.076 2.00465 3.84703 0
M  V30 5673 H 544.747 1.36234 5.34925 0
M  V30 5674 H 547.223 -0.152351 4.15821 0
M  V30 5675 H 546.099 -0.644141 5.45107 0
M  V30 5676 H 546.36 -1.70785 4.0778 0
M  V30 5677 N 545.419 -1.53889 0.339982 0
M  V30 5678 C 546.668 -2.00035 -0.258604 0
M  V30 5679 C 546.981 -1.23179 -1.51942 0
M  V30 5680 O 548.187 -1.59784 -2.19503 0
M  V30 5681 C 546.643 -3.56249 -0.511359 0
M  V30 5682 C 546.251 -4.41957 0.733349 0
M  V30 5683 C 547.995 -4.1082 -1.069 0
M  V30 5684 C 545.902 -5.89673 0.451591 0
M  V30 5685 H 544.832 -0.747284 -0.10041 0
M  V30 5686 H 547.483 -1.77776 0.454758 0
M  V30 5687 H 545.865 -3.7456 -1.28533 0
M  V30 5688 H 547.039 -4.35421 1.50815 0
M  V30 5689 H 545.354 -3.9836 1.21237 0
M  V30 5690 H 547.951 -5.18789 -1.2947 0
M  V30 5691 H 548.294 -3.63817 -2.02343 0
M  V30 5692 H 548.827 -3.96205 -0.355817 0
M  V30 5693 H 545.566 -6.40903 1.37565 0
M  V30 5694 H 545.086 -5.99122 -0.285193 0
M  V30 5695 H 546.765 -6.46965 0.0675067 0
M  V30 5696 N 546.897 -0.0685191 -1.57451 0
M  V30 5697 C 547.807 0.914677 -2.16034 0
M  V30 5698 C 548.823 1.32938 -1.12265 0
M  V30 5699 O 549.999 1.40275 -1.44516 0
M  V30 5700 C 547.064 2.16519 -2.70777 0
M  V30 5701 C 546.125 1.80721 -3.89408 0
M  V30 5702 C 545.358 2.9981 -4.41531 0
M  V30 5703 O 545.581 4.13727 -3.92666 0
M  V30 5704 O 544.515 2.79817 -5.32903 0
M  V30 5705 H 548.341 0.446364 -3.00402 0
M  V30 5706 H 545.926 0.154367 -1.486 0
M  V30 5707 H 547.808 2.89856 -3.05878 0
M  V30 5708 H 546.483 2.62454 -1.89471 0
M  V30 5709 H 545.39 1.04646 -3.59166 0
M  V30 5710 H 546.723 1.39571 -4.71997 0
M  V30 5711 N 548.375 1.56261 0.205012 0
M  V30 5712 C 549.603 1.84141 0.943386 0
M  V30 5713 C 550.018 0.649772 1.77266 0
M  V30 5714 O 549.375 -0.381612 1.78466 0
M  V30 5715 C 549.426 3.10719 1.84759 0
M  V30 5716 O 549.147 4.25286 1.05181 0
M  V30 5717 C 550.648 3.51706 2.69848 0
M  V30 5718 H 547.868 0.611734 0.275721 0
M  V30 5719 H 550.412 2.03364 0.215253 0
M  V30 5720 H 548.567 2.93422 2.52947 0
M  V30 5721 H 548.981 4.97301 1.66709 0
M  V30 5722 H 550.455 4.43266 3.28967 0
M  V30 5723 H 550.932 2.7423 3.43067 0
M  V30 5724 H 551.538 3.71499 2.07047 0
M  V30 5725 N 549.853 -0.472356 1.50355 0
M  V30 5726 C 550.785 -1.58795 1.65278 0
M  V30 5727 C 551.798 -1.53782 0.534313 0
M  V30 5728 O 552.987 -1.59193 0.807446 0
M  V30 5729 C 550.087 -2.97672 1.62001 0
M  V30 5730 C 549.26 -3.27568 2.89859 0
M  V30 5731 C 548.319 -4.45993 2.79242 0
M  V30 5732 O 547.345 -4.46364 3.53197 0
M  V30 5733 N 548.547 -5.47578 1.92713 0
M  V30 5734 H 551.312 -1.46411 2.61503 0
M  V30 5735 H 548.873 -0.660751 1.47803 0
M  V30 5736 H 550.865 -3.74862 1.52513 0
M  V30 5737 H 549.435 -3.03832 0.735159 0
M  V30 5738 H 548.655 -2.39003 3.13483 0
M  V30 5739 H 549.943 -3.44352 3.74565 0
M  V30 5740 H 549.341 -5.50099 1.31939 0
M  V30 5741 H 547.898 -6.23757 1.8913 0
M  V30 5742 N 551.331 -1.39911 -0.725443 0
M  V30 5743 C 552.294 -1.39156 -1.82121 0
M  V30 5744 C 553.294 -0.287018 -1.58218 0
M  V30 5745 O 554.484 -0.545421 -1.65441 0
M  V30 5746 C 551.616 -1.1736 -3.20062 0
M  V30 5747 H 552.809 -2.36672 -1.84191 0
M  V30 5748 H 550.362 -1.25615 -0.930079 0
M  V30 5749 H 551.097 -0.205648 -3.23647 0
M  V30 5750 H 550.882 -1.97358 -3.3881 0
M  V30 5751 H 552.372 -1.19596 -4.00108 0
M  V30 5752 N 552.809 0.956637 -1.25245 0
M  V30 5753 C 554.057 1.69764 -1.09657 0
M  V30 5754 C 554.378 1.91583 0.363464 0
M  V30 5755 O 553.648 1.50149 1.25825 0
M  V30 5756 H 552.228 0.629097 -0.402798 0
M  V30 5757 H 554.89 1.15026 -1.57337 0
M  V30 5758 H 553.986 2.67769 -1.60331 0
M  V30 5759 N 554.287 1.06798 1.15896 0
M  V30 5760 C 555.564 0.701057 1.82605 0
M  V30 5761 C 555.944 -0.817066 1.94646 0
M  V30 5762 O 555.292 -1.72933 1.49353 0
M  V30 5763 C 555.502 1.40895 3.19296 0
M  V30 5764 C 556.85 1.55744 3.95005 0
M  V30 5765 O 557.874 1.36927 3.28831 0
M  V30 5766 O 556.733 1.86658 5.13635 0
M  V30 5767 H 553.827 0.248791 0.78869 0
M  V30 5768 H 556.373 1.16857 1.23055 0
M  V30 5769 H 555.145 2.4439 3.05596 0
M  V30 5770 H 554.768 0.931847 3.86526 0
M  V30 5771 N 555.766 -1.3263 0.851289 0
M  V30 5772 C 557.012 -1.9766 0.453694 0
M  V30 5773 C 557.345 -1.67225 -0.987396 0
M  V30 5774 O 556.62 -0.958693 -1.69232 0
M  V30 5775 C 556.903 -3.5344 0.68936 0
M  V30 5776 C 556.756 -3.93517 2.17862 0
M  V30 5777 C 558.075 -4.39866 0.143555 0
M  V30 5778 H 555.194 -0.717989 0.166314 0
M  V30 5779 H 557.836 -1.57068 1.06909 0
M  V30 5780 H 555.986 -3.88147 0.165546 0
M  V30 5781 H 557.658 -3.69006 2.76826 0
M  V30 5782 H 555.901 -3.42798 2.65841 0
M  V30 5783 H 556.572 -5.02065 2.29422 0
M  V30 5784 H 559.048 -4.11875 0.591451 0
M  V30 5785 H 557.924 -5.47858 0.338043 0
M  V30 5786 H 558.185 -4.31696 -0.953466 0
M  V30 5787 N 557.244 -0.608902 -1.45362 0
M  V30 5788 C 558.469 -0.10921 -2.07112 0
M  V30 5789 C 558.894 1.19779 -1.45033 0
M  V30 5790 O 558.252 1.72961 -0.543527 0
M  V30 5791 C 558.3 0.0155745 -3.60597 0
M  V30 5792 O 557.404 1.06546 -3.98399 0
M  V30 5793 H 556.745 -0.0746619 -0.659789 0
M  V30 5794 H 559.275 -0.839283 -1.86594 0
M  V30 5795 H 559.285 0.213364 -4.07442 0
M  V30 5796 H 557.96 -0.938765 -4.05167 0
M  V30 5797 H 556.537 0.844024 -3.63223 0
M  V30 5798 N 558.722 1.53707 -0.348139 0
M  V30 5799 C 559.685 2.23812 0.494058 0
M  V30 5800 C 560.685 1.23989 1.02388 0
M  V30 5801 O 561.875 1.48395 0.912396 0
M  V30 5802 C 559.007 2.96133 1.68872 0
M  V30 5803 H 560.2 2.99663 -0.119141 0
M  V30 5804 H 557.753 1.55983 -0.0995539 0
M  V30 5805 H 558.488 2.24481 2.34049 0
M  V30 5806 H 558.273 3.69357 1.31596 0
M  V30 5807 H 559.763 3.49475 2.28597 0
M  V30 5808 N 560.2 0.0768682 1.57412 0
M  V30 5809 C 561.43 -0.5991 1.97723 0
M  V30 5810 C 561.838 -1.63378 0.954166 0
M  V30 5811 O 561.181 -1.83578 -0.0668706 0
M  V30 5812 C 561.243 -1.32078 3.34358 0
M  V30 5813 C 560.907 -0.438985 4.54887 0
M  V30 5814 C 561.904 0.305492 5.19002 0
M  V30 5815 C 559.589 -0.362378 5.00991 0
M  V30 5816 C 561.583 1.11475 6.27576 0
M  V30 5817 C 559.27 0.450543 6.09437 0
M  V30 5818 C 560.268 1.18777 6.72593 0
M  V30 5819 O 559.956 1.98727 7.7895 0
M  V30 5820 H 559.688 -0.166725 0.655117 0
M  V30 5821 H 562.242 0.147337 2.04871 0
M  V30 5822 H 560.472 -2.1134 3.2384 0
M  V30 5823 H 562.161 -1.88949 3.5924 0
M  V30 5824 H 562.927 0.25593 4.84324 0
M  V30 5825 H 558.806 -0.925832 4.51608 0
M  V30 5826 H 562.35 1.69068 6.76803 0
M  V30 5827 H 558.247 0.501651 6.43548 0
M  V30 5828 H 559.015 1.91214 7.95851 0
M  V30 5829 N 561.678 -1.56367 -0.196722 0
M  V30 5830 C 562.927 -1.79724 -0.915539 0
M  V30 5831 C 563.24 -0.649804 -1.84491 0
M  V30 5832 O 564.446 -0.767631 -2.60422 0
M  V30 5833 C 562.902 -3.18369 -1.67836 0
M  V30 5834 C 562.51 -4.4091 -0.793897 0
M  V30 5835 C 564.254 -3.51037 -2.38691 0
M  V30 5836 C 562.161 -5.70577 -1.55549 0
M  V30 5837 H 561.091 -0.67013 -0.345604 0
M  V30 5838 H 563.742 -1.82721 -0.168856 0
M  V30 5839 H 562.124 -3.09617 -2.46887 0
M  V30 5840 H 563.298 -4.60781 -0.042163 0
M  V30 5841 H 561.613 -4.15937 -0.19626 0
M  V30 5842 H 564.21 -4.4515 -2.96219 0
M  V30 5843 H 564.553 -2.74704 -3.12799 0
M  V30 5844 H 565.086 -3.61229 -1.66608 0
M  V30 5845 H 561.825 -6.49871 -0.857226 0
M  V30 5846 H 561.345 -5.54726 -2.2812 0
M  V30 5847 H 563.024 -6.11637 -2.10971 0
M  V30 5848 N 563.156 0.464375 -1.50603 0
M  V30 5849 C 564.567 1.04507 -1.5471 0
M  V30 5850 C 564.918 1.9297 -0.354542 0
M  V30 5851 O 564.043 2.09763 0.531812 0
M  V30 5852 C 564.638 1.90207 -2.80369 0
M  V30 5853 C 563.197 2.43373 -2.87135 0
M  V30 5854 C 562.344 1.21886 -2.49076 0
M  V30 5855 H 565.295 0.246716 -1.56771 0
M  V30 5856 H 565.316 2.75353 -2.62604 0
M  V30 5857 H 564.828 1.25796 -3.67147 0
M  V30 5858 H 562.929 3.11318 -2.04724 0
M  V30 5859 H 563.042 2.7802 -3.90181 0
M  V30 5860 H 561.406 1.55575 -2.01664 0
M  V30 5861 H 562.189 0.591268 -3.3817 0
M  V30 5862 N 564.634 1.40294 0.718013 0
M  V30 5863 C 565.862 1.4175 1.50714 0
M  V30 5864 C 566.277 0.0165366 1.88793 0
M  V30 5865 O 565.634 -0.958942 1.55276 0
M  V30 5866 C 565.685 2.30598 2.784 0
M  V30 5867 O 565.406 3.6524 2.41932 0
M  V30 5868 C 566.907 2.4062 3.72313 0
M  V30 5869 H 564.127 0.483565 0.465194 0
M  V30 5870 H 566.671 1.84316 0.885889 0
M  V30 5871 H 564.826 1.91401 3.36815 0
M  V30 5872 H 565.24 4.12402 3.24076 0
M  V30 5873 H 566.714 3.07001 4.58753 0
M  V30 5874 H 567.191 1.4305 4.15251 0
M  V30 5875 H 567.797 2.80359 3.19811 0
M  V30 5876 N 566.112 -0.949982 1.2575 0
M  V30 5877 C 567.06 -2.06869 1.06339 0
M  V30 5878 C 568.054 -1.69399 -0.00708901 0
M  V30 5879 O 569.26 -1.79383 0.148897 0
M  V30 5880 H 565.635 -0.677197 0.326969 0
M  V30 5881 H 567.606 -2.20396 2.01167 0
M  V30 5882 C 566.355 -3.40503 0.703769 0
M  V30 5883 H 565.678 -3.69807 1.51931 0
M  V30 5884 H 567.118 -4.19623 0.607677 0
M  V30 5885 C 565.577 -3.31685 -0.5905 0
M  V30 5886 O 566.107 -3.67085 -1.63131 0
M  V30 5887 N 564.313 -2.84797 -0.577859 0
M  V30 5888 H 563.86 -2.56186 0.26951 0
M  V30 5889 H 563.818 -2.79279 -1.44398 0
M  V30 5890 N 567.59 -1.07411 -1.15328 0
M  V30 5891 C 568.836 -0.798831 -1.86404 0
M  V30 5892 C 569.169 0.673433 -1.8215 0
M  V30 5893 O 568.444 1.49428 -1.24505 0
M  V30 5894 C 568.727 -1.30846 -3.35487 0
M  V30 5895 C 568.58 -2.84532 -3.4837 0
M  V30 5896 C 569.899 -0.925486 -4.30259 0
M  V30 5897 H 567.018 -0.291659 -0.676834 0
M  V30 5898 H 569.66 -1.332 -1.35491 0
M  V30 5899 H 567.81 -0.854916 -3.78977 0
M  V30 5900 H 569.482 -3.3818 -3.13739 0
M  V30 5901 H 567.725 -3.22699 -2.8991 0
M  V30 5902 H 568.396 -3.15259 -4.53118 0
M  V30 5903 H 570.872 -1.3163 -3.94731 0
M  V30 5904 H 569.748 -1.3094 -5.33053 0
M  V30 5905 H 570.009 0.168525 -4.41779 0
M  V30 5906 N 569.068 1.32177 -0.85831 0
M  V30 5907 C 570.317 1.96392 -0.459689 0
M  V30 5908 C 570.63 1.68659 0.990632 0
M  V30 5909 O 571.836 2.26641 1.49485 0
M  V30 5910 C 570.292 3.51542 -0.7711 0
M  V30 5911 C 569.9 3.8813 -2.2374 0
M  V30 5912 C 571.644 4.2221 -0.44038 0
M  V30 5913 C 569.551 5.36341 -2.49183 0
M  V30 5914 H 568.481 0.735007 -0.168169 0
M  V30 5915 H 571.132 1.50518 -1.0496 0
M  V30 5916 H 569.514 3.95846 -0.11058 0
M  V30 5917 H 570.688 3.54824 -2.94001 0
M  V30 5918 H 569.003 3.30497 -2.533 0
M  V30 5919 H 571.6 5.31234 -0.607855 0
M  V30 5920 H 571.943 4.11683 0.618291 0
M  V30 5921 H 572.476 3.83502 -1.05695 0
M  V30 5922 H 569.215 5.51892 -3.53689 0
M  V30 5923 H 568.735 5.7104 -1.83504 0
M  V30 5924 H 570.414 6.03466 -2.33318 0
M  V30 5925 N 570.547 0.616602 1.45037 0
M  V30 5926 C 571.772 0.120192 2.07051 0
M  V30 5927 C 572.197 -1.19008 1.45666 0
M  V30 5928 O 571.555 -1.7267 0.552692 0
M  V30 5929 C 571.603 0.00354901 3.606 0
M  V30 5930 O 570.707 -1.04431 3.98958 0
M  V30 5931 H 570.048 0.0781599 0.659384 0
M  V30 5932 H 572.578 0.849167 1.86146 0
M  V30 5933 H 572.588 -0.191754 4.07549 0
M  V30 5934 H 571.263 0.960239 4.04663 0
M  V30 5935 H 569.84 -0.824749 3.63665 0
M  V30 5936 N 572.025 -1.5352 0.356285 0
M  V30 5937 C 573.274 -2.00298 -0.237373 0
M  V30 5938 C 573.587 -1.24784 -1.50627 0
M  V30 5939 O 574.793 -1.62103 -2.17795 0
M  V30 5940 C 573.249 -3.56771 -0.473545 0
M  V30 5941 C 572.857 -4.41154 0.780183 0
M  V30 5942 C 574.601 -4.1193 -1.02537 0
M  V30 5943 C 572.508 -5.89161 0.514108 0
M  V30 5944 H 571.438 -0.748307 -0.092478 0
M  V30 5945 H 574.089 -1.77283 0.473588 0
M  V30 5946 H 572.471 -3.75902 -1.24553 0
M  V30 5947 H 573.645 -4.33797 1.55425 0
M  V30 5948 H 571.96 -3.97052 1.25455 0
M  V30 5949 H 574.557 -5.20133 -1.2396 0
M  V30 5950 H 574.9 -3.65943 -1.98473 0
M  V30 5951 H 575.433 -3.96561 -0.313775 0
M  V30 5952 H 572.172 -6.39408 1.44355 0
M  V30 5953 H 571.692 -5.9939 -0.221632 0
M  V30 5954 H 573.371 -6.46857 0.136122 0
M  V30 5955 N 573.503 -0.0852151 -1.57369 0
M  V30 5956 C 574.731 0.58946 -1.98325 0
M  V30 5957 C 575.146 1.62333 -0.96403 0
M  V30 5958 O 574.503 1.82438 0.0476395 0
M  V30 5959 C 574.554 1.24604 -3.39347 0
M  V30 5960 O 574.275 0.253532 -4.37366 0
M  V30 5961 C 575.776 2.00726 -3.95252 0
M  V30 5962 H 572.996 0.158783 -0.651942 0
M  V30 5963 H 575.54 -0.161584 -2.03861 0
M  V30 5964 H 573.695 1.94808 -3.34856 0
M  V30 5965 H 574.109 0.726207 -5.19448 0
M  V30 5966 H 575.583 2.42039 -4.96106 0
M  V30 5967 H 576.06 2.86919 -3.32527 0
M  V30 5968 H 576.666 1.3536 -4.03185 0
M  V30 5969 N 574.981 1.5647 0.188427 0
M  V30 5970 C 576.258 1.71857 0.934058 0
M  V30 5971 C 576.638 0.641867 2.01105 0
M  V30 5972 O 575.986 -0.346098 2.25864 0
M  V30 5973 C 576.196 3.14431 1.5144 0
M  V30 5974 C 577.544 3.74869 1.99396 0
M  V30 5975 O 578.568 3.17601 1.61269 0
M  V30 5976 O 577.427 4.75387 2.69573 0
M  V30 5977 H 574.521 0.701186 0.438483 0
M  V30 5978 H 577.067 1.68768 0.177599 0
M  V30 5979 H 575.839 3.8427 0.738416 0
M  V30 5980 H 575.462 3.21775 2.33552 0
M  V30 5981 N 576.459 -0.456382 1.50847 0
M  V30 5982 C 577.707 -1.20497 1.62249 0
M  V30 5983 C 578.028 -1.92156 0.331839 0
M  V30 5984 O 577.298 -1.84751 -0.651443 0
M  V30 5985 H 575.878 -0.447775 0.597918 0
M  V30 5986 H 578.54 -0.525099 1.87693 0
M  V30 5987 H 577.636 -1.94492 2.44089 0
M  V30 5988 N 577.937 -1.40673 -0.710563 0
M  V30 5989 C 578.869 -1.37256 -1.83558 0
M  V30 5990 C 579.882 -0.277133 -1.60424 0
M  V30 5991 O 581.071 -0.537831 -1.70205 0
M  V30 5992 C 578.171 -1.1144 -3.20054 0
M  V30 5993 C 577.344 -2.32734 -3.70342 0
M  V30 5994 C 576.403 -2.03002 -4.85465 0
M  V30 5995 O 575.429 -2.75912 -4.97857 0
M  V30 5996 N 576.631 -1.01105 -5.71627 0
M  V30 5997 H 579.396 -2.34215 -1.86985 0
M  V30 5998 H 576.957 -1.35091 -0.892301 0
M  V30 5999 H 578.949 -0.895265 -3.94673 0
M  V30 6000 H 577.519 -0.231307 -3.11743 0
M  V30 6001 H 576.739 -2.70446 -2.86798 0
M  V30 6002 H 578.027 -3.13584 -4.00678 0
M  V30 6003 H 577.425 -0.407303 -5.64232 0
M  V30 6004 H 575.982 -0.85182 -6.4621 0
M  V30 6005 N 579.415 0.9433 -1.26252 0
M  V30 6006 C 580.664 1.68369 -1.11062 0
M  V30 6007 C 580.977 1.92514 0.346104 0
M  V30 6008 O 582.183 2.64358 0.618646 0
M  V30 6009 C 580.639 3.03171 -1.93946 0
M  V30 6010 C 580.247 2.86782 -3.4418 0
M  V30 6011 C 581.991 3.80916 -1.87359 0
M  V30 6012 C 579.898 4.17044 -4.19319 0
M  V30 6013 H 578.828 0.631469 -0.412023 0
M  V30 6014 H 581.479 1.04922 -1.50544 0
M  V30 6015 H 579.861 3.67587 -1.47296 0
M  V30 6016 H 581.035 2.31229 -3.98585 0
M  V30 6017 H 579.35 2.22482 -3.51981 0
M  V30 6018 H 581.947 4.77417 -2.40784 0
M  V30 6019 H 582.29 4.07658 -0.843857 0
M  V30 6020 H 582.823 3.2327 -2.31821 0
M  V30 6021 H 579.562 3.95487 -5.22753 0
M  V30 6022 H 579.082 4.72319 -3.69696 0
M  V30 6023 H 580.761 4.85513 -4.27651 0
M  V30 6024 N 580.893 1.08022 1.14757 0
M  V30 6025 C 582.14 0.807509 1.85703 0
M  V30 6026 C 582.468 -0.666617 1.8272 0
M  V30 6027 O 581.723 -1.50562 1.25018 0
M  V30 6028 C 582.022 1.26964 3.34088 0
M  V30 6029 C 581.688 2.7509 3.57262 0
M  V30 6030 C 580.35 3.15547 3.63296 0
M  V30 6031 C 582.702 3.70667 3.66409 0
M  V30 6032 C 580.03 4.50384 3.75994 0
M  V30 6033 C 582.382 5.05274 3.80632 0
M  V30 6034 C 581.046 5.45342 3.84913 0
M  V30 6035 H 580.316 0.295488 0.679535 0
M  V30 6036 H 582.963 1.35245 1.35577 0
M  V30 6037 H 581.268 0.644216 3.86467 0
M  V30 6038 H 582.965 1.03544 3.87401 0
M  V30 6039 H 579.555 2.42775 3.53212 0
M  V30 6040 H 583.739 3.40533 3.61041 0
M  V30 6041 H 578.995 4.80886 3.77569 0
M  V30 6042 H 583.169 5.79201 3.86652 0
M  V30 6043 H 580.796 6.49823 3.94505 0
M  V30 6044 N 582.371 -1.3172 0.865308 0
M  V30 6045 C 583.301 -2.31109 0.333302 0
M  V30 6046 C 584.282 -1.60148 -0.573301 0
M  V30 6047 O 585.467 -1.87882 -0.491305 0
M  V30 6048 C 582.597 -3.44104 -0.470078 0
M  V30 6049 C 581.551 -4.26623 0.343021 0
M  V30 6050 C 580.877 -5.31482 -0.585756 0
M  V30 6051 C 582.177 -4.98001 1.57456 0
M  V30 6052 H 583.871 -2.75855 1.1638 0
M  V30 6053 H 581.417 -1.3262 0.561069 0
M  V30 6054 H 583.37 -4.12682 -0.852752 0
M  V30 6055 H 582.094 -2.98112 -1.33404 0
M  V30 6056 H 580.753 -3.59707 0.707583 0
M  V30 6057 H 580.401 -4.81741 -1.44686 0
M  V30 6058 H 580.101 -5.87582 -0.0456494 0
M  V30 6059 H 581.625 -6.0292 -0.965375 0
M  V30 6060 H 583.039 -5.59201 1.26359 0
M  V30 6061 H 581.436 -5.63876 2.05339 0
M  V30 6062 H 582.506 -4.25253 2.32997 0
M  V30 6063 N 583.85 -0.624285 -1.44708 0
M  V30 6064 C 584.76 0.0861083 -2.34442 0
M  V30 6065 C 585.776 0.84291 -1.5222 0
M  V30 6066 O 586.952 0.796723 -1.84971 0
M  V30 6067 C 584.017 1.05999 -3.30099 0
M  V30 6068 C 583.077 0.303316 -4.28227 0
M  V30 6069 C 582.311 1.23081 -5.19314 0
M  V30 6070 O 582.534 2.46929 -5.14181 0
M  V30 6071 O 581.468 0.71883 -5.97592 0
M  V30 6072 H 585.293 -0.651756 -2.96624 0
M  V30 6073 H 582.879 -0.384493 -1.44368 0
M  V30 6074 H 584.76 1.62046 -3.88997 0
M  V30 6075 H 583.436 1.77859 -2.70459 0
M  V30 6076 H 582.343 -0.300033 -3.72895 0
M  V30 6077 H 583.676 -0.375123 -4.90768 0
M  V30 6078 N 585.328 1.53329 -0.364422 0
M  V30 6079 C 586.556 2.05657 0.226424 0
M  V30 6080 C 586.971 1.23801 1.42544 0
M  V30 6081 O 586.328 0.27839 1.80364 0
M  V30 6082 C 586.379 3.56125 0.621056 0
M  V30 6083 O 586.1 4.34879 -0.530304 0
M  V30 6084 C 587.601 4.24706 1.27041 0
M  V30 6085 H 584.821 0.669806 0.0400056 0
M  V30 6086 H 587.365 1.97714 -0.522456 0
M  V30 6087 H 585.52 3.64223 1.31985 0
M  V30 6088 H 585.934 5.24073 -0.211546 0
M  V30 6089 H 587.408 5.3131 1.49711 0
M  V30 6090 H 587.885 3.78354 2.23036 0
M  V30 6091 H 588.491 4.20858 0.613079 0
M  V30 6092 N 586.806 0.0935595 1.57322 0
M  V30 6093 C 587.716 -0.880192 2.17462 0
M  V30 6094 C 588.732 -1.31135 1.14366 0
M  V30 6095 O 589.908 -1.37958 1.46729 0
M  V30 6096 C 586.973 -2.12184 2.74188 0
M  V30 6097 C 586.034 -1.74503 3.92234 0
M  V30 6098 C 585.267 -2.92748 4.46245 0
M  V30 6099 O 585.49 -4.07427 3.99198 0
M  V30 6100 O 584.424 -2.71303 5.37288 0
M  V30 6101 H 588.25 -0.398516 3.01074 0
M  V30 6102 H 585.835 -0.130707 1.48827 0
M  V30 6103 H 587.717 -2.84953 3.10451 0
M  V30 6104 H 586.392 -2.59407 1.93623 0
M  V30 6105 H 585.299 -0.989186 3.60785 0
M  V30 6106 H 586.632 -1.32044 4.74157 0
M  V30 6107 N 588.284 -1.56567 -0.180126 0
M  V30 6108 C 589.214 -1.98753 -1.22553 0
M  V30 6109 C 590.195 -0.86175 -1.46656 0
M  V30 6110 O 591.38 -1.12719 -1.58139 0
M  V30 6111 C 588.51 -2.33988 -2.56645 0
M  V30 6112 C 587.464 -3.49445 -2.47128 0
M  V30 6113 C 586.79 -3.70397 -3.8563 0
M  V30 6114 C 588.09 -4.83171 -1.98352 0
M  V30 6115 H 589.784 -2.86332 -0.874896 0
M  V30 6116 H 587.33 -1.37757 -0.419414 0
M  V30 6117 H 589.283 -2.62097 -3.29974 0
M  V30 6118 H 588.007 -1.43309 -2.93479 0
M  V30 6119 H 586.666 -3.2145 -1.76254 0
M  V30 6120 H 586.314 -2.77023 -4.19842 0
M  V30 6121 H 586.014 -4.48077 -3.80132 0
M  V30 6122 H 587.538 -4.00897 -4.60558 0
M  V30 6123 H 588.952 -5.10213 -2.61449 0
M  V30 6124 H 587.349 -5.64425 -2.03823 0
M  V30 6125 H 588.419 -4.75753 -0.937402 0
M  V30 6126 N 589.762 0.448376 -1.51087 0
M  V30 6127 C 591.009 1.19872 -1.63209 0
M  V30 6128 C 591.337 1.91451 -0.343062 0
M  V30 6129 O 590.592 1.83789 0.672321 0
M  V30 6130 C 590.891 2.24866 -2.77795 0
M  V30 6131 C 590.557 1.70378 -4.17471 0
M  V30 6132 C 589.219 1.55241 -4.55471 0
M  V30 6133 C 591.571 1.30203 -5.04675 0
M  V30 6134 C 588.899 0.983844 -5.78392 0
M  V30 6135 C 591.251 0.747798 -6.28165 0
M  V30 6136 C 589.915 0.583233 -6.64947 0
M  V30 6137 H 589.185 0.438642 -0.597222 0
M  V30 6138 H 591.832 0.49136 -1.85089 0
M  V30 6139 H 590.137 3.01598 -2.50092 0
M  V30 6140 H 591.834 2.82723 -2.84374 0
M  V30 6141 H 588.424 1.83134 -3.87505 0
M  V30 6142 H 592.608 1.40723 -4.75932 0
M  V30 6143 H 587.864 0.844007 -6.05546 0
M  V30 6144 H 592.038 0.427927 -6.95084 0
M  V30 6145 H 589.665 0.140532 -7.6007 0
M  V30 6146 N 591.24 1.41047 0.703093 0
M  V30 6147 C 592.47 1.43133 1.48985 0
M  V30 6148 C 592.878 0.0328537 1.89171 0
M  V30 6149 O 592.221 -0.956469 1.56835 0
M  V30 6150 C 592.283 2.26991 2.78775 0
M  V30 6151 C 591.947 3.7525 2.60837 0
M  V30 6152 C 592.944 4.67591 2.27276 0
M  V30 6153 C 590.629 4.19208 2.76712 0
M  V30 6154 C 592.623 6.01877 2.09817 0
M  V30 6155 C 590.31 5.53561 2.5887 0
M  V30 6156 C 591.308 6.4471 2.25472 0
M  V30 6157 O 590.996 7.76584 2.07778 0
M  V30 6158 H 590.728 0.489788 0.465922 0
M  V30 6159 H 593.282 1.85886 0.873822 0
M  V30 6160 H 591.512 1.79038 3.42757 0
M  V30 6161 H 593.201 2.20867 3.40547 0
M  V30 6162 H 593.967 4.34923 2.14633 0
M  V30 6163 H 589.846 3.48572 3.01693 0
M  V30 6164 H 593.39 6.72986 1.83671 0
M  V30 6165 H 589.287 5.85811 2.71102 0
M  V30 6166 H 590.055 7.87649 2.22601 0
M  V30 6167 N 592.718 -0.936591 1.26751 0
M  V30 6168 C 593.665 -2.03597 1.08706 0
M  V30 6169 C 594.635 -1.66097 -0.00926542 0
M  V30 6170 O 595.82 -1.90199 0.151377 0
M  V30 6171 C 592.96 -3.3727 0.73094 0
M  V30 6172 C 592.073 -3.87778 1.90399 0
M  V30 6173 C 591.208 -5.09859 1.49056 0
M  V30 6174 C 590.247 -5.5264 2.63164 0
M  V30 6175 N 589.384 -6.65921 2.22471 0
M  V30 6176 H 594.224 -2.18364 2.02784 0
M  V30 6177 H 591.761 -1.06985 1.00958 0
M  V30 6178 H 593.719 -4.14128 0.505328 0
M  V30 6179 H 592.349 -3.22337 -0.172868 0
M  V30 6180 H 591.401 -3.07279 2.2424 0
M  V30 6181 H 592.713 -4.15464 2.76028 0
M  V30 6182 H 591.867 -5.9419 1.22567 0
M  V30 6183 H 590.606 -4.8393 0.60524 0
M  V30 6184 H 589.611 -4.66863 2.90377 0
M  V30 6185 H 590.836 -5.80568 3.52303 0
M  V30 6186 H 588.782 -6.41667 1.36379 0
M  V30 6187 H 588.699 -6.93216 3.01641 0
M  V30 6188 H 589.967 -7.53616 1.99205 0
M  V30 6189 N 594.196 -1.08629 -1.14182 0
M  V30 6190 C 595.444 -0.815731 -1.84906 0
M  V30 6191 C 595.765 0.660441 -1.83475 0
M  V30 6192 O 595.035 1.47888 -1.28476 0
M  V30 6193 H 593.615 -0.298773 -0.684648 0
M  V30 6194 H 596.277 -1.37274 -1.38354 0
M  V30 6195 H 595.373 -1.16193 -2.89665 0
M  V30 6196 N 595.674 1.31259 -0.872281 0
M  V30 6197 C 596.923 1.95893 -0.480493 0
M  V30 6198 C 597.236 1.697 0.972688 0
M  V30 6199 O 598.442 2.28214 1.47073 0
M  V30 6200 C 596.898 3.50705 -0.808342 0
M  V30 6201 C 596.506 3.85735 -2.27844 0
M  V30 6202 C 598.25 4.21719 -0.485136 0
M  V30 6203 C 596.157 5.33668 -2.54858 0
M  V30 6204 H 595.087 0.733182 -0.175955 0
M  V30 6205 H 597.738 1.49396 -1.0655 0
M  V30 6206 H 596.12 3.95706 -0.152558 0
M  V30 6207 H 597.294 3.51686 -2.97748 0
M  V30 6208 H 595.609 3.27792 -2.56791 0
M  V30 6209 H 598.206 5.30559 -0.664166 0
M  V30 6210 H 598.549 4.12316 0.574592 0
M  V30 6211 H 599.082 3.82359 -1.09756 0
M  V30 6212 H 595.821 5.48109 -3.59523 0
M  V30 6213 H 595.341 5.69061 -1.8955 0
M  V30 6214 H 597.02 6.00958 -2.39706 0
M  V30 6215 N 597.152 0.631951 1.44375 0
M  V30 6216 C 598.568 0.297642 1.568 0
M  V30 6217 C 598.768 -1.19916 1.61934 0
M  V30 6218 O 597.824 -1.98324 1.56281 0
M  V30 6219 C 599.137 0.990286 2.83926 0
M  V30 6220 C 600.685 0.968507 2.97639 0
M  V30 6221 C 601.16 1.64163 4.27568 0
M  V30 6222 N 602.651 1.60826 4.34384 0
M  V30 6223 C 603.386 2.09802 5.33639 0
M  V30 6224 N 602.882 2.66973 6.39294 0
M  V30 6225 N 604.675 2.00426 5.25153 0
M  V30 6226 H 596.826 1.60353 1.39286 0
M  V30 6227 H 599.089 0.673142 0.667521 0
M  V30 6228 H 598.795 2.04519 2.8612 0
M  V30 6229 H 598.669 0.528563 3.73478 0
M  V30 6230 H 601.056 -0.0779247 2.94997 0
M  V30 6231 H 601.137 1.46873 2.09433 0
M  V30 6232 H 600.781 2.68752 4.3097 0
M  V30 6233 H 600.711 1.11624 5.14634 0
M  V30 6234 H 603.202 1.19087 3.58646 0
M  V30 6235 H 603.515 3.02074 7.11316 0
M  V30 6236 H 601.86 2.71024 6.39977 0
M  V30 6237 H 605.051 1.55483 4.41523 0
M  V30 6238 H 605.224 2.38906 6.02352 0
M  V30 6239 N 598.631 -1.53133 0.372548 0
M  V30 6240 C 600.042 -1.86404 -0.105155 0
M  V30 6241 C 600.393 -1.29289 -1.47576 0
M  V30 6242 O 599.518 -0.617646 -2.07398 0
M  V30 6243 C 600.113 -3.38223 -0.197588 0
M  V30 6244 C 598.672 -3.71266 -0.619556 0
M  V30 6245 C 597.819 -2.76353 0.228919 0
M  V30 6246 H 600.77 -1.47282 0.591077 0
M  V30 6247 H 600.791 -3.66577 -1.01987 0
M  V30 6248 H 600.303 -3.79763 0.800099 0
M  V30 6249 H 598.404 -3.35287 -1.62522 0
M  V30 6250 H 598.517 -4.77515 -0.389332 0
M  V30 6251 H 596.881 -2.52888 -0.303271 0
M  V30 6252 H 597.664 -3.20728 1.22428 0
M  V30 6253 N 600.109 -0.101901 -1.5727 0
M  V30 6254 C 601.072 0.840129 -2.13247 0
M  V30 6255 C 602.072 1.20625 -1.06331 0
M  V30 6256 O 603.262 1.13456 -1.32186 0
M  V30 6257 C 600.394 2.13372 -2.65867 0
M  V30 6258 H 601.587 0.353945 -2.97804 0
M  V30 6259 H 599.14 0.147167 -1.55606 0
M  V30 6260 H 599.875 2.66461 -1.84849 0
M  V30 6261 H 599.66 1.88085 -3.44044 0
M  V30 6262 H 601.15 2.80748 -3.09145 0
M  V30 6263 N 601.587 1.56661 0.17182 0
M  V30 6264 C 602.836 1.81158 0.886831 0
M  V30 6265 C 603.149 0.679072 1.83434 0
M  V30 6266 O 604.355 0.808964 2.59168 0
M  V30 6267 C 602.811 3.20999 1.6275 0
M  V30 6268 C 602.419 4.42117 0.723652 0
M  V30 6269 C 604.163 3.5479 2.33076 0
M  V30 6270 C 602.07 5.7298 1.46452 0
M  V30 6271 H 601 0.675543 0.334899 0
M  V30 6272 H 603.651 1.82967 0.139765 0
M  V30 6273 H 602.033 3.13506 2.4193 0
M  V30 6274 H 603.207 4.60789 -0.0311485 0
M  V30 6275 H 601.522 4.16197 0.130063 0
M  V30 6276 H 604.119 4.49806 2.89099 0
M  V30 6277 H 604.462 2.79646 3.08389 0
M  V30 6278 H 604.995 3.63834 1.6084 0
M  V30 6279 H 601.734 6.51152 0.753729 0
M  V30 6280 H 601.254 5.58285 2.19266 0
M  V30 6281 H 602.933 6.14916 2.01214 0
M  V30 6282 N 603.065 -0.440357 1.51323 0
M  V30 6283 C 604.013 -1.55492 1.72988 0
M  V30 6284 C 605.007 -1.58564 0.596138 0
M  V30 6285 O 606.213 -1.62345 0.777443 0
M  V30 6286 H 602.588 -0.516532 0.546533 0
M  V30 6287 H 604.559 -1.34392 2.66423 0
M  V30 6288 C 603.308 -2.93176 1.86931 0
M  V30 6289 H 602.631 -2.91543 2.73574 0
M  V30 6290 H 604.071 -3.70537 2.06103 0
M  V30 6291 C 602.53 -3.30988 0.628365 0
M  V30 6292 O 603.06 -4.01106 -0.218367 0
M  V30 6293 N 601.266 -2.86719 0.473339 0
M  V30 6294 H 600.813 -2.2983 1.16345 0
M  V30 6295 H 600.771 -3.12381 -0.355727 0
M  V30 6296 N 604.543 -1.41418 -0.695603 0
M  V30 6297 C 605.789 -1.40982 -1.4578 0
M  V30 6298 C 606.122 -0.0187763 -1.94191 0
M  V30 6299 O 605.397 0.95346 -1.69527 0
M  V30 6300 C 605.68 -2.41657 -2.66972 0
M  V30 6301 C 605.533 -3.89869 -2.24327 0
M  V30 6302 C 606.852 -2.39589 -3.69168 0
M  V30 6303 H 603.971 -0.513405 -0.528757 0
M  V30 6304 H 606.613 -1.72693 -0.792275 0
M  V30 6305 H 604.763 -2.14746 -3.23754 0
M  V30 6306 H 606.435 -4.27683 -1.72872 0
M  V30 6307 H 604.678 -4.04737 -1.56111 0
M  V30 6308 H 605.349 -4.55857 -3.11285 0
M  V30 6309 H 607.825 -2.63471 -3.2206 0
M  V30 6310 H 606.701 -3.12044 -4.51575 0
M  V30 6311 H 606.962 -1.41447 -4.18862 0
M  V30 6312 N 606.021 0.929856 -1.27246 0
M  V30 6313 C 607.269 1.674 -1.13233 0
M  V30 6314 C 607.59 1.92311 0.322744 0
M  V30 6315 O 606.86 1.52784 1.22612 0
M  V30 6316 H 605.44 0.620411 -0.416052 0
M  V30 6317 H 608.102 1.11663 -1.59741 0
M  V30 6318 H 607.198 2.64308 -1.65975 0
M  V30 6319 N 607.499 1.09233 1.13605 0
M  V30 6320 C 608.429 0.751738 2.21068 0
M  V30 6321 C 609.41 -0.269688 1.67948 0
M  V30 6322 O 610.595 -0.13819 1.93708 0
M  V30 6323 C 607.725 0.16935 3.46887 0
M  V30 6324 C 606.679 1.12007 4.13084 0
M  V30 6325 C 606.005 0.399483 5.33206 0
M  V30 6326 C 607.305 2.46168 4.6065 0
M  V30 6327 H 608.999 1.65024 2.49815 0
M  V30 6328 H 606.545 0.794905 1.20072 0
M  V30 6329 H 608.498 -0.0809824 4.21322 0
M  V30 6330 H 607.222 -0.764335 3.1753 0
M  V30 6331 H 605.881 1.35564 3.40614 0
M  V30 6332 H 605.529 -0.538277 5.00112 0
M  V30 6333 H 605.229 1.03337 5.78442 0
M  V30 6334 H 606.753 0.157403 6.10397 0
M  V30 6335 H 608.167 2.26829 5.26518 0
M  V30 6336 H 606.564 3.05326 5.1662 0
M  V30 6337 H 607.634 3.07076 3.75276 0
M  V30 6338 N 608.977 -1.30795 0.87923 0
M  V30 6339 C 610.202 -2.01063 0.508769 0
M  V30 6340 C 610.627 -1.65508 -0.893803 0
M  V30 6341 O 609.985 -0.868616 -1.59138 0
M  V30 6342 C 610.033 -3.54054 0.683991 0
M  V30 6343 O 609.137 -4.11498 -0.272654 0
M  V30 6344 H 608.478 -0.632786 0.201191 0
M  V30 6345 H 611.008 -1.66776 1.18519 0
M  V30 6346 H 611.018 -4.03845 0.580798 0
M  V30 6347 H 609.693 -3.79271 1.70665 0
M  V30 6348 H 608.27 -3.72695 -0.12364 0
M  V30 6349 N 610.455 -0.639598 -1.44038 0
M  V30 6350 C 611.701 -0.147698 -2.02261 0
M  V30 6351 C 612.034 1.23031 -1.50256 0
M  V30 6352 O 611.309 1.81847 -0.690068 0
M  V30 6353 C 611.592 -0.14362 -3.59813 0
M  V30 6354 C 611.445 -1.55458 -4.22082 0
M  V30 6355 C 612.764 0.527317 -4.36929 0
M  V30 6356 H 609.883 -0.0551453 -0.734934 0
M  V30 6357 H 612.525 -0.817688 -1.71505 0
M  V30 6358 H 610.675 0.426898 -3.86147 0
M  V30 6359 H 612.347 -2.17464 -4.06826 0
M  V30 6360 H 610.59 -2.10594 -3.79253 0
M  V30 6361 H 611.261 -1.50369 -5.31124 0
M  V30 6362 H 613.737 0.0420504 -4.16079 0
M  V30 6363 H 612.613 0.499389 -5.46624 0
M  V30 6364 H 612.874 1.59914 -4.12165 0
M  V30 6365 N 611.933 1.52934 -0.380664 0
M  V30 6366 C 613.158 2.06363 0.207157 0
M  V30 6367 C 613.583 1.25122 1.4045 0
M  V30 6368 O 612.941 0.274062 1.79217 0
M  V30 6369 C 612.989 3.56162 0.563996 0
M  V30 6370 O 612.093 3.77552 1.65917 0
M  V30 6371 H 611.434 0.663468 0.0265859 0
M  V30 6372 H 613.964 1.9719 -0.545635 0
M  V30 6373 H 613.974 3.99453 0.830752 0
M  V30 6374 H 612.649 4.14732 -0.311427 0
M  V30 6375 H 611.226 3.46154 1.3868 0
M  V30 6376 N 613.412 0.11024 1.57214 0
M  V30 6377 C 614.828 -0.24638 1.57687 0
M  V30 6378 C 615.028 -1.67344 1.12241 0
M  V30 6379 O 614.084 -2.39298 0.805783 0
M  V30 6380 C 615.397 -0.0210288 3.00693 0
M  V30 6381 C 616.945 -0.0876077 3.12877 0
M  V30 6382 C 617.42 0.10994 4.57868 0
M  V30 6383 N 618.911 0.0556135 4.63167 0
M  V30 6384 C 619.646 0.183495 5.73106 0
M  V30 6385 N 619.142 0.367058 6.91827 0
M  V30 6386 N 620.935 0.123689 5.61964 0
M  V30 6387 H 613.086 1.04246 1.85058 0
M  V30 6388 H 615.349 0.40979 0.854854 0
M  V30 6389 H 615.055 0.965203 3.38196 0
M  V30 6390 H 614.929 -0.756748 3.69531 0
M  V30 6391 H 617.316 -1.06436 2.75237 0
M  V30 6392 H 617.397 0.67985 2.466 0
M  V30 6393 H 617.041 1.08362 4.96206 0
M  V30 6394 H 616.971 -0.677397 5.22225 0
M  V30 6395 H 619.462 -0.0831062 3.77809 0
M  V30 6396 H 619.775 0.455739 7.71455 0
M  V30 6397 H 618.12 0.40292 6.93831 0
M  V30 6398 H 621.311 -0.0186928 4.68096 0
M  V30 6399 H 621.484 0.226797 6.47603 0
M  V30 6400 N 614.89 -1.56749 -0.16351 0
M  V30 6401 C 616.136 -1.82704 -0.880168 0
M  V30 6402 C 616.469 -0.689311 -1.81555 0
M  V30 6403 O 615.744 0.308224 -1.92042 0
M  V30 6404 C 616.027 -3.19084 -1.66905 0
M  V30 6405 C 615.88 -4.43397 -0.756269 0
M  V30 6406 C 617.199 -3.52493 -2.63509 0
M  V30 6407 H 614.318 -0.664608 -0.318535 0
M  V30 6408 H 616.96 -1.89438 -0.146036 0
M  V30 6409 H 615.11 -3.13475 -2.2949 0
M  V30 6410 H 616.782 -4.61079 -0.14269 0
M  V30 6411 H 615.025 -4.33752 -0.0647944 0
M  V30 6412 H 615.696 -5.3539 -1.34393 0
M  V30 6413 H 618.172 -3.58606 -2.11047 0
M  V30 6414 H 617.048 -4.48979 -3.15767 0
M  V30 6415 H 617.309 -2.77597 -3.44082 0
M  V30 6416 N 616.368 0.432326 -1.51554 0
M  V30 6417 C 617.616 1.17901 -1.64146 0
M  V30 6418 C 617.937 1.91604 -0.362367 0
M  V30 6419 O 617.207 1.85764 0.621968 0
M  V30 6420 H 615.787 0.438206 -0.604966 0
M  V30 6421 H 618.449 0.495172 -1.88505 0
M  V30 6422 H 617.545 1.90584 -2.47152 0
M  V30 6423 N 617.846 1.41785 0.688094 0
M  V30 6424 C 619.071 1.45117 1.48175 0
M  V30 6425 C 619.496 0.060129 1.88004 0
M  V30 6426 O 618.854 -0.938385 1.55126 0
M  V30 6427 C 618.902 2.37224 2.71583 0
M  V30 6428 O 618.006 1.83443 3.69354 0
M  V30 6429 H 617.347 0.492208 0.445676 0
M  V30 6430 H 619.877 1.86329 0.845145 0
M  V30 6431 H 619.887 2.53353 3.19806 0
M  V30 6432 H 618.562 3.38293 2.41931 0
M  V30 6433 H 617.139 1.76802 3.28322 0
M  V30 6434 N 619.324 -0.923095 1.27737 0
M  V30 6435 C 620.287 -2.00587 1.10894 0
M  V30 6436 C 621.287 -1.60718 0.0514927 0
M  V30 6437 O 622.477 -1.71658 0.296481 0
M  V30 6438 C 619.609 -3.33829 0.690717 0
M  V30 6439 H 620.802 -2.16959 2.07048 0
M  V30 6440 H 618.355 -1.10451 1.1059 0
M  V30 6441 H 619.09 -3.23157 -0.272 0
M  V30 6442 H 618.875 -3.64125 1.45448 0
M  V30 6443 H 620.365 -4.13336 0.595252 0
M  V30 6444 N 620.802 -1.09834 -1.13024 0
M  V30 6445 C 621.765 -0.745058 -2.16752 0
M  V30 6446 C 622.765 0.227435 -1.59183 0
M  V30 6447 O 623.955 0.0050786 -1.74199 0
M  V30 6448 C 621.087 -0.102543 -3.40746 0
M  V30 6449 H 622.28 -1.66375 -2.49518 0
M  V30 6450 H 619.833 -0.898061 -1.27924 0
M  V30 6451 H 620.568 0.827177 -3.13573 0
M  V30 6452 H 620.353 -0.80235 -3.83803 0
M  V30 6453 H 621.843 0.129082 -4.174 0
M  V30 6454 N 622.28 1.30327 -0.886154 0
M  V30 6455 C 623.212 2.27079 -0.311072 0
M  V30 6456 C 624.225 1.53758 0.53502 0
M  V30 6457 O 625.414 1.74947 0.354378 0
M  V30 6458 C 622.514 3.33965 0.576228 0
M  V30 6459 C 621.687 4.36735 -0.241064 0
M  V30 6460 C 620.746 5.23028 0.576916 0
M  V30 6461 O 619.772 5.692 -0.000802231 0
M  V30 6462 N 620.974 5.49016 1.88579 0
M  V30 6463 H 623.739 2.77065 -1.14259 0
M  V30 6464 H 621.3 1.43519 -0.749258 0
M  V30 6465 H 623.292 3.88618 1.12953 0
M  V30 6466 H 621.862 2.839 1.30842 0
M  V30 6467 H 621.082 3.81932 -0.975805 0
M  V30 6468 H 622.37 5.02451 -0.801272 0
M  V30 6469 H 621.768 5.13288 2.37806 0
M  V30 6470 H 620.325 6.06539 2.38651 0
M  V30 6471 N 623.758 0.647228 1.43697 0
M  V30 6472 C 624.986 0.16575 2.06235 0
M  V30 6473 C 625.401 -1.1662 1.48476 0
M  V30 6474 O 624.758 -1.7187 0.613762 0
M  V30 6475 C 624.809 0.0621651 3.61447 0
M  V30 6476 O 624.53 1.34146 4.17057 0
M  V30 6477 C 626.031 -0.446102 4.4105 0
M  V30 6478 H 623.251 0.0871158 0.665321 0
M  V30 6479 H 625.795 0.886183 1.84301 0
M  V30 6480 H 623.95 -0.608794 3.82587 0
M  V30 6481 H 624.364 1.19675 5.10664 0
M  V30 6482 H 625.838 -0.46755 5.50016 0
M  V30 6483 H 626.315 -1.47627 4.13646 0
M  V30 6484 H 626.921 0.192159 4.24866 0
M  V30 6485 N 625.236 -1.5273 0.388769 0
M  V30 6486 C 626.652 -1.59553 0.0387049 0
M  V30 6487 C 626.852 -1.40278 -1.44652 0
M  V30 6488 O 625.908 -1.21951 -2.21098 0
M  V30 6489 C 627.221 -2.9625 0.515409 0
M  V30 6490 C 628.769 -3.09426 0.471621 0
M  V30 6491 C 629.244 -4.48572 0.924505 0
M  V30 6492 N 630.735 -4.54754 0.880496 0
M  V30 6493 C 631.47 -5.60653 1.20234 0
M  V30 6494 N 630.966 -6.74198 1.59463 0
M  V30 6495 N 632.759 -5.50755 1.12363 0
M  V30 6496 H 624.91 -1.63508 1.35569 0
M  V30 6497 H 627.173 -0.768097 0.555636 0
M  V30 6498 H 626.879 -3.15569 1.5527 0
M  V30 6499 H 626.753 -3.77102 -0.085792 0
M  V30 6500 H 629.14 -2.89804 -0.556588 0
M  V30 6501 H 629.221 -2.30528 1.10862 0
M  V30 6502 H 628.865 -4.68936 1.95094 0
M  V30 6503 H 628.795 -5.25935 0.264524 0
M  V30 6504 H 631.286 -3.73237 0.591815 0
M  V30 6505 H 631.599 -7.5097 1.82385 0
M  V30 6506 H 629.944 -6.75531 1.63349 0
M  V30 6507 H 633.135 -4.6093 0.816169 0
M  V30 6508 H 633.308 -6.33184 1.37777 0
M  V30 6509 N 626.714 -0.118576 -1.57153 0
M  V30 6510 C 627.677 0.817464 -2.14127 0
M  V30 6511 C 628.677 1.1949 -1.07604 0
M  V30 6512 O 629.867 1.12048 -1.33382 0
M  V30 6513 C 626.999 2.10541 -2.68115 0
M  V30 6514 H 628.192 0.322339 -2.98163 0
M  V30 6515 H 625.745 0.130655 -1.55753 0
M  V30 6516 H 626.48 2.64485 -1.87665 0
M  V30 6517 H 626.265 1.84425 -3.4602 0
M  V30 6518 H 627.755 2.77453 -3.12105 0
M  V30 6519 N 628.193 1.56834 0.155195 0
M  V30 6520 C 629.126 1.9278 1.22111 0
M  V30 6521 C 630.104 0.792588 1.41975 0
M  V30 6522 O 631.288 1.04743 1.5672 0
M  V30 6523 C 628.415 2.19273 2.58142 0
M  V30 6524 C 627.461 3.41932 2.54921 0
M  V30 6525 S 628.294 4.95769 2.02418 0
M  V30 6526 C 629.45 5.25375 3.40194 0
M  V30 6527 H 629.683 2.82889 0.914393 0
M  V30 6528 H 627.216 1.50133 0.360461 0
M  V30 6529 H 629.174 2.35217 3.36427 0
M  V30 6530 H 627.835 1.29843 2.86007 0
M  V30 6531 H 627.028 3.57721 3.55038 0
M  V30 6532 H 626.63 3.25188 1.8474 0
M  V30 6533 H 628.922 5.1834 4.36268 0
M  V30 6534 H 629.865 6.26889 3.29266 0
M  V30 6535 H 630.273 4.52906 3.36951 0
M  V30 6536 N 629.671 -0.424282 1.51781 0
M  V30 6537 C 630.618 -1.51591 1.74037 0
M  V30 6538 C 631.588 -1.55556 0.582358 0
M  V30 6539 O 632.773 -1.72364 0.818245 0
M  V30 6540 C 629.913 -2.89188 1.8832 0
M  V30 6541 C 629.026 -2.9465 3.1592 0
M  V30 6542 C 628.161 -4.23452 3.20721 0
M  V30 6543 C 627.2 -4.22831 4.42584 0
M  V30 6544 N 626.337 -5.43178 4.44862 0
M  V30 6545 H 631.177 -1.31917 2.67212 0
M  V30 6546 H 628.714 -0.640599 1.32419 0
M  V30 6547 H 630.672 -3.69044 1.94583 0
M  V30 6548 H 629.302 -3.07392 0.985402 0
M  V30 6549 H 628.354 -2.07378 3.18902 0
M  V30 6550 H 629.666 -2.90055 4.05795 0
M  V30 6551 H 628.82 -5.1169 3.25973 0
M  V30 6552 H 627.559 -4.30722 2.28757 0
M  V30 6553 H 626.564 -3.32984 4.37495 0
M  V30 6554 H 627.789 -4.17213 5.35826 0
M  V30 6555 H 625.735 -5.51145 3.55775 0
M  V30 6556 H 625.652 -5.40515 5.28563 0
M  V30 6557 H 626.92 -6.33412 4.54324 0
M  V30 6558 N 631.149 -1.42148 -0.680565 0
M  V30 6559 C 632.081 -1.41119 -1.80605 0
M  V30 6560 C 633.094 -0.311099 -1.598 0
M  V30 6561 O 634.283 -0.573813 -1.69026 0
M  V30 6562 C 631.383 -1.18204 -3.17618 0
M  V30 6563 C 630.556 -2.40537 -3.65322 0
M  V30 6564 C 629.615 -2.13254 -4.8105 0
M  V30 6565 O 628.641 -2.8641 -4.91892 0
M  V30 6566 N 629.843 -1.13208 -5.69354 0
M  V30 6567 H 632.608 -2.38128 -1.81975 0
M  V30 6568 H 630.169 -1.36953 -0.863446 0
M  V30 6569 H 632.161 -0.97878 -3.92686 0
M  V30 6570 H 630.731 -0.29738 -3.11182 0
M  V30 6571 H 629.951 -2.76468 -2.80996 0
M  V30 6572 H 631.239 -3.22012 -3.93936 0
M  V30 6573 H 630.637 -0.526893 -5.63241 0
M  V30 6574 H 629.194 -0.988699 -6.44258 0
M  V30 6575 N 632.627 0.916307 -1.28225 0
M  V30 6576 C 633.873 1.66765 -1.154 0
M  V30 6577 C 634.206 1.91912 0.297251 0
M  V30 6578 O 633.481 1.51766 1.21644 0
M  V30 6579 C 633.764 3.02715 -1.95028 0
M  V30 6580 C 633.617 2.84738 -3.48201 0
M  V30 6581 C 634.936 4.03215 -1.76369 0
M  V30 6582 H 632.055 0.605205 -0.42059 0
M  V30 6583 H 634.697 1.06255 -1.57512 0
M  V30 6584 H 632.847 3.54365 -1.59242 0
M  V30 6585 H 634.519 2.40118 -3.9388 0
M  V30 6586 H 632.762 2.19848 -3.73964 0
M  V30 6587 H 633.433 3.8127 -3.99171 0
M  V30 6588 H 635.909 3.60617 -2.07593 0
M  V30 6589 H 634.785 4.96306 -2.34459 0
M  V30 6590 H 635.046 4.36288 -0.71452 0
M  V30 6591 N 634.105 1.10431 1.1244 0
M  V30 6592 C 635.068 0.756542 2.16354 0
M  V30 6593 C 636.068 -0.21899 1.59302 0
M  V30 6594 O 637.258 0.00415969 1.742 0
M  V30 6595 C 634.39 0.120612 3.40687 0
M  V30 6596 H 635.583 1.67696 2.48632 0
M  V30 6597 H 633.136 0.904832 1.27446 0
M  V30 6598 H 633.871 -0.810536 3.14008 0
M  V30 6599 H 633.656 0.822693 3.83372 0
M  V30 6600 H 635.146 -0.106945 4.17463 0
M  V30 6601 N 635.583 -1.29855 0.893053 0
M  V30 6602 C 636.831 -1.9544 0.514566 0
M  V30 6603 C 637.152 -1.70795 -0.940959 0
M  V30 6604 O 636.422 -1.03601 -1.66264 0
M  V30 6605 H 635.002 -0.723137 0.187302 0
M  V30 6606 H 637.664 -1.58234 1.13789 0
M  V30 6607 H 636.76 -3.04341 0.691581 0
M  V30 6608 N 637.061 -0.65484 -1.43351 0
M  V30 6609 C 638.289 -0.176685 -2.06144 0
M  V30 6610 C 638.704 1.15831 -1.49093 0
M  V30 6611 O 638.061 1.71542 -0.622868 0
M  V30 6612 C 638.112 -0.0813326 -3.61408 0
M  V30 6613 O 637.833 -1.36355 -4.1634 0
M  V30 6614 C 639.334 0.422706 -4.4128 0
M  V30 6615 H 636.554 -0.0906429 -0.66485 0
M  V30 6616 H 639.098 -0.895945 -1.83829 0
M  V30 6617 H 637.253 0.588496 -3.82904 0
M  V30 6618 H 637.667 -1.22381 -5.10023 0
M  V30 6619 H 639.141 0.438375 -5.50257 0
M  V30 6620 H 639.618 1.45432 -4.14423 0
M  V30 6621 H 640.224 -0.214687 -4.24758 0
M  V30 6622 N 638.539 1.52521 -0.396863 0
M  V30 6623 C 639.472 2.23118 0.478926 0
M  V30 6624 C 640.45 1.23475 1.05796 0
M  V30 6625 O 641.634 1.52486 1.10817 0
M  V30 6626 C 638.761 2.95028 1.66362 0
M  V30 6627 C 637.807 4.09002 1.20913 0
M  V30 6628 S 638.64 5.35182 0.184407 0
M  V30 6629 C 639.796 6.10616 1.37471 0
M  V30 6630 H 640.029 2.97056 -0.120542 0
M  V30 6631 H 637.562 1.53334 -0.18109 0
M  V30 6632 H 639.52 3.37066 2.34301 0
M  V30 6633 H 638.181 2.20756 2.23441 0
M  V30 6634 H 637.374 4.58445 2.09389 0
M  V30 6635 H 636.976 3.69016 0.608559 0
M  V30 6636 H 639.268 6.37247 2.30048 0
M  V30 6637 H 640.211 7.02084 0.921051 0
M  V30 6638 H 640.619 5.41499 1.59495 0
M  V30 6639 N 640.017 0.126909 1.57088 0
M  V30 6640 C 640.964 -0.82036 2.15728 0
M  V30 6641 C 641.934 -1.25811 1.08447 0
M  V30 6642 O 643.119 -1.33422 1.36393 0
M  V30 6643 C 640.259 -2.06199 2.76724 0
M  V30 6644 C 639.372 -1.67188 3.98337 0
M  V30 6645 C 638.507 -2.86378 4.47393 0
M  V30 6646 C 637.546 -2.43644 5.61519 0
M  V30 6647 N 636.683 -3.55775 6.05284 0
M  V30 6648 H 641.523 -0.313472 2.96347 0
M  V30 6649 H 639.06 -0.14303 1.46403 0
M  V30 6650 H 641.018 -2.78959 3.10222 0
M  V30 6651 H 639.648 -2.54333 1.98782 0
M  V30 6652 H 638.7 -0.842714 3.70948 0
M  V30 6653 H 640.012 -1.31789 4.81075 0
M  V30 6654 H 639.166 -3.67353 4.82842 0
M  V30 6655 H 637.905 -3.25009 3.63621 0
M  V30 6656 H 636.91 -1.61104 5.25667 0
M  V30 6657 H 638.135 -2.06122 6.47063 0
M  V30 6658 H 636.081 -3.94065 5.24451 0
M  V30 6659 H 635.998 -3.24325 6.82898 0
M  V30 6660 H 637.266 -4.37166 6.45373 0
M  V30 6661 N 641.495 -1.56914 -0.146875 0
M  V30 6662 C 642.425 -2.01308 -1.1831 0
M  V30 6663 C 643.406 -0.892664 -1.44795 0
M  V30 6664 O 644.591 -1.16048 -1.55713 0
M  V30 6665 C 641.721 -2.3938 -2.51624 0
M  V30 6666 C 640.675 -3.54608 -2.3966 0
M  V30 6667 C 640.001 -3.78493 -3.77686 0
M  V30 6668 C 641.301 -4.87269 -1.88058 0
M  V30 6669 H 642.995 -2.88123 -0.813964 0
M  V30 6670 H 640.541 -1.38615 -0.3901 0
M  V30 6671 H 642.494 -2.69037 -3.24341 0
M  V30 6672 H 641.218 -1.49502 -2.90373 0
M  V30 6673 H 639.877 -3.25116 -1.69396 0
M  V30 6674 H 639.525 -2.85866 -4.13871 0
M  V30 6675 H 639.225 -4.56039 -3.70543 0
M  V30 6676 H 640.749 -4.10576 -4.51951 0
M  V30 6677 H 642.163 -5.15644 -2.50568 0
M  V30 6678 H 640.56 -5.68622 -1.91805 0
M  V30 6679 H 641.63 -4.77634 -0.836277 0
M  V30 6680 N 642.974 0.416227 -1.52004 0
M  V30 6681 C 643.884 1.53147 -1.77717 0
M  V30 6682 C 644.9 1.609 -0.662368 0
M  V30 6683 O 646.076 1.77747 -0.946991 0
M  V30 6684 C 643.141 2.88948 -1.91598 0
M  V30 6685 C 642.202 2.9114 -3.15493 0
M  V30 6686 C 641.435 4.20464 -3.28703 0
M  V30 6687 O 641.658 5.13981 -2.47345 0
M  V30 6688 O 640.592 4.29368 -4.21813 0
M  V30 6689 H 644.418 1.34357 -2.72363 0
M  V30 6690 H 642.003 0.601373 -1.36762 0
M  V30 6691 H 643.885 3.69505 -2.02593 0
M  V30 6692 H 642.56 3.07821 -1.00141 0
M  V30 6693 H 641.467 2.09461 -3.09962 0
M  V30 6694 H 642.8 2.77216 -4.06709 0
M  V30 6695 N 644.452 1.42507 0.673017 0
M  V30 6696 C 645.382 1.48916 1.79851 0
M  V30 6697 C 646.363 0.345566 1.66553 0
M  V30 6698 O 647.548 0.560116 1.85947 0
M  V30 6699 C 644.678 1.39258 3.18158 0
M  V30 6700 C 643.632 2.51662 3.46194 0
M  V30 6701 C 642.958 2.27062 4.84094 0
M  V30 6702 C 644.258 3.93968 3.42909 0
M  V30 6703 H 645.952 2.43114 1.74745 0
M  V30 6704 H 643.498 1.17013 0.839288 0
M  V30 6705 H 645.451 1.42349 3.96629 0
M  V30 6706 H 644.175 0.415542 3.23946 0
M  V30 6707 H 642.834 2.47891 2.70084 0
M  V30 6708 H 642.482 1.27648 4.86534 0
M  V30 6709 H 642.182 3.02398 5.03815 0
M  V30 6710 H 643.706 2.31905 5.64847 0
M  V30 6711 H 645.12 3.99332 4.11347 0
M  V30 6712 H 643.517 4.6917 3.74165 0
M  V30 6713 H 644.587 4.20512 2.41449 0
M  V30 6714 N 645.93 -0.909495 1.28709 0
M  V30 6715 C 646.893 -1.99399 1.13016 0
M  V30 6716 C 647.893 -1.60654 0.068536 0
M  V30 6717 O 649.083 -1.71334 0.314671 0
M  V30 6718 C 646.215 -3.33078 0.726085 0
M  V30 6719 H 647.408 -2.14751 2.09338 0
M  V30 6720 H 644.961 -1.09272 1.11756 0
M  V30 6721 H 645.696 -3.23428 -0.23771 0
M  V30 6722 H 645.481 -3.62562 1.49302 0
M  V30 6723 H 646.971 -4.12681 0.639058 0
M  V30 6724 N 647.408 -1.11026 -1.11852 0
M  V30 6725 C 648.34 -0.72249 -2.17515 0
M  V30 6726 C 649.353 0.243782 -1.60964 0
M  V30 6727 O 650.542 0.0273252 -1.78479 0
M  V30 6728 C 647.642 -0.0463979 -3.38868 0
M  V30 6729 C 646.815 -1.0384 -4.24895 0
M  V30 6730 C 645.874 -0.392659 -5.24733 0
M  V30 6731 O 644.9 -1.0453 -5.5952 0
M  V30 6732 N 646.102 0.846296 -5.74298 0
M  V30 6733 H 648.867 -1.63161 -2.51393 0
M  V30 6734 H 646.428 -0.999899 -1.27333 0
M  V30 6735 H 648.42 0.397215 -4.02746 0
M  V30 6736 H 646.99 0.765231 -3.03089 0
M  V30 6737 H 646.21 -1.6601 -3.57539 0
M  V30 6738 H 647.498 -1.70968 -4.79215 0
M  V30 6739 H 646.896 1.39578 -5.4821 0
M  V30 6740 H 645.453 1.23296 -6.40032 0
M  V30 6741 N 648.886 1.2938 -0.899927 0
M  V30 6742 C 650.116 1.99402 -0.540601 0
M  V30 6743 C 650.524 1.67534 0.87914 0
M  V30 6744 O 649.867 0.916821 1.59186 0
M  V30 6745 C 649.929 3.53514 -0.653326 0
M  V30 6746 C 649.593 4.08937 -2.04009 0
M  V30 6747 C 650.59 4.23815 -3.01126 0
M  V30 6748 C 648.275 4.43962 -2.34953 0
M  V30 6749 C 650.269 4.72951 -4.27313 0
M  V30 6750 C 647.956 4.92795 -3.61382 0
M  V30 6751 C 648.954 5.07244 -4.57376 0
M  V30 6752 O 648.642 5.55017 -5.8156 0
M  V30 6753 H 648.374 0.64383 -0.206057 0
M  V30 6754 H 650.928 1.65878 -1.21134 0
M  V30 6755 H 649.158 3.86628 0.0744449 0
M  V30 6756 H 650.847 4.04767 -0.303118 0
M  V30 6757 H 651.613 3.97043 -2.78535 0
M  V30 6758 H 647.492 4.31974 -1.60994 0
M  V30 6759 H 651.036 4.84144 -5.02245 0
M  V30 6760 H 646.933 5.19004 -3.83804 0
M  V30 6761 H 647.701 5.73331 -5.84153 0
M  V30 6762 N 650.364 0.662433 1.43002 0
M  V30 6763 C 651.78 0.330835 1.56133 0
M  V30 6764 C 651.98 -1.16454 1.64441 0
M  V30 6765 O 651.036 -1.94964 1.60453 0
M  V30 6766 C 652.349 1.05029 2.81761 0
M  V30 6767 C 653.897 1.03142 2.95518 0
M  V30 6768 C 654.372 1.73196 4.2399 0
M  V30 6769 N 655.863 1.70004 4.30875 0
M  V30 6770 C 656.598 2.21074 5.29069 0
M  V30 6771 N 656.094 2.80473 6.33488 0
M  V30 6772 N 657.887 2.1152 5.20784 0
M  V30 6773 H 650.038 1.63272 1.35853 0
M  V30 6774 H 652.301 0.687149 0.653092 0
M  V30 6775 H 652.007 2.10542 2.81718 0
M  V30 6776 H 651.881 0.607664 3.72273 0
M  V30 6777 H 654.268 -0.0153339 2.95096 0
M  V30 6778 H 654.349 1.51282 2.0627 0
M  V30 6779 H 653.993 2.77833 4.25172 0
M  V30 6780 H 653.923 1.22515 5.1215 0
M  V30 6781 H 656.414 1.26667 3.56039 0
M  V30 6782 H 656.727 3.17094 7.04749 0
M  V30 6783 H 655.072 2.84538 6.34085 0
M  V30 6784 H 658.263 1.64814 4.38126 0
M  V30 6785 H 658.436 2.51629 5.97149 0
M  V30 6786 N 651.842 -1.52309 0.404946 0
M  V30 6787 C 652.752 -2.30634 -0.429555 0
M  V30 6788 C 653.768 -1.38187 -1.05737 0
M  V30 6789 O 654.944 -1.71261 -1.05979 0
M  V30 6790 C 652.009 -3.10947 -1.53339 0
M  V30 6791 C 651.07 -4.19126 -0.929065 0
M  V30 6792 C 650.303 -4.95601 -1.9803 0
M  V30 6793 O 650.526 -4.72331 -3.1978 0
M  V30 6794 O 649.46 -5.80551 -1.58886 0
M  V30 6795 H 653.286 -3.0298 0.208963 0
M  V30 6796 H 650.871 -1.4845 0.168255 0
M  V30 6797 H 652.753 -3.60974 -2.1743 0
M  V30 6798 H 651.428 -2.41399 -2.15658 0
M  V30 6799 H 650.335 -3.73257 -0.250982 0
M  V30 6800 H 651.668 -4.90955 -0.349855 0
M  V30 6801 N 653.32 -0.135238 -1.57019 0
M  V30 6802 C 654.566 0.519563 -1.96032 0
M  V30 6803 C 654.899 1.65284 -1.01955 0
M  V30 6804 O 654.174 1.94408 -0.059727 0
M  V30 6805 C 654.457 1.0369 -3.44848 0
M  V30 6806 C 654.31 -0.0940754 -4.49702 0
M  V30 6807 C 655.629 1.92254 -3.95887 0
M  V30 6808 H 652.748 0.18739 -0.712779 0
M  V30 6809 H 655.39 -0.214086 -1.8879 0
M  V30 6810 H 653.54 1.66209 -3.5115 0
M  V30 6811 H 655.212 -0.73 -4.55487 0
M  V30 6812 H 653.455 -0.754924 -4.27181 0
M  V30 6813 H 654.126 0.309419 -5.51132 0
M  V30 6814 H 656.602 1.39581 -3.9199 0
M  V30 6815 H 655.478 2.25364 -5.00502 0
M  V30 6816 H 655.739 2.85513 -3.37543 0
M  V30 6817 N 654.798 1.5699 0.138552 0
M  V30 6818 C 655.761 1.97984 1.15478 0
M  V30 6819 C 656.761 0.867416 1.35398 0
M  V30 6820 O 657.951 1.13387 1.32246 0
M  V30 6821 C 655.083 2.3031 2.51337 0
M  V30 6822 H 656.276 2.88953 0.802896 0
M  V30 6823 H 653.829 1.51555 0.382189 0
M  V30 6824 H 654.564 1.42159 2.91481 0
M  V30 6825 H 654.349 3.11425 2.38237 0
M  V30 6826 H 655.839 2.62834 3.24512 0
M  V30 6827 N 656.276 -0.40816 1.52223 0
M  V30 6828 C 657.239 -1.48 1.7501 0
M  V30 6829 C 658.239 -1.48367 0.619996 0
M  V30 6830 O 659.429 -1.49874 0.887881 0
M  V30 6831 C 656.561 -2.87403 1.83336 0
M  V30 6832 H 657.754 -1.29086 2.70697 0
M  V30 6833 H 655.307 -0.638715 1.42654 0
M  V30 6834 H 656.042 -3.11686 0.895677 0
M  V30 6835 H 655.827 -2.8854 2.65494 0
M  V30 6836 H 657.317 -3.65103 2.02705 0
M  V30 6837 N 657.755 -1.42862 -0.66545 0
M  V30 6838 C 659.002 -1.4383 -1.42546 0
M  V30 6839 C 659.33 -0.0581114 -1.94413 0
M  V30 6840 O 658.585 0.935002 -1.71919 0
M  V30 6841 C 658.884 -2.4175 -2.63233 0
M  V30 6842 C 658.55 -3.87915 -2.29854 0
M  V30 6843 C 657.212 -4.27726 -2.20463 0
M  V30 6844 C 659.564 -4.80074 -2.02924 0
M  V30 6845 C 656.892 -5.57666 -1.82279 0
M  V30 6846 C 659.244 -6.10366 -1.66242 0
M  V30 6847 C 657.908 -6.49167 -1.55367 0
M  V30 6848 H 657.178 -0.52631 -0.521612 0
M  V30 6849 H 659.825 -1.75863 -0.757914 0
M  V30 6850 H 658.13 -2.03077 -3.35063 0
M  V30 6851 H 659.827 -2.39759 -3.21429 0
M  V30 6852 H 656.417 -3.564 -2.3807 0
M  V30 6853 H 660.601 -4.50097 -2.09108 0
M  V30 6854 H 655.857 -5.8658 -1.72436 0
M  V30 6855 H 660.031 -6.81258 -1.44432 0
M  V30 6856 H 657.658 -7.49761 -1.2555 0
M  V30 6857 N 659.233 0.902656 -1.29189 0
M  V30 6858 C 660.196 1.98797 -1.14071 0
M  V30 6859 C 661.196 1.60615 -0.0770549 0
M  V30 6860 O 662.386 1.71165 -0.323753 0
M  V30 6861 C 659.518 3.32688 -0.743739 0
M  V30 6862 H 660.711 2.13637 -2.10473 0
M  V30 6863 H 658.264 1.08678 -1.12334 0
M  V30 6864 H 658.999 3.23549 0.220554 0
M  V30 6865 H 658.784 3.61765 -1.51223 0
M  V30 6866 H 660.274 4.12337 -0.660935 0
M  V30 6867 N 660.711 1.11618 1.11262 0
M  V30 6868 C 661.643 0.734015 2.17129 0
M  V30 6869 C 662.656 -0.235243 1.61091 0
M  V30 6870 O 663.845 -0.0178597 1.78491 0
M  V30 6871 C 660.945 0.0643682 3.38839 0
M  V30 6872 C 660.118 1.06092 4.24339 0
M  V30 6873 C 659.177 0.420482 5.24517 0
M  V30 6874 O 658.203 1.07495 5.58957 0
M  V30 6875 N 659.405 -0.815828 5.74739 0
M  V30 6876 H 662.17 1.64492 2.50524 0
M  V30 6877 H 659.731 1.00664 1.26801 0
M  V30 6878 H 661.723 -0.375851 4.02951 0
M  V30 6879 H 660.293 -0.749147 3.03491 0
M  V30 6880 H 659.513 1.67903 3.56654 0
M  V30 6881 H 660.801 1.73507 4.78302 0
M  V30 6882 H 660.199 -1.36668 5.48943 0
M  V30 6883 H 658.756 -1.199 6.40677 0
M  V30 6884 N 662.189 -1.289 0.906776 0
M  V30 6885 C 663.436 -1.95269 0.536326 0
M  V30 6886 C 663.764 -1.71435 -0.918711 0
M  V30 6887 O 663.019 -1.02431 -1.66752 0
M  V30 6888 C 663.318 -3.48704 0.783617 0
M  V30 6889 C 662.984 -3.92626 2.21711 0
M  V30 6890 C 661.646 -4.04329 2.60906 0
M  V30 6891 C 663.998 -4.15218 3.15029 0
M  V30 6892 C 661.326 -4.35998 3.92584 0
M  V30 6893 C 663.678 -4.48365 4.46264 0
M  V30 6894 C 662.342 -4.58278 4.85322 0
M  V30 6895 H 661.612 -0.714538 0.196256 0
M  V30 6896 H 664.259 -1.53366 1.14678 0
M  V30 6897 H 662.564 -3.91696 0.0903048 0
M  V30 6898 H 664.261 -3.98162 0.476267 0
M  V30 6899 H 660.851 -3.84038 1.90296 0
M  V30 6900 H 665.035 -4.05636 2.8596 0
M  V30 6901 H 660.291 -4.41878 4.22557 0
M  V30 6902 H 664.465 -4.64795 5.18593 0
M  V30 6903 H 662.092 -4.82573 5.87391 0
M  V30 6904 N 663.667 -0.670007 -1.42649 0
M  V30 6905 C 664.915 -0.18991 -2.01206 0
M  V30 6906 C 665.236 1.20617 -1.53221 0
M  V30 6907 O 664.506 1.80898 -0.751856 0
M  V30 6908 H 663.086 -0.0672189 -0.743969 0
M  V30 6909 H 665.748 -0.865442 -1.74631 0
M  V30 6910 H 664.844 -0.187481 -3.11536 0
M  V30 6911 N 665.145 1.52092 -0.413018 0
M  V30 6912 C 666.37 2.06756 0.163338 0
M  V30 6913 C 666.795 1.28073 1.37764 0
M  V30 6914 O 666.153 0.312015 1.78595 0
M  V30 6915 C 666.201 3.57278 0.488322 0
M  V30 6916 O 665.305 3.80986 1.57871 0
M  V30 6917 H 664.646 0.663882 0.0125068 0
M  V30 6918 H 667.176 1.95988 -0.587339 0
M  V30 6919 H 667.186 4.01125 0.745836 0
M  V30 6920 H 665.861 4.13978 -0.399327 0
M  V30 6921 H 664.438 3.49017 1.31306 0
M  V30 6922 N 666.623 0.143563 1.56945 0
M  V30 6923 C 667.9 -0.553285 1.87612 0
M  V30 6924 C 668.28 -1.83195 1.04894 0
M  V30 6925 O 667.628 -2.28102 0.134773 0
M  V30 6926 C 667.838 -0.822055 3.3918 0
M  V30 6927 C 669.186 -1.16435 4.08324 0
M  V30 6928 O 670.21 -0.911522 3.4434 0
M  V30 6929 O 669.069 -1.63996 5.21313 0
M  V30 6930 H 666.163 -0.281851 0.777489 0
M  V30 6931 H 668.709 0.179916 1.68744 0
M  V30 6932 H 667.481 0.0830265 3.91212 0
M  V30 6933 H 667.104 -1.60956 3.63564 0
M  V30 6934 N 668.101 -1.57061 -0.130224 0
M  V30 6935 C 669.031 -2.02552 -1.16168 0
M  V30 6936 C 670.012 -0.907971 -1.4384 0
M  V30 6937 O 671.197 -1.17693 -1.54473 0
M  V30 6938 C 668.327 -2.42035 -2.49071 0
M  V30 6939 C 667.281 -3.5713 -2.35886 0
M  V30 6940 C 666.607 -3.82478 -3.7365 0
M  V30 6941 C 667.907 -4.89236 -1.8288 0
M  V30 6942 H 669.601 -2.8897 -0.783359 0
M  V30 6943 H 667.147 -1.39021 -0.375376 0
M  V30 6944 H 669.1 -2.72462 -3.21469 0
M  V30 6945 H 667.824 -1.52573 -2.88771 0
M  V30 6946 H 666.483 -3.26895 -1.65938 0
M  V30 6947 H 666.131 -2.9024 -4.10816 0
M  V30 6948 H 665.831 -4.59944 -3.65685 0
M  V30 6949 H 667.355 -4.15347 -4.47571 0
M  V30 6950 H 668.769 -5.18272 -2.45085 0
M  V30 6951 H 667.166 -5.70624 -1.85763 0
M  V30 6952 H 668.236 -4.78494 -0.785571 0
M  V30 6953 N 669.579 0.400081 -1.52437 0
M  V30 6954 C 670.856 1.15973 -1.57511 0
M  V30 6955 C 671.236 2.0798 -0.361572 0
M  V30 6956 O 670.584 2.19032 0.650929 0
M  V30 6957 C 670.794 1.92912 -2.90837 0
M  V30 6958 C 672.142 2.48662 -3.44169 0
M  V30 6959 O 673.166 2.03081 -2.92637 0
M  V30 6960 O 672.025 3.31894 -4.34176 0
M  V30 6961 H 669.119 0.530023 -0.634827 0
M  V30 6962 H 671.665 0.40613 -1.64769 0
M  V30 6963 H 670.437 1.25564 -3.70607 0
M  V30 6964 H 670.06 2.75257 -2.86913 0
M  V30 6965 N 671.057 1.43213 0.657864 0
M  V30 6966 C 672.02 1.47687 1.75275 0
M  V30 6967 C 673.02 0.362179 1.56668 0
M  V30 6968 O 674.21 0.623734 1.62651 0
M  V30 6969 C 671.342 1.32497 3.14098 0
M  V30 6970 H 672.535 2.4519 1.7269 0
M  V30 6971 H 670.088 1.2991 0.869087 0
M  V30 6972 H 670.823 0.359831 3.22298 0
M  V30 6973 H 670.608 2.13299 3.29008 0
M  V30 6974 H 672.098 1.38549 3.93946 0
M  V30 6975 N 672.536 -0.895792 1.29666 0
M  V30 6976 C 673.499 -1.98189 1.15124 0
M  V30 6977 C 674.499 -1.60572 0.0855717 0
M  V30 6978 O 675.689 -1.70991 0.332826 0
M  V30 6979 C 672.821 -3.32289 0.761372 0
M  V30 6980 H 674.014 -2.12518 2.11603 0
M  V30 6981 H 671.567 -1.0808 1.12908 0
M  V30 6982 H 672.302 -3.23662 -0.203393 0
M  V30 6983 H 672.087 -3.60958 1.53139 0
M  V30 6984 H 673.577 -4.1198 0.682792 0
M  V30 6985 N 674.014 -1.12206 -1.10668 0
M  V30 6986 C 675.242 -0.898635 -1.86366 0
M  V30 6987 C 675.657 0.551991 -1.80551 0
M  V30 6988 O 675.014 1.38152 -1.19249 0
M  V30 6989 C 675.065 -1.36199 -3.34861 0
M  V30 6990 O 674.786 -2.75576 -3.40573 0
M  V30 6991 C 676.287 -1.17515 -4.2744 0
M  V30 6992 H 673.507 -0.321281 -0.589084 0
M  V30 6993 H 676.051 -1.49142 -1.39918 0
M  V30 6994 H 674.206 -0.81249 -3.78784 0
M  V30 6995 H 674.62 -2.95851 -4.33096 0
M  V30 6996 H 676.094 -1.54827 -5.29842 0
M  V30 6997 H 676.571 -0.115486 -4.39048 0
M  V30 6998 H 677.177 -1.71203 -3.89319 0
M  V30 6999 N 675.492 1.28418 -0.913599 0
M  V30 7000 C 676.424 2.26368 -0.359169 0
M  V30 7001 C 677.437 1.54858 0.502285 0
M  V30 7002 O 678.626 1.75659 0.31719 0
M  V30 7003 C 675.726 3.35112 0.50526 0
M  V30 7004 C 674.899 4.36126 -0.333648 0
M  V30 7005 C 673.958 5.24134 0.465845 0
M  V30 7006 O 672.984 5.6907 -0.121538 0
M  V30 7007 N 674.186 5.52892 1.76891 0
M  V30 7008 H 676.951 2.74579 -1.2011 0
M  V30 7009 H 674.512 1.41898 -0.779532 0
M  V30 7010 H 676.504 3.90926 1.04684 0
M  V30 7011 H 675.074 2.86611 1.2479 0
M  V30 7012 H 674.294 3.79776 -1.0566 0
M  V30 7013 H 675.582 5.00638 -0.907669 0
M  V30 7014 H 674.98 5.18217 2.26865 0
M  V30 7015 H 673.537 6.11464 2.25732 0
M  V30 7016 N 676.97 0.677563 1.42291 0
M  V30 7017 C 677.902 -0.0380218 2.29168 0
M  V30 7018 C 678.915 -0.762714 1.43828 0
M  V30 7019 O 680.104 -0.616413 1.67519 0
M  V30 7020 C 677.204 -1.07761 3.21311 0
M  V30 7021 C 676.377 -0.42618 4.35319 0
M  V30 7022 C 675.436 -1.36592 5.08162 0
M  V30 7023 O 674.462 -0.865174 5.62586 0
M  V30 7024 N 675.664 -2.69909 5.13935 0
M  V30 7025 H 678.429 0.707766 2.91223 0
M  V30 7026 H 675.99 0.52219 1.53247 0
M  V30 7027 H 677.982 -1.70761 3.6691 0
M  V30 7028 H 676.552 -1.72511 2.60689 0
M  V30 7029 H 675.772 0.383385 3.92331 0
M  V30 7030 H 677.06 0.0275277 5.08793 0
M  V30 7031 H 676.458 -3.13129 4.71134 0
M  V30 7032 H 675.015 -3.2815 5.6317 0
M  V30 7033 N 678.448 -1.51871 0.421078 0
M  V30 7034 C 679.378 -2.30231 -0.389363 0
M  V30 7035 C 680.359 -1.34946 -1.03555 0
M  V30 7036 O 681.544 -1.63859 -1.04229 0
M  V30 7037 C 678.674 -3.13247 -1.49979 0
M  V30 7038 C 677.628 -4.16677 -0.977966 0
M  V30 7039 C 676.954 -4.88112 -2.1829 0
M  V30 7040 C 678.254 -5.22295 -0.0236775 0
M  V30 7041 H 679.948 -2.98229 0.264524 0
M  V30 7042 H 677.494 -1.43424 0.12866 0
M  V30 7043 H 679.447 -3.66838 -2.07383 0
M  V30 7044 H 678.171 -2.4304 -2.18173 0
M  V30 7045 H 676.83 -3.64114 -0.426245 0
M  V30 7046 H 676.478 -4.14423 -2.85066 0
M  V30 7047 H 676.178 -5.58041 -1.84021 0
M  V30 7048 H 677.702 -5.44521 -2.76278 0
M  V30 7049 H 679.116 -5.71055 -0.506899 0
M  V30 7050 H 677.513 -5.99656 0.230782 0
M  V30 7051 H 678.583 -4.76131 0.917999 0
M  V30 7052 N 679.926 -0.151884 -1.56866 0
M  V30 7053 C 680.856 0.781943 -2.20018 0
M  V30 7054 C 681.837 1.25347 -1.14987 0
M  V30 7055 O 683.022 1.31015 -1.43348 0
M  V30 7056 C 680.152 2.01928 -2.82564 0
M  V30 7057 C 679.106 1.68434 -3.93464 0
M  V30 7058 C 678.432 2.99472 -4.42968 0
M  V30 7059 C 679.732 0.927244 -5.14003 0
M  V30 7060 H 681.426 0.255607 -2.98307 0
M  V30 7061 H 678.972 0.121502 -1.43486 0
M  V30 7062 H 680.925 2.67741 -3.25411 0
M  V30 7063 H 679.649 2.56943 -2.01614 0
M  V30 7064 H 678.308 1.04998 -3.51242 0
M  V30 7065 H 677.956 3.52488 -3.58834 0
M  V30 7066 H 677.656 2.77823 -5.17772 0
M  V30 7067 H 679.18 3.66348 -4.88489 0
M  V30 7068 H 680.594 1.48756 -5.53665 0
M  V30 7069 H 678.991 0.810513 -5.94601 0
M  V30 7070 H 680.061 -0.0801163 -4.84834 0
M  V30 7071 N 681.404 1.57128 0.121893 0
M  V30 7072 C 682.629 1.89254 0.848385 0
M  V30 7073 C 683.054 0.743527 1.72781 0
M  V30 7074 O 682.412 -0.306056 1.78698 0
M  V30 7075 C 682.46 3.20113 1.66012 0
M  V30 7076 O 681.564 3.05815 2.76679 0
M  V30 7077 H 680.905 0.621103 0.234793 0
M  V30 7078 H 683.435 2.0433 0.10516 0
M  V30 7079 H 683.445 3.52761 2.04996 0
M  V30 7080 H 682.12 4.03336 1.01452 0
M  V30 7081 H 680.697 2.84627 2.40918 0
M  V30 7082 N 682.882 -0.391992 1.52647 0
M  V30 7083 C 684.298 -0.731848 1.41831 0
M  V30 7084 C 684.498 -1.9423 0.536361 0
M  V30 7085 O 683.554 -2.52499 0.00866571 0
M  V30 7086 C 684.867 -0.969743 2.84634 0
M  V30 7087 C 686.415 -1.0714 2.94092 0
M  V30 7088 C 686.89 -1.34195 4.37899 0
M  V30 7089 N 688.381 -1.41023 4.41211 0
M  V30 7090 C 689.116 -1.63616 5.49561 0
M  V30 7091 N 688.612 -1.83699 6.68002 0
M  V30 7092 N 690.405 -1.65771 5.371 0
M  V30 7093 H 682.556 0.404547 2.08512 0
M  V30 7094 H 684.819 0.11879 0.940528 0
M  V30 7095 H 684.525 -0.152465 3.51369 0
M  V30 7096 H 684.399 -1.88523 3.26709 0
M  V30 7097 H 686.786 -1.87925 2.27526 0
M  V30 7098 H 686.867 -0.133887 2.55449 0
M  V30 7099 H 686.511 -0.539207 5.0503 0
M  V30 7100 H 686.441 -2.29226 4.74092 0
M  V30 7101 H 688.932 -1.27223 3.55841 0
M  V30 7102 H 689.245 -2.00437 7.46354 0
M  V30 7103 H 687.59 -1.8093 6.71036 0
M  V30 7104 H 690.781 -1.4963 4.43541 0
M  V30 7105 H 690.954 -1.83038 6.21612 0
M  V30 7106 N 684.36 -1.4356 -0.65026 0
M  V30 7107 C 685.608 -1.45046 -1.40734 0
M  V30 7108 C 685.929 -0.0769822 -1.94848 0
M  V30 7109 O 685.199 0.888098 -1.74613 0
M  V30 7110 H 683.779 -0.534034 -0.522318 0
M  V30 7111 H 686.441 -1.79186 -0.766703 0
M  V30 7112 H 685.537 -2.16476 -2.24822 0
M  V30 7113 N 685.838 0.888903 -1.30139 0
M  V30 7114 C 687.084 1.6428 -1.18912 0
M  V30 7115 C 687.417 1.92499 0.256477 0
M  V30 7116 O 686.692 1.54312 1.18397 0
M  V30 7117 C 686.975 2.9851 -2.01405 0
M  V30 7118 C 686.828 2.77288 -3.54163 0
M  V30 7119 C 688.147 3.99383 -1.84882 0
M  V30 7120 H 685.266 0.596148 -0.433333 0
M  V30 7121 H 687.908 1.0289 -1.5973 0
M  V30 7122 H 686.058 3.50907 -1.66722 0
M  V30 7123 H 687.73 2.31709 -3.98884 0
M  V30 7124 H 685.973 2.11867 -3.78543 0
M  V30 7125 H 686.644 3.72717 -4.07168 0
M  V30 7126 H 689.12 3.56132 -2.15196 0
M  V30 7127 H 687.996 4.91222 -2.44934 0
M  V30 7128 H 688.257 4.34674 -0.806902 0
M  V30 7129 N 687.317 1.12792 1.10072 0
M  V30 7130 C 688.733 0.864745 1.34143 0
M  V30 7131 C 688.933 -0.503201 1.95116 0
M  V30 7132 O 687.989 -1.25111 2.19325 0
M  V30 7133 C 689.302 1.98413 2.25949 0
M  V30 7134 C 690.85 2.01545 2.39476 0
M  V30 7135 C 691.325 3.12727 3.34613 0
M  V30 7136 N 692.816 3.12194 3.42183 0
M  V30 7137 C 693.551 3.94862 4.15779 0
M  V30 7138 N 693.047 4.87528 4.92228 0
M  V30 7139 N 694.84 3.82985 4.11435 0
M  V30 7140 H 686.991 2.00926 0.68866 0
M  V30 7141 H 689.254 0.874564 0.365844 0
M  V30 7142 H 688.96 2.97005 1.88364 0
M  V30 7143 H 688.834 1.89254 3.26287 0
M  V30 7144 H 691.221 1.0357 2.76328 0
M  V30 7145 H 691.302 2.14777 1.3894 0
M  V30 7146 H 690.946 4.10936 2.98486 0
M  V30 7147 H 690.876 2.96732 4.35037 0
M  V30 7148 H 693.367 2.45065 2.87666 0
M  V30 7149 H 693.68 5.47109 5.45794 0
M  V30 7150 H 692.025 4.91539 4.9134 0
M  V30 7151 H 695.216 3.09923 3.50807 0
M  V30 7152 H 695.389 4.47641 4.68531 0
M  V30 7153 N 688.795 -1.27931 0.920396 0
M  V30 7154 C 689.725 -2.29487 0.431024 0
M  V30 7155 C 690.706 -1.62435 -0.504861 0
M  V30 7156 O 691.891 -1.89797 -0.411176 0
M  V30 7157 C 689.021 -3.45788 -0.323709 0
M  V30 7158 C 687.975 -4.24784 0.523658 0
M  V30 7159 C 687.301 -5.33488 -0.359809 0
M  V30 7160 C 688.601 -4.90874 1.78437 0
M  V30 7161 H 690.295 -2.70671 1.27975 0
M  V30 7162 H 687.841 -1.30121 0.616813 0
M  V30 7163 H 689.794 -4.15927 -0.676952 0
M  V30 7164 H 688.518 -3.03502 -1.2064 0
M  V30 7165 H 687.177 -3.56382 0.85951 0
M  V30 7166 H 686.825 -4.87445 -1.24124 0
M  V30 7167 H 686.525 -5.87247 0.203605 0
M  V30 7168 H 688.049 -6.06472 -0.708787 0
M  V30 7169 H 689.463 -5.53339 1.49963 0
M  V30 7170 H 687.86 -5.54659 2.29071 0
M  V30 7171 H 688.93 -4.14988 2.50824 0
M  V30 7172 N 690.273 -0.685099 -1.4193 0
M  V30 7173 C 691.501 -0.220372 -2.05723 0
M  V30 7174 C 691.916 1.12642 -1.51516 0
M  V30 7175 O 691.273 1.70182 -0.659114 0
M  V30 7176 C 691.324 -0.157974 -3.61155 0
M  V30 7177 O 691.045 -1.45156 -4.13354 0
M  V30 7178 C 692.546 0.329009 -4.42077 0
M  V30 7179 H 689.766 -0.104725 -0.662777 0
M  V30 7180 H 692.31 -0.934736 -1.81887 0
M  V30 7181 H 690.465 0.507144 -3.84066 0
M  V30 7182 H 690.879 -1.33172 -5.07312 0
M  V30 7183 H 692.353 0.321559 -5.51063 0
M  V30 7184 H 692.83 1.36608 -4.17414 0
M  V30 7185 H 693.436 -0.304737 -4.24207 0
M  V30 7186 N 691.751 1.51645 -0.429126 0
M  V30 7187 C 692.661 2.31288 0.392809 0
M  V30 7188 C 693.677 1.39852 1.03525 0
M  V30 7189 O 694.853 1.72926 1.03241 0
M  V30 7190 C 691.918 3.13347 1.48372 0
M  V30 7191 C 690.979 4.20551 0.862268 0
M  V30 7192 C 690.212 4.98688 1.9012 0
M  V30 7193 O 690.435 4.77359 3.12225 0
M  V30 7194 O 689.369 5.83005 1.4963 0
M  V30 7195 H 693.195 3.02609 -0.257138 0
M  V30 7196 H 690.78 1.48163 -0.191851 0
M  V30 7197 H 692.662 3.64387 2.1166 0
M  V30 7198 H 691.337 2.44799 2.1179 0
M  V30 7199 H 690.244 3.73609 0.191568 0
M  V30 7200 H 691.577 4.91449 0.271704 0
M  V30 7201 N 693.229 0.160201 1.56784 0
M  V30 7202 C 694.159 -0.770264 2.2043 0
M  V30 7203 C 695.14 -1.24736 1.15651 0
M  V30 7204 O 696.325 -1.30253 1.44041 0
M  V30 7205 C 693.455 -2.00427 2.83631 0
M  V30 7206 C 692.409 -1.66345 3.94352 0
M  V30 7207 C 691.735 -2.97119 4.4455 0
M  V30 7208 C 693.035 -0.899972 5.14488 0
M  V30 7209 H 694.729 -0.239783 2.98438 0
M  V30 7210 H 692.275 -0.113891 1.43549 0
M  V30 7211 H 694.228 -2.66012 3.26827 0
M  V30 7212 H 692.952 -2.5587 2.02973 0
M  V30 7213 H 691.611 -1.03133 3.51794 0
M  V30 7214 H 691.259 -3.5058 3.60698 0
M  V30 7215 H 690.959 -2.75073 5.19238 0
M  V30 7216 H 692.483 -3.63753 4.90425 0
M  V30 7217 H 693.897 -1.45818 5.54446 0
M  V30 7218 H 692.294 -0.778968 5.95023 0
M  V30 7219 H 693.364 0.105827 4.84785 0
M  V30 7220 N 694.707 -1.5719 -0.113559 0
M  V30 7221 C 695.637 -2.03772 -1.14013 0
M  V30 7222 C 696.618 -0.923176 -1.42869 0
M  V30 7223 O 697.803 -1.19325 -1.53216 0
M  V30 7224 C 694.933 -2.44663 -2.4649 0
M  V30 7225 C 693.887 -3.59612 -2.32085 0
M  V30 7226 C 693.213 -3.8642 -3.69573 0
M  V30 7227 C 694.513 -4.91149 -1.7768 0
M  V30 7228 H 696.207 -2.89785 -0.752665 0
M  V30 7229 H 693.753 -1.39412 -0.360609 0
M  V30 7230 H 695.706 -2.75857 -3.18561 0
M  V30 7231 H 694.43 -1.55628 -2.87137 0
M  V30 7232 H 693.089 -3.28636 -1.62461 0
M  V30 7233 H 692.737 -2.94581 -4.07715 0
M  V30 7234 H 692.437 -4.63797 -3.60786 0
M  V30 7235 H 693.961 -4.2007 -4.4314 0
M  V30 7236 H 695.375 -5.20843 -2.39574 0
M  V30 7237 H 693.772 -5.72562 -1.79701 0
M  V30 7238 H 694.842 -4.79301 -0.734776 0
M  V30 7239 N 696.185 0.383891 -1.52853 0
M  V30 7240 C 697.132 1.46924 -1.77995 0
M  V30 7241 C 698.102 1.53958 -0.623396 0
M  V30 7242 O 699.287 1.70134 -0.863657 0
M  V30 7243 C 696.427 2.84093 -1.95921 0
M  V30 7244 C 695.54 2.86171 -3.23621 0
M  V30 7245 C 694.675 4.14799 -3.31836 0
M  V30 7246 C 693.714 4.10948 -4.53639 0
M  V30 7247 N 692.851 5.31192 -4.59107 0
M  V30 7248 H 697.691 1.24786 -2.70615 0
M  V30 7249 H 695.228 0.605265 -1.34071 0
M  V30 7250 H 697.186 3.63755 -2.04299 0
M  V30 7251 H 695.816 3.04671 -1.06656 0
M  V30 7252 H 694.868 1.9885 -3.24288 0
M  V30 7253 H 696.18 2.79194 -4.13343 0
M  V30 7254 H 695.334 5.02867 -3.39425 0
M  V30 7255 H 694.073 4.24505 -2.40097 0
M  V30 7256 H 693.078 3.21268 -4.46169 0
M  V30 7257 H 694.303 4.0286 -5.467 0
M  V30 7258 H 692.249 5.41518 -3.70262 0
M  V30 7259 H 692.166 5.26311 -5.42708 0
M  V30 7260 H 693.434 6.21143 -4.70958 0
M  V30 7261 N 697.663 1.43903 0.642637 0
M  V30 7262 C 698.595 1.45857 1.768 0
M  V30 7263 C 699.608 0.353358 1.58919 0
M  V30 7264 O 700.797 0.618426 1.67445 0
M  V30 7265 C 697.897 1.26583 3.14372 0
M  V30 7266 C 697.07 2.50139 3.58817 0
M  V30 7267 C 696.129 2.25933 4.75227 0
M  V30 7268 O 695.155 2.99351 4.84125 0
M  V30 7269 N 696.357 1.28263 5.66153 0
M  V30 7270 H 699.122 2.42869 1.75598 0
M  V30 7271 H 696.683 1.39194 0.826832 0
M  V30 7272 H 698.675 1.08255 3.89953 0
M  V30 7273 H 697.245 0.37978 3.10284 0
M  V30 7274 H 696.465 2.83821 2.73568 0
M  V30 7275 H 697.753 3.32344 3.8526 0
M  V30 7276 H 697.151 0.676041 5.61646 0
M  V30 7277 H 695.708 1.15916 6.4141 0
M  V30 7278 N 699.141 -0.881989 1.30609 0
M  V30 7279 C 700.389 -1.63082 1.19368 0
M  V30 7280 C 700.71 -1.93376 -0.251147 0
M  V30 7281 O 699.98 -1.5723 -1.16857 0
M  V30 7282 H 698.56 -0.604542 0.438791 0
M  V30 7283 H 701.222 -1.05658 1.63776 0
M  V30 7284 H 700.318 -2.57966 1.7567 0
M  V30 7285 N 700.619 -1.13374 -1.09472 0
M  V30 7286 C 701.551 -0.768466 -2.15933 0
M  V30 7287 C 702.564 0.209585 -1.61445 0
M  V30 7288 O 703.753 -0.010539 -1.78497 0
M  V30 7289 C 700.853 -0.118266 -3.38694 0
M  V30 7290 C 700.026 -1.12829 -4.22597 0
M  V30 7291 C 699.085 -0.503875 -5.23782 0
M  V30 7292 O 698.111 -1.16374 -5.57177 0
M  V30 7293 N 699.313 0.724288 -5.75964 0
M  V30 7294 H 702.078 -1.68457 -2.47876 0
M  V30 7295 H 699.639 -1.02668 -1.25183 0
M  V30 7296 H 701.631 0.311698 -4.03498 0
M  V30 7297 H 700.201 0.700769 -3.04644 0
M  V30 7298 H 699.421 -1.73556 -3.53938 0
M  V30 7299 H 700.709 -1.81095 -4.75481 0
M  V30 7300 H 700.107 1.27918 -5.51048 0
M  V30 7301 H 698.664 1.09692 -6.42504 0
M  V30 7302 N 702.098 1.27442 -0.927168 0
M  V30 7303 C 703.328 1.9821 -0.582775 0
M  V30 7304 C 703.736 1.69361 0.843406 0
M  V30 7305 O 703.079 0.950381 1.57205 0
M  V30 7306 C 703.141 3.52048 -0.728165 0
M  V30 7307 C 702.805 4.04518 -2.12637 0
M  V30 7308 C 703.802 4.17332 -3.10048 0
M  V30 7309 C 701.487 4.38879 -2.44317 0
M  V30 7310 C 703.481 4.6378 -4.37249 0
M  V30 7311 C 701.168 4.85018 -3.71753 0
M  V30 7312 C 702.166 4.97428 -4.68033 0
M  V30 7313 O 701.854 5.42556 -5.93202 0
M  V30 7314 H 701.586 0.639314 -0.219667 0
M  V30 7315 H 704.14 1.63272 -1.24626 0
M  V30 7316 H 702.37 3.86699 -0.00758143 0
M  V30 7317 H 704.059 4.04033 -0.388906 0
M  V30 7318 H 704.825 3.91046 -2.86894 0
M  V30 7319 H 700.704 4.28462 -1.70121 0
M  V30 7320 H 704.248 4.73382 -5.12402 0
M  V30 7321 H 700.145 5.10746 -3.94726 0
M  V30 7322 H 700.913 5.60811 -5.96182 0
M  V30 7323 N 703.576 0.692616 1.41565 0
M  V30 7324 C 704.801 0.229776 2.06123 0
M  V30 7325 C 705.226 -1.11119 1.5177 0
M  V30 7326 O 704.584 -1.69498 0.643444 0
M  V30 7327 C 704.632 0.19469 3.60074 0
M  V30 7328 O 703.736 -0.831366 4.03933 0
M  V30 7329 H 703.077 0.113002 0.654314 0
M  V30 7330 H 705.607 0.946645 1.81383 0
M  V30 7331 H 705.617 0.0245487 4.07993 0
M  V30 7332 H 704.292 1.17339 3.99004 0
M  V30 7333 H 702.869 -0.630819 3.67526 0
M  V30 7334 N 705.054 -1.51416 0.437162 0
M  V30 7335 C 706.465 -1.86682 -0.0260005 0
M  V30 7336 C 706.816 -1.35432 -1.4196 0
M  V30 7337 O 705.941 -0.705055 -2.04592 0
M  V30 7338 C 706.536 -3.38757 -0.0539577 0
M  V30 7339 C 705.095 -3.7356 -0.461532 0
M  V30 7340 C 704.242 -2.75134 0.345924 0
M  V30 7341 H 707.193 -1.44642 0.653013 0
M  V30 7342 H 707.214 -3.70573 -0.863478 0
M  V30 7343 H 706.726 -3.76028 0.96045 0
M  V30 7344 H 704.827 -3.41878 -1.48155 0
M  V30 7345 H 704.94 -4.78737 -0.186451 0
M  V30 7346 H 703.304 -2.53947 -0.195739 0
M  V30 7347 H 704.087 -3.15247 1.35921 0
M  V30 7348 N 706.532 -0.168513 -1.56696 0
M  V30 7349 C 707.465 0.801477 -2.13662 0
M  V30 7350 C 708.443 1.22786 -1.06594 0
M  V30 7351 O 709.627 1.32014 -1.34554 0
M  V30 7352 C 706.754 2.07896 -2.6739 0
M  V30 7353 C 705.8 1.79681 -3.86803 0
M  V30 7354 S 706.633 0.968556 -5.26668 0
M  V30 7355 C 707.789 2.25676 -5.83799 0
M  V30 7356 H 708.022 0.317121 -2.95604 0
M  V30 7357 H 705.555 0.0461132 -1.54331 0
M  V30 7358 H 707.513 2.81272 -2.98992 0
M  V30 7359 H 706.174 2.53445 -1.85539 0
M  V30 7360 H 705.367 2.74461 -4.22714 0
M  V30 7361 H 704.969 1.14402 -3.56073 0
M  V30 7362 H 707.261 3.2116 -5.96542 0
M  V30 7363 H 708.204 1.94238 -6.80939 0
M  V30 7364 H 708.612 2.37308 -5.12197 0
M  V30 7365 N 708.01 1.57248 0.105221 0
M  V30 7366 C 708.973 2.00388 1.11252 0
M  V30 7367 C 709.973 0.89594 1.33527 0
M  V30 7368 O 711.163 1.16166 1.29811 0
M  V30 7369 C 708.295 2.35589 2.46395 0
M  V30 7370 H 709.488 2.90591 0.741424 0
M  V30 7371 H 707.041 1.52332 0.349956 0
M  V30 7372 H 707.776 1.4831 2.884 0
M  V30 7373 H 707.561 3.16408 2.31578 0
M  V30 7374 H 709.051 2.69658 3.18864 0
M  V30 7375 N 709.488 -0.375779 1.53054 0
M  V30 7376 C 710.737 -1.11674 1.67964 0
M  V30 7377 C 711.05 -1.90755 0.432655 0
M  V30 7378 O 712.256 -2.67538 0.462109 0
M  V30 7379 C 710.712 -2.0344 2.96884 0
M  V30 7380 C 710.32 -1.29719 4.28809 0
M  V30 7381 C 712.064 -2.7759 3.2116 0
M  V30 7382 C 709.971 -2.20327 5.48826 0
M  V30 7383 H 708.901 -0.420597 0.625791 0
M  V30 7384 H 711.552 -0.378499 1.79554 0
M  V30 7385 H 709.934 -2.80953 2.79072 0
M  V30 7386 H 711.108 -0.573394 4.57219 0
M  V30 7387 H 709.423 -0.674735 4.10897 0
M  V30 7388 H 712.02 -3.4559 4.0801 0
M  V30 7389 H 712.363 -3.42399 2.36789 0
M  V30 7390 H 712.896 -2.07164 3.396 0
M  V30 7391 H 709.635 -1.60113 6.35645 0
M  V30 7392 H 709.155 -2.90585 5.2471 0
M  V30 7393 H 710.834 -2.80116 5.83219 0
M  V30 7394 N 710.966 -1.44241 -0.634997 0
M  V30 7395 C 711.876 -1.53293 -1.77591 0
M  V30 7396 C 712.892 -0.418831 -1.68884 0
M  V30 7397 O 714.068 -0.675619 -1.8973 0
M  V30 7398 C 711.133 -1.47075 -3.13958 0
M  V30 7399 C 710.194 -2.69304 -3.34326 0
M  V30 7400 C 709.427 -2.63374 -4.64187 0
M  V30 7401 O 709.65 -1.69161 -5.44739 0
M  V30 7402 O 708.584 -3.54166 -4.86673 0
M  V30 7403 H 712.41 -2.49673 -1.72908 0
M  V30 7404 H 709.995 -1.26445 -0.795745 0
M  V30 7405 H 711.877 -1.46117 -3.95257 0
M  V30 7406 H 710.552 -0.538373 -3.19192 0
M  V30 7407 H 709.459 -2.75831 -2.52721 0
M  V30 7408 H 710.792 -3.61576 -3.33951 0
M  V30 7409 N 712.444 0.87505 -1.31075 0
M  V30 7410 C 713.354 2.01441 -1.20244 0
M  V30 7411 C 714.37 1.73584 -0.120227 0
M  V30 7412 O 715.546 1.98559 -0.337063 0
M  V30 7413 C 712.611 3.34675 -0.905199 0
M  V30 7414 C 711.672 3.75889 -2.0738 0
M  V30 7415 C 710.905 5.02764 -1.79064 0
M  V30 7416 O 711.128 5.65795 -0.723318 0
M  V30 7417 O 710.062 5.40623 -2.64594 0
M  V30 7418 H 713.888 2.13509 -2.1598 0
M  V30 7419 H 711.473 1.00257 -1.10765 0
M  V30 7420 H 713.355 4.1458 -0.755057 0
M  V30 7421 H 712.03 3.23692 0.0221695 0
M  V30 7422 H 710.937 2.96645 -2.27931 0
M  V30 7423 H 712.27 3.91489 -2.98324 0
M  V30 7424 N 713.922 1.13953 1.08869 0
M  V30 7425 C 714.854 0.779906 2.15523 0
M  V30 7426 C 715.867 -0.20102 1.61554 0
M  V30 7427 O 717.056 0.0200049 1.78489 0
M  V30 7428 C 714.156 0.136226 3.38626 0
M  V30 7429 C 713.329 1.15069 4.21993 0
M  V30 7430 C 712.388 0.531645 5.23507 0
M  V30 7431 O 711.414 1.19327 5.56552 0
M  V30 7432 N 712.616 -0.693734 5.7634 0
M  V30 7433 H 715.381 1.69769 2.46979 0
M  V30 7434 H 712.942 1.03331 1.24637 0
M  V30 7435 H 714.934 -0.290295 4.03658 0
M  V30 7436 H 713.504 -0.684603 3.05011 0
M  V30 7437 H 712.724 1.75431 3.53012 0
M  V30 7438 H 714.012 1.83614 4.74514 0
M  V30 7439 H 713.41 -1.24994 5.51718 0
M  V30 7440 H 711.967 -1.06283 6.43076 0
M  V30 7441 N 715.4 -1.26948 0.933913 0
M  V30 7442 C 716.646 -1.94374 0.57848 0
M  V30 7443 C 716.979 -1.73166 -0.879048 0
M  V30 7444 O 716.254 -1.06438 -1.62792 0
M  V30 7445 C 716.537 -3.4834 0.912739 0
M  V30 7446 C 716.39 -3.78866 2.42448 0
M  V30 7447 C 717.709 -4.38062 0.423003 0
M  V30 7448 H 714.828 -0.705959 0.211639 0
M  V30 7449 H 717.47 -1.49951 1.16682 0
M  V30 7450 H 715.62 -3.86309 0.412058 0
M  V30 7451 H 717.292 -3.50654 2.99733 0
M  V30 7452 H 715.535 -3.25198 2.87104 0
M  V30 7453 H 716.206 -4.86458 2.60887 0
M  V30 7454 H 718.682 -4.0728 0.852191 0
M  V30 7455 H 717.558 -5.44599 0.685776 0
M  V30 7456 H 717.819 -4.36886 -0.676994 0
M  V30 7457 N 716.879 -0.700114 -1.41195 0
M  V30 7458 C 717.842 -0.0465706 -2.29153 0
M  V30 7459 C 718.842 0.703302 -1.44604 0
M  V30 7460 O 720.032 0.537513 -1.657 0
M  V30 7461 C 717.164 0.944324 -3.2756 0
M  V30 7462 H 718.357 -0.821064 -2.88442 0
M  V30 7463 H 715.91 -0.463869 -1.49258 0
M  V30 7464 H 716.645 1.74642 -2.73259 0
M  V30 7465 H 716.43 0.409701 -3.89954 0
M  V30 7466 H 717.92 1.39925 -3.9346 0
M  V30 7467 N 718.357 1.51182 -0.445186 0
M  V30 7468 C 719.603 2.02452 0.11882 0
M  V30 7469 C 719.936 1.32824 1.41673 0
M  V30 7470 O 719.211 0.445637 1.89326 0
M  V30 7471 C 719.494 3.5859 0.329475 0
M  V30 7472 C 719.347 4.38823 -0.987638 0
M  V30 7473 C 720.666 4.26241 1.09575 0
M  V30 7474 H 717.785 0.735819 0.0417092 0
M  V30 7475 H 720.427 1.80747 -0.585718 0
M  V30 7476 H 718.577 3.77214 0.9296 0
M  V30 7477 H 720.249 4.3183 -1.62235 0
M  V30 7478 H 718.492 4.03594 -1.59041 0
M  V30 7479 H 719.163 5.46257 -0.794192 0
M  V30 7480 H 721.639 4.11934 0.587328 0
M  V30 7481 H 720.515 5.35354 1.21191 0
M  V30 7482 H 720.776 3.87635 2.12584 0
M  V30 7483 N 719.835 0.176821 1.56605 0
M  V30 7484 C 721.084 -0.466833 1.96223 0
M  V30 7485 C 721.397 -1.64015 1.06576 0
M  V30 7486 O 722.603 -2.3504 1.35898 0
M  V30 7487 C 721.059 -0.881921 3.48927 0
M  V30 7488 C 720.667 0.266102 4.47209 0
M  V30 7489 C 722.411 -1.49368 3.97353 0
M  V30 7490 C 720.318 -0.168923 5.91159 0
M  V30 7491 H 719.248 -0.178178 0.732645 0
M  V30 7492 H 721.899 0.265929 1.81563 0
M  V30 7493 H 720.281 -1.67082 3.59026 0
M  V30 7494 H 721.455 1.04349 4.4883 0
M  V30 7495 H 719.77 0.788178 4.08872 0
M  V30 7496 H 722.367 -1.8313 5.02362 0
M  V30 7497 H 722.71 -2.3936 3.40606 0
M  V30 7498 H 723.243 -0.769114 3.90294 0
M  V30 7499 H 719.982 0.696351 6.51791 0
M  V30 7500 H 719.502 -0.911552 5.92833 0
M  V30 7501 H 721.181 -0.610938 6.44109 0
M  V30 7502 N 721.313 -1.57302 -0.09688 0
M  V30 7503 C 722.543 -1.89926 -0.813114 0
M  V30 7504 C 722.951 -0.76852 -1.72888 0
M  V30 7505 O 722.294 0.268549 -1.81726 0
M  V30 7506 C 722.356 -3.17787 -1.68082 0
M  V30 7507 C 722.02 -4.4729 -0.937061 0
M  V30 7508 C 723.017 -5.1921 -0.267687 0
M  V30 7509 C 720.702 -4.93957 -0.911671 0
M  V30 7510 C 722.696 -6.36034 0.417129 0
M  V30 7511 C 720.383 -6.10693 -0.223068 0
M  V30 7512 C 721.381 -6.8158 0.440155 0
M  V30 7513 O 721.069 -7.96092 1.11772 0
M  V30 7514 H 720.801 -0.632783 -0.237828 0
M  V30 7515 H 723.355 -2.05248 -0.0790818 0
M  V30 7516 H 721.585 -2.98607 -2.45705 0
M  V30 7517 H 723.274 -3.36257 -2.27346 0
M  V30 7518 H 724.04 -4.84198 -0.278774 0
M  V30 7519 H 719.919 -4.38671 -1.41734 0
M  V30 7520 H 723.463 -6.91301 0.93537 0
M  V30 7521 H 719.36 -6.45159 -0.209821 0
M  V30 7522 H 720.128 -8.12064 1.02443 0
M  V30 7523 N 722.791 0.367657 -1.53252 0
M  V30 7524 C 723.754 1.43308 -1.78873 0
M  V30 7525 C 724.754 1.46671 -0.659115 0
M  V30 7526 O 725.944 1.47468 -0.927306 0
M  V30 7527 C 723.076 2.82442 -1.90892 0
M  V30 7528 H 724.269 1.21864 -2.74024 0
M  V30 7529 H 721.822 0.600668 -1.44297 0
M  V30 7530 H 722.557 3.09202 -0.978 0
M  V30 7531 H 722.342 2.81399 -2.73051 0
M  V30 7532 H 723.832 3.59601 -2.12314 0
M  V30 7533 N 724.269 1.44576 0.627338 0
M  V30 7534 C 725.517 1.47267 1.38408 0
M  V30 7535 C 725.838 0.107971 1.94701 0
M  V30 7536 O 725.108 -0.860206 1.76004 0
M  V30 7537 H 723.688 0.542276 0.513756 0
M  V30 7538 H 726.35 1.80383 0.738099 0
M  V30 7539 H 725.446 2.20025 2.21349 0
M  V30 7540 N 725.747 -0.868086 1.31537 0
M  V30 7541 C 726.993 -1.62367 1.2151 0
M  V30 7542 C 727.326 -1.92883 -0.225819 0
M  V30 7543 O 726.601 -1.56176 -1.15927 0
M  V30 7544 C 726.884 -2.95268 2.06129 0
M  V30 7545 C 726.737 -2.71619 3.58529 0
M  V30 7546 C 728.056 -3.96391 1.91212 0
M  V30 7547 H 725.175 -0.589178 0.442762 0
M  V30 7548 H 727.817 -1.00336 1.61347 0
M  V30 7549 H 725.967 -3.4821 1.72284 0
M  V30 7550 H 727.639 -2.25334 4.0252 0
M  V30 7551 H 725.882 -2.05817 3.81866 0
M  V30 7552 H 726.553 -3.66192 4.13047 0
M  V30 7553 H 729.029 -3.52663 2.20834 0
M  V30 7554 H 727.905 -4.87263 2.52718 0
M  V30 7555 H 728.166 -4.33335 0.875953 0
M  V30 7556 N 727.225 -1.14528 -1.08264 0
M  V30 7557 C 728.641 -0.885976 -1.3275 0
M  V30 7558 C 728.841 0.472096 -1.95892 0
M  V30 7559 O 727.897 1.21606 -2.21288 0
M  V30 7560 C 729.21 -2.01982 -2.22764 0
M  V30 7561 C 730.758 -2.05329 -2.36239 0
M  V30 7562 C 731.233 -3.1801 -3.29596 0
M  V30 7563 N 732.724 -3.17598 -3.37173 0
M  V30 7564 C 733.459 -4.01426 -4.09444 0
M  V30 7565 N 732.955 -4.95297 -4.8441 0
M  V30 7566 N 734.748 -3.89482 -4.0529 0
M  V30 7567 H 726.899 -2.01996 -0.656607 0
M  V30 7568 H 729.162 -0.880274 -0.351884 0
M  V30 7569 H 728.868 -2.99964 -1.83615 0
M  V30 7570 H 728.742 -1.94421 -3.23234 0
M  V30 7571 H 731.129 -1.07953 -2.74646 0
M  V30 7572 H 731.21 -2.1696 -1.35506 0
M  V30 7573 H 730.854 -4.15633 -2.9191 0
M  V30 7574 H 730.784 -3.03616 -4.30261 0
M  V30 7575 H 733.275 -2.4961 -2.83731 0
M  V30 7576 H 733.588 -5.55723 -5.37021 0
M  V30 7577 H 731.933 -4.99293 -4.83457 0
M  V30 7578 H 735.124 -3.15465 -3.45832 0
M  V30 7579 H 735.297 -4.55039 -4.6135 0
M  V30 7580 N 728.703 1.26451 -0.940633 0
M  V30 7581 C 729.951 1.93395 -0.586748 0
M  V30 7582 C 730.272 1.7417 0.876921 0
M  V30 7583 O 729.542 1.097 1.62304 0
M  V30 7584 H 728.122 0.715687 -0.214012 0
M  V30 7585 H 730.784 1.53902 -1.19584 0
M  V30 7586 H 729.88 3.01565 -0.804059 0
M  V30 7587 N 730.181 0.707592 1.40822 0
M  V30 7588 C 731.411 0.252706 2.05049 0
M  V30 7589 C 731.819 -1.10758 1.53393 0
M  V30 7590 O 731.162 -1.70567 0.682097 0
M  V30 7591 C 731.224 0.146001 3.59203 0
M  V30 7592 C 730.888 1.44027 4.33711 0
M  V30 7593 C 731.885 2.38058 4.62195 0
M  V30 7594 C 729.57 1.69698 4.72766 0
M  V30 7595 C 731.564 3.56013 5.28709 0
M  V30 7596 C 729.251 2.87936 5.39014 0
M  V30 7597 C 730.249 3.80915 5.66915 0
M  V30 7598 O 729.937 4.9708 6.31796 0
M  V30 7599 H 729.669 0.112784 0.666525 0
M  V30 7600 H 732.223 0.96417 1.81364 0
M  V30 7601 H 730.453 -0.621338 3.81676 0
M  V30 7602 H 732.142 -0.273275 4.04979 0
M  V30 7603 H 732.908 2.19487 4.32493 0
M  V30 7604 H 728.787 0.981835 4.50423 0
M  V30 7605 H 732.331 4.28604 5.50404 0
M  V30 7606 H 728.228 3.06419 5.68135 0
M  V30 7607 H 728.996 4.97053 6.50293 0
M  V30 7608 N 731.66 -1.50943 0.453197 0
M  V30 7609 C 732.59 -2.31005 -0.34044 0
M  V30 7610 C 733.571 -1.37112 -1.00669 0
M  V30 7611 O 734.756 -1.66033 -1.0073 0
M  V30 7612 C 731.886 -3.16358 -1.433 0
M  V30 7613 C 730.84 -4.18658 -0.889363 0
M  V30 7614 C 730.166 -4.92633 -2.07887 0
M  V30 7615 C 731.466 -5.22227 0.0871142 0
M  V30 7616 H 733.16 -2.97601 0.327723 0
M  V30 7617 H 730.706 -1.43119 0.159054 0
M  V30 7618 H 732.659 -3.71155 -1.99555 0
M  V30 7619 H 731.383 -2.47613 -2.12968 0
M  V30 7620 H 730.042 -3.64936 -0.348915 0
M  V30 7621 H 729.69 -4.20376 -2.76211 0
M  V30 7622 H 729.39 -5.61819 -1.72143 0
M  V30 7623 H 730.914 -5.50258 -2.64666 0
M  V30 7624 H 732.328 -5.72001 -0.385656 0
M  V30 7625 H 730.725 -5.99032 0.357926 0
M  V30 7626 H 731.795 -4.74077 1.01879 0
M  V30 7627 N 733.138 -0.185124 -1.56509 0
M  V30 7628 C 734.415 0.503348 -1.89013 0
M  V30 7629 C 734.795 1.80349 -1.09715 0
M  V30 7630 O 734.143 2.27665 -0.195203 0
M  V30 7631 C 734.353 0.731839 -3.41241 0
M  V30 7632 C 735.701 1.05568 -4.11267 0
M  V30 7633 O 736.725 0.819906 -3.46635 0
M  V30 7634 O 735.584 1.50116 -5.25478 0
M  V30 7635 H 732.678 0.261139 -0.784688 0
M  V30 7636 H 735.224 -0.224592 -1.68207 0
M  V30 7637 H 733.996 -0.18672 -3.90854 0
M  V30 7638 H 733.619 1.5126 -3.67704 0
M  V30 7639 N 734.616 1.57351 0.0885366 0
M  V30 7640 C 735.563 2.02523 1.10693 0
M  V30 7641 C 736.533 0.902736 1.39427 0
M  V30 7642 O 737.718 1.16921 1.50779 0
M  V30 7643 C 734.858 2.46013 2.42016 0
M  V30 7644 C 733.971 3.7181 2.19957 0
M  V30 7645 C 733.106 4.04152 3.44724 0
M  V30 7646 C 732.145 5.2304 3.17956 0
M  V30 7647 N 731.282 5.51102 4.35007 0
M  V30 7648 H 736.122 2.89302 0.714742 0
M  V30 7649 H 733.659 1.43084 0.341378 0
M  V30 7650 H 735.617 2.69274 3.18665 0
M  V30 7651 H 734.247 1.62235 2.79069 0
M  V30 7652 H 733.299 3.55987 1.34079 0
M  V30 7653 H 734.611 4.58604 1.96173 0
M  V30 7654 H 733.765 4.28225 4.29777 0
M  V30 7655 H 732.504 3.15893 3.71568 0
M  V30 7656 H 731.509 4.98781 2.31296 0
M  V30 7657 H 732.734 6.12902 2.92451 0
M  V30 7658 H 730.68 4.65802 4.61914 0
M  V30 7659 H 730.597 6.3228 4.14437 0
M  V30 7660 H 731.865 5.79714 5.21106 0
M  V30 7661 N 736.094 -0.359525 1.53444 0
M  V30 7662 C 737.024 -1.44662 1.8329 0
M  V30 7663 C 738.005 -1.55617 0.68683 0
M  V30 7664 O 739.19 -1.70086 0.93725 0
M  V30 7665 C 736.32 -2.81923 2.02822 0
M  V30 7666 C 735.274 -2.85787 3.18606 0
M  V30 7667 C 734.6 -4.25781 3.23442 0
M  V30 7668 C 735.9 -2.52762 4.57065 0
M  V30 7669 H 737.594 -1.19934 2.74329 0
M  V30 7670 H 735.14 -0.575517 1.31999 0
M  V30 7671 H 737.093 -3.58005 2.22285 0
M  V30 7672 H 735.817 -3.08051 1.085 0
M  V30 7673 H 734.476 -2.12157 2.98973 0
M  V30 7674 H 734.124 -4.48994 2.26745 0
M  V30 7675 H 733.824 -4.29281 4.01238 0
M  V30 7676 H 735.348 -5.03727 3.45096 0
M  V30 7677 H 736.762 -3.18557 4.76649 0
M  V30 7678 H 735.159 -2.67569 5.37147 0
M  V30 7679 H 736.229 -1.47993 4.61764 0
M  V30 7680 N 737.572 -1.44907 -0.619662 0
M  V30 7681 C 738.482 -1.55168 -1.75955 0
M  V30 7682 C 739.498 -0.43672 -1.6843 0
M  V30 7683 O 740.674 -0.695704 -1.89002 0
M  V30 7684 C 737.739 -1.50397 -3.12381 0
M  V30 7685 C 736.8 -2.72835 -3.31451 0
M  V30 7686 C 736.033 -2.68283 -4.61368 0
M  V30 7687 O 736.256 -1.74929 -5.42914 0
M  V30 7688 O 735.19 -3.59308 -4.82889 0
M  V30 7689 H 739.016 -2.51493 -1.7025 0
M  V30 7690 H 736.601 -1.27282 -0.782289 0
M  V30 7691 H 738.483 -1.50301 -3.93685 0
M  V30 7692 H 737.158 -0.572197 -3.18603 0
M  V30 7693 H 736.065 -2.78496 -2.49781 0
M  V30 7694 H 737.398 -3.65098 -3.30098 0
M  V30 7695 N 739.05 0.861098 -1.31996 0
M  V30 7696 C 740.461 1.43065 -1.19955 0
M  V30 7697 C 740.812 1.95273 0.190489 0
M  V30 7698 O 739.937 1.87012 1.08882 0
M  V30 7699 C 740.532 2.60052 -2.1716 0
M  V30 7700 C 739.091 3.13026 -2.09026 0
M  V30 7701 C 738.238 1.85756 -2.05888 0
M  V30 7702 H 741.189 0.668834 -1.43918 0
M  V30 7703 H 741.21 3.37016 -1.76637 0
M  V30 7704 H 740.722 2.22024 -3.18319 0
M  V30 7705 H 738.823 3.55653 -1.11092 0
M  V30 7706 H 738.936 3.74707 -2.98549 0
M  V30 7707 H 737.3 2.05088 -1.51033 0
M  V30 7708 H 738.083 1.49954 -3.08818 0
M  V30 7709 N 740.528 1.15101 1.07655 0
M  V30 7710 C 741.753 0.948177 1.84457 0
M  V30 7711 C 742.178 -0.498432 1.81376 0
M  V30 7712 O 741.536 -1.35509 1.20445 0
M  V30 7713 C 741.584 1.46318 3.29581 0
M  V30 7714 O 740.688 0.660342 4.07079 0
M  V30 7715 H 740.029 0.338428 0.571281 0
M  V30 7716 H 742.559 1.5301 1.35828 0
M  V30 7717 H 742.569 1.47468 3.80417 0
M  V30 7718 H 741.244 2.51635 3.31138 0
M  V30 7719 H 739.821 0.718216 3.65918 0
M  V30 7720 N 742.006 -1.2595 0.947325 0
M  V30 7721 C 742.953 -2.26159 0.460497 0
M  V30 7722 C 743.923 -1.58919 -0.483125 0
M  V30 7723 O 745.108 -1.86603 -0.397983 0
M  V30 7724 C 742.248 -3.441 -0.26247 0
M  V30 7725 C 741.361 -4.25999 0.717539 0
M  V30 7726 C 740.496 -5.31193 -0.0272486 0
M  V30 7727 C 739.535 -6.04774 0.944177 0
M  V30 7728 N 738.672 -7.01721 0.230741 0
M  V30 7729 H 743.512 -2.67173 1.31995 0
M  V30 7730 H 741.049 -1.31358 0.662088 0
M  V30 7731 H 743.007 -4.11317 -0.698137 0
M  V30 7732 H 741.637 -3.03983 -1.08602 0
M  V30 7733 H 740.689 -3.58513 1.27171 0
M  V30 7734 H 742.001 -4.76981 1.45913 0
M  V30 7735 H 741.155 -6.04451 -0.521903 0
M  V30 7736 H 739.894 -4.81066 -0.801682 0
M  V30 7737 H 738.899 -5.30338 1.4499 0
M  V30 7738 H 740.124 -6.56991 1.71872 0
M  V30 7739 H 738.07 -6.53895 -0.525088 0
M  V30 7740 H 737.987 -7.50484 0.911556 0
M  V30 7741 H 739.255 -7.79122 -0.242616 0
M  V30 7742 N 743.484 -0.715051 -1.40445 0
M  V30 7743 C 744.733 -0.251322 -2.00128 0
M  V30 7744 C 745.046 1.16194 -1.57347 0
M  V30 7745 O 746.252 1.72416 -2.09726 0
M  V30 7746 C 744.708 -0.398407 -3.57688 0
M  V30 7747 C 744.316 -1.81828 -4.09442 0
M  V30 7748 C 746.06 0.00455625 -4.245 0
M  V30 7749 C 743.967 -1.91598 -5.59503 0
M  V30 7750 H 742.897 -0.0902081 -0.748584 0
M  V30 7751 H 745.548 -0.886062 -1.6069 0
M  V30 7752 H 743.93 0.304908 -3.94824 0
M  V30 7753 H 745.104 -2.55193 -3.83684 0
M  V30 7754 H 743.419 -2.17266 -3.55225 0
M  V30 7755 H 746.016 -0.0477303 -5.34679 0
M  V30 7756 H 746.359 1.04636 -4.02935 0
M  V30 7757 H 746.892 -0.649184 -3.92467 0
M  V30 7758 H 743.631 -2.93898 -5.85922 0
M  V30 7759 H 743.151 -1.22644 -5.87127 0
M  V30 7760 H 744.83 -1.68785 -6.24596 0
M  V30 7761 N 744.962 1.50701 -0.461195 0
M  V30 7762 C 746.19 2.06681 0.0951756 0
M  V30 7763 C 746.605 1.32615 1.34382 0
M  V30 7764 O 745.962 0.392531 1.78229 0
M  V30 7765 C 746.013 3.59354 0.393316 0
M  V30 7766 O 745.734 4.30626 -0.805797 0
M  V30 7767 C 747.235 4.31926 0.997744 0
M  V30 7768 H 744.455 0.670995 -0.00267259 0
M  V30 7769 H 746.999 1.93991 -0.647137 0
M  V30 7770 H 745.154 3.7188 1.08555 0
M  V30 7771 H 745.568 5.21667 -0.544409 0
M  V30 7772 H 747.042 5.39756 1.15619 0
M  V30 7773 H 747.519 3.91772 1.98523 0
M  V30 7774 H 748.125 4.23905 0.344188 0
M  V30 7775 N 746.441 0.193421 1.56409 0
M  V30 7776 C 747.388 -0.728124 2.19014 0
M  V30 7777 C 748.358 -1.21098 1.13686 0
M  V30 7778 O 749.543 -1.27517 1.4193 0
M  V30 7779 C 746.683 -1.94277 2.8522 0
M  V30 7780 C 745.796 -1.50143 4.05069 0
M  V30 7781 C 744.931 -2.67145 4.59137 0
M  V30 7782 C 743.97 -2.19609 5.71348 0
M  V30 7783 N 743.107 -3.29782 6.19829 0
M  V30 7784 H 747.947 -0.187499 2.9741 0
M  V30 7785 H 745.484 -0.0808064 1.46878 0
M  V30 7786 H 747.442 -2.65551 3.21774 0
M  V30 7787 H 746.072 -2.45673 2.09391 0
M  V30 7788 H 745.124 -0.684624 3.74189 0
M  V30 7789 H 746.436 -1.11266 4.86232 0
M  V30 7790 H 745.59 -3.46544 4.97988 0
M  V30 7791 H 744.329 -3.09295 3.77078 0
M  V30 7792 H 743.334 -1.38664 5.32027 0
M  V30 7793 H 744.559 -1.78492 6.55223 0
M  V30 7794 H 742.505 -3.71466 5.40693 0
M  V30 7795 H 742.422 -2.95069 6.96039 0
M  V30 7796 H 743.69 -4.094 6.63334 0
M  V30 7797 N 747.919 -1.57396 -0.0801906 0
M  V30 7798 C 749.166 -1.86836 -0.780927 0
M  V30 7799 C 749.494 -0.784012 -1.77999 0
M  V30 7800 O 748.749 0.220881 -1.94449 0
M  V30 7801 C 749.048 -3.22915 -1.53169 0
M  V30 7802 C 748.714 -4.45843 -0.67339 0
M  V30 7803 C 747.376 -4.79213 -0.436829 0
M  V30 7804 C 749.728 -5.21142 -0.0776786 0
M  V30 7805 C 747.056 -5.853 0.405062 0
M  V30 7806 C 749.408 -6.28119 0.751619 0
M  V30 7807 C 748.072 -6.59995 0.998131 0
M  V30 7808 H 747.342 -0.683682 -0.285761 0
M  V30 7809 H 749.989 -1.91454 -0.0419435 0
M  V30 7810 H 748.294 -3.14049 -2.34265 0
M  V30 7811 H 749.991 -3.42926 -2.07853 0
M  V30 7812 H 746.581 -4.19721 -0.867891 0
M  V30 7813 H 750.765 -4.95682 -0.247572 0
M  V30 7814 H 746.021 -6.084 0.60488 0
M  V30 7815 H 750.195 -6.8563 1.22 0
M  V30 7816 H 747.822 -7.42027 1.65227 0
M  V30 7817 N 749.397 0.351382 -1.53633 0
M  V30 7818 C 750.307 1.45471 -1.84052 0
M  V30 7819 C 751.323 1.57945 -0.730015 0
M  V30 7820 O 752.499 1.73571 -1.02153 0
M  V30 7821 C 749.564 2.80562 -2.03681 0
M  V30 7822 C 748.625 2.77497 -3.27558 0
M  V30 7823 C 747.858 4.06144 -3.46241 0
M  V30 7824 O 748.081 5.03028 -2.68922 0
M  V30 7825 O 747.015 4.11092 -4.39645 0
M  V30 7826 H 750.841 1.22684 -2.77817 0
M  V30 7827 H 748.426 0.542827 -1.3919 0
M  V30 7828 H 750.308 3.6058 -2.18082 0
M  V30 7829 H 748.983 3.03296 -1.13106 0
M  V30 7830 H 747.89 1.96126 -3.18568 0
M  V30 7831 H 749.223 2.59716 -4.18101 0
M  V30 7832 N 750.875 1.45233 0.611969 0
M  V30 7833 C 751.823 1.53898 1.74408 0
M  V30 7834 C 752.817 0.409254 1.64382 0
M  V30 7835 O 754.023 0.584988 1.70229 0
M  V30 7836 H 750.398 0.483303 0.576127 0
M  V30 7837 H 752.369 2.49143 1.64227 0
M  V30 7838 C 751.118 1.51865 3.12782 0
M  V30 7839 H 750.441 2.38118 3.21154 0
M  V30 7840 H 751.881 1.61986 3.91838 0
M  V30 7841 C 750.34 0.242374 3.36027 0
M  V30 7842 O 750.87 -0.679587 3.9591 0
M  V30 7843 N 749.076 0.139448 2.90265 0
M  V30 7844 H 748.623 0.890571 2.41716 0
M  V30 7845 H 748.581 -0.713686 3.06193 0
M  V30 7846 N 752.353 -0.854086 1.3245 0
M  V30 7847 C 753.316 -1.94427 1.21371 0
M  V30 7848 C 754.316 -1.60219 0.136613 0
M  V30 7849 O 755.506 -1.69846 0.387057 0
M  V30 7850 C 752.638 -3.29698 0.866701 0
M  V30 7851 H 753.831 -2.05679 2.18257 0
M  V30 7852 H 751.384 -1.04434 1.1629 0
M  V30 7853 H 752.119 -3.24145 -0.100319 0
M  V30 7854 H 751.904 -3.55903 1.64545 0
M  V30 7855 H 753.394 -4.09599 0.813515 0
M  V30 7856 N 753.831 -1.1567 -1.07043 0
M  V30 7857 C 755.078 -0.933517 -1.79699 0
M  V30 7858 C 755.406 0.539162 -1.86878 0
M  V30 7859 O 754.661 1.41592 -1.35093 0
M  V30 7860 C 754.96 -1.49677 -3.24548 0
M  V30 7861 C 754.626 -2.99047 -3.37463 0
M  V30 7862 C 753.288 -3.39824 -3.40695 0
M  V30 7863 C 755.64 -3.95027 -3.40004 0
M  V30 7864 C 752.968 -4.75215 -3.44075 0
M  V30 7865 C 755.32 -5.30295 -3.44921 0
M  V30 7866 C 753.984 -5.70562 -3.46432 0
M  V30 7867 H 753.254 -0.341598 -0.657565 0
M  V30 7868 H 755.901 -1.44263 -1.25938 0
M  V30 7869 H 754.206 -0.908915 -3.81111 0
M  V30 7870 H 755.903 -1.29986 -3.79348 0
M  V30 7871 H 752.493 -2.6653 -3.35648 0
M  V30 7872 H 756.677 -3.64596 -3.36725 0
M  V30 7873 H 751.933 -5.05754 -3.43545 0
M  V30 7874 H 756.107 -6.0446 -3.45833 0
M  V30 7875 H 753.734 -6.75456 -3.48803 0
M  V30 7876 N 755.309 1.25446 -0.953992 0
M  V30 7877 C 756.239 2.28264 -0.491717 0
M  V30 7878 C 757.22 1.63717 0.461617 0
M  V30 7879 O 758.405 1.90821 0.36071 0
M  V30 7880 C 755.535 3.46525 0.231915 0
M  V30 7881 C 754.489 4.23247 -0.636098 0
M  V30 7882 C 753.815 5.34254 0.218238 0
M  V30 7883 C 755.115 4.85971 -1.91389 0
M  V30 7884 H 756.809 2.67183 -1.35106 0
M  V30 7885 H 754.355 1.2844 -0.651095 0
M  V30 7886 H 756.308 4.17576 0.566439 0
M  V30 7887 H 755.032 3.06594 1.12551 0
M  V30 7888 H 753.691 3.53978 -0.953696 0
M  V30 7889 H 753.339 4.90564 1.11156 0
M  V30 7890 H 753.039 5.86501 -0.359232 0
M  V30 7891 H 754.563 6.08138 0.547743 0
M  V30 7892 H 755.977 5.49168 -1.64581 0
M  V30 7893 H 754.374 5.48391 -2.43696 0
M  V30 7894 H 755.444 4.08192 -2.61738 0
M  V30 7895 N 756.787 0.722489 1.40064 0
M  V30 7896 C 758.012 0.273446 2.05589 0
M  V30 7897 C 758.437 -1.07875 1.54093 0
M  V30 7898 O 757.795 -1.68095 0.679252 0
M  V30 7899 C 757.843 0.271023 3.5958 0
M  V30 7900 O 756.947 -0.745499 4.05606 0
M  V30 7901 H 756.288 0.126856 0.65177 0
M  V30 7902 H 758.818 0.984906 1.79334 0
M  V30 7903 H 758.828 0.111084 4.07849 0
M  V30 7904 H 757.503 1.25776 3.96425 0
M  V30 7905 H 756.08 -0.552719 3.68781 0
M  V30 7906 N 758.265 -1.50454 0.469181 0
M  V30 7907 C 759.215 -2.25381 -0.344582 0
M  V30 7908 C 760.199 -1.28892 -0.963098 0
M  V30 7909 O 761.391 -1.53805 -0.875964 0
M  V30 7910 C 758.52 -3.12232 -1.4271 0
M  V30 7911 C 757.606 -4.16168 -0.816411 0
M  V30 7912 N 757.997 -5.05762 0.0621424 0
M  V30 7913 C 756.295 -4.32712 -1.08056 0
M  V30 7914 C 756.996 -5.80264 0.408519 0
M  V30 7915 N 755.972 -5.43171 -0.215827 0
M  V30 7916 H 759.774 -2.92016 0.332237 0
M  V30 7917 H 757.288 -1.59911 0.283209 0
M  V30 7918 H 759.285 -3.64514 -2.02324 0
M  V30 7919 H 757.945 -2.47145 -2.10593 0
M  V30 7920 H 758.956 -5.16105 0.430841 0
M  V30 7921 H 755.633 -3.78844 -1.75452 0
M  V30 7922 H 757.023 -6.62408 1.12539 0
M  V30 7923 N 759.743 -0.201713 -1.56304 0
M  V30 7924 C 760.989 0.435952 -1.98059 0
M  V30 7925 C 761.322 1.60811 -1.08873 0
M  V30 7926 O 760.597 1.9398 -0.142128 0
M  V30 7927 C 760.88 0.889706 -3.48936 0
M  V30 7928 C 760.733 -0.284725 -4.48898 0
M  V30 7929 C 762.052 1.7529 -4.03685 0
M  V30 7930 H 759.171 0.15699 -0.720085 0
M  V30 7931 H 761.813 -0.293965 -1.87712 0
M  V30 7932 H 759.963 1.51166 -3.57884 0
M  V30 7933 H 761.635 -0.922531 -4.51981 0
M  V30 7934 H 759.878 -0.935427 -4.23594 0
M  V30 7935 H 760.549 0.0753865 -5.51949 0
M  V30 7936 H 763.025 1.2283 -3.97558 0
M  V30 7937 H 761.901 2.03933 -5.0961 0
M  V30 7938 H 762.162 2.70939 -3.49348 0
M  V30 7939 N 761.222 1.57436 0.0718424 0
M  V30 7940 C 762.468 1.87525 0.772149 0
M  V30 7941 C 762.801 0.79399 1.77227 0
M  V30 7942 O 762.076 -0.195733 1.93513 0
M  V30 7943 C 762.359 3.28272 1.48018 0
M  V30 7944 C 762.212 4.47052 0.49647 0
M  V30 7945 C 763.531 3.67256 2.42509 0
M  V30 7946 H 760.65 0.682049 0.279245 0
M  V30 7947 H 763.292 1.89967 0.03534 0
M  V30 7948 H 761.442 3.26321 2.10824 0
M  V30 7949 H 763.114 4.61127 -0.126375 0
M  V30 7950 H 761.357 4.33392 -0.188205 0
M  V30 7951 H 762.028 5.42315 1.02949 0
M  V30 7952 H 764.504 3.70301 1.89781 0
M  V30 7953 H 763.38 4.66626 2.89053 0
M  V30 7954 H 763.641 2.97186 3.27312 0
M  V30 7955 N 762.7 -0.34323 1.53817 0
M  V30 7956 C 763.925 -1.1079 1.75329 0
M  V30 7957 C 764.35 -1.81571 0.491293 0
M  V30 7958 O 763.708 -1.72561 -0.556089 0
M  V30 7959 C 763.756 -2.09681 2.9337 0
M  V30 7960 O 762.86 -3.17207 2.63541 0
M  V30 7961 H 762.201 -0.320402 0.581583 0
M  V30 7962 H 764.731 -0.393525 2.0078 0
M  V30 7963 H 764.741 -2.52897 3.20168 0
M  V30 7964 H 763.416 -1.5756 3.84899 0
M  V30 7965 H 761.993 -2.78806 2.47632 0
M  V30 7966 N 764.178 -1.45556 -0.604258 0
M  V30 7967 C 765.11 -1.50494 -1.72871 0
M  V30 7968 C 766.123 -0.395368 -1.57926 0
M  V30 7969 O 767.312 -0.662603 -1.65746 0
M  V30 7970 C 764.412 -1.34874 -3.10906 0
M  V30 7971 C 763.585 -2.59564 -3.52058 0
M  V30 7972 C 762.644 -2.38453 -4.6907 0
M  V30 7973 O 761.67 -3.12082 -4.76018 0
M  V30 7974 N 762.872 -1.43229 -5.62553 0
M  V30 7975 H 765.637 -2.4744 -1.69097 0
M  V30 7976 H 763.198 -1.41338 -0.789636 0
M  V30 7977 H 765.19 -1.18556 -3.86945 0
M  V30 7978 H 763.76 -0.461913 -3.09168 0
M  V30 7979 H 762.98 -2.90974 -2.65946 0
M  V30 7980 H 764.268 -3.42441 -3.76313 0
M  V30 7981 H 763.666 -0.824714 -5.59656 0
M  V30 7982 H 762.223 -1.32882 -6.38111 0
M  V30 7983 N 765.656 0.84705 -1.32902 0
M  V30 7984 C 766.606 1.94451 -1.19049 0
M  V30 7985 C 767.59 1.60617 -0.095461 0
M  V30 7986 O 768.782 1.74033 -0.322739 0
M  V30 7987 C 765.911 3.30645 -0.923509 0
M  V30 7988 C 764.997 3.70675 -2.0606 0
M  V30 7989 N 765.388 3.82468 -3.30986 0
M  V30 7990 C 763.686 4.00357 -1.96547 0
M  V30 7991 C 764.387 4.17056 -4.05511 0
M  V30 7992 N 763.363 4.28985 -3.33876 0
M  V30 7993 H 767.165 2.01713 -2.1375 0
M  V30 7994 H 764.679 1.03928 -1.24791 0
M  V30 7995 H 766.676 4.0905 -0.805212 0
M  V30 7996 H 765.336 3.24697 0.0150523 0
M  V30 7997 H 766.347 3.66589 -3.65832 0
M  V30 7998 H 763.024 4.02666 -1.10299 0
M  V30 7999 H 764.414 4.33585 -5.13277 0
M  V30 8000 N 767.134 1.16236 1.06428 0
M  V30 8001 C 768.066 0.825446 2.1382 0
M  V30 8002 C 769.079 -0.166707 1.61944 0
M  V30 8003 O 770.268 0.0578606 1.78406 0
M  V30 8004 C 767.368 0.208023 3.38261 0
M  V30 8005 C 766.541 1.23994 4.19457 0
M  V30 8006 C 765.6 0.642569 5.22262 0
M  V30 8007 O 764.626 1.31106 5.53895 0
M  V30 8008 N 765.828 -0.571327 5.77682 0
M  V30 8009 H 768.593 1.7497 2.43322 0
M  V30 8010 H 766.154 1.05951 1.22417 0
M  V30 8011 H 768.146 -0.204608 4.04182 0
M  V30 8012 H 766.716 -0.619752 3.06395 0
M  V30 8013 H 765.936 1.82879 3.49212 0
M  V30 8014 H 767.224 1.93638 4.70512 0
M  V30 8015 H 766.622 -1.13263 5.54245 0
M  V30 8016 H 765.179 -0.926187 6.45186 0
M  V30 8017 N 768.612 -1.24939 0.960631 0
M  V30 8018 C 769.575 -2.239 0.49006 0
M  V30 8019 C 770.575 -1.55497 -0.409535 0
M  V30 8020 O 771.765 -1.72978 -0.205984 0
M  V30 8021 C 768.897 -3.39654 -0.291193 0
M  V30 8022 H 770.09 -2.67044 1.36482 0
M  V30 8023 H 767.643 -1.37429 0.744505 0
M  V30 8024 H 768.378 -3.01939 -1.18336 0
M  V30 8025 H 768.163 -3.90496 0.354276 0
M  V30 8026 H 769.653 -4.13125 -0.609693 0
M  V30 8027 N 770.09 -0.729906 -1.39679 0
M  V30 8028 C 771.02 -0.101618 -2.33279 0
M  V30 8029 C 772.001 0.729854 -1.53646 0
M  V30 8030 O 773.186 0.67587 -1.82059 0
M  V30 8031 C 770.316 0.81024 -3.37716 0
M  V30 8032 C 769.27 0.0833126 -4.27919 0
M  V30 8033 C 768.596 1.11185 -5.23012 0
M  V30 8034 C 769.896 -1.07107 -5.112 0
M  V30 8035 H 771.59 -0.883452 -2.86069 0
M  V30 8036 H 769.136 -0.426283 -1.37546 0
M  V30 8037 H 771.089 1.25927 -4.02145 0
M  V30 8038 H 769.813 1.62413 -2.83354 0
M  V30 8039 H 768.472 -0.346043 -3.64963 0
M  V30 8040 H 768.12 1.91917 -4.64948 0
M  V30 8041 H 767.82 0.63026 -5.8421 0
M  V30 8042 H 769.344 1.56068 -5.90318 0
M  V30 8043 H 770.758 -0.700726 -5.69002 0
M  V30 8044 H 769.155 -1.48196 -5.81514 0
M  V30 8045 H 770.225 -1.89513 -4.46332 0
M  V30 8046 N 771.568 1.50203 -0.477153 0
M  V30 8047 C 772.498 2.31517 0.303646 0
M  V30 8048 C 773.479 1.38696 0.984753 0
M  V30 8049 O 774.664 1.67615 0.980758 0
M  V30 8050 C 771.794 3.18598 1.38249 0
M  V30 8051 C 770.748 4.2002 0.822645 0
M  V30 8052 C 770.074 4.95878 2.00024 0
M  V30 8053 C 771.374 5.22023 -0.170185 0
M  V30 8054 H 773.068 2.97042 -0.375027 0
M  V30 8055 H 770.614 1.42848 -0.181802 0
M  V30 8056 H 772.567 3.74282 1.93625 0
M  V30 8057 H 771.291 2.5097 2.09002 0
M  V30 8058 H 769.95 3.65445 0.290813 0
M  V30 8059 H 769.598 4.24717 2.69489 0
M  V30 8060 H 769.298 5.64487 1.63183 0
M  V30 8061 H 770.822 5.54399 2.55878 0
M  V30 8062 H 772.236 5.72543 0.294606 0
M  V30 8063 H 770.633 5.98386 -0.453181 0
M  V30 8064 H 771.703 4.72396 -1.09408 0
M  V30 8065 N 773.046 0.209999 1.56195 0
M  V30 8066 C 774.294 -0.423974 1.97603 0
M  V30 8067 C 774.615 -1.61112 1.09854 0
M  V30 8068 O 773.885 -1.95134 0.173032 0
M  V30 8069 H 772.465 -0.159629 0.729745 0
M  V30 8070 H 775.127 0.300205 1.92574 0
M  V30 8071 H 774.223 -0.75809 3.02753 0
M  V30 8072 N 774.524 -1.57472 -0.0634922 0
M  V30 8073 C 775.752 -1.91887 -0.773767 0
M  V30 8074 C 776.167 -0.806733 -1.70696 0
M  V30 8075 O 775.524 0.219383 -1.81177 0
M  V30 8076 C 775.575 -3.26092 -1.56034 0
M  V30 8077 O 775.296 -4.33029 -0.66464 0
M  V30 8078 C 776.797 -3.74573 -2.37087 0
M  V30 8079 H 774.017 -0.634074 -0.219525 0
M  V30 8080 H 776.561 -2.04476 -0.0312828 0
M  V30 8081 H 774.716 -3.15004 -2.25502 0
M  V30 8082 H 775.13 -5.10291 -1.21258 0
M  V30 8083 H 776.604 -4.71084 -2.87722 0
M  V30 8084 H 777.081 -3.04003 -3.16984 0
M  V30 8085 H 777.687 -3.88631 -1.72759 0
M  V30 8086 N 776.003 0.335068 -1.53997 0
M  V30 8087 C 777.252 1.07182 -1.70865 0
M  V30 8088 C 777.565 1.89541 -0.483078 0
M  V30 8089 O 778.771 2.66219 -0.532879 0
M  V30 8090 C 777.227 1.95497 -3.02174 0
M  V30 8091 C 776.835 1.18304 -4.32097 0
M  V30 8092 C 778.579 2.68978 -3.28407 0
M  V30 8093 C 776.486 2.05699 -5.54474 0
M  V30 8094 H 775.416 0.403857 -0.636722 0
M  V30 8095 H 778.067 0.33076 -1.80494 0
M  V30 8096 H 776.449 2.73456 -2.86423 0
M  V30 8097 H 777.623 0.451969 -4.58578 0
M  V30 8098 H 775.938 0.565556 -4.12541 0
M  V30 8099 H 778.535 3.34651 -4.17029 0
M  V30 8100 H 778.878 3.36 -2.45784 0
M  V30 8101 H 779.411 1.98087 -3.44973 0
M  V30 8102 H 776.15 1.43204 -6.39666 0
M  V30 8103 H 775.67 2.76572 -5.32229 0
M  V30 8104 H 777.349 2.64554 -5.90441 0
M  V30 8105 N 777.481 1.45874 0.596531 0
M  V30 8106 C 778.897 1.30524 0.918459 0
M  V30 8107 C 779.097 0.266429 1.99731 0
M  V30 8108 O 778.153 -0.335809 2.50257 0
M  V30 8109 C 779.466 2.68747 1.3489 0
M  V30 8110 C 781.014 2.7673 1.46251 0
M  V30 8111 C 781.489 4.15504 1.92667 0
M  V30 8112 N 782.98 4.17853 1.99883 0
M  V30 8113 C 783.715 5.22109 2.37044 0
M  V30 8114 N 783.211 6.36704 2.73094 0
M  V30 8115 N 785.004 5.09471 2.37479 0
M  V30 8116 H 777.155 2.12081 -0.116368 0
M  V30 8117 H 779.418 0.947941 0.0106033 0
M  V30 8118 H 779.124 3.46006 0.630288 0
M  V30 8119 H 778.998 2.97942 2.31323 0
M  V30 8120 H 781.385 1.99768 2.17202 0
M  V30 8121 H 781.466 2.51236 0.481054 0
M  V30 8122 H 781.11 4.92956 1.223 0
M  V30 8123 H 781.04 4.38396 2.91747 0
M  V30 8124 H 783.531 3.35163 1.74568 0
M  V30 8125 H 783.844 7.12041 3.00362 0
M  V30 8126 H 782.189 6.40087 2.70764 0
M  V30 8127 H 785.38 4.18987 2.08728 0
M  V30 8128 H 785.553 5.90837 2.66112 0
M  V30 8129 N 778.959 -0.83999 1.33349 0
M  V30 8130 C 779.922 -1.93128 1.23426 0
M  V30 8131 C 780.922 -1.60065 0.153599 0
M  V30 8132 O 782.112 -1.69425 0.405049 0
M  V30 8133 C 779.244 -3.28761 0.901622 0
M  V30 8134 H 780.437 -2.03352 2.20427 0
M  V30 8135 H 777.99 -1.03194 1.17391 0
M  V30 8136 H 778.725 -3.24233 -0.0659337 0
M  V30 8137 H 778.51 -3.54138 1.68311 0
M  V30 8138 H 780 -4.08714 0.856913 0
M  V30 8139 N 780.437 -1.16799 -1.0581 0
M  V30 8140 C 781.714 -0.862616 -1.75551 0
M  V30 8141 C 782.094 0.6385 -2.01212 0
M  V30 8142 O 781.442 1.58784 -1.64317 0
M  V30 8143 C 781.652 -1.6907 -3.05314 0
M  V30 8144 C 783 -1.90675 -3.79379 0
M  V30 8145 O 784.024 -1.65976 -3.15167 0
M  V30 8146 O 782.883 -2.32145 -4.94743 0
M  V30 8147 H 779.977 -0.318789 -0.763088 0
M  V30 8148 H 782.523 -1.27461 -1.12034 0
M  V30 8149 H 781.295 -2.70912 -2.82352 0
M  V30 8150 H 780.918 -1.27606 -3.76567 0
M  V30 8151 N 781.915 1.24427 -0.967243 0
M  V30 8152 C 783.163 1.92107 -0.627638 0
M  V30 8153 C 783.484 1.75991 0.83978 0
M  V30 8154 O 782.754 1.13118 1.59941 0
M  V30 8155 H 781.334 0.710986 -0.229145 0
M  V30 8156 H 783.996 1.51331 -1.22821 0
M  V30 8157 H 783.092 2.99791 -0.867844 0
M  V30 8158 N 783.393 0.737304 1.3929 0
M  V30 8159 C 784.34 0.0988364 2.30588 0
M  V30 8160 C 785.31 -0.727206 1.49335 0
M  V30 8161 O 786.495 -0.686694 1.78014 0
M  V30 8162 C 783.635 -0.800734 3.35682 0
M  V30 8163 C 782.748 0.0381731 4.31983 0
M  V30 8164 C 781.883 -0.862884 5.24145 0
M  V30 8165 C 780.922 -0.0193639 6.12097 0
M  V30 8166 N 780.059 -0.87648 6.96608 0
M  V30 8167 H 784.899 0.883031 2.84617 0
M  V30 8168 H 782.436 0.447111 1.4014 0
M  V30 8169 H 784.394 -1.33676 3.95205 0
M  V30 8170 H 783.024 -1.55088 2.83103 0
M  V30 8171 H 782.076 0.691641 3.74059 0
M  V30 8172 H 783.388 0.690294 4.94 0
M  V30 8173 H 782.542 -1.46667 5.88705 0
M  V30 8174 H 781.281 -1.54878 4.62454 0
M  V30 8175 H 780.286 0.597202 5.46547 0
M  V30 8176 H 781.511 0.663348 6.75852 0
M  V30 8177 H 779.457 -1.54762 6.37483 0
M  V30 8178 H 779.374 -0.280892 7.55478 0
M  V30 8179 H 780.642 -1.46575 7.65595 0
M  V30 8180 N 784.871 -1.49948 0.485112 0
M  V30 8181 C 786.12 -2.01589 -0.066765 0
M  V30 8182 C 786.433 -1.371 -1.39509 0
M  V30 8183 O 787.639 -1.79978 -2.03274 0
M  V30 8184 C 786.095 -3.59501 -0.169476 0
M  V30 8185 C 785.703 -4.32955 1.15126 0
M  V30 8186 C 787.447 -4.19138 -0.672564 0
M  V30 8187 C 785.354 -5.82684 1.01158 0
M  V30 8188 H 784.284 -0.753453 -0.0287259 0
M  V30 8189 H 786.935 -1.72632 0.622132 0
M  V30 8190 H 785.317 -3.85106 -0.922471 0
M  V30 8191 H 786.491 -4.19064 1.9163 0
M  V30 8192 H 784.806 -3.84991 1.58654 0
M  V30 8193 H 787.403 -5.28767 -0.794325 0
M  V30 8194 H 787.746 -3.81447 -1.66745 0
M  V30 8195 H 788.279 -3.97793 0.0234415 0
M  V30 8196 H 785.018 -6.24873 1.98025 0
M  V30 8197 H 784.538 -5.99112 0.287151 0
M  V30 8198 H 786.217 -6.43376 0.683847 0
M  V30 8199 N 786.349 -0.21828 -1.56081 0
M  V30 8200 C 787.574 0.422302 -2.03055 0
M  V30 8201 C 787.999 1.5279 -1.09713 0
M  V30 8202 O 787.357 1.81102 -0.0847187 0
M  V30 8203 C 787.405 0.934177 -3.48289 0
M  V30 8204 O 786.509 2.04574 -3.58083 0
M  V30 8205 H 785.85 0.0959764 -0.657027 0
M  V30 8206 H 788.38 -0.335958 -2.01823 0
M  V30 8207 H 788.39 1.24484 -3.88546 0
M  V30 8208 H 787.065 0.124963 -4.15712 0
M  V30 8209 H 785.642 1.74196 -3.29712 0
M  V30 8210 N 787.827 1.57504 0.0551401 0
M  V30 8211 C 788.737 2.08198 1.08124 0
M  V30 8212 C 789.753 1.01496 1.41331 0
M  V30 8213 O 790.929 1.33073 1.51174 0
M  V30 8214 C 787.994 2.52968 2.37083 0
M  V30 8215 C 787.055 3.7404 2.10696 0
M  V30 8216 C 786.288 4.16665 3.33505 0
M  V30 8217 O 786.511 3.59019 4.4324 0
M  V30 8218 O 785.445 5.09324 3.20737 0
M  V30 8219 H 789.271 2.95977 0.680518 0
M  V30 8220 H 786.856 1.46933 0.270401 0
M  V30 8221 H 788.738 2.82211 3.12946 0
M  V30 8222 H 787.413 1.6831 2.76502 0
M  V30 8223 H 786.32 3.49855 1.32484 0
M  V30 8224 H 787.653 4.59601 1.76148 0
M  V30 8225 N 789.305 -0.326896 1.54172 0
M  V30 8226 C 790.237 -1.42319 1.79661 0
M  V30 8227 C 791.25 -1.47989 0.678456 0
M  V30 8228 O 792.439 -1.50773 0.955503 0
M  V30 8229 C 789.539 -2.80876 1.89636 0
M  V30 8230 C 788.712 -2.98449 3.19761 0
M  V30 8231 C 787.771 -4.17347 3.2048 0
M  V30 8232 O 786.797 -4.10667 3.94134 0
M  V30 8233 N 787.999 -5.26717 2.44027 0
M  V30 8234 H 790.764 -1.20819 2.74268 0
M  V30 8235 H 788.325 -0.516866 1.53428 0
M  V30 8236 H 790.317 -3.58619 1.87549 0
M  V30 8237 H 788.887 -2.95442 1.02141 0
M  V30 8238 H 788.107 -2.08035 3.34836 0
M  V30 8239 H 789.395 -3.07083 4.05681 0
M  V30 8240 H 788.793 -5.35019 1.8377 0
M  V30 8241 H 787.35 -6.02891 2.47721 0
M  V30 8242 N 790.784 -1.46188 -0.588786 0
M  V30 8243 C 792.009 -1.5498 -1.37826 0
M  V30 8244 C 792.434 -0.189498 -1.87143 0
M  V30 8245 O 791.792 0.829293 -1.61222 0
M  V30 8246 C 791.84 -2.55369 -2.54596 0
M  V30 8247 O 790.944 -2.08452 -3.55839 0
M  V30 8248 H 790.285 -0.521741 -0.41071 0
M  V30 8249 H 792.815 -1.91708 -0.714779 0
M  V30 8250 H 792.825 -2.74782 -3.01594 0
M  V30 8251 H 791.5 -3.54155 -2.18052 0
M  V30 8252 H 790.077 -1.98999 -3.15363 0
M  V30 8253 N 792.262 0.832906 -1.33792 0
M  V30 8254 C 793.539 1.57359 -1.16178 0
M  V30 8255 C 793.919 2.09372 0.269532 0
M  V30 8256 O 793.267 1.89993 1.26944 0
M  V30 8257 C 793.477 2.70279 -2.20795 0
M  V30 8258 C 794.825 3.39305 -2.55259 0
M  V30 8259 O 795.849 2.80526 -2.19508 0
M  V30 8260 O 794.708 4.45428 -3.16632 0
M  V30 8261 H 791.802 0.694025 -0.449731 0
M  V30 8262 H 794.348 0.875144 -1.45394 0
M  V30 8263 H 793.12 2.29527 -3.16911 0
M  V30 8264 H 792.743 3.47782 -1.927 0
M  V30 8265 N 793.74 1.17359 1.05189 0
M  V30 8266 C 794.703 0.892604 2.11105 0
M  V30 8267 C 795.703 -0.117236 1.60372 0
M  V30 8268 O 796.893 0.114936 1.7382 0
M  V30 8269 C 794.025 0.337032 3.3923 0
M  V30 8270 H 795.218 1.83169 2.37464 0
M  V30 8271 H 792.771 0.984051 1.21434 0
M  V30 8272 H 793.506 -0.609198 3.18527 0
M  V30 8273 H 793.291 1.06484 3.77364 0
M  V30 8274 H 794.781 0.158763 4.17298 0
M  V30 8275 N 795.218 -1.23913 0.973828 0
M  V30 8276 C 796.165 -2.25132 0.508366 0
M  V30 8277 C 797.135 -1.59908 -0.449307 0
M  V30 8278 O 798.32 -1.87405 -0.358313 0
M  V30 8279 C 795.46 -3.4458 -0.189422 0
M  V30 8280 C 794.573 -4.24381 0.807738 0
M  V30 8281 C 793.708 -5.31131 0.0854315 0
M  V30 8282 C 792.747 -6.02635 1.07225 0
M  V30 8283 N 791.884 -7.01073 0.379535 0
M  V30 8284 H 796.724 -2.64313 1.37632 0
M  V30 8285 H 794.261 -1.29924 0.689802 0
M  V30 8286 H 796.219 -4.12706 -0.610733 0
M  V30 8287 H 794.849 -3.06218 -1.02129 0
M  V30 8288 H 793.901 -3.55735 1.34747 0
M  V30 8289 H 795.213 -4.73778 1.55998 0
M  V30 8290 H 794.367 -6.05422 -0.393572 0
M  V30 8291 H 793.106 -4.82658 -0.699461 0
M  V30 8292 H 792.111 -5.27143 1.56207 0
M  V30 8293 H 793.336 -6.53197 1.85769 0
M  V30 8294 H 791.282 -6.54862 -0.386269 0
M  V30 8295 H 791.199 -7.48382 1.07054 0
M  V30 8296 H 792.467 -7.79462 -0.0772984 0
M  V30 8297 N 796.696 -0.74468 -1.38897 0
M  V30 8298 C 797.626 -0.126355 -2.33158 0
M  V30 8299 C 798.607 0.713517 -1.54412 0
M  V30 8300 O 799.792 0.656523 -1.82766 0
M  V30 8301 C 796.922 0.774375 -3.38557 0
M  V30 8302 C 795.876 0.0379214 -4.27983 0
M  V30 8303 C 795.202 1.05631 -5.24162 0
M  V30 8304 C 796.502 -1.12523 -5.10035 0
M  V30 8305 H 798.196 -0.913744 -2.85116 0
M  V30 8306 H 795.742 -0.440847 -1.37086 0
M  V30 8307 H 797.695 1.21655 -4.03458 0
M  V30 8308 H 796.419 1.59399 -2.85061 0
M  V30 8309 H 795.078 -0.384733 -3.64576 0
M  V30 8310 H 794.726 1.86975 -4.66958 0
M  V30 8311 H 794.426 0.568261 -5.84846 0
M  V30 8312 H 795.95 1.49799 -5.9194 0
M  V30 8313 H 797.364 -0.761037 -5.68226 0
M  V30 8314 H 795.761 -1.54355 -5.79909 0
M  V30 8315 H 796.831 -1.94237 -4.44297 0
M  V30 8316 N 798.174 1.49689 -0.493057 0
M  V30 8317 C 799.121 2.28976 0.28959 0
M  V30 8318 C 800.091 1.35011 0.967536 0
M  V30 8319 O 801.276 1.63964 0.975736 0
M  V30 8320 C 798.416 3.1748 1.35279 0
M  V30 8321 C 797.529 4.26496 0.687418 0
M  V30 8322 C 796.664 5.02226 1.73038 0
M  V30 8323 C 795.703 6.03089 1.04645 0
M  V30 8324 N 794.84 6.72014 2.03325 0
M  V30 8325 H 799.68 2.954 -0.392798 0
M  V30 8326 H 797.217 1.45657 -0.205554 0
M  V30 8327 H 799.175 3.67162 1.98111 0
M  V30 8328 H 797.805 2.53057 2.00405 0
M  V30 8329 H 796.857 3.80362 -0.0540001 0
M  V30 8330 H 798.169 4.98578 0.14864 0
M  V30 8331 H 797.323 5.55737 2.43395 0
M  V30 8332 H 796.062 4.29899 2.303 0
M  V30 8333 H 795.067 5.48817 0.328606 0
M  V30 8334 H 796.292 6.77398 0.480428 0
M  V30 8335 H 794.238 6.02464 2.59564 0
M  V30 8336 H 794.155 7.40046 1.54492 0
M  V30 8337 H 795.423 7.30133 2.72995 0
M  V30 8338 N 799.652 0.226554 1.55963 0
M  V30 8339 C 800.562 -0.692725 2.24139 0
M  V30 8340 C 801.578 -1.20971 1.25068 0
M  V30 8341 O 802.754 -1.25027 1.57893 0
M  V30 8342 C 799.819 -1.88183 2.91184 0
M  V30 8343 C 798.88 -1.40633 4.05612 0
M  V30 8344 C 798.113 -2.53875 4.6945 0
M  V30 8345 O 798.336 -3.72129 4.32292 0
M  V30 8346 O 797.27 -2.24792 5.58348 0
M  V30 8347 H 801.096 -0.141921 3.03368 0
M  V30 8348 H 798.681 -0.0041049 1.49399 0
M  V30 8349 H 800.563 -2.57617 3.33484 0
M  V30 8350 H 799.238 -2.42064 2.14911 0
M  V30 8351 H 798.145 -0.67986 3.67871 0
M  V30 8352 H 799.478 -0.913838 4.83642 0
M  V30 8353 N 801.13 -1.57531 -0.0467866 0
M  V30 8354 C 802.379 -1.87632 -0.740069 0
M  V30 8355 C 802.692 -0.822691 -1.77457 0
M  V30 8356 O 803.898 -1.01235 -2.5192 0
M  V30 8357 C 802.354 -3.32917 -1.36727 0
M  V30 8358 C 801.962 -4.46469 -0.370035 0
M  V30 8359 C 803.706 -3.72189 -2.04146 0
M  V30 8360 C 801.613 -5.82806 -1.00457 0
M  V30 8361 H 800.543 -0.70002 -0.280158 0
M  V30 8362 H 803.194 -1.83499 0.00607151 0
M  V30 8363 H 801.576 -3.31739 -2.16252 0
M  V30 8364 H 802.75 -4.59085 0.397217 0
M  V30 8365 H 801.065 -4.15914 0.201079 0
M  V30 8366 H 803.662 -4.71357 -2.52441 0
M  V30 8367 H 804.005 -3.03268 -2.85192 0
M  V30 8368 H 804.538 -3.75465 -1.3142 0
M  V30 8369 H 801.277 -6.55083 -0.233907 0
M  V30 8370 H 800.797 -5.73944 -1.74209 0
M  V30 8371 H 802.476 -6.28961 -1.51713 0
M  V30 8372 N 802.608 0.318715 -1.54344 0
M  V30 8373 C 803.854 1.05765 -1.73037 0
M  V30 8374 C 804.187 1.87514 -0.505181 0
M  V30 8375 O 803.462 1.88021 0.497838 0
M  V30 8376 C 803.745 1.97836 -3.00887 0
M  V30 8377 C 803.598 1.19384 -4.33668 0
M  V30 8378 C 804.917 2.97285 -3.24514 0
M  V30 8379 H 802.036 0.383104 -0.629603 0
M  V30 8380 H 804.678 0.333864 -1.87044 0
M  V30 8381 H 802.828 2.59552 -2.89076 0
M  V30 8382 H 804.5 0.600906 -4.57369 0
M  V30 8383 H 802.743 0.496198 -4.30953 0
M  V30 8384 H 803.414 1.87014 -5.19355 0
M  V30 8385 H 805.89 2.45693 -3.35819 0
M  V30 8386 H 804.766 3.58887 -4.15321 0
M  V30 8387 H 805.027 3.70003 -2.41971 0
M  V30 8388 N 804.086 1.46499 0.581025 0
M  V30 8389 C 805.314 1.5547 1.36517 0
M  V30 8390 C 805.729 0.196407 1.87776 0
M  V30 8391 O 805.086 -0.806577 1.63709 0
M  V30 8392 C 805.137 2.56084 2.55154 0
M  V30 8393 O 804.858 3.86637 2.06018 0
M  V30 8394 C 806.359 2.75011 3.47683 0
M  V30 8395 H 803.579 0.525703 0.416986 0
M  V30 8396 H 806.123 1.9192 0.706177 0
M  V30 8397 H 804.278 2.22633 3.17039 0
M  V30 8398 H 804.692 4.41413 2.83292 0
M  V30 8399 H 806.166 3.49329 4.27403 0
M  V30 8400 H 806.643 1.81978 3.99726 0
M  V30 8401 H 807.249 3.09565 2.91632 0
M  V30 8402 N 805.565 -0.825799 1.34232 0
M  V30 8403 C 806.513 -1.95792 1.25572 0
M  V30 8404 C 807.507 -1.68695 0.154404 0
M  V30 8405 O 808.713 -1.77147 0.319196 0
M  V30 8406 H 805.088 -0.642949 0.390027 0
M  V30 8407 H 807.059 -2.00219 2.21258 0
M  V30 8408 C 805.808 -3.32245 1.02511 0
M  V30 8409 H 805.131 -3.53642 1.86487 0
M  V30 8410 H 806.571 -4.1192 1.00487 0
M  V30 8411 C 805.03 -3.35803 -0.27167 0
M  V30 8412 O 805.56 -3.80962 -1.274 0
M  V30 8413 N 803.766 -2.89008 -0.303778 0
M  V30 8414 H 803.313 -2.52451 0.512464 0
M  V30 8415 H 803.271 -2.9177 -1.17121 0
M  V30 8416 N 807.043 -1.17915 -1.04565 0
M  V30 8417 C 808.29 -0.971424 -1.77678 0
M  V30 8418 C 808.618 0.499401 -1.87979 0
M  V30 8419 O 807.873 1.38695 -1.38066 0
M  V30 8420 C 808.172 -1.56528 -3.213 0
M  V30 8421 C 807.838 -3.06138 -3.31044 0
M  V30 8422 C 806.5 -3.46974 -3.33411 0
M  V30 8423 C 808.852 -4.02151 -3.31548 0
M  V30 8424 C 806.18 -4.82406 -3.33918 0
M  V30 8425 C 808.532 -5.37492 -3.33595 0
M  V30 8426 C 807.196 -5.77782 -3.34251 0
M  V30 8427 H 806.466 -0.355469 -0.650171 0
M  V30 8428 H 809.113 -1.46902 -1.22849 0
M  V30 8429 H 807.418 -0.98955 -3.79098 0
M  V30 8430 H 809.115 -1.38003 -3.76505 0
M  V30 8431 H 805.705 -2.73589 -3.29919 0
M  V30 8432 H 809.889 -3.71656 -3.28916 0
M  V30 8433 H 805.145 -5.12927 -3.3274 0
M  V30 8434 H 809.319 -6.1166 -3.32934 0
M  V30 8435 H 806.946 -6.82702 -3.34397 0
M  V30 8436 N 808.521 1.23394 -0.980386 0
M  V30 8437 C 809.451 2.2717 -0.540024 0
M  V30 8438 C 810.432 1.64659 0.426787 0
M  V30 8439 O 811.617 1.91543 0.320153 0
M  V30 8440 C 808.747 3.46939 0.15836 0
M  V30 8441 C 807.701 4.21802 -0.725732 0
M  V30 8442 C 807.027 5.34597 0.104866 0
M  V30 8443 C 808.327 4.81802 -2.01654 0
M  V30 8444 H 810.021 2.64257 -1.40743 0
M  V30 8445 H 807.567 1.2703 -0.678193 0
M  V30 8446 H 809.52 4.18683 0.477737 0
M  V30 8447 H 808.244 3.08912 1.06022 0
M  V30 8448 H 806.903 3.51875 -1.02857 0
M  V30 8449 H 806.551 4.92812 1.00726 0
M  V30 8450 H 806.251 5.85607 -0.483557 0
M  V30 8451 H 807.775 6.09163 0.418624 0
M  V30 8452 H 809.189 5.45554 -1.76193 0
M  V30 8453 H 807.586 5.43098 -2.55273 0
M  V30 8454 H 808.656 4.02549 -2.70338 0
M  V30 8455 N 809.999 0.752036 1.385 0
M  V30 8456 C 810.962 0.131587 2.28822 0
M  V30 8457 C 811.962 -0.649149 1.47115 0
M  V30 8458 O 813.152 -0.475645 1.67581 0
M  V30 8459 C 810.284 -0.822101 3.30839 0
M  V30 8460 H 811.477 0.927551 2.85196 0
M  V30 8461 H 809.03 0.518945 1.47434 0
M  V30 8462 H 809.765 -1.6438 2.79553 0
M  V30 8463 H 809.55 -0.264689 3.91206 0
M  V30 8464 H 811.04 -1.25226 3.98382 0
M  V30 8465 N 811.477 -1.49425 0.500989 0
M  V30 8466 C 812.725 -2.02053 -0.0434495 0
M  V30 8467 C 813.046 -1.38285 -1.37486 0
M  V30 8468 O 812.316 -0.538171 -1.88363 0
M  V30 8469 H 810.896 -0.746757 -0.0190469 0
M  V30 8470 H 813.558 -1.83449 0.658227 0
M  V30 8471 H 812.654 -3.11619 -0.173129 0
M  V30 8472 N 812.955 -0.234822 -1.55841 0
M  V30 8473 C 814.202 0.39326 -1.98645 0
M  V30 8474 C 814.53 1.58823 -1.12274 0
M  V30 8475 O 813.785 1.94954 -0.170731 0
M  V30 8476 C 814.084 0.858032 -3.46947 0
M  V30 8477 C 813.75 -0.227858 -4.50324 0
M  V30 8478 C 812.412 -0.526128 -4.78315 0
M  V30 8479 C 814.764 -0.961576 -5.12253 0
M  V30 8480 C 812.092 -1.5624 -5.65514 0
M  V30 8481 C 814.444 -1.98728 -6.00575 0
M  V30 8482 C 813.108 -2.29233 -6.26904 0
M  V30 8483 H 812.378 0.143904 -0.726892 0
M  V30 8484 H 815.025 -0.34012 -1.88455 0
M  V30 8485 H 813.33 1.67041 -3.54408 0
M  V30 8486 H 815.027 1.35407 -3.77447 0
M  V30 8487 H 811.617 0.0147624 -4.28597 0
M  V30 8488 H 815.801 -0.744388 -4.90686 0
M  V30 8489 H 811.057 -1.80422 -5.84173 0
M  V30 8490 H 815.231 -2.5608 -6.47608 0
M  V30 8491 H 812.858 -3.09671 -6.94268 0
M  V30 8492 N 814.433 1.57553 0.0384317 0
M  V30 8493 C 815.343 2.09333 1.0591 0
M  V30 8494 C 816.359 1.0299 1.40247 0
M  V30 8495 O 817.535 1.34669 1.49754 0
M  V30 8496 C 814.6 2.55468 2.34386 0
M  V30 8497 C 813.661 3.76254 2.06716 0
M  V30 8498 C 812.894 4.20179 3.29067 0
M  V30 8499 O 813.117 3.637 4.39407 0
M  V30 8500 O 812.051 5.12697 3.15317 0
M  V30 8501 H 815.877 2.96683 0.649087 0
M  V30 8502 H 813.462 1.47211 0.254802 0
M  V30 8503 H 815.344 2.85514 3.09935 0
M  V30 8504 H 814.019 1.71234 2.74701 0
M  V30 8505 H 812.926 3.51241 1.28766 0
M  V30 8506 H 814.259 4.61443 1.71263 0
M  V30 8507 N 815.911 -0.310526 1.54511 0
M  V30 8508 C 816.874 -1.3657 1.84068 0
M  V30 8509 C 817.874 -1.44123 0.713097 0
M  V30 8510 O 819.064 -1.43924 0.981399 0
M  V30 8511 C 816.196 -2.75162 2.01243 0
M  V30 8512 H 817.389 -1.1161 2.78358 0
M  V30 8513 H 814.942 -0.546699 1.46427 0
M  V30 8514 H 815.677 -3.05359 1.09208 0
M  V30 8515 H 815.462 -2.71071 2.83307 0
M  V30 8516 H 816.952 -3.51473 2.25514 0
M  V30 8517 O 817.428 -1.54915 -0.456448 0
M  V30 8518 H 818.119 -1.58706 -1.11049 0
M  V30 END ATOM
M  V30 BEGIN BOND
M  V30 END BOND
M  V30 END CTAB
M  END
$$$$
