drugbank_target|P04587 Gag-Pol polyprotein (DB07910; DB08115)
 OpenBabel12092120473D

  0  0  0     0  0            999 V3000
M  V30 BEGIN CTAB
M  V30 COUNTS 23084 23338 0 0 0
M  V30 BEGIN ATOM
M  V30 1 H -0.908 1.98254 -0.117106 0
M  V30 2 N 0 1.576 0 0
M  V30 3 C 0.933 2.03868 1.02534 0
M  V30 4 C 1.911 0.928543 1.3348 0
M  V30 5 O 3.095 1.19667 1.45644 0
M  V30 6 C 0.222 2.43627 2.35294 0
M  V30 7 C -0.732 3.65373 2.2001 0
M  V30 8 S 0.101 5.13292 1.52614 0
M  V30 9 C 1.257 5.56322 2.86805 0
M  V30 10 H 1.49 2.90518 0.631377 0
M  V30 11 H -0.977 1.52953 0.210867 0
M  V30 12 H 0.981 2.67203 3.11629 0
M  V30 13 H -0.358 1.57376 2.7183 0
M  V30 14 H -1.165 3.90944 3.18086 0
M  V30 15 H -1.563 3.418 1.51819 0
M  V30 16 H 0.729 5.58782 3.83104 0
M  V30 17 H 1.672 6.56266 2.65933 0
M  V30 18 H 2.08 4.83886 2.90714 0
M  V30 19 N 1.4781 -0.272755 1.55222 0
M  V30 20 C 2.7261 -1.00234 1.75492 0
M  V30 21 C 3.0471 -1.8681 0.5592 0
M  V30 22 O 2.3171 -1.91215 -0.425882 0
M  V30 23 H 0.8971 -0.373076 0.647166 0
M  V30 24 H 3.5591 -0.296926 1.92625 0
M  V30 25 H 2.6551 -1.63913 2.65592 0
M  V30 26 N 2.9562 -1.48159 -0.537278 0
M  V30 27 C 3.9192 -1.61665 -1.62472 0
M  V30 28 C 4.9192 -0.490395 -1.5314 0
M  V30 29 O 6.1092 -0.755998 -1.5694 0
M  V30 30 C 3.2412 -1.57997 -3.02076 0
M  V30 31 H 4.4342 -2.58621 -1.51839 0
M  V30 32 H 1.9872 -1.36647 -0.758771 0
M  V30 33 H 2.7222 -0.624913 -3.18222 0
M  V30 34 H 2.5072 -2.39755 -3.10258 0
M  V30 35 H 3.9972 -1.70627 -3.81151 0
M  V30 36 N 4.4343 0.785586 -1.36625 0
M  V30 37 C 5.8503 1.08419 -1.17122 0
M  V30 38 C 6.0503 2.015 0.00208491 0
M  V30 39 O 5.1063 2.43551 0.666278 0
M  V30 40 C 6.4193 1.69498 -2.48377 0
M  V30 41 C 7.9673 1.81821 -2.54775 0
M  V30 42 C 8.4423 2.46315 -3.86126 0
M  V30 43 N 9.9333 2.53779 -3.87492 0
M  V30 44 C 10.6683 3.045 -4.85868 0
M  V30 45 N 10.1643 3.55499 -5.94637 0
M  V30 46 N 11.9573 3.03247 -4.73284 0
M  V30 47 H 4.1083 0.167264 -2.1174 0
M  V30 48 H 6.3713 0.13682 -0.938075 0
M  V30 49 H 6.0773 1.08571 -3.34522 0
M  V30 50 H 5.9513 2.6896 -2.64462 0
M  V30 51 H 8.3383 2.41884 -1.69045 0
M  V30 52 H 8.4193 0.811532 -2.42586 0
M  V30 53 H 8.0633 1.86895 -4.72263 0
M  V30 54 H 7.9933 3.47561 -3.95612 0
M  V30 55 H 10.4843 2.17672 -3.08913 0
M  V30 56 H 10.7973 3.92562 -6.65669 0
M  V30 57 H 9.1423 3.5364 -5.98301 0
M  V30 58 H 12.3333 2.62696 -3.87438 0
M  V30 59 H 12.5063 3.42467 -5.50109 0
M  V30 60 N 5.9124 1.20967 1.01018 0
M  V30 61 C 6.8754 0.965918 2.07853 0
M  V30 62 C 7.8754 -0.0610545 1.60684 0
M  V30 63 O 9.0654 0.175681 1.73312 0
M  V30 64 C 6.1974 0.455513 3.37843 0
M  V30 65 H 7.3904 1.91365 2.3091 0
M  V30 66 H 4.9434 1.02594 1.17916 0
M  V30 67 H 5.6784 -0.497381 3.20463 0
M  V30 68 H 5.4634 1.19622 3.73407 0
M  V30 69 H 6.9534 0.304667 4.16487 0
M  V30 70 N 7.3905 -1.2043 1.01659 0
M  V30 71 C 8.6155 -1.94318 0.724942 0
M  V30 72 C 9.0405 -1.74266 -0.708034 0
M  V30 73 O 8.3985 -1.03694 -1.48719 0
M  V30 74 C 8.4465 -3.44486 1.06591 0
M  V30 75 O 7.5505 -4.12017 0.177599 0
M  V30 76 H 6.8915 -0.60708 0.26898 0
M  V30 77 H 9.4215 -1.52861 1.35995 0
M  V30 78 H 9.4315 -3.95106 1.01762 0
M  V30 79 H 8.1065 -3.58404 2.10997 0
M  V30 80 H 6.6835 -3.71821 0.283421 0
M  V30 81 N 8.8686 -0.792821 -1.36206 0
M  V30 82 C 10.1146 -0.36733 -1.99446 0
M  V30 83 C 10.4476 1.05917 -1.62774 0
M  V30 84 O 9.7226 1.7324 -0.88421 0
M  V30 85 C 10.0056 -0.535044 -3.56103 0
M  V30 86 C 9.8586 -2.00548 -4.02617 0
M  V30 87 C 11.1776 0.0478191 -4.40074 0
M  V30 88 H 8.2966 -0.134941 -0.724541 0
M  V30 89 H 10.9386 -0.999794 -1.61568 0
M  V30 90 H 9.0886 0.00336329 -3.885 0
M  V30 91 H 10.7606 -2.60521 -3.80692 0
M  V30 92 H 9.0036 -2.50686 -3.54032 0
M  V30 93 H 9.6746 -2.07377 -5.11565 0
M  V30 94 H 12.1506 -0.411822 -4.14057 0
M  V30 95 H 11.0266 -0.0995336 -5.4881 0
M  V30 96 H 11.2876 1.14025 -4.27142 0
M  V30 97 N 10.3467 1.47872 -0.545128 0
M  V30 98 C 11.2767 2.32661 0.197793 0
M  V30 99 C 12.2577 1.43041 0.920504 0
M  V30 100 O 13.4427 1.71912 0.90333 0
M  V30 101 C 10.5727 3.24569 1.23582 0
M  V30 102 C 9.5267 4.23333 0.630323 0
M  V30 103 C 8.8527 5.0448 1.77211 0
M  V30 104 C 10.1527 5.20704 -0.407974 0
M  V30 105 H 11.8467 2.95024 -0.510045 0
M  V30 106 H 9.3927 1.4187 -0.246731 0
M  V30 107 H 11.3457 3.8272 1.76362 0
M  V30 108 H 10.0697 2.60236 1.97344 0
M  V30 109 H 8.7287 3.6639 0.123922 0
M  V30 110 H 8.3767 4.36561 2.49847 0
M  V30 111 H 8.0767 5.71339 1.37281 0
M  V30 112 H 9.6007 5.65487 2.3034 0
M  V30 113 H 11.0147 5.7329 0.033305 0
M  V30 114 H 9.4117 5.95699 -0.725486 0
M  V30 115 H 10.4817 4.66917 -1.30828 0
M  V30 116 N 11.8248 0.280983 1.55075 0
M  V30 117 C 13.0498 -0.340154 2.04592 0
M  V30 118 C 13.4748 -1.48246 1.15779 0
M  V30 119 O 12.8328 -1.80614 0.15761 0
M  V30 120 C 12.8808 -0.793104 3.5177 0
M  V30 121 O 11.9848 -1.89981 3.66034 0
M  V30 122 H 11.3258 -0.0694289 0.66036 0
M  V30 123 H 13.8558 0.416993 2.00306 0
M  V30 124 H 13.8658 -1.08729 3.93245 0
M  V30 125 H 12.5408 0.0426163 4.15878 0
M  V30 126 H 11.1178 -1.60771 3.36463 0
M  V30 127 N 13.3029 -1.57598 0.00835791 0
M  V30 128 C 14.5509 -1.90551 -0.6734 0
M  V30 129 C 14.8719 -0.883301 -1.73847 0
M  V30 130 O 14.1419 0.0781442 -1.95744 0
M  V30 131 H 12.7219 -0.703312 -0.251717 0
M  V30 132 H 15.3839 -1.94833 0.0512592 0
M  V30 133 H 14.4799 -2.9056 -1.13935 0
M  V30 134 N 14.781 0.264519 -1.55364 0
M  V30 135 C 16.029 0.993021 -1.76021 0
M  V30 136 C 16.35 1.86511 -0.569099 0
M  V30 137 O 15.62 1.91438 0.415735 0
M  V30 138 H 14.2 0.369639 -0.649135 0
M  V30 139 H 16.862 0.286707 -1.9278 0
M  V30 140 H 15.958 1.62502 -2.66457 0
M  V30 141 N 16.2591 1.48442 0.529413 0
M  V30 142 C 17.1691 1.6569 1.66084 0
M  V30 143 C 18.1851 0.539432 1.65427 0
M  V30 144 O 19.3611 0.810572 1.84368 0
M  V30 145 C 16.4261 1.69315 3.02545 0
M  V30 146 C 15.4871 2.92694 3.14052 0
M  V30 147 C 14.7201 2.96137 4.44003 0
M  V30 148 O 14.9431 2.07973 5.31134 0
M  V30 149 O 13.8771 3.88312 4.59888 0
M  V30 150 H 17.7031 2.61483 1.54469 0
M  V30 151 H 15.2881 1.3185 0.702567 0
M  V30 152 H 17.1701 1.74217 3.83701 0
M  V30 153 H 15.8451 0.766966 3.14483 0
M  V30 154 H 14.7521 2.93324 2.32189 0
M  V30 155 H 16.0851 3.84699 3.0703 0
M  V30 156 N 17.7372 -0.778329 1.37039 0
M  V30 157 C 18.6672 -1.90546 1.34962 0
M  V30 158 C 19.6482 -1.68681 0.219274 0
M  V30 159 O 20.8332 -1.89634 0.418624 0
M  V30 160 C 17.9632 -3.27734 1.14925 0
M  V30 161 C 16.9172 -3.64147 2.24902 0
M  V30 162 C 16.2432 -4.99806 1.89996 0
M  V30 163 C 17.5432 -3.71579 3.67051 0
M  V30 164 H 19.2372 -1.92541 2.29277 0
M  V30 165 H 16.7832 -0.924948 1.10366 0
M  V30 166 H 18.7362 -4.06215 1.12104 0
M  V30 167 H 17.4602 -3.26154 0.170631 0
M  V30 168 H 16.1192 -2.8797 2.26868 0
M  V30 169 H 15.7672 -4.94759 0.906796 0
M  V30 170 H 15.4672 -5.25139 2.63634 0
M  V30 171 H 16.9912 -5.80694 1.88749 0
M  V30 172 H 18.4052 -4.40227 3.67251 0
M  V30 173 H 16.8022 -4.08405 4.39688 0
M  V30 174 H 17.8722 -2.72404 4.01154 0
M  V30 175 N 19.2153 -1.21501 -1.00376 0
M  V30 176 C 20.4923 -0.941745 -1.71437 0
M  V30 177 C 20.8723 0.546114 -2.03914 0
M  V30 178 O 20.2203 1.51128 -1.71384 0
M  V30 179 C 20.4303 -1.82812 -2.97289 0
M  V30 180 C 21.7783 -2.07771 -3.70292 0
M  V30 181 O 22.8023 -1.80171 -3.07273 0
M  V30 182 O 21.6613 -2.54456 -4.83647 0
M  V30 183 H 18.7553 -0.353243 -0.747762 0
M  V30 184 H 21.3013 -1.32436 -1.06108 0
M  V30 185 H 20.0733 -2.83501 -2.69709 0
M  V30 186 H 19.6963 -1.4464 -3.70358 0
M  V30 187 N 20.6934 1.19889 -1.02296 0
M  V30 188 C 22.1094 1.41462 -0.738954 0
M  V30 189 C 22.3094 1.89721 0.678846 0
M  V30 190 O 21.3654 2.07016 1.4457 0
M  V30 191 C 22.6784 2.43083 -1.77005 0
M  V30 192 C 24.2264 2.5684 -1.78892 0
M  V30 193 C 24.7014 3.61709 -2.80945 0
M  V30 194 N 26.1924 3.69199 -2.79725 0
M  V30 195 C 26.9274 4.50019 -3.55345 0
M  V30 196 N 26.4234 5.34592 -4.40662 0
M  V30 197 N 28.2164 4.44612 -3.43914 0
M  V30 198 H 20.3674 0.868827 -1.93817 0
M  V30 199 H 22.6304 0.44399 -0.837602 0
M  V30 200 H 22.3364 2.14636 -2.78612 0
M  V30 201 H 22.2104 3.4217 -1.58744 0
M  V30 202 H 24.5974 2.84614 -0.779674 0
M  V30 203 H 24.6784 1.57927 -2.01228 0
M  V30 204 H 24.3224 3.34678 -3.82038 0
M  V30 205 H 24.2524 4.60259 -2.5587 0
M  V30 206 H 26.7434 3.08794 -2.17842 0
M  V30 207 H 27.0564 5.93363 -4.95116 0
M  V30 208 H 25.4014 5.34073 -4.44737 0
M  V30 209 H 28.5924 3.7758 -2.76679 0
M  V30 210 H 28.7654 5.0736 -4.031 0
M  V30 211 N 22.1715 0.800033 1.35784 0
M  V30 212 C 23.4175 0.38701 1.99684 0
M  V30 213 C 23.7725 -1.03268 1.62338 0
M  V30 214 O 23.0655 -1.70543 0.87325 0
M  V30 215 C 23.2595 0.500276 3.53881 0
M  V30 216 C 23.0885 1.92942 4.06206 0
M  V30 217 C 21.8585 2.55637 4.35865 0
M  V30 218 C 24.0565 2.89307 4.25213 0
M  V30 219 N 22.0385 3.9003 4.74078 0
M  V30 220 C 23.4095 4.08556 4.66349 0
M  V30 221 C 25.4645 2.86225 4.07406 0
M  V30 222 C 24.1675 5.25146 4.91543 0
M  V30 223 C 26.1935 4.02011 4.33752 0
M  V30 224 C 25.5555 5.20007 4.75155 0
M  V30 225 H 21.6545 0.189252 0.758754 0
M  V30 226 H 24.2385 1.03988 1.64604 0
M  V30 227 H 22.4095 -0.122568 3.88207 0
M  V30 228 H 24.1415 0.0624733 4.04652 0
M  V30 229 H 20.8965 2.07039 4.25948 0
M  V30 230 H 21.3205 4.59205 4.97454 0
M  V30 231 H 25.9625 1.96154 3.74544 0
M  V30 232 H 23.6805 6.15794 5.23281 0
M  V30 233 H 27.2665 4.00999 4.21534 0
M  V30 234 H 26.1465 6.08113 4.95145 0
M  V30 235 N 23.6496 -1.47581 0.552962 0
M  V30 236 C 24.5596 -2.33743 -0.200353 0
M  V30 237 C 25.5756 -1.47928 -0.916151 0
M  V30 238 O 26.7516 -1.80865 -0.885993 0
M  V30 239 C 23.8166 -3.24536 -1.21973 0
M  V30 240 C 22.8776 -4.26238 -0.511819 0
M  V30 241 C 22.1106 -5.12693 -1.48263 0
M  V30 242 O 22.3336 -5.01525 -2.71714 0
M  V30 243 O 21.2676 -5.93375 -1.00945 0
M  V30 244 H 25.0936 -2.9945 0.506304 0
M  V30 245 H 22.6786 -1.46071 0.313622 0
M  V30 246 H 24.5606 -3.80631 -1.80827 0
M  V30 247 H 23.2356 -2.61462 -1.90839 0
M  V30 248 H 22.1426 -3.73914 0.117799 0
M  V30 249 H 23.4756 -4.92014 0.135308 0
M  V30 250 N 25.1277 -0.289203 -1.54924 0
M  V30 251 C 26.0747 0.592115 -2.23075 0
M  V30 252 C 27.0447 1.13881 -1.20915 0
M  V30 253 O 28.2297 1.18551 -1.495 0
M  V30 254 C 25.3697 1.76376 -2.96623 0
M  V30 255 C 24.4827 1.24959 -4.13533 0
M  V30 256 C 23.6177 2.38416 -4.74691 0
M  V30 257 C 22.6567 1.84072 -5.83767 0
M  V30 258 N 21.7937 2.91057 -6.38929 0
M  V30 259 H 26.6337 0.00432038 -2.98 0
M  V30 260 H 24.1707 -0.00963529 -1.47097 0
M  V30 261 H 26.1287 2.45268 -3.3749 0
M  V30 262 H 24.7587 2.32337 -2.24097 0
M  V30 263 H 23.8107 0.453307 -3.77689 0
M  V30 264 H 25.1227 0.811662 -4.92152 0
M  V30 265 H 24.2767 3.15276 -5.18349 0
M  V30 266 H 23.0157 2.8553 -3.95378 0
M  V30 267 H 22.0207 1.05697 -5.39545 0
M  V30 268 H 23.2457 1.37877 -6.64956 0
M  V30 269 H 21.1917 3.37526 -5.62505 0
M  V30 270 H 21.1087 2.51724 -7.12861 0
M  V30 271 H 22.3767 3.6785 -6.87246 0
M  V30 272 N 26.6058 1.57591 -0.0167156 0
M  V30 273 C 27.8548 1.90461 0.663877 0
M  V30 274 C 28.1678 0.893515 1.73999 0
M  V30 275 O 29.3738 1.11302 2.47637 0
M  V30 276 C 27.8298 3.38155 1.23204 0
M  V30 277 C 27.4378 4.47597 0.189866 0
M  V30 278 C 29.1818 3.80111 1.88986 0
M  V30 279 C 27.0888 5.86379 0.768964 0
M  V30 280 H 26.0188 0.710738 0.251729 0
M  V30 281 H 28.6698 1.83326 -0.0799926 0
M  V30 282 H 27.0518 3.40182 2.02712 0
M  V30 283 H 28.2258 4.57112 -0.581846 0
M  V30 284 H 26.5408 4.14766 -0.368475 0
M  V30 285 H 29.1378 4.81145 2.33247 0
M  V30 286 H 29.4808 3.14511 2.72743 0
M  V30 287 H 30.0138 3.80454 1.16187 0
M  V30 288 H 26.7528 6.55493 -0.0301957 0
M  V30 289 H 26.2728 5.80496 1.50945 0
M  V30 290 H 27.9518 6.34563 1.26251 0
M  V30 291 N 28.0839 -0.256276 1.55502 0
M  V30 292 C 29.4999 -0.604325 1.47716 0
M  V30 293 C 29.6999 -1.88763 0.705039 0
M  V30 294 O 28.7559 -2.51445 0.230613 0
M  V30 295 C 30.0689 -0.715756 2.92057 0
M  V30 296 C 31.6169 -0.808706 3.02372 0
M  V30 297 C 32.0919 -0.951777 4.48001 0
M  V30 298 N 33.5829 -1.01688 4.519 0
M  V30 299 C 34.3179 -1.14668 5.61817 0
M  V30 300 N 33.8139 -1.24261 6.81565 0
M  V30 301 N 35.6069 -1.1791 5.49594 0
M  V30 302 H 27.7579 0.586291 2.04148 0
M  V30 303 H 30.0209 0.201015 0.926443 0
M  V30 304 H 29.7269 0.157027 3.51349 0
M  V30 305 H 29.6009 -1.59071 3.42018 0
M  V30 306 H 31.9879 -1.67195 2.43166 0
M  V30 307 H 32.0689 0.0912063 2.55637 0
M  V30 308 H 31.7129 -0.0931291 5.07815 0
M  V30 309 H 31.6429 -1.86659 4.92408 0
M  V30 310 H 34.1339 -0.954468 3.65648 0
M  V30 311 H 34.4469 -1.34046 7.61086 0
M  V30 312 H 32.7919 -1.21236 6.84344 0
M  V30 313 H 35.9829 -1.10057 4.54978 0
M  V30 314 H 36.1559 -1.27681 6.35296 0
M  V30 315 N 29.562 -1.4872 -0.521534 0
M  V30 316 C 30.492 -1.66771 -1.63431 0
M  V30 317 C 31.473 -0.516499 -1.62069 0
M  V30 318 O 32.658 -0.750013 -1.79132 0
M  V30 319 C 29.788 -1.71515 -3.01993 0
M  V30 320 C 28.742 -2.86222 -3.18216 0
M  V30 321 C 28.068 -2.76061 -4.57924 0
M  V30 322 C 29.368 -4.27419 -3.00184 0
M  V30 323 H 31.062 -2.59932 -1.48579 0
M  V30 324 H 28.608 -1.25089 -0.713358 0
M  V30 325 H 30.561 -1.82731 -3.7972 0
M  V30 326 H 29.285 -0.749393 -3.17886 0
M  V30 327 H 27.944 -2.74575 -2.42908 0
M  V30 328 H 27.592 -1.77437 -4.70665 0
M  V30 329 H 27.292 -3.53037 -4.69722 0
M  V30 330 H 28.816 -2.89256 -5.37739 0
M  V30 331 H 30.23 -4.39855 -3.67697 0
M  V30 332 H 28.627 -5.05458 -3.2347 0
M  V30 333 H 29.697 -4.43293 -1.96518 0
M  V30 334 N 31.0401 0.771051 -1.3745 0
M  V30 335 C 32.4561 1.07171 -1.18265 0
M  V30 336 C 32.6561 2.01491 -0.019287 0
M  V30 337 O 31.7121 2.44244 0.640408 0
M  V30 338 C 33.0251 1.66854 -2.50161 0
M  V30 339 C 34.5731 1.79109 -2.56689 0
M  V30 340 C 35.0481 2.42205 -3.88717 0
M  V30 341 N 36.5391 2.49655 -3.90162 0
M  V30 342 C 37.2741 2.9933 -4.8907 0
M  V30 343 N 36.7701 3.49172 -5.98374 0
M  V30 344 N 38.5631 2.9821 -4.76474 0
M  V30 345 H 30.7141 0.144796 -2.11906 0
M  V30 346 H 32.9771 0.126863 -0.939473 0
M  V30 347 H 32.6831 1.05017 -3.35655 0
M  V30 348 H 32.5571 2.6614 -2.673 0
M  V30 349 H 34.9441 2.40077 -1.71601 0
M  V30 350 H 35.0251 0.785757 -2.43433 0
M  V30 351 H 34.6691 1.81875 -4.74219 0
M  V30 352 H 34.5991 3.43345 -3.99276 0
M  V30 353 H 37.0901 2.14383 -3.11205 0
M  V30 354 H 37.4031 3.8548 -6.69795 0
M  V30 355 H 35.7481 3.47275 -6.02018 0
M  V30 356 H 38.9391 2.58572 -3.90203 0
M  V30 357 H 39.1121 3.36613 -5.53711 0
M  V30 358 N 32.5182 1.22032 0.997298 0
M  V30 359 C 33.9292 1.0397 1.55071 0
M  V30 360 C 34.2802 -0.398192 1.92117 0
M  V30 361 O 33.4052 -1.28254 1.74298 0
M  V30 362 C 34.0002 1.88109 2.81781 0
M  V30 363 C 32.5592 1.74357 3.33581 0
M  V30 364 C 31.7062 1.84846 2.06706 0
M  V30 365 H 34.6572 1.35941 0.818883 0
M  V30 366 H 34.6782 1.39589 3.53971 0
M  V30 367 H 34.1902 2.92754 2.54787 0
M  V30 368 H 32.2912 0.72427 3.65493 0
M  V30 369 H 32.4042 2.56772 4.04481 0
M  V30 370 H 30.7682 1.28238 2.20062 0
M  V30 371 H 31.5512 2.91014 1.82114 0
M  V30 372 N 33.9963 -1.19345 1.0293 0
M  V30 373 C 35.2443 -1.88665 0.724574 0
M  V30 374 C 35.5653 -1.80036 -0.749144 0
M  V30 375 O 34.8353 -1.2111 -1.53978 0
M  V30 376 H 33.4153 -0.698406 0.265025 0
M  V30 377 H 36.0773 -1.44885 1.30362 0
M  V30 378 H 35.1733 -2.94987 1.01926 0
M  V30 379 N 35.4744 -0.807222 -1.35358 0
M  V30 380 C 36.7224 -0.387122 -1.98358 0
M  V30 381 C 37.0434 1.04942 -1.64354 0
M  V30 382 O 36.3134 1.72615 -0.926339 0
M  V30 383 H 34.8934 -0.140154 -0.733734 0
M  V30 384 H 37.5554 -1.0332 -1.6526 0
M  V30 385 H 36.6514 -0.493352 -3.08176 0
M  V30 386 N 36.9525 1.47285 -0.560781 0
M  V30 387 C 37.8995 2.30058 0.18491 0
M  V30 388 C 38.8695 1.39281 0.904986 0
M  V30 389 O 40.0545 1.68241 0.899979 0
M  V30 390 C 37.1945 3.23317 1.20666 0
M  V30 391 C 36.3075 4.29186 0.492285 0
M  V30 392 C 35.4425 5.09592 1.49964 0
M  V30 393 C 34.4815 6.07232 0.770439 0
M  V30 394 N 33.6185 6.80584 1.72479 0
M  V30 395 H 38.4585 2.93302 -0.527048 0
M  V30 396 H 35.9955 1.44568 -0.271738 0
M  V30 397 H 37.9535 3.75811 1.81168 0
M  V30 398 H 36.5835 2.61929 1.88661 0
M  V30 399 H 35.6355 3.7972 -0.227333 0
M  V30 400 H 36.9475 4.98738 -0.0787929 0
M  V30 401 H 36.1015 5.66254 2.17809 0
M  V30 402 H 34.8405 4.3995 2.10464 0
M  V30 403 H 33.8455 5.49745 0.0780846 0
M  V30 404 H 35.0705 6.78884 0.171134 0
M  V30 405 H 33.0165 6.1367 2.3183 0
M  V30 406 H 32.9335 7.46319 1.20596 0
M  V30 407 H 34.2015 7.41818 2.39428 0
M  V30 408 N 38.4306 0.297415 1.54768 0
M  V30 409 C 39.3776 -0.580276 2.23386 0
M  V30 410 C 40.3476 -1.13238 1.21517 0
M  V30 411 O 41.5326 -1.17757 1.50126 0
M  V30 412 C 38.6726 -1.74801 2.97555 0
M  V30 413 C 37.7856 -1.22764 4.1419 0
M  V30 414 C 36.9206 -2.35895 4.75949 0
M  V30 415 C 35.9596 -1.80974 5.84735 0
M  V30 416 N 35.0966 -2.87664 6.40464 0
M  V30 417 H 39.9366 0.0114833 2.97998 0
M  V30 418 H 37.4736 0.0174361 1.4709 0
M  V30 419 H 39.4316 -2.43475 3.38786 0
M  V30 420 H 38.0616 -2.31145 2.25326 0
M  V30 421 H 37.1136 -0.433271 3.77924 0
M  V30 422 H 38.4256 -0.785551 4.92575 0
M  V30 423 H 37.5796 -3.12523 5.20014 0
M  V30 424 H 36.3186 -2.83429 3.96887 0
M  V30 425 H 35.3236 -1.02834 5.40097 0
M  V30 426 H 36.5486 -1.34348 6.65678 0
M  V30 427 H 34.4946 -3.34538 5.64287 0
M  V30 428 H 34.4116 -2.4794 7.14186 0
M  V30 429 H 35.6796 -3.642 6.89187 0
M  V30 430 N 39.9087 -1.5758 0.0250728 0
M  V30 431 C 40.8557 -2.09973 -0.958129 0
M  V30 432 C 41.8257 -1.00085 -1.3256 0
M  V30 433 O 43.0107 -1.27481 -1.41962 0
M  V30 434 C 40.1507 -2.62812 -2.2366 0
M  V30 435 C 39.2637 -3.86693 -1.92594 0
M  V30 436 C 38.3987 -4.27941 -3.14707 0
M  V30 437 C 37.4377 -5.44591 -2.79442 0
M  V30 438 N 36.5747 -5.81014 -3.94167 0
M  V30 439 H 41.4147 -2.937 -0.504428 0
M  V30 440 H 38.9517 -1.45172 -0.237392 0
M  V30 441 H 40.9097 -2.91536 -2.98434 0
M  V30 442 H 39.5397 -1.81922 -2.66654 0
M  V30 443 H 38.5917 -3.64723 -1.0808 0
M  V30 444 H 39.9037 -4.71547 -1.62619 0
M  V30 445 H 39.0577 -4.58079 -3.97804 0
M  V30 446 H 37.7967 -3.41845 -3.4784 0
M  V30 447 H 36.8017 -5.1415 -1.94755 0
M  V30 448 H 38.0267 -6.32382 -2.47528 0
M  V30 449 H 35.9727 -4.97874 -4.2715 0
M  V30 450 H 35.8897 -6.60498 -3.67801 0
M  V30 451 H 37.1577 -6.15756 -4.7798 0
M  V30 452 N 41.3868 0.248026 -1.55636 0
M  V30 453 C 42.6168 0.992367 -1.81206 0
M  V30 454 C 43.0248 1.7949 -0.598324 0
M  V30 455 O 42.3678 1.78292 0.442434 0
M  V30 456 C 42.4298 1.97926 -3.00109 0
M  V30 457 C 42.0938 1.36377 -4.36177 0
M  V30 458 C 43.0908 0.76682 -5.14214 0
M  V30 459 C 40.7758 1.38347 -4.82872 0
M  V30 460 C 42.7698 0.197778 -6.37093 0
M  V30 461 C 40.4568 0.810574 -6.057 0
M  V30 462 C 41.4548 0.218754 -6.8265 0
M  V30 463 O 41.1428 -0.345298 -8.03158 0
M  V30 464 H 40.8748 0.297704 -0.606917 0
M  V30 465 H 43.4288 0.276517 -2.0353 0
M  V30 466 H 41.6588 2.73339 -2.73538 0
M  V30 467 H 43.3478 2.58694 -3.12781 0
M  V30 468 H 44.1138 0.744114 -4.79258 0
M  V30 469 H 39.9928 1.8335 -4.2297 0
M  V30 470 H 43.5368 -0.264788 -6.97097 0
M  V30 471 H 39.4338 0.830604 -6.40134 0
M  V30 472 H 40.2018 -0.237055 -8.18157 0
M  V30 473 N 42.8649 1.48995 0.513639 0
M  V30 474 C 43.8119 1.6473 1.61656 0
M  V30 475 C 44.7819 0.488984 1.58739 0
M  V30 476 O 45.9669 0.714478 1.76918 0
M  V30 477 C 43.1069 1.7082 2.99858 0
M  V30 478 C 42.2199 2.9787 3.12885 0
M  V30 479 C 41.3549 2.95017 4.41744 0
M  V30 480 C 40.3939 4.16702 4.48359 0
M  V30 481 N 39.5309 4.11832 5.68629 0
M  V30 482 H 44.3709 2.58909 1.47547 0
M  V30 483 H 41.9079 1.28382 0.71808 0
M  V30 484 H 43.8659 1.72331 3.79944 0
M  V30 485 H 42.4959 0.801181 3.12699 0
M  V30 486 H 41.5479 3.06029 2.25944 0
M  V30 487 H 42.8599 3.8786 3.13633 0
M  V30 488 H 42.0139 2.95021 5.30139 0
M  V30 489 H 40.7529 2.02784 4.43542 0
M  V30 490 H 39.7579 4.16955 3.58369 0
M  V30 491 H 40.9829 5.10113 4.48287 0
M  V30 492 H 38.9289 3.22428 5.71293 0
M  V30 493 H 38.8459 4.95543 5.7094 0
M  V30 494 H 40.1139 4.1592 6.59266 0
M  V30 495 N 44.343 -0.763751 1.37857 0
M  V30 496 C 45.273 -1.89103 1.36975 0
M  V30 497 C 46.254 -1.68439 0.237152 0
M  V30 498 O 47.439 -1.8918 0.438713 0
M  V30 499 C 44.569 -3.26496 1.18395 0
M  V30 500 C 43.523 -3.61741 2.28751 0
M  V30 501 C 42.849 -4.97762 1.95286 0
M  V30 502 C 44.149 -3.67665 3.70972 0
M  V30 503 H 45.843 -1.90099 2.31307 0
M  V30 504 H 43.389 -0.91319 1.11341 0
M  V30 505 H 45.342 -4.05003 1.16406 0
M  V30 506 H 44.066 -3.25955 0.205215 0
M  V30 507 H 42.725 -2.85547 2.29909 0
M  V30 508 H 42.373 -4.93769 0.959221 0
M  V30 509 H 42.073 -5.22313 2.69189 0
M  V30 510 H 43.597 -5.7866 1.94898 0
M  V30 511 H 45.011 -4.36307 3.719 0
M  V30 512 H 43.408 -4.03718 4.43995 0
M  V30 513 H 44.478 -2.68134 4.0402 0
M  V30 514 N 45.8211 -1.22559 -0.990812 0
M  V30 515 C 46.7681 -0.997519 -2.0813 0
M  V30 516 C 47.7381 0.0814702 -1.659 0
M  V30 517 O 48.9231 -0.0685424 -1.90677 0
M  V30 518 C 46.0631 -0.583615 -3.40129 0
M  V30 519 C 45.1761 -1.7336 -3.9569 0
M  V30 520 C 44.3111 -1.26748 -5.15857 0
M  V30 521 C 43.3501 -2.38888 -5.63559 0
M  V30 522 N 42.4871 -1.93308 -6.74964 0
M  V30 523 H 47.3271 -1.93099 -2.26973 0
M  V30 524 H 44.8641 -0.962114 -1.11273 0
M  V30 525 H 46.8221 -0.324801 -4.15934 0
M  V30 526 H 45.4521 0.312845 -3.2128 0
M  V30 527 H 44.5041 -2.10669 -3.16738 0
M  V30 528 H 45.8161 -2.57704 -4.27071 0
M  V30 529 H 44.9701 -0.966173 -5.98957 0
M  V30 530 H 43.7091 -0.394272 -4.86104 0
M  V30 531 H 42.7141 -2.69805 -4.79046 0
M  V30 532 H 43.9391 -3.26728 -5.95336 0
M  V30 533 H 41.8851 -1.08352 -6.4699 0
M  V30 534 H 41.8021 -2.71217 -7.05675 0
M  V30 535 H 43.0701 -1.66252 -7.61564 0
M  V30 536 N 47.2992 1.18797 -1.03562 0
M  V30 537 C 48.2492 2.20161 -0.592724 0
M  V30 538 C 49.2332 1.56772 0.362133 0
M  V30 539 O 50.4252 1.76062 0.182009 0
M  V30 540 C 47.5542 3.43266 0.0481024 0
M  V30 541 C 46.6402 4.13786 -0.9296 0
M  V30 542 N 47.0312 4.60388 -2.09467 0
M  V30 543 C 45.3292 4.39572 -0.754499 0
M  V30 544 C 46.0302 5.14619 -2.71187 0
M  V30 545 N 45.0062 5.05826 -1.991 0
M  V30 546 H 48.8082 2.53877 -1.48066 0
M  V30 547 H 46.3222 1.34946 -0.903514 0
M  V30 548 H 48.3192 4.15136 0.383058 0
M  V30 549 H 46.9792 3.11048 0.931636 0
M  V30 550 H 47.9902 4.54999 -2.47379 0
M  V30 551 H 44.6672 4.17425 0.0793713 0
M  V30 552 H 46.0572 5.60917 -3.69895 0
M  V30 553 N 48.7773 0.814389 1.34928 0
M  V30 554 C 50.0263 0.394871 1.97797 0
M  V30 555 C 50.3393 -1.04555 1.65311 0
M  V30 556 O 51.5453 -1.56856 2.21604 0
M  V30 557 C 50.0013 0.655103 3.53888 0
M  V30 558 C 49.6093 2.10858 3.95276 0
M  V30 559 C 51.3533 0.301329 4.23429 0
M  V30 560 C 49.2603 2.31415 5.44244 0
M  V30 561 H 48.1903 0.143913 0.740139 0
M  V30 562 H 50.8413 0.999544 1.53888 0
M  V30 563 H 49.2233 -0.0196253 3.95995 0
M  V30 564 H 50.3973 2.82176 3.64298 0
M  V30 565 H 48.7123 2.42297 3.38646 0
M  V30 566 H 51.3093 0.432869 5.32945 0
M  V30 567 H 51.6523 -0.75331 4.09428 0
M  V30 568 H 52.1853 0.930288 3.86769 0
M  V30 569 H 48.9243 3.35353 5.63222 0
M  V30 570 H 48.4443 1.6463 5.76764 0
M  V30 571 H 50.1233 2.13352 6.10811 0
M  V30 572 N 50.2554 -1.46986 0.568584 0
M  V30 573 C 51.5014 -2.02741 0.0488709 0
M  V30 574 C 51.8344 -1.44077 -1.30214 0
M  V30 575 O 51.1094 -0.600552 -1.84996 0
M  V30 576 C 51.3924 -3.60086 -0.032047 0
M  V30 577 C 51.2454 -4.29162 1.34686 0
M  V30 578 C 52.5644 -4.33838 -0.739798 0
M  V30 579 H 49.6834 -0.736749 0.0192338 0
M  V30 580 H 52.3254 -1.75289 0.733065 0
M  V30 581 H 50.4754 -3.83606 -0.61473 0
M  V30 582 H 52.1474 -4.16948 1.97362 0
M  V30 583 H 50.3904 -3.89073 1.91846 0
M  V30 584 H 51.0614 -5.37826 1.24285 0
M  V30 585 H 53.5374 -4.15378 -0.244939 0
M  V30 586 H 52.4134 -5.43537 -0.765406 0
M  V30 587 H 52.6744 -4.03875 -1.79827 0
M  V30 588 N 51.7335 -0.305618 -1.54608 0
M  V30 589 C 52.9795 0.295595 -2.01241 0
M  V30 590 C 53.3345 1.51171 -1.19018 0
M  V30 591 O 52.6275 1.89832 -0.259684 0
M  V30 592 C 52.8215 0.698983 -3.50498 0
M  V30 593 C 52.6505 -0.476491 -4.47168 0
M  V30 594 C 51.4205 -0.969963 -4.95903 0
M  V30 595 C 53.6185 -1.32294 -4.96994 0
M  V30 596 N 51.6005 -2.11172 -5.76437 0
M  V30 597 C 52.9715 -2.31212 -5.75275 0
M  V30 598 C 55.0265 -1.35278 -4.7917 0
M  V30 599 C 53.7295 -3.32896 -6.37631 0
M  V30 600 C 55.7555 -2.35823 -5.42348 0
M  V30 601 C 55.1175 -3.33469 -6.20466 0
M  V30 602 H 51.2165 0.0724992 -0.778632 0
M  V30 603 H 53.8005 -0.436583 -1.89742 0
M  V30 604 H 51.9715 1.40032 -3.62278 0
M  V30 605 H 53.7035 1.28013 -3.8392 0
M  V30 606 H 50.4585 -0.544178 -4.70463 0
M  V30 607 H 50.8825 -2.68714 -6.21387 0
M  V30 608 H 55.5245 -0.61157 -4.18354 0
M  V30 609 H 53.2425 -4.07933 -6.97579 0
M  V30 610 H 56.8285 -2.38911 -5.30484 0
M  V30 611 H 55.7085 -4.09996 -6.68485 0
M  V30 612 N 53.2116 1.57565 -0.0334293 0
M  V30 613 C 54.1746 2.09393 0.932048 0
M  V30 614 C 55.1746 1.00986 1.25134 0
M  V30 615 O 56.3646 1.27129 1.19096 0
M  V30 616 C 53.4966 2.56338 2.2473 0
M  V30 617 H 54.6896 2.95984 0.483085 0
M  V30 618 H 52.2426 1.54819 0.21468 0
M  V30 619 H 52.9776 1.7309 2.74245 0
M  V30 620 H 52.7626 3.35542 2.02865 0
M  V30 621 H 54.2526 2.96646 2.93923 0
M  V30 622 N 54.6897 -0.239769 1.55765 0
M  V30 623 C 55.9147 -0.988373 1.82335 0
M  V30 624 C 56.3397 -1.77886 0.611421 0
M  V30 625 O 55.6977 -1.75889 -0.439639 0
M  V30 626 C 55.7457 -1.89627 3.06715 0
M  V30 627 O 54.8497 -2.98904 2.84131 0
M  V30 628 H 54.1907 -0.280858 0.601677 0
M  V30 629 H 56.7207 -0.258597 2.02959 0
M  V30 630 H 56.7307 -2.30957 3.36338 0
M  V30 631 H 55.4057 -1.31511 3.9456 0
M  V30 632 H 53.9827 -2.61651 2.65694 0
M  V30 633 N 56.1678 -1.49265 -0.50573 0
M  V30 634 C 57.5838 -1.35923 -0.836486 0
M  V30 635 C 57.7838 -0.388704 -1.97715 0
M  V30 636 O 56.8398 0.181336 -2.51848 0
M  V30 637 C 58.1528 -2.76531 -1.18115 0
M  V30 638 C 59.7008 -2.85197 -1.28964 0
M  V30 639 C 60.1758 -4.26561 -1.66761 0
M  V30 640 N 61.6668 -4.2935 -1.73819 0
M  V30 641 C 62.4018 -5.35693 -2.045 0
M  V30 642 N 61.8978 -6.52287 -2.33438 0
M  V30 643 N 63.6908 -5.23105 -2.05711 0
M  V30 644 H 55.8418 -2.10965 0.246519 0
M  V30 645 H 58.1048 -0.9468 0.0476887 0
M  V30 646 H 57.8108 -3.49226 -0.416398 0
M  V30 647 H 57.6848 -3.11599 -2.1257 0
M  V30 648 H 60.0718 -2.12742 -2.04511 0
M  V30 649 H 60.1528 -2.53718 -0.325704 0
M  V30 650 H 59.7968 -4.99541 -0.917656 0
M  V30 651 H 59.7268 -4.55502 -2.64246 0
M  V30 652 H 62.2178 -3.4526 -1.53635 0
M  V30 653 H 62.5308 -7.29158 -2.56024 0
M  V30 654 H 60.8758 -6.55521 -2.30905 0
M  V30 655 H 64.0668 -4.31026 -1.82577 0
M  V30 656 H 64.2398 -6.06078 -2.29289 0
M  V30 657 N 57.6459 0.756429 -1.3826 0
M  V30 658 C 58.5559 1.9009 -1.37488 0
M  V30 659 C 59.5719 1.71855 -0.272366 0
M  V30 660 O 60.7479 1.94827 -0.510318 0
M  V30 661 C 57.8129 3.25421 -1.19592 0
M  V30 662 C 56.8739 3.56202 -2.39622 0
M  V30 663 C 56.1069 4.85075 -2.2257 0
M  V30 664 O 56.3299 5.57246 -1.21793 0
M  V30 665 O 55.2639 5.15269 -3.11098 0
M  V30 666 H 59.0899 1.93695 -2.33914 0
M  V30 667 H 56.6749 0.901313 -1.1915 0
M  V30 668 H 58.5569 4.06337 -1.11661 0
M  V30 669 H 57.2319 3.22634 -0.262486 0
M  V30 670 H 56.1389 2.75458 -2.53128 0
M  V30 671 H 57.4719 3.63747 -3.31586 0
M  V30 672 N 59.124 1.23083 0.984299 0
M  V30 673 C 60.054 1.03292 2.09411 0
M  V30 674 C 61.035 -0.048923 1.7003 0
M  V30 675 O 62.22 0.114967 1.93859 0
M  V30 676 C 59.35 0.619155 3.41736 0
M  V30 677 C 58.304 1.64791 3.95004 0
M  V30 678 C 57.63 1.0897 5.23478 0
M  V30 679 C 58.93 3.03999 4.24714 0
M  V30 680 H 60.624 1.96119 2.26225 0
M  V30 681 H 58.17 0.944344 1.08711 0
M  V30 682 H 60.123 0.467777 4.18796 0
M  V30 683 H 58.847 -0.344786 3.24775 0
M  V30 684 H 57.506 1.78721 3.20085 0
M  V30 685 H 57.154 0.11686 5.02864 0
M  V30 686 H 56.854 1.77704 5.60085 0
M  V30 687 H 58.378 0.950093 6.03163 0
M  V30 688 H 59.792 2.93393 4.92538 0
M  V30 689 H 58.189 3.69936 4.72512 0
M  V30 690 H 59.259 3.53285 3.32142 0
M  V30 691 N 60.6021 -1.18246 1.0419 0
M  V30 692 C 61.5121 -2.25574 0.644476 0
M  V30 693 C 62.5281 -1.70845 -0.329826 0
M  V30 694 O 63.7041 -2.00554 -0.184443 0
M  V30 695 C 60.7691 -3.46697 0.014877 0
M  V30 696 C 59.8301 -4.16554 1.03834 0
M  V30 697 C 59.0631 -5.31894 0.438692 0
M  V30 698 O 59.2861 -5.65385 -0.754752 0
M  V30 699 O 58.2201 -5.90459 1.168 0
M  V30 700 H 62.0461 -2.61836 1.53869 0
M  V30 701 H 59.6311 -1.25352 0.812854 0
M  V30 702 H 61.5131 -4.20062 -0.335538 0
M  V30 703 H 60.1881 -3.12255 -0.853138 0
M  V30 704 H 59.0951 -3.45251 1.44057 0
M  V30 705 H 60.4281 -4.54998 1.87716 0
M  V30 706 N 62.0802 -0.821533 -1.34494 0
M  V30 707 C 63.4962 -0.507117 -1.51329 0
M  V30 708 C 63.6962 0.968964 -1.76673 0
M  V30 709 O 62.7522 1.75348 -1.81685 0
M  V30 710 C 64.0652 -1.36544 -2.67911 0
M  V30 711 C 65.6132 -1.36242 -2.81793 0
M  V30 712 C 66.0882 -2.2052 -4.01416 0
M  V30 713 N 67.5792 -2.18136 -4.08621 0
M  V30 714 C 68.3142 -2.80095 -5.00334 0
M  V30 715 N 67.8102 -3.51039 -5.9728 0
M  V30 716 N 69.6032 -2.69656 -4.93196 0
M  V30 717 H 61.7542 -1.77729 -1.16302 0
M  V30 718 H 64.0172 -0.757291 -0.570276 0
M  V30 719 H 63.7232 -2.41361 -2.55808 0
M  V30 720 H 63.5972 -1.02917 -3.62888 0
M  V30 721 H 65.9842 -0.322041 -2.93338 0
M  V30 722 H 66.0652 -1.73866 -1.87628 0
M  V30 723 H 65.7092 -3.24607 -3.90631 0
M  V30 724 H 65.6392 -1.80247 -4.94791 0
M  V30 725 H 68.1302 -1.6653 -3.39229 0
M  V30 726 H 68.4432 -3.95565 -6.63889 0
M  V30 727 H 66.7882 -3.55145 -5.97409 0
M  V30 728 H 69.9792 -2.13808 -4.16418 0
M  V30 729 H 70.1522 -3.1823 -5.64476 0
M  V30 730 N 63.5583 1.46682 -0.576371 0
M  V30 731 C 64.8053 2.02412 -0.0595339 0
M  V30 732 C 65.1333 1.44859 1.29793 0
M  V30 733 O 64.3883 0.601099 1.8624 0
M  V30 734 C 64.6873 3.57345 0.062886 0
M  V30 735 C 64.3533 4.33908 -1.22616 0
M  V30 736 C 63.0153 4.54544 -1.57933 0
M  V30 737 C 65.3673 4.77919 -2.07948 0
M  V30 738 C 62.6953 5.16444 -2.78393 0
M  V30 739 C 65.0473 5.41149 -3.27629 0
M  V30 740 C 63.7113 5.60014 -3.63236 0
M  V30 741 H 62.9813 0.74068 -0.021785 0
M  V30 742 H 65.6283 1.76128 -0.751735 0
M  V30 743 H 63.9333 3.82729 0.838178 0
M  V30 744 H 65.6303 3.98136 0.478439 0
M  V30 745 H 62.2203 4.18138 -0.941202 0
M  V30 746 H 66.4043 4.61738 -1.81967 0
M  V30 747 H 61.6603 5.29242 -3.06126 0
M  V30 748 H 65.8343 5.74211 -3.94023 0
M  V30 749 H 63.4613 6.07748 -4.56669 0
M  V30 750 N 65.0364 0.313813 1.54444 0
M  V30 751 C 65.9994 -0.54379 2.22656 0
M  V30 752 C 66.9994 -1.05124 1.21678 0
M  V30 753 O 68.1894 -0.945225 1.46325 0
M  V30 754 C 65.3214 -1.75427 2.92298 0
M  V30 755 H 66.5144 0.0523599 2.99854 0
M  V30 756 H 64.0674 0.0647834 1.56166 0
M  V30 757 H 64.8024 -2.38991 2.19211 0
M  V30 758 H 64.5874 -1.39791 3.66334 0
M  V30 759 H 66.0774 -2.36325 3.44297 0
M  V30 760 N 66.5145 -1.57545 0.0417849 0
M  V30 761 C 67.7605 -1.92601 -0.635021 0
M  V30 762 C 68.0935 -0.919627 -1.71045 0
M  V30 763 O 67.3685 0.0557892 -1.9442 0
M  V30 764 C 67.6515 -3.38085 -1.23979 0
M  V30 765 C 67.5045 -4.49467 -0.173057 0
M  V30 766 C 68.8235 -3.83776 -2.15416 0
M  V30 767 H 65.9425 -0.700397 -0.229374 0
M  V30 768 H 68.5845 -1.89728 0.101633 0
M  V30 769 H 66.7345 -3.40664 -1.86762 0
M  V30 770 H 68.4065 -4.59018 0.458312 0
M  V30 771 H 66.6495 -4.30909 0.499996 0
M  V30 772 H 67.3205 -5.48323 -0.636054 0
M  V30 773 H 69.7965 -3.83013 -1.62605 0
M  V30 774 H 68.6725 -4.8624 -2.54679 0
M  V30 775 H 68.9335 -3.19998 -3.05047 0
M  V30 776 N 67.9926 0.231505 -1.5589 0
M  V30 777 C 68.9406 1.30649 -1.92441 0
M  V30 778 C 69.9346 1.49037 -0.805254 0
M  V30 779 O 71.1406 1.50329 -0.990007 0
M  V30 780 H 67.5156 0.437812 -0.611412 0
M  V30 781 H 69.4866 0.970973 -2.82161 0
M  V30 782 C 68.2356 2.65179 -2.24889 0
M  V30 783 H 67.5586 2.51835 -3.10514 0
M  V30 784 H 68.9986 3.39234 -2.54355 0
M  V30 785 C 67.4576 3.19439 -1.07054 0
M  V30 786 O 67.9876 4.00371 -0.326499 0
M  V30 787 N 66.1936 2.77675 -0.85703 0
M  V30 788 H 65.7406 2.11969 -1.46379 0
M  V30 789 H 65.6986 3.14321 -0.0703223 0
M  V30 790 N 69.4707 1.49531 0.497807 0
M  V30 791 C 70.8817 1.52344 1.07927 0
M  V30 792 C 71.2327 0.311469 1.93712 0
M  V30 793 O 70.3577 -0.578405 2.08527 0
M  V30 794 C 70.9527 2.76062 1.96405 0
M  V30 795 C 69.5117 2.81643 2.49709 0
M  V30 796 C 68.6587 2.46299 1.27404 0
M  V30 797 H 71.6097 1.56182 0.281576 0
M  V30 798 H 71.6307 2.56405 2.81135 0
M  V30 799 H 71.1427 3.64254 1.33943 0
M  V30 800 H 69.2437 1.97739 3.15801 0
M  V30 801 H 69.3567 3.83891 2.86643 0
M  V30 802 H 67.7207 1.98148 1.60029 0
M  V30 803 H 68.5037 3.36769 0.66645 0
M  V30 804 N 70.9488 -0.749086 1.3866 0
M  V30 805 C 72.1968 -1.50535 1.34847 0
M  V30 806 C 72.5178 -1.94909 -0.0595016 0
M  V30 807 O 71.7878 -1.67973 -1.00806 0
M  V30 808 H 70.3678 -0.558395 0.49619 0
M  V30 809 H 73.0298 -0.890165 1.73384 0
M  V30 810 H 72.1258 -2.39413 2.00219 0
M  V30 811 N 72.4269 -1.23603 -0.977757 0
M  V30 812 C 73.3569 -1.04401 -2.0886 0
M  V30 813 C 74.3379 0.0399052 -1.70053 0
M  V30 814 O 75.5229 -0.125246 -1.93796 0
M  V30 815 C 72.6529 -0.637269 -3.41403 0
M  V30 816 C 71.6069 -1.66883 -3.94124 0
M  V30 817 C 70.9329 -1.11745 -5.22893 0
M  V30 818 C 72.2329 -3.06247 -4.23096 0
M  V30 819 H 73.9269 -1.97316 -2.25182 0
M  V30 820 H 71.4729 -0.950096 -1.08209 0
M  V30 821 H 73.4259 -0.48998 -4.18542 0
M  V30 822 H 72.1499 0.327557 -3.24953 0
M  V30 823 H 70.8089 -1.80416 -3.19133 0
M  V30 824 H 70.4569 -0.143527 -5.02795 0
M  V30 825 H 70.1569 -1.80672 -5.59134 0
M  V30 826 H 71.6809 -0.982067 -6.02651 0
M  V30 827 H 73.0949 -2.96001 -4.90975 0
M  V30 828 H 71.4919 -3.72436 -4.70544 0
M  V30 829 H 72.5619 -3.55041 -3.30263 0
M  V30 830 N 73.905 1.17692 -1.04816 0
M  V30 831 C 74.835 2.23777 -0.666791 0
M  V30 832 C 75.816 1.66796 0.33361 0
M  V30 833 O 77.001 1.93039 0.212042 0
M  V30 834 C 74.131 3.47281 -0.0367933 0
M  V30 835 C 73.085 4.17059 -0.961546 0
M  V30 836 C 72.411 5.34342 -0.195626 0
M  V30 837 C 73.711 4.69713 -2.28402 0
M  V30 838 H 75.405 2.55933 -1.55367 0
M  V30 839 H 72.951 1.23019 -0.748484 0
M  V30 840 H 74.904 4.20706 0.241775 0
M  V30 841 H 73.628 3.14381 0.885004 0
M  V30 842 H 72.287 3.45541 -1.22462 0
M  V30 843 H 71.935 4.97692 0.728816 0
M  V30 844 H 71.635 5.81966 -0.811775 0
M  V30 845 H 73.159 6.10553 0.0757473 0
M  V30 846 H 74.573 5.34794 -2.06563 0
M  V30 847 H 72.97 5.279 -2.8538 0
M  V30 848 H 74.04 3.86726 -2.92525 0
M  V30 849 N 75.3831 0.828654 1.34056 0
M  V30 850 C 76.2931 0.256725 2.33191 0
M  V30 851 C 77.3091 -0.611898 1.62886 0
M  V30 852 O 78.4851 -0.51844 1.94613 0
M  V30 853 C 75.5501 -0.567238 3.42028 0
M  V30 854 C 74.6111 0.324458 4.28072 0
M  V30 855 C 73.8441 -0.460274 5.31712 0
M  V30 856 O 74.0671 -1.693 5.44696 0
M  V30 857 O 73.0011 0.160391 6.01686 0
M  V30 858 H 76.8271 1.07739 2.83947 0
M  V30 859 H 74.4121 0.59093 1.37217 0
M  V30 860 H 76.2941 -1.03582 4.08471 0
M  V30 861 H 74.9691 -1.36513 2.93506 0
M  V30 862 H 73.8761 0.840659 3.64532 0
M  V30 863 H 75.2091 1.08685 4.8005 0
M  V30 864 N 76.8612 -1.46375 0.584142 0
M  V30 865 C 78.0892 -2.06761 0.0759296 0
M  V30 866 C 78.5042 -1.43266 -1.22965 0
M  V30 867 O 77.8612 -0.538458 -1.74376 0
M  V30 868 C 77.9122 -3.61375 -0.0950384 0
M  V30 869 O 77.6332 -4.22495 1.15887 0
M  V30 870 C 79.1342 -4.38693 -0.637434 0
M  V30 871 H 76.3542 -0.668479 0.0581075 0
M  V30 872 H 78.8982 -1.8798 0.805218 0
M  V30 873 H 77.0532 -3.79578 -0.774554 0
M  V30 874 H 77.4672 -5.15385 0.973598 0
M  V30 875 H 78.9412 -5.47464 -0.706237 0
M  V30 876 H 79.4182 -4.06836 -1.65472 0
M  V30 877 H 80.0242 -4.25299 0.00725967 0
M  V30 878 N 78.3393 -0.321999 -1.54275 0
M  V30 879 C 79.5643 0.285791 -2.05422 0
M  V30 880 C 79.9893 1.45124 -1.19669 0
M  V30 881 O 79.3473 1.80132 -0.205441 0
M  V30 882 C 79.3953 0.69956 -3.53749 0
M  V30 883 O 78.4993 1.8021 -3.70942 0
M  V30 884 H 77.8403 0.0518962 -0.661969 0
M  V30 885 H 80.3703 -0.469954 -1.9913 0
M  V30 886 H 80.3803 0.982649 -3.9599 0
M  V30 887 H 79.0553 -0.152864 -4.15619 0
M  V30 888 H 77.6323 1.51794 -3.40607 0
M  V30 889 N 79.8174 1.5752 -0.0501392 0
M  V30 890 C 80.7274 2.14952 0.939827 0
M  V30 891 C 81.7434 1.10706 1.34239 0
M  V30 892 O 82.9194 1.42869 1.41952 0
M  V30 893 C 79.9844 2.68232 2.19665 0
M  V30 894 C 79.0454 3.87272 1.85253 0
M  V30 895 C 78.2784 4.38002 3.04943 0
M  V30 896 O 78.5014 3.87811 4.18281 0
M  V30 897 O 77.4354 5.29602 2.86017 0
M  V30 898 H 81.2614 2.9986 0.481392 0
M  V30 899 H 78.8464 1.4841 0.171699 0
M  V30 900 H 80.7284 3.02475 2.93406 0
M  V30 901 H 79.4034 1.86395 2.64648 0
M  V30 902 H 78.3104 3.5792 1.0883 0
M  V30 903 H 79.6434 4.70336 1.4507 0
M  V30 904 N 81.2955 -0.223234 1.56011 0
M  V30 905 C 82.5435 -0.946003 1.78592 0
M  V30 906 C 82.8645 -1.84936 0.618349 0
M  V30 907 O 82.1345 -1.92473 -0.364833 0
M  V30 908 H 80.7145 -0.352298 0.658707 0
M  V30 909 H 83.3765 -0.235494 1.93472 0
M  V30 910 H 82.4725 -1.55381 2.70672 0
M  V30 911 N 82.7736 -1.49793 -0.48987 0
M  V30 912 C 84.0136 -1.61466 -1.25332 0
M  V30 913 C 84.3776 -0.299688 -1.89647 0
M  V30 914 O 85.5786 -0.291687 -2.67213 0
M  V30 915 C 83.8496 -2.74944 -2.28343 0
M  V30 916 S 85.4086 -3.06637 -3.13878 0
M  V30 917 H 82.2266 -0.569411 -0.425784 0
M  V30 918 H 84.8286 -1.875 -0.553541 0
M  V30 919 H 83.5326 -3.68994 -1.79643 0
M  V30 920 H 83.0636 -2.50938 -3.02975 0
M  V30 921 H 85.0786 -2.49015 -4.29192 0
M  V30 922 N 84.2517 0.741722 -1.39055 0
M  V30 923 C 85.6677 1.04638 -1.20512 0
M  V30 924 C 85.8677 2.01405 -0.0620218 0
M  V30 925 O 84.9237 2.45547 0.588457 0
M  V30 926 C 86.2367 1.6151 -2.53643 0
M  V30 927 C 87.7847 1.73623 -2.6043 0
M  V30 928 C 88.2597 2.33906 -3.93767 0
M  V30 929 N 89.7507 2.41323 -3.9537 0
M  V30 930 C 90.4857 2.88888 -4.95309 0
M  V30 931 N 89.9817 3.36401 -6.05645 0
M  V30 932 N 91.7747 2.88037 -4.82692 0
M  V30 933 H 83.9257 0.0998155 -2.12165 0
M  V30 934 H 86.1887 0.106907 -0.941953 0
M  V30 935 H 85.8947 0.978739 -3.37807 0
M  V30 936 H 85.7687 2.60411 -2.72885 0
M  V30 937 H 88.1557 2.36384 -1.76655 0
M  V30 938 H 88.2367 0.733945 -2.45045 0
M  V30 939 H 87.8807 1.71776 -4.7797 0
M  V30 940 H 87.8107 3.34799 -4.06469 0
M  V30 941 H 90.3017 2.07734 -3.15682 0
M  V30 942 H 90.6147 3.71186 -6.77821 0
M  V30 943 H 88.9597 3.34427 -6.09248 0
M  V30 944 H 92.1507 2.50237 -3.95599 0
M  V30 945 H 92.3237 3.24792 -5.60726 0
M  V30 946 N 85.7298 1.2412 0.971189 0
M  V30 947 C 86.6618 0.988349 2.06795 0
M  V30 948 C 87.6748 -0.0409541 1.62748 0
M  V30 949 O 88.8638 0.195673 1.77424 0
M  V30 950 C 85.9638 0.469023 3.35639 0
M  V30 951 C 85.1368 1.56065 4.08611 0
M  V30 952 C 84.1958 1.04458 5.15728 0
M  V30 953 O 83.2218 1.73553 5.42096 0
M  V30 954 N 84.4238 -0.122817 5.8037 0
M  V30 955 H 87.1888 1.93265 2.29061 0
M  V30 956 H 84.7498 1.15102 1.13856 0
M  V30 957 H 86.7418 0.108613 4.04554 0
M  V30 958 H 85.3118 -0.380919 3.1027 0
M  V30 959 H 84.5318 2.09341 3.34021 0
M  V30 960 H 85.8198 2.29449 4.54126 0
M  V30 961 H 85.2178 -0.700563 5.61345 0
M  V30 962 H 83.7748 -0.424404 6.50417 0
M  V30 963 N 87.2079 -1.17134 1.05439 0
M  V30 964 C 88.4569 -1.86791 0.761049 0
M  V30 965 C 88.7699 -1.82072 -0.714795 0
M  V30 966 O 89.9759 -2.47223 -1.12218 0
M  V30 967 C 88.4319 -3.35166 1.31117 0
M  V30 968 C 88.0399 -3.48381 2.81664 0
M  V30 969 C 89.7839 -4.10134 1.09499 0
M  V30 970 C 87.6909 -4.90793 3.29964 0
M  V30 971 H 86.6209 -0.699681 0.281002 0
M  V30 972 H 89.2719 -1.3226 1.27199 0
M  V30 973 H 87.6539 -3.8925 0.72803 0
M  V30 974 H 88.8279 -3.04502 3.45855 0
M  V30 975 H 87.1429 -2.86836 3.01851 0
M  V30 976 H 89.7399 -5.152 1.43084 0
M  V30 977 H 90.0829 -4.16287 0.0328772 0
M  V30 978 H 90.6159 -3.62264 1.64346 0
M  V30 979 H 87.3549 -4.89816 4.35616 0
M  V30 980 H 86.8749 -5.35333 2.70516 0
M  V30 981 H 88.5539 -5.59573 3.24787 0
M  V30 982 N 88.686 -0.835752 -1.33615 0
M  V30 983 C 89.616 -0.281739 -2.31794 0
M  V30 984 C 90.597 0.608833 -1.58831 0
M  V30 985 O 91.782 0.533035 -1.86741 0
M  V30 986 C 88.912 0.546612 -3.42971 0
M  V30 987 C 87.866 -0.247904 -4.27281 0
M  V30 988 C 87.192 0.704001 -5.30045 0
M  V30 989 C 88.492 -1.46324 -5.01385 0
M  V30 990 H 90.186 -1.10206 -2.78379 0
M  V30 991 H 87.732 -0.531388 -1.33837 0
M  V30 992 H 89.685 0.944467 -4.1068 0
M  V30 993 H 88.409 1.40011 -2.95067 0
M  V30 994 H 87.068 -0.627281 -3.61194 0
M  V30 995 H 86.716 1.55381 -4.78399 0
M  V30 996 H 86.416 0.176524 -5.87335 0
M  V30 997 H 87.94 1.09944 -6.0062 0
M  V30 998 H 89.354 -1.13871 -5.61877 0
M  V30 999 H 87.751 -1.92728 -5.6831 0
M  V30 1000 H 88.821 -2.23467 -4.30338 0
M  V30 1001 N 90.1641 1.46063 -0.591896 0
M  V30 1002 C 91.4121 2.01938 -0.0808391 0
M  V30 1003 C 91.7331 1.46475 1.28725 0
M  V30 1004 O 91.0031 0.652944 1.84698 0
M  V30 1005 H 89.5831 0.746516 -0.0268938 0
M  V30 1006 H 92.2451 1.79055 -0.769752 0
M  V30 1007 H 91.3411 3.12094 -0.0187578 0
M  V30 1008 N 91.6422 0.330177 1.54103 0
M  V30 1009 C 92.5742 -0.566902 2.22079 0
M  V30 1010 C 93.5872 -1.07462 1.22294 0
M  V30 1011 O 94.7762 -0.987065 1.48726 0
M  V30 1012 C 91.8762 -1.79138 2.87685 0
M  V30 1013 C 91.0492 -1.42123 4.13666 0
M  V30 1014 C 90.1082 -2.50394 4.62806 0
M  V30 1015 O 89.1342 -2.14261 5.27334 0
M  V30 1016 N 90.3362 -3.81433 4.37595 0
M  V30 1017 H 93.1012 0.0151844 2.99696 0
M  V30 1018 H 90.6622 0.153681 1.61169 0
M  V30 1019 H 92.6542 -2.50975 3.1748 0
M  V30 1020 H 91.2242 -2.28115 2.13734 0
M  V30 1021 H 90.4442 -0.534201 3.90564 0
M  V30 1022 H 91.7322 -1.14971 4.9564 0
M  V30 1023 H 91.1302 -4.13584 3.8596 0
M  V30 1024 H 89.6872 -4.4948 4.72029 0
M  V30 1025 N 93.1203 -1.57491 0.0584922 0
M  V30 1026 C 94.0503 -2.14988 -0.911178 0
M  V30 1027 C 95.0313 -1.07343 -1.31952 0
M  V30 1028 O 96.2163 -1.35318 -1.39294 0
M  V30 1029 C 93.3463 -2.70078 -2.18347 0
M  V30 1030 C 92.3003 -3.82771 -1.91495 0
M  V30 1031 C 91.6263 -4.24408 -3.25241 0
M  V30 1032 C 92.9263 -5.07592 -1.23075 0
M  V30 1033 H 94.6203 -2.96263 -0.432246 0
M  V30 1034 H 92.1663 -1.42512 -0.206469 0
M  V30 1035 H 94.1193 -3.08943 -2.86587 0
M  V30 1036 H 92.8433 -1.86005 -2.68458 0
M  V30 1037 H 91.5023 -3.44389 -1.25664 0
M  V30 1038 H 91.1503 -3.37275 -3.73168 0
M  V30 1039 H 90.8503 -5.00366 -3.08071 0
M  V30 1040 H 92.3743 -4.65879 -3.94701 0
M  V30 1041 H 93.7883 -5.43857 -1.81362 0
M  V30 1042 H 92.1853 -5.88741 -1.16207 0
M  V30 1043 H 93.2553 -4.84454 -0.207847 0
M  V30 1044 N 94.5984 0.214957 -1.56127 0
M  V30 1045 C 95.5304 1.29004 -1.89448 0
M  V30 1046 C 96.5434 1.42716 -0.783326 0
M  V30 1047 O 97.7324 1.43496 -1.06166 0
M  V30 1048 C 94.8324 2.66482 -2.09381 0
M  V30 1049 C 94.0054 2.74633 -3.40434 0
M  V30 1050 C 93.0644 3.9317 -3.49719 0
M  V30 1051 O 92.0904 3.812 -4.227 0
M  V30 1052 N 93.2924 5.07765 -2.81346 0
M  V30 1053 H 96.0574 1.00743 -2.82261 0
M  V30 1054 H 93.6184 0.40497 -1.56753 0
M  V30 1055 H 95.6104 3.44173 -2.12901 0
M  V30 1056 H 94.1804 2.87314 -1.23163 0
M  V30 1057 H 93.4004 1.83368 -3.48955 0
M  V30 1058 H 94.6884 2.77054 -4.26754 0
M  V30 1059 H 94.0864 5.20386 -2.21843 0
M  V30 1060 H 92.6434 5.83474 -2.90519 0
M  V30 1061 N 96.0765 1.50051 0.48192 0
M  V30 1062 C 97.4875 1.5348 1.06305 0
M  V30 1063 C 97.8385 0.331997 1.93371 0
M  V30 1064 O 96.9635 -0.556256 2.09129 0
M  V30 1065 C 97.5585 2.7813 1.93466 0
M  V30 1066 C 96.1175 2.84275 2.46707 0
M  V30 1067 C 95.2645 2.47637 1.24785 0
M  V30 1068 H 98.2155 1.56472 0.264995 0
M  V30 1069 H 98.2365 2.59372 2.78399 0
M  V30 1070 H 97.7485 3.65654 1.30072 0
M  V30 1071 H 95.8495 2.01077 3.13686 0
M  V30 1072 H 95.9625 3.8691 2.82555 0
M  V30 1073 H 94.3265 1.99835 1.57918 0
M  V30 1074 H 95.1095 3.37457 0.630694 0
M  V30 1075 N 97.5546 -0.734337 1.39446 0
M  V30 1076 C 98.7796 -1.52866 1.40167 0
M  V30 1077 C 99.2046 -1.881 -0.00171513 0
M  V30 1078 O 98.5626 -1.51957 -0.988879 0
M  V30 1079 C 98.6106 -2.79235 2.28167 0
M  V30 1080 O 97.7146 -3.75185 1.71201 0
M  V30 1081 H 97.0556 -0.461618 0.477289 0
M  V30 1082 H 99.5856 -0.905949 1.8345 0
M  V30 1083 H 99.5956 -3.27963 2.42702 0
M  V30 1084 H 98.2706 -2.52923 3.30156 0
M  V30 1085 H 96.8476 -3.33958 1.65912 0
M  V30 1086 N 99.0327 -1.24633 -0.964593 0
M  V30 1087 C 99.9627 -1.06611 -2.07741 0
M  V30 1088 C 100.944 0.0218666 -1.70086 0
M  V30 1089 O 102.129 -0.145793 -1.93652 0
M  V30 1090 C 99.2587 -0.673444 -3.40708 0
M  V30 1091 C 98.2127 -1.71054 -3.92332 0
M  V30 1092 C 97.5387 -1.17285 -5.21678 0
M  V30 1093 C 98.8387 -3.10718 -4.19824 0
M  V30 1094 H 100.533 -1.99693 -2.23076 0
M  V30 1095 H 98.0787 -0.96152 -1.07195 0
M  V30 1096 H 100.032 -0.534345 -4.17998 0
M  V30 1097 H 98.7557 0.293073 -3.25282 0
M  V30 1098 H 97.4147 -1.83791 -3.17201 0
M  V30 1099 H 97.0627 -0.196847 -5.02615 0
M  V30 1100 H 96.7627 -1.86592 -5.57187 0
M  V30 1101 H 98.2867 -1.04593 -6.01575 0
M  V30 1102 H 99.7007 -3.01192 -4.87808 0
M  V30 1103 H 98.0977 -3.77406 -4.66567 0
M  V30 1104 H 99.1677 -3.58524 -3.26479 0
M  V30 1105 N 100.511 1.16574 -1.06058 0
M  V30 1106 C 101.443 2.2045 -0.627239 0
M  V30 1107 C 102.456 1.59752 0.313534 0
M  V30 1108 O 103.645 1.78192 0.104896 0
M  V30 1109 C 100.745 3.3875 0.100974 0
M  V30 1110 C 99.9178 4.29008 -0.852687 0
M  V30 1111 C 98.9768 5.25944 -0.164152 0
M  V30 1112 O 98.0028 5.63535 -0.801047 0
M  V30 1113 N 99.2048 5.70075 1.09518 0
M  V30 1114 H 101.97 2.58249 -1.52077 0
M  V30 1115 H 99.5308 1.3156 -0.943594 0
M  V30 1116 H 101.523 4.00638 0.57194 0
M  V30 1117 H 100.093 2.99476 0.89628 0
M  V30 1118 H 99.3128 3.64419 -1.50308 0
M  V30 1119 H 100.601 4.86195 -1.49972 0
M  V30 1120 H 99.9988 5.41624 1.6328 0
M  V30 1121 H 98.5558 6.34067 1.51006 0
M  V30 1122 N 101.989 0.842826 1.3317 0
M  V30 1123 C 103.217 0.454055 2.01856 0
M  V30 1124 C 103.632 -0.94587 1.63397 0
M  V30 1125 O 102.989 -1.61534 0.849302 0
M  V30 1126 C 103.04 0.569715 3.56982 0
M  V30 1127 O 102.761 1.91448 3.94055 0
M  V30 1128 C 104.262 0.178412 4.42941 0
M  V30 1129 H 101.482 0.17979 0.646465 0
M  V30 1130 H 104.026 1.1365 1.70012 0
M  V30 1131 H 102.181 -0.0648587 3.87346 0
M  V30 1132 H 102.595 1.90282 4.88767 0
M  V30 1133 H 104.069 0.310376 5.51127 0
M  V30 1134 H 104.546 -0.880056 4.30293 0
M  V30 1135 H 105.152 0.787579 4.17944 0
M  V30 1136 N 103.467 -1.45747 0.599634 0
M  V30 1137 C 104.715 -2.01893 0.0915472 0
M  V30 1138 C 105.036 -1.47155 -1.27946 0
M  V30 1139 O 104.306 -0.66273 -1.84349 0
M  V30 1140 H 102.886 -0.746363 0.0308524 0
M  V30 1141 H 105.548 -1.78645 0.779237 0
M  V30 1142 H 104.644 -3.1208 0.0353086 0
M  V30 1143 N 104.945 -0.338344 -1.53925 0
M  V30 1144 C 106.17 0.263987 -2.05713 0
M  V30 1145 C 106.595 1.43847 -1.21201 0
M  V30 1146 O 105.953 1.79904 -0.224535 0
M  V30 1147 C 106.001 0.662 -3.54471 0
M  V30 1148 O 105.105 1.76265 -3.72833 0
M  V30 1149 H 104.446 0.0448722 -0.662482 0
M  V30 1150 H 106.976 -0.491048 -1.9862 0
M  V30 1151 H 106.986 0.940594 -3.9701 0
M  V30 1152 H 105.661 -0.196937 -4.15433 0
M  V30 1153 H 104.238 1.48173 -3.42198 0
M  V30 1154 N 106.423 1.57458 -0.0668435 0
M  V30 1155 C 107.333 2.15937 0.916975 0
M  V30 1156 C 108.349 1.12123 1.33058 0
M  V30 1157 O 109.525 1.44366 1.40429 0
M  V30 1158 C 106.59 2.70547 2.16807 0
M  V30 1159 C 105.651 3.89215 1.81135 0
M  V30 1160 C 104.884 4.41211 3.0028 0
M  V30 1161 O 105.107 3.92225 4.14144 0
M  V30 1162 O 104.041 5.32605 2.80384 0
M  V30 1163 H 107.867 3.00354 0.449561 0
M  V30 1164 H 105.452 1.48584 0.155949 0
M  V30 1165 H 107.334 3.0557 2.90181 0
M  V30 1166 H 106.009 1.89192 2.62656 0
M  V30 1167 H 104.916 3.59054 1.05028 0
M  V30 1168 H 106.249 4.71848 1.40073 0
M  V30 1169 N 107.901 -0.206675 1.56239 0
M  V30 1170 C 108.811 -1.27686 1.96808 0
M  V30 1171 C 109.827 -1.50455 0.874035 0
M  V30 1172 O 111.003 -1.63295 1.17884 0
M  V30 1173 C 108.068 -2.60358 2.28942 0
M  V30 1174 C 107.129 -2.45762 3.51994 0
M  V30 1175 C 106.362 -3.72108 3.82585 0
M  V30 1176 O 106.585 -4.75776 3.14631 0
M  V30 1177 O 105.519 -3.6833 4.76043 0
M  V30 1178 H 109.345 -0.962593 2.88041 0
M  V30 1179 H 106.93 -0.410746 1.43643 0
M  V30 1180 H 108.812 -3.38687 2.50737 0
M  V30 1181 H 107.487 -2.91435 1.4088 0
M  V30 1182 H 106.394 -1.65584 3.35459 0
M  V30 1183 H 107.727 -2.19621 4.40486 0
M  V30 1184 N 109.379 -1.50304 -0.473955 0
M  V30 1185 C 110.309 -1.71886 -1.58042 0
M  V30 1186 C 111.29 -0.567799 -1.60344 0
M  V30 1187 O 112.475 -0.806623 -1.76656 0
M  V30 1188 C 109.605 -1.81036 -2.96384 0
M  V30 1189 C 108.559 -2.962 -3.08949 0
M  V30 1190 C 107.885 -2.9049 -4.48909 0
M  V30 1191 C 109.185 -4.36752 -2.86434 0
M  V30 1192 H 110.879 -2.64527 -1.40234 0
M  V30 1193 H 108.425 -1.27295 -0.673201 0
M  V30 1194 H 110.378 -1.94719 -3.73714 0
M  V30 1195 H 109.102 -0.850147 -3.15341 0
M  V30 1196 H 107.761 -2.82164 -2.3405 0
M  V30 1197 H 107.409 -1.92321 -4.64781 0
M  V30 1198 H 107.109 -3.67802 -4.58253 0
M  V30 1199 H 108.633 -3.06218 -5.28264 0
M  V30 1200 H 110.047 -4.5133 -3.53517 0
M  V30 1201 H 108.444 -5.15493 -3.07225 0
M  V30 1202 H 109.514 -4.49321 -1.82316 0
M  V30 1203 N 110.857 0.726932 -1.39834 0
M  V30 1204 C 112.273 1.03354 -1.21615 0
M  V30 1205 C 112.473 2.01327 -0.08338 0
M  V30 1206 O 111.529 2.46158 0.56238 0
M  V30 1207 C 112.842 1.58811 -2.55342 0
M  V30 1208 C 114.39 1.70851 -2.62257 0
M  V30 1209 C 114.865 2.29716 -3.96225 0
M  V30 1210 N 116.356 2.37116 -3.97907 0
M  V30 1211 C 117.091 2.83619 -4.98345 0
M  V30 1212 N 116.587 3.29958 -6.09179 0
M  V30 1213 N 118.38 2.82901 -4.8572 0
M  V30 1214 H 110.531 0.0773069 -2.12259 0
M  V30 1215 H 112.794 0.0969102 -0.943034 0
M  V30 1216 H 112.5 0.942855 -3.38826 0
M  V30 1217 H 112.374 2.57502 -2.75632 0
M  V30 1218 H 114.761 2.34497 -1.79152 0
M  V30 1219 H 114.842 0.707913 -2.45809 0
M  V30 1220 H 114.486 1.66696 -4.79765 0
M  V30 1221 H 114.416 3.30469 -4.09997 0
M  V30 1222 H 116.907 2.04374 -3.17868 0
M  V30 1223 H 117.22 3.63976 -6.8172 0
M  V30 1224 H 115.565 3.27946 -6.12761 0
M  V30 1225 H 118.756 2.46027 -3.98231 0
M  V30 1226 H 118.929 3.18827 -5.6414 0
M  V30 1227 N 112.336 1.25143 0.95797 0
M  V30 1228 C 113.561 1.12521 1.74223 0
M  V30 1229 C 113.986 -0.317402 1.85403 0
M  V30 1230 O 113.344 -1.2299 1.33204 0
M  V30 1231 C 113.392 1.78062 3.1357 0
M  V30 1232 O 112.496 1.058 3.98598 0
M  V30 1233 H 111.837 0.39304 0.535178 0
M  V30 1234 H 114.367 1.65641 1.201 0
M  V30 1235 H 114.377 1.84213 3.64046 0
M  V30 1236 H 113.052 2.83021 3.04749 0
M  V30 1237 H 111.629 1.07506 3.57067 0
M  V30 1238 N 113.814 -1.1601 1.06675 0
M  V30 1239 C 114.744 -2.22688 0.702307 0
M  V30 1240 C 115.725 -1.67306 -0.307032 0
M  V30 1241 O 116.91 -1.93352 -0.181305 0
M  V30 1242 C 114.04 -3.47178 0.092038 0
M  V30 1243 C 112.994 -4.15477 1.02777 0
M  V30 1244 C 112.32 -5.33963 0.28061 0
M  V30 1245 C 113.62 -4.66019 2.35846 0
M  V30 1246 H 115.314 -2.53429 1.59419 0
M  V30 1247 H 112.86 -1.21813 0.767961 0
M  V30 1248 H 114.813 -4.21037 -0.174814 0
M  V30 1249 H 113.537 -3.15749 -0.834877 0
M  V30 1250 H 112.196 -3.43549 1.27944 0
M  V30 1251 H 111.844 -4.98788 -0.649545 0
M  V30 1252 H 111.544 -5.806 0.904258 0
M  V30 1253 H 113.068 -6.10596 0.021396 0
M  V30 1254 H 114.482 -5.3144 2.15045 0
M  V30 1255 H 112.879 -5.23293 2.93743 0
M  V30 1256 H 113.949 -3.82023 2.98641 0
M  V30 1257 N 115.292 -0.849877 -1.32721 0
M  V30 1258 C 116.522 -0.46408 -2.0132 0
M  V30 1259 C 116.93 0.94246 -1.64056 0
M  V30 1260 O 116.273 1.6257 -0.855379 0
M  V30 1261 C 116.335 -0.517887 -3.5575 0
M  V30 1262 C 115.999 -1.88248 -4.16427 0
M  V30 1263 C 116.996 -2.84726 -4.35002 0
M  V30 1264 C 114.681 -2.17832 -4.52609 0
M  V30 1265 C 116.675 -4.08945 -4.8892 0
M  V30 1266 C 114.362 -3.42304 -5.06232 0
M  V30 1267 C 115.36 -4.37677 -5.24335 0
M  V30 1268 O 115.048 -5.59946 -5.76815 0
M  V30 1269 H 114.78 -0.181327 -0.651227 0
M  V30 1270 H 117.334 -1.14713 -1.70382 0
M  V30 1271 H 115.564 0.221997 -3.86062 0
M  V30 1272 H 117.253 -0.148366 -4.05629 0
M  V30 1273 H 118.019 -2.63174 -4.07388 0
M  V30 1274 H 113.898 -1.44385 -4.37806 0
M  V30 1275 H 117.442 -4.83396 -5.02966 0
M  V30 1276 H 113.339 -3.63709 -5.33278 0
M  V30 1277 H 114.107 -5.61838 -5.95214 0
M  V30 1278 N 116.77 1.45427 -0.607355 0
M  V30 1279 C 117.718 2.32269 0.12411 0
M  V30 1280 C 118.712 1.45955 0.859854 0
M  V30 1281 O 119.918 1.6244 0.775447 0
M  V30 1282 H 116.293 0.749691 0.0588839 0
M  V30 1283 H 118.264 2.91743 -0.626762 0
M  V30 1284 C 117.013 3.29567 1.1082 0
M  V30 1285 H 116.336 3.95978 0.551492 0
M  V30 1286 H 117.776 3.93061 1.58995 0
M  V30 1287 C 116.235 2.56722 2.18164 0
M  V30 1288 O 116.765 2.34842 3.25902 0
M  V30 1289 N 114.971 2.16861 1.93442 0
M  V30 1290 H 114.518 2.34855 1.05834 0
M  V30 1291 H 114.476 1.68444 2.65469 0
M  V30 1292 N 118.248 0.346503 1.53744 0
M  V30 1293 C 119.476 -0.25041 2.05379 0
M  V30 1294 C 119.891 -1.43979 1.22129 0
M  V30 1295 O 119.248 -1.80677 0.257321 0
M  V30 1296 C 119.299 -0.662575 3.55376 0
M  V30 1297 O 119.02 0.479515 4.35468 0
M  V30 1298 C 120.521 -1.31989 4.23195 0
M  V30 1299 H 117.741 -0.0478198 0.669294 0
M  V30 1300 H 120.285 0.499346 1.9831 0
M  V30 1301 H 118.44 -1.36227 3.62658 0
M  V30 1302 H 118.854 0.15037 5.24284 0
M  V30 1303 H 120.328 -1.55902 5.29527 0
M  V30 1304 H 120.805 -2.27436 3.75725 0
M  V30 1305 H 121.411 -0.662154 4.20114 0
M  V30 1306 N 119.726 -1.57421 0.075193 0
M  V30 1307 C 120.972 -1.93905 -0.594025 0
M  V30 1308 C 121.305 -0.955701 -1.69056 0
M  V30 1309 O 120.58 0.0145373 -1.94495 0
M  V30 1310 C 120.863 -3.40638 -1.1678 0
M  V30 1311 C 120.716 -4.49733 -0.0776792 0
M  V30 1312 C 122.035 -3.88259 -2.07228 0
M  V30 1313 H 119.154 -0.705105 -0.214466 0
M  V30 1314 H 121.796 -1.8947 0.141854 0
M  V30 1315 H 119.946 -3.44549 -1.79494 0
M  V30 1316 H 121.618 -4.57942 0.555573 0
M  V30 1317 H 119.861 -4.29751 0.591286 0
M  V30 1318 H 120.532 -5.49549 -0.519603 0
M  V30 1319 H 123.008 -3.86376 -1.54445 0
M  V30 1320 H 121.884 -4.91533 -2.44308 0
M  V30 1321 H 122.145 -3.26396 -2.98191 0
M  V30 1322 N 121.204 0.198386 -1.56346 0
M  V30 1323 C 122.167 1.22952 -1.93431 0
M  V30 1324 C 123.167 1.38611 -0.815092 0
M  V30 1325 O 124.357 1.36479 -1.08255 0
M  V30 1326 C 121.489 2.59946 -2.20546 0
M  V30 1327 H 122.682 0.912626 -2.85677 0
M  V30 1328 H 120.235 0.43977 -1.49986 0
M  V30 1329 H 120.97 2.96696 -1.30927 0
M  V30 1330 H 120.755 2.49953 -3.02102 0
M  V30 1331 H 122.245 3.3431 -2.50253 0
M  V30 1332 N 122.682 1.50554 0.465978 0
M  V30 1333 C 123.91 1.65563 1.24083 0
M  V30 1334 C 124.325 0.341051 1.85694 0
M  V30 1335 O 123.682 -0.677543 1.69457 0
M  V30 1336 C 123.733 2.75051 2.34583 0
M  V30 1337 O 123.454 4.01413 1.75497 0
M  V30 1338 C 124.955 3.01078 3.25372 0
M  V30 1339 H 122.175 0.55638 0.375077 0
M  V30 1340 H 124.719 1.96807 0.555624 0
M  V30 1341 H 122.874 2.46486 2.9887 0
M  V30 1342 H 123.288 4.62002 2.48303 0
M  V30 1343 H 124.762 3.81339 3.99105 0
M  V30 1344 H 125.239 2.12349 3.84453 0
M  V30 1345 H 125.845 3.31194 2.66816 0
M  V30 1346 N 124.16 -0.719506 1.40217 0
M  V30 1347 C 125.09 -1.8465 1.42922 0
M  V30 1348 C 126.071 -1.67599 0.29062 0
M  V30 1349 O 127.256 -1.87688 0.498677 0
M  V30 1350 C 124.386 -3.22565 1.28722 0
M  V30 1351 C 123.34 -3.54281 2.40144 0
M  V30 1352 C 122.666 -4.91298 2.11023 0
M  V30 1353 C 123.966 -3.55676 3.82481 0
M  V30 1354 H 125.66 -1.82644 2.37237 0
M  V30 1355 H 123.206 -0.877305 1.1419 0
M  V30 1356 H 125.159 -4.01095 1.29232 0
M  V30 1357 H 123.883 -3.25137 0.308811 0
M  V30 1358 H 122.542 -2.78088 2.38877 0
M  V30 1359 H 122.19 -4.90468 1.11582 0
M  V30 1360 H 121.89 -5.13485 2.8567 0
M  V30 1361 H 123.414 -5.72166 2.13209 0
M  V30 1362 H 124.828 -4.24254 3.85592 0
M  V30 1363 H 123.225 -3.89388 4.56614 0
M  V30 1364 H 124.295 -2.55144 4.12346 0
M  V30 1365 N 125.638 -1.25649 -0.95132 0
M  V30 1366 C 126.868 -1.13179 -1.72841 0
M  V30 1367 C 127.276 0.316827 -1.86528 0
M  V30 1368 O 126.619 1.22948 -1.3649 0
M  V30 1369 C 126.681 -1.71644 -3.15878 0
M  V30 1370 C 126.345 -3.20667 -3.25609 0
M  V30 1371 C 127.342 -4.17616 -3.09666 0
M  V30 1372 C 125.027 -3.6094 -3.49324 0
M  V30 1373 C 127.021 -5.52817 -3.17289 0
M  V30 1374 C 124.708 -4.96278 -3.56584 0
M  V30 1375 C 125.706 -5.92025 -3.40581 0
M  V30 1376 O 125.394 -7.24899 -3.47528 0
M  V30 1377 H 125.126 -0.395389 -0.54831 0
M  V30 1378 H 127.68 -1.66566 -1.20187 0
M  V30 1379 H 125.91 -1.12707 -3.69911 0
M  V30 1380 H 127.599 -1.54225 -3.75459 0
M  V30 1381 H 128.365 -3.87842 -2.91211 0
M  V30 1382 H 124.244 -2.86907 -3.6084 0
M  V30 1383 H 127.788 -6.2753 -3.04716 0
M  V30 1384 H 123.685 -5.25716 -3.74556 0
M  V30 1385 H 124.453 -7.33039 -3.64138 0
M  V30 1386 N 127.117 1.15442 -1.07289 0
M  V30 1387 C 128.357 1.8788 -0.805012 0
M  V30 1388 C 128.721 1.80413 0.656907 0
M  V30 1389 O 129.922 2.47874 1.0398 0
M  V30 1390 C 128.193 3.3298 -1.29843 0
M  V30 1391 S 129.752 4.23158 -1.16114 0
M  V30 1392 H 126.57 0.64839 -0.291739 0
M  V30 1393 H 129.172 1.39285 -1.37186 0
M  V30 1394 H 127.876 3.35958 -2.35712 0
M  V30 1395 H 127.407 3.86629 -0.726767 0
M  V30 1396 H 129.422 4.96103 -0.0982778 0
M  V30 1397 N 128.595 0.856903 1.32268 0
M  V30 1398 C 129.841 0.462069 1.97466 0
M  V30 1399 C 130.174 -0.980298 1.67642 0
M  V30 1400 O 129.449 -1.68824 0.965858 0
M  V30 1401 C 129.732 0.704336 3.53145 0
M  V30 1402 C 129.585 2.19529 3.9259 0
M  V30 1403 C 130.904 0.1622 4.39801 0
M  V30 1404 H 128.023 0.169357 0.717278 0
M  V30 1405 H 130.665 1.07574 1.56614 0
M  V30 1406 H 128.815 0.181999 3.88073 0
M  V30 1407 H 130.487 2.78387 3.67829 0
M  V30 1408 H 128.73 2.67292 3.41668 0
M  V30 1409 H 129.401 2.31549 5.01088 0
M  V30 1410 H 131.877 0.608905 4.11621 0
M  V30 1411 H 130.753 0.361265 5.4771 0
M  V30 1412 H 131.014 -0.935158 4.32096 0
M  V30 1413 N 130.073 -1.45103 0.615059 0
M  V30 1414 C 131.023 -2.27679 -0.120966 0
M  V30 1415 C 132.007 -1.3775 -0.831491 0
M  V30 1416 O 133.199 -1.61683 -0.720249 0
M  V30 1417 C 130.328 -3.24767 -1.1127 0
M  V30 1418 C 129.414 -4.22184 -0.402627 0
M  V30 1419 N 129.805 -5.02692 0.559884 0
M  V30 1420 C 128.103 -4.4125 -0.649202 0
M  V30 1421 C 128.804 -5.73421 0.977942 0
M  V30 1422 N 127.78 -5.42657 0.320104 0
M  V30 1423 H 131.582 -2.87325 0.618181 0
M  V30 1424 H 129.096 -1.56345 0.439304 0
M  V30 1425 H 131.093 -3.82666 -1.65446 0
M  V30 1426 H 129.753 -2.66682 -1.85232 0
M  V30 1427 H 130.764 -5.09354 0.936976 0
M  V30 1428 H 127.441 -3.9428 -1.37293 0
M  V30 1429 H 128.831 -6.48107 1.77222 0
M  V30 1430 N 131.551 -0.354651 -1.53558 0
M  V30 1431 C 132.483 0.5315 -2.22952 0
M  V30 1432 C 133.496 1.05503 -1.23988 0
M  V30 1433 O 134.685 0.963279 -1.50277 0
M  V30 1434 C 131.785 1.74538 -2.90499 0
M  V30 1435 C 130.958 1.35524 -4.15875 0
M  V30 1436 C 130.017 2.42999 -4.66731 0
M  V30 1437 O 129.043 2.05844 -5.30676 0
M  V30 1438 N 130.245 3.74423 -4.43608 0
M  V30 1439 H 133.01 -0.0628615 -2.99634 0
M  V30 1440 H 130.571 -0.179302 -1.60904 0
M  V30 1441 H 132.563 2.45892 -3.21433 0
M  V30 1442 H 131.133 2.24686 -2.17336 0
M  V30 1443 H 130.353 0.471998 -3.91364 0
M  V30 1444 H 131.641 1.07071 -4.97406 0
M  V30 1445 H 131.039 4.07391 -3.92491 0
M  V30 1446 H 129.596 4.41913 -4.7912 0
M  V30 1447 N 133.029 1.57378 -0.0835403 0
M  V30 1448 C 134.445 1.57246 0.273109 0
M  V30 1449 C 134.645 1.09385 1.69225 0
M  V30 1450 O 133.701 0.765051 2.40631 0
M  V30 1451 C 135.014 3.00614 0.0720628 0
M  V30 1452 C 136.562 3.12684 0.1407 0
M  V30 1453 C 137.037 4.57989 -0.0322094 0
M  V30 1454 N 138.528 4.63194 0.0230085 0
M  V30 1455 C 139.263 5.73335 -0.0861941 0
M  V30 1456 N 138.759 6.9235 -0.24958 0
M  V30 1457 N 140.552 5.62093 -0.0282886 0
M  V30 1458 H 132.703 1.86801 -1.0109 0
M  V30 1459 H 134.966 0.861687 -0.395222 0
M  V30 1460 H 134.672 3.39786 -0.907662 0
M  V30 1461 H 134.546 3.68193 0.81936 0
M  V30 1462 H 136.933 2.73391 1.11092 0
M  V30 1463 H 137.014 2.47719 -0.637896 0
M  V30 1464 H 136.658 4.97973 -0.999247 0
M  V30 1465 H 136.588 5.21 0.765937 0
M  V30 1466 H 139.079 3.77613 0.14722 0
M  V30 1467 H 139.392 7.72117 -0.324733 0
M  V30 1468 H 137.737 6.94415 -0.285097 0
M  V30 1469 H 140.928 4.67997 0.0981408 0
M  V30 1470 H 141.101 6.47895 -0.116845 0
M  V30 1471 N 134.507 -0.190092 1.56449 0
M  V30 1472 C 135.756 -0.907912 1.80111 0
M  V30 1473 C 136.069 -1.84214 0.657619 0
M  V30 1474 O 137.275 -2.60094 0.778663 0
M  V30 1475 C 135.731 -1.66485 3.19078 0
M  V30 1476 C 135.339 -0.7752 4.41242 0
M  V30 1477 C 137.083 -2.37201 3.52045 0
M  V30 1478 C 134.99 -1.53129 5.71231 0
M  V30 1479 H 133.92 -0.34276 0.671589 0
M  V30 1480 H 136.571 -0.161109 1.82791 0
M  V30 1481 H 134.953 -2.45572 3.10661 0
M  V30 1482 H 136.127 -0.0226298 4.60794 0
M  V30 1483 H 134.442 -0.178627 4.16017 0
M  V30 1484 H 137.039 -2.94329 4.46402 0
M  V30 1485 H 137.382 -3.11632 2.76028 0
M  V30 1486 H 137.915 -1.65075 3.61932 0
M  V30 1487 H 134.654 -0.82967 6.50228 0
M  V30 1488 H 134.174 -2.25767 5.55688 0
M  V30 1489 H 135.853 -2.08377 6.12526 0
M  V30 1490 N 135.985 -1.50799 -0.457987 0
M  V30 1491 C 136.895 -1.73426 -1.57989 0
M  V30 1492 C 137.911 -0.617745 -1.62665 0
M  V30 1493 O 139.087 -0.897614 -1.80291 0
M  V30 1494 C 136.152 -1.83557 -2.94122 0
M  V30 1495 C 135.213 -3.07345 -2.99729 0
M  V30 1496 C 134.446 -3.16983 -4.29368 0
M  V30 1497 O 134.669 -2.33077 -5.20607 0
M  V30 1498 O 133.603 -4.09812 -4.40837 0
M  V30 1499 H 137.429 -2.68555 -1.41817 0
M  V30 1500 H 135.014 -1.35052 -0.638859 0
M  V30 1501 H 136.896 -1.92326 -3.74952 0
M  V30 1502 H 135.571 -0.916137 -3.10465 0
M  V30 1503 H 134.478 -3.04068 -2.1793 0
M  V30 1504 H 135.811 -3.9891 -2.88326 0
M  V30 1505 N 137.463 0.71206 -1.40597 0
M  V30 1506 C 138.712 1.46754 -1.38369 0
M  V30 1507 C 139.025 1.95598 0.0097839 0
M  V30 1508 O 140.231 2.71059 0.154677 0
M  V30 1509 C 138.687 2.65289 -2.43207 0
M  V30 1510 C 138.295 2.23301 -3.88382 0
M  V30 1511 C 140.039 3.43008 -2.50091 0
M  V30 1512 C 137.946 3.38696 -4.84808 0
M  V30 1513 H 136.876 0.55118 -0.514506 0
M  V30 1514 H 139.527 0.774616 -1.66349 0
M  V30 1515 H 137.909 3.36769 -2.08332 0
M  V30 1516 H 139.083 1.59218 -4.32419 0
M  V30 1517 H 137.398 1.58618 -3.85006 0
M  V30 1518 H 139.995 4.28881 -3.1932 0
M  V30 1519 H 140.338 3.87065 -1.53253 0
M  V30 1520 H 140.871 2.78574 -2.83974 0
M  V30 1521 H 137.61 2.99668 -5.82992 0
M  V30 1522 H 137.13 4.01683 -4.45433 0
M  V30 1523 H 138.809 4.04712 -5.04794 0
M  V30 1524 N 138.941 1.26152 0.944643 0
M  V30 1525 C 139.888 1.07408 2.04285 0
M  V30 1526 C 140.858 -0.0198413 1.66088 0
M  V30 1527 O 142.043 0.139264 1.90291 0
M  V30 1528 C 139.183 0.70945 3.37729 0
M  V30 1529 C 138.296 1.87926 3.88983 0
M  V30 1530 C 137.431 1.45807 5.10797 0
M  V30 1531 C 136.47 2.5964 5.54305 0
M  V30 1532 N 135.607 2.18226 6.67324 0
M  V30 1533 H 140.447 2.01389 2.1965 0
M  V30 1534 H 137.984 1.00275 1.07626 0
M  V30 1535 H 139.942 0.478948 4.14442 0
M  V30 1536 H 138.572 -0.193389 3.2222 0
M  V30 1537 H 137.624 2.22279 3.08701 0
M  V30 1538 H 138.936 2.73377 4.17213 0
M  V30 1539 H 138.09 1.18781 5.94959 0
M  V30 1540 H 136.829 0.574414 4.84305 0
M  V30 1541 H 135.834 2.87399 4.68702 0
M  V30 1542 H 137.059 3.48599 5.828 0
M  V30 1543 H 135.005 1.3229 6.42523 0
M  V30 1544 H 134.922 2.97221 6.95123 0
M  V30 1545 H 136.19 1.94403 7.54869 0
M  V30 1546 N 140.419 -1.14872 1.07899 0
M  V30 1547 C 141.696 -1.81928 0.71845 0
M  V30 1548 C 142.076 -1.95417 -0.798455 0
M  V30 1549 O 141.424 -1.50997 -1.715 0
M  V30 1550 C 141.634 -3.17937 1.43935 0
M  V30 1551 C 142.982 -3.93501 1.59506 0
M  V30 1552 O 144.006 -3.27509 1.40058 0
M  V30 1553 O 142.865 -5.1183 1.91551 0
M  V30 1554 H 139.959 -0.78628 0.256305 0
M  V30 1555 H 142.505 -1.21934 1.18026 0
M  V30 1556 H 141.277 -3.0325 2.47295 0
M  V30 1557 H 140.9 -3.85619 0.968687 0
M  V30 1558 N 141.898 -0.863906 -1.31812 0
M  V30 1559 C 143.126 -0.486111 -2.01108 0
M  V30 1560 C 143.541 0.919755 -1.64882 0
M  V30 1561 O 142.898 1.60162 -0.874893 0
M  V30 1562 C 142.949 -0.626435 -3.56031 0
M  V30 1563 O 142.67 -1.97693 -3.90959 0
M  V30 1564 C 144.171 -0.248857 -4.42601 0
M  V30 1565 H 141.391 -0.190052 -0.643523 0
M  V30 1566 H 143.935 -1.1634 -1.68182 0
M  V30 1567 H 142.09 0.00322717 -3.874 0
M  V30 1568 H 142.504 -1.98034 -4.85678 0
M  V30 1569 H 143.978 -0.398016 -5.50563 0
M  V30 1570 H 144.455 0.811489 -4.31638 0
M  V30 1571 H 145.061 -0.853971 -4.16638 0
M  V30 1572 N 143.376 1.44774 -0.622745 0
M  V30 1573 C 144.323 2.30635 0.0871679 0
M  V30 1574 C 145.293 1.42994 0.845097 0
M  V30 1575 O 146.478 1.71907 0.827812 0
M  V30 1576 C 143.618 3.28144 1.06844 0
M  V30 1577 C 142.731 4.30888 0.309809 0
M  V30 1578 C 141.866 5.15494 1.28215 0
M  V30 1579 C 140.905 6.09953 0.512198 0
M  V30 1580 N 140.042 6.87287 1.43458 0
M  V30 1581 H 144.882 2.90803 -0.650974 0
M  V30 1582 H 142.419 1.43286 -0.33281 0
M  V30 1583 H 144.377 3.83157 1.65066 0
M  V30 1584 H 143.007 2.69695 1.77382 0
M  V30 1585 H 142.059 3.78414 -0.388181 0
M  V30 1586 H 143.371 4.97955 -0.290254 0
M  V30 1587 H 142.525 5.74983 1.93596 0
M  V30 1588 H 141.264 4.48481 1.91614 0
M  V30 1589 H 140.269 5.49581 -0.155151 0
M  V30 1590 H 141.494 6.78999 -0.116958 0
M  V30 1591 H 139.44 6.2295 2.05594 0
M  V30 1592 H 139.357 7.50763 0.888335 0
M  V30 1593 H 140.625 7.51306 2.07749 0
M  V30 1594 N 144.854 0.36279 1.53368 0
M  V30 1595 C 145.764 -0.492994 2.29362 0
M  V30 1596 C 146.78 -1.09507 1.35219 0
M  V30 1597 O 147.956 -1.10662 1.68273 0
M  V30 1598 C 145.021 -1.61855 3.066 0
M  V30 1599 C 144.082 -1.04429 4.16405 0
M  V30 1600 C 143.315 -2.11621 4.89951 0
M  V30 1601 O 143.538 -3.32684 4.63333 0
M  V30 1602 O 142.472 -1.74835 5.75948 0
M  V30 1603 H 146.298 0.125331 3.03441 0
M  V30 1604 H 143.883 0.127253 1.48857 0
M  V30 1605 H 145.765 -2.27302 3.54841 0
M  V30 1606 H 144.44 -2.22233 2.3536 0
M  V30 1607 H 143.347 -0.353819 3.72423 0
M  V30 1608 H 144.68 -0.485113 4.89804 0
M  V30 1609 N 146.332 -1.57332 0.0918853 0
M  V30 1610 C 147.295 -2.12708 -0.85369 0
M  V30 1611 C 148.295 -1.05561 -1.213 0
M  V30 1612 O 149.485 -1.31461 -1.14296 0
M  V30 1613 C 146.617 -2.64503 -2.15061 0
M  V30 1614 H 147.81 -2.97573 -0.3729 0
M  V30 1615 H 145.363 -1.55509 -0.157072 0
M  V30 1616 H 146.098 -1.83149 -2.67632 0
M  V30 1617 H 145.883 -3.4284 -1.90272 0
M  V30 1618 H 147.373 -3.07351 -2.82711 0
M  V30 1619 N 147.81 0.181792 -1.56548 0
M  V30 1620 C 148.74 1.22765 -1.98623 0
M  V30 1621 C 149.721 1.46747 -0.860189 0
M  V30 1622 O 150.906 1.58259 -1.12551 0
M  V30 1623 C 148.036 2.56894 -2.33715 0
M  V30 1624 C 146.99 2.475 -3.49182 0
M  V30 1625 C 146.316 3.86023 -3.69986 0
M  V30 1626 C 147.616 1.98866 -4.82959 0
M  V30 1627 H 149.31 0.877942 -2.86239 0
M  V30 1628 H 146.856 0.42088 -1.37712 0
M  V30 1629 H 148.809 3.30253 -2.61746 0
M  V30 1630 H 147.533 2.93632 -1.42997 0
M  V30 1631 H 146.192 1.76596 -3.21262 0
M  V30 1632 H 145.84 4.20136 -2.76576 0
M  V30 1633 H 145.54 3.80609 -4.47672 0
M  V30 1634 H 147.064 4.60984 -4.00407 0
M  V30 1635 H 148.478 2.61992 -5.09934 0
M  V30 1636 H 146.875 2.04424 -5.64208 0
M  V30 1637 H 147.945 0.942465 -4.75653 0
M  V30 1638 N 149.288 1.51039 0.449983 0
M  V30 1639 C 150.565 1.53612 1.21089 0
M  V30 1640 C 150.945 0.292997 2.09057 0
M  V30 1641 O 150.293 -0.72259 2.16774 0
M  V30 1642 C 150.503 2.84337 2.0237 0
M  V30 1643 C 151.851 3.35807 2.59843 0
M  V30 1644 O 152.875 2.85802 2.12593 0
M  V30 1645 O 151.734 4.23029 3.45989 0
M  V30 1646 H 148.828 0.617057 0.550608 0
M  V30 1647 H 151.374 1.63344 0.460082 0
M  V30 1648 H 150.146 3.66278 1.37681 0
M  V30 1649 H 149.769 2.77708 2.84542 0
M  V30 1650 N 150.766 -0.704594 1.40972 0
M  V30 1651 C 151.713 -1.81862 1.42109 0
M  V30 1652 C 152.683 -1.63781 0.276593 0
M  V30 1653 O 153.868 -1.84759 0.4763 0
M  V30 1654 C 151.008 -3.19669 1.30022 0
M  V30 1655 C 150.121 -3.49246 2.54267 0
M  V30 1656 C 149.256 -4.76618 2.3454 0
M  V30 1657 C 148.295 -4.99133 3.54306 0
M  V30 1658 N 147.432 -6.17726 3.33706 0
M  V30 1659 H 152.272 -1.80226 2.37324 0
M  V30 1660 H 149.809 -0.880238 1.17857 0
M  V30 1661 H 151.767 -3.99263 1.21018 0
M  V30 1662 H 150.397 -3.20506 0.384192 0
M  V30 1663 H 149.449 -2.64125 2.73756 0
M  V30 1664 H 150.761 -3.61788 3.43381 0
M  V30 1665 H 149.915 -5.64249 2.22952 0
M  V30 1666 H 148.654 -4.66305 1.42867 0
M  V30 1667 H 147.659 -4.09953 3.66359 0
M  V30 1668 H 148.884 -5.11311 4.4692 0
M  V30 1669 H 146.83 -6.08642 2.44725 0
M  V30 1670 H 146.747 -6.30995 4.16391 0
M  V30 1671 H 148.015 -7.08115 3.25873 0
M  V30 1672 N 152.244 -1.26651 -0.937939 0
M  V30 1673 C 153.493 -1.11775 -1.67897 0
M  V30 1674 C 153.806 0.33794 -1.92659 0
M  V30 1675 O 155.012 0.607434 -2.64618 0
M  V30 1676 C 153.468 -1.9523 -3.02346 0
M  V30 1677 C 153.076 -3.45393 -2.8532 0
M  V30 1678 C 154.82 -1.88972 -3.80118 0
M  V30 1679 C 152.727 -4.21083 -4.15263 0
M  V30 1680 H 151.657 -0.414696 -0.629717 0
M  V30 1681 H 154.308 -1.50988 -1.04283 0
M  V30 1682 H 152.69 -1.48853 -3.66959 0
M  V30 1683 H 153.864 -3.99561 -2.29537 0
M  V30 1684 H 152.179 -3.52921 -2.20988 0
M  V30 1685 H 154.776 -2.42805 -4.76392 0
M  V30 1686 H 155.119 -0.86113 -4.07296 0
M  V30 1687 H 155.652 -2.33189 -3.22285 0
M  V30 1688 H 152.391 -5.24425 -3.93267 0
M  V30 1689 H 151.911 -3.71695 -4.70747 0
M  V30 1690 H 153.59 -4.29706 -4.83696 0
M  V30 1691 N 153.722 1.14298 -1.08507 0
M  V30 1692 C 154.632 2.23027 -0.727753 0
M  V30 1693 C 155.648 1.71952 0.26619 0
M  V30 1694 O 156.824 2.011 0.109882 0
M  V30 1695 C 153.889 3.46403 -0.143541 0
M  V30 1696 C 152.95 4.12413 -1.19223 0
M  V30 1697 C 152.183 5.29899 -0.635798 0
M  V30 1698 O 152.406 5.67796 0.544393 0
M  V30 1699 O 151.34 5.85717 -1.38634 0
M  V30 1700 H 155.166 2.55945 -1.63481 0
M  V30 1701 H 152.751 1.22248 -0.858817 0
M  V30 1702 H 154.633 4.21018 0.179404 0
M  V30 1703 H 153.308 3.15206 0.736659 0
M  V30 1704 H 152.215 3.39667 -1.56772 0
M  V30 1705 H 153.548 4.47718 -2.04474 0
M  V30 1706 N 155.201 0.870884 1.31352 0
M  V30 1707 C 156.111 0.330783 2.32256 0
M  V30 1708 C 157.127 -0.559767 1.6475 0
M  V30 1709 O 158.303 -0.456263 1.96164 0
M  V30 1710 C 155.368 -0.458137 3.4366 0
M  V30 1711 C 154.429 0.460482 4.26823 0
M  V30 1712 C 153.662 -0.290881 5.32907 0
M  V30 1713 O 153.885 -1.51885 5.49806 0
M  V30 1714 O 152.819 0.351732 6.00871 0
M  V30 1715 H 156.645 1.16718 2.80376 0
M  V30 1716 H 154.23 0.634285 1.35267 0
M  V30 1717 H 156.112 -0.905343 4.1156 0
M  V30 1718 H 154.787 -1.27106 2.97701 0
M  V30 1719 H 153.694 0.956207 3.61673 0
M  V30 1720 H 155.027 1.23903 4.7635 0
M  V30 1721 N 156.679 -1.44442 0.630414 0
M  V30 1722 C 157.589 -2.34476 -0.0761693 0
M  V30 1723 C 158.605 -1.52576 -0.836449 0
M  V30 1724 O 159.781 -1.85307 -0.788874 0
M  V30 1725 C 156.846 -3.30545 -1.04599 0
M  V30 1726 C 155.907 -4.28352 -0.28516 0
M  V30 1727 C 155.14 -5.19831 -1.20878 0
M  V30 1728 O 155.363 -5.15223 -2.44747 0
M  V30 1729 O 154.297 -5.97892 -0.693491 0
M  V30 1730 H 158.123 -2.96345 0.664324 0
M  V30 1731 H 155.708 -1.44203 0.39061 0
M  V30 1732 H 157.59 -3.89681 -1.60396 0
M  V30 1733 H 156.265 -2.7121 -1.76711 0
M  V30 1734 H 155.172 -3.72764 0.315837 0
M  V30 1735 H 156.505 -4.90605 0.395924 0
M  V30 1736 N 158.157 -0.370918 -1.53173 0
M  V30 1737 C 159.089 0.507823 -2.23503 0
M  V30 1738 C 160.102 1.04182 -1.251 0
M  V30 1739 O 161.291 0.947286 -1.5129 0
M  V30 1740 C 158.391 1.71447 -2.92334 0
M  V30 1741 C 157.564 1.31105 -4.17289 0
M  V30 1742 C 156.623 2.38035 -4.69282 0
M  V30 1743 O 155.649 2.00204 -5.32829 0
M  V30 1744 N 156.851 3.69697 -4.47554 0
M  V30 1745 H 159.616 -0.0946382 -2.99551 0
M  V30 1746 H 157.177 -0.196358 -1.60705 0
M  V30 1747 H 159.169 2.42469 -3.24023 0
M  V30 1748 H 157.739 2.22368 -2.19707 0
M  V30 1749 H 156.959 0.430462 -3.91843 0
M  V30 1750 H 158.247 1.0179 -4.98514 0
M  V30 1751 H 157.645 4.03205 -3.9679 0
M  V30 1752 H 156.202 4.36807 -4.8378 0
M  V30 1753 N 159.635 1.57281 -0.100228 0
M  V30 1754 C 160.583 2.15542 0.874328 0
M  V30 1755 C 161.577 1.09962 1.28859 0
M  V30 1756 O 162.783 1.28298 1.26252 0
M  V30 1757 H 159.158 0.689567 0.300003 0
M  V30 1758 H 161.129 2.96241 0.35829 0
M  V30 1759 C 159.878 2.75454 2.1218 0
M  V30 1760 H 159.201 3.56384 1.81193 0
M  V30 1761 H 160.641 3.19781 2.78417 0
M  V30 1762 C 159.1 1.71602 2.89921 0
M  V30 1763 O 159.63 1.15804 3.84646 0
M  V30 1764 N 157.836 1.41975 2.53558 0
M  V30 1765 H 157.383 1.87539 1.76598 0
M  V30 1766 H 157.341 0.727274 3.05873 0
M  V30 1767 N 161.113 -0.173488 1.56642 0
M  V30 1768 C 162.06 -1.21482 1.96242 0
M  V30 1769 C 163.03 -1.44104 0.826027 0
M  V30 1770 O 164.215 -1.5688 1.08597 0
M  V30 1771 C 161.355 -2.54964 2.32567 0
M  V30 1772 C 160.468 -2.39739 3.59373 0
M  V30 1773 C 159.603 -3.66072 3.84921 0
M  V30 1774 C 158.642 -3.45771 5.05083 0
M  V30 1775 N 157.779 -4.64169 5.26775 0
M  V30 1776 H 162.619 -0.870123 2.85014 0
M  V30 1777 H 160.156 -0.418245 1.41029 0
M  V30 1778 H 162.114 -3.32758 2.5165 0
M  V30 1779 H 160.744 -2.87433 1.46908 0
M  V30 1780 H 159.796 -1.53131 3.48217 0
M  V30 1781 H 161.108 -2.20683 4.47326 0
M  V30 1782 H 160.262 -4.52303 4.0436 0
M  V30 1783 H 159.001 -3.88105 2.9534 0
M  V30 1784 H 158.006 -2.57927 4.85545 0
M  V30 1785 H 159.231 -3.25163 5.96193 0
M  V30 1786 H 157.177 -4.86425 4.40144 0
M  V30 1787 H 157.094 -4.48019 6.08946 0
M  V30 1788 H 158.362 -5.51689 5.5069 0
M  V30 1789 N 162.591 -1.51276 -0.441967 0
M  V30 1790 C 163.816 -1.67799 -1.21895 0
M  V30 1791 C 164.241 -0.372864 -1.84367 0
M  V30 1792 O 163.599 0.666501 -1.68604 0
M  V30 1793 C 163.647 -2.79199 -2.28211 0
M  V30 1794 O 162.751 -2.42479 -3.33583 0
M  V30 1795 H 162.092 -0.559649 -0.357336 0
M  V30 1796 H 164.622 -1.97815 -0.522522 0
M  V30 1797 H 164.632 -3.03146 -2.73069 0
M  V30 1798 H 163.307 -3.73906 -1.82118 0
M  V30 1799 H 161.884 -2.29087 -2.94234 0
M  V30 1800 N 164.069 0.697108 -1.41344 0
M  V30 1801 C 165.016 1.81106 -1.43071 0
M  V30 1802 C 165.986 1.63632 -0.285275 0
M  V30 1803 O 167.171 1.84504 -0.486091 0
M  V30 1804 C 164.311 3.18975 -1.31715 0
M  V30 1805 C 163.424 3.47892 -2.56115 0
M  V30 1806 C 162.559 4.75367 -2.37064 0
M  V30 1807 C 161.598 4.97247 -3.56948 0
M  V30 1808 N 160.735 6.15947 -3.36977 0
M  V30 1809 H 165.575 1.78965 -2.38276 0
M  V30 1810 H 163.112 0.873975 -1.18322 0
M  V30 1811 H 165.07 3.98615 -1.23133 0
M  V30 1812 H 163.7 3.20297 -0.401183 0
M  V30 1813 H 162.752 2.62669 -2.75153 0
M  V30 1814 H 164.064 3.59962 -3.45295 0
M  V30 1815 H 163.218 5.63059 -2.25941 0
M  V30 1816 H 161.957 4.65541 -1.45338 0
M  V30 1817 H 160.962 4.08004 -3.68527 0
M  V30 1818 H 162.187 5.08934 -4.49626 0
M  V30 1819 H 160.133 6.07336 -2.47949 0
M  V30 1820 H 160.05 6.28777 -4.19732 0
M  V30 1821 H 161.318 7.06377 -3.29623 0
M  V30 1822 N 165.547 1.27147 0.931209 0
M  V30 1823 C 166.494 1.09568 2.03134 0
M  V30 1824 C 167.464 -0.00222433 1.661 0
M  V30 1825 O 168.649 0.159439 1.90133 0
M  V30 1826 C 165.789 0.745231 3.36957 0
M  V30 1827 C 164.902 1.92041 3.86968 0
M  V30 1828 C 164.037 1.51216 5.09222 0
M  V30 1829 C 163.076 2.65504 5.5152 0
M  V30 1830 N 162.213 2.25291 6.64972 0
M  V30 1831 H 167.053 2.03708 2.17502 0
M  V30 1832 H 164.59 1.01411 1.06556 0
M  V30 1833 H 166.548 0.522878 4.1391 0
M  V30 1834 H 165.178 -0.159202 3.22407 0
M  V30 1835 H 164.23 2.25541 3.06326 0
M  V30 1836 H 165.542 2.77787 4.1429 0
M  V30 1837 H 164.696 1.25084 5.93666 0
M  V30 1838 H 163.435 0.625749 4.83669 0
M  V30 1839 H 162.44 2.92354 4.65628 0
M  V30 1840 H 163.665 3.54761 5.7907 0
M  V30 1841 H 161.611 1.39098 6.41083 0
M  V30 1842 H 161.528 3.04577 6.91931 0
M  V30 1843 H 162.796 2.02398 7.52765 0
M  V30 1844 N 167.025 -1.13721 1.09112 0
M  V30 1845 C 167.972 -2.19031 0.727591 0
M  V30 1846 C 168.942 -1.63555 -0.289656 0
M  V30 1847 O 170.127 -1.90023 -0.172026 0
M  V30 1848 C 167.267 -3.4477 0.15082 0
M  V30 1849 C 166.38 -4.14365 1.22172 0
M  V30 1850 C 165.515 -5.27709 0.608042 0
M  V30 1851 C 164.554 -5.89147 1.66047 0
M  V30 1852 N 163.691 -6.93929 1.06806 0
M  V30 1853 H 168.531 -2.49475 1.62991 0
M  V30 1854 H 166.068 -1.22499 0.81439 0
M  V30 1855 H 168.026 -4.16714 -0.201358 0
M  V30 1856 H 166.656 -3.14787 -0.714783 0
M  V30 1857 H 165.708 -3.40737 1.69122 0
M  V30 1858 H 167.02 -4.56114 2.01895 0
M  V30 1859 H 166.174 -6.06355 0.204523 0
M  V30 1860 H 164.913 -4.872 -0.220769 0
M  V30 1861 H 163.918 -5.09198 2.07357 0
M  V30 1862 H 165.143 -6.31729 2.49189 0
M  V30 1863 H 163.089 -6.55483 0.260476 0
M  V30 1864 H 163.006 -7.34202 1.8023 0
M  V30 1865 H 164.274 -7.76434 0.690644 0
M  V30 1866 N 168.503 -0.877838 -1.30888 0
M  V30 1867 C 169.466 -0.344265 -2.266 0
M  V30 1868 C 170.466 0.50922 -1.52524 0
M  V30 1869 O 171.656 0.317398 -1.71284 0
M  V30 1870 C 168.788 0.510198 -3.37061 0
M  V30 1871 H 169.981 -1.1893 -2.7531 0
M  V30 1872 H 167.534 -0.654088 -1.41956 0
M  V30 1873 H 168.269 1.37612 -2.93655 0
M  V30 1874 H 168.054 -0.101047 -3.9197 0
M  V30 1875 H 169.544 0.875537 -4.08319 0
M  V30 1876 N 169.982 1.44106 -0.638065 0
M  V30 1877 C 170.914 2.28976 0.101205 0
M  V30 1878 C 171.927 1.4167 0.802088 0
M  V30 1879 O 173.116 1.65755 0.662375 0
M  V30 1880 C 170.216 3.18217 1.16581 0
M  V30 1881 C 169.389 4.33978 0.546066 0
M  V30 1882 C 168.448 5.04202 1.50554 0
M  V30 1883 O 167.474 5.59986 1.01999 0
M  V30 1884 N 168.676 5.06296 2.8398 0
M  V30 1885 H 171.441 2.93064 -0.627186 0
M  V30 1886 H 169.002 1.54629 -0.479731 0
M  V30 1887 H 170.994 3.62061 1.80815 0
M  V30 1888 H 169.564 2.55833 1.79634 0
M  V30 1889 H 168.784 3.93239 -0.275046 0
M  V30 1890 H 170.072 5.08675 0.112793 0
M  V30 1891 H 169.47 4.62319 3.26002 0
M  V30 1892 H 168.027 5.53907 3.43556 0
M  V30 1893 N 171.46 0.379036 1.52974 0
M  V30 1894 C 172.392 -0.495963 2.2377 0
M  V30 1895 C 173.405 -1.03517 1.25651 0
M  V30 1896 O 174.594 -0.939249 1.51791 0
M  V30 1897 C 171.694 -1.69894 2.93239 0
M  V30 1898 C 170.867 -1.2889 4.17979 0
M  V30 1899 C 169.926 -2.35543 4.70538 0
M  V30 1900 O 168.952 -1.97375 5.33883 0
M  V30 1901 N 170.154 -3.67318 4.49508 0
M  V30 1902 H 172.919 0.110523 2.99496 0
M  V30 1903 H 170.48 0.204878 1.60598 0
M  V30 1904 H 172.472 -2.40747 3.25304 0
M  V30 1905 H 171.042 -2.212 2.20883 0
M  V30 1906 H 170.262 -0.409676 3.92065 0
M  V30 1907 H 171.55 -0.991443 4.99047 0
M  V30 1908 H 170.948 -4.01095 3.98923 0
M  V30 1909 H 169.505 -4.34235 4.8609 0
M  V30 1910 N 172.938 -1.57226 0.108567 0
M  V30 1911 C 173.901 -2.13602 -0.831082 0
M  V30 1912 C 174.901 -1.06841 -1.20173 0
M  V30 1913 O 176.091 -1.32666 -1.12895 0
M  V30 1914 C 173.223 -2.66769 -2.12243 0
M  V30 1915 H 174.416 -2.97951 -0.341317 0
M  V30 1916 H 171.969 -1.55667 -0.14057 0
M  V30 1917 H 172.704 -1.85977 -2.65675 0
M  V30 1918 H 172.489 -3.44839 -1.86625 0
M  V30 1919 H 173.979 -3.10332 -2.79435 0
M  V30 1920 N 174.416 0.165178 -1.56732 0
M  V30 1921 C 175.379 1.18822 -1.95995 0
M  V30 1922 C 176.379 1.3685 -0.84431 0
M  V30 1923 O 177.569 1.34152 -1.11126 0
M  V30 1924 C 174.701 2.5521 -2.26011 0
M  V30 1925 H 175.894 0.851825 -2.87548 0
M  V30 1926 H 173.447 0.407857 -1.50885 0
M  V30 1927 H 174.182 2.93852 -1.37191 0
M  V30 1928 H 173.967 2.43489 -3.07336 0
M  V30 1929 H 175.457 3.28927 -2.57288 0
M  V30 1930 N 175.894 1.51508 0.433938 0
M  V30 1931 C 176.857 1.72473 1.50949 0
M  V30 1932 C 177.857 0.594725 1.49398 0
M  V30 1933 O 179.047 0.862315 1.5136 0
M  V30 1934 C 176.179 1.78431 2.90474 0
M  V30 1935 H 177.372 2.68467 1.33662 0
M  V30 1936 H 174.925 1.41549 0.662836 0
M  V30 1937 H 175.66 0.842645 3.13161 0
M  V30 1938 H 175.445 2.60558 2.93005 0
M  V30 1939 H 176.935 1.96479 3.68491 0
M  V30 1940 N 177.372 -0.689602 1.41712 0
M  V30 1941 C 178.649 -1.44457 1.31877 0
M  V30 1942 C 179.029 -2.11039 -0.0508537 0
M  V30 1943 O 178.377 -2.02138 -1.06547 0
M  V30 1944 C 178.587 -2.45913 2.47645 0
M  V30 1945 C 179.935 -3.10991 2.89084 0
M  V30 1946 O 180.959 -2.56238 2.47428 0
M  V30 1947 O 179.818 -4.10174 3.61137 0
M  V30 1948 H 176.912 -0.64362 0.519309 0
M  V30 1949 H 179.458 -0.719576 1.53689 0
M  V30 1950 H 178.23 -1.95409 3.39015 0
M  V30 1951 H 177.853 -3.25913 2.27742 0
M  V30 1952 N 178.85 -1.27639 -0.924453 0
M  V30 1953 C 180.078 -1.16989 -1.70649 0
M  V30 1954 C 180.493 0.272869 -1.86818 0
M  V30 1955 O 179.85 1.18549 -1.38753 0
M  V30 1956 C 179.901 -1.85229 -3.10439 0
M  V30 1957 O 179.622 -3.23868 -2.95028 0
M  V30 1958 C 181.123 -1.80746 -4.04779 0
M  V30 1959 H 178.343 -0.406595 -0.53378 0
M  V30 1960 H 180.887 -1.68569 -1.15778 0
M  V30 1961 H 179.042 -1.37545 -3.6216 0
M  V30 1962 H 179.456 -3.57889 -3.83426 0
M  V30 1963 H 180.93 -2.33101 -5.00368 0
M  V30 1964 H 181.407 -0.777499 -4.32263 0
M  V30 1965 H 182.013 -2.28059 -3.58984 0
M  V30 1966 N 180.328 1.1314 -1.09713 0
M  V30 1967 C 181.576 1.84119 -0.833338 0
M  V30 1968 C 181.897 1.84097 0.642904 0
M  V30 1969 O 181.167 1.29881 1.46655 0
M  V30 1970 H 179.747 0.681766 -0.305293 0
M  V30 1971 H 182.409 1.37038 -1.38588 0
M  V30 1972 H 181.505 2.88543 -1.18951 0
M  V30 1973 N 181.806 0.884767 1.30421 0
M  V30 1974 C 182.756 0.322846 2.25703 0
M  V30 1975 C 183.74 -0.548582 1.51259 0
M  V30 1976 O 184.932 -0.39304 1.72581 0
M  V30 1977 C 182.061 -0.461787 3.4018 0
M  V30 1978 C 181.147 0.423717 4.21978 0
M  V30 1979 N 181.538 1.52408 4.82292 0
M  V30 1980 C 179.836 0.218795 4.45463 0
M  V30 1981 C 180.537 2.07136 5.43571 0
M  V30 1982 N 179.513 1.36635 5.26148 0
M  V30 1983 H 183.315 1.16363 2.69883 0
M  V30 1984 H 180.829 0.73415 1.44859 0
M  V30 1985 H 182.826 -0.880985 4.07485 0
M  V30 1986 H 181.486 -1.30001 2.9754 0
M  V30 1987 H 182.497 1.90693 4.81515 0
M  V30 1988 H 179.174 -0.582275 4.1342 0
M  V30 1989 H 180.564 2.99538 6.01437 0
M  V30 1990 N 183.284 -1.43765 0.645699 0
M  V30 1991 C 184.509 -2.06767 0.161883 0
M  V30 1992 C 184.934 -1.48034 -1.16049 0
M  V30 1993 O 184.292 -0.587369 -1.71522 0
M  V30 1994 C 184.34 -3.60519 0.0762003 0
M  V30 1995 O 183.444 -4.00982 -0.963721 0
M  V30 1996 H 182.785 -0.657675 0.091429 0
M  V30 1997 H 185.315 -1.84397 0.886499 0
M  V30 1998 H 185.325 -4.07853 -0.109604 0
M  V30 1999 H 184 -4.02646 1.04157 0
M  V30 2000 H 182.577 -3.65253 -0.751312 0
M  V30 2001 N 184.763 -0.387143 -1.52771 0
M  V30 2002 C 185.988 0.198407 -2.06449 0
M  V30 2003 C 186.413 1.39918 -1.25716 0
M  V30 2004 O 185.771 1.79099 -0.281657 0
M  V30 2005 C 185.819 0.548893 -3.56398 0
M  V30 2006 O 184.923 1.64315 -3.78252 0
M  V30 2007 H 184.264 0.0237731 -0.663574 0
M  V30 2008 H 186.794 -0.553989 -1.96957 0
M  V30 2009 H 186.804 0.813812 -3.99801 0
M  V30 2010 H 185.479 -0.329005 -4.14597 0
M  V30 2011 H 184.056 1.37211 -3.46738 0
M  V30 2012 N 186.241 1.57166 -0.116904 0
M  V30 2013 C 187.173 2.12271 0.864507 0
M  V30 2014 C 188.186 1.06494 1.23138 0
M  V30 2015 O 189.375 1.33873 1.18069 0
M  V30 2016 C 186.475 2.60564 2.16702 0
M  V30 2017 C 185.648 3.90416 1.97216 0
M  V30 2018 C 184.707 4.24329 3.11178 0
M  V30 2019 O 183.733 4.93182 2.84184 0
M  V30 2020 N 184.935 3.8148 4.37554 0
M  V30 2021 H 187.7 2.97102 0.393726 0
M  V30 2022 H 185.261 1.61759 0.0675805 0
M  V30 2023 H 187.253 2.80282 2.91932 0
M  V30 2024 H 185.823 1.80623 2.55135 0
M  V30 2025 H 185.043 3.79627 1.06192 0
M  V30 2026 H 186.331 4.75327 1.81499 0
M  V30 2027 H 185.729 3.25943 4.62361 0
M  V30 2028 H 184.286 4.06311 5.09661 0
M  V30 2029 N 187.719 -0.156864 1.56817 0
M  V30 2030 C 188.965 -0.872416 1.83076 0
M  V30 2031 C 189.298 -1.81261 0.697001 0
M  V30 2032 O 188.573 -1.92171 -0.30008 0
M  V30 2033 C 188.856 -1.65551 3.19789 0
M  V30 2034 C 188.709 -0.737467 4.43713 0
M  V30 2035 C 190.028 -2.62012 3.53606 0
M  V30 2036 H 187.147 -0.315715 0.665953 0
M  V30 2037 H 189.789 -0.138004 1.89498 0
M  V30 2038 H 187.939 -2.28159 3.14445 0
M  V30 2039 H 189.611 -0.123143 4.61136 0
M  V30 2040 H 187.854 -0.0464067 4.33775 0
M  V30 2041 H 188.525 -1.32122 5.35955 0
M  V30 2042 H 191.001 -2.09525 3.59497 0
M  V30 2043 H 189.877 -3.13861 4.50314 0
M  V30 2044 H 190.138 -3.42902 2.79053 0
M  V30 2045 N 189.197 -1.51736 -0.425897 0
M  V30 2046 C 190.422 -1.69082 -1.20108 0
M  V30 2047 C 190.847 -0.392398 -1.83962 0
M  V30 2048 O 190.205 0.64858 -1.69302 0
M  V30 2049 C 190.253 -2.81604 -2.25237 0
M  V30 2050 O 189.357 -2.46004 -3.30992 0
M  V30 2051 H 188.698 -0.563408 -0.35138 0
M  V30 2052 H 191.228 -1.98358 -0.501512 0
M  V30 2053 H 191.238 -3.06025 -2.69838 0
M  V30 2054 H 189.913 -3.75817 -1.78142 0
M  V30 2055 H 188.49 -2.32195 -2.91787 0
M  V30 2056 N 190.675 0.682077 -1.42076 0
M  V30 2057 C 191.607 1.80755 -1.40926 0
M  V30 2058 C 192.62 1.59833 -0.309398 0
M  V30 2059 O 193.809 1.69087 -0.572014 0
M  V30 2060 C 190.909 3.17744 -1.17865 0
M  V30 2061 C 190.082 3.65578 -2.40149 0
M  V30 2062 C 189.141 4.81277 -2.12742 0
M  V30 2063 O 188.167 4.92197 -2.85887 0
M  V30 2064 N 189.369 5.69474 -1.12602 0
M  V30 2065 H 192.134 1.82229 -2.37935 0
M  V30 2066 H 189.695 0.864903 -1.36861 0
M  V30 2067 H 191.687 3.9279 -0.9746 0
M  V30 2068 H 190.257 3.11214 -0.294068 0
M  V30 2069 H 189.477 2.81291 -2.76169 0
M  V30 2070 H 190.765 3.94278 -3.21593 0
M  V30 2071 H 190.163 5.63297 -0.520899 0
M  V30 2072 H 188.72 6.44363 -0.981842 0
M  V30 2073 N 192.153 1.28127 0.917671 0
M  V30 2074 C 193.101 1.11569 2.04096 0
M  V30 2075 C 194.095 0.0360242 1.69362 0
M  V30 2076 O 195.301 0.194501 1.78946 0
M  V30 2077 H 191.676 0.344097 0.668656 0
M  V30 2078 H 193.647 2.06711 2.15205 0
M  V30 2079 C 192.396 0.790197 3.38602 0
M  V30 2080 H 191.719 1.61293 3.6582 0
M  V30 2081 H 193.159 0.714271 4.1794 0
M  V30 2082 C 191.618 -0.505897 3.3308 0
M  V30 2083 O 192.148 -1.53736 3.71117 0
M  V30 2084 N 190.354 -0.505193 2.86175 0
M  V30 2085 H 189.901 0.334621 2.55417 0
M  V30 2086 H 189.859 -1.37243 2.82863 0
M  V30 2087 N 193.631 -1.12557 1.10312 0
M  V30 2088 C 194.861 -1.87592 0.865617 0
M  V30 2089 C 195.269 -1.79851 -0.587389 0
M  V30 2090 O 194.612 -1.16949 -1.41664 0
M  V30 2091 C 194.674 -3.37665 1.23381 0
M  V30 2092 C 194.338 -3.69181 2.69359 0
M  V30 2093 C 195.335 -3.67652 3.67597 0
M  V30 2094 C 193.02 -3.98555 3.05711 0
M  V30 2095 C 195.014 -3.95053 5.00212 0
M  V30 2096 C 192.701 -4.25616 4.38514 0
M  V30 2097 C 193.699 -4.23851 5.35574 0
M  V30 2098 O 193.387 -4.50242 6.65986 0
M  V30 2099 H 193.119 -0.600442 0.310557 0
M  V30 2100 H 195.673 -1.4335 1.47105 0
M  V30 2101 H 193.903 -3.82454 0.571467 0
M  V30 2102 H 195.592 -3.94041 0.973994 0
M  V30 2103 H 196.358 -3.45024 3.40857 0
M  V30 2104 H 192.237 -3.99071 2.30789 0
M  V30 2105 H 195.781 -3.93591 5.75962 0
M  V30 2106 H 191.678 -4.47718 4.64994 0
M  V30 2107 H 192.446 -4.67867 6.71597 0
M  V30 2108 N 195.109 -0.891671 -1.2995 0
M  V30 2109 C 196.52 -0.563104 -1.78006 0
M  V30 2110 C 196.871 0.920978 -1.73241 0
M  V30 2111 O 195.996 1.71987 -1.31337 0
M  V30 2112 C 196.591 -1.01539 -3.23226 0
M  V30 2113 C 195.15 -0.738124 -3.69092 0
M  V30 2114 C 194.297 -1.19461 -2.50249 0
M  V30 2115 H 197.248 -1.07522 -1.16725 0
M  V30 2116 H 197.269 -0.347217 -3.78912 0
M  V30 2117 H 196.781 -2.09555 -3.26662 0
M  V30 2118 H 194.882 0.329766 -3.71138 0
M  V30 2119 H 194.995 -1.33037 -4.60259 0
M  V30 2120 H 193.359 -0.613787 -2.47194 0
M  V30 2121 H 194.142 -2.28265 -2.56417 0
M  V30 2122 N 196.587 1.43421 -0.653314 0
M  V30 2123 C 197.836 2.01032 -0.164076 0
M  V30 2124 C 198.149 1.52147 1.22926 0
M  V30 2125 O 199.355 2.02031 1.81371 0
M  V30 2126 C 197.811 3.59082 -0.24252 0
M  V30 2127 C 197.419 4.1696 -1.63855 0
M  V30 2128 C 199.163 4.24079 0.18911 0
M  V30 2129 C 197.07 5.67304 -1.67092 0
M  V30 2130 H 196 0.751798 -0.0575769 0
M  V30 2131 H 198.651 1.6439 -0.815362 0
M  V30 2132 H 197.033 3.93125 0.476276 0
M  V30 2133 H 198.207 3.94416 -2.38271 0
M  V30 2134 H 196.522 3.64335 -2.01616 0
M  V30 2135 H 199.119 5.34381 0.184775 0
M  V30 2136 H 199.462 3.98005 1.22056 0
M  V30 2137 H 199.995 3.94918 -0.477938 0
M  V30 2138 H 196.734 5.98145 -2.68146 0
M  V30 2139 H 196.254 5.91904 -0.970014 0
M  V30 2140 H 197.933 6.31344 -1.4147 0
M  V30 2141 N 198.065 0.39524 1.52563 0
M  V30 2142 C 199.311 -0.185318 2.01952 0
M  V30 2143 C 199.644 -1.45964 1.28095 0
M  V30 2144 O 198.919 -1.90689 0.38315 0
M  V30 2145 C 199.202 -0.447193 3.57312 0
M  V30 2146 C 199.055 0.842828 4.41833 0
M  V30 2147 C 200.374 -1.23529 4.22408 0
M  V30 2148 H 197.493 -0.0658788 0.73405 0
M  V30 2149 H 200.135 0.525975 1.82575 0
M  V30 2150 H 198.285 -1.05312 3.73954 0
M  V30 2151 H 199.957 1.4795 4.36931 0
M  V30 2152 H 198.2 1.45686 4.08605 0
M  V30 2153 H 198.871 0.614165 5.48573 0
M  V30 2154 H 201.347 -0.722445 4.0978 0
M  V30 2155 H 200.223 -1.38727 5.3108 0
M  V30 2156 H 200.484 -2.25213 3.80436 0
M  V30 2157 N 199.544 -1.57102 0.125237 0
M  V30 2158 C 200.476 -2.12726 -0.853237 0
M  V30 2159 C 201.489 -1.07145 -1.22571 0
M  V30 2160 O 202.678 -1.34497 -1.17358 0
M  V30 2161 C 199.778 -2.61709 -2.15317 0
M  V30 2162 C 198.951 -3.91456 -1.95143 0
M  V30 2163 C 198.01 -4.25973 -3.08923 0
M  V30 2164 O 197.036 -4.94682 -2.81564 0
M  V30 2165 N 198.238 -3.83795 -4.35524 0
M  V30 2166 H 201.003 -2.97307 -0.377964 0
M  V30 2167 H 198.564 -1.61792 -0.0590011 0
M  V30 2168 H 200.556 -2.81826 -2.90441 0
M  V30 2169 H 199.126 -1.81974 -2.54174 0
M  V30 2170 H 198.346 -3.80185 -1.04177 0
M  V30 2171 H 199.634 -4.76283 -1.78976 0
M  V30 2172 H 199.032 -3.2839 -4.60626 0
M  V30 2173 H 197.589 -4.09008 -5.07499 0
M  V30 2174 N 201.022 0.148545 -1.56898 0
M  V30 2175 C 201.97 1.20265 -1.99096 0
M  V30 2176 C 202.964 1.44559 -0.883123 0
M  V30 2177 O 204.17 1.4487 -1.0683 0
M  V30 2178 H 200.545 0.404786 -0.63376 0
M  V30 2179 H 202.516 0.82004 -2.86911 0
M  V30 2180 C 201.265 2.52886 -2.3863 0
M  V30 2181 H 200.588 2.35021 -3.23427 0
M  V30 2182 H 202.028 3.25274 -2.7198 0
M  V30 2183 C 200.487 3.13315 -1.23837 0
M  V30 2184 O 201.017 3.98077 -0.538268 0
M  V30 2185 N 199.223 2.72742 -1.00301 0
M  V30 2186 H 198.77 2.03912 -1.5741 0
M  V30 2187 H 198.728 3.13507 -0.236838 0
M  V30 2188 N 202.5 1.5196 0.417844 0
M  V30 2189 C 203.749 1.6482 1.16264 0
M  V30 2190 C 204.062 0.379886 1.91876 0
M  V30 2191 O 205.268 0.388154 2.68711 0
M  V30 2192 C 203.724 2.91161 2.1155 0
M  V30 2193 C 203.332 4.25068 1.41495 0
M  V30 2194 C 205.076 3.13383 2.86341 0
M  V30 2195 C 202.983 5.42541 2.35379 0
M  V30 2196 H 201.913 0.613954 0.437694 0
M  V30 2197 H 204.564 1.78442 0.427871 0
M  V30 2198 H 202.946 2.71218 2.88543 0
M  V30 2199 H 204.12 4.55463 0.699263 0
M  V30 2200 H 202.435 4.0888 0.787792 0
M  V30 2201 H 205.032 3.98324 3.5671 0
M  V30 2202 H 205.375 2.27256 3.48798 0
M  V30 2203 H 205.908 3.33757 2.1645 0
M  V30 2204 H 202.647 6.30987 1.77582 0
M  V30 2205 H 202.167 5.16497 3.04945 0
M  V30 2206 H 203.846 5.75272 2.96093 0
M  V30 2207 N 203.978 -0.674533 1.42435 0
M  V30 2208 C 204.91 -1.80005 1.41883 0
M  V30 2209 C 205.923 -1.59667 0.31787 0
M  V30 2210 O 207.112 -1.68781 0.580973 0
M  V30 2211 C 204.212 -3.17114 1.19549 0
M  V30 2212 C 203.385 -3.64299 2.42084 0
M  V30 2213 C 202.444 -4.80142 2.15291 0
M  V30 2214 O 201.47 -4.90673 2.88493 0
M  V30 2215 N 202.672 -5.68869 1.1562 0
M  V30 2216 H 205.437 -1.80964 2.38898 0
M  V30 2217 H 202.998 -0.857633 1.37318 0
M  V30 2218 H 204.99 -3.92267 0.995417 0
M  V30 2219 H 203.56 -3.11053 0.310569 0
M  V30 2220 H 202.78 -2.79822 2.77657 0
M  V30 2221 H 204.068 -3.92567 3.23679 0
M  V30 2222 H 203.466 -5.63012 0.550765 0
M  V30 2223 H 202.023 -6.43833 1.016 0
M  V30 2224 N 205.456 -1.28612 -0.910864 0
M  V30 2225 C 206.704 -1.15705 -1.65701 0
M  V30 2226 C 207.025 0.29416 -1.92769 0
M  V30 2227 O 206.295 1.20331 -1.54588 0
M  V30 2228 H 204.875 -0.425216 -0.614167 0
M  V30 2229 H 207.537 -1.61381 -1.0928 0
M  V30 2230 H 206.633 -1.6988 -2.61815 0
M  V30 2231 N 206.934 1.1197 -1.10907 0
M  V30 2232 C 207.866 2.17592 -0.720175 0
M  V30 2233 C 208.879 1.60938 0.245495 0
M  V30 2234 O 210.068 1.78476 0.0292245 0
M  V30 2235 C 207.168 3.38873 -0.0427917 0
M  V30 2236 C 206.341 4.25006 -1.03388 0
M  V30 2237 C 205.4 5.24774 -0.387075 0
M  V30 2238 O 204.426 5.59631 -1.03934 0
M  V30 2239 N 205.628 5.74208 0.852407 0
M  V30 2240 H 208.393 2.51567 -1.62893 0
M  V30 2241 H 205.954 1.27439 -0.998543 0
M  V30 2242 H 207.946 4.02703 0.401501 0
M  V30 2243 H 206.516 3.03007 0.768456 0
M  V30 2244 H 205.736 3.57716 -1.65629 0
M  V30 2245 H 207.024 4.79397 -1.70458 0
M  V30 2246 H 206.422 5.48062 1.40161 0
M  V30 2247 H 204.979 6.39901 1.23977 0
M  V30 2248 N 208.412 0.89855 1.29475 0
M  V30 2249 C 209.345 0.319981 2.25945 0
M  V30 2250 C 210.323 -0.567189 1.52387 0
M  V30 2251 O 211.507 -0.514254 1.8135 0
M  V30 2252 C 208.634 -0.544013 3.34303 0
M  V30 2253 C 207.68 0.275682 4.25608 0
M  V30 2254 S 208.513 1.67272 5.08704 0
M  V30 2255 C 209.669 0.815621 6.20563 0
M  V30 2256 H 209.902 1.13767 2.74671 0
M  V30 2257 H 207.435 0.69882 1.3768 0
M  V30 2258 H 209.393 -1.03673 3.97193 0
M  V30 2259 H 208.054 -1.33593 2.84274 0
M  V30 2260 H 207.247 -0.384263 5.02533 0
M  V30 2261 H 206.849 0.701496 3.67362 0
M  V30 2262 H 209.141 0.0385042 6.77489 0
M  V30 2263 H 210.084 1.55691 6.90772 0
M  V30 2264 H 210.492 0.370516 5.63283 0
M  V30 2265 N 209.89 -1.43072 0.660911 0
M  V30 2266 C 211.136 -2.0202 0.177708 0
M  V30 2267 C 211.469 -1.52066 -1.20787 0
M  V30 2268 O 210.744 -0.716987 -1.80802 0
M  V30 2269 C 211.027 -3.59561 0.197019 0
M  V30 2270 C 210.88 -4.19727 1.61706 0
M  V30 2271 C 212.199 -4.37664 -0.462396 0
M  V30 2272 H 209.318 -0.734034 0.0660494 0
M  V30 2273 H 211.96 -1.70272 0.843058 0
M  V30 2274 H 210.11 -3.86739 -0.369527 0
M  V30 2275 H 211.782 -4.03553 2.23479 0
M  V30 2276 H 210.025 -3.76084 2.16201 0
M  V30 2277 H 210.696 -5.28834 1.58237 0
M  V30 2278 H 213.172 -4.16095 0.0197215 0
M  V30 2279 H 212.048 -5.47305 -0.418188 0
M  V30 2280 H 212.309 -4.14493 -1.53778 0
M  V30 2281 N 211.368 -0.403325 -1.52352 0
M  V30 2282 C 212.318 0.442244 -2.2367 0
M  V30 2283 C 213.302 1.01823 -1.24583 0
M  V30 2284 O 214.494 0.942005 -1.49851 0
M  V30 2285 C 211.623 1.5615 -3.05732 0
M  V30 2286 C 210.709 0.996575 -4.12225 0
M  V30 2287 N 211.1 0.157804 -5.05554 0
M  V30 2288 C 209.398 1.26767 -4.27605 0
M  V30 2289 C 210.099 -0.155853 -5.81491 0
M  V30 2290 N 209.075 0.451775 -5.41719 0
M  V30 2291 H 212.877 -0.204964 -2.93184 0
M  V30 2292 H 210.391 -0.213418 -1.60992 0
M  V30 2293 H 212.388 2.17981 -3.55373 0
M  V30 2294 H 211.048 2.21139 -2.37755 0
M  V30 2295 H 212.059 -0.206049 -5.1749 0
M  V30 2296 H 208.736 1.91757 -3.70858 0
M  V30 2297 H 210.126 -0.836329 -6.66675 0
M  V30 2298 N 212.846 1.57033 -0.133567 0
M  V30 2299 C 213.778 2.13176 0.841944 0
M  V30 2300 C 214.791 1.07794 1.22001 0
M  V30 2301 O 215.98 1.35117 1.16643 0
M  V30 2302 C 213.08 2.62847 2.13926 0
M  V30 2303 C 212.253 3.92486 1.93064 0
M  V30 2304 C 211.312 4.27605 3.0666 0
M  V30 2305 O 210.338 4.96168 2.78937 0
M  V30 2306 N 211.54 3.861 4.33483 0
M  V30 2307 H 214.305 2.97503 0.362192 0
M  V30 2308 H 211.866 1.61821 0.05042 0
M  V30 2309 H 213.858 2.83363 2.88942 0
M  V30 2310 H 212.428 1.83319 2.53205 0
M  V30 2311 H 211.648 3.80732 1.02159 0
M  V30 2312 H 212.936 4.77225 1.76447 0
M  V30 2313 H 212.334 3.30828 4.58878 0
M  V30 2314 H 210.891 4.11694 5.05323 0
M  V30 2315 N 214.325 -0.140222 1.56975 0
M  V30 2316 C 215.288 -1.15689 1.97861 0
M  V30 2317 C 216.288 -1.3549 0.865974 0
M  V30 2318 O 217.478 -1.32367 1.13246 0
M  V30 2319 C 214.61 -2.51582 2.30042 0
M  V30 2320 H 215.803 -0.805971 2.88867 0
M  V30 2321 H 213.356 -0.383801 1.51515 0
M  V30 2322 H 214.091 -2.91632 1.41849 0
M  V30 2323 H 213.876 -2.38569 3.11171 0
M  V30 2324 H 215.366 -3.24792 2.62488 0
M  V30 2325 N 215.803 -1.52179 -0.40978 0
M  V30 2326 C 217.052 -1.65434 -1.15388 0
M  V30 2327 C 217.365 -0.390056 -1.91671 0
M  V30 2328 O 218.571 -0.402399 -2.68501 0
M  V30 2329 C 217.027 -2.92279 -2.10003 0
M  V30 2330 C 216.635 -4.25813 -1.39239 0
M  V30 2331 C 218.379 -3.14897 -2.84675 0
M  V30 2332 C 216.286 -5.43782 -2.32498 0
M  V30 2333 H 215.216 -0.616267 -0.434432 0
M  V30 2334 H 217.867 -1.78666 -0.418401 0
M  V30 2335 H 216.249 -2.72744 -2.871 0
M  V30 2336 H 217.423 -4.55828 -0.675099 0
M  V30 2337 H 215.738 -4.09292 -0.766097 0
M  V30 2338 H 218.335 -4.0021 -3.54593 0
M  V30 2339 H 218.678 -2.29103 -3.47588 0
M  V30 2340 H 219.211 -3.34901 -2.14677 0
M  V30 2341 H 215.95 -6.3192 -1.74233 0
M  V30 2342 H 215.47 -5.18106 -3.02201 0
M  V30 2343 H 217.149 -5.76834 -2.93038 0
M  V30 2344 N 217.281 0.66697 -1.42791 0
M  V30 2345 C 218.506 1.46004 -1.47301 0
M  V30 2346 C 218.931 1.87894 -0.0880317 0
M  V30 2347 O 218.289 1.56502 0.915253 0
M  V30 2348 C 218.337 2.68031 -2.41229 0
M  V30 2349 O 217.441 3.6659 -1.88906 0
M  V30 2350 H 216.782 0.43832 -0.49877 0
M  V30 2351 H 219.312 0.817391 -1.87563 0
M  V30 2352 H 219.322 3.1601 -2.58073 0
M  V30 2353 H 217.997 2.36883 -3.41847 0
M  V30 2354 H 216.574 3.25661 -1.81656 0
M  V30 2355 N 218.759 1.29093 0.90403 0
M  V30 2356 C 220.17 1.15186 1.46932 0
M  V30 2357 C 220.521 -0.254587 1.94541 0
M  V30 2358 O 219.646 -1.14972 1.83332 0
M  V30 2359 C 220.241 2.08492 2.67051 0
M  V30 2360 C 218.8 1.98621 3.19729 0
M  V30 2361 C 217.947 1.9967 1.92425 0
M  V30 2362 H 220.898 1.41641 0.715789 0
M  V30 2363 H 220.919 1.65461 3.42641 0
M  V30 2364 H 220.431 3.10847 2.3237 0
M  V30 2365 H 218.532 0.993389 3.59114 0
M  V30 2366 H 218.645 2.86068 3.8432 0
M  V30 2367 H 217.009 1.44208 2.09943 0
M  V30 2368 H 217.792 3.03721 1.60026 0
M  V30 2369 N 220.237 -1.11381 1.11499 0
M  V30 2370 C 221.653 -1.35143 0.849031 0
M  V30 2371 C 221.853 -1.94515 -0.525938 0
M  V30 2372 O 220.909 -2.1785 -1.27662 0
M  V30 2373 C 222.222 -2.28249 1.95762 0
M  V30 2374 C 223.77 -2.41812 1.98736 0
M  V30 2375 C 224.245 -3.3824 3.088 0
M  V30 2376 N 225.736 -3.45803 3.08179 0
M  V30 2377 C 226.471 -4.20358 3.89982 0
M  V30 2378 N 225.967 -4.97884 4.8175 0
M  V30 2379 N 227.76 -4.15877 3.78157 0
M  V30 2380 H 219.911 -0.712062 2.00109 0
M  V30 2381 H 222.174 -0.376025 0.870235 0
M  V30 2382 H 221.88 -1.91817 2.94787 0
M  V30 2383 H 221.754 -3.28473 1.85433 0
M  V30 2384 H 224.141 -2.77518 1.00338 0
M  V30 2385 H 224.222 -1.41437 2.13141 0
M  V30 2386 H 223.866 -3.03261 4.07425 0
M  V30 2387 H 223.796 -4.38471 2.91635 0
M  V30 2388 H 226.287 -2.90506 2.41691 0
M  V30 2389 H 226.6 -5.52142 5.40702 0
M  V30 2390 H 224.945 -4.97043 4.85771 0
M  V30 2391 H 228.136 -3.544 3.05808 0
M  V30 2392 H 228.309 -4.73723 4.42143 0
M  V30 2393 N 221.715 -0.905404 -1.28997 0
M  V30 2394 C 222.943 -0.549846 -1.9946 0
M  V30 2395 C 223.358 0.866834 -1.67724 0
M  V30 2396 O 222.715 1.57298 -0.925404 0
M  V30 2397 C 222.766 -0.739387 -3.53858 0
M  V30 2398 O 222.487 -2.10031 -3.84472 0
M  V30 2399 C 223.988 -0.389541 -4.41585 0
M  V30 2400 H 221.208 -0.210429 -0.637151 0
M  V30 2401 H 223.752 -1.21632 -1.64396 0
M  V30 2402 H 221.907 -0.120023 -3.87214 0
M  V30 2403 H 222.321 -2.13385 -4.79132 0
M  V30 2404 H 223.795 -0.572972 -5.49018 0
M  V30 2405 H 224.272 0.673756 -4.34001 0
M  V30 2406 H 224.878 -0.986089 -4.1371 0
M  V30 2407 N 223.193 1.4272 -0.668489 0
M  V30 2408 C 224.123 2.335 -0.000100175 0
M  V30 2409 C 225.104 1.50328 0.795964 0
M  V30 2410 O 226.289 1.78949 0.754385 0
M  V30 2411 C 223.419 3.33874 0.956302 0
M  V30 2412 C 222.373 4.27152 0.269278 0
M  V30 2413 C 221.699 5.17684 1.33818 0
M  V30 2414 C 222.999 5.15373 -0.847805 0
M  V30 2415 H 224.693 2.89639 -0.758244 0
M  V30 2416 H 222.239 1.39269 -0.366079 0
M  V30 2417 H 224.192 3.9629 1.43292 0
M  V30 2418 H 222.916 2.76025 1.74579 0
M  V30 2419 H 221.575 3.66123 -0.187042 0
M  V30 2420 H 221.223 4.56165 2.1195 0
M  V30 2421 H 220.923 5.80918 0.883659 0
M  V30 2422 H 222.447 5.82974 1.81586 0
M  V30 2423 H 223.861 5.7151 -0.452681 0
M  V30 2424 H 222.258 5.87407 -1.22773 0
M  V30 2425 H 223.328 4.5415 -1.69929 0
M  V30 2426 N 224.671 0.411399 1.52136 0
M  V30 2427 C 225.619 -0.427633 2.28635 0
M  V30 2428 C 226.613 -1.04383 1.33419 0
M  V30 2429 O 227.819 -0.981772 1.50868 0
M  V30 2430 H 224.194 -0.156689 0.735495 0
M  V30 2431 H 226.165 0.238761 2.97443 0
M  V30 2432 C 224.914 -1.53082 3.12188 0
M  V30 2433 H 224.237 -1.06601 3.85326 0
M  V30 2434 H 225.677 -2.09167 3.68816 0
M  V30 2435 C 224.136 -2.49946 2.25895 0
M  V30 2436 O 224.666 -3.53884 1.90076 0
M  V30 2437 N 222.872 -2.2021 1.8962 0
M  V30 2438 H 222.419 -1.35719 2.18948 0
M  V30 2439 H 222.377 -2.85266 1.32176 0
M  V30 2440 N 226.149 -1.5696 0.141893 0
M  V30 2441 C 227.112 -2.15316 -0.785587 0
M  V30 2442 C 228.112 -1.09366 -1.1788 0
M  V30 2443 O 229.302 -1.35031 -1.10056 0
M  V30 2444 C 226.434 -2.71211 -2.06537 0
M  V30 2445 H 227.627 -2.98608 -0.278041 0
M  V30 2446 H 225.18 -1.5593 -0.107519 0
M  V30 2447 H 225.915 -1.91571 -2.6167 0
M  V30 2448 H 225.7 -3.4872 -1.79268 0
M  V30 2449 H 227.19 -3.16189 -2.72789 0
M  V30 2450 N 227.627 0.131896 -1.57047 0
M  V30 2451 C 228.873 0.838268 -1.85323 0
M  V30 2452 C 229.228 1.78098 -0.727937 0
M  V30 2453 O 228.521 1.89645 0.27304 0
M  V30 2454 C 228.715 1.63703 -3.17704 0
M  V30 2455 C 228.544 0.773167 -4.43004 0
M  V30 2456 C 227.314 0.432956 -5.03442 0
M  V30 2457 C 229.512 0.0966216 -5.14209 0
M  V30 2458 N 227.494 -0.442924 -6.123 0
M  V30 2459 C 228.865 -0.638778 -6.16701 0
M  V30 2460 C 230.92 0.018861 -4.97896 0
M  V30 2461 C 229.623 -1.44462 -7.04644 0
M  V30 2462 C 231.649 -0.773762 -5.86316 0
M  V30 2463 C 231.011 -1.4974 -6.883 0
M  V30 2464 H 227.11 0.284086 -0.728573 0
M  V30 2465 H 229.694 0.102731 -1.94429 0
M  V30 2466 H 227.865 2.3437 -3.09718 0
M  V30 2467 H 229.597 2.28774 -3.33833 0
M  V30 2468 H 226.352 0.772237 -4.67262 0
M  V30 2469 H 226.776 -0.872332 -6.71356 0
M  V30 2470 H 231.418 0.56397 -4.19022 0
M  V30 2471 H 229.136 -2.00093 -7.82936 0
M  V30 2472 H 232.722 -0.83612 -5.75761 0
M  V30 2473 H 231.602 -2.10087 -7.55535 0
M  V30 2474 N 229.106 1.52395 0.401703 0
M  V30 2475 C 230.352 1.67065 1.14966 0
M  V30 2476 C 230.685 0.403052 1.89971 0
M  V30 2477 O 229.96 -0.598774 1.85054 0
M  V30 2478 C 230.243 2.8975 2.13815 0
M  V30 2479 C 230.096 4.26578 1.42658 0
M  V30 2480 C 231.415 3.07965 3.14397 0
M  V30 2481 H 228.534 0.607968 0.416587 0
M  V30 2482 H 231.176 1.84965 0.434511 0
M  V30 2483 H 229.326 2.74619 2.74803 0
M  V30 2484 H 230.998 4.53451 0.847329 0
M  V30 2485 H 229.241 4.27639 0.72849 0
M  V30 2486 H 229.912 5.08483 2.14823 0
M  V30 2487 H 232.388 3.22043 2.63491 0
M  V30 2488 H 231.264 3.95308 3.80819 0
M  V30 2489 H 231.525 2.21611 3.82545 0
M  V30 2490 N 230.584 -0.659388 1.43143 0
M  V30 2491 C 231.531 -1.77249 1.47822 0
M  V30 2492 C 232.501 -1.62818 0.328558 0
M  V30 2493 O 233.686 -1.83151 0.534838 0
M  V30 2494 C 230.826 -3.15371 1.40126 0
M  V30 2495 C 229.939 -3.4098 2.65249 0
M  V30 2496 C 229.074 -4.68915 2.49584 0
M  V30 2497 C 228.113 -4.87608 3.70006 0
M  V30 2498 N 227.25 -6.06796 3.53189 0
M  V30 2499 H 232.09 -1.72584 2.42938 0
M  V30 2500 H 229.627 -0.842297 1.20598 0
M  V30 2501 H 231.585 -3.9521 1.33659 0
M  V30 2502 H 230.215 -3.19121 0.485964 0
M  V30 2503 H 229.267 -2.55282 2.8202 0
M  V30 2504 H 230.579 -3.50681 3.54717 0
M  V30 2505 H 229.733 -5.56871 2.4079 0
M  V30 2506 H 228.472 -4.61524 1.5763 0
M  V30 2507 H 227.477 -3.9809 3.79215 0
M  V30 2508 H 228.702 -4.96834 4.62961 0
M  V30 2509 H 226.648 -6.00549 2.63965 0
M  V30 2510 H 226.565 -6.17428 4.36255 0
M  V30 2511 H 227.833 -6.9739 3.48236 0
M  V30 2512 N 232.062 -1.29571 -0.897171 0
M  V30 2513 C 233.308 -1.17863 -1.65034 0
M  V30 2514 C 233.641 0.268729 -1.92332 0
M  V30 2515 O 232.916 1.19378 -1.53555 0
M  V30 2516 C 233.199 -1.995 -2.99786 0
M  V30 2517 C 233.052 -3.5239 -2.79538 0
M  V30 2518 C 234.371 -1.82335 -4.00552 0
M  V30 2519 H 231.49 -0.429528 -0.598895 0
M  V30 2520 H 234.132 -1.59072 -1.03905 0
M  V30 2521 H 232.282 -1.64485 -3.51962 0
M  V30 2522 H 233.954 -3.97401 -2.34244 0
M  V30 2523 H 232.197 -3.77187 -2.14273 0
M  V30 2524 H 232.868 -4.04787 -3.75302 0
M  V30 2525 H 235.344 -2.12924 -3.57495 0
M  V30 2526 H 234.22 -2.41801 -4.92771 0
M  V30 2527 H 234.481 -0.779209 -4.35179 0
M  V30 2528 N 233.54 1.10788 -1.12088 0
M  V30 2529 C 234.786 1.82942 -0.875226 0
M  V30 2530 C 235.119 1.84779 0.597538 0
M  V30 2531 O 234.394 1.30578 1.44152 0
M  V30 2532 C 234.677 3.29789 -1.44606 0
M  V30 2533 C 234.53 3.36307 -2.98693 0
M  V30 2534 C 235.849 4.26064 -1.10261 0
M  V30 2535 H 232.968 0.664195 -0.319397 0
M  V30 2536 H 235.61 1.29867 -1.38689 0
M  V30 2537 H 233.76 3.75118 -1.01089 0
M  V30 2538 H 235.432 2.99487 -3.50864 0
M  V30 2539 H 233.675 2.76318 -3.34411 0
M  V30 2540 H 234.346 4.39694 -3.33726 0
M  V30 2541 H 236.822 3.88951 -1.4784 0
M  V30 2542 H 235.698 5.27183 -1.52869 0
M  V30 2543 H 235.959 4.42098 -0.0142953 0
M  V30 2544 N 235.018 0.912232 1.28515 0
M  V30 2545 C 235.928 0.404506 2.31086 0
M  V30 2546 C 236.944 -0.50707 1.66448 0
M  V30 2547 O 238.12 -0.393624 1.97516 0
M  V30 2548 C 235.185 -0.348572 3.44943 0
M  V30 2549 C 234.246 0.59604 4.25142 0
M  V30 2550 C 233.479 -0.121194 5.33562 0
M  V30 2551 O 233.702 -1.34317 5.5436 0
M  V30 2552 O 232.636 0.542716 5.99448 0
M  V30 2553 H 236.462 1.25579 2.76521 0
M  V30 2554 H 234.047 0.676998 1.33181 0
M  V30 2555 H 235.929 -0.77395 4.14232 0
M  V30 2556 H 234.604 -1.17571 3.01594 0
M  V30 2557 H 233.511 1.07079 3.58448 0
M  V30 2558 H 234.844 1.38995 4.72167 0
M  V30 2559 N 236.496 -1.42363 0.676048 0
M  V30 2560 C 237.406 -2.346 -0.00153389 0
M  V30 2561 C 238.422 -1.5516 -0.787485 0
M  V30 2562 O 239.598 -1.87723 -0.729521 0
M  V30 2563 C 236.663 -3.33705 -0.940298 0
M  V30 2564 C 235.724 -4.29042 -0.148739 0
M  V30 2565 C 234.957 -5.23413 -1.04279 0
M  V30 2566 O 235.18 -5.22749 -2.28232 0
M  V30 2567 O 234.114 -5.99795 -0.502925 0
M  V30 2568 H 237.94 -2.94082 0.758268 0
M  V30 2569 H 235.525 -1.42888 0.436289 0
M  V30 2570 H 237.407 -3.94586 -1.47917 0
M  V30 2571 H 236.082 -2.76695 -1.67993 0
M  V30 2572 H 234.989 -3.71571 0.43427 0
M  V30 2573 H 236.322 -4.89097 0.551805 0
M  V30 2574 N 237.974 -0.419461 -1.51915 0
M  V30 2575 C 238.921 0.400927 -2.27291 0
M  V30 2576 C 239.891 1.03224 -1.30131 0
M  V30 2577 O 241.076 1.05455 -1.59009 0
M  V30 2578 C 238.216 1.50603 -3.10504 0
M  V30 2579 C 237.329 0.89462 -4.22635 0
M  V30 2580 C 236.464 1.97328 -4.93189 0
M  V30 2581 C 235.503 1.33935 -5.97267 0
M  V30 2582 N 234.64 2.3586 -6.61298 0
M  V30 2583 H 239.48 -0.248251 -2.96964 0
M  V30 2584 H 237.017 -0.134266 -1.46486 0
M  V30 2585 H 238.975 2.15783 -3.57062 0
M  V30 2586 H 237.605 2.12509 -2.42981 0
M  V30 2587 H 236.657 0.131583 -3.80172 0
M  V30 2588 H 237.969 0.391641 -4.9726 0
M  V30 2589 H 237.123 2.70211 -5.43204 0
M  V30 2590 H 235.862 2.50994 -4.18155 0
M  V30 2591 H 234.867 0.595896 -5.46561 0
M  V30 2592 H 236.092 0.810252 -6.74249 0
M  V30 2593 H 234.038 2.88639 -5.89087 0
M  V30 2594 H 233.955 1.90403 -7.3163 0
M  V30 2595 H 235.223 3.08282 -7.15949 0
M  V30 2596 N 239.452 1.56882 -0.150215 0
M  V30 2597 C 240.415 2.1573 0.774157 0
M  V30 2598 C 241.415 1.0999 1.17298 0
M  V30 2599 O 242.605 1.35613 1.09338 0
M  V30 2600 C 239.737 2.72302 2.05096 0
M  V30 2601 H 240.93 2.98752 0.262201 0
M  V30 2602 H 238.483 1.55985 0.099248 0
M  V30 2603 H 239.218 1.92956 2.6065 0
M  V30 2604 H 239.003 3.49665 1.77416 0
M  V30 2605 H 240.493 3.17632 2.71109 0
M  V30 2606 N 240.93 -0.123565 1.57115 0
M  V30 2607 C 242.177 -0.832153 1.84612 0
M  V30 2608 C 242.505 -1.80093 0.734627 0
M  V30 2609 O 241.76 -1.93766 -0.27442 0
M  V30 2610 C 242.059 -1.62016 3.18568 0
M  V30 2611 C 241.725 -0.796084 4.43817 0
M  V30 2612 C 240.387 -0.568816 4.77826 0
M  V30 2613 C 242.739 -0.221364 5.2073 0
M  V30 2614 C 240.067 0.243499 5.86194 0
M  V30 2615 C 242.419 0.578117 6.29953 0
M  V30 2616 C 241.083 0.815744 6.62497 0
M  V30 2617 H 240.353 -0.304507 0.675542 0
M  V30 2618 H 243 -0.0947248 1.91266 0
M  V30 2619 H 241.305 -2.42837 3.0747 0
M  V30 2620 H 243.002 -2.17231 3.37064 0
M  V30 2621 H 239.592 -0.983307 4.17168 0
M  V30 2622 H 243.776 -0.384173 4.94811 0
M  V30 2623 H 239.032 0.436871 6.09837 0
M  V30 2624 H 243.206 1.03046 6.88734 0
M  V30 2625 H 240.833 1.44701 7.46301 0
M  V30 2626 N 242.408 -1.52605 -0.393616 0
M  V30 2627 C 243.633 -1.71592 -1.16495 0
M  V30 2628 C 244.058 -0.43133 -1.83088 0
M  V30 2629 O 243.416 0.612523 -1.7064 0
M  V30 2630 C 243.464 -2.86318 -2.19213 0
M  V30 2631 O 242.568 -2.52969 -3.257 0
M  V30 2632 H 241.909 -0.570734 -0.33935 0
M  V30 2633 H 244.439 -1.99377 -0.459324 0
M  V30 2634 H 244.449 -3.1168 -2.63286 0
M  V30 2635 H 243.124 -3.79511 -1.7013 0
M  V30 2636 H 241.701 -2.38332 -2.86797 0
M  V30 2637 N 243.887 0.651787 -1.4349 0
M  V30 2638 C 245.298 1.233 -1.40193 0
M  V30 2639 C 245.649 1.9591 -0.106727 0
M  V30 2640 O 244.774 2.01316 0.793773 0
M  V30 2641 C 245.369 2.24257 -2.53957 0
M  V30 2642 C 243.928 2.77852 -2.5392 0
M  V30 2643 C 243.075 1.52517 -2.3159 0
M  V30 2644 H 246.026 0.443717 -1.52371 0
M  V30 2645 H 246.047 3.0646 -2.25528 0
M  V30 2646 H 245.559 1.71382 -3.4821 0
M  V30 2647 H 243.66 3.34786 -1.63551 0
M  V30 2648 H 243.773 3.25299 -3.51735 0
M  V30 2649 H 242.137 1.79915 -1.80285 0
M  V30 2650 H 242.92 1.01574 -3.27929 0
M  V30 2651 N 245.365 1.30045 0.890287 0
M  V30 2652 C 246.275 1.17885 2.02831 0
M  V30 2653 C 247.291 0.0999609 1.73713 0
M  V30 2654 O 248.467 0.313867 1.98939 0
M  V30 2655 C 245.532 0.866079 3.35708 0
M  V30 2656 C 244.593 2.02979 3.78283 0
M  V30 2657 C 243.826 1.73184 5.0482 0
M  V30 2658 O 244.049 0.657237 5.66601 0
M  V30 2659 O 242.983 2.58267 5.43674 0
M  V30 2660 H 246.809 2.13474 2.16015 0
M  V30 2661 H 244.394 1.09587 1.01543 0
M  V30 2662 H 246.276 0.706623 4.15433 0
M  V30 2663 H 244.951 -0.0599443 3.23644 0
M  V30 2664 H 243.858 2.24454 2.99285 0
M  V30 2665 H 245.191 2.93734 3.94944 0
M  V30 2666 N 246.843 -1.10192 1.12674 0
M  V30 2667 C 248.089 -1.82475 0.884915 0
M  V30 2668 C 248.422 -1.85093 -0.58773 0
M  V30 2669 O 247.697 -1.3134 -1.43457 0
M  V30 2670 C 247.98 -3.29018 1.46353 0
M  V30 2671 C 247.833 -3.34718 3.00473 0
M  V30 2672 C 249.152 -4.25473 1.12519 0
M  V30 2673 H 246.271 -0.662492 0.322915 0
M  V30 2674 H 248.913 -1.2913 1.39375 0
M  V30 2675 H 247.063 -3.74576 1.03077 0
M  V30 2676 H 248.735 -2.97622 3.52447 0
M  V30 2677 H 246.978 -2.74541 3.35872 0
M  V30 2678 H 247.649 -4.37918 3.36053 0
M  V30 2679 H 250.125 -3.88161 1.499 0
M  V30 2680 H 249.001 -5.26365 1.55663 0
M  V30 2681 H 249.262 -4.42084 0.0377407 0
M  V30 2682 N 248.321 -0.919034 -1.28029 0
M  V30 2683 C 249.57 -0.550802 -1.94034 0
M  V30 2684 C 249.883 0.910877 -1.73096 0
M  V30 2685 O 251.089 1.3875 -2.33368 0
M  V30 2686 C 249.545 -0.934249 -3.47563 0
M  V30 2687 C 249.153 -2.41602 -3.7727 0
M  V30 2688 C 250.897 -0.636854 -4.19696 0
M  V30 2689 C 248.804 -2.73932 -5.24133 0
M  V30 2690 H 247.734 -0.202273 -0.726362 0
M  V30 2691 H 250.385 -1.11867 -1.45458 0
M  V30 2692 H 248.767 -0.295115 -3.94899 0
M  V30 2693 H 249.941 -3.10233 -3.40723 0
M  V30 2694 H 248.256 -2.68441 -3.18321 0
M  V30 2695 H 250.853 -0.855005 -5.2782 0
M  V30 2696 H 251.196 0.425575 -4.14119 0
M  V30 2697 H 251.729 -1.23469 -3.78154 0
M  V30 2698 H 248.468 -3.79049 -5.34792 0
M  V30 2699 H 247.988 -2.09942 -5.61858 0
M  V30 2700 H 249.667 -2.61215 -5.91925 0
M  V30 2701 N 249.799 1.42003 -0.683588 0
M  V30 2702 C 251.21 1.84501 -0.285736 0
M  V30 2703 C 251.561 1.57213 1.17382 0
M  V30 2704 O 250.686 1.03642 1.89966 0
M  V30 2705 C 251.281 3.34912 -0.511821 0
M  V30 2706 C 249.84 3.76025 -0.168005 0
M  V30 2707 C 248.987 2.6551 -0.799983 0
M  V30 2708 H 251.938 1.31724 -0.885119 0
M  V30 2709 H 251.959 3.79784 0.233292 0
M  V30 2710 H 251.471 3.54741 -1.57418 0
M  V30 2711 H 249.572 3.61801 0.890567 0
M  V30 2712 H 249.685 4.75141 -0.614661 0
M  V30 2713 H 248.049 2.53654 -0.230568 0
M  V30 2714 H 248.832 2.8816 -1.86597 0
M  V30 2715 N 251.277 0.427512 1.51691 0
M  V30 2716 C 252.21 -0.433876 2.24037 0
M  V30 2717 C 253.188 -1.03287 1.25581 0
M  V30 2718 O 254.372 -1.07722 1.54688 0
M  V30 2719 C 251.499 -1.60385 2.98319 0
M  V30 2720 C 250.545 -1.12648 4.11355 0
M  V30 2721 S 251.378 -0.076543 5.35445 0
M  V30 2722 C 252.534 -1.25141 6.13262 0
M  V30 2723 H 252.767 0.180367 2.96752 0
M  V30 2724 H 250.3 0.211946 1.52938 0
M  V30 2725 H 252.258 -2.27462 3.41718 0
M  V30 2726 H 250.919 -2.18948 2.25213 0
M  V30 2727 H 250.112 -2.0011 4.62571 0
M  V30 2728 H 249.714 -0.534088 3.70167 0
M  V30 2729 H 252.006 -2.17162 6.41753 0
M  V30 2730 H 252.949 -0.779411 7.03797 0
M  V30 2731 H 253.357 -1.48553 5.44603 0
M  V30 2732 N 252.755 -1.56801 0.158532 0
M  V30 2733 C 254.002 -1.9649 -0.489679 0
M  V30 2734 C 254.33 -1.04394 -1.6411 0
M  V30 2735 O 253.585 -0.0754401 -1.95555 0
M  V30 2736 C 253.884 -3.4235 -1.02623 0
M  V30 2737 C 253.55 -4.50899 0.00794526 0
M  V30 2738 C 252.212 -4.80312 0.292207 0
M  V30 2739 C 254.564 -5.16333 0.710584 0
M  V30 2740 C 251.892 -5.72461 1.28472 0
M  V30 2741 C 254.244 -6.09553 1.69199 0
M  V30 2742 C 252.908 -6.37339 1.98383 0
M  V30 2743 H 252.178 -0.719009 -0.179186 0
M  V30 2744 H 254.825 -1.8989 0.247798 0
M  V30 2745 H 253.13 -3.45838 -1.84128 0
M  V30 2746 H 254.827 -3.70393 -1.53656 0
M  V30 2747 H 251.417 -4.28015 -0.22379 0
M  V30 2748 H 255.601 -4.93732 0.504174 0
M  V30 2749 H 250.857 -5.92278 1.51714 0
M  V30 2750 H 255.031 -6.59327 2.24189 0
M  V30 2751 H 252.658 -7.08546 2.7544 0
M  V30 2752 N 254.233 0.115231 -1.57178 0
M  V30 2753 C 255.458 0.840354 -1.89612 0
M  V30 2754 C 255.883 1.72464 -0.750845 0
M  V30 2755 O 255.241 1.78826 0.298478 0
M  V30 2756 C 255.289 1.64654 -3.20814 0
M  V30 2757 O 254.393 2.7538 -3.06985 0
M  V30 2758 H 253.734 0.232158 -0.622092 0
M  V30 2759 H 256.264 0.0964977 -2.04372 0
M  V30 2760 H 256.274 2.03499 -3.53627 0
M  V30 2761 H 254.949 0.997416 -4.03763 0
M  V30 2762 H 253.526 2.3971 -2.85646 0
M  V30 2763 N 255.711 1.52812 0.385517 0
M  V30 2764 C 256.674 1.77188 1.45386 0
M  V30 2765 C 257.674 0.641953 1.4743 0
M  V30 2766 O 258.864 0.910033 1.4854 0
M  V30 2767 C 255.996 1.87582 2.8465 0
M  V30 2768 H 257.189 2.72583 1.25054 0
M  V30 2769 H 254.742 1.43586 0.617467 0
M  V30 2770 H 255.477 0.941849 3.10322 0
M  V30 2771 H 255.262 2.69748 2.84567 0
M  V30 2772 H 256.752 2.08102 3.62054 0
M  V30 2773 N 257.189 -0.644168 1.43834 0
M  V30 2774 C 258.119 -1.76814 1.52509 0
M  V30 2775 C 259.1 -1.65823 0.379052 0
M  V30 2776 O 260.285 -1.84781 0.597466 0
M  V30 2777 C 257.415 -3.15288 1.4564 0
M  V30 2778 C 256.369 -3.41053 2.58586 0
M  V30 2779 C 255.695 -4.79421 2.36769 0
M  V30 2780 C 256.995 -3.34902 4.00797 0
M  V30 2781 H 258.689 -1.69812 2.46586 0
M  V30 2782 H 256.235 -0.815542 1.1868 0
M  V30 2783 H 258.188 -3.93681 1.50311 0
M  V30 2784 H 256.912 -3.23043 0.480725 0
M  V30 2785 H 255.571 -2.65035 2.53282 0
M  V30 2786 H 255.219 -4.83863 1.37424 0
M  V30 2787 H 254.919 -4.9762 3.12487 0
M  V30 2788 H 256.443 -5.6006 2.43238 0
M  V30 2789 H 257.857 -4.03218 4.07539 0
M  V30 2790 H 256.254 -3.64637 4.76613 0
M  V30 2791 H 257.324 -2.32928 4.25291 0
M  V30 2792 N 258.668 -1.30515 -0.883378 0
M  V30 2793 C 259.893 -1.22487 -1.67367 0
M  V30 2794 C 260.318 0.208767 -1.86938 0
M  V30 2795 O 259.676 1.15015 -1.40148 0
M  V30 2796 C 259.724 -1.96041 -3.02655 0
M  V30 2797 O 258.828 -1.28859 -3.91751 0
M  V30 2798 H 258.169 -0.423573 -0.511353 0
M  V30 2799 H 260.699 -1.72362 -1.10239 0
M  V30 2800 H 260.709 -2.05124 -3.52687 0
M  V30 2801 H 259.384 -3.00307 -2.8773 0
M  V30 2802 H 257.961 -1.28141 -3.50192 0
M  V30 2803 N 260.146 1.09593 -1.13257 0
M  V30 2804 C 261.056 2.19739 -0.821691 0
M  V30 2805 C 262.072 1.72926 0.19302 0
M  V30 2806 O 263.248 2.01385 0.0244895 0
M  V30 2807 C 260.313 3.45482 -0.290333 0
M  V30 2808 C 259.374 4.06985 -1.36607 0
M  V30 2809 C 258.607 5.26726 -0.859975 0
M  V30 2810 O 258.83 5.69594 0.303082 0
M  V30 2811 O 257.764 5.7931 -1.63351 0
M  V30 2812 H 261.59 2.48781 -1.74189 0
M  V30 2813 H 259.175 1.18496 -0.909894 0
M  V30 2814 H 261.057 4.214 0.000674022 0
M  V30 2815 H 259.732 3.18047 0.602306 0
M  V30 2816 H 258.639 3.32712 -1.71037 0
M  V30 2817 H 259.972 4.38643 -2.23279 0
M  V30 2818 N 261.624 0.925811 1.2754 0
M  V30 2819 C 262.872 0.564138 1.94067 0
M  V30 2820 C 263.193 -0.897188 1.73134 0
M  V30 2821 O 262.463 -1.63573 1.07799 0
M  V30 2822 H 261.043 0.205645 0.718136 0
M  V30 2823 H 263.705 1.1778 1.55287 0
M  V30 2824 H 262.801 0.76881 3.02483 0
M  V30 2825 N 263.102 -1.41638 0.69111 0
M  V30 2826 C 264.065 -2.29178 0.0319786 0
M  V30 2827 C 265.065 -1.44153 -0.712496 0
M  V30 2828 O 266.255 -1.65354 -0.548053 0
M  V30 2829 C 263.387 -3.26952 -0.965161 0
M  V30 2830 H 264.58 -2.88959 0.802681 0
M  V30 2831 H 262.133 -1.4955 0.454356 0
M  V30 2832 H 262.868 -2.72142 -1.76378 0
M  V30 2833 H 262.653 -3.89685 -0.434522 0
M  V30 2834 H 264.143 -3.92561 -1.42428 0
M  V30 2835 N 264.58 -0.43555 -1.51462 0
M  V30 2836 C 265.808 0.130242 -2.0649 0
M  V30 2837 C 266.223 1.36614 -1.30315 0
M  V30 2838 O 265.58 1.78869 -0.362223 0
M  V30 2839 C 265.631 0.454253 -3.58635 0
M  V30 2840 O 265.352 -0.73259 -4.31931 0
M  V30 2841 C 266.853 1.07091 -4.3017 0
M  V30 2842 H 264.073 0.00871669 -0.670943 0
M  V30 2843 H 266.617 -0.614117 -1.95061 0
M  V30 2844 H 264.772 1.14851 -3.69984 0
M  V30 2845 H 265.186 -0.455787 -5.22516 0
M  V30 2846 H 266.66 1.24764 -5.37716 0
M  V30 2847 H 267.137 2.05144 -3.88346 0
M  V30 2848 H 267.743 0.416089 -4.2326 0
M  V30 2849 N 266.058 1.56714 -0.166846 0
M  V30 2850 C 267.469 1.83378 0.350646 0
M  V30 2851 C 267.82 1.08646 1.63372 0
M  V30 2852 O 266.945 0.338058 2.13743 0
M  V30 2853 C 267.54 3.32643 0.642963 0
M  V30 2854 C 266.099 3.59818 1.10491 0
M  V30 2855 C 265.246 2.76954 0.138411 0
M  V30 2856 H 268.197 1.53803 -0.391193 0
M  V30 2857 H 268.218 3.49878 1.49551 0
M  V30 2858 H 267.73 3.87007 -0.291055 0
M  V30 2859 H 265.831 3.1086 2.05418 0
M  V30 2860 H 265.944 4.68178 1.01716 0
M  V30 2861 H 264.308 2.4666 0.634911 0
M  V30 2862 H 265.091 3.34097 -0.789549 0
M  V30 2863 N 267.536 -0.106894 1.57237 0
M  V30 2864 C 268.468 -1.15646 1.97885 0
M  V30 2865 C 269.481 -1.36981 0.879779 0
M  V30 2866 O 270.67 -1.35841 1.15799 0
M  V30 2867 C 267.77 -2.51425 2.27241 0
M  V30 2868 C 266.943 -2.50529 3.58545 0
M  V30 2869 C 266.002 -3.68145 3.75973 0
M  V30 2870 O 265.028 -3.51176 4.47956 0
M  V30 2871 N 266.23 -4.87177 3.15656 0
M  V30 2872 H 268.995 -0.81059 2.8853 0
M  V30 2873 H 266.556 -0.296024 1.59171 0
M  V30 2874 H 268.548 -3.28689 2.36105 0
M  V30 2875 H 267.118 -2.78147 1.42663 0
M  V30 2876 H 266.338 -1.58894 3.60758 0
M  V30 2877 H 267.626 -2.46997 4.44826 0
M  V30 2878 H 267.024 -5.03868 2.57165 0
M  V30 2879 H 265.581 -5.62075 3.30023 0
M  V30 2880 N 269.014 -1.53014 -0.377408 0
M  V30 2881 C 270.291 -1.59215 -1.13622 0
M  V30 2882 C 270.671 -0.392407 -2.07421 0
M  V30 2883 O 270.019 0.618342 -2.19975 0
M  V30 2884 C 270.229 -2.93669 -1.88573 0
M  V30 2885 C 271.577 -3.47822 -2.43526 0
M  V30 2886 O 272.601 -2.9562 -1.98715 0
M  V30 2887 O 271.46 -4.39055 -3.25412 0
M  V30 2888 H 268.554 -0.642625 -0.52054 0
M  V30 2889 H 271.1 -1.65353 -0.381625 0
M  V30 2890 H 269.872 -3.7243 -1.20048 0
M  V30 2891 H 269.495 -2.90968 -2.70968 0
M  V30 2892 N 270.492 0.636531 -1.44174 0
M  V30 2893 C 271.422 1.76003 -1.53444 0
M  V30 2894 C 272.403 1.65619 -0.387841 0
M  V30 2895 O 273.588 1.84461 -0.607257 0
M  V30 2896 C 270.718 3.14511 -1.4731 0
M  V30 2897 C 269.672 3.39677 -2.60391 0
M  V30 2898 C 268.998 4.78159 -2.39308 0
M  V30 2899 C 270.298 3.32772 -4.02567 0
M  V30 2900 H 271.992 1.68501 -2.47483 0
M  V30 2901 H 269.538 0.809237 -1.19111 0
M  V30 2902 H 271.491 3.92878 -1.52397 0
M  V30 2903 H 270.215 3.22783 -0.49785 0
M  V30 2904 H 268.874 2.63688 -2.54684 0
M  V30 2905 H 268.522 4.83128 -1.39988 0
M  V30 2906 H 268.222 4.95956 -3.15122 0
M  V30 2907 H 269.746 5.58762 -2.46205 0
M  V30 2908 H 271.16 4.01051 -4.09672 0
M  V30 2909 H 269.557 3.62104 -4.7854 0
M  V30 2910 H 270.627 2.30669 -4.2652 0
M  V30 2911 N 271.97 1.30982 0.876444 0
M  V30 2912 C 272.918 1.18006 2.00443 0
M  V30 2913 C 273.912 0.0898871 1.69161 0
M  V30 2914 O 275.118 0.251333 1.78237 0
M  V30 2915 H 271.493 0.365196 0.65737 0
M  V30 2916 H 273.464 2.13453 2.0852 0
M  V30 2917 C 272.213 0.897521 3.35916 0
M  V30 2918 H 271.536 1.7285 3.60504 0
M  V30 2919 H 272.976 0.846874 4.15456 0
M  V30 2920 C 271.435 -0.399674 3.34521 0
M  V30 2921 O 271.965 -1.41852 3.7582 0
M  V30 2922 N 270.171 -0.413893 2.87637 0
M  V30 2923 H 269.718 0.41571 2.54224 0
M  V30 2924 H 269.676 -1.28175 2.87086 0
M  V30 2925 N 273.449 -1.08991 1.13837 0
M  V30 2926 C 274.677 -1.85011 0.926202 0
M  V30 2927 C 275.092 -1.8135 -0.525127 0
M  V30 2928 O 274.449 -1.21287 -1.36366 0
M  V30 2929 C 274.5 -3.32802 1.41155 0
M  V30 2930 O 274.221 -3.36444 2.80601 0
M  V30 2931 C 275.722 -4.25649 1.23847 0
M  V30 2932 H 272.942 -0.584249 0.32999 0
M  V30 2933 H 275.486 -1.37688 1.51202 0
M  V30 2934 H 273.641 -3.77536 0.868631 0
M  V30 2935 H 274.055 -4.28657 3.02248 0
M  V30 2936 H 275.529 -5.27485 1.62675 0
M  V30 2937 H 276.006 -4.38828 0.18065 0
M  V30 2938 H 276.612 -3.86735 1.76964 0
M  V30 2939 N 274.927 -0.932562 -1.27047 0
M  V30 2940 C 275.86 -0.379774 -2.25018 0
M  V30 2941 C 276.838 0.526587 -1.53837 0
M  V30 2942 O 278.022 0.465992 -1.82649 0
M  V30 2943 C 275.149 0.455187 -3.35627 0
M  V30 2944 C 274.195 -0.388428 -4.24728 0
M  V30 2945 S 275.028 -1.80701 -5.04091 0
M  V30 2946 C 276.184 -0.979865 -6.18182 0
M  V30 2947 H 276.417 -1.2101 -2.71558 0
M  V30 2948 H 273.95 -0.735078 -1.35779 0
M  V30 2949 H 275.908 0.931052 -3.99802 0
M  V30 2950 H 274.569 1.26009 -2.87716 0
M  V30 2951 H 273.762 0.25089 -5.03375 0
M  V30 2952 H 273.364 -0.798649 -3.65373 0
M  V30 2953 H 275.656 -0.218115 -6.77149 0
M  V30 2954 H 276.599 -1.73951 -6.86401 0
M  V30 2955 H 277.007 -0.51973 -5.62102 0
M  V30 2956 N 276.405 1.4127 -0.698611 0
M  V30 2957 C 277.335 2.33447 -0.049629 0
M  V30 2958 C 278.316 1.51982 0.763898 0
M  V30 2959 O 279.501 1.80509 0.716257 0
M  V30 2960 C 276.631 3.35828 0.885267 0
M  V30 2961 C 275.585 4.27627 0.178613 0
M  V30 2962 C 274.911 5.20406 1.22807 0
M  V30 2963 C 276.211 5.13459 -0.956933 0
M  V30 2964 H 277.905 2.87966 -0.81951 0
M  V30 2965 H 275.451 1.38461 -0.395538 0
M  V30 2966 H 277.404 3.9924 1.34854 0
M  V30 2967 H 276.128 2.79666 1.68685 0
M  V30 2968 H 274.787 3.65643 -0.26466 0
M  V30 2969 H 274.435 4.60558 2.02226 0
M  V30 2970 H 274.135 5.82661 0.760239 0
M  V30 2971 H 275.659 5.86695 1.69179 0
M  V30 2972 H 277.073 5.70421 -0.573805 0
M  V30 2973 H 275.47 5.8467 -1.35205 0
M  V30 2974 H 276.54 4.50443 -1.79524 0
M  V30 2975 N 277.883 0.443576 1.51229 0
M  V30 2976 C 278.831 -0.37904 2.29491 0
M  V30 2977 C 279.825 -1.0153 1.35603 0
M  V30 2978 O 281.031 -0.94955 1.52917 0
M  V30 2979 H 277.406 -0.141053 0.738653 0
M  V30 2980 H 279.377 0.301799 2.9687 0
M  V30 2981 C 278.126 -1.46426 3.15364 0
M  V30 2982 H 277.449 -0.984037 3.87501 0
M  V30 2983 H 278.889 -2.01297 3.7317 0
M  V30 2984 C 277.348 -2.45099 2.31146 0
M  V30 2985 O 277.878 -3.49773 1.9754 0
M  V30 2986 N 276.084 -2.16139 1.94249 0
M  V30 2987 H 275.631 -1.31044 2.21777 0
M  V30 2988 H 275.589 -2.82398 1.38198 0
M  V30 2989 N 279.361 -1.56624 0.175154 0
M  V30 2990 C 280.589 -2.01374 -0.474971 0
M  V30 2991 C 281.004 -1.05537 -1.56548 0
M  V30 2992 O 280.361 -0.0568668 -1.82411 0
M  V30 2993 C 280.412 -3.45923 -1.04975 0
M  V30 2994 O 280.133 -4.381 -0.00276605 0
M  V30 2995 C 281.634 -4.06093 -1.77773 0
M  V30 2996 H 278.854 -0.659962 -0.121206 0
M  V30 2997 H 281.398 -2.02601 0.27801 0
M  V30 2998 H 279.553 -3.45458 -1.75321 0
M  V30 2999 H 279.967 -5.22753 -0.427681 0
M  V30 3000 H 281.441 -5.09147 -2.13245 0
M  V30 3001 H 281.918 -3.48405 -2.67414 0
M  V30 3002 H 282.524 -4.10272 -1.12059 0
M  V30 3003 N 280.839 0.0985539 -1.57292 0
M  V30 3004 C 282.085 0.803867 -1.86188 0
M  V30 3005 C 282.418 1.78549 -0.763794 0
M  V30 3006 O 281.693 1.93153 0.22855 0
M  V30 3007 C 281.976 1.53568 -3.25713 0
M  V30 3008 C 281.829 0.572277 -4.46145 0
M  V30 3009 C 283.148 2.48708 -3.63087 0
M  V30 3010 H 280.267 0.290781 -0.677211 0
M  V30 3011 H 282.909 0.0675783 -1.8988 0
M  V30 3012 H 281.059 2.16332 -3.22696 0
M  V30 3013 H 282.731 -0.0480894 -4.61275 0
M  V30 3014 H 280.974 -0.114618 -4.33649 0
M  V30 3015 H 281.645 1.12139 -5.40489 0
M  V30 3016 H 284.121 1.96039 -3.67026 0
M  V30 3017 H 282.997 2.96932 -4.61652 0
M  V30 3018 H 283.258 3.32309 -2.91588 0
M  V30 3019 N 282.317 1.53212 0.369288 0
M  V30 3020 C 283.565 1.68881 1.11012 0
M  V30 3021 C 283.886 0.441285 1.89941 0
M  V30 3022 O 283.156 -0.544623 1.88177 0
M  V30 3023 H 281.736 0.622569 0.412816 0
M  V30 3024 H 284.398 1.90391 0.416802 0
M  V30 3025 H 283.494 2.54822 1.80201 0
M  V30 3026 N 283.795 -0.628877 1.44509 0
M  V30 3027 C 285.043 -1.38565 1.4712 0
M  V30 3028 C 285.364 -1.94712 0.105899 0
M  V30 3029 O 284.634 -1.75912 -0.862079 0
M  V30 3030 H 283.214 -0.514333 0.541729 0
M  V30 3031 H 285.876 -0.740018 1.80305 0
M  V30 3032 H 284.972 -2.21583 2.19789 0
M  V30 3033 N 285.273 -1.31445 -0.869486 0
M  V30 3034 C 286.223 -1.15731 -1.96444 0
M  V30 3035 C 287.207 -0.0681855 -1.60755 0
M  V30 3036 O 288.399 -0.293154 -1.74555 0
M  V30 3037 C 285.528 -0.867255 -3.32165 0
M  V30 3038 C 284.614 -1.99738 -3.74119 0
M  V30 3039 N 285.005 -3.24447 -3.88031 0
M  V30 3040 C 283.303 -1.89723 -4.03635 0
M  V30 3041 C 284.004 -3.98374 -4.23879 0
M  V30 3042 N 282.98 -3.26547 -4.3459 0
M  V30 3043 H 286.782 -2.10296 -2.05312 0
M  V30 3044 H 284.296 -1.23009 -1.06031 0
M  V30 3045 H 286.293 -0.735668 -4.10358 0
M  V30 3046 H 284.953 0.0701614 -3.24624 0
M  V30 3047 H 285.964 -3.59557 -3.72746 0
M  V30 3048 H 282.641 -1.03449 -4.04481 0
M  V30 3049 H 284.031 -5.05844 -4.42235 0
M  V30 3050 N 286.751 1.08385 -1.14413 0
M  V30 3051 C 287.683 2.1519 -0.789036 0
M  V30 3052 C 288.696 1.61638 0.19417 0
M  V30 3053 O 289.885 1.78479 -0.0275711 0
M  V30 3054 C 286.985 3.38565 -0.15058 0
M  V30 3055 C 286.158 4.21501 -1.16857 0
M  V30 3056 C 285.217 5.23277 -0.553832 0
M  V30 3057 O 284.243 5.56041 -1.21686 0
M  V30 3058 N 285.445 5.76629 0.669296 0
M  V30 3059 H 288.21 2.46257 -1.70814 0
M  V30 3060 H 285.771 1.24198 -1.03858 0
M  V30 3061 H 287.763 4.03777 0.273181 0
M  V30 3062 H 286.333 3.05299 0.671667 0
M  V30 3063 H 285.553 3.52265 -1.76926 0
M  V30 3064 H 286.841 4.73731 -1.85624 0
M  V30 3065 H 286.239 5.52243 1.22654 0
M  V30 3066 H 284.796 6.43521 1.03556 0
M  V30 3067 N 288.23 0.939286 1.26551 0
M  V30 3068 C 289.193 0.451987 2.24699 0
M  V30 3069 C 290.193 -0.435869 1.5478 0
M  V30 3070 O 291.383 -0.235314 1.72603 0
M  V30 3071 C 288.515 -0.348801 3.39111 0
M  V30 3072 H 289.708 1.3193 2.69322 0
M  V30 3073 H 287.261 0.721072 1.38673 0
M  V30 3074 H 287.996 -1.23444 2.99887 0
M  V30 3075 H 287.781 0.287945 3.91041 0
M  V30 3076 H 289.271 -0.679726 4.12031 0
M  V30 3077 N 289.708 -1.40897 0.706093 0
M  V30 3078 C 290.671 -2.29131 0.0562841 0
M  V30 3079 C 291.671 -1.44901 -0.697166 0
M  V30 3080 O 292.861 -1.65926 -0.530484 0
M  V30 3081 C 289.993 -3.27957 -0.93043 0
M  V30 3082 H 291.186 -2.88091 0.833284 0
M  V30 3083 H 288.739 -1.4906 0.470192 0
M  V30 3084 H 289.474 -2.73997 -1.73482 0
M  V30 3085 H 289.259 -3.90124 -0.393166 0
M  V30 3086 H 290.749 -3.94049 -1.38256 0
M  V30 3087 N 291.186 -0.45159 -1.50991 0
M  V30 3088 C 292.119 0.398179 -2.24699 0
M  V30 3089 C 293.097 1.01276 -1.27208 0
M  V30 3090 O 294.281 1.05247 -1.56382 0
M  V30 3091 C 291.408 1.55618 -3.00833 0
M  V30 3092 C 290.454 1.0609 -4.13095 0
M  V30 3093 S 291.287 -0.00865136 -5.35499 0
M  V30 3094 C 292.443 1.15369 -6.15175 0
M  V30 3095 H 292.676 -0.227555 -2.96428 0
M  V30 3096 H 290.209 -0.236251 -1.52582 0
M  V30 3097 H 292.167 2.21997 -3.45293 0
M  V30 3098 H 290.828 2.15337 -2.28667 0
M  V30 3099 H 290.021 1.92726 -4.65696 0
M  V30 3100 H 289.623 0.47513 -3.7097 0
M  V30 3101 H 291.915 2.06925 -6.45126 0
M  V30 3102 H 292.858 0.667344 -7.04948 0
M  V30 3103 H 293.266 1.3987 -5.46897 0
M  V30 3104 N 292.664 1.56529 -0.183458 0
M  V30 3105 C 293.596 2.15747 0.773697 0
M  V30 3106 C 294.609 1.1162 1.1851 0
M  V30 3107 O 295.798 1.3876 1.12285 0
M  V30 3108 C 292.898 2.6952 2.05456 0
M  V30 3109 C 292.071 3.98429 1.8048 0
M  V30 3110 C 291.13 4.37145 2.92901 0
M  V30 3111 O 290.156 5.04791 2.6301 0
M  V30 3112 N 291.358 3.99695 4.2098 0
M  V30 3113 H 294.123 2.98505 0.26736 0
M  V30 3114 H 291.684 1.619 -0.0010878 0
M  V30 3115 H 293.676 2.92412 2.79781 0
M  V30 3116 H 292.246 1.91282 2.47245 0
M  V30 3117 H 291.466 3.8379 0.899947 0
M  V30 3118 H 292.754 4.82597 1.61175 0
M  V30 3119 H 292.152 3.4526 4.48121 0
M  V30 3120 H 290.709 4.27562 4.9197 0
M  V30 3121 N 294.142 -0.090211 1.57342 0
M  V30 3122 C 295.075 -1.14035 1.97664 0
M  V30 3123 C 296.053 -1.38576 0.850616 0
M  V30 3124 O 297.237 -1.52255 1.11134 0
M  V30 3125 C 294.364 -2.48854 2.2976 0
M  V30 3126 C 293.41 -2.40564 3.52181 0
M  V30 3127 S 294.243 -1.81745 5.03715 0
M  V30 3128 C 295.399 -3.18178 5.38993 0
M  V30 3129 H 295.632 -0.796636 2.86428 0
M  V30 3130 H 293.165 -0.298072 1.51496 0
M  V30 3131 H 295.123 -3.26413 2.48927 0
M  V30 3132 H 293.784 -2.80393 1.41558 0
M  V30 3133 H 292.977 -3.39942 3.72096 0
M  V30 3134 H 292.579 -1.71135 3.32549 0
M  V30 3135 H 294.871 -4.14461 5.35937 0
M  V30 3136 H 295.814 -3.03062 6.39968 0
M  V30 3137 H 296.222 -3.17935 4.66452 0
M  V30 3138 N 295.62 -1.53406 -0.361157 0
M  V30 3139 C 296.55 -1.83136 -1.44857 0
M  V30 3140 C 297.531 -0.685174 -1.5569 0
M  V30 3141 O 298.716 -0.93544 -1.70186 0
M  V30 3142 C 295.846 -2.02522 -2.82138 0
M  V30 3143 C 294.8 -3.18302 -2.86126 0
M  V30 3144 C 294.126 -3.22989 -4.26125 0
M  V30 3145 C 295.426 -4.56796 -2.53248 0
M  V30 3146 H 297.12 -2.74201 -1.20226 0
M  V30 3147 H 294.666 -1.31938 -0.576922 0
M  V30 3148 H 296.619 -2.21904 -3.58241 0
M  V30 3149 H 295.343 -1.08172 -3.08166 0
M  V30 3150 H 294.002 -2.98747 -2.12475 0
M  V30 3151 H 293.65 -2.26267 -4.49235 0
M  V30 3152 H 293.35 -4.00781 -4.29708 0
M  V30 3153 H 294.874 -3.44559 -5.04094 0
M  V30 3154 H 296.288 -4.7631 -3.19064 0
M  V30 3155 H 294.685 -5.36862 -2.68141 0
M  V30 3156 H 295.755 -4.61606 -1.48484 0
M  V30 3157 N 297.098 0.621204 -1.44841 0
M  V30 3158 C 298.045 1.73267 -1.5247 0
M  V30 3159 C 299.015 1.6189 -0.371611 0
M  V30 3160 O 300.2 1.81668 -0.58321 0
M  V30 3161 C 297.34 3.11545 -1.48438 0
M  V30 3162 C 296.453 3.33827 -2.74196 0
M  V30 3163 C 295.588 4.62133 -2.61929 0
M  V30 3164 C 294.627 4.77627 -3.82804 0
M  V30 3165 N 293.764 5.97219 -3.69153 0
M  V30 3166 H 298.604 1.66082 -2.47428 0
M  V30 3167 H 296.141 0.810026 -1.22788 0
M  V30 3168 H 298.099 3.91528 -1.4409 0
M  V30 3169 H 296.729 3.1772 -0.570402 0
M  V30 3170 H 295.781 2.47715 -2.88689 0
M  V30 3171 H 297.093 3.41153 -3.6389 0
M  V30 3172 H 296.247 5.50291 -2.5547 0
M  V30 3173 H 294.986 4.57182 -1.69811 0
M  V30 3174 H 293.991 3.87896 -3.89637 0
M  V30 3175 H 295.216 4.84385 -4.75971 0
M  V30 3176 H 293.162 5.93339 -2.79794 0
M  V30 3177 H 293.079 6.05644 -4.52472 0
M  V30 3178 H 294.347 6.87912 -3.66603 0
M  V30 3179 N 298.576 1.31904 0.862503 0
M  V30 3180 C 299.486 1.22161 2.00285 0
M  V30 3181 C 300.502 0.136785 1.73462 0
M  V30 3182 O 301.678 0.355994 1.98229 0
M  V30 3183 C 298.743 0.937093 3.33796 0
M  V30 3184 C 297.804 2.10957 3.73893 0
M  V30 3185 C 297.037 1.83853 5.01033 0
M  V30 3186 O 297.26 0.777274 5.65079 0
M  V30 3187 O 296.194 2.69741 5.38074 0
M  V30 3188 H 300.02 2.18008 2.11439 0
M  V30 3189 H 297.605 1.11716 0.991957 0
M  V30 3190 H 299.487 0.794583 4.13841 0
M  V30 3191 H 298.162 0.00871894 3.23699 0
M  V30 3192 H 297.069 2.30752 2.94456 0
M  V30 3193 H 298.402 3.02046 3.88625 0
M  V30 3194 N 300.054 -1.07777 1.14986 0
M  V30 3195 C 301.282 -1.84018 0.945773 0
M  V30 3196 C 301.697 -1.81897 -0.505863 0
M  V30 3197 O 301.054 -1.22726 -1.35072 0
M  V30 3198 C 301.105 -3.31287 1.44677 0
M  V30 3199 O 300.826 -3.33449 2.84154 0
M  V30 3200 C 302.327 -4.24311 1.28355 0
M  V30 3201 H 299.547 -0.580716 0.336169 0
M  V30 3202 H 302.091 -1.36077 1.52654 0
M  V30 3203 H 300.246 -3.76594 0.908625 0
M  V30 3204 H 300.66 -4.25427 3.06777 0
M  V30 3205 H 302.134 -5.2573 1.68261 0
M  V30 3206 H 302.611 -4.38612 0.227184 0
M  V30 3207 H 303.217 -3.84836 1.81056 0
M  V30 3208 N 301.532 -0.945985 -1.26051 0
M  V30 3209 C 302.781 -0.591836 -1.92822 0
M  V30 3210 C 303.094 0.873956 -1.7499 0
M  V30 3211 O 304.3 1.33769 -2.36259 0
M  V30 3212 C 302.756 -1.00776 -3.45503 0
M  V30 3213 C 302.364 -2.4955 -3.7206 0
M  V30 3214 C 304.108 -0.725735 -4.1825 0
M  V30 3215 C 302.015 -2.84988 -5.18205 0
M  V30 3216 H 300.945 -0.217635 -0.721908 0
M  V30 3217 H 303.596 -1.14927 -1.43052 0
M  V30 3218 H 301.978 -0.378812 -3.94184 0
M  V30 3219 H 303.152 -3.1739 -3.34066 0
M  V30 3220 H 301.467 -2.75133 -3.12555 0
M  V30 3221 H 304.064 -0.966771 -5.25887 0
M  V30 3222 H 304.407 0.337639 -4.14929 0
M  V30 3223 H 304.94 -1.31463 -3.7545 0
M  V30 3224 H 301.679 -3.90307 -5.26631 0
M  V30 3225 H 301.199 -2.21813 -5.57278 0
M  V30 3226 H 302.878 -2.73712 -5.86252 0
M  V30 3227 N 303.011 1.40521 -0.713556 0
M  V30 3228 C 303.959 2.32549 -0.0485227 0
M  V30 3229 C 304.953 1.51931 0.74922 0
M  V30 3230 O 306.159 1.67745 0.652816 0
M  V30 3231 H 302.534 0.751994 0.00311138 0
M  V30 3232 H 304.505 2.86291 -0.841443 0
M  V30 3233 C 303.254 3.36879 0.860687 0
M  V30 3234 H 302.577 3.98978 0.256246 0
M  V30 3235 H 304.017 4.03772 1.294 0
M  V30 3236 C 302.476 2.72197 1.9852 0
M  V30 3237 O 303.006 2.5837 3.07584 0
M  V30 3238 N 301.212 2.30612 1.76823 0
M  V30 3239 H 300.759 2.42059 0.881217 0
M  V30 3240 H 300.717 1.87672 2.52243 0
M  V30 3241 N 304.489 0.459591 1.5075 0
M  V30 3242 C 305.399 -0.34613 2.32033 0
M  V30 3243 C 306.415 -1.00686 1.41909 0
M  V30 3244 O 307.591 -0.997361 1.7497 0
M  V30 3245 C 304.656 -1.42029 3.16273 0
M  V30 3246 C 303.717 -0.777362 4.22203 0
M  V30 3247 C 302.95 -1.80034 5.02418 0
M  V30 3248 O 303.173 -3.02544 4.83553 0
M  V30 3249 O 302.107 -1.37853 5.85901 0
M  V30 3250 H 305.933 0.318054 3.0203 0
M  V30 3251 H 303.518 0.221663 1.47746 0
M  V30 3252 H 305.4 -2.04275 3.68578 0
M  V30 3253 H 304.075 -2.06815 2.49016 0
M  V30 3254 H 302.982 -0.116256 3.73919 0
M  V30 3255 H 304.315 -0.172634 4.91897 0
M  V30 3256 N 305.967 -1.56429 0.191757 0
M  V30 3257 C 306.877 -2.22541 -0.742481 0
M  V30 3258 C 307.893 -1.22342 -1.23727 0
M  V30 3259 O 309.069 -1.55069 -1.28513 0
M  V30 3260 C 306.134 -2.8692 -1.94623 0
M  V30 3261 C 305.195 -4.02378 -1.49633 0
M  V30 3262 C 304.428 -4.63678 -2.6427 0
M  V30 3263 O 304.651 -4.23895 -3.81666 0
M  V30 3264 O 303.585 -5.53202 -2.37174 0
M  V30 3265 H 307.411 -3.02977 -0.209462 0
M  V30 3266 H 304.996 -1.49353 -0.0373832 0
M  V30 3267 H 306.878 -3.27663 -2.64982 0
M  V30 3268 H 305.553 -2.09466 -2.46791 0
M  V30 3269 H 304.46 -3.66265 -0.761636 0
M  V30 3270 H 305.793 -4.81487 -1.02134 0
M  V30 3271 N 307.445 0.0818655 -1.57387 0
M  V30 3272 C 308.408 1.08265 -2.02018 0
M  V30 3273 C 309.408 1.32183 -0.915664 0
M  V30 3274 O 310.598 1.28073 -1.18081 0
M  V30 3275 C 307.73 2.42871 -2.39221 0
M  V30 3276 H 308.923 0.698204 -2.91659 0
M  V30 3277 H 306.476 0.327303 -1.52835 0
M  V30 3278 H 307.211 2.86167 -1.52575 0
M  V30 3279 H 306.996 2.26855 -3.19811 0
M  V30 3280 H 308.486 3.14826 -2.74362 0
M  V30 3281 N 308.923 1.53595 0.353017 0
M  V30 3282 C 309.886 1.80232 1.41594 0
M  V30 3283 C 310.886 0.673081 1.46035 0
M  V30 3284 O 312.076 0.941335 1.46576 0
M  V30 3285 C 309.208 1.93578 2.80607 0
M  V30 3286 H 310.401 2.75174 1.19244 0
M  V30 3287 H 307.954 1.44864 0.586872 0
M  V30 3288 H 308.689 1.00746 3.08254 0
M  V30 3289 H 308.474 2.75724 2.78781 0
M  V30 3290 H 309.964 2.15735 3.57558 0
M  V30 3291 N 310.401 -0.613514 1.45168 0
M  V30 3292 C 311.311 -1.75296 1.55912 0
M  V30 3293 C 312.327 -1.68244 0.443856 0
M  V30 3294 O 313.503 -1.88706 0.70371 0
M  V30 3295 C 310.568 -3.1174 1.5172 0
M  V30 3296 C 309.629 -3.30291 2.74238 0
M  V30 3297 C 308.862 -4.60226 2.70236 0
M  V30 3298 O 309.085 -5.42168 1.77229 0
M  V30 3299 O 308.019 -4.81361 3.61352 0
M  V30 3300 H 311.845 -1.69183 2.52212 0
M  V30 3301 H 309.43 -0.776886 1.27612 0
M  V30 3302 H 311.312 -3.93044 1.51968 0
M  V30 3303 H 309.987 -3.18357 0.585697 0
M  V30 3304 H 308.894 -2.48598 2.79553 0
M  V30 3305 H 310.227 -3.28547 3.66494 0
M  V30 3306 N 311.879 -1.3236 -0.855495 0
M  V30 3307 C 313.125 -1.24064 -1.61182 0
M  V30 3308 C 313.48 0.195914 -1.914 0
M  V30 3309 O 312.773 1.13345 -1.54478 0
M  V30 3310 C 312.967 -2.03275 -2.93963 0
M  V30 3311 C 312.796 -3.54486 -2.76712 0
M  V30 3312 C 311.566 -4.23824 -2.75139 0
M  V30 3313 C 313.764 -4.49154 -2.50531 0
M  V30 3314 N 311.746 -5.61095 -2.4909 0
M  V30 3315 C 313.117 -5.74195 -2.3388 0
M  V30 3316 C 315.172 -4.3842 -2.35992 0
M  V30 3317 C 313.875 -6.89716 -2.04168 0
M  V30 3318 C 315.901 -5.53739 -2.0767 0
M  V30 3319 C 315.263 -6.77779 -1.9182 0
M  V30 3320 H 311.362 -0.509139 -0.59355 0
M  V30 3321 H 313.946 -1.66715 -1.00569 0
M  V30 3322 H 312.117 -1.6297 -3.52555 0
M  V30 3323 H 313.849 -1.86881 -3.58967 0
M  V30 3324 H 310.604 -3.75934 -2.88047 0
M  V30 3325 H 311.028 -6.33411 -2.38996 0
M  V30 3326 H 315.67 -3.43172 -2.46967 0
M  V30 3327 H 313.388 -7.84977 -1.9193 0
M  V30 3328 H 316.974 -5.4736 -1.97201 0
M  V30 3329 H 315.854 -7.65504 -1.70217 0
M  V30 3330 N 313.357 1.07166 -1.15556 0
M  V30 3331 C 314.634 1.76546 -0.842069 0
M  V30 3332 C 315.014 2.00453 0.661939 0
M  V30 3333 O 314.362 1.62452 1.60691 0
M  V30 3334 C 314.572 3.07266 -1.65495 0
M  V30 3335 C 315.92 3.81578 -1.86234 0
M  V30 3336 O 316.944 3.17083 -1.62287 0
M  V30 3337 O 315.803 4.97419 -2.26355 0
M  V30 3338 H 312.897 0.766756 -0.309862 0
M  V30 3339 H 315.443 1.13514 -1.26145 0
M  V30 3340 H 314.215 2.85494 -2.67598 0
M  V30 3341 H 313.838 3.7803 -1.23203 0
M  V30 3342 N 314.835 0.952656 1.25548 0
M  V30 3343 C 316.251 0.656769 1.4546 0
M  V30 3344 C 316.451 -0.78633 1.85524 0
M  V30 3345 O 315.507 -1.56183 1.98402 0
M  V30 3346 C 316.82 1.62801 2.52817 0
M  V30 3347 C 318.368 1.63897 2.66659 0
M  V30 3348 C 318.843 2.5978 3.77198 0
M  V30 3349 N 320.334 2.58133 3.84606 0
M  V30 3350 C 321.069 3.29003 4.69621 0
M  V30 3351 N 320.565 4.09339 5.58939 0
M  V30 3352 N 322.358 3.179 4.63569 0
M  V30 3353 H 314.509 1.88526 0.978344 0
M  V30 3354 H 316.772 0.810815 0.491206 0
M  V30 3355 H 316.478 2.65869 2.30232 0
M  V30 3356 H 316.352 1.38898 3.50695 0
M  V30 3357 H 318.739 0.615481 2.8861 0
M  V30 3358 H 318.82 1.91858 1.69187 0
M  V30 3359 H 318.464 3.62254 3.55997 0
M  V30 3360 H 318.394 2.29105 4.7415 0
M  V30 3361 H 320.885 1.99809 3.20757 0
M  V30 3362 H 321.198 4.6034 6.20731 0
M  V30 3363 H 319.543 4.13438 5.58654 0
M  V30 3364 H 322.734 2.54612 3.92798 0
M  V30 3365 H 322.907 3.73398 5.29602 0
M  V30 3366 N 316.313 -1.40141 0.720998 0
M  V30 3367 C 317.559 -2.01084 0.263231 0
M  V30 3368 C 317.892 -1.57052 -1.14229 0
M  V30 3369 O 317.167 -0.793027 -1.77599 0
M  V30 3370 C 317.45 -3.58401 0.349344 0
M  V30 3371 C 317.303 -4.12491 1.79363 0
M  V30 3372 C 318.622 -4.39231 -0.276351 0
M  V30 3373 H 315.741 -0.730572 0.0971228 0
M  V30 3374 H 318.383 -1.66543 0.914518 0
M  V30 3375 H 316.533 -3.87958 -0.205165 0
M  V30 3376 H 318.205 -3.93711 2.40394 0
M  V30 3377 H 316.448 -3.66576 2.31958 0
M  V30 3378 H 317.119 -5.21646 1.80524 0
M  V30 3379 H 319.595 -4.15637 0.196184 0
M  V30 3380 H 318.471 -5.48586 -0.185681 0
M  V30 3381 H 318.732 -4.20643 -1.36059 0
M  V30 3382 N 317.792 -0.46758 -1.50504 0
M  V30 3383 C 318.742 0.34698 -2.25344 0
M  V30 3384 C 319.726 0.964469 -1.2879 0
M  V30 3385 O 320.918 0.8776 -1.53711 0
M  V30 3386 C 318.047 1.43042 -3.1208 0
M  V30 3387 C 317.133 0.82084 -4.16081 0
M  V30 3388 N 317.524 -0.0567602 -5.05768 0
M  V30 3389 C 315.822 1.08517 -4.32597 0
M  V30 3390 C 316.523 -0.402343 -5.80307 0
M  V30 3391 N 315.499 0.221607 -5.43148 0
M  V30 3392 H 319.301 -0.329129 -2.92051 0
M  V30 3393 H 316.815 -0.281508 -1.59942 0
M  V30 3394 H 318.812 2.02712 -3.64299 0
M  V30 3395 H 317.472 2.10856 -2.46921 0
M  V30 3396 H 318.483 -0.425349 -5.1615 0
M  V30 3397 H 315.16 1.75855 -3.78657 0
M  V30 3398 H 316.55 -1.11834 -6.62528 0
M  V30 3399 N 319.27 1.56325 -0.20005 0
M  V30 3400 C 320.681 1.8408 0.31167 0
M  V30 3401 C 321.032 1.12087 1.61031 0
M  V30 3402 O 320.157 0.38332 2.12978 0
M  V30 3403 C 320.752 3.33932 0.57226 0
M  V30 3404 C 319.311 3.6208 1.02834 0
M  V30 3405 C 318.458 2.77186 0.079634 0
M  V30 3406 H 321.409 1.52939 -0.423729 0
M  V30 3407 H 321.43 3.52971 1.42096 0
M  V30 3408 H 320.942 3.86303 -0.37308 0
M  V30 3409 H 319.043 3.15147 1.98778 0
M  V30 3410 H 319.156 4.7023 0.917624 0
M  V30 3411 H 317.52 2.47951 0.582448 0
M  V30 3412 H 318.303 3.32347 -0.860238 0
M  V30 3413 N 320.748 -0.0735177 1.57428 0
M  V30 3414 C 321.994 -0.774145 1.87443 0
M  V30 3415 C 322.327 -1.77311 0.792103 0
M  V30 3416 O 321.602 -1.93492 -0.197793 0
M  V30 3417 C 321.885 -1.48367 3.28115 0
M  V30 3418 C 321.738 -0.501227 4.46999 0
M  V30 3419 C 323.057 -2.429 3.66998 0
M  V30 3420 H 320.176 -0.279971 0.681752 0
M  V30 3421 H 322.818 -0.0373616 1.89963 0
M  V30 3422 H 320.968 -2.11171 3.26097 0
M  V30 3423 H 322.64 0.121468 4.6114 0
M  V30 3424 H 320.883 0.183593 4.33411 0
M  V30 3425 H 321.554 -1.03526 5.42205 0
M  V30 3426 H 324.03 -1.90175 3.70098 0
M  V30 3427 H 322.906 -2.89549 4.66318 0
M  V30 3428 H 323.167 -3.27628 2.96837 0
M  V30 3429 N 322.226 -1.5378 -0.344866 0
M  V30 3430 C 323.176 -1.78057 -1.42407 0
M  V30 3431 C 324.16 -0.635732 -1.47808 0
M  V30 3432 O 325.352 -0.89508 -1.527 0
M  V30 3433 C 322.481 -1.99242 -2.79566 0
M  V30 3434 C 321.567 -3.19787 -2.78562 0
M  V30 3435 N 321.958 -4.41284 -2.47189 0
M  V30 3436 C 320.256 -3.2093 -3.0971 0
M  V30 3437 C 320.957 -5.23128 -2.54385 0
M  V30 3438 N 319.933 -4.59813 -2.89953 0
M  V30 3439 H 323.735 -2.69588 -1.17046 0
M  V30 3440 H 321.249 -1.52687 -0.553217 0
M  V30 3441 H 323.246 -2.14768 -3.57324 0
M  V30 3442 H 321.906 -1.08953 -3.05875 0
M  V30 3443 H 322.917 -4.68657 -2.20411 0
M  V30 3444 H 319.594 -2.40603 -3.41199 0
M  V30 3445 H 320.984 -6.30096 -2.333 0
M  V30 3446 N 323.704 0.605807 -1.45491 0
M  V30 3447 C 324.667 1.69836 -1.5391 0
M  V30 3448 C 325.667 1.55261 -0.418424 0
M  V30 3449 O 326.857 1.60296 -0.681965 0
M  V30 3450 C 323.989 3.09117 -1.43734 0
M  V30 3451 H 325.182 1.63738 -2.51257 0
M  V30 3452 H 322.735 0.821689 -1.32959 0
M  V30 3453 H 323.47 3.20791 -0.475788 0
M  V30 3454 H 323.255 3.21104 -2.25021 0
M  V30 3455 H 324.745 3.88696 -1.52661 0
M  V30 3456 N 325.182 1.32811 0.848464 0
M  V30 3457 C 326.43 1.23479 1.59991 0
M  V30 3458 C 326.751 -0.201853 1.93952 0
M  V30 3459 O 326.021 -1.12818 1.60153 0
M  V30 3460 H 324.601 0.454034 0.593179 0
M  V30 3461 H 327.263 1.66412 1.01455 0
M  V30 3462 H 326.359 1.82178 2.53412 0
M  V30 3463 N 326.66 -1.06551 1.16123 0
M  V30 3464 C 328.071 -1.60768 0.949232 0
M  V30 3465 C 328.422 -1.89523 -0.507508 0
M  V30 3466 O 327.547 -1.66671 -1.38021 0
M  V30 3467 C 328.142 -2.92086 1.71671 0
M  V30 3468 C 326.701 -3.43015 1.54977 0
M  V30 3469 C 325.848 -2.16947 1.72711 0
M  V30 3470 H 328.799 -0.895354 1.31031 0
M  V30 3471 H 328.82 -3.6138 1.19099 0
M  V30 3472 H 328.332 -2.71127 2.7769 0
M  V30 3473 H 326.433 -3.69039 0.513873 0
M  V30 3474 H 326.546 -4.18516 2.33198 0
M  V30 3475 H 324.91 -2.27041 1.15431 0
M  V30 3476 H 325.693 -1.98473 2.80113 0
M  V30 3477 N 328.138 -0.959301 -1.25041 0
M  V30 3478 C 329.387 -0.612254 -1.92183 0
M  V30 3479 C 329.7 0.855347 -1.75907 0
M  V30 3480 O 330.906 1.31256 -2.37664 0
M  V30 3481 C 329.362 -1.04435 -3.44414 0
M  V30 3482 C 328.97 -2.53482 -3.69393 0
M  V30 3483 C 330.714 -0.770055 -4.17457 0
M  V30 3484 C 328.621 -2.90468 -5.15153 0
M  V30 3485 H 327.551 -0.225279 -0.719559 0
M  V30 3486 H 330.202 -1.16438 -1.41825 0
M  V30 3487 H 328.584 -0.4206 -3.9376 0
M  V30 3488 H 329.758 -3.20916 -3.30681 0
M  V30 3489 H 328.073 -2.78432 -3.0962 0
M  V30 3490 H 330.67 -1.02249 -5.24832 0
M  V30 3491 H 331.013 0.293611 -4.15263 0
M  V30 3492 H 331.546 -1.35437 -3.74034 0
M  V30 3493 H 328.285 -3.95871 -5.22462 0
M  V30 3494 H 327.805 -2.27711 -5.54894 0
M  V30 3495 H 329.484 -2.79914 -5.83315 0
M  V30 3496 N 329.616 1.39756 -0.72842 0
M  V30 3497 C 330.579 2.29012 -0.0927297 0
M  V30 3498 C 331.579 1.45992 0.674025 0
M  V30 3499 O 332.769 1.66749 0.50402 0
M  V30 3500 C 329.901 3.29396 0.878137 0
M  V30 3501 H 331.094 2.86729 -0.879011 0
M  V30 3502 H 328.647 1.48293 -0.493847 0
M  V30 3503 H 329.382 2.76722 1.69101 0
M  V30 3504 H 329.167 3.907 0.331051 0
M  V30 3505 H 330.657 3.96199 1.3197 0
M  V30 3506 N 331.094 0.475555 1.50254 0
M  V30 3507 C 332.505 0.0215174 1.86688 0
M  V30 3508 C 332.856 -1.38467 1.39001 0
M  V30 3509 O 331.981 -2.02732 0.756894 0
M  V30 3510 C 332.576 0.0322715 3.38785 0
M  V30 3511 C 331.135 -0.366314 3.74613 0
M  V30 3512 C 330.282 0.415832 2.74164 0
M  V30 3513 H 333.233 0.689612 1.42934 0
M  V30 3514 H 333.254 -0.76889 3.7265 0
M  V30 3515 H 332.766 1.05584 3.73462 0
M  V30 3516 H 330.867 -1.39406 3.45538 0
M  V30 3517 H 330.98 -0.064555 4.79057 0
M  V30 3518 H 329.344 -0.131048 2.54363 0
M  V30 3519 H 330.127 1.43899 3.11686 0
M  V30 3520 N 332.573 -1.56217 0.208337 0
M  V30 3521 C 333.821 -1.97558 -0.426076 0
M  V30 3522 C 334.142 -1.09683 -1.61229 0
M  V30 3523 O 333.412 -0.170956 -1.95153 0
M  V30 3524 H 331.992 -0.729575 -0.160405 0
M  V30 3525 H 334.654 -1.92606 0.298155 0
M  V30 3526 H 333.75 -3.02672 -0.761312 0
M  V30 3527 N 334.051 0.0651679 -1.57465 0
M  V30 3528 C 334.983 1.10359 -2.00882 0
M  V30 3529 C 335.996 1.346 -0.915788 0
M  V30 3530 O 337.185 1.32723 -1.1936 0
M  V30 3531 C 334.285 2.45312 -2.33828 0
M  V30 3532 C 333.458 2.40934 -3.65061 0
M  V30 3533 C 332.517 3.58047 -3.85602 0
M  V30 3534 O 331.543 3.39175 -4.57109 0
M  V30 3535 N 332.745 4.78637 -3.28462 0
M  V30 3536 H 335.51 0.733807 -2.90578 0
M  V30 3537 H 333.071 0.253719 -1.599 0
M  V30 3538 H 335.063 3.22314 -2.44737 0
M  V30 3539 H 333.633 2.74267 -1.49988 0
M  V30 3540 H 332.853 1.49273 -3.64844 0
M  V30 3541 H 334.141 2.35117 -4.51218 0
M  V30 3542 H 333.539 4.96872 -2.70433 0
M  V30 3543 H 332.096 5.53127 -3.44809 0
M  V30 3544 N 335.529 1.53961 0.336706 0
M  V30 3545 C 336.462 1.77255 1.43722 0
M  V30 3546 C 337.44 0.62193 1.50236 0
M  V30 3547 O 338.624 0.857874 1.67847 0
M  V30 3548 C 335.751 1.87733 2.81912 0
M  V30 3549 C 334.797 3.09933 2.92991 0
M  V30 3550 S 335.63 4.68836 2.58753 0
M  V30 3551 C 336.786 4.82202 3.99039 0
M  V30 3552 H 337.019 2.70322 1.23748 0
M  V30 3553 H 334.552 1.44917 0.532777 0
M  V30 3554 H 336.51 1.94455 3.61521 0
M  V30 3555 H 335.171 0.956666 2.99177 0
M  V30 3556 H 334.364 3.1396 3.94265 0
M  V30 3557 H 333.966 3.01472 2.21338 0
M  V30 3558 H 336.258 4.64032 4.9364 0
M  V30 3559 H 337.201 5.84298 4.00002 0
M  V30 3560 H 337.609 4.10604 3.87382 0
M  V30 3561 N 337.007 -0.598083 1.45811 0
M  V30 3562 C 338.423 -0.919847 1.30426 0
M  V30 3563 C 338.623 -1.99759 0.264303 0
M  V30 3564 O 337.679 -2.50221 -0.338472 0
M  V30 3565 C 338.992 -1.35176 2.68603 0
M  V30 3566 C 340.54 -1.46546 2.76574 0
M  V30 3567 C 341.015 -1.9311 4.15298 0
M  V30 3568 N 342.506 -2.00328 4.1764 0
M  V30 3569 C 343.241 -2.37599 5.21856 0
M  V30 3570 N 342.737 -2.73771 6.36413 0
M  V30 3571 N 344.53 -2.38021 5.09218 0
M  V30 3572 H 336.681 0.114111 2.12093 0
M  V30 3573 H 338.944 -0.0116121 0.947929 0
M  V30 3574 H 338.65 -0.633969 3.45939 0
M  V30 3575 H 338.524 -2.3164 2.97696 0
M  V30 3576 H 340.911 -2.17415 1.99537 0
M  V30 3577 H 340.992 -0.483727 2.51185 0
M  V30 3578 H 340.636 -1.22824 4.92825 0
M  V30 3579 H 340.566 -2.92213 4.38086 0
M  V30 3580 H 343.057 -1.74925 3.34977 0
M  V30 3581 H 343.37 -3.0112 7.11721 0
M  V30 3582 H 341.715 -2.71445 6.39799 0
M  V30 3583 H 344.906 -2.09174 4.18765 0
M  V30 3584 H 345.079 -2.66741 5.90554 0
M  V30 3585 N 338.485 -1.33259 -0.841409 0
M  V30 3586 C 339.395 -1.25332 -1.98316 0
M  V30 3587 C 340.411 -0.164364 -1.73222 0
M  V30 3588 O 341.587 -0.387486 -1.97637 0
M  V30 3589 C 338.652 -0.990078 -3.32262 0
M  V30 3590 C 337.713 -2.16879 -3.70489 0
M  V30 3591 C 336.946 -1.91801 -4.98044 0
M  V30 3592 O 337.169 -0.867075 -5.63771 0
M  V30 3593 O 336.103 -2.78267 -5.33714 0
M  V30 3594 H 339.929 -2.21344 -2.07944 0
M  V30 3595 H 337.514 -1.1328 -0.974058 0
M  V30 3596 H 339.396 -0.860321 -4.12524 0
M  V30 3597 H 338.071 -0.0602155 -3.23644 0
M  V30 3598 H 336.978 -2.35407 -2.90748 0
M  V30 3599 H 338.311 -3.0819 -3.8377 0
M  V30 3600 N 339.963 1.05934 -1.16686 0
M  V30 3601 C 341.374 1.60263 -0.957745 0
M  V30 3602 C 341.725 1.89789 0.49745 0
M  V30 3603 O 340.85 1.67401 1.37135 0
M  V30 3604 C 341.445 2.91172 -1.73218 0
M  V30 3605 C 340.004 3.42188 -1.56794 0
M  V30 3606 C 339.151 2.16028 -1.73859 0
M  V30 3607 H 342.102 0.888392 -1.31504 0
M  V30 3608 H 342.123 3.60744 -1.21014 0
M  V30 3609 H 341.635 2.6965 -2.79124 0
M  V30 3610 H 339.736 3.68762 -0.533437 0
M  V30 3611 H 339.849 4.17273 -2.35414 0
M  V30 3612 H 338.213 2.26426 -1.16633 0
M  V30 3613 H 338.996 1.96985 -2.81161 0
M  V30 3614 N 341.441 0.965919 1.2453 0
M  V30 3615 C 342.857 0.67216 1.44756 0
M  V30 3616 C 343.057 -0.766609 1.86347 0
M  V30 3617 O 342.113 -1.5407 2.00047 0
M  V30 3618 C 343.426 1.65473 2.51076 0
M  V30 3619 C 344.974 1.66716 2.64905 0
M  V30 3620 C 345.449 2.63766 3.74421 0
M  V30 3621 N 346.94 2.62198 3.81846 0
M  V30 3622 C 347.675 3.33966 4.66106 0
M  V30 3623 N 347.171 4.15245 5.54566 0
M  V30 3624 N 348.964 3.22799 4.60171 0
M  V30 3625 H 341.115 1.89553 0.958293 0
M  V30 3626 H 343.378 0.815979 0.482579 0
M  V30 3627 H 343.084 2.68296 2.27399 0
M  V30 3628 H 342.958 1.4261 3.49202 0
M  V30 3629 H 345.345 0.646057 2.87941 0
M  V30 3630 H 345.426 1.93642 1.67142 0
M  V30 3631 H 345.07 3.6601 3.52135 0
M  V30 3632 H 345 2.34121 4.71694 0
M  V30 3633 H 347.491 2.032 3.18619 0
M  V30 3634 H 347.804 4.66898 6.15814 0
M  V30 3635 H 346.149 4.1934 5.54237 0
M  V30 3636 H 349.34 2.58764 3.90075 0
M  V30 3637 H 349.513 3.78994 5.25612 0
M  V30 3638 N 342.919 -1.39368 0.735821 0
M  V30 3639 C 344.167 -2.00101 0.283562 0
M  V30 3640 C 344.488 -1.5868 -1.13338 0
M  V30 3641 O 343.758 -0.835423 -1.77193 0
M  V30 3642 H 342.338 -0.740024 0.101851 0
M  V30 3643 H 345 -1.70404 0.945962 0
M  V30 3644 H 344.096 -3.10323 0.332604 0
M  V30 3645 N 344.397 -0.483516 -1.5 0
M  V30 3646 C 345.622 0.0667119 -2.07293 0
M  V30 3647 C 346.047 1.3164 -1.3436 0
M  V30 3648 O 345.405 1.76945 -0.394987 0
M  V30 3649 C 345.453 0.321126 -3.59167 0
M  V30 3650 O 344.557 1.39927 -3.87936 0
M  V30 3651 H 343.898 -0.0184758 -0.663743 0
M  V30 3652 H 346.428 -0.678125 -1.93035 0
M  V30 3653 H 346.438 0.557906 -4.04168 0
M  V30 3654 H 345.113 -0.592007 -4.11665 0
M  V30 3655 H 343.69 1.14882 -3.54763 0
M  V30 3656 N 345.875 1.56104 -0.216619 0
M  V30 3657 C 347.152 1.89988 0.465165 0
M  V30 3658 C 347.532 1.13326 1.78102 0
M  V30 3659 O 346.88 0.241033 2.27225 0
M  V30 3660 C 347.09 3.42646 0.662939 0
M  V30 3661 C 348.438 4.13311 0.972602 0
M  V30 3662 O 349.462 3.48217 0.749901 0
M  V30 3663 O 348.321 5.28396 1.39499 0
M  V30 3664 H 345.415 0.78979 0.245276 0
M  V30 3665 H 347.961 1.67721 -0.258436 0
M  V30 3666 H 346.733 3.90399 -0.26543 0
M  V30 3667 H 346.356 3.70677 1.43821 0
M  V30 3668 N 347.353 -0.0568162 1.57498 0
M  V30 3669 C 348.602 -0.752001 1.87157 0
M  V30 3670 C 348.915 -1.77978 0.811375 0
M  V30 3671 O 350.121 -2.52559 0.996293 0
M  V30 3672 C 348.577 -1.38844 3.3204 0
M  V30 3673 C 348.185 -0.398456 4.46225 0
M  V30 3674 C 349.929 -2.06512 3.70882 0
M  V30 3675 C 347.836 -1.04166 5.82154 0
M  V30 3676 H 346.766 -0.28461 0.698222 0
M  V30 3677 H 349.417 -0.00561272 1.83499 0
M  V30 3678 H 347.799 -2.1836 3.30356 0
M  V30 3679 H 348.973 0.367977 4.59328 0
M  V30 3680 H 347.288 0.174592 4.16034 0
M  V30 3681 H 349.885 -2.55437 4.6974 0
M  V30 3682 H 350.228 -2.87117 3.01445 0
M  V30 3683 H 350.761 -1.33808 3.7462 0
M  V30 3684 H 347.5 -0.275614 6.5492 0
M  V30 3685 H 347.02 -1.7786 5.72823 0
M  V30 3686 H 348.699 -1.55715 6.27982 0
M  V30 3687 N 348.832 -1.54138 -0.328536 0
M  V30 3688 C 349.795 -1.82462 -1.38709 0
M  V30 3689 C 350.795 -0.696229 -1.44946 0
M  V30 3690 O 351.985 -0.964535 -1.4506 0
M  V30 3691 C 349.117 -1.98018 -2.77492 0
M  V30 3692 H 350.31 -2.77037 -1.14851 0
M  V30 3693 H 347.863 -1.45779 -0.563751 0
M  V30 3694 H 348.598 -1.05637 -3.06613 0
M  V30 3695 H 348.383 -2.80124 -2.74359 0
M  V30 3696 H 349.873 -2.21396 -3.54081 0
M  V30 3697 N 350.31 0.590341 -1.46126 0
M  V30 3698 C 351.558 1.34616 -1.50742 0
M  V30 3699 C 351.879 1.94363 -0.157486 0
M  V30 3700 O 351.149 1.78136 0.815136 0
M  V30 3701 H 349.729 0.499789 -0.555175 0
M  V30 3702 H 352.391 0.691953 -1.82203 0
M  V30 3703 H 351.487 2.15678 -2.25587 0
M  V30 3704 N 351.788 1.33704 0.83433 0
M  V30 3705 C 353.016 1.28467 1.62185 0
M  V30 3706 C 353.431 -0.143526 1.88254 0
M  V30 3707 O 352.788 -1.08709 1.4659 0
M  V30 3708 C 352.839 2.06174 2.96942 0
M  V30 3709 O 352.56 3.43422 2.72016 0
M  V30 3710 C 354.061 2.08201 3.91366 0
M  V30 3711 H 351.281 0.4424 0.504503 0
M  V30 3712 H 353.825 1.76145 1.03891 0
M  V30 3713 H 351.98 1.62167 3.51825 0
M  V30 3714 H 352.394 3.83453 3.57861 0
M  V30 3715 H 353.868 2.67017 4.83121 0
M  V30 3716 H 354.345 1.07343 4.2588 0
M  V30 3717 H 354.951 2.52246 3.42421 0
M  V30 3718 N 353.266 -1.05314 1.17247 0
M  V30 3719 C 354.494 -1.81971 0.984593 0
M  V30 3720 C 354.909 -1.82929 -0.467166 0
M  V30 3721 O 354.266 -1.25564 -1.32438 0
M  V30 3722 C 354.317 -3.28143 1.51672 0
M  V30 3723 O 354.038 -3.27347 2.91163 0
M  V30 3724 C 355.539 -4.21493 1.37326 0
M  V30 3725 H 352.759 -0.573455 0.348411 0
M  V30 3726 H 355.303 -1.32808 1.55506 0
M  V30 3727 H 353.458 -3.74582 0.988302 0
M  V30 3728 H 353.872 -4.18824 3.15732 0
M  V30 3729 H 355.346 -5.22043 1.79375 0
M  V30 3730 H 355.823 -4.38031 0.320169 0
M  V30 3731 H 356.429 -3.80909 1.89178 0
M  V30 3732 N 354.744 -0.972509 -1.24016 0
M  V30 3733 C 355.969 -0.654417 -1.96805 0
M  V30 3734 C 356.394 0.770398 -1.716 0
M  V30 3735 O 355.752 1.52361 -0.982647 0
M  V30 3736 C 355.8 -0.941031 -3.48105 0
M  V30 3737 O 354.904 -0.0289472 -4.1239 0
M  V30 3738 H 354.245 -0.24692 -0.616382 0
M  V30 3739 H 356.775 -1.30396 -1.57664 0
M  V30 3740 H 356.785 -0.87452 -3.98517 0
M  V30 3741 H 355.46 -1.97939 -3.65777 0
M  V30 3742 H 354.037 -0.149192 -3.72601 0
M  V30 3743 N 356.222 1.38976 -0.743202 0
M  V30 3744 C 357.45 2.04636 -0.30525 0
M  V30 3745 C 357.865 1.56044 1.06281 0
M  V30 3746 O 357.222 0.728921 1.67311 0
M  V30 3747 C 357.273 3.60193 -0.307177 0
M  V30 3748 O 356.994 4.06998 -1.62124 0
M  V30 3749 C 358.495 4.4306 0.145928 0
M  V30 3750 H 355.715 0.65788 -0.132041 0
M  V30 3751 H 358.259 1.77866 -1.00915 0
M  V30 3752 H 356.414 3.85835 0.347898 0
M  V30 3753 H 356.828 5.01371 -1.54036 0
M  V30 3754 H 358.302 5.51921 0.0934183 0
M  V30 3755 H 358.779 4.22706 1.19231 0
M  V30 3756 H 359.385 4.22584 -0.479886 0
M  V30 3757 N 357.7 0.491464 1.49741 0
M  V30 3758 C 358.63 -0.28154 2.31796 0
M  V30 3759 C 359.611 -0.971473 1.3963 0
M  V30 3760 O 360.796 -0.964719 1.68543 0
M  V30 3761 C 357.926 -1.35203 3.19902 0
M  V30 3762 C 356.88 -0.782529 4.20786 0
M  V30 3763 C 356.206 -1.95283 4.97764 0
M  V30 3764 C 357.506 0.21999 5.21837 0
M  V30 3765 H 359.2 0.403355 2.96671 0
M  V30 3766 H 356.746 0.195425 1.42668 0
M  V30 3767 H 358.699 -1.90045 3.76113 0
M  V30 3768 H 357.423 -2.06598 2.52953 0
M  V30 3769 H 356.082 -0.255928 3.65706 0
M  V30 3770 H 355.73 -2.65423 4.2727 0
M  V30 3771 H 355.43 -1.57789 5.66018 0
M  V30 3772 H 356.954 -2.50577 5.56816 0
M  V30 3773 H 358.368 -0.23996 5.72798 0
M  V30 3774 H 356.765 0.51026 5.97927 0
M  V30 3775 H 357.835 1.13911 4.7133 0
M  V30 3776 N 359.178 -1.55987 0.224894 0
M  V30 3777 C 360.11 -2.17722 -0.716224 0
M  V30 3778 C 361.123 -1.14723 -1.15509 0
M  V30 3779 O 362.312 -1.41688 -1.08567 0
M  V30 3780 C 359.412 -2.74873 -1.98238 0
M  V30 3781 C 358.585 -4.03074 -1.69853 0
M  V30 3782 C 357.644 -4.44757 -2.81208 0
M  V30 3783 O 356.67 -5.11587 -2.49534 0
M  V30 3784 N 357.872 -4.10716 -4.10235 0
M  V30 3785 H 360.637 -2.99109 -0.188123 0
M  V30 3786 H 358.198 -1.6184 0.0440123 0
M  V30 3787 H 360.19 -2.99727 -2.7193 0
M  V30 3788 H 358.76 -1.9777 -2.42086 0
M  V30 3789 H 357.98 -3.86041 -0.797875 0
M  V30 3790 H 359.268 -4.86701 -1.48324 0
M  V30 3791 H 358.666 -3.57019 -4.38809 0
M  V30 3792 H 357.223 -4.40455 -4.80461 0
M  V30 3793 N 360.656 0.0484629 -1.57525 0
M  V30 3794 C 361.566 1.07241 -2.08654 0
M  V30 3795 C 362.582 1.409 -1.02095 0
M  V30 3796 O 363.758 1.50609 -1.33712 0
M  V30 3797 C 360.823 2.36008 -2.5397 0
M  V30 3798 C 359.884 2.09108 -3.7493 0
M  V30 3799 C 359.117 3.31736 -4.18075 0
M  V30 3800 O 359.34 4.41714 -3.60895 0
M  V30 3801 O 358.274 3.18576 -5.10679 0
M  V30 3802 H 362.1 0.667965 -2.96263 0
M  V30 3803 H 359.685 0.26417 -1.47046 0
M  V30 3804 H 361.567 3.11747 -2.83535 0
M  V30 3805 H 360.242 2.75786 -1.69481 0
M  V30 3806 H 359.149 1.31 -3.50414 0
M  V30 3807 H 360.482 1.74198 -4.60343 0
M  V30 3808 N 362.134 1.5431 0.320358 0
M  V30 3809 C 363.066 1.80262 1.41556 0
M  V30 3810 C 364.079 0.684723 1.477 0
M  V30 3811 O 365.268 0.961886 1.50366 0
M  V30 3812 C 362.368 1.90825 2.8007 0
M  V30 3813 C 361.541 3.21023 2.97091 0
M  V30 3814 C 360.6 3.22247 4.15985 0
M  V30 3815 O 359.626 3.95871 4.08992 0
M  V30 3816 N 360.828 2.46258 5.25678 0
M  V30 3817 H 363.593 2.74778 1.19655 0
M  V30 3818 H 361.154 1.53646 0.510358 0
M  V30 3819 H 363.146 1.89067 3.57821 0
M  V30 3820 H 361.716 1.03392 2.95006 0
M  V30 3821 H 360.936 3.35715 2.06614 0
M  V30 3822 H 362.224 4.0698 3.05361 0
M  V30 3823 H 361.622 1.86037 5.34235 0
M  V30 3824 H 360.179 2.50275 6.01835 0
M  V30 3825 N 363.613 -0.582584 1.46437 0
M  V30 3826 C 364.862 -1.337 1.5102 0
M  V30 3827 C 365.175 -1.94891 0.166359 0
M  V30 3828 O 366.381 -2.71351 0.0899954 0
M  V30 3829 C 364.837 -2.42315 2.66104 0
M  V30 3830 C 364.445 -1.87427 4.06909 0
M  V30 3831 C 366.189 -3.19099 2.79958 0
M  V30 3832 C 364.096 -2.93672 5.13333 0
M  V30 3833 H 363.026 -0.502619 0.562041 0
M  V30 3834 H 365.677 -0.621701 1.72647 0
M  V30 3835 H 364.059 -3.16645 2.37807 0
M  V30 3836 H 365.233 -1.19639 4.44998 0
M  V30 3837 H 363.548 -1.2331 3.97723 0
M  V30 3838 H 366.145 -3.9839 3.56636 0
M  V30 3839 H 366.488 -3.71695 1.87479 0
M  V30 3840 H 367.021 -2.51875 3.07902 0
M  V30 3841 H 363.76 -2.45962 6.07604 0
M  V30 3842 H 363.28 -3.59948 4.79789 0
M  V30 3843 H 364.959 -3.5762 5.39182 0
M  V30 3844 N 365.091 -1.34144 -0.827227 0
M  V30 3845 C 366.339 -1.26009 -1.58007 0
M  V30 3846 C 366.66 0.170971 -1.94249 0
M  V30 3847 O 365.93 1.10256 -1.61927 0
M  V30 3848 H 364.51 -0.463414 -0.585881 0
M  V30 3849 H 367.172 -1.68005 -0.987951 0
M  V30 3850 H 366.268 -1.86187 -2.50481 0
M  V30 3851 N 366.569 1.04691 -1.17803 0
M  V30 3852 C 367.815 1.78181 -0.980977 0
M  V30 3853 C 368.17 1.86191 0.484825 0
M  V30 3854 O 367.463 1.35436 1.35527 0
M  V30 3855 C 367.657 3.21467 -1.56186 0
M  V30 3856 C 367.486 3.27422 -3.08261 0
M  V30 3857 C 366.256 3.36415 -3.77032 0
M  V30 3858 C 368.454 3.15947 -4.0581 0
M  V30 3859 N 366.436 3.31554 -5.16667 0
M  V30 3860 C 367.807 3.18514 -5.31929 0
M  V30 3861 C 369.862 2.99945 -3.97413 0
M  V30 3862 C 368.565 3.06723 -6.50625 0
M  V30 3863 C 370.591 2.89497 -5.15699 0
M  V30 3864 C 369.953 2.92702 -6.40706 0
M  V30 3865 H 366.052 0.6641 -0.412911 0
M  V30 3866 H 368.636 1.24762 -1.49474 0
M  V30 3867 H 366.807 3.73245 -1.07436 0
M  V30 3868 H 368.539 3.8322 -1.30093 0
M  V30 3869 H 365.294 3.41887 -3.27735 0
M  V30 3870 H 365.718 3.3258 -5.89678 0
M  V30 3871 H 370.36 2.96302 -3.01604 0
M  V30 3872 H 368.078 3.0912 -7.46639 0
M  V30 3873 H 371.664 2.78179 -5.10987 0
M  V30 3874 H 370.544 2.84697 -7.30696 0
M  V30 3875 N 368.047 0.979072 1.23499 0
M  V30 3876 C 368.98 0.463027 2.23453 0
M  V30 3877 C 369.958 -0.469128 1.55685 0
M  V30 3878 O 371.142 -0.397882 1.84253 0
M  V30 3879 C 368.269 -0.330308 3.37086 0
M  V30 3880 C 367.315 0.545795 4.22993 0
M  V30 3881 S 368.148 1.99285 4.97037 0
M  V30 3882 C 369.304 1.20862 6.1412 0
M  V30 3883 H 369.537 1.31005 2.6688 0
M  V30 3884 H 367.07 0.784965 1.32957 0
M  V30 3885 H 369.028 -0.782027 4.02982 0
M  V30 3886 H 367.689 -1.15244 2.92194 0
M  V30 3887 H 366.882 -0.0638928 5.03959 0
M  V30 3888 H 366.484 0.933705 3.62157 0
M  V30 3889 H 368.776 0.469284 6.75873 0
M  V30 3890 H 369.719 1.99307 6.79472 0
M  V30 3891 H 370.127 0.727992 5.59786 0
M  V30 3892 N 369.525 -1.3858 0.750561 0
M  V30 3893 C 370.753 -2.04471 0.316098 0
M  V30 3894 C 371.168 -1.56606 -1.05452 0
M  V30 3895 O 370.525 -0.737784 -1.66922 0
M  V30 3896 C 370.576 -3.60025 0.326275 0
M  V30 3897 O 370.297 -4.06133 1.6428 0
M  V30 3898 C 371.798 -4.43131 -0.122429 0
M  V30 3899 H 369.018 -0.65717 0.135528 0
M  V30 3900 H 371.562 -1.77329 1.01857 0
M  V30 3901 H 369.717 -3.86014 -0.327431 0
M  V30 3902 H 370.131 -5.00547 1.56693 0
M  V30 3903 H 371.605 -5.51963 -0.0641473 0
M  V30 3904 H 372.082 -4.23333 -1.16988 0
M  V30 3905 H 372.688 -4.22323 0.50229 0
M  V30 3906 N 371.003 -0.499398 -1.49478 0
M  V30 3907 C 371.951 0.293604 -2.3074 0
M  V30 3908 C 372.945 0.96427 -1.39277 0
M  V30 3909 O 374.151 0.892141 -1.56336 0
M  V30 3910 H 370.526 0.113541 -0.743379 0
M  V30 3911 H 372.497 -0.411772 -2.95545 0
M  V30 3912 C 371.246 1.3462 -3.20582 0
M  V30 3913 H 370.569 0.83954 -3.90886 0
M  V30 3914 H 372.009 1.87308 -3.80384 0
M  V30 3915 C 370.468 2.36351 -2.40083 0
M  V30 3916 O 370.998 3.422 -2.10385 0
M  V30 3917 N 369.204 2.0878 -2.02137 0
M  V30 3918 H 368.751 1.22723 -2.26488 0
M  V30 3919 H 368.709 2.77075 -1.48583 0
M  V30 3920 N 372.481 1.55866 -0.233164 0
M  V30 3921 C 373.429 2.22176 0.68851 0
M  V30 3922 C 374.423 1.20487 1.19076 0
M  V30 3923 O 375.629 1.38536 1.14925 0
M  V30 3924 H 372.004 0.712511 0.240483 0
M  V30 3925 H 373.975 2.98212 0.105935 0
M  V30 3926 C 372.724 2.92446 1.88071 0
M  V30 3927 H 372.047 3.70458 1.50337 0
M  V30 3928 H 373.487 3.42226 2.50314 0
M  V30 3929 C 371.946 1.95555 2.74335 0
M  V30 3930 O 372.476 1.47986 3.73447 0
M  V30 3931 N 370.682 1.62953 2.40613 0
M  V30 3932 H 370.229 2.01831 1.60069 0
M  V30 3933 H 370.187 0.983886 2.98609 0
M  V30 3934 N 373.959 -0.0401083 1.57549 0
M  V30 3935 C 375.37 -0.588097 1.77196 0
M  V30 3936 C 375.721 -1.76209 0.862832 0
M  V30 3937 O 374.846 -2.16331 0.0548389 0
M  V30 3938 C 375.441 -1.07363 3.21339 0
M  V30 3939 C 374 -1.56723 3.42221 0
M  V30 3940 C 373.147 -0.50041 2.72747 0
M  V30 3941 H 376.098 0.186119 1.57605 0
M  V30 3942 H 376.119 -1.94143 3.27244 0
M  V30 3943 H 375.631 -0.218975 3.87482 0
M  V30 3944 H 373.732 -2.4441 2.81237 0
M  V30 3945 H 373.845 -1.62234 4.50796 0
M  V30 3946 H 372.209 -0.952894 2.36203 0
M  V30 3947 H 372.992 0.344599 3.41566 0
M  V30 3948 N 375.437 -1.54477 -0.31217 0
M  V30 3949 C 376.848 -1.64344 -0.885891 0
M  V30 3950 C 377.199 -0.54485 -1.88483 0
M  V30 3951 O 376.324 0.320387 -2.14015 0
M  V30 3952 C 376.919 -2.97908 -1.61357 0
M  V30 3953 C 375.478 -3.09933 -2.13585 0
M  V30 3954 C 374.625 -2.59971 -0.964897 0
M  V30 3955 H 377.576 -1.58448 -0.0894528 0
M  V30 3956 H 377.597 -2.88706 -2.47848 0
M  V30 3957 H 377.109 -3.77845 -0.886277 0
M  V30 3958 H 375.21 -2.34694 -2.89395 0
M  V30 3959 H 375.323 -4.15916 -2.37804 0
M  V30 3960 H 373.687 -2.16147 -1.34731 0
M  V30 3961 H 374.47 -3.42376 -0.251742 0
M  V30 3962 N 376.915 0.57481 -1.46744 0
M  V30 3963 C 378.164 1.32898 -1.51727 0
M  V30 3964 C 378.477 1.948 -0.176692 0
M  V30 3965 O 379.683 2.71299 -0.104385 0
M  V30 3966 C 378.139 2.40901 -2.67385 0
M  V30 3967 C 377.747 1.85266 -4.07898 0
M  V30 3968 C 379.491 3.17609 -2.81646 0
M  V30 3969 C 377.398 2.90945 -5.14883 0
M  V30 3970 H 376.328 0.499631 -0.564699 0
M  V30 3971 H 378.979 0.612536 -1.72975 0
M  V30 3972 H 377.361 3.15379 -2.39483 0
M  V30 3973 H 378.535 1.17278 -4.45626 0
M  V30 3974 H 376.85 1.21199 -3.98371 0
M  V30 3975 H 379.447 3.96493 -3.58744 0
M  V30 3976 H 379.79 3.70696 -1.89448 0
M  V30 3977 H 380.323 2.50239 -3.09233 0
M  V30 3978 H 377.062 2.42736 -6.089 0
M  V30 3979 H 376.582 3.57398 -4.81691 0
M  V30 3980 H 378.261 3.54755 -5.41071 0
M  V30 3981 N 378.394 1.34581 0.820102 0
M  V30 3982 C 379.805 1.24298 1.39309 0
M  V30 3983 C 380.156 -0.130351 1.95767 0
M  V30 3984 O 379.281 -1.0308 1.90272 0
M  V30 3985 C 379.876 2.25054 2.53251 0
M  V30 3986 C 378.435 2.18552 3.0645 0
M  V30 3987 C 377.582 2.11503 1.79337 0
M  V30 3988 H 380.533 1.45906 0.624262 0
M  V30 3989 H 380.554 1.86917 3.31425 0
M  V30 3990 H 380.066 3.24996 2.1213 0
M  V30 3991 H 378.167 1.21976 3.52069 0
M  V30 3992 H 378.28 3.0993 3.65349 0
M  V30 3993 H 376.644 1.57268 2.00347 0
M  V30 3994 H 377.427 3.13284 1.40386 0
M  V30 3995 N 379.872 -1.04064 1.18357 0
M  V30 3996 C 381.118 -1.77528 0.980397 0
M  V30 3997 C 381.451 -1.87948 -0.48879 0
M  V30 3998 O 380.726 -1.3876 -1.36293 0
M  V30 3999 C 381.009 -3.20797 1.63588 0
M  V30 4000 C 380.862 -3.1832 3.17793 0
M  V30 4001 C 382.181 -4.18911 1.34914 0
M  V30 4002 H 379.3 -0.644443 0.357578 0
M  V30 4003 H 381.942 -1.2156 1.46024 0
M  V30 4004 H 380.092 -3.68586 1.22788 0
M  V30 4005 H 381.764 -2.78521 3.67728 0
M  V30 4006 H 380.007 -2.56351 3.49952 0
M  V30 4007 H 380.678 -4.19489 3.58794 0
M  V30 4008 H 383.154 -3.7967 1.70265 0
M  V30 4009 H 382.03 -5.17374 1.83346 0
M  V30 4010 H 382.291 -4.41262 0.272027 0
M  V30 4011 N 381.35 -0.985608 -1.22978 0
M  V30 4012 C 382.598 -0.656087 -1.91154 0
M  V30 4013 C 382.919 0.813561 -1.77218 0
M  V30 4014 O 382.189 1.58244 -1.1548 0
M  V30 4015 H 380.769 -0.239674 -0.707506 0
M  V30 4016 H 383.431 -1.25054 -1.49491 0
M  V30 4017 H 382.527 -0.912253 -2.9847 0
M  V30 4018 N 382.828 1.3818 -0.7579 0
M  V30 4019 C 383.738 2.3421 -0.135247 0
M  V30 4020 C 384.754 1.59487 0.695683 0
M  V30 4021 O 385.93 1.91657 0.618832 0
M  V30 4022 C 382.995 3.3862 0.744139 0
M  V30 4023 C 382.056 4.2918 -0.101658 0
M  V30 4024 C 381.289 5.28603 0.735851 0
M  V30 4025 O 381.512 5.35166 1.97366 0
M  V30 4026 O 380.446 6.01707 0.152372 0
M  V30 4027 H 384.272 2.8916 -0.928436 0
M  V30 4028 H 381.857 1.40101 -0.518855 0
M  V30 4029 H 383.739 4.02539 1.2466 0
M  V30 4030 H 382.414 2.86019 1.51575 0
M  V30 4031 H 381.321 3.68407 -0.650167 0
M  V30 4032 H 382.654 4.85048 -0.836024 0
M  V30 4033 N 384.306 0.507319 1.49211 0
M  V30 4034 C 385.555 -0.0368315 2.01666 0
M  V30 4035 C 385.868 -1.37459 1.39156 0
M  V30 4036 O 387.074 -2.00579 1.82976 0
M  V30 4037 C 385.53 -0.116089 3.59713 0
M  V30 4038 C 385.138 1.2154 4.31198 0
M  V30 4039 C 386.882 -0.610268 4.2009 0
M  V30 4040 C 384.789 1.09796 5.81119 0
M  V30 4041 H 383.719 -0.0175376 0.753796 0
M  V30 4042 H 386.37 0.647691 1.71689 0
M  V30 4043 H 384.752 -0.8652 3.86433 0
M  V30 4044 H 385.926 1.9783 4.16173 0
M  V30 4045 H 384.241 1.64352 3.82593 0
M  V30 4046 H 386.838 -0.715742 5.29888 0
M  V30 4047 H 387.181 -1.61064 3.8388 0
M  V30 4048 H 387.714 0.0824916 3.97714 0
M  V30 4049 H 384.453 2.0728 6.21864 0
M  V30 4050 H 383.973 0.376058 5.9862 0
M  V30 4051 H 385.652 0.779281 6.4229 0
M  V30 4052 N 385.784 -1.5574 0.241426 0
M  V30 4053 C 387.014 -2.02913 -0.38857 0
M  V30 4054 C 387.422 -1.12014 -1.52478 0
M  V30 4055 O 386.765 -0.125903 -1.83268 0
M  V30 4056 C 386.827 -3.4636 -0.963075 0
M  V30 4057 C 386.491 -4.56982 0.0401916 0
M  V30 4058 C 387.488 -5.12941 0.847766 0
M  V30 4059 C 385.173 -5.0203 0.164699 0
M  V30 4060 C 387.167 -6.12437 1.76636 0
M  V30 4061 C 384.854 -6.01358 1.0868 0
M  V30 4062 C 385.852 -6.5644 1.88616 0
M  V30 4063 O 385.54 -7.53831 2.79273 0
M  V30 4064 H 385.272 -0.668983 -0.0971452 0
M  V30 4065 H 387.826 -2.02198 0.361248 0
M  V30 4066 H 386.056 -3.44206 -1.76235 0
M  V30 4067 H 387.745 -3.77065 -1.50257 0
M  V30 4068 H 388.511 -4.78974 0.762133 0
M  V30 4069 H 384.39 -4.58824 -0.447411 0
M  V30 4070 H 387.934 -6.55355 2.39071 0
M  V30 4071 H 383.831 -6.34746 1.17338 0
M  V30 4072 H 384.599 -7.71428 2.73572 0
M  V30 4073 N 387.262 0.0317525 -1.57568 0
M  V30 4074 C 388.209 1.0332 -2.06382 0
M  V30 4075 C 389.179 1.36082 -0.952414 0
M  V30 4076 O 390.364 1.46466 -1.2228 0
M  V30 4077 C 387.504 2.32989 -2.54578 0
M  V30 4078 C 386.617 2.0641 -3.79498 0
M  V30 4079 C 385.752 3.2993 -4.16317 0
M  V30 4080 C 384.791 2.98893 -5.34162 0
M  V30 4081 N 383.928 4.14857 -5.66426 0
M  V30 4082 H 388.768 0.609982 -2.9169 0
M  V30 4083 H 386.305 0.289573 -1.44222 0
M  V30 4084 H 388.263 3.0875 -2.80587 0
M  V30 4085 H 386.893 2.73039 -1.7219 0
M  V30 4086 H 385.945 1.21158 -3.6059 0
M  V30 4087 H 387.257 1.79513 -4.65378 0
M  V30 4088 H 386.411 4.1406 -4.4344 0
M  V30 4089 H 385.15 3.59938 -3.29083 0
M  V30 4090 H 384.155 2.13164 -5.06795 0
M  V30 4091 H 385.38 2.70165 -6.23047 0
M  V30 4092 H 383.326 4.44821 -4.82151 0
M  V30 4093 H 383.243 3.91374 -6.4681 0
M  V30 4094 H 384.511 4.99868 -5.98124 0
M  V30 4095 N 388.74 1.54641 0.303973 0
M  V30 4096 C 390.156 1.45788 0.649463 0
M  V30 4097 C 390.356 0.64666 1.90842 0
M  V30 4098 O 389.412 0.153183 2.52035 0
M  V30 4099 C 390.725 2.89718 0.805227 0
M  V30 4100 C 392.273 2.99742 0.901305 0
M  V30 4101 C 392.748 4.44863 1.08909 0
M  V30 4102 N 394.239 4.48559 1.15536 0
M  V30 4103 C 394.974 5.58026 1.3189 0
M  V30 4104 N 394.47 6.77422 1.45161 0
M  V30 4105 N 396.263 5.45708 1.34755 0
M  V30 4106 H 388.414 2.05854 -0.523237 0
M  V30 4107 H 390.677 0.932186 -0.172431 0
M  V30 4108 H 390.383 3.51666 -0.0489108 0
M  V30 4109 H 390.257 3.36964 1.69513 0
M  V30 4110 H 392.644 2.3791 1.74593 0
M  V30 4111 H 392.725 2.55797 -0.0125531 0
M  V30 4112 H 392.369 5.07288 0.249241 0
M  V30 4113 H 392.299 4.86436 2.01713 0
M  V30 4114 H 394.79 3.6254 1.06646 0
M  V30 4115 H 395.103 7.56604 1.57387 0
M  V30 4116 H 393.448 6.80292 1.42223 0
M  V30 4117 H 396.639 4.51378 1.23996 0
M  V30 4118 H 396.812 6.3107 1.47157 0
M  V30 4119 N 390.218 -0.567019 1.47046 0
M  V30 4120 C 391.464 -1.32434 1.54379 0
M  V30 4121 C 391.819 -1.91365 0.199276 0
M  V30 4122 O 391.112 -1.74378 -0.793915 0
M  V30 4123 C 391.306 -2.4623 2.59047 0
M  V30 4124 C 391.135 -1.98448 4.03545 0
M  V30 4125 C 389.905 -1.82741 4.71098 0
M  V30 4126 C 392.103 -1.53477 4.90866 0
M  V30 4127 N 390.085 -1.29196 6.00151 0
M  V30 4128 C 391.456 -1.1163 6.09868 0
M  V30 4129 C 393.511 -1.41438 4.77388 0
M  V30 4130 C 392.214 -0.589425 7.16881 0
M  V30 4131 C 394.24 -0.901528 5.84488 0
M  V30 4132 C 393.602 -0.492932 7.02673 0
M  V30 4133 H 389.701 -0.477005 0.61967 0
M  V30 4134 H 392.285 -0.643856 1.83746 0
M  V30 4135 H 390.456 -3.11821 2.31564 0
M  V30 4136 H 392.188 -3.13213 2.56281 0
M  V30 4137 H 388.943 -2.05162 4.26855 0
M  V30 4138 H 389.367 -1.0454 6.6888 0
M  V30 4139 H 394.009 -1.71643 3.86392 0
M  V30 4140 H 391.727 -0.274994 8.07632 0
M  V30 4141 H 395.313 -0.812071 5.76105 0
M  V30 4142 H 394.193 -0.102227 7.84133 0
M  V30 4143 N 391.696 -1.35014 -0.812953 0
M  V30 4144 C 392.945 -1.27269 -1.56479 0
M  V30 4145 C 393.258 0.152771 -1.95002 0
M  V30 4146 O 394.464 0.352451 -2.69203 0
M  V30 4147 C 392.92 -2.23159 -2.82362 0
M  V30 4148 C 392.528 -3.71016 -2.511 0
M  V30 4149 C 394.272 -2.24342 -3.60376 0
M  V30 4150 C 392.179 -4.58746 -3.73237 0
M  V30 4151 H 391.109 -0.472829 -0.587324 0
M  V30 4152 H 393.76 -1.6024 -0.894171 0
M  V30 4153 H 392.142 -1.83151 -3.51101 0
M  V30 4154 H 393.316 -4.1962 -1.90409 0
M  V30 4155 H 391.631 -3.72378 -1.86343 0
M  V30 4156 H 394.228 -2.87107 -4.51081 0
M  V30 4157 H 394.571 -1.24542 -3.97234 0
M  V30 4158 H 395.104 -2.62846 -2.98591 0
M  V30 4159 H 391.843 -5.59521 -3.41492 0
M  V30 4160 H 391.363 -4.14871 -4.33176 0
M  V30 4161 H 393.042 -4.73852 -4.40537 0
M  V30 4162 N 393.175 1.03435 -1.18907 0
M  V30 4163 C 394.424 1.76143 -0.982669 0
M  V30 4164 C 394.737 1.89416 0.487953 0
M  V30 4165 O 395.943 2.59041 0.813036 0
M  V30 4166 C 394.399 3.16722 -1.70924 0
M  V30 4167 C 394.007 3.11522 -3.21959 0
M  V30 4168 C 395.751 3.93764 -1.58588 0
M  V30 4169 C 393.658 4.46999 -3.87228 0
M  V30 4170 H 392.588 0.660292 -0.364047 0
M  V30 4171 H 395.239 1.158 -1.42347 0
M  V30 4172 H 393.621 3.775 -1.19623 0
M  V30 4173 H 394.795 2.60158 -3.80335 0
M  V30 4174 H 393.11 2.47978 -3.34508 0
M  V30 4175 H 395.707 4.93963 -2.04707 0
M  V30 4176 H 396.05 4.12794 -0.539142 0
M  V30 4177 H 396.583 3.39576 -2.07203 0
M  V30 4178 H 393.322 4.33174 -4.91976 0
M  V30 4179 H 392.842 4.98441 -3.33642 0
M  V30 4180 H 394.521 5.15898 -3.90459 0
M  V30 4181 N 394.653 0.992116 1.22453 0
M  V30 4182 C 395.583 0.561677 2.26644 0
M  V30 4183 C 396.564 -0.411055 1.65059 0
M  V30 4184 O 397.749 -0.301861 1.9184 0
M  V30 4185 C 394.879 -0.125247 3.47074 0
M  V30 4186 C 393.833 0.765948 4.21091 0
M  V30 4187 C 393.159 -0.0538484 5.34673 0
M  V30 4188 C 394.459 2.06242 4.79856 0
M  V30 4189 H 396.153 1.43259 2.62902 0
M  V30 4190 H 393.699 0.690283 1.26377 0
M  V30 4191 H 395.652 -0.437764 4.1912 0
M  V30 4192 H 394.376 -1.03069 3.0991 0
M  V30 4193 H 393.035 1.0621 3.50878 0
M  V30 4194 H 392.683 -0.960188 4.9375 0
M  V30 4195 H 392.383 0.539415 5.85119 0
M  V30 4196 H 393.907 -0.360477 6.09535 0
M  V30 4197 H 395.321 1.8139 5.43848 0
M  V30 4198 H 393.718 2.60444 5.40638 0
M  V30 4199 H 394.788 2.74167 3.99951 0
M  V30 4200 N 396.131 -1.37776 0.765217 0
M  V30 4201 C 397.379 -1.99454 0.325943 0
M  V30 4202 C 397.7 -1.61049 -1.09947 0
M  V30 4203 O 396.97 -0.872821 -1.75381 0
M  V30 4204 H 395.55 -0.737697 0.117525 0
M  V30 4205 H 398.212 -1.68359 0.981895 0
M  V30 4206 H 397.308 -3.09547 0.398353 0
M  V30 4207 N 397.609 -0.515225 -1.4894 0
M  V30 4208 C 398.539 0.244628 -2.32215 0
M  V30 4209 C 399.52 0.949136 -1.41157 0
M  V30 4210 O 400.705 0.937783 -1.70057 0
M  V30 4211 C 397.835 1.30096 -3.22013 0
M  V30 4212 C 396.789 0.715486 -4.21977 0
M  V30 4213 C 396.115 1.87339 -5.00808 0
M  V30 4214 C 397.415 -0.302982 -5.2142 0
M  V30 4215 H 399.109 -0.450501 -2.95991 0
M  V30 4216 H 396.655 -0.218098 -1.42339 0
M  V30 4217 H 398.608 1.84037 -3.79089 0
M  V30 4218 H 397.332 2.02547 -2.56207 0
M  V30 4219 H 395.991 0.197715 -3.66066 0
M  V30 4220 H 395.639 2.58592 -4.31438 0
M  V30 4221 H 395.339 1.48764 -5.68457 0
M  V30 4222 H 396.863 2.41686 -5.60732 0
M  V30 4223 H 398.277 0.148802 -5.73107 0
M  V30 4224 H 396.674 -0.60532 -5.97039 0
M  V30 4225 H 397.744 -1.21395 -4.69459 0
M  V30 4226 N 399.087 1.5561 -0.249682 0
M  V30 4227 C 400.035 2.22894 0.664906 0
M  V30 4228 C 401.029 1.21743 1.17792 0
M  V30 4229 O 402.235 1.39748 1.13449 0
M  V30 4230 H 398.61 0.715022 0.232912 0
M  V30 4231 H 400.581 2.98307 0.0742998 0
M  V30 4232 C 399.33 2.94424 1.84959 0
M  V30 4233 H 398.653 3.72031 1.46399 0
M  V30 4234 H 400.093 3.44862 2.4667 0
M  V30 4235 C 398.552 1.98454 2.72245 0
M  V30 4236 O 399.082 1.51939 3.71857 0
M  V30 4237 N 397.288 1.65496 2.38871 0
M  V30 4238 H 396.835 2.03517 1.57919 0
M  V30 4239 H 396.793 1.0155 2.97548 0
M  V30 4240 N 400.565 -0.0233959 1.57583 0
M  V30 4241 C 401.512 -1.02224 2.06927 0
M  V30 4242 C 402.482 -1.35575 0.959617 0
M  V30 4243 O 403.667 -1.45815 1.23055 0
M  V30 4244 C 400.807 -2.31636 2.5581 0
M  V30 4245 C 399.92 -2.04394 3.80588 0
M  V30 4246 C 399.055 -3.27717 4.18061 0
M  V30 4247 C 398.094 -2.96056 5.3574 0
M  V30 4248 N 397.231 -4.11847 5.68618 0
M  V30 4249 H 402.071 -0.594504 2.9201 0
M  V30 4250 H 399.608 -0.281921 1.44373 0
M  V30 4251 H 401.566 -3.07258 2.82221 0
M  V30 4252 H 400.196 -2.72122 1.73636 0
M  V30 4253 H 399.248 -1.19244 3.61227 0
M  V30 4254 H 400.56 -1.77042 4.66323 0
M  V30 4255 H 399.714 -4.11702 4.4563 0
M  V30 4256 H 398.453 -3.58188 3.30988 0
M  V30 4257 H 397.458 -2.10474 5.07918 0
M  V30 4258 H 398.683 -2.66857 6.24471 0
M  V30 4259 H 396.629 -4.42258 4.84504 0
M  V30 4260 H 396.546 -3.87938 6.48876 0
M  V30 4261 H 397.814 -4.96689 6.00766 0
M  V30 4262 N 402.043 -1.548 -0.295768 0
M  V30 4263 C 403.292 -1.73538 -1.02798 0
M  V30 4264 C 403.605 -0.531159 -1.8825 0
M  V30 4265 O 404.811 -0.600458 -2.64777 0
M  V30 4266 C 403.267 -3.07051 -1.87744 0
M  V30 4267 C 402.875 -4.34968 -1.07269 0
M  V30 4268 C 404.619 -3.35146 -2.60533 0
M  V30 4269 C 402.526 -5.5953 -1.91521 0
M  V30 4270 H 401.456 -0.646794 -0.387522 0
M  V30 4271 H 404.107 -1.81278 -0.284718 0
M  V30 4272 H 402.489 -2.93289 -2.66078 0
M  V30 4273 H 403.663 -4.5958 -0.335117 0
M  V30 4274 H 401.978 -4.13847 -0.460384 0
M  V30 4275 H 404.575 -4.2541 -3.23929 0
M  V30 4276 H 404.918 -2.54255 -3.29636 0
M  V30 4277 H 405.451 -3.49902 -1.89244 0
M  V30 4278 H 402.19 -6.43103 -1.26878 0
M  V30 4279 H 401.71 -5.39096 -2.62937 0
M  V30 4280 H 403.389 -5.96982 -2.49442 0
M  V30 4281 N 403.521 0.559213 -1.47345 0
M  V30 4282 C 404.767 1.31843 -1.54095 0
M  V30 4283 C 405.1 1.93149 -0.201726 0
M  V30 4284 O 404.375 1.77759 0.789428 0
M  V30 4285 C 404.658 2.43006 -2.65744 0
M  V30 4286 C 404.511 1.86581 -4.09277 0
M  V30 4287 C 405.83 3.44943 -2.73318 0
M  V30 4288 H 402.949 0.478012 -0.560957 0
M  V30 4289 H 405.591 0.625977 -1.79392 0
M  V30 4290 H 403.741 3.02072 -2.44305 0
M  V30 4291 H 405.413 1.31792 -4.42073 0
M  V30 4292 H 403.656 1.17268 -4.17649 0
M  V30 4293 H 404.327 2.66933 -4.83168 0
M  V30 4294 H 406.803 2.95793 -2.92653 0
M  V30 4295 H 405.679 4.20153 -3.53218 0
M  V30 4296 H 405.94 4.03665 -1.80296 0
M  V30 4297 N 404.999 1.35443 0.805782 0
M  V30 4298 C 406.415 1.15499 1.10146 0
M  V30 4299 C 406.615 -0.0319975 2.01475 0
M  V30 4300 O 405.671 -0.70236 2.42535 0
M  V30 4301 C 406.984 2.45833 1.73166 0
M  V30 4302 C 408.532 2.52047 1.85583 0
M  V30 4303 C 409.007 3.82427 2.52019 0
M  V30 4304 N 410.498 3.83682 2.59504 0
M  V30 4305 C 411.233 4.81294 3.11679 0
M  V30 4306 N 410.729 5.89294 3.64287 0
M  V30 4307 N 412.522 4.6873 3.1024 0
M  V30 4308 H 404.673 2.11469 0.198678 0
M  V30 4309 H 406.936 0.93594 0.150731 0
M  V30 4310 H 406.642 3.32874 1.13526 0
M  V30 4311 H 406.516 2.6044 2.72857 0
M  V30 4312 H 408.903 1.65435 2.44367 0
M  V30 4313 H 408.984 2.41354 0.847455 0
M  V30 4314 H 408.628 4.69437 1.93885 0
M  V30 4315 H 408.558 3.90409 3.53395 0
M  V30 4316 H 411.049 3.05648 2.22234 0
M  V30 4317 H 411.362 6.59768 4.02401 0
M  V30 4318 H 409.707 5.92985 3.62483 0
M  V30 4319 H 412.898 3.83496 2.68419 0
M  V30 4320 H 413.071 5.44965 3.50596 0
M  V30 4321 N 406.477 -1.02803 1.19454 0
M  V30 4322 C 407.41 -2.107 0.876396 0
M  V30 4323 C 408.388 -1.61741 -0.166897 0
M  V30 4324 O 409.572 -1.88451 -0.0430195 0
M  V30 4325 C 406.699 -3.37262 0.311758 0
M  V30 4326 C 405.745 -4.05093 1.33424 0
M  V30 4327 S 406.578 -4.50498 2.89503 0
M  V30 4328 C 407.734 -5.80277 2.34584 0
M  V30 4329 H 407.967 -2.37362 1.79016 0
M  V30 4330 H 405.5 -1.15755 1.02177 0
M  V30 4331 H 407.458 -4.10499 -0.00748752 0
M  V30 4332 H 406.119 -3.08693 -0.58032 0
M  V30 4333 H 405.312 -4.9611 0.888302 0
M  V30 4334 H 404.914 -3.3803 1.60037 0
M  V30 4335 H 407.206 -6.54873 1.73633 0
M  V30 4336 H 408.149 -6.29651 3.23952 0
M  V30 4337 H 408.557 -5.3599 1.77131 0
M  V30 4338 N 407.956 -0.998596 -1.21925 0
M  V30 4339 C 409.186 -0.695276 -1.94549 0
M  V30 4340 C 409.594 0.745079 -1.73911 0
M  V30 4341 O 408.937 1.51507 -1.03881 0
M  V30 4342 C 408.999 -0.928485 -3.47303 0
M  V30 4343 C 408.663 -2.35443 -3.91683 0
M  V30 4344 C 409.66 -3.33428 -3.98901 0
M  V30 4345 C 407.345 -2.69038 -4.24174 0
M  V30 4346 C 409.339 -4.63079 -4.37992 0
M  V30 4347 C 407.026 -3.98906 -4.62944 0
M  V30 4348 C 408.024 -4.95738 -4.69822 0
M  V30 4349 O 407.712 -6.23285 -5.07711 0
M  V30 4350 H 407.444 -0.255902 -0.625692 0
M  V30 4351 H 409.998 -1.33767 -1.5587 0
M  V30 4352 H 408.228 -0.228917 -3.86022 0
M  V30 4353 H 409.917 -0.619539 -4.01144 0
M  V30 4354 H 410.683 -3.08807 -3.73983 0
M  V30 4355 H 406.562 -1.94367 -4.18022 0
M  V30 4356 H 410.106 -5.38658 -4.43275 0
M  V30 4357 H 406.003 -4.23314 -4.87314 0
M  V30 4358 H 406.771 -6.27306 -5.25766 0
M  V30 4359 N 409.434 1.37368 -0.772513 0
M  V30 4360 C 410.659 2.0447 -0.347386 0
M  V30 4361 C 411.084 1.57882 1.0225 0
M  V30 4362 O 410.442 0.73941 1.65537 0
M  V30 4363 C 410.49 3.58369 -0.400479 0
M  V30 4364 O 409.594 4.0803 0.598789 0
M  V30 4365 H 408.935 0.646773 -0.15027 0
M  V30 4366 H 411.465 1.75667 -1.04892 0
M  V30 4367 H 411.475 4.07183 -0.258045 0
M  V30 4368 H 410.15 3.91633 -1.39986 0
M  V30 4369 H 408.727 3.70534 0.419411 0
M  V30 4370 N 410.912 0.523116 1.48665 0
M  V30 4371 C 412.323 0.0808997 1.86525 0
M  V30 4372 C 412.674 -1.33975 1.43336 0
M  V30 4373 O 411.799 -2.00221 0.821009 0
M  V30 4374 C 412.394 0.140037 3.3851 0
M  V30 4375 C 410.953 -0.246948 3.75589 0
M  V30 4376 C 410.1 0.502845 2.72703 0
M  V30 4377 H 413.051 0.734736 1.40667 0
M  V30 4378 H 413.072 -0.649945 3.74908 0
M  V30 4379 H 412.584 1.17412 3.69914 0
M  V30 4380 H 410.685 -1.28343 3.49798 0
M  V30 4381 H 410.798 0.0878859 4.79019 0
M  V30 4382 H 409.162 -0.0500581 2.54651 0
M  V30 4383 H 409.945 1.53743 3.0695 0
M  V30 4384 N 412.39 -1.55475 0.257931 0
M  V30 4385 C 413.618 -2.03609 -0.367559 0
M  V30 4386 C 414.033 -1.13687 -1.50734 0
M  V30 4387 O 413.39 -0.153479 -1.81853 0
M  V30 4388 C 413.441 -3.51001 -0.864908 0
M  V30 4389 O 413.162 -4.37499 0.229465 0
M  V30 4390 C 414.663 -4.14946 -1.55997 0
M  V30 4391 H 411.883 -0.665459 -0.0860521 0
M  V30 4392 H 414.427 -2.00843 0.385014 0
M  V30 4393 H 412.582 -3.54266 -1.56762 0
M  V30 4394 H 412.996 -5.24286 -0.14998 0
M  V30 4395 H 414.47 -5.19735 -1.85956 0
M  V30 4396 H 414.947 -3.6209 -2.4857 0
M  V30 4397 H 415.553 -4.15635 -0.901543 0
M  V30 4398 N 413.868 0.0150385 -1.57593 0
M  V30 4399 C 415.093 0.718067 -1.94573 0
M  V30 4400 C 415.518 1.6734 -0.859005 0
M  V30 4401 O 414.876 1.80362 0.184147 0
M  V30 4402 C 414.924 1.43918 -3.30636 0
M  V30 4403 O 414.028 2.55299 -3.23876 0
M  V30 4404 H 413.369 0.192125 -0.635597 0
M  V30 4405 H 415.899 -0.0336708 -2.04572 0
M  V30 4406 H 415.909 1.80598 -3.65853 0
M  V30 4407 H 414.584 0.738619 -4.09289 0
M  V30 4408 H 413.161 2.21058 -3.00312 0
M  V30 4409 N 415.346 1.54954 0.287554 0
M  V30 4410 C 416.595 1.74081 1.01877 0
M  V30 4411 C 416.908 0.541135 1.87966 0
M  V30 4412 O 418.114 0.614491 2.64455 0
M  V30 4413 C 416.57 3.08042 1.86113 0
M  V30 4414 C 416.178 4.35531 1.04961 0
M  V30 4415 C 417.922 3.36523 2.58752 0
M  V30 4416 C 415.829 5.60538 1.88551 0
M  V30 4417 H 414.759 0.64884 0.384087 0
M  V30 4418 H 417.41 1.81426 0.275101 0
M  V30 4419 H 415.792 2.94696 2.64519 0
M  V30 4420 H 416.966 4.59751 0.31074 0
M  V30 4421 H 415.281 4.14085 0.43843 0
M  V30 4422 H 417.878 4.27122 3.21668 0
M  V30 4423 H 418.221 2.56 3.28283 0
M  V30 4424 H 418.754 3.50901 1.87386 0
M  V30 4425 H 415.493 6.43767 1.23466 0
M  V30 4426 H 415.013 5.40483 2.60074 0
M  V30 4427 H 416.692 5.98297 2.46273 0
M  V30 4428 N 416.824 -0.551391 1.4764 0
M  V30 4429 C 417.754 -1.66757 1.63445 0
M  V30 4430 C 418.735 -1.63077 0.483742 0
M  V30 4431 O 419.92 -1.80607 0.71377 0
M  V30 4432 C 417.05 -3.05387 1.65396 0
M  V30 4433 C 416.004 -3.23918 2.79752 0
M  V30 4434 C 415.33 -4.63393 2.66779 0
M  V30 4435 C 416.63 -3.08735 4.21284 0
M  V30 4436 H 418.324 -1.53786 2.56886 0
M  V30 4437 H 415.87 -0.738415 1.23626 0
M  V30 4438 H 417.823 -3.83325 1.75043 0
M  V30 4439 H 416.547 -3.19332 0.685195 0
M  V30 4440 H 415.206 -2.48391 2.69625 0
M  V30 4441 H 414.854 -4.74144 1.67918 0
M  V30 4442 H 414.554 -4.7674 3.43501 0
M  V30 4443 H 416.078 -5.43458 2.78364 0
M  V30 4444 H 417.492 -3.76484 4.32357 0
M  V30 4445 H 415.889 -3.33588 4.98838 0
M  V30 4446 H 416.959 -2.0541 4.39243 0
M  V30 4447 N 418.302 -1.35869 -0.798587 0
M  V30 4448 C 419.579 -1.20145 -1.54352 0
M  V30 4449 C 419.959 0.216161 -2.0999 0
M  V30 4450 O 419.307 1.22068 -1.93162 0
M  V30 4451 C 419.517 -2.27602 -2.64572 0
M  V30 4452 C 420.865 -2.63811 -3.32699 0
M  V30 4453 O 421.889 -2.26576 -2.74849 0
M  V30 4454 O 420.748 -3.27866 -4.37226 0
M  V30 4455 H 417.842 -0.467248 -0.682355 0
M  V30 4456 H 420.388 -1.47574 -0.837859 0
M  V30 4457 H 419.16 -3.2265 -2.21388 0
M  V30 4458 H 418.783 -2.01488 -3.42766 0
M  V30 4459 N 419.78 1.02168 -1.19998 0
M  V30 4460 C 421.029 1.75091 -1.0013 0
M  V30 4461 C 421.342 1.89923 0.467835 0
M  V30 4462 O 422.548 2.59888 0.785515 0
M  V30 4463 C 421.004 3.14892 -1.74273 0
M  V30 4464 C 420.612 3.0809 -3.25245 0
M  V30 4465 C 422.356 3.9206 -1.62755 0
M  V30 4466 C 420.263 4.42867 -3.91948 0
M  V30 4467 H 419.193 0.656394 -0.37103 0
M  V30 4468 H 421.844 1.14284 -1.43567 0
M  V30 4469 H 420.226 3.7621 -1.2362 0
M  V30 4470 H 421.4 2.5611 -3.83072 0
M  V30 4471 H 419.715 2.44416 -3.3712 0
M  V30 4472 H 422.312 4.91764 -2.09934 0
M  V30 4473 H 422.655 4.12199 -0.582894 0
M  V30 4474 H 423.188 3.37359 -2.10793 0
M  V30 4475 H 419.927 4.27931 -4.96543 0
M  V30 4476 H 419.447 4.94874 -3.3891 0
M  V30 4477 H 421.126 5.11728 -3.95909 0
M  V30 4478 N 421.258 1.00505 1.21394 0
M  V30 4479 C 422.674 0.717873 1.42544 0
M  V30 4480 C 422.874 -0.706936 1.88692 0
M  V30 4481 O 421.93 -1.47627 2.04847 0
M  V30 4482 C 423.243 1.73377 2.45684 0
M  V30 4483 C 424.791 1.75059 2.59467 0
M  V30 4484 C 425.266 2.75545 3.6584 0
M  V30 4485 N 426.757 2.74213 3.73311 0
M  V30 4486 C 427.492 3.48626 4.55245 0
M  V30 4487 N 426.988 4.32678 5.41075 0
M  V30 4488 N 428.781 3.37276 4.49668 0
M  V30 4489 H 420.932 1.92506 0.897503 0
M  V30 4490 H 423.195 0.830919 0.456375 0
M  V30 4491 H 422.901 2.75395 2.18748 0
M  V30 4492 H 422.775 1.53647 3.44489 0
M  V30 4493 H 425.162 0.737337 2.8574 0
M  V30 4494 H 425.243 1.98861 1.60897 0
M  V30 4495 H 424.887 3.77028 3.40313 0
M  V30 4496 H 424.817 2.49009 4.64007 0
M  V30 4497 H 427.308 2.13234 3.11993 0
M  V30 4498 H 427.621 4.86253 6.00648 0
M  V30 4499 H 425.966 4.3676 5.40616 0
M  V30 4500 H 429.157 2.71043 3.81646 0
M  V30 4501 H 429.33 3.95524 5.13288 0
M  V30 4502 N 422.737 -1.36956 0.779787 0
M  V30 4503 C 423.669 -2.28833 0.129639 0
M  V30 4504 C 424.682 -1.4902 -0.655511 0
M  V30 4505 O 425.871 -1.71578 -0.492279 0
M  V30 4506 C 422.971 -3.2833 -0.839792 0
M  V30 4507 C 422.144 -4.3727 -0.10675 0
M  V30 4508 C 421.203 -5.16789 -0.990717 0
M  V30 4509 O 420.229 -5.67406 -0.451516 0
M  V30 4510 N 421.431 -5.32294 -2.3161 0
M  V30 4511 H 424.196 -2.85268 0.918803 0
M  V30 4512 H 421.757 -1.49019 0.632841 0
M  V30 4513 H 423.749 -3.78413 -1.43477 0
M  V30 4514 H 422.319 -2.72605 -1.52988 0
M  V30 4515 H 421.539 -3.88478 0.669216 0
M  V30 4516 H 422.827 -5.07229 0.399464 0
M  V30 4517 H 422.225 -4.92768 -2.77843 0
M  V30 4518 H 420.782 -5.85656 -2.86095 0
M  V30 4519 N 424.215 -0.530993 -1.48385 0
M  V30 4520 C 425.463 0.00273189 -2.021 0
M  V30 4521 C 425.784 1.34672 -1.41027 0
M  V30 4522 O 425.054 1.8724 -0.576012 0
M  V30 4523 H 423.634 0.00399774 -0.746989 0
M  V30 4524 H 426.296 -0.695054 -1.82085 0
M  V30 4525 H 425.392 0.11031 -3.11905 0
M  V30 4526 N 425.693 1.55336 -0.266172 0
M  V30 4527 C 427.104 1.85236 0.233315 0
M  V30 4528 C 427.455 1.18816 1.56132 0
M  V30 4529 O 426.58 0.473307 2.11161 0
M  V30 4530 C 427.175 3.36059 0.430113 0
M  V30 4531 C 425.734 3.66116 0.873842 0
M  V30 4532 C 424.881 2.77274 -0.0380016 0
M  V30 4533 H 427.832 1.51004 -0.488214 0
M  V30 4534 H 427.853 3.58681 1.26998 0
M  V30 4535 H 427.365 3.84373 -0.536588 0
M  V30 4536 H 425.466 3.23295 1.85233 0
M  V30 4537 H 425.579 4.73699 0.717358 0
M  V30 4538 H 423.943 2.50198 0.476759 0
M  V30 4539 H 424.726 3.284 -1.00042 0
M  V30 4540 N 427.171 -0.0066808 1.57599 0
M  V30 4541 C 428.118 -1.00024 2.08 0
M  V30 4542 C 429.088 -1.34549 0.973943 0
M  V30 4543 O 430.273 -1.44502 1.24595 0
M  V30 4544 C 427.413 -2.2891 2.58252 0
M  V30 4545 C 426.526 -2.00346 3.82734 0
M  V30 4546 C 425.661 -3.23265 4.21513 0
M  V30 4547 C 424.7 -2.90357 5.3885 0
M  V30 4548 N 423.837 -4.05793 5.72954 0
M  V30 4549 H 428.677 -0.563499 2.92624 0
M  V30 4550 H 426.214 -0.266592 1.44664 0
M  V30 4551 H 428.172 -3.04247 2.85464 0
M  V30 4552 H 426.802 -2.70265 1.76512 0
M  V30 4553 H 425.854 -1.15406 3.62471 0
M  V30 4554 H 427.166 -1.72086 4.68175 0
M  V30 4555 H 426.32 -4.06953 4.49971 0
M  V30 4556 H 425.059 -3.54657 3.34768 0
M  V30 4557 H 424.064 -2.05075 5.10122 0
M  V30 4558 H 425.289 -2.60219 6.27266 0
M  V30 4559 H 423.235 -4.37094 4.89167 0
M  V30 4560 H 423.152 -3.81034 6.52954 0
M  V30 4561 H 424.42 -4.90289 6.06001 0
M  V30 4562 N 428.649 -1.55105 -0.279332 0
M  V30 4563 C 429.559 -1.90638 -1.36727 0
M  V30 4564 C 430.575 -0.802899 -1.54368 0
M  V30 4565 O 431.751 -1.10138 -1.68616 0
M  V30 4566 C 428.816 -2.16547 -2.70755 0
M  V30 4567 C 427.877 -3.40146 -2.61915 0
M  V30 4568 C 427.11 -3.6481 -3.8955 0
M  V30 4569 O 427.333 -2.92095 -4.89935 0
M  V30 4570 O 426.267 -4.58343 -3.90135 0
M  V30 4571 H 430.093 -2.83237 -1.09591 0
M  V30 4572 H 427.678 -1.4157 -0.477306 0
M  V30 4573 H 429.56 -2.34665 -3.50014 0
M  V30 4574 H 428.235 -1.27131 -2.9769 0
M  V30 4575 H 427.142 -3.2737 -1.81052 0
M  V30 4576 H 428.475 -4.29761 -2.3993 0
M  V30 4577 N 430.127 0.543554 -1.4793 0
M  V30 4578 C 431.538 1.12561 -1.48953 0
M  V30 4579 C 431.889 1.94578 -0.251754 0
M  V30 4580 O 431.014 2.0665 0.642255 0
M  V30 4581 C 431.609 2.04801 -2.69892 0
M  V30 4582 C 430.168 2.58251 -2.73831 0
M  V30 4583 C 429.315 1.34918 -2.42265 0
M  V30 4584 H 432.266 0.32947 -1.55242 0
M  V30 4585 H 432.287 2.88886 -2.47639 0
M  V30 4586 H 431.799 1.4508 -3.59963 0
M  V30 4587 H 429.9 3.21732 -1.87934 0
M  V30 4588 H 430.013 2.98312 -3.74895 0
M  V30 4589 H 428.377 1.66046 -1.93134 0
M  V30 4590 H 429.16 0.769693 -3.3456 0
M  V30 4591 N 431.605 1.3629 0.791371 0
M  V30 4592 C 432.852 1.30412 1.54916 0
M  V30 4593 C 433.18 -0.117162 1.94147 0
M  V30 4594 O 432.435 -1.08599 1.62803 0
M  V30 4595 C 432.734 2.17068 2.8393 0
M  V30 4596 C 432.4 3.65645 2.63846 0
M  V30 4597 C 431.062 4.0614 2.58077 0
M  V30 4598 C 433.414 4.59855 2.45322 0
M  V30 4599 C 430.742 5.3899 2.31748 0
M  V30 4600 C 433.094 5.9292 2.2052 0
M  V30 4601 C 431.758 6.32542 2.13183 0
M  V30 4602 H 431.028 0.47721 0.566879 0
M  V30 4603 H 433.675 1.68325 0.913172 0
M  V30 4604 H 431.98 1.72085 3.51986 0
M  V30 4605 H 433.677 2.09846 3.4171 0
M  V30 4606 H 430.267 3.33518 2.69191 0
M  V30 4607 H 434.451 4.29443 2.48782 0
M  V30 4608 H 429.707 5.68672 2.24548 0
M  V30 4609 H 433.881 6.65487 2.05182 0
M  V30 4610 H 431.508 7.35412 1.92544 0
M  V30 4611 N 433.083 -1.0153 1.20538 0
M  V30 4612 C 434.499 -1.27461 0.96051 0
M  V30 4613 C 434.699 -1.98273 -0.359193 0
M  V30 4614 O 433.755 -2.27886 -1.0874 0
M  V30 4615 C 435.068 -2.10837 2.14402 0
M  V30 4616 C 436.616 -2.24099 2.18515 0
M  V30 4617 C 437.091 -3.10852 3.36355 0
M  V30 4618 N 438.582 -3.18441 3.36377 0
M  V30 4619 C 439.317 -3.85795 4.24205 0
M  V30 4620 N 438.813 -4.55264 5.22213 0
M  V30 4621 N 440.606 -3.82331 4.12043 0
M  V30 4622 H 432.757 -0.539907 2.05423 0
M  V30 4623 H 435.02 -0.30092 0.898972 0
M  V30 4624 H 434.726 -1.66144 3.09983 0
M  V30 4625 H 434.6 -3.11576 2.12604 0
M  V30 4626 H 436.987 -2.68016 1.23497 0
M  V30 4627 H 437.068 -1.22865 2.24361 0
M  V30 4628 H 436.712 -2.6764 4.31661 0
M  V30 4629 H 436.642 -4.12177 3.27746 0
M  V30 4630 H 439.133 -2.68978 2.65442 0
M  V30 4631 H 439.446 -5.04331 5.85551 0
M  V30 4632 H 437.791 -4.54085 5.26148 0
M  V30 4633 H 440.982 -3.27207 3.34743 0
M  V30 4634 H 441.155 -4.34547 4.807 0
M  V30 4635 N 434.561 -1.01147 -1.20859 0
M  V30 4636 C 435.838 -0.613136 -1.85742 0
M  V30 4637 C 436.218 0.909004 -1.90526 0
M  V30 4638 O 435.566 1.79862 -1.40932 0
M  V30 4639 C 435.776 -1.255 -3.25654 0
M  V30 4640 C 437.124 -1.3672 -4.01986 0
M  V30 4641 O 438.148 -1.21082 -3.34989 0
M  V30 4642 O 437.007 -1.6194 -5.21956 0
M  V30 4643 H 434.101 -0.210878 -0.799662 0
M  V30 4644 H 436.647 -1.10853 -1.2849 0
M  V30 4645 H 435.419 -2.29532 -3.16908 0
M  V30 4646 H 435.042 -0.746369 -3.90532 0
M  V30 4647 N 436.039 1.36541 -0.78704 0
M  V30 4648 C 437.269 2.03266 -0.369662 0
M  V30 4649 C 437.677 1.59481 1.01796 0
M  V30 4650 O 437.02 0.778612 1.66383 0
M  V30 4651 C 437.082 3.57779 -0.351371 0
M  V30 4652 C 436.746 4.24756 -1.68617 0
M  V30 4653 C 437.743 4.47811 -2.64124 0
M  V30 4654 C 435.428 4.62277 -1.96481 0
M  V30 4655 C 437.422 5.07464 -3.85693 0
M  V30 4656 C 435.109 5.21649 -3.18317 0
M  V30 4657 C 436.107 5.44182 -4.12741 0
M  V30 4658 O 435.795 6.02307 -5.32429 0
M  V30 4659 H 435.527 0.658977 -0.150751 0
M  V30 4660 H 438.081 1.75548 -1.0664 0
M  V30 4661 H 436.311 3.84606 0.401847 0
M  V30 4662 H 438 4.05879 0.0410147 0
M  V30 4663 H 438.766 4.19221 -2.43883 0
M  V30 4664 H 434.645 4.44065 -1.23805 0
M  V30 4665 H 438.189 5.24968 -4.59407 0
M  V30 4666 H 434.086 5.49664 -3.38437 0
M  V30 4667 H 434.854 6.20775 -5.33461 0
M  V30 4668 N 437.518 0.538854 1.48102 0
M  V30 4669 C 438.764 0.00801365 2.02798 0
M  V30 4670 C 439.097 -1.3309 1.41424 0
M  V30 4671 O 438.372 -1.86169 0.563158 0
M  V30 4672 C 438.655 -0.104589 3.59948 0
M  V30 4673 C 438.508 1.26012 4.31788 0
M  V30 4674 C 439.827 -0.827055 4.32259 0
M  V30 4675 H 436.946 0.00438624 0.736987 0
M  V30 4676 H 439.588 0.6976 1.7673 0
M  V30 4677 H 437.738 -0.691893 3.82289 0
M  V30 4678 H 439.41 1.88922 4.2084 0
M  V30 4679 H 437.653 1.83968 3.92859 0
M  V30 4680 H 438.324 1.13424 5.40221 0
M  V30 4681 H 440.8 -0.328578 4.14801 0
M  V30 4682 H 439.676 -0.87476 5.41885 0
M  V30 4683 H 439.937 -1.87927 4.0017 0
M  V30 4684 N 438.996 -1.55193 0.274407 0
M  V30 4685 C 440.273 -1.91584 -0.394331 0
M  V30 4686 C 440.653 -1.19858 -1.73774 0
M  V30 4687 O 440.001 -0.3252 -2.26174 0
M  V30 4688 C 440.211 -3.4487 -0.535311 0
M  V30 4689 C 441.559 -4.16636 -0.818534 0
M  V30 4690 O 442.583 -3.5076 -0.620146 0
M  V30 4691 O 441.442 -5.33209 -1.19792 0
M  V30 4692 H 438.536 -0.798349 -0.215794 0
M  V30 4693 H 441.082 -1.66646 0.320507 0
M  V30 4694 H 439.854 -3.89145 0.410141 0
M  V30 4695 H 439.477 -3.75759 -1.29964 0
M  V30 4696 N 440.474 -0.00167713 -1.576 0
M  V30 4697 C 441.89 0.354422 -1.55615 0
M  V30 4698 C 442.09 1.74679 -1.00447 0
M  V30 4699 O 441.146 2.4428 -0.639022 0
M  V30 4700 C 442.459 0.22812 -2.99833 0
M  V30 4701 C 444.007 0.302934 -3.11531 0
M  V30 4702 C 444.482 0.205737 -4.57538 0
M  V30 4703 N 445.973 0.263584 -4.62449 0
M  V30 4704 C 446.708 0.211742 -5.73009 0
M  V30 4705 N 446.204 0.110399 -6.92712 0
M  V30 4706 N 447.997 0.263729 -5.61481 0
M  V30 4707 H 440.148 -0.912498 -1.918 0
M  V30 4708 H 442.411 -0.349928 -0.881053 0
M  V30 4709 H 442.117 -0.729934 -3.44042 0
M  V30 4710 H 441.991 1.00951 -3.6344 0
M  V30 4711 H 444.378 1.25143 -2.67251 0
M  V30 4712 H 444.459 -0.508357 -2.50698 0
M  V30 4713 H 444.103 -0.739225 -5.02492 0
M  V30 4714 H 444.033 1.03554 -5.16318 0
M  V30 4715 H 446.524 0.343173 -3.76339 0
M  V30 4716 H 446.837 0.0767828 -7.72762 0
M  V30 4717 H 445.182 0.0760025 -6.94958 0
M  V30 4718 H 448.373 0.34111 -4.66855 0
M  V30 4719 H 448.546 0.219862 -6.47627 0
M  V30 4720 N 441.952 1.55251 0.271103 0
M  V30 4721 C 443.199 1.75946 1.00245 0
M  V30 4722 C 443.527 0.561611 1.86215 0
M  V30 4723 O 442.782 -0.455832 1.90317 0
M  V30 4724 C 443.081 3.01879 1.91321 0
M  V30 4725 C 442.747 4.34337 1.21086 0
M  V30 4726 C 441.409 4.70338 1.01666 0
M  V30 4727 C 443.761 5.16325 0.71119 0
M  V30 4728 C 441.089 5.8588 0.310099 0
M  V30 4729 C 443.441 6.32597 0.0182157 0
M  V30 4730 C 442.105 6.67236 -0.18768 0
M  V30 4731 H 441.375 0.643833 0.366824 0
M  V30 4732 H 444.022 1.89521 0.27458 0
M  V30 4733 H 442.327 2.83212 2.70736 0
M  V30 4734 H 444.024 3.15088 2.48033 0
M  V30 4735 H 440.614 4.06043 1.37213 0
M  V30 4736 H 444.798 4.88987 0.848844 0
M  V30 4737 H 440.054 6.1124 0.139873 0
M  V30 4738 H 444.228 6.9538 -0.376711 0
M  V30 4739 H 441.855 7.56618 -0.73715 0
M  V30 4740 N 443.43 -0.535701 1.48216 0
M  V30 4741 C 444.66 -1.3148 1.59363 0
M  V30 4742 C 445.068 -1.8753 0.250844 0
M  V30 4743 O 444.411 -1.66821 -0.769174 0
M  V30 4744 C 444.473 -2.50731 2.57632 0
M  V30 4745 C 444.137 -2.15811 4.02833 0
M  V30 4746 C 445.134 -1.71822 4.90686 0
M  V30 4747 C 442.819 -2.26509 4.48329 0
M  V30 4748 C 444.813 -1.3899 6.22062 0
M  V30 4749 C 442.5 -1.93289 5.79726 0
M  V30 4750 C 443.498 -1.49599 6.66415 0
M  V30 4751 O 443.186 -1.16812 7.95368 0
M  V30 4752 H 442.918 -0.406315 0.540263 0
M  V30 4753 H 445.472 -0.653569 1.94725 0
M  V30 4754 H 443.702 -3.19817 2.1738 0
M  V30 4755 H 445.391 -3.12797 2.58675 0
M  V30 4756 H 446.157 -1.63031 4.56778 0
M  V30 4757 H 442.036 -2.59471 3.81045 0
M  V30 4758 H 445.58 -1.04816 6.89681 0
M  V30 4759 H 441.477 -2.01718 6.13172 0
M  V30 4760 H 442.245 -1.30259 8.08069 0
M  V30 4761 N 444.908 -1.36708 -0.784132 0
M  V30 4762 C 445.855 -1.31466 -1.89698 0
M  V30 4763 C 446.825 -0.18239 -1.65096 0
M  V30 4764 O 448.01 -0.369762 -1.87183 0
M  V30 4765 C 445.15 -1.1151 -3.26588 0
M  V30 4766 C 444.263 -2.33859 -3.63227 0
M  V30 4767 C 443.398 -2.06873 -4.89262 0
M  V30 4768 C 442.437 -3.25154 -5.18595 0
M  V30 4769 N 441.574 -2.978 -6.35814 0
M  V30 4770 H 446.414 -2.26619 -1.93515 0
M  V30 4771 H 443.951 -1.12625 -0.946256 0
M  V30 4772 H 445.909 -0.979653 -4.05535 0
M  V30 4773 H 444.539 -0.200103 -3.22179 0
M  V30 4774 H 443.591 -2.58188 -2.79362 0
M  V30 4775 H 444.903 -3.22109 -3.8085 0
M  V30 4776 H 444.057 -1.90289 -5.76086 0
M  V30 4777 H 442.796 -1.15942 -4.73718 0
M  V30 4778 H 441.801 -3.42292 -4.30251 0
M  V30 4779 H 443.026 -4.1692 -5.36055 0
M  V30 4780 H 440.972 -2.09485 -6.21653 0
M  V30 4781 H 440.889 -3.7959 -6.53794 0
M  V30 4782 H 442.157 -2.84805 -7.25607 0
M  V30 4783 N 446.386 1.0089 -1.21074 0
M  V30 4784 C 447.614 1.78191 -1.05145 0
M  V30 4785 C 448.029 1.84537 0.398952 0
M  V30 4786 O 447.386 1.30393 1.27687 0
M  V30 4787 C 447.437 3.22288 -1.63746 0
M  V30 4788 O 447.158 3.16315 -3.03111 0
M  V30 4789 C 448.659 4.16106 -1.52875 0
M  V30 4790 H 445.879 0.560129 -0.369454 0
M  V30 4791 H 448.423 1.26945 -1.60328 0
M  V30 4792 H 446.578 3.70655 -1.12664 0
M  V30 4793 H 446.992 4.06817 -3.31059 0
M  V30 4794 H 448.466 5.15026 -1.98626 0
M  V30 4795 H 448.943 4.36541 -0.482521 0
M  V30 4796 H 449.549 3.73625 -2.03185 0
M  V30 4797 N 447.864 1.01787 1.20321 0
M  V30 4798 C 448.794 0.609625 2.25401 0
M  V30 4799 C 449.775 -0.375951 1.65893 0
M  V30 4800 O 450.96 -0.261101 1.92437 0
M  V30 4801 C 448.09 -0.0515995 3.47262 0
M  V30 4802 C 447.044 0.855095 4.19371 0
M  V30 4803 C 446.37 0.0595757 5.34667 0
M  V30 4804 C 447.67 2.16374 4.75373 0
M  V30 4805 H 449.364 1.48803 2.59804 0
M  V30 4806 H 446.91 0.716934 1.24884 0
M  V30 4807 H 448.863 -0.348764 4.19954 0
M  V30 4808 H 447.587 -0.964726 3.12027 0
M  V30 4809 H 446.246 1.13628 3.48546 0
M  V30 4810 H 445.894 -0.85524 4.95676 0
M  V30 4811 H 445.594 0.663406 5.83843 0
M  V30 4812 H 447.118 -0.231105 6.10162 0
M  V30 4813 H 448.532 1.92885 5.39878 0
M  V30 4814 H 446.929 2.71853 5.34991 0
M  V30 4815 H 447.999 2.82589 3.94045 0
M  V30 4816 N 449.342 -1.36122 0.79427 0
M  V30 4817 C 450.758 -1.5232 0.476525 0
M  V30 4818 C 450.958 -1.74685 -1.00436 0
M  V30 4819 O 450.014 -1.78115 -1.78973 0
M  V30 4820 C 451.327 -2.70607 1.31119 0
M  V30 4821 C 452.875 -2.8448 1.30537 0
M  V30 4822 C 453.35 -4.05778 2.12387 0
M  V30 4823 N 454.841 -4.12933 2.09859 0
M  V30 4824 C 455.576 -5.05876 2.69957 0
M  V30 4825 N 455.072 -6.04232 3.38934 0
M  V30 4826 N 456.865 -4.98528 2.59665 0
M  V30 4827 H 449.016 -1.1986 1.75349 0
M  V30 4828 H 451.279 -0.585418 0.745647 0
M  V30 4829 H 450.985 -2.60619 2.36158 0
M  V30 4830 H 450.859 -3.64888 0.955843 0
M  V30 4831 H 453.246 -2.93927 0.262876 0
M  V30 4832 H 453.327 -1.91093 1.70051 0
M  V30 4833 H 452.971 -3.97092 3.1667 0
M  V30 4834 H 452.901 -4.98323 1.70242 0
M  V30 4835 H 455.392 -3.42515 1.59662 0
M  V30 4836 H 455.705 -6.71724 3.82109 0
M  V30 4837 H 454.05 -6.04443 3.43036 0
M  V30 4838 H 457.241 -4.20641 2.05375 0
M  V30 4839 H 457.414 -5.70773 3.06793 0
M  V30 4840 N 450.82 -0.546701 -1.47814 0
M  V30 4841 C 451.783 0.196287 -2.28358 0
M  V30 4842 C 452.783 0.852437 -1.36346 0
M  V30 4843 O 453.973 0.709913 -1.59078 0
M  V30 4844 C 451.105 1.28579 -3.15722 0
M  V30 4845 H 452.298 -0.511086 -2.95513 0
M  V30 4846 H 449.851 -0.303248 -1.5333 0
M  V30 4847 H 450.586 2.0259 -2.53235 0
M  V30 4848 H 450.371 0.820229 -3.83425 0
M  V30 4849 H 451.861 1.80793 -3.76435 0
M  V30 4850 N 452.299 1.55045 -0.282633 0
M  V30 4851 C 453.209 2.26491 0.61147 0
M  V30 4852 C 454.225 1.29348 1.16384 0
M  V30 4853 O 455.401 1.62298 1.19253 0
M  V30 4854 C 452.466 2.97779 1.77563 0
M  V30 4855 C 451.527 4.10418 1.25919 0
M  V30 4856 C 450.76 4.78297 2.36786 0
M  V30 4857 O 450.983 4.45426 3.56303 0
M  V30 4858 O 449.917 5.66089 2.04517 0
M  V30 4859 H 453.743 3.03683 0.0324615 0
M  V30 4860 H 451.328 1.49317 -0.0497576 0
M  V30 4861 H 453.21 3.42554 2.45427 0
M  V30 4862 H 451.885 2.23498 2.34159 0
M  V30 4863 H 450.792 3.70082 0.546797 0
M  V30 4864 H 452.125 4.86622 0.738887 0
M  V30 4865 N 453.777 0.010035 1.57597 0
M  V30 4866 C 454.709 -1.00649 2.05918 0
M  V30 4867 C 455.722 -1.30077 0.978964 0
M  V30 4868 O 456.911 -1.26878 1.25556 0
M  V30 4869 C 454.011 -2.33876 2.45265 0
M  V30 4870 C 453.184 -2.23242 3.7614 0
M  V30 4871 C 452.243 -3.39242 4.02245 0
M  V30 4872 O 451.269 -3.1698 4.72771 0
M  V30 4873 N 452.471 -4.6242 3.50924 0
M  V30 4874 H 455.236 -0.594333 2.93748 0
M  V30 4875 H 452.797 -0.17714 1.60928 0
M  V30 4876 H 454.789 -3.1027 2.59836 0
M  V30 4877 H 453.359 -2.66799 1.62902 0
M  V30 4878 H 452.579 -1.31696 3.71551 0
M  V30 4879 H 453.867 -2.13321 4.61922 0
M  V30 4880 H 453.265 -4.83404 2.93832 0
M  V30 4881 H 451.822 -5.36046 3.70807 0
M  V30 4882 N 455.255 -1.55392 -0.262866 0
M  V30 4883 C 456.218 -1.88181 -1.30846 0
M  V30 4884 C 457.218 -0.757079 -1.41862 0
M  V30 4885 O 458.408 -1.02519 -1.40838 0
M  V30 4886 C 455.54 -2.09609 -2.68844 0
M  V30 4887 H 456.733 -2.81659 -1.02997 0
M  V30 4888 H 454.286 -1.48039 -0.501414 0
M  V30 4889 H 455.021 -1.18547 -3.01856 0
M  V30 4890 H 454.806 -2.91508 -2.62231 0
M  V30 4891 H 456.296 -2.36215 -3.44372 0
M  V30 4892 N 456.733 0.527833 -1.48498 0
M  V30 4893 C 457.958 1.313 -1.60546 0
M  V30 4894 C 458.383 1.86199 -0.26672 0
M  V30 4895 O 457.741 1.64513 0.761918 0
M  V30 4896 C 457.789 2.43818 -2.65678 0
M  V30 4897 O 456.893 3.46916 -2.22987 0
M  V30 4898 H 456.234 0.388784 -0.538277 0
M  V30 4899 H 458.764 0.634896 -1.945 0
M  V30 4900 H 458.774 2.89973 -2.87018 0
M  V30 4901 H 457.449 2.03222 -3.62869 0
M  V30 4902 H 456.026 3.06864 -2.11869 0
M  V30 4903 N 458.211 1.37122 0.776871 0
M  V30 4904 C 459.143 1.28342 1.89897 0
M  V30 4905 C 460.156 0.200277 1.61563 0
M  V30 4906 O 461.345 0.456012 1.72577 0
M  V30 4907 C 458.445 0.960427 3.25006 0
M  V30 4908 C 457.618 2.148 3.81025 0
M  V30 4909 C 456.677 1.79608 4.94598 0
M  V30 4910 O 455.703 2.51845 5.10454 0
M  V30 4911 N 456.905 0.737171 5.758 0
M  V30 4912 H 459.67 2.25027 1.97947 0
M  V30 4913 H 457.231 1.3068 0.955739 0
M  V30 4914 H 459.223 0.705942 3.98495 0
M  V30 4915 H 457.793 0.0823066 3.12492 0
M  V30 4916 H 457.013 2.56454 2.99374 0
M  V30 4917 H 458.301 2.9411 4.15183 0
M  V30 4918 H 457.699 0.137637 5.65533 0
M  V30 4919 H 456.256 0.542534 6.49538 0
M  V30 4920 N 459.689 -1.00246 1.21608 0
M  V30 4921 C 460.599 -2.12515 0.993709 0
M  V30 4922 C 461.615 -1.73913 -0.0549939 0
M  V30 4923 O 462.791 -2.00943 0.135619 0
M  V30 4924 C 459.856 -3.42083 0.563953 0
M  V30 4925 C 458.917 -3.94843 1.68516 0
M  V30 4926 C 458.15 -5.18226 1.27582 0
M  V30 4927 O 458.373 -5.70201 0.150506 0
M  V30 4928 O 457.307 -5.64497 2.0887 0
M  V30 4929 H 461.133 -2.34152 1.93407 0
M  V30 4930 H 458.718 -1.10891 1.00118 0
M  V30 4931 H 460.6 -4.20073 0.334194 0
M  V30 4932 H 459.275 -3.21828 -0.347665 0
M  V30 4933 H 458.182 -3.18068 1.96935 0
M  V30 4934 H 459.515 -4.19512 2.5743 0
M  V30 4935 N 461.167 -1.02423 -1.1978 0
M  V30 4936 C 462.413 -0.719051 -1.89625 0
M  V30 4937 C 462.746 0.750083 -1.7913 0
M  V30 4938 O 462.021 1.54574 -1.18056 0
M  V30 4939 C 462.304 -1.16499 -3.40735 0
M  V30 4940 C 462.157 -2.695 -3.60125 0
M  V30 4941 C 463.476 -0.742166 -4.33797 0
M  V30 4942 H 460.595 -0.26269 -0.688595 0
M  V30 4943 H 463.237 -1.27333 -1.41018 0
M  V30 4944 H 461.387 -0.69341 -3.82262 0
M  V30 4945 H 463.059 -3.24569 -3.278 0
M  V30 4946 H 461.302 -3.10113 -3.03336 0
M  V30 4947 H 461.973 -2.95757 -4.66081 0
M  V30 4948 H 464.449 -1.1477 -3.99959 0
M  V30 4949 H 463.325 -1.08213 -5.38127 0
M  V30 4950 H 463.586 0.355747 -4.40666 0
M  V30 4951 N 462.645 1.35699 -0.801477 0
M  V30 4952 C 463.592 2.29876 -0.206294 0
M  V30 4953 C 464.562 1.52565 0.656752 0
M  V30 4954 O 465.747 1.81024 0.602906 0
M  V30 4955 C 462.887 3.39052 0.643272 0
M  V30 4956 C 462 4.31335 -0.239644 0
M  V30 4957 C 461.135 5.27599 0.61744 0
M  V30 4958 C 460.174 6.11521 -0.26619 0
M  V30 4959 N 459.311 6.99938 0.550571 0
M  V30 4960 H 464.151 2.80187 -1.01484 0
M  V30 4961 H 461.688 1.37902 -0.511997 0
M  V30 4962 H 463.646 4.0101 1.15094 0
M  V30 4963 H 462.276 2.9003 1.41713 0
M  V30 4964 H 461.328 3.70426 -0.865381 0
M  V30 4965 H 462.64 4.90243 -0.919985 0
M  V30 4966 H 461.794 5.94906 1.19045 0
M  V30 4967 H 460.533 4.69176 1.33137 0
M  V30 4968 H 459.538 5.43166 -0.851507 0
M  V30 4969 H 460.763 6.72022 -0.9779 0
M  V30 4970 H 458.709 6.44008 1.24856 0
M  V30 4971 H 458.626 7.55966 -0.071832 0
M  V30 4972 H 459.894 7.71599 1.10702 0
M  V30 4973 N 464.123 0.554532 1.47522 0
M  V30 4974 C 465.071 -0.207765 2.3167 0
M  V30 4975 C 466.065 -0.911914 1.4276 0
M  V30 4976 O 467.271 -0.833504 1.59539 0
M  V30 4977 H 463.646 -0.0858726 0.747081 0
M  V30 4978 H 465.617 0.521178 2.93813 0
M  V30 4979 C 464.366 -1.2263 3.25357 0
M  V30 4980 H 463.689 -0.693887 3.93732 0
M  V30 4981 H 465.129 -1.73062 3.87073 0
M  V30 4982 C 463.588 -2.27278 2.4869 0
M  V30 4983 O 464.118 -3.34156 2.22941 0
M  V30 4984 N 462.324 -2.01134 2.09746 0
M  V30 4985 H 461.871 -1.14232 2.30887 0
M  V30 4986 H 461.829 -2.71369 1.58765 0
M  V30 4987 N 465.601 -1.54893 0.290851 0
M  V30 4988 C 466.847 -2.00949 -0.314784 0
M  V30 4989 C 467.202 -1.1757 -1.52299 0
M  V30 4990 O 466.495 -0.241558 -1.90071 0
M  V30 4991 C 466.689 -3.49815 -0.732397 0
M  V30 4992 C 466.518 -4.47603 0.433799 0
M  V30 4993 C 465.288 -4.96806 0.922599 0
M  V30 4994 C 467.486 -4.98233 1.27546 0
M  V30 4995 N 465.468 -5.78426 2.05662 0
M  V30 4996 C 466.839 -5.77455 2.25712 0
M  V30 4997 C 468.894 -4.80439 1.307 0
M  V30 4998 C 467.597 -6.40778 3.26796 0
M  V30 4999 C 469.623 -5.44574 2.30637 0
M  V30 5000 C 468.985 -6.23619 3.27533 0
M  V30 5001 H 465.084 -0.777905 -0.0799257 0
M  V30 5002 H 467.668 -1.9015 0.418458 0
M  V30 5003 H 465.839 -3.60925 -1.43483 0
M  V30 5004 H 467.571 -3.82681 -1.31671 0
M  V30 5005 H 464.326 -4.70961 0.49926 0
M  V30 5006 H 464.75 -6.23923 2.62772 0
M  V30 5007 H 469.392 -4.18918 0.571622 0
M  V30 5008 H 467.11 -7.01439 4.01258 0
M  V30 5009 H 470.696 -5.32739 2.33838 0
M  V30 5010 H 469.576 -6.72367 4.03599 0
M  V30 5011 N 467.08 -0.0183926 -1.57589 0
M  V30 5012 C 468.013 1.00148 -2.0505 0
M  V30 5013 C 468.991 1.32387 -0.944058 0
M  V30 5014 O 470.175 1.44237 -1.21358 0
M  V30 5015 C 467.302 2.32435 -2.46357 0
M  V30 5016 C 466.348 2.15731 -3.67916 0
M  V30 5017 S 467.181 1.46613 -5.15039 0
M  V30 5018 C 468.337 2.80293 -5.59631 0
M  V30 5019 H 468.57 0.597429 -2.91235 0
M  V30 5020 H 466.103 0.193002 -1.53189 0
M  V30 5021 H 468.061 3.0849 -2.70822 0
M  V30 5022 H 466.722 2.69975 -1.60537 0
M  V30 5023 H 465.915 3.13502 -3.9463 0
M  V30 5024 H 465.517 1.4782 -3.43548 0
M  V30 5025 H 467.809 3.76557 -5.63215 0
M  V30 5026 H 468.752 2.58256 -6.59325 0
M  V30 5027 H 469.16 2.85047 -4.87246 0
M  V30 5028 N 468.558 1.5553 0.254621 0
M  V30 5029 C 469.786 1.81046 1.00149 0
M  V30 5030 C 470.201 0.593047 1.79244 0
M  V30 5031 O 469.558 -0.438196 1.77161 0
M  V30 5032 C 469.609 3.04684 1.94551 0
M  V30 5033 O 469.33 4.21725 1.18658 0
M  V30 5034 C 470.831 3.42943 2.80901 0
M  V30 5035 H 468.051 0.602653 0.295044 0
M  V30 5036 H 470.595 2.02576 0.279842 0
M  V30 5037 H 468.75 2.85226 2.62154 0
M  V30 5038 H 469.164 4.91746 1.82445 0
M  V30 5039 H 470.638 4.32576 3.42902 0
M  V30 5040 H 471.115 2.63176 3.51617 0
M  V30 5041 H 471.721 3.64724 2.18762 0
M  V30 5042 N 470.036 -0.519951 1.48776 0
M  V30 5043 C 470.946 -1.65025 1.66745 0
M  V30 5044 C 471.962 -1.6508 0.549954 0
M  V30 5045 O 473.138 -1.83848 0.822295 0
M  V30 5046 C 470.203 -3.0146 1.71238 0
M  V30 5047 C 469.264 -3.12182 2.94688 0
M  V30 5048 C 468.497 -4.42109 2.98958 0
M  V30 5049 O 468.72 -5.29799 2.1135 0
M  V30 5050 O 467.654 -4.57406 3.91233 0
M  V30 5051 H 471.48 -1.52801 2.62461 0
M  V30 5052 H 469.065 -0.694157 1.32294 0
M  V30 5053 H 470.947 -3.82584 1.76657 0
M  V30 5054 H 469.622 -3.13988 0.786975 0
M  V30 5055 H 468.529 -2.30316 2.94797 0
M  V30 5056 H 469.862 -3.04574 3.86646 0
M  V30 5057 N 471.514 -1.37532 -0.769588 0
M  V30 5058 C 472.742 -1.36059 -1.55871 0
M  V30 5059 C 473.157 0.053544 -1.88724 0
M  V30 5060 O 472.514 1.01591 -1.5161 0
M  V30 5061 C 472.565 -2.20107 -2.86767 0
M  V30 5062 O 472.286 -3.56009 -2.55321 0
M  V30 5063 C 473.787 -2.26636 -3.80987 0
M  V30 5064 H 471.007 -0.465967 -0.482821 0
M  V30 5065 H 473.551 -1.80901 -0.953686 0
M  V30 5066 H 471.706 -1.78768 -3.43687 0
M  V30 5067 H 472.12 -4.0009 -3.39158 0
M  V30 5068 H 473.594 -2.89763 -4.69831 0
M  V30 5069 H 474.071 -1.2754 -4.20274 0
M  V30 5070 H 474.677 -2.68296 -3.29996 0
M  V30 5071 N 472.992 0.995999 -1.22138 0
M  V30 5072 C 473.922 2.10387 -1.01289 0
M  V30 5073 C 474.903 1.69975 0.0651454 0
M  V30 5074 O 476.088 1.9396 -0.0964628 0
M  V30 5075 C 473.218 3.42312 -0.586517 0
M  V30 5076 C 472.172 3.96558 -1.61014 0
M  V30 5077 C 471.498 5.24494 -1.0397 0
M  V30 5078 C 472.798 4.27595 -2.99933 0
M  V30 5079 H 474.492 2.28086 -1.93951 0
M  V30 5080 H 472.038 1.09607 -0.933928 0
M  V30 5081 H 473.991 4.19223 -0.427793 0
M  V30 5082 H 472.715 3.24431 0.375761 0
M  V30 5083 H 471.374 3.21776 -1.75658 0
M  V30 5084 H 471.022 5.02953 -0.0688703 0
M  V30 5085 H 470.722 5.61755 -1.72352 0
M  V30 5086 H 472.246 6.04042 -0.892494 0
M  V30 5087 H 473.66 4.95315 -2.8868 0
M  V30 5088 H 472.057 4.76021 -3.6541 0
M  V30 5089 H 473.127 3.35498 -3.50099 0
M  V30 5090 N 474.47 1.03057 1.19235 0
M  V30 5091 C 475.4 0.633497 2.24742 0
M  V30 5092 C 476.381 -0.358335 1.66283 0
M  V30 5093 O 477.566 -0.240676 1.92703 0
M  V30 5094 C 474.696 -0.0147648 3.47297 0
M  V30 5095 C 473.65 0.899527 4.18441 0
M  V30 5096 C 472.976 0.116281 5.34574 0
M  V30 5097 C 474.276 2.21404 4.73051 0
M  V30 5098 H 475.97 1.5155 2.58211 0
M  V30 5099 H 473.516 0.73014 1.24117 0
M  V30 5100 H 475.469 -0.304202 4.20301 0
M  V30 5101 H 474.193 -0.931577 3.13032 0
M  V30 5102 H 472.852 1.17319 3.47321 0
M  V30 5103 H 472.5 -0.802619 4.96555 0
M  V30 5104 H 472.2 0.725293 5.83107 0
M  V30 5105 H 473.724 -0.166376 6.10373 0
M  V30 5106 H 475.138 1.98601 5.37802 0
M  V30 5107 H 473.535 2.77512 5.32078 0
M  V30 5108 H 474.605 2.86752 3.91026 0
M  V30 5109 N 475.948 -1.35272 0.808662 0
M  V30 5110 C 477.194 -1.99003 0.390581 0
M  V30 5111 C 477.527 -1.63999 -1.0401 0
M  V30 5112 O 476.802 -0.904368 -1.72196 0
M  V30 5113 C 477.085 -3.55454 0.576566 0
M  V30 5114 C 476.938 -4.00249 2.05233 0
M  V30 5115 C 478.257 -4.401 0.00354277 0
M  V30 5116 H 475.376 -0.722917 0.143388 0
M  V30 5117 H 478.018 -1.6039 1.01858 0
M  V30 5118 H 476.168 -3.88477 0.0419766 0
M  V30 5119 H 477.84 -3.77626 2.64946 0
M  V30 5120 H 476.083 -3.51082 2.54801 0
M  V30 5121 H 476.754 -5.0911 2.13333 0
M  V30 5122 H 479.23 -4.13548 0.460117 0
M  V30 5123 H 478.106 -5.48656 0.163575 0
M  V30 5124 H 478.367 -4.28444 -1.09032 0
M  V30 5125 N 477.426 -0.562348 -1.47226 0
M  V30 5126 C 478.358 0.220011 -2.28142 0
M  V30 5127 C 479.371 0.874596 -1.37312 0
M  V30 5128 O 480.56 0.747583 -1.62091 0
M  V30 5129 C 477.66 1.32953 -3.11732 0
M  V30 5130 C 476.833 0.770759 -4.30556 0
M  V30 5131 C 475.892 1.76541 -4.95701 0
M  V30 5132 O 474.918 1.3095 -5.53932 0
M  V30 5133 N 476.12 3.09896 -4.90861 0
M  V30 5134 H 478.885 -0.474107 -2.95926 0
M  V30 5135 H 476.446 -0.398761 -1.56912 0
M  V30 5136 H 478.438 1.99378 -3.5218 0
M  V30 5137 H 477.008 1.92681 -2.46156 0
M  V30 5138 H 476.228 -0.0704056 -3.94137 0
M  V30 5139 H 477.516 0.376872 -5.07402 0
M  V30 5140 H 476.914 3.49577 -4.44761 0
M  V30 5141 H 475.471 3.71865 -5.35313 0
M  V30 5142 N 478.904 1.54736 -0.299062 0
M  V30 5143 C 479.852 2.24897 0.593658 0
M  V30 5144 C 480.846 1.25429 1.13859 0
M  V30 5145 O 482.052 1.43286 1.08945 0
M  V30 5146 H 478.427 0.72207 0.210046 0
M  V30 5147 H 480.398 2.98393 -0.0206421 0
M  V30 5148 C 479.147 3.00159 1.75499 0
M  V30 5149 H 478.47 3.76501 1.34489 0
M  V30 5150 H 479.91 3.52535 2.35574 0
M  V30 5151 C 478.369 2.07015 2.65794 0
M  V30 5152 O 478.899 1.63692 3.66835 0
M  V30 5153 N 477.105 1.73012 2.33485 0
M  V30 5154 H 476.652 2.08439 1.51364 0
M  V30 5155 H 476.61 1.10965 2.94167 0
M  V30 5156 N 480.382 0.0267497 1.57577 0
M  V30 5157 C 481.345 -0.940916 2.08996 0
M  V30 5158 C 482.345 -1.25561 1.00455 0
M  V30 5159 O 483.535 -1.19634 1.26623 0
M  V30 5160 C 480.667 -2.25814 2.55384 0
M  V30 5161 H 481.86 -0.495628 2.95776 0
M  V30 5162 H 479.413 -0.221241 1.54726 0
M  V30 5163 H 480.148 -2.74976 1.71926 0
M  V30 5164 H 479.933 -2.04285 3.34679 0
M  V30 5165 H 481.423 -2.95178 2.95398 0
M  V30 5166 N 481.861 -1.55662 -0.24637 0
M  V30 5167 C 482.809 -1.91186 -1.3248 0
M  V30 5168 C 483.803 -0.790996 -1.49799 0
M  V30 5169 O 485.009 -0.975617 -1.51267 0
M  V30 5170 H 481.384 -0.607207 -0.443626 0
M  V30 5171 H 483.355 -2.81221 -0.997853 0
M  V30 5172 C 482.104 -2.22349 -2.67313 0
M  V30 5173 H 481.427 -3.08097 -2.54786 0
M  V30 5174 H 482.867 -2.51107 -3.41645 0
M  V30 5175 C 481.326 -1.04001 -3.20446 0
M  V30 5176 O 481.856 -0.28828 -4.00664 0
M  V30 5177 N 480.062 -0.830494 -2.7848 0
M  V30 5178 H 479.609 -1.4435 -2.13356 0
M  V30 5179 H 479.567 -0.0403258 -3.14374 0
M  V30 5180 N 483.339 0.512053 -1.4905 0
M  V30 5181 C 484.75 1.09376 -1.51307 0
M  V30 5182 C 485.101 1.94 -0.292971 0
M  V30 5183 O 484.226 2.07965 0.598277 0
M  V30 5184 C 484.821 1.99031 -2.74176 0
M  V30 5185 C 483.38 2.52385 -2.79247 0
M  V30 5186 C 482.527 1.29749 -2.45073 0
M  V30 5187 H 485.478 0.296467 -1.55906 0
M  V30 5188 H 485.499 2.83569 -2.53711 0
M  V30 5189 H 485.011 1.37412 -3.62959 0
M  V30 5190 H 483.112 3.17673 -1.94716 0
M  V30 5191 H 483.225 2.90293 -3.81139 0
M  V30 5192 H 481.589 1.61912 -1.96612 0
M  V30 5193 H 482.372 0.698555 -3.36118 0
M  V30 5194 N 484.817 1.37938 0.762283 0
M  V30 5195 C 486.094 1.24196 1.51112 0
M  V30 5196 C 486.474 -0.160409 2.1049 0
M  V30 5197 O 485.822 -1.16904 1.96331 0
M  V30 5198 C 486.032 2.34537 2.58445 0
M  V30 5199 C 487.38 2.7254 3.25588 0
M  V30 5200 O 488.404 2.33783 2.68745 0
M  V30 5201 O 487.263 3.39343 4.28379 0
M  V30 5202 H 484.357 0.485175 0.669727 0
M  V30 5203 H 486.903 1.49743 0.798438 0
M  V30 5204 H 485.675 3.28406 2.12756 0
M  V30 5205 H 485.298 2.10505 3.37303 0
M  V30 5206 N 486.295 -0.989507 1.22664 0
M  V30 5207 C 487.535 -1.7447 1.06488 0
M  V30 5208 C 487.899 -1.8794 -0.392737 0
M  V30 5209 O 489.1 -2.60175 -0.675446 0
M  V30 5210 C 487.371 -3.11043 1.76031 0
M  V30 5211 S 488.93 -4.02258 1.7531 0
M  V30 5212 H 485.748 -0.600123 0.381278 0
M  V30 5213 H 488.35 -1.18283 1.55658 0
M  V30 5214 H 487.054 -2.98884 2.81241 0
M  V30 5215 H 486.585 -3.72301 1.27105 0
M  V30 5216 H 488.6 -4.89623 0.805208 0
M  V30 5217 N 487.773 -1.03688 -1.18687 0
M  V30 5218 C 488.72 -0.624624 -2.22187 0
M  V30 5219 C 489.69 0.365636 -1.62026 0
M  V30 5220 O 490.875 0.260481 -1.89014 0
M  V30 5221 C 488.015 0.0101738 -3.45099 0
M  V30 5222 C 487.128 -1.02709 -4.19613 0
M  V30 5223 C 486.263 -0.361213 -5.2997 0
M  V30 5224 C 485.302 -1.38384 -5.96252 0
M  V30 5225 N 484.439 -0.743196 -6.98155 0
M  V30 5226 H 489.279 -1.51176 -2.56807 0
M  V30 5227 H 486.816 -0.75636 -1.26165 0
M  V30 5228 H 488.774 0.395528 -4.15321 0
M  V30 5229 H 487.404 0.860848 -3.1111 0
M  V30 5230 H 486.456 -1.53043 -3.48256 0
M  V30 5231 H 487.768 -1.80398 -4.65036 0
M  V30 5232 H 486.922 0.0785537 -6.06649 0
M  V30 5233 H 485.661 0.447799 -4.8564 0
M  V30 5234 H 484.666 -1.83378 -5.18317 0
M  V30 5235 H 485.891 -2.19448 -6.42666 0
M  V30 5236 H 483.837 0.0455789 -6.55984 0
M  V30 5237 H 483.754 -1.45784 -7.41811 0
M  V30 5238 H 485.022 -0.327698 -7.78811 0
M  V30 5239 N 489.251 1.34841 -0.815825 0
M  V30 5240 C 490.479 2.0273 -0.413294 0
M  V30 5241 C 490.894 1.61459 0.978599 0
M  V30 5242 O 490.251 0.816584 1.63212 0
M  V30 5243 C 490.302 3.58058 -0.497676 0
M  V30 5244 O 490.023 3.97832 -1.8347 0
M  V30 5245 C 491.524 4.4321 -0.0891339 0
M  V30 5246 H 488.744 0.649956 -0.166728 0
M  V30 5247 H 491.288 1.72267 -1.10201 0
M  V30 5248 H 489.443 3.87136 0.142886 0
M  V30 5249 H 489.857 4.92501 -1.80396 0
M  V30 5250 H 491.331 5.5164 -0.199274 0
M  V30 5251 H 491.808 4.28432 0.966571 0
M  V30 5252 H 492.414 4.19446 -0.703214 0
M  V30 5253 N 490.729 0.570148 1.46925 0
M  V30 5254 C 491.978 0.0487352 2.01641 0
M  V30 5255 C 492.291 -1.31433 1.44861 0
M  V30 5256 O 493.497 -1.92638 1.91318 0
M  V30 5257 C 491.953 0.0365817 3.59881 0
M  V30 5258 C 491.561 1.39719 4.25655 0
M  V30 5259 C 493.305 -0.431545 4.22301 0
M  V30 5260 C 491.212 1.34345 5.75939 0
M  V30 5261 H 490.142 0.0144492 0.753862 0
M  V30 5262 H 492.793 0.719928 1.68788 0
M  V30 5263 H 491.175 -0.700522 3.89755 0
M  V30 5264 H 492.349 2.15303 4.07408 0
M  V30 5265 H 490.664 1.80431 3.75278 0
M  V30 5266 H 493.261 -0.490354 5.32447 0
M  V30 5267 H 493.604 -1.44638 3.90366 0
M  V30 5268 H 494.137 0.251102 3.97007 0
M  V30 5269 H 490.876 2.33469 6.12513 0
M  V30 5270 H 490.396 0.629615 5.96486 0
M  V30 5271 H 492.075 1.051 6.38407 0
M  V30 5272 N 492.207 -1.54576 0.307264 0
M  V30 5273 C 493.137 -2.26708 -0.55907 0
M  V30 5274 C 494.118 -1.26893 -1.1328 0
M  V30 5275 O 495.303 -1.55677 -1.16097 0
M  V30 5276 C 492.433 -3.01259 -1.72801 0
M  V30 5277 C 491.387 -4.08275 -1.28435 0
M  V30 5278 C 490.713 -4.70575 -2.53895 0
M  V30 5279 C 492.013 -5.2068 -0.411038 0
M  V30 5280 H 493.707 -2.9937 0.042576 0
M  V30 5281 H 491.253 -1.43983 0.0219173 0
M  V30 5282 H 493.206 -3.50444 -2.34023 0
M  V30 5283 H 491.93 -2.26187 -2.356 0
M  V30 5284 H 490.589 -3.59949 -0.695161 0
M  V30 5285 H 490.237 -3.92136 -3.15021 0
M  V30 5286 H 489.937 -5.42854 -2.24908 0
M  V30 5287 H 491.461 -5.22527 -3.15908 0
M  V30 5288 H 492.875 -5.65721 -0.929097 0
M  V30 5289 H 491.272 -5.99716 -0.214664 0
M  V30 5290 H 492.342 -4.81629 0.562287 0
M  V30 5291 N 493.685 -0.035106 -1.57561 0
M  V30 5292 C 494.632 0.94474 -2.10578 0
M  V30 5293 C 495.602 1.3192 -1.00927 0
M  V30 5294 O 496.787 1.41147 -1.28382 0
M  V30 5295 C 493.927 2.21982 -2.64231 0
M  V30 5296 C 493.04 1.90128 -3.87911 0
M  V30 5297 C 492.175 3.11975 -4.29936 0
M  V30 5298 C 491.214 2.75968 -5.46359 0
M  V30 5299 N 490.351 3.90459 -5.83512 0
M  V30 5300 H 495.191 0.485717 -2.94015 0
M  V30 5301 H 492.728 0.228143 -1.4532 0
M  V30 5302 H 494.686 2.96572 -2.9343 0
M  V30 5303 H 493.316 2.6549 -1.83616 0
M  V30 5304 H 492.368 1.05755 -3.65404 0
M  V30 5305 H 493.68 1.59613 -4.72573 0
M  V30 5306 H 492.834 3.9488 -4.60603 0
M  V30 5307 H 491.573 3.45657 -3.44053 0
M  V30 5308 H 490.578 1.91478 -5.1538 0
M  V30 5309 H 491.803 2.43497 -6.33945 0
M  V30 5310 H 489.749 4.23971 -5.00584 0
M  V30 5311 H 489.666 3.63588 -6.62827 0
M  V30 5312 H 490.934 4.7405 -6.18787 0
M  V30 5313 N 495.163 1.55791 0.238111 0
M  V30 5314 C 496.126 1.90239 1.27835 0
M  V30 5315 C 497.126 0.779552 1.4064 0
M  V30 5316 O 498.316 1.04747 1.3919 0
M  V30 5317 C 495.448 2.13859 2.65475 0
M  V30 5318 H 496.641 2.83262 0.985034 0
M  V30 5319 H 494.194 1.48818 0.477799 0
M  V30 5320 H 494.929 1.23334 2.99932 0
M  V30 5321 H 494.714 2.95643 2.57561 0
M  V30 5322 H 496.204 2.41664 3.40571 0
M  V30 5323 N 496.642 -0.504142 1.49319 0
M  V30 5324 C 497.572 -1.61473 1.68667 0
M  V30 5325 C 498.553 -1.61455 0.535378 0
M  V30 5326 O 499.738 -1.78245 0.770868 0
M  V30 5327 C 496.868 -2.99971 1.75028 0
M  V30 5328 C 495.822 -3.14854 2.89916 0
M  V30 5329 C 495.148 -4.54671 2.81387 0
M  V30 5330 C 496.448 -2.95176 4.30893 0
M  V30 5331 H 498.142 -1.45535 2.61648 0
M  V30 5332 H 495.688 -0.698711 1.25913 0
M  V30 5333 H 497.641 -3.77562 1.8715 0
M  V30 5334 H 496.365 -3.1699 0.786441 0
M  V30 5335 H 495.024 -2.39687 2.77391 0
M  V30 5336 H 494.672 -4.68562 1.82917 0
M  V30 5337 H 494.372 -4.6557 3.58494 0
M  V30 5338 H 495.896 -5.34327 2.95512 0
M  V30 5339 H 497.31 -3.62538 4.44116 0
M  V30 5340 H 495.707 -3.17549 5.09198 0
M  V30 5341 H 496.777 -1.91332 4.45556 0
M  V30 5342 N 498.12 -1.38341 -0.754957 0
M  V30 5343 C 499.368 -1.34208 -1.51105 0
M  V30 5344 C 499.689 0.0677634 -1.94882 0
M  V30 5345 O 498.959 1.01517 -1.67544 0
M  V30 5346 H 497.539 -0.493819 -0.560493 0
M  V30 5347 H 500.201 -1.73005 -0.897507 0
M  V30 5348 H 499.297 -1.99203 -2.4026 0
M  V30 5349 N 499.598 0.982988 -1.23187 0
M  V30 5350 C 501.009 1.53847 -1.05773 0
M  V30 5351 C 501.36 1.92568 0.375744 0
M  V30 5352 O 500.485 1.75783 1.26211 0
M  V30 5353 C 501.08 2.79567 -1.91384 0
M  V30 5354 C 499.639 3.31524 -1.78238 0
M  V30 5355 C 498.786 2.04534 -1.87246 0
M  V30 5356 H 501.737 0.802962 -1.36888 0
M  V30 5357 H 501.758 3.52317 -1.43711 0
M  V30 5358 H 501.27 2.51353 -2.95708 0
M  V30 5359 H 499.371 3.64623 -0.766875 0
M  V30 5360 H 499.484 4.01457 -2.61475 0
M  V30 5361 H 497.848 2.1855 -1.30797 0
M  V30 5362 H 498.631 1.78706 -2.9312 0
M  V30 5363 N 501.076 1.04316 1.18135 0
M  V30 5364 C 502.039 0.640794 2.2006 0
M  V30 5365 C 503.039 -0.303124 1.57917 0
M  V30 5366 O 504.229 -0.0881855 1.73977 0
M  V30 5367 C 501.361 -0.060148 3.40847 0
M  V30 5368 H 502.554 1.54281 2.57172 0
M  V30 5369 H 500.107 0.836004 1.32063 0
M  V30 5370 H 500.842 -0.975845 3.0927 0
M  V30 5371 H 500.627 0.618319 3.87194 0
M  V30 5372 H 502.117 -0.328082 4.16309 0
M  V30 5373 N 502.554 -1.34406 0.822964 0
M  V30 5374 C 503.517 -2.2783 0.250271 0
M  V30 5375 C 504.517 -1.50288 -0.571854 0
M  V30 5376 O 505.707 -1.69825 -0.387952 0
M  V30 5377 C 502.839 -3.34663 -0.649137 0
M  V30 5378 H 504.032 -2.79992 1.07444 0
M  V30 5379 H 501.585 -1.44539 0.594829 0
M  V30 5380 H 502.32 -2.87714 -1.49637 0
M  V30 5381 H 502.105 -3.92052 -0.0611199 0
M  V30 5382 H 503.595 -4.04349 -1.04363 0
M  V30 5383 N 504.032 -0.577932 -1.46621 0
M  V30 5384 C 505.26 -0.0671642 -2.06791 0
M  V30 5385 C 505.675 1.23571 -1.42743 0
M  V30 5386 O 505.032 1.74602 -0.531062 0
M  V30 5387 C 505.083 0.110357 -3.61332 0
M  V30 5388 O 504.804 -1.14095 -4.22982 0
M  V30 5389 C 506.305 0.656025 -4.38419 0
M  V30 5390 H 503.525 -0.0552732 -0.66872 0
M  V30 5391 H 506.069 -0.797242 -1.8832 0
M  V30 5392 H 504.224 0.790637 -3.79246 0
M  V30 5393 H 504.638 -0.951742 -5.15793 0
M  V30 5394 H 506.112 0.729438 -5.47159 0
M  V30 5395 H 506.589 1.67195 -4.06131 0
M  V30 5396 H 507.195 0.0107692 -4.25299 0
M  V30 5397 N 505.51 1.54411 -0.315457 0
M  V30 5398 C 506.44 2.27002 0.547039 0
M  V30 5399 C 507.421 1.27492 1.12605 0
M  V30 5400 O 508.606 1.5629 1.15269 0
M  V30 5401 C 505.736 3.02171 1.71201 0
M  V30 5402 C 504.69 4.0895 1.26268 0
M  V30 5403 C 504.016 4.71915 2.51396 0
M  V30 5404 C 505.316 5.20891 0.383419 0
M  V30 5405 H 507.01 2.99343 -0.0584517 0
M  V30 5406 H 504.556 1.4397 -0.0295527 0
M  V30 5407 H 506.509 3.51681 2.32161 0
M  V30 5408 H 505.233 2.27433 2.34397 0
M  V30 5409 H 503.892 3.60312 0.676062 0
M  V30 5410 H 503.54 3.93801 3.12937 0
M  V30 5411 H 503.24 5.44039 2.22026 0
M  V30 5412 H 504.764 5.24195 3.13133 0
M  V30 5413 H 506.178 5.66206 0.899082 0
M  V30 5414 H 504.575 5.99821 0.182857 0
M  V30 5415 H 505.645 4.81324 -0.587821 0
M  V30 5416 N 506.988 0.0434614 1.5754 0
M  V30 5417 C 507.898 -0.94893 2.14552 0
M  V30 5418 C 508.914 -1.34707 1.10136 0
M  V30 5419 O 510.09 -1.42557 1.42266 0
M  V30 5420 C 507.155 -2.208 2.67298 0
M  V30 5421 C 506.216 -1.86893 3.86484 0
M  V30 5422 C 505.449 -3.06797 4.36705 0
M  V30 5423 O 505.672 -4.19921 3.86034 0
M  V30 5424 O 504.606 -2.8826 5.28384 0
M  V30 5425 H 508.432 -0.494099 2.99654 0
M  V30 5426 H 506.017 -0.177989 1.48336 0
M  V30 5427 H 507.899 -2.94686 3.01228 0
M  V30 5428 H 506.574 -2.65436 1.85272 0
M  V30 5429 H 505.481 -1.10347 3.57455 0
M  V30 5430 H 506.814 -1.47062 4.69716 0
M  V30 5431 N 508.466 -1.55915 -0.229846 0
M  V30 5432 C 509.376 -1.94891 -1.30593 0
M  V30 5433 C 510.392 -0.851604 -1.51736 0
M  V30 5434 O 511.568 -1.15447 -1.65027 0
M  V30 5435 C 508.633 -2.25052 -2.63728 0
M  V30 5436 C 507.694 -3.48306 -2.5096 0
M  V30 5437 C 506.927 -3.77019 -3.77747 0
M  V30 5438 O 507.15 -3.07534 -4.80395 0
M  V30 5439 O 506.084 -4.70523 -3.75356 0
M  V30 5440 H 509.91 -2.86581 -1.00525 0
M  V30 5441 H 507.495 -1.43017 -0.432025 0
M  V30 5442 H 509.377 -2.45682 -3.42372 0
M  V30 5443 H 508.052 -1.36538 -2.93495 0
M  V30 5444 H 506.959 -3.32964 -1.70546 0
M  V30 5445 H 508.292 -4.37177 -2.26136 0
M  V30 5446 N 509.944 0.496216 -1.49584 0
M  V30 5447 C 510.877 1.61508 -1.61215 0
M  V30 5448 C 511.855 1.55927 -0.461045 0
M  V30 5449 O 513.039 1.75914 -0.677231 0
M  V30 5450 C 510.166 3.00035 -1.57152 0
M  V30 5451 C 509.212 3.23861 -2.77518 0
M  V30 5452 S 510.045 3.06466 -4.39134 0
M  V30 5453 C 511.201 4.4738 -4.37724 0
M  V30 5454 H 511.434 1.51398 -2.55863 0
M  V30 5455 H 508.967 0.681727 -1.38535 0
M  V30 5456 H 510.925 3.7991 -1.55494 0
M  V30 5457 H 509.586 3.07556 -0.637834 0
M  V30 5458 H 508.779 4.25 -2.70908 0
M  V30 5459 H 508.381 2.51716 -2.76614 0
M  V30 5460 H 510.673 5.39556 -4.09738 0
M  V30 5461 H 511.616 4.59038 -5.39156 0
M  V30 5462 H 512.024 4.28283 -3.67742 0
M  V30 5463 N 511.423 1.38739 0.74761 0
M  V30 5464 C 512.356 1.3083 1.86972 0
M  V30 5465 C 513.334 0.184229 1.61553 0
M  V30 5466 O 514.518 0.36256 1.8498 0
M  V30 5467 C 511.645 1.02854 3.22705 0
M  V30 5468 C 510.691 2.17281 3.67003 0
M  V30 5469 S 511.524 3.79468 3.77842 0
M  V30 5470 C 512.68 3.53692 5.16385 0
M  V30 5471 H 512.913 2.258 1.93395 0
M  V30 5472 H 510.446 1.24646 0.911199 0
M  V30 5473 H 512.404 0.87397 4.01089 0
M  V30 5474 H 511.065 0.0959295 3.13953 0
M  V30 5475 H 510.258 1.93267 4.65472 0
M  V30 5476 H 509.86 2.28876 2.9579 0
M  V30 5477 H 512.152 3.10176 6.02327 0
M  V30 5478 H 513.095 4.51576 5.45422 0
M  V30 5479 H 513.503 2.8807 4.85464 0
M  V30 5480 N 512.901 -0.976442 1.23707 0
M  V30 5481 C 514.129 -1.75341 1.09833 0
M  V30 5482 C 514.544 -1.8553 -0.349885 0
M  V30 5483 O 513.901 -1.33732 -1.24185 0
M  V30 5484 C 513.952 -3.17833 1.72233 0
M  V30 5485 O 513.673 -3.08167 3.11391 0
M  V30 5486 C 515.174 -4.11906 1.63853 0
M  V30 5487 H 512.394 -0.550137 0.384175 0
M  V30 5488 H 514.938 -1.2265 1.63638 0
M  V30 5489 H 513.093 -3.67538 1.22452 0
M  V30 5490 H 513.507 -3.97897 3.41729 0
M  V30 5491 H 514.981 -5.09579 2.12211 0
M  V30 5492 H 515.458 -4.35109 0.598092 0
M  V30 5493 H 516.064 -3.68107 2.13019 0
M  V30 5494 N 514.379 -1.04941 -1.1758 0
M  V30 5495 C 515.342 -0.652456 -2.19717 0
M  V30 5496 C 516.342 0.294745 -1.58076 0
M  V30 5497 O 517.532 0.0789579 -1.74021 0
M  V30 5498 C 514.664 0.0420712 -3.40874 0
M  V30 5499 H 515.857 -1.55642 -2.5635 0
M  V30 5500 H 513.41 -0.842995 -1.31618 0
M  V30 5501 H 514.145 0.95943 -3.09783 0
M  V30 5502 H 513.93 -0.638844 -3.86861 0
M  V30 5503 H 515.42 0.306 -4.16477 0
M  V30 5504 N 515.857 1.33968 -0.830081 0
M  V30 5505 C 517.097 1.99879 -0.427521 0
M  V30 5506 C 517.461 1.64355 0.992546 0
M  V30 5507 O 518.662 2.23164 1.49837 0
M  V30 5508 C 516.933 3.51771 -0.631815 0
M  V30 5509 S 518.492 4.37608 -0.323168 0
M  V30 5510 H 515.31 0.692485 -0.161202 0
M  V30 5511 H 517.912 1.63129 -1.07745 0
M  V30 5512 H 516.616 3.75113 -1.66488 0
M  V30 5513 H 516.147 3.93386 0.0325936 0
M  V30 5514 H 518.162 4.88683 0.860432 0
M  V30 5515 N 517.335 0.585699 1.46312 0
M  V30 5516 C 518.267 -0.183687 2.28463 0
M  V30 5517 C 519.28 -0.85264 1.38686 0
M  V30 5518 O 520.469 -0.721701 1.6326 0
M  V30 5519 C 517.569 -1.27977 3.13808 0
M  V30 5520 C 516.742 -0.702164 4.31727 0
M  V30 5521 C 515.801 -1.68633 4.98447 0
M  V30 5522 O 514.827 -1.22121 5.55945 0
M  V30 5523 N 516.029 -3.02047 4.95729 0
M  V30 5524 H 518.794 0.521127 2.95134 0
M  V30 5525 H 516.355 0.423673 1.56258 0
M  V30 5526 H 518.347 -1.9375 3.55307 0
M  V30 5527 H 516.917 -1.8874 2.4919 0
M  V30 5528 H 516.137 0.1331 3.93975 0
M  V30 5529 H 517.425 -0.296101 5.07938 0
M  V30 5530 H 516.823 -3.42457 4.50266 0
M  V30 5531 H 515.38 -3.63301 5.41161 0
M  V30 5532 N 518.813 -1.54241 0.323641 0
M  V30 5533 C 520.061 -2.00174 -0.278359 0
M  V30 5534 C 520.382 -1.2134 -1.52648 0
M  V30 5535 O 519.652 -0.315244 -1.93347 0
M  V30 5536 H 518.232 -0.739463 -0.105845 0
M  V30 5537 H 520.894 -1.89864 0.440204 0
M  V30 5538 H 519.99 -3.07486 -0.5347 0
M  V30 5539 N 520.291 -0.0518155 -1.57515 0
M  V30 5540 C 521.537 0.622745 -1.93002 0
M  V30 5541 C 521.87 1.70456 -0.930499 0
M  V30 5542 O 521.145 1.94452 0.0434086 0
M  V30 5543 C 521.428 1.21824 -3.38867 0
M  V30 5544 C 521.281 0.144434 -4.49568 0
M  V30 5545 C 522.6 2.12968 -3.8514 0
M  V30 5546 H 519.719 0.22491 -0.701844 0
M  V30 5547 H 522.361 -0.113711 -1.89659 0
M  V30 5548 H 520.511 1.8459 -3.41846 0
M  V30 5549 H 522.183 -0.48753 -4.58717 0
M  V30 5550 H 520.426 -0.527424 -4.30582 0
M  V30 5551 H 521.097 0.601127 -5.48717 0
M  V30 5552 H 523.573 1.60163 -3.8404 0
M  V30 5553 H 522.449 2.51578 -4.87852 0
M  V30 5554 H 522.71 3.03004 -3.21934 0
M  V30 5555 N 521.769 1.56035 0.221574 0
M  V30 5556 C 523.017 1.78693 0.944102 0
M  V30 5557 C 523.338 0.620317 1.8487 0
M  V30 5558 O 522.608 -0.362784 1.92512 0
M  V30 5559 H 521.188 0.659082 0.351597 0
M  V30 5560 H 523.85 1.93497 0.233435 0
M  V30 5561 H 522.946 2.70837 1.55093 0
M  V30 5562 N 523.247 -0.488276 1.49845 0
M  V30 5563 C 524.495 -1.23911 1.59657 0
M  V30 5564 C 524.816 -1.92816 0.291005 0
M  V30 5565 O 524.086 -1.83328 -0.690485 0
M  V30 5566 H 522.666 -0.460357 0.588286 0
M  V30 5567 H 525.328 -0.564794 1.86537 0
M  V30 5568 H 524.424 -1.99625 2.39909 0
M  V30 5569 N 524.725 -1.39134 -0.740242 0
M  V30 5570 C 526.136 -1.32208 -1.31825 0
M  V30 5571 C 526.487 0.0159919 -1.96193 0
M  V30 5572 O 525.612 0.918111 -1.95958 0
M  V30 5573 C 526.207 -2.39436 -2.39699 0
M  V30 5574 C 524.766 -2.36048 -2.93187 0
M  V30 5575 C 523.913 -2.21599 -1.66701 0
M  V30 5576 H 526.864 -1.49298 -0.538133 0
M  V30 5577 H 526.885 -2.05922 -3.19963 0
M  V30 5578 H 526.397 -3.36811 -1.92821 0
M  V30 5579 H 524.498 -1.42295 -3.44359 0
M  V30 5580 H 524.611 -3.30704 -3.46658 0
M  V30 5581 H 522.975 -1.68681 -1.90837 0
M  V30 5582 H 523.758 -3.20936 -1.21882 0
M  V30 5583 N 526.204 0.969867 -1.24223 0
M  V30 5584 C 527.452 1.70918 -1.0785 0
M  V30 5585 C 527.773 1.91186 0.383763 0
M  V30 5586 O 527.043 1.48806 1.27411 0
M  V30 5587 H 525.623 0.633334 -0.396103 0
M  V30 5588 H 528.285 1.16689 -1.56108 0
M  V30 5589 H 527.381 2.69455 -1.57482 0
M  V30 5590 N 527.682 1.05563 1.17022 0
M  V30 5591 C 528.632 0.630007 2.19123 0
M  V30 5592 C 529.616 -0.335472 1.57364 0
M  V30 5593 O 530.808 -0.1521 1.76345 0
M  V30 5594 C 527.937 0.0101676 3.43298 0
M  V30 5595 C 527.023 0.999698 4.12149 0
M  V30 5596 N 527.414 2.17251 4.56766 0
M  V30 5597 C 525.712 0.829 4.38228 0
M  V30 5598 C 526.413 2.79883 5.09942 0
M  V30 5599 N 525.389 2.07656 5.02374 0
M  V30 5600 H 529.191 1.52353 2.51328 0
M  V30 5601 H 526.705 0.926288 1.33393 0
M  V30 5602 H 528.702 -0.312541 4.15727 0
M  V30 5603 H 527.362 -0.878707 3.12584 0
M  V30 5604 H 528.373 2.55067 4.50734 0
M  V30 5605 H 525.05 -0.00850974 4.17499 0
M  V30 5606 H 526.44 3.79362 5.54558 0
M  V30 5607 N 529.16 -1.33526 0.837174 0
M  V30 5608 C 530.107 -2.29248 0.267169 0
M  V30 5609 C 531.077 -1.54252 -0.616071 0
M  V30 5610 O 532.262 -1.82559 -0.554699 0
M  V30 5611 C 529.402 -3.40638 -0.553152 0
M  V30 5612 C 528.515 -4.30548 0.353921 0
M  V30 5613 C 527.65 -5.29051 -0.477339 0
M  V30 5614 C 526.689 -6.106 0.42823 0
M  V30 5615 N 525.826 -7.01152 -0.364801 0
M  V30 5616 H 530.666 -2.77398 1.08877 0
M  V30 5617 H 528.203 -1.36496 0.54838 0
M  V30 5618 H 530.161 -4.03921 -1.04422 0
M  V30 5619 H 528.791 -2.93685 -1.33973 0
M  V30 5620 H 527.843 -3.68001 0.963289 0
M  V30 5621 H 529.155 -4.87631 1.04964 0
M  V30 5622 H 528.309 -5.97853 -1.0323 0
M  V30 5623 H 527.048 -4.72541 -1.2065 0
M  V30 5624 H 526.053 -5.40718 0.995219 0
M  V30 5625 H 527.278 -6.69193 1.15573 0
M  V30 5626 H 525.224 -6.47092 -1.07738 0
M  V30 5627 H 525.141 -7.5551 0.272238 0
M  V30 5628 H 526.409 -7.74263 -0.902054 0
M  V30 5629 N 530.638 -0.59345 -1.46 0
M  V30 5630 C 531.601 0.123538 -2.28867 0
M  V30 5631 C 532.601 0.808628 -1.38989 0
M  V30 5632 O 533.791 0.658945 -1.61256 0
M  V30 5633 C 530.923 1.1847 -3.19653 0
M  V30 5634 H 532.116 -0.604843 -2.93737 0
M  V30 5635 H 529.669 -0.351875 -1.52288 0
M  V30 5636 H 530.404 1.94431 -2.59552 0
M  V30 5637 H 530.189 0.69783 -3.8584 0
M  V30 5638 H 531.679 1.68726 -3.81997 0
M  V30 5639 N 532.116 1.54067 -0.331816 0
M  V30 5640 C 533.532 1.59587 0.0205388 0
M  V30 5641 C 533.732 1.34813 1.49759 0
M  V30 5642 O 532.788 1.13661 2.25471 0
M  V30 5643 C 534.101 2.97959 -0.405103 0
M  V30 5644 C 535.649 3.10964 -0.356454 0
M  V30 5645 C 536.124 4.51694 -0.757384 0
M  V30 5646 N 537.615 4.57709 -0.71111 0
M  V30 5647 C 538.35 5.64729 -0.993427 0
M  V30 5648 N 537.846 6.79652 -1.3433 0
M  V30 5649 N 539.639 5.54546 -0.918442 0
M  V30 5650 H 531.79 1.68426 -1.29407 0
M  V30 5651 H 534.053 0.78819 -0.526745 0
M  V30 5652 H 533.759 3.21115 -1.43451 0
M  V30 5653 H 533.633 3.76524 0.225692 0
M  V30 5654 H 536.02 2.87538 0.663763 0
M  V30 5655 H 536.101 2.34484 -1.02229 0
M  V30 5656 H 535.745 4.75853 -1.77555 0
M  V30 5657 H 535.675 5.26555 -0.0691444 0
M  V30 5658 H 538.166 3.75176 -0.452883 0
M  V30 5659 H 538.479 7.57221 -1.54388 0
M  V30 5660 H 536.824 6.81128 -1.38164 0
M  V30 5661 H 540.015 4.63641 -0.644536 0
M  V30 5662 H 540.188 6.37861 -1.14181 0
M  V30 5663 N 533.594 0.0601682 1.57485 0
M  V30 5664 C 534.84 -0.612501 1.93329 0
M  V30 5665 C 535.173 -1.6996 0.939526 0
M  V30 5666 O 534.448 -1.94472 -0.0330957 0
M  V30 5667 C 534.731 -1.20025 3.39508 0
M  V30 5668 C 534.584 -0.12059 4.49638 0
M  V30 5669 C 535.903 -2.10923 3.86264 0
M  V30 5670 H 533.022 -0.221185 0.703027 0
M  V30 5671 H 535.664 0.123768 1.89596 0
M  V30 5672 H 533.814 -1.82774 3.42821 0
M  V30 5673 H 535.486 0.51185 4.58452 0
M  V30 5674 H 533.729 0.550251 4.30296 0
M  V30 5675 H 534.4 -0.572019 5.49028 0
M  V30 5676 H 536.876 -1.58124 3.84884 0
M  V30 5677 H 535.752 -2.48987 4.8918 0
M  V30 5678 H 536.013 -3.01292 3.23536 0
M  V30 5679 N 535.072 -1.5615 -0.213296 0
M  V30 5680 C 536.002 -1.96109 -1.26742 0
M  V30 5681 C 536.983 -0.830448 -1.48451 0
M  V30 5682 O 538.168 -1.09339 -1.60495 0
M  V30 5683 C 535.298 -2.28492 -2.61551 0
M  V30 5684 C 534.252 -3.44124 -2.54485 0
M  V30 5685 C 533.578 -3.62134 -3.93399 0
M  V30 5686 C 534.878 -4.78855 -2.08556 0
M  V30 5687 H 536.572 -2.84412 -0.935434 0
M  V30 5688 H 534.118 -1.36836 -0.44854 0
M  V30 5689 H 536.071 -2.55039 -3.3546 0
M  V30 5690 H 534.795 -1.37052 -2.96453 0
M  V30 5691 H 533.454 -3.17639 -1.83033 0
M  V30 5692 H 533.102 -2.68055 -4.25623 0
M  V30 5693 H 532.802 -4.39913 -3.89551 0
M  V30 5694 H 534.326 -3.91038 -4.68958 0
M  V30 5695 H 535.74 -5.04552 -2.72213 0
M  V30 5696 H 534.137 -5.59975 -2.1575 0
M  V30 5697 H 535.207 -4.73657 -1.03811 0
M  V30 5698 N 536.55 0.480323 -1.50102 0
M  V30 5699 C 537.513 1.56181 -1.6775 0
M  V30 5700 C 538.513 1.51156 -0.548503 0
M  V30 5701 O 539.703 1.5394 -0.815363 0
M  V30 5702 C 536.835 2.95823 -1.69415 0
M  V30 5703 H 538.028 1.41855 -2.6423 0
M  V30 5704 H 535.581 0.70605 -1.39444 0
M  V30 5705 H 536.316 3.15604 -0.745948 0
M  V30 5706 H 536.101 3.00878 -2.51425 0
M  V30 5707 H 537.591 3.74359 -1.85054 0
M  V30 5708 N 538.028 1.39524 0.732853 0
M  V30 5709 C 538.938 1.40695 1.87729 0
M  V30 5710 C 539.954 0.301496 1.71368 0
M  V30 5711 O 541.13 0.543313 1.93933 0
M  V30 5712 C 538.195 1.25098 3.23344 0
M  V30 5713 C 537.256 2.45634 3.52083 0
M  V30 5714 C 536.489 2.30772 4.81228 0
M  V30 5715 O 536.712 1.31233 5.55098 0
M  V30 5716 O 535.646 3.19799 5.09914 0
M  V30 5717 H 539.472 2.37168 1.89697 0
M  V30 5718 H 537.057 1.20663 0.880959 0
M  V30 5719 H 538.939 1.18541 4.04383 0
M  V30 5720 H 537.614 0.317209 3.22142 0
M  V30 5721 H 536.521 2.57767 2.71122 0
M  V30 5722 H 537.854 3.37712 3.58066 0
M  V30 5723 N 539.506 -0.963266 1.24736 0
M  V30 5724 C 540.469 -2.04013 1.04457 0
M  V30 5725 C 541.469 -1.608 0.000335555 0
M  V30 5726 O 542.659 -1.72515 0.241719 0
M  V30 5727 C 539.791 -3.35858 0.584162 0
M  V30 5728 H 540.984 -2.23436 2.00041 0
M  V30 5729 H 538.537 -1.13914 1.07021 0
M  V30 5730 H 539.272 -3.22128 -0.374673 0
M  V30 5731 H 539.057 -3.68568 1.3379 0
M  V30 5732 H 540.547 -4.1502 0.463451 0
M  V30 5733 N 540.985 -1.06182 -1.16461 0
M  V30 5734 C 541.918 -0.615859 -2.19733 0
M  V30 5735 C 542.896 0.360766 -1.58547 0
M  V30 5736 O 544.08 0.270009 -1.86556 0
M  V30 5737 C 541.207 0.097312 -3.3856 0
M  V30 5738 C 540.253 -0.835889 -4.18229 0
M  V30 5739 S 541.086 -2.33052 -4.82128 0
M  V30 5740 C 542.242 -1.62881 -6.04335 0
M  V30 5741 H 542.475 -1.49079 -2.57221 0
M  V30 5742 H 540.008 -0.874692 -1.27234 0
M  V30 5743 H 541.966 0.502563 -4.07412 0
M  V30 5744 H 540.627 0.948418 -2.99439 0
M  V30 5745 H 539.82 -0.283426 -5.03202 0
M  V30 5746 H 539.422 -1.18097 -3.54865 0
M  V30 5747 H 541.714 -0.933764 -6.71034 0
M  V30 5748 H 542.657 -2.45641 -6.64128 0
M  V30 5749 H 543.065 -1.11189 -5.53441 0
M  V30 5750 N 542.463 1.3308 -0.844243 0
M  V30 5751 C 543.688 2.02341 -0.455282 0
M  V30 5752 C 544.113 1.6308 0.93737 0
M  V30 5753 O 543.471 0.826118 1.61385 0
M  V30 5754 C 543.519 3.55743 -0.58988 0
M  V30 5755 O 542.623 4.1063 0.38166 0
M  V30 5756 H 541.964 0.637898 -0.184343 0
M  V30 5757 H 544.494 1.6986 -1.14056 0
M  V30 5758 H 544.504 4.05243 -0.473522 0
M  V30 5759 H 543.179 3.83662 -1.60549 0
M  V30 5760 H 541.756 3.72236 0.22241 0
M  V30 5761 N 543.941 0.601185 1.45683 0
M  V30 5762 C 544.873 -0.159446 2.28645 0
M  V30 5763 C 545.886 -0.837882 1.39583 0
M  V30 5764 O 547.075 -0.704344 1.64016 0
M  V30 5765 C 544.175 -1.24641 3.15147 0
M  V30 5766 C 543.348 -0.656334 4.32448 0
M  V30 5767 C 542.407 -1.63337 5.00208 0
M  V30 5768 O 541.433 -1.16217 5.57209 0
M  V30 5769 N 542.635 -2.96773 4.98905 0
M  V30 5770 H 545.4 0.5524 2.94565 0
M  V30 5771 H 542.961 0.440223 1.558 0
M  V30 5772 H 544.953 -1.8997 3.57342 0
M  V30 5773 H 543.523 -1.86087 2.51178 0
M  V30 5774 H 542.743 0.174879 3.93812 0
M  V30 5775 H 544.031 -0.242211 5.08223 0
M  V30 5776 H 543.429 -3.37662 4.53873 0
M  V30 5777 H 541.986 -3.57541 5.44984 0
M  V30 5778 N 545.419 -1.53889 0.339982 0
M  V30 5779 C 546.665 -2.01152 -0.258003 0
M  V30 5780 C 546.998 -1.22749 -1.50487 0
M  V30 5781 O 546.273 -0.314156 -1.91946 0
M  V30 5782 C 546.556 -3.55468 -0.575717 0
M  V30 5783 C 546.409 -4.44584 0.682996 0
M  V30 5784 C 547.728 -4.1768 -1.38677 0
M  V30 5785 H 544.847 -0.731198 -0.0922992 0
M  V30 5786 H 547.489 -1.84352 0.459814 0
M  V30 5787 H 545.639 -3.69914 -1.18725 0
M  V30 5788 H 547.311 -4.41981 1.32102 0
M  V30 5789 H 545.554 -4.13592 1.3086 0
M  V30 5790 H 546.225 -5.5043 0.416001 0
M  V30 5791 H 548.701 -4.0691 -0.869705 0
M  V30 5792 H 547.577 -5.25734 -1.57783 0
M  V30 5793 H 547.838 -3.72069 -2.38782 0
M  V30 5794 N 546.897 -0.0685191 -1.57451 0
M  V30 5795 C 548.125 0.610462 -1.97689 0
M  V30 5796 C 548.54 1.63346 -0.946758 0
M  V30 5797 O 547.897 1.82377 0.0669868 0
M  V30 5798 C 547.948 1.28196 -3.38006 0
M  V30 5799 O 547.669 0.299906 -4.37072 0
M  V30 5800 C 549.17 2.04907 -3.931 0
M  V30 5801 H 546.39 0.165689 -0.650222 0
M  V30 5802 H 548.934 -0.139953 -2.04021 0
M  V30 5803 H 547.089 1.98348 -3.32771 0
M  V30 5804 H 547.503 0.78126 -5.18649 0
M  V30 5805 H 548.977 2.47287 -4.93511 0
M  V30 5806 H 549.454 2.9043 -3.29465 0
M  V30 5807 H 550.06 1.39629 -4.01726 0
M  V30 5808 N 548.375 1.56261 0.205012 0
M  V30 5809 C 549.323 1.94631 1.27364 0
M  V30 5810 C 550.317 0.830434 1.47649 0
M  V30 5811 O 551.523 1.01538 1.48627 0
M  V30 5812 H 547.898 0.618755 0.427371 0
M  V30 5813 H 549.869 2.83768 0.922941 0
M  V30 5814 C 548.618 2.29358 2.61324 0
M  V30 5815 H 547.941 3.14744 2.46528 0
M  V30 5816 H 549.381 2.60076 3.34868 0
M  V30 5817 C 547.84 1.12461 3.17575 0
M  V30 5818 O 548.37 0.394407 3.99759 0
M  V30 5819 N 546.576 0.904036 2.7618 0
M  V30 5820 H 546.123 1.49956 2.09454 0
M  V30 5821 H 546.081 0.123662 3.14157 0
M  V30 5822 N 549.853 -0.472356 1.50355 0
M  V30 5823 C 551.078 -1.25251 1.65309 0
M  V30 5824 C 551.503 -1.85081 0.335643 0
M  V30 5825 O 550.861 -1.67227 -0.700335 0
M  V30 5826 C 550.909 -2.3379 2.74544 0
M  V30 5827 O 550.013 -3.38401 2.35709 0
M  V30 5828 H 549.354 -0.368539 0.552336 0
M  V30 5829 H 551.884 -0.562271 1.96722 0
M  V30 5830 H 551.894 -2.79121 2.97583 0
M  V30 5831 H 550.569 -1.89614 3.70161 0
M  V30 5832 H 549.146 -2.9879 2.23112 0
M  V30 5833 N 551.331 -1.39911 -0.725443 0
M  V30 5834 C 552.559 -1.40949 -1.51463 0
M  V30 5835 C 552.974 -0.0065242 -1.88799 0
M  V30 5836 O 552.331 0.967163 -1.54765 0
M  V30 5837 C 552.382 -2.29119 -2.79619 0
M  V30 5838 O 552.103 -3.63952 -2.43866 0
M  V30 5839 C 553.604 -2.38642 -3.73584 0
M  V30 5840 H 550.824 -0.481091 -0.467752 0
M  V30 5841 H 553.368 -1.83843 -0.895651 0
M  V30 5842 H 551.523 -1.89612 -3.37826 0
M  V30 5843 H 551.937 -4.10677 -3.26258 0
M  V30 5844 H 553.411 -3.04563 -4.60375 0
M  V30 5845 H 553.888 -1.40846 -4.16004 0
M  V30 5846 H 554.494 -2.78659 -3.21293 0
M  V30 5847 N 552.809 0.956637 -1.25245 0
M  V30 5848 C 554.037 1.73571 -1.12608 0
M  V30 5849 C 554.452 1.86063 0.320324 0
M  V30 5850 O 553.809 1.35691 1.22042 0
M  V30 5851 C 553.86 3.15053 -1.77268 0
M  V30 5852 O 553.581 3.03174 -3.16255 0
M  V30 5853 C 555.082 4.09248 -1.70386 0
M  V30 5854 H 552.302 0.543955 -0.392879 0
M  V30 5855 H 554.846 1.20031 -1.65568 0
M  V30 5856 H 553.001 3.65543 -1.28284 0
M  V30 5857 H 553.415 3.9241 -3.48015 0
M  V30 5858 H 554.889 5.06138 -2.20291 0
M  V30 5859 H 555.366 4.34102 -0.667239 0
M  V30 5860 H 555.972 3.64672 -2.18849 0
M  V30 5861 N 554.287 1.06798 1.15896 0
M  V30 5862 C 555.536 0.782796 1.8589 0
M  V30 5863 C 555.849 -0.693498 1.82893 0
M  V30 5864 O 557.055 -1.09325 2.48516 0
M  V30 5865 C 555.511 1.3502 3.33613 0
M  V30 5866 C 555.119 2.8571 3.45071 0
M  V30 5867 C 556.863 1.14278 4.08829 0
M  V30 5868 C 554.77 3.35669 4.86909 0
M  V30 5869 H 553.7 0.289149 0.696354 0
M  V30 5870 H 556.351 1.28734 1.30766 0
M  V30 5871 H 554.733 0.773407 3.88374 0
M  V30 5872 H 555.907 3.49385 3.00445 0
M  V30 5873 H 554.222 3.05178 2.83294 0
M  V30 5874 H 556.819 1.49087 5.13495 0
M  V30 5875 H 557.162 0.0814575 4.1622 0
M  V30 5876 H 557.695 1.68563 3.60321 0
M  V30 5877 H 554.434 4.41302 4.84698 0
M  V30 5878 H 553.954 2.76745 5.32139 0
M  V30 5879 H 555.633 3.31296 5.55745 0
M  V30 5880 N 555.766 -1.3263 0.851289 0
M  V30 5881 C 556.699 -2.26952 0.238318 0
M  V30 5882 C 557.677 -1.50243 -0.621757 0
M  V30 5883 O 558.861 -1.79378 -0.579298 0
M  V30 5884 C 555.988 -3.32124 -0.664178 0
M  V30 5885 C 555.034 -4.26325 0.122067 0
M  V30 5886 S 555.867 -5.14404 1.48824 0
M  V30 5887 C 557.023 -6.231 0.591372 0
M  V30 5888 H 557.256 -2.78594 1.03791 0
M  V30 5889 H 554.789 -1.4011 0.648731 0
M  V30 5890 H 556.747 -3.93197 -1.17924 0
M  V30 5891 H 555.408 -2.79273 -1.43755 0
M  V30 5892 H 554.601 -5.00821 -0.565181 0
M  V30 5893 H 554.203 -3.69652 0.568602 0
M  V30 5894 H 556.495 -6.77187 -0.205762 0
M  V30 5895 H 557.438 -6.95936 1.30687 0
M  V30 5896 H 557.846 -5.64252 0.167206 0
M  V30 5897 N 557.244 -0.608902 -1.45362 0
M  V30 5898 C 558.177 0.158059 -2.27652 0
M  V30 5899 C 559.155 0.872397 -1.37215 0
M  V30 5900 O 560.339 0.881002 -1.66645 0
M  V30 5901 C 557.466 1.22896 -3.15617 0
M  V30 5902 C 556.512 0.617607 -4.22005 0
M  V30 5903 S 557.345 -0.575518 -5.32398 0
M  V30 5904 C 558.501 0.495938 -6.23932 0
M  V30 5905 H 558.734 -0.540095 -2.92353 0
M  V30 5906 H 556.267 -0.396456 -1.49223 0
M  V30 5907 H 558.225 1.84195 -3.66855 0
M  V30 5908 H 556.886 1.89919 -2.50179 0
M  V30 5909 H 556.079 1.42341 -4.83482 0
M  V30 5910 H 555.681 0.0797273 -3.73915 0
M  V30 5911 H 557.973 1.37465 -6.63408 0
M  V30 5912 H 558.916 -0.0827108 -7.08052 0
M  V30 5913 H 559.324 0.811856 -5.58631 0
M  V30 5914 N 558.722 1.53707 -0.348139 0
M  V30 5915 C 559.654 2.22725 0.540946 0
M  V30 5916 C 560.667 1.2354 1.06027 0
M  V30 5917 O 561.856 1.49867 0.96964 0
M  V30 5918 C 558.956 2.89756 1.75768 0
M  V30 5919 C 558.129 4.15297 1.37285 0
M  V30 5920 C 557.188 4.65697 2.44976 0
M  V30 5921 O 556.214 5.29798 2.08092 0
M  V30 5922 N 557.416 4.42017 3.763 0
M  V30 5923 H 560.181 2.99658 -0.0501592 0
M  V30 5924 H 557.742 1.60979 -0.17248 0
M  V30 5925 H 559.734 3.20388 2.47252 0
M  V30 5926 H 558.304 2.16382 2.25605 0
M  V30 5927 H 557.524 3.9116 0.488584 0
M  V30 5928 H 558.812 4.96948 1.09179 0
M  V30 5929 H 558.21 3.9076 4.09051 0
M  V30 5930 H 556.767 4.77242 4.4394 0
M  V30 5931 N 560.2 0.0768682 1.57412 0
M  V30 5932 C 561.616 -0.279772 1.57129 0
M  V30 5933 C 561.816 -1.69688 1.08666 0
M  V30 5934 O 560.872 -2.40953 0.754843 0
M  V30 5935 C 562.185 -0.0848055 3.0058 0
M  V30 5936 C 563.733 -0.153954 3.12621 0
M  V30 5937 C 564.208 0.0127946 4.57998 0
M  V30 5938 N 565.699 -0.0426435 4.6318 0
M  V30 5939 C 566.434 0.0618892 5.73367 0
M  V30 5940 N 565.93 0.220229 6.9245 0
M  V30 5941 N 567.723 0.00446072 5.621 0
M  V30 5942 H 559.874 1.00297 1.87228 0
M  V30 5943 H 562.137 0.391565 0.863354 0
M  V30 5944 H 561.843 0.89325 3.40168 0
M  V30 5945 H 561.717 -0.834961 3.67843 0
M  V30 5946 H 564.104 -1.1225 2.72917 0
M  V30 5947 H 564.185 0.627389 2.47987 0
M  V30 5948 H 563.829 0.978128 4.98392 0
M  V30 5949 H 563.759 -0.788016 5.20671 0
M  V30 5950 H 566.25 -0.163226 3.77547 0
M  V30 5951 H 566.563 0.291999 7.72248 0
M  V30 5952 H 564.908 0.255658 6.9453 0
M  V30 5953 H 568.099 -0.117979 4.67951 0
M  V30 5954 H 568.272 0.0893796 6.47938 0
M  V30 5955 N 561.678 -1.56367 -0.196722 0
M  V30 5956 C 562.926 -1.80172 -0.915554 0
M  V30 5957 C 563.247 -0.649649 -1.8386 0
M  V30 5958 O 562.517 0.332111 -1.93064 0
M  V30 5959 H 561.097 -0.664592 -0.341067 0
M  V30 5960 H 563.759 -1.93844 -0.202622 0
M  V30 5961 H 562.855 -2.7327 -1.50764 0
M  V30 5962 N 563.156 0.464375 -1.50603 0
M  V30 5963 C 564.104 1.58224 -1.70493 0
M  V30 5964 C 565.098 1.59492 -0.570836 0
M  V30 5965 O 566.304 1.63561 -0.751517 0
M  V30 5966 H 562.679 0.525161 -0.538247 0
M  V30 5967 H 564.65 1.38613 -2.64252 0
M  V30 5968 C 563.399 2.96113 -1.82243 0
M  V30 5969 H 562.722 2.95858 -2.68901 0
M  V30 5970 H 564.162 3.73769 -2.00182 0
M  V30 5971 C 562.621 3.31946 -0.575628 0
M  V30 5972 O 563.151 4.00708 0.282152 0
M  V30 5973 N 561.357 2.87436 -0.427665 0
M  V30 5974 H 560.904 2.31652 -1.12674 0
M  V30 5975 H 560.862 3.11776 0.405379 0
M  V30 5976 N 564.634 1.40294 0.718013 0
M  V30 5977 C 565.881 1.3844 1.47786 0
M  V30 5978 C 566.209 -0.0140838 1.94495 0
M  V30 5979 O 565.464 -0.998165 1.68331 0
M  V30 5980 C 565.763 2.31814 2.72024 0
M  V30 5981 C 565.429 3.79117 2.44093 0
M  V30 5982 C 564.091 4.19249 2.36185 0
M  V30 5983 C 566.443 4.72212 2.20602 0
M  V30 5984 C 563.771 5.50516 2.02851 0
M  V30 5985 C 566.123 6.03775 1.88781 0
M  V30 5986 C 564.787 6.42953 1.79354 0
M  V30 5987 H 564.057 0.506588 0.540786 0
M  V30 5988 H 566.704 1.72929 0.822663 0
M  V30 5989 H 565.009 1.90501 3.42369 0
M  V30 5990 H 566.706 2.27664 3.30106 0
M  V30 5991 H 563.296 3.47318 2.51133 0
M  V30 5992 H 567.48 4.42026 2.25669 0
M  V30 5993 H 562.736 5.79776 1.94088 0
M  V30 5994 H 566.91 6.75428 1.69617 0
M  V30 5995 H 564.537 7.44584 1.53291 0
M  V30 5996 N 566.112 -0.949982 1.2575 0
M  V30 5997 C 567.528 -1.22191 1.02672 0
M  V30 5998 C 567.728 -1.99898 -0.253588 0
M  V30 5999 O 566.784 -2.33329 -0.965076 0
M  V30 6000 C 568.097 -1.99175 2.25277 0
M  V30 6001 C 569.645 -2.12201 2.30087 0
M  V30 6002 C 570.12 -2.92586 3.5236 0
M  V30 6003 N 571.611 -3.00163 3.52784 0
M  V30 6004 C 572.346 -3.62766 4.44059 0
M  V30 6005 N 571.842 -4.26943 5.45611 0
M  V30 6006 N 573.635 -3.59953 4.3173 0
M  V30 6007 H 565.786 -0.430258 2.07996 0
M  V30 6008 H 568.049 -0.252844 0.91366 0
M  V30 6009 H 567.755 -1.49479 3.18354 0
M  V30 6010 H 567.629 -2.99868 2.28821 0
M  V30 6011 H 570.016 -2.61093 1.3753 0
M  V30 6012 H 570.097 -1.10799 2.30559 0
M  V30 6013 H 569.741 -2.44383 4.45241 0
M  V30 6014 H 569.671 -3.94224 3.49134 0
M  V30 6015 H 572.162 -2.54529 2.79327 0
M  V30 6016 H 572.475 -4.72583 6.11461 0
M  V30 6017 H 570.82 -4.25557 5.49478 0
M  V30 6018 H 574.011 -3.09003 3.51617 0
M  V30 6019 H 574.184 -4.08455 5.03059 0
M  V30 6020 N 567.59 -1.07411 -1.15328 0
M  V30 6021 C 568.538 -0.689316 -2.22151 0
M  V30 6022 C 569.532 0.300156 -1.6672 0
M  V30 6023 O 570.738 0.163804 -1.79253 0
M  V30 6024 H 567.113 -0.204834 -0.723566 0
M  V30 6025 H 569.084 -1.59988 -2.51886 0
M  V30 6026 C 567.833 -0.103848 -3.47545 0
M  V30 6027 H 567.156 -0.856367 -3.90521 0
M  V30 6028 H 568.596 0.127725 -4.23808 0
M  V30 6029 C 567.055 1.15563 -3.1646 0
M  V30 6030 O 567.585 2.242 -3.33312 0
M  V30 6031 N 565.791 1.06203 -2.70498 0
M  V30 6032 H 565.338 0.177933 -2.56985 0
M  V30 6033 H 565.296 1.90553 -2.50074 0
M  V30 6034 N 569.068 1.32177 -0.85831 0
M  V30 6035 C 570 2.27688 -0.262835 0
M  V30 6036 C 571.013 1.52588 0.567513 0
M  V30 6037 O 572.202 1.74156 0.391407 0
M  V30 6038 C 569.302 3.32668 0.646937 0
M  V30 6039 C 568.475 4.37148 -0.148372 0
M  V30 6040 C 567.534 5.21686 0.687728 0
M  V30 6041 O 566.56 5.69074 0.119934 0
M  V30 6042 N 567.762 5.44892 2.00182 0
M  V30 6043 H 570.527 2.79426 -1.08356 0
M  V30 6044 H 568.088 1.45076 -0.718647 0
M  V30 6045 H 570.08 3.86134 1.2117 0
M  V30 6046 H 568.65 2.81061 1.36834 0
M  V30 6047 H 567.87 3.83915 -0.894572 0
M  V30 6048 H 569.158 5.04038 -0.694514 0
M  V30 6049 H 568.556 5.08128 2.4864 0
M  V30 6050 H 567.113 6.0134 2.51463 0
M  V30 6051 N 570.547 0.616602 1.45037 0
M  V30 6052 C 571.963 0.280994 1.57107 0
M  V30 6053 C 572.163 -1.21627 1.60653 0
M  V30 6054 O 571.219 -1.9997 1.54169 0
M  V30 6055 C 572.532 0.960116 2.8496 0
M  V30 6056 C 574.08 0.936884 2.98649 0
M  V30 6057 C 574.555 1.59619 4.29285 0
M  V30 6058 N 576.046 1.5621 4.36065 0
M  V30 6059 C 576.781 2.04131 5.35834 0
M  V30 6060 N 576.277 2.60177 6.4209 0
M  V30 6061 N 578.07 1.94845 5.27249 0
M  V30 6062 H 570.221 1.58867 1.40979 0
M  V30 6063 H 572.484 0.666024 0.674623 0
M  V30 6064 H 572.19 2.01473 2.88273 0
M  V30 6065 H 572.064 0.488921 3.74018 0
M  V30 6066 H 574.451 -0.109209 2.94898 0
M  V30 6067 H 574.532 1.44643 2.10979 0
M  V30 6068 H 574.176 2.64166 4.33796 0
M  V30 6069 H 574.106 1.06159 5.15789 0
M  V30 6070 H 576.597 1.15276 3.59889 0
M  V30 6071 H 576.91 2.94513 7.1448 0
M  V30 6072 H 575.255 2.64221 6.42816 0
M  V30 6073 H 578.446 1.50792 4.43147 0
M  V30 6074 H 578.619 2.32504 6.04852 0
M  V30 6075 N 572.025 -1.5352 0.356285 0
M  V30 6076 C 572.972 -2.25439 -0.494569 0
M  V30 6077 C 573.942 -1.25752 -1.08516 0
M  V30 6078 O 575.127 -1.54513 -1.1194 0
M  V30 6079 C 572.267 -3.04011 -1.63313 0
M  V30 6080 C 571.38 -4.18574 -1.06862 0
M  V30 6081 C 570.515 -4.84607 -2.17552 0
M  V30 6082 C 569.554 -5.91218 -1.58518 0
M  V30 6083 N 568.691 -6.50979 -2.63003 0
M  V30 6084 H 573.531 -2.97737 0.125244 0
M  V30 6085 H 571.068 -1.46916 0.0735789 0
M  V30 6086 H 573.026 -3.47834 -2.30363 0
M  V30 6087 H 571.656 -2.33986 -2.22374 0
M  V30 6088 H 570.708 -3.79303 -0.288672 0
M  V30 6089 H 572.02 -4.95215 -0.596924 0
M  V30 6090 H 571.174 -5.31566 -2.92442 0
M  V30 6091 H 569.913 -4.07418 -2.6807 0
M  V30 6092 H 568.918 -5.4363 -0.821391 0
M  V30 6093 H 570.143 -6.70322 -1.08836 0
M  V30 6094 H 568.089 -5.76648 -3.12751 0
M  V30 6095 H 568.006 -7.23131 -2.20493 0
M  V30 6096 H 569.274 -7.02589 -3.37623 0
M  V30 6097 N 573.503 -0.0852151 -1.57369 0
M  V30 6098 C 574.752 0.580443 -1.93168 0
M  V30 6099 C 575.065 1.6995 -0.968319 0
M  V30 6100 O 576.271 2.42564 -1.21963 0
M  V30 6101 C 574.727 1.08386 -3.43192 0
M  V30 6102 C 574.335 -0.00491388 -4.48 0
M  V30 6103 C 576.079 1.72281 -3.87968 0
M  V30 6104 C 573.986 0.513299 -5.89168 0
M  V30 6105 H 572.916 0.22059 -0.72101 0
M  V30 6106 H 575.567 -0.159621 -1.82804 0
M  V30 6107 H 573.949 1.8773 -3.48674 0
M  V30 6108 H 575.123 -0.780032 -4.5415 0
M  V30 6109 H 573.438 -0.548453 -4.12772 0
M  V30 6110 H 576.035 2.12108 -4.9083 0
M  V30 6111 H 576.378 2.58811 -3.26071 0
M  V30 6112 H 576.911 0.995359 -3.85146 0
M  V30 6113 H 573.65 -0.315153 -6.54742 0
M  V30 6114 H 573.17 1.25564 -5.8651 0
M  V30 6115 H 574.849 0.985433 -6.39451 0
M  V30 6116 N 574.981 1.5647 0.188427 0
M  V30 6117 C 576.227 1.81281 0.909124 0
M  V30 6118 C 576.56 0.66034 1.82628 0
M  V30 6119 O 575.835 -0.338737 1.91528 0
M  V30 6120 C 576.118 3.16388 1.7196 0
M  V30 6121 C 575.971 4.42137 0.826714 0
M  V30 6122 C 577.29 3.48256 2.69083 0
M  V30 6123 H 574.409 0.659457 0.329068 0
M  V30 6124 H 577.051 1.89182 0.176156 0
M  V30 6125 H 575.201 3.09784 2.34448 0
M  V30 6126 H 576.873 4.60794 0.216025 0
M  V30 6127 H 575.116 4.33594 0.133792 0
M  V30 6128 H 575.787 5.33184 1.42893 0
M  V30 6129 H 578.263 3.55203 2.16726 0
M  V30 6130 H 577.139 4.43899 3.2287 0
M  V30 6131 H 577.4 2.72088 3.48455 0
M  V30 6132 N 576.459 -0.456382 1.50847 0
M  V30 6133 C 577.406 -1.55249 1.70782 0
M  V30 6134 C 578.376 -1.56757 0.549231 0
M  V30 6135 O 579.561 -1.74061 0.7815 0
M  V30 6136 C 576.701 -2.93118 1.82143 0
M  V30 6137 C 575.814 -3.01285 3.09598 0
M  V30 6138 C 574.949 -4.30159 3.11667 0
M  V30 6139 C 573.988 -4.32124 4.33515 0
M  V30 6140 N 573.125 -5.52492 4.3324 0
M  V30 6141 H 577.965 -1.37555 2.64353 0
M  V30 6142 H 575.502 -0.668543 1.3103 0
M  V30 6143 H 577.46 -3.73088 1.86711 0
M  V30 6144 H 576.09 -3.09413 0.919978 0
M  V30 6145 H 575.142 -2.14096 3.14431 0
M  V30 6146 H 576.454 -2.98597 3.99551 0
M  V30 6147 H 575.608 -5.18489 3.15046 0
M  V30 6148 H 574.347 -4.35477 2.1957 0
M  V30 6149 H 573.352 -3.42189 4.30333 0
M  V30 6150 H 574.577 -4.28485 5.26856 0
M  V30 6151 H 572.523 -5.58567 3.44004 0
M  V30 6152 H 572.44 -5.51605 5.16979 0
M  V30 6153 H 573.708 -6.42906 4.40786 0
M  V30 6154 N 577.937 -1.40673 -0.710563 0
M  V30 6155 C 579.177 -1.40677 -1.48288 0
M  V30 6156 C 579.541 -0.0097193 -1.91998 0
M  V30 6157 O 580.742 0.115381 -2.68552 0
M  V30 6158 C 579.013 -2.37289 -2.67262 0
M  V30 6159 S 580.572 -2.55694 -3.56603 0
M  V30 6160 H 577.39 -0.498545 -0.506926 0
M  V30 6161 H 579.992 -1.76984 -0.830472 0
M  V30 6162 H 578.696 -3.37617 -2.3333 0
M  V30 6163 H 578.227 -2.02282 -3.3741 0
M  V30 6164 H 580.242 -1.81311 -4.61888 0
M  V30 6165 N 579.415 0.9433 -1.26252 0
M  V30 6166 C 580.662 1.68925 -1.11672 0
M  V30 6167 C 580.99 1.91499 0.340329 0
M  V30 6168 O 580.245 1.49189 1.26653 0
M  V30 6169 C 580.544 3.07073 -1.82868 0
M  V30 6170 C 580.21 3.04262 -3.32769 0
M  V30 6171 C 578.872 3.03203 -3.7366 0
M  V30 6172 C 581.224 2.96729 -4.28487 0
M  V30 6173 C 578.552 2.92373 -5.0866 0
M  V30 6174 C 580.904 2.87442 -5.63525 0
M  V30 6175 C 579.568 2.84724 -6.03729 0
M  V30 6176 H 578.838 0.618141 -0.408635 0
M  V30 6177 H 581.485 1.10124 -1.56668 0
M  V30 6178 H 579.79 3.69486 -1.30335 0
M  V30 6179 H 581.487 3.63635 -1.69029 0
M  V30 6180 H 578.077 3.05865 -3.00241 0
M  V30 6181 H 582.261 2.96658 -3.97879 0
M  V30 6182 H 577.517 2.88645 -5.38975 0
M  V30 6183 H 581.691 2.80576 -6.37377 0
M  V30 6184 H 579.318 2.76089 -7.08293 0
M  V30 6185 N 580.893 1.08022 1.14757 0
M  V30 6186 C 581.841 0.701088 2.21783 0
M  V30 6187 C 582.835 -0.291311 1.66876 0
M  V30 6188 O 584.041 -0.154296 1.79337 0
M  V30 6189 H 580.416 0.208668 0.722469 0
M  V30 6190 H 582.387 1.61321 2.51034 0
M  V30 6191 C 581.136 0.122278 3.47485 0
M  V30 6192 H 580.459 0.877065 3.90061 0
M  V30 6193 H 581.899 -0.105248 4.23869 0
M  V30 6194 C 580.358 -1.13883 3.17068 0
M  V30 6195 O 580.888 -2.22429 3.34497 0
M  V30 6196 N 579.094 -1.04767 2.71058 0
M  V30 6197 H 578.641 -0.164302 2.57075 0
M  V30 6198 H 578.599 -1.89224 2.51081 0
M  V30 6199 N 582.371 -1.3172 0.865308 0
M  V30 6200 C 583.611 -1.98675 0.480365 0
M  V30 6201 C 583.975 -1.66929 -0.948621 0
M  V30 6202 O 585.176 -2.27059 -1.43867 0
M  V30 6203 C 583.447 -3.49972 0.724858 0
M  V30 6204 S 585.006 -4.36598 0.439078 0
M  V30 6205 H 581.824 -0.687967 0.179506 0
M  V30 6206 H 584.426 -1.60215 1.12033 0
M  V30 6207 H 583.13 -3.70567 1.76375 0
M  V30 6208 H 582.661 -3.93335 0.0717173 0
M  V30 6209 H 584.676 -4.90792 -0.730564 0
M  V30 6210 N 583.85 -0.624285 -1.44708 0
M  V30 6211 C 585.098 -0.125802 -2.01708 0
M  V30 6212 C 585.418 1.2543 -1.49306 0
M  V30 6213 O 584.689 1.83198 -0.693924 0
M  V30 6214 H 583.269 -0.0435161 -0.745731 0
M  V30 6215 H 585.931 -0.809446 -1.77296 0
M  V30 6216 H 585.027 -0.0882734 -3.11975 0
M  V30 6217 N 585.328 1.53329 -0.364422 0
M  V30 6218 C 586.275 2.25698 0.482607 0
M  V30 6219 C 587.245 1.26325 1.07848 0
M  V30 6220 O 588.43 1.55104 1.11119 0
M  V30 6221 C 585.57 3.04873 1.61699 0
M  V30 6222 C 584.683 4.19135 1.0464 0
M  V30 6223 C 583.818 4.85754 2.14979 0
M  V30 6224 C 582.857 5.9205 1.5538 0
M  V30 6225 N 581.994 6.52365 2.59547 0
M  V30 6226 H 586.834 2.97666 -0.141032 0
M  V30 6227 H 584.371 1.46875 -0.0813692 0
M  V30 6228 H 586.329 3.49051 2.28516 0
M  V30 6229 H 584.959 2.35162 2.2113 0
M  V30 6230 H 584.011 3.79451 0.268553 0
M  V30 6231 H 585.323 4.95525 0.570653 0
M  V30 6232 H 584.477 5.3311 2.89619 0
M  V30 6233 H 583.216 4.08834 2.65906 0
M  V30 6234 H 582.221 5.44058 0.792549 0
M  V30 6235 H 583.446 6.7089 1.0528 0
M  V30 6236 H 581.392 5.78298 3.09689 0
M  V30 6237 H 581.309 7.2429 2.16655 0
M  V30 6238 H 582.577 7.0437 3.33892 0
M  V30 6239 N 586.806 0.0935595 1.57322 0
M  V30 6240 C 587.716 -0.880192 2.17462 0
M  V30 6241 C 588.732 -1.31135 1.14366 0
M  V30 6242 O 589.908 -1.37958 1.46729 0
M  V30 6243 C 586.973 -2.12184 2.74188 0
M  V30 6244 C 586.034 -1.74503 3.92234 0
M  V30 6245 C 585.267 -2.92748 4.46245 0
M  V30 6246 O 585.49 -4.07427 3.99198 0
M  V30 6247 O 584.424 -2.71303 5.37288 0
M  V30 6248 H 588.25 -0.398516 3.01074 0
M  V30 6249 H 585.835 -0.130707 1.48827 0
M  V30 6250 H 587.717 -2.84953 3.10451 0
M  V30 6251 H 586.392 -2.59407 1.93623 0
M  V30 6252 H 585.299 -0.989186 3.60785 0
M  V30 6253 H 586.632 -1.32044 4.74157 0
M  V30 6254 N 588.284 -1.56567 -0.180126 0
M  V30 6255 C 589.532 -1.81133 -0.896392 0
M  V30 6256 C 589.853 -0.669114 -1.83161 0
M  V30 6257 O 589.123 0.311616 -1.93406 0
M  V30 6258 H 587.703 -0.668172 -0.333999 0
M  V30 6259 H 590.365 -1.94048 -0.182051 0
M  V30 6260 H 589.461 -2.74854 -1.47857 0
M  V30 6261 N 589.762 0.448376 -1.51087 0
M  V30 6262 C 590.712 1.54156 -1.67988 0
M  V30 6263 C 591.696 1.5178 -0.534015 0
M  V30 6264 O 592.888 1.58419 -0.789448 0
M  V30 6265 C 590.017 2.92437 -1.79822 0
M  V30 6266 C 589.103 2.99611 -3.00157 0
M  V30 6267 N 589.494 2.7655 -4.23502 0
M  V30 6268 C 587.792 3.30764 -2.99184 0
M  V30 6269 C 588.493 2.89281 -5.0467 0
M  V30 6270 N 587.469 3.20473 -4.39088 0
M  V30 6271 H 591.271 1.35061 -2.61028 0
M  V30 6272 H 588.785 0.655504 -1.48583 0
M  V30 6273 H 590.782 3.71068 -1.90037 0
M  V30 6274 H 589.442 3.1256 -0.879554 0
M  V30 6275 H 590.453 2.5169 -4.52628 0
M  V30 6276 H 587.13 3.56732 -2.16907 0
M  V30 6277 H 588.52 2.75499 -6.12821 0
M  V30 6278 N 591.24 1.41047 0.703093 0
M  V30 6279 C 592.489 1.39301 1.4587 0
M  V30 6280 C 592.802 0.00267077 1.956 0
M  V30 6281 O 594.008 -0.137414 2.71152 0
M  V30 6282 C 592.464 2.44891 2.63735 0
M  V30 6283 C 592.072 3.89796 2.20824 0
M  V30 6284 C 593.816 2.5227 3.41409 0
M  V30 6285 C 591.723 4.86955 3.35602 0
M  V30 6286 H 590.653 0.518005 0.547893 0
M  V30 6287 H 593.304 1.66839 0.764009 0
M  V30 6288 H 591.686 2.10472 3.35436 0
M  V30 6289 H 592.86 4.33424 1.56461 0
M  V30 6290 H 591.175 3.86008 1.56163 0
M  V30 6291 H 593.772 3.22044 4.26839 0
M  V30 6292 H 594.115 1.55714 3.86081 0
M  V30 6293 H 594.648 2.85742 2.7676 0
M  V30 6294 H 591.387 5.84888 2.9595 0
M  V30 6295 H 590.907 4.47982 3.98839 0
M  V30 6296 H 592.586 5.07361 4.01489 0
M  V30 6297 N 592.718 -0.936591 1.26751 0
M  V30 6298 C 593.681 -2.01752 1.08761 0
M  V30 6299 C 594.681 -1.60763 0.0344435 0
M  V30 6300 O 595.871 -1.71963 0.278258 0
M  V30 6301 C 593.003 -3.34543 0.655271 0
M  V30 6302 H 594.196 -2.19143 2.04735 0
M  V30 6303 H 591.749 -1.11618 1.09413 0
M  V30 6304 H 592.484 -3.22851 -0.30626 0
M  V30 6305 H 592.269 -3.65647 1.41578 0
M  V30 6306 H 593.759 -4.13944 0.551378 0
M  V30 6307 N 594.196 -1.08629 -1.14182 0
M  V30 6308 C 595.612 -0.814363 -1.3726 0
M  V30 6309 C 595.812 0.575271 -1.93114 0
M  V30 6310 O 594.868 1.33165 -2.1453 0
M  V30 6311 C 596.181 -1.8989 -2.33157 0
M  V30 6312 C 597.729 -1.92518 -2.46791 0
M  V30 6313 C 598.204 -3.00092 -3.45989 0
M  V30 6314 N 599.695 -2.99279 -3.53534 0
M  V30 6315 C 600.43 -3.79158 -4.30147 0
M  V30 6316 N 599.926 -4.68923 -5.09983 0
M  V30 6317 N 601.719 -3.67451 -4.25366 0
M  V30 6318 H 593.87 -1.98232 -0.762758 0
M  V30 6319 H 596.133 -0.860383 -0.398051 0
M  V30 6320 H 595.839 -2.89809 -1.99257 0
M  V30 6321 H 595.713 -1.77013 -3.33086 0
M  V30 6322 H 598.1 -0.932425 -2.79982 0
M  V30 6323 H 598.181 -2.09473 -1.46816 0
M  V30 6324 H 597.825 -3.99575 -3.13532 0
M  V30 6325 H 597.755 -2.80382 -4.45751 0
M  V30 6326 H 600.246 -2.3422 -2.96563 0
M  V30 6327 H 600.559 -5.26475 -5.65724 0
M  V30 6328 H 598.904 -4.72964 -5.09244 0
M  V30 6329 H 602.095 -2.9669 -3.62067 0
M  V30 6330 H 602.268 -4.29944 -4.84822 0
M  V30 6331 N 595.674 1.31259 -0.872281 0
M  V30 6332 C 596.622 2.30404 -0.318897 0
M  V30 6333 C 597.616 1.5962 0.567267 0
M  V30 6334 O 598.822 1.74204 0.453111 0
M  V30 6335 H 595.197 0.747243 -0.0844474 0
M  V30 6336 H 597.168 2.74549 -1.16899 0
M  V30 6337 C 595.917 3.44608 0.462683 0
M  V30 6338 H 595.24 3.99248 -0.209936 0
M  V30 6339 H 596.68 4.1609 0.815187 0
M  V30 6340 C 595.139 2.93456 1.65485 0
M  V30 6341 O 595.669 2.92418 2.75417 0
M  V30 6342 N 593.875 2.49628 1.48776 0
M  V30 6343 H 593.422 2.50671 0.593452 0
M  V30 6344 H 593.38 2.15759 2.28682 0
M  V30 6345 N 597.152 0.631951 1.44375 0
M  V30 6346 C 598.392 0.14009 2.03919 0
M  V30 6347 C 598.756 -1.21534 1.48639 0
M  V30 6348 O 599.957 -1.79936 1.99691 0
M  V30 6349 C 598.228 0.127174 3.57174 0
M  V30 6350 S 599.787 -0.299946 4.37774 0
M  V30 6351 H 596.605 0.0614891 0.708336 0
M  V30 6352 H 599.207 0.835524 1.76746 0
M  V30 6353 H 597.911 1.11676 3.94913 0
M  V30 6354 H 597.442 -0.589482 3.88958 0
M  V30 6355 H 599.457 -1.54396 4.71568 0
M  V30 6356 N 598.631 -1.53133 0.372548 0
M  V30 6357 C 599.578 -2.25951 -0.470631 0
M  V30 6358 C 600.548 -1.26895 -1.07176 0
M  V30 6359 O 601.733 -1.55691 -1.10294 0
M  V30 6360 C 598.873 -3.05726 -1.6008 0
M  V30 6361 C 597.986 -4.19684 -1.02416 0
M  V30 6362 C 597.121 -4.86888 -2.124 0
M  V30 6363 C 596.16 -5.92866 -1.52238 0
M  V30 6364 N 595.297 -6.53732 -2.56084 0
M  V30 6365 H 600.137 -2.97587 0.156816 0
M  V30 6366 H 597.674 -1.4683 0.0891571 0
M  V30 6367 H 599.632 -3.50258 -2.26661 0
M  V30 6368 H 598.262 -2.36331 -2.1988 0
M  V30 6369 H 597.314 -3.79588 -0.248426 0
M  V30 6370 H 598.626 -4.95821 -0.544366 0
M  V30 6371 H 597.78 -5.34638 -2.86787 0
M  V30 6372 H 596.519 -4.10239 -2.63734 0
M  V30 6373 H 595.524 -5.4447 -0.763685 0
M  V30 6374 H 596.749 -6.71439 -1.0172 0
M  V30 6375 H 594.695 -5.79932 -3.06618 0
M  V30 6376 H 594.612 -7.25429 -2.12811 0
M  V30 6377 H 595.88 -7.0613 -3.30152 0
M  V30 6378 N 600.109 -0.101901 -1.5727 0
M  V30 6379 C 601.072 0.840129 -2.13247 0
M  V30 6380 C 602.072 1.20625 -1.06331 0
M  V30 6381 O 603.262 1.13456 -1.32186 0
M  V30 6382 C 600.394 2.13372 -2.65867 0
M  V30 6383 H 601.587 0.353945 -2.97804 0
M  V30 6384 H 599.14 0.147167 -1.55606 0
M  V30 6385 H 599.875 2.66461 -1.84849 0
M  V30 6386 H 599.66 1.88085 -3.44044 0
M  V30 6387 H 601.15 2.80748 -3.09145 0
M  V30 6388 N 601.587 1.56661 0.17182 0
M  V30 6389 C 602.998 1.71652 0.734329 0
M  V30 6390 C 603.349 0.712335 1.82812 0
M  V30 6391 O 602.474 -0.126401 2.16031 0
M  V30 6392 C 603.069 3.11226 1.3388 0
M  V30 6393 C 601.628 3.27904 1.84813 0
M  V30 6394 C 600.775 2.67603 0.726917 0
M  V30 6395 H 603.726 1.5861 -0.0535665 0
M  V30 6396 H 603.747 3.09849 2.20849 0
M  V30 6397 H 603.259 3.8429 0.54249 0
M  V30 6398 H 601.36 2.59796 2.6709 0
M  V30 6399 H 601.473 4.35637 1.99392 0
M  V30 6400 H 599.837 2.274 1.14723 0
M  V30 6401 H 600.62 3.43252 -0.0575334 0
M  V30 6402 N 603.065 -0.440357 1.51323 0
M  V30 6403 C 604.481 -0.7766 1.39431 0
M  V30 6404 C 604.681 -1.95838 0.474296 0
M  V30 6405 O 603.737 -2.52398 -0.0716692 0
M  V30 6406 C 605.05 -1.05981 2.81405 0
M  V30 6407 C 606.598 -1.16442 2.90534 0
M  V30 6408 C 607.073 -1.48058 4.33408 0
M  V30 6409 N 608.564 -1.54988 4.36501 0
M  V30 6410 C 609.299 -1.81017 5.44078 0
M  V30 6411 N 608.795 -2.04858 6.61819 0
M  V30 6412 N 610.588 -1.82774 5.31554 0
M  V30 6413 H 602.739 0.338006 2.09693 0
M  V30 6414 H 605.002 0.0888072 0.943831 0
M  V30 6415 H 604.708 -0.264173 3.50706 0
M  V30 6416 H 604.582 -1.98822 3.20546 0
M  V30 6417 H 606.969 -1.95068 2.21432 0
M  V30 6418 H 607.05 -0.215088 2.54894 0
M  V30 6419 H 606.694 -0.699605 5.03059 0
M  V30 6420 H 606.624 -2.44192 4.66559 0
M  V30 6421 H 609.115 -1.38479 3.51613 0
M  V30 6422 H 609.428 -2.2408 7.396 0
M  V30 6423 H 607.773 -2.02187 6.6494 0
M  V30 6424 H 610.964 -1.63665 4.38556 0
M  V30 6425 H 611.137 -2.02722 6.15474 0
M  V30 6426 N 604.543 -1.41418 -0.695603 0
M  V30 6427 C 605.49 -1.43264 -1.80954 0
M  V30 6428 C 606.46 -0.287016 -1.63601 0
M  V30 6429 O 607.645 -0.488054 -1.84452 0
M  V30 6430 C 604.785 -1.32054 -3.18835 0
M  V30 6431 C 603.898 -2.56485 -3.4762 0
M  V30 6432 C 603.033 -2.3757 -4.75115 0
M  V30 6433 C 602.072 -3.57477 -4.96867 0
M  V30 6434 N 601.209 -3.37632 -6.15588 0
M  V30 6435 H 606.049 -2.38467 -1.78711 0
M  V30 6436 H 603.586 -1.18415 -0.872715 0
M  V30 6437 H 605.544 -1.23558 -3.98484 0
M  V30 6438 H 604.174 -0.404592 -3.20254 0
M  V30 6439 H 603.226 -2.75432 -2.62376 0
M  V30 6440 H 604.538 -3.45678 -3.59594 0
M  V30 6441 H 603.692 -2.2654 -5.62818 0
M  V30 6442 H 602.431 -1.45834 -4.65386 0
M  V30 6443 H 601.436 -3.68961 -4.07612 0
M  V30 6444 H 602.661 -4.50167 -5.08455 0
M  V30 6445 H 600.607 -2.48596 -6.07072 0
M  V30 6446 H 600.524 -4.20401 -6.2833 0
M  V30 6447 H 601.792 -3.30375 -7.06026 0
M  V30 6448 N 606.021 0.929856 -1.27246 0
M  V30 6449 C 606.968 2.03017 -1.09785 0
M  V30 6450 C 607.938 1.661 0.000456744 0
M  V30 6451 O 609.123 1.90116 -0.161462 0
M  V30 6452 C 606.263 3.36878 -0.748816 0
M  V30 6453 C 605.376 3.86763 -1.92453 0
M  V30 6454 C 604.511 5.09061 -1.51758 0
M  V30 6455 C 603.55 5.51237 -2.66091 0
M  V30 6456 N 602.687 6.64732 -2.25999 0
M  V30 6457 H 607.527 2.17285 -2.03939 0
M  V30 6458 H 605.064 1.06448 -1.01524 0
M  V30 6459 H 607.022 4.13855 -0.527283 0
M  V30 6460 H 605.652 3.22424 0.155771 0
M  V30 6461 H 604.704 3.06086 -2.25867 0
M  V30 6462 H 606.016 4.13994 -2.78227 0
M  V30 6463 H 605.17 5.93532 -1.25716 0
M  V30 6464 H 603.909 4.83602 -0.630896 0
M  V30 6465 H 602.914 4.65316 -2.92849 0
M  V30 6466 H 604.139 5.78692 -3.55377 0
M  V30 6467 H 602.085 6.40935 -1.3978 0
M  V30 6468 H 602.002 6.91607 -3.05313 0
M  V30 6469 H 603.27 7.52549 -2.03199 0
M  V30 6470 N 607.499 1.09233 1.13605 0
M  V30 6471 C 608.747 0.825525 1.84471 0
M  V30 6472 C 609.068 -0.650702 1.83823 0
M  V30 6473 O 608.338 -1.47204 1.29259 0
M  V30 6474 H 606.918 0.3024 0.683054 0
M  V30 6475 H 609.58 1.38006 1.37624 0
M  V30 6476 H 608.676 1.17727 2.89045 0
M  V30 6477 N 608.977 -1.30795 0.87923 0
M  V30 6478 C 610.217 -1.98155 0.50141 0
M  V30 6479 C 610.581 -1.67925 -0.930863 0
M  V30 6480 O 611.782 -2.28572 -1.41451 0
M  V30 6481 C 610.053 -3.49184 0.761937 0
M  V30 6482 S 611.612 -4.36107 0.485361 0
M  V30 6483 H 608.43 -0.686025 0.186792 0
M  V30 6484 H 611.032 -1.59018 1.13726 0
M  V30 6485 H 609.736 -3.68676 1.80295 0
M  V30 6486 H 609.267 -3.93236 0.113432 0
M  V30 6487 H 611.282 -4.9154 -0.678467 0
M  V30 6488 N 610.455 -0.639598 -1.44038 0
M  V30 6489 C 611.701 -0.156248 -2.02799 0
M  V30 6490 C 612.056 1.21145 -1.49471 0
M  V30 6491 O 611.349 1.79406 -0.672608 0
M  V30 6492 C 611.543 -0.0925348 -3.5728 0
M  V30 6493 C 611.372 -1.45252 -4.25596 0
M  V30 6494 C 610.142 -2.04145 -4.62226 0
M  V30 6495 C 612.34 -2.38812 -4.55492 0
M  V30 6496 N 610.322 -3.3329 -5.15549 0
M  V30 6497 C 611.693 -3.52578 -5.09989 0
M  V30 6498 C 613.748 -2.37785 -4.3745 0
M  V30 6499 C 612.451 -4.65525 -5.48342 0
M  V30 6500 C 614.477 -3.49802 -4.76857 0
M  V30 6501 C 613.839 -4.62292 -5.31475 0
M  V30 6502 H 609.938 -0.101292 -0.775412 0
M  V30 6503 H 612.522 -0.844938 -1.75411 0
M  V30 6504 H 610.693 0.565459 -3.84262 0
M  V30 6505 H 612.425 0.400426 -4.02714 0
M  V30 6506 H 609.18 -1.56999 -4.4682 0
M  V30 6507 H 609.604 -3.9934 -5.46678 0
M  V30 6508 H 614.246 -1.52061 -3.94509 0
M  V30 6509 H 611.964 -5.51951 -5.90233 0
M  V30 6510 H 615.55 -3.50193 -4.64603 0
M  V30 6511 H 614.43 -5.47536 -5.61403 0
M  V30 6512 N 611.933 1.52934 -0.380664 0
M  V30 6513 C 612.88 2.26197 0.458641 0
M  V30 6514 C 613.85 1.27462 1.06502 0
M  V30 6515 O 615.035 1.56274 1.09467 0
M  V30 6516 C 612.175 3.06571 1.58456 0
M  V30 6517 C 611.288 4.20222 1.00189 0
M  V30 6518 C 610.423 4.88007 2.09815 0
M  V30 6519 C 609.462 5.93665 1.49092 0
M  V30 6520 N 608.599 6.55081 2.52613 0
M  V30 6521 H 613.439 2.975 -0.172595 0
M  V30 6522 H 610.976 1.4678 -0.0969426 0
M  V30 6523 H 612.934 3.51455 2.24801 0
M  V30 6524 H 611.564 2.37494 2.18624 0
M  V30 6525 H 610.616 3.79714 0.228292 0
M  V30 6526 H 611.928 4.96102 0.518064 0
M  V30 6527 H 611.082 5.36151 2.83948 0
M  V30 6528 H 609.821 4.11632 2.61555 0
M  V30 6529 H 608.826 5.44868 0.7348 0
M  V30 6530 H 610.051 6.71969 0.981582 0
M  V30 6531 H 607.997 5.8155 3.03538 0
M  V30 6532 H 607.914 7.26548 2.08961 0
M  V30 6533 H 609.182 7.07871 3.26402 0
M  V30 6534 N 613.412 0.11024 1.57214 0
M  V30 6535 C 614.652 -0.553061 1.96775 0
M  V30 6536 C 615.016 -1.64403 0.991753 0
M  V30 6537 O 616.217 -2.36561 1.27642 0
M  V30 6538 C 614.488 -1.08004 3.4069 0
M  V30 6539 S 616.047 -1.75309 4.02259 0
M  V30 6540 H 612.865 -0.18003 0.68783 0
M  V30 6541 H 615.467 0.193242 1.94543 0
M  V30 6542 H 614.171 -0.274735 4.09479 0
M  V30 6543 H 613.702 -1.86182 3.46554 0
M  V30 6544 H 615.717 -3.03834 3.923 0
M  V30 6545 N 614.89 -1.56749 -0.16351 0
M  V30 6546 C 616.138 -1.82074 -0.87713 0
M  V30 6547 C 616.459 -0.688503 -1.82441 0
M  V30 6548 O 615.729 0.291085 -1.93725 0
M  V30 6549 H 614.309 -0.671677 -0.326893 0
M  V30 6550 H 616.971 -1.9423 -0.161459 0
M  V30 6551 H 616.067 -2.76407 -1.44934 0
M  V30 6552 N 616.368 0.432326 -1.51554 0
M  V30 6553 C 617.315 1.52512 -1.7323 0
M  V30 6554 C 618.285 1.55863 -0.5741 0
M  V30 6555 O 619.47 1.72796 -0.809093 0
M  V30 6556 C 616.61 2.90183 -1.86783 0
M  V30 6557 C 615.723 2.96322 -3.14352 0
M  V30 6558 C 614.858 4.25147 -3.18471 0
M  V30 6559 C 613.897 4.25172 -4.40335 0
M  V30 6560 N 613.034 5.45529 -4.41975 0
M  V30 6561 H 617.874 1.33332 -2.66508 0
M  V30 6562 H 615.411 0.647613 -1.32077 0
M  V30 6563 H 617.369 3.70071 -1.92623 0
M  V30 6564 H 615.999 3.0791 -0.969087 0
M  V30 6565 H 615.051 2.09066 -3.17798 0
M  V30 6566 H 616.363 2.92203 -4.04251 0
M  V30 6567 H 615.517 5.13411 -3.23255 0
M  V30 6568 H 614.256 4.31929 -2.2647 0
M  V30 6569 H 613.261 3.353 -4.35723 0
M  V30 6570 H 614.486 4.20049 -5.33606 0
M  V30 6571 H 612.432 5.53024 -3.52847 0
M  V30 6572 H 612.349 5.43311 -5.25689 0
M  V30 6573 H 613.617 6.35812 -4.50958 0
M  V30 6574 N 617.846 1.41785 0.688094 0
M  V30 6575 C 618.756 1.46596 1.83158 0
M  V30 6576 C 619.772 0.355862 1.70322 0
M  V30 6577 O 620.948 0.604737 1.92106 0
M  V30 6578 C 618.013 1.35322 3.192 0
M  V30 6579 C 617.074 2.56711 3.4409 0
M  V30 6580 C 616.307 2.45965 4.73642 0
M  V30 6581 O 616.53 1.48827 5.50642 0
M  V30 6582 O 615.464 3.35859 4.99482 0
M  V30 6583 H 619.29 2.43083 1.82056 0
M  V30 6584 H 616.875 1.23404 0.842126 0
M  V30 6585 H 618.757 1.31347 4.00407 0
M  V30 6586 H 617.432 0.419536 3.2097 0
M  V30 6587 H 616.339 2.66262 2.62784 0
M  V30 6588 H 617.672 3.48933 3.47141 0
M  V30 6589 N 619.324 -0.923095 1.27737 0
M  V30 6590 C 620.572 -1.66797 1.14119 0
M  V30 6591 C 620.893 -1.92479 -0.312541 0
M  V30 6592 O 620.163 -1.53432 -1.218 0
M  V30 6593 H 618.743 -0.618196 0.419336 0
M  V30 6594 H 621.405 -1.10815 1.60331 0
M  V30 6595 H 620.501 -2.63424 1.67374 0
M  V30 6596 N 620.802 -1.09834 -1.13024 0
M  V30 6597 C 621.752 -0.710899 -2.16634 0
M  V30 6598 C 622.736 0.276836 -1.58501 0
M  V30 6599 O 623.928 0.0865457 -1.76788 0
M  V30 6600 C 621.057 -0.137574 -3.43024 0
M  V30 6601 C 620.143 -1.15198 -4.08155 0
M  V30 6602 N 620.534 -2.34054 -4.48388 0
M  V30 6603 C 618.832 -0.991074 -4.34849 0
M  V30 6604 C 619.533 -2.98616 -4.99203 0
M  V30 6605 N 618.509 -2.26159 -4.94321 0
M  V30 6606 H 622.311 -1.61576 -2.455 0
M  V30 6607 H 619.825 -0.975158 -1.29863 0
M  V30 6608 H 621.822 0.158031 -4.166 0
M  V30 6609 H 620.482 0.762088 -3.1563 0
M  V30 6610 H 621.493 -2.7162 -4.40957 0
M  V30 6611 H 618.17 -0.146448 -4.17243 0
M  V30 6612 H 619.56 -3.99683 -5.40096 0
M  V30 6613 N 622.28 1.30327 -0.886154 0
M  V30 6614 C 623.212 2.27079 -0.311072 0
M  V30 6615 C 624.225 1.53758 0.53502 0
M  V30 6616 O 625.414 1.74947 0.354378 0
M  V30 6617 C 622.514 3.33965 0.576228 0
M  V30 6618 C 621.687 4.36735 -0.241064 0
M  V30 6619 C 620.746 5.23028 0.576916 0
M  V30 6620 O 619.772 5.692 -0.000802231 0
M  V30 6621 N 620.974 5.49016 1.88579 0
M  V30 6622 H 623.739 2.77065 -1.14259 0
M  V30 6623 H 621.3 1.43519 -0.749258 0
M  V30 6624 H 623.292 3.88618 1.12953 0
M  V30 6625 H 621.862 2.839 1.30842 0
M  V30 6626 H 621.082 3.81932 -0.975805 0
M  V30 6627 H 622.37 5.02451 -0.801272 0
M  V30 6628 H 621.768 5.13288 2.37806 0
M  V30 6629 H 620.325 6.06539 2.38651 0
M  V30 6630 N 623.758 0.647228 1.43697 0
M  V30 6631 C 624.691 -0.097646 2.27991 0
M  V30 6632 C 625.669 -0.83571 1.3948 0
M  V30 6633 O 626.853 -0.836509 1.68922 0
M  V30 6634 C 623.98 -1.14484 3.18765 0
M  V30 6635 C 623.026 -0.505503 4.23494 0
M  V30 6636 S 623.859 0.716471 5.30685 0
M  V30 6637 C 625.015 -0.330339 6.25028 0
M  V30 6638 H 625.248 0.617417 2.90818 0
M  V30 6639 H 622.781 0.435881 1.4812 0
M  V30 6640 H 624.739 -1.74403 3.7161 0
M  V30 6641 H 623.4 -1.83219 2.55127 0
M  V30 6642 H 622.593 -1.29473 4.87086 0
M  V30 6643 H 622.195 0.0194377 3.73995 0
M  V30 6644 H 624.487 -1.19828 6.66819 0
M  V30 6645 H 625.43 0.270409 7.07583 0
M  V30 6646 H 625.838 -0.663459 5.60588 0
M  V30 6647 N 625.236 -1.5273 0.388769 0
M  V30 6648 C 626.183 -2.26437 -0.446639 0
M  V30 6649 C 627.153 -1.28025 -1.05824 0
M  V30 6650 O 628.338 -1.56852 -1.08637 0
M  V30 6651 C 625.478 -3.07407 -1.56828 0
M  V30 6652 C 624.591 -4.20747 -0.979589 0
M  V30 6653 C 623.726 -4.89113 -2.07224 0
M  V30 6654 C 622.765 -5.94447 -1.45942 0
M  V30 6655 N 621.902 -6.56411 -2.49135 0
M  V30 6656 H 626.742 -2.97404 0.18837 0
M  V30 6657 H 624.279 -1.46727 0.104725 0
M  V30 6658 H 626.237 -3.52642 -2.22934 0
M  V30 6659 H 624.867 -2.3865 -2.17361 0
M  V30 6660 H 623.919 -3.7983 -0.208151 0
M  V30 6661 H 625.231 -4.9637 -0.491747 0
M  V30 6662 H 624.385 -5.3765 -2.81101 0
M  V30 6663 H 623.124 -4.13013 -2.59368 0
M  V30 6664 H 622.129 -5.4525 -0.705894 0
M  V30 6665 H 623.354 -6.7248 -0.945932 0
M  V30 6666 H 621.3 -5.83152 -3.00449 0
M  V30 6667 H 621.217 -7.27645 -2.05105 0
M  V30 6668 H 622.485 -7.09592 -3.22644 0
M  V30 6669 N 626.714 -0.118576 -1.57153 0
M  V30 6670 C 627.991 0.583062 -1.86708 0
M  V30 6671 C 628.371 1.84841 -1.01967 0
M  V30 6672 O 627.719 2.28288 -0.0984673 0
M  V30 6673 C 627.929 0.875912 -3.3783 0
M  V30 6674 C 629.277 1.22916 -4.0642 0
M  V30 6675 O 630.301 0.966188 -3.42846 0
M  V30 6676 O 629.16 1.72269 -5.18638 0
M  V30 6677 H 626.254 0.294185 -0.772906 0
M  V30 6678 H 628.8 -0.153048 -1.69008 0
M  V30 6679 H 627.572 -0.0207776 -3.91294 0
M  V30 6680 H 627.195 1.66719 -3.60958 0
M  V30 6681 N 628.193 1.56834 0.155195 0
M  V30 6682 C 629.433 1.84701 0.875488 0
M  V30 6683 C 629.797 0.701747 1.78716 0
M  V30 6684 O 630.998 0.861263 2.54629 0
M  V30 6685 C 629.269 3.1773 1.63654 0
M  V30 6686 S 630.828 3.67128 2.40338 0
M  V30 6687 H 627.646 0.647856 0.292923 0
M  V30 6688 H 630.248 1.95026 0.136024 0
M  V30 6689 H 628.952 3.99059 0.958117 0
M  V30 6690 H 628.483 3.10388 2.41708 0
M  V30 6691 H 630.498 3.35739 3.65368 0
M  V30 6692 N 629.671 -0.424282 1.51781 0
M  V30 6693 C 630.899 -1.1947 1.68921 0
M  V30 6694 C 631.314 -1.84683 0.39213 0
M  V30 6695 O 630.671 -1.71261 -0.630554 0
M  V30 6696 C 630.722 -2.26909 2.81416 0
M  V30 6697 O 630.443 -1.64361 4.061 0
M  V30 6698 C 631.944 -3.16945 3.09937 0
M  V30 6699 H 629.164 -0.359591 0.566511 0
M  V30 6700 H 631.708 -0.501139 1.98265 0
M  V30 6701 H 629.863 -2.91959 2.54635 0
M  V30 6702 H 630.277 -2.35468 4.68674 0
M  V30 6703 H 631.751 -3.88437 3.922 0
M  V30 6704 H 632.228 -3.78451 2.22871 0
M  V30 6705 H 632.834 -2.57581 3.38426 0
M  V30 6706 N 631.149 -1.42148 -0.680565 0
M  V30 6707 C 632.059 -1.47565 -1.82378 0
M  V30 6708 C 633.075 -0.36489 -1.70131 0
M  V30 6709 O 634.251 -0.614916 -1.91783 0
M  V30 6710 C 631.316 -1.37013 -3.18478 0
M  V30 6711 C 630.377 -2.58532 -3.42724 0
M  V30 6712 C 629.61 -2.48473 -4.72331 0
M  V30 6713 O 629.833 -1.51745 -5.49845 0
M  V30 6714 O 628.767 -3.38503 -4.97694 0
M  V30 6715 H 632.593 -2.44045 -1.80764 0
M  V30 6716 H 630.178 -1.23849 -0.835569 0
M  V30 6717 H 632.06 -1.33468 -3.99705 0
M  V30 6718 H 630.735 -0.436552 -3.20743 0
M  V30 6719 H 629.642 -2.67652 -2.61368 0
M  V30 6720 H 630.975 -3.50769 -3.45286 0
M  V30 6721 N 632.627 0.916307 -1.28225 0
M  V30 6722 C 634.043 1.19425 -1.05876 0
M  V30 6723 C 634.243 2.005 0.2005 0
M  V30 6724 O 633.299 2.35806 0.902873 0
M  V30 6725 C 634.612 1.93133 -2.30478 0
M  V30 6726 C 636.16 2.06026 -2.35632 0
M  V30 6727 C 636.635 2.83141 -3.59994 0
M  V30 6728 N 638.126 2.90704 -3.60618 0
M  V30 6729 C 638.861 3.50865 -4.53521 0
M  V30 6730 N 638.357 4.12327 -5.56739 0
M  V30 6731 N 640.15 3.48379 -4.41122 0
M  V30 6732 H 632.301 0.37496 -2.09064 0
M  V30 6733 H 634.564 0.228531 -0.920042 0
M  V30 6734 H 634.27 1.40985 -3.22205 0
M  V30 6735 H 634.144 2.93696 -2.36691 0
M  V30 6736 H 636.531 2.57355 -1.44404 0
M  V30 6737 H 636.612 1.04647 -2.33415 0
M  V30 6738 H 636.256 2.32492 -4.51564 0
M  V30 6739 H 636.186 3.84829 -3.59464 0
M  V30 6740 H 638.677 2.47034 -2.85977 0
M  V30 6741 H 638.99 4.56205 -6.23776 0
M  V30 6742 H 637.335 4.10839 -5.60568 0
M  V30 6743 H 640.526 2.99572 -3.59686 0
M  V30 6744 H 640.699 3.94974 -5.13712 0
M  V30 6745 N 634.105 1.10431 1.1244 0
M  V30 6746 C 635.037 0.710945 2.17895 0
M  V30 6747 C 636.05 -0.252315 1.60833 0
M  V30 6748 O 637.239 -0.03679 1.78462 0
M  V30 6749 C 634.339 0.0284262 3.38888 0
M  V30 6750 C 633.512 1.01585 4.2544 0
M  V30 6751 C 632.571 0.364826 5.24934 0
M  V30 6752 O 631.597 1.01561 5.60066 0
M  V30 6753 N 632.799 -0.87674 5.73841 0
M  V30 6754 H 635.564 1.61826 2.52255 0
M  V30 6755 H 633.125 0.993132 1.27861 0
M  V30 6756 H 635.117 -0.418568 4.0253 0
M  V30 6757 H 633.687 -0.781294 3.02679 0
M  V30 6758 H 632.907 1.64111 3.58415 0
M  V30 6759 H 634.195 1.68425 4.80115 0
M  V30 6760 H 633.593 -1.42483 5.47462 0
M  V30 6761 H 632.15 -1.26688 6.39369 0
M  V30 6762 N 635.583 -1.29855 0.893053 0
M  V30 6763 C 636.546 -2.26183 0.370687 0
M  V30 6764 C 637.546 -1.53108 -0.491385 0
M  V30 6765 O 638.736 -1.71643 -0.297386 0
M  V30 6766 C 635.868 -3.37633 -0.470827 0
M  V30 6767 H 637.061 -2.73903 1.22135 0
M  V30 6768 H 634.614 -1.41183 0.67061 0
M  V30 6769 H 635.349 -2.95241 -1.34175 0
M  V30 6770 H 635.134 -3.91825 0.146784 0
M  V30 6771 H 636.624 -4.09313 -0.827825 0
M  V30 6772 N 637.061 -0.65484 -1.43351 0
M  V30 6773 C 638.009 0.0476784 -2.32551 0
M  V30 6774 C 639.003 0.811403 -1.48703 0
M  V30 6775 O 640.209 0.721621 -1.64902 0
M  V30 6776 H 636.584 0.0342038 -0.751222 0
M  V30 6777 H 638.555 -0.722342 -2.89525 0
M  V30 6778 C 637.304 0.999251 -3.33032 0
M  V30 6779 H 636.627 0.421005 -3.97577 0
M  V30 6780 H 638.067 1.45986 -3.98076 0
M  V30 6781 C 636.526 2.09606 -2.63756 0
M  V30 6782 O 637.056 3.18004 -2.4543 0
M  V30 6783 N 635.262 1.86207 -2.23103 0
M  V30 6784 H 634.809 0.980555 -2.38208 0
M  V30 6785 H 634.767 2.59787 -1.77081 0
M  V30 6786 N 638.539 1.52521 -0.396863 0
M  V30 6787 C 639.786 2.01672 0.182898 0
M  V30 6788 C 640.114 1.28302 1.46181 0
M  V30 6789 O 639.369 0.374118 1.92091 0
M  V30 6790 C 639.668 3.5403 0.489677 0
M  V30 6791 C 639.334 4.45456 -0.698581 0
M  V30 6792 C 637.996 4.70166 -1.02454 0
M  V30 6793 C 640.348 4.99354 -1.49316 0
M  V30 6794 C 637.676 5.46024 -2.1465 0
M  V30 6795 C 640.028 5.76439 -2.60579 0
M  V30 6796 C 638.692 5.99426 -2.93675 0
M  V30 6797 H 637.962 0.737971 0.066927 0
M  V30 6798 H 640.609 1.83853 -0.535764 0
M  V30 6799 H 638.914 3.69963 1.28976 0
M  V30 6800 H 640.611 3.8956 0.951018 0
M  V30 6801 H 637.201 4.26392 -0.434525 0
M  V30 6802 H 641.385 4.80182 -1.25457 0
M  V30 6803 H 636.641 5.62046 -2.40654 0
M  V30 6804 H 640.815 6.17202 -3.22544 0
M  V30 6805 H 638.442 6.57988 -3.80731 0
M  V30 6806 N 640.017 0.126909 1.57088 0
M  V30 6807 C 640.947 -0.816847 2.18746 0
M  V30 6808 C 641.928 -1.27161 1.12979 0
M  V30 6809 O 643.113 -1.33279 1.41246 0
M  V30 6810 C 640.243 -2.06398 2.79315 0
M  V30 6811 C 639.197 -1.74673 3.90735 0
M  V30 6812 C 638.523 -3.06482 4.38147 0
M  V30 6813 C 639.823 -1.0089 5.12463 0
M  V30 6814 H 641.517 -0.303032 2.97863 0
M  V30 6815 H 639.063 -0.144314 1.43275 0
M  V30 6816 H 641.016 -2.72885 3.2111 0
M  V30 6817 H 639.74 -2.60118 1.975 0
M  V30 6818 H 638.399 -1.10572 3.49527 0
M  V30 6819 H 638.047 -3.58152 3.5318 0
M  V30 6820 H 637.747 -2.86025 5.13287 0
M  V30 6821 H 639.271 -3.74073 4.82599 0
M  V30 6822 H 640.685 -1.57546 5.51228 0
M  V30 6823 H 639.082 -0.905006 5.93237 0
M  V30 6824 H 640.152 0.00297335 4.849 0
M  V30 6825 N 641.495 -1.56914 -0.146875 0
M  V30 6826 C 642.911 -1.51582 -0.499518 0
M  V30 6827 C 643.111 -0.83535 -1.83369 0
M  V30 6828 O 642.167 -0.405932 -2.49216 0
M  V30 6829 C 643.48 -2.96349 -0.509711 0
M  V30 6830 C 645.028 -3.07288 -0.595217 0
M  V30 6831 C 645.503 -4.53562 -0.636071 0
M  V30 6832 N 646.994 -4.57906 -0.69829 0
M  V30 6833 C 647.729 -5.68462 -0.750886 0
M  V30 6834 N 647.225 -6.88588 -0.76282 0
M  V30 6835 N 649.018 -5.56496 -0.791777 0
M  V30 6836 H 641.169 -1.99547 0.727656 0
M  V30 6837 H 643.432 -0.910113 0.265327 0
M  V30 6838 H 643.138 -3.4939 0.402409 0
M  V30 6839 H 643.012 -3.52307 -1.34758 0
M  V30 6840 H 645.399 -2.54266 -1.49776 0
M  V30 6841 H 645.48 -2.54373 0.2698 0
M  V30 6842 H 645.124 -5.07222 0.262313 0
M  V30 6843 H 645.054 -5.04259 -1.51758 0
M  V30 6844 H 647.545 -3.71429 -0.696362 0
M  V30 6845 H 647.858 -7.68598 -0.804804 0
M  V30 6846 H 646.203 -6.91148 -0.730694 0
M  V30 6847 H 649.394 -4.61562 -0.779624 0
M  V30 6848 H 649.567 -6.42671 -0.829301 0
M  V30 6849 N 642.974 0.416227 -1.52004 0
M  V30 6850 C 643.884 1.53147 -1.77717 0
M  V30 6851 C 644.9 1.609 -0.662368 0
M  V30 6852 O 646.076 1.77747 -0.946991 0
M  V30 6853 C 643.141 2.88948 -1.91598 0
M  V30 6854 C 642.202 2.9114 -3.15493 0
M  V30 6855 C 641.435 4.20464 -3.28703 0
M  V30 6856 O 641.658 5.13981 -2.47345 0
M  V30 6857 O 640.592 4.29368 -4.21813 0
M  V30 6858 H 644.418 1.34357 -2.72363 0
M  V30 6859 H 642.003 0.601373 -1.36762 0
M  V30 6860 H 643.885 3.69505 -2.02593 0
M  V30 6861 H 642.56 3.07821 -1.00141 0
M  V30 6862 H 641.467 2.09461 -3.09962 0
M  V30 6863 H 642.8 2.77216 -4.06709 0
M  V30 6864 N 644.452 1.42507 0.673017 0
M  V30 6865 C 645.729 1.33554 1.42908 0
M  V30 6866 C 646.109 -0.0262211 2.11084 0
M  V30 6867 O 645.457 -1.04181 2.03368 0
M  V30 6868 C 645.667 2.50498 2.43006 0
M  V30 6869 C 647.015 2.92694 3.07596 0
M  V30 6870 O 648.039 2.50401 2.53333 0
M  V30 6871 O 646.898 3.65899 4.05931 0
M  V30 6872 H 643.992 0.526785 0.637516 0
M  V30 6873 H 646.538 1.54518 0.701591 0
M  V30 6874 H 645.31 3.41272 1.9144 0
M  V30 6875 H 644.933 2.3153 3.23233 0
M  V30 6876 N 645.93 -0.909495 1.28709 0
M  V30 6877 C 646.86 -2.0291 1.15542 0
M  V30 6878 C 647.841 -1.7002 0.0521017 0
M  V30 6879 O 649.026 -1.92835 0.229849 0
M  V30 6880 C 646.156 -3.37458 0.820935 0
M  V30 6881 C 645.11 -3.84524 1.87949 0
M  V30 6882 C 644.436 -5.16086 1.39854 0
M  V30 6883 C 645.736 -4.05918 3.28676 0
M  V30 6884 H 647.43 -2.14183 2.09203 0
M  V30 6885 H 644.976 -1.02913 1.00722 0
M  V30 6886 H 646.929 -4.1528 0.715571 0
M  V30 6887 H 645.653 -3.26249 -0.151374 0
M  V30 6888 H 644.312 -3.08911 1.97408 0
M  V30 6889 H 643.96 -5.01284 0.41518 0
M  V30 6890 H 643.66 -5.48547 2.1064 0
M  V30 6891 H 645.184 -5.96459 1.30649 0
M  V30 6892 H 646.598 -4.74252 3.22115 0
M  V30 6893 H 644.995 -4.49717 3.97334 0
M  V30 6894 H 646.065 -3.10583 3.72379 0
M  V30 6895 N 647.408 -1.11026 -1.11852 0
M  V30 6896 C 648.371 -0.768006 -2.1595 0
M  V30 6897 C 649.371 0.210538 -1.59416 0
M  V30 6898 O 650.561 -0.0133978 -1.74195 0
M  V30 6899 C 647.693 -0.138678 -3.40618 0
M  V30 6900 H 648.886 -1.69012 -2.4774 0
M  V30 6901 H 646.439 -0.911578 -1.26964 0
M  V30 6902 H 647.174 0.793872 -3.14433 0
M  V30 6903 H 646.959 -0.843012 -3.8293 0
M  V30 6904 H 648.449 0.0848039 -4.17514 0
M  V30 6905 N 648.886 1.2938 -0.899927 0
M  V30 6906 C 650.133 1.9555 -0.525963 0
M  V30 6907 C 650.461 1.70945 0.927789 0
M  V30 6908 O 649.716 1.01545 1.67293 0
M  V30 6909 C 650.015 3.49114 -0.765113 0
M  V30 6910 C 649.681 3.93796 -2.19626 0
M  V30 6911 C 648.343 4.05707 -2.58758 0
M  V30 6912 C 650.695 4.16883 -3.12823 0
M  V30 6913 C 648.023 4.38074 -3.90267 0
M  V30 6914 C 650.375 4.50725 -4.4388 0
M  V30 6915 C 649.039 4.60845 -4.82885 0
M  V30 6916 H 648.309 0.715569 -0.192463 0
M  V30 6917 H 650.956 1.53972 -1.13863 0
M  V30 6918 H 649.261 3.91738 -0.069531 0
M  V30 6919 H 650.958 3.98409 -0.455144 0
M  V30 6920 H 647.548 3.85042 -1.88256 0
M  V30 6921 H 651.732 4.07147 -2.83804 0
M  V30 6922 H 646.988 4.44112 -4.20207 0
M  V30 6923 H 651.162 4.67538 -5.16121 0
M  V30 6924 H 648.789 4.85681 -5.84823 0
M  V30 6925 N 650.364 0.662433 1.43002 0
M  V30 6926 C 651.294 -0.00979809 2.33498 0
M  V30 6927 C 652.275 -0.802329 1.49989 0
M  V30 6928 O 653.46 -0.761964 1.78627 0
M  V30 6929 C 650.59 -0.970446 3.33466 0
M  V30 6930 C 649.544 -0.287383 4.27034 0
M  V30 6931 C 648.87 -1.36012 5.17112 0
M  V30 6932 C 650.17 0.82595 5.15728 0
M  V30 6933 H 651.864 0.745959 2.89958 0
M  V30 6934 H 649.41 0.360172 1.39423 0
M  V30 6935 H 651.363 -1.44971 3.95679 0
M  V30 6936 H 650.087 -1.75748 2.75282 0
M  V30 6937 H 648.746 0.17152 3.66199 0
M  V30 6938 H 648.394 -2.13882 4.55262 0
M  V30 6939 H 648.094 -0.908276 5.80538 0
M  V30 6940 H 649.618 -1.84056 5.82199 0
M  V30 6941 H 651.032 0.42845 5.71697 0
M  V30 6942 H 649.429 1.20282 5.87922 0
M  V30 6943 H 650.499 1.68003 4.54866 0
M  V30 6944 N 651.842 -1.52309 0.404946 0
M  V30 6945 C 652.774 -2.24579 -0.45791 0
M  V30 6946 C 653.787 -1.2739 -1.01369 0
M  V30 6947 O 654.976 -1.53363 -0.91335 0
M  V30 6948 C 652.076 -2.9608 -1.64893 0
M  V30 6949 C 651.249 -4.20106 -1.21777 0
M  V30 6950 C 650.308 -4.74468 -2.27523 0
M  V30 6951 O 649.334 -5.37157 -1.88285 0
M  V30 6952 N 650.536 -4.55678 -3.59635 0
M  V30 6953 H 653.301 -2.99265 0.161341 0
M  V30 6954 H 650.862 -1.60228 0.232107 0
M  V30 6955 H 652.854 -3.29344 -2.35191 0
M  V30 6956 H 651.424 -2.24606 -2.17419 0
M  V30 6957 H 650.644 -3.92704 -0.343071 0
M  V30 6958 H 651.932 -5.00658 -0.906596 0
M  V30 6959 H 651.33 -4.05673 -3.94266 0
M  V30 6960 H 649.887 -4.9339 -4.25922 0
M  V30 6961 N 653.32 -0.135238 -1.57019 0
M  V30 6962 C 654.568 0.51777 -1.95355 0
M  V30 6963 C 654.889 1.6617 -1.02042 0
M  V30 6964 O 654.159 1.95738 -0.0797343 0
M  V30 6965 H 652.739 0.194264 -0.721298 0
M  V30 6966 H 655.401 -0.207983 -1.93787 0
M  V30 6967 H 654.497 0.901675 -2.98791 0
M  V30 6968 N 654.798 1.5699 0.138552 0
M  V30 6969 C 655.745 1.98899 1.17081 0
M  V30 6970 C 656.715 0.857922 1.42228 0
M  V30 6971 O 657.9 1.12065 1.54422 0
M  V30 6972 C 655.04 2.38189 2.4972 0
M  V30 6973 C 654.153 3.64624 2.31674 0
M  V30 6974 C 653.288 3.9298 3.57407 0
M  V30 6975 C 652.327 5.1266 3.34435 0
M  V30 6976 N 651.464 5.36983 4.5232 0
M  V30 6977 H 656.304 2.86881 0.80642 0
M  V30 6978 H 653.841 1.41925 0.386727 0
M  V30 6979 H 655.799 2.59 3.2707 0
M  V30 6980 H 654.429 1.53275 2.84089 0
M  V30 6981 H 653.481 3.51542 1.45337 0
M  V30 6982 H 654.793 4.52131 2.10664 0
M  V30 6983 H 653.947 4.14335 4.43183 0
M  V30 6984 H 652.686 3.03912 3.8143 0
M  V30 6985 H 651.691 4.9117 2.47048 0
M  V30 6986 H 652.916 6.03288 3.11802 0
M  V30 6987 H 650.862 4.50871 4.76499 0
M  V30 6988 H 650.779 6.18775 4.34343 0
M  V30 6989 H 652.047 5.62842 5.39285 0
M  V30 6990 N 656.276 -0.40816 1.52223 0
M  V30 6991 C 657.239 -1.48 1.7501 0
M  V30 6992 C 658.239 -1.48367 0.619996 0
M  V30 6993 O 659.429 -1.49874 0.887881 0
M  V30 6994 C 656.561 -2.87403 1.83336 0
M  V30 6995 H 657.754 -1.29086 2.70697 0
M  V30 6996 H 655.307 -0.638715 1.42654 0
M  V30 6997 H 656.042 -3.11686 0.895677 0
M  V30 6998 H 655.827 -2.8854 2.65494 0
M  V30 6999 H 657.317 -3.65103 2.02705 0
M  V30 7000 N 657.755 -1.42862 -0.66545 0
M  V30 7001 C 659.171 -1.25993 -0.979687 0
M  V30 7002 C 659.371 -0.170831 -2.00775 0
M  V30 7003 O 658.427 0.454827 -2.4837 0
M  V30 7004 C 659.74 -2.62005 -1.47559 0
M  V30 7005 C 661.288 -2.69437 -1.59288 0
M  V30 7006 C 661.763 -4.05838 -2.12272 0
M  V30 7007 N 663.254 -4.0784 -2.19592 0
M  V30 7008 C 663.989 -5.10205 -2.61684 0
M  V30 7009 N 663.485 -6.22949 -3.03161 0
M  V30 7010 N 665.278 -4.9756 -2.61516 0
M  V30 7011 H 657.429 -2.12395 0.0150493 0
M  V30 7012 H 659.692 -0.946355 -0.0558187 0
M  V30 7013 H 659.398 -3.42605 -0.794654 0
M  V30 7014 H 659.272 -2.86566 -2.45275 0
M  V30 7015 H 661.659 -1.89178 -2.26486 0
M  V30 7016 H 661.74 -2.48655 -0.600374 0
M  V30 7017 H 661.384 -4.86559 -1.4568 0
M  V30 7018 H 661.314 -4.23977 -3.12331 0
M  V30 7019 H 663.805 -3.26452 -1.90361 0
M  V30 7020 H 664.118 -6.96899 -3.33993 0
M  V30 7021 H 662.463 -6.2644 -3.00995 0
M  V30 7022 H 665.654 -4.08551 -2.28481 0
M  V30 7023 H 665.827 -5.77468 -2.93999 0
M  V30 7024 N 659.233 0.902656 -1.29189 0
M  V30 7025 C 660.143 2.03946 -1.15944 0
M  V30 7026 C 661.159 1.738 -0.0833803 0
M  V30 7027 O 662.335 1.9923 -0.29487 0
M  V30 7028 C 659.4 3.36519 -0.834006 0
M  V30 7029 C 658.461 3.80203 -1.9936 0
M  V30 7030 C 657.694 5.06449 -1.68359 0
M  V30 7031 O 657.917 5.67202 -0.603141 0
M  V30 7032 O 656.851 5.46114 -2.53067 0
M  V30 7033 H 660.677 2.18043 -2.11403 0
M  V30 7034 H 658.262 1.02584 -1.08613 0
M  V30 7035 H 660.144 4.16089 -0.666949 0
M  V30 7036 H 658.819 3.23573 0.0908245 0
M  V30 7037 H 657.726 3.01413 -2.21588 0
M  V30 7038 H 659.059 3.97729 -2.89952 0
M  V30 7039 N 660.711 1.11618 1.11262 0
M  V30 7040 C 661.958 0.86618 1.8304 0
M  V30 7041 C 662.286 -0.608149 1.84748 0
M  V30 7042 O 661.541 -1.46508 1.29745 0
M  V30 7043 C 661.84 1.37529 3.2988 0
M  V30 7044 C 661.506 2.86317 3.4833 0
M  V30 7045 C 660.168 3.26945 3.53073 0
M  V30 7046 C 662.52 3.82136 3.54431 0
M  V30 7047 C 659.848 4.62117 3.61475 0
M  V30 7048 C 662.2 5.17128 3.64365 0
M  V30 7049 C 660.864 5.57312 3.67369 0
M  V30 7050 H 660.134 0.316958 0.66979 0
M  V30 7051 H 662.781 1.3949 1.31205 0
M  V30 7052 H 661.086 0.766842 3.84222 0
M  V30 7053 H 662.783 1.15817 3.83911 0
M  V30 7054 H 659.373 2.53889 3.45309 0
M  V30 7055 H 663.557 3.51847 3.50025 0
M  V30 7056 H 658.813 4.92655 3.62079 0
M  V30 7057 H 662.987 5.91208 3.68029 0
M  V30 7058 H 660.614 6.62045 3.73632 0
M  V30 7059 N 662.189 -1.289 0.906776 0
M  V30 7060 C 663.414 -1.99939 0.551303 0
M  V30 7061 C 663.839 -1.67366 -0.858496 0
M  V30 7062 O 663.197 -0.902176 -1.57259 0
M  V30 7063 C 663.245 -3.52523 0.758937 0
M  V30 7064 O 662.349 -4.11983 -0.185308 0
M  V30 7065 H 661.69 -0.628376 0.214568 0
M  V30 7066 H 664.22 -1.64225 1.2203 0
M  V30 7067 H 664.23 -4.02522 0.666329 0
M  V30 7068 H 662.905 -3.75566 1.78671 0
M  V30 7069 H 661.482 -3.72873 -0.0445577 0
M  V30 7070 N 663.667 -0.670007 -1.42649 0
M  V30 7071 C 664.892 -0.196955 -2.06463 0
M  V30 7072 C 665.317 1.1352 -1.49983 0
M  V30 7073 O 664.675 1.705 -0.616397 0
M  V30 7074 C 664.723 -0.137381 -3.60338 0
M  V30 7075 O 663.827 0.895523 -4.02559 0
M  V30 7076 H 663.168 -0.102579 -0.656029 0
M  V30 7077 H 665.698 -0.917669 -1.82866 0
M  V30 7078 H 665.708 0.0403625 -4.0798 0
M  V30 7079 H 664.383 -1.10977 -4.0082 0
M  V30 7080 H 662.96 0.689209 -3.66476 0
M  V30 7081 N 665.145 1.52092 -0.413018 0
M  V30 7082 C 666.055 2.30858 0.417318 0
M  V30 7083 C 667.071 1.38746 1.05003 0
M  V30 7084 O 668.247 1.71821 1.05069 0
M  V30 7085 C 665.312 3.11756 1.51687 0
M  V30 7086 C 664.373 4.19613 0.906825 0
M  V30 7087 C 663.606 4.96644 1.95399 0
M  V30 7088 O 663.829 4.7402 3.17271 0
M  V30 7089 O 662.763 5.81385 1.55805 0
M  V30 7090 H 666.589 3.02865 -0.225028 0
M  V30 7091 H 664.174 1.48358 -0.176126 0
M  V30 7092 H 666.056 3.62122 2.15512 0
M  V30 7093 H 664.731 2.42539 2.14375 0
M  V30 7094 H 663.638 3.73385 0.231183 0
M  V30 7095 H 664.971 4.91134 0.323814 0
M  V30 7096 N 666.623 0.143563 1.56945 0
M  V30 7097 C 667.555 -0.828353 2.13708 0
M  V30 7098 C 668.568 -1.21313 1.08568 0
M  V30 7099 O 669.757 -1.1578 1.35857 0
M  V30 7100 C 666.857 -2.12248 2.64204 0
M  V30 7101 C 666.03 -1.90561 3.93707 0
M  V30 7102 C 665.089 -3.03931 4.29549 0
M  V30 7103 O 664.115 -2.75772 4.97934 0
M  V30 7104 N 665.317 -4.31016 3.88852 0
M  V30 7105 H 668.082 -0.343242 2.97728 0
M  V30 7106 H 665.643 -0.0401152 1.6185 0
M  V30 7107 H 667.635 -2.87132 2.85197 0
M  V30 7108 H 666.205 -2.52033 1.84928 0
M  V30 7109 H 665.425 -0.997327 3.81375 0
M  V30 7110 H 666.713 -1.73405 4.78339 0
M  V30 7111 H 666.111 -4.56762 3.33743 0
M  V30 7112 H 664.668 -5.02691 4.14903 0
M  V30 7113 N 668.101 -1.57061 -0.130224 0
M  V30 7114 C 669.329 -1.88432 -0.854456 0
M  V30 7115 C 669.744 -0.733608 -1.73964 0
M  V30 7116 O 669.101 0.296029 -1.80083 0
M  V30 7117 C 669.152 -3.1918 -1.69724 0
M  V30 7118 O 668.873 -4.2982 -0.847705 0
M  V30 7119 C 670.374 -3.6418 -2.5276 0
M  V30 7120 H 667.594 -0.624193 -0.246221 0
M  V30 7121 H 670.138 -2.04159 -0.11798 0
M  V30 7122 H 668.293 -3.05156 -2.3866 0
M  V30 7123 H 668.707 -5.04689 -1.42792 0
M  V30 7124 H 670.181 -4.58457 -3.07443 0
M  V30 7125 H 670.658 -2.90285 -3.29592 0
M  V30 7126 H 671.264 -3.80954 -1.89087 0
M  V30 7127 N 669.579 0.400081 -1.52437 0
M  V30 7128 C 670.995 0.739359 -1.41441 0
M  V30 7129 C 671.195 1.94512 -0.526053 0
M  V30 7130 O 670.251 2.525 0.00472502 0
M  V30 7131 C 671.564 0.984824 -2.84116 0
M  V30 7132 C 673.112 1.08698 -2.93519 0
M  V30 7133 C 673.587 1.36515 -4.37181 0
M  V30 7134 N 675.078 1.43361 -4.40457 0
M  V30 7135 C 675.813 1.66528 -5.48686 0
M  V30 7136 N 675.309 1.87239 -6.67018 0
M  V30 7137 N 677.102 1.68617 -5.36213 0
M  V30 7138 H 669.253 -0.393484 -2.08723 0
M  V30 7139 H 671.516 -0.1138 -0.941145 0
M  V30 7140 H 671.222 0.171096 -3.51284 0
M  V30 7141 H 671.096 1.90253 -3.25705 0
M  V30 7142 H 673.483 1.89129 -2.26526 0
M  V30 7143 H 673.564 0.147432 -2.55375 0
M  V30 7144 H 673.208 0.565982 -5.04737 0
M  V30 7145 H 673.138 2.31737 -4.7287 0
M  V30 7146 H 675.629 1.29108 -3.55161 0
M  V30 7147 H 675.942 2.04392 -7.45281 0
M  V30 7148 H 674.287 1.84486 -6.70067 0
M  V30 7149 H 677.478 1.5198 -4.42741 0
M  V30 7150 H 677.651 1.86332 -6.20632 0
M  V30 7151 N 671.057 1.43213 0.657864 0
M  V30 7152 C 672.02 1.47687 1.75275 0
M  V30 7153 C 673.02 0.362179 1.56668 0
M  V30 7154 O 674.21 0.623734 1.62651 0
M  V30 7155 C 671.342 1.32497 3.14098 0
M  V30 7156 H 672.535 2.4519 1.7269 0
M  V30 7157 H 670.088 1.2991 0.869087 0
M  V30 7158 H 670.823 0.359831 3.22298 0
M  V30 7159 H 670.608 2.13299 3.29008 0
M  V30 7160 H 672.098 1.38549 3.93946 0
M  V30 7161 N 672.536 -0.895792 1.29666 0
M  V30 7162 C 673.484 -2.02173 1.15017 0
M  V30 7163 C 674.478 -1.69276 0.0647651 0
M  V30 7164 O 675.684 -1.7859 0.224846 0
M  V30 7165 H 672.059 -0.662719 0.355397 0
M  V30 7166 H 674.03 -2.11666 2.10334 0
M  V30 7167 C 672.779 -3.37212 0.847555 0
M  V30 7168 H 672.102 -3.6303 1.67479 0
M  V30 7169 H 673.542 -4.16668 0.785106 0
M  V30 7170 C 672.001 -3.33891 -0.44929 0
M  V30 7171 O 672.531 -3.73673 -1.47415 0
M  V30 7172 N 670.737 -2.86991 -0.456547 0
M  V30 7173 H 670.284 -2.54813 0.377925 0
M  V30 7174 H 670.242 -2.85152 -1.32423 0
M  V30 7175 N 674.014 -1.12206 -1.10668 0
M  V30 7176 C 675.239 -0.898938 -1.86906 0
M  V30 7177 C 675.664 0.546346 -1.79991 0
M  V30 7178 O 675.022 1.38655 -1.1681 0
M  V30 7179 C 675.07 -1.37529 -3.33344 0
M  V30 7180 O 674.174 -0.55218 -4.08687 0
M  V30 7181 H 673.515 -0.323163 -0.580053 0
M  V30 7182 H 676.045 -1.49355 -1.39837 0
M  V30 7183 H 676.055 -1.3733 -3.84193 0
M  V30 7184 H 674.73 -2.42767 -3.37693 0
M  V30 7185 H 673.307 -0.620947 -3.67694 0
M  V30 7186 N 675.492 1.28418 -0.913599 0
M  V30 7187 C 676.903 1.77024 -0.593237 0
M  V30 7188 C 677.254 1.74779 0.891441 0
M  V30 7189 O 676.379 1.34237 1.69733 0
M  V30 7190 C 676.974 3.21456 -1.07011 0
M  V30 7191 C 675.533 3.67786 -0.800664 0
M  V30 7192 C 674.68 2.48185 -1.23691 0
M  V30 7193 H 677.631 1.14883 -1.09487 0
M  V30 7194 H 677.652 3.78269 -0.411481 0
M  V30 7195 H 677.164 3.23058 -2.1507 0
M  V30 7196 H 675.265 3.71644 0.266725 0
M  V30 7197 H 675.378 4.57934 -1.4083 0
M  V30 7198 H 673.742 2.46116 -0.655655 0
M  V30 7199 H 674.525 2.52506 -2.32585 0
M  V30 7200 N 676.97 0.677563 1.42291 0
M  V30 7201 C 678.198 0.209459 2.05837 0
M  V30 7202 C 678.613 -1.13444 1.50917 0
M  V30 7203 O 677.97 -1.70529 0.65008 0
M  V30 7204 C 678.021 0.138819 3.61233 0
M  V30 7205 O 677.742 1.42962 4.14118 0
M  V30 7206 C 679.243 -0.352449 4.41897 0
M  V30 7207 H 676.463 0.101209 0.663323 0
M  V30 7208 H 679.007 0.925077 1.8238 0
M  V30 7209 H 677.162 -0.527505 3.83792 0
M  V30 7210 H 677.576 1.3048 5.08011 0
M  V30 7211 H 679.05 -0.350778 5.50884 0
M  V30 7212 H 679.527 -1.3882 4.16684 0
M  V30 7213 H 680.133 0.282236 4.24362 0
M  V30 7214 N 678.448 -1.51871 0.421078 0
M  V30 7215 C 679.697 -2.01125 -0.152206 0
M  V30 7216 C 680.01 -1.3106 -1.45199 0
M  V30 7217 O 681.216 -1.71195 -2.10724 0
M  V30 7218 C 679.672 -3.58458 -0.3218 0
M  V30 7219 C 679.28 -4.37448 0.96659 0
M  V30 7220 C 681.024 -4.15908 -0.84973 0
M  V30 7221 C 678.931 -5.86451 0.763529 0
M  V30 7222 H 677.861 -0.751556 -0.0606565 0
M  V30 7223 H 680.512 -1.75115 0.548354 0
M  V30 7224 H 678.894 -3.80847 -1.08498 0
M  V30 7225 H 680.068 -4.26814 1.73684 0
M  V30 7226 H 678.383 -3.91373 1.42183 0
M  V30 7227 H 680.98 -5.24922 -1.01788 0
M  V30 7228 H 681.323 -3.74031 -1.82774 0
M  V30 7229 H 681.856 -3.97535 -0.145297 0
M  V30 7230 H 678.595 -6.3271 1.71344 0
M  V30 7231 H 678.115 -5.99791 0.0327889 0
M  V30 7232 H 679.794 -6.45697 0.410354 0
M  V30 7233 N 679.926 -0.151884 -1.56866 0
M  V30 7234 C 681.151 0.508044 -2.01081 0
M  V30 7235 C 681.576 1.57306 -1.03134 0
M  V30 7236 O 680.934 1.81298 -0.0078309 0
M  V30 7237 C 680.982 1.08106 -3.44014 0
M  V30 7238 O 680.086 2.19577 -3.49084 0
M  V30 7239 H 679.427 0.123757 -0.652365 0
M  V30 7240 H 681.957 -0.250055 -2.03066 0
M  V30 7241 H 681.967 1.40851 -3.82916 0
M  V30 7242 H 680.642 0.301168 -4.14808 0
M  V30 7243 H 679.219 1.88023 -3.22027 0
M  V30 7244 N 681.404 1.57128 0.121893 0
M  V30 7245 C 682.629 1.89254 0.848385 0
M  V30 7246 C 683.054 0.743527 1.72781 0
M  V30 7247 O 682.412 -0.306056 1.78698 0
M  V30 7248 C 682.46 3.20113 1.66012 0
M  V30 7249 O 681.564 3.05815 2.76679 0
M  V30 7250 H 680.905 0.621103 0.234793 0
M  V30 7251 H 683.435 2.0433 0.10516 0
M  V30 7252 H 683.445 3.52761 2.04996 0
M  V30 7253 H 682.12 4.03336 1.01452 0
M  V30 7254 H 680.697 2.84627 2.40918 0
M  V30 7255 N 682.882 -0.391992 1.52647 0
M  V30 7256 C 683.792 -1.503 1.80131 0
M  V30 7257 C 684.808 -1.59825 0.687882 0
M  V30 7258 O 685.984 -1.76218 0.975149 0
M  V30 7259 C 683.049 -2.85863 1.96171 0
M  V30 7260 C 682.11 -2.86084 3.20085 0
M  V30 7261 C 681.343 -4.15181 3.35351 0
M  V30 7262 O 681.566 -5.09981 2.55491 0
M  V30 7263 O 680.5 -4.22603 4.28591 0
M  V30 7264 H 684.326 -1.30007 2.74466 0
M  V30 7265 H 681.911 -0.579539 1.37701 0
M  V30 7266 H 683.793 -3.66236 2.08445 0
M  V30 7267 H 682.468 -3.06189 1.05025 0
M  V30 7268 H 681.375 -2.04504 3.13256 0
M  V30 7269 H 682.708 -2.7071 4.11068 0
M  V30 7270 N 684.36 -1.4356 -0.65026 0
M  V30 7271 C 685.292 -1.44918 -1.77571 0
M  V30 7272 C 686.305 -0.344925 -1.59104 0
M  V30 7273 O 687.494 -0.609537 -1.6777 0
M  V30 7274 C 684.594 -1.24914 -3.15039 0
M  V30 7275 C 683.767 -2.48232 -3.60138 0
M  V30 7276 C 682.826 -2.23409 -4.76419 0
M  V30 7277 O 681.852 -2.9678 -4.85706 0
M  V30 7278 N 683.054 -1.25259 -5.66825 0
M  V30 7279 H 685.819 -2.41935 -1.76883 0
M  V30 7280 H 683.38 -1.38754 -0.834202 0
M  V30 7281 H 685.372 -1.06185 -3.90521 0
M  V30 7282 H 683.942 -0.363319 -3.10481 0
M  V30 7283 H 683.162 -2.82366 -2.75069 0
M  V30 7284 H 684.45 -3.30296 -3.87017 0
M  V30 7285 H 683.848 -0.646246 -5.61997 0
M  V30 7286 H 682.405 -1.12513 -6.42016 0
M  V30 7287 N 685.838 0.888903 -1.30139 0
M  V30 7288 C 687.066 1.67358 -1.21651 0
M  V30 7289 C 687.481 1.87499 0.221246 0
M  V30 7290 O 686.838 1.41969 1.14677 0
M  V30 7291 C 686.889 3.05213 -1.93719 0
M  V30 7292 O 686.61 2.85984 -3.31881 0
M  V30 7293 C 688.111 3.9964 -1.9184 0
M  V30 7294 H 685.331 0.522365 -0.42116 0
M  V30 7295 H 687.875 1.11086 -1.71698 0
M  V30 7296 H 686.03 3.5823 -1.4748 0
M  V30 7297 H 686.444 3.73411 -3.68327 0
M  V30 7298 H 687.918 4.93749 -2.46811 0
M  V30 7299 H 688.395 4.29955 -0.896409 0
M  V30 7300 H 689.001 3.52558 -2.37872 0
M  V30 7301 N 687.317 1.12792 1.10072 0
M  V30 7302 C 688.733 0.864745 1.34143 0
M  V30 7303 C 688.933 -0.503201 1.95116 0
M  V30 7304 O 687.989 -1.25111 2.19325 0
M  V30 7305 C 689.302 1.98413 2.25949 0
M  V30 7306 C 690.85 2.01545 2.39476 0
M  V30 7307 C 691.325 3.12727 3.34613 0
M  V30 7308 N 692.816 3.12194 3.42183 0
M  V30 7309 C 693.551 3.94862 4.15779 0
M  V30 7310 N 693.047 4.87528 4.92228 0
M  V30 7311 N 694.84 3.82985 4.11435 0
M  V30 7312 H 686.991 2.00926 0.68866 0
M  V30 7313 H 689.254 0.874564 0.365844 0
M  V30 7314 H 688.96 2.97005 1.88364 0
M  V30 7315 H 688.834 1.89254 3.26287 0
M  V30 7316 H 691.221 1.0357 2.76328 0
M  V30 7317 H 691.302 2.14777 1.3894 0
M  V30 7318 H 690.946 4.10936 2.98486 0
M  V30 7319 H 690.876 2.96732 4.35037 0
M  V30 7320 H 693.367 2.45065 2.87666 0
M  V30 7321 H 693.68 5.47109 5.45794 0
M  V30 7322 H 692.025 4.91539 4.9134 0
M  V30 7323 H 695.216 3.09923 3.50807 0
M  V30 7324 H 695.389 4.47641 4.68531 0
M  V30 7325 N 688.795 -1.27931 0.920396 0
M  V30 7326 C 689.758 -2.25345 0.41858 0
M  V30 7327 C 690.758 -1.54116 -0.458798 0
M  V30 7328 O 691.948 -1.72235 -0.260912 0
M  V30 7329 C 689.08 -3.38556 -0.399104 0
M  V30 7330 H 690.273 -2.71251 1.27918 0
M  V30 7331 H 687.826 -1.39728 0.700406 0
M  V30 7332 H 688.561 -2.98021 -1.27882 0
M  V30 7333 H 688.346 -3.91426 0.229863 0
M  V30 7334 H 689.836 -4.10976 -0.740817 0
M  V30 7335 N 690.273 -0.685099 -1.4193 0
M  V30 7336 C 691.221 -0.00165985 -2.326 0
M  V30 7337 C 692.215 0.779678 -1.50391 0
M  V30 7338 O 693.421 0.68648 -1.66395 0
M  V30 7339 H 689.796 0.0182616 -0.751778 0
M  V30 7340 H 691.767 -0.783592 -2.87928 0
M  V30 7341 C 690.516 0.928385 -3.35077 0
M  V30 7342 H 689.839 0.336578 -3.98381 0
M  V30 7343 H 691.279 1.37509 -4.01083 0
M  V30 7344 C 689.738 2.03964 -2.68142 0
M  V30 7345 O 690.268 3.12727 -2.5212 0
M  V30 7346 N 688.474 1.81433 -2.27003 0
M  V30 7347 H 688.021 0.929807 -2.40234 0
M  V30 7348 H 687.979 2.55973 -1.82552 0
M  V30 7349 N 691.751 1.51645 -0.429126 0
M  V30 7350 C 692.976 2.06917 0.141399 0
M  V30 7351 C 693.401 1.29527 1.36398 0
M  V30 7352 O 692.759 0.33094 1.78254 0
M  V30 7353 C 692.807 3.57776 0.4504 0
M  V30 7354 O 691.911 3.82639 1.53821 0
M  V30 7355 H 691.252 0.663978 0.0054647 0
M  V30 7356 H 693.782 1.95355 -0.608093 0
M  V30 7357 H 693.792 4.01894 0.703249 0
M  V30 7358 H 692.467 4.13532 -0.443213 0
M  V30 7359 H 691.044 3.5039 1.27597 0
M  V30 7360 N 693.229 0.160201 1.56784 0
M  V30 7361 C 694.64 -0.358417 1.83227 0
M  V30 7362 C 694.991 -1.63831 1.07952 0
M  V30 7363 O 694.116 -2.13885 0.328995 0
M  V30 7364 C 694.711 -0.657058 3.32368 0
M  V30 7365 C 693.27 -1.12015 3.59346 0
M  V30 7366 C 692.417 -0.15015 2.76893 0
M  V30 7367 H 695.368 0.384669 1.53967 0
M  V30 7368 H 695.389 -1.51033 3.49241 0
M  V30 7369 H 694.901 0.274647 3.87127 0
M  V30 7370 H 693.002 -2.06734 3.09987 0
M  V30 7371 H 693.115 -1.037 4.67743 0
M  V30 7372 H 691.479 -0.645361 2.46388 0
M  V30 7373 H 692.262 0.775379 3.34429 0
M  V30 7374 N 694.707 -1.5719 -0.113559 0
M  V30 7375 C 695.935 -1.89328 -0.834422 0
M  V30 7376 C 696.35 -0.752018 -1.73177 0
M  V30 7377 O 695.707 0.276912 -1.80387 0
M  V30 7378 C 695.758 -3.20962 -1.66329 0
M  V30 7379 O 695.479 -4.30695 -0.802069 0
M  V30 7380 C 696.98 -3.6684 -2.48884 0
M  V30 7381 H 694.2 -0.626769 -0.239587 0
M  V30 7382 H 696.744 -2.04273 -0.0963195 0
M  V30 7383 H 694.899 -3.0767 -2.35409 0
M  V30 7384 H 695.313 -5.06175 -1.37431 0
M  V30 7385 H 696.787 -4.61692 -3.02563 0
M  V30 7386 H 697.264 -2.93765 -3.26495 0
M  V30 7387 H 697.87 -3.82938 -1.85036 0
M  V30 7388 N 696.185 0.383891 -1.52853 0
M  V30 7389 C 697.601 0.724316 -1.42218 0
M  V30 7390 C 697.801 1.93943 -0.546654 0
M  V30 7391 O 696.857 2.5249 -0.0220562 0
M  V30 7392 C 698.17 0.954635 -2.85144 0
M  V30 7393 C 699.718 1.05579 -2.94656 0
M  V30 7394 C 700.193 1.3187 -4.38605 0
M  V30 7395 N 701.684 1.38681 -4.41952 0
M  V30 7396 C 702.419 1.60699 -5.50421 0
M  V30 7397 N 701.915 1.80154 -6.68967 0
M  V30 7398 N 703.708 1.6292 -5.37972 0
M  V30 7399 H 695.859 -0.4156 -2.08294 0
M  V30 7400 H 698.122 -0.123776 -0.939885 0
M  V30 7401 H 697.828 0.133829 -3.51445 0
M  V30 7402 H 697.702 1.86788 -3.27704 0
M  V30 7403 H 700.089 1.86716 -2.2852 0
M  V30 7404 H 700.17 0.120338 -2.55517 0
M  V30 7405 H 699.814 0.512416 -5.05309 0
M  V30 7406 H 699.744 2.26708 -4.75301 0
M  V30 7407 H 702.235 1.25334 -3.56511 0
M  V30 7408 H 702.548 1.96476 -7.47407 0
M  V30 7409 H 700.893 1.77368 -6.71986 0
M  V30 7410 H 704.084 1.47276 -4.44328 0
M  V30 7411 H 704.257 1.79739 -6.22574 0
M  V30 7412 N 697.663 1.43903 0.642637 0
M  V30 7413 C 699.079 1.27536 0.959519 0
M  V30 7414 C 699.279 0.202751 2.00477 0
M  V30 7415 O 698.335 -0.415256 2.49062 0
M  V30 7416 C 699.648 2.6432 1.43372 0
M  V30 7417 C 701.196 2.71937 1.54981 0
M  V30 7418 C 701.671 4.09164 2.05789 0
M  V30 7419 N 703.162 4.11282 2.13076 0
M  V30 7420 C 703.897 5.14303 2.53534 0
M  V30 7421 N 703.393 6.27693 2.93212 0
M  V30 7422 N 705.186 5.01657 2.53567 0
M  V30 7423 H 697.337 2.12344 -0.0488376 0
M  V30 7424 H 699.6 0.947124 0.0407559 0
M  V30 7425 H 699.306 3.43826 0.740048 0
M  V30 7426 H 699.18 2.90432 2.40685 0
M  V30 7427 H 701.567 1.92757 2.23448 0
M  V30 7428 H 701.648 2.49578 0.560739 0
M  V30 7429 H 701.292 4.88815 1.37921 0
M  V30 7430 H 701.222 4.28893 3.05546 0
M  V30 7431 H 703.713 3.2944 1.85143 0
M  V30 7432 H 704.026 7.02125 3.22863 0
M  V30 7433 H 702.371 6.31149 2.90991 0
M  V30 7434 H 705.562 4.12134 2.21952 0
M  V30 7435 H 705.735 5.82072 2.84774 0
M  V30 7436 N 699.141 -0.881989 1.30609 0
M  V30 7437 C 700.051 -2.02076 1.19174 0
M  V30 7438 C 701.067 -1.73645 0.11102 0
M  V30 7439 O 702.243 -1.98735 0.326528 0
M  V30 7440 C 699.308 -3.3515 0.887438 0
M  V30 7441 C 698.369 -3.76983 2.05383 0
M  V30 7442 C 697.602 -5.03707 1.76395 0
M  V30 7443 O 697.825 -5.66171 0.693302 0
M  V30 7444 O 696.759 -5.42019 2.61723 0
M  V30 7445 H 700.585 -2.14652 2.14845 0
M  V30 7446 H 698.17 -1.00843 1.10232 0
M  V30 7447 H 700.052 -4.14975 0.73306 0
M  V30 7448 H 698.727 -3.23676 -0.0393354 0
M  V30 7449 H 697.634 -2.97849 2.26355 0
M  V30 7450 H 698.967 -3.93066 2.96243 0
M  V30 7451 N 700.619 -1.13374 -1.09472 0
M  V30 7452 C 701.549 -0.833268 -2.18126 0
M  V30 7453 C 702.53 0.207169 -1.68834 0
M  V30 7454 O 703.715 0.0662012 -1.94087 0
M  V30 7455 C 700.845 -0.297979 -3.46019 0
M  V30 7456 C 699.799 -1.27261 -4.08642 0
M  V30 7457 C 699.125 -0.597104 -5.31356 0
M  V30 7458 C 700.425 -2.63095 -4.51197 0
M  V30 7459 H 702.119 -1.74182 -2.43518 0
M  V30 7460 H 699.665 -0.838921 -1.17039 0
M  V30 7461 H 701.618 -0.0754444 -4.21332 0
M  V30 7462 H 700.342 0.645959 -3.20148 0
M  V30 7463 H 699.001 -1.48113 -3.35348 0
M  V30 7464 H 698.649 0.352293 -5.01765 0
M  V30 7465 H 698.349 -1.24734 -5.74208 0
M  V30 7466 H 699.873 -0.38384 -6.09392 0
M  V30 7467 H 701.287 -2.46214 -5.17737 0
M  V30 7468 H 699.684 -3.2429 -5.04932 0
M  V30 7469 H 700.754 -3.20793 -3.6362 0
M  V30 7470 N 702.098 1.27442 -0.927168 0
M  V30 7471 C 703.03 2.25975 -0.383158 0
M  V30 7472 C 704.043 1.55382 0.485832 0
M  V30 7473 O 705.232 1.75986 0.298541 0
M  V30 7474 C 702.332 3.35629 0.469688 0
M  V30 7475 C 701.505 4.35747 -0.379886 0
M  V30 7476 C 700.564 5.24598 0.410227 0
M  V30 7477 O 699.59 5.68909 -0.181888 0
M  V30 7478 N 700.792 5.54737 1.71017 0
M  V30 7479 H 703.557 2.7329 -1.23015 0
M  V30 7480 H 701.118 1.41063 -0.794539 0
M  V30 7481 H 703.11 3.92015 1.00532 0
M  V30 7482 H 701.68 2.87919 1.21744 0
M  V30 7483 H 700.9 3.78634 -1.09682 0
M  V30 7484 H 702.188 4.99648 -0.960717 0
M  V30 7485 H 701.586 5.20594 2.21356 0
M  V30 7486 H 700.143 6.13824 2.19234 0
M  V30 7487 N 703.576 0.692616 1.41565 0
M  V30 7488 C 704.822 0.222664 2.01574 0
M  V30 7489 C 705.155 -1.1737 1.54719 0
M  V30 7490 O 704.43 -1.79161 0.757084 0
M  V30 7491 C 704.713 0.277064 3.59033 0
M  V30 7492 C 704.566 1.71016 4.16021 0
M  V30 7493 C 705.885 -0.36479 4.38586 0
M  V30 7494 H 703.004 0.0823839 0.732381 0
M  V30 7495 H 705.646 0.880778 1.68352 0
M  V30 7496 H 703.796 -0.283288 3.87466 0
M  V30 7497 H 705.468 2.32413 3.98475 0
M  V30 7498 H 703.711 2.24525 3.71175 0
M  V30 7499 H 704.382 1.69978 5.25178 0
M  V30 7500 H 706.858 0.112404 4.15948 0
M  V30 7501 H 705.734 -0.296169 5.481 0
M  V30 7502 H 705.995 -1.44506 4.17816 0
M  V30 7503 N 705.054 -1.51416 0.437162 0
M  V30 7504 C 706.3 -2.03035 -0.121818 0
M  V30 7505 C 706.655 -1.31551 -1.404 0
M  V30 7506 O 705.948 -0.421623 -1.86903 0
M  V30 7507 C 706.142 -3.55203 -0.39564 0
M  V30 7508 C 705.971 -4.4143 0.858452 0
M  V30 7509 C 704.741 -4.85751 1.39192 0
M  V30 7510 C 706.939 -4.83808 1.74454 0
M  V30 7511 N 704.921 -5.5619 2.59857 0
M  V30 7512 C 706.292 -5.53312 2.79724 0
M  V30 7513 C 708.347 -4.65795 1.75897 0
M  V30 7514 C 707.05 -6.06713 3.86383 0
M  V30 7515 C 709.076 -5.20112 2.81492 0
M  V30 7516 C 708.438 -5.89562 3.85482 0
M  V30 7517 H 704.537 -0.781981 -0.00541671 0
M  V30 7518 H 707.121 -1.85296 0.597792 0
M  V30 7519 H 705.292 -3.72958 -1.08429 0
M  V30 7520 H 707.024 -3.93489 -0.945963 0
M  V30 7521 H 703.779 -4.64058 0.945879 0
M  V30 7522 H 704.203 -5.96037 3.21044 0
M  V30 7523 H 708.845 -4.11562 0.968306 0
M  V30 7524 H 706.563 -6.6 4.66288 0
M  V30 7525 H 710.149 -5.08026 2.83551 0
M  V30 7526 H 709.029 -6.30838 4.65847 0
M  V30 7527 N 706.532 -0.168513 -1.56696 0
M  V30 7528 C 707.78 0.476216 -1.96409 0
M  V30 7529 C 708.101 1.63968 -1.05544 0
M  V30 7530 O 707.371 1.95525 -0.121235 0
M  V30 7531 H 705.951 0.178921 -0.725256 0
M  V30 7532 H 708.613 -0.249042 -1.93302 0
M  V30 7533 H 707.709 0.838094 -3.00637 0
M  V30 7534 N 708.01 1.57248 0.105221 0
M  V30 7535 C 709.426 1.52853 0.459153 0
M  V30 7536 C 709.626 0.883674 1.8109 0
M  V30 7537 O 708.682 0.471864 2.48052 0
M  V30 7538 C 709.995 2.97596 0.43096 0
M  V30 7539 C 711.543 3.08758 0.513536 0
M  V30 7540 C 712.018 4.55089 0.515593 0
M  V30 7541 N 713.509 4.59597 0.576639 0
M  V30 7542 C 714.244 5.70253 0.599904 0
M  V30 7543 N 713.74 6.90368 0.579985 0
M  V30 7544 N 715.533 5.58399 0.643953 0
M  V30 7545 H 707.684 1.97547 -0.780306 0
M  V30 7546 H 709.947 0.902758 -0.289363 0
M  V30 7547 H 709.653 3.48201 -0.494903 0
M  V30 7548 H 709.527 3.55756 1.2537 0
M  V30 7549 H 711.914 2.58148 1.42982 0
M  V30 7550 H 711.995 2.53568 -0.337148 0
M  V30 7551 H 711.639 5.06348 -0.396701 0
M  V30 7552 H 711.569 5.08105 1.38335 0
M  V30 7553 H 714.06 3.73144 0.597639 0
M  V30 7554 H 714.373 7.70462 0.600741 0
M  V30 7555 H 712.718 6.92843 0.547191 0
M  V30 7556 H 715.909 4.63467 0.656975 0
M  V30 7557 H 716.082 6.44644 0.658616 0
M  V30 7558 N 709.488 -0.375779 1.53054 0
M  V30 7559 C 710.765 -1.13453 1.59336 0
M  V30 7560 C 711.145 -2.07379 0.394614 0
M  V30 7561 O 710.493 -2.2004 -0.616 0
M  V30 7562 C 710.703 -1.8826 2.93869 0
M  V30 7563 C 712.051 -2.43155 3.48081 0
M  V30 7564 O 713.075 -1.984 2.95831 0
M  V30 7565 O 711.934 -3.24944 4.39401 0
M  V30 7566 H 709.028 -0.519856 0.643179 0
M  V30 7567 H 711.574 -0.379865 1.65394 0
M  V30 7568 H 710.346 -1.19652 3.72558 0
M  V30 7569 H 709.969 -2.70658 2.91256 0
M  V30 7570 N 710.966 -1.44241 -0.634997 0
M  V30 7571 C 711.914 -1.51103 -1.76835 0
M  V30 7572 C 712.908 -0.383051 -1.65012 0
M  V30 7573 O 714.114 -0.557832 -1.71138 0
M  V30 7574 H 710.489 -0.474076 -0.583743 0
M  V30 7575 H 712.46 -2.46499 -1.68169 0
M  V30 7576 C 711.209 -1.4687 -3.15158 0
M  V30 7577 H 710.532 -2.32979 -3.24901 0
M  V30 7578 H 711.972 -1.55731 -3.94365 0
M  V30 7579 C 710.431 -0.188884 -3.3637 0
M  V30 7580 O 710.961 0.742487 -3.94778 0
M  V30 7581 N 709.167 -0.0932516 -2.9045 0
M  V30 7582 H 708.714 -0.852004 -2.43102 0
M  V30 7583 H 708.672 0.762308 -3.05018 0
M  V30 7584 N 712.444 0.87505 -1.31075 0
M  V30 7585 C 713.392 2.00317 -1.18219 0
M  V30 7586 C 714.386 1.69152 -0.0916872 0
M  V30 7587 O 715.592 1.7821 -0.253229 0
M  V30 7588 H 711.967 0.656981 -0.365895 0
M  V30 7589 H 713.938 2.08293 -2.13674 0
M  V30 7590 C 712.687 3.35821 -0.901095 0
M  V30 7591 H 712.01 3.6032 -1.73233 0
M  V30 7592 H 713.45 4.15366 -0.851295 0
M  V30 7593 C 711.909 3.34563 0.396114 0
M  V30 7594 O 712.439 3.75971 1.41452 0
M  V30 7595 N 710.645 2.87681 0.410832 0
M  V30 7596 H 710.192 2.54179 -0.418415 0
M  V30 7597 H 710.15 2.87223 1.27869 0
M  V30 7598 N 713.922 1.13953 1.08869 0
M  V30 7599 C 715.147 0.928559 1.85452 0
M  V30 7600 C 715.572 -0.517642 1.80837 0
M  V30 7601 O 714.93 -1.36779 1.19001 0
M  V30 7602 C 714.978 1.42814 3.31114 0
M  V30 7603 O 714.082 0.617129 4.07756 0
M  V30 7604 H 713.423 0.33235 0.574839 0
M  V30 7605 H 715.953 1.5156 1.37443 0
M  V30 7606 H 715.963 1.43425 3.8196 0
M  V30 7607 H 714.638 2.48109 3.33788 0
M  V30 7608 H 713.215 0.679365 3.66659 0
M  V30 7609 N 715.4 -1.26948 0.933913 0
M  V30 7610 C 716.811 -1.76058 0.621324 0
M  V30 7611 C 717.162 -1.76175 -0.863522 0
M  V30 7612 O 716.287 -1.36921 -1.67576 0
M  V30 7613 C 716.882 -3.19713 1.12111 0
M  V30 7614 C 715.441 -3.66465 0.859074 0
M  V30 7615 C 714.588 -2.46186 1.27624 0
M  V30 7616 H 717.539 -1.13127 1.11301 0
M  V30 7617 H 717.56 -3.77566 0.471608 0
M  V30 7618 H 717.072 -3.19596 2.20182 0
M  V30 7619 H 715.173 -3.72021 -0.207566 0
M  V30 7620 H 715.286 -4.55636 1.48098 0
M  V30 7621 H 713.65 -2.45042 0.694727 0
M  V30 7622 H 714.433 -2.48774 2.36572 0
M  V30 7623 N 716.879 -0.700114 -1.41195 0
M  V30 7624 C 718.104 -0.240704 -2.05998 0
M  V30 7625 C 718.529 1.10313 -1.52357 0
M  V30 7626 O 717.887 1.69154 -0.652424 0
M  V30 7627 C 717.935 -0.213783 -3.59966 0
M  V30 7628 O 717.039 0.809933 -4.04368 0
M  V30 7629 H 716.38 -0.116471 -0.653705 0
M  V30 7630 H 718.91 -0.956251 -1.80878 0
M  V30 7631 H 718.92 -0.0461852 -4.07974 0
M  V30 7632 H 717.595 -1.19454 -3.98376 0
M  V30 7633 H 716.172 0.611319 -3.67855 0
M  V30 7634 N 718.357 1.51182 -0.445186 0
M  V30 7635 C 719.267 2.31692 0.368255 0
M  V30 7636 C 720.283 1.40942 1.02036 0
M  V30 7637 O 721.459 1.74011 1.01401 0
M  V30 7638 C 718.524 3.14903 1.45041 0
M  V30 7639 C 717.585 4.21442 0.817615 0
M  V30 7640 C 716.818 5.00677 1.8482 0
M  V30 7641 O 717.041 4.80644 3.07145 0
M  V30 7642 O 715.975 5.84559 1.43438 0
M  V30 7643 H 719.801 3.0232 -0.289219 0
M  V30 7644 H 717.386 1.47951 -0.207555 0
M  V30 7645 H 719.268 3.66612 2.07783 0
M  V30 7646 H 717.943 2.47031 2.09182 0
M  V30 7647 H 716.85 3.73791 0.151931 0
M  V30 7648 H 718.183 4.9171 0.219564 0
M  V30 7649 N 719.835 0.176821 1.56605 0
M  V30 7650 C 720.798 -0.737429 2.17013 0
M  V30 7651 C 721.798 -1.15414 1.11965 0
M  V30 7652 O 722.988 -1.0702 1.37449 0
M  V30 7653 C 720.12 -2.00445 2.75744 0
M  V30 7654 H 721.313 -0.211455 2.99154 0
M  V30 7655 H 718.866 -0.0727582 1.56131 0
M  V30 7656 H 719.601 -2.57338 1.97352 0
M  V30 7657 H 719.386 -1.71456 3.52626 0
M  V30 7658 H 720.876 -2.65679 3.22187 0
M  V30 7659 N 721.313 -1.57302 -0.09688 0
M  V30 7660 C 722.561 -1.8563 -0.799117 0
M  V30 7661 C 722.882 -0.765263 -1.79356 0
M  V30 7662 O 722.152 0.208657 -1.94786 0
M  V30 7663 H 720.732 -0.684937 -0.298111 0
M  V30 7664 H 723.394 -1.9474 -0.0789341 0
M  V30 7665 H 722.49 -2.82305 -1.3308 0
M  V30 7666 N 722.791 0.367657 -1.53252 0
M  V30 7667 C 723.754 1.43308 -1.78873 0
M  V30 7668 C 724.754 1.46671 -0.659115 0
M  V30 7669 O 725.944 1.47468 -0.927306 0
M  V30 7670 C 723.076 2.82442 -1.90892 0
M  V30 7671 H 724.269 1.21864 -2.74024 0
M  V30 7672 H 721.822 0.600668 -1.44297 0
M  V30 7673 H 722.557 3.09202 -0.978 0
M  V30 7674 H 722.342 2.81399 -2.73051 0
M  V30 7675 H 723.832 3.59601 -2.12314 0
M  V30 7676 N 724.269 1.44576 0.627338 0
M  V30 7677 C 725.546 1.38033 1.38586 0
M  V30 7678 C 725.926 0.0409468 2.1106 0
M  V30 7679 O 725.274 -0.976582 2.0658 0
M  V30 7680 C 725.484 2.58102 2.34913 0
M  V30 7681 C 726.832 3.02332 2.98129 0
M  V30 7682 O 727.856 2.58334 2.45238 0
M  V30 7683 O 726.715 3.78628 3.94085 0
M  V30 7684 H 723.809 0.546801 0.620434 0
M  V30 7685 H 726.355 1.56672 0.652077 0
M  V30 7686 H 725.127 3.4719 1.80485 0
M  V30 7687 H 724.75 2.41696 3.15703 0
M  V30 7688 N 725.747 -0.868086 1.31537 0
M  V30 7689 C 727.163 -1.15414 1.10235 0
M  V30 7690 C 727.363 -2.01106 -0.125947 0
M  V30 7691 O 726.419 -2.38994 -0.814734 0
M  V30 7692 C 727.732 -1.84445 2.37488 0
M  V30 7693 C 729.28 -1.97139 2.43116 0
M  V30 7694 C 729.755 -2.69585 3.70254 0
M  V30 7695 N 731.246 -2.77119 3.71159 0
M  V30 7696 C 731.981 -3.33791 4.6623 0
M  V30 7697 N 731.477 -3.9138 5.71659 0
M  V30 7698 N 733.27 -3.31767 4.53747 0
M  V30 7699 H 725.421 -0.297109 2.10312 0
M  V30 7700 H 727.684 -0.194227 0.92789 0
M  V30 7701 H 727.39 -1.2893 3.27215 0
M  V30 7702 H 727.264 -2.84709 2.47428 0
M  V30 7703 H 729.651 -2.51818 1.53856 0
M  V30 7704 H 729.732 -0.95912 2.37138 0
M  V30 7705 H 729.376 -2.15572 4.59881 0
M  V30 7706 H 729.306 -3.71223 3.73499 0
M  V30 7707 H 731.797 -2.3625 2.94948 0
M  V30 7708 H 732.11 -4.3274 6.40278 0
M  V30 7709 H 730.455 -3.8975 5.7543 0
M  V30 7710 H 733.646 -2.86016 3.70557 0
M  V30 7711 H 733.819 -3.75636 5.28017 0
M  V30 7712 N 727.225 -1.14528 -1.08264 0
M  V30 7713 C 728.157 -0.791325 -2.15106 0
M  V30 7714 C 729.17 0.192449 -1.61659 0
M  V30 7715 O 730.359 -0.0294704 -1.78476 0
M  V30 7716 C 727.459 -0.154183 -3.38549 0
M  V30 7717 C 726.632 -1.17305 -4.21377 0
M  V30 7718 C 725.691 -0.559401 -5.23218 0
M  V30 7719 O 724.717 -1.22277 -5.55911 0
M  V30 7720 N 725.919 0.663159 -5.767 0
M  V30 7721 H 728.684 -1.71076 -2.46075 0
M  V30 7722 H 726.245 -1.0399 -1.24087 0
M  V30 7723 H 728.237 0.268884 -4.03806 0
M  V30 7724 H 726.807 0.668418 -3.0537 0
M  V30 7725 H 726.027 -1.773 -3.52077 0
M  V30 7726 H 727.315 -1.86128 -4.73533 0
M  V30 7727 H 726.713 1.22066 -5.52373 0
M  V30 7728 H 725.27 1.02871 -6.43631 0
M  V30 7729 N 728.703 1.26451 -0.940633 0
M  V30 7730 C 729.951 1.93395 -0.586748 0
M  V30 7731 C 730.272 1.7417 0.876921 0
M  V30 7732 O 729.542 1.097 1.62304 0
M  V30 7733 H 728.122 0.715687 -0.214012 0
M  V30 7734 H 730.784 1.53902 -1.19584 0
M  V30 7735 H 729.88 3.01565 -0.804059 0
M  V30 7736 N 730.181 0.707592 1.40822 0
M  V30 7737 C 731.409 0.253073 2.05346 0
M  V30 7738 C 731.824 -1.10218 1.53289 0
M  V30 7739 O 731.181 -1.69112 0.686105 0
M  V30 7740 C 731.232 0.215411 3.60858 0
M  V30 7741 O 730.953 1.51714 4.10992 0
M  V30 7742 C 732.454 -0.258636 4.42545 0
M  V30 7743 H 729.674 0.115256 0.661027 0
M  V30 7744 H 732.218 0.963555 1.80377 0
M  V30 7745 H 730.373 -0.445978 3.84824 0
M  V30 7746 H 730.787 1.41226 5.05129 0
M  V30 7747 H 732.261 -0.233849 5.51504 0
M  V30 7748 H 732.738 -1.2995 4.19535 0
M  V30 7749 H 733.344 0.372186 4.23668 0
M  V30 7750 N 731.66 -1.50943 0.453197 0
M  V30 7751 C 732.906 -2.02512 -0.108082 0
M  V30 7752 C 733.239 -1.33574 -1.40967 0
M  V30 7753 O 732.514 -0.455671 -1.89087 0
M  V30 7754 C 732.797 -3.58759 -0.310453 0
M  V30 7755 C 732.65 -4.38293 1.0109 0
M  V30 7756 C 733.969 -4.26816 -1.07313 0
M  V30 7757 H 731.088 -0.73603 -0.0378064 0
M  V30 7758 H 733.73 -1.80433 0.595295 0
M  V30 7759 H 731.88 -3.77702 -0.909582 0
M  V30 7760 H 733.552 -4.30964 1.64523 0
M  V30 7761 H 731.795 -4.02745 1.61179 0
M  V30 7762 H 732.466 -5.45828 0.82315 0
M  V30 7763 H 734.942 -4.1224 -0.565473 0
M  V30 7764 H 733.818 -5.35989 -1.1835 0
M  V30 7765 H 734.079 -3.88757 -2.10525 0
M  V30 7766 N 733.138 -0.185124 -1.56509 0
M  V30 7767 C 734.363 0.465278 -2.02114 0
M  V30 7768 C 734.788 1.55083 -1.06447 0
M  V30 7769 O 734.146 1.81241 -0.0462852 0
M  V30 7770 C 734.194 1.00784 -3.46229 0
M  V30 7771 O 733.298 2.12123 -3.53663 0
M  V30 7772 H 732.639 0.109891 -0.654843 0
M  V30 7773 H 735.169 -0.293072 -2.0249 0
M  V30 7774 H 735.179 1.32697 -3.85818 0
M  V30 7775 H 733.854 0.213113 -4.15354 0
M  V30 7776 H 732.431 1.8115 -3.25943 0
M  V30 7777 N 734.616 1.57351 0.0885366 0
M  V30 7778 C 735.863 1.86419 0.790824 0
M  V30 7779 C 736.191 0.774561 1.78412 0
M  V30 7780 O 735.446 -0.23119 1.9433 0
M  V30 7781 C 735.745 3.22098 1.5488 0
M  V30 7782 C 735.411 4.4548 0.697025 0
M  V30 7783 C 734.073 4.78975 0.462237 0
M  V30 7784 C 736.425 5.21094 0.105315 0
M  V30 7785 C 733.753 5.85507 -0.374016 0
M  V30 7786 C 736.105 6.28509 -0.718298 0
M  V30 7787 C 734.769 6.60515 -0.963116 0
M  V30 7788 H 734.039 0.682157 0.289383 0
M  V30 7789 H 736.686 1.91429 0.0520961 0
M  V30 7790 H 734.991 3.12803 2.35927 0
M  V30 7791 H 736.688 3.41819 2.09669 0
M  V30 7792 H 733.278 4.19255 0.890137 0
M  V30 7793 H 737.462 4.95544 0.273856 0
M  V30 7794 H 732.718 6.08713 -0.572606 0
M  V30 7795 H 736.892 6.86268 -1.18362 0
M  V30 7796 H 734.519 7.42893 -1.6129 0
M  V30 7797 N 736.094 -0.359525 1.53444 0
M  V30 7798 C 737.042 -1.46104 1.80987 0
M  V30 7799 C 738.036 -1.55181 0.679351 0
M  V30 7800 O 739.242 -1.57995 0.862405 0
M  V30 7801 H 735.617 -0.486835 0.573145 0
M  V30 7802 H 737.588 -1.2008 2.73173 0
M  V30 7803 C 736.337 -2.82855 2.02208 0
M  V30 7804 H 735.66 -2.76631 2.88644 0
M  V30 7805 H 737.1 -3.59091 2.25455 0
M  V30 7806 C 735.559 -3.27192 0.802931 0
M  V30 7807 O 736.089 -4.017 -0.00544286 0
M  V30 7808 N 734.295 -2.83807 0.624657 0
M  V30 7809 H 733.842 -2.23339 1.28364 0
M  V30 7810 H 733.8 -3.13828 -0.189641 0
M  V30 7811 N 737.572 -1.44907 -0.619662 0
M  V30 7812 C 738.819 -1.48292 -1.37898 0
M  V30 7813 C 739.147 -0.119933 -1.9413 0
M  V30 7814 O 738.402 0.879834 -1.74807 0
M  V30 7815 C 738.701 -2.50002 -2.55409 0
M  V30 7816 C 738.367 -3.95031 -2.17397 0
M  V30 7817 C 737.029 -4.34524 -2.06743 0
M  V30 7818 C 739.381 -4.86287 -1.87548 0
M  V30 7819 C 736.709 -5.63183 -1.64445 0
M  V30 7820 C 739.061 -6.15346 -1.4674 0
M  V30 7821 C 737.725 -6.53781 -1.34636 0
M  V30 7822 H 736.995 -0.542638 -0.504603 0
M  V30 7823 H 739.642 -1.78186 -0.701581 0
M  V30 7824 H 737.947 -2.13634 -3.28433 0
M  V30 7825 H 739.644 -2.49864 -3.13639 0
M  V30 7826 H 736.234 -3.63793 -2.26611 0
M  V30 7827 H 740.418 -4.56522 -1.94682 0
M  V30 7828 H 735.674 -5.91769 -1.53687 0
M  V30 7829 H 739.848 -6.85508 -1.22685 0
M  V30 7830 H 737.475 -7.53375 -1.01634 0
M  V30 7831 N 739.05 0.861098 -1.31996 0
M  V30 7832 C 740.461 1.43065 -1.19955 0
M  V30 7833 C 740.812 1.95273 0.190489 0
M  V30 7834 O 739.937 1.87012 1.08882 0
M  V30 7835 C 740.532 2.60052 -2.1716 0
M  V30 7836 C 739.091 3.13026 -2.09026 0
M  V30 7837 C 738.238 1.85756 -2.05888 0
M  V30 7838 H 741.189 0.668834 -1.43918 0
M  V30 7839 H 741.21 3.37016 -1.76637 0
M  V30 7840 H 740.722 2.22024 -3.18319 0
M  V30 7841 H 738.823 3.55653 -1.11092 0
M  V30 7842 H 738.936 3.74707 -2.98549 0
M  V30 7843 H 737.3 2.05088 -1.51033 0
M  V30 7844 H 738.083 1.49954 -3.08818 0
M  V30 7845 N 740.528 1.15101 1.07655 0
M  V30 7846 C 741.46 0.802722 2.14684 0
M  V30 7847 C 742.473 -0.183874 1.61758 0
M  V30 7848 O 743.662 0.0389349 1.78458 0
M  V30 7849 C 740.762 0.172135 3.38463 0
M  V30 7850 C 739.935 1.19538 4.20749 0
M  V30 7851 C 738.994 0.58714 5.22914 0
M  V30 7852 O 738.02 1.25224 5.55255 0
M  V30 7853 N 739.222 -0.632566 5.77043 0
M  V30 7854 H 741.987 1.72379 2.45164 0
M  V30 7855 H 739.548 1.04647 1.23534 0
M  V30 7856 H 741.54 -0.247465 4.03943 0
M  V30 7857 H 740.11 -0.652214 3.0572 0
M  V30 7858 H 739.33 1.79165 3.51132 0
M  V30 7859 H 740.618 1.88636 4.7254 0
M  V30 7860 H 740.016 -1.19135 5.53013 0
M  V30 7861 H 738.573 -0.994566 6.44167 0
M  V30 7862 N 742.006 -1.2595 0.947325 0
M  V30 7863 C 743.255 -1.92759 0.593887 0
M  V30 7864 C 743.568 -1.75083 -0.872093 0
M  V30 7865 O 744.774 -2.36401 -1.33518 0
M  V30 7866 C 743.23 -3.45395 1.01144 0
M  V30 7867 C 742.838 -3.71795 2.49946 0
M  V30 7868 C 744.582 -4.18173 0.730185 0
M  V30 7869 C 742.489 -5.17901 2.85539 0
M  V30 7870 H 741.419 -0.721676 0.218403 0
M  V30 7871 H 744.07 -1.4293 1.15079 0
M  V30 7872 H 742.452 -3.94143 0.383007 0
M  V30 7873 H 743.626 -3.33728 3.17746 0
M  V30 7874 H 741.941 -3.12263 2.75465 0
M  V30 7875 H 744.538 -5.25784 0.972367 0
M  V30 7876 H 744.881 -4.14964 -0.333223 0
M  V30 7877 H 745.414 -3.75309 1.31862 0
M  V30 7878 H 742.153 -5.26216 3.90867 0
M  V30 7879 H 741.673 -5.57042 2.22406 0
M  V30 7880 H 743.352 -5.8596 2.74336 0
M  V30 7881 N 743.484 -0.715051 -1.40445 0
M  V30 7882 C 744.712 -0.263959 -2.05209 0
M  V30 7883 C 745.127 1.09403 -1.53871 0
M  V30 7884 O 744.484 1.68746 -0.695064 0
M  V30 7885 C 744.535 -0.234545 -3.60738 0
M  V30 7886 O 744.256 -1.53891 -4.10182 0
M  V30 7887 C 745.757 0.235164 -4.42676 0
M  V30 7888 H 742.977 -0.11876 -0.660407 0
M  V30 7889 H 745.521 -0.973107 -1.79864 0
M  V30 7890 H 743.676 0.425563 -3.85055 0
M  V30 7891 H 744.09 -1.43903 -5.04373 0
M  V30 7892 H 745.564 0.204598 -5.51621 0
M  V30 7893 H 746.041 1.27724 -4.20218 0
M  V30 7894 H 746.647 -0.394649 -4.23465 0
M  V30 7895 N 744.962 1.50701 -0.461195 0
M  V30 7896 C 745.892 2.31182 0.328184 0
M  V30 7897 C 746.873 1.37644 0.999408 0
M  V30 7898 O 748.058 1.66565 0.99848 0
M  V30 7899 C 745.188 3.17113 1.41621 0
M  V30 7900 C 744.142 4.19124 0.867148 0
M  V30 7901 C 743.468 4.93728 2.05272 0
M  V30 7902 C 744.768 5.22174 -0.114808 0
M  V30 7903 H 746.462 2.97423 -0.343501 0
M  V30 7904 H 744.008 1.43033 -0.166641 0
M  V30 7905 H 745.961 3.72208 1.97584 0
M  V30 7906 H 744.685 2.48739 2.11652 0
M  V30 7907 H 743.344 3.65116 0.329557 0
M  V30 7908 H 742.992 4.21835 2.73978 0
M  V30 7909 H 742.692 5.62724 1.69161 0
M  V30 7910 H 744.216 5.51654 2.61744 0
M  V30 7911 H 745.63 5.72198 0.355316 0
M  V30 7912 H 744.027 5.98833 -0.389689 0
M  V30 7913 H 745.097 4.7353 -1.04391 0
M  V30 7914 N 746.441 0.193421 1.56409 0
M  V30 7915 C 747.687 -0.43983 1.98588 0
M  V30 7916 C 748.042 -1.59353 1.07816 0
M  V30 7917 O 747.335 -1.9121 0.122226 0
M  V30 7918 C 747.529 -0.949718 3.44551 0
M  V30 7919 C 747.358 0.153045 4.49439 0
M  V30 7920 C 746.128 0.610119 5.01603 0
M  V30 7921 C 748.326 0.961397 5.05234 0
M  V30 7922 N 746.308 1.69088 5.90155 0
M  V30 7923 C 747.679 1.8916 5.90439 0
M  V30 7924 C 749.734 1.004 4.87672 0
M  V30 7925 C 748.437 2.86086 6.5996 0
M  V30 7926 C 750.463 1.96131 5.57931 0
M  V30 7927 C 749.825 2.87895 6.42881 0
M  V30 7928 H 745.924 -0.128415 0.771384 0
M  V30 7929 H 748.508 0.29873 1.92395 0
M  V30 7930 H 746.679 -1.65772 3.51246 0
M  V30 7931 H 748.411 -1.55344 3.73698 0
M  V30 7932 H 745.166 0.203771 4.73161 0
M  V30 7933 H 745.59 2.23241 6.39134 0
M  V30 7934 H 750.232 0.308536 4.21673 0
M  V30 7935 H 747.95 3.56609 7.25159 0
M  V30 7936 H 751.536 2.00066 5.46319 0
M  V30 7937 H 750.416 3.60763 6.9629 0
M  V30 7938 N 747.919 -1.57396 -0.0801906 0
M  V30 7939 C 748.851 -1.9982 -1.12271 0
M  V30 7940 C 749.864 -0.902902 -1.35468 0
M  V30 7941 O 751.053 -1.18088 -1.33856 0
M  V30 7942 C 748.153 -2.31476 -2.47532 0
M  V30 7943 C 747.326 -3.62745 -2.44407 0
M  V30 7944 C 746.385 -3.82168 -3.6171 0
M  V30 7945 O 745.411 -4.53852 -3.43522 0
M  V30 7946 N 746.613 -3.2388 -4.81749 0
M  V30 7947 H 749.378 -2.89864 -0.761501 0
M  V30 7948 H 746.939 -1.5965 -0.268965 0
M  V30 7949 H 748.931 -2.4165 -3.24634 0
M  V30 7950 H 747.501 -1.47364 -2.75686 0
M  V30 7951 H 746.721 -3.63403 -1.52747 0
M  V30 7952 H 748.009 -4.48954 -2.39412 0
M  V30 7953 H 747.407 -2.6568 -4.9943 0
M  V30 7954 H 745.964 -3.39515 -5.56392 0
M  V30 7955 N 749.397 0.351382 -1.53633 0
M  V30 7956 C 750.813 0.693987 -1.43722 0
M  V30 7957 C 751.013 1.9274 -0.587669 0
M  V30 7958 O 750.069 2.52387 -0.0756082 0
M  V30 7959 C 751.382 0.893937 -2.87105 0
M  V30 7960 C 752.93 0.993051 -2.96829 0
M  V30 7961 C 753.405 1.22537 -4.41303 0
M  V30 7962 N 754.896 1.29275 -4.44795 0
M  V30 7963 C 755.631 1.48988 -5.53706 0
M  V30 7964 N 755.127 1.65924 -6.72637 0
M  V30 7965 N 756.92 1.51472 -5.41306 0
M  V30 7966 H 749.071 -0.459688 -2.07366 0
M  V30 7967 H 751.334 -0.143684 -0.937048 0
M  V30 7968 H 751.04 0.0592517 -3.5165 0
M  V30 7969 H 750.914 1.79795 -3.31592 0
M  V30 7970 H 753.301 1.81827 -2.32429 0
M  V30 7971 H 753.382 0.0661119 -2.55715 0
M  V30 7972 H 753.026 0.405117 -5.06282 0
M  V30 7973 H 752.956 2.16575 -4.80003 0
M  V30 7974 H 755.447 1.17743 -3.59089 0
M  V30 7975 H 755.76 1.80578 -7.51406 0
M  V30 7976 H 754.105 1.63075 -6.75597 0
M  V30 7977 H 757.296 1.37818 -4.47352 0
M  V30 7978 H 757.469 1.66493 -6.26246 0
M  V30 7979 N 750.875 1.45233 0.611969 0
M  V30 7980 C 752.286 1.4354 1.19387 0
M  V30 7981 C 752.637 0.160713 1.95541 0
M  V30 7982 O 751.762 -0.737954 2.03429 0
M  V30 7983 C 752.357 2.60045 2.17169 0
M  V30 7984 C 750.916 2.61486 2.70744 0
M  V30 7985 C 750.063 2.35708 1.46072 0
M  V30 7986 H 753.014 1.53536 0.401529 0
M  V30 7987 H 753.035 2.33893 3.00124 0
M  V30 7988 H 752.547 3.52803 1.61714 0
M  V30 7989 H 750.648 1.72721 3.30149 0
M  V30 7990 H 750.761 3.60572 3.15476 0
M  V30 7991 H 749.125 1.85178 1.74875 0
M  V30 7992 H 749.908 3.30606 0.924922 0
M  V30 7993 N 752.353 -0.854086 1.3245 0
M  V30 7994 C 753.283 -1.97827 1.24044 0
M  V30 7995 C 754.264 -1.69646 0.124166 0
M  V30 7996 O 755.449 -1.91687 0.31143 0
M  V30 7997 C 752.579 -3.33673 0.963324 0
M  V30 7998 C 751.533 -3.76207 2.04089 0
M  V30 7999 C 750.859 -5.0969 1.61618 0
M  V30 8000 C 752.159 -3.91612 3.45597 0
M  V30 8001 H 753.853 -2.05118 2.18099 0
M  V30 8002 H 751.399 -0.985489 1.04996 0
M  V30 8003 H 753.352 -4.11871 0.891061 0
M  V30 8004 H 752.076 -3.26597 -0.0128649 0
M  V30 8005 H 750.735 -3.0026 2.10332 0
M  V30 8006 H 750.383 -4.99072 0.627418 0
M  V30 8007 H 750.083 -5.3912 2.33717 0
M  V30 8008 H 751.607 -5.90381 1.55829 0
M  V30 8009 H 753.021 -4.60163 3.4194 0
M  V30 8010 H 751.418 -4.3246 4.16051 0
M  V30 8011 H 752.488 -2.9451 3.85217 0
M  V30 8012 N 753.831 -1.1567 -1.07043 0
M  V30 8013 C 755.077 -0.9349 -1.79965 0
M  V30 8014 C 755.41 0.536464 -1.86643 0
M  V30 8015 O 754.685 1.39781 -1.35247 0
M  V30 8016 C 754.968 -1.55371 -3.24857 0
M  V30 8017 C 754.821 -3.09589 -3.26305 0
M  V30 8018 C 756.14 -1.24209 -4.22209 0
M  V30 8019 H 753.259 -0.341061 -0.653335 0
M  V30 8020 H 755.901 -1.42883 -1.25237 0
M  V30 8021 H 754.051 -1.13368 -3.71591 0
M  V30 8022 H 755.723 -3.60521 -2.87789 0
M  V30 8023 H 753.966 -3.43315 -2.65174 0
M  V30 8024 H 754.637 -3.48002 -4.28484 0
M  V30 8025 H 757.113 -1.60548 -3.8388 0
M  V30 8026 H 755.989 -1.70119 -5.21872 0
M  V30 8027 H 756.25 -0.15964 -4.41812 0
M  V30 8028 N 755.309 1.25446 -0.953992 0
M  V30 8029 C 756.537 1.97215 -0.625595 0
M  V30 8030 C 756.952 1.70911 0.802168 0
M  V30 8031 O 756.309 0.984782 1.5365 0
M  V30 8032 C 756.36 3.50777 -0.873943 0
M  V30 8033 O 756.081 3.76173 -2.24556 0
M  V30 8034 C 757.582 4.39776 -0.557845 0
M  V30 8035 H 754.802 0.628652 -0.2346 0
M  V30 8036 H 757.346 1.59632 -1.27819 0
M  V30 8037 H 755.501 3.86474 -0.267765 0
M  V30 8038 H 755.915 4.70636 -2.31522 0
M  V30 8039 H 757.389 5.46431 -0.782157 0
M  V30 8040 H 757.866 4.36257 0.507573 0
M  V30 8041 H 758.472 4.09644 -1.14332 0
M  V30 8042 N 756.787 0.722489 1.40064 0
M  V30 8043 C 758.036 0.261932 1.99992 0
M  V30 8044 C 758.349 -1.15358 1.57961 0
M  V30 8045 O 759.555 -1.71301 2.10637 0
M  V30 8046 C 758.011 0.41737 3.57472 0
M  V30 8047 C 757.619 1.83997 4.08472 0
M  V30 8048 C 759.363 0.0179561 4.24496 0
M  V30 8049 C 757.27 1.94563 5.5848 0
M  V30 8050 H 756.2 0.0941768 0.748095 0
M  V30 8051 H 758.851 0.894572 1.60218 0
M  V30 8052 H 757.233 -0.283965 3.94981 0
M  V30 8053 H 758.407 2.57224 3.82325 0
M  V30 8054 H 756.722 2.19147 3.54067 0
M  V30 8055 H 759.319 0.076085 5.34646 0
M  V30 8056 H 759.662 -1.02498 4.03485 0
M  V30 8057 H 760.195 0.669988 3.92117 0
M  V30 8058 H 756.934 2.97001 5.84355 0
M  V30 8059 H 756.454 1.25756 5.86469 0
M  V30 8060 H 758.133 1.72095 6.23692 0
M  V30 8061 N 758.265 -1.50454 0.469181 0
M  V30 8062 C 759.212 -2.28486 -0.325982 0
M  V30 8063 C 760.182 -1.33455 -0.988893 0
M  V30 8064 O 761.367 -1.6239 -1.0017 0
M  V30 8065 C 758.507 -3.15288 -1.40313 0
M  V30 8066 C 757.62 -4.25348 -0.755183 0
M  V30 8067 C 756.755 -4.9941 -1.81006 0
M  V30 8068 C 755.794 -6.01348 -1.14226 0
M  V30 8069 N 754.931 -6.68695 -2.1399 0
M  V30 8070 H 759.771 -2.95987 0.345753 0
M  V30 8071 H 757.308 -1.45965 0.182355 0
M  V30 8072 H 759.266 -3.63964 -2.03927 0
M  V30 8073 H 757.896 -2.49837 -2.04405 0
M  V30 8074 H 756.948 -3.80399 -0.00651901 0
M  V30 8075 H 758.26 -4.98279 -0.227941 0
M  V30 8076 H 757.414 -5.51794 -2.52206 0
M  V30 8077 H 756.153 -4.26181 -2.3711 0
M  V30 8078 H 755.158 -5.48225 -0.415876 0
M  V30 8079 H 756.383 -6.76548 -0.588135 0
M  V30 8080 H 754.329 -5.98258 -2.69115 0
M  V30 8081 H 754.246 -7.37495 -1.66246 0
M  V30 8082 H 755.514 -7.25697 -2.84576 0
M  V30 8083 N 759.743 -0.201713 -1.56304 0
M  V30 8084 C 760.992 0.435557 -1.96941 0
M  V30 8085 C 761.305 1.62299 -1.09172 0
M  V30 8086 O 762.511 2.32849 -1.3962 0
M  V30 8087 C 760.967 0.826298 -3.50286 0
M  V30 8088 C 760.575 -0.337216 -4.46729 0
M  V30 8089 C 762.319 1.43028 -3.99679 0
M  V30 8090 C 760.226 0.0748539 -5.91353 0
M  V30 8091 H 759.156 0.1665 -0.735387 0
M  V30 8092 H 761.807 -0.294781 -1.81117 0
M  V30 8093 H 760.189 1.61349 -3.61639 0
M  V30 8094 H 761.363 -1.11476 -4.47113 0
M  V30 8095 H 759.678 -0.853126 -4.07567 0
M  V30 8096 H 762.275 1.75115 -5.05212 0
M  V30 8097 H 762.618 2.33911 -3.44371 0
M  V30 8098 H 763.151 0.706924 -3.91468 0
M  V30 8099 H 759.89 -0.799957 -6.506 0
M  V30 8100 H 759.41 0.817122 -5.94208 0
M  V30 8101 H 761.089 0.508389 -6.45 0
M  V30 8102 N 761.222 1.57436 0.0718424 0
M  V30 8103 C 762.47 1.86878 0.769484 0
M  V30 8104 C 762.791 0.7937 1.78116 0
M  V30 8105 O 762.061 -0.177642 1.95093 0
M  V30 8106 H 760.641 0.689593 0.287177 0
M  V30 8107 H 763.303 1.94841 0.0479427 0
M  V30 8108 H 762.399 2.84387 1.28572 0
M  V30 8109 N 762.7 -0.34323 1.53817 0
M  V30 8110 C 763.948 -1.0813 1.70741 0
M  V30 8111 C 764.269 -1.89165 0.473461 0
M  V30 8112 O 763.539 -1.89075 -0.512605 0
M  V30 8113 H 762.119 -0.40219 0.629486 0
M  V30 8114 H 764.781 -0.384426 1.91071 0
M  V30 8115 H 763.877 -1.7585 2.57843 0
M  V30 8116 N 764.178 -1.45556 -0.604258 0
M  V30 8117 C 765.11 -1.50494 -1.72871 0
M  V30 8118 C 766.123 -0.395368 -1.57926 0
M  V30 8119 O 767.312 -0.662603 -1.65746 0
M  V30 8120 C 764.412 -1.34874 -3.10906 0
M  V30 8121 C 763.585 -2.59564 -3.52058 0
M  V30 8122 C 762.644 -2.38453 -4.6907 0
M  V30 8123 O 761.67 -3.12082 -4.76018 0
M  V30 8124 N 762.872 -1.43229 -5.62553 0
M  V30 8125 H 765.637 -2.4744 -1.69097 0
M  V30 8126 H 763.198 -1.41338 -0.789636 0
M  V30 8127 H 765.19 -1.18556 -3.86945 0
M  V30 8128 H 763.76 -0.461913 -3.09168 0
M  V30 8129 H 762.98 -2.90974 -2.65946 0
M  V30 8130 H 764.268 -3.42441 -3.76313 0
M  V30 8131 H 763.666 -0.824714 -5.59656 0
M  V30 8132 H 762.223 -1.32882 -6.38111 0
M  V30 8133 N 765.656 0.84705 -1.32902 0
M  V30 8134 C 766.586 1.97166 -1.25091 0
M  V30 8135 C 767.567 1.69578 -0.133161 0
M  V30 8136 O 768.752 1.91519 -0.321591 0
M  V30 8137 C 765.882 3.33157 -0.981006 0
M  V30 8138 C 764.836 3.75119 -2.06082 0
M  V30 8139 C 764.162 5.08826 -1.64318 0
M  V30 8140 C 765.462 3.89774 -3.47669 0
M  V30 8141 H 767.156 2.03958 -2.19184 0
M  V30 8142 H 764.702 0.979907 -1.05517 0
M  V30 8143 H 766.655 4.11393 -0.912891 0
M  V30 8144 H 765.379 3.266 -0.00445559 0
M  V30 8145 H 764.038 2.9914 -2.11921 0
M  V30 8146 H 763.686 4.98732 -0.653876 0
M  V30 8147 H 763.386 5.37873 -2.36572 0
M  V30 8148 H 764.91 5.89546 -1.58958 0
M  V30 8149 H 766.324 4.58343 -3.44376 0
M  V30 8150 H 764.721 4.30248 -4.18338 0
M  V30 8151 H 765.791 2.92463 -3.86773 0
M  V30 8152 N 767.134 1.16236 1.06428 0
M  V30 8153 C 768.081 0.86769 2.13869 0
M  V30 8154 C 769.051 -0.183298 1.65086 0
M  V30 8155 O 770.236 -0.0488002 1.90738 0
M  V30 8156 C 767.376 0.373427 3.43074 0
M  V30 8157 C 766.489 1.48708 4.05598 0
M  V30 8158 C 765.624 0.947977 5.22673 0
M  V30 8159 C 764.663 2.03793 5.77178 0
M  V30 8160 N 763.8 1.51451 6.85571 0
M  V30 8161 H 768.64 1.78781 2.38414 0
M  V30 8162 H 766.177 0.891892 1.16977 0
M  V30 8163 H 768.135 0.0685035 4.17144 0
M  V30 8164 H 766.765 -0.509752 3.1875 0
M  V30 8165 H 765.817 1.908 3.29089 0
M  V30 8166 H 767.129 2.30964 4.42105 0
M  V30 8167 H 766.283 0.596154 6.03764 0
M  V30 8168 H 765.022 0.0947081 4.87608 0
M  V30 8169 H 764.027 2.39847 4.94726 0
M  V30 8170 H 765.252 2.89514 6.14295 0
M  V30 8171 H 763.198 0.683755 6.52427 0
M  V30 8172 H 763.115 2.27325 7.21013 0
M  V30 8173 H 764.383 1.19123 7.70344 0
M  V30 8174 N 768.612 -1.24939 0.960631 0
M  V30 8175 C 769.522 -2.29374 0.492435 0
M  V30 8176 C 770.538 -1.68262 -0.443154 0
M  V30 8177 O 771.714 -1.98875 -0.31793 0
M  V30 8178 C 768.779 -3.46023 -0.216626 0
M  V30 8179 C 767.84 -4.22557 0.757915 0
M  V30 8180 C 767.073 -5.33636 0.0825969 0
M  V30 8181 O 767.296 -5.59084 -1.13054 0
M  V30 8182 O 766.23 -5.96939 0.771177 0
M  V30 8183 H 770.056 -2.71525 1.36044 0
M  V30 8184 H 767.641 -1.30499 0.72735 0
M  V30 8185 H 769.523 -4.16885 -0.615241 0
M  V30 8186 H 768.198 -3.05862 -1.05971 0
M  V30 8187 H 767.105 -3.54099 1.20685 0
M  V30 8188 H 768.438 -4.66516 1.5692 0
M  V30 8189 N 770.09 -0.729906 -1.39679 0
M  V30 8190 C 771.053 -0.0951668 -2.29002 0
M  V30 8191 C 772.053 0.672471 -1.46063 0
M  V30 8192 O 773.243 0.502245 -1.66803 0
M  V30 8193 C 770.375 0.874631 -3.29489 0
M  V30 8194 H 771.568 -0.882062 -2.86635 0
M  V30 8195 H 769.121 -0.495424 -1.4824 0
M  V30 8196 H 769.856 1.68807 -2.76902 0
M  V30 8197 H 769.641 0.326893 -3.90735 0
M  V30 8198 H 771.131 1.31548 -3.96339 0
M  V30 8199 N 771.568 1.50203 -0.477153 0
M  V30 8200 C 772.498 2.31517 0.303646 0
M  V30 8201 C 773.479 1.38696 0.984753 0
M  V30 8202 O 774.664 1.67615 0.980758 0
M  V30 8203 C 771.794 3.18598 1.38249 0
M  V30 8204 C 770.748 4.2002 0.822645 0
M  V30 8205 C 770.074 4.95878 2.00024 0
M  V30 8206 C 771.374 5.22023 -0.170185 0
M  V30 8207 H 773.068 2.97042 -0.375027 0
M  V30 8208 H 770.614 1.42848 -0.181802 0
M  V30 8209 H 772.567 3.74282 1.93625 0
M  V30 8210 H 771.291 2.5097 2.09002 0
M  V30 8211 H 769.95 3.65445 0.290813 0
M  V30 8212 H 769.598 4.24717 2.69489 0
M  V30 8213 H 769.298 5.64487 1.63183 0
M  V30 8214 H 770.822 5.54399 2.55878 0
M  V30 8215 H 772.236 5.72543 0.294606 0
M  V30 8216 H 770.633 5.98386 -0.453181 0
M  V30 8217 H 771.703 4.72396 -1.09408 0
M  V30 8218 N 773.046 0.209999 1.56195 0
M  V30 8219 C 773.976 -0.699746 2.22769 0
M  V30 8220 C 774.957 -1.20993 1.1956 0
M  V30 8221 O 776.142 -1.25605 1.48112 0
M  V30 8222 C 773.272 -1.91302 2.89863 0
M  V30 8223 C 772.226 -1.53715 3.99444 0
M  V30 8224 C 771.552 -2.82826 4.53777 0
M  V30 8225 C 772.852 -0.735836 5.17091 0
M  V30 8226 H 774.546 -0.144716 2.9905 0
M  V30 8227 H 772.092 -0.0681645 1.43839 0
M  V30 8228 H 774.045 -2.5548 3.35124 0
M  V30 8229 H 772.769 -2.49283 2.11011 0
M  V30 8230 H 771.428 -0.918892 3.54897 0
M  V30 8231 H 771.076 -3.38927 3.71669 0
M  V30 8232 H 770.776 -2.58415 5.27727 0
M  V30 8233 H 772.3 -3.47966 5.01749 0
M  V30 8234 H 773.714 -1.28105 5.58804 0
M  V30 8235 H 772.111 -0.589272 5.972 0
M  V30 8236 H 773.181 0.260004 4.84202 0
M  V30 8237 N 774.524 -1.57472 -0.0634922 0
M  V30 8238 C 775.801 -1.78736 -0.794538 0
M  V30 8239 C 776.181 -0.799645 -1.95369 0
M  V30 8240 O 775.529 0.165521 -2.279 0
M  V30 8241 C 775.739 -3.25471 -1.25975 0
M  V30 8242 C 777.087 -3.89528 -1.68976 0
M  V30 8243 O 778.111 -3.29412 -1.35521 0
M  V30 8244 O 776.97 -4.95305 -2.30944 0
M  V30 8245 H 774.064 -0.733813 -0.381376 0
M  V30 8246 H 776.61 -1.69646 -0.0429258 0
M  V30 8247 H 775.382 -3.88922 -0.430721 0
M  V30 8248 H 775.005 -3.39317 -2.07243 0
M  V30 8249 N 776.003 0.335068 -1.53997 0
M  V30 8250 C 777.231 1.09418 -1.756 0
M  V30 8251 C 777.646 1.82083 -0.499138 0
M  V30 8252 O 777.003 1.74646 0.529631 0
M  V30 8253 C 777.054 2.10115 -2.94166 0
M  V30 8254 O 776.775 1.40404 -4.14992 0
M  V30 8255 C 778.276 2.98336 -3.27888 0
M  V30 8256 H 775.496 0.32595 -0.586513 0
M  V30 8257 H 778.04 0.384693 -2.00849 0
M  V30 8258 H 776.195 2.76616 -2.71224 0
M  V30 8259 H 776.609 2.07743 -4.81605 0
M  V30 8260 H 778.083 3.6491 -4.1418 0
M  V30 8261 H 778.56 3.64814 -2.44556 0
M  V30 8262 H 779.166 2.37412 -3.52868 0
M  V30 8263 N 777.481 1.45874 0.596531 0
M  V30 8264 C 778.729 1.5017 1.35253 0
M  V30 8265 C 779.05 0.149246 1.94428 0
M  V30 8266 O 778.32 -0.82268 1.77789 0
M  V30 8267 H 776.9 0.553052 0.502138 0
M  V30 8268 H 779.562 1.81908 0.699671 0
M  V30 8269 H 778.658 2.24671 2.16632 0
M  V30 8270 N 778.959 -0.83999 1.33349 0
M  V30 8271 C 779.922 -1.93128 1.23426 0
M  V30 8272 C 780.922 -1.60065 0.153599 0
M  V30 8273 O 782.112 -1.69425 0.405049 0
M  V30 8274 C 779.244 -3.28761 0.901622 0
M  V30 8275 H 780.437 -2.03352 2.20427 0
M  V30 8276 H 777.99 -1.03194 1.17391 0
M  V30 8277 H 778.725 -3.24233 -0.0659337 0
M  V30 8278 H 778.51 -3.54138 1.68311 0
M  V30 8279 H 780 -4.08714 0.856913 0
M  V30 8280 N 780.437 -1.16799 -1.0581 0
M  V30 8281 C 781.714 -0.862616 -1.75551 0
M  V30 8282 C 782.094 0.6385 -2.01212 0
M  V30 8283 O 781.442 1.58784 -1.64317 0
M  V30 8284 C 781.652 -1.6907 -3.05314 0
M  V30 8285 C 783 -1.90675 -3.79379 0
M  V30 8286 O 784.024 -1.65976 -3.15167 0
M  V30 8287 O 782.883 -2.32145 -4.94743 0
M  V30 8288 H 779.977 -0.318789 -0.763088 0
M  V30 8289 H 782.523 -1.27461 -1.12034 0
M  V30 8290 H 781.295 -2.70912 -2.82352 0
M  V30 8291 H 780.918 -1.27606 -3.76567 0
M  V30 8292 N 781.915 1.24427 -0.967243 0
M  V30 8293 C 783.192 1.87831 -0.545776 0
M  V30 8294 C 783.572 1.87126 0.977099 0
M  V30 8295 O 782.92 1.34357 1.84826 0
M  V30 8296 C 783.13 3.29967 -1.13679 0
M  V30 8297 C 784.478 4.06654 -1.22139 0
M  V30 8298 O 785.502 3.39136 -1.08926 0
M  V30 8299 O 784.361 5.27455 -1.43017 0
M  V30 8300 H 781.455 0.806745 -0.181912 0
M  V30 8301 H 784.001 1.32403 -1.06148 0
M  V30 8302 H 782.773 3.24977 -2.17958 0
M  V30 8303 H 782.396 3.92969 -0.605093 0
M  V30 8304 N 783.393 0.737304 1.3929 0
M  V30 8305 C 784.621 0.296573 2.04763 0
M  V30 8306 C 785.036 -1.06941 1.55592 0
M  V30 8307 O 784.393 -1.67619 0.721822 0
M  V30 8308 C 784.444 0.291906 3.6032 0
M  V30 8309 O 784.165 1.60397 4.07682 0
M  V30 8310 C 785.666 -0.164708 4.42994 0
M  V30 8311 H 782.886 0.129251 0.658434 0
M  V30 8312 H 785.43 1.0016 1.78293 0
M  V30 8313 H 783.585 -0.364251 3.85684 0
M  V30 8314 H 783.999 1.51909 5.0202 0
M  V30 8315 H 785.473 -0.116814 5.51876 0
M  V30 8316 H 785.95 -1.21022 4.22197 0
M  V30 8317 H 786.556 0.461968 4.22784 0
M  V30 8318 N 784.871 -1.49948 0.485112 0
M  V30 8319 C 786.117 -2.02695 -0.0651022 0
M  V30 8320 C 786.45 -1.36534 -1.38102 0
M  V30 8321 O 785.725 -0.495677 -1.88078 0
M  V30 8322 C 786.008 -3.59337 -0.234285 0
M  V30 8323 C 785.861 -4.3605 1.10364 0
M  V30 8324 C 787.18 -4.28996 -0.982351 0
M  V30 8325 H 784.299 -0.736666 -0.0221856 0
M  V30 8326 H 786.941 -1.7913 0.633433 0
M  V30 8327 H 785.091 -3.79546 -0.829262 0
M  V30 8328 H 786.763 -4.27377 1.73627 0
M  V30 8329 H 785.006 -3.99236 1.69686 0
M  V30 8330 H 785.677 -5.43959 0.938743 0
M  V30 8331 H 788.153 -4.13346 -0.477904 0
M  V30 8332 H 787.029 -5.38379 -1.06955 0
M  V30 8333 H 787.29 -3.93135 -2.02231 0
M  V30 8334 N 786.349 -0.21828 -1.56081 0
M  V30 8335 C 787.279 0.687922 -2.23136 0
M  V30 8336 C 788.26 1.20357 -1.202 0
M  V30 8337 O 789.445 1.24817 -1.48776 0
M  V30 8338 C 786.575 1.89762 -2.90874 0
M  V30 8339 C 785.529 1.51595 -4.00254 0
M  V30 8340 C 784.855 2.80415 -4.55271 0
M  V30 8341 C 786.155 0.708404 -5.17474 0
M  V30 8342 H 787.849 0.128854 -2.99123 0
M  V30 8343 H 785.395 0.0605354 -1.43873 0
M  V30 8344 H 787.348 2.53699 -3.36474 0
M  V30 8345 H 786.072 2.4816 -2.1233 0
M  V30 8346 H 784.731 0.900058 -3.55379 0
M  V30 8347 H 784.379 3.36951 -3.73461 0
M  V30 8348 H 784.079 2.55613 -5.2909 0
M  V30 8349 H 785.603 3.453 -5.03587 0
M  V30 8350 H 787.017 1.2514 -5.59476 0
M  V30 8351 H 785.414 0.557593 -5.97504 0
M  V30 8352 H 786.484 -0.285679 -4.84058 0
M  V30 8353 N 787.827 1.57504 0.0551401 0
M  V30 8354 C 788.737 2.08198 1.08124 0
M  V30 8355 C 789.753 1.01496 1.41331 0
M  V30 8356 O 790.929 1.33073 1.51174 0
M  V30 8357 C 787.994 2.52968 2.37083 0
M  V30 8358 C 787.055 3.7404 2.10696 0
M  V30 8359 C 786.288 4.16665 3.33505 0
M  V30 8360 O 786.511 3.59019 4.4324 0
M  V30 8361 O 785.445 5.09324 3.20737 0
M  V30 8362 H 789.271 2.95977 0.680518 0
M  V30 8363 H 786.856 1.46933 0.270401 0
M  V30 8364 H 788.738 2.82211 3.12946 0
M  V30 8365 H 787.413 1.6831 2.76502 0
M  V30 8366 H 786.32 3.49855 1.32484 0
M  V30 8367 H 787.653 4.59601 1.76148 0
M  V30 8368 N 789.305 -0.326896 1.54172 0
M  V30 8369 C 790.215 -1.42525 1.86343 0
M  V30 8370 C 791.231 -1.56764 0.75505 0
M  V30 8371 O 792.407 -1.71924 1.04901 0
M  V30 8372 C 789.472 -2.77286 2.08119 0
M  V30 8373 C 788.533 -2.7225 3.31931 0
M  V30 8374 C 787.766 -4.00584 3.52659 0
M  V30 8375 O 787.989 -4.98686 2.76891 0
M  V30 8376 O 786.923 -4.04045 4.46129 0
M  V30 8377 H 790.749 -1.18249 2.79734 0
M  V30 8378 H 788.334 -0.520614 1.40036 0
M  V30 8379 H 790.216 -3.57065 2.23791 0
M  V30 8380 H 788.891 -3.01459 1.17917 0
M  V30 8381 H 787.798 -1.91033 3.21647 0
M  V30 8382 H 789.131 -2.53032 4.2218 0
M  V30 8383 N 790.784 -1.46188 -0.588786 0
M  V30 8384 C 791.717 -1.508 -1.71274 0
M  V30 8385 C 792.695 -0.362635 -1.58505 0
M  V30 8386 O 793.879 -0.565899 -1.79805 0
M  V30 8387 C 791.006 -1.38082 -3.09275 0
M  V30 8388 C 790.052 -2.56723 -3.40581 0
M  V30 8389 S 790.885 -4.1911 -3.33327 0
M  V30 8390 C 792.041 -4.08891 -4.73877 0
M  V30 8391 H 792.274 -2.45895 -1.67102 0
M  V30 8392 H 789.807 -1.34 -0.767025 0
M  V30 8393 H 791.765 -1.31432 -3.88891 0
M  V30 8394 H 790.426 -0.444259 -3.10942 0
M  V30 8395 H 789.619 -2.43801 -4.41109 0
M  V30 8396 H 789.221 -2.60332 -2.68521 0
M  V30 8397 H 791.513 -3.75196 -5.64123 0
M  V30 8398 H 792.456 -5.09395 -4.91856 0
M  V30 8399 H 792.864 -3.40239 -4.50441 0
M  V30 8400 N 792.262 0.832906 -1.33792 0
M  V30 8401 C 793.487 1.62568 -1.28788 0
M  V30 8402 C 793.912 1.87599 0.137246 0
M  V30 8403 O 793.27 1.44436 1.0958 0
M  V30 8404 C 793.318 2.9495 -2.07453 0
M  V30 8405 O 792.422 3.86546 -1.43722 0
M  V30 8406 H 791.763 0.494809 -0.442787 0
M  V30 8407 H 794.293 1.03578 -1.76445 0
M  V30 8408 H 794.303 3.44599 -2.1844 0
M  V30 8409 H 792.978 2.76055 -3.11073 0
M  V30 8410 H 791.555 3.45044 -1.41417 0
M  V30 8411 N 793.74 1.17359 1.05189 0
M  V30 8412 C 794.67 0.91365 2.14883 0
M  V30 8413 C 795.651 -0.144365 1.69486 0
M  V30 8414 O 796.836 0.00587861 1.94199 0
M  V30 8415 C 793.966 0.426196 3.44675 0
M  V30 8416 C 792.92 1.4234 4.03638 0
M  V30 8417 C 792.246 0.793902 5.28773 0
M  V30 8418 C 793.546 2.7966 4.41121 0
M  V30 8419 H 795.24 1.831 2.36885 0
M  V30 8420 H 792.786 0.881781 1.13845 0
M  V30 8421 H 794.739 0.231767 4.20762 0
M  V30 8422 H 793.463 -0.526693 3.22325 0
M  V30 8423 H 792.122 1.60457 3.2962 0
M  V30 8424 H 791.77 -0.165824 5.02727 0
M  V30 8425 H 791.47 1.45959 5.69183 0
M  V30 8426 H 792.994 0.609747 6.07548 0
M  V30 8427 H 794.408 2.6526 5.08242 0
M  V30 8428 H 792.805 3.42807 4.92548 0
M  V30 8429 H 793.875 3.34068 3.51464 0
M  V30 8430 N 795.218 -1.23913 0.973828 0
M  V30 8431 C 796.629 -1.73992 0.677021 0
M  V30 8432 C 796.98 -1.78833 -0.807036 0
M  V30 8433 O 796.105 -1.42183 -1.63135 0
M  V30 8434 C 796.7 -3.15985 1.22226 0
M  V30 8435 C 795.259 -3.63547 0.975228 0
M  V30 8436 C 794.406 -2.42001 1.35392 0
M  V30 8437 H 797.357 -1.09529 1.14844 0
M  V30 8438 H 797.378 -3.75875 0.591489 0
M  V30 8439 H 796.89 -3.12429 2.30238 0
M  V30 8440 H 794.991 -3.72493 -0.0891047 0
M  V30 8441 H 795.104 -4.50693 1.62518 0
M  V30 8442 H 793.468 -2.42708 0.772334 0
M  V30 8443 H 794.251 -2.41122 2.44367 0
M  V30 8444 N 796.696 -0.74468 -1.38897 0
M  V30 8445 C 797.944 -0.296298 -1.99916 0
M  V30 8446 C 798.265 1.12325 -1.59399 0
M  V30 8447 O 797.535 1.76658 -0.846689 0
M  V30 8448 H 796.115 -0.106561 -0.73936 0
M  V30 8449 H 798.777 -0.956793 -1.69798 0
M  V30 8450 H 797.873 -0.352356 -3.10105 0
M  V30 8451 N 798.174 1.49689 -0.493057 0
M  V30 8452 C 799.59 1.58907 -0.148526 0
M  V30 8453 C 799.79 1.4991 1.34645 0
M  V30 8454 O 798.846 1.36893 2.12171 0
M  V30 8455 C 800.159 2.91996 -0.718265 0
M  V30 8456 C 801.707 3.05443 -0.683658 0
M  V30 8457 C 802.182 4.41138 -1.23132 0
M  V30 8458 N 803.673 4.47608 -1.19167 0
M  V30 8459 C 804.408 5.51038 -1.5857 0
M  V30 8460 N 803.904 6.61612 -2.05528 0
M  V30 8461 N 805.697 5.41706 -1.50036 0
M  V30 8462 H 797.848 1.5378 -1.46511 0
M  V30 8463 H 800.111 0.727996 -0.607228 0
M  V30 8464 H 799.817 3.04123 -1.7664 0
M  V30 8465 H 799.691 3.76798 -0.17419 0
M  V30 8466 H 802.078 2.92949 0.355626 0
M  V30 8467 H 802.159 2.22344 -1.26479 0
M  V30 8468 H 801.803 4.54382 -2.26935 0
M  V30 8469 H 801.733 5.22864 -0.626201 0
M  V30 8470 H 804.224 3.68274 -0.847524 0
M  V30 8471 H 804.537 7.36622 -2.33685 0
M  V30 8472 H 802.882 6.62674 -2.09497 0
M  V30 8473 H 806.073 4.54212 -1.13176 0
M  V30 8474 H 806.246 6.22188 -1.81068 0
M  V30 8475 N 799.652 0.226554 1.55963 0
M  V30 8476 C 800.898 -0.397608 1.99476 0
M  V30 8477 C 801.253 -1.57031 1.11172 0
M  V30 8478 O 800.546 -1.90907 0.162757 0
M  V30 8479 C 800.74 -0.87642 3.46488 0
M  V30 8480 C 800.569 0.248344 4.49014 0
M  V30 8481 C 799.339 0.71638 5.00196 0
M  V30 8482 C 801.537 1.06835 5.03081 0
M  V30 8483 N 799.519 1.81568 5.86435 0
M  V30 8484 C 800.89 2.01641 5.86294 0
M  V30 8485 C 802.945 1.10722 4.85433 0
M  V30 8486 C 801.648 3.0002 6.53743 0
M  V30 8487 C 803.674 2.07921 5.53645 0
M  V30 8488 C 803.036 3.01466 6.3663 0
M  V30 8489 H 799.135 -0.112024 0.773935 0
M  V30 8490 H 801.719 0.339472 1.91718 0
M  V30 8491 H 799.89 -1.58285 3.54684 0
M  V30 8492 H 801.622 -1.47382 3.76909 0
M  V30 8493 H 798.377 0.30409 4.72623 0
M  V30 8494 H 798.801 2.36748 6.34255 0
M  V30 8495 H 803.443 0.397909 4.20923 0
M  V30 8496 H 801.161 3.71911 7.17432 0
M  V30 8497 H 804.747 2.11609 5.41953 0
M  V30 8498 H 803.627 3.75451 6.88481 0
M  V30 8499 N 801.13 -1.57531 -0.0467866 0
M  V30 8500 C 802.077 -2.05387 -1.05285 0
M  V30 8501 C 803.047 -0.939385 -1.36985 0
M  V30 8502 O 804.232 -1.20877 -1.47626 0
M  V30 8503 C 801.372 -2.52343 -2.35408 0
M  V30 8504 C 800.485 -3.77512 -2.10022 0
M  V30 8505 C 799.62 -4.1315 -3.33887 0
M  V30 8506 C 798.659 -5.31286 -3.03976 0
M  V30 8507 N 797.796 -5.62441 -4.20243 0
M  V30 8508 H 802.636 -2.91095 -0.637788 0
M  V30 8509 H 800.173 -1.43939 -0.303322 0
M  V30 8510 H 802.131 -2.77628 -3.11413 0
M  V30 8511 H 800.761 -1.69577 -2.7467 0
M  V30 8512 H 799.813 -3.59417 -1.24594 0
M  V30 8513 H 801.125 -4.63644 -1.83945 0
M  V30 8514 H 800.279 -4.39469 -4.18273 0
M  V30 8515 H 799.018 -3.25634 -3.63062 0
M  V30 8516 H 798.023 -5.04738 -2.17991 0
M  V30 8517 H 799.248 -6.20441 -2.76098 0
M  V30 8518 H 797.194 -4.77885 -4.49402 0
M  V30 8519 H 797.111 -6.43046 -3.97528 0
M  V30 8520 H 798.379 -5.93327 -5.05553 0
M  V30 8521 N 802.608 0.318715 -1.54344 0
M  V30 8522 C 804.019 0.89285 -1.63967 0
M  V30 8523 C 804.37 1.88712 -0.536855 0
M  V30 8524 O 803.495 2.13877 0.329457 0
M  V30 8525 C 804.09 1.62618 -2.97222 0
M  V30 8526 C 802.649 2.14897 -3.09025 0
M  V30 8527 C 801.796 0.975909 -2.5956 0
M  V30 8528 H 804.747 0.0961687 -1.58408 0
M  V30 8529 H 804.768 2.4907 -2.87653 0
M  V30 8530 H 804.28 0.902286 -3.77466 0
M  V30 8531 H 802.381 2.90387 -2.33465 0
M  V30 8532 H 802.494 2.39565 -4.14904 0
M  V30 8533 H 800.858 1.35646 -2.15574 0
M  V30 8534 H 801.641 0.266253 -3.42266 0
M  V30 8535 N 804.086 1.46499 0.581025 0
M  V30 8536 C 805.033 1.5719 1.68997 0
M  V30 8537 C 806.003 0.416114 1.60803 0
M  V30 8538 O 807.188 0.633086 1.79991 0
M  V30 8539 C 804.328 1.56973 3.07333 0
M  V30 8540 C 803.441 2.83298 3.26139 0
M  V30 8541 C 802.576 2.74574 4.54734 0
M  V30 8542 C 801.615 3.9583 4.66889 0
M  V30 8543 N 800.752 3.85482 5.86811 0
M  V30 8544 H 805.592 2.51914 1.59196 0
M  V30 8545 H 803.129 1.24975 0.775857 0
M  V30 8546 H 805.087 1.54832 3.87405 0
M  V30 8547 H 803.717 0.657803 3.16027 0
M  V30 8548 H 802.769 2.95411 2.3966 0
M  V30 8549 H 804.081 3.7316 3.30988 0
M  V30 8550 H 803.235 2.70548 5.43036 0
M  V30 8551 H 801.974 1.82354 4.52325 0
M  V30 8552 H 800.979 4.00186 3.77003 0
M  V30 8553 H 802.204 4.89148 4.71075 0
M  V30 8554 H 800.15 2.96051 5.85397 0
M  V30 8555 H 800.067 4.69002 5.92936 0
M  V30 8556 H 801.335 3.85434 6.7754 0
M  V30 8557 N 805.565 -0.825799 1.34232 0
M  V30 8558 C 806.498 -1.94155 1.19914 0
M  V30 8559 C 807.476 -1.62343 0.0914533 0
M  V30 8560 O 808.66 -1.86752 0.256082 0
M  V30 8561 C 805.787 -3.28064 0.842138 0
M  V30 8562 C 804.833 -3.78839 1.95917 0
M  V30 8563 S 805.666 -3.98943 3.57218 0
M  V30 8564 C 806.822 -5.35783 3.23554 0
M  V30 8565 H 807.055 -2.06003 2.14359 0
M  V30 8566 H 804.588 -0.981053 1.19225 0
M  V30 8567 H 806.546 -4.05434 0.642952 0
M  V30 8568 H 805.207 -3.13988 -0.0839363 0
M  V30 8569 H 804.4 -4.75771 1.66306 0
M  V30 8570 H 804.002 -3.08406 2.11569 0
M  V30 8571 H 806.294 -6.19094 2.7519 0
M  V30 8572 H 807.237 -5.70376 4.19615 0
M  V30 8573 H 807.645 -5.01158 2.5981 0
M  V30 8574 N 807.043 -1.17915 -1.04565 0
M  V30 8575 C 808.292 -0.965816 -1.77073 0
M  V30 8576 C 808.605 0.506005 -1.88942 0
M  V30 8577 O 809.811 0.837717 -2.58253 0
M  V30 8578 C 808.267 -1.67894 -3.18339 0
M  V30 8579 C 807.875 -3.18972 -3.1458 0
M  V30 8580 C 809.619 -1.54823 -3.9526 0
M  V30 8581 C 807.526 -3.82946 -4.50674 0
M  V30 8582 H 806.456 -0.357729 -0.663736 0
M  V30 8583 H 809.107 -1.41235 -1.17153 0
M  V30 8584 H 807.489 -1.16016 -3.78624 0
M  V30 8585 H 808.663 -3.77835 -2.63776 0
M  V30 8586 H 806.978 -3.32127 -2.51159 0
M  V30 8587 H 809.575 -1.99984 -4.95894 0
M  V30 8588 H 809.918 -0.499727 -4.1329 0
M  V30 8589 H 810.451 -2.03953 -3.41538 0
M  V30 8590 H 807.19 -4.8782 -4.37849 0
M  V30 8591 H 806.71 -3.2887 -5.01602 0
M  V30 8592 H 808.389 -3.85518 -5.196 0
M  V30 8593 N 808.521 1.23394 -0.980386 0
M  V30 8594 C 809.769 1.91431 -0.647978 0
M  V30 8595 C 810.09 1.76871 0.821066 0
M  V30 8596 O 809.36 1.14808 1.58732 0
M  V30 8597 H 807.94 0.708516 -0.236673 0
M  V30 8598 H 810.602 1.50019 -1.2442 0
M  V30 8599 H 809.698 2.98854 -0.899592 0
M  V30 8600 N 809.999 0.752036 1.385 0
M  V30 8601 C 811.247 0.306895 1.99756 0
M  V30 8602 C 811.568 -1.11478 1.59992 0
M  V30 8603 O 810.838 -1.76206 0.856045 0
M  V30 8604 H 809.418 0.11048 0.738785 0
M  V30 8605 H 812.08 0.965785 1.69289 0
M  V30 8606 H 811.176 0.368797 3.09913 0
M  V30 8607 N 811.477 -1.49425 0.500989 0
M  V30 8608 C 812.726 -2.01649 -0.04538 0
M  V30 8609 C 813.039 -1.38572 -1.38047 0
M  V30 8610 O 814.245 -1.82124 -2.01353 0
M  V30 8611 C 812.701 -3.5966 -0.131337 0
M  V30 8612 C 812.309 -4.3171 1.19711 0
M  V30 8613 C 814.053 -4.19828 -0.628071 0
M  V30 8614 C 811.96 -5.81579 1.07332 0
M  V30 8615 H 810.89 -0.753715 -0.0207329 0
M  V30 8616 H 813.541 -1.71962 0.640407 0
M  V30 8617 H 811.923 -3.86063 -0.881574 0
M  V30 8618 H 813.097 -4.17008 1.96064 0
M  V30 8619 H 811.412 -3.83286 1.62729 0
M  V30 8620 H 814.009 -5.2958 -0.738198 0
M  V30 8621 H 814.352 -3.83194 -1.6269 0
M  V30 8622 H 814.885 -3.97746 0.0656314 0
M  V30 8623 H 811.624 -6.22738 2.04642 0
M  V30 8624 H 811.144 -5.98774 0.350679 0
M  V30 8625 H 812.823 -6.42614 0.752047 0
M  V30 8626 N 812.955 -0.234822 -1.55841 0
M  V30 8627 C 814.203 0.392483 -1.98252 0
M  V30 8628 C 814.524 1.59344 -1.12404 0
M  V30 8629 O 813.794 1.94834 -0.204055 0
M  V30 8630 H 812.374 0.147999 -0.732192 0
M  V30 8631 H 815.036 -0.330804 -1.92072 0
M  V30 8632 H 814.132 0.709829 -3.03921 0
M  V30 8633 N 814.433 1.57553 0.0384317 0
M  V30 8634 C 815.681 1.88468 0.729672 0
M  V30 8635 C 816.002 0.831302 1.76393 0
M  V30 8636 O 815.272 -0.13622 1.95426 0
M  V30 8637 H 813.852 0.695529 0.272485 0
M  V30 8638 H 816.514 1.94899 0.0066032 0
M  V30 8639 H 815.61 2.8705 1.22511 0
M  V30 8640 N 815.911 -0.310526 1.54511 0
M  V30 8641 C 817.158 -1.04691 1.73338 0
M  V30 8642 C 817.486 -1.87584 0.514038 0
M  V30 8643 O 816.741 -1.89096 -0.504119 0
M  V30 8644 C 817.04 -1.98942 2.96912 0
M  V30 8645 C 816.706 -1.321 4.31115 0
M  V30 8646 C 815.368 -1.13603 4.67598 0
M  V30 8647 C 817.72 -0.842362 5.14348 0
M  V30 8648 C 815.048 -0.459102 5.84901 0
M  V30 8649 C 817.4 -0.179202 6.32346 0
M  V30 8650 C 816.064 0.0178111 6.67498 0
M  V30 8651 H 815.334 -0.38309 0.634289 0
M  V30 8652 H 817.981 -0.322723 1.88761 0
M  V30 8653 H 816.286 -2.77856 2.76231 0
M  V30 8654 H 817.983 -2.55972 3.08674 0
M  V30 8655 H 814.573 -1.47502 4.02419 0
M  V30 8656 H 818.757 -0.973013 4.86668 0
M  V30 8657 H 814.013 -0.295385 6.10686 0
M  V30 8658 H 818.187 0.199619 6.96114 0
M  V30 8659 H 815.814 0.544356 7.58249 0
M  V30 8660 N 817.389 -1.46805 -0.573248 0
M  V30 8661 C 818.638 -1.51868 -1.32736 0
M  V30 8662 C 818.951 -0.178765 -1.94781 0
M  V30 8663 O 820.157 -0.107272 -2.71288 0
M  V30 8664 C 818.613 -2.67641 -2.40616 0
M  V30 8665 C 818.221 -4.08094 -1.84832 0
M  V30 8666 C 819.965 -2.81984 -3.17309 0
M  V30 8667 C 817.872 -5.15193 -2.90397 0
M  V30 8668 H 816.802 -0.56523 -0.49903 0
M  V30 8669 H 819.453 -1.7304 -0.610695 0
M  V30 8670 H 817.835 -2.39818 -3.15124 0
M  V30 8671 H 819.009 -4.45751 -1.16803 0
M  V30 8672 H 817.324 -3.985 -1.20775 0
M  V30 8673 H 819.921 -3.59166 -3.96111 0
M  V30 8674 H 820.264 -1.89842 -3.70494 0
M  V30 8675 H 820.797 -3.095 -2.4991 0
M  V30 8676 H 817.536 -6.09158 -2.42088 0
M  V30 8677 H 817.056 -4.82071 -3.56886 0
M  V30 8678 H 818.735 -5.41448 -3.54179 0
M  V30 8679 N 818.867 0.818669 -1.34668 0
M  V30 8680 C 819.814 1.92983 -1.26595 0
M  V30 8681 C 820.784 1.65506 -0.140315 0
M  V30 8682 O 821.969 1.88063 -0.322005 0
M  V30 8683 C 819.109 3.2932 -1.03163 0
M  V30 8684 C 818.222 3.69061 -2.24539 0
M  V30 8685 C 817.357 4.94368 -1.94355 0
M  V30 8686 C 816.396 5.26702 -3.11851 0
M  V30 8687 N 815.533 6.43187 -2.81522 0
M  V30 8688 H 820.373 1.99219 -2.2162 0
M  V30 8689 H 817.91 0.974612 -1.1018 0
M  V30 8690 H 819.868 4.07897 -0.87613 0
M  V30 8691 H 818.498 3.22584 -0.118045 0
M  V30 8692 H 817.55 2.85842 -2.50995 0
M  V30 8693 H 818.862 3.88924 -3.12313 0
M  V30 8694 H 818.016 5.80742 -1.75566 0
M  V30 8695 H 816.755 4.76515 -1.03848 0
M  V30 8696 H 815.76 4.38823 -3.31231 0
M  V30 8697 H 816.985 5.46492 -4.03142 0
M  V30 8698 H 814.931 6.26783 -1.93596 0
M  V30 8699 H 814.848 6.63243 -3.62829 0
M  V30 8700 H 816.116 7.32621 -2.66247 0
M  V30 8701 N 820.346 1.18468 1.03938 0
M  V30 8702 C 821.592 0.982286 1.77423 0
M  V30 8703 C 821.925 -0.48679 1.88 0
M  V30 8704 O 821.2 -1.36146 1.38905 0
M  V30 8705 C 821.483 1.63929 3.20623 0
M  V30 8706 C 821.336 3.18132 3.17982 0
M  V30 8707 C 822.655 1.3536 4.18767 0
M  V30 8708 H 819.774 0.358264 0.644062 0
M  V30 8709 H 822.416 1.46154 1.21405 0
M  V30 8710 H 820.566 1.2318 3.68455 0
M  V30 8711 H 822.238 3.68024 2.78129 0
M  V30 8712 H 820.481 3.50225 2.55978 0
M  V30 8713 H 821.152 3.5924 4.19107 0
M  V30 8714 H 823.628 1.70669 3.79488 0
M  V30 8715 H 822.504 1.83896 5.17178 0
M  V30 8716 H 822.765 0.276722 4.41233 0
M  V30 8717 N 821.824 -1.22873 0.986916 0
M  V30 8718 C 823.24 -1.43594 0.696633 0
M  V30 8719 C 823.44 -1.87622 -0.734869 0
M  V30 8720 O 822.496 -2.02633 -1.50652 0
M  V30 8721 C 823.809 -2.48231 1.69711 0
M  V30 8722 C 825.357 -2.62037 1.71188 0
M  V30 8723 C 825.832 -3.6989 2.70084 0
M  V30 8724 N 827.323 -3.77341 2.68641 0
M  V30 8725 C 828.058 -4.6037 3.41829 0
M  V30 8726 N 827.554 -5.47438 4.24598 0
M  V30 8727 N 829.347 -4.54626 3.30563 0
M  V30 8728 H 821.498 -0.925982 1.91153 0
M  V30 8729 H 823.761 -0.46866 0.824052 0
M  V30 8730 H 823.467 -2.22812 2.72117 0
M  V30 8731 H 823.341 -3.46731 1.48516 0
M  V30 8732 H 825.728 -2.86803 0.694837 0
M  V30 8733 H 825.809 -1.63831 1.96451 0
M  V30 8734 H 825.453 -3.45872 3.71934 0
M  V30 8735 H 825.383 -4.67652 2.42093 0
M  V30 8736 H 827.874 -3.15124 2.08578 0
M  V30 8737 H 828.187 -6.078 4.77283 0
M  V30 8738 H 826.532 -5.4704 4.28687 0
M  V30 8739 H 829.723 -3.85627 2.65347 0
M  V30 8740 H 829.896 -5.19103 3.8786 0
M  V30 8741 N 823.302 -0.75937 -1.38099 0
M  V30 8742 C 824.234 -0.0956547 -2.29 0
M  V30 8743 C 825.247 0.677561 -1.4803 0
M  V30 8744 O 826.436 0.517696 -1.70828 0
M  V30 8745 C 823.536 0.88844 -3.27047 0
M  V30 8746 C 822.709 0.171652 -4.37063 0
M  V30 8747 C 821.768 1.06733 -5.15262 0
M  V30 8748 O 820.794 0.535698 -5.66674 0
M  V30 8749 N 821.996 2.39486 -5.28797 0
M  V30 8750 H 824.761 -0.876354 -2.86601 0
M  V30 8751 H 822.322 -0.61065 -1.49942 0
M  V30 8752 H 824.314 1.49079 -3.76241 0
M  V30 8753 H 822.884 1.57018 -2.70304 0
M  V30 8754 H 822.104 -0.611473 -3.89429 0
M  V30 8755 H 823.392 -0.324121 -5.07767 0
M  V30 8756 H 822.79 2.85127 -4.88589 0
M  V30 8757 H 821.347 2.94758 -5.81344 0
M  V30 8758 N 824.78 1.49157 -0.508906 0
M  V30 8759 C 826.01 2.06579 0.0293308 0
M  V30 8760 C 826.418 1.36852 1.30645 0
M  V30 8761 O 825.761 0.443079 1.78276 0
M  V30 8762 C 825.823 3.57838 0.345296 0
M  V30 8763 C 825.487 4.49302 -0.835256 0
M  V30 8764 C 826.484 4.90345 -1.72793 0
M  V30 8765 C 824.169 4.91494 -1.0363 0
M  V30 8766 C 826.163 5.72327 -2.80573 0
M  V30 8767 C 823.85 5.7325 -2.11726 0
M  V30 8768 C 824.848 6.13572 -3.00032 0
M  V30 8769 O 824.536 6.93691 -4.06261 0
M  V30 8770 H 824.268 0.675679 -0.0208193 0
M  V30 8771 H 826.822 1.9282 -0.707789 0
M  V30 8772 H 825.052 3.69634 1.13612 0
M  V30 8773 H 826.741 3.97467 0.823089 0
M  V30 8774 H 827.507 4.58388 -1.58446 0
M  V30 8775 H 823.386 4.59605 -0.358308 0
M  V30 8776 H 826.93 6.03719 -3.49527 0
M  V30 8777 H 822.827 6.0462 -2.26065 0
M  V30 8778 H 823.595 7.12011 -4.03711 0
M  V30 8779 N 826.258 0.243083 1.55714 0
M  V30 8780 C 827.535 -0.432851 1.90751 0
M  V30 8781 C 827.915 -1.76153 1.16333 0
M  V30 8782 O 827.263 -2.26783 0.279565 0
M  V30 8783 C 827.473 -0.604685 3.43722 0
M  V30 8784 C 828.821 -0.90231 4.14902 0
M  V30 8785 O 829.845 -0.690689 3.49439 0
M  V30 8786 O 828.704 -1.3051 5.30688 0
M  V30 8787 H 825.798 -0.231835 0.79384 0
M  V30 8788 H 828.344 0.286867 1.67258 0
M  V30 8789 H 827.116 0.331655 3.89892 0
M  V30 8790 H 826.739 -1.37509 3.73065 0
M  V30 8791 N 827.736 -1.57571 -0.0300757 0
M  V30 8792 C 828.668 -2.0329 -1.05857 0
M  V30 8793 C 829.681 -0.945543 -1.32527 0
M  V30 8794 O 830.87 -1.22287 -1.30032 0
M  V30 8795 C 827.97 -2.39234 -2.40042 0
M  V30 8796 C 827.143 -3.70337 -2.32743 0
M  V30 8797 C 826.202 -3.93482 -3.49369 0
M  V30 8798 O 825.228 -4.64551 -3.28909 0
M  V30 8799 N 826.43 -3.39042 -4.71201 0
M  V30 8800 H 829.195 -2.9214 -0.668897 0
M  V30 8801 H 826.756 -1.60425 -0.218038 0
M  V30 8802 H 828.748 -2.51856 -3.16782 0
M  V30 8803 H 827.318 -1.5606 -2.70858 0
M  V30 8804 H 826.538 -3.68079 -1.41109 0
M  V30 8805 H 827.826 -4.56343 -2.25007 0
M  V30 8806 H 827.224 -2.81434 -4.90725 0
M  V30 8807 H 825.781 -3.57045 -5.45309 0
M  V30 8808 N 829.214 0.302327 -1.54673 0
M  V30 8809 C 830.463 1.03533 -1.73101 0
M  V30 8810 C 830.776 1.88473 -0.523174 0
M  V30 8811 O 831.982 2.65029 -0.589229 0
M  V30 8812 C 830.438 1.89043 -3.06252 0
M  V30 8813 C 830.046 1.09112 -4.3451 0
M  V30 8814 C 831.79 2.61951 -3.34039 0
M  V30 8815 C 829.697 1.93891 -5.58713 0
M  V30 8816 H 828.627 0.390261 -0.645145 0
M  V30 8817 H 831.278 0.2924 -1.81155 0
M  V30 8818 H 829.66 2.67319 -2.92159 0
M  V30 8819 H 830.834 0.354596 -4.59434 0
M  V30 8820 H 829.149 0.477923 -4.13648 0
M  V30 8821 H 831.746 3.25729 -4.24033 0
M  V30 8822 H 832.089 3.30711 -2.52855 0
M  V30 8823 H 832.622 1.90725 -3.49097 0
M  V30 8824 H 829.361 1.29604 -6.4256 0
M  V30 8825 H 828.881 2.6522 -5.37976 0
M  V30 8826 H 830.56 2.51971 -5.95919 0
M  V30 8827 N 830.692 1.47107 0.565454 0
M  V30 8828 C 831.622 1.61846 1.68309 0
M  V30 8829 C 832.603 0.468159 1.63531 0
M  V30 8830 O 833.788 0.696504 1.8128 0
M  V30 8831 C 830.918 1.62474 3.06952 0
M  V30 8832 C 829.872 2.76649 3.26572 0
M  V30 8833 C 829.198 2.62345 4.65917 0
M  V30 8834 C 830.498 4.18319 3.12741 0
M  V30 8835 H 832.192 2.55407 1.5623 0
M  V30 8836 H 829.738 1.22916 0.750179 0
M  V30 8837 H 831.691 1.71378 3.84977 0
M  V30 8838 H 830.415 0.654692 3.19971 0
M  V30 8839 H 829.074 2.67242 2.50952 0
M  V30 8840 H 828.722 1.63386 4.75725 0
M  V30 8841 H 828.422 3.38936 4.79996 0
M  V30 8842 H 829.946 2.73165 5.46089 0
M  V30 8843 H 831.36 4.28745 3.80593 0
M  V30 8844 H 829.757 4.95632 3.38333 0
M  V30 8845 H 830.827 4.37263 2.09592 0
M  V30 8846 N 832.17 -0.811516 1.35101 0
M  V30 8847 C 833.419 -1.56343 1.27435 0
M  V30 8848 C 833.732 -1.95019 -0.150696 0
M  V30 8849 O 834.938 -2.6924 -0.349586 0
M  V30 8850 C 833.394 -2.82124 2.23459 0
M  V30 8851 C 833.002 -2.50706 3.71283 0
M  V30 8852 C 834.746 -3.60137 2.24726 0
M  V30 8853 C 832.653 -3.72748 4.59143 0
M  V30 8854 H 831.583 -0.58682 0.473453 0
M  V30 8855 H 834.234 -0.892465 1.60335 0
M  V30 8856 H 832.616 -3.50905 1.83525 0
M  V30 8857 H 833.79 -1.89962 4.19823 0
M  V30 8858 H 832.105 -1.85947 3.72576 0
M  V30 8859 H 834.702 -4.50775 2.87587 0
M  V30 8860 H 835.045 -3.97101 1.24965 0
M  V30 8861 H 835.578 -2.98311 2.63164 0
M  V30 8862 H 832.317 -3.40896 5.59884 0
M  V30 8863 H 831.837 -4.32735 4.15332 0
M  V30 8864 H 833.516 -4.40033 4.74321 0
M  V30 8865 N 833.648 -1.19017 -1.03309 0
M  V30 8866 C 834.558 -0.939303 -2.14975 0
M  V30 8867 C 835.574 0.0992359 -1.73717 0
M  V30 8868 O 836.75 -0.0844362 -2.01223 0
M  V30 8869 C 833.815 -0.476712 -3.43407 0
M  V30 8870 C 832.876 -1.58413 -3.99003 0
M  V30 8871 C 832.109 -1.14352 -5.21305 0
M  V30 8872 O 832.332 -0.00534408 -5.704 0
M  V30 8873 O 831.266 -1.94436 -5.6963 0
M  V30 8874 H 835.092 -1.87386 -2.38998 0
M  V30 8875 H 832.677 -0.972635 -1.13403 0
M  V30 8876 H 834.559 -0.22718 -4.20787 0
M  V30 8877 H 833.234 0.429455 -3.20839 0
M  V30 8878 H 832.141 -1.88777 -3.22977 0
M  V30 8879 H 833.474 -2.4667 -4.25928 0
M  V30 8880 N 835.127 1.22348 -0.993418 0
M  V30 8881 C 836.376 1.90422 -0.665019 0
M  V30 8882 C 836.689 1.78199 0.806512 0
M  V30 8883 O 837.895 2.41193 1.24652 0
M  V30 8884 C 836.351 3.41403 -1.13893 0
M  V30 8885 C 835.959 3.62262 -2.63572 0
M  V30 8886 C 837.703 4.15175 -0.884884 0
M  V30 8887 C 835.61 5.06947 -3.04564 0
M  V30 8888 H 834.54 0.713073 -0.245037 0
M  V30 8889 H 837.191 1.3856 -1.20305 0
M  V30 8890 H 835.573 3.9245 -0.529027 0
M  V30 8891 H 836.747 3.21705 -3.29913 0
M  V30 8892 H 835.062 3.01824 -2.86865 0
M  V30 8893 H 837.659 5.21813 -1.16684 0
M  V30 8894 H 838.002 4.15915 0.178982 0
M  V30 8895 H 838.535 3.70157 -1.45701 0
M  V30 8896 H 835.274 5.11346 -4.10128 0
M  V30 8897 H 834.794 5.48404 -2.42927 0
M  V30 8898 H 836.473 5.75374 -2.95894 0
M  V30 8899 N 836.605 0.766683 1.37694 0
M  V30 8900 C 837.845 0.333815 2.01656 0
M  V30 8901 C 838.209 -1.06813 1.59546 0
M  V30 8902 O 839.41 -1.60084 2.15932 0
M  V30 8903 C 837.681 0.467032 3.54335 0
M  V30 8904 S 839.24 0.118679 4.38639 0
M  V30 8905 H 836.058 0.128723 0.699251 0
M  V30 8906 H 838.66 1.00018 1.67978 0
M  V30 8907 H 837.364 1.48808 3.82471 0
M  V30 8908 H 836.895 -0.216066 3.92806 0
M  V30 8909 H 838.91 -1.08746 4.84137 0
M  V30 8910 N 838.083 -1.48885 0.516809 0
M  V30 8911 C 839.331 -2.02088 -0.0220166 0
M  V30 8912 C 839.652 -1.39735 -1.36011 0
M  V30 8913 O 838.922 -0.558119 -1.87781 0
M  V30 8914 H 837.502 -0.746917 -0.0111255 0
M  V30 8915 H 840.164 -1.8274 0.677647 0
M  V30 8916 H 839.26 -3.11786 -0.140067 0
M  V30 8917 N 839.561 -0.251338 -1.55583 0
M  V30 8918 C 840.511 0.660351 -2.18228 0
M  V30 8919 C 841.495 1.13596 -1.13951 0
M  V30 8920 O 842.687 1.08499 -1.39846 0
M  V30 8921 C 839.816 1.85498 -2.88869 0
M  V30 8922 C 838.902 1.39767 -4.00407 0
M  V30 8923 N 839.293 0.654876 -5.01543 0
M  V30 8924 C 837.591 1.68259 -4.13044 0
M  V30 8925 C 838.292 0.417521 -5.802 0
M  V30 8926 N 837.268 0.983032 -5.34638 0
M  V30 8927 H 841.07 0.0847425 -2.93778 0
M  V30 8928 H 838.584 -0.0538456 -1.62311 0
M  V30 8929 H 840.581 2.51916 -3.3218 0
M  V30 8930 H 839.241 2.43477 -2.14823 0
M  V30 8931 H 840.252 0.304545 -5.17004 0
M  V30 8932 H 836.929 2.27344 -3.50172 0
M  V30 8933 H 838.319 -0.175764 -6.7167 0
M  V30 8934 N 841.039 1.57585 0.0217189 0
M  V30 8935 C 841.986 2.07036 1.02004 0
M  V30 8936 C 842.956 0.96106 1.35473 0
M  V30 8937 O 844.141 1.23211 1.45684 0
M  V30 8938 C 841.281 2.56056 2.31364 0
M  V30 8939 C 840.394 3.80805 2.03989 0
M  V30 8940 C 839.529 4.18409 3.27272 0
M  V30 8941 C 838.568 5.36055 2.95486 0
M  V30 8942 N 837.705 5.69056 4.11242 0
M  V30 8943 H 842.545 2.92073 0.591396 0
M  V30 8944 H 840.082 1.44403 0.280384 0
M  V30 8945 H 842.04 2.82548 3.06957 0
M  V30 8946 H 840.67 1.73925 2.71937 0
M  V30 8947 H 839.722 3.61354 1.1886 0
M  V30 8948 H 841.034 4.66512 1.76546 0
M  V30 8949 H 840.188 4.46068 4.11228 0
M  V30 8950 H 838.927 3.31369 3.57835 0
M  V30 8951 H 837.932 5.08142 2.09933 0
M  V30 8952 H 839.157 6.24755 2.66193 0
M  V30 8953 H 837.103 4.84974 4.41742 0
M  V30 8954 H 837.02 6.49288 3.87247 0
M  V30 8955 H 838.288 6.01295 4.96049 0
M  V30 8956 N 842.517 -0.29412 1.54831 0
M  V30 8957 C 843.48 -1.3461 1.85507 0
M  V30 8958 C 844.48 -1.43359 0.728343 0
M  V30 8959 O 845.67 -1.42875 0.996609 0
M  V30 8960 C 842.802 -2.73012 2.0415 0
M  V30 8961 H 843.995 -1.08651 2.79526 0
M  V30 8962 H 841.548 -0.531138 1.46999 0
M  V30 8963 H 842.283 -3.04183 1.12441 0
M  V30 8964 H 842.068 -2.68051 2.86166 0
M  V30 8965 H 843.558 -3.49061 2.29229 0
M  V30 8966 N 843.995 -1.47404 -0.557645 0
M  V30 8967 C 845.244 -1.53268 -1.31118 0
M  V30 8968 C 845.557 -0.199414 -1.94581 0
M  V30 8969 O 846.763 -0.136039 -2.71159 0
M  V30 8970 C 845.219 -2.70178 -2.37764 0
M  V30 8971 C 844.827 -4.10032 -1.80493 0
M  V30 8972 C 846.571 -2.85334 -3.14301 0
M  V30 8973 C 844.478 -5.18244 -2.84916 0
M  V30 8974 H 843.408 -0.570491 -0.493007 0
M  V30 8975 H 846.059 -1.73678 -0.592308 0
M  V30 8976 H 844.441 -2.43147 -3.12563 0
M  V30 8977 H 845.615 -4.46964 -1.12069 0
M  V30 8978 H 843.93 -3.99759 -1.16542 0
M  V30 8979 H 846.527 -3.63347 -3.92279 0
M  V30 8980 H 846.87 -1.93761 -3.68459 0
M  V30 8981 H 847.403 -3.12133 -2.46613 0
M  V30 8982 H 844.142 -6.11691 -2.35614 0
M  V30 8983 H 843.662 -4.85829 -3.51753 0
M  V30 8984 H 845.341 -5.45174 -3.48417 0
M  V30 8985 N 845.473 0.80434 -1.35529 0
M  V30 8986 C 846.721 1.55845 -1.28673 0
M  V30 8987 C 847.042 1.94511 0.137976 0
M  V30 8988 O 846.312 1.63775 1.07492 0
M  V30 8989 H 844.892 0.577931 -0.473291 0
M  V30 8990 H 847.554 0.959293 -1.69657 0
M  V30 8991 H 846.65 2.47285 -1.90411 0
M  V30 8992 N 846.951 1.19563 1.02676 0
M  V30 8993 C 848.179 1.02488 1.79732 0
M  V30 8994 C 848.594 -0.426302 1.83924 0
M  V30 8995 O 847.951 -1.29609 1.28483 0
M  V30 8996 C 848.002 1.58944 3.24683 0
M  V30 8997 O 847.723 2.98382 3.2078 0
M  V30 8998 C 849.224 1.46681 4.1833 0
M  V30 8999 H 846.444 0.361098 0.565552 0
M  V30 9000 H 848.988 1.58426 1.29311 0
M  V30 9001 H 847.143 1.0715 3.72287 0
M  V30 9002 H 847.557 3.24983 4.11687 0
M  V30 9003 H 849.031 1.90959 5.17918 0
M  V30 9004 H 849.508 0.417663 4.3721 0
M  V30 9005 H 850.114 1.97616 3.76601 0
M  V30 9006 N 848.429 -1.21819 0.999893 0
M  V30 9007 C 849.675 -1.91035 0.680701 0
M  V30 9008 C 850.008 -1.77582 -0.786021 0
M  V30 9009 O 849.283 -1.14917 -1.56921 0
M  V30 9010 C 849.566 -3.43013 1.0961 0
M  V30 9011 C 849.419 -3.65481 2.6219 0
M  V30 9012 C 850.738 -4.35204 0.654616 0
M  V30 9013 H 847.857 -0.693748 0.248763 0
M  V30 9014 H 850.499 -1.43555 1.24466 0
M  V30 9015 H 848.649 -3.83581 0.616253 0
M  V30 9016 H 850.321 -3.34273 3.17899 0
M  V30 9017 H 848.564 -3.09522 3.03938 0
M  V30 9018 H 849.235 -4.71945 2.86307 0
M  V30 9019 H 851.711 -4.0219 1.06688 0
M  V30 9020 H 850.587 -5.40198 0.973492 0
M  V30 9021 H 850.848 -4.3986 -0.444458 0
M  V30 9022 N 849.908 -0.773975 -1.37286 0
M  V30 9023 C 850.838 -0.175782 -2.32837 0
M  V30 9024 C 851.819 0.680603 -1.5589 0
M  V30 9025 O 853.004 0.617607 -1.84117 0
M  V30 9026 C 850.134 0.702388 -3.40123 0
M  V30 9027 C 849.088 -0.0528687 -4.27967 0
M  V30 9028 C 848.414 0.944891 -5.26285 0
M  V30 9029 C 849.714 -1.23316 -5.07534 0
M  V30 9030 H 851.408 -0.974016 -2.83114 0
M  V30 9031 H 848.954 -0.469826 -1.3612 0
M  V30 9032 H 850.907 1.13069 -4.05947 0
M  V30 9033 H 849.631 1.53316 -2.88378 0
M  V30 9034 H 848.29 -0.461978 -3.63678 0
M  V30 9035 H 847.938 1.77028 -4.70819 0
M  V30 9036 H 847.638 0.444079 -5.8592 0
M  V30 9037 H 849.162 1.37209 -5.94984 0
M  V30 9038 H 850.576 -0.881395 -5.66484 0
M  V30 9039 H 848.973 -1.66621 -5.76504 0
M  V30 9040 H 850.043 -2.03617 -4.40077 0
M  V30 9041 N 851.386 1.48609 -0.524698 0
M  V30 9042 C 852.632 2.02797 0.0113382 0
M  V30 9043 C 852.965 1.40147 1.34433 0
M  V30 9044 O 852.24 0.545368 1.86698 0
M  V30 9045 C 852.523 3.59832 0.138931 0
M  V30 9046 C 852.376 4.32971 -1.21886 0
M  V30 9047 C 853.695 4.3145 0.868265 0
M  V30 9048 H 850.814 0.736995 0.00264645 0
M  V30 9049 H 853.456 1.77388 -0.680704 0
M  V30 9050 H 851.606 3.81612 0.72834 0
M  V30 9051 H 853.278 4.22624 -1.84897 0
M  V30 9052 H 851.521 3.94597 -1.80211 0
M  V30 9053 H 852.192 5.41279 -1.08263 0
M  V30 9054 H 854.668 4.14468 0.368145 0
M  V30 9055 H 853.544 5.41025 0.926428 0
M  V30 9056 H 853.805 3.98358 1.91737 0
M  V30 9057 N 852.864 0.259585 1.55447 0
M  V30 9058 C 854.112 -0.360893 1.98852 0
M  V30 9059 C 854.433 -1.57535 1.14924 0
M  V30 9060 O 853.703 -1.94485 0.235025 0
M  V30 9061 H 852.283 -0.136332 0.734454 0
M  V30 9062 H 854.945 0.361319 1.91522 0
M  V30 9063 H 854.041 -0.661388 3.05012 0
M  V30 9064 N 854.342 -1.57594 -0.0133615 0
M  V30 9065 C 855.753 -1.78168 -0.557937 0
M  V30 9066 C 856.104 -0.892616 -1.74719 0
M  V30 9067 O 855.229 -0.0915491 -2.16206 0
M  V30 9068 C 855.824 -3.23115 -1.01894 0
M  V30 9069 C 854.383 -3.44831 -1.50892 0
M  V30 9070 C 853.53 -2.73558 -0.454044 0
M  V30 9071 H 856.481 -1.57266 0.212843 0
M  V30 9072 H 856.502 -3.30493 -1.8856 0
M  V30 9073 H 856.014 -3.87798 -0.153175 0
M  V30 9074 H 854.115 -2.85345 -2.39602 0
M  V30 9075 H 854.228 -4.53485 -1.54559 0
M  V30 9076 H 852.592 -2.37787 -0.912666 0
M  V30 9077 H 853.375 -3.40932 0.402524 0
M  V30 9078 N 855.82 0.285905 -1.54985 0
M  V30 9079 C 857.048 1.03776 -1.78992 0
M  V30 9080 C 857.463 1.80402 -0.556814 0
M  V30 9081 O 856.82 1.76242 0.473801 0
M  V30 9082 C 856.871 2.0065 -3.00702 0
M  V30 9083 O 856.592 1.27131 -4.19249 0
M  V30 9084 C 858.093 2.87753 -3.37214 0
M  V30 9085 H 855.313 0.307126 -0.596586 0
M  V30 9086 H 857.857 0.3206 -2.01971 0
M  V30 9087 H 856.012 2.67847 -2.79887 0
M  V30 9088 H 856.426 1.92316 -4.8797 0
M  V30 9089 H 857.9 3.51548 -4.2558 0
M  V30 9090 H 858.377 3.56848 -2.56039 0
M  V30 9091 H 858.983 2.26065 -3.60242 0
M  V30 9092 N 857.298 1.47698 0.54982 0
M  V30 9093 C 858.709 1.48474 1.13191 0
M  V30 9094 C 859.06 0.243504 1.94683 0
M  V30 9095 O 858.185 -0.651009 2.06375 0
M  V30 9096 C 858.78 2.69022 2.05944 0
M  V30 9097 C 857.339 2.72733 2.5941 0
M  V30 9098 C 856.486 2.41691 1.35944 0
M  V30 9099 H 859.437 1.55101 0.336048 0
M  V30 9100 H 859.458 2.46412 2.89934 0
M  V30 9101 H 858.97 3.59345 1.46605 0
M  V30 9102 H 857.071 1.86568 3.22526 0
M  V30 9103 H 857.184 3.73628 2.99899 0
M  V30 9104 H 855.548 1.92428 1.66864 0
M  V30 9105 H 856.331 3.34231 0.783869 0
M  V30 9106 N 858.776 -0.797141 1.35954 0
M  V30 9107 C 860.022 -1.55698 1.29946 0
M  V30 9108 C 860.355 -1.93808 -0.123259 0
M  V30 9109 O 859.63 -1.62102 -1.07486 0
M  V30 9110 C 859.913 -2.83926 2.2149 0
M  V30 9111 C 859.766 -2.52232 3.72423 0
M  V30 9112 C 861.085 -3.85698 2.11955 0
M  V30 9113 H 858.204 -0.56488 0.47337 0
M  V30 9114 H 860.846 -0.916421 1.66438 0
M  V30 9115 H 858.996 -3.38588 1.905 0
M  V30 9116 H 860.668 -2.0368 4.13899 0
M  V30 9117 H 858.911 -1.85286 3.92239 0
M  V30 9118 H 859.582 -3.43782 4.31877 0
M  V30 9119 H 862.058 -3.40462 2.39218 0
M  V30 9120 H 860.934 -4.73182 2.78191 0
M  V30 9121 H 861.195 -4.28083 1.10442 0
M  V30 9122 N 860.254 -1.20106 -1.0204 0
M  V30 9123 C 861.202 -0.943231 -2.12617 0
M  V30 9124 C 862.196 0.104042 -1.6908 0
M  V30 9125 O 863.402 -0.0459732 -1.79941 0
M  V30 9126 H 859.777 -0.28767 -0.694802 0
M  V30 9127 H 861.748 -1.88221 -2.3155 0
M  V30 9128 C 860.497 -0.50771 -3.43973 0
M  V30 9129 H 859.82 -1.30514 -3.77897 0
M  V30 9130 H 861.26 -0.366486 -4.22413 0
M  V30 9131 C 859.719 0.77939 -3.27761 0
M  V30 9132 O 860.249 1.83876 -3.57145 0
M  V30 9133 N 858.455 0.739931 -2.81022 0
M  V30 9134 H 858.002 -0.122426 -2.57309 0
M  V30 9135 H 857.96 1.60147 -2.70556 0
M  V30 9136 N 861.732 1.21287 -1.00634 0
M  V30 9137 C 862.981 1.89706 -0.685178 0
M  V30 9138 C 863.294 1.79044 0.787566 0
M  V30 9139 O 864.5 2.42502 1.22086 0
M  V30 9140 C 862.956 3.40176 -1.17508 0
M  V30 9141 C 862.564 3.59446 -2.674 0
M  V30 9142 C 864.308 4.14213 -0.928869 0
M  V30 9143 C 862.215 5.03688 -3.09923 0
M  V30 9144 H 861.145 0.710434 -0.252586 0
M  V30 9145 H 863.796 1.37277 -1.21768 0
M  V30 9146 H 862.178 3.91867 -0.570622 0
M  V30 9147 H 863.352 3.18188 -3.33306 0
M  V30 9148 H 861.667 2.98764 -2.9005 0
M  V30 9149 H 864.264 5.20546 -1.22212 0
M  V30 9150 H 864.607 4.16082 0.134859 0
M  V30 9151 H 865.14 3.68591 -1.49619 0
M  V30 9152 H 861.879 5.06968 -4.15529 0
M  V30 9153 H 861.399 5.45796 -2.4873 0
M  V30 9154 H 863.078 5.72204 -3.0198 0
M  V30 9155 N 863.21 0.781244 1.36873 0
M  V30 9156 C 864.459 0.34652 1.98701 0
M  V30 9157 C 864.772 -1.08555 1.62712 0
M  V30 9158 O 865.978 -1.62213 2.17713 0
M  V30 9159 C 864.434 0.568611 3.5538 0
M  V30 9160 C 864.042 2.01156 4.003 0
M  V30 9161 C 865.786 0.197983 4.24038 0
M  V30 9162 C 863.693 2.18074 5.49725 0
M  V30 9163 H 862.623 0.125821 0.743428 0
M  V30 9164 H 865.274 0.961721 1.56279 0
M  V30 9165 H 863.656 -0.116185 3.9583 0
M  V30 9166 H 864.83 2.73209 3.71071 0
M  V30 9167 H 863.145 2.33967 3.44454 0
M  V30 9168 H 865.742 0.302778 5.33842 0
M  V30 9169 H 866.085 -0.852927 4.07469 0
M  V30 9170 H 866.618 0.835696 3.88923 0
M  V30 9171 H 863.357 3.21519 5.71232 0
M  V30 9172 H 862.877 1.50517 5.80607 0
M  V30 9173 H 864.556 1.98393 6.15832 0
M  V30 9174 N 864.689 -1.48329 0.532571 0
M  V30 9175 C 865.937 -2.021 -0.000581206 0
M  V30 9176 C 866.258 -1.4117 -1.34522 0
M  V30 9177 O 865.528 -0.578005 -1.87179 0
M  V30 9178 H 864.108 -0.746993 -0.00320281 0
M  V30 9179 H 866.77 -1.82011 0.696991 0
M  V30 9180 H 865.866 -3.11917 -0.106991 0
M  V30 9181 N 866.167 -0.267825 -1.55308 0
M  V30 9182 C 867.583 0.0865107 -1.59365 0
M  V30 9183 C 867.783 1.55205 -1.28505 0
M  V30 9184 O 866.839 2.29978 -1.04241 0
M  V30 9185 C 868.152 -0.28155 -2.99379 0
M  V30 9186 C 869.7 -0.227565 -3.12172 0
M  V30 9187 C 870.175 -0.569959 -4.5444 0
M  V30 9188 N 871.666 -0.521238 -4.60258 0
M  V30 9189 C 872.401 -0.759061 -5.68354 0
M  V30 9190 N 871.897 -1.06112 -6.84626 0
M  V30 9191 N 873.69 -0.688351 -5.57869 0
M  V30 9192 H 865.841 -1.22332 -1.73633 0
M  V30 9193 H 868.104 -0.493703 -0.809297 0
M  V30 9194 H 867.81 -1.3005 -3.26772 0
M  V30 9195 H 867.684 0.381192 -3.75269 0
M  V30 9196 H 870.071 0.782093 -2.84548 0
M  V30 9197 H 870.152 -0.924461 -2.38511 0
M  V30 9198 H 869.796 -1.57727 -4.82788 0
M  V30 9199 H 869.726 0.148646 -5.2639 0
M  V30 9200 H 872.217 -0.297359 -3.76728 0
M  V30 9201 H 872.53 -1.22945 -7.62958 0
M  V30 9202 H 870.875 -1.09881 -6.86259 0
M  V30 9203 H 874.066 -0.452268 -4.6591 0
M  V30 9204 H 874.239 -0.877081 -6.42037 0
M  V30 9205 N 867.645 1.57599 0.00500368 0
M  V30 9206 C 868.593 2.09223 1.01628 0
M  V30 9207 C 869.587 1.01113 1.35913 0
M  V30 9208 O 870.793 1.19583 1.34536 0
M  V30 9209 H 867.168 0.667999 0.345372 0
M  V30 9210 H 869.139 2.93188 0.555274 0
M  V30 9211 C 867.888 2.60674 2.30097 0
M  V30 9212 H 867.211 3.43491 2.04582 0
M  V30 9213 H 868.651 3.00479 2.99146 0
M  V30 9214 C 867.11 1.51862 3.00731 0
M  V30 9215 O 867.64 0.898651 3.91519 0
M  V30 9216 N 865.846 1.24729 2.62471 0
M  V30 9217 H 865.393 1.7533 1.88725 0
M  V30 9218 H 865.351 0.521437 3.10046 0
M  V30 9219 N 869.123 -0.277682 1.55134 0
M  V30 9220 C 870.053 -1.34742 1.90701 0
M  V30 9221 C 871.034 -1.51757 0.768354 0
M  V30 9222 O 872.219 -1.64879 1.02609 0
M  V30 9223 C 869.349 -2.70775 2.17481 0
M  V30 9224 C 868.303 -2.68497 3.33307 0
M  V30 9225 C 867.629 -4.08037 3.45557 0
M  V30 9226 C 868.929 -2.28178 4.69821 0
M  V30 9227 H 870.623 -1.05224 2.803 0
M  V30 9228 H 868.169 -0.504738 1.34864 0
M  V30 9229 H 870.122 -3.45719 2.40949 0
M  V30 9230 H 868.846 -3.01867 1.24676 0
M  V30 9231 H 867.505 -1.9601 3.09799 0
M  V30 9232 H 867.153 -4.36344 2.50226 0
M  V30 9233 H 866.853 -4.07409 4.23429 0
M  V30 9234 H 868.377 -4.84726 3.71312 0
M  V30 9235 H 869.791 -2.92843 4.92865 0
M  V30 9236 H 868.188 -2.3872 5.50575 0
M  V30 9237 H 869.258 -1.23308 4.6896 0
M  V30 9238 N 870.601 -1.47988 -0.541979 0
M  V30 9239 C 871.531 -1.64503 -1.65713 0
M  V30 9240 C 872.512 -0.494116 -1.62765 0
M  V30 9241 O 873.697 -0.725256 -1.80149 0
M  V30 9242 C 870.827 -1.67337 -3.04328 0
M  V30 9243 C 869.781 -2.81809 -3.2213 0
M  V30 9244 C 869.107 -2.69724 -4.61685 0
M  V30 9245 C 870.407 -4.23241 -3.06046 0
M  V30 9246 H 872.101 -2.5786 -1.52147 0
M  V30 9247 H 869.647 -1.24094 -0.730529 0
M  V30 9248 H 871.6 -1.77481 -3.82202 0
M  V30 9249 H 870.324 -0.705514 -3.18889 0
M  V30 9250 H 868.983 -2.71201 -2.46669 0
M  V30 9251 H 868.631 -1.70934 -4.73065 0
M  V30 9252 H 868.331 -3.4653 -4.74543 0
M  V30 9253 H 869.855 -2.81818 -5.41674 0
M  V30 9254 H 871.269 -4.34746 -3.73723 0
M  V30 9255 H 869.666 -5.00952 -3.30405 0
M  V30 9256 H 870.736 -4.40543 -2.02609 0
M  V30 9257 N 872.079 0.78992 -1.36375 0
M  V30 9258 C 873.307 1.57873 -1.3373 0
M  V30 9259 C 873.722 1.88624 0.0815544 0
M  V30 9260 O 873.079 1.50085 1.03831 0
M  V30 9261 C 873.13 2.90003 -2.15825 0
M  V30 9262 O 872.851 2.60578 -3.5218 0
M  V30 9263 C 874.352 3.84309 -2.20955 0
M  V30 9264 H 871.572 0.489685 -0.458748 0
M  V30 9265 H 874.116 0.980436 -1.79465 0
M  V30 9266 H 872.271 3.46303 -1.73646 0
M  V30 9267 H 872.685 3.4506 -3.95011 0
M  V30 9268 H 874.159 4.74081 -2.82756 0
M  V30 9269 H 874.636 4.22121 -1.21287 0
M  V30 9270 H 875.242 3.33942 -2.63368 0
M  V30 9271 N 873.557 1.20646 1.01402 0
M  V30 9272 C 874.489 0.915392 2.10127 0
M  V30 9273 C 875.502 -0.0978705 1.62506 0
M  V30 9274 O 876.691 0.133477 1.78 0
M  V30 9275 C 873.791 0.351304 3.37074 0
M  V30 9276 C 872.964 1.41673 4.13821 0
M  V30 9277 C 872.023 0.8635 5.19067 0
M  V30 9278 O 871.049 1.54481 5.47836 0
M  V30 9279 N 872.251 -0.325799 5.79585 0
M  V30 9280 H 875.016 1.85132 2.35682 0
M  V30 9281 H 872.577 1.11048 1.17813 0
M  V30 9282 H 874.569 -0.032996 4.04687 0
M  V30 9283 H 873.139 -0.489242 3.08748 0
M  V30 9284 H 872.359 1.97526 3.41141 0
M  V30 9285 H 873.647 2.1342 4.61876 0
M  V30 9286 H 873.045 -0.896534 5.58551 0
M  V30 9287 H 871.602 -0.651708 6.48534 0
M  V30 9288 N 875.035 -1.20752 1.01276 0
M  V30 9289 C 876.284 -1.8934 0.695229 0
M  V30 9290 C 876.597 -1.79459 -0.77806 0
M  V30 9291 O 877.803 -2.43146 -1.20799 0
M  V30 9292 C 876.259 -3.39548 1.1931 0
M  V30 9293 C 875.867 -3.58023 2.69302 0
M  V30 9294 C 877.611 -4.13714 0.950823 0
M  V30 9295 C 875.518 -5.02037 3.1259 0
M  V30 9296 H 874.448 -0.709084 0.25635 0
M  V30 9297 H 877.099 -1.36629 1.22494 0
M  V30 9298 H 875.481 -3.91559 0.591395 0
M  V30 9299 H 876.655 -3.16416 3.34989 0
M  V30 9300 H 874.97 -2.97222 2.9163 0
M  V30 9301 H 877.567 -5.19891 1.24971 0
M  V30 9302 H 877.91 -4.16147 -0.112791 0
M  V30 9303 H 878.443 -3.67792 1.51571 0
M  V30 9304 H 875.182 -5.04757 4.18211 0
M  V30 9305 H 874.702 -5.44469 2.51621 0
M  V30 9306 H 876.381 -5.70594 3.0501 0
M  V30 9307 N 876.513 -0.788492 -1.36457 0
M  V30 9308 C 877.761 -0.359749 -1.98872 0
M  V30 9309 C 878.082 1.07197 -1.62892 0
M  V30 9310 O 877.352 1.73875 -0.902463 0
M  V30 9311 H 875.932 -0.130029 -0.735596 0
M  V30 9312 H 878.594 -1.01033 -1.66668 0
M  V30 9313 H 877.69 -0.450835 -3.08827 0
M  V30 9314 N 877.991 1.48044 -0.54043 0
M  V30 9315 C 879.231 2.04396 -0.012296 0
M  V30 9316 C 879.595 1.40748 1.30591 0
M  V30 9317 O 880.796 1.88048 1.92072 0
M  V30 9318 C 879.067 3.5727 0.0964302 0
M  V30 9319 S 880.626 4.35041 0.573117 0
M  V30 9320 H 877.444 0.710795 -0.0170735 0
M  V30 9321 H 880.046 1.81625 -0.723362 0
M  V30 9322 H 878.75 4.01124 -0.86762 0
M  V30 9323 H 878.281 3.84511 0.83156 0
M  V30 9324 H 880.296 4.6099 1.83583 0
M  V30 9325 N 879.47 0.276058 1.55163 0
M  V30 9326 C 880.698 -0.343772 2.04024 0
M  V30 9327 C 881.113 -1.49397 1.15438 0
M  V30 9328 O 880.47 -1.81662 0.174692 0
M  V30 9329 C 880.521 -0.823885 3.51986 0
M  V30 9330 O 880.242 0.280507 4.37201 0
M  V30 9331 C 881.743 -1.51143 4.16738 0
M  V30 9332 H 878.963 -0.07828 0.666418 0
M  V30 9333 H 881.507 0.408427 2.0038 0
M  V30 9334 H 879.662 -1.52617 3.56071 0
M  V30 9335 H 880.076 -0.0887831 5.24425 0
M  V30 9336 H 881.55 -1.79878 5.2187 0
M  V30 9337 H 882.027 -2.44327 3.64967 0
M  V30 9338 H 882.633 -0.852975 4.16659 0
M  V30 9339 N 880.948 -1.576 0.00335426 0
M  V30 9340 C 881.878 -2.11668 -0.985839 0
M  V30 9341 C 882.859 -1.02661 -1.35627 0
M  V30 9342 O 884.044 -1.30361 -1.43943 0
M  V30 9343 C 881.174 -2.62273 -2.27662 0
M  V30 9344 C 880.128 -3.75837 -2.0477 0
M  V30 9345 C 879.454 -4.12769 -3.39891 0
M  V30 9346 C 880.754 -5.02975 -1.40759 0
M  V30 9347 H 882.448 -2.9457 -0.535637 0
M  V30 9348 H 879.994 -1.41702 -0.256204 0
M  V30 9349 H 881.947 -2.98727 -2.97221 0
M  V30 9350 H 880.671 -1.76498 -2.74802 0
M  V30 9351 H 879.33 -3.39782 -1.37636 0
M  V30 9352 H 878.978 -3.24013 -3.8474 0
M  V30 9353 H 878.678 -4.89281 -3.25389 0
M  V30 9354 H 880.202 -4.51784 -4.1076 0
M  V30 9355 H 881.616 -5.37179 -2.00279 0
M  V30 9356 H 880.013 -5.84315 -1.36734 0
M  V30 9357 H 881.083 -4.83431 -0.377218 0
M  V30 9358 N 882.426 0.269451 -1.5528 0
M  V30 9359 C 883.374 1.35303 -1.89198 0
M  V30 9360 C 884.368 1.50956 -0.768671 0
M  V30 9361 O 885.574 1.52699 -0.953054 0
M  V30 9362 H 881.949 0.452591 -0.600554 0
M  V30 9363 H 883.92 1.03949 -2.79709 0
M  V30 9364 C 882.669 2.70585 -2.18356 0
M  V30 9365 H 881.992 2.59332 -3.04281 0
M  V30 9366 H 883.432 3.45335 -2.46007 0
M  V30 9367 C 881.891 3.21954 -0.992327 0
M  V30 9368 O 882.421 4.01048 -0.228769 0
M  V30 9369 N 880.627 2.79682 -0.789062 0
M  V30 9370 H 880.174 2.15475 -1.41167 0
M  V30 9371 H 880.132 3.14399 0.00634776 0
M  V30 9372 N 883.904 1.48273 0.534124 0
M  V30 9373 C 885.151 1.56079 1.29017 0
M  V30 9374 C 885.479 0.232912 1.931 0
M  V30 9375 O 884.734 -0.77642 1.79639 0
M  V30 9376 C 885.033 2.64468 2.40398 0
M  V30 9377 C 884.699 4.07034 1.93995 0
M  V30 9378 C 883.361 4.45838 1.81058 0
M  V30 9379 C 885.713 4.96395 1.58877 0
M  V30 9380 C 883.041 5.71812 1.31331 0
M  V30 9381 C 885.393 6.22854 1.10614 0
M  V30 9382 C 884.057 6.60518 0.962895 0
M  V30 9383 H 883.327 0.571135 0.472108 0
M  V30 9384 H 885.974 1.81973 0.5965 0
M  V30 9385 H 884.279 2.32419 3.15418 0
M  V30 9386 H 885.976 2.67725 2.98537 0
M  V30 9387 H 882.566 3.76387 2.05015 0
M  V30 9388 H 886.75 4.67096 1.67734 0
M  V30 9389 H 882.006 5.99722 1.18924 0
M  V30 9390 H 886.18 6.91495 0.825095 0
M  V30 9391 H 883.807 7.58019 0.575369 0
M  V30 9392 N 885.382 -0.782676 1.36792 0
M  V30 9393 C 886.793 -1.35828 1.28092 0
M  V30 9394 C 887.144 -1.96052 -0.076315 0
M  V30 9395 O 886.269 -1.93042 -0.977935 0
M  V30 9396 C 886.864 -2.46949 2.31952 0
M  V30 9397 C 885.423 -3.00307 2.2692 0
M  V30 9398 C 884.57 -1.73436 2.16368 0
M  V30 9399 H 887.521 -0.583788 1.47572 0
M  V30 9400 H 887.542 -3.26144 1.95986 0
M  V30 9401 H 887.054 -2.03087 3.30722 0
M  V30 9402 H 885.155 -3.48571 1.31639 0
M  V30 9403 H 885.268 -3.56663 3.19887 0
M  V30 9404 H 883.632 -1.95934 1.62733 0
M  V30 9405 H 884.415 -1.31693 3.17036 0
M  V30 9406 N 886.86 -1.21182 -1.00761 0
M  V30 9407 C 888.109 -1.02166 -1.73911 0
M  V30 9408 C 888.422 0.445638 -1.90456 0
M  V30 9409 O 889.628 0.755132 -2.60787 0
M  V30 9410 C 888.084 -1.77936 -3.12837 0
M  V30 9411 C 887.692 -3.28819 -3.04273 0
M  V30 9412 C 889.436 -1.67319 -3.90134 0
M  V30 9413 C 887.343 -3.97089 -4.38262 0
M  V30 9414 H 886.273 -0.378665 -0.652019 0
M  V30 9415 H 888.924 -1.44891 -1.12601 0
M  V30 9416 H 887.306 -1.28003 -3.74742 0
M  V30 9417 H 888.48 -3.86035 -2.51622 0
M  V30 9418 H 886.795 -3.39949 -2.40465 0
M  V30 9419 H 889.392 -2.15659 -4.8928 0
M  V30 9420 H 889.735 -0.630959 -4.11491 0
M  V30 9421 H 890.268 -2.14716 -3.34876 0
M  V30 9422 H 887.007 -5.01503 -4.22107 0
M  V30 9423 H 886.527 -3.44662 -4.90885 0
M  V30 9424 H 888.206 -4.01854 -5.07072 0
M  V30 9425 N 888.338 1.20213 -1.01915 0
M  V30 9426 C 889.563 1.94163 -0.729076 0
M  V30 9427 C 889.988 1.74416 0.704323 0
M  V30 9428 O 889.346 1.0401 1.48498 0
M  V30 9429 C 889.394 3.44258 -1.07324 0
M  V30 9430 O 888.498 4.11979 -0.186367 0
M  V30 9431 H 887.839 0.606506 -0.270272 0
M  V30 9432 H 890.369 1.52571 -1.3632 0
M  V30 9433 H 890.379 3.94888 -1.02603 0
M  V30 9434 H 889.054 3.57954 -2.11759 0
M  V30 9435 H 887.631 3.7176 -0.291334 0
M  V30 9436 N 889.816 0.795718 1.36037 0
M  V30 9437 C 891.227 0.433379 1.816 0
M  V30 9438 C 891.578 -1.04341 1.66155 0
M  V30 9439 O 890.703 -1.81004 1.18603 0
M  V30 9440 C 891.298 0.77985 3.29703 0
M  V30 9441 C 889.857 0.470256 3.73451 0
M  V30 9442 C 889.004 1.01119 2.58206 0
M  V30 9443 H 891.955 0.988317 1.24169 0
M  V30 9444 H 891.976 0.0732898 3.80429 0
M  V30 9445 H 891.488 1.85473 3.40913 0
M  V30 9446 H 889.589 -0.596332 3.67797 0
M  V30 9447 H 889.702 0.995276 4.68648 0
M  V30 9448 H 888.066 0.434077 2.50974 0
M  V30 9449 H 888.849 2.09196 2.72198 0
M  V30 9450 N 891.294 -1.47756 0.548274 0
M  V30 9451 C 892.543 -2.01691 0.0187961 0
M  V30 9452 C 892.856 -1.42894 -1.33569 0
M  V30 9453 O 894.062 -1.88438 -1.95457 0
M  V30 9454 C 892.518 -3.59896 -0.016847 0
M  V30 9455 C 892.126 -4.27683 1.33385 0
M  V30 9456 C 893.87 -4.21614 -0.494188 0
M  V30 9457 C 891.777 -5.7787 1.2578 0
M  V30 9458 H 890.707 -0.753993 0.00325648 0
M  V30 9459 H 893.358 -1.69838 0.694792 0
M  V30 9460 H 891.74 -3.88672 -0.758304 0
M  V30 9461 H 892.914 -4.10559 2.09232 0
M  V30 9462 H 891.229 -3.77915 1.7484 0
M  V30 9463 H 893.826 -5.3166 -0.569342 0
M  V30 9464 H 894.169 -3.88176 -1.50417 0
M  V30 9465 H 894.702 -3.97336 0.192138 0
M  V30 9466 H 891.441 -6.15912 2.2435 0
M  V30 9467 H 890.961 -5.97355 0.540997 0
M  V30 9468 H 892.64 -6.39897 0.956109 0
M  V30 9469 N 892.772 -0.284283 -1.55015 0
M  V30 9470 C 893.682 0.60906 -2.26556 0
M  V30 9471 C 894.698 1.16246 -1.29472 0
M  V30 9472 O 895.874 1.1908 -1.62425 0
M  V30 9473 C 892.939 1.77246 -2.97968 0
M  V30 9474 C 892 1.25482 -4.10552 0
M  V30 9475 C 891.233 2.36277 -4.78549 0
M  V30 9476 O 891.456 3.55829 -4.45805 0
M  V30 9477 O 890.39 2.03914 -5.66306 0
M  V30 9478 H 894.216 0.0292298 -3.03686 0
M  V30 9479 H 891.801 -0.0513466 -1.49312 0
M  V30 9480 H 893.683 2.45062 -3.42815 0
M  V30 9481 H 892.358 2.33921 -2.23747 0
M  V30 9482 H 891.265 0.542859 -3.7014 0
M  V30 9483 H 892.598 0.733708 -4.86701 0
M  V30 9484 N 894.251 1.57596 -0.0117121 0
M  V30 9485 C 895.479 1.9536 0.681334 0
M  V30 9486 C 895.894 0.887255 1.66653 0
M  V30 9487 O 895.251 -0.132692 1.82017 0
M  V30 9488 C 895.302 3.33165 1.40298 0
M  V30 9489 O 895.023 4.35707 0.45728 0
M  V30 9490 C 896.524 3.85458 2.18946 0
M  V30 9491 H 893.744 0.643826 0.189023 0
M  V30 9492 H 896.288 2.04392 -0.066311 0
M  V30 9493 H 894.443 3.25404 2.10216 0
M  V30 9494 H 894.857 5.15495 0.96773 0
M  V30 9495 H 896.331 4.84275 2.64918 0
M  V30 9496 H 896.808 3.18781 3.02118 0
M  V30 9497 H 897.414 3.96431 1.5402 0
M  V30 9498 N 895.729 -0.261212 1.5542 0
M  V30 9499 C 896.975 -0.992699 1.76843 0
M  V30 9500 C 897.308 -1.8551 0.574428 0
M  V30 9501 O 896.583 -1.89739 -0.427713 0
M  V30 9502 C 896.866 -1.86532 3.08022 0
M  V30 9503 C 896.719 -1.03206 4.378 0
M  V30 9504 C 898.038 -2.85036 3.35324 0
M  V30 9505 H 895.157 -0.359473 0.643388 0
M  V30 9506 H 897.799 -0.264214 1.88154 0
M  V30 9507 H 895.949 -2.48644 2.9851 0
M  V30 9508 H 897.621 -0.430743 4.59285 0
M  V30 9509 H 895.864 -0.335911 4.32497 0
M  V30 9510 H 896.535 -1.6761 5.25938 0
M  V30 9511 H 899.011 -2.3306 3.44706 0
M  V30 9512 H 897.887 -3.43226 4.28354 0
M  V30 9513 H 898.148 -3.60768 2.55537 0
M  V30 9514 N 897.207 -1.48554 -0.526253 0
M  V30 9515 C 898.618 -1.50256 -1.10815 0
M  V30 9516 C 898.969 -0.274445 -1.94271 0
M  V30 9517 O 898.094 0.618094 -2.07385 0
M  V30 9518 C 898.689 -2.72264 -2.01638 0
M  V30 9519 C 897.248 -2.76826 -2.55038 0
M  V30 9520 C 896.395 -2.43823 -1.32081 0
M  V30 9521 H 899.346 -1.55616 -0.31133 0
M  V30 9522 H 899.367 -2.50993 -2.85977 0
M  V30 9523 H 898.879 -3.61632 -1.4087 0
M  V30 9524 H 896.98 -1.91676 -3.19517 0
M  V30 9525 H 897.093 -3.78351 -2.93917 0
M  V30 9526 H 895.457 -1.95058 -1.63781 0
M  V30 9527 H 896.24 -3.35436 -0.730596 0
M  V30 9528 N 898.685 0.775411 -1.37205 0
M  V30 9529 C 899.931 1.53611 -1.32407 0
M  V30 9530 C 900.264 1.9398 0.0924103 0
M  V30 9531 O 899.539 1.63791 1.04893 0
M  V30 9532 C 899.822 2.80367 -2.25979 0
M  V30 9533 C 899.675 2.46275 -3.76389 0
M  V30 9534 C 900.994 3.82277 -2.18064 0
M  V30 9535 H 898.113 0.557278 -0.482297 0
M  V30 9536 H 900.755 0.889826 -1.67875 0
M  V30 9537 H 898.905 3.35515 -1.95862 0
M  V30 9538 H 900.577 1.9707 -4.17087 0
M  V30 9539 H 898.82 1.79023 -3.95137 0
M  V30 9540 H 899.491 3.36868 -4.37291 0
M  V30 9541 H 901.967 3.36613 -2.44604 0
M  V30 9542 H 900.843 4.68696 -2.85684 0
M  V30 9543 H 901.104 4.26272 -1.17239 0
M  V30 9544 N 900.163 1.21714 1.00117 0
M  V30 9545 C 901.11 0.979837 2.08968 0
M  V30 9546 C 902.08 -0.0955324 1.65825 0
M  V30 9547 O 903.265 0.0523742 1.90728 0
M  V30 9548 C 900.405 0.554758 3.40612 0
M  V30 9549 C 899.518 1.69999 3.97145 0
M  V30 9550 C 898.653 1.2237 5.16913 0
M  V30 9551 C 897.692 2.34101 5.65564 0
M  V30 9552 N 896.829 1.87579 6.76579 0
M  V30 9553 H 901.669 1.91167 2.28602 0
M  V30 9554 H 899.206 0.952645 1.12085 0
M  V30 9555 H 901.164 0.289526 4.16194 0
M  V30 9556 H 899.794 -0.340073 3.21004 0
M  V30 9557 H 898.846 2.07976 3.18512 0
M  V30 9558 H 900.158 2.54074 4.29241 0
M  V30 9559 H 899.312 0.915358 5.99755 0
M  V30 9560 H 898.051 0.353045 4.8642 0
M  V30 9561 H 897.056 2.65734 4.81316 0
M  V30 9562 H 898.281 3.21669 5.98085 0
M  V30 9563 H 896.227 1.02863 6.47885 0
M  V30 9564 H 896.144 2.65225 7.07949 0
M  V30 9565 H 897.412 1.5979 7.62947 0
M  V30 9566 N 901.641 -1.19671 1.02551 0
M  V30 9567 C 902.571 -2.25009 0.623965 0
M  V30 9568 C 903.552 -1.66129 -0.36538 0
M  V30 9569 O 904.737 -1.92599 -0.248842 0
M  V30 9570 C 901.867 -3.47287 -0.0294869 0
M  V30 9571 C 900.821 -4.18818 0.881781 0
M  V30 9572 C 900.147 -5.34618 0.0936189 0
M  V30 9573 C 901.447 -4.73986 2.19396 0
M  V30 9574 H 903.141 -2.58851 1.50454 0
M  V30 9575 H 900.687 -1.24425 0.724872 0
M  V30 9576 H 902.64 -4.20168 -0.322016 0
M  V30 9577 H 901.364 -3.12635 -0.944838 0
M  V30 9578 H 900.023 -3.47815 1.15845 0
M  V30 9579 H 899.671 -4.9621 -0.823661 0
M  V30 9580 H 899.371 -5.83409 0.700568 0
M  V30 9581 H 900.895 -6.10297 -0.192249 0
M  V30 9582 H 902.309 -5.38639 1.96319 0
M  V30 9583 H 900.706 -5.3325 2.75254 0
M  V30 9584 H 901.776 -3.92238 2.85092 0
M  V30 9585 N 903.119 -0.802921 -1.35613 0
M  V30 9586 C 904.066 -0.20874 -2.29854 0
M  V30 9587 C 905.036 0.655128 -1.52634 0
M  V30 9588 O 906.221 0.600979 -1.81088 0
M  V30 9589 C 903.361 0.639663 -3.3912 0
M  V30 9590 C 902.474 -0.244234 -4.31309 0
M  V30 9591 C 901.609 0.611825 -5.27665 0
M  V30 9592 C 900.648 -0.272698 -6.11492 0
M  V30 9593 N 899.785 0.543122 -6.99996 0
M  V30 9594 H 904.625 -1.01782 -2.80079 0
M  V30 9595 H 902.162 -0.513465 -1.37848 0
M  V30 9596 H 904.12 1.14668 -4.01132 0
M  V30 9597 H 902.75 1.41404 -2.9018 0
M  V30 9598 H 901.802 -0.869322 -3.70334 0
M  V30 9599 H 903.114 -0.925202 -4.90144 0
M  V30 9600 H 902.268 1.18412 -5.95032 0
M  V30 9601 H 901.007 1.32637 -4.69317 0
M  V30 9602 H 900.012 -0.857287 -5.43075 0
M  V30 9603 H 901.237 -0.985051 -6.71918 0
M  V30 9604 H 899.183 1.24171 -6.44141 0
M  V30 9605 H 899.1 -0.0798767 -7.55958 0
M  V30 9606 H 900.368 1.09881 -7.71717 0
M  V30 9607 N 904.597 1.47463 -0.556102 0
M  V30 9608 C 906.008 1.86298 -0.122429 0
M  V30 9609 C 906.359 1.46285 1.30749 0
M  V30 9610 O 905.484 0.865405 1.98342 0
M  V30 9611 C 906.079 3.38115 -0.215407 0
M  V30 9612 C 904.638 3.76046 0.163223 0
M  V30 9613 C 903.785 2.71515 -0.563466 0
M  V30 9614 H 906.736 1.38996 -0.765888 0
M  V30 9615 H 906.757 3.76263 0.566271 0
M  V30 9616 H 906.269 3.67207 -1.25622 0
M  V30 9617 H 904.37 3.5257 1.20519 0
M  V30 9618 H 904.483 4.78705 -0.194568 0
M  V30 9619 H 902.847 2.54699 -0.00667879 0
M  V30 9620 H 903.63 3.03449 -1.60542 0
M  V30 9621 N 906.075 0.2925 1.54862 0
M  V30 9622 C 907.323 -0.318633 1.99572 0
M  V30 9623 C 907.644 -1.55062 1.1824 0
M  V30 9624 O 906.914 -1.93943 0.276226 0
M  V30 9625 H 905.494 -0.120722 0.737181 0
M  V30 9626 H 908.156 0.401862 1.90712 0
M  V30 9627 H 907.252 -0.596542 3.06346 0
M  V30 9628 N 907.553 -1.57587 0.0200696 0
M  V30 9629 C 908.486 -2.05157 -0.999295 0
M  V30 9630 C 909.464 -0.945466 -1.32286 0
M  V30 9631 O 910.648 -1.21512 -1.44108 0
M  V30 9632 C 907.775 -2.46604 -2.32173 0
M  V30 9633 C 906.821 -3.68146 -2.15339 0
M  V30 9634 S 907.654 -5.15194 -1.46065 0
M  V30 9635 C 908.81 -5.59929 -2.79697 0
M  V30 9636 H 909.043 -2.91299 -0.59433 0
M  V30 9637 H 906.576 -1.53209 -0.191372 0
M  V30 9638 H 908.534 -2.7115 -3.08201 0
M  V30 9639 H 907.195 -1.60825 -2.69804 0
M  V30 9640 H 906.388 -3.94963 -3.13082 0
M  V30 9641 H 905.99 -3.43705 -1.47454 0
M  V30 9642 H 908.282 -5.63615 -3.75957 0
M  V30 9643 H 909.225 -6.59599 -2.57555 0
M  V30 9644 H 909.633 -4.87549 -2.84528 0
M  V30 9645 N 909.032 0.252966 -1.55557 0
M  V30 9646 C 910.309 1.00432 -1.67847 0
M  V30 9647 C 910.689 2.03587 -0.55816 0
M  V30 9648 O 910.037 2.24239 0.439197 0
M  V30 9649 C 910.247 1.64313 -3.079 0
M  V30 9650 C 911.595 2.14726 -3.66303 0
M  V30 9651 O 912.619 1.74264 -3.10661 0
M  V30 9652 O 911.478 2.89 -4.63833 0
M  V30 9653 H 908.572 0.467102 -0.682455 0
M  V30 9654 H 911.118 0.247233 -1.67889 0
M  V30 9655 H 909.89 0.896681 -3.80888 0
M  V30 9656 H 909.513 2.46657 -3.11843 0
M  V30 9657 N 910.51 1.48831 0.518367 0
M  V30 9658 C 911.758 1.57128 1.27103 0
M  V30 9659 C 912.079 0.252098 1.93364 0
M  V30 9660 O 911.349 -0.727281 1.819 0
M  V30 9661 H 909.929 0.578891 0.472116 0
M  V30 9662 H 912.591 1.85361 0.602262 0
M  V30 9663 H 911.687 2.35838 2.04418 0
M  V30 9664 N 911.988 -0.768124 1.37614 0
M  V30 9665 C 913.399 -1.34462 1.29525 0
M  V30 9666 C 913.75 -1.96121 -0.0555168 0
M  V30 9667 O 912.875 -1.94069 -0.957406 0
M  V30 9668 C 913.47 -2.44475 2.34558 0
M  V30 9669 C 912.029 -2.97883 2.30093 0
M  V30 9670 C 911.176 -1.71131 2.18196 0
M  V30 9671 H 914.127 -0.568103 1.48183 0
M  V30 9672 H 914.148 -3.24047 1.99434 0
M  V30 9673 H 913.66 -1.99568 3.32858 0
M  V30 9674 H 911.761 -3.47156 1.35328 0
M  V30 9675 H 911.874 -3.53251 3.23652 0
M  V30 9676 H 910.238 -1.94197 1.64802 0
M  V30 9677 H 911.021 -1.28323 3.18415 0
M  V30 9678 N 913.466 -1.22244 -0.994698 0
M  V30 9679 C 914.413 -0.990906 -2.08446 0
M  V30 9680 C 915.383 0.086737 -1.65873 0
M  V30 9681 O 916.568 -0.0624882 -1.90698 0
M  V30 9682 C 913.708 -0.572813 -3.40313 0
M  V30 9683 C 912.821 -1.72103 -3.96238 0
M  V30 9684 C 911.956 -1.2511 -5.16257 0
M  V30 9685 C 910.995 -2.37098 -5.64315 0
M  V30 9686 N 910.132 -1.91164 -6.75574 0
M  V30 9687 H 914.972 -1.92377 -2.27585 0
M  V30 9688 H 912.509 -0.958576 -1.11578 0
M  V30 9689 H 914.467 -0.311594 -4.16035 0
M  V30 9690 H 913.097 0.323044 -3.21179 0
M  V30 9691 H 912.149 -2.09662 -3.17405 0
M  V30 9692 H 913.461 -2.56347 -4.27888 0
M  V30 9693 H 912.615 -0.947152 -5.99261 0
M  V30 9694 H 911.354 -0.378836 -4.86226 0
M  V30 9695 H 910.359 -2.68283 -4.799 0
M  V30 9696 H 911.584 -3.24837 -5.96371 0
M  V30 9697 H 909.53 -1.06298 -6.47331 0
M  V30 9698 H 909.447 -2.68975 -7.06533 0
M  V30 9699 H 910.715 -1.63833 -7.62088 0
M  V30 9700 N 914.944 1.19125 -1.03184 0
M  V30 9701 C 916.19 1.89163 -0.731111 0
M  V30 9702 C 916.523 1.79604 0.738662 0
M  V30 9703 O 915.798 1.19037 1.53819 0
M  V30 9704 C 916.081 3.39986 -1.18666 0
M  V30 9705 C 915.934 3.58401 -2.71788 0
M  V30 9706 C 917.253 4.33316 -0.769772 0
M  V30 9707 H 914.372 0.686908 -0.267069 0
M  V30 9708 H 917.014 1.40205 -1.28229 0
M  V30 9709 H 915.164 3.81813 -0.717736 0
M  V30 9710 H 916.836 3.25727 -3.26649 0
M  V30 9711 H 915.079 3.01355 -3.12038 0
M  V30 9712 H 915.75 4.64189 -2.98719 0
M  V30 9713 H 918.226 3.9922 -1.17314 0
M  V30 9714 H 917.102 5.37427 -1.11637 0
M  V30 9715 H 917.363 4.40884 0.327681 0
M  V30 9716 N 916.422 0.810101 1.35185 0
M  V30 9717 C 917.369 0.220927 2.2974 0
M  V30 9718 C 918.339 -0.647024 1.5298 0
M  V30 9719 O 919.524 -0.591367 1.81404 0
M  V30 9720 C 916.664 -0.62167 3.39454 0
M  V30 9721 C 915.777 0.267104 4.31173 0
M  V30 9722 C 914.912 -0.583833 5.27982 0
M  V30 9723 C 913.951 0.305123 6.11339 0
M  V30 9724 N 913.088 -0.505992 7.00274 0
M  V30 9725 H 917.928 1.03266 2.79536 0
M  V30 9726 H 915.465 0.520768 1.37573 0
M  V30 9727 H 917.423 -1.12539 4.01735 0
M  V30 9728 H 916.053 -1.39863 2.90926 0
M  V30 9729 H 915.105 0.88895 3.69867 0
M  V30 9730 H 916.417 0.951182 4.89647 0
M  V30 9731 H 915.571 -1.15254 5.95652 0
M  V30 9732 H 914.31 -1.30146 4.70014 0
M  V30 9733 H 913.315 0.886075 5.42613 0
M  V30 9734 H 914.54 1.02067 6.71386 0
M  V30 9735 H 912.486 -1.20753 6.4479 0
M  V30 9736 H 912.403 0.119966 7.55905 0
M  V30 9737 H 913.671 -1.05787 7.72288 0
M  V30 9738 N 917.9 -1.47166 0.563914 0
M  V30 9739 C 918.832 -2.28165 -0.217583 0
M  V30 9740 C 919.845 -1.37405 -0.873134 0
M  V30 9741 O 921.034 -1.6217 -0.745857 0
M  V30 9742 C 918.134 -3.11873 -1.32621 0
M  V30 9743 C 917.307 -4.30637 -0.766177 0
M  V30 9744 C 916.366 -4.95889 -1.76014 0
M  V30 9745 O 915.392 -5.54071 -1.3036 0
M  V30 9746 N 916.594 -4.91191 -3.09373 0
M  V30 9747 H 919.359 -2.95876 0.477256 0
M  V30 9748 H 916.92 -1.5687 0.40043 0
M  V30 9749 H 918.912 -3.52392 -1.99003 0
M  V30 9750 H 917.482 -2.46361 -1.92419 0
M  V30 9751 H 916.702 -3.94129 0.0745998 0
M  V30 9752 H 917.99 -5.07442 -0.371472 0
M  V30 9753 H 917.388 -4.45133 -3.49104 0
M  V30 9754 H 915.945 -5.35708 -3.71295 0
M  V30 9755 N 919.378 -0.300708 -1.54705 0
M  V30 9756 C 920.624 0.301982 -2.01146 0
M  V30 9757 C 920.979 1.51548 -1.18537 0
M  V30 9758 O 920.272 1.89914 -0.253656 0
M  V30 9759 C 920.466 0.710108 -3.50275 0
M  V30 9760 C 920.295 -0.462291 -4.47318 0
M  V30 9761 C 919.065 -0.954214 -4.96208 0
M  V30 9762 C 921.263 -1.30716 -4.97411 0
M  V30 9763 N 919.245 -2.09341 -5.77105 0
M  V30 9764 C 920.616 -2.29384 -5.76006 0
M  V30 9765 C 922.671 -1.33756 -4.79597 0
M  V30 9766 C 921.374 -3.30869 -6.38685 0
M  V30 9767 C 923.4 -2.34099 -5.43094 0
M  V30 9768 C 922.762 -3.31498 -6.21521 0
M  V30 9769 H 918.861 0.0749709 -0.778398 0
M  V30 9770 H 921.445 -0.430557 -1.8988 0
M  V30 9771 H 919.616 1.41182 -3.61832 0
M  V30 9772 H 921.348 1.29231 -3.83512 0
M  V30 9773 H 918.103 -0.529238 -4.70634 0
M  V30 9774 H 918.527 -2.66739 -6.22237 0
M  V30 9775 H 923.169 -0.598284 -4.18546 0
M  V30 9776 H 920.887 -4.05717 -6.9887 0
M  V30 9777 H 924.473 -2.37225 -5.31239 0
M  V30 9778 H 923.353 -4.07872 -6.69784 0
M  V30 9779 N 920.856 1.57574 -0.0284266 0
M  V30 9780 C 922.267 1.79585 0.510502 0
M  V30 9781 C 922.618 0.938625 1.72291 0
M  V30 9782 O 921.743 0.14884 2.15888 0
M  V30 9783 C 922.338 3.25703 0.932912 0
M  V30 9784 C 920.897 3.48711 1.41696 0
M  V30 9785 C 920.044 2.74665 0.381356 0
M  V30 9786 H 922.995 1.56647 -0.254464 0
M  V30 9787 H 923.016 3.35376 1.79731 0
M  V30 9788 H 922.528 3.88067 0.0503036 0
M  V30 9789 H 920.629 2.91597 2.31952 0
M  V30 9790 H 920.742 4.57423 1.42481 0
M  V30 9791 H 919.106 2.40123 0.8493 0
M  V30 9792 H 919.889 3.39745 -0.492775 0
M  V30 9793 N 922.334 -0.244713 1.55689 0
M  V30 9794 C 923.264 -1.30667 1.93516 0
M  V30 9795 C 924.245 -1.50094 0.800371 0
M  V30 9796 O 925.43 -1.62665 1.06083 0
M  V30 9797 C 922.56 -2.66101 2.23176 0
M  V30 9798 C 921.514 -2.61366 3.38927 0
M  V30 9799 C 920.84 -4.00616 3.54134 0
M  V30 9800 C 922.14 -2.18161 4.74555 0
M  V30 9801 H 923.834 -0.992546 2.82469 0
M  V30 9802 H 921.38 -0.476018 1.35905 0
M  V30 9803 H 923.333 -3.4053 2.48228 0
M  V30 9804 H 922.057 -2.99154 1.31051 0
M  V30 9805 H 920.716 -1.89395 3.13887 0
M  V30 9806 H 920.364 -4.30938 2.59426 0
M  V30 9807 H 920.064 -3.98335 4.31975 0
M  V30 9808 H 921.588 -4.76741 3.8151 0
M  V30 9809 H 923.002 -2.82323 4.98965 0
M  V30 9810 H 921.399 -2.26988 5.55515 0
M  V30 9811 H 922.469 -1.13333 4.7147 0
M  V30 9812 N 923.813 -1.49104 -0.510467 0
M  V30 9813 C 925.041 -1.61806 -1.28944 0
M  V30 9814 C 925.456 -0.285774 -1.86625 0
M  V30 9815 O 924.813 0.727551 -1.67371 0
M  V30 9816 C 924.864 -2.67966 -2.42645 0
M  V30 9817 O 924.585 -3.96026 -1.87337 0
M  V30 9818 C 926.086 -2.91286 -3.34166 0
M  V30 9819 H 923.306 -0.544999 -0.391429 0
M  V30 9820 H 925.85 -1.95071 -0.613805 0
M  V30 9821 H 924.005 -2.37505 -3.06056 0
M  V30 9822 H 924.419 -4.54427 -2.61909 0
M  V30 9823 H 925.893 -3.69323 -4.1025 0
M  V30 9824 H 926.37 -2.00842 -3.90588 0
M  V30 9825 H 926.976 -3.23127 -2.76531 0
M  V30 9826 N 925.291 0.760815 -1.38019 0
M  V30 9827 C 926.201 1.90526 -1.36884 0
M  V30 9828 C 927.217 1.71941 -0.266908 0
M  V30 9829 O 928.393 1.94988 -0.50413 0
M  V30 9830 C 925.458 3.25799 -1.18558 0
M  V30 9831 C 924.519 3.56961 -2.3849 0
M  V30 9832 C 923.752 4.8578 -2.21029 0
M  V30 9833 O 923.975 5.57629 -1.20023 0
M  V30 9834 O 922.909 5.16254 -3.0946 0
M  V30 9835 H 926.735 1.94437 -2.33298 0
M  V30 9836 H 924.32 0.905091 -1.18863 0
M  V30 9837 H 926.202 4.0669 -1.1037 0
M  V30 9838 H 924.877 3.22716 -0.252241 0
M  V30 9839 H 923.784 2.7626 -2.52252 0
M  V30 9840 H 925.117 3.64798 -3.30429 0
M  V30 9841 N 926.769 1.22769 0.988202 0
M  V30 9842 C 927.679 1.01844 2.11341 0
M  V30 9843 C 928.695 -0.0346937 1.73965 0
M  V30 9844 O 929.871 0.159061 2.00771 0
M  V30 9845 C 926.936 0.603837 3.41401 0
M  V30 9846 C 925.997 1.73113 3.92849 0
M  V30 9847 C 925.23 1.33621 5.16702 0
M  V30 9848 O 925.453 0.217041 5.69987 0
M  V30 9849 O 924.387 2.15444 5.62021 0
M  V30 9850 H 928.213 1.96127 2.31879 0
M  V30 9851 H 925.798 1.01405 1.09715 0
M  V30 9852 H 927.68 0.383196 4.19654 0
M  V30 9853 H 926.355 -0.310082 3.22211 0
M  V30 9854 H 925.262 2.00634 3.15748 0
M  V30 9855 H 926.595 2.62308 4.1648 0
M  V30 9856 N 928.247 -1.18576 1.03814 0
M  V30 9857 C 929.194 -2.2212 0.626988 0
M  V30 9858 C 930.164 -1.62064 -0.363912 0
M  V30 9859 O 931.349 -1.89041 -0.258469 0
M  V30 9860 C 928.489 -3.45099 -0.00650133 0
M  V30 9861 C 927.602 -4.19503 1.03156 0
M  V30 9862 C 926.737 -5.29932 0.366852 0
M  V30 9863 C 925.776 -5.96104 1.39018 0
M  V30 9864 N 924.913 -6.98076 0.750625 0
M  V30 9865 H 929.753 -2.56646 1.51449 0
M  V30 9866 H 927.29 -1.26084 0.757702 0
M  V30 9867 H 929.248 -4.15363 -0.391108 0
M  V30 9868 H 927.878 -3.11201 -0.857536 0
M  V30 9869 H 926.93 -3.48092 1.53414 0
M  V30 9870 H 928.242 -4.64843 1.80893 0
M  V30 9871 H 927.396 -6.06657 -0.0720979 0
M  V30 9872 H 926.135 -4.85687 -0.442631 0
M  V30 9873 H 925.14 -5.18122 1.8393 0
M  V30 9874 H 926.365 -6.42432 2.20132 0
M  V30 9875 H 924.311 -6.55989 -0.0385981 0
M  V30 9876 H 924.228 -7.41655 1.46574 0
M  V30 9877 H 925.496 -7.78776 0.335986 0
M  V30 9878 N 929.725 -0.817259 -1.34754 0
M  V30 9879 C 930.974 -0.39908 -1.97713 0
M  V30 9880 C 931.287 1.04203 -1.65533 0
M  V30 9881 O 932.493 1.56384 -2.21937 0
M  V30 9882 C 930.949 -0.662634 -3.53747 0
M  V30 9883 C 930.557 -2.11699 -3.94826 0
M  V30 9884 C 932.301 -0.31034 -4.23364 0
M  V30 9885 C 930.208 -2.32573 -5.4375 0
M  V30 9886 H 929.138 -0.145488 -0.739831 0
M  V30 9887 H 931.789 -1.00282 -1.53674 0
M  V30 9888 H 930.171 0.0111972 -3.95998 0
M  V30 9889 H 931.345 -2.82951 -3.63697 0
M  V30 9890 H 929.66 -2.43017 -3.3813 0
M  V30 9891 H 932.257 -0.44421 -5.32852 0
M  V30 9892 H 932.6 0.744594 -4.09587 0
M  V30 9893 H 933.133 -0.938518 -3.8657 0
M  V30 9894 H 929.872 -3.36551 -5.62507 0
M  V30 9895 H 929.392 -1.65858 -5.76412 0
M  V30 9896 H 931.071 -2.14651 -6.10356 0
M  V30 9897 N 931.203 1.46865 -0.571711 0
M  V30 9898 C 932.15 2.30189 0.167808 0
M  V30 9899 C 933.12 1.3995 0.89461 0
M  V30 9900 O 934.305 1.68905 0.887451 0
M  V30 9901 C 931.445 3.24205 1.1826 0
M  V30 9902 C 930.558 4.2954 0.460376 0
M  V30 9903 C 929.693 5.10693 1.46173 0
M  V30 9904 C 928.732 6.07788 0.725291 0
M  V30 9905 N 927.869 6.81847 1.67417 0
M  V30 9906 H 932.709 2.92902 -0.548831 0
M  V30 9907 H 930.246 1.44362 -0.282474 0
M  V30 9908 H 932.204 3.77147 1.7837 0
M  V30 9909 H 930.834 2.63324 1.86709 0
M  V30 9910 H 929.886 3.79541 -0.255546 0
M  V30 9911 H 931.198 4.98665 -0.115855 0
M  V30 9912 H 930.352 5.67857 2.13595 0
M  V30 9913 H 929.091 4.41502 2.07188 0
M  V30 9914 H 928.096 5.49787 0.037228 0
M  V30 9915 H 929.321 6.78993 0.120678 0
M  V30 9916 H 927.267 6.15376 2.27263 0
M  V30 9917 H 927.184 7.47195 1.15046 0
M  V30 9918 H 928.452 7.43577 2.33908 0
M  V30 9919 N 932.681 0.308908 1.54543 0
M  V30 9920 C 933.644 -0.550857 2.22482 0
M  V30 9921 C 934.644 -1.0551 1.21344 0
M  V30 9922 O 935.834 -0.949866 1.46025 0
M  V30 9923 C 932.966 -1.76354 2.9174 0
M  V30 9924 H 934.159 0.0428395 2.99869 0
M  V30 9925 H 931.712 0.059825 1.56185 0
M  V30 9926 H 932.447 -2.39686 2.18451 0
M  V30 9927 H 932.232 -1.40954 3.65889 0
M  V30 9928 H 933.722 -2.37417 3.43545 0
M  V30 9929 N 934.159 -1.57557 0.0367827 0
M  V30 9930 C 935.089 -2.13712 -0.940719 0
M  V30 9931 C 936.07 -1.05515 -1.33419 0
M  V30 9932 O 937.255 -1.33385 -1.41146 0
M  V30 9933 C 934.385 -2.67043 -2.22048 0
M  V30 9934 C 933.339 -3.80096 -1.96752 0
M  V30 9935 C 932.665 -4.19886 -3.31059 0
M  V30 9936 C 933.965 -5.05848 -1.30058 0
M  V30 9937 H 935.659 -2.9564 -0.473033 0
M  V30 9938 H 933.205 -1.42214 -0.226089 0
M  V30 9939 H 935.158 -3.04964 -2.90818 0
M  V30 9940 H 933.882 -1.82287 -2.70996 0
M  V30 9941 H 932.541 -3.42625 -1.30398 0
M  V30 9942 H 932.189 -3.32101 -3.77781 0
M  V30 9943 H 931.889 -4.96073 -3.14937 0
M  V30 9944 H 933.413 -4.60395 -4.01084 0
M  V30 9945 H 934.827 -5.41306 -1.8884 0
M  V30 9946 H 933.224 -5.87084 -1.24309 0
M  V30 9947 H 934.294 -4.84122 -0.274591 0
M  V30 9948 N 935.637 0.236453 -1.55816 0
M  V30 9949 C 936.883 0.964439 -1.784 0
M  V30 9950 C 937.216 1.84573 -0.603868 0
M  V30 9951 O 936.491 1.90395 0.397473 0
M  V30 9952 C 936.774 1.81608 -3.10951 0
M  V30 9953 C 936.627 0.962283 -4.39386 0
M  V30 9954 C 937.946 2.79665 -3.39817 0
M  V30 9955 H 935.065 0.349192 -0.649026 0
M  V30 9956 H 937.707 0.234247 -1.8855 0
M  V30 9957 H 935.857 2.43864 -3.02428 0
M  V30 9958 H 937.529 0.35762 -4.59912 0
M  V30 9959 H 935.772 0.267062 -4.32977 0
M  V30 9960 H 936.443 1.59222 -5.28538 0
M  V30 9961 H 938.919 2.27546 -3.4837 0
M  V30 9962 H 937.795 3.36367 -4.33761 0
M  V30 9963 H 938.056 3.56657 -2.61244 0
M  V30 9964 N 937.115 1.49373 0.502552 0
M  V30 9965 C 938.025 1.68659 1.63068 0
M  V30 9966 C 939.041 0.569182 1.64427 0
M  V30 9967 O 940.217 0.843695 1.82876 0
M  V30 9968 C 937.282 1.74745 2.99441 0
M  V30 9969 C 936.343 2.98311 3.08721 0
M  V30 9970 C 935.576 3.04097 4.38589 0
M  V30 9971 O 935.799 2.17519 5.27297 0
M  V30 9972 O 934.733 3.96544 4.52809 0
M  V30 9973 H 938.559 2.64226 1.49727 0
M  V30 9974 H 936.144 1.33096 0.67867 0
M  V30 9975 H 938.026 1.8111 3.80496 0
M  V30 9976 H 936.701 0.823565 3.13048 0
M  V30 9977 H 935.608 2.97465 2.2686 0
M  V30 9978 H 936.941 3.90174 3.00041 0
M  V30 9979 N 938.594 -0.753485 1.38421 0
M  V30 9980 C 939.843 -1.50797 1.33952 0
M  V30 9981 C 940.156 -1.95482 -0.0678464 0
M  V30 9982 O 941.362 -2.7048 -0.235078 0
M  V30 9983 C 939.818 -2.72393 2.35224 0
M  V30 9984 C 939.426 -2.34733 3.81582 0
M  V30 9985 C 941.17 -3.50281 2.39798 0
M  V30 9986 C 939.077 -3.52939 4.7454 0
M  V30 9987 H 938.007 -0.566211 0.497916 0
M  V30 9988 H 940.658 -0.823659 1.63976 0
M  V30 9989 H 939.04 -3.42806 1.98243 0
M  V30 9990 H 940.214 -1.71985 4.27502 0
M  V30 9991 H 938.529 -1.69978 3.80127 0
M  V30 9992 H 941.126 -4.38172 3.06447 0
M  V30 9993 H 941.469 -3.91444 1.41695 0
M  V30 9994 H 942.002 -2.86881 2.75579 0
M  V30 9995 H 938.741 -3.16843 5.73839 0
M  V30 9996 H 938.261 -4.1473 4.33312 0
M  V30 9997 H 939.94 -4.19519 4.92557 0
M  V30 9998 N 940.072 -1.23292 -0.981677 0
M  V30 9999 C 941.312 -1.07597 -1.73788 0
M  V30 10000 C 941.676 0.380762 -1.88187 0
M  V30 10001 O 942.877 0.658866 -2.606 0
M  V30 10002 C 941.148 -1.78008 -3.09916 0
M  V30 10003 S 942.707 -1.77868 -4.01134 0
M  V30 10004 H 939.525 -0.385092 -0.597683 0
M  V30 10005 H 942.127 -1.56408 -1.17289 0
M  V30 10006 H 940.831 -2.83139 -2.97087 0
M  V30 10007 H 940.362 -1.29473 -3.71484 0
M  V30 10008 H 942.377 -0.836368 -4.89101 0
M  V30 10009 N 941.55 1.18024 -1.04442 0
M  V30 10010 C 942.778 1.92032 -0.770161 0
M  V30 10011 C 943.193 1.76391 0.673181 0
M  V30 10012 O 942.55 1.09604 1.45922 0
M  V30 10013 C 942.601 3.43328 -1.13173 0
M  V30 10014 O 942.322 3.5848 -2.51841 0
M  V30 10015 C 943.823 4.34427 -0.882523 0
M  V30 10016 H 941.043 0.609518 -0.280586 0
M  V30 10017 H 943.587 1.49711 -1.39308 0
M  V30 10018 H 941.742 3.83423 -0.553704 0
M  V30 10019 H 942.156 4.52166 -2.65794 0
M  V30 10020 H 943.63 5.39123 -1.18533 0
M  V30 10021 H 944.107 4.3882 0.18257 0
M  V30 10022 H 944.713 4.00035 -1.44403 0
M  V30 10023 N 943.028 0.824394 1.34319 0
M  V30 10024 C 943.938 0.24932 2.33271 0
M  V30 10025 C 944.954 -0.617066 1.62691 0
M  V30 10026 O 946.13 -0.524616 1.94447 0
M  V30 10027 C 943.195 -0.578094 3.41846 0
M  V30 10028 C 942.256 0.310866 4.28173 0
M  V30 10029 C 941.489 -0.477153 5.31563 0
M  V30 10030 O 941.712 -1.71028 5.44156 0
M  V30 10031 O 940.646 0.141287 6.01734 0
M  V30 10032 H 944.472 1.06837 2.84288 0
M  V30 10033 H 942.057 0.58657 1.37403 0
M  V30 10034 H 943.939 -1.04878 4.0814 0
M  V30 10035 H 942.614 -1.37444 2.93071 0
M  V30 10036 H 941.521 0.829081 3.64797 0
M  V30 10037 H 942.854 1.07161 4.80393 0
M  V30 10038 N 944.506 -1.46559 0.579492 0
M  V30 10039 C 945.439 -2.27287 -0.203894 0
M  V30 10040 C 946.417 -1.3543 -0.899865 0
M  V30 10041 O 947.601 -1.64836 -0.914398 0
M  V30 10042 C 944.728 -3.13077 -1.2923 0
M  V30 10043 C 943.774 -4.20675 -0.702505 0
M  V30 10044 S 944.607 -5.3345 0.468136 0
M  V30 10045 C 945.763 -6.22806 -0.621544 0
M  V30 10046 H 945.996 -2.93382 0.481083 0
M  V30 10047 H 943.529 -1.49992 0.366311 0
M  V30 10048 H 945.487 -3.63069 -1.91548 0
M  V30 10049 H 944.148 -2.46302 -1.94921 0
M  V30 10050 H 943.341 -4.80516 -1.52053 0
M  V30 10051 H 942.943 -3.73678 -0.155046 0
M  V30 10052 H 945.235 -6.60503 -1.50803 0
M  V30 10053 H 946.178 -7.08075 -0.059961 0
M  V30 10054 H 946.586 -5.56882 -0.924242 0
M  V30 10055 N 945.984 -0.3171 -1.54377 0
M  V30 10056 C 946.894 0.560867 -2.27797 0
M  V30 10057 C 947.91 1.13473 -1.31908 0
M  V30 10058 O 949.086 1.15608 -1.64914 0
M  V30 10059 C 946.151 1.70886 -3.0166 0
M  V30 10060 C 945.212 1.16745 -4.13121 0
M  V30 10061 C 944.445 2.26073 -4.83453 0
M  V30 10062 O 944.668 3.46292 -4.53252 0
M  V30 10063 O 943.602 1.91856 -5.70504 0
M  V30 10064 H 947.428 -0.035193 -3.0368 0
M  V30 10065 H 945.013 -0.0830062 -1.49169 0
M  V30 10066 H 946.895 2.37736 -3.47936 0
M  V30 10067 H 945.57 2.29122 -2.28658 0
M  V30 10068 H 944.477 0.464224 -3.71209 0
M  V30 10069 H 945.81 0.630307 -4.88147 0
M  V30 10070 N 947.462 1.57535 -0.0451378 0
M  V30 10071 C 948.409 2.11176 0.931313 0
M  V30 10072 C 949.379 1.01765 1.31275 0
M  V30 10073 O 950.564 1.29279 1.40327 0
M  V30 10074 C 947.704 2.65639 2.20295 0
M  V30 10075 C 946.817 3.89114 1.87654 0
M  V30 10076 C 945.952 4.31914 3.09232 0
M  V30 10077 C 944.991 5.48105 2.72484 0
M  V30 10078 N 944.128 5.85986 3.86736 0
M  V30 10079 H 948.968 2.94318 0.466986 0
M  V30 10080 H 946.505 1.45462 0.218886 0
M  V30 10081 H 948.463 2.95312 2.94697 0
M  V30 10082 H 947.093 1.85303 2.64316 0
M  V30 10083 H 946.145 3.6607 1.03427 0
M  V30 10084 H 947.457 4.7358 1.56601 0
M  V30 10085 H 946.611 4.63108 3.91939 0
M  V30 10086 H 945.35 3.46247 3.43459 0
M  V30 10087 H 944.355 5.16589 1.88192 0
M  V30 10088 H 945.58 6.35482 2.39455 0
M  V30 10089 H 943.526 5.03273 4.20775 0
M  V30 10090 H 943.443 6.65129 3.5936 0
M  V30 10091 H 944.711 6.21793 4.701 0
M  V30 10092 N 948.94 -0.228186 1.55939 0
M  V30 10093 C 949.85 -1.30386 1.9503 0
M  V30 10094 C 950.866 -1.51645 0.853218 0
M  V30 10095 O 952.042 -1.64904 1.15623 0
M  V30 10096 C 949.107 -2.63489 2.25332 0
M  V30 10097 C 948.168 -2.5059 3.48573 0
M  V30 10098 C 947.401 -3.77345 3.7742 0
M  V30 10099 O 947.624 -4.80067 3.08045 0
M  V30 10100 O 946.558 -3.74855 4.70922 0
M  V30 10101 H 950.384 -1.0022 2.86687 0
M  V30 10102 H 947.969 -0.430503 1.43063 0
M  V30 10103 H 949.851 -3.4211 2.46046 0
M  V30 10104 H 948.526 -2.93349 1.3685 0
M  V30 10105 H 947.433 -1.70191 3.33145 0
M  V30 10106 H 948.766 -2.2567 4.37417 0
M  V30 10107 N 950.418 -1.49637 -0.494624 0
M  V30 10108 C 951.666 -1.5913 -1.24587 0
M  V30 10109 C 951.987 -0.282828 -1.92938 0
M  V30 10110 O 951.257 0.69825 -1.83034 0
M  V30 10111 H 949.837 -0.586329 -0.462847 0
M  V30 10112 H 952.499 -1.86296 -0.572696 0
M  V30 10113 H 951.595 -2.3906 -2.00641 0
M  V30 10114 N 951.896 0.746133 -1.38819 0
M  V30 10115 C 952.843 1.86001 -1.36647 0
M  V30 10116 C 953.813 1.6453 -0.227849 0
M  V30 10117 O 954.998 1.86092 -0.421241 0
M  V30 10118 C 952.138 3.23388 -1.20474 0
M  V30 10119 C 951.251 3.5664 -2.43786 0
M  V30 10120 C 950.386 4.8337 -2.20287 0
M  V30 10121 C 949.425 5.09431 -3.39332 0
M  V30 10122 N 948.562 6.2736 -3.1522 0
M  V30 10123 H 953.402 1.87192 -2.31869 0
M  V30 10124 H 950.939 0.914838 -1.15192 0
M  V30 10125 H 952.897 4.02679 -1.09112 0
M  V30 10126 H 951.527 3.21505 -0.288874 0
M  V30 10127 H 950.579 2.72135 -2.65794 0
M  V30 10128 H 951.891 3.71823 -3.3249 0
M  V30 10129 H 951.045 5.70619 -2.06103 0
M  V30 10130 H 949.784 4.70341 -1.28961 0
M  V30 10131 H 948.789 4.20648 -3.54027 0
M  V30 10132 H 950.014 5.24354 -4.31544 0
M  V30 10133 H 947.96 6.15639 -2.26549 0
M  V30 10134 H 947.877 6.43078 -3.97476 0
M  V30 10135 H 949.145 7.17477 -3.04707 0
M  V30 10136 N 953.375 1.23811 0.975125 0
M  V30 10137 C 954.624 1.06741 1.71141 0
M  V30 10138 C 954.937 -0.394986 1.9157 0
M  V30 10139 O 956.143 -0.685723 2.62698 0
M  V30 10140 C 954.599 1.86168 3.08009 0
M  V30 10141 C 954.207 3.36771 2.95448 0
M  V30 10142 C 955.951 1.77604 3.85561 0
M  V30 10143 C 953.858 4.0857 4.2758 0
M  V30 10144 H 952.788 0.395819 0.64175 0
M  V30 10145 H 955.439 1.47825 1.0872 0
M  V30 10146 H 953.821 1.37893 3.71216 0
M  V30 10147 H 954.995 3.92571 2.41298 0
M  V30 10148 H 953.31 3.46205 2.31368 0
M  V30 10149 H 955.907 2.28556 4.83391 0
M  V30 10150 H 956.25 0.739837 4.09673 0
M  V30 10151 H 956.783 2.23519 3.29065 0
M  V30 10152 H 953.522 5.12518 4.08663 0
M  V30 10153 H 953.042 3.57556 4.81574 0
M  V30 10154 H 954.721 4.15157 4.9624 0
M  V30 10155 N 954.853 -1.17469 1.05066 0
M  V30 10156 C 956.078 -1.92162 0.780298 0
M  V30 10157 C 956.503 -1.76222 -0.657832 0
M  V30 10158 O 955.861 -1.0791 -1.45688 0
M  V30 10159 C 955.909 -3.41292 1.16414 0
M  V30 10160 O 955.013 -4.1134 0.295531 0
M  V30 10161 H 954.354 -0.599127 0.286257 0
M  V30 10162 H 956.884 -1.48903 1.40318 0
M  V30 10163 H 956.894 -3.92029 1.13036 0
M  V30 10164 H 955.569 -3.52214 2.21175 0
M  V30 10165 H 954.146 -3.70857 0.389797 0
M  V30 10166 N 956.331 -0.831506 -1.3388 0
M  V30 10167 C 957.278 -0.257449 -2.2936 0
M  V30 10168 C 958.248 0.622604 -1.5399 0
M  V30 10169 O 959.433 0.562432 -1.82322 0
M  V30 10170 C 956.573 0.567587 -3.404 0
M  V30 10171 C 955.686 -0.335666 -4.30694 0
M  V30 10172 C 954.821 0.499762 -5.28844 0
M  V30 10173 C 953.86 -0.402343 -6.10776 0
M  V30 10174 N 952.997 0.39452 -7.00991 0
M  V30 10175 H 957.837 -1.077 -2.77857 0
M  V30 10176 H 955.374 -0.542589 -1.36727 0
M  V30 10177 H 957.332 1.06133 -4.03474 0
M  V30 10178 H 955.962 1.35217 -2.93115 0
M  V30 10179 H 955.014 -0.94768 -3.68406 0
M  V30 10180 H 956.326 -1.02896 -4.88072 0
M  V30 10181 H 955.48 1.05763 -5.9741 0
M  V30 10182 H 954.219 1.22652 -4.72025 0
M  V30 10183 H 953.224 -0.972288 -5.41135 0
M  V30 10184 H 954.449 -1.12735 -6.69677 0
M  V30 10185 H 952.395 1.1048 -6.4663 0
M  V30 10186 H 952.312 -0.240209 -7.55618 0
M  V30 10187 H 953.58 0.934867 -7.73874 0
M  V30 10188 N 957.809 1.4625 -0.587256 0
M  V30 10189 C 959.058 2.01571 -0.0722643 0
M  V30 10190 C 959.371 1.46385 1.29733 0
M  V30 10191 O 960.577 1.93554 1.90392 0
M  V30 10192 C 959.033 3.59814 -0.078579 0
M  V30 10193 C 958.641 4.23996 -1.44678 0
M  V30 10194 C 960.385 4.22776 0.382231 0
M  V30 10195 C 958.292 5.74332 -1.41057 0
M  V30 10196 H 957.222 0.753642 -0.0232461 0
M  V30 10197 H 959.873 1.67936 -0.739577 0
M  V30 10198 H 958.255 3.90546 0.654988 0
M  V30 10199 H 959.429 4.04867 -2.20043 0
M  V30 10200 H 957.744 3.73147 -1.84799 0
M  V30 10201 H 960.341 5.32983 0.428182 0
M  V30 10202 H 960.684 3.92027 1.40072 0
M  V30 10203 H 961.217 3.96687 -0.297417 0
M  V30 10204 H 957.956 6.09747 -2.40601 0
M  V30 10205 H 957.476 5.95711 -0.699185 0
M  V30 10206 H 959.155 6.37137 -1.12543 0
M  V30 10207 N 959.287 0.325282 1.54207 0
M  V30 10208 C 960.535 -0.276229 2.00203 0
M  V30 10209 C 960.856 -1.52519 1.21503 0
M  V30 10210 O 960.126 -1.93313 0.317302 0
M  V30 10211 H 958.706 -0.105059 0.739575 0
M  V30 10212 H 961.368 0.442225 1.89817 0
M  V30 10213 H 960.464 -0.531427 3.07542 0
M  V30 10214 N 960.765 -1.57509 0.0534917 0
M  V30 10215 C 962.176 -1.80374 -0.481867 0
M  V30 10216 C 962.527 -0.965917 -1.70776 0
M  V30 10217 O 961.652 -0.183167 -2.15623 0
M  V30 10218 C 962.247 -3.27146 -0.880978 0
M  V30 10219 C 960.806 -3.50921 -1.3613 0
M  V30 10220 C 959.953 -2.75237 -0.337611 0
M  V30 10221 H 962.904 -1.56222 0.279353 0
M  V30 10222 H 962.925 -3.38193 -1.74373 0
M  V30 10223 H 962.437 -3.88098 0.011441 0
M  V30 10224 H 960.538 -2.95251 -2.27283 0
M  V30 10225 H 960.651 -4.59632 -1.35186 0
M  V30 10226 H 959.015 -2.41444 -0.810991 0
M  V30 10227 H 959.798 -3.38918 0.546763 0
M  V30 10228 N 962.243 0.219913 -1.56058 0
M  V30 10229 C 963.153 1.29349 -1.95719 0
M  V30 10230 C 964.169 1.5119 -0.861248 0
M  V30 10231 O 965.345 1.64289 -1.16495 0
M  V30 10232 C 962.41 2.6229 -2.26726 0
M  V30 10233 C 961.471 2.48738 -3.49897 0
M  V30 10234 C 960.704 3.75339 -3.79416 0
M  V30 10235 O 960.927 4.78427 -3.10586 0
M  V30 10236 O 959.861 3.72352 -4.72903 0
M  V30 10237 H 963.687 0.986979 -2.87215 0
M  V30 10238 H 961.272 0.42291 -1.43289 0
M  V30 10239 H 963.154 3.408 -2.47857 0
M  V30 10240 H 961.829 2.92619 -1.38404 0
M  V30 10241 H 960.736 1.68422 -3.34043 0
M  V30 10242 H 962.069 2.23347 -4.38608 0
M  V30 10243 N 963.721 1.49897 0.486681 0
M  V30 10244 C 964.669 1.68125 1.60738 0
M  V30 10245 C 965.663 0.547097 1.60322 0
M  V30 10246 O 966.869 0.727153 1.64659 0
M  V30 10247 H 963.244 0.530391 0.533094 0
M  V30 10248 H 965.215 2.62165 1.42521 0
M  V30 10249 C 963.964 1.77827 2.98786 0
M  V30 10250 H 963.287 2.6448 2.99818 0
M  V30 10251 H 964.727 1.94611 3.76699 0
M  V30 10252 C 963.186 0.526287 3.32764 0
M  V30 10253 O 963.716 -0.341607 4.00245 0
M  V30 10254 N 961.922 0.384947 2.88039 0
M  V30 10255 H 961.469 1.09222 2.33299 0
M  V30 10256 H 961.427 -0.451618 3.11139 0
M  V30 10257 N 965.199 -0.738761 1.39212 0
M  V30 10258 C 966.61 -1.31684 1.32348 0
M  V30 10259 C 966.961 -1.96195 -0.0139041 0
M  V30 10260 O 966.086 -1.96056 -0.916025 0
M  V30 10261 C 966.681 -2.39444 2.39691 0
M  V30 10262 C 965.24 -2.92935 2.36359 0
M  V30 10263 C 964.387 -1.66465 2.21776 0
M  V30 10264 H 967.338 -0.536543 1.49355 0
M  V30 10265 H 967.359 -3.19744 2.06262 0
M  V30 10266 H 966.871 -1.92463 3.37016 0
M  V30 10267 H 964.972 -3.44207 1.42662 0
M  V30 10268 H 965.085 -3.46306 3.31073 0
M  V30 10269 H 963.449 -1.90657 1.68884 0
M  V30 10270 H 964.232 -1.21541 3.21065 0
M  V30 10271 N 966.677 -1.24326 -0.968545 0
M  V30 10272 C 967.907 -1.10786 -1.74385 0
M  V30 10273 C 968.315 0.342503 -1.86074 0
M  V30 10274 O 967.658 1.24817 -1.34782 0
M  V30 10275 C 967.72 -1.67274 -3.18213 0
M  V30 10276 C 967.384 -3.1615 -3.29998 0
M  V30 10277 C 968.381 -4.13309 -3.15392 0
M  V30 10278 C 966.066 -3.56092 -3.54265 0
M  V30 10279 C 968.06 -5.48392 -3.24878 0
M  V30 10280 C 965.747 -4.91316 -3.63389 0
M  V30 10281 C 966.745 -5.87275 -3.48707 0
M  V30 10282 O 966.433 -7.20041 -3.57485 0
M  V30 10283 H 966.165 -0.387795 -0.553706 0
M  V30 10284 H 968.719 -1.64894 -1.22471 0
M  V30 10285 H 966.949 -1.07598 -3.71429 0
M  V30 10286 H 968.638 -1.49036 -3.77549 0
M  V30 10287 H 969.404 -3.83792 -2.96528 0
M  V30 10288 H 965.283 -2.81907 -3.6476 0
M  V30 10289 H 968.827 -6.23271 -3.13335 0
M  V30 10290 H 964.724 -5.20505 -3.81766 0
M  V30 10291 H 965.492 -7.27951 -3.74205 0
M  V30 10292 N 968.156 1.1691 -1.05688 0
M  V30 10293 C 969.104 2.2315 -0.656262 0
M  V30 10294 C 970.098 1.66256 0.324873 0
M  V30 10295 O 971.304 1.7899 0.190397 0
M  V30 10296 H 967.679 0.726527 -0.19407 0
M  V30 10297 H 969.65 2.54233 -1.56231 0
M  V30 10298 C 968.399 3.47661 -0.0522431 0
M  V30 10299 H 967.722 3.91749 -0.798299 0
M  V30 10300 H 969.162 4.23571 0.190626 0
M  V30 10301 C 967.621 3.14709 1.20248 0
M  V30 10302 O 968.151 3.29947 2.29124 0
M  V30 10303 N 966.357 2.68892 1.10207 0
M  V30 10304 H 965.904 2.56692 0.216063 0
M  V30 10305 H 965.862 2.47218 1.94244 0
M  V30 10306 N 969.634 0.838594 1.33437 0
M  V30 10307 C 970.862 0.447644 2.01999 0
M  V30 10308 C 971.277 -0.951053 1.63096 0
M  V30 10309 O 970.634 -1.61802 0.844169 0
M  V30 10310 C 970.685 0.558378 3.57162 0
M  V30 10311 O 970.406 1.90196 3.94661 0
M  V30 10312 C 971.907 0.164348 4.42995 0
M  V30 10313 H 969.127 0.177736 0.647032 0
M  V30 10314 H 971.671 1.13109 1.70372 0
M  V30 10315 H 969.826 -0.0771563 3.87323 0
M  V30 10316 H 970.24 1.88729 4.89369 0
M  V30 10317 H 971.714 0.292876 5.51222 0
M  V30 10318 H 972.191 -0.893713 4.30011 0
M  V30 10319 H 972.797 0.774306 4.18192 0
M  V30 10320 N 971.112 -1.45937 0.595003 0
M  V30 10321 C 972.523 -1.85908 0.171779 0
M  V30 10322 C 972.874 -1.497 -1.26824 0
M  V30 10323 O 971.999 -0.917688 -1.95978 0
M  V30 10324 C 972.594 -3.37425 0.304976 0
M  V30 10325 C 971.153 -3.76346 -0.0634635 0
M  V30 10326 C 970.3 -2.69926 0.635255 0
M  V30 10327 H 973.251 -1.36916 0.802471 0
M  V30 10328 H 973.272 -3.77632 -0.466313 0
M  V30 10329 H 972.784 -3.63747 1.35314 0
M  V30 10330 H 970.885 -3.55642 -1.11129 0
M  V30 10331 H 970.998 -4.78021 0.321419 0
M  V30 10332 H 969.362 -2.54592 0.0742054 0
M  V30 10333 H 970.145 -2.99086 1.68531 0
M  V30 10334 N 972.59 -0.333456 -1.54032 0
M  V30 10335 C 973.836 0.266527 -2.01041 0
M  V30 10336 C 974.169 1.51006 -1.2211 0
M  V30 10337 O 973.444 1.92078 -0.306016 0
M  V30 10338 C 973.727 0.59078 -3.55221 0
M  V30 10339 C 973.58 -0.664143 -4.4487 0
M  V30 10340 C 974.899 1.40447 -4.17088 0
M  V30 10341 H 972.018 0.0953979 -0.7308 0
M  V30 10342 H 974.66 -0.451995 -1.84545 0
M  V30 10343 H 972.81 1.20292 -3.69408 0
M  V30 10344 H 974.482 -1.30227 -4.42537 0
M  V30 10345 H 972.725 -1.29106 -4.14143 0
M  V30 10346 H 973.396 -0.392664 -5.50602 0
M  V30 10347 H 975.872 0.886946 -4.06537 0
M  V30 10348 H 974.748 1.6001 -5.2506 0
M  V30 10349 H 975.009 2.40357 -3.71054 0
M  V30 10350 N 974.068 1.57479 -0.061844 0
M  V30 10351 C 975.315 1.93108 0.60954 0
M  V30 10352 C 975.643 0.941086 1.70217 0
M  V30 10353 O 974.898 -0.044914 1.95648 0
M  V30 10354 C 975.197 3.35394 1.23474 0
M  V30 10355 C 974.863 4.50095 0.269247 0
M  V30 10356 C 973.525 4.812 0.00360316 0
M  V30 10357 C 975.877 5.19725 -0.391839 0
M  V30 10358 C 973.205 5.79276 -0.930383 0
M  V30 10359 C 975.557 6.18801 -1.31408 0
M  V30 10360 C 974.221 6.48328 -1.58829 0
M  V30 10361 H 973.491 0.706634 0.223046 0
M  V30 10362 H 976.138 1.91054 -0.1306 0
M  V30 10363 H 974.443 3.33866 2.05039 0
M  V30 10364 H 976.14 3.60247 1.76134 0
M  V30 10365 H 972.73 4.2583 0.486477 0
M  V30 10366 H 976.914 4.95898 -0.199713 0
M  V30 10367 H 972.17 6.00484 -1.15019 0
M  V30 10368 H 976.344 6.71862 -1.83234 0
M  V30 10369 H 973.971 7.24137 -2.31363 0
M  V30 10370 N 975.546 -0.211634 1.56173 0
M  V30 10371 C 976.509 -1.24588 1.92381 0
M  V30 10372 C 977.509 -1.39297 0.803311 0
M  V30 10373 O 978.699 -1.37392 1.07094 0
M  V30 10374 C 975.831 -2.61807 2.18335 0
M  V30 10375 H 977.024 -0.936814 2.84893 0
M  V30 10376 H 974.577 -0.452471 1.49607 0
M  V30 10377 H 975.312 -2.97795 1.28407 0
M  V30 10378 H 975.097 -2.52506 2.99972 0
M  V30 10379 H 976.587 -3.3642 2.4741 0
M  V30 10380 N 977.024 -1.50153 -0.478725 0
M  V30 10381 C 978.273 -1.60002 -1.22809 0
M  V30 10382 C 978.586 -0.302277 -1.9325 0
M  V30 10383 O 979.792 -0.279583 -2.70057 0
M  V30 10384 C 978.248 -2.82402 -2.23108 0
M  V30 10385 C 977.856 -4.19023 -1.58505 0
M  V30 10386 C 979.6 -3.01593 -2.98734 0
M  V30 10387 C 977.507 -5.32618 -2.57045 0
M  V30 10388 H 976.437 -0.595822 -0.462073 0
M  V30 10389 H 979.088 -1.76573 -0.499412 0
M  V30 10390 H 977.47 -2.59373 -2.99235 0
M  V30 10391 H 978.644 -4.52277 -0.882187 0
M  V30 10392 H 976.959 -4.05374 -0.951877 0
M  V30 10393 H 979.556 -3.8363 -3.72468 0
M  V30 10394 H 979.899 -2.1302 -3.57671 0
M  V30 10395 H 980.432 -3.24766 -2.29721 0
M  V30 10396 H 977.171 -6.23321 -2.02858 0
M  V30 10397 H 976.691 -5.03792 -3.25505 0
M  V30 10398 H 978.37 -5.62877 -3.19028 0
M  V30 10399 N 978.502 0.731368 -1.39602 0
M  V30 10400 C 979.449 1.84541 -1.38612 0
M  V30 10401 C 980.419 1.64279 -0.245287 0
M  V30 10402 O 981.604 1.85635 -0.440954 0
M  V30 10403 C 978.744 3.22092 -1.23897 0
M  V30 10404 C 977.857 3.54034 -2.47555 0
M  V30 10405 C 976.992 4.81007 -2.25402 0
M  V30 10406 C 976.031 5.05804 -3.44716 0
M  V30 10407 N 975.168 6.23981 -3.21857 0
M  V30 10408 H 980.008 1.84722 -2.33841 0
M  V30 10409 H 977.545 0.902569 -1.16156 0
M  V30 10410 H 979.503 4.01499 -1.13376 0
M  V30 10411 H 978.133 3.2118 -0.322958 0
M  V30 10412 H 977.185 2.69301 -2.68665 0
M  V30 10413 H 978.497 3.68275 -3.36415 0
M  V30 10414 H 977.651 5.68401 -2.12143 0
M  V30 10415 H 976.39 4.68946 -1.33943 0
M  V30 10416 H 975.395 4.1687 -3.58468 0
M  V30 10417 H 976.62 5.19747 -4.37081 0
M  V30 10418 H 974.566 6.13202 -2.33065 0
M  V30 10419 H 974.483 6.38826 -4.04274 0
M  V30 10420 H 975.751 7.14205 -3.123 0
M  V30 10421 N 979.98 1.24838 0.961938 0
M  V30 10422 C 980.927 1.04582 2.05745 0
M  V30 10423 C 981.897 -0.0427281 1.66045 0
M  V30 10424 O 983.082 0.113026 1.90465 0
M  V30 10425 C 980.222 0.66284 3.38675 0
M  V30 10426 C 979.335 1.82548 3.91536 0
M  V30 10427 C 978.47 1.38753 5.12758 0
M  V30 10428 C 977.509 2.51976 5.5783 0
M  V30 10429 N 976.646 2.09009 6.70268 0
M  V30 10430 H 981.486 1.98343 2.22405 0
M  V30 10431 H 979.023 0.987822 1.08998 0
M  V30 10432 H 980.981 0.421788 4.15062 0
M  V30 10433 H 979.611 -0.237776 3.21923 0
M  V30 10434 H 978.663 2.18004 3.11735 0
M  V30 10435 H 979.975 2.67601 4.20941 0
M  V30 10436 H 979.129 1.1057 5.96539 0
M  V30 10437 H 977.868 0.507618 4.85051 0
M  V30 10438 H 976.873 2.80912 4.72619 0
M  V30 10439 H 978.098 3.40534 5.87549 0
M  V30 10440 H 976.044 1.23423 6.44285 0
M  V30 10441 H 975.961 2.87613 6.99153 0
M  V30 10442 H 977.229 1.83981 7.57477 0
M  V30 10443 N 981.458 -1.16348 1.06306 0
M  V30 10444 C 982.405 -2.20741 0.673962 0
M  V30 10445 C 983.375 -1.628 -0.329454 0
M  V30 10446 O 984.56 -1.89547 -0.218313 0
M  V30 10447 C 981.7 -3.45036 0.0667008 0
M  V30 10448 C 980.813 -4.17221 1.12031 0
M  V30 10449 C 979.948 -5.29034 0.479176 0
M  V30 10450 C 978.987 -5.93021 1.51631 0
M  V30 10451 N 978.124 -6.96327 0.898528 0
M  V30 10452 H 982.964 -2.53376 1.56859 0
M  V30 10453 H 980.501 -1.24449 0.784276 0
M  V30 10454 H 982.459 -4.16099 -0.302916 0
M  V30 10455 H 981.089 -3.1295 -0.791333 0
M  V30 10456 H 980.141 -3.4476 1.60763 0
M  V30 10457 H 981.453 -4.60902 1.90712 0
M  V30 10458 H 980.607 -6.06674 0.0565993 0
M  V30 10459 H 979.346 -4.86517 -0.33951 0
M  V30 10460 H 978.351 -5.14104 1.94878 0
M  V30 10461 H 979.576 -6.37618 2.3371 0
M  V30 10462 H 977.522 -6.55923 0.100555 0
M  V30 10463 H 977.439 -7.38379 1.62272 0
M  V30 10464 H 978.707 -7.77888 0.5011 0
M  V30 10465 N 982.937 -0.845659 -1.3299 0
M  V30 10466 C 984.214 -0.366306 -1.92139 0
M  V30 10467 C 984.594 1.14912 -1.77083 0
M  V30 10468 O 983.942 1.96667 -1.16338 0
M  V30 10469 C 984.152 -0.820716 -3.39213 0
M  V30 10470 C 985.5 -0.832667 -4.16355 0
M  V30 10471 O 986.524 -0.764764 -3.47893 0
M  V30 10472 O 985.383 -0.926658 -5.38586 0
M  V30 10473 H 982.477 -0.105063 -0.820299 0
M  V30 10474 H 985.023 -0.931962 -1.41819 0
M  V30 10475 H 983.795 -1.86357 -3.44074 0
M  V30 10476 H 983.418 -0.232009 -3.96923 0
M  V30 10477 N 984.415 1.45619 -0.602734 0
M  V30 10478 C 985.64 2.07157 -0.100429 0
M  V30 10479 C 986.065 1.44524 1.20393 0
M  V30 10480 O 985.423 0.536191 1.7319 0
M  V30 10481 C 985.471 3.60587 0.0308604 0
M  V30 10482 O 984.575 3.97944 1.08234 0
M  V30 10483 H 983.916 0.6601 -0.0718643 0
M  V30 10484 H 986.446 1.86948 -0.831366 0
M  V30 10485 H 986.456 4.07348 0.230634 0
M  V30 10486 H 985.131 4.05561 -0.921581 0
M  V30 10487 H 983.708 3.62862 0.859414 0
M  V30 10488 N 985.893 0.34162 1.53853 0
M  V30 10489 C 987.121 -0.256929 2.05299 0
M  V30 10490 C 987.536 -1.44366 1.21671 0
M  V30 10491 O 986.893 -1.80758 0.251584 0
M  V30 10492 C 986.944 -0.673854 3.55164 0
M  V30 10493 O 986.665 0.465687 4.35618 0
M  V30 10494 C 988.166 -1.33332 4.22773 0
M  V30 10495 H 985.386 -0.0499445 0.669139 0
M  V30 10496 H 987.93 0.493048 1.98467 0
M  V30 10497 H 986.085 -1.37378 3.62224 0
M  V30 10498 H 986.499 0.133723 5.2433 0
M  V30 10499 H 987.973 -1.57582 5.29029 0
M  V30 10500 H 988.45 -2.28628 3.75001 0
M  V30 10501 H 989.056 -0.675489 4.19901 0
M  V30 10502 N 987.371 -1.57444 0.0701946 0
M  V30 10503 C 988.318 -2.12631 -0.897599 0
M  V30 10504 C 989.288 -1.03841 -1.29639 0
M  V30 10505 O 990.473 -1.31495 -1.38253 0
M  V30 10506 C 987.613 -2.6911 -2.16041 0
M  V30 10507 C 986.726 -3.9205 -1.8144 0
M  V30 10508 C 985.861 -4.36778 -3.02321 0
M  V30 10509 C 984.9 -5.52371 -2.63729 0
M  V30 10510 N 984.037 -5.92065 -3.77364 0
M  V30 10511 H 988.877 -2.95024 -0.420104 0
M  V30 10512 H 986.414 -1.45792 -0.195716 0
M  V30 10513 H 988.372 -2.99963 -2.89962 0
M  V30 10514 H 987.002 -1.89484 -2.61334 0
M  V30 10515 H 986.054 -3.67669 -0.975896 0
M  V30 10516 H 987.366 -4.76011 -1.49046 0
M  V30 10517 H 986.52 -4.69285 -3.84521 0
M  V30 10518 H 985.259 -3.51668 -3.37907 0
M  V30 10519 H 984.264 -5.19517 -1.7995 0
M  V30 10520 H 985.489 -6.39212 -2.29315 0
M  V30 10521 H 983.435 -5.09904 -4.12715 0
M  V30 10522 H 983.352 -6.70762 -3.48733 0
M  V30 10523 H 984.62 -6.29193 -4.60148 0
M  V30 10524 N 988.849 0.203349 -1.56283 0
M  V30 10525 C 990.095 0.921876 -1.81309 0
M  V30 10526 C 990.45 1.81231 -0.645994 0
M  V30 10527 O 989.743 1.88203 0.359206 0
M  V30 10528 C 989.937 1.78016 -3.09912 0
M  V30 10529 C 989.766 0.974308 -4.39019 0
M  V30 10530 C 988.536 0.662001 -5.00945 0
M  V30 10531 C 990.734 0.330925 -5.13234 0
M  V30 10532 N 988.716 -0.163344 -6.13683 0
M  V30 10533 C 990.087 -0.356989 -6.18971 0
M  V30 10534 C 992.142 0.245809 -4.97293 0
M  V30 10535 C 990.845 -1.1219 -7.10497 0
M  V30 10536 C 992.871 -0.505684 -5.89234 0
M  V30 10537 C 992.233 -1.18207 -6.94411 0
M  V30 10538 H 988.332 0.317003 -0.714866 0
M  V30 10539 H 990.916 0.191255 -1.93758 0
M  V30 10540 H 989.087 2.48245 -2.98712 0
M  V30 10541 H 990.819 2.43754 -3.23057 0
M  V30 10542 H 987.574 0.984437 -4.63256 0
M  V30 10543 H 987.998 -0.565386 -6.74635 0
M  V30 10544 H 992.64 0.754396 -4.16015 0
M  V30 10545 H 990.358 -1.64195 -7.91243 0
M  V30 10546 H 993.944 -0.572788 -5.78974 0
M  V30 10547 H 992.824 -1.75427 -7.64327 0
M  V30 10548 N 990.327 1.50405 0.470755 0
M  V30 10549 C 991.743 1.37838 0.804534 0
M  V30 10550 C 991.943 0.434743 1.96754 0
M  V30 10551 O 990.999 -0.122507 2.52203 0
M  V30 10552 C 992.312 2.79212 1.11629 0
M  V30 10553 C 993.86 2.88129 1.22272 0
M  V30 10554 C 994.335 4.30337 1.5676 0
M  V30 10555 N 995.826 4.3329 1.63751 0
M  V30 10556 C 996.561 5.4032 1.91942 0
M  V30 10557 N 996.057 6.57558 2.18151 0
M  V30 10558 N 997.85 5.27764 1.93446 0
M  V30 10559 H 990.001 2.10332 -0.295689 0
M  V30 10560 H 992.264 0.945429 -0.0697733 0
M  V30 10561 H 991.97 3.50103 0.334778 0
M  V30 10562 H 991.844 3.16475 2.0524 0
M  V30 10563 H 994.231 2.17457 1.9949 0
M  V30 10564 H 994.312 2.54409 0.2664 0
M  V30 10565 H 993.956 5.01547 0.800817 0
M  V30 10566 H 993.886 4.61545 2.53543 0
M  V30 10567 H 996.377 3.48752 1.45535 0
M  V30 10568 H 996.69 7.34935 2.38936 0
M  V30 10569 H 995.035 6.60732 2.15542 0
M  V30 10570 H 998.226 4.35169 1.72468 0
M  V30 10571 H 998.399 6.11264 2.15081 0
M  V30 10572 N 991.805 -0.723954 1.39988 0
M  V30 10573 C 992.752 -1.83803 1.39589 0
M  V30 10574 C 993.722 -1.64146 0.253996 0
M  V30 10575 O 994.907 -1.85398 0.450793 0
M  V30 10576 C 992.047 -3.21431 1.25604 0
M  V30 10577 C 991.16 -3.52717 2.49429 0
M  V30 10578 C 990.295 -4.79805 2.27949 0
M  V30 10579 C 989.334 -5.03968 3.47394 0
M  V30 10580 N 988.471 -6.22266 3.25161 0
M  V30 10581 H 993.311 -1.83479 2.34818 0
M  V30 10582 H 990.848 -0.896396 1.16633 0
M  V30 10583 H 992.806 -4.00892 1.15504 0
M  V30 10584 H 991.436 -3.21005 0.339986 0
M  V30 10585 H 990.488 -2.67872 2.7009 0
M  V30 10586 H 991.8 -3.66486 3.38363 0
M  V30 10587 H 990.954 -5.67268 2.15155 0
M  V30 10588 H 989.693 -4.68229 1.36428 0
M  V30 10589 H 988.698 -4.14963 3.60674 0
M  V30 10590 H 989.923 -5.17422 4.39831 0
M  V30 10591 H 987.869 -6.11957 2.36314 0
M  V30 10592 H 987.786 -6.36673 4.07656 0
M  V30 10593 H 989.054 -7.12539 3.16083 0
M  V30 10594 N 993.283 -1.25346 -0.955304 0
M  V30 10595 C 994.213 -1.08152 -2.06943 0
M  V30 10596 C 995.194 0.00922598 -1.70097 0
M  V30 10597 O 996.379 -0.160181 -1.93538 0
M  V30 10598 C 993.509 -0.698745 -3.40198 0
M  V30 10599 C 992.463 -1.73965 -3.9105 0
M  V30 10600 C 991.789 -1.21158 -5.20792 0
M  V30 10601 C 993.089 -3.13829 -4.17503 0
M  V30 10602 H 994.783 -2.01345 -2.21586 0
M  V30 10603 H 992.329 -0.969459 -1.06478 0
M  V30 10604 H 994.282 -0.565394 -4.1759 0
M  V30 10605 H 993.006 0.268892 -3.25491 0
M  V30 10606 H 991.665 -1.86143 -3.15827 0
M  V30 10607 H 991.313 -0.234193 -5.02455 0
M  V30 10608 H 991.013 -1.90728 -5.55785 0
M  V30 10609 H 992.537 -1.09061 -6.00781 0
M  V30 10610 H 993.951 -3.04809 -4.85556 0
M  V30 10611 H 992.348 -3.80863 -4.63749 0
M  V30 10612 H 993.418 -3.6094 -3.23806 0
M  V30 10613 N 994.761 1.15782 -1.06922 0
M  V30 10614 C 996.007 1.86741 -0.790922 0
M  V30 10615 C 996.34 1.81863 0.681149 0
M  V30 10616 O 995.615 1.23871 1.49954 0
M  V30 10617 C 995.898 3.36038 -1.29422 0
M  V30 10618 C 995.751 3.49573 -2.83052 0
M  V30 10619 C 997.07 4.30647 -0.907239 0
M  V30 10620 H 994.189 0.678064 -0.288787 0
M  V30 10621 H 996.831 1.36054 -1.32624 0
M  V30 10622 H 994.981 3.79336 -0.838843 0
M  V30 10623 H 996.653 3.1517 -3.36847 0
M  V30 10624 H 994.896 2.91275 -3.21467 0
M  V30 10625 H 995.567 4.5445 -3.13335 0
M  V30 10626 H 998.043 3.95286 -1.29956 0
M  V30 10627 H 996.919 5.33604 -1.28679 0
M  V30 10628 H 997.18 4.41703 0.187251 0
M  V30 10629 N 996.239 0.8527 1.3254 0
M  V30 10630 C 997.516 0.376491 1.91942 0
M  V30 10631 C 997.896 -1.13972 1.7769 0
M  V30 10632 O 997.244 -1.96047 1.17379 0
M  V30 10633 C 997.454 0.838694 3.38773 0
M  V30 10634 C 998.802 0.854736 4.15908 0
M  V30 10635 O 999.826 0.783203 3.47483 0
M  V30 10636 O 998.685 0.955207 5.38087 0
M  V30 10637 H 995.779 0.109412 0.81973 0
M  V30 10638 H 998.325 0.93947 1.41322 0
M  V30 10639 H 997.097 1.88179 3.43081 0
M  V30 10640 H 996.72 0.253055 3.96794 0
M  V30 10641 N 997.718 -1.45297 0.610449 0
M  V30 10642 C 998.965 -2.02218 0.106759 0
M  V30 10643 C 999.293 -1.47849 -1.26376 0
M  V30 10644 O 998.548 -0.644402 -1.84786 0
M  V30 10645 C 998.847 -3.57394 0.0205329 0
M  V30 10646 C 998.513 -4.30928 1.32709 0
M  V30 10647 C 997.175 -4.50735 1.68498 0
M  V30 10648 C 999.527 -4.72936 2.19046 0
M  V30 10649 C 996.855 -5.09806 2.90371 0
M  V30 10650 C 999.207 -5.33355 3.40169 0
M  V30 10651 C 997.871 -5.51384 3.76207 0
M  V30 10652 H 997.141 -0.739969 0.039066 0
M  V30 10653 H 999.788 -1.74326 0.792638 0
M  V30 10654 H 998.093 -3.84581 -0.748623 0
M  V30 10655 H 999.79 -3.99144 -0.385386 0
M  V30 10656 H 996.38 -4.15827 1.03854 0
M  V30 10657 H 1000.56 -4.57365 1.92695 0
M  V30 10658 H 995.82 -5.21953 3.18395 0
M  V30 10659 H 999.994 -5.64859 4.07318 0
M  V30 10660 H 997.621 -5.96924 4.70729 0
M  V30 10661 N 999.196 -0.349774 -1.5367 0
M  V30 10662 C 1000.61 0.00191293 -1.596 0
M  V30 10663 C 1000.81 1.48175 -1.36552 0
M  V30 10664 O 999.868 2.24129 -1.16285 0
M  V30 10665 C 1001.18 -0.439848 -2.97466 0
M  V30 10666 C 1002.73 -0.392721 -3.10526 0
M  V30 10667 C 1003.2 -0.810047 -4.5078 0
M  V30 10668 N 1004.69 -0.764478 -4.56848 0
M  V30 10669 C 1005.43 -1.05927 -5.63531 0
M  V30 10670 N 1004.93 -1.42253 -6.78038 0
M  V30 10671 N 1006.72 -0.983098 -5.53436 0
M  V30 10672 H 998.87 -1.31364 -1.66905 0
M  V30 10673 H 1001.13 -0.535908 -0.781989 0
M  V30 10674 H 1000.84 -1.47189 -3.19419 0
M  V30 10675 H 1000.71 0.181735 -3.76762 0
M  V30 10676 H 1003.1 0.630161 -2.88293 0
M  V30 10677 H 1003.18 -1.04959 -2.33275 0
M  V30 10678 H 1002.82 -1.83097 -4.73749 0
M  V30 10679 H 1002.75 -0.130591 -5.26438 0
M  V30 10680 H 1005.25 -0.496637 -3.74622 0
M  V30 10681 H 1005.56 -1.63215 -7.55368 0
M  V30 10682 H 1003.9 -1.46104 -6.79469 0
M  V30 10683 H 1007.09 -0.698601 -4.62858 0
M  V30 10684 H 1007.27 -1.21618 -6.36485 0
M  V30 10685 N 1000.67 1.57404 -0.0785433 0
M  V30 10686 C 1001.58 2.16612 0.900902 0
M  V30 10687 C 1002.6 1.13109 1.32221 0
M  V30 10688 O 1003.78 1.45406 1.39352 0
M  V30 10689 C 1000.84 2.7215 2.14791 0
M  V30 10690 C 999.902 3.90551 1.78237 0
M  V30 10691 C 999.135 4.43431 2.96993 0
M  V30 10692 O 999.358 3.95292 4.11218 0
M  V30 10693 O 998.292 5.34674 2.76418 0
M  V30 10694 H 1002.12 3.0068 0.427227 0
M  V30 10695 H 999.703 1.48696 0.144902 0
M  V30 10696 H 1001.58 3.07718 2.87902 0
M  V30 10697 H 1000.26 1.91139 2.61243 0
M  V30 10698 H 999.167 3.59825 1.02357 0
M  V30 10699 H 1000.5 4.72876 1.36562 0
M  V30 10700 N 1002.15 -0.195058 1.56388 0
M  V30 10701 C 1003.08 -1.24444 1.97575 0
M  V30 10702 C 1004.06 -1.47471 0.847717 0
M  V30 10703 O 1005.25 -1.59208 1.11205 0
M  V30 10704 C 1002.38 -2.58866 2.31529 0
M  V30 10705 C 1001.33 -2.50451 3.47071 0
M  V30 10706 C 1000.66 -3.89146 3.667 0
M  V30 10707 C 1001.96 -2.02953 4.81256 0
M  V30 10708 H 1003.65 -0.902178 2.85484 0
M  V30 10709 H 1001.2 -0.43254 1.3735 0
M  V30 10710 H 1003.15 -3.3246 2.58936 0
M  V30 10711 H 1001.87 -2.94833 1.40502 0
M  V30 10712 H 1000.53 -1.79313 3.19754 0
M  V30 10713 H 1000.18 -4.22466 2.73004 0
M  V30 10714 H 999.882 -3.84391 4.44429 0
M  V30 10715 H 1001.41 -4.64363 3.96484 0
M  V30 10716 H 1002.82 -2.66306 5.07695 0
M  V30 10717 H 1001.22 -2.092 5.62455 0
M  V30 10718 H 1002.29 -0.982757 4.74837 0
M  V30 10719 N 1003.63 -1.50653 -0.462772 0
M  V30 10720 C 1004.58 -1.70661 -1.58043 0
M  V30 10721 C 1005.57 -0.572533 -1.59432 0
M  V30 10722 O 1006.78 -0.753257 -1.63481 0
M  V30 10723 H 1003.15 -0.538805 -0.524588 0
M  V30 10724 H 1005.12 -2.64399 -1.38332 0
M  V30 10725 C 1003.87 -1.82558 -2.95919 0
M  V30 10726 H 1003.2 -2.69216 -2.95572 0
M  V30 10727 H 1004.64 -2.0058 -3.73556 0
M  V30 10728 C 1003.09 -0.57916 -3.31885 0
M  V30 10729 O 1003.62 0.277888 -4.00738 0
M  V30 10730 N 1001.83 -0.430723 -2.8739 0
M  V30 10731 H 1001.38 -1.1292 -2.31531 0
M  V30 10732 H 1001.34 0.402061 -3.11819 0
M  V30 10733 N 1005.11 0.71652 -1.4037 0
M  V30 10734 C 1006.52 1.02447 -1.22379 0
M  V30 10735 C 1006.72 2.0126 -0.0983394 0
M  V30 10736 O 1005.78 2.46569 0.544071 0
M  V30 10737 C 1007.09 1.56909 -2.56515 0
M  V30 10738 C 1008.64 1.68898 -2.6352 0
M  V30 10739 C 1009.12 2.26765 -3.97922 0
M  V30 10740 N 1010.61 2.34152 -3.99658 0
M  V30 10741 C 1011.34 2.79907 -5.00439 0
M  V30 10742 N 1010.84 3.25422 -6.11615 0
M  V30 10743 N 1012.63 2.79283 -4.87809 0
M  V30 10744 H 1004.78 0.0615306 -2.12311 0
M  V30 10745 H 1007.05 0.0898994 -0.943728 0
M  V30 10746 H 1006.75 0.917649 -3.39517 0
M  V30 10747 H 1006.63 2.55446 -2.77538 0
M  V30 10748 H 1009.01 2.33159 -1.8089 0
M  V30 10749 H 1009.09 0.689626 -2.46329 0
M  V30 10750 H 1008.74 1.63126 -4.80991 0
M  V30 10751 H 1008.67 3.27413 -4.12442 0
M  V30 10752 H 1011.16 2.02006 -3.19378 0
M  V30 10753 H 1011.47 3.58899 -6.84406 0
M  V30 10754 H 1009.82 3.23383 -6.15181 0
M  V30 10755 H 1013.01 2.43061 -4.00049 0
M  V30 10756 H 1013.18 3.14626 -5.66493 0
M  V30 10757 N 1006.59 1.25851 0.948643 0
M  V30 10758 C 1008 1.02802 1.22081 0
M  V30 10759 C 1008.2 -0.251461 1.99925 0
M  V30 10760 O 1007.26 -0.962592 2.33432 0
M  V30 10761 C 1008.57 2.25489 1.98936 0
M  V30 10762 C 1010.12 2.30312 2.11956 0
M  V30 10763 C 1010.59 3.52671 2.92211 0
M  V30 10764 N 1012.09 3.53103 2.99787 0
M  V30 10765 C 1012.82 4.44445 3.62294 0
M  V30 10766 N 1012.32 5.46065 4.26362 0
M  V30 10767 N 1014.11 4.32113 3.59493 0
M  V30 10768 H 1006.26 2.08042 0.428044 0
M  V30 10769 H 1008.52 0.913928 0.251872 0
M  V30 10770 H 1008.23 3.18513 1.4914 0
M  V30 10771 H 1008.1 2.2914 2.99624 0
M  V30 10772 H 1010.49 1.37808 2.60946 0
M  V30 10773 H 1010.57 2.30676 1.10554 0
M  V30 10774 H 1010.22 4.45501 2.43909 0
M  V30 10775 H 1010.15 3.49554 3.93853 0
M  V30 10776 H 1012.64 2.79597 2.54232 0
M  V30 10777 H 1012.95 6.11964 4.71932 0
M  V30 10778 H 1011.29 5.49931 4.24972 0
M  V30 10779 H 1014.49 3.51946 3.08629 0
M  V30 10780 H 1014.66 5.03493 4.0792 0
M  V30 10781 N 1008.06 -1.15214 1.07534 0
M  V30 10782 C 1009.29 -1.89922 0.820804 0
M  V30 10783 C 1009.71 -1.78114 -0.626177 0
M  V30 10784 O 1009.06 -1.13435 -1.42964 0
M  V30 10785 C 1009.12 -3.40207 1.22236 0
M  V30 10786 O 1008.84 -3.51676 2.61257 0
M  V30 10787 C 1010.34 -4.31934 0.997393 0
M  V30 10788 H 1007.56 -0.601865 0.296647 0
M  V30 10789 H 1010.1 -1.45965 1.43229 0
M  V30 10790 H 1008.26 -3.8182 0.655167 0
M  V30 10791 H 1008.67 -4.44959 2.77689 0
M  V30 10792 H 1010.14 -5.35791 1.32785 0
M  V30 10793 H 1010.62 -4.3915 -0.0661599 0
M  V30 10794 H 1011.23 -3.96066 1.54958 0
M  V30 10795 N 1009.54 -0.859717 -1.32086 0
M  V30 10796 C 1010.47 -0.265258 -2.2766 0
M  V30 10797 C 1011.49 0.565889 -1.52648 0
M  V30 10798 O 1012.68 0.389554 -1.74197 0
M  V30 10799 C 1009.78 0.643397 -3.32737 0
M  V30 10800 C 1008.95 -0.153024 -4.37132 0
M  V30 10801 C 1008.01 0.682176 -5.21759 0
M  V30 10802 O 1007.03 0.113878 -5.69086 0
M  V30 10803 N 1008.24 1.99602 -5.45105 0
M  V30 10804 H 1011 -1.08653 -2.79311 0
M  V30 10805 H 1008.56 -0.720191 -1.45 0
M  V30 10806 H 1010.55 1.20759 -3.86263 0
M  V30 10807 H 1009.12 1.36535 -2.81206 0
M  V30 10808 H 1008.34 -0.898657 -3.8382 0
M  V30 10809 H 1009.63 -0.699877 -5.03963 0
M  V30 10810 H 1009.03 2.481 -5.08393 0
M  V30 10811 H 1007.59 2.50823 -6.01607 0
M  V30 10812 N 1011.02 1.44971 -0.618145 0
M  V30 10813 C 1012.3 1.95539 -0.0489895 0
M  V30 10814 C 1012.68 1.5604 1.42179 0
M  V30 10815 O 1012.03 0.82809 2.12967 0
M  V30 10816 C 1012.24 3.48044 -0.258193 0
M  V30 10817 C 1013.58 4.24354 -0.144541 0
M  V30 10818 O 1014.61 3.55699 -0.18887 0
M  V30 10819 O 1013.47 5.46486 -0.038519 0
M  V30 10820 H 1010.56 0.826466 0.0297256 0
M  V30 10821 H 1013.11 1.55086 -0.688944 0
M  V30 10822 H 1011.88 3.69798 -1.27926 0
M  V30 10823 H 1011.5 3.95412 0.416522 0
M  V30 10824 N 1012.5 0.357919 1.53482 0
M  V30 10825 C 1013.75 -0.234163 2.01142 0
M  V30 10826 C 1014.07 -1.49399 1.2454 0
M  V30 10827 O 1013.33 -1.92981 0.325111 0
M  V30 10828 C 1013.63 -0.579617 3.52669 0
M  V30 10829 C 1013.29 0.584988 4.47089 0
M  V30 10830 C 1011.96 0.904558 4.72622 0
M  V30 10831 C 1014.31 1.3656 5.02992 0
M  V30 10832 C 1011.64 2.00685 5.5131 0
M  V30 10833 C 1013.99 2.45824 5.82884 0
M  V30 10834 C 1012.65 2.78325 6.06706 0
M  V30 10835 H 1011.92 -0.0856863 0.736029 0
M  V30 10836 H 1014.57 0.488801 1.85157 0
M  V30 10837 H 1012.87 -1.38349 3.66561 0
M  V30 10838 H 1014.57 -1.04985 3.87013 0
M  V30 10839 H 1011.16 0.32587 4.27359 0
M  V30 10840 H 1015.34 1.13196 4.83219 0
M  V30 10841 H 1010.6 2.26272 5.67988 0
M  V30 10842 H 1014.77 3.06732 6.25211 0
M  V30 10843 H 1012.4 3.63862 6.67464 0
M  V30 10844 N 1013.98 -1.5736 0.0868897 0
M  V30 10845 C 1015.22 -1.95147 -0.573512 0
M  V30 10846 C 1015.58 -0.967591 -1.66299 0
M  V30 10847 O 1014.87 0.00774571 -1.91598 0
M  V30 10848 C 1015.06 -3.37316 -1.18123 0
M  V30 10849 C 1014.89 -4.49443 -0.152145 0
M  V30 10850 C 1013.66 -5.04586 0.268496 0
M  V30 10851 C 1015.86 -5.10592 0.616502 0
M  V30 10852 N 1013.84 -6.00264 1.28671 0
M  V30 10853 C 1015.21 -6.0191 1.48677 0
M  V30 10854 C 1017.27 -4.93359 0.67092 0
M  V30 10855 C 1015.97 -6.77844 2.40664 0
M  V30 10856 C 1018 -5.69949 1.57837 0
M  V30 10857 C 1017.36 -6.60927 2.43628 0
M  V30 10858 H 1013.46 -0.760898 -0.180439 0
M  V30 10859 H 1016.04 -1.93978 0.167548 0
M  V30 10860 H 1014.21 -3.39194 -1.89214 0
M  V30 10861 H 1015.95 -3.62301 -1.80332 0
M  V30 10862 H 1012.7 -4.73454 -0.117625 0
M  V30 10863 H 1013.13 -6.52804 1.79377 0
M  V30 10864 H 1017.77 -4.22794 0.0218207 0
M  V30 10865 H 1015.49 -7.47677 3.06603 0
M  V30 10866 H 1019.07 -5.58631 1.6255 0
M  V30 10867 H 1017.95 -7.19156 3.12705 0
M  V30 10868 N 1015.45 0.186762 -1.56489 0
M  V30 10869 C 1016.36 1.25169 -1.98419 0
M  V30 10870 C 1017.38 1.49329 -0.893124 0
M  V30 10871 O 1018.56 1.61781 -1.19954 0
M  V30 10872 C 1015.62 2.57422 -2.32239 0
M  V30 10873 C 1014.68 2.4126 -3.55095 0
M  V30 10874 C 1013.92 3.67206 -3.87292 0
M  V30 10875 O 1014.14 4.71731 -3.20665 0
M  V30 10876 O 1013.07 3.62238 -4.80695 0
M  V30 10877 H 1016.9 0.925834 -2.89244 0
M  V30 10878 H 1014.48 0.392421 -1.44154 0
M  V30 10879 H 1016.37 3.35466 -2.5503 0
M  V30 10880 H 1015.04 2.89618 -1.44579 0
M  V30 10881 H 1013.95 1.61299 -3.37541 0
M  V30 10882 H 1015.28 2.13994 -4.43247 0
M  V30 10883 N 1016.93 1.50896 0.454776 0
M  V30 10884 C 1018.18 1.6294 1.20741 0
M  V30 10885 C 1018.51 0.336339 1.91265 0
M  V30 10886 O 1017.79 -0.663153 1.82846 0
M  V30 10887 C 1018.07 2.82092 2.23822 0
M  V30 10888 C 1017.92 4.21326 1.57495 0
M  V30 10889 C 1019.24 2.96777 3.24979 0
M  V30 10890 H 1016.36 0.59302 0.437603 0
M  V30 10891 H 1019 1.83331 0.498959 0
M  V30 10892 H 1017.15 2.64837 2.84243 0
M  V30 10893 H 1018.82 4.50209 1.00546 0
M  V30 10894 H 1017.07 4.24829 0.877664 0
M  V30 10895 H 1017.74 5.00656 2.32482 0
M  V30 10896 H 1020.21 3.12627 2.74597 0
M  V30 10897 H 1019.09 3.81742 3.94416 0
M  V30 10898 H 1019.35 2.08091 3.90065 0
M  V30 10899 N 1018.41 -0.709066 1.40748 0
M  V30 10900 C 1019.34 -1.83412 1.37451 0
M  V30 10901 C 1020.36 -1.60394 0.27884 0
M  V30 10902 O 1021.54 -1.70147 0.539642 0
M  V30 10903 C 1018.64 -3.19935 1.1178 0
M  V30 10904 C 1017.82 -3.70095 2.33128 0
M  V30 10905 C 1016.88 -4.85249 2.03518 0
M  V30 10906 O 1015.9 -4.97563 2.76442 0
M  V30 10907 N 1017.1 -5.7152 1.01714 0
M  V30 10908 H 1019.87 -1.86736 2.34414 0
M  V30 10909 H 1017.43 -0.890863 1.35186 0
M  V30 10910 H 1019.42 -3.94578 0.899464 0
M  V30 10911 H 1017.99 -3.11718 0.234624 0
M  V30 10912 H 1017.21 -2.8651 2.70751 0
M  V30 10913 H 1018.5 -4.00344 3.1401 0
M  V30 10914 H 1017.9 -5.64188 0.413307 0
M  V30 10915 H 1016.46 -6.46119 0.858696 0
M  V30 10916 N 1019.89 -1.26353 -0.941956 0
M  V30 10917 C 1020.82 -1.10341 -2.05784 0
M  V30 10918 C 1021.8 -0.00881565 -1.70098 0
M  V30 10919 O 1022.99 -0.180699 -1.93357 0
M  V30 10920 C 1020.12 -0.734788 -3.39438 0
M  V30 10921 C 1019.07 -1.78103 -3.89183 0
M  V30 10922 C 1018.4 -1.26675 -5.19478 0
M  V30 10923 C 1019.7 -3.1824 -4.14151 0
M  V30 10924 H 1021.39 -2.03684 -2.19438 0
M  V30 10925 H 1018.94 -0.980698 -1.05443 0
M  V30 10926 H 1020.89 -0.609653 -4.16967 0
M  V30 10927 H 1019.61 0.234354 -3.25758 0
M  V30 10928 H 1018.27 -1.89482 -3.13835 0
M  V30 10929 H 1017.92 -0.287472 -5.02178 0
M  V30 10930 H 1017.62 -1.96612 -5.53731 0
M  V30 10931 H 1019.14 -1.15427 -5.99591 0
M  V30 10932 H 1020.56 -3.09942 -4.82296 0
M  V30 10933 H 1018.95 -3.8576 -4.59684 0
M  V30 10934 H 1020.02 -3.64354 -3.19959 0
M  V30 10935 N 1021.37 1.14642 -1.08144 0
M  V30 10936 C 1022.62 1.8525 -0.807885 0
M  V30 10937 C 1022.94 1.83194 0.668213 0
M  V30 10938 O 1022.21 1.27848 1.48431 0
M  V30 10939 H 1020.79 0.685909 -0.295868 0
M  V30 10940 H 1023.45 1.38935 -1.36686 0
M  V30 10941 H 1022.54 2.90155 -1.14964 0
M  V30 10942 N 1022.85 0.866709 1.31628 0
M  V30 10943 C 1024.09 0.472185 1.96095 0
M  V30 10944 C 1024.41 -0.979873 1.69286 0
M  V30 10945 O 1025.61 -1.48039 2.27589 0
M  V30 10946 C 1024.07 0.793468 3.51044 0
M  V30 10947 C 1023.68 2.26206 3.86697 0
M  V30 10948 C 1025.42 0.467255 4.21921 0
M  V30 10949 C 1023.33 2.52593 5.34743 0
M  V30 10950 H 1022.26 0.172846 0.733921 0
M  V30 10951 H 1024.91 1.05916 1.49847 0
M  V30 10952 H 1023.29 0.135783 3.95767 0
M  V30 10953 H 1024.47 2.96254 3.52945 0
M  V30 10954 H 1022.78 2.55399 3.28877 0
M  V30 10955 H 1025.38 0.641669 5.30836 0
M  V30 10956 H 1025.72 -0.592065 4.12068 0
M  V30 10957 H 1026.25 1.08134 3.82821 0
M  V30 10958 H 1022.99 3.57196 5.49628 0
M  V30 10959 H 1022.51 1.87136 5.6986 0
M  V30 10960 H 1024.19 2.37156 6.01968 0
M  V30 10961 N 1024.32 -1.44642 0.625825 0
M  V30 10962 C 1025.73 -1.85502 0.211175 0
M  V30 10963 C 1026.09 -1.52356 -1.2362 0
M  V30 10964 O 1025.21 -0.959051 -1.93988 0
M  V30 10965 C 1025.81 -3.36702 0.37648 0
M  V30 10966 C 1024.36 -3.76396 0.0163795 0
M  V30 10967 C 1023.51 -2.68517 0.692368 0
M  V30 10968 H 1026.46 -1.35183 0.831333 0
M  V30 10969 H 1026.48 -3.78536 -0.386106 0
M  V30 10970 H 1026 -3.60795 1.42999 0
M  V30 10971 H 1024.1 -3.57919 -1.0356 0
M  V30 10972 H 1024.21 -4.77231 0.422742 0
M  V30 10973 H 1022.57 -2.54377 0.128191 0
M  V30 10974 H 1023.36 -2.95444 1.74837 0
M  V30 10975 N 1025.8 -0.366053 -1.5329 0
M  V30 10976 C 1026.75 0.496656 -2.22525 0
M  V30 10977 C 1027.74 1.0483 -1.22063 0
M  V30 10978 O 1028.93 0.978266 -1.47509 0
M  V30 10979 C 1026.06 1.63559 -3.01833 0
M  V30 10980 C 1025.14 1.0968 -4.09672 0
M  V30 10981 N 1025.53 0.28104 -5.05019 0
M  V30 10982 C 1023.83 1.37157 -4.24387 0
M  V30 10983 C 1024.53 -0.0140071 -5.81698 0
M  V30 10984 N 1023.51 0.583743 -5.40457 0
M  V30 10985 H 1027.31 -0.133408 -2.93597 0
M  V30 10986 H 1024.82 -0.174095 -1.61464 0
M  V30 10987 H 1026.82 2.26582 -3.49952 0
M  V30 10988 H 1025.48 2.26871 -2.32292 0
M  V30 10989 H 1026.49 -0.0797947 -5.17839 0
M  V30 10990 H 1023.17 2.00743 -3.66072 0
M  V30 10991 H 1024.56 -0.673508 -6.68516 0
M  V30 10992 N 1027.28 1.57312 -0.0952337 0
M  V30 10993 C 1028.69 1.81589 0.433875 0
M  V30 10994 C 1029.04 1.01086 1.68155 0
M  V30 10995 O 1028.17 0.240272 2.15062 0
M  V30 10996 C 1028.76 3.29366 0.793931 0
M  V30 10997 C 1027.32 3.54407 1.26778 0
M  V30 10998 C 1026.47 2.76035 0.264518 0
M  V30 10999 H 1029.42 1.55426 -0.320675 0
M  V30 11000 H 1029.44 3.42697 1.65345 0
M  V30 11001 H 1028.95 3.87932 -0.114334 0
M  V30 11002 H 1027.05 3.01173 2.19376 0
M  V30 11003 H 1027.17 4.63055 1.22952 0
M  V30 11004 H 1025.53 2.43509 0.746691 0
M  V30 11005 H 1026.31 3.37349 -0.636429 0
M  V30 11006 N 1028.76 -0.17846 1.56586 0
M  V30 11007 C 1029.72 -1.20479 1.94981 0
M  V30 11008 C 1030.72 -1.37561 0.832677 0
M  V30 11009 O 1031.91 -1.35089 1.09984 0
M  V30 11010 C 1029.04 -2.57117 2.23839 0
M  V30 11011 H 1030.24 -0.876173 2.86816 0
M  V30 11012 H 1027.79 -0.420635 1.50534 0
M  V30 11013 H 1028.52 -2.95005 1.34695 0
M  V30 11014 H 1028.31 -2.46086 3.05261 0
M  V30 11015 H 1029.8 -3.31096 2.5449 0
M  V30 11016 N 1030.24 -1.51135 -0.446768 0
M  V30 11017 C 1031.48 -1.63013 -1.19461 0
M  V30 11018 C 1031.8 -0.344067 -1.91941 0
M  V30 11019 O 1031.07 0.639666 -1.85162 0
M  V30 11020 H 1029.65 -0.600757 -0.443959 0
M  V30 11021 H 1032.32 -1.88024 -0.513137 0
M  V30 11022 H 1031.41 -2.45322 -1.92933 0
M  V30 11023 N 1031.71 0.701592 -1.41122 0
M  V30 11024 C 1032.64 1.82815 -1.45262 0
M  V30 11025 C 1033.62 1.67215 -0.311939 0
M  V30 11026 O 1034.81 1.87038 -0.522538 0
M  V30 11027 C 1031.94 3.20899 -1.32819 0
M  V30 11028 C 1030.89 3.51194 -2.44636 0
M  V30 11029 C 1030.22 4.8857 -2.17263 0
M  V30 11030 C 1031.52 3.50777 -3.86979 0
M  V30 11031 H 1033.21 1.79608 -2.39544 0
M  V30 11032 H 1030.76 0.862693 -1.15298 0
M  V30 11033 H 1032.71 3.99417 -1.34329 0
M  V30 11034 H 1031.44 3.24717 -0.350191 0
M  V30 11035 H 1030.1 2.75024 -2.42399 0
M  V30 11036 H 1029.74 4.89007 -1.17819 0
M  V30 11037 H 1029.44 5.09805 -2.92186 0
M  V30 11038 H 1030.97 5.69405 -2.20478 0
M  V30 11039 H 1032.38 4.19309 -3.90964 0
M  V30 11040 H 1030.78 3.83542 -4.61536 0
M  V30 11041 H 1031.85 2.49873 -4.15562 0
M  V30 11042 N 1033.19 1.2685 0.935242 0
M  V30 11043 C 1034.14 1.08923 2.03481 0
M  V30 11044 C 1035.11 -0.00749786 1.66098 0
M  V30 11045 O 1036.29 0.153401 1.90182 0
M  V30 11046 C 1033.43 0.734529 3.37192 0
M  V30 11047 C 1032.55 1.90812 3.87576 0
M  V30 11048 C 1031.68 1.49599 5.097 0
M  V30 11049 C 1030.72 2.63752 5.5236 0
M  V30 11050 N 1029.86 2.23179 6.65684 0
M  V30 11051 H 1034.7 2.03016 2.18148 0
M  V30 11052 H 1032.23 1.01072 1.06878 0
M  V30 11053 H 1034.19 0.509734 4.14074 0
M  V30 11054 H 1032.82 -0.169438 3.22355 0
M  V30 11055 H 1031.87 2.24567 3.0704 0
M  V30 11056 H 1033.19 2.7647 4.1517 0
M  V30 11057 H 1032.34 1.23199 5.9406 0
M  V30 11058 H 1031.08 0.61039 4.83865 0
M  V30 11059 H 1030.08 2.90874 4.66554 0
M  V30 11060 H 1031.31 3.5292 5.80193 0
M  V30 11061 H 1029.26 1.37061 6.41522 0
M  V30 11062 H 1029.17 3.02379 6.92895 0
M  V30 11063 H 1030.44 2.00007 7.53404 0
M  V30 11064 N 1034.67 -1.14067 1.0875 0
M  V30 11065 C 1035.62 -2.19261 0.720633 0
M  V30 11066 C 1036.59 -1.63462 -0.294847 0
M  V30 11067 O 1037.77 -1.89967 -0.178058 0
M  V30 11068 C 1034.91 -3.44816 0.139873 0
M  V30 11069 C 1034.03 -4.1475 1.20856 0
M  V30 11070 C 1033.16 -5.27899 0.591285 0
M  V30 11071 C 1032.2 -5.89672 1.64176 0
M  V30 11072 N 1031.34 -6.94264 1.04603 0
M  V30 11073 H 1036.18 -2.49991 1.62198 0
M  V30 11074 H 1033.71 -1.22757 0.810497 0
M  V30 11075 H 1035.67 -4.16648 -0.214587 0
M  V30 11076 H 1034.3 -3.14558 -0.724774 0
M  V30 11077 H 1033.35 -3.41272 1.6804 0
M  V30 11078 H 1034.67 -4.56753 2.00446 0
M  V30 11079 H 1033.82 -6.06417 0.185271 0
M  V30 11080 H 1032.56 -4.87128 -0.236236 0
M  V30 11081 H 1031.56 -5.09854 2.05739 0
M  V30 11082 H 1032.79 -6.32517 2.47182 0
M  V30 11083 H 1030.73 -6.55562 0.239664 0
M  V30 11084 H 1030.65 -7.34771 1.77898 0
M  V30 11085 H 1031.92 -7.7665 0.665989 0
M  V30 11086 N 1036.15 -0.873678 -1.31166 0
M  V30 11087 C 1037.1 -0.330288 -2.28424 0
M  V30 11088 C 1038.07 0.573299 -1.55893 0
M  V30 11089 O 1039.25 0.504143 -1.84019 0
M  V30 11090 C 1036.39 0.459004 -3.42034 0
M  V30 11091 C 1035.5 -0.472519 -4.29408 0
M  V30 11092 C 1034.64 0.331261 -5.30166 0
M  V30 11093 C 1033.68 -0.596453 -6.09187 0
M  V30 11094 N 1032.81 0.171305 -7.01891 0
M  V30 11095 H 1037.65 -1.16485 -2.7429 0
M  V30 11096 H 1035.19 -0.585813 -1.34932 0
M  V30 11097 H 1037.15 0.932432 -4.06647 0
M  V30 11098 H 1035.78 1.25824 -2.97268 0
M  V30 11099 H 1034.83 -1.06441 -3.65205 0
M  V30 11100 H 1036.14 -1.18372 -4.84551 0
M  V30 11101 H 1035.3 0.867038 -6.00473 0
M  V30 11102 H 1034.04 1.07573 -4.75688 0
M  V30 11103 H 1033.04 -1.14395 -5.37767 0
M  V30 11104 H 1034.27 -1.33983 -6.65752 0
M  V30 11105 H 1032.21 0.89852 -6.49817 0
M  V30 11106 H 1032.13 -0.480481 -7.54472 0
M  V30 11107 H 1033.4 0.688192 -7.76456 0
M  V30 11108 N 1037.63 1.44308 -0.633487 0
M  V30 11109 C 1038.57 2.30694 0.0700257 0
M  V30 11110 C 1039.54 1.43618 0.834447 0
M  V30 11111 O 1040.73 1.72517 0.815014 0
M  V30 11112 C 1037.87 3.28929 1.04403 0
M  V30 11113 C 1036.98 4.31106 0.277779 0
M  V30 11114 C 1036.12 5.16433 1.24381 0
M  V30 11115 C 1035.16 6.10317 0.466855 0
M  V30 11116 N 1034.29 6.88335 1.38347 0
M  V30 11117 H 1039.13 2.90311 -0.672567 0
M  V30 11118 H 1036.67 1.43034 -0.343449 0
M  V30 11119 H 1038.63 3.84373 1.62214 0
M  V30 11120 H 1037.26 2.71006 1.75372 0
M  V30 11121 H 1036.31 3.78115 -0.416292 0
M  V30 11122 H 1037.62 4.97725 -0.327251 0
M  V30 11123 H 1036.78 5.76406 1.89318 0
M  V30 11124 H 1035.51 4.49893 1.88276 0
M  V30 11125 H 1034.52 5.49451 -0.195989 0
M  V30 11126 H 1035.74 6.78894 -0.167414 0
M  V30 11127 H 1033.69 6.24461 2.00959 0
M  V30 11128 H 1033.61 7.51402 0.832517 0
M  V30 11129 H 1034.88 7.52829 2.0216 0
M  V30 11130 N 1039.1 0.374177 1.53094 0
M  V30 11131 C 1040.33 -0.215903 2.06273 0
M  V30 11132 C 1040.75 -1.40979 1.24526 0
M  V30 11133 O 1040.11 -1.79331 0.266462 0
M  V30 11134 C 1040.16 -0.579089 3.5592 0
M  V30 11135 O 1039.26 -1.67516 3.76845 0
M  V30 11136 H 1038.61 -0.0293981 0.663349 0
M  V30 11137 H 1041.14 0.537271 1.9742 0
M  V30 11138 H 1041.15 -0.847678 3.99097 0
M  V30 11139 H 1039.82 0.293843 4.14861 0
M  V30 11140 H 1038.4 -1.40146 3.45563 0
M  V30 11141 N 1040.58 -1.57259 0.103575 0
M  V30 11142 C 1041.83 -1.94945 -0.558953 0
M  V30 11143 C 1042.16 -0.986038 -1.67305 0
M  V30 11144 O 1041.44 -0.0205464 -1.94489 0
M  V30 11145 C 1041.72 -3.42689 -1.10617 0
M  V30 11146 C 1041.57 -4.498 0.00345246 0
M  V30 11147 C 1042.89 -3.91933 -2.00191 0
M  V30 11148 H 1040.01 -0.708859 -0.201713 0
M  V30 11149 H 1042.65 -1.89183 0.176006 0
M  V30 11150 H 1040.8 -3.4773 -1.73251 0
M  V30 11151 H 1042.47 -4.56866 0.638082 0
M  V30 11152 H 1040.72 -4.28615 0.668705 0
M  V30 11153 H 1041.39 -5.50397 -0.420396 0
M  V30 11154 H 1043.86 -3.89098 -1.4745 0
M  V30 11155 H 1042.74 -4.9586 -2.35402 0
M  V30 11156 H 1043 -3.31722 -2.92255 0
M  V30 11157 N 1042.06 0.170153 -1.56679 0
M  V30 11158 C 1043.29 0.902134 -1.86197 0
M  V30 11159 C 1043.7 1.75775 -0.689098 0
M  V30 11160 O 1043.06 1.79271 0.341763 0
M  V30 11161 C 1043.11 1.77792 -3.14757 0
M  V30 11162 O 1042.83 0.956817 -4.27524 0
M  V30 11163 C 1044.33 2.61947 -3.57629 0
M  V30 11164 H 1041.55 0.262026 -0.617724 0
M  V30 11165 H 1044.1 0.169899 -2.03793 0
M  V30 11166 H 1042.25 2.46348 -2.98984 0
M  V30 11167 H 1042.67 1.5559 -5.00891 0
M  V30 11168 H 1044.14 3.19011 -4.50484 0
M  V30 11169 H 1044.62 3.36873 -2.81803 0
M  V30 11170 H 1045.22 1.98721 -3.76019 0
M  V30 11171 N 1043.54 1.5137 0.438746 0
M  V30 11172 C 1044.78 1.64211 1.19006 0
M  V30 11173 C 1045.12 0.356607 1.90898 0
M  V30 11174 O 1044.39 -0.643722 1.83539 0
M  V30 11175 C 1044.68 2.8445 2.20817 0
M  V30 11176 C 1044.53 4.22972 1.53018 0
M  V30 11177 C 1045.85 3.00207 3.21813 0
M  V30 11178 H 1042.97 0.597628 0.431288 0
M  V30 11179 H 1045.61 1.8385 0.479487 0
M  V30 11180 H 1043.76 2.67836 2.81418 0
M  V30 11181 H 1045.43 4.5125 0.957654 0
M  V30 11182 H 1043.67 4.25736 0.832556 0
M  V30 11183 H 1044.34 5.03094 2.27158 0
M  V30 11184 H 1046.82 3.15522 2.71266 0
M  V30 11185 H 1045.7 3.85904 3.90345 0
M  V30 11186 H 1045.96 2.12216 3.87836 0
M  V30 11187 N 1045.02 -0.694098 1.41492 0
M  V30 11188 C 1045.95 -1.82042 1.46229 0
M  V30 11189 C 1046.93 -1.67047 0.320803 0
M  V30 11190 O 1048.11 -1.86758 0.53245 0
M  V30 11191 C 1045.24 -3.2019 1.34519 0
M  V30 11192 C 1044.2 -3.49892 2.46495 0
M  V30 11193 C 1043.52 -4.87411 2.1985 0
M  V30 11194 C 1044.82 -3.4872 3.88834 0
M  V30 11195 H 1046.52 -1.78335 2.40493 0
M  V30 11196 H 1044.06 -0.856566 1.15754 0
M  V30 11197 H 1046.02 -3.98699 1.36445 0
M  V30 11198 H 1044.74 -3.24527 0.367406 0
M  V30 11199 H 1043.4 -2.73734 2.43854 0
M  V30 11200 H 1043.05 -4.88375 1.20411 0
M  V30 11201 H 1042.75 -5.08248 2.94885 0
M  V30 11202 H 1044.27 -5.68228 2.23494 0
M  V30 11203 H 1045.68 -4.1723 3.93182 0
M  V30 11204 H 1044.08 -3.81089 4.63564 0
M  V30 11205 H 1045.15 -2.47665 4.16881 0
M  V30 11206 N 1046.49 -1.27344 -0.928501 0
M  V30 11207 C 1047.77 -1.04362 -1.65433 0
M  V30 11208 C 1048.15 0.421896 -2.06841 0
M  V30 11209 O 1047.5 1.40496 -1.80203 0
M  V30 11210 C 1047.71 -2.00442 -2.85699 0
M  V30 11211 C 1049.06 -2.29767 -3.57061 0
M  V30 11212 O 1050.08 -1.98409 -2.95825 0
M  V30 11213 O 1048.94 -2.83217 -4.67387 0
M  V30 11214 H 1046.03 -0.397783 -0.72505 0
M  V30 11215 H 1048.58 -1.38606 -0.979109 0
M  V30 11216 H 1047.35 -2.99281 -2.52085 0
M  V30 11217 H 1046.98 -1.66755 -3.60941 0
M  V30 11218 N 1047.97 1.13488 -1.09353 0
M  V30 11219 C 1049.22 1.85022 -0.830354 0
M  V30 11220 C 1049.55 1.83266 0.64242 0
M  V30 11221 O 1048.83 1.27024 1.47293 0
M  V30 11222 C 1049.11 3.33218 -1.36521 0
M  V30 11223 C 1048.96 3.43491 -2.90404 0
M  V30 11224 C 1050.28 4.28626 -0.998381 0
M  V30 11225 H 1047.4 0.671786 -0.303105 0
M  V30 11226 H 1050.04 1.33211 -1.3548 0
M  V30 11227 H 1048.19 3.77471 -0.919117 0
M  V30 11228 H 1049.86 3.07954 -3.43456 0
M  V30 11229 H 1048.11 2.84391 -3.27573 0
M  V30 11230 H 1048.78 4.47702 -3.22905 0
M  V30 11231 H 1051.25 3.9244 -1.38311 0
M  V30 11232 H 1050.13 5.30754 -1.39968 0
M  V30 11233 H 1050.39 4.42001 0.093517 0
M  V30 11234 N 1049.45 0.880621 1.30701 0
M  V30 11235 C 1050.7 0.495894 1.95922 0
M  V30 11236 C 1051.02 -0.957214 1.69889 0
M  V30 11237 O 1050.29 -1.67245 1.0201 0
M  V30 11238 H 1048.87 0.180394 0.724891 0
M  V30 11239 H 1051.53 1.12274 1.59313 0
M  V30 11240 H 1050.63 0.662508 3.04987 0
M  V30 11241 N 1050.93 -1.4397 0.641131 0
M  V30 11242 C 1052.21 -1.95436 0.0800918 0
M  V30 11243 C 1052.59 -1.58282 -1.39678 0
M  V30 11244 O 1051.93 -0.861867 -2.11623 0
M  V30 11245 C 1052.14 -3.47589 0.313531 0
M  V30 11246 C 1053.49 -4.2407 0.212034 0
M  V30 11247 O 1054.52 -3.55353 0.245434 0
M  V30 11248 O 1053.38 -5.46356 0.125455 0
M  V30 11249 H 1050.47 -0.826834 -0.0165735 0
M  V30 11250 H 1053.02 -1.5397 0.71353 0
M  V30 11251 H 1051.79 -3.67716 1.33793 0
M  V30 11252 H 1051.41 -3.96025 -0.353563 0
M  V30 11253 N 1052.41 -0.382291 -1.52893 0
M  V30 11254 C 1053.37 0.44408 -2.24857 0
M  V30 11255 C 1054.37 0.996004 -1.26239 0
M  V30 11256 O 1055.56 0.879114 -1.5039 0
M  V30 11257 C 1052.69 1.62234 -2.99822 0
M  V30 11258 H 1053.89 -0.185862 -2.99324 0
M  V30 11259 H 1051.44 -0.134275 -1.55722 0
M  V30 11260 H 1052.17 2.28991 -2.29638 0
M  V30 11261 H 1051.96 1.23336 -3.72197 0
M  V30 11262 H 1053.45 2.20756 -3.54481 0
M  V30 11263 N 1053.89 1.57202 -0.111913 0
M  V30 11264 C 1055.12 1.99008 0.554907 0
M  V30 11265 C 1055.52 0.990323 1.61212 0
M  V30 11266 O 1054.87 -0.0259612 1.83682 0
M  V30 11267 C 1054.93 3.37218 1.24598 0
M  V30 11268 C 1054.59 4.55752 0.337549 0
M  V30 11269 C 1055.59 5.18192 -0.421026 0
M  V30 11270 C 1053.27 5.01674 0.25069 0
M  V30 11271 C 1055.27 6.24938 -1.25426 0
M  V30 11272 C 1052.96 6.08282 -0.586186 0
M  V30 11273 C 1053.95 6.6978 -1.3373 0
M  V30 11274 O 1053.64 7.7433 -2.16029 0
M  V30 11275 H 1053.37 0.658669 0.152091 0
M  V30 11276 H 1055.93 2.04492 -0.192937 0
M  V30 11277 H 1054.16 3.28467 2.04074 0
M  V30 11278 H 1055.85 3.63359 1.809 0
M  V30 11279 H 1056.61 4.83634 -0.363752 0
M  V30 11280 H 1052.49 4.53558 0.825005 0
M  V30 11281 H 1056.04 6.72869 -1.84102 0
M  V30 11282 H 1051.93 6.42271 -0.64488 0
M  V30 11283 H 1052.7 7.91395 -2.08894 0
M  V30 11284 N 1055.36 -0.161842 1.56767 0
M  V30 11285 C 1056.61 -0.876925 1.82527 0
M  V30 11286 C 1056.94 -1.81831 0.690492 0
M  V30 11287 O 1056.19 -1.9304 -0.32159 0
M  V30 11288 C 1056.49 -1.69736 3.14522 0
M  V30 11289 C 1056.16 -0.904075 4.41743 0
M  V30 11290 C 1054.82 -0.685168 4.76297 0
M  V30 11291 C 1057.17 -0.348282 5.20035 0
M  V30 11292 C 1054.5 0.10048 5.86614 0
M  V30 11293 C 1056.85 0.424327 6.31175 0
M  V30 11294 C 1055.52 0.653948 6.64289 0
M  V30 11295 H 1054.79 -0.320889 0.667915 0
M  V30 11296 H 1057.43 -0.141338 1.90978 0
M  V30 11297 H 1055.74 -2.50262 3.01456 0
M  V30 11298 H 1057.44 -2.25386 3.31666 0
M  V30 11299 H 1054.03 -1.08474 4.14646 0
M  V30 11300 H 1058.21 -0.504721 4.93727 0
M  V30 11301 H 1053.47 0.288029 6.10721 0
M  V30 11302 H 1057.64 0.862203 6.91042 0
M  V30 11303 H 1055.27 1.26459 7.49608 0
M  V30 11304 N 1056.84 -1.516 -0.430713 0
M  V30 11305 C 1058.07 -1.687 -1.20644 0
M  V30 11306 C 1058.49 -0.386555 -1.84085 0
M  V30 11307 O 1057.85 0.653952 -1.69095 0
M  V30 11308 C 1057.9 -2.80887 -2.2613 0
M  V30 11309 O 1057 -2.44952 -3.31772 0
M  V30 11310 H 1056.34 -0.562289 -0.353167 0
M  V30 11311 H 1058.87 -1.98198 -0.507807 0
M  V30 11312 H 1058.88 -3.05167 -2.70809 0
M  V30 11313 H 1057.56 -3.75249 -1.79334 0
M  V30 11314 H 1056.13 -2.31267 -2.92523 0
M  V30 11315 N 1058.32 0.686584 -1.41858 0
M  V30 11316 C 1059.57 1.44879 -1.41908 0
M  V30 11317 C 1059.9 1.94175 -0.0311408 0
M  V30 11318 O 1059.17 1.70131 0.942646 0
M  V30 11319 C 1059.46 2.65428 -2.43352 0
M  V30 11320 C 1059.31 2.2184 -3.91289 0
M  V30 11321 C 1060.63 3.67635 -2.41934 0
M  V30 11322 H 1057.75 0.525477 -0.516762 0
M  V30 11323 H 1060.39 0.781263 -1.73194 0
M  V30 11324 H 1058.54 3.2238 -2.16803 0
M  V30 11325 H 1060.21 1.70146 -4.28775 0
M  V30 11326 H 1058.45 1.53531 -4.05722 0
M  V30 11327 H 1059.13 3.08376 -4.5783 0
M  V30 11328 H 1061.6 3.20376 -2.65516 0
M  V30 11329 H 1060.48 4.49579 -3.14913 0
M  V30 11330 H 1060.74 4.17953 -1.44111 0
M  V30 11331 N 1059.8 1.27835 0.921735 0
M  V30 11332 C 1061.21 1.13151 1.48505 0
M  V30 11333 C 1061.56 -0.281373 1.94172 0
M  V30 11334 O 1060.68 -1.17487 1.8173 0
M  V30 11335 C 1061.28 2.04792 2.69899 0
M  V30 11336 C 1059.84 1.94196 3.22436 0
M  V30 11337 C 1058.99 1.96999 1.95158 0
M  V30 11338 H 1061.94 1.40641 0.735241 0
M  V30 11339 H 1061.96 1.60724 3.44889 0
M  V30 11340 H 1061.47 3.07615 2.36631 0
M  V30 11341 H 1059.57 0.943805 3.60448 0
M  V30 11342 H 1059.68 2.80744 3.88226 0
M  V30 11343 H 1058.05 1.41301 2.11911 0
M  V30 11344 H 1058.83 3.01487 1.64196 0
M  V30 11345 N 1061.28 -1.12907 1.09954 0
M  V30 11346 C 1062.21 -2.20585 0.765799 0
M  V30 11347 C 1063.19 -1.68117 -0.258989 0
M  V30 11348 O 1064.37 -1.93792 -0.125853 0
M  V30 11349 C 1061.5 -3.46772 0.191435 0
M  V30 11350 C 1060.46 -4.12363 1.14635 0
M  V30 11351 C 1059.78 -5.3294 0.433426 0
M  V30 11352 C 1061.08 -4.59073 2.49096 0
M  V30 11353 H 1062.78 -2.48759 1.66612 0
M  V30 11354 H 1060.32 -1.19563 0.802534 0
M  V30 11355 H 1062.27 -4.21365 -0.0541535 0
M  V30 11356 H 1061 -3.18011 -0.744101 0
M  V30 11357 H 1059.66 -3.39744 1.37731 0
M  V30 11358 H 1059.31 -5.00444 -0.506422 0
M  V30 11359 H 1059.01 -5.77772 1.07018 0
M  V30 11360 H 1060.53 -6.10284 0.196267 0
M  V30 11361 H 1061.94 -5.25063 2.30177 0
M  V30 11362 H 1060.34 -5.14665 3.0861 0
M  V30 11363 H 1061.41 -3.73313 3.0946 0
M  V30 11364 N 1062.75 -0.88754 -1.30232 0
M  V30 11365 C 1064.03 -0.427249 -1.90877 0
M  V30 11366 C 1064.41 1.0922 -1.80649 0
M  V30 11367 O 1063.76 1.92866 -1.22536 0
M  V30 11368 C 1063.97 -0.928219 -3.3643 0
M  V30 11369 C 1065.32 -0.964706 -4.13496 0
M  V30 11370 O 1066.34 -0.875057 -3.45284 0
M  V30 11371 O 1065.2 -1.09754 -5.35366 0
M  V30 11372 H 1062.29 -0.131107 -0.816541 0
M  V30 11373 H 1064.84 -0.976609 -1.38782 0
M  V30 11374 H 1063.61 -1.97209 -3.37971 0
M  V30 11375 H 1063.23 -0.358169 -3.95983 0
M  V30 11376 N 1064.23 1.43628 -0.648757 0
M  V30 11377 C 1065.14 2.34554 0.0463037 0
M  V30 11378 C 1066.16 1.53629 0.816952 0
M  V30 11379 O 1067.33 1.86297 0.765212 0
M  V30 11380 C 1064.4 3.3185 1.00381 0
M  V30 11381 C 1063.46 4.2868 0.230589 0
M  V30 11382 C 1062.69 5.21328 1.14249 0
M  V30 11383 O 1062.92 5.18298 2.38166 0
M  V30 11384 O 1061.85 5.98726 0.617296 0
M  V30 11385 H 1065.68 2.95475 -0.702008 0
M  V30 11386 H 1063.26 1.43694 -0.408942 0
M  V30 11387 H 1065.14 3.91692 1.5542 0
M  V30 11388 H 1063.82 2.73439 1.73243 0
M  V30 11389 H 1062.73 3.72332 -0.363282 0
M  V30 11390 H 1064.06 4.90061 -0.458368 0
M  V30 11391 N 1065.71 0.390394 1.52688 0
M  V30 11392 C 1066.99 -0.249068 1.94008 0
M  V30 11393 C 1067.37 -1.64263 1.32593 0
M  V30 11394 O 1066.72 -2.23086 0.494448 0
M  V30 11395 C 1066.93 -0.274318 3.4792 0
M  V30 11396 C 1068.27 -0.502743 4.21613 0
M  V30 11397 O 1069.3 -0.35448 3.54432 0
M  V30 11398 O 1068.16 -0.79334 5.40711 0
M  V30 11399 H 1065.25 -0.155116 0.812323 0
M  V30 11400 H 1067.8 0.44498 1.63762 0
M  V30 11401 H 1066.57 0.701766 3.84956 0
M  V30 11402 H 1066.19 -1.01324 3.84473 0
M  V30 11403 N 1067.19 -1.57141 0.120249 0
M  V30 11404 C 1068.44 -1.95238 -0.537449 0
M  V30 11405 C 1068.76 -1.00361 -1.66607 0
M  V30 11406 O 1068.02 -0.0277306 -1.9568 0
M  V30 11407 C 1068.32 -3.39745 -1.10941 0
M  V30 11408 C 1067.98 -4.50785 -0.102012 0
M  V30 11409 C 1066.65 -4.80882 0.174994 0
M  V30 11410 C 1069 -5.17913 0.584462 0
M  V30 11411 C 1066.33 -5.75424 1.14474 0
M  V30 11412 C 1068.68 -6.13497 1.54284 0
M  V30 11413 C 1067.34 -6.41987 1.82782 0
M  V30 11414 H 1066.61 -0.714425 -0.196666 0
M  V30 11415 H 1069.26 -1.90438 0.201418 0
M  V30 11416 H 1067.56 -3.41246 -1.92506 0
M  V30 11417 H 1069.26 -3.66536 -1.62642 0
M  V30 11418 H 1065.85 -4.27342 -0.328097 0
M  V30 11419 H 1070.03 -4.94815 0.383625 0
M  V30 11420 H 1065.29 -5.95801 1.37226 0
M  V30 11421 H 1069.46 -6.64598 2.08044 0
M  V30 11422 H 1067.09 -7.15052 2.5808 0
M  V30 11423 N 1068.67 0.153526 -1.5685 0
M  V30 11424 C 1070.08 0.505939 -1.51368 0
M  V30 11425 C 1070.28 1.83721 -0.82757 0
M  V30 11426 O 1069.34 2.49385 -0.395364 0
M  V30 11427 C 1070.65 0.522269 -2.9613 0
M  V30 11428 C 1072.2 0.608238 -3.07033 0
M  V30 11429 C 1072.67 0.655292 -4.53288 0
M  V30 11430 N 1074.17 0.717695 -4.57606 0
M  V30 11431 C 1074.9 0.774977 -5.68139 0
M  V30 11432 N 1074.4 0.792003 -6.88258 0
M  V30 11433 N 1076.19 0.81536 -5.56155 0
M  V30 11434 H 1068.34 -0.71919 -1.99853 0
M  V30 11435 H 1070.6 -0.261466 -0.91123 0
M  V30 11436 H 1070.31 -0.387595 -3.49558 0
M  V30 11437 H 1070.18 1.3625 -3.51733 0
M  V30 11438 H 1072.57 1.50852 -2.53629 0
M  V30 11439 H 1072.65 -0.259014 -2.54485 0
M  V30 11440 H 1072.3 -0.240809 -5.07329 0
M  V30 11441 H 1072.23 1.53894 -5.03611 0
M  V30 11442 H 1074.72 0.7121 -3.7113 0
M  V30 11443 H 1075.03 0.837378 -7.6825 0
M  V30 11444 H 1073.37 0.759986 -6.90832 0
M  V30 11445 H 1076.57 0.799183 -4.61227 0
M  V30 11446 H 1076.74 0.856537 -6.42314 0
M  V30 11447 N 1070.14 1.51827 0.422667 0
M  V30 11448 C 1071.09 1.74198 1.51406 0
M  V30 11449 C 1072.06 0.584013 1.55494 0
M  V30 11450 O 1073.25 0.820079 1.72277 0
M  V30 11451 C 1070.39 1.88627 2.88988 0
M  V30 11452 C 1069.5 3.16233 2.94314 0
M  V30 11453 C 1068.63 3.21172 4.2311 0
M  V30 11454 C 1067.67 4.43033 4.2236 0
M  V30 11455 N 1066.81 4.4544 5.42704 0
M  V30 11456 H 1071.65 2.67352 1.31632 0
M  V30 11457 H 1069.19 1.32487 0.63919 0
M  V30 11458 H 1071.15 1.94976 3.68837 0
M  V30 11459 H 1069.78 0.988673 3.07287 0
M  V30 11460 H 1068.83 3.19123 2.07039 0
M  V30 11461 H 1070.14 4.06104 2.89623 0
M  V30 11462 H 1069.29 3.26517 5.11343 0
M  V30 11463 H 1068.03 2.29216 4.30478 0
M  V30 11464 H 1067.04 4.37849 3.32518 0
M  V30 11465 H 1068.26 5.3627 4.16643 0
M  V30 11466 H 1066.21 3.56361 5.50766 0
M  V30 11467 H 1066.13 5.29138 5.39953 0
M  V30 11468 H 1067.39 4.54997 6.32928 0
M  V30 11469 N 1071.62 -0.679052 1.4222 0
M  V30 11470 C 1072.85 -1.46534 1.45641 0
M  V30 11471 C 1073.26 -1.89088 0.0649574 0
M  V30 11472 O 1072.6 -1.58436 -0.929712 0
M  V30 11473 C 1072.67 -2.74882 2.3169 0
M  V30 11474 C 1072.33 -2.5443 3.79624 0
M  V30 11475 C 1073.33 -2.19307 4.71382 0
M  V30 11476 C 1071.01 -2.69557 4.23845 0
M  V30 11477 C 1073.01 -1.99571 6.05351 0
M  V30 11478 C 1070.69 -2.49437 5.57875 0
M  V30 11479 C 1071.69 -2.14497 6.48444 0
M  V30 11480 O 1071.38 -1.94567 7.79999 0
M  V30 11481 H 1071.11 -0.457542 0.497626 0
M  V30 11482 H 1073.66 -0.842145 1.87342 0
M  V30 11483 H 1071.89 -3.39669 1.8483 0
M  V30 11484 H 1073.58 -3.3675 2.26615 0
M  V30 11485 H 1074.35 -2.0722 4.38503 0
M  V30 11486 H 1070.23 -2.95733 3.53642 0
M  V30 11487 H 1073.77 -1.72222 6.76007 0
M  V30 11488 H 1069.67 -2.61119 5.90328 0
M  V30 11489 H 1070.44 -2.092 7.91314 0
M  V30 11490 N 1073.1 -1.28322 -0.914942 0
M  V30 11491 C 1074.33 -1.18254 -1.69775 0
M  V30 11492 C 1074.74 0.258978 -1.87015 0
M  V30 11493 O 1074.1 1.17514 -1.3963 0
M  V30 11494 C 1074.15 -1.8753 -3.09054 0
M  V30 11495 O 1073.87 -3.26051 -2.92613 0
M  V30 11496 C 1075.37 -1.83749 -4.03424 0
M  V30 11497 H 1072.59 -0.41055 -0.530744 0
M  V30 11498 H 1075.14 -1.69425 -1.14523 0
M  V30 11499 H 1073.29 -1.40233 -3.61128 0
M  V30 11500 H 1073.71 -3.60729 -3.80756 0
M  V30 11501 H 1075.18 -2.36813 -4.98622 0
M  V30 11502 H 1075.66 -0.809601 -4.31674 0
M  V30 11503 H 1076.26 -2.3072 -3.57279 0
M  V30 11504 N 1074.58 1.12322 -1.10551 0
M  V30 11505 C 1075.54 2.16273 -0.758844 0
M  V30 11506 C 1076.54 1.59325 0.217294 0
M  V30 11507 O 1077.73 1.74199 -0.00601346 0
M  V30 11508 C 1074.86 3.40674 -0.124238 0
M  V30 11509 H 1076.06 2.48454 -1.6796 0
M  V30 11510 H 1073.61 1.2735 -0.906188 0
M  V30 11511 H 1074.34 3.14094 0.807194 0
M  V30 11512 H 1074.13 3.83284 -0.826772 0
M  V30 11513 H 1075.62 4.17474 0.102502 0
M  V30 11514 N 1076.06 0.894434 1.2976 0
M  V30 11515 C 1077.3 0.517669 1.95771 0
M  V30 11516 C 1077.63 -0.935028 1.70551 0
M  V30 11517 O 1076.89 -1.67722 1.00835 0
M  V30 11518 C 1077.19 0.750307 3.49435 0
M  V30 11519 C 1076.85 2.17955 3.94723 0
M  V30 11520 C 1075.51 2.57036 4.068 0
M  V30 11521 C 1077.87 3.11053 4.18205 0
M  V30 11522 C 1075.19 3.88406 4.39724 0
M  V30 11523 C 1077.55 4.41966 4.52602 0
M  V30 11524 C 1076.21 4.80927 4.62888 0
M  V30 11525 H 1075.48 0.189428 0.716378 0
M  V30 11526 H 1078.13 1.13209 1.54454 0
M  V30 11527 H 1076.43 0.0529242 3.91764 0
M  V30 11528 H 1078.13 0.438251 3.98598 0
M  V30 11529 H 1074.72 1.86622 3.85837 0
M  V30 11530 H 1078.9 2.82076 4.08347 0
M  V30 11531 H 1074.16 4.18321 4.4589 0
M  V30 11532 H 1078.33 5.14134 4.69722 0
M  V30 11533 H 1075.96 5.82759 4.88156 0
M  V30 11534 N 1077.53 -1.43282 0.656365 0
M  V30 11535 C 1078.76 -2.06125 0.178879 0
M  V30 11536 C 1079.18 -1.49216 -1.15672 0
M  V30 11537 O 1078.53 -0.624693 -1.71475 0
M  V30 11538 C 1078.59 -3.614 0.0851785 0
M  V30 11539 O 1078.31 -4.16194 1.36798 0
M  V30 11540 C 1079.81 -4.41325 -0.41801 0
M  V30 11541 H 1077.03 -0.664753 0.0913504 0
M  V30 11542 H 1079.57 -1.83733 0.897901 0
M  V30 11543 H 1077.73 -3.82966 -0.584421 0
M  V30 11544 H 1078.14 -5.09892 1.22924 0
M  V30 11545 H 1079.61 -5.50303 -0.432519 0
M  V30 11546 H 1080.09 -4.14577 -1.44991 0
M  V30 11547 H 1080.7 -4.24735 0.219208 0
M  V30 11548 N 1079.01 -0.398486 -1.52479 0
M  V30 11549 C 1080.26 0.182046 -2.00877 0
M  V30 11550 C 1080.58 1.47128 -1.2889 0
M  V30 11551 O 1081.78 2.13242 -1.68048 0
M  V30 11552 C 1080.24 0.374978 -3.57941 0
M  V30 11553 C 1079.85 -0.901544 -4.38835 0
M  V30 11554 C 1081.59 0.911378 -4.14601 0
M  V30 11555 C 1079.5 -0.676385 -5.87519 0
M  V30 11556 H 1078.43 0.0718068 -0.750573 0
M  V30 11557 H 1081.08 -0.522297 -1.7591 0
M  V30 11558 H 1079.46 1.14139 -3.79194 0
M  V30 11559 H 1080.63 -1.67329 -4.29346 0
M  V30 11560 H 1078.95 -1.36357 -3.93441 0
M  V30 11561 H 1081.55 1.09569 -5.23353 0
M  V30 11562 H 1081.89 1.88306 -3.71277 0
M  V30 11563 H 1082.42 0.204296 -3.97275 0
M  V30 11564 H 1079.16 -1.61933 -6.35184 0
M  V30 11565 H 1078.68 0.0562542 -5.99774 0
M  V30 11566 H 1080.36 -0.314454 -6.46235 0
M  V30 11567 N 1080.49 1.57075 -0.12858 0
M  V30 11568 C 1081.9 1.82468 0.39526 0
M  V30 11569 C 1082.25 1.0463 1.65973 0
M  V30 11570 O 1081.38 0.285835 2.14504 0
M  V30 11571 C 1081.97 3.30976 0.723889 0
M  V30 11572 C 1080.53 3.57016 1.19232 0
M  V30 11573 C 1079.68 2.76534 0.205907 0
M  V30 11574 H 1082.63 1.54711 -0.353571 0
M  V30 11575 H 1082.65 3.46127 1.58039 0
M  V30 11576 H 1082.16 3.87602 -0.196595 0
M  V30 11577 H 1080.26 3.05758 2.12938 0
M  V30 11578 H 1080.38 4.65558 1.13103 0
M  V30 11579 H 1078.74 2.45038 0.694872 0
M  V30 11580 H 1079.52 3.35923 -0.707842 0
M  V30 11581 N 1081.97 -0.145205 1.5693 0
M  V30 11582 C 1083.19 -0.876386 1.87974 0
M  V30 11583 C 1083.62 -1.73866 0.717795 0
M  V30 11584 O 1082.98 -1.78224 -0.332551 0
M  V30 11585 C 1083.03 -1.70746 3.17613 0
M  V30 11586 O 1082.13 -2.81188 3.01674 0
M  V30 11587 H 1081.47 -0.243987 0.617549 0
M  V30 11588 H 1084 -0.135482 2.04151 0
M  V30 11589 H 1084.01 -2.1021 3.49679 0
M  V30 11590 H 1082.69 -1.07429 4.01786 0
M  V30 11591 H 1081.26 -2.45117 2.81019 0
M  V30 11592 N 1083.45 -1.52049 -0.414609 0
M  V30 11593 C 1084.7 -1.65067 -1.15912 0
M  V30 11594 C 1085.01 -0.383969 -1.91794 0
M  V30 11595 O 1086.22 -0.393872 -2.68628 0
M  V30 11596 C 1084.67 -2.91611 -2.1093 0
M  V30 11597 C 1084.28 -4.25369 -1.4059 0
M  V30 11598 C 1086.02 -3.13992 -2.85674 0
M  V30 11599 C 1083.93 -5.43041 -2.34223 0
M  V30 11600 H 1082.86 -0.614884 -0.436387 0
M  V30 11601 H 1085.51 -1.78533 -0.424072 0
M  V30 11602 H 1083.89 -2.71831 -2.87965 0
M  V30 11603 H 1085.07 -4.55611 -0.689568 0
M  V30 11604 H 1083.38 -4.09047 -0.779088 0
M  V30 11605 H 1085.98 -3.99082 -3.55861 0
M  V30 11606 H 1086.32 -2.27998 -3.48314 0
M  V30 11607 H 1086.86 -3.34217 -2.1574 0
M  V30 11608 H 1083.59 -6.31364 -1.76238 0
M  V30 11609 H 1083.11 -5.17144 -3.03845 0
M  V30 11610 H 1084.79 -5.75901 -2.94868 0
M  V30 11611 N 1084.93 0.6715 -1.42579 0
M  V30 11612 C 1085.87 1.80623 -1.46554 0
M  V30 11613 C 1086.87 1.65934 -0.340932 0
M  V30 11614 O 1088.07 1.72502 -0.514098 0
M  V30 11615 H 1084.45 0.595619 -0.459067 0
M  V30 11616 H 1086.42 1.74388 -2.42139 0
M  V30 11617 C 1085.17 3.18794 -1.38801 0
M  V30 11618 H 1084.49 3.30725 -2.24635 0
M  V30 11619 H 1085.93 3.98201 -1.45645 0
M  V30 11620 C 1084.39 3.36742 -0.103219 0
M  V30 11621 O 1084.92 3.92761 0.842715 0
M  V30 11622 N 1083.13 2.90594 -0.0193034 0
M  V30 11623 H 1082.67 2.45192 -0.78986 0
M  V30 11624 H 1082.63 3.0298 0.839686 0
M  V30 11625 N 1086.4 1.28806 0.908124 0
M  V30 11626 C 1087.35 1.13083 2.03261 0
M  V30 11627 C 1088.35 0.0486094 1.6933 0
M  V30 11628 O 1089.55 0.207794 1.78797 0
M  V30 11629 H 1085.93 0.349057 0.666081 0
M  V30 11630 H 1087.9 2.08304 2.13663 0
M  V30 11631 C 1086.65 0.815339 3.38005 0
M  V30 11632 H 1085.97 1.64007 3.64612 0
M  V30 11633 H 1087.41 0.745311 4.17398 0
M  V30 11634 C 1085.87 -0.48113 3.33447 0
M  V30 11635 O 1086.4 -1.50974 3.7225 0
M  V30 11636 N 1084.6 -0.483912 2.86543 0
M  V30 11637 H 1084.15 0.353593 2.55162 0
M  V30 11638 H 1084.11 -1.35138 2.83875 0
M  V30 11639 N 1087.88 -1.11734 1.11145 0
M  V30 11640 C 1088.79 -2.21267 0.779607 0
M  V30 11641 C 1089.81 -1.72526 -0.225986 0
M  V30 11642 O 1090.98 -2.01302 -0.0629166 0
M  V30 11643 C 1088.05 -3.45973 0.22435 0
M  V30 11644 C 1087.11 -4.09518 1.28816 0
M  V30 11645 C 1086.34 -5.28271 0.7593 0
M  V30 11646 O 1086.57 -5.68912 -0.411725 0
M  V30 11647 O 1085.5 -5.82322 1.52266 0
M  V30 11648 H 1089.33 -2.5206 1.6941 0
M  V30 11649 H 1086.91 -1.20211 0.887115 0
M  V30 11650 H 1088.79 -4.21322 -0.0810921 0
M  V30 11651 H 1087.47 -3.1684 -0.662891 0
M  V30 11652 H 1086.37 -3.35915 1.64657 0
M  V30 11653 H 1087.71 -4.42824 2.14868 0
M  V30 11654 N 1089.36 -0.901303 -1.29284 0
M  V30 11655 C 1090.59 -0.543511 -1.99634 0
M  V30 11656 C 1091 0.872154 -1.67448 0
M  V30 11657 O 1090.36 1.57591 -0.920406 0
M  V30 11658 C 1090.41 -0.728148 -3.54091 0
M  V30 11659 O 1090.13 -2.08809 -3.85137 0
M  V30 11660 C 1091.63 -0.375519 -4.41707 0
M  V30 11661 H 1088.85 -0.208405 -0.637815 0
M  V30 11662 H 1091.4 -1.21109 -1.64781 0
M  V30 11663 H 1089.55 -0.107728 -3.8725 0
M  V30 11664 H 1089.97 -2.11863 -4.79807 0
M  V30 11665 H 1091.44 -0.555538 -5.49197 0
M  V30 11666 H 1091.92 0.687532 -4.33785 0
M  V30 11667 H 1092.52 -0.972949 -4.14021 0
M  V30 11668 N 1090.84 1.42931 -0.663954 0
M  V30 11669 C 1092.25 1.84877 -0.260283 0
M  V30 11670 C 1092.6 1.5558 1.19538 0
M  V30 11671 O 1091.72 1.01015 1.91377 0
M  V30 11672 C 1092.32 3.35585 -0.465618 0
M  V30 11673 C 1090.88 3.76221 -0.116169 0
M  V30 11674 C 1090.03 2.66587 -0.763317 0
M  V30 11675 H 1092.98 1.32932 -0.866882 0
M  V30 11676 H 1093 3.79427 0.285608 0
M  V30 11677 H 1092.51 3.56877 -1.52515 0
M  V30 11678 H 1090.61 3.60539 0.940342 0
M  V30 11679 H 1090.72 4.75943 -0.549123 0
M  V30 11680 H 1089.09 2.53948 -0.19559 0
M  V30 11681 H 1089.87 2.90704 -1.82609 0
M  V30 11682 N 1092.32 0.406567 1.52266 0
M  V30 11683 C 1093.56 -0.169717 2.01386 0
M  V30 11684 C 1093.88 -1.45864 1.29417 0
M  V30 11685 O 1093.15 -1.9136 0.419327 0
M  V30 11686 H 1091.73 -0.0657075 0.744105 0
M  V30 11687 H 1094.4 0.542221 1.87206 0
M  V30 11688 H 1093.49 -0.367659 3.09927 0
M  V30 11689 N 1093.79 -1.57004 0.136909 0
M  V30 11690 C 1095.02 -2.00587 -0.527209 0
M  V30 11691 C 1095.44 -1.01628 -1.58283 0
M  V30 11692 O 1094.8 0.00946934 -1.81298 0
M  V30 11693 C 1094.85 -3.42967 -1.11384 0
M  V30 11694 O 1093.95 -3.46973 -2.22898 0
M  V30 11695 H 1093.3 -0.651155 -0.129976 0
M  V30 11696 H 1095.83 -2.03296 0.230667 0
M  V30 11697 H 1095.84 -3.81555 -1.44499 0
M  V30 11698 H 1094.51 -4.14502 -0.340736 0
M  V30 11699 H 1093.09 -3.20219 -1.91087 0
M  V30 11700 N 1095.27 0.136881 -1.57004 0
M  V30 11701 C 1096.52 0.8461 -1.83536 0
M  V30 11702 C 1096.84 1.81246 -0.71937 0
M  V30 11703 O 1096.11 1.94191 0.258161 0
M  V30 11704 H 1094.69 0.315446 -0.677128 0
M  V30 11705 H 1097.35 0.128469 -1.94476 0
M  V30 11706 H 1096.45 1.40221 -2.78827 0
M  V30 11707 N 1096.75 1.52266 0.40654 0
M  V30 11708 C 1097.98 1.70057 1.1732 0
M  V30 11709 C 1098.39 0.41084 1.84686 0
M  V30 11710 O 1097.73 -0.623187 1.72806 0
M  V30 11711 C 1097.79 2.78197 2.27698 0
M  V30 11712 C 1097.46 4.19866 1.80447 0
M  V30 11713 C 1098.45 5.03621 1.29082 0
M  V30 11714 C 1096.14 4.66112 1.87202 0
M  V30 11715 C 1098.13 6.31694 0.850973 0
M  V30 11716 C 1095.82 5.94174 1.42829 0
M  V30 11717 C 1096.82 6.76794 0.918621 0
M  V30 11718 O 1096.51 8.02458 0.481302 0
M  V30 11719 H 1096.24 0.573137 0.358455 0
M  V30 11720 H 1098.79 1.99615 0.484064 0
M  V30 11721 H 1097.02 2.44022 2.99983 0
M  V30 11722 H 1098.71 2.84562 2.89446 0
M  V30 11723 H 1099.48 4.69083 1.23234 0
M  V30 11724 H 1095.36 4.01905 2.25816 0
M  V30 11725 H 1098.9 6.96131 0.452471 0
M  V30 11726 H 1094.8 6.2822 1.48358 0
M  V30 11727 H 1095.57 8.16266 0.604376 0
M  V30 11728 N 1098.23 -0.663929 1.42933 0
M  V30 11729 C 1099.16 -1.78946 1.43217 0
M  V30 11730 C 1100.17 -1.59426 0.329727 0
M  V30 11731 O 1101.36 -1.68344 0.5935 0
M  V30 11732 C 1098.46 -3.16217 1.21902 0
M  V30 11733 C 1097.64 -3.6249 2.44785 0
M  V30 11734 C 1096.69 -4.78529 2.18853 0
M  V30 11735 O 1095.72 -4.88516 2.92131 0
M  V30 11736 N 1096.92 -5.67994 1.19845 0
M  V30 11737 H 1099.69 -1.79184 2.40236 0
M  V30 11738 H 1097.25 -0.847404 1.37952 0
M  V30 11739 H 1099.24 -3.91517 1.02454 0
M  V30 11740 H 1097.81 -3.10814 0.333676 0
M  V30 11741 H 1097.03 -2.77751 2.79729 0
M  V30 11742 H 1098.32 -3.90151 3.26588 0
M  V30 11743 H 1097.72 -5.62588 0.59259 0
M  V30 11744 H 1096.27 -6.4306 1.06382 0
M  V30 11745 N 1099.71 -1.29285 -0.901281 0
M  V30 11746 C 1100.94 -1.19874 -1.68267 0
M  V30 11747 C 1101.34 0.243387 -1.87628 0
M  V30 11748 O 1100.69 1.17497 -1.41209 0
M  V30 11749 C 1100.75 -1.83907 -3.08899 0
M  V30 11750 C 1100.41 -3.33198 -3.12775 0
M  V30 11751 C 1101.41 -4.29446 -2.9304 0
M  V30 11752 C 1099.1 -3.7437 -3.34892 0
M  V30 11753 C 1101.09 -5.64842 -2.95352 0
M  V30 11754 C 1098.78 -5.09888 -3.36834 0
M  V30 11755 C 1099.77 -6.04934 -3.17087 0
M  V30 11756 O 1099.46 -7.37979 -3.18815 0
M  V30 11757 H 1099.19 -0.416601 -0.532372 0
M  V30 11758 H 1101.75 -1.71154 -1.13558 0
M  V30 11759 H 1099.98 -1.27136 -3.65203 0
M  V30 11760 H 1101.67 -1.6884 -3.69118 0
M  V30 11761 H 1102.43 -3.9897 -2.75767 0
M  V30 11762 H 1098.31 -3.00846 -3.49303 0
M  V30 11763 H 1101.86 -6.39004 -2.79856 0
M  V30 11764 H 1097.75 -5.40009 -3.53638 0
M  V30 11765 H 1098.52 -7.46763 -3.35092 0
M  V30 11766 N 1101.18 1.11143 -1.11736 0
M  V30 11767 C 1102.13 2.19358 -0.773626 0
M  V30 11768 C 1103.13 1.67744 0.236288 0
M  V30 11769 O 1104.33 1.79748 0.09525 0
M  V30 11770 H 1100.71 0.715218 -0.232309 0
M  V30 11771 H 1102.68 2.45594 -1.69487 0
M  V30 11772 C 1101.43 3.46895 -0.236457 0
M  V30 11773 H 1100.75 3.86967 -1.00483 0
M  V30 11774 H 1102.19 4.23986 -0.034168 0
M  V30 11775 C 1100.65 3.20641 1.03397 0
M  V30 11776 O 1101.18 3.41629 2.11312 0
M  V30 11777 N 1099.39 2.74356 0.957986 0
M  V30 11778 H 1098.93 2.57477 0.0796924 0
M  V30 11779 H 1098.89 2.57166 1.80867 0
M  V30 11780 N 1102.66 0.908147 1.28804 0
M  V30 11781 C 1103.91 0.539201 1.95501 0
M  V30 11782 C 1104.24 -0.913759 1.7136 0
M  V30 11783 O 1103.52 -1.64904 1.03136 0
M  V30 11784 C 1103.8 0.842372 3.50109 0
M  V30 11785 C 1103.65 2.34765 3.83673 0
M  V30 11786 C 1104.97 0.334658 4.38826 0
M  V30 11787 H 1102.09 0.197373 0.71008 0
M  V30 11788 H 1104.73 1.13637 1.52272 0
M  V30 11789 H 1102.88 0.334143 3.8706 0
M  V30 11790 H 1104.55 2.92607 3.56621 0
M  V30 11791 H 1102.8 2.80494 3.30916 0
M  V30 11792 H 1103.47 2.51034 4.91616 0
M  V30 11793 H 1105.94 0.769961 4.08914 0
M  V30 11794 H 1104.82 0.575914 5.4587 0
M  V30 11795 H 1105.08 -0.764878 4.35433 0
M  V30 11796 N 1104.14 -1.42577 0.671525 0
M  V30 11797 C 1105.07 -2.33499 0.00506984 0
M  V30 11798 C 1106.05 -1.50497 -0.792763 0
M  V30 11799 O 1107.24 -1.79109 -0.750574 0
M  V30 11800 C 1104.37 -3.34077 -0.949194 0
M  V30 11801 C 1103.32 -4.27208 -0.260187 0
M  V30 11802 C 1102.65 -5.17968 -1.32716 0
M  V30 11803 C 1103.95 -5.15192 0.858772 0
M  V30 11804 H 1105.64 -2.89477 0.764407 0
M  V30 11805 H 1103.19 -1.39191 0.369043 0
M  V30 11806 H 1105.14 -3.96594 -1.42448 0
M  V30 11807 H 1103.86 -2.76396 -1.73991 0
M  V30 11808 H 1102.52 -3.66082 0.194834 0
M  V30 11809 H 1102.17 -4.56615 -2.10979 0
M  V30 11810 H 1101.87 -5.81104 -0.871293 0
M  V30 11811 H 1103.39 -5.83359 -1.80345 0
M  V30 11812 H 1104.81 -5.71412 0.464844 0
M  V30 11813 H 1103.21 -5.87144 1.24023 0
M  V30 11814 H 1104.28 -4.53787 1.70895 0
M  V30 11815 N 1105.62 -0.414636 -1.52048 0
M  V30 11816 C 1107.03 0.0537107 -1.86623 0
M  V30 11817 C 1107.38 1.43955 -1.3331 0
M  V30 11818 O 1106.51 2.05616 -0.674606 0
M  V30 11819 C 1107.1 0.104241 -3.3864 0
M  V30 11820 C 1105.66 0.516936 -3.72833 0
M  V30 11821 C 1104.81 -0.305042 -2.75617 0
M  V30 11822 H 1107.76 -0.631469 -1.45596 0
M  V30 11823 H 1107.78 0.918395 -3.6925 0
M  V30 11824 H 1107.29 -0.904523 -3.77412 0
M  V30 11825 H 1105.39 1.53214 -3.39641 0
M  V30 11826 H 1105.5 0.2575 -4.78408 0
M  V30 11827 H 1103.87 0.233416 -2.53628 0
M  V30 11828 H 1104.65 -1.31226 -3.1723 0
M  V30 11829 N 1107.1 1.56929 -0.145233 0
M  V30 11830 C 1108.03 2.13796 0.826078 0
M  V30 11831 C 1109.04 1.08697 1.21197 0
M  V30 11832 O 1110.23 1.3598 1.15635 0
M  V30 11833 C 1107.33 2.6443 2.11967 0
M  V30 11834 C 1106.5 3.9391 1.90142 0
M  V30 11835 C 1105.56 4.29872 3.03474 0
M  V30 11836 O 1104.59 4.98227 2.75242 0
M  V30 11837 N 1105.79 3.8931 4.30602 0
M  V30 11838 H 1108.56 2.97764 0.340073 0
M  V30 11839 H 1106.12 1.61854 0.0383928 0
M  V30 11840 H 1108.11 2.85502 2.86829 0
M  V30 11841 H 1106.68 1.85196 2.51836 0
M  V30 11842 H 1105.9 3.81481 0.993268 0
M  V30 11843 H 1107.19 4.78523 1.72896 0
M  V30 11844 H 1106.58 3.34229 4.56407 0
M  V30 11845 H 1105.14 4.15438 5.0225 0
M  V30 11846 N 1108.58 -0.128553 1.57075 0
M  V30 11847 C 1109.82 -0.836355 1.83982 0
M  V30 11848 C 1110.14 -1.80862 0.728971 0
M  V30 11849 O 1109.41 -1.94326 -0.247859 0
M  V30 11850 H 1107.99 -0.31185 0.678792 0
M  V30 11851 H 1110.66 -0.118153 1.94542 0
M  V30 11852 H 1109.75 -1.38741 2.79567 0
M  V30 11853 N 1110.05 -1.5248 -0.398459 0
M  V30 11854 C 1111.3 -1.68262 -1.14277 0
M  V30 11855 C 1111.65 -0.412722 -1.87921 0
M  V30 11856 O 1110.95 0.593257 -1.82184 0
M  V30 11857 C 1111.14 -2.85038 -2.15611 0
M  V30 11858 C 1110.97 -4.23262 -1.51919 0
M  V30 11859 C 1109.74 -4.88627 -1.28732 0
M  V30 11860 C 1111.94 -5.04986 -0.974349 0
M  V30 11861 N 1109.92 -6.10857 -0.610455 0
M  V30 11862 C 1111.29 -6.18542 -0.425008 0
M  V30 11863 C 1113.35 -4.90243 -0.869843 0
M  V30 11864 C 1112.05 -7.18968 0.218609 0
M  V30 11865 C 1114.08 -5.90913 -0.240063 0
M  V30 11866 C 1113.44 -7.03767 0.298552 0
M  V30 11867 H 1109.54 -0.669275 -0.404469 0
M  V30 11868 H 1112.12 -1.8981 -0.433635 0
M  V30 11869 H 1110.29 -2.65087 -2.83872 0
M  V30 11870 H 1112.02 -2.89804 -2.82481 0
M  V30 11871 H 1108.78 -4.47179 -1.55975 0
M  V30 11872 H 1109.2 -6.76386 -0.288338 0
M  V30 11873 H 1113.84 -4.0321 -1.27207 0
M  V30 11874 H 1111.56 -8.05618 0.632874 0
M  V30 11875 H 1115.15 -5.81578 -0.160576 0
M  V30 11876 H 1114.03 -7.80329 0.778185 0
M  V30 11877 N 1111.53 0.65634 -1.43283 0
M  V30 11878 C 1112.48 1.76934 -1.48199 0
M  V30 11879 C 1113.45 1.62748 -0.332023 0
M  V30 11880 O 1114.63 1.83036 -0.538735 0
M  V30 11881 C 1111.77 3.15072 -1.40797 0
M  V30 11882 C 1110.89 3.40414 -2.65974 0
M  V30 11883 C 1110.02 4.68383 -2.50582 0
M  V30 11884 C 1109.06 4.8682 -3.71043 0
M  V30 11885 N 1108.2 6.06043 -3.5448 0
M  V30 11886 H 1113.04 1.72067 -2.43304 0
M  V30 11887 H 1110.57 0.839728 -1.20777 0
M  V30 11888 H 1112.53 3.94925 -1.345 0
M  V30 11889 H 1111.16 3.19017 -0.492754 0
M  V30 11890 H 1110.21 2.54681 -2.82563 0
M  V30 11891 H 1111.53 3.49925 -3.55463 0
M  V30 11892 H 1110.68 5.56357 -2.41975 0
M  V30 11893 H 1109.42 4.61187 -1.58612 0
M  V30 11894 H 1108.42 3.97282 -3.80062 0
M  V30 11895 H 1109.65 4.95847 -4.64017 0
M  V30 11896 H 1107.6 5.99985 -2.65242 0
M  V30 11897 H 1107.51 6.16498 -4.37568 0
M  V30 11898 H 1108.78 6.96647 -3.49719 0
M  V30 11899 N 1113.01 1.29761 0.894412 0
M  V30 11900 C 1114.26 1.17806 1.64214 0
M  V30 11901 C 1114.58 -0.269588 1.93127 0
M  V30 11902 O 1113.85 -1.18352 1.56107 0
M  V30 11903 H 1112.43 0.433002 0.608702 0
M  V30 11904 H 1115.09 1.6276 1.07216 0
M  V30 11905 H 1114.19 1.73201 2.5963 0
M  V30 11906 N 1114.49 -1.10549 1.12324 0
M  V30 11907 C 1115.71 -1.8681 0.900927 0
M  V30 11908 C 1116.14 -1.80049 -0.54443 0
M  V30 11909 O 1115.5 -1.16957 -1.38531 0
M  V30 11910 C 1115.54 -3.33197 1.37883 0
M  V30 11911 O 1114.65 -4.08628 0.556529 0
M  V30 11912 H 1113.99 -0.579709 0.32378 0
M  V30 11913 H 1116.52 -1.39678 1.49503 0
M  V30 11914 H 1116.53 -3.84047 1.37739 0
M  V30 11915 H 1115.2 -3.37435 2.43127 0
M  V30 11916 H 1113.78 -3.67627 0.62486 0
M  V30 11917 N 1115.97 -0.914965 -1.28321 0
M  V30 11918 C 1117.38 -0.59512 -1.76961 0
M  V30 11919 C 1117.73 0.88958 -1.74874 0
M  V30 11920 O 1116.85 1.6959 -1.34418 0
M  V30 11921 C 1117.45 -1.07353 -3.21342 0
M  V30 11922 C 1116.01 -0.804577 -3.677 0
M  V30 11923 C 1115.15 -1.23955 -2.48053 0
M  V30 11924 H 1118.1 -1.0961 -1.14767 0
M  V30 11925 H 1118.13 -0.415506 -3.78225 0
M  V30 11926 H 1117.64 -2.15413 -3.22829 0
M  V30 11927 H 1115.74 0.26277 -3.71672 0
M  V30 11928 H 1115.85 -1.41317 -4.57784 0
M  V30 11929 H 1114.22 -0.658274 -2.46046 0
M  V30 11930 H 1115 -2.32853 -2.52258 0
M  V30 11931 N 1117.44 1.42219 -0.679077 0
M  V30 11932 C 1118.41 2.29197 -0.0125475 0
M  V30 11933 C 1119.41 1.43544 0.724691 0
M  V30 11934 O 1120.6 1.64884 0.562052 0
M  V30 11935 C 1117.73 3.26122 0.992846 0
M  V30 11936 H 1118.92 2.89629 -0.778154 0
M  V30 11937 H 1116.47 1.4993 -0.44166 0
M  V30 11938 H 1117.21 2.70637 1.78679 0
M  V30 11939 H 1116.99 3.89302 0.467544 0
M  V30 11940 H 1118.48 3.91339 1.45751 0
M  V30 11941 N 1118.92 0.422693 1.51826 0
M  V30 11942 C 1120.17 -0.150066 2.01141 0
M  V30 11943 C 1120.48 -1.45059 1.31214 0
M  V30 11944 O 1121.69 -2.10542 1.71419 0
M  V30 11945 C 1120.15 -0.317985 3.58492 0
M  V30 11946 C 1119.75 0.971244 4.37345 0
M  V30 11947 C 1121.5 -0.845303 4.15999 0
M  V30 11948 C 1119.4 0.769769 5.86369 0
M  V30 11949 H 1118.33 -0.0598567 0.75162 0
M  V30 11950 H 1120.99 0.550217 1.75057 0
M  V30 11951 H 1119.37 -1.08092 3.80962 0
M  V30 11952 H 1120.54 1.74138 4.26629 0
M  V30 11953 H 1118.86 1.42599 3.91222 0
M  V30 11954 H 1121.45 -1.01229 5.2503 0
M  V30 11955 H 1121.8 -1.82375 3.74226 0
M  V30 11956 H 1122.33 -0.141067 3.9755 0
M  V30 11957 H 1119.07 1.72017 6.32527 0
M  V30 11958 H 1118.59 0.0391717 5.99787 0
M  V30 11959 H 1120.27 0.417225 6.45653 0
M  V30 11960 N 1120.4 -1.5685 0.153553 0
M  V30 11961 C 1121.65 -1.96334 -0.495915 0
M  V30 11962 C 1121.97 -1.03873 -1.64441 0
M  V30 11963 O 1121.23 -0.069231 -1.95578 0
M  V30 11964 C 1121.53 -3.42022 -1.0371 0
M  V30 11965 C 1121.19 -4.509 -0.00637049 0
M  V30 11966 C 1119.86 -4.80402 0.276956 0
M  V30 11967 C 1122.21 -5.16556 0.694187 0
M  V30 11968 C 1119.54 -5.72866 1.26653 0
M  V30 11969 C 1121.89 -6.10087 1.67263 0
M  V30 11970 C 1120.55 -6.37965 1.96359 0
M  V30 11971 H 1119.82 -0.718436 -0.181468 0
M  V30 11972 H 1122.47 -1.89968 0.241768 0
M  V30 11973 H 1120.77 -3.45252 -1.85225 0
M  V30 11974 H 1122.47 -3.69903 -1.54831 0
M  V30 11975 H 1119.06 -4.27942 -0.237378 0
M  V30 11976 H 1123.25 -4.9389 0.488496 0
M  V30 11977 H 1118.5 -5.92756 1.49833 0
M  V30 11978 H 1122.68 -6.60036 2.22094 0
M  V30 11979 H 1120.3 -7.09416 2.73189 0
M  V30 11980 N 1121.88 0.120221 -1.57141 0
M  V30 11981 C 1122.81 1.1732 -1.96898 0
M  V30 11982 C 1123.82 1.37722 -0.868134 0
M  V30 11983 O 1125.01 1.36818 -1.14643 0
M  V30 11984 C 1122.11 2.53343 -2.25102 0
M  V30 11985 C 1121.28 2.53559 -3.56408 0
M  V30 11986 C 1120.34 3.71319 -3.72838 0
M  V30 11987 O 1119.37 3.54961 -4.44962 0
M  V30 11988 N 1120.57 4.89836 -3.11514 0
M  V30 11989 H 1123.34 0.835023 -2.87832 0
M  V30 11990 H 1120.9 0.309508 -1.58914 0
M  V30 11991 H 1122.89 3.30679 -2.3331 0
M  V30 11992 H 1121.46 2.79347 -1.403 0
M  V30 11993 H 1120.68 1.61946 -3.59398 0
M  V30 11994 H 1121.97 2.5076 -4.42716 0
M  V30 11995 H 1121.37 5.0603 -2.52884 0
M  V30 11996 H 1119.92 5.64853 -3.25246 0
M  V30 11997 N 1123.36 1.52689 0.390367 0
M  V30 11998 C 1124.58 1.71839 1.16129 0
M  V30 11999 C 1125.01 0.435226 1.82996 0
M  V30 12000 O 1124.36 -0.60889 1.70769 0
M  V30 12001 C 1124.41 2.86784 2.18603 0
M  V30 12002 O 1123.52 2.53662 3.25161 0
M  V30 12003 H 1122.86 0.571455 0.338135 0
M  V30 12004 H 1125.39 1.99475 0.45508 0
M  V30 12005 H 1125.4 3.12239 2.62622 0
M  V30 12006 H 1124.07 3.79872 1.69322 0
M  V30 12007 H 1122.65 2.38942 2.86289 0
M  V30 12008 N 1124.83 -0.648732 1.43629 0
M  V30 12009 C 1126.06 -1.44117 1.49148 0
M  V30 12010 C 1126.48 -1.87767 0.111952 0
M  V30 12011 O 1125.84 -1.57655 -0.895249 0
M  V30 12012 C 1125.89 -2.64938 2.44623 0
M  V30 12013 O 1124.99 -3.64155 1.93559 0
M  V30 12014 H 1124.34 -0.431933 0.504312 0
M  V30 12015 H 1126.87 -0.793439 1.88589 0
M  V30 12016 H 1126.88 -3.12698 2.62076 0
M  V30 12017 H 1125.55 -2.3251 3.44836 0
M  V30 12018 H 1124.13 -3.23322 1.85789 0
M  V30 12019 N 1126.31 -1.30234 -0.887518 0
M  V30 12020 C 1127.25 -1.10726 -1.99537 0
M  V30 12021 C 1128.22 -0.0156237 -1.62592 0
M  V30 12022 O 1129.41 -0.168687 -1.87744 0
M  V30 12023 C 1126.53 -0.688185 -3.31635 0
M  V30 12024 C 1125.58 -1.78031 -3.87566 0
M  V30 12025 S 1126.41 -3.38219 -4.15172 0
M  V30 12026 C 1127.57 -2.98208 -5.50293 0
M  V30 12027 H 1127.8 -2.04516 -2.15778 0
M  V30 12028 H 1125.34 -1.14519 -1.0356 0
M  V30 12029 H 1127.29 -0.453124 -4.07991 0
M  V30 12030 H 1125.95 0.230315 -3.13254 0
M  V30 12031 H 1125.15 -1.43931 -4.83011 0
M  V30 12032 H 1124.75 -1.96952 -3.1794 0
M  V30 12033 H 1127.04 -2.4601 -6.31257 0
M  V30 12034 H 1127.98 -3.92551 -5.89329 0
M  V30 12035 H 1128.39 -2.36149 -5.12732 0
M  V30 12036 N 1127.79 1.09952 -1.12909 0
M  V30 12037 C 1129.02 1.8579 -0.910483 0
M  V30 12038 C 1129.43 1.80898 0.540484 0
M  V30 12039 O 1128.79 1.20126 1.3739 0
M  V30 12040 C 1128.84 3.33987 -1.38329 0
M  V30 12041 O 1128.56 3.38811 -2.77739 0
M  V30 12042 C 1130.06 4.26683 -1.20234 0
M  V30 12043 H 1127.28 0.587026 -0.325025 0
M  V30 12044 H 1129.83 1.38965 -1.5003 0
M  V30 12045 H 1127.98 3.78259 -0.836592 0
M  V30 12046 H 1128.4 4.31204 -2.98603 0
M  V30 12047 H 1129.87 5.28846 -1.58197 0
M  V30 12048 H 1130.35 4.38966 -0.14344 0
M  V30 12049 H 1130.95 3.88221 -1.73679 0
M  V30 12050 N 1129.27 0.921757 1.27833 0
M  V30 12051 C 1130.22 0.414838 2.27041 0
M  V30 12052 C 1131.19 -0.515045 1.57913 0
M  V30 12053 O 1132.37 -0.435499 1.85763 0
M  V30 12054 C 1129.51 -0.331744 3.43502 0
M  V30 12055 C 1128.62 0.631565 4.27358 0
M  V30 12056 C 1127.76 -0.134265 5.3103 0
M  V30 12057 C 1126.8 0.822138 6.06554 0
M  V30 12058 N 1125.93 0.0893149 7.02043 0
M  V30 12059 H 1130.77 1.26585 2.69778 0
M  V30 12060 H 1128.31 0.635488 1.32665 0
M  V30 12061 H 1130.27 -0.780866 4.09827 0
M  V30 12062 H 1128.9 -1.14704 3.01733 0
M  V30 12063 H 1127.95 1.19922 3.61003 0
M  V30 12064 H 1129.26 1.36274 4.79824 0
M  V30 12065 H 1128.42 -0.643579 6.03277 0
M  V30 12066 H 1127.16 -0.898443 4.79353 0
M  V30 12067 H 1126.16 1.34275 5.33151 0
M  V30 12068 H 1127.39 1.586 6.6032 0
M  V30 12069 H 1125.33 -0.656725 6.52704 0
M  V30 12070 H 1125.25 0.760167 7.52169 0
M  V30 12071 H 1126.52 -0.399541 7.78475 0
M  V30 12072 N 1130.75 -1.41857 0.686609 0
M  V30 12073 C 1132 -2.00594 0.21095 0
M  V30 12074 C 1132.31 -1.54974 -1.19341 0
M  V30 12075 O 1133.51 -2.0621 -1.76607 0
M  V30 12076 C 1131.97 -3.58418 0.326261 0
M  V30 12077 C 1131.58 -4.13022 1.73542 0
M  V30 12078 C 1133.32 -4.24404 -0.0900816 0
M  V30 12079 C 1131.23 -5.6325 1.80287 0
M  V30 12080 H 1130.16 -0.75025 0.0751077 0
M  V30 12081 H 1132.81 -1.62442 0.853508 0
M  V30 12082 H 1131.19 -3.9413 -0.384394 0
M  V30 12083 H 1132.37 -3.88747 2.47411 0
M  V30 12084 H 1130.68 -3.5953 2.10065 0
M  V30 12085 H 1133.28 -5.34666 -0.060004 0
M  V30 12086 H 1133.62 -4.00745 -1.12733 0
M  V30 12087 H 1134.15 -3.93695 0.569979 0
M  V30 12088 H 1130.89 -5.91724 2.82034 0
M  V30 12089 H 1130.41 -5.89479 1.1079 0
M  V30 12090 H 1132.09 -6.2787 1.56167 0
M  V30 12091 N 1132.22 -0.430739 -1.51599 0
M  V30 12092 C 1133.15 0.374695 -2.30474 0
M  V30 12093 C 1134.14 1.02694 -1.35602 0
M  V30 12094 O 1135.32 1.03184 -1.6452 0
M  V30 12095 C 1132.45 1.47981 -3.14196 0
M  V30 12096 C 1131.4 0.951415 -4.17291 0
M  V30 12097 C 1130.73 2.15177 -4.89492 0
M  V30 12098 C 1132.03 -0.00957951 -5.22299 0
M  V30 12099 H 1133.72 -0.283508 -2.98055 0
M  V30 12100 H 1131.27 -0.13779 -1.43339 0
M  V30 12101 H 1133.22 2.05043 -3.68151 0
M  V30 12102 H 1131.95 2.16621 -2.44424 0
M  V30 12103 H 1130.61 0.403052 -3.64378 0
M  V30 12104 H 1130.25 2.82421 -4.1623 0
M  V30 12105 H 1129.95 1.80464 -5.59202 0
M  V30 12106 H 1131.48 2.72806 -5.46269 0
M  V30 12107 H 1132.89 0.470527 -5.71366 0
M  V30 12108 H 1131.29 -0.268959 -5.99497 0
M  V30 12109 H 1132.36 -0.948297 -4.75537 0
M  V30 12110 N 1133.7 1.56767 -0.161869 0
M  V30 12111 C 1134.61 2.21083 0.784814 0
M  V30 12112 C 1135.63 1.19959 1.26039 0
M  V30 12113 O 1136.8 1.52588 1.31449 0
M  V30 12114 C 1133.87 2.83153 2.00063 0
M  V30 12115 C 1132.93 3.9945 1.57285 0
M  V30 12116 C 1132.16 4.5855 2.7307 0
M  V30 12117 O 1132.39 4.16534 3.89686 0
M  V30 12118 O 1131.32 5.48575 2.47688 0
M  V30 12119 H 1135.15 3.02522 0.267243 0
M  V30 12120 H 1132.73 1.49255 0.0658783 0
M  V30 12121 H 1134.61 3.22546 2.71186 0
M  V30 12122 H 1133.29 2.04718 2.50744 0
M  V30 12123 H 1132.2 3.64745 0.831393 0
M  V30 12124 H 1133.53 4.7945 1.11304 0
M  V30 12125 N 1135.18 -0.111886 1.57202 0
M  V30 12126 C 1136.59 -0.668261 1.74331 0
M  V30 12127 C 1136.94 -1.79959 0.781609 0
M  V30 12128 O 1136.07 -2.16356 -0.043833 0
M  V30 12129 C 1136.66 -1.219 3.1611 0
M  V30 12130 C 1135.22 -1.7216 3.34721 0
M  V30 12131 C 1134.37 -0.624223 2.70183 0
M  V30 12132 H 1137.32 0.114081 1.58289 0
M  V30 12133 H 1137.34 -2.08858 3.18054 0
M  V30 12134 H 1136.85 -0.395381 3.86081 0
M  V30 12135 H 1134.95 -2.56976 2.69803 0
M  V30 12136 H 1135.07 -1.82615 4.42932 0
M  V30 12137 H 1133.43 -1.05958 2.31614 0
M  V30 12138 H 1134.21 0.188537 3.42782 0
M  V30 12139 N 1136.66 -1.52894 -0.382264 0
M  V30 12140 C 1137.91 -1.68266 -1.12663 0
M  V30 12141 C 1138.23 -0.425974 -1.89778 0
M  V30 12142 O 1137.49 0.59178 -1.86538 0
M  V30 12143 C 1137.79 -2.87309 -2.12576 0
M  V30 12144 C 1137.45 -4.24484 -1.52067 0
M  V30 12145 C 1136.12 -4.6179 -1.35292 0
M  V30 12146 C 1138.47 -5.09858 -1.08138 0
M  V30 12147 C 1135.8 -5.82123 -0.731449 0
M  V30 12148 C 1138.15 -6.30822 -0.473986 0
M  V30 12149 C 1136.81 -6.66854 -0.293585 0
M  V30 12150 H 1136.08 -0.615728 -0.412262 0
M  V30 12151 H 1138.73 -1.8705 -0.410425 0
M  V30 12152 H 1137.03 -2.62968 -2.90439 0
M  V30 12153 H 1138.73 -2.96397 -2.70092 0
M  V30 12154 H 1135.32 -3.951 -1.66114 0
M  V30 12155 H 1139.5 -4.816 -1.19898 0
M  V30 12156 H 1134.76 -6.08643 -0.579938 0
M  V30 12157 H 1138.93 -6.96287 -0.125324 0
M  V30 12158 H 1136.56 -7.59962 0.190054 0
M  V30 12159 N 1138.14 0.641106 -1.43971 0
M  V30 12160 C 1139.55 0.958161 -1.27638 0
M  V30 12161 C 1139.75 2.00456 -0.204885 0
M  V30 12162 O 1138.81 2.49106 0.412606 0
M  V30 12163 C 1140.12 1.43091 -2.64472 0
M  V30 12164 C 1141.67 1.54692 -2.72102 0
M  V30 12165 C 1142.15 2.05353 -4.09382 0
M  V30 12166 N 1143.64 2.12638 -4.11509 0
M  V30 12167 C 1144.37 2.52987 -5.14573 0
M  V30 12168 N 1143.87 2.92544 -6.28005 0
M  V30 12169 N 1145.66 2.53033 -5.01927 0
M  V30 12170 H 1137.81 -0.0510973 -2.12339 0
M  V30 12171 H 1140.07 0.039748 -0.947166 0
M  V30 12172 H 1139.78 0.736389 -3.43904 0
M  V30 12173 H 1139.65 2.40375 -2.90688 0
M  V30 12174 H 1142.04 2.23242 -1.92994 0
M  V30 12175 H 1142.12 0.558083 -2.49638 0
M  V30 12176 H 1141.77 1.37401 -4.88962 0
M  V30 12177 H 1141.7 3.0509 -4.29218 0
M  V30 12178 H 1144.19 1.84792 -3.29636 0
M  V30 12179 H 1144.5 3.22116 -7.02468 0
M  V30 12180 H 1142.85 2.90319 -6.31458 0
M  V30 12181 H 1146.04 2.21514 -4.1237 0
M  V30 12182 H 1146.21 2.84155 -5.82375 0
M  V30 12183 N 1139.62 1.30703 0.880598 0
M  V30 12184 C 1140.56 1.17455 1.98678 0
M  V30 12185 C 1141.53 0.0629569 1.65981 0
M  V30 12186 O 1142.72 0.233926 1.89361 0
M  V30 12187 C 1139.86 0.876882 3.33774 0
M  V30 12188 C 1138.97 2.07078 3.79134 0
M  V30 12189 C 1138.11 1.71082 5.02896 0
M  V30 12190 C 1137.14 2.86942 5.40676 0
M  V30 12191 N 1136.28 2.51212 6.55619 0
M  V30 12192 H 1141.12 2.12086 2.09341 0
M  V30 12193 H 1138.66 1.05514 1.02495 0
M  V30 12194 H 1140.62 0.684899 4.1154 0
M  V30 12195 H 1139.25 -0.0325633 3.22784 0
M  V30 12196 H 1138.3 2.37388 2.97239 0
M  V30 12197 H 1139.61 2.9383 4.0307 0
M  V30 12198 H 1138.76 1.48284 5.883 0
M  V30 12199 H 1137.5 0.815064 4.80841 0
M  V30 12200 H 1136.51 3.10401 4.53797 0
M  V30 12201 H 1137.73 3.77211 5.64703 0
M  V30 12202 H 1135.68 1.64147 6.35131 0
M  V30 12203 H 1135.6 3.31495 6.79446 0
M  V30 12204 H 1136.86 2.31781 7.44243 0
M  V30 12205 N 1141.09 -1.09351 1.1349 0
M  V30 12206 C 1142.03 -2.15852 0.770763 0
M  V30 12207 C 1143.04 -1.61468 -0.207866 0
M  V30 12208 O 1144.23 -1.78496 0.0124385 0
M  V30 12209 C 1141.33 -3.38681 0.121871 0
M  V30 12210 C 1140.5 -4.22477 1.13279 0
M  V30 12211 C 1139.56 -5.23728 0.509448 0
M  V30 12212 O 1138.59 -5.57052 1.16967 0
M  V30 12213 N 1139.79 -5.76041 -0.718159 0
M  V30 12214 H 1142.55 -2.47696 1.6872 0
M  V30 12215 H 1140.11 -1.25074 1.02801 0
M  V30 12216 H 1142.11 -4.03531 -0.307404 0
M  V30 12217 H 1140.68 -3.04718 -0.697527 0
M  V30 12218 H 1139.9 -3.53753 1.73933 0
M  V30 12219 H 1141.18 -4.75288 1.81601 0
M  V30 12220 H 1140.58 -5.51183 -1.27331 0
M  V30 12221 H 1139.14 -6.4262 -1.09008 0
M  V30 12222 N 1142.57 -0.928524 -1.27343 0
M  V30 12223 C 1143.52 -0.418768 -2.28799 0
M  V30 12224 C 1144.51 0.497334 -1.61935 0
M  V30 12225 O 1145.72 0.376945 -1.76009 0
M  V30 12226 H 1142.09 -0.116855 -0.742865 0
M  V30 12227 H 1144.07 -1.28725 -2.69207 0
M  V30 12228 C 1142.81 0.312422 -3.46294 0
M  V30 12229 H 1142.14 -0.383317 -3.97958 0
M  V30 12230 H 1143.58 0.633514 -4.19241 0
M  V30 12231 C 1142.04 1.5257 -3.00373 0
M  V30 12232 O 1142.57 2.62443 -3.04116 0
M  V30 12233 N 1140.77 1.37782 -2.5586 0
M  V30 12234 H 1140.32 0.483908 -2.53014 0
M  V30 12235 H 1140.28 2.19085 -2.25498 0
M  V30 12236 N 1144.05 1.41491 -0.694123 0
M  V30 12237 C 1145.46 1.84283 -0.299439 0
M  V30 12238 C 1145.81 1.58081 1.16211 0
M  V30 12239 O 1144.94 1.05051 1.89191 0
M  V30 12240 C 1145.53 3.34522 -0.536696 0
M  V30 12241 C 1144.09 3.7589 -0.195944 0
M  V30 12242 C 1143.24 2.64908 -0.819692 0
M  V30 12243 H 1146.19 1.31063 -0.894884 0
M  V30 12244 H 1146.21 3.79947 0.205062 0
M  V30 12245 H 1145.72 3.53561 -1.6005 0
M  V30 12246 H 1143.82 3.62452 0.863655 0
M  V30 12247 H 1143.94 4.74671 -0.649954 0
M  V30 12248 H 1142.3 2.53476 -0.249412 0
M  V30 12249 H 1143.08 2.86765 -1.88734 0
M  V30 12250 N 1145.53 0.438773 1.51369 0
M  V30 12251 C 1146.8 -0.18722 1.94702 0
M  V30 12252 C 1147.18 -1.59962 1.37752 0
M  V30 12253 O 1146.53 -2.214 0.565171 0
M  V30 12254 C 1146.74 -0.163491 3.48617 0
M  V30 12255 C 1148.09 -0.368355 4.22999 0
M  V30 12256 O 1149.11 -0.241541 3.5538 0
M  V30 12257 O 1147.97 -0.620916 5.42961 0
M  V30 12258 H 1145.07 -0.129194 0.816846 0
M  V30 12259 H 1147.61 0.496855 1.62263 0
M  V30 12260 H 1146.39 0.823882 3.82528 0
M  V30 12261 H 1146.01 -0.890414 3.87501 0
M  V30 12262 N 1147.01 -1.56678 0.170181 0
M  V30 12263 C 1148.25 -1.96024 -0.475147 0
M  V30 12264 C 1148.57 -1.0588 -1.64465 0
M  V30 12265 O 1149.77 -1.34901 -2.35614 0
M  V30 12266 C 1148.23 -3.4855 -0.896704 0
M  V30 12267 C 1147.84 -4.47318 0.247142 0
M  V30 12268 C 1149.58 -3.96716 -1.51052 0
M  V30 12269 C 1147.49 -5.91082 -0.193982 0
M  V30 12270 H 1146.42 -0.731883 -0.181282 0
M  V30 12271 H 1149.07 -1.81674 0.25823 0
M  V30 12272 H 1147.45 -3.58314 -1.68603 0
M  V30 12273 H 1148.63 -4.49268 1.02445 0
M  V30 12274 H 1146.94 -4.09203 0.770839 0
M  V30 12275 H 1149.54 -5.01581 -1.85258 0
M  V30 12276 H 1149.88 -3.39588 -2.40802 0
M  V30 12277 H 1150.41 -3.89965 -0.785652 0
M  V30 12278 H 1147.15 -6.5208 0.668714 0
M  V30 12279 H 1146.67 -5.92441 -0.936675 0
M  V30 12280 H 1148.35 -6.43844 -0.638237 0
M  V30 12281 N 1148.48 0.103547 -1.57259 0
M  V30 12282 C 1149.73 0.809774 -1.85931 0
M  V30 12283 C 1150.06 1.78791 -0.758122 0
M  V30 12284 O 1149.34 1.93079 0.234682 0
M  V30 12285 C 1149.62 1.54601 -3.25224 0
M  V30 12286 C 1149.47 0.586439 -4.45961 0
M  V30 12287 C 1150.79 2.4986 -3.62296 0
M  V30 12288 H 1147.91 0.29293 -0.676285 0
M  V30 12289 H 1150.55 0.0736065 -1.89857 0
M  V30 12290 H 1148.7 2.17355 -3.22008 0
M  V30 12291 H 1150.38 -0.0334441 -4.61288 0
M  V30 12292 H 1148.62 -0.10085 -4.33683 0
M  V30 12293 H 1149.29 1.13855 -5.40131 0
M  V30 12294 H 1151.77 1.97203 -3.66402 0
M  V30 12295 H 1150.64 2.98396 -4.60707 0
M  V30 12296 H 1150.9 3.33233 -2.90531 0
M  V30 12297 N 1149.96 1.53094 0.37415 0
M  V30 12298 C 1151.21 1.68082 1.11495 0
M  V30 12299 C 1151.52 0.434685 1.90709 0
M  V30 12300 O 1152.73 0.464956 2.67489 0
M  V30 12301 C 1151.19 2.97101 2.03124 0
M  V30 12302 C 1150.79 4.28947 1.29262 0
M  V30 12303 C 1152.54 3.21456 2.77248 0
M  V30 12304 C 1150.44 5.4906 2.19743 0
M  V30 12305 H 1149.37 0.626238 0.419931 0
M  V30 12306 H 1152.03 1.79594 0.376588 0
M  V30 12307 H 1150.41 2.79371 2.80656 0
M  V30 12308 H 1151.58 4.57279 0.568528 0
M  V30 12309 H 1149.9 4.10968 0.670362 0
M  V30 12310 H 1152.49 4.08377 3.45155 0
M  V30 12311 H 1152.84 2.37153 3.42146 0
M  V30 12312 H 1153.37 3.3982 2.06803 0
M  V30 12313 H 1150.11 6.35815 1.59437 0
M  V30 12314 H 1149.63 5.25019 2.90027 0
M  V30 12315 H 1151.31 5.83517 2.79495 0
M  V30 12316 N 1151.44 -0.633461 1.44309 0
M  V30 12317 C 1152.67 -1.41827 1.50229 0
M  V30 12318 C 1153.08 -1.88786 0.125082 0
M  V30 12319 O 1152.42 -1.61314 -0.878836 0
M  V30 12320 C 1152.48 -2.67372 2.40317 0
M  V30 12321 C 1152.15 -2.42224 3.87526 0
M  V30 12322 C 1153.14 -2.04199 4.7812 0
M  V30 12323 C 1150.83 -2.55936 4.32206 0
M  V30 12324 C 1152.82 -1.80211 6.11394 0
M  V30 12325 C 1150.51 -2.31563 5.65528 0
M  V30 12326 C 1151.51 -1.93758 6.5494 0
M  V30 12327 O 1151.2 -1.69654 7.85794 0
M  V30 12328 H 1150.93 -0.441478 0.51193 0
M  V30 12329 H 1153.48 -0.782118 1.89927 0
M  V30 12330 H 1151.71 -3.33616 1.95543 0
M  V30 12331 H 1153.4 -3.2937 2.37214 0
M  V30 12332 H 1154.17 -1.93164 4.44874 0
M  V30 12333 H 1150.05 -2.84333 3.62872 0
M  V30 12334 H 1153.59 -1.50628 6.81144 0
M  V30 12335 H 1149.49 -2.42206 5.98336 0
M  V30 12336 H 1150.25 -1.83919 7.97569 0
M  V30 12337 N 1152.92 -1.31168 -0.873655 0
M  V30 12338 C 1153.85 -1.14325 -1.98651 0
M  V30 12339 C 1154.86 -0.0833421 -1.62587 0
M  V30 12340 O 1156.05 -0.330477 -1.75414 0
M  V30 12341 C 1153.15 -0.723747 -3.31082 0
M  V30 12342 C 1152.33 -1.86787 -3.95512 0
M  V30 12343 C 1151.38 -1.43503 -5.06254 0
M  V30 12344 O 1150.41 -2.14409 -5.27273 0
M  V30 12345 N 1151.61 -0.320362 -5.79615 0
M  V30 12346 H 1154.38 -2.10179 -2.13647 0
M  V30 12347 H 1151.94 -1.23454 -1.04742 0
M  V30 12348 H 1153.93 -0.416971 -4.02546 0
M  V30 12349 H 1152.5 0.143073 -3.12272 0
M  V30 12350 H 1151.72 -2.34216 -3.17075 0
M  V30 12351 H 1153.01 -2.6343 -4.35296 0
M  V30 12352 H 1152.41 0.270215 -5.65054 0
M  V30 12353 H 1150.96 -0.0731 -6.51759 0
M  V30 12354 N 1154.4 1.08748 -1.14068 0
M  V30 12355 C 1155.63 1.84546 -0.928789 0
M  V30 12356 C 1156.03 1.81741 0.526007 0
M  V30 12357 O 1155.38 1.2169 1.37613 0
M  V30 12358 C 1155.44 3.33282 -1.34771 0
M  V30 12359 C 1155.1 3.59826 -2.81734 0
M  V30 12360 C 1156.1 3.54964 -3.79864 0
M  V30 12361 C 1153.79 3.87949 -3.19063 0
M  V30 12362 C 1155.78 3.77847 -5.13332 0
M  V30 12363 C 1153.47 4.10487 -4.52707 0
M  V30 12364 C 1154.46 4.05429 -5.49651 0
M  V30 12365 O 1154.15 4.27378 -6.80884 0
M  V30 12366 H 1153.88 0.589555 -0.330758 0
M  V30 12367 H 1156.44 1.38275 -1.51886 0
M  V30 12368 H 1154.67 3.80294 -0.700948 0
M  V30 12369 H 1156.36 3.90508 -1.10718 0
M  V30 12370 H 1157.12 3.33256 -3.52371 0
M  V30 12371 H 1153 3.91007 -2.44201 0
M  V30 12372 H 1156.55 3.73815 -5.88989 0
M  V30 12373 H 1152.44 4.31677 -4.79922 0
M  V30 12374 H 1153.21 4.44802 -6.8709 0
M  V30 12375 N 1155.87 0.935264 1.26849 0
M  V30 12376 C 1156.81 0.384563 2.24936 0
M  V30 12377 C 1157.79 -0.523311 1.53949 0
M  V30 12378 O 1158.97 -0.462103 1.82748 0
M  V30 12379 C 1156.1 -0.448043 3.35723 0
M  V30 12380 C 1155.14 0.397466 4.24644 0
M  V30 12381 S 1155.98 1.81773 5.03705 0
M  V30 12382 C 1157.13 0.99302 6.17972 0
M  V30 12383 H 1157.36 1.21588 2.713 0
M  V30 12384 H 1154.9 0.737966 1.35622 0
M  V30 12385 H 1156.86 -0.922541 3.99999 0
M  V30 12386 H 1155.52 -1.25397 2.87983 0
M  V30 12387 H 1154.71 -0.240176 5.03427 0
M  V30 12388 H 1154.31 0.806423 3.65202 0
M  V30 12389 H 1156.6 0.232526 6.77101 0
M  V30 12390 H 1157.55 1.75412 6.86029 0
M  V30 12391 H 1157.95 0.531692 5.6199 0
M  V30 12392 N 1157.35 -1.41121 0.701616 0
M  V30 12393 C 1158.63 -1.9492 0.162911 0
M  V30 12394 C 1159.01 -1.64064 -1.32839 0
M  V30 12395 O 1158.36 -0.950848 -2.07777 0
M  V30 12396 C 1158.57 -3.45946 0.460673 0
M  V30 12397 C 1159.92 -4.22789 0.391706 0
M  V30 12398 O 1160.94 -3.53993 0.395931 0
M  V30 12399 O 1159.8 -5.45332 0.357071 0
M  V30 12400 H 1156.89 -0.826793 0.0185103 0
M  V30 12401 H 1159.44 -1.50805 0.778192 0
M  V30 12402 H 1158.21 -3.61711 1.49269 0
M  V30 12403 H 1157.83 -3.97168 -0.185277 0
M  V30 12404 N 1158.83 -0.446794 -1.51134 0
M  V30 12405 C 1160.11 0.176892 -1.94798 0
M  V30 12406 C 1160.49 1.59229 -1.38598 0
M  V30 12407 O 1159.84 2.21097 -0.576905 0
M  V30 12408 C 1160.05 0.145 -3.48699 0
M  V30 12409 C 1161.39 0.345917 -4.23189 0
M  V30 12410 O 1162.42 0.222691 -3.55503 0
M  V30 12411 O 1161.28 0.592112 -5.43283 0
M  V30 12412 H 1158.37 0.12486 -0.81752 0
M  V30 12413 H 1160.92 -0.505453 -1.61998 0
M  V30 12414 H 1159.69 -0.844156 -3.82086 0
M  V30 12415 H 1159.31 0.869851 -3.87968 0
M  V30 12416 N 1160.31 1.56586 -0.178487 0
M  V30 12417 C 1161.24 2.21313 0.744486 0
M  V30 12418 C 1162.22 1.17098 1.23377 0
M  V30 12419 O 1163.4 1.45551 1.28563 0
M  V30 12420 C 1160.53 2.8595 1.97103 0
M  V30 12421 C 1159.49 3.96266 1.61732 0
M  V30 12422 C 1158.81 4.47987 2.91911 0
M  V30 12423 C 1160.11 5.15503 0.839868 0
M  V30 12424 H 1161.81 2.98698 0.204938 0
M  V30 12425 H 1159.35 1.43672 0.0971306 0
M  V30 12426 H 1161.31 3.29909 2.6218 0
M  V30 12427 H 1160.03 2.05946 2.53484 0
M  V30 12428 H 1158.69 3.52974 0.990208 0
M  V30 12429 H 1158.34 3.64765 3.46346 0
M  V30 12430 H 1158.04 5.22413 2.68995 0
M  V30 12431 H 1159.56 4.94637 3.58004 0
M  V30 12432 H 1160.98 5.5611 1.39337 0
M  V30 12433 H 1159.37 5.95891 0.709473 0
M  V30 12434 H 1160.44 4.84628 -0.162396 0
M  V30 12435 N 1161.79 -0.095206 1.57312 0
M  V30 12436 C 1163.02 -0.811092 1.90013 0
M  V30 12437 C 1163.42 -1.72807 0.770359 0
M  V30 12438 O 1162.77 -1.81755 -0.266615 0
M  V30 12439 C 1162.83 -1.67744 3.17966 0
M  V30 12440 C 1162.49 -0.932301 4.47389 0
M  V30 12441 C 1163.49 -0.262161 5.19239 0
M  V30 12442 C 1161.18 -0.906414 4.94054 0
M  V30 12443 C 1163.17 0.423898 6.35989 0
M  V30 12444 C 1160.86 -0.216569 6.10716 0
M  V30 12445 C 1161.85 0.447408 6.81533 0
M  V30 12446 O 1161.54 1.12619 7.95972 0
M  V30 12447 H 1161.27 -0.237154 0.633035 0
M  V30 12448 H 1163.83 -0.0768976 2.05256 0
M  V30 12449 H 1162.06 -2.45387 2.98868 0
M  V30 12450 H 1163.75 -2.26988 3.36498 0
M  V30 12451 H 1164.51 -0.273621 4.84228 0
M  V30 12452 H 1160.39 -1.41267 4.38822 0
M  V30 12453 H 1163.94 0.942727 6.91201 0
M  V30 12454 H 1159.83 -0.202955 6.45181 0
M  V30 12455 H 1160.6 1.03308 8.11954 0
M  V30 12456 N 1163.26 -1.53291 -0.366026 0
M  V30 12457 C 1164.51 -1.69702 -1.11036 0
M  V30 12458 C 1164.84 -0.44728 -1.88979 0
M  V30 12459 O 1164.12 0.55542 -1.86401 0
M  V30 12460 C 1164.4 -2.94661 -2.06995 0
M  V30 12461 C 1164.25 -4.29791 -1.32663 0
M  V30 12462 C 1165.57 -3.15219 -3.07123 0
M  V30 12463 H 1162.69 -0.617525 -0.402284 0
M  V30 12464 H 1165.33 -1.85929 -0.391223 0
M  V30 12465 H 1163.48 -2.80958 -2.68318 0
M  V30 12466 H 1165.16 -4.55305 -0.741266 0
M  V30 12467 H 1163.4 -4.29223 -0.628484 0
M  V30 12468 H 1164.07 -5.13359 -2.02896 0
M  V30 12469 H 1166.55 -3.28105 -2.55903 0
M  V30 12470 H 1165.42 -4.04088 -3.71489 0
M  V30 12471 H 1165.68 -2.30479 -3.77269 0
M  V30 12472 N 1164.74 0.6258 -1.44643 0
M  V30 12473 C 1165.99 1.38251 -1.47414 0
M  V30 12474 C 1166.31 1.94689 -0.110043 0
M  V30 12475 O 1165.58 1.76095 0.858333 0
M  V30 12476 H 1164.16 0.513179 -0.542823 0
M  V30 12477 H 1166.82 0.736179 -1.80462 0
M  V30 12478 H 1165.92 2.21115 -2.2026 0
M  V30 12479 N 1166.22 1.31629 0.866686 0
M  V30 12480 C 1167.45 1.24609 1.65793 0
M  V30 12481 C 1167.87 -0.184944 1.87189 0
M  V30 12482 O 1167.23 -1.1322 1.41601 0
M  V30 12483 C 1167.28 1.9988 3.00134 0
M  V30 12484 O 1166.38 1.33838 3.90079 0
M  V30 12485 H 1165.72 0.430051 0.505917 0
M  V30 12486 H 1168.25 1.73752 1.08035 0
M  V30 12487 H 1168.26 2.09599 3.50046 0
M  V30 12488 H 1166.94 3.03947 2.83882 0
M  V30 12489 H 1165.51 1.3259 3.48532 0
M  V30 12490 N 1167.7 -1.08142 1.14644 0
M  V30 12491 C 1168.98 -1.77254 0.827071 0
M  V30 12492 C 1169.36 -1.99885 -0.67891 0
M  V30 12493 O 1168.7 -1.61084 -1.62062 0
M  V30 12494 C 1168.91 -3.08658 1.62884 0
M  V30 12495 C 1170.26 -3.83143 1.82993 0
M  V30 12496 O 1171.29 -3.18447 1.59593 0
M  V30 12497 O 1170.15 -4.9932 2.2213 0
M  V30 12498 H 1167.24 -0.769356 0.30335 0
M  V30 12499 H 1169.79 -1.1458 1.25178 0
M  V30 12500 H 1168.56 -2.87753 2.65168 0
M  V30 12501 H 1168.18 -3.79061 1.19994 0
M  V30 12502 N 1169.18 -0.941978 -1.26351 0
M  V30 12503 C 1170.11 -0.469913 -2.28723 0
M  V30 12504 C 1171.09 0.477218 -1.63269 0
M  V30 12505 O 1172.27 0.378902 -1.90468 0
M  V30 12506 C 1169.4 0.264971 -3.46288 0
M  V30 12507 C 1168.36 -0.595682 -4.23834 0
M  V30 12508 C 1167.68 0.269208 -5.34022 0
M  V30 12509 C 1168.98 -1.86743 -4.87775 0
M  V30 12510 H 1170.68 -1.32551 -2.6846 0
M  V30 12511 H 1168.22 -0.638809 -1.29055 0
M  V30 12512 H 1170.18 0.606259 -4.17016 0
M  V30 12513 H 1168.9 1.15471 -3.05506 0
M  V30 12514 H 1167.56 -0.919875 -3.54872 0
M  V30 12515 H 1167.21 1.15832 -4.89481 0
M  V30 12516 H 1166.91 -0.30325 -5.86817 0
M  V30 12517 H 1168.43 0.605748 -6.07588 0
M  V30 12518 H 1169.85 -1.59333 -5.50714 0
M  V30 12519 H 1168.24 -2.38452 -5.50691 0
M  V30 12520 H 1169.31 -2.57831 -4.10671 0
M  V30 12521 N 1170.66 1.40747 -0.709091 0
M  V30 12522 C 1171.57 2.3454 -0.0532205 0
M  V30 12523 C 1172.58 1.56956 0.751057 0
M  V30 12524 O 1173.76 1.89375 0.685509 0
M  V30 12525 C 1170.82 3.35809 0.862157 0
M  V30 12526 C 1169.88 4.29273 0.0485632 0
M  V30 12527 C 1169.12 5.25705 0.920345 0
M  V30 12528 O 1169.34 5.27933 2.15969 0
M  V30 12529 O 1168.27 6.00806 0.3628 0
M  V30 12530 H 1172.1 2.92232 -0.826698 0
M  V30 12531 H 1169.68 1.4183 -0.469519 0
M  V30 12532 H 1171.57 3.97931 1.38668 0
M  V30 12533 H 1170.24 2.8054 1.61489 0
M  V30 12534 H 1169.15 3.70456 -0.520873 0
M  V30 12535 H 1170.48 4.87676 -0.665807 0
M  V30 12536 N 1172.13 0.454803 1.50895 0
M  V30 12537 C 1173.38 -0.107367 2.01414 0
M  V30 12538 C 1173.7 -1.42243 1.34262 0
M  V30 12539 O 1174.9 -2.06858 1.75846 0
M  V30 12540 C 1173.36 -0.241872 3.59086 0
M  V30 12541 C 1172.97 1.06379 4.35187 0
M  V30 12542 C 1174.71 -0.756873 4.17698 0
M  V30 12543 C 1172.62 0.893973 5.84604 0
M  V30 12544 H 1171.55 -0.0439003 0.752721 0
M  V30 12545 H 1174.2 0.587225 1.7385 0
M  V30 12546 H 1172.58 -0.999873 3.83169 0
M  V30 12547 H 1173.75 1.83148 4.2284 0
M  V30 12548 H 1172.07 1.50865 3.88109 0
M  V30 12549 H 1174.67 -0.900697 5.27059 0
M  V30 12550 H 1175.01 -1.74397 3.7801 0
M  V30 12551 H 1175.54 -0.0567088 3.9776 0
M  V30 12552 H 1172.28 1.85395 6.28736 0
M  V30 12553 H 1171.8 0.166387 5.99569 0
M  V30 12554 H 1173.48 0.554084 6.44623 0
M  V30 12555 N 1173.61 -1.56489 0.186789 0
M  V30 12556 C 1174.86 -1.96952 -0.453261 0
M  V30 12557 C 1175.18 -1.07451 -1.62725 0
M  V30 12558 O 1174.45 -0.144046 -1.9537 0
M  V30 12559 H 1173.03 -0.727295 -0.170445 0
M  V30 12560 H 1175.69 -1.92999 0.271584 0
M  V30 12561 H 1174.79 -3.01594 -0.802951 0
M  V30 12562 N 1175.09 0.086862 -1.5736 0
M  V30 12563 C 1176.02 1.13117 -1.99342 0
M  V30 12564 C 1177.03 1.35849 -0.897151 0
M  V30 12565 O 1178.22 1.34356 -1.17519 0
M  V30 12566 C 1175.32 2.48511 -2.30425 0
M  V30 12567 C 1174.5 2.45942 -3.61706 0
M  V30 12568 C 1173.56 3.63327 -3.80631 0
M  V30 12569 O 1172.58 3.45443 -4.52392 0
M  V30 12570 N 1173.78 4.83118 -3.21835 0
M  V30 12571 H 1176.55 0.773782 -2.89539 0
M  V30 12572 H 1174.11 0.275731 -1.59535 0
M  V30 12573 H 1176.1 3.25656 -2.40272 0
M  V30 12574 H 1174.67 2.76308 -1.46194 0
M  V30 12575 H 1173.89 1.54287 -3.62752 0
M  V30 12576 H 1175.18 2.41313 -4.47935 0
M  V30 12577 H 1174.58 5.00552 -2.6356 0
M  V30 12578 H 1173.13 5.57827 -3.37154 0
M  V30 12579 N 1176.57 1.53483 0.357892 0
M  V30 12580 C 1177.52 1.76843 1.43911 0
M  V30 12581 C 1178.5 0.623178 1.48342 0
M  V30 12582 O 1179.69 0.882102 1.53453 0
M  V30 12583 C 1176.82 1.96865 2.81246 0
M  V30 12584 C 1175.91 3.17414 2.81263 0
M  V30 12585 N 1176.3 4.39172 2.50921 0
M  V30 12586 C 1174.6 3.18292 3.1242 0
M  V30 12587 C 1175.3 5.20953 2.58811 0
M  V30 12588 N 1174.27 4.57338 2.93841 0
M  V30 12589 H 1178.08 2.68586 1.19327 0
M  V30 12590 H 1175.59 1.52212 0.566142 0
M  V30 12591 H 1177.59 2.11731 3.59132 0
M  V30 12592 H 1176.25 1.06355 3.06788 0
M  V30 12593 H 1177.26 4.66772 2.24376 0
M  V30 12594 H 1173.94 2.37702 3.43226 0
M  V30 12595 H 1175.33 6.28095 2.38633 0
M  V30 12596 N 1178.05 -0.61812 1.44973 0
M  V30 12597 C 1179.46 -0.937734 1.29146 0
M  V30 12598 C 1179.66 -2.00104 0.236749 0
M  V30 12599 O 1178.72 -2.49731 -0.372923 0
M  V30 12600 C 1180.03 -1.38865 2.66715 0
M  V30 12601 C 1181.58 -1.50343 2.74529 0
M  V30 12602 C 1182.05 -1.98814 4.12598 0
M  V30 12603 N 1183.54 -2.06064 4.14839 0
M  V30 12604 C 1184.28 -2.44768 5.18533 0
M  V30 12605 N 1183.78 -2.82516 6.32579 0
M  V30 12606 N 1185.57 -2.45016 5.05889 0
M  V30 12607 H 1177.72 0.084872 2.1223 0
M  V30 12608 H 1179.98 -0.0246744 0.947679 0
M  V30 12609 H 1179.69 -0.681583 3.45032 0
M  V30 12610 H 1179.56 -2.3572 2.94475 0
M  V30 12611 H 1181.95 -2.20144 1.96522 0
M  V30 12612 H 1182.03 -0.518297 2.50494 0
M  V30 12613 H 1181.67 -1.29604 4.91086 0
M  V30 12614 H 1181.6 -2.98223 4.34017 0
M  V30 12615 H 1184.1 -1.79525 3.32535 0
M  V30 12616 H 1184.41 -3.109 7.07504 0
M  V30 12617 H 1182.75 -2.80237 6.35997 0
M  V30 12618 H 1185.94 -2.14925 4.15842 0
M  V30 12619 H 1186.12 -2.74854 5.86821 0
M  V30 12620 N 1179.52 -1.32087 -0.859693 0
M  V30 12621 C 1180.75 -1.25348 -1.64607 0
M  V30 12622 C 1181.17 0.179425 -1.87945 0
M  V30 12623 O 1180.52 1.11487 -1.44489 0
M  V30 12624 C 1180.57 -2.0047 -3.00822 0
M  V30 12625 O 1180.3 -3.38169 -2.7852 0
M  V30 12626 C 1181.8 -2.00694 -3.95268 0
M  V30 12627 H 1179.02 -0.432692 -0.512854 0
M  V30 12628 H 1181.56 -1.7413 -1.07234 0
M  V30 12629 H 1179.72 -1.55423 -3.54855 0
M  V30 12630 H 1180.13 -3.76553 -3.65113 0
M  V30 12631 H 1181.6 -2.57748 -4.88129 0
M  V30 12632 H 1182.08 -0.99196 -4.27851 0
M  V30 12633 H 1182.69 -2.45666 -3.47172 0
M  V30 12634 N 1181 1.07532 -1.15215 0
M  V30 12635 C 1181.95 2.14687 -0.847243 0
M  V30 12636 C 1182.92 1.64903 0.199043 0
M  V30 12637 O 1184.1 1.90682 0.0669986 0
M  V30 12638 C 1181.24 3.43414 -0.340673 0
M  V30 12639 C 1180.36 4.06999 -1.44831 0
M  V30 12640 C 1179.49 5.23554 -0.898059 0
M  V30 12641 C 1178.53 5.79097 -1.98276 0
M  V30 12642 N 1177.67 6.86985 -1.44902 0
M  V30 12643 H 1182.51 2.4011 -1.76498 0
M  V30 12644 H 1180.04 1.17823 -0.880689 0
M  V30 12645 H 1182 4.1719 -0.0286956 0
M  V30 12646 H 1180.63 3.18249 0.540144 0
M  V30 12647 H 1179.68 3.30895 -1.87651 0
M  V30 12648 H 1181 4.44289 -2.26735 0
M  V30 12649 H 1180.15 6.04305 -0.538514 0
M  V30 12650 H 1178.89 4.87676 -0.0481752 0
M  V30 12651 H 1177.89 4.96992 -2.35115 0
M  V30 12652 H 1179.12 6.1703 -2.83639 0
M  V30 12653 H 1177.07 6.5305 -0.621468 0
M  V30 12654 H 1176.98 7.23149 -2.20434 0
M  V30 12655 H 1178.25 7.71446 -1.11767 0
M  V30 12656 N 1182.48 0.948665 1.2585 0
M  V30 12657 C 1183.73 0.595938 1.92695 0
M  V30 12658 C 1184.04 -0.870229 1.75175 0
M  V30 12659 O 1185.25 -1.33266 2.36543 0
M  V30 12660 C 1183.7 1.01511 3.45288 0
M  V30 12661 C 1183.31 2.50341 3.71528 0
M  V30 12662 C 1185.06 0.734635 4.18095 0
M  V30 12663 C 1182.96 2.8609 5.17597 0
M  V30 12664 H 1181.89 0.219171 0.721443 0
M  V30 12665 H 1184.54 1.15231 1.42807 0
M  V30 12666 H 1182.93 0.387201 3.94102 0
M  V30 12667 H 1184.1 3.18101 3.3339 0
M  V30 12668 H 1182.42 2.75797 3.11969 0
M  V30 12669 H 1185.01 0.977962 5.25681 0
M  V30 12670 H 1185.36 -0.328807 4.14999 0
M  V30 12671 H 1185.89 1.32262 3.75169 0
M  V30 12672 H 1182.63 3.91427 5.25799 0
M  V30 12673 H 1182.15 2.22999 5.56805 0
M  V30 12674 H 1183.83 2.74959 5.85668 0
M  V30 12675 N 1183.96 -1.40369 0.716545 0
M  V30 12676 C 1184.87 -2.34508 0.065658 0
M  V30 12677 C 1185.88 -1.57352 -0.742723 0
M  V30 12678 O 1187.06 -1.89735 -0.675456 0
M  V30 12679 C 1184.13 -3.36262 -0.844337 0
M  V30 12680 C 1183.19 -4.29292 -0.0257971 0
M  V30 12681 C 1182.42 -5.26185 -0.892452 0
M  V30 12682 O 1182.64 -5.29071 -2.13166 0
M  V30 12683 O 1181.58 -6.0099 -0.330933 0
M  V30 12684 H 1185.4 -2.91789 0.842184 0
M  V30 12685 H 1182.99 -1.41579 0.477034 0
M  V30 12686 H 1184.87 -3.98661 -1.36555 0
M  V30 12687 H 1183.54 -2.81393 -1.59999 0
M  V30 12688 H 1182.45 -3.70175 0.540512 0
M  V30 12689 H 1183.78 -4.87316 0.69166 0
M  V30 12690 N 1185.44 -0.462799 -1.50652 0
M  V30 12691 C 1186.35 0.341191 -2.32106 0
M  V30 12692 C 1187.36 1.00384 -1.42123 0
M  V30 12693 O 1188.54 0.993635 -1.75182 0
M  V30 12694 C 1185.6 1.41356 -3.16575 0
M  V30 12695 C 1184.66 0.768375 -4.22368 0
M  V30 12696 C 1183.9 1.78964 -5.028 0
M  V30 12697 O 1184.12 3.01515 -4.84195 0
M  V30 12698 O 1183.05 1.36606 -5.86193 0
M  V30 12699 H 1186.88 -0.324482 -3.01962 0
M  V30 12700 H 1184.47 -0.224807 -1.47699 0
M  V30 12701 H 1186.35 2.0349 -3.69012 0
M  V30 12702 H 1185.02 2.06285 -2.49456 0
M  V30 12703 H 1183.93 0.108297 -3.73943 0
M  V30 12704 H 1185.26 0.162164 -4.91933 0
M  V30 12705 N 1186.91 1.56388 -0.195085 0
M  V30 12706 C 1187.84 2.22091 0.720971 0
M  V30 12707 C 1188.83 1.184 1.22128 0
M  V30 12708 O 1190.01 1.46907 1.27012 0
M  V30 12709 C 1187.14 2.88025 1.94059 0
M  V30 12710 C 1186.09 3.97959 1.5752 0
M  V30 12711 C 1185.42 4.51058 2.87143 0
M  V30 12712 C 1186.72 5.16365 0.785145 0
M  V30 12713 H 1188.41 2.98898 0.173245 0
M  V30 12714 H 1185.96 1.43767 0.0818868 0
M  V30 12715 H 1187.91 3.32671 2.58666 0
M  V30 12716 H 1186.64 2.08623 2.51285 0
M  V30 12717 H 1185.3 3.54004 0.952715 0
M  V30 12718 H 1184.94 3.68418 3.42458 0
M  V30 12719 H 1184.64 5.25237 2.63439 0
M  V30 12720 H 1186.17 4.98406 3.52738 0
M  V30 12721 H 1187.58 5.57556 1.33431 0
M  V30 12722 H 1185.98 5.9661 0.646231 0
M  V30 12723 H 1187.05 4.84428 -0.213789 0
M  V30 12724 N 1188.39 -0.0785156 1.57404 0
M  V30 12725 C 1189.81 -0.433143 1.5361 0
M  V30 12726 C 1190.01 -1.79564 0.914283 0
M  V30 12727 O 1189.06 -2.47215 0.513899 0
M  V30 12728 C 1190.38 -0.380387 2.98284 0
M  V30 12729 C 1191.93 -0.461056 3.09586 0
M  V30 12730 C 1192.4 -0.438276 4.55898 0
M  V30 12731 N 1193.89 -0.498548 4.60509 0
M  V30 12732 C 1194.63 -0.503028 5.71189 0
M  V30 12733 N 1194.12 -0.462724 6.91253 0
M  V30 12734 N 1195.92 -0.549083 5.59412 0
M  V30 12735 H 1188.07 0.813724 1.96195 0
M  V30 12736 H 1190.33 0.304644 0.897717 0
M  V30 12737 H 1190.04 0.553932 3.4731 0
M  V30 12738 H 1189.91 -1.19313 3.57833 0
M  V30 12739 H 1192.3 -1.3858 2.60537 0
M  V30 12740 H 1192.38 0.380138 2.5296 0
M  V30 12741 H 1192.02 0.482588 5.05602 0
M  V30 12742 H 1191.95 -1.29691 5.1038 0
M  V30 12743 H 1194.44 -0.534219 3.74105 0
M  V30 12744 H 1194.76 -0.469883 7.7137 0
M  V30 12745 H 1193.1 -0.429515 6.93672 0
M  V30 12746 H 1196.29 -0.578215 4.64515 0
M  V30 12747 H 1196.46 -0.549105 6.45669 0
M  V30 12748 N 1189.87 -1.5367 -0.349747 0
M  V30 12749 C 1190.8 -1.77528 -1.4497 0
M  V30 12750 C 1191.82 -0.656412 -1.4898 0
M  V30 12751 O 1193 -0.933016 -1.52174 0
M  V30 12752 C 1190.1 -1.85445 -2.8366 0
M  V30 12753 C 1189.28 -3.15295 -3.03163 0
M  V30 12754 C 1188.34 -3.1425 -4.22059 0
M  V30 12755 O 1187.36 -3.87994 -4.16472 0
M  V30 12756 N 1188.56 -2.36181 -5.30282 0
M  V30 12757 H 1191.33 -2.72444 -1.24877 0
M  V30 12758 H 1188.89 -1.52644 -0.539586 0
M  V30 12759 H 1190.88 -1.82204 -3.61364 0
M  V30 12760 H 1189.45 -0.977436 -2.96926 0
M  V30 12761 H 1188.67 -3.31711 -2.12983 0
M  V30 12762 H 1189.96 -4.01078 -3.13072 0
M  V30 12763 H 1189.36 -1.75808 -5.37688 0
M  V30 12764 H 1187.92 -2.38744 -6.06502 0
M  V30 12765 N 1191.35 0.610423 -1.45298 0
M  V30 12766 C 1192.3 1.71552 -1.5018 0
M  V30 12767 C 1193.28 1.56697 -0.365357 0
M  V30 12768 O 1194.47 1.66082 -0.612029 0
M  V30 12769 C 1191.6 3.10298 -1.46867 0
M  V30 12770 C 1190.69 3.30549 -2.65703 0
M  V30 12771 N 1191.08 3.21073 -3.90827 0
M  V30 12772 C 1189.38 3.6141 -2.6134 0
M  V30 12773 C 1190.08 3.42577 -4.70123 0
M  V30 12774 N 1189.06 3.66434 -4.01531 0
M  V30 12775 H 1192.86 1.62714 -2.44747 0
M  V30 12776 H 1190.37 0.813587 -1.40551 0
M  V30 12777 H 1192.37 3.89575 -1.48449 0
M  V30 12778 H 1191.03 3.20286 -0.533548 0
M  V30 12779 H 1192.04 2.99537 -4.2249 0
M  V30 12780 H 1188.72 3.78253 -1.76722 0
M  V30 12781 H 1190.11 3.40669 -5.79132 0
M  V30 12782 N 1192.83 1.32541 0.852676 0
M  V30 12783 C 1193.76 1.24254 1.97694 0
M  V30 12784 C 1194.74 0.125971 1.69633 0
M  V30 12785 O 1195.92 0.31347 1.91653 0
M  V30 12786 C 1193.05 0.966874 3.3357 0
M  V30 12787 C 1192.01 2.0449 3.75989 0
M  V30 12788 C 1191.33 1.6216 5.09518 0
M  V30 12789 C 1192.63 3.46013 3.91244 0
M  V30 12790 H 1194.33 2.18317 2.04886 0
M  V30 12791 H 1191.87 1.05101 0.984371 0
M  V30 12792 H 1193.83 0.895444 4.11776 0
M  V30 12793 H 1192.55 -0.0093893 3.26599 0
M  V30 12794 H 1191.21 2.10651 3.00036 0
M  V30 12795 H 1190.86 0.632729 4.99005 0
M  V30 12796 H 1190.56 2.3429 5.38871 0
M  V30 12797 H 1192.08 1.56457 5.90215 0
M  V30 12798 H 1193.49 3.4243 4.59799 0
M  V30 12799 H 1191.89 4.1651 4.32017 0
M  V30 12800 H 1192.96 3.8553 2.941 0
M  V30 12801 N 1194.3 -1.0692 1.15784 0
M  V30 12802 C 1195.23 -2.16216 0.881649 0
M  V30 12803 C 1196.22 -1.69253 -0.16951 0
M  V30 12804 O 1197.4 -1.94186 -0.0229511 0
M  V30 12805 C 1194.53 -3.4527 0.374982 0
M  V30 12806 C 1193.48 -4.05706 1.36332 0
M  V30 12807 C 1192.81 -5.29894 0.715317 0
M  V30 12808 C 1194.11 -4.45224 2.7308 0
M  V30 12809 H 1195.8 -2.39577 1.79563 0
M  V30 12810 H 1193.35 -1.15141 0.864784 0
M  V30 12811 H 1195.3 -4.2106 0.169279 0
M  V30 12812 H 1194.03 -3.21508 -0.574485 0
M  V30 12813 H 1192.69 -3.31965 1.55546 0
M  V30 12814 H 1192.33 -5.02425 -0.240436 0
M  V30 12815 H 1192.03 -5.71287 1.37494 0
M  V30 12816 H 1193.56 -6.08386 0.519489 0
M  V30 12817 H 1194.97 -5.12124 2.57686 0
M  V30 12818 H 1193.37 -4.97583 3.35457 0
M  V30 12819 H 1194.44 -3.56384 3.28813 0
M  V30 12820 N 1195.78 -0.955326 -1.25345 0
M  V30 12821 C 1197.2 -0.659863 -1.4532 0
M  V30 12822 C 1197.4 0.78238 -1.85691 0
M  V30 12823 O 1196.45 1.5576 -1.98734 0
M  V30 12824 C 1197.77 -1.63339 -2.5247 0
M  V30 12825 C 1199.32 -1.64464 -2.66309 0
M  V30 12826 C 1199.79 -2.60583 -3.76644 0
M  V30 12827 N 1201.28 -2.58951 -3.84055 0
M  V30 12828 C 1202.02 -3.30002 -4.6892 0
M  V30 12829 N 1201.51 -4.10528 -5.58067 0
M  V30 12830 N 1203.31 -3.18886 -4.62891 0
M  V30 12831 H 1195.46 -1.88734 -0.97433 0
M  V30 12832 H 1197.72 -0.811858 -0.48948 0
M  V30 12833 H 1197.43 -2.66358 -2.29665 0
M  V30 12834 H 1197.3 -1.39644 -3.50399 0
M  V30 12835 H 1199.69 -0.621622 -2.88479 0
M  V30 12836 H 1199.77 -1.92218 -1.68778 0
M  V30 12837 H 1199.41 -3.63011 -3.55226 0
M  V30 12838 H 1199.34 -2.30113 -4.73662 0
M  V30 12839 H 1201.83 -2.00491 -3.20331 0
M  V30 12840 H 1202.15 -4.6166 -6.1975 0
M  V30 12841 H 1200.49 -4.14626 -5.57773 0
M  V30 12842 H 1203.68 -2.55447 -3.92255 0
M  V30 12843 H 1203.85 -3.74524 -5.28806 0
M  V30 12844 N 1197.26 1.39987 -0.723979 0
M  V30 12845 C 1198.51 2.01514 -0.276365 0
M  V30 12846 C 1198.86 1.56399 1.12058 0
M  V30 12847 O 1198.16 0.777927 1.75097 0
M  V30 12848 C 1198.35 3.56101 -0.304472 0
M  V30 12849 C 1198.18 4.16223 -1.70261 0
M  V30 12850 C 1196.95 4.49292 -2.31225 0
M  V30 12851 C 1199.15 4.40512 -2.65431 0
M  V30 12852 N 1197.13 4.94854 -3.63308 0
M  V30 12853 C 1198.5 4.88158 -3.82232 0
M  V30 12854 C 1200.55 4.22562 -2.63335 0
M  V30 12855 C 1199.26 5.19739 -4.97256 0
M  V30 12856 C 1201.28 4.5525 -3.77493 0
M  V30 12857 C 1200.65 5.03093 -4.93028 0
M  V30 12858 H 1196.74 0.768031 -0.147146 0
M  V30 12859 H 1199.33 1.70085 -0.947581 0
M  V30 12860 H 1197.5 3.86941 0.336344 0
M  V30 12861 H 1199.23 4.04381 0.160647 0
M  V30 12862 H 1195.99 4.36712 -1.83248 0
M  V30 12863 H 1196.41 5.22007 -4.31089 0
M  V30 12864 H 1201.05 3.84786 -1.75212 0
M  V30 12865 H 1198.77 5.56426 -5.86017 0
M  V30 12866 H 1202.36 4.42995 -3.77156 0
M  V30 12867 H 1201.24 5.27909 -5.79898 0
M  V30 12868 N 1198.74 0.470782 1.50404 0
M  V30 12869 C 1199.99 -0.0841494 2.01925 0
M  V30 12870 C 1200.31 -1.40244 1.35487 0
M  V30 12871 O 1199.58 -1.89409 0.500111 0
M  V30 12872 H 1198.16 -0.0340884 0.746222 0
M  V30 12873 H 1200.82 0.621133 1.84738 0
M  V30 12874 H 1199.92 -0.235877 3.11207 0
M  V30 12875 N 1200.22 -1.56282 0.203376 0
M  V30 12876 C 1201.46 -1.97812 -0.433202 0
M  V30 12877 C 1201.79 -1.09052 -1.61053 0
M  V30 12878 O 1201.05 -0.131417 -1.95258 0
M  V30 12879 C 1201.35 -3.45148 -0.927759 0
M  V30 12880 C 1201.01 -4.50692 0.137083 0
M  V30 12881 C 1199.67 -4.79278 0.429652 0
M  V30 12882 C 1202.03 -5.14086 0.858174 0
M  V30 12883 C 1199.35 -5.68547 1.44815 0
M  V30 12884 C 1201.71 -6.04457 1.86588 0
M  V30 12885 C 1200.37 -6.31395 2.16556 0
M  V30 12886 H 1199.64 -0.723846 -0.15852 0
M  V30 12887 H 1202.29 -1.89102 0.302082 0
M  V30 12888 H 1200.59 -3.5097 -1.74147 0
M  V30 12889 H 1202.29 -3.74642 -1.42984 0
M  V30 12890 H 1198.88 -4.28481 -0.101111 0
M  V30 12891 H 1203.06 -4.92086 0.645376 0
M  V30 12892 H 1198.32 -5.87689 1.68615 0
M  V30 12893 H 1202.49 -6.52636 2.4298 0
M  V30 12894 H 1200.12 -7.00366 2.9562 0
M  V30 12895 N 1201.7 0.070167 -1.57444 0
M  V30 12896 C 1202.92 0.781894 -1.91557 0
M  V30 12897 C 1203.34 1.71037 -0.799489 0
M  V30 12898 O 1202.7 1.81082 0.227062 0
M  V30 12899 C 1202.75 1.57415 -3.25427 0
M  V30 12900 O 1202.47 0.682991 -4.32743 0
M  V30 12901 C 1203.97 2.38673 -3.73564 0
M  V30 12902 H 1201.19 0.222211 -0.633138 0
M  V30 12903 H 1203.73 0.0399504 -2.04461 0
M  V30 12904 H 1201.89 2.26835 -3.14045 0
M  V30 12905 H 1202.3 1.2342 -5.09772 0
M  V30 12906 H 1203.78 2.89716 -4.6986 0
M  V30 12907 H 1204.25 3.18269 -3.02657 0
M  V30 12908 H 1204.86 1.74405 -3.87896 0
M  V30 12909 N 1203.17 1.53854 0.341593 0
M  V30 12910 C 1204.4 1.75134 1.10162 0
M  V30 12911 C 1204.82 0.491415 1.82292 0
M  V30 12912 O 1204.17 -0.53703 1.7442 0
M  V30 12913 C 1204.22 2.93273 2.1136 0
M  V30 12914 O 1203.95 4.14393 1.42162 0
M  V30 12915 C 1205.45 3.26621 2.99723 0
M  V30 12916 H 1202.67 0.585126 0.328434 0
M  V30 12917 H 1205.21 2.00684 0.393204 0
M  V30 12918 H 1203.37 2.70048 2.77764 0
M  V30 12919 H 1203.78 4.8072 2.09783 0
M  V30 12920 H 1205.25 4.12629 3.66662 0
M  V30 12921 H 1205.73 2.43008 3.65847 0
M  V30 12922 H 1206.34 3.51858 2.38906 0
M  V30 12923 N 1204.65 -0.602709 1.4562 0
M  V30 12924 C 1206.06 -1.1847 1.44297 0
M  V30 12925 C 1206.41 -1.95434 0.17316 0
M  V30 12926 O 1205.54 -2.03894 -0.724986 0
M  V30 12927 C 1206.13 -2.15508 2.61422 0
M  V30 12928 C 1204.69 -2.69073 2.63204 0
M  V30 12929 C 1203.84 -1.44568 2.36633 0
M  V30 12930 H 1206.79 -0.391745 1.53789 0
M  V30 12931 H 1206.81 -2.98628 2.35799 0
M  V30 12932 H 1206.32 -1.59464 3.53826 0
M  V30 12933 H 1204.42 -3.29042 1.7482 0
M  V30 12934 H 1204.54 -3.13173 3.62573 0
M  V30 12935 H 1202.9 -1.73692 1.86287 0
M  V30 12936 H 1203.68 -0.903852 3.31188 0
M  V30 12937 N 1206.13 -1.32992 -0.845635 0
M  V30 12938 C 1207.41 -1.14671 -1.58461 0
M  V30 12939 C 1207.79 0.289498 -2.09106 0
M  V30 12940 O 1207.13 1.28751 -1.88773 0
M  V30 12941 C 1207.34 -2.18206 -2.72373 0
M  V30 12942 C 1208.69 -2.5201 -3.41726 0
M  V30 12943 O 1209.72 -2.16821 -2.82608 0
M  V30 12944 O 1208.58 -3.12368 -4.48429 0
M  V30 12945 H 1205.67 -0.443088 -0.698285 0
M  V30 12946 H 1208.22 -1.44552 -0.888978 0
M  V30 12947 H 1206.99 -3.14707 -2.32541 0
M  V30 12948 H 1206.61 -1.89372 -3.49605 0
M  V30 12949 N 1207.61 1.06304 -1.1635 0
M  V30 12950 C 1208.55 2.13776 -0.869965 0
M  V30 12951 C 1209.52 1.65105 0.181541 0
M  V30 12952 O 1210.71 1.90743 0.0467705 0
M  V30 12953 C 1207.85 3.43034 -0.377077 0
M  V30 12954 C 1206.96 4.0544 -1.4914 0
M  V30 12955 C 1206.1 5.22572 -0.953538 0
M  V30 12956 C 1205.14 5.76961 -2.04407 0
M  V30 12957 N 1204.27 6.85409 -1.52181 0
M  V30 12958 H 1209.11 2.38224 -1.79034 0
M  V30 12959 H 1206.65 1.16882 -0.893136 0
M  V30 12960 H 1208.61 4.17136 -0.0729426 0
M  V30 12961 H 1207.24 3.18804 0.506359 0
M  V30 12962 H 1206.29 3.28886 -1.9115 0
M  V30 12963 H 1207.6 4.41859 -2.31434 0
M  V30 12964 H 1206.76 6.037 -0.602579 0
M  V30 12965 H 1205.5 4.87598 -0.099897 0
M  V30 12966 H 1204.5 4.9447 -2.40373 0
M  V30 12967 H 1205.73 6.13987 -2.90167 0
M  V30 12968 H 1203.67 6.52354 -0.690697 0
M  V30 12969 H 1203.59 7.2077 -2.28092 0
M  V30 12970 H 1204.86 7.70217 -1.19942 0
M  V30 12971 N 1209.09 0.96196 1.24836 0
M  V30 12972 C 1210.03 0.48686 2.25607 0
M  V30 12973 C 1211 -0.464546 1.59472 0
M  V30 12974 O 1212.19 -0.376179 1.87055 0
M  V30 12975 C 1209.33 -0.222294 3.44383 0
M  V30 12976 C 1208.44 0.767206 4.25133 0
M  V30 12977 C 1207.58 0.0347458 5.31189 0
M  V30 12978 C 1206.61 1.01469 6.03631 0
M  V30 12979 N 1205.75 0.312619 7.01404 0
M  V30 12980 H 1210.59 1.35104 2.65614 0
M  V30 12981 H 1208.13 0.677373 1.30576 0
M  V30 12982 H 1210.09 -0.650087 4.12104 0
M  V30 12983 H 1208.72 -1.05047 3.0523 0
M  V30 12984 H 1207.77 1.31346 3.57005 0
M  V30 12985 H 1209.08 1.5147 4.75245 0
M  V30 12986 H 1208.23 -0.451325 6.05019 0
M  V30 12987 H 1206.97 -0.745485 4.81969 0
M  V30 12988 H 1205.98 1.51169 5.28609 0
M  V30 12989 H 1207.2 1.79527 6.5494 0
M  V30 12990 H 1205.15 -0.44874 6.54463 0
M  V30 12991 H 1205.07 0.999079 7.49369 0
M  V30 12992 H 1206.33 -0.151673 7.79352 0
M  V30 12993 N 1210.56 -1.39601 0.731392 0
M  V30 12994 C 1211.51 -2.27907 0.0651931 0
M  V30 12995 C 1212.5 -1.44075 -0.716334 0
M  V30 12996 O 1213.69 -1.6702 -0.585936 0
M  V30 12997 C 1210.82 -3.32763 -0.844023 0
M  V30 12998 C 1209.9 -4.24062 -0.0568388 0
M  V30 12999 N 1210.3 -4.96448 0.968146 0
M  V30 13000 C 1208.59 -4.45075 -0.287037 0
M  V30 13001 C 1209.29 -5.6353 1.44252 0
M  V30 13002 N 1208.27 -5.38236 0.761772 0
M  V30 13003 H 1212.07 -2.81324 0.850539 0
M  V30 13004 H 1209.59 -1.5224 0.565396 0
M  V30 13005 H 1211.58 -3.94888 -1.33674 0
M  V30 13006 H 1210.24 -2.80905 -1.62857 0
M  V30 13007 H 1211.25 -5.00011 1.34942 0
M  V30 13008 H 1207.93 -4.04167 -1.04667 0
M  V30 13009 H 1209.32 -6.31487 2.29508 0
M  V30 13010 N 1212.04 -0.478751 -1.50152 0
M  V30 13011 C 1212.97 0.347829 -2.26545 0
M  V30 13012 C 1213.99 0.950354 -1.32182 0
M  V30 13013 O 1215.18 0.837462 -1.57635 0
M  V30 13014 C 1212.28 1.50255 -3.0377 0
M  V30 13015 C 1211.45 1.01142 -4.25546 0
M  V30 13016 C 1210.51 2.0411 -4.85 0
M  V30 13017 O 1209.53 1.61862 -5.45701 0
M  V30 13018 N 1210.74 3.36982 -4.72677 0
M  V30 13019 H 1213.5 -0.307113 -2.98122 0
M  V30 13020 H 1211.06 -0.309981 -1.58905 0
M  V30 13021 H 1213.05 2.18848 -3.40423 0
M  V30 13022 H 1211.62 2.06205 -2.34943 0
M  V30 13023 H 1210.84 0.151124 -3.9391 0
M  V30 13024 H 1212.13 0.661326 -5.04484 0
M  V30 13025 H 1211.53 3.74011 -4.2442 0
M  V30 13026 H 1210.09 4.0135 -5.13577 0
M  V30 13027 N 1213.52 1.56172 -0.211661 0
M  V30 13028 C 1214.47 2.19849 0.702515 0
M  V30 13029 C 1215.44 1.15091 1.19763 0
M  V30 13030 O 1216.62 1.43408 1.25852 0
M  V30 13031 C 1213.76 2.87468 1.90935 0
M  V30 13032 C 1212.88 4.06794 1.45406 0
M  V30 13033 C 1212.01 4.62224 2.61769 0
M  V30 13034 C 1211.05 5.73872 2.12926 0
M  V30 13035 N 1210.19 6.23635 3.22526 0
M  V30 13036 H 1215.03 2.97608 0.152777 0
M  V30 13037 H 1212.56 1.46962 0.0636596 0
M  V30 13038 H 1214.52 3.24851 2.61777 0
M  V30 13039 H 1213.15 2.12244 2.43213 0
M  V30 13040 H 1212.2 3.74962 0.640907 0
M  V30 13041 H 1213.52 4.87497 1.05584 0
M  V30 13042 H 1212.67 5.01999 3.40709 0
M  V30 13043 H 1211.41 3.80662 3.04873 0
M  V30 13044 H 1210.41 5.33609 1.32445 0
M  V30 13045 H 1211.64 6.57262 1.70833 0
M  V30 13046 H 1209.58 5.44991 3.65131 0
M  V30 13047 H 1209.5 6.99435 2.86926 0
M  V30 13048 H 1210.77 6.68066 4.01631 0
M  V30 13049 N 1215 -0.0618163 1.57479 0
M  V30 13050 C 1215.91 -1.09006 2.07738 0
M  V30 13051 C 1216.92 -1.4176 1.00896 0
M  V30 13052 O 1218.1 -1.51737 1.32431 0
M  V30 13053 C 1215.17 -2.38153 2.5196 0
M  V30 13054 C 1214.23 -2.12279 3.73143 0
M  V30 13055 C 1213.46 -3.35269 4.15248 0
M  V30 13056 O 1213.68 -4.44758 3.57137 0
M  V30 13057 O 1212.62 -3.22894 5.0796 0
M  V30 13058 H 1216.44 -0.693059 2.95686 0
M  V30 13059 H 1214.03 -0.276628 1.46817 0
M  V30 13060 H 1215.91 -3.14139 2.80882 0
M  V30 13061 H 1214.58 -2.77213 1.67137 0
M  V30 13062 H 1213.49 -1.33966 3.49291 0
M  V30 13063 H 1214.82 -1.78094 4.5885 0
M  V30 13064 N 1216.48 -1.54033 -0.333429 0
M  V30 13065 C 1217.89 -1.63107 -0.908455 0
M  V30 13066 C 1218.24 -0.518823 -1.89216 0
M  V30 13067 O 1217.36 0.34985 -2.13553 0
M  V30 13068 C 1217.96 -2.95657 -1.65447 0
M  V30 13069 C 1216.52 -3.0696 -2.17836 0
M  V30 13070 C 1215.66 -2.58617 -1.00063 0
M  V30 13071 H 1218.62 -1.58309 -0.11128 0
M  V30 13072 H 1218.64 -2.85263 -2.51804 0
M  V30 13073 H 1218.15 -3.76588 -0.938263 0
M  V30 13074 H 1216.25 -2.30683 -2.92602 0
M  V30 13075 H 1216.36 -4.12599 -2.43513 0
M  V30 13076 H 1214.73 -2.1427 -1.37697 0
M  V30 13077 H 1215.51 -3.41996 -0.298901 0
M  V30 13078 N 1217.95 0.594978 -1.45938 0
M  V30 13079 C 1219.37 1.17703 -1.44924 0
M  V30 13080 C 1219.72 1.9534 -0.183522 0
M  V30 13081 O 1218.84 2.04276 0.714163 0
M  V30 13082 C 1219.44 2.14119 -2.62561 0
M  V30 13083 C 1218 2.67674 -2.64627 0
M  V30 13084 C 1217.14 1.43312 -2.37397 0
M  V30 13085 H 1220.09 0.383583 -1.53995 0
M  V30 13086 H 1220.11 2.97374 -2.3738 0
M  V30 13087 H 1219.63 1.57586 -3.54667 0
M  V30 13088 H 1217.73 3.28111 -1.76562 0
M  V30 13089 H 1217.84 3.11246 -3.64229 0
M  V30 13090 H 1216.2 1.72702 -1.87206 0
M  V30 13091 H 1216.99 0.886276 -3.31663 0
M  V30 13092 N 1219.43 1.33438 0.838571 0
M  V30 13093 C 1220.68 1.24912 1.59384 0
M  V30 13094 C 1221.01 -0.185017 1.93618 0
M  V30 13095 O 1220.26 -1.14229 1.58904 0
M  V30 13096 C 1220.56 2.07002 2.9135 0
M  V30 13097 C 1220.23 3.5619 2.76477 0
M  V30 13098 C 1218.89 3.96862 2.72129 0
M  V30 13099 C 1221.24 4.5099 2.61261 0
M  V30 13100 C 1218.57 5.30551 2.50464 0
M  V30 13101 C 1220.92 5.84841 2.4113 0
M  V30 13102 C 1219.59 6.24696 2.35183 0
M  V30 13103 H 1218.86 0.457084 0.583228 0
M  V30 13104 H 1221.5 1.65027 0.971506 0
M  V30 13105 H 1219.81 1.59665 3.57791 0
M  V30 13106 H 1221.5 1.97762 3.48843 0
M  V30 13107 H 1218.09 3.23896 2.80695 0
M  V30 13108 H 1222.28 4.20476 2.63655 0
M  V30 13109 H 1217.53 5.60468 2.44307 0
M  V30 13110 H 1221.71 6.57901 2.2834 0
M  V30 13111 H 1219.34 7.28225 2.18156 0
M  V30 13112 N 1220.91 -1.05686 1.16912 0
M  V30 13113 C 1221.84 -2.15268 0.904532 0
M  V30 13114 C 1222.82 -1.69424 -0.151548 0
M  V30 13115 O 1224.01 -1.942 -0.00235371 0
M  V30 13116 C 1221.14 -3.44853 0.411581 0
M  V30 13117 C 1220.09 -4.04237 1.40628 0
M  V30 13118 C 1219.42 -5.29105 0.771479 0
M  V30 13119 C 1220.72 -4.42303 2.77787 0
M  V30 13120 H 1222.41 -2.37659 1.82094 0
M  V30 13121 H 1219.96 -1.14217 0.876947 0
M  V30 13122 H 1221.91 -4.20857 0.213929 0
M  V30 13123 H 1220.63 -3.22099 -0.540352 0
M  V30 13124 H 1219.29 -3.30297 1.59058 0
M  V30 13125 H 1218.94 -5.02652 -0.187133 0
M  V30 13126 H 1218.64 -5.69797 1.43545 0
M  V30 13127 H 1220.16 -6.07801 0.583988 0
M  V30 13128 H 1221.58 -5.09362 2.63103 0
M  V30 13129 H 1219.98 -4.93997 3.40716 0
M  V30 13130 H 1221.05 -3.52877 3.32575 0
M  V30 13131 N 1222.39 -0.968567 -1.24324 0
M  V30 13132 C 1223.63 -0.641458 -1.9302 0
M  V30 13133 C 1223.99 0.814553 -1.74307 0
M  V30 13134 O 1223.28 1.57848 -1.08603 0
M  V30 13135 C 1223.48 -0.952762 -3.44467 0
M  V30 13136 C 1223.31 -2.43748 -3.77911 0
M  V30 13137 C 1222.08 -3.09746 -3.99231 0
M  V30 13138 C 1224.27 -3.4176 -3.84324 0
M  V30 13139 N 1222.26 -4.47947 -4.19782 0
M  V30 13140 C 1223.63 -4.65321 -4.09728 0
M  V30 13141 C 1225.68 -3.36406 -3.67064 0
M  V30 13142 C 1224.38 -5.84186 -4.19665 0
M  V30 13143 C 1226.41 -4.54624 -3.78248 0
M  V30 13144 C 1225.77 -5.76976 -4.04077 0
M  V30 13145 H 1221.87 -0.285584 -0.727987 0
M  V30 13146 H 1224.46 -1.2436 -1.49808 0
M  V30 13147 H 1222.63 -0.379421 -3.86542 0
M  V30 13148 H 1224.36 -0.584137 -4.00462 0
M  V30 13149 H 1221.11 -2.60274 -3.95669 0
M  V30 13150 H 1221.54 -5.19559 -4.34036 0
M  V30 13151 H 1226.18 -2.42847 -3.461 0
M  V30 13152 H 1223.9 -6.78172 -4.3944 0
M  V30 13153 H 1227.48 -4.52043 -3.66262 0
M  V30 13154 H 1226.36 -6.66925 -4.1253 0
M  V30 13155 N 1223.87 1.39211 -0.738786 0
M  V30 13156 C 1224.8 2.28145 -0.0499733 0
M  V30 13157 C 1225.78 1.44592 0.743776 0
M  V30 13158 O 1226.96 1.73978 0.725536 0
M  V30 13159 C 1224.09 3.255 0.93634 0
M  V30 13160 C 1223.13 4.25876 0.230621 0
M  V30 13161 S 1223.97 5.24942 -1.0581 0
M  V30 13162 C 1225.12 6.25856 -0.0744844 0
M  V30 13163 H 1225.36 2.86218 -0.804163 0
M  V30 13164 H 1222.89 1.44991 -0.53074 0
M  V30 13165 H 1224.85 3.82109 1.50011 0
M  V30 13166 H 1223.51 2.66439 1.66339 0
M  V30 13167 H 1222.7 4.94438 0.977075 0
M  V30 13168 H 1222.3 3.73087 -0.261216 0
M  V30 13169 H 1224.6 6.73172 0.764616 0
M  V30 13170 H 1225.54 7.04354 -0.727354 0
M  V30 13171 H 1225.95 5.63704 0.299605 0
M  V30 13172 N 1225.34 0.486708 1.49896 0
M  V30 13173 C 1226.59 -0.0627279 2.02003 0
M  V30 13174 C 1226.91 -1.38799 1.36967 0
M  V30 13175 O 1226.18 -1.88868 0.520173 0
M  V30 13176 H 1224.76 -0.0261718 0.746541 0
M  V30 13177 H 1227.43 0.640692 1.84068 0
M  V30 13178 H 1226.52 -0.202856 3.1144 0
M  V30 13179 N 1226.82 -1.56058 0.219941 0
M  V30 13180 C 1228.05 -2.02358 -0.416497 0
M  V30 13181 C 1228.46 -1.09903 -1.54007 0
M  V30 13182 O 1227.8 -0.100635 -1.83424 0
M  V30 13183 C 1227.87 -3.45 -1.01072 0
M  V30 13184 C 1227.53 -4.56994 -0.0227891 0
M  V30 13185 C 1228.53 -5.14061 0.776997 0
M  V30 13186 C 1226.21 -5.02209 0.0954981 0
M  V30 13187 C 1228.21 -6.14813 1.68179 0
M  V30 13188 C 1225.89 -6.02799 1.00383 0
M  V30 13189 C 1226.89 -6.58977 1.79552 0
M  V30 13190 O 1226.58 -7.57608 2.68858 0
M  V30 13191 H 1226.31 -0.667581 -0.106355 0
M  V30 13192 H 1228.87 -2.02677 0.333348 0
M  V30 13193 H 1227.1 -3.41745 -1.80962 0
M  V30 13194 H 1228.78 -3.74958 -1.55439 0
M  V30 13195 H 1229.55 -4.79979 0.696053 0
M  V30 13196 H 1225.43 -4.58164 -0.510599 0
M  V30 13197 H 1228.97 -6.58588 2.30017 0
M  V30 13198 H 1224.87 -6.36302 1.08579 0
M  V30 13199 H 1225.64 -7.75124 2.62915 0
M  V30 13200 N 1228.3 0.053464 -1.57509 0
M  V30 13201 C 1229.21 1.07902 -2.08313 0
M  V30 13202 C 1230.23 1.41223 -1.01647 0
M  V30 13203 O 1231.4 1.51032 -1.33233 0
M  V30 13204 C 1228.47 2.36813 -2.5322 0
M  V30 13205 C 1227.53 2.10297 -3.74264 0
M  V30 13206 C 1226.76 3.33062 -4.1702 0
M  V30 13207 O 1226.99 4.42857 -3.59491 0
M  V30 13208 O 1225.92 3.20195 -5.09665 0
M  V30 13209 H 1229.75 0.677368 -2.9605 0
M  V30 13210 H 1227.33 0.268838 -1.46961 0
M  V30 13211 H 1229.21 3.12645 -2.82544 0
M  V30 13212 H 1227.89 2.76323 -1.68605 0
M  V30 13213 H 1226.79 1.32111 -3.49996 0
M  V30 13214 H 1228.13 1.75658 -4.59788 0
M  V30 13215 N 1229.78 1.54207 0.325255 0
M  V30 13216 C 1230.71 1.86467 1.40543 0
M  V30 13217 C 1231.69 0.721324 1.54048 0
M  V30 13218 O 1232.88 0.974905 1.67956 0
M  V30 13219 C 1230.01 2.09052 2.77335 0
M  V30 13220 C 1228.96 3.24893 2.78619 0
M  V30 13221 C 1228.29 3.32846 4.1847 0
M  V30 13222 C 1229.59 4.62582 2.42518 0
M  V30 13223 H 1231.28 2.76932 1.13794 0
M  V30 13224 H 1228.83 1.33248 0.545971 0
M  V30 13225 H 1230.78 2.30204 3.52964 0
M  V30 13226 H 1229.5 1.15335 3.05558 0
M  V30 13227 H 1228.16 3.03625 2.05444 0
M  V30 13228 H 1227.81 2.3669 4.43832 0
M  V30 13229 H 1227.51 4.10701 4.20237 0
M  V30 13230 H 1229.03 3.56231 4.95915 0
M  V30 13231 H 1230.45 4.83627 3.07861 0
M  V30 13232 H 1228.84 5.42974 2.55538 0
M  V30 13233 H 1229.91 4.64946 1.3767 0
M  V30 13234 N 1231.26 -0.58723 1.46251 0
M  V30 13235 C 1232.21 -1.69141 1.5289 0
M  V30 13236 C 1233.19 -1.56096 0.39024 0
M  V30 13237 O 1234.38 -1.65087 0.638373 0
M  V30 13238 C 1231.51 -3.07922 1.51785 0
M  V30 13239 C 1230.6 -3.2628 2.70928 0
M  V30 13240 N 1230.99 -3.14815 3.95885 0
M  V30 13241 C 1229.29 -3.57207 2.67056 0
M  V30 13242 C 1229.99 -3.35055 4.75514 0
M  V30 13243 N 1228.96 -3.59999 4.0731 0
M  V30 13244 H 1232.77 -1.588 2.47305 0
M  V30 13245 H 1230.28 -0.791124 1.41827 0
M  V30 13246 H 1232.28 -3.87164 1.54628 0
M  V30 13247 H 1230.94 -3.19397 0.584435 0
M  V30 13248 H 1231.95 -2.92778 4.27202 0
M  V30 13249 H 1228.63 -3.75394 1.82717 0
M  V30 13250 H 1230.02 -3.31412 5.84479 0
M  V30 13251 N 1232.74 -1.33881 -0.831482 0
M  V30 13252 C 1234.15 -1.23112 -1.40358 0
M  V30 13253 C 1234.5 0.146944 -1.95649 0
M  V30 13254 O 1233.62 1.04689 -1.89391 0
M  V30 13255 C 1234.22 -2.22899 -2.5515 0
M  V30 13256 C 1232.78 -2.15946 -3.08292 0
M  V30 13257 C 1231.92 -2.09975 -1.81124 0
M  V30 13258 H 1234.87 -1.45372 -0.63661 0
M  V30 13259 H 1234.9 -1.841 -3.32997 0
M  V30 13260 H 1234.41 -3.23186 -2.14878 0
M  V30 13261 H 1232.51 -1.18987 -3.53091 0
M  V30 13262 H 1232.62 -3.06822 -3.67964 0
M  V30 13263 H 1230.99 -1.55564 -2.01673 0
M  V30 13264 H 1231.77 -3.12082 -1.43037 0
M  V30 13265 N 1234.21 1.05064 -1.1747 0
M  V30 13266 C 1235.49 1.74999 -0.873776 0
M  V30 13267 C 1235.87 2.01615 0.625676 0
M  V30 13268 O 1235.22 1.65324 1.57734 0
M  V30 13269 C 1235.43 3.04231 -1.7101 0
M  V30 13270 C 1236.78 3.78157 -1.93087 0
M  V30 13271 O 1237.8 3.14104 -1.6798 0
M  V30 13272 O 1236.66 4.93255 -2.3529 0
M  V30 13273 H 1233.75 0.761042 -0.323641 0
M  V30 13274 H 1236.3 1.1122 -1.28172 0
M  V30 13275 H 1235.07 2.80621 -2.72704 0
M  V30 13276 H 1234.69 3.75746 -1.30002 0
M  V30 13277 N 1235.69 0.975146 1.23809 0
M  V30 13278 C 1236.64 0.510761 2.25077 0
M  V30 13279 C 1237.61 -0.447605 1.59955 0
M  V30 13280 O 1238.79 -0.356318 1.87443 0
M  V30 13281 C 1235.93 -0.185755 3.446 0
M  V30 13282 C 1235.05 0.812254 4.24295 0
M  V30 13283 C 1234.18 0.0910835 5.31122 0
M  V30 13284 C 1233.22 1.07866 6.02521 0
M  V30 13285 N 1232.36 0.386995 7.01033 0
M  V30 13286 H 1237.2 1.37913 2.64166 0
M  V30 13287 H 1234.73 0.691184 1.2985 0
M  V30 13288 H 1236.69 -0.606341 4.1277 0
M  V30 13289 H 1235.32 -1.01803 3.06327 0
M  V30 13290 H 1234.37 1.35125 3.55592 0
M  V30 13291 H 1235.69 1.56502 4.73612 0
M  V30 13292 H 1234.84 -0.387129 6.05464 0
M  V30 13293 H 1233.58 -0.694324 4.82732 0
M  V30 13294 H 1232.58 1.56767 5.26976 0
M  V30 13295 H 1233.81 1.86464 6.52999 0
M  V30 13296 H 1231.76 -0.3793 6.54903 0
M  V30 13297 H 1231.67 1.0785 7.48268 0
M  V30 13298 H 1232.94 -0.0690036 7.79469 0
M  V30 13299 N 1237.17 -1.38817 0.746158 0
M  V30 13300 C 1238.42 -2.01049 0.308389 0
M  V30 13301 C 1238.77 -1.58162 -1.09556 0
M  V30 13302 O 1238.06 -0.805685 -1.73837 0
M  V30 13303 C 1238.26 -3.55571 0.361086 0
M  V30 13304 C 1238.09 -4.13461 1.76861 0
M  V30 13305 C 1236.86 -4.45556 2.38344 0
M  V30 13306 C 1239.05 -4.36233 2.72406 0
M  V30 13307 N 1237.04 -4.89011 3.71135 0
M  V30 13308 C 1238.41 -4.82016 3.8995 0
M  V30 13309 C 1240.46 -4.1832 2.70024 0
M  V30 13310 C 1239.17 -5.11763 5.05462 0
M  V30 13311 C 1241.19 -4.49187 3.84688 0
M  V30 13312 C 1240.55 -4.95186 5.00969 0
M  V30 13313 H 1236.65 -0.765593 0.159346 0
M  V30 13314 H 1239.24 -1.68556 0.97452 0
M  V30 13315 H 1237.41 -3.87427 -0.274742 0
M  V30 13316 H 1239.14 -4.04585 -0.0962937 0
M  V30 13317 H 1235.89 -4.33741 1.90172 0
M  V30 13318 H 1236.32 -5.15082 4.39339 0
M  V30 13319 H 1240.96 -3.8195 1.81312 0
M  V30 13320 H 1238.68 -5.47032 5.94795 0
M  V30 13321 H 1242.26 -4.36938 3.84156 0
M  V30 13322 H 1241.14 -5.18616 5.88224 0
M  V30 13323 N 1238.65 -0.49465 -1.49636 0
M  V30 13324 C 1239.88 0.0491129 -2.06842 0
M  V30 13325 C 1240.29 1.31395 -1.35576 0
M  V30 13326 O 1239.65 1.7731 -0.432135 0
M  V30 13327 C 1239.7 0.313171 -3.60141 0
M  V30 13328 O 1239.42 -0.90152 -4.28724 0
M  V30 13329 C 1240.92 0.901284 -4.34041 0
M  V30 13330 H 1238.14 -0.0176186 -0.670769 0
M  V30 13331 H 1240.68 -0.690188 -1.92501 0
M  V30 13332 H 1238.84 1.00244 -3.74206 0
M  V30 13333 H 1239.25 -0.660477 -5.20325 0
M  V30 13334 H 1240.73 1.03567 -5.42197 0
M  V30 13335 H 1241.2 1.89746 -3.96097 0
M  V30 13336 H 1241.81 0.249677 -4.24566 0
M  V30 13337 N 1240.13 1.55939 -0.228214 0
M  V30 13338 C 1241.37 1.97652 0.402067 0
M  V30 13339 C 1241.69 1.11911 1.60422 0
M  V30 13340 O 1242.89 1.43552 2.30445 0
M  V30 13341 C 1241.35 3.51638 0.766724 0
M  V30 13342 C 1240.96 4.46092 -0.412991 0
M  V30 13343 C 1242.7 4.02049 1.36224 0
M  V30 13344 C 1240.61 5.91394 -0.0255281 0
M  V30 13345 H 1239.54 0.738107 0.153994 0
M  V30 13346 H 1242.19 1.8059 -0.32548 0
M  V30 13347 H 1240.57 3.64325 1.55188 0
M  V30 13348 H 1241.75 4.45156 -1.19049 0
M  V30 13349 H 1240.06 4.0606 -0.92218 0
M  V30 13350 H 1242.66 5.08111 1.66514 0
M  V30 13351 H 1243 3.48292 2.28032 0
M  V30 13352 H 1243.53 3.92612 0.640378 0
M  V30 13353 H 1240.27 6.49149 -0.910269 0
M  V30 13354 H 1239.79 5.95509 0.716149 0
M  V30 13355 H 1241.47 6.4577 0.398839 0
M  V30 13356 N 1241.6 -0.0451101 1.57535 0
M  V30 13357 C 1242.54 -1.07792 2.02271 0
M  V30 13358 C 1243.55 -1.33423 0.932854 0
M  V30 13359 O 1244.74 -1.31193 1.2104 0
M  V30 13360 C 1241.84 -2.42314 2.36933 0
M  V30 13361 C 1241.01 -2.36266 3.68099 0
M  V30 13362 C 1240.07 -3.53108 3.9013 0
M  V30 13363 O 1239.1 -3.33327 4.61391 0
M  V30 13364 N 1240.3 -4.74415 3.3453 0
M  V30 13365 H 1243.06 -0.696744 2.91489 0
M  V30 13366 H 1240.62 -0.233336 1.6021 0
M  V30 13367 H 1242.62 -3.19171 2.48821 0
M  V30 13368 H 1241.19 -2.72335 1.53468 0
M  V30 13369 H 1240.41 -1.44615 3.66715 0
M  V30 13370 H 1241.69 -2.29351 4.54175 0
M  V30 13371 H 1241.09 -4.93388 2.76739 0
M  V30 13372 H 1239.65 -5.48692 3.51825 0
M  V30 13373 N 1243.08 -1.54377 -0.317073 0
M  V30 13374 C 1244.49 -1.64062 -0.891105 0
M  V30 13375 C 1244.84 -0.538863 -1.88655 0
M  V30 13376 O 1243.97 0.32718 -2.13912 0
M  V30 13377 C 1244.56 -2.97395 -1.62302 0
M  V30 13378 C 1243.12 -3.09253 -2.14568 0
M  V30 13379 C 1242.27 -2.59664 -0.973146 0
M  V30 13380 H 1245.22 -1.58418 -0.0944829 0
M  V30 13381 H 1245.24 -2.87918 -2.48764 0
M  V30 13382 H 1244.75 -3.77562 -0.898268 0
M  V30 13383 H 1242.86 -2.33774 -2.90139 0
M  V30 13384 H 1242.97 -4.15159 -2.39123 0
M  V30 13385 H 1241.33 -2.15719 -1.35416 0
M  V30 13386 H 1242.12 -3.42294 -0.262611 0
M  V30 13387 N 1244.56 0.579466 -1.4656 0
M  V30 13388 C 1245.81 1.33379 -1.51304 0
M  V30 13389 C 1246.12 1.94855 -0.170507 0
M  V30 13390 O 1247.33 2.71331 -0.0957704 0
M  V30 13391 C 1245.78 2.41748 -2.66619 0
M  V30 13392 C 1245.39 1.8656 -4.07307 0
M  V30 13393 C 1247.14 3.18502 -2.80636 0
M  V30 13394 C 1245.04 2.92578 -5.13957 0
M  V30 13395 H 1243.97 0.501422 -0.56311 0
M  V30 13396 H 1246.62 0.618025 -1.72779 0
M  V30 13397 H 1245.01 3.16138 -2.3848 0
M  V30 13398 H 1246.18 1.18692 -4.45252 0
M  V30 13399 H 1244.5 1.22464 -3.97984 0
M  V30 13400 H 1247.09 3.9763 -3.57483 0
M  V30 13401 H 1247.44 3.71295 -1.8827 0
M  V30 13402 H 1247.97 2.51219 -3.08437 0
M  V30 13403 H 1244.71 2.44668 -6.08126 0
M  V30 13404 H 1244.23 3.58926 -4.80554 0
M  V30 13405 H 1245.91 3.56471 -5.39942 0
M  V30 13406 N 1246.04 1.3432 0.824371 0
M  V30 13407 C 1247.28 1.26783 1.58284 0
M  V30 13408 C 1247.62 -0.162282 1.93521 0
M  V30 13409 O 1246.89 -1.1073 1.59903 0
M  V30 13410 C 1247.18 2.15725 2.88331 0
M  V30 13411 C 1247.03 3.67266 2.59684 0
M  V30 13412 C 1248.35 2.04141 3.8989 0
M  V30 13413 H 1245.47 0.461893 0.574303 0
M  V30 13414 H 1248.11 1.64558 0.949769 0
M  V30 13415 H 1246.26 1.83639 3.42358 0
M  V30 13416 H 1247.93 4.09711 2.11978 0
M  V30 13417 H 1246.17 3.88426 1.93151 0
M  V30 13418 H 1246.84 4.24863 3.52414 0
M  V30 13419 H 1249.32 2.3231 3.45212 0
M  V30 13420 H 1248.2 2.68601 4.7869 0
M  V30 13421 H 1248.46 1.01795 4.30221 0
M  V30 13422 N 1247.52 -1.0444 1.18026 0
M  V30 13423 C 1248.45 -2.14297 0.927314 0
M  V30 13424 C 1249.43 -1.69575 -0.13357 0
M  V30 13425 O 1250.61 -1.94191 0.0182439 0
M  V30 13426 C 1247.74 -3.44397 0.448134 0
M  V30 13427 C 1246.7 -4.02723 1.44907 0
M  V30 13428 C 1246.02 -5.28257 0.827555 0
M  V30 13429 C 1247.32 -4.39331 2.82463 0
M  V30 13430 H 1249.02 -2.35715 1.84605 0
M  V30 13431 H 1246.56 -1.13281 0.889012 0
M  V30 13432 H 1248.52 -4.20606 0.258554 0
M  V30 13433 H 1247.24 -3.22654 -0.506159 0
M  V30 13434 H 1245.9 -3.28591 1.62552 0
M  V30 13435 H 1245.55 -5.02822 -0.13381 0
M  V30 13436 H 1245.25 -5.68242 1.49581 0
M  V30 13437 H 1246.77 -6.07147 0.64842 0
M  V30 13438 H 1248.18 -5.06543 2.68491 0
M  V30 13439 H 1246.58 -4.90355 3.45936 0
M  V30 13440 H 1247.65 -3.4933 3.36299 0
M  V30 13441 N 1248.99 -0.981699 -1.2329 0
M  V30 13442 C 1250.41 -0.688087 -1.73558 0
M  V30 13443 C 1250.76 0.795633 -1.79344 0
M  V30 13444 O 1249.88 1.62227 -1.43218 0
M  V30 13445 C 1250.48 -1.24235 -3.152 0
M  V30 13446 C 1249.04 -0.998356 -3.62918 0
M  V30 13447 C 1248.18 -1.3693 -2.41134 0
M  V30 13448 H 1251.13 -1.15539 -1.08795 0
M  V30 13449 H 1251.15 -0.61541 -3.7549 0
M  V30 13450 H 1250.67 -2.32223 -3.10957 0
M  V30 13451 H 1248.77 0.0653847 -3.72543 0
M  V30 13452 H 1248.88 -1.65385 -4.49649 0
M  V30 13453 H 1247.24 -0.787773 -2.42211 0
M  V30 13454 H 1248.03 -2.45898 -2.39561 0
M  V30 13455 N 1250.47 1.3842 -0.753509 0
M  V30 13456 C 1251.38 2.34252 -0.127811 0
M  V30 13457 C 1252.4 1.59266 0.700743 0
M  V30 13458 O 1253.57 1.9146 0.624914 0
M  V30 13459 C 1250.64 3.38382 0.754886 0
M  V30 13460 C 1249.7 4.2921 -0.0880312 0
M  V30 13461 C 1248.93 5.28367 0.75263 0
M  V30 13462 O 1249.16 5.34537 1.99064 0
M  V30 13463 O 1248.09 6.01656 0.171475 0
M  V30 13464 H 1251.92 2.89454 -0.91925 0
M  V30 13465 H 1249.5 1.40265 -0.514404 0
M  V30 13466 H 1251.38 4.02141 1.25938 0
M  V30 13467 H 1250.06 2.85536 1.52482 0
M  V30 13468 H 1248.97 3.68611 -0.638468 0
M  V30 13469 H 1250.3 4.85311 -0.82062 0
M  V30 13470 N 1251.95 0.502579 1.49372 0
M  V30 13471 C 1252.9 -0.275004 2.29156 0
M  V30 13472 C 1253.87 -0.95892 1.35624 0
M  V30 13473 O 1255.05 -0.965276 1.64581 0
M  V30 13474 C 1252.19 -1.33255 3.18335 0
M  V30 13475 C 1251.31 -0.660248 4.26925 0
M  V30 13476 C 1250.44 -1.69837 5.03318 0
M  V30 13477 C 1249.48 -1.00802 6.03743 0
M  V30 13478 N 1248.62 -1.99042 6.73295 0
M  V30 13479 H 1253.46 0.411599 2.95144 0
M  V30 13480 H 1250.99 0.214824 1.45523 0
M  V30 13481 H 1252.95 -1.95769 3.68416 0
M  V30 13482 H 1251.58 -1.98789 2.54328 0
M  V30 13483 H 1250.63 0.0782181 3.8032 0
M  V30 13484 H 1251.95 -0.11689 4.98663 0
M  V30 13485 H 1251.1 -2.39852 5.57275 0
M  V30 13486 H 1249.84 -2.27558 4.31357 0
M  V30 13487 H 1248.84 -0.293654 5.49015 0
M  V30 13488 H 1250.07 -0.437285 6.77691 0
M  V30 13489 H 1248.01 -2.55722 6.04104 0
M  V30 13490 H 1247.93 -1.49776 7.41015 0
M  V30 13491 H 1249.2 -2.6834 7.31856 0
M  V30 13492 N 1253.43 -1.55816 0.23648 0
M  V30 13493 C 1254.71 -1.90565 -0.440933 0
M  V30 13494 C 1255.09 -1.15585 -1.76645 0
M  V30 13495 O 1254.43 -0.269949 -2.269 0
M  V30 13496 C 1254.64 -3.43462 -0.61925 0
M  V30 13497 C 1255.99 -4.14516 -0.91989 0
M  V30 13498 O 1257.02 -3.49144 -0.705496 0
M  V30 13499 O 1255.87 -5.3013 -1.32759 0
M  V30 13500 H 1252.97 -0.79285 -0.235199 0
M  V30 13501 H 1255.51 -1.67378 0.279774 0
M  V30 13502 H 1254.29 -3.90029 0.315124 0
M  V30 13503 H 1253.91 -3.72478 -1.39089 0
M  V30 13504 N 1254.91 0.036755 -1.57557 0
M  V30 13505 C 1256.13 0.744813 -1.93565 0
M  V30 13506 C 1256.56 1.68508 -0.835863 0
M  V30 13507 O 1255.91 1.80091 0.208986 0
M  V30 13508 C 1255.96 1.48461 -3.28621 0
M  V30 13509 O 1255.07 2.59739 -3.20327 0
M  V30 13510 H 1254.41 0.200866 -0.632889 0
M  V30 13511 H 1256.94 -0.00547543 -2.04599 0
M  V30 13512 H 1256.95 1.85622 -3.63329 0
M  V30 13513 H 1255.62 0.794953 -4.08232 0
M  V30 13514 H 1254.2 2.25176 -2.97237 0
M  V30 13515 N 1256.39 1.54543 0.308881 0
M  V30 13516 C 1257.63 1.74639 1.04273 0
M  V30 13517 C 1257.99 0.521584 1.85195 0
M  V30 13518 O 1257.28 -0.486029 1.85333 0
M  V30 13519 C 1257.47 2.97124 1.98626 0
M  V30 13520 C 1257.3 4.31399 1.26983 0
M  V30 13521 C 1256.07 4.95301 1.00025 0
M  V30 13522 C 1258.27 5.09808 0.67827 0
M  V30 13523 N 1256.25 6.13377 0.253269 0
M  V30 13524 C 1257.62 6.19967 0.0636574 0
M  V30 13525 C 1259.68 4.9448 0.582538 0
M  V30 13526 C 1258.38 7.1647 -0.637416 0
M  V30 13527 C 1260.41 5.91307 -0.104864 0
M  V30 13528 C 1259.77 7.00829 -0.70836 0
M  V30 13529 H 1255.87 0.691718 0.36476 0
M  V30 13530 H 1258.45 1.92015 0.322233 0
M  V30 13531 H 1256.62 2.81187 2.67934 0
M  V30 13532 H 1258.36 3.05781 2.65104 0
M  V30 13533 H 1255.11 4.55512 1.29638 0
M  V30 13534 H 1255.53 6.76916 -0.106505 0
M  V30 13535 H 1260.18 4.0994 1.03483 0
M  V30 13536 H 1257.89 8.00558 -1.1015 0
M  V30 13537 H 1261.48 5.81525 -0.178774 0
M  V30 13538 H 1260.36 7.74465 -1.23182 0
M  V30 13539 N 1257.86 -0.571685 1.46866 0
M  V30 13540 C 1259.09 -1.35524 1.56336 0
M  V30 13541 C 1259.51 -1.87647 0.208359 0
M  V30 13542 O 1258.86 -1.64219 -0.796136 0
M  V30 13543 C 1258.91 -2.53518 2.57703 0
M  V30 13544 O 1258.64 -2.03552 3.87941 0
M  V30 13545 C 1260.14 -3.45925 2.77219 0
M  V30 13546 H 1257.36 -0.41363 0.528348 0
M  V30 13547 H 1259.9 -0.693943 1.92366 0
M  V30 13548 H 1258.06 -3.15615 2.24647 0
M  V30 13549 H 1258.47 -2.80476 4.43208 0
M  V30 13550 H 1259.94 -4.2517 3.52043 0
M  V30 13551 H 1260.42 -3.98559 1.8452 0
M  V30 13552 H 1261.03 -2.89655 3.11416 0
M  V30 13553 N 1259.34 -1.34755 -0.817236 0
M  V30 13554 C 1260.59 -1.2762 -1.5761 0
M  V30 13555 C 1260.92 0.152017 -1.93604 0
M  V30 13556 O 1260.2 1.09881 -1.60488 0
M  V30 13557 C 1260.48 -2.17251 -2.87183 0
M  V30 13558 C 1260.33 -3.68638 -2.57733 0
M  V30 13559 C 1261.65 -2.06206 -3.88802 0
M  V30 13560 H 1258.77 -0.464933 -0.571845 0
M  V30 13561 H 1261.41 -1.6506 -0.941028 0
M  V30 13562 H 1259.56 -1.85452 -3.41379 0
M  V30 13563 H 1261.23 -4.10829 -2.09802 0
M  V30 13564 H 1259.48 -3.89445 -1.91089 0
M  V30 13565 H 1260.15 -4.26726 -3.50156 0
M  V30 13566 H 1262.62 -2.34137 -3.43975 0
M  V30 13567 H 1261.5 -2.71136 -4.77259 0
M  V30 13568 H 1261.76 -1.04075 -4.29675 0
M  V30 13569 N 1260.82 1.03812 -1.18578 0
M  V30 13570 C 1261.77 2.13994 -0.911563 0
M  V30 13571 C 1262.76 1.68907 0.129131 0
M  V30 13572 O 1263.97 1.7999 -0.0192557 0
M  V30 13573 H 1260.34 0.698996 -0.277324 0
M  V30 13574 H 1262.31 2.34318 -1.84763 0
M  V30 13575 C 1261.06 3.44689 -0.456591 0
M  V30 13576 H 1260.39 3.79793 -1.2489 0
M  V30 13577 H 1261.83 4.22911 -0.303738 0
M  V30 13578 C 1260.28 3.26568 0.827961 0
M  V30 13579 O 1260.81 3.54376 1.89158 0
M  V30 13580 N 1259.02 2.79893 0.781567 0
M  V30 13581 H 1258.57 2.57462 -0.0842145 0
M  V30 13582 H 1258.53 2.68148 1.64146 0
M  V30 13583 N 1262.3 0.988223 1.22768 0
M  V30 13584 C 1263.57 0.577578 1.86878 0
M  V30 13585 C 1263.95 -0.945197 1.88757 0
M  V30 13586 O 1263.3 -1.82519 1.37474 0
M  V30 13587 C 1263.51 1.19263 3.2799 0
M  V30 13588 C 1264.86 1.29024 4.04522 0
M  V30 13589 O 1265.88 1.14667 3.37239 0
M  V30 13590 O 1264.74 1.51949 5.24951 0
M  V30 13591 H 1261.84 0.195579 0.803541 0
M  V30 13592 H 1264.38 1.0838 1.30582 0
M  V30 13593 H 1263.16 2.23442 3.21231 0
M  V30 13594 H 1262.78 0.671706 3.91885 0
M  V30 13595 N 1263.78 -1.38018 0.760839 0
M  V30 13596 C 1265.02 -1.99194 0.316984 0
M  V30 13597 C 1265.34 -1.61083 -1.10958 0
M  V30 13598 O 1266.54 -2.15281 -1.65428 0
M  V30 13599 C 1265 -3.56185 0.515792 0
M  V30 13600 C 1264.61 -4.03242 1.95191 0
M  V30 13601 C 1266.35 -4.24285 0.135013 0
M  V30 13602 C 1264.26 -5.52902 2.0989 0
M  V30 13603 H 1263.19 -0.745214 0.114771 0
M  V30 13604 H 1265.84 -1.5769 0.938415 0
M  V30 13605 H 1264.22 -3.95613 -0.174934 0
M  V30 13606 H 1265.4 -3.75086 2.6767 0
M  V30 13607 H 1263.71 -3.47889 2.28827 0
M  V30 13608 H 1266.31 -5.34233 0.223495 0
M  V30 13609 H 1266.65 -4.06158 -0.913322 0
M  V30 13610 H 1267.18 -3.90121 0.777868 0
M  V30 13611 H 1263.92 -5.75942 3.13003 0
M  V30 13612 H 1263.44 -5.82778 1.41881 0
M  V30 13613 H 1265.12 -6.18709 1.89229 0
M  V30 13614 N 1265.25 -0.510493 -1.49103 0
M  V30 13615 C 1266.19 0.299697 -2.27232 0
M  V30 13616 C 1267.2 0.922102 -1.34168 0
M  V30 13617 O 1268.39 0.803836 -1.59376 0
M  V30 13618 C 1265.49 1.43778 -3.06889 0
M  V30 13619 C 1264.66 0.920927 -4.27595 0
M  V30 13620 C 1263.72 1.93777 -4.89221 0
M  V30 13621 O 1262.75 1.5025 -5.49011 0
M  V30 13622 N 1263.95 3.2688 -4.79718 0
M  V30 13623 H 1266.71 -0.37028 -2.97404 0
M  V30 13624 H 1264.27 -0.343617 -1.58212 0
M  V30 13625 H 1266.27 2.11577 -3.44988 0
M  V30 13626 H 1264.84 2.01175 -2.39264 0
M  V30 13627 H 1264.06 0.0675358 -3.94142 0
M  V30 13628 H 1265.34 0.554168 -5.05773 0
M  V30 13629 H 1264.74 3.64924 -4.32258 0
M  V30 13630 H 1263.3 3.90366 -5.21974 0
M  V30 13631 N 1266.73 1.55688 -0.24474 0
M  V30 13632 C 1267.68 2.21289 0.655723 0
M  V30 13633 C 1268.65 1.17606 1.17295 0
M  V30 13634 O 1269.83 1.46045 1.22782 0
M  V30 13635 C 1266.97 2.91453 1.84794 0
M  V30 13636 C 1266.09 4.09787 1.36744 0
M  V30 13637 C 1265.22 4.67672 2.51905 0
M  V30 13638 C 1264.26 5.78259 2.00706 0
M  V30 13639 N 1263.4 6.30336 3.09225 0
M  V30 13640 H 1268.24 2.97865 0.0896156 0
M  V30 13641 H 1265.77 1.47064 0.0324725 0
M  V30 13642 H 1267.73 3.30331 2.54828 0
M  V30 13643 H 1266.36 2.17355 2.38656 0
M  V30 13644 H 1265.41 3.76237 0.561228 0
M  V30 13645 H 1266.73 4.89627 0.952199 0
M  V30 13646 H 1265.88 5.09113 3.29984 0
M  V30 13647 H 1264.62 3.87044 2.9673 0
M  V30 13648 H 1263.62 5.36298 1.21097 0
M  V30 13649 H 1264.85 6.60737 1.56853 0
M  V30 13650 H 1262.8 5.52614 3.53489 0
M  V30 13651 H 1262.71 7.05364 2.72025 0
M  V30 13652 H 1263.98 6.76435 3.8737 0
M  V30 13653 N 1268.21 -0.0283989 1.57574 0
M  V30 13654 C 1269.14 -1.02828 2.09639 0
M  V30 13655 C 1270.12 -1.37668 0.999076 0
M  V30 13656 O 1271.31 -1.4654 1.27435 0
M  V30 13657 C 1268.44 -2.329 2.57633 0
M  V30 13658 C 1267.39 -2.12301 3.71635 0
M  V30 13659 C 1266.72 -3.48138 4.05837 0
M  V30 13660 C 1268.02 -1.50864 5.00037 0
M  V30 13661 H 1269.71 -0.594876 2.93431 0
M  V30 13662 H 1267.26 -0.284701 1.41158 0
M  V30 13663 H 1269.21 -3.03179 2.92678 0
M  V30 13664 H 1267.93 -2.78302 1.70926 0
M  V30 13665 H 1266.59 -1.44454 3.3694 0
M  V30 13666 H 1266.24 -3.9119 3.16195 0
M  V30 13667 H 1265.94 -3.3518 4.82626 0
M  V30 13668 H 1267.46 -4.19779 4.43417 0
M  V30 13669 H 1268.88 -2.11062 5.33035 0
M  V30 13670 H 1267.27 -1.48479 5.81441 0
M  V30 13671 H 1268.34 -0.474541 4.82572 0
M  V30 13672 N 1269.69 -1.54705 -0.300681 0
M  V30 13673 C 1270.93 -1.74259 -1.03738 0
M  V30 13674 C 1271.27 -0.52703 -1.86912 0
M  V30 13675 O 1270.54 0.475862 -1.88589 0
M  V30 13676 C 1270.82 -3.03175 -1.94311 0
M  V30 13677 C 1270.68 -4.35031 -1.14315 0
M  V30 13678 C 1272 -3.27962 -2.93478 0
M  V30 13679 H 1269.12 -0.634031 -0.37573 0
M  V30 13680 H 1271.76 -1.87421 -0.312012 0
M  V30 13681 H 1269.91 -2.92086 -2.5616 0
M  V30 13682 H 1271.58 -4.5804 -0.547489 0
M  V30 13683 H 1269.82 -4.31503 -0.44587 0
M  V30 13684 H 1270.49 -5.21502 -1.80941 0
M  V30 13685 H 1272.97 -3.38663 -2.41757 0
M  V30 13686 H 1271.85 -4.19481 -3.54016 0
M  V30 13687 H 1272.11 -2.46273 -3.67154 0
M  V30 13688 N 1271.17 0.563888 -1.47167 0
M  V30 13689 C 1272.41 1.31875 -1.53145 0
M  V30 13690 C 1272.74 1.94047 -0.192518 0
M  V30 13691 O 1272.01 1.79577 0.782872 0
M  V30 13692 H 1270.59 0.489694 -0.5641 0
M  V30 13693 H 1273.25 0.658976 -1.83422 0
M  V30 13694 H 1272.34 2.11574 -2.2944 0
M  V30 13695 N 1272.64 1.35187 0.810078 0
M  V30 13696 C 1273.59 1.27822 1.92173 0
M  V30 13697 C 1274.56 0.150851 1.65414 0
M  V30 13698 O 1275.75 0.333973 1.87854 0
M  V30 13699 C 1272.89 1.05258 3.28656 0
M  V30 13700 C 1272 2.26884 3.67624 0
M  V30 13701 C 1271.13 1.97499 4.9312 0
M  V30 13702 C 1270.17 3.15198 5.24706 0
M  V30 13703 N 1269.31 2.85612 6.41381 0
M  V30 13704 H 1274.15 2.22884 1.97804 0
M  V30 13705 H 1271.69 1.10799 0.967577 0
M  V30 13706 H 1273.65 0.902084 4.07331 0
M  V30 13707 H 1272.28 0.138583 3.22502 0
M  V30 13708 H 1271.33 2.5281 2.84238 0
M  V30 13709 H 1272.64 3.14783 3.86928 0
M  V30 13710 H 1271.79 1.7926 5.79613 0
M  V30 13711 H 1270.53 1.0688 4.75844 0
M  V30 13712 H 1269.54 3.34019 4.36705 0
M  V30 13713 H 1270.76 4.06614 5.43913 0
M  V30 13714 H 1268.71 1.97583 6.25537 0
M  V30 13715 H 1268.63 3.67044 6.60919 0
M  V30 13716 H 1269.89 2.70906 7.3091 0
M  V30 13717 N 1274.12 -1.03182 1.19127 0
M  V30 13718 C 1275.05 -2.13301 0.94999 0
M  V30 13719 C 1276.03 -1.69707 -0.115577 0
M  V30 13720 O 1277.22 -1.94161 0.0388395 0
M  V30 13721 C 1274.35 -3.43902 0.484637 0
M  V30 13722 C 1273.3 -4.01164 1.4917 0
M  V30 13723 C 1272.63 -5.2735 0.883537 0
M  V30 13724 C 1273.93 -4.36311 2.87107 0
M  V30 13725 H 1275.62 -2.33743 1.87095 0
M  V30 13726 H 1273.17 -1.12332 0.900977 0
M  V30 13727 H 1275.12 -4.20308 0.30315 0
M  V30 13728 H 1273.85 -3.23173 -0.471909 0
M  V30 13729 H 1272.5 -3.26849 1.66028 0
M  V30 13730 H 1272.15 -5.02936 -0.0804712 0
M  V30 13731 H 1271.85 -5.66624 1.55599 0
M  V30 13732 H 1273.38 -6.06425 0.71278 0
M  V30 13733 H 1274.79 -5.03666 2.73848 0
M  V30 13734 H 1273.19 -4.86659 3.51117 0
M  V30 13735 H 1274.26 -3.45743 3.39985 0
M  V30 13736 N 1275.6 -0.99472 -1.22242 0
M  V30 13737 C 1276.55 -0.53946 -2.26258 0
M  V30 13738 C 1277.54 0.410796 -1.64344 0
M  V30 13739 O 1278.75 0.283116 -1.7776 0
M  V30 13740 H 1275.12 -0.156069 -0.735627 0
M  V30 13741 H 1277.09 -1.42814 -2.62005 0
M  V30 13742 C 1275.84 0.12842 -3.47463 0
M  V30 13743 H 1275.17 -0.593727 -3.95367 0
M  V30 13744 H 1276.61 0.410393 -4.22009 0
M  V30 13745 C 1275.07 1.36433 -3.08038 0
M  V30 13746 O 1275.6 2.45953 -3.176 0
M  V30 13747 N 1273.8 1.24026 -2.62804 0
M  V30 13748 H 1273.35 0.349111 -2.55223 0
M  V30 13749 H 1273.31 2.06824 -2.36794 0
M  V30 13750 N 1277.08 1.37613 -0.768148 0
M  V30 13751 C 1278.32 2.00532 -0.340335 0
M  V30 13752 C 1278.68 1.59885 1.07026 0
M  V30 13753 O 1277.97 0.833239 1.72533 0
M  V30 13754 C 1278.17 3.54952 -0.417608 0
M  V30 13755 C 1278 4.10595 -1.83417 0
M  V30 13756 C 1276.77 4.41708 -2.45402 0
M  V30 13757 C 1278.96 4.31844 -2.79312 0
M  V30 13758 N 1276.95 4.83045 -3.78868 0
M  V30 13759 C 1278.32 4.75751 -3.97569 0
M  V30 13760 C 1280.37 4.13971 -2.76645 0
M  V30 13761 C 1279.07 5.03656 -5.13539 0
M  V30 13762 C 1281.1 4.4301 -3.91786 0
M  V30 13763 C 1280.46 4.87153 -5.08784 0
M  V30 13764 H 1276.56 0.762961 -0.171505 0
M  V30 13765 H 1279.15 1.66984 -1.00121 0
M  V30 13766 H 1277.32 3.87815 0.213071 0
M  V30 13767 H 1279.05 4.04687 0.0319154 0
M  V30 13768 H 1275.8 4.30661 -1.97048 0
M  V30 13769 H 1276.23 5.08028 -4.47478 0
M  V30 13770 H 1280.87 3.79017 -1.87365 0
M  V30 13771 H 1278.59 5.375 -6.03423 0
M  V30 13772 H 1282.17 4.30772 -3.91059 0
M  V30 13773 H 1281.05 5.09192 -5.964 0
M  V30 13774 N 1278.56 0.518393 1.4883 0
M  V30 13775 C 1279.52 -0.23983 2.27942 0
M  V30 13776 C 1280.52 -0.878302 1.34694 0
M  V30 13777 O 1281.71 -0.740142 1.57694 0
M  V30 13778 C 1278.84 -1.34581 3.1321 0
M  V30 13779 H 1280.03 0.454599 2.96434 0
M  V30 13780 H 1277.59 0.273932 1.53881 0
M  V30 13781 H 1278.32 -2.07385 2.49323 0
M  V30 13782 H 1278.11 -0.893251 3.8179 0
M  V30 13783 H 1279.6 -1.87944 3.72917 0
M  V30 13784 N 1280.03 -1.55556 0.252993 0
M  V30 13785 C 1281.26 -2.03945 -0.376965 0
M  V30 13786 C 1281.68 -1.13089 -1.50308 0
M  V30 13787 O 1281.04 -0.125039 -1.80868 0
M  V30 13788 C 1281.09 -3.50284 -0.856363 0
M  V30 13789 O 1280.19 -3.62551 -1.96546 0
M  V30 13790 H 1279.54 -0.659002 -0.081317 0
M  V30 13791 H 1282.07 -2.01024 0.380831 0
M  V30 13792 H 1282.08 -3.91222 -1.15798 0
M  V30 13793 H 1280.75 -4.15887 -0.0323302 0
M  V30 13794 H 1279.33 -3.33511 -1.66808 0
M  V30 13795 N 1281.51 0.0200419 -1.57587 0
M  V30 13796 C 1282.44 1.0456 -2.0396 0
M  V30 13797 C 1283.46 1.31922 -0.953962 0
M  V30 13798 O 1284.65 1.2925 -1.23112 0
M  V30 13799 C 1281.75 2.38514 -2.40758 0
M  V30 13800 C 1280.92 2.3038 -3.71812 0
M  V30 13801 C 1279.98 3.46856 -3.95698 0
M  V30 13802 O 1279 3.25944 -4.66636 0
M  V30 13803 N 1280.21 4.69033 -3.42036 0
M  V30 13804 H 1282.97 0.650282 -2.9256 0
M  V30 13805 H 1280.53 0.207818 -1.60561 0
M  V30 13806 H 1282.52 3.15172 -2.53868 0
M  V30 13807 H 1281.09 2.69859 -1.57781 0
M  V30 13808 H 1280.31 1.38762 -3.6897 0
M  V30 13809 H 1281.6 2.22097 -4.57767 0
M  V30 13810 H 1281 4.88923 -2.84553 0
M  V30 13811 H 1279.56 5.43025 -3.6051 0
M  V30 13812 N 1282.99 1.54862 0.292472 0
M  V30 13813 C 1284.24 1.73756 1.02429 0
M  V30 13814 C 1284.55 0.535164 1.88137 0
M  V30 13815 O 1285.76 0.606092 2.64648 0
M  V30 13816 C 1284.21 3.0745 1.8709 0
M  V30 13817 C 1283.82 4.35195 1.06343 0
M  V30 13818 C 1285.57 3.357 2.59819 0
M  V30 13819 C 1283.47 5.59936 1.9033 0
M  V30 13820 H 1282.4 0.647617 0.386145 0
M  V30 13821 H 1285.05 1.81338 0.28086 0
M  V30 13822 H 1283.44 2.93855 2.65453 0
M  V30 13823 H 1284.61 4.5965 0.325335 0
M  V30 13824 H 1282.93 4.13944 0.451574 0
M  V30 13825 H 1285.52 4.26099 3.23023 0
M  V30 13826 H 1285.87 2.54956 3.29094 0
M  V30 13827 H 1286.4 3.50304 1.88499 0
M  V30 13828 H 1283.14 6.43372 1.25509 0
M  V30 13829 H 1282.66 5.39654 2.61789 0
M  V30 13830 H 1284.34 5.97512 2.48171 0
M  V30 13831 N 1284.47 -0.556076 1.47464 0
M  V30 13832 C 1285.7 -1.33664 1.57536 0
M  V30 13833 C 1286.11 -1.87858 0.224977 0
M  V30 13834 O 1285.45 -1.65746 -0.792091 0
M  V30 13835 C 1285.51 -2.54257 2.54152 0
M  V30 13836 C 1285.18 -2.21342 3.99821 0
M  V30 13837 C 1286.17 -1.78568 4.88272 0
M  V30 13838 C 1283.86 -2.32666 4.45165 0
M  V30 13839 C 1285.85 -1.47549 6.20087 0
M  V30 13840 C 1283.54 -2.0126 5.77008 0
M  V30 13841 C 1284.54 -1.58769 6.6429 0
M  V30 13842 O 1284.22 -1.27762 7.93683 0
M  V30 13843 H 1283.96 -0.413721 0.534613 0
M  V30 13844 H 1286.51 -0.680342 1.93805 0
M  V30 13845 H 1284.74 -3.22782 2.12952 0
M  V30 13846 H 1286.43 -3.16332 2.5434 0
M  V30 13847 H 1287.2 -1.69311 4.54487 0
M  V30 13848 H 1283.07 -2.64698 3.77433 0
M  V30 13849 H 1286.62 -1.1431 6.88171 0
M  V30 13850 H 1282.52 -2.10149 6.10334 0
M  V30 13851 H 1283.28 -1.41383 8.06197 0
M  V30 13852 N 1285.95 -1.35615 -0.802897 0
M  V30 13853 C 1287.36 -1.26062 -1.37715 0
M  V30 13854 C 1287.71 0.105411 -1.95917 0
M  V30 13855 O 1286.83 1.00648 -1.91569 0
M  V30 13856 C 1287.43 -2.28261 -2.50365 0
M  V30 13857 C 1285.99 -2.22437 -3.03642 0
M  V30 13858 C 1285.14 -2.1377 -1.76629 0
M  V30 13859 H 1288.09 -1.46689 -0.605631 0
M  V30 13860 H 1288.11 -1.91122 -3.29017 0
M  V30 13861 H 1287.62 -3.27671 -2.07975 0
M  V30 13862 H 1285.72 -1.2645 -3.50487 0
M  V30 13863 H 1285.83 -3.14558 -3.61373 0
M  V30 13864 H 1284.2 -1.59806 -1.98328 0
M  V30 13865 H 1284.98 -3.15046 -1.36385 0
M  V30 13866 N 1287.43 1.02549 -1.19673 0
M  V30 13867 C 1288.67 1.75656 -0.999463 0
M  V30 13868 C 1288.99 1.89238 0.470517 0
M  V30 13869 O 1288.26 1.42843 1.34062 0
M  V30 13870 H 1286.84 0.650732 -0.366821 0
M  V30 13871 H 1289.51 1.23684 -1.50627 0
M  V30 13872 H 1288.6 2.76353 -1.45035 0
M  V30 13873 N 1288.9 1.00119 1.21713 0
M  V30 13874 C 1290.15 0.67713 1.89994 0
M  V30 13875 C 1290.47 -0.795149 1.78709 0
M  V30 13876 O 1291.67 -1.23113 2.41982 0
M  V30 13877 C 1290.13 1.16065 3.40671 0
M  V30 13878 C 1289.74 2.65874 3.60576 0
M  V30 13879 C 1291.48 0.911302 4.14603 0
M  V30 13880 C 1289.39 3.07785 5.04997 0
M  V30 13881 H 1288.32 0.249572 0.711498 0
M  V30 13882 H 1290.97 1.21185 1.37792 0
M  V30 13883 H 1289.35 0.554005 3.92106 0
M  V30 13884 H 1290.52 3.31954 3.19598 0
M  V30 13885 H 1288.84 2.88781 2.99991 0
M  V30 13886 H 1291.44 1.20004 5.2106 0
M  V30 13887 H 1291.78 -0.152495 4.16021 0
M  V30 13888 H 1292.31 1.48055 3.69222 0
M  V30 13889 H 1289.05 4.13376 5.08724 0
M  V30 13890 H 1288.57 2.46414 5.46846 0
M  V30 13891 H 1290.25 2.99552 5.73479 0
M  V30 13892 N 1290.38 -1.37203 0.775435 0
M  V30 13893 C 1291.33 -2.30228 0.162388 0
M  V30 13894 C 1292.3 -1.51284 -0.685747 0
M  V30 13895 O 1293.48 -1.7984 -0.637342 0
M  V30 13896 C 1290.62 -3.37762 -0.707858 0
M  V30 13897 C 1289.74 -4.31714 0.157287 0
M  V30 13898 C 1288.87 -5.26325 -0.718012 0
M  V30 13899 C 1287.91 -6.11918 0.149442 0
M  V30 13900 N 1287.05 -6.9876 -0.684043 0
M  V30 13901 H 1291.89 -2.82073 0.961184 0
M  V30 13902 H 1289.42 -1.38854 0.485587 0
M  V30 13903 H 1291.38 -3.98741 -1.22726 0
M  V30 13904 H 1290.01 -2.87273 -1.47222 0
M  V30 13905 H 1289.06 -3.7201 0.794533 0
M  V30 13906 H 1290.38 -4.91909 0.826262 0
M  V30 13907 H 1289.53 -5.92526 -1.30376 0
M  V30 13908 H 1288.27 -4.6655 -1.42066 0
M  V30 13909 H 1287.27 -5.44692 0.747697 0
M  V30 13910 H 1288.5 -6.73766 0.849476 0
M  V30 13911 H 1286.45 -6.41508 -1.37124 0
M  V30 13912 H 1286.36 -7.55965 -0.0724464 0
M  V30 13913 H 1287.63 -7.69346 -1.25407 0
M  V30 13914 N 1291.86 -0.526279 -1.48553 0
M  V30 13915 C 1293.11 0.00918008 -2.02798 0
M  V30 13916 C 1293.44 1.34284 -1.4029 0
M  V30 13917 O 1292.71 1.86639 -0.547355 0
M  V30 13918 C 1293 0.135102 -3.59846 0
M  V30 13919 C 1292.85 -1.22347 -4.32841 0
M  V30 13920 C 1294.17 0.863673 -4.31542 0
M  V30 13921 H 1291.29 0.00186216 -0.736998 0
M  V30 13922 H 1293.93 -0.682591 -1.77315 0
M  V30 13923 H 1292.08 0.724279 -3.81689 0
M  V30 13924 H 1293.75 -1.85347 -4.22427 0
M  V30 13925 H 1291.99 -1.80631 -3.94405 0
M  V30 13926 H 1292.67 -1.08839 -5.41164 0
M  V30 13927 H 1295.14 0.363734 -4.14507 0
M  V30 13928 H 1294.02 0.92067 -5.41124 0
M  V30 13929 H 1294.28 1.91313 -3.98562 0
M  V30 13930 N 1293.34 1.5542 -0.261239 0
M  V30 13931 C 1294.75 1.59327 0.0932655 0
M  V30 13932 C 1294.95 1.27846 1.55748 0
M  V30 13933 O 1294.01 1.03265 2.30418 0
M  V30 13934 C 1295.32 2.99496 -0.268856 0
M  V30 13935 C 1296.87 3.12265 -0.21433 0
M  V30 13936 C 1297.35 4.54677 -0.55069 0
M  V30 13937 N 1298.84 4.60475 -0.501723 0
M  V30 13938 C 1299.57 5.6867 -0.734961 0
M  V30 13939 N 1299.07 6.85069 -1.03209 0
M  V30 13940 N 1300.86 5.58156 -0.664696 0
M  V30 13941 H 1293.01 1.7415 -1.21595 0
M  V30 13942 H 1295.27 0.811382 -0.490268 0
M  V30 13943 H 1294.98 3.2732 -1.28664 0
M  V30 13944 H 1294.85 3.75104 0.397097 0
M  V30 13945 H 1297.24 2.84213 0.794148 0
M  V30 13946 H 1297.32 2.389 -0.914342 0
M  V30 13947 H 1296.97 4.83453 -1.55679 0
M  V30 13948 H 1296.9 5.26322 0.170959 0
M  V30 13949 H 1299.39 3.76851 -0.281387 0
M  V30 13950 H 1299.7 7.63472 -1.19709 0
M  V30 13951 H 1298.05 6.86718 -1.06971 0
M  V30 13952 H 1301.24 4.66098 -0.432513 0
M  V30 13953 H 1301.41 6.42403 -0.849857 0
M  V30 13954 N 1294.82 -0.0116844 1.57596 0
M  V30 13955 C 1295.75 -1.03477 2.04512 0
M  V30 13956 C 1296.76 -1.31414 0.960945 0
M  V30 13957 O 1297.95 -1.28596 1.23796 0
M  V30 13958 C 1295.05 -2.37234 2.42019 0
M  V30 13959 C 1294.22 -2.28405 3.73028 0
M  V30 13960 C 1293.28 -3.44753 3.97532 0
M  V30 13961 O 1292.31 -3.23465 4.68358 0
M  V30 13962 N 1293.51 -4.67212 3.44518 0
M  V30 13963 H 1296.27 -0.634758 2.92901 0
M  V30 13964 H 1293.84 -0.1993 1.60669 0
M  V30 13965 H 1295.83 -3.13821 2.55535 0
M  V30 13966 H 1294.4 -2.69018 1.5921 0
M  V30 13967 H 1293.62 -1.36804 3.697 0
M  V30 13968 H 1294.91 -2.19666 4.58938 0
M  V30 13969 H 1294.3 -4.87407 2.87142 0
M  V30 13970 H 1292.86 -5.41105 3.63384 0
M  V30 13971 N 1296.29 -1.55015 -0.284256 0
M  V30 13972 C 1297.22 -1.90128 -1.3555 0
M  V30 13973 C 1298.2 -0.761914 -1.52082 0
M  V30 13974 O 1299.39 -1.01909 -1.65312 0
M  V30 13975 C 1296.52 -2.16332 -2.71695 0
M  V30 13976 C 1295.47 -3.32166 -2.69907 0
M  V30 13977 C 1294.8 -3.43824 -4.09498 0
M  V30 13978 C 1296.1 -4.6885 -2.30168 0
M  V30 13979 H 1297.79 -2.79852 -1.06411 0
M  V30 13980 H 1295.34 -1.34649 -0.510451 0
M  V30 13981 H 1297.29 -2.39482 -3.46737 0
M  V30 13982 H 1296.02 -1.23395 -3.02392 0
M  V30 13983 H 1294.68 -3.08965 -1.97322 0
M  V30 13984 H 1294.32 -2.48375 -4.374 0
M  V30 13985 H 1294.02 -4.21698 -4.092 0
M  V30 13986 H 1295.55 -3.69254 -4.86296 0
M  V30 13987 H 1296.96 -4.91619 -2.9493 0
M  V30 13988 H 1295.36 -5.49558 -2.41052 0
M  V30 13989 H 1296.43 -4.68433 -1.25294 0
M  V30 13990 N 1297.77 0.548248 -1.47757 0
M  V30 13991 C 1299.01 1.31569 -1.56426 0
M  V30 13992 C 1299.38 1.90676 -0.225072 0
M  V30 13993 O 1300.58 2.68151 -0.186652 0
M  V30 13994 C 1298.85 2.38951 -2.65776 0
M  V30 13995 S 1300.41 3.25664 -2.94089 0
M  V30 13996 H 1297.22 0.447791 -0.552272 0
M  V30 13997 H 1299.83 0.626659 -1.85184 0
M  V30 13998 H 1298.53 1.93978 -3.61664 0
M  V30 13999 H 1298.06 3.12584 -2.38861 0
M  V30 14000 H 1300.08 4.38629 -2.31989 0
M  V30 14001 N 1299.25 1.36039 0.795694 0
M  V30 14002 C 1300.2 1.29853 1.90806 0
M  V30 14003 C 1301.17 0.168387 1.65244 0
M  V30 14004 O 1302.35 0.353879 1.8749 0
M  V30 14005 C 1299.49 1.08737 3.27521 0
M  V30 14006 C 1298.6 2.30771 3.65197 0
M  V30 14007 C 1297.74 2.02718 4.90998 0
M  V30 14008 C 1296.78 3.20746 5.21333 0
M  V30 14009 N 1295.92 2.92399 6.38316 0
M  V30 14010 H 1300.76 2.2497 1.95429 0
M  V30 14011 H 1298.29 1.11819 0.955771 0
M  V30 14012 H 1300.25 0.945236 4.06351 0
M  V30 14013 H 1298.88 0.172781 3.22337 0
M  V30 14014 H 1297.93 2.5581 2.81541 0
M  V30 14015 H 1299.24 3.18869 3.83568 0
M  V30 14016 H 1298.4 1.85398 5.77679 0
M  V30 14017 H 1297.14 1.11921 4.74684 0
M  V30 14018 H 1296.14 3.38632 4.33138 0
M  V30 14019 H 1297.37 4.1236 5.3957 0
M  V30 14020 H 1295.31 2.04207 6.23406 0
M  V30 14021 H 1295.23 3.74034 6.56989 0
M  V30 14022 H 1296.5 2.78643 7.27996 0
M  V30 14023 N 1300.73 -1.01913 1.20215 0
M  V30 14024 C 1301.66 -2.12282 0.97256 0
M  V30 14025 C 1302.64 -1.6982 -0.0975709 0
M  V30 14026 O 1303.82 -1.94109 0.0594307 0
M  V30 14027 C 1300.95 -3.43369 0.521085 0
M  V30 14028 C 1299.91 -3.99559 1.53417 0
M  V30 14029 C 1299.23 -5.26383 0.93942 0
M  V30 14030 C 1300.53 -4.33241 2.91718 0
M  V30 14031 H 1302.23 -2.31746 1.89563 0
M  V30 14032 H 1299.77 -1.1137 0.912841 0
M  V30 14033 H 1301.73 -4.19963 0.347713 0
M  V30 14034 H 1300.45 -3.23655 -0.437605 0
M  V30 14035 H 1299.11 -3.25069 1.69486 0
M  V30 14036 H 1298.76 -5.02993 -0.0271236 0
M  V30 14037 H 1298.46 -5.64942 1.616 0
M  V30 14038 H 1299.98 -6.05635 0.777059 0
M  V30 14039 H 1301.4 -5.00734 2.79175 0
M  V30 14040 H 1299.79 -4.82907 3.56259 0
M  V30 14041 H 1300.86 -3.42118 3.43633 0
M  V30 14042 N 1302.21 -1.00763 -1.2118 0
M  V30 14043 C 1303.14 -0.590493 -2.2591 0
M  V30 14044 C 1304.12 0.390002 -1.65569 0
M  V30 14045 O 1305.3 0.277406 -1.92208 0
M  V30 14046 C 1302.43 0.0810388 -3.47205 0
M  V30 14047 C 1301.39 -0.81951 -4.20081 0
M  V30 14048 C 1300.71 -0.014244 -5.34698 0
M  V30 14049 C 1302.01 -2.12336 -4.7719 0
M  V30 14050 H 1303.71 -1.46595 -2.61056 0
M  V30 14051 H 1301.25 -0.706321 -1.25487 0
M  V30 14052 H 1303.21 0.384355 -4.19644 0
M  V30 14053 H 1301.93 0.991145 -3.11197 0
M  V30 14054 H 1300.59 -1.10669 -3.49497 0
M  V30 14055 H 1300.24 0.897233 -4.94933 0
M  V30 14056 H 1299.94 -0.613883 -5.84384 0
M  V30 14057 H 1301.46 0.282827 -6.09945 0
M  V30 14058 H 1302.87 -1.88301 -5.41494 0
M  V30 14059 H 1301.27 -2.67308 -5.37277 0
M  V30 14060 H 1302.34 -2.79238 -3.96427 0
M  V30 14061 N 1303.68 1.3679 -0.7827 0
M  V30 14062 C 1305.1 1.52719 -0.463594 0
M  V30 14063 C 1305.3 1.73827 1.01914 0
M  V30 14064 O 1304.36 1.76591 1.80477 0
M  V30 14065 C 1305.67 2.71709 -1.2882 0
M  V30 14066 C 1307.22 2.85577 -1.2812 0
M  V30 14067 C 1307.69 4.07564 -2.0894 0
M  V30 14068 N 1309.18 4.14697 -2.0635 0
M  V30 14069 C 1309.92 5.08147 -2.65659 0
M  V30 14070 N 1309.41 6.07083 -3.33799 0
M  V30 14071 N 1311.21 5.00712 -2.55429 0
M  V30 14072 H 1303.36 1.21342 -1.74327 0
M  V30 14073 H 1305.62 0.591719 -0.740657 0
M  V30 14074 H 1305.33 2.62612 -2.3394 0
M  V30 14075 H 1305.2 3.65686 -0.924873 0
M  V30 14076 H 1307.59 2.94139 -0.237947 0
M  V30 14077 H 1307.67 1.92528 -1.68424 0
M  V30 14078 H 1307.31 3.99763 -3.13293 0
M  V30 14079 H 1307.24 4.99748 -1.66011 0
M  V30 14080 H 1309.73 3.43856 -1.56752 0
M  V30 14081 H 1310.05 6.74939 -3.764 0
M  V30 14082 H 1308.39 6.07329 -3.379 0
M  V30 14083 H 1311.58 4.22367 -2.01802 0
M  V30 14084 H 1311.76 5.73354 -3.01943 0
M  V30 14085 N 1305.16 0.53415 1.48272 0
M  V30 14086 C 1306.41 0.00156948 2.021 0
M  V30 14087 C 1306.73 -1.34371 1.41313 0
M  V30 14088 O 1306 -1.87117 0.579996 0
M  V30 14089 H 1304.58 -0.00240789 0.746996 0
M  V30 14090 H 1307.24 0.698928 1.81937 0
M  V30 14091 H 1306.34 -0.103671 3.11928 0
M  V30 14092 N 1306.64 -1.55279 0.269478 0
M  V30 14093 C 1307.87 -2.03876 -0.352418 0
M  V30 14094 C 1308.28 -1.14804 -1.49885 0
M  V30 14095 O 1307.64 -0.166989 -1.81734 0
M  V30 14096 C 1307.69 -3.51634 -0.838799 0
M  V30 14097 O 1307.41 -4.37316 0.261972 0
M  V30 14098 C 1308.91 -4.16094 -1.52909 0
M  V30 14099 H 1306.13 -0.66608 -0.0811043 0
M  V30 14100 H 1308.68 -2.00551 0.399929 0
M  V30 14101 H 1306.83 -3.55421 -1.54125 0
M  V30 14102 H 1307.25 -5.24383 -0.111013 0
M  V30 14103 H 1308.72 -5.21102 -1.82089 0
M  V30 14104 H 1309.2 -3.63928 -2.45872 0
M  V30 14105 H 1309.8 -4.16293 -0.87063 0
M  V30 14106 N 1308.12 0.00332656 -1.576 0
M  V30 14107 C 1309.07 0.99581 -2.08212 0
M  V30 14108 C 1310.04 1.34342 -0.976804 0
M  V30 14109 O 1311.22 1.44236 -1.24902 0
M  V30 14110 C 1308.36 2.2836 -2.58739 0
M  V30 14111 C 1307.47 1.99531 -3.8316 0
M  V30 14112 C 1306.61 3.22367 -4.222 0
M  V30 14113 C 1305.65 2.89209 -5.39467 0
M  V30 14114 N 1304.78 4.04572 -5.73817 0
M  V30 14115 H 1309.62 0.55727 -2.92743 0
M  V30 14116 H 1307.16 0.263513 -1.4472 0
M  V30 14117 H 1309.12 3.03639 -2.86111 0
M  V30 14118 H 1307.75 2.69889 -1.77087 0
M  V30 14119 H 1306.8 1.14634 -3.62716 0
M  V30 14120 H 1308.11 1.71089 -4.6854 0
M  V30 14121 H 1307.27 4.05994 -4.50837 0
M  V30 14122 H 1306.01 3.53944 -3.35522 0
M  V30 14123 H 1305.01 2.03989 -5.10557 0
M  V30 14124 H 1306.24 2.58883 -6.27819 0
M  V30 14125 H 1304.18 4.36052 -4.90096 0
M  V30 14126 H 1304.1 3.79643 -6.53764 0
M  V30 14127 H 1305.37 4.88998 -6.07043 0
M  V30 14128 N 1309.6 1.55164 0.276031 0
M  V30 14129 C 1310.56 1.87065 1.32436 0
M  V30 14130 C 1311.56 0.745024 1.42499 0
M  V30 14131 O 1312.75 1.01321 1.41702 0
M  V30 14132 C 1309.88 2.07322 2.70611 0
M  V30 14133 H 1311.07 2.80775 1.05382 0
M  V30 14134 H 1308.63 1.47609 0.513947 0
M  V30 14135 H 1309.36 1.15983 3.0285 0
M  V30 14136 H 1309.15 2.89275 2.64693 0
M  V30 14137 H 1310.64 2.33287 3.46362 0
M  V30 14138 N 1311.07 -0.540404 1.48045 0
M  V30 14139 C 1312 -1.65538 1.6468 0
M  V30 14140 C 1312.99 -1.62713 0.495847 0
M  V30 14141 O 1314.17 -1.80072 0.727172 0
M  V30 14142 C 1311.3 -3.0415 1.67661 0
M  V30 14143 C 1310.25 -3.2183 2.82152 0
M  V30 14144 C 1309.58 -4.61397 2.70216 0
M  V30 14145 C 1310.88 -3.05596 4.23567 0
M  V30 14146 H 1312.57 -1.51873 2.58021 0
M  V30 14147 H 1310.12 -0.729208 1.24171 0
M  V30 14148 H 1312.07 -3.82013 1.77887 0
M  V30 14149 H 1310.8 -3.18814 0.708907 0
M  V30 14150 H 1309.46 -2.4638 2.71463 0
M  V30 14151 H 1309.1 -4.72883 1.71437 0
M  V30 14152 H 1308.8 -4.74174 3.47035 0
M  V30 14153 H 1310.33 -5.41374 2.82395 0
M  V30 14154 H 1311.74 -3.73261 4.35143 0
M  V30 14155 H 1310.14 -3.29871 5.01303 0
M  V30 14156 H 1311.21 -2.0214 4.40758 0
M  V30 14157 N 1312.55 -1.36459 -0.788468 0
M  V30 14158 C 1313.78 -1.33898 -1.57731 0
M  V30 14159 C 1314.2 0.0795471 -1.88632 0
M  V30 14160 O 1313.55 1.03671 -1.50195 0
M  V30 14161 C 1313.6 -2.16134 -2.89773 0
M  V30 14162 O 1313.32 -3.52457 -2.60203 0
M  V30 14163 C 1314.83 -2.21364 -3.84074 0
M  V30 14164 H 1312.05 -0.459269 -0.489197 0
M  V30 14165 H 1314.59 -1.79569 -0.978526 0
M  V30 14166 H 1312.74 -1.74015 -3.46118 0
M  V30 14167 H 1313.16 -3.95378 -3.4464 0
M  V30 14168 H 1314.63 -2.83261 -4.7378 0
M  V30 14169 H 1315.11 -1.21736 -4.21992 0
M  V30 14170 H 1315.72 -2.63723 -3.33662 0
M  V30 14171 N 1314.03 1.01274 -1.20754 0
M  V30 14172 C 1314.94 2.1335 -0.975656 0
M  V30 14173 C 1315.96 1.7386 0.0697364 0
M  V30 14174 O 1317.13 2.01051 -0.118578 0
M  V30 14175 C 1314.2 3.42548 -0.534931 0
M  V30 14176 C 1313.26 3.96257 -1.65163 0
M  V30 14177 C 1312.49 5.19289 -1.23184 0
M  V30 14178 O 1312.71 5.70309 -0.102158 0
M  V30 14179 O 1311.65 5.66248 -2.04076 0
M  V30 14180 H 1315.47 2.35783 -1.91415 0
M  V30 14181 H 1313.06 1.11736 -0.991743 0
M  V30 14182 H 1314.94 4.20341 -0.298568 0
M  V30 14183 H 1313.62 3.21521 0.374937 0
M  V30 14184 H 1312.52 3.19726 -1.94232 0
M  V30 14185 H 1313.86 4.2168 -2.53864 0
M  V30 14186 N 1315.51 1.01404 1.20644 0
M  V30 14187 C 1316.76 0.702949 1.90227 0
M  V30 14188 C 1317.09 -0.765243 1.78487 0
M  V30 14189 O 1316.36 -1.55569 1.16741 0
M  V30 14190 C 1316.65 1.13606 3.4171 0
M  V30 14191 C 1316.5 2.66437 3.62397 0
M  V30 14192 C 1317.82 0.705361 4.34411 0
M  V30 14193 H 1314.94 0.256842 0.690797 0
M  V30 14194 H 1317.58 1.26133 1.42093 0
M  V30 14195 H 1315.73 0.660977 3.82836 0
M  V30 14196 H 1317.4 3.21778 3.3054 0
M  V30 14197 H 1315.64 3.0753 3.05954 0
M  V30 14198 H 1316.32 2.91795 4.68572 0
M  V30 14199 H 1318.79 1.11375 4.00918 0
M  V30 14200 H 1317.67 1.03647 5.39026 0
M  V30 14201 H 1317.93 -0.393094 4.40349 0
M  V30 14202 N 1316.99 -1.36373 0.789944 0
M  V30 14203 C 1318.24 -1.98476 0.359165 0
M  V30 14204 C 1318.55 -1.634 -1.07517 0
M  V30 14205 O 1319.76 -2.18742 -1.60824 0
M  V30 14206 C 1318.21 -3.55011 0.591228 0
M  V30 14207 C 1317.82 -3.99011 2.03701 0
M  V30 14208 C 1319.56 -4.23903 0.224979 0
M  V30 14209 C 1317.47 -5.48325 2.2157 0
M  V30 14210 H 1316.4 -0.742612 0.130552 0
M  V30 14211 H 1319.05 -1.55664 0.971652 0
M  V30 14212 H 1317.43 -3.95895 -0.0909788 0
M  V30 14213 H 1318.61 -3.69324 2.75566 0
M  V30 14214 H 1316.92 -3.42957 2.36155 0
M  V30 14215 H 1319.52 -5.33638 0.336764 0
M  V30 14216 H 1319.86 -4.08004 -0.826964 0
M  V30 14217 H 1320.4 -3.88383 0.860443 0
M  V30 14218 H 1317.13 -5.69173 3.25149 0
M  V30 14219 H 1316.65 -5.79637 1.54211 0
M  V30 14220 H 1318.33 -6.14556 2.0231 0
M  V30 14221 N 1318.47 -0.542005 -1.47987 0
M  V30 14222 C 1319.88 -0.104646 -1.86406 0
M  V30 14223 C 1320.23 1.32139 -1.4503 0
M  V30 14224 O 1319.35 1.99159 -0.846439 0
M  V30 14225 C 1319.95 -0.183133 -3.38305 0
M  V30 14226 C 1318.51 0.199098 -3.75873 0
M  V30 14227 C 1317.65 -0.537532 -2.7204 0
M  V30 14228 H 1320.6 -0.75259 -1.3972 0
M  V30 14229 H 1320.63 0.602149 -3.75705 0
M  V30 14230 H 1320.14 -1.22113 -3.68389 0
M  V30 14231 H 1318.24 1.23878 -3.51404 0
M  V30 14232 H 1318.35 -0.14888 -4.78869 0
M  V30 14233 H 1316.72 0.0176255 -2.54694 0
M  V30 14234 H 1317.5 -1.57639 -3.04967 0
M  V30 14235 N 1319.94 1.55134 -0.277709 0
M  V30 14236 C 1320.87 2.256 0.602232 0
M  V30 14237 C 1321.85 1.24708 1.15681 0
M  V30 14238 O 1323.04 1.53433 1.19046 0
M  V30 14239 C 1320.17 2.97907 1.78519 0
M  V30 14240 C 1319.12 4.0575 1.36203 0
M  V30 14241 C 1318.45 4.65644 2.62829 0
M  V30 14242 C 1319.75 5.19801 0.510327 0
M  V30 14243 H 1321.44 2.99396 0.0145622 0
M  V30 14244 H 1318.99 1.43999 0.00556389 0
M  V30 14245 H 1320.94 3.45915 2.40668 0
M  V30 14246 H 1319.67 2.21649 2.39873 0
M  V30 14247 H 1318.33 3.58557 0.763726 0
M  V30 14248 H 1317.97 3.86053 3.22447 0
M  V30 14249 H 1317.67 5.38463 2.35227 0
M  V30 14250 H 1319.2 5.16403 3.25823 0
M  V30 14251 H 1320.61 5.63845 1.03689 0
M  V30 14252 H 1319.01 5.99197 0.329073 0
M  V30 14253 H 1320.08 4.82614 -0.470273 0
M  V30 14254 N 1321.42 0.00503138 1.57599 0
M  V30 14255 C 1322.65 -0.689609 1.95069 0
M  V30 14256 C 1323.06 -1.67028 0.880183 0
M  V30 14257 O 1322.42 -1.81959 -0.140406 0
M  V30 14258 C 1322.47 -1.41709 3.32567 0
M  V30 14259 O 1322.19 -0.475746 4.35509 0
M  V30 14260 C 1323.69 -2.20578 3.84526 0
M  V30 14261 H 1320.91 -0.19175 0.643019 0
M  V30 14262 H 1323.46 0.057646 2.04419 0
M  V30 14263 H 1321.61 -2.11593 3.2451 0
M  V30 14264 H 1322.03 -0.989573 5.1508 0
M  V30 14265 H 1323.5 -2.66969 4.83148 0
M  V30 14266 H 1323.98 -3.03467 3.17497 0
M  V30 14267 H 1324.58 -1.557 3.95775 0
M  V30 14268 N 1322.9 -1.55308 -0.267798 0
M  V30 14269 C 1323.81 -1.91649 -1.35307 0
M  V30 14270 C 1324.83 -0.814349 -1.53767 0
M  V30 14271 O 1326 -1.11388 -1.67793 0
M  V30 14272 C 1323.07 -2.18553 -2.69138 0
M  V30 14273 C 1322.13 -3.42083 -2.5938 0
M  V30 14274 C 1321.36 -3.67695 -3.86828 0
M  V30 14275 O 1321.58 -2.95728 -4.87751 0
M  V30 14276 O 1320.52 -4.61229 -3.86718 0
M  V30 14277 H 1324.34 -2.84044 -1.07483 0
M  V30 14278 H 1321.93 -1.41921 -0.466772 0
M  V30 14279 H 1323.81 -2.3726 -3.48261 0
M  V30 14280 H 1322.49 -1.2934 -2.96737 0
M  V30 14281 H 1321.39 -3.28706 -1.78614 0
M  V30 14282 H 1322.73 -4.31532 -2.36729 0
M  V30 14283 N 1324.38 0.532545 -1.4833 0
M  V30 14284 C 1325.29 1.66433 -1.65339 0
M  V30 14285 C 1326.3 1.65541 -0.535939 0
M  V30 14286 O 1327.48 1.84539 -0.806679 0
M  V30 14287 C 1324.54 3.02901 -1.68676 0
M  V30 14288 C 1323.61 3.14669 -2.92031 0
M  V30 14289 C 1322.84 4.44627 -2.95199 0
M  V30 14290 O 1323.06 5.31572 -2.06851 0
M  V30 14291 O 1322 4.60707 -3.87341 0
M  V30 14292 H 1325.82 1.5502 -2.61156 0
M  V30 14293 H 1323.41 0.705348 -1.31701 0
M  V30 14294 H 1325.29 3.84068 -1.73407 0
M  V30 14295 H 1323.96 3.14644 -0.760327 0
M  V30 14296 H 1322.87 2.32807 -2.92834 0
M  V30 14297 H 1324.2 3.07841 -3.8405 0
M  V30 14298 N 1325.86 1.36875 0.78122 0
M  V30 14299 C 1326.82 1.31706 1.8758 0
M  V30 14300 C 1327.82 0.223044 1.59246 0
M  V30 14301 O 1329.01 0.478327 1.67504 0
M  V30 14302 C 1326.14 1.0437 3.2453 0
M  V30 14303 H 1327.33 2.29059 1.93576 0
M  V30 14304 H 1324.89 1.21766 0.979931 0
M  V30 14305 H 1325.62 0.0750941 3.24213 0
M  V30 14306 H 1325.41 1.83548 3.46486 0
M  V30 14307 H 1326.9 1.0338 4.04602 0
M  V30 14308 N 1327.33 -1.00632 1.21289 0
M  V30 14309 C 1328.24 -2.12829 0.986957 0
M  V30 14310 C 1329.26 -1.73895 -0.0605152 0
M  V30 14311 O 1330.44 -2.00985 0.129238 0
M  V30 14312 C 1327.5 -3.4226 0.553089 0
M  V30 14313 C 1326.56 -3.95376 1.67262 0
M  V30 14314 C 1325.79 -5.18629 1.25936 0
M  V30 14315 O 1326.02 -5.70246 0.132402 0
M  V30 14316 O 1324.95 -5.65157 2.07077 0
M  V30 14317 H 1328.78 -2.34765 1.92663 0
M  V30 14318 H 1326.36 -1.11208 0.997654 0
M  V30 14319 H 1328.24 -4.20177 0.320856 0
M  V30 14320 H 1326.92 -3.21716 -0.357881 0
M  V30 14321 H 1325.83 -3.18692 1.95924 0
M  V30 14322 H 1327.16 -4.20328 2.56097 0
M  V30 14323 N 1328.81 -1.02043 -1.20104 0
M  V30 14324 C 1329.74 -0.614421 -2.25271 0
M  V30 14325 C 1330.72 0.37242 -1.65973 0
M  V30 14326 O 1331.91 0.257005 -1.92492 0
M  V30 14327 C 1329.04 0.0442085 -3.47272 0
M  V30 14328 C 1327.99 -0.864019 -4.19188 0
M  V30 14329 C 1327.32 -0.0709551 -5.34653 0
M  V30 14330 C 1328.62 -2.17385 -4.74912 0
M  V30 14331 H 1330.31 -1.49355 -2.59487 0
M  V30 14332 H 1327.86 -0.719591 -1.24731 0
M  V30 14333 H 1329.81 0.339825 -4.20028 0
M  V30 14334 H 1328.53 0.958082 -3.12231 0
M  V30 14335 H 1327.19 -1.1437 -3.48303 0
M  V30 14336 H 1326.84 0.844688 -4.95857 0
M  V30 14337 H 1326.54 -0.67583 -5.83701 0
M  V30 14338 H 1328.07 0.218118 -6.1021 0
M  V30 14339 H 1329.48 -1.94034 -5.39466 0
M  V30 14340 H 1327.88 -2.72991 -5.34412 0
M  V30 14341 H 1328.95 -2.83427 -3.93443 0
M  V30 14342 N 1330.29 1.35952 -0.797165 0
M  V30 14343 C 1331.2 2.33726 -0.202271 0
M  V30 14344 C 1332.22 1.61415 0.649719 0
M  V30 14345 O 1333.39 1.93351 0.563686 0
M  V30 14346 C 1330.46 3.40612 0.64685 0
M  V30 14347 C 1329.52 4.28712 -0.224536 0
M  V30 14348 C 1328.75 5.30493 0.584153 0
M  V30 14349 O 1328.97 5.40599 1.81957 0
M  V30 14350 O 1327.91 6.01897 -0.0200239 0
M  V30 14351 H 1331.73 2.86383 -1.01087 0
M  V30 14352 H 1329.32 1.38557 -0.558768 0
M  V30 14353 H 1331.2 4.05944 1.1308 0
M  V30 14354 H 1329.88 2.90243 1.43321 0
M  V30 14355 H 1328.78 3.66394 -0.755415 0
M  V30 14356 H 1330.12 4.82454 -0.974603 0
M  V30 14357 N 1331.77 0.549846 1.47697 0
M  V30 14358 C 1332.7 -0.190364 2.32723 0
M  V30 14359 C 1333.68 -0.915933 1.43334 0
M  V30 14360 O 1334.86 -0.897838 1.72199 0
M  V30 14361 C 1331.99 -1.22545 3.24961 0
M  V30 14362 C 1330.95 -0.616805 4.23532 0
M  V30 14363 C 1330.27 -1.75599 5.05044 0
M  V30 14364 C 1331.57 0.424595 5.20571 0
M  V30 14365 H 1333.27 0.519461 2.94859 0
M  V30 14366 H 1330.81 0.251259 1.41791 0
M  V30 14367 H 1332.77 -1.75139 3.83281 0
M  V30 14368 H 1331.49 -1.96512 2.60865 0
M  V30 14369 H 1330.15 -0.112224 3.66428 0
M  V30 14370 H 1329.8 -2.48453 4.37356 0
M  V30 14371 H 1329.5 -1.35456 5.71774 0
M  V30 14372 H 1331.02 -2.28533 5.6622 0
M  V30 14373 H 1332.44 -0.0150025 5.73298 0
M  V30 14374 H 1330.83 0.7445 5.95464 0
M  V30 14375 H 1331.9 1.32318 4.66497 0
M  V30 14376 N 1333.25 -1.54984 0.285932 0
M  V30 14377 C 1334.21 -2.2164 -0.583824 0
M  V30 14378 C 1335.21 -1.19764 -1.073 0
M  V30 14379 O 1336.4 -1.44598 -0.971439 0
M  V30 14380 C 1333.53 -2.8909 -1.80665 0
M  V30 14381 H 1334.72 -2.999 -0.00168109 0
M  V30 14382 H 1332.28 -1.56257 0.0366325 0
M  V30 14383 H 1333.01 -2.14869 -2.42903 0
M  V30 14384 H 1332.8 -3.63756 -1.4637 0
M  V30 14385 H 1334.29 -3.39982 -2.42491 0
M  V30 14386 N 1334.72 -0.0133892 -1.57594 0
M  V30 14387 C 1335.63 0.989701 -2.12702 0
M  V30 14388 C 1336.65 1.36785 -1.07545 0
M  V30 14389 O 1337.83 1.45246 -1.39519 0
M  V30 14390 C 1334.89 2.2586 -2.63036 0
M  V30 14391 C 1333.95 1.94234 -3.82847 0
M  V30 14392 C 1333.19 3.15075 -4.30771 0
M  V30 14393 O 1333.41 4.27212 -3.7795 0
M  V30 14394 O 1332.34 2.98291 -5.22787 0
M  V30 14395 H 1336.17 0.551194 -2.98656 0
M  V30 14396 H 1333.75 0.206264 -1.47969 0
M  V30 14397 H 1335.64 3.0038 -2.9555 0
M  V30 14398 H 1334.31 2.68923 -1.80173 0
M  V30 14399 H 1333.22 1.17148 -3.55285 0
M  V30 14400 H 1334.55 1.55999 -4.66824 0
M  V30 14401 N 1336.2 1.55448 0.259558 0
M  V30 14402 C 1337.15 1.90056 1.34096 0
M  V30 14403 C 1338.14 0.778267 1.50464 0
M  V30 14404 O 1339.35 0.962758 1.52089 0
M  V30 14405 H 1335.73 0.603424 0.448758 0
M  V30 14406 H 1337.7 2.80365 1.02166 0
M  V30 14407 C 1336.45 2.20074 2.69189 0
M  V30 14408 H 1335.77 3.05926 2.57389 0
M  V30 14409 H 1337.21 2.48201 3.43762 0
M  V30 14410 C 1335.67 1.01281 3.21316 0
M  V30 14411 O 1336.2 0.2543 4.00894 0
M  V30 14412 N 1334.4 0.806855 2.79174 0
M  V30 14413 H 1333.95 1.42536 2.14572 0
M  V30 14414 H 1333.91 0.0136714 3.14397 0
M  V30 14415 N 1337.68 -0.524672 1.4861 0
M  V30 14416 C 1339.1 -0.853703 1.34848 0
M  V30 14417 C 1339.3 -1.98194 0.363529 0
M  V30 14418 O 1338.35 -2.51597 -0.213348 0
M  V30 14419 C 1339.67 -1.21622 2.75006 0
M  V30 14420 C 1341.21 -1.3258 2.83534 0
M  V30 14421 C 1341.69 -1.72172 4.24406 0
M  V30 14422 N 1343.18 -1.79265 4.27105 0
M  V30 14423 C 1343.91 -2.11296 5.33049 0
M  V30 14424 N 1343.41 -2.41714 6.49266 0
M  V30 14425 N 1345.2 -2.12347 5.20447 0
M  V30 14426 H 1337.35 0.219671 2.11261 0
M  V30 14427 H 1339.62 0.0356444 0.94733 0
M  V30 14428 H 1339.32 -0.460776 3.48669 0
M  V30 14429 H 1339.2 -2.16516 3.0887 0
M  V30 14430 H 1341.58 -2.072 2.10124 0
M  V30 14431 H 1341.67 -0.357943 2.53283 0
M  V30 14432 H 1341.31 -0.981108 4.98334 0
M  V30 14433 H 1341.24 -2.70017 4.52104 0
M  V30 14434 H 1343.73 -1.58013 3.43279 0
M  V30 14435 H 1344.04 -2.65276 7.25843 0
M  V30 14436 H 1342.39 -2.39222 6.52532 0
M  V30 14437 H 1345.58 -1.88044 4.28669 0
M  V30 14438 H 1345.75 -2.36978 6.03113 0
M  V30 14439 N 1339.16 -1.37287 -0.77395 0
M  V30 14440 C 1340.07 -1.35059 -1.91823 0
M  V30 14441 C 1341.08 -0.250489 -1.72188 0
M  V30 14442 O 1342.26 -0.485501 -1.95461 0
M  V30 14443 C 1339.33 -1.15444 -3.26915 0
M  V30 14444 C 1338.39 -2.35073 -3.5922 0
M  V30 14445 C 1337.62 -2.16384 -4.87867 0
M  V30 14446 O 1337.84 -1.14696 -5.58749 0
M  V30 14447 O 1336.78 -3.0452 -5.19183 0
M  V30 14448 H 1340.6 -2.31432 -1.96654 0
M  V30 14449 H 1338.19 -1.17994 -0.916392 0
M  V30 14450 H 1340.07 -1.06484 -4.07724 0
M  V30 14451 H 1338.74 -0.221435 -3.22942 0
M  V30 14452 H 1337.65 -2.49604 -2.78655 0
M  V30 14453 H 1338.98 -3.26933 -3.67934 0
M  V30 14454 N 1340.64 0.999871 -1.21821 0
M  V30 14455 C 1341.89 1.73257 -1.03271 0
M  V30 14456 C 1342.2 1.90736 0.433502 0
M  V30 14457 O 1343.4 2.61263 0.738511 0
M  V30 14458 C 1341.86 3.11697 -1.79925 0
M  V30 14459 C 1341.47 3.02173 -3.3075 0
M  V30 14460 C 1343.21 3.89061 -1.698 0
M  V30 14461 C 1341.12 4.35725 -3.99872 0
M  V30 14462 H 1340.05 0.649595 -0.382809 0
M  V30 14463 H 1342.7 1.11676 -1.45605 0
M  V30 14464 H 1341.08 3.73919 -1.30386 0
M  V30 14465 H 1342.26 2.49158 -3.8763 0
M  V30 14466 H 1340.57 2.38296 -3.41473 0
M  V30 14467 H 1343.17 4.87897 -2.1877 0
M  V30 14468 H 1343.51 4.11081 -0.657148 0
M  V30 14469 H 1344.04 3.33502 -2.16844 0
M  V30 14470 H 1340.78 4.18906 -5.04181 0
M  V30 14471 H 1340.3 4.8868 -3.47781 0
M  V30 14472 H 1341.98 5.04503 -4.05075 0
M  V30 14473 N 1342.11 1.02678 1.19562 0
M  V30 14474 C 1343.04 0.626359 2.24942 0
M  V30 14475 C 1344.03 -0.363612 1.66168 0
M  V30 14476 O 1345.21 -0.246793 1.92625 0
M  V30 14477 C 1342.34 -0.0257912 3.4729 0
M  V30 14478 C 1341.29 0.886237 4.18724 0
M  V30 14479 C 1340.62 0.0993081 5.34608 0
M  V30 14480 C 1341.92 2.19901 4.73752 0
M  V30 14481 H 1343.61 1.50729 2.58691 0
M  V30 14482 H 1341.16 0.726195 1.24348 0
M  V30 14483 H 1343.11 -0.317545 4.20202 0
M  V30 14484 H 1341.84 -0.941511 3.12735 0
M  V30 14485 H 1340.5 1.16215 3.47692 0
M  V30 14486 H 1340.14 -0.81838 4.96298 0
M  V30 14487 H 1339.84 0.706776 5.83334 0
M  V30 14488 H 1341.37 -0.185754 6.10317 0
M  V30 14489 H 1342.78 1.96892 5.3843 0
M  V30 14490 H 1341.18 2.75821 5.32956 0
M  V30 14491 H 1342.25 2.85509 3.91934 0
M  V30 14492 N 1343.59 -1.35528 0.804364 0
M  V30 14493 C 1344.54 -2.29832 0.211186 0
M  V30 14494 C 1345.51 -1.52704 -0.653503 0
M  V30 14495 O 1346.69 -1.81152 -0.599052 0
M  V30 14496 C 1343.83 -3.39188 -0.636054 0
M  V30 14497 C 1342.95 -4.31283 0.248824 0
M  V30 14498 C 1342.08 -5.2773 -0.60621 0
M  V30 14499 C 1341.12 -6.11463 0.279205 0
M  V30 14500 N 1340.26 -7.00054 -0.535672 0
M  V30 14501 H 1345.1 -2.79971 1.0208 0
M  V30 14502 H 1342.64 -1.37793 0.514931 0
M  V30 14503 H 1344.59 -4.01254 -1.14241 0
M  V30 14504 H 1343.22 -2.90331 -1.41095 0
M  V30 14505 H 1342.28 -3.70241 0.873263 0
M  V30 14506 H 1343.59 -4.90046 0.930417 0
M  V30 14507 H 1342.74 -5.95158 -1.17778 0
M  V30 14508 H 1341.48 -4.69458 -1.32138 0
M  V30 14509 H 1340.49 -5.42984 0.863066 0
M  V30 14510 H 1341.71 -6.71813 0.9922 0
M  V30 14511 H 1339.66 -6.44273 -1.23486 0
M  V30 14512 H 1339.57 -7.55949 0.0879213 0
M  V30 14513 H 1340.84 -7.71833 -1.09059 0
M  V30 14514 N 1345.07 -0.557671 -1.47404 0
M  V30 14515 C 1345.98 0.19289 -2.33806 0
M  V30 14516 C 1347 0.911424 -1.4822 0
M  V30 14517 O 1348.17 0.880214 -1.81147 0
M  V30 14518 C 1345.24 1.20937 -3.24923 0
M  V30 14519 C 1344.3 0.498209 -4.26399 0
M  V30 14520 C 1343.53 1.46626 -5.13163 0
M  V30 14521 O 1343.76 2.70111 -5.0239 0
M  V30 14522 O 1342.69 0.990497 -5.93694 0
M  V30 14523 H 1346.52 -0.515861 -2.99287 0
M  V30 14524 H 1344.1 -0.318283 -1.4597 0
M  V30 14525 H 1345.98 1.7961 -3.81206 0
M  V30 14526 H 1344.66 1.90003 -2.6207 0
M  V30 14527 H 1343.56 -0.129736 -3.73875 0
M  V30 14528 H 1344.9 -0.151015 -4.91968 0
M  V30 14529 N 1346.55 1.54831 -0.294147 0
M  V30 14530 C 1347.96 1.85627 0.199866 0
M  V30 14531 C 1348.31 1.21613 1.53964 0
M  V30 14532 O 1347.44 0.511317 2.10272 0
M  V30 14533 C 1348.03 3.3678 0.369428 0
M  V30 14534 C 1346.59 3.67633 0.807663 0
M  V30 14535 C 1345.74 2.7716 -0.0880078 0
M  V30 14536 H 1348.69 1.50099 -0.515371 0
M  V30 14537 H 1348.71 3.60913 1.20508 0
M  V30 14538 H 1348.22 3.83342 -0.605831 0
M  V30 14539 H 1346.32 3.26583 1.79372 0
M  V30 14540 H 1346.44 4.74916 0.631799 0
M  V30 14541 H 1344.8 2.51017 0.431553 0
M  V30 14542 H 1345.58 3.26542 -1.0595 0
M  V30 14543 N 1348.03 0.0217466 1.57585 0
M  V30 14544 C 1349.27 -0.659463 1.91778 0
M  V30 14545 C 1349.61 -1.72201 0.897801 0
M  V30 14546 O 1348.88 -1.94333 -0.080509 0
M  V30 14547 C 1349.16 -1.28269 3.36481 0
M  V30 14548 C 1349.02 -0.230201 4.49211 0
M  V30 14549 C 1350.34 -2.20279 3.81005 0
M  V30 14550 H 1347.46 -0.238263 0.697424 0
M  V30 14551 H 1350.1 0.0774967 1.89842 0
M  V30 14552 H 1348.25 -1.9108 3.38262 0
M  V30 14553 H 1349.92 0.399901 4.59563 0
M  V30 14554 H 1348.16 0.445157 4.3151 0
M  V30 14555 H 1348.83 -0.705732 5.4747 0
M  V30 14556 H 1351.31 -1.67463 3.80914 0
M  V30 14557 H 1350.19 -2.60842 4.82962 0
M  V30 14558 H 1350.45 -3.09092 3.16093 0
M  V30 14559 N 1349.51 -1.55583 -0.251311 0
M  V30 14560 C 1350.46 -1.86337 -1.31387 0
M  V30 14561 C 1351.44 -0.723887 -1.43697 0
M  V30 14562 O 1352.63 -0.985717 -1.47012 0
M  V30 14563 C 1349.76 -2.15772 -2.67016 0
M  V30 14564 C 1348.85 -3.36036 -2.58729 0
M  V30 14565 N 1349.24 -4.55414 -2.20071 0
M  V30 14566 C 1347.54 -3.39058 -2.89751 0
M  V30 14567 C 1348.24 -5.37544 -2.22309 0
M  V30 14568 N 1347.21 -4.76494 -2.61638 0
M  V30 14569 H 1351.01 -2.76168 -1.00541 0
M  V30 14570 H 1348.53 -1.55751 -0.459941 0
M  V30 14571 H 1350.53 -2.35967 -3.43693 0
M  V30 14572 H 1349.19 -1.27237 -2.98732 0
M  V30 14573 H 1350.2 -4.8112 -1.91688 0
M  V30 14574 H 1346.87 -2.60781 -3.26036 0
M  V30 14575 H 1348.26 -6.43042 -1.94798 0
M  V30 14576 N 1350.98 0.516783 -1.48886 0
M  V30 14577 C 1352.23 1.26936 -1.57263 0
M  V30 14578 C 1352.55 1.93337 -0.254156 0
M  V30 14579 O 1351.82 1.81977 0.725345 0
M  V30 14580 H 1350.4 0.4715 -0.579393 0
M  V30 14581 H 1353.06 0.600289 -1.85425 0
M  V30 14582 H 1352.16 2.04167 -2.36055 0
M  V30 14583 N 1352.46 1.37696 0.766659 0
M  V30 14584 C 1353.71 1.33382 1.52765 0
M  V30 14585 C 1354.04 -0.0800569 1.94035 0
M  V30 14586 O 1353.32 -1.03848 1.64456 0
M  V30 14587 C 1353.6 2.2776 2.78922 0
M  V30 14588 C 1353.45 3.77949 2.43874 0
M  V30 14589 C 1354.77 2.20494 3.80881 0
M  V30 14590 H 1351.89 0.485836 0.554195 0
M  V30 14591 H 1354.53 1.68438 0.879119 0
M  V30 14592 H 1352.68 1.97994 3.34261 0
M  V30 14593 H 1354.35 4.18333 1.9441 0
M  V30 14594 H 1352.6 3.96269 1.76503 0
M  V30 14595 H 1353.27 4.39428 3.34077 0
M  V30 14596 H 1355.74 2.46742 3.35048 0
M  V30 14597 H 1354.62 2.88663 4.66867 0
M  V30 14598 H 1354.88 1.19951 4.25516 0
M  V30 14599 N 1353.94 -0.993397 1.22349 0
M  V30 14600 C 1355.17 -1.76581 1.0725 0
M  V30 14601 C 1355.58 -1.85346 -0.379923 0
M  V30 14602 O 1354.92 -1.3224 -1.27508 0
M  V30 14603 C 1354.98 -3.21519 1.60829 0
M  V30 14604 C 1354.65 -3.363 3.09437 0
M  V30 14605 C 1355.64 -3.23655 4.0687 0
M  V30 14606 C 1353.33 -3.61368 3.48882 0
M  V30 14607 C 1355.32 -3.3586 5.41735 0
M  V30 14608 C 1353.01 -3.73214 4.83895 0
M  V30 14609 C 1354.01 -3.60468 5.80131 0
M  V30 14610 O 1353.7 -3.7192 7.12693 0
M  V30 14611 H 1353.43 -0.561407 0.376561 0
M  V30 14612 H 1355.98 -1.25768 1.62393 0
M  V30 14613 H 1354.21 -3.73521 1.00093 0
M  V30 14614 H 1355.9 -3.80475 1.41399 0
M  V30 14615 H 1356.67 -3.04201 3.77739 0
M  V30 14616 H 1352.55 -3.70365 2.74501 0
M  V30 14617 H 1356.09 -3.25829 6.16832 0
M  V30 14618 H 1351.99 -3.92175 5.12707 0
M  V30 14619 H 1352.75 -3.88796 7.20264 0
M  V30 14620 N 1355.42 -1.03311 -1.19015 0
M  V30 14621 C 1356.65 -0.750712 -1.92478 0
M  V30 14622 C 1357.06 0.694964 -1.75974 0
M  V30 14623 O 1356.4 1.4847 -1.08177 0
M  V30 14624 C 1356.46 -1.02757 -3.44501 0
M  V30 14625 C 1356.12 -2.46565 -3.84779 0
M  V30 14626 C 1357.12 -3.44716 -3.89187 0
M  V30 14627 C 1354.81 -2.81076 -4.16295 0
M  V30 14628 C 1356.8 -4.75433 -4.24549 0
M  V30 14629 C 1354.49 -4.12002 -4.51329 0
M  V30 14630 C 1355.49 -5.08991 -4.55431 0
M  V30 14631 O 1355.17 -6.37571 -4.89652 0
M  V30 14632 H 1354.91 -0.273717 -0.618106 0
M  V30 14633 H 1357.46 -1.38176 -1.51975 0
M  V30 14634 H 1355.69 -0.339383 -3.85208 0
M  V30 14635 H 1357.38 -0.734175 -3.99205 0
M  V30 14636 H 1358.14 -3.19392 -3.64985 0
M  V30 14637 H 1354.02 -2.0626 -4.12284 0
M  V30 14638 H 1357.57 -5.51133 -4.27666 0
M  V30 14639 H 1353.46 -4.37098 -4.7499 0
M  V30 14640 H 1354.23 -6.42107 -5.07583 0
M  V30 14641 N 1356.9 1.35099 -0.81154 0
M  V30 14642 C 1358.17 1.93009 -0.317289 0
M  V30 14643 C 1358.55 1.74101 1.19382 0
M  V30 14644 O 1357.9 1.11295 1.99564 0
M  V30 14645 C 1358.11 3.41191 -0.734123 0
M  V30 14646 C 1359.46 4.1834 -0.726437 0
M  V30 14647 O 1360.48 3.49727 -0.67598 0
M  V30 14648 O 1359.34 5.4077 -0.789291 0
M  V30 14649 H 1356.44 0.822707 -0.084153 0
M  V30 14650 H 1358.98 1.44145 -0.895569 0
M  V30 14651 H 1357.75 3.48705 -1.7754 0
M  V30 14652 H 1357.38 3.97384 -0.130919 0
M  V30 14653 N 1358.37 0.56548 1.47106 0
M  V30 14654 C 1359.78 0.134289 1.86216 0
M  V30 14655 C 1360.14 -1.29815 1.47114 0
M  V30 14656 O 1359.26 -1.97787 0.878017 0
M  V30 14657 C 1359.86 0.236931 3.37971 0
M  V30 14658 C 1358.41 -0.139275 3.76142 0
M  V30 14659 C 1357.56 0.580743 2.71151 0
M  V30 14660 H 1360.51 0.774723 1.38505 0
M  V30 14661 H 1360.53 -0.542301 3.76616 0
M  V30 14662 H 1360.05 1.27958 3.66399 0
M  V30 14663 H 1358.15 -1.18272 3.53331 0
M  V30 14664 H 1358.26 0.225045 4.78571 0
M  V30 14665 H 1356.62 0.0228963 2.5469 0
M  V30 14666 H 1357.41 1.62471 3.0242 0
M  V30 14667 N 1359.85 -1.54672 0.302354 0
M  V30 14668 C 1361.08 -2.05041 -0.311891 0
M  V30 14669 C 1361.5 -1.17814 -1.46634 0
M  V30 14670 O 1360.86 -0.182517 -1.80379 0
M  V30 14671 C 1360.91 -3.52831 -0.744489 0
M  V30 14672 O 1360.01 -3.68621 -1.84913 0
M  V30 14673 H 1359.35 -0.661255 -0.0603102 0
M  V30 14674 H 1361.88 -1.99711 0.444593 0
M  V30 14675 H 1361.89 -3.94708 -1.03293 0
M  V30 14676 H 1360.57 -4.1578 0.0999976 0
M  V30 14677 H 1359.15 -3.38649 -1.56113 0
M  V30 14678 N 1361.33 -0.0301034 -1.57571 0
M  V30 14679 C 1362.28 0.951421 -2.10277 0
M  V30 14680 C 1363.25 1.3224 -1.00508 0
M  V30 14681 O 1364.43 1.41554 -1.27934 0
M  V30 14682 C 1361.57 2.2282 -2.63525 0
M  V30 14683 C 1360.69 1.91359 -3.87306 0
M  V30 14684 C 1359.82 3.13339 -4.28943 0
M  V30 14685 C 1358.86 2.77701 -5.4548 0
M  V30 14686 N 1358 3.9231 -5.82269 0
M  V30 14687 H 1362.84 0.495049 -2.93859 0
M  V30 14688 H 1360.37 0.232756 -1.45247 0
M  V30 14689 H 1362.33 2.97502 -2.92487 0
M  V30 14690 H 1360.96 2.66072 -1.82772 0
M  V30 14691 H 1360.01 1.06915 -3.65066 0
M  V30 14692 H 1361.33 1.61112 -4.72064 0
M  V30 14693 H 1360.48 3.9634 -4.59347 0
M  V30 14694 H 1359.22 3.46747 -3.42954 0
M  V30 14695 H 1358.22 1.93113 -5.14769 0
M  V30 14696 H 1359.45 2.45508 -6.33169 0
M  V30 14697 H 1357.39 4.25559 -4.99235 0
M  V30 14698 H 1357.31 3.65691 -6.61669 0
M  V30 14699 H 1358.58 4.76012 -6.17279 0
M  V30 14700 N 1362.81 1.55714 0.243056 0
M  V30 14701 C 1364.09 1.68483 0.993614 0
M  V30 14702 C 1364.47 0.571112 2.03228 0
M  V30 14703 O 1363.81 -0.42491 2.24515 0
M  V30 14704 C 1364.02 3.0894 1.62349 0
M  V30 14705 C 1365.37 3.67663 2.12389 0
M  V30 14706 O 1366.4 3.11764 1.72283 0
M  V30 14707 O 1365.25 4.65664 2.8604 0
M  V30 14708 H 1362.35 0.685415 0.462747 0
M  V30 14709 H 1364.89 1.68043 0.236538 0
M  V30 14710 H 1363.67 3.81451 0.87241 0
M  V30 14711 H 1363.29 3.13407 2.44667 0
M  V30 14712 N 1364.29 -0.50888 1.49158 0
M  V30 14713 C 1365.22 -1.62008 1.68154 0
M  V30 14714 C 1366.2 -1.61624 0.53025 0
M  V30 14715 O 1367.38 -1.78489 0.765205 0
M  V30 14716 C 1364.51 -3.00525 1.74075 0
M  V30 14717 C 1363.47 -3.15773 2.88915 0
M  V30 14718 C 1362.79 -4.55562 2.79942 0
M  V30 14719 C 1364.09 -2.96542 4.29953 0
M  V30 14720 H 1365.79 -1.46365 2.61185 0
M  V30 14721 H 1363.33 -0.702705 1.2569 0
M  V30 14722 H 1365.29 -3.78154 1.8595 0
M  V30 14723 H 1364.01 -3.17238 0.776373 0
M  V30 14724 H 1362.67 -2.40567 2.76628 0
M  V30 14725 H 1362.32 -4.6914 1.81429 0
M  V30 14726 H 1362.02 -4.66706 3.57015 0
M  V30 14727 H 1363.54 -5.35262 2.93814 0
M  V30 14728 H 1364.95 -3.63947 4.42963 0
M  V30 14729 H 1363.35 -3.19164 5.08187 0
M  V30 14730 H 1364.42 -1.92745 4.44946 0
M  V30 14731 N 1365.76 -1.381 -0.759346 0
M  V30 14732 C 1367.01 -1.33311 -1.51364 0
M  V30 14733 C 1367.33 0.0761325 -1.95452 0
M  V30 14734 O 1368.53 0.246541 -2.70378 0
M  V30 14735 C 1366.99 -2.34067 -2.73387 0
M  V30 14736 C 1366.6 -3.80583 -2.36348 0
M  V30 14737 C 1368.34 -2.38311 -3.51295 0
M  V30 14738 C 1366.25 -4.73039 -3.54948 0
M  V30 14739 H 1365.18 -0.495512 -0.568317 0
M  V30 14740 H 1367.83 -1.63625 -0.830602 0
M  V30 14741 H 1366.21 -1.96788 -3.43643 0
M  V30 14742 H 1367.38 -4.26769 -1.73796 0
M  V30 14743 H 1365.7 -3.79403 -1.71587 0
M  V30 14744 H 1368.3 -3.04586 -4.39467 0
M  V30 14745 H 1368.64 -1.40034 -3.92041 0
M  V30 14746 H 1369.17 -2.74361 -2.88047 0
M  V30 14747 H 1365.91 -5.7249 -3.19273 0
M  V30 14748 H 1365.43 -4.3155 -4.16563 0
M  V30 14749 H 1367.11 -4.90775 -4.21603 0
M  V30 14750 N 1367.24 0.986894 -1.22875 0
M  V30 14751 C 1368.21 2.0597 -1.00544 0
M  V30 14752 C 1369.21 1.60771 0.0303509 0
M  V30 14753 O 1370.4 1.72945 -0.208753 0
M  V30 14754 C 1367.53 3.36911 -0.519962 0
M  V30 14755 H 1368.72 2.27213 -1.9574 0
M  V30 14756 H 1366.27 1.15935 -1.04827 0
M  V30 14757 H 1367.01 3.21355 0.436078 0
M  V30 14758 H 1366.79 3.71054 -1.26732 0
M  V30 14759 H 1368.28 4.15829 -0.384166 0
M  V30 14760 N 1368.72 1.0394 1.18466 0
M  V30 14761 C 1369.63 0.639714 2.2571 0
M  V30 14762 C 1370.65 -0.333431 1.70775 0
M  V30 14763 O 1371.82 -0.188676 2.00514 0
M  V30 14764 C 1368.89 0.007559 3.46699 0
M  V30 14765 C 1367.95 1.02955 4.16772 0
M  V30 14766 C 1367.18 0.427464 5.31985 0
M  V30 14767 O 1367.4 -0.766684 5.65224 0
M  V30 14768 O 1366.34 1.15553 5.90704 0
M  V30 14769 H 1370.16 1.53316 2.6216 0
M  V30 14770 H 1367.75 0.810206 1.25523 0
M  V30 14771 H 1369.63 -0.344404 4.1999 0
M  V30 14772 H 1368.31 -0.859727 3.12074 0
M  V30 14773 H 1367.21 1.43328 3.45554 0
M  V30 14774 H 1368.55 1.86756 4.55393 0
M  V30 14775 N 1370.2 -1.34667 0.818693 0
M  V30 14776 C 1371.45 -1.9767 0.401184 0
M  V30 14777 C 1371.76 -1.65644 -1.04027 0
M  V30 14778 O 1372.97 -2.22104 -1.56148 0
M  V30 14779 C 1371.42 -3.53677 0.666398 0
M  V30 14780 C 1371.03 -3.94601 2.12119 0
M  V30 14781 C 1372.77 -4.23331 0.314845 0
M  V30 14782 C 1370.68 -5.43502 2.33151 0
M  V30 14783 H 1369.61 -0.739675 0.146275 0
M  V30 14784 H 1372.26 -1.53568 1.00445 0
M  V30 14785 H 1370.64 -3.95999 -0.00698307 0
M  V30 14786 H 1371.82 -3.63396 2.83338 0
M  V30 14787 H 1370.13 -3.37871 2.43377 0
M  V30 14788 H 1372.73 -5.32804 0.449881 0
M  V30 14789 H 1373.07 -4.09666 -0.740235 0
M  V30 14790 H 1373.61 -3.8647 0.942631 0
M  V30 14791 H 1370.35 -5.62148 3.37149 0
M  V30 14792 H 1369.87 -5.76236 1.66471 0
M  V30 14793 H 1371.54 -6.10127 2.153 0
M  V30 14794 N 1371.68 -0.573274 -1.46804 0
M  V30 14795 C 1372.61 0.20305 -2.28299 0
M  V30 14796 C 1373.62 0.864367 -1.37958 0
M  V30 14797 O 1374.81 0.735516 -1.62642 0
M  V30 14798 C 1371.91 1.30633 -3.12711 0
M  V30 14799 C 1371.08 0.738741 -4.31116 0
M  V30 14800 C 1370.14 1.72853 -4.96999 0
M  V30 14801 O 1369.17 1.2683 -5.5489 0
M  V30 14802 N 1370.37 3.06239 -4.93151 0
M  V30 14803 H 1373.14 -0.496086 -2.95566 0
M  V30 14804 H 1370.7 -0.410411 -1.56612 0
M  V30 14805 H 1372.69 1.96755 -3.53652 0
M  V30 14806 H 1371.26 1.90846 -2.47581 0
M  V30 14807 H 1370.48 -0.0996941 -3.94074 0
M  V30 14808 H 1371.77 0.339154 -5.07668 0
M  V30 14809 H 1371.16 3.46262 -4.47347 0
M  V30 14810 H 1369.72 3.67876 -5.38062 0
M  V30 14811 N 1373.15 1.5451 -0.310553 0
M  V30 14812 C 1374.1 2.23871 0.561277 0
M  V30 14813 C 1375.07 1.22475 1.12202 0
M  V30 14814 O 1376.26 1.51121 1.16477 0
M  V30 14815 C 1373.4 2.99029 1.72267 0
M  V30 14816 C 1372.51 4.15218 1.19241 0
M  V30 14817 C 1371.64 4.77935 2.31843 0
M  V30 14818 C 1370.68 5.86251 1.75999 0
M  V30 14819 N 1369.82 6.42885 2.82212 0
M  V30 14820 H 1374.66 2.97977 -0.0367998 0
M  V30 14821 H 1372.2 1.4707 -0.0299317 0
M  V30 14822 H 1374.16 3.40842 2.40588 0
M  V30 14823 H 1372.79 2.27281 2.29223 0
M  V30 14824 H 1371.84 3.78279 0.401148 0
M  V30 14825 H 1373.15 4.93225 0.743675 0
M  V30 14826 H 1372.3 5.2265 3.08094 0
M  V30 14827 H 1371.04 3.99281 2.80047 0
M  V30 14828 H 1370.05 5.40952 0.982415 0
M  V30 14829 H 1371.27 6.66795 1.28688 0
M  V30 14830 H 1369.22 5.67109 3.29732 0
M  V30 14831 H 1369.14 7.16267 2.41864 0
M  V30 14832 H 1370.4 6.92256 3.58332 0
M  V30 14833 N 1374.63 0.0384594 1.57553 0
M  V30 14834 C 1375.57 -0.969185 2.077 0
M  V30 14835 C 1376.58 -1.2829 1.00227 0
M  V30 14836 O 1377.77 -1.24592 1.27824 0
M  V30 14837 C 1374.87 -2.29414 2.49444 0
M  V30 14838 C 1374.04 -2.16422 3.80106 0
M  V30 14839 C 1373.1 -3.31931 4.08299 0
M  V30 14840 O 1372.13 -3.08401 4.78412 0
M  V30 14841 N 1373.33 -4.56015 3.59208 0
M  V30 14842 H 1376.09 -0.541252 2.94772 0
M  V30 14843 H 1373.65 -0.148084 1.61221 0
M  V30 14844 H 1375.65 -3.05533 2.6539 0
M  V30 14845 H 1374.22 -2.63817 1.67688 0
M  V30 14846 H 1373.44 -1.24973 3.73866 0
M  V30 14847 H 1374.72 -2.04954 4.65694 0
M  V30 14848 H 1374.12 -4.78025 3.02503 0
M  V30 14849 H 1372.68 -5.29271 3.80415 0
M  V30 14850 N 1376.11 -1.55841 -0.234795 0
M  V30 14851 C 1377.36 -1.77886 -0.959217 0
M  V30 14852 C 1377.68 -0.604621 -1.8539 0
M  V30 14853 O 1376.95 0.379092 -1.92197 0
M  V30 14854 H 1375.53 -0.656077 -0.357172 0
M  V30 14855 H 1378.19 -1.93292 -0.249831 0
M  V30 14856 H 1377.29 -2.69512 -1.57383 0
M  V30 14857 N 1377.59 0.500963 -1.49426 0
M  V30 14858 C 1378.52 1.6192 -1.62217 0
M  V30 14859 C 1379.53 1.54774 -0.504868 0
M  V30 14860 O 1380.72 1.60705 -0.776919 0
M  V30 14861 C 1377.82 3.0071 -1.56291 0
M  V30 14862 C 1377 3.3304 -2.83555 0
M  V30 14863 C 1376.06 4.51241 -2.7068 0
M  V30 14864 O 1375.08 4.53023 -3.44615 0
M  V30 14865 N 1376.28 5.51156 -1.82228 0
M  V30 14866 H 1379.05 1.51374 -2.58662 0
M  V30 14867 H 1376.61 0.688837 -1.46515 0
M  V30 14868 H 1378.6 3.77705 -1.45332 0
M  V30 14869 H 1377.17 3.0518 -0.677043 0
M  V30 14870 H 1376.39 2.44942 -3.08865 0
M  V30 14871 H 1377.68 3.51437 -3.67926 0
M  V30 14872 H 1377.08 5.52516 -1.21417 0
M  V30 14873 H 1375.63 6.27253 -1.77192 0
M  V30 14874 N 1379.07 1.38501 0.752011 0
M  V30 14875 C 1380.32 1.34529 1.50819 0
M  V30 14876 C 1380.64 -0.0636155 1.94896 0
M  V30 14877 O 1379.91 -1.01161 1.6776 0
M  V30 14878 H 1378.49 0.49501 0.559441 0
M  V30 14879 H 1381.15 1.73196 0.893822 0
M  V30 14880 H 1380.24 1.99713 2.39835 0
M  V30 14881 N 1380.55 -0.980364 1.23396 0
M  V30 14882 C 1381.48 -2.07522 0.972991 0
M  V30 14883 C 1382.49 -1.62714 -0.0530191 0
M  V30 14884 O 1383.68 -1.77564 0.182513 0
M  V30 14885 C 1380.78 -3.35977 0.444126 0
M  V30 14886 C 1379.95 -4.09756 1.53031 0
M  V30 14887 C 1379.01 -5.16488 1.00631 0
M  V30 14888 O 1378.04 -5.43368 1.69529 0
M  V30 14889 N 1379.24 -5.80263 -0.165842 0
M  V30 14890 H 1382 -2.30487 1.91561 0
M  V30 14891 H 1379.57 -1.14706 1.14255 0
M  V30 14892 H 1381.56 -4.04624 0.078617 0
M  V30 14893 H 1380.13 -3.0998 -0.403912 0
M  V30 14894 H 1379.35 -3.35564 2.06858 0
M  V30 14895 H 1380.64 -4.55815 2.26076 0
M  V30 14896 H 1380.03 -5.60811 -0.742162 0
M  V30 14897 H 1378.59 -6.50084 -0.472614 0
M  V30 14898 N 1382.02 -1.04567 -1.17913 0
M  V30 14899 C 1383.27 -0.762914 -1.8855 0
M  V30 14900 C 1383.62 0.702052 -1.79134 0
M  V30 14901 O 1382.92 1.50622 -1.18421 0
M  V30 14902 C 1383.11 -1.1699 -3.3771 0
M  V30 14903 C 1382.94 -2.67289 -3.61645 0
M  V30 14904 C 1381.71 -3.34508 -3.78724 0
M  V30 14905 C 1383.91 -3.6551 -3.61811 0
M  V30 14906 N 1381.89 -4.73736 -3.90445 0
M  V30 14907 C 1383.26 -4.90436 -3.79306 0
M  V30 14908 C 1385.32 -3.59068 -3.44927 0
M  V30 14909 C 1384.02 -6.09693 -3.81663 0
M  V30 14910 C 1386.05 -4.77758 -3.4857 0
M  V30 14911 C 1385.41 -6.01505 -3.66566 0
M  V30 14912 H 1381.51 -0.331303 -0.708352 0
M  V30 14913 H 1384.09 -1.33636 -1.41596 0
M  V30 14914 H 1382.26 -0.62448 -3.83347 0
M  V30 14915 H 1383.99 -0.837634 -3.95937 0
M  V30 14916 H 1380.75 -2.84911 -3.78316 0
M  V30 14917 H 1381.17 -5.46111 -4.00115 0
M  V30 14918 H 1385.81 -2.64366 -3.29955 0
M  V30 14919 H 1383.53 -7.04746 -3.95422 0
M  V30 14920 H 1387.12 -4.74421 -3.36773 0
M  V30 14921 H 1386 -6.9181 -3.69281 0
M  V30 14922 N 1383.5 1.34231 -0.825823 0
M  V30 14923 C 1384.73 2.02417 -0.428348 0
M  V30 14924 C 1385.14 1.62181 0.966573 0
M  V30 14925 O 1384.5 0.828691 1.62601 0
M  V30 14926 C 1384.55 3.57678 -0.524271 0
M  V30 14927 O 1384.27 3.96458 -1.86422 0
M  V30 14928 C 1385.77 4.43132 -0.122069 0
M  V30 14929 H 1382.99 0.648699 -0.171554 0
M  V30 14930 H 1385.54 1.71443 -1.11478 0
M  V30 14931 H 1383.69 3.87232 0.114112 0
M  V30 14932 H 1384.11 4.91147 -1.84051 0
M  V30 14933 H 1385.58 5.51477 -0.240264 0
M  V30 14934 H 1386.06 4.29139 0.934705 0
M  V30 14935 H 1386.66 4.18912 -0.734366 0
M  V30 14936 N 1384.98 0.581051 1.46498 0
M  V30 14937 C 1386.21 0.0714615 2.06476 0
M  V30 14938 C 1386.62 -1.23815 1.43061 0
M  V30 14939 O 1385.96 -1.75903 0.529504 0
M  V30 14940 C 1386.02 -0.170353 3.59096 0
M  V30 14941 C 1385.69 1.05341 4.44694 0
M  V30 14942 C 1386.68 1.96503 4.81334 0
M  V30 14943 C 1384.37 1.27479 4.85854 0
M  V30 14944 C 1386.36 3.08154 5.57961 0
M  V30 14945 C 1384.05 2.39434 5.62241 0
M  V30 14946 C 1385.05 3.29601 5.98207 0
M  V30 14947 O 1384.74 4.39612 6.7305 0
M  V30 14948 H 1384.47 0.0537502 0.67386 0
M  V30 14949 H 1387.02 0.800993 1.89138 0
M  V30 14950 H 1385.25 -0.954477 3.74735 0
M  V30 14951 H 1386.94 -0.628248 4.01009 0
M  V30 14952 H 1387.71 1.80615 4.50115 0
M  V30 14953 H 1383.59 0.582051 4.57311 0
M  V30 14954 H 1387.13 3.78557 5.85953 0
M  V30 14955 H 1383.03 2.55286 5.92874 0
M  V30 14956 H 1383.79 4.37959 6.91473 0
M  V30 14957 N 1386.46 -1.54343 0.318742 0
M  V30 14958 C 1387.39 -2.21652 -0.583351 0
M  V30 14959 C 1388.4 -1.21494 -1.08366 0
M  V30 14960 O 1389.59 -1.4799 -0.998064 0
M  V30 14961 C 1386.69 -2.86349 -1.81266 0
M  V30 14962 C 1385.86 -4.12601 -1.45186 0
M  V30 14963 C 1384.92 -4.60937 -2.53818 0
M  V30 14964 O 1383.95 -5.25731 -2.18164 0
M  V30 14965 N 1385.15 -4.34755 -3.84667 0
M  V30 14966 H 1387.92 -2.99699 -0.00703539 0
M  V30 14967 H 1385.48 -1.61278 0.141728 0
M  V30 14968 H 1387.47 -3.15611 -2.53321 0
M  V30 14969 H 1386.04 -2.12037 -2.29693 0
M  V30 14970 H 1385.26 -3.90157 -0.563143 0
M  V30 14971 H 1386.55 -4.94774 -1.18642 0
M  V30 14972 H 1385.95 -3.82883 -4.16434 0
M  V30 14973 H 1384.5 -4.68683 -4.52967 0
M  V30 14974 N 1387.94 -0.0468143 -1.5753 0
M  V30 14975 C 1389.18 0.627375 -1.91695 0
M  V30 14976 C 1389.5 1.72261 -0.926588 0
M  V30 14977 O 1390.7 2.45466 -1.16012 0
M  V30 14978 C 1389.16 1.16722 -3.40447 0
M  V30 14979 C 1388.77 0.104335 -4.47878 0
M  V30 14980 C 1390.51 1.81691 -3.83652 0
M  V30 14981 C 1388.42 0.656818 -5.87741 0
M  V30 14982 H 1387.35 0.238107 -0.715417 0
M  V30 14983 H 1390 -0.114995 -1.83139 0
M  V30 14984 H 1388.38 1.96177 -3.43992 0
M  V30 14985 H 1389.56 -0.669053 -4.55917 0
M  V30 14986 H 1387.87 -0.447633 -4.13987 0
M  V30 14987 H 1390.47 2.24014 -4.85512 0
M  V30 14988 H 1390.81 2.66686 -3.19663 0
M  V30 14989 H 1391.34 1.08898 -3.82604 0
M  V30 14990 H 1388.08 -0.155397 -6.55316 0
M  V30 14991 H 1387.6 1.39829 -5.83273 0
M  V30 14992 H 1389.28 1.14107 -6.36858 0
M  V30 14993 N 1389.41 1.55964 0.226527 0
M  V30 14994 C 1390.64 1.82558 0.967269 0
M  V30 14995 C 1391.05 0.623034 1.78647 0
M  V30 14996 O 1390.4 -0.41779 1.78886 0
M  V30 14997 C 1390.46 3.02812 1.93766 0
M  V30 14998 C 1390.12 4.38017 1.30345 0
M  V30 14999 C 1391.12 5.15223 0.695793 0
M  V30 15000 C 1388.8 4.84735 1.31671 0
M  V30 15001 C 1390.8 6.37305 0.109849 0
M  V30 15002 C 1388.48 6.06761 0.726919 0
M  V30 15003 C 1389.48 6.82886 0.124537 0
M  V30 15004 O 1389.17 8.02605 -0.45609 0
M  V30 15005 H 1388.9 0.610967 0.289301 0
M  V30 15006 H 1391.46 2.03892 0.248407 0
M  V30 15007 H 1389.69 2.77283 2.69538 0
M  V30 15008 H 1391.38 3.16321 2.54353 0
M  V30 15009 H 1392.14 4.80239 0.677912 0
M  V30 15010 H 1388.02 4.2546 1.77496 0
M  V30 15011 H 1391.56 6.96666 -0.360953 0
M  V30 15012 H 1387.46 6.41219 0.742196 0
M  V30 15013 H 1388.23 8.17752 -0.349926 0
M  V30 15014 N 1390.89 -0.493031 1.4969 0
M  V30 15015 C 1391.82 -1.61058 1.63074 0
M  V30 15016 C 1392.84 -1.54504 0.513069 0
M  V30 15017 O 1394.03 -1.60291 0.785431 0
M  V30 15018 C 1391.13 -2.99877 1.57883 0
M  V30 15019 C 1390.3 -3.31531 2.85317 0
M  V30 15020 C 1389.36 -4.49799 2.7307 0
M  V30 15021 O 1388.38 -4.51189 3.47012 0
M  V30 15022 N 1389.59 -5.50182 1.85148 0
M  V30 15023 H 1392.35 -1.5 2.59461 0
M  V30 15024 H 1389.91 -0.681057 1.46878 0
M  V30 15025 H 1391.9 -3.76928 1.47333 0
M  V30 15026 H 1390.47 -3.04817 0.693218 0
M  V30 15027 H 1389.69 -2.433 3.10159 0
M  V30 15028 H 1390.98 -3.49481 3.69784 0
M  V30 15029 H 1390.38 -5.51865 1.24345 0
M  V30 15030 H 1388.94 -6.26305 1.80516 0
M  V30 15031 N 1392.37 -1.38898 -0.744656 0
M  V30 15032 C 1393.28 -1.39098 -1.88915 0
M  V30 15033 C 1394.3 -0.286956 -1.71617 0
M  V30 15034 O 1395.47 -0.526852 -1.94387 0
M  V30 15035 C 1392.54 -1.22352 -3.24393 0
M  V30 15036 C 1391.6 -2.4264 -3.54153 0
M  V30 15037 C 1390.83 -2.26683 -4.83167 0
M  V30 15038 O 1391.05 -1.26523 -5.56191 0
M  V30 15039 O 1389.99 -3.15464 -5.12607 0
M  V30 15040 H 1393.81 -2.35551 -1.91701 0
M  V30 15041 H 1391.4 -1.19911 -0.891158 0
M  V30 15042 H 1393.28 -1.15109 -4.05374 0
M  V30 15043 H 1391.96 -0.289886 -3.22399 0
M  V30 15044 H 1390.86 -2.55459 -2.73298 0
M  V30 15045 H 1392.2 -3.34664 -3.60917 0
M  V30 15046 N 1393.85 0.973806 -1.23914 0
M  V30 15047 C 1395.26 1.53057 -1.06913 0
M  V30 15048 C 1395.61 1.92842 0.361423 0
M  V30 15049 O 1394.74 1.76716 1.24901 0
M  V30 15050 C 1395.33 2.78137 -1.93457 0
M  V30 15051 C 1393.89 3.3019 -1.80697 0
M  V30 15052 C 1393.04 2.03137 -1.88761 0
M  V30 15053 H 1395.99 0.792767 -1.37481 0
M  V30 15054 H 1396.01 3.5124 -1.46325 0
M  V30 15055 H 1395.52 2.49149 -2.97568 0
M  V30 15056 H 1393.62 3.64043 -0.793951 0
M  V30 15057 H 1393.73 3.99503 -2.64451 0
M  V30 15058 H 1392.1 2.17572 -1.32418 0
M  V30 15059 H 1392.88 1.76522 -2.9444 0
M  V30 15060 N 1395.33 1.05191 1.17357 0
M  V30 15061 C 1396.57 0.761984 1.87617 0
M  V30 15062 C 1396.9 -0.710976 1.8104 0
M  V30 15063 O 1396.16 -1.53566 1.21309 0
M  V30 15064 C 1396.46 1.18779 3.37085 0
M  V30 15065 C 1396.12 2.66296 3.63864 0
M  V30 15066 C 1394.78 3.06594 3.70882 0
M  V30 15067 C 1397.14 3.61622 3.75339 0
M  V30 15068 C 1394.46 4.41081 3.86865 0
M  V30 15069 C 1396.82 4.95842 3.9284 0
M  V30 15070 C 1395.48 5.35793 3.98097 0
M  V30 15071 H 1394.75 0.27883 0.686538 0
M  V30 15072 H 1397.4 1.31899 1.38834 0
M  V30 15073 H 1395.7 0.549782 3.87923 0
M  V30 15074 H 1397.4 0.940667 3.89811 0
M  V30 15075 H 1393.99 2.34089 3.59027 0
M  V30 15076 H 1398.17 3.31628 3.69238 0
M  V30 15077 H 1393.43 4.71536 3.89183 0
M  V30 15078 H 1397.6 5.696 4.00661 0
M  V30 15079 H 1395.23 6.40009 4.10234 0
M  V30 15080 N 1396.8 -1.33791 0.83293 0
M  V30 15081 C 1397.75 -2.29332 0.25989 0
M  V30 15082 C 1398.72 -1.54056 -0.620965 0
M  V30 15083 O 1399.91 -1.82382 -0.560492 0
M  V30 15084 C 1397.05 -3.40461 -0.563964 0
M  V30 15085 C 1396.16 -4.30658 0.34025 0
M  V30 15086 C 1395.29 -5.28897 -0.494134 0
M  V30 15087 C 1394.33 -6.10733 0.408842 0
M  V30 15088 N 1393.47 -7.01032 -0.38706 0
M  V30 15089 H 1398.31 -2.77743 1.07996 0
M  V30 15090 H 1395.85 -1.3667 0.544043 0
M  V30 15091 H 1397.81 -4.03587 -1.05704 0
M  V30 15092 H 1396.44 -2.93258 -1.34905 0
M  V30 15093 H 1395.49 -3.68305 0.9516 0
M  V30 15094 H 1396.8 -4.87962 1.03415 0
M  V30 15095 H 1395.95 -5.97522 -1.05128 0
M  V30 15096 H 1394.69 -4.72155 -1.2215 0
M  V30 15097 H 1393.7 -5.41031 0.978046 0
M  V30 15098 H 1394.92 -6.69557 1.13448 0
M  V30 15099 H 1392.87 -6.46747 -1.09792 0
M  V30 15100 H 1392.79 -7.55592 0.248249 0
M  V30 15101 H 1394.05 -7.73973 -0.926631 0
M  V30 15102 N 1398.28 -0.588812 -1.46187 0
M  V30 15103 C 1399.23 0.153638 -2.32092 0
M  V30 15104 C 1400.22 0.878346 -1.4485 0
M  V30 15105 O 1401.43 0.796042 -1.61441 0
M  V30 15106 H 1397.81 0.0684129 -0.748882 0
M  V30 15107 H 1399.78 -0.58961 -2.92517 0
M  V30 15108 C 1398.53 1.15003 -3.28131 0
M  V30 15109 H 1397.85 0.601804 -3.95245 0
M  V30 15110 H 1399.29 1.6398 -3.91007 0
M  V30 15111 C 1397.75 2.21411 -2.53926 0
M  V30 15112 O 1398.28 3.28862 -2.30679 0
M  V30 15113 N 1396.48 1.96184 -2.14383 0
M  V30 15114 H 1396.03 1.08812 -2.3349 0
M  V30 15115 H 1395.99 2.6759 -1.65055 0
M  V30 15116 N 1399.76 1.54172 -0.326923 0
M  V30 15117 C 1400.69 2.27402 0.530154 0
M  V30 15118 C 1401.67 1.28325 1.11655 0
M  V30 15119 O 1402.86 1.57142 1.14105 0
M  V30 15120 C 1399.99 3.03435 1.68951 0
M  V30 15121 C 1398.94 4.09877 1.23226 0
M  V30 15122 C 1398.27 4.7377 2.47882 0
M  V30 15123 C 1399.57 5.21161 0.344698 0
M  V30 15124 H 1401.26 2.99291 -0.0806959 0
M  V30 15125 H 1398.81 1.43944 -0.0402511 0
M  V30 15126 H 1400.76 3.53396 2.29541 0
M  V30 15127 H 1399.48 2.29169 2.327 0
M  V30 15128 H 1398.14 3.60805 0.649267 0
M  V30 15129 H 1397.79 3.96116 3.10002 0
M  V30 15130 H 1397.49 5.45674 2.17977 0
M  V30 15131 H 1399.01 5.26507 3.09229 0
M  V30 15132 H 1400.43 5.66859 0.856979 0
M  V30 15133 H 1398.83 5.99941 0.138276 0
M  V30 15134 H 1399.9 4.80874 -0.623575 0
M  V30 15135 N 1401.24 0.0551678 1.57503 0
M  V30 15136 C 1402.19 -0.917847 2.11764 0
M  V30 15137 C 1403.16 -1.30624 1.02599 0
M  V30 15138 O 1404.34 -1.39501 1.30169 0
M  V30 15139 C 1401.48 -2.18599 2.67036 0
M  V30 15140 C 1400.59 -1.85173 3.90301 0
M  V30 15141 C 1399.73 -3.06475 4.33874 0
M  V30 15142 C 1398.77 -2.68988 5.49829 0
M  V30 15143 N 1397.9 -3.82997 5.88437 0
M  V30 15144 H 1402.74 -0.448236 2.9461 0
M  V30 15145 H 1400.28 -0.209619 1.45599 0
M  V30 15146 H 1402.24 -2.92811 2.97183 0
M  V30 15147 H 1400.87 -2.6313 1.86982 0
M  V30 15148 H 1399.92 -1.01094 3.66721 0
M  V30 15149 H 1401.23 -1.53582 4.74567 0
M  V30 15150 H 1400.39 -3.88982 4.65594 0
M  V30 15151 H 1399.13 -3.41247 3.48427 0
M  V30 15152 H 1398.13 -1.84899 5.17776 0
M  V30 15153 H 1399.36 -2.35404 6.36994 0
M  V30 15154 H 1397.3 -4.17562 5.05942 0
M  V30 15155 H 1397.22 -3.55118 6.67403 0
M  V30 15156 H 1398.49 -4.66131 6.24773 0
M  V30 15157 N 1402.72 -1.56081 -0.218252 0
M  V30 15158 C 1403.94 -1.83334 -0.958964 0
M  V30 15159 C 1404.36 -0.63472 -1.77811 0
M  V30 15160 O 1403.72 0.396729 -1.78136 0
M  V30 15161 C 1403.77 -3.09141 -1.87387 0
M  V30 15162 O 1403.49 -4.24379 -1.08783 0
M  V30 15163 C 1404.99 -3.49405 -2.7282 0
M  V30 15164 H 1402.21 -0.609375 -0.280898 0
M  V30 15165 H 1404.75 -2.03174 -0.232486 0
M  V30 15166 H 1402.91 -2.91267 -2.55426 0
M  V30 15167 H 1403.32 -4.9587 -1.70919 0
M  V30 15168 H 1404.8 -4.40461 -3.32713 0
M  V30 15169 H 1405.27 -2.71311 -3.45379 0
M  V30 15170 H 1405.88 -3.6973 -2.1019 0
M  V30 15171 N 1404.2 0.485086 -1.49949 0
M  V30 15172 C 1405.44 1.23571 -1.5992 0
M  V30 15173 C 1405.76 1.92754 -0.295108 0
M  V30 15174 O 1405.03 1.83474 0.686582 0
M  V30 15175 H 1403.61 0.459104 -0.589264 0
M  V30 15176 H 1406.28 0.560822 -1.86657 0
M  V30 15177 H 1405.37 1.99114 -2.40333 0
M  V30 15178 N 1405.67 1.39291 0.737279 0
M  V30 15179 C 1406.62 1.37829 1.85127 0
M  V30 15180 C 1407.59 0.238321 1.64381 0
M  V30 15181 O 1408.78 0.433081 1.8582 0
M  V30 15182 C 1405.92 1.22531 3.22615 0
M  V30 15183 C 1405.03 2.46052 3.55081 0
M  V30 15184 C 1404.16 2.2336 4.81958 0
M  V30 15185 C 1403.2 3.42569 5.0726 0
M  V30 15186 N 1402.34 3.19209 6.2534 0
M  V30 15187 H 1407.18 2.33056 1.85712 0
M  V30 15188 H 1404.72 1.15772 0.907484 0
M  V30 15189 H 1406.67 1.11673 4.01976 0
M  V30 15190 H 1405.3 0.30934 3.21314 0
M  V30 15191 H 1404.36 2.67521 2.70438 0
M  V30 15192 H 1405.67 3.3485 3.69698 0
M  V30 15193 H 1404.82 2.09732 5.69295 0
M  V30 15194 H 1403.56 1.31953 4.6951 0
M  V30 15195 H 1402.57 3.56698 4.18386 0
M  V30 15196 H 1403.79 4.34874 5.21595 0
M  V30 15197 H 1401.74 2.30464 6.14184 0
M  V30 15198 H 1401.65 4.01562 6.40534 0
M  V30 15199 H 1402.92 3.09269 7.15523 0
M  V30 15200 N 1407.15 -0.967221 1.24429 0
M  V30 15201 C 1408.38 -1.74267 1.10972 0
M  V30 15202 C 1408.79 -1.8611 -0.340522 0
M  V30 15203 O 1408.13 -1.34915 -1.24674 0
M  V30 15204 C 1408.19 -3.18035 1.67613 0
M  V30 15205 C 1407.86 -3.29661 3.16501 0
M  V30 15206 C 1408.86 -3.14952 4.13644 0
M  V30 15207 C 1406.54 -3.53886 3.56469 0
M  V30 15208 C 1408.53 -3.24294 5.48737 0
M  V30 15209 C 1406.22 -3.62866 4.91703 0
M  V30 15210 C 1407.22 -3.48082 5.87646 0
M  V30 15211 O 1406.91 -3.56719 7.20421 0
M  V30 15212 H 1406.64 -0.553293 0.388384 0
M  V30 15213 H 1409.19 -1.22295 1.65025 0
M  V30 15214 H 1407.42 -3.71314 1.07994 0
M  V30 15215 H 1409.11 -3.7739 1.49438 0
M  V30 15216 H 1409.88 -2.9612 3.84107 0
M  V30 15217 H 1405.76 -3.64459 2.82295 0
M  V30 15218 H 1409.3 -3.12672 6.23604 0
M  V30 15219 H 1405.2 -3.81212 5.20911 0
M  V30 15220 H 1405.97 -3.73431 7.28349 0
M  V30 15221 N 1408.63 -1.05812 -1.16797 0
M  V30 15222 C 1409.59 -0.668766 -2.19226 0
M  V30 15223 C 1410.59 0.28299 -1.5829 0
M  V30 15224 O 1411.78 0.0660233 -1.74075 0
M  V30 15225 C 1408.91 0.0167379 -3.40896 0
M  V30 15226 H 1410.11 -1.57543 -2.55187 0
M  V30 15227 H 1407.66 -0.852753 -1.30988 0
M  V30 15228 H 1408.4 0.936382 -3.10487 0
M  V30 15229 H 1408.18 -0.667576 -3.86375 0
M  V30 15230 H 1409.67 0.275041 -4.16693 0
M  V30 15231 N 1410.11 1.33347 -0.840014 0
M  V30 15232 C 1411.52 1.50615 -0.52795 0
M  V30 15233 C 1411.72 1.77993 0.944493 0
M  V30 15234 O 1410.78 1.84087 1.72824 0
M  V30 15235 C 1412.09 2.66001 -1.40228 0
M  V30 15236 C 1413.64 2.79886 -1.40117 0
M  V30 15237 C 1414.12 3.98335 -2.26038 0
M  V30 15238 N 1415.61 4.05572 -2.23753 0
M  V30 15239 C 1416.34 4.96422 -2.86972 0
M  V30 15240 N 1415.84 5.9238 -3.59247 0
M  V30 15241 N 1417.63 4.89428 -2.76436 0
M  V30 15242 H 1409.78 1.13839 -1.79317 0
M  V30 15243 H 1412.04 0.559772 -0.765088 0
M  V30 15244 H 1411.75 2.52453 -2.44868 0
M  V30 15245 H 1411.62 3.61434 -1.07914 0
M  V30 15246 H 1414.01 2.92865 -0.362487 0
M  V30 15247 H 1414.09 1.85211 -1.76439 0
M  V30 15248 H 1413.74 3.86115 -3.29966 0
M  V30 15249 H 1413.67 4.92257 -1.87057 0
M  V30 15250 H 1416.16 3.36899 -1.71195 0
M  V30 15251 H 1416.47 6.58367 -4.04688 0
M  V30 15252 H 1414.82 5.92451 -3.63354 0
M  V30 15253 H 1418.01 4.13428 -2.19534 0
M  V30 15254 H 1418.18 5.60032 -3.25989 0
M  V30 15255 N 1411.59 0.596556 1.45873 0
M  V30 15256 C 1412.52 -0.177354 2.2751 0
M  V30 15257 C 1413.5 -0.883999 1.36471 0
M  V30 15258 O 1414.68 -0.895098 1.65892 0
M  V30 15259 C 1411.81 -1.25567 3.14564 0
M  V30 15260 C 1410.85 -0.653363 4.21466 0
M  V30 15261 S 1411.69 0.53036 5.32867 0
M  V30 15262 C 1412.84 -0.548817 6.23489 0
M  V30 15263 H 1413.08 0.515289 2.928 0
M  V30 15264 H 1410.61 0.383791 1.49554 0
M  V30 15265 H 1412.57 -1.87298 3.6528 0
M  V30 15266 H 1411.23 -1.92033 2.4856 0
M  V30 15267 H 1410.42 -1.46435 4.82258 0
M  V30 15268 H 1410.02 -0.111425 3.73834 0
M  V30 15269 H 1412.31 -1.43085 6.62218 0
M  V30 15270 H 1413.26 0.0226785 7.08096 0
M  V30 15271 H 1413.67 -0.859188 5.57923 0
M  V30 15272 N 1413.06 -1.53996 0.335095 0
M  V30 15273 C 1414.48 -1.59591 -0.0171422 0
M  V30 15274 C 1414.68 -1.35132 -1.49471 0
M  V30 15275 O 1413.74 -1.14141 -2.25229 0
M  V30 15276 C 1415.05 -2.97872 0.411443 0
M  V30 15277 C 1416.6 -3.10887 0.363072 0
M  V30 15278 C 1417.07 -4.51532 0.766995 0
M  V30 15279 N 1418.56 -4.57557 0.72085 0
M  V30 15280 C 1419.3 -5.64516 1.00544 0
M  V30 15281 N 1418.79 -6.79365 1.35777 0
M  V30 15282 N 1420.59 -5.54349 0.930243 0
M  V30 15283 H 1412.74 -1.68151 1.29766 0
M  V30 15284 H 1415 -0.787067 0.528422 0
M  V30 15285 H 1414.71 -3.20809 1.44134 0
M  V30 15286 H 1414.58 -3.76571 -0.217678 0
M  V30 15287 H 1416.97 -2.87679 -0.657642 0
M  V30 15288 H 1417.05 -2.34266 1.02728 0
M  V30 15289 H 1416.69 -4.75474 1.78568 0
M  V30 15290 H 1416.62 -5.26539 0.0803511 0
M  V30 15291 H 1419.11 -3.75079 0.460867 0
M  V30 15292 H 1419.43 -7.56891 1.55999 0
M  V30 15293 H 1417.77 -6.80833 1.39614 0
M  V30 15294 H 1420.96 -4.63503 0.654402 0
M  V30 15295 H 1421.14 -6.37616 1.15539 0
M  V30 15296 N 1414.54 -0.0635198 -1.57472 0
M  V30 15297 C 1415.79 0.606285 -1.92792 0
M  V30 15298 C 1416.11 1.70648 -0.943615 0
M  V30 15299 O 1415.38 1.95898 0.00957612 0
M  V30 15300 H 1413.96 0.226943 -0.711692 0
M  V30 15301 H 1416.62 -0.119429 -1.94534 0
M  V30 15302 H 1415.72 1.03694 -2.9437 0
M  V30 15303 N 1416.02 1.56195 0.209972 0
M  V30 15304 C 1416.98 1.92514 1.24383 0
M  V30 15305 C 1417.98 0.804793 1.39211 0
M  V30 15306 O 1419.17 1.0724 1.37278 0
M  V30 15307 C 1416.3 2.18613 2.61574 0
M  V30 15308 H 1417.5 2.84992 0.933781 0
M  V30 15309 H 1415.05 1.49656 0.450878 0
M  V30 15310 H 1415.79 1.28724 2.97659 0
M  V30 15311 H 1415.57 3.00241 2.52186 0
M  V30 15312 H 1417.06 2.47767 3.36156 0
M  V30 15313 N 1417.5 -0.477127 1.50204 0
M  V30 15314 C 1418.45 -1.57334 1.65015 0
M  V30 15315 C 1419.43 -1.52771 0.504953 0
M  V30 15316 O 1420.62 -1.59897 0.759072 0
M  V30 15317 C 1417.75 -2.95815 1.74208 0
M  V30 15318 C 1416.84 -3.05284 2.94385 0
M  V30 15319 N 1417.23 -2.84582 4.18147 0
M  V30 15320 C 1415.53 -3.36413 2.92817 0
M  V30 15321 C 1416.23 -2.98859 4.99057 0
M  V30 15322 N 1415.2 -3.28794 4.32892 0
M  V30 15323 H 1419.01 -1.40018 2.58403 0
M  V30 15324 H 1416.52 -0.68374 1.47305 0
M  V30 15325 H 1418.52 -3.74627 1.82921 0
M  V30 15326 H 1417.18 -3.14182 0.819746 0
M  V30 15327 H 1418.19 -2.60282 4.47743 0
M  V30 15328 H 1414.87 -3.60806 2.1006 0
M  V30 15329 H 1416.26 -2.87144 6.07452 0
M  V30 15330 N 1418.98 -1.3968 -0.729882 0
M  V30 15331 C 1420.2 -1.40467 -1.5191 0
M  V30 15332 C 1420.62 -0.000529943 -1.888 0
M  V30 15333 O 1419.98 0.972072 -1.54457 0
M  V30 15334 C 1420.03 -2.2823 -2.80345 0
M  V30 15335 O 1419.75 -3.63176 -2.4502 0
M  V30 15336 C 1421.25 -2.37455 -3.74339 0
M  V30 15337 H 1418.47 -0.479604 -0.469277 0
M  V30 15338 H 1421.01 -1.83558 -0.901484 0
M  V30 15339 H 1419.17 -1.88538 -3.38426 0
M  V30 15340 H 1419.58 -4.0964 -3.2756 0
M  V30 15341 H 1421.06 -3.031 -4.6134 0
M  V30 15342 H 1421.53 -1.39525 -4.16449 0
M  V30 15343 H 1422.14 -2.77638 -3.22176 0
M  V30 15344 N 1420.45 0.960609 -1.2494 0
M  V30 15345 C 1421.4 2.07763 -1.04581 0
M  V30 15346 C 1422.4 1.69386 0.0214505 0
M  V30 15347 O 1423.6 1.79503 -0.133683 0
M  V30 15348 H 1419.98 0.679944 -0.321216 0
M  V30 15349 H 1421.95 2.22094 -1.99291 0
M  V30 15350 C 1420.7 3.41088 -0.674876 0
M  V30 15351 H 1420.02 3.71082 -1.4879 0
M  V30 15352 H 1421.46 4.20123 -0.572079 0
M  V30 15353 C 1419.92 3.31172 0.6186 0
M  V30 15354 O 1420.45 3.65688 1.66238 0
M  V30 15355 N 1418.66 2.84297 0.601984 0
M  V30 15356 H 1418.2 2.56406 -0.24778 0
M  V30 15357 H 1418.16 2.78045 1.4676 0
M  V30 15358 N 1421.93 1.0643 1.16234 0
M  V30 15359 C 1423.21 0.695256 1.82827 0
M  V30 15360 C 1423.59 -0.823242 1.94386 0
M  V30 15361 O 1422.94 -1.73406 1.48804 0
M  V30 15362 C 1423.15 1.3988 3.19741 0
M  V30 15363 C 1424.5 1.54489 3.95498 0
M  V30 15364 O 1425.52 1.35882 3.29264 0
M  V30 15365 O 1424.38 1.85027 5.14225 0
M  V30 15366 H 1421.47 0.246285 0.789476 0
M  V30 15367 H 1424.02 1.16466 1.23426 0
M  V30 15368 H 1422.79 2.43419 3.06371 0
M  V30 15369 H 1422.41 0.91957 3.8682 0
M  V30 15370 N 1423.41 -1.329 0.847073 0
M  V30 15371 C 1424.66 -1.97803 0.447417 0
M  V30 15372 C 1424.99 -1.6691 -0.9927 0
M  V30 15373 O 1424.26 -0.953315 -1.69535 0
M  V30 15374 C 1424.55 -3.53657 0.678135 0
M  V30 15375 C 1424.4 -3.94207 2.16612 0
M  V30 15376 C 1425.72 -4.39909 0.129589 0
M  V30 15377 H 1422.84 -0.718514 0.164034 0
M  V30 15378 H 1425.48 -1.57407 1.0641 0
M  V30 15379 H 1423.63 -3.88198 0.153222 0
M  V30 15380 H 1425.3 -3.69883 2.75653 0
M  V30 15381 H 1423.55 -3.43641 2.64752 0
M  V30 15382 H 1424.22 -5.02791 2.27827 0
M  V30 15383 H 1426.69 -4.12061 0.578371 0
M  V30 15384 H 1425.57 -5.47963 0.320648 0
M  V30 15385 H 1425.83 -4.31391 -0.967167 0
M  V30 15386 N 1424.89 -0.604284 -1.45555 0
M  V30 15387 C 1425.84 0.116491 -2.30506 0
M  V30 15388 C 1426.81 0.863214 -1.41908 0
M  V30 15389 O 1427.99 0.849606 -1.7084 0
M  V30 15390 C 1425.13 1.11009 -3.26758 0
M  V30 15391 C 1424.24 0.36458 -4.30459 0
M  V30 15392 C 1423.38 1.34761 -5.13822 0
M  V30 15393 C 1422.42 0.589724 -6.09253 0
M  V30 15394 N 1421.55 1.52187 -6.85408 0
M  V30 15395 H 1426.39 -0.61394 -2.91607 0
M  V30 15396 H 1423.93 -0.314561 -1.43697 0
M  V30 15397 H 1425.89 1.69925 -3.81027 0
M  V30 15398 H 1424.52 1.80797 -2.67418 0
M  V30 15399 H 1423.57 -0.340026 -3.78877 0
M  V30 15400 H 1424.88 -0.226906 -4.98284 0
M  V30 15401 H 1424.04 2.00893 -5.72474 0
M  V30 15402 H 1422.78 1.97302 -4.46008 0
M  V30 15403 H 1421.78 -0.0852486 -5.49734 0
M  V30 15404 H 1423.01 -0.0306001 -6.79093 0
M  V30 15405 H 1420.95 2.13499 -6.20286 0
M  V30 15406 H 1420.87 0.983737 -7.49572 0
M  V30 15407 H 1422.14 2.17287 -7.48603 0
M  V30 15408 N 1426.37 1.53816 -0.343257 0
M  V30 15409 C 1427.3 2.22552 0.548015 0
M  V30 15410 C 1428.31 1.23202 1.06419 0
M  V30 15411 O 1429.5 1.49559 0.974394 0
M  V30 15412 C 1426.6 2.89197 1.76687 0
M  V30 15413 C 1425.77 4.14859 1.38603 0
M  V30 15414 C 1424.83 4.64917 2.46453 0
M  V30 15415 O 1423.86 5.29135 2.09773 0
M  V30 15416 N 1425.06 4.4082 3.77701 0
M  V30 15417 H 1427.83 2.99672 -0.040645 0
M  V30 15418 H 1425.39 1.61033 -0.167368 0
M  V30 15419 H 1427.38 3.19601 2.48268 0
M  V30 15420 H 1425.95 2.15664 2.26291 0
M  V30 15421 H 1425.17 3.91003 0.501001 0
M  V30 15422 H 1426.46 4.96599 1.10756 0
M  V30 15423 H 1425.85 3.8946 4.1029 0
M  V30 15424 H 1424.41 4.7583 4.45453 0
M  V30 15425 N 1427.84 0.0718701 1.57436 0
M  V30 15426 C 1428.77 -0.89288 2.15754 0
M  V30 15427 C 1429.76 -1.31036 1.0846 0
M  V30 15428 O 1430.94 -1.38139 1.36496 0
M  V30 15429 C 1428.07 -2.16044 2.71923 0
M  V30 15430 C 1427.02 -1.88236 3.84384 0
M  V30 15431 C 1426.35 -3.21624 4.27156 0
M  V30 15432 C 1427.65 -1.18758 5.0862 0
M  V30 15433 H 1429.34 -0.407061 2.9662 0
M  V30 15434 H 1426.89 -0.194354 1.42682 0
M  V30 15435 H 1428.84 -2.83952 3.11366 0
M  V30 15436 H 1427.57 -2.66868 1.88279 0
M  V30 15437 H 1426.23 -1.22734 3.45445 0
M  V30 15438 H 1425.87 -3.70289 3.40433 0
M  V30 15439 H 1425.57 -3.03809 5.02965 0
M  V30 15440 H 1427.1 -3.90729 4.69215 0
M  V30 15441 H 1428.51 -1.76735 5.45378 0
M  V30 15442 H 1426.91 -1.11201 5.89707 0
M  V30 15443 H 1427.98 -0.166682 4.84613 0
M  V30 15444 N 1429.32 -1.56304 -0.201686 0
M  V30 15445 C 1430.55 -1.84341 -0.939465 0
M  V30 15446 C 1430.97 -0.653544 -1.77128 0
M  V30 15447 O 1430.32 0.377813 -1.78546 0
M  V30 15448 C 1430.37 -3.11111 -1.84098 0
M  V30 15449 O 1430.09 -4.25509 -1.04276 0
M  V30 15450 C 1431.6 -3.52279 -2.69099 0
M  V30 15451 H 1428.82 -0.61232 -0.274419 0
M  V30 15452 H 1431.36 -2.03409 -0.210924 0
M  V30 15453 H 1429.51 -2.9396 -2.52322 0
M  V30 15454 H 1429.93 -4.97655 -1.6565 0
M  V30 15455 H 1431.4 -4.43965 -3.28023 0
M  V30 15456 H 1431.88 -2.74959 -3.42482 0
M  V30 15457 H 1432.49 -3.71939 -2.06256 0
M  V30 15458 N 1430.8 0.469154 -1.50455 0
M  V30 15459 C 1431.71 1.59271 -1.7225 0
M  V30 15460 C 1432.73 1.63119 -0.605668 0
M  V30 15461 O 1433.9 1.80952 -0.884222 0
M  V30 15462 C 1430.97 2.95475 -1.81372 0
M  V30 15463 C 1430.03 3.02 -3.05114 0
M  V30 15464 C 1429.26 4.31707 -3.13791 0
M  V30 15465 O 1429.48 5.2232 -2.29211 0
M  V30 15466 O 1428.42 4.43864 -4.06532 0
M  V30 15467 H 1432.24 1.43804 -2.67496 0
M  V30 15468 H 1429.83 0.648855 -1.34574 0
M  V30 15469 H 1431.71 3.76367 -1.89541 0
M  V30 15470 H 1430.39 3.11136 -0.893094 0
M  V30 15471 H 1429.29 2.20178 -3.02444 0
M  V30 15472 H 1430.63 2.91275 -3.96761 0
M  V30 15473 N 1432.28 1.40065 0.722464 0
M  V30 15474 C 1433.24 1.39544 1.81825 0
M  V30 15475 C 1434.24 0.290385 1.58156 0
M  V30 15476 O 1435.43 0.54894 1.65325 0
M  V30 15477 C 1432.56 1.18041 3.19811 0
M  V30 15478 H 1433.76 2.37063 1.83687 0
M  V30 15479 H 1431.31 1.25813 0.927404 0
M  V30 15480 H 1432.04 0.212536 3.23603 0
M  V30 15481 H 1431.83 1.98079 3.38389 0
M  V30 15482 H 1433.32 1.20447 3.99853 0
M  V30 15483 N 1433.76 -0.95397 1.25448 0
M  V30 15484 C 1435 -1.70118 1.10399 0
M  V30 15485 C 1435.34 -1.90945 -0.354093 0
M  V30 15486 O 1434.61 -1.48088 -1.26096 0
M  V30 15487 C 1434.89 -3.08371 1.85955 0
M  V30 15488 C 1434.75 -2.9495 3.39595 0
M  V30 15489 C 1436.07 -4.08273 1.64321 0
M  V30 15490 H 1433.19 -0.617424 0.402438 0
M  V30 15491 H 1435.83 -1.10884 1.54288 0
M  V30 15492 H 1433.98 -3.58936 1.48651 0
M  V30 15493 H 1435.65 -2.51705 3.86578 0
M  V30 15494 H 1433.89 -2.30853 3.67273 0
M  V30 15495 H 1434.56 -3.92952 3.87676 0
M  V30 15496 H 1437.04 -3.6662 1.96796 0
M  V30 15497 H 1435.92 -5.03048 2.19622 0
M  V30 15498 H 1436.18 -4.38217 0.584685 0
M  V30 15499 N 1435.24 -1.07045 -1.15668 0
M  V30 15500 C 1436.17 -0.645945 -2.1991 0
M  V30 15501 C 1437.18 0.29995 -1.60013 0
M  V30 15502 O 1438.37 0.0897537 -1.78274 0
M  V30 15503 C 1435.47 0.0721917 -3.38823 0
M  V30 15504 C 1434.64 -0.889103 -4.28268 0
M  V30 15505 C 1433.7 -0.208829 -5.25785 0
M  V30 15506 O 1432.73 -0.848894 -5.62834 0
M  V30 15507 N 1433.93 1.04671 -5.70985 0
M  V30 15508 H 1436.69 -1.54266 -2.56948 0
M  V30 15509 H 1434.26 -0.954736 -1.30753 0
M  V30 15510 H 1436.25 0.537882 -4.0111 0
M  V30 15511 H 1434.82 0.870805 -3.00226 0
M  V30 15512 H 1434.04 -1.53399 -3.63129 0
M  V30 15513 H 1435.33 -1.54097 -4.84904 0
M  V30 15514 H 1434.72 1.58673 -5.42991 0
M  V30 15515 H 1433.28 1.45613 -6.35327 0
M  V30 15516 N 1436.71 1.32449 -0.85411 0
M  V30 15517 C 1437.66 2.2889 -0.296341 0
M  V30 15518 C 1438.63 1.55024 0.596378 0
M  V30 15519 O 1439.82 1.8325 0.531406 0
M  V30 15520 C 1436.96 3.41315 0.509729 0
M  V30 15521 C 1436.07 4.30062 -0.40872 0
M  V30 15522 C 1435.2 5.29616 0.409928 0
M  V30 15523 C 1434.24 6.10005 -0.505953 0
M  V30 15524 N 1433.38 7.01559 0.275483 0
M  V30 15525 H 1438.22 2.75989 -1.12401 0
M  V30 15526 H 1435.76 1.35787 -0.565717 0
M  V30 15527 H 1437.71 4.05218 0.992697 0
M  V30 15528 H 1436.34 2.95367 1.30223 0
M  V30 15529 H 1435.4 3.66745 -1.01007 0
M  V30 15530 H 1436.71 4.86255 -1.11165 0
M  V30 15531 H 1435.86 5.99119 0.956083 0
M  V30 15532 H 1434.6 4.74039 1.14623 0
M  V30 15533 H 1433.61 5.39406 -1.064 0
M  V30 15534 H 1434.83 6.67667 -1.24086 0
M  V30 15535 H 1432.78 6.48412 0.994887 0
M  V30 15536 H 1432.69 7.55102 -0.368426 0
M  V30 15537 H 1433.96 7.75349 0.803382 0
M  V30 15538 N 1438.19 0.611994 1.45232 0
M  V30 15539 C 1439.44 0.106467 2.01419 0
M  V30 15540 C 1439.75 -1.2723 1.48566 0
M  V30 15541 O 1440.96 -1.8708 1.96757 0
M  V30 15542 C 1439.42 0.139639 3.59629 0
M  V30 15543 C 1439.02 1.51853 4.21479 0
M  V30 15544 C 1440.77 -0.310417 4.23364 0
M  V30 15545 C 1438.67 1.50785 5.71855 0
M  V30 15546 H 1437.6 0.0360345 0.753138 0
M  V30 15547 H 1440.26 0.767974 1.66657 0
M  V30 15548 H 1438.64 -0.588606 3.91601 0
M  V30 15549 H 1439.81 2.26884 4.01074 0
M  V30 15550 H 1438.13 1.91105 3.69956 0
M  V30 15551 H 1440.72 -0.337656 5.33633 0
M  V30 15552 H 1441.07 -1.33398 3.94348 0
M  V30 15553 H 1441.6 0.364704 3.96125 0
M  V30 15554 H 1438.34 2.50916 6.05575 0
M  V30 15555 H 1437.86 0.800195 5.94438 0
M  V30 15556 H 1439.54 1.23341 6.35135 0
M  V30 15557 N 1439.67 -1.53632 0.351409 0
M  V30 15558 C 1440.9 -2.05458 -0.243852 0
M  V30 15559 C 1441.31 -1.22588 -1.43589 0
M  V30 15560 O 1440.67 -0.263088 -1.80594 0
M  V30 15561 C 1440.72 -3.55586 -0.651226 0
M  V30 15562 O 1440.44 -4.35313 0.493415 0
M  V30 15563 C 1441.94 -4.23614 -1.30637 0
M  V30 15564 H 1439.16 -0.669443 -0.0456828 0
M  V30 15565 H 1441.71 -1.98149 0.505675 0
M  V30 15566 H 1439.86 -3.63091 -1.35068 0
M  V30 15567 H 1440.28 -5.24234 0.167107 0
M  V30 15568 H 1441.75 -5.30022 -1.5421 0
M  V30 15569 H 1442.23 -3.76449 -2.26236 0
M  V30 15570 H 1442.83 -4.20323 -0.648738 0
M  V30 15571 N 1441.15 -0.0802183 -1.57396 0
M  V30 15572 C 1442.38 0.595754 -1.98137 0
M  V30 15573 C 1442.79 1.62638 -0.958871 0
M  V30 15574 O 1442.15 1.82422 0.0534316 0
M  V30 15575 C 1442.2 1.2568 -3.38949 0
M  V30 15576 O 1441.92 0.267417 -4.37283 0
M  V30 15577 C 1443.42 2.0198 -3.94612 0
M  V30 15578 H 1440.64 0.160853 -0.651435 0
M  V30 15579 H 1443.18 -0.155111 -2.03911 0
M  V30 15580 H 1441.34 1.9587 -3.34236 0
M  V30 15581 H 1441.75 0.742695 -5.19215 0
M  V30 15582 H 1443.23 2.43613 -4.95335 0
M  V30 15583 H 1443.7 2.87973 -3.31614 0
M  V30 15584 H 1444.31 1.36639 -4.02753 0
M  V30 15585 N 1442.63 1.56409 0.193394 0
M  V30 15586 C 1443.54 1.97886 1.26009 0
M  V30 15587 C 1444.55 0.886786 1.49707 0
M  V30 15588 O 1445.73 1.19267 1.62288 0
M  V30 15589 C 1442.79 2.31145 2.58404 0
M  V30 15590 C 1441.85 3.54069 2.42763 0
M  V30 15591 C 1441.09 3.85732 3.68845 0
M  V30 15592 O 1441.31 3.18662 4.73086 0
M  V30 15593 O 1440.24 4.79155 3.64272 0
M  V30 15594 H 1444.07 2.88849 0.938087 0
M  V30 15595 H 1441.65 1.43987 0.398528 0
M  V30 15596 H 1443.54 2.53606 3.36544 0
M  V30 15597 H 1442.21 1.4335 2.90228 0
M  V30 15598 H 1441.12 3.36854 1.62728 0
M  V30 15599 H 1442.45 4.42335 2.15871 0
M  V30 15600 N 1444.1 -0.461169 1.50702 0
M  V30 15601 C 1445.33 -1.24019 1.66235 0
M  V30 15602 C 1445.75 -1.84827 0.349388 0
M  V30 15603 O 1445.11 -1.67743 -0.687888 0
M  V30 15604 C 1445.16 -2.31743 2.76274 0
M  V30 15605 O 1444.26 -3.3664 2.38217 0
M  V30 15606 H 1443.6 -0.364424 0.55506 0
M  V30 15607 H 1446.13 -0.547636 1.97135 0
M  V30 15608 H 1446.14 -2.76902 2.99649 0
M  V30 15609 H 1444.82 -1.86858 3.7156 0
M  V30 15610 H 1443.4 -2.97123 2.25327 0
M  V30 15611 N 1445.58 -1.40446 -0.715026 0
M  V30 15612 C 1446.83 -1.38059 -1.47046 0
M  V30 15613 C 1447.14 0.0139125 -1.95595 0
M  V30 15614 O 1448.35 0.160398 -2.71026 0
M  V30 15615 C 1446.81 -2.42646 -2.65802 0
M  V30 15616 C 1446.41 -3.8791 -2.2412 0
M  V30 15617 C 1448.16 -2.49367 -3.43535 0
M  V30 15618 C 1446.06 -4.84092 -3.39719 0
M  V30 15619 H 1444.99 -0.513341 -0.552265 0
M  V30 15620 H 1447.65 -1.66185 -0.778126 0
M  V30 15621 H 1446.03 -2.07621 -3.37208 0
M  V30 15622 H 1447.2 -4.32082 -1.6013 0
M  V30 15623 H 1445.52 -3.8467 -1.5943 0
M  V30 15624 H 1448.11 -3.18414 -4.29554 0
M  V30 15625 H 1448.46 -1.52436 -3.87388 0
M  V30 15626 H 1448.99 -2.83386 -2.79173 0
M  V30 15627 H 1445.73 -5.82358 -3.00898 0
M  V30 15628 H 1445.25 -4.44584 -4.02623 0
M  V30 15629 H 1446.93 -5.03939 -4.05776 0
M  V30 15630 N 1447.06 0.947303 -1.25952 0
M  V30 15631 C 1448.31 1.6953 -1.11299 0
M  V30 15632 C 1448.64 1.9113 0.343961 0
M  V30 15633 O 1447.91 1.48755 1.25309 0
M  V30 15634 C 1448.2 3.0738 -1.87588 0
M  V30 15635 C 1448.05 2.93145 -3.41154 0
M  V30 15636 C 1449.37 4.07396 -1.66483 0
M  V30 15637 H 1446.49 0.615281 -0.405707 0
M  V30 15638 H 1449.13 1.10064 -1.54874 0
M  V30 15639 H 1447.28 3.58143 -1.50553 0
M  V30 15640 H 1448.95 2.49651 -3.87907 0
M  V30 15641 H 1447.19 2.28902 -3.68492 0
M  V30 15642 H 1447.87 3.9089 -3.89755 0
M  V30 15643 H 1450.34 3.65572 -1.98738 0
M  V30 15644 H 1449.22 5.01876 -2.22287 0
M  V30 15645 H 1449.48 4.379 -0.607916 0
M  V30 15646 N 1448.54 1.07657 1.15099 0
M  V30 15647 C 1449.79 0.796589 1.85303 0
M  V30 15648 C 1450.1 -0.679887 1.83404 0
M  V30 15649 O 1451.31 -1.07475 2.49322 0
M  V30 15650 C 1449.76 1.37495 3.326 0
M  V30 15651 C 1449.37 2.88267 3.42938 0
M  V30 15652 C 1451.11 1.17313 4.07968 0
M  V30 15653 C 1449.02 3.39278 4.84401 0
M  V30 15654 H 1447.95 0.294316 0.694186 0
M  V30 15655 H 1450.6 1.29702 1.29806 0
M  V30 15656 H 1448.98 0.802248 3.87789 0
M  V30 15657 H 1450.16 3.51608 2.9784 0
M  V30 15658 H 1448.47 3.07275 2.81018 0
M  V30 15659 H 1451.07 1.52899 5.12373 0
M  V30 15660 H 1451.41 0.112387 4.16148 0
M  V30 15661 H 1451.95 1.71236 3.59059 0
M  V30 15662 H 1448.69 4.44892 4.81406 0
M  V30 15663 H 1448.21 2.80692 5.30068 0
M  V30 15664 H 1449.88 3.35416 5.53267 0
M  V30 15665 N 1450.02 -1.31994 0.861122 0
M  V30 15666 C 1451.26 -1.97712 0.477669 0
M  V30 15667 C 1451.62 -1.66878 -0.957573 0
M  V30 15668 O 1450.91 -0.950114 -1.66383 0
M  V30 15669 C 1451.1 -3.51232 0.661135 0
M  V30 15670 C 1450.93 -3.96985 2.11266 0
M  V30 15671 C 1449.7 -4.23753 2.75247 0
M  V30 15672 C 1451.9 -4.11577 3.08397 0
M  V30 15673 N 1449.88 -4.55798 4.11243 0
M  V30 15674 C 1451.25 -4.47233 4.29398 0
M  V30 15675 C 1453.31 -3.9393 3.04506 0
M  V30 15676 C 1452.01 -4.67083 5.47015 0
M  V30 15677 C 1454.04 -4.14968 4.21373 0
M  V30 15678 C 1453.4 -4.50947 5.41134 0
M  V30 15679 H 1449.5 -0.749334 0.223657 0
M  V30 15680 H 1452.08 -1.59691 1.11387 0
M  V30 15681 H 1450.25 -3.88362 0.0545925 0
M  V30 15682 H 1451.99 -4.03946 0.246941 0
M  V30 15683 H 1448.74 -4.16064 2.26248 0
M  V30 15684 H 1449.17 -4.75995 4.81412 0
M  V30 15685 H 1453.81 -3.6521 2.1303 0
M  V30 15686 H 1451.53 -4.94655 6.39016 0
M  V30 15687 H 1455.11 -4.02809 4.19805 0
M  V30 15688 H 1453.99 -4.66898 6.3006 0
M  V30 15689 N 1451.49 -0.619688 -1.44906 0
M  V30 15690 C 1452.74 -0.119397 -2.01747 0
M  V30 15691 C 1453.06 1.25904 -1.48907 0
M  V30 15692 O 1452.33 1.83417 -0.688104 0
M  V30 15693 H 1450.91 -0.0411482 -0.745866 0
M  V30 15694 H 1453.58 -0.803813 -1.77552 0
M  V30 15695 H 1452.67 -0.078368 -3.12002 0
M  V30 15696 N 1452.97 1.53444 -0.359552 0
M  V30 15697 C 1453.92 2.25544 0.48977 0
M  V30 15698 C 1454.89 1.25982 1.08248 0
M  V30 15699 O 1456.07 1.54751 1.1161 0
M  V30 15700 C 1453.21 3.04358 1.62666 0
M  V30 15701 C 1452.33 4.18801 1.0597 0
M  V30 15702 C 1451.46 4.85069 2.1652 0
M  V30 15703 C 1450.5 5.91554 1.57259 0
M  V30 15704 N 1449.64 6.51537 2.61617 0
M  V30 15705 H 1454.48 2.97709 -0.13158 0
M  V30 15706 H 1452.02 1.469 -0.0767056 0
M  V30 15707 H 1453.97 3.48324 2.29623 0
M  V30 15708 H 1452.6 2.34459 2.21876 0
M  V30 15709 H 1451.66 3.79364 0.280599 0
M  V30 15710 H 1452.97 4.95341 0.586383 0
M  V30 15711 H 1452.12 5.32187 2.9131 0
M  V30 15712 H 1450.86 4.07988 2.67202 0
M  V30 15713 H 1449.87 5.43803 0.809818 0
M  V30 15714 H 1451.09 6.70552 1.07409 0
M  V30 15715 H 1449.04 5.77312 3.11523 0
M  V30 15716 H 1448.95 7.23599 2.18954 0
M  V30 15717 H 1450.22 7.03306 3.36127 0
M  V30 15718 N 1454.45 0.0885642 1.57351 0
M  V30 15719 C 1455.68 -0.585238 1.9845 0
M  V30 15720 C 1456.09 -1.62127 0.967483 0
M  V30 15721 O 1455.45 -1.82448 -0.0437565 0
M  V30 15722 C 1455.5 -1.23881 3.39611 0
M  V30 15723 O 1455.22 -0.244223 4.37419 0
M  V30 15724 C 1456.72 -1.99885 3.95678 0
M  V30 15725 H 1453.94 -0.157396 0.652279 0
M  V30 15726 H 1456.49 0.165923 2.03826 0
M  V30 15727 H 1454.64 -1.94094 3.3527 0
M  V30 15728 H 1455.06 -0.715149 5.19602 0
M  V30 15729 H 1456.53 -2.40983 4.9662 0
M  V30 15730 H 1457.01 -2.8621 3.33137 0
M  V30 15731 H 1457.61 -1.34501 4.03472 0
M  V30 15732 N 1455.93 -1.56509 -0.185096 0
M  V30 15733 C 1457.34 -1.71024 -0.748856 0
M  V30 15734 C 1457.69 -0.69681 -1.83409 0
M  V30 15735 O 1456.82 0.144711 -2.15916 0
M  V30 15736 C 1457.41 -3.1008 -1.36513 0
M  V30 15737 C 1455.97 -3.26325 -1.87587 0
M  V30 15738 C 1455.12 -2.66977 -0.749579 0
M  V30 15739 H 1458.07 -1.58649 0.0401175 0
M  V30 15740 H 1458.09 -3.07965 -2.23468 0
M  V30 15741 H 1457.6 -3.83816 -0.575051 0
M  V30 15742 H 1455.7 -2.57522 -2.69283 0
M  V30 15743 H 1455.81 -4.33931 -2.03078 0
M  V30 15744 H 1454.18 -2.26419 -1.16647 0
M  V30 15745 H 1454.96 -3.43288 0.0284301 0
M  V30 15746 N 1457.41 0.45317 -1.50944 0
M  V30 15747 C 1458.35 1.54885 -1.71112 0
M  V30 15748 C 1459.32 1.56639 -0.552566 0
M  V30 15749 O 1460.51 1.73894 -0.785203 0
M  V30 15750 C 1457.65 2.92729 -1.82766 0
M  V30 15751 C 1456.76 3.00626 -3.10239 0
M  V30 15752 C 1455.9 4.29495 -3.12582 0
M  V30 15753 C 1454.94 4.312 -4.34434 0
M  V30 15754 N 1454.07 5.51568 -4.34415 0
M  V30 15755 H 1458.91 1.36992 -2.64645 0
M  V30 15756 H 1456.45 0.665753 -1.31172 0
M  V30 15757 H 1458.41 3.7269 -1.87505 0
M  V30 15758 H 1457.04 3.09216 -0.926561 0
M  V30 15759 H 1456.09 2.13426 -3.14886 0
M  V30 15760 H 1457.4 2.97746 -4.00186 0
M  V30 15761 H 1456.56 5.17817 -3.16149 0
M  V30 15762 H 1455.29 4.35009 -2.20496 0
M  V30 15763 H 1454.3 3.41272 -4.3106 0
M  V30 15764 H 1455.52 4.27363 -5.27767 0
M  V30 15765 H 1453.47 5.57834 -3.45192 0
M  V30 15766 H 1453.39 5.50504 -5.18152 0
M  V30 15767 H 1454.66 6.41966 -4.42153 0
M  V30 15768 N 1458.88 1.40823 0.707568 0
M  V30 15769 C 1460.13 1.39535 1.46753 0
M  V30 15770 C 1460.46 0.000370511 1.945 0
M  V30 15771 O 1459.71 -0.985628 1.69068 0
M  V30 15772 C 1460.01 2.33829 2.70294 0
M  V30 15773 C 1459.68 3.8092 2.41269 0
M  V30 15774 C 1458.34 4.20993 2.33063 0
M  V30 15775 C 1460.69 4.73839 2.17086 0
M  V30 15776 C 1458.02 5.52009 1.98754 0
M  V30 15777 C 1460.37 6.05161 1.84289 0
M  V30 15778 C 1459.04 6.44268 1.74571 0
M  V30 15779 H 1458.31 0.510593 0.537006 0
M  V30 15780 H 1460.95 1.73536 0.809789 0
M  V30 15781 H 1459.26 1.9304 3.40944 0
M  V30 15782 H 1460.96 2.30111 3.28405 0
M  V30 15783 H 1457.55 3.49175 2.48545 0
M  V30 15784 H 1461.73 4.43691 2.22377 0
M  V30 15785 H 1456.99 5.81202 1.89774 0
M  V30 15786 H 1461.16 6.7667 1.64593 0
M  V30 15787 H 1458.79 7.45703 1.47753 0
M  V30 15788 N 1460.36 -0.94061 1.26453 0
M  V30 15789 C 1461.31 -2.03941 1.08059 0
M  V30 15790 C 1462.28 -1.66094 -0.0145388 0
M  V30 15791 O 1463.46 -1.90246 0.145338 0
M  V30 15792 C 1460.6 -3.37501 0.720228 0
M  V30 15793 C 1459.72 -3.88381 1.89167 0
M  V30 15794 C 1458.85 -5.10329 1.47437 0
M  V30 15795 C 1457.89 -5.53473 2.61408 0
M  V30 15796 N 1457.03 -6.66624 2.20355 0
M  V30 15797 H 1461.87 -2.19006 2.0209 0
M  V30 15798 H 1459.41 -1.07305 1.00618 0
M  V30 15799 H 1461.36 -4.14287 0.492177 0
M  V30 15800 H 1459.99 -3.2228 -0.183101 0
M  V30 15801 H 1459.05 -3.0799 2.23264 0
M  V30 15802 H 1460.36 -4.16338 2.74708 0
M  V30 15803 H 1459.51 -5.94577 1.20679 0
M  V30 15804 H 1458.25 -4.8412 0.589873 0
M  V30 15805 H 1457.26 -4.67782 2.88894 0
M  V30 15806 H 1458.48 -5.81684 3.50458 0
M  V30 15807 H 1456.43 -6.42097 1.34341 0
M  V30 15808 H 1456.34 -6.9417 2.99439 0
M  V30 15809 H 1457.61 -7.54245 1.96811 0
M  V30 15810 N 1461.84 -1.08266 -1.14527 0
M  V30 15811 C 1462.77 -0.732968 -2.21698 0
M  V30 15812 C 1463.75 0.283917 -1.67714 0
M  V30 15813 O 1464.94 0.154607 -1.93584 0
M  V30 15814 C 1462.07 -0.139935 -3.47018 0
M  V30 15815 C 1461.02 -1.08501 -4.14019 0
M  V30 15816 C 1460.35 -0.354263 -5.33525 0
M  V30 15817 C 1461.65 -2.42254 -4.62721 0
M  V30 15818 H 1463.34 -1.629 -2.51205 0
M  V30 15819 H 1460.89 -0.784696 -1.20742 0
M  V30 15820 H 1462.84 0.1167 -4.21238 0
M  V30 15821 H 1461.56 0.791228 -3.16871 0
M  V30 15822 H 1460.22 -1.32672 -3.41751 0
M  V30 15823 H 1459.87 0.580658 -4.99637 0
M  V30 15824 H 1459.57 -0.984287 -5.79297 0
M  V30 15825 H 1461.09 -0.105648 -6.10509 0
M  V30 15826 H 1462.51 -2.22357 -5.28422 0
M  V30 15827 H 1460.91 -3.00935 -5.1919 0
M  V30 15828 H 1461.98 -3.03884 -3.77866 0
M  V30 15829 N 1463.32 1.31536 -0.86811 0
M  V30 15830 C 1464.73 1.78991 -0.530937 0
M  V30 15831 C 1465.08 1.71553 0.952046 0
M  V30 15832 O 1464.21 1.28216 1.74326 0
M  V30 15833 C 1464.8 3.25004 -0.956981 0
M  V30 15834 C 1463.36 3.70362 -0.671495 0
M  V30 15835 C 1462.51 2.52361 -1.14932 0
M  V30 15836 H 1465.46 1.18644 -1.05401 0
M  V30 15837 H 1465.48 3.79477 -0.278883 0
M  V30 15838 H 1464.99 3.30385 -2.03635 0
M  V30 15839 H 1463.09 3.70483 0.39659 0
M  V30 15840 H 1463.21 4.62581 -1.24722 0
M  V30 15841 H 1461.57 2.4826 -0.569144 0
M  V30 15842 H 1462.35 2.60489 -2.23608 0
M  V30 15843 N 1464.8 0.627364 1.44575 0
M  V30 15844 C 1466.05 0.127824 2.01295 0
M  V30 15845 C 1466.36 -1.25647 1.49907 0
M  V30 15846 O 1467.57 -1.84982 1.9873 0
M  V30 15847 C 1466.02 0.177775 3.59461 0
M  V30 15848 C 1465.63 1.56315 4.19845 0
M  V30 15849 C 1467.37 -0.265497 4.23669 0
M  V30 15850 C 1465.28 1.56842 5.70223 0
M  V30 15851 H 1464.21 0.0440205 0.752714 0
M  V30 15852 H 1466.86 0.785607 1.65833 0
M  V30 15853 H 1465.24 -0.547038 3.92203 0
M  V30 15854 H 1466.42 2.31125 3.98645 0
M  V30 15855 H 1464.73 1.95019 3.67909 0
M  V30 15856 H 1467.33 -0.281038 5.33961 0
M  V30 15857 H 1467.67 -1.29208 3.95741 0
M  V30 15858 H 1468.21 0.406698 3.95716 0
M  V30 15859 H 1464.94 2.57325 6.0288 0
M  V30 15860 H 1464.46 0.863198 5.93556 0
M  V30 15861 H 1466.14 1.30071 6.33791 0
M  V30 15862 N 1466.28 -1.53251 0.367684 0
M  V30 15863 C 1467.21 -2.23396 -0.512539 0
M  V30 15864 C 1468.22 -1.2488 -1.04446 0
M  V30 15865 O 1469.41 -1.5109 -0.950477 0
M  V30 15866 C 1466.51 -2.91971 -1.72064 0
M  V30 15867 C 1465.68 -4.17011 -1.31986 0
M  V30 15868 C 1464.74 -4.68779 -2.39025 0
M  V30 15869 O 1463.77 -5.32405 -2.01328 0
M  V30 15870 N 1464.97 -4.46773 -3.7064 0
M  V30 15871 H 1467.73 -2.9957 0.0883152 0
M  V30 15872 H 1465.3 -1.60746 0.192966 0
M  V30 15873 H 1467.29 -3.23511 -2.43152 0
M  V30 15874 H 1465.86 -2.19237 -2.22831 0
M  V30 15875 H 1465.08 -3.91751 -0.438732 0
M  V30 15876 H 1466.37 -4.98298 -1.02842 0
M  V30 15877 H 1465.76 -3.95938 -4.04042 0
M  V30 15878 H 1464.32 -4.82857 -4.37827 0
M  V30 15879 N 1467.75 -0.0969077 -1.57302 0
M  V30 15880 C 1468.7 0.861379 -2.14124 0
M  V30 15881 C 1469.67 1.27858 -1.06026 0
M  V30 15882 O 1470.86 1.36001 -1.33822 0
M  V30 15883 C 1468 2.11443 -2.72738 0
M  V30 15884 C 1467.11 1.7476 -3.95074 0
M  V30 15885 C 1466.24 2.94864 -4.41847 0
M  V30 15886 C 1465.28 2.54316 -5.56767 0
M  V30 15887 N 1464.42 3.67261 -5.98384 0
M  V30 15888 H 1469.26 0.369968 -2.95694 0
M  V30 15889 H 1466.8 0.170943 -1.46103 0
M  V30 15890 H 1468.75 2.84829 -3.04842 0
M  V30 15891 H 1467.38 2.5808 -1.93893 0
M  V30 15892 H 1466.44 0.91335 -3.69272 0
M  V30 15893 H 1467.75 1.40946 -4.78472 0
M  V30 15894 H 1466.9 3.76501 -4.75744 0
M  V30 15895 H 1465.64 3.31889 -3.57352 0
M  V30 15896 H 1464.65 1.71106 -5.22497 0
M  V30 15897 H 1465.87 2.18432 -6.43012 0
M  V30 15898 H 1463.82 4.04001 -5.16836 0
M  V30 15899 H 1463.73 3.37298 -6.76584 0
M  V30 15900 H 1465 4.49403 -6.36912 0
M  V30 15901 N 1469.23 1.56605 0.176793 0
M  V30 15902 C 1470.14 1.99211 1.23903 0
M  V30 15903 C 1471.16 0.902614 1.48758 0
M  V30 15904 O 1472.33 1.20982 1.61014 0
M  V30 15905 C 1469.4 2.33873 2.55938 0
M  V30 15906 C 1468.46 3.56624 2.38994 0
M  V30 15907 C 1467.69 3.89623 3.64733 0
M  V30 15908 O 1467.92 3.23662 4.6968 0
M  V30 15909 O 1466.85 4.82992 3.5917 0
M  V30 15910 H 1470.68 2.89827 0.907398 0
M  V30 15911 H 1468.26 1.44401 0.383234 0
M  V30 15912 H 1470.14 2.57161 3.33836 0
M  V30 15913 H 1468.82 1.46421 2.88691 0
M  V30 15914 H 1467.72 3.38561 1.59146 0
M  V30 15915 H 1469.06 4.446 2.11167 0
M  V30 15916 N 1470.71 -0.445159 1.51182 0
M  V30 15917 C 1471.94 -1.21787 1.67259 0
M  V30 15918 C 1472.35 -1.85206 0.366641 0
M  V30 15919 O 1471.71 -1.70376 -0.654095 0
M  V30 15920 C 1471.76 -2.30765 2.78262 0
M  V30 15921 O 1471.48 -1.69942 4.03796 0
M  V30 15922 C 1472.98 -3.21186 3.05539 0
M  V30 15923 H 1470.2 -0.367364 0.561502 0
M  V30 15924 H 1472.75 -0.528415 1.97555 0
M  V30 15925 H 1470.9 -2.9544 2.50587 0
M  V30 15926 H 1471.32 -2.41905 4.65384 0
M  V30 15927 H 1472.79 -3.93805 3.8681 0
M  V30 15928 H 1473.27 -3.81487 2.17634 0
M  V30 15929 H 1473.87 -2.62221 3.34844 0
M  V30 15930 N 1472.19 -1.41197 -0.700089 0
M  V30 15931 C 1473.43 -1.4152 -1.46095 0
M  V30 15932 C 1473.79 -0.0221135 -1.92387 0
M  V30 15933 O 1473.08 0.951201 -1.66321 0
M  V30 15934 C 1473.28 -2.35259 -2.6905 0
M  V30 15935 C 1473.1 -3.83544 -2.34785 0
M  V30 15936 C 1471.87 -4.52258 -2.25369 0
M  V30 15937 C 1474.07 -4.74637 -1.9805 0
M  V30 15938 N 1472.05 -5.85695 -1.83942 0
M  V30 15939 C 1473.43 -5.96989 -1.67346 0
M  V30 15940 C 1475.48 -4.62326 -1.84821 0
M  V30 15941 C 1474.18 -7.08401 -1.24742 0
M  V30 15942 C 1476.21 -5.73696 -1.43621 0
M  V30 15943 C 1475.57 -6.95143 -1.13825 0
M  V30 15944 H 1471.67 -0.573085 -0.53207 0
M  V30 15945 H 1474.25 -1.77032 -0.810413 0
M  V30 15946 H 1472.43 -2.01849 -3.3183 0
M  V30 15947 H 1474.16 -2.26333 -3.35493 0
M  V30 15948 H 1470.91 -4.06137 -2.43618 0
M  V30 15949 H 1471.34 -6.56403 -1.65722 0
M  V30 15950 H 1475.98 -3.68934 -2.06513 0
M  V30 15951 H 1473.7 -8.01663 -1.01794 0
M  V30 15952 H 1477.28 -5.66172 -1.33941 0
M  V30 15953 H 1476.16 -7.79856 -0.824257 0
M  V30 15954 N 1473.67 0.933891 -1.2695 0
M  V30 15955 C 1474.58 2.06713 -1.10936 0
M  V30 15956 C 1475.59 1.73952 -0.0409734 0
M  V30 15957 O 1476.77 1.9989 -0.246199 0
M  V30 15958 C 1473.83 3.38453 -0.751696 0
M  V30 15959 C 1472.89 3.84951 -1.90029 0
M  V30 15960 C 1472.13 5.10404 -1.55959 0
M  V30 15961 O 1472.35 5.68504 -0.464646 0
M  V30 15962 O 1471.28 5.52123 -2.39675 0
M  V30 15963 H 1475.11 2.23133 -2.06023 0
M  V30 15964 H 1472.69 1.05202 -1.06079 0
M  V30 15965 H 1474.58 4.17591 -0.565285 0
M  V30 15966 H 1473.25 3.23255 0.169703 0
M  V30 15967 H 1472.16 3.06727 -2.14172 0
M  V30 15968 H 1473.49 4.04681 -2.80167 0
M  V30 15969 N 1475.14 1.08871 1.13951 0
M  V30 15970 C 1476.37 0.842913 1.88951 0
M  V30 15971 C 1476.79 -0.605348 1.78832 0
M  V30 15972 O 1476.14 -1.41631 1.15095 0
M  V30 15973 C 1476.19 1.26198 3.38757 0
M  V30 15974 O 1475.92 2.65344 3.48603 0
M  V30 15975 C 1477.42 1.04773 4.30741 0
M  V30 15976 H 1474.64 0.303651 0.598362 0
M  V30 15977 H 1477.18 1.44922 1.44284 0
M  V30 15978 H 1475.34 0.699682 3.81029 0
M  V30 15979 H 1475.75 2.82863 4.41688 0
M  V30 15980 H 1477.22 1.39029 5.34205 0
M  V30 15981 H 1477.7 -0.0149046 4.39197 0
M  V30 15982 H 1478.31 1.5957 3.9423 0
M  V30 15983 N 1476.62 -1.31073 0.875073 0
M  V30 15984 C 1477.87 -1.97194 0.498612 0
M  V30 15985 C 1478.22 -1.67884 -0.939819 0
M  V30 15986 O 1477.52 -0.967708 -1.65366 0
M  V30 15987 C 1477.71 -3.50511 0.698351 0
M  V30 15988 C 1477.54 -3.94722 2.15465 0
M  V30 15989 C 1476.31 -4.2081 2.79726 0
M  V30 15990 C 1478.51 -4.08283 3.12745 0
M  V30 15991 N 1476.49 -4.51411 4.16055 0
M  V30 15992 C 1477.86 -4.42653 4.34117 0
M  V30 15993 C 1479.91 -3.90678 3.08667 0
M  V30 15994 C 1478.62 -4.61255 5.51939 0
M  V30 15995 C 1480.64 -4.10476 4.25751 0
M  V30 15996 C 1480.01 -4.45182 5.45887 0
M  V30 15997 H 1476.1 -0.74692 0.231592 0
M  V30 15998 H 1478.69 -1.585 1.13074 0
M  V30 15999 H 1476.86 -3.88282 0.0957804 0
M  V30 16000 H 1478.59 -4.03661 0.289771 0
M  V30 16001 H 1475.35 -4.13641 2.30648 0
M  V30 16002 H 1475.77 -4.70862 4.86434 0
M  V30 16003 H 1480.41 -3.6293 2.16892 0
M  V30 16004 H 1478.13 -4.8785 6.44227 0
M  V30 16005 H 1481.72 -3.98334 4.24054 0
M  V30 16006 H 1480.6 -4.60189 6.34977 0
M  V30 16007 N 1478.1 -0.635022 -1.4424 0
M  V30 16008 C 1479.35 -0.149809 -2.02848 0
M  V30 16009 C 1479.7 1.21619 -1.49086 0
M  V30 16010 O 1478.99 1.79619 -0.666909 0
M  V30 16011 C 1479.19 -0.081191 -3.57308 0
M  V30 16012 C 1479.02 -1.439 -4.26055 0
M  V30 16013 C 1477.79 -2.02677 -4.62872 0
M  V30 16014 C 1479.99 -2.37365 -4.56248 0
M  V30 16015 N 1477.97 -3.31652 -5.16605 0
M  V30 16016 C 1479.34 -3.50957 -5.11106 0
M  V30 16017 C 1481.39 -2.36395 -4.38203 0
M  V30 16018 C 1480.1 -4.63781 -5.49818 0
M  V30 16019 C 1482.12 -3.48286 -4.77965 0
M  V30 16020 C 1481.48 -4.60603 -5.3294 0
M  V30 16021 H 1477.58 -0.0988293 -0.77573 0
M  V30 16022 H 1480.17 -0.839365 -1.75678 0
M  V30 16023 H 1478.34 0.577656 -3.8408 0
M  V30 16024 H 1480.07 0.41321 -4.02585 0
M  V30 16025 H 1476.83 -1.55579 -4.47316 0
M  V30 16026 H 1477.25 -3.97602 -5.47943 0
M  V30 16027 H 1481.89 -1.50807 -3.9499 0
M  V30 16028 H 1479.61 -5.50074 -5.91983 0
M  V30 16029 H 1483.2 -3.48716 -4.65713 0
M  V30 16030 H 1482.08 -5.45751 -5.63139 0
M  V30 16031 N 1479.58 1.53054 -0.375806 0
M  V30 16032 C 1480.81 2.0582 0.211135 0
M  V30 16033 C 1481.22 1.24856 1.4162 0
M  V30 16034 O 1480.58 0.291786 1.80152 0
M  V30 16035 C 1480.63 3.56577 0.594573 0
M  V30 16036 O 1480.35 4.34472 -0.562607 0
M  V30 16037 C 1481.85 4.25639 1.23882 0
M  V30 16038 H 1479.07 0.670085 0.0350268 0
M  V30 16039 H 1481.62 1.9732 -0.537135 0
M  V30 16040 H 1479.77 3.65194 1.29275 0
M  V30 16041 H 1480.18 5.23902 -0.250487 0
M  V30 16042 H 1481.66 5.32408 1.45759 0
M  V30 16043 H 1482.14 3.80001 2.20218 0
M  V30 16044 H 1482.74 4.21302 0.581786 0
M  V30 16045 N 1481.06 0.105248 1.57248 0
M  V30 16046 C 1481.97 -0.864007 2.1811 0
M  V30 16047 C 1482.98 -1.30282 1.15337 0
M  V30 16048 O 1484.16 -1.36864 1.4775 0
M  V30 16049 C 1481.22 -2.1014 2.75757 0
M  V30 16050 C 1480.28 -1.71583 3.9352 0
M  V30 16051 C 1479.52 -2.89424 4.48408 0
M  V30 16052 O 1479.74 -4.04449 4.02215 0
M  V30 16053 O 1478.67 -2.67303 5.39289 0
M  V30 16054 H 1482.5 -0.376131 3.01362 0
M  V30 16055 H 1480.09 -0.119643 1.4892 0
M  V30 16056 H 1481.97 -2.82638 3.1256 0
M  V30 16057 H 1480.64 -2.57961 1.95545 0
M  V30 16058 H 1479.55 -0.962347 3.6151 0
M  V30 16059 H 1480.88 -1.28517 4.75126 0
M  V30 16060 N 1482.53 -1.56697 -0.168486 0
M  V30 16061 C 1483.76 -1.86022 -0.898847 0
M  V30 16062 C 1484.17 -0.688909 -1.76212 0
M  V30 16063 O 1483.52 0.35111 -1.80313 0
M  V30 16064 C 1483.58 -3.09795 -1.82394 0
M  V30 16065 C 1483.24 -4.42553 -1.13999 0
M  V30 16066 C 1484.24 -5.1745 -0.504092 0
M  V30 16067 C 1481.92 -4.89288 -1.1359 0
M  V30 16068 C 1483.92 -6.37274 0.126758 0
M  V30 16069 C 1481.6 -6.09041 -0.501222 0
M  V30 16070 C 1482.6 -6.82878 0.128998 0
M  V30 16071 O 1482.29 -8.00359 0.753658 0
M  V30 16072 H 1482.02 -0.621283 -0.266426 0
M  V30 16073 H 1484.58 -2.04674 -0.172562 0
M  V30 16074 H 1482.81 -2.87096 -2.59061 0
M  V30 16075 H 1484.5 -3.25544 -2.42438 0
M  V30 16076 H 1485.26 -4.82424 -0.499207 0
M  V30 16077 H 1481.14 -4.31754 -1.61584 0
M  V30 16078 H 1484.68 -6.94846 0.619267 0
M  V30 16079 H 1480.58 -6.43532 -0.5037 0
M  V30 16080 H 1481.35 -8.1589 0.653188 0
M  V30 16081 N 1484.01 0.437135 -1.51416 0
M  V30 16082 C 1485.26 1.18523 -1.653 0
M  V30 16083 C 1485.61 1.88911 -0.364764 0
M  V30 16084 O 1484.91 1.80615 0.63943 0
M  V30 16085 C 1485.1 2.22795 -2.79458 0
M  V30 16086 C 1484.93 1.62642 -4.19259 0
M  V30 16087 C 1483.7 1.41126 -4.85192 0
M  V30 16088 C 1485.9 1.10255 -5.02343 0
M  V30 16089 N 1483.88 0.765717 -6.09106 0
M  V30 16090 C 1485.25 0.582285 -6.1726 0
M  V30 16091 C 1487.31 0.994325 -4.8787 0
M  V30 16092 C 1486.01 -0.0355648 -7.19291 0
M  V30 16093 C 1488.03 0.390369 -5.9011 0
M  V30 16094 C 1487.4 -0.11935 -7.04299 0
M  V30 16095 H 1483.5 0.42137 -0.658765 0
M  V30 16096 H 1486.08 0.4818 -1.88645 0
M  V30 16097 H 1484.25 2.90526 -2.57777 0
M  V30 16098 H 1485.98 2.89765 -2.82521 0
M  V30 16099 H 1482.74 1.67305 -4.43064 0
M  V30 16100 H 1483.16 0.460381 -6.75433 0
M  V30 16101 H 1487.8 1.37428 -3.99842 0
M  V30 16102 H 1485.52 -0.427644 -8.06968 0
M  V30 16103 H 1489.11 0.308533 -5.80981 0
M  V30 16104 H 1487.99 -0.579344 -7.82057 0
M  V30 16105 N 1485.49 1.41566 0.692592 0
M  V30 16106 C 1486.42 1.39582 1.81795 0
M  V30 16107 C 1487.44 0.29754 1.60058 0
M  V30 16108 O 1488.62 0.559463 1.69506 0
M  V30 16109 C 1485.72 1.15506 3.18609 0
M  V30 16110 C 1484.9 2.37432 3.67349 0
M  V30 16111 C 1483.96 2.09168 4.82841 0
M  V30 16112 O 1482.98 2.8223 4.94303 0
M  V30 16113 N 1484.18 1.08377 5.70294 0
M  V30 16114 H 1486.95 2.36577 1.83988 0
M  V30 16115 H 1484.51 1.36216 0.875026 0
M  V30 16116 H 1486.5 0.945452 3.93501 0
M  V30 16117 H 1485.07 0.270987 3.11423 0
M  V30 16118 H 1484.29 2.74076 2.8333 0
M  V30 16119 H 1485.58 3.18661 3.96652 0
M  V30 16120 H 1484.98 0.479122 5.63667 0
M  V30 16121 H 1483.54 0.934042 6.45073 0
M  V30 16122 N 1486.97 -0.927146 1.27443 0
M  V30 16123 C 1487.93 -2.00938 1.10257 0
M  V30 16124 C 1488.93 -1.60733 0.0463898 0
M  V30 16125 O 1490.12 -1.71752 0.291029 0
M  V30 16126 C 1487.25 -3.34047 0.680115 0
M  V30 16127 H 1488.45 -2.17615 2.06358 0
M  V30 16128 H 1486 -1.10802 1.10239 0
M  V30 16129 H 1486.73 -3.23069 -0.282259 0
M  V30 16130 H 1486.52 -3.64585 1.44291 0
M  V30 16131 H 1488.01 -4.13523 0.582126 0
M  V30 16132 N 1488.45 -1.09474 -1.13372 0
M  V30 16133 C 1489.67 -0.852921 -1.88502 0
M  V30 16134 C 1490.09 0.595855 -1.79151 0
M  V30 16135 O 1489.45 1.41019 -1.15845 0
M  V30 16136 C 1489.5 -1.27993 -3.38083 0
M  V30 16137 O 1489.22 -2.67189 -3.47191 0
M  V30 16138 C 1490.72 -1.07056 -4.30179 0
M  V30 16139 H 1487.94 -0.30682 -0.596743 0
M  V30 16140 H 1490.48 -1.45685 -1.43513 0
M  V30 16141 H 1488.64 -0.719879 -3.80653 0
M  V30 16142 H 1489.05 -2.85202 -4.40182 0
M  V30 16143 H 1490.53 -1.4186 -5.3346 0
M  V30 16144 H 1491 -0.00838732 -4.39199 0
M  V30 16145 H 1491.61 -1.61659 -3.93378 0
M  V30 16146 N 1489.92 1.30607 -0.882012 0
M  V30 16147 C 1491.17 1.96927 -0.509063 0
M  V30 16148 C 1491.53 1.6838 0.930903 0
M  V30 16149 O 1490.82 0.976464 1.64851 0
M  V30 16150 C 1491.01 3.50136 -0.716929 0
M  V30 16151 C 1490.84 3.93573 -2.17555 0
M  V30 16152 C 1489.61 4.19321 -2.81954 0
M  V30 16153 C 1491.81 4.06619 -3.14906 0
M  V30 16154 N 1489.79 4.49198 -4.18443 0
M  V30 16155 C 1491.16 4.40345 -4.36459 0
M  V30 16156 C 1493.22 3.89035 -3.10734 0
M  V30 16157 C 1491.92 4.58322 -5.54377 0
M  V30 16158 C 1493.95 4.08212 -4.27922 0
M  V30 16159 C 1493.31 4.42281 -5.4824 0
M  V30 16160 H 1489.41 0.745681 -0.23555 0
M  V30 16161 H 1491.99 1.57898 -1.13913 0
M  V30 16162 H 1490.16 3.88226 -0.116371 0
M  V30 16163 H 1491.89 4.03502 -0.311174 0
M  V30 16164 H 1488.65 4.12412 -2.32838 0
M  V30 16165 H 1489.07 4.68276 -4.88924 0
M  V30 16166 H 1493.72 3.61774 -2.18813 0
M  V30 16167 H 1491.43 4.84426 -6.46805 0
M  V30 16168 H 1495.02 3.96079 -4.2616 0
M  V30 16169 H 1493.9 4.56815 -6.37408 0
M  V30 16170 N 1491.4 0.642663 1.43901 0
M  V30 16171 C 1492.65 0.149167 2.01148 0
M  V30 16172 C 1492.96 -1.2405 1.51231 0
M  V30 16173 O 1494.17 -1.82864 2.00681 0
M  V30 16174 C 1492.63 0.215891 3.59252 0
M  V30 16175 C 1492.23 1.60759 4.18163 0
M  V30 16176 C 1493.98 -0.220546 4.23927 0
M  V30 16177 C 1491.89 1.62881 5.68528 0
M  V30 16178 H 1490.82 0.0520015 0.752205 0
M  V30 16179 H 1493.47 0.803152 1.6499 0
M  V30 16180 H 1491.85 -0.505409 3.92762 0
M  V30 16181 H 1493.02 2.3534 3.96171 0
M  V30 16182 H 1491.34 1.9891 3.65819 0
M  V30 16183 H 1493.93 -0.224389 5.34229 0
M  V30 16184 H 1494.28 -1.25003 3.97089 0
M  V30 16185 H 1494.81 0.448646 3.95262 0
M  V30 16186 H 1491.55 2.63704 6.00117 0
M  V30 16187 H 1491.07 0.926104 5.92607 0
M  V30 16188 H 1492.75 1.36785 6.32375 0
M  V30 16189 N 1492.88 -1.52852 0.383918 0
M  V30 16190 C 1494.29 -1.86477 -0.0912997 0
M  V30 16191 C 1494.64 -1.30382 -1.46611 0
M  V30 16192 O 1493.77 -0.633042 -2.06934 0
M  V30 16193 C 1494.36 -3.38361 -0.172447 0
M  V30 16194 C 1492.92 -3.71716 -0.591948 0
M  V30 16195 C 1492.07 -2.76176 0.24945 0
M  V30 16196 H 1495.02 -1.46839 0.602006 0
M  V30 16197 H 1495.04 -3.67325 -0.992603 0
M  V30 16198 H 1494.55 -3.79158 0.8283 0
M  V30 16199 H 1492.65 -3.36486 -1.60026 0
M  V30 16200 H 1492.77 -4.77792 -0.353835 0
M  V30 16201 H 1491.13 -2.53106 -0.284469 0
M  V30 16202 H 1491.91 -3.19809 1.24808 0
M  V30 16203 N 1494.36 -0.113586 -1.5719 0
M  V30 16204 C 1495.27 0.852428 -2.18565 0
M  V30 16205 C 1496.29 1.29668 -1.16026 0
M  V30 16206 O 1497.46 1.36079 -1.48474 0
M  V30 16207 C 1494.53 2.08675 -2.76867 0
M  V30 16208 C 1493.59 1.69493 -3.94424 0
M  V30 16209 C 1492.82 2.87042 -4.49936 0
M  V30 16210 O 1493.04 4.02311 -4.04354 0
M  V30 16211 O 1491.98 2.64439 -5.40699 0
M  V30 16212 H 1495.8 0.360144 -3.01557 0
M  V30 16213 H 1493.39 0.111744 -1.48982 0
M  V30 16214 H 1495.27 2.80976 -3.14054 0
M  V30 16215 H 1493.95 2.5692 -1.9691 0
M  V30 16216 H 1492.85 0.943161 -3.62016 0
M  V30 16217 H 1494.19 1.25995 -4.758 0
M  V30 16218 N 1495.84 1.56784 0.160173 0
M  V30 16219 C 1497.08 1.83782 0.871526 0
M  V30 16220 C 1497.44 0.695726 1.79381 0
M  V30 16221 O 1496.73 -0.307168 1.89122 0
M  V30 16222 C 1496.93 3.14703 1.69402 0
M  V30 16223 C 1496.75 4.41538 0.852869 0
M  V30 16224 C 1495.52 5.0258 0.523604 0
M  V30 16225 C 1497.72 5.13952 0.189264 0
M  V30 16226 N 1495.7 6.12999 -0.332518 0
M  V30 16227 C 1497.08 6.17752 -0.527548 0
M  V30 16228 C 1499.13 4.97782 0.108577 0
M  V30 16229 C 1497.83 7.07133 -1.31741 0
M  V30 16230 C 1499.86 5.87615 -0.667985 0
M  V30 16231 C 1499.22 6.90887 -1.37312 0
M  V30 16232 H 1495.32 0.723336 0.297169 0
M  V30 16233 H 1497.9 1.94212 0.137749 0
M  V30 16234 H 1496.08 3.05445 2.39913 0
M  V30 16235 H 1497.81 3.29657 2.34752 0
M  V30 16236 H 1494.56 4.65794 0.85631 0
M  V30 16237 H 1494.99 6.72819 -0.751215 0
M  V30 16238 H 1499.63 4.17937 0.639385 0
M  V30 16239 H 1497.35 7.86414 -1.85952 0
M  V30 16240 H 1500.93 5.77174 -0.732234 0
M  V30 16241 H 1499.81 7.59198 -1.96438 0
M  V30 16242 N 1497.32 -0.429099 1.51646 0
M  V30 16243 C 1498.23 -1.54648 1.76412 0
M  V30 16244 C 1499.24 -1.61455 0.648703 0
M  V30 16245 O 1500.42 -1.78544 0.931888 0
M  V30 16246 C 1497.48 -2.90562 1.89142 0
M  V30 16247 C 1496.54 -2.93804 3.13014 0
M  V30 16248 C 1495.78 -4.23235 3.25127 0
M  V30 16249 O 1496 -5.1606 2.42979 0
M  V30 16250 O 1494.93 -4.32929 4.18158 0
M  V30 16251 H 1498.76 -1.36661 2.71215 0
M  V30 16252 H 1496.34 -0.612946 1.36247 0
M  V30 16253 H 1498.23 -3.7121 1.99453 0
M  V30 16254 H 1496.9 -3.08659 0.975272 0
M  V30 16255 H 1495.81 -2.12082 3.08175 0
M  V30 16256 H 1497.14 -2.80654 4.04344 0
M  V30 16257 N 1498.79 -1.41931 -0.685074 0
M  V30 16258 C 1500.04 -1.41852 -1.44514 0
M  V30 16259 C 1500.37 -0.0313137 -1.94475 0
M  V30 16260 O 1499.62 0.958606 -1.70614 0
M  V30 16261 C 1499.92 -2.38099 -2.6654 0
M  V30 16262 C 1499.59 -3.8471 -2.35178 0
M  V30 16263 C 1498.25 -4.24647 -2.26336 0
M  V30 16264 C 1500.6 -4.77232 -2.0952 0
M  V30 16265 C 1497.93 -5.55101 -1.89947 0
M  V30 16266 C 1500.28 -6.08017 -1.74638 0
M  V30 16267 C 1498.95 -6.46964 -1.64299 0
M  V30 16268 H 1498.22 -0.519072 -0.528815 0
M  V30 16269 H 1500.86 -1.74802 -0.782078 0
M  V30 16270 H 1499.17 -1.9844 -3.3783 0
M  V30 16271 H 1500.87 -2.35306 -3.24703 0
M  V30 16272 H 1497.46 -3.53085 -2.42959 0
M  V30 16273 H 1501.64 -4.47173 -2.1529 0
M  V30 16274 H 1496.9 -5.84148 -1.80503 0
M  V30 16275 H 1501.07 -6.79203 -1.53807 0
M  V30 16276 H 1498.7 -7.47959 -1.35871 0
M  V30 16277 N 1500.27 0.920374 -1.27933 0
M  V30 16278 C 1501.52 1.67131 -1.1487 0
M  V30 16279 C 1501.85 1.91816 0.303343 0
M  V30 16280 O 1501.13 1.51379 1.22125 0
M  V30 16281 C 1501.41 3.03332 -1.94066 0
M  V30 16282 C 1501.26 2.85842 -3.47296 0
M  V30 16283 C 1502.58 4.03773 -1.75087 0
M  V30 16284 H 1499.7 0.606537 -0.418666 0
M  V30 16285 H 1502.34 1.06755 -1.57173 0
M  V30 16286 H 1500.49 3.54869 -1.58116 0
M  V30 16287 H 1502.16 2.41367 -3.93115 0
M  V30 16288 H 1500.41 2.21035 -3.73264 0
M  V30 16289 H 1501.08 3.82535 -3.97958 0
M  V30 16290 H 1503.55 3.61274 -2.06447 0
M  V30 16291 H 1502.43 4.97048 -2.32882 0
M  V30 16292 H 1502.69 4.36512 -0.700665 0
M  V30 16293 N 1501.75 1.10074 1.1279 0
M  V30 16294 C 1502.7 0.740977 2.20482 0
M  V30 16295 C 1503.69 -0.261163 1.67375 0
M  V30 16296 O 1504.9 -0.121923 1.79587 0
M  V30 16297 H 1501.27 0.221666 0.718588 0
M  V30 16298 H 1503.24 1.65823 2.48083 0
M  V30 16299 C 1501.99 0.184934 3.47208 0
M  V30 16300 H 1501.32 0.947278 3.88416 0
M  V30 16301 H 1502.76 -0.0287769 4.2399 0
M  V30 16302 C 1501.21 -1.08145 3.19071 0
M  V30 16303 O 1501.74 -2.1636 3.38454 0
M  V30 16304 N 1499.95 -0.998609 2.72903 0
M  V30 16305 H 1499.5 -0.117906 2.5733 0
M  V30 16306 H 1499.46 -1.84664 2.54453 0
M  V30 16307 N 1503.23 -1.30138 0.888926 0
M  V30 16308 C 1504.46 -2.00143 0.524437 0
M  V30 16309 C 1504.87 -1.66608 -0.888093 0
M  V30 16310 O 1504.23 -0.905326 -1.58462 0
M  V30 16311 C 1504.28 -3.54769 0.694327 0
M  V30 16312 O 1504 -3.87112 2.05125 0
M  V30 16313 C 1505.5 -4.42045 0.333354 0
M  V30 16314 H 1502.72 -0.639775 0.202309 0
M  V30 16315 H 1505.26 -1.65929 1.19531 0
M  V30 16316 H 1503.42 -3.87335 0.0707712 0
M  V30 16317 H 1503.83 -4.81807 2.07275 0
M  V30 16318 H 1505.31 -5.49702 0.503107 0
M  V30 16319 H 1505.78 -4.33109 -0.728893 0
M  V30 16320 H 1506.39 -4.14931 0.933398 0
M  V30 16321 N 1504.71 -0.650285 -1.43559 0
M  V30 16322 C 1506.12 -0.24263 -1.85117 0
M  V30 16323 C 1506.47 1.21017 -1.54432 0
M  V30 16324 O 1505.59 1.92332 -0.991839 0
M  V30 16325 C 1506.19 -0.433575 -3.36014 0
M  V30 16326 C 1504.75 -0.0802635 -3.76314 0
M  V30 16327 C 1503.89 -0.737844 -2.67303 0
M  V30 16328 H 1506.84 -0.854158 -1.33753 0
M  V30 16329 H 1506.87 0.321801 -3.79137 0
M  V30 16330 H 1506.38 -1.49102 -3.58316 0
M  V30 16331 H 1504.48 0.974703 -3.59625 0
M  V30 16332 H 1504.59 -0.503683 -4.76445 0
M  V30 16333 H 1502.96 -0.171349 -2.54123 0
M  V30 16334 H 1503.74 -1.79826 -2.92434 0
M  V30 16335 N 1506.18 1.52647 -0.392018 0
M  V30 16336 C 1507.59 1.86522 0.0814091 0
M  V30 16337 C 1507.95 1.31158 1.45918 0
M  V30 16338 O 1507.07 0.644007 2.06595 0
M  V30 16339 C 1507.67 3.38448 0.1545 0
M  V30 16340 C 1506.22 3.72025 0.572227 0
M  V30 16341 C 1505.37 2.7604 -0.264093 0
M  V30 16342 H 1508.32 1.46517 -0.609785 0
M  V30 16343 H 1508.34 3.67846 0.973109 0
M  V30 16344 H 1507.86 3.78713 -0.848396 0
M  V30 16345 H 1505.96 3.37329 1.58239 0
M  V30 16346 H 1506.07 4.77973 0.328491 0
M  V30 16347 H 1504.43 2.53254 0.271042 0
M  V30 16348 H 1505.22 3.19143 -1.26502 0
M  V30 16349 N 1507.66 0.121921 1.57128 0
M  V30 16350 C 1508.59 -0.823788 2.18486 0
M  V30 16351 C 1509.57 -1.27519 1.12574 0
M  V30 16352 O 1510.76 -1.33727 1.40822 0
M  V30 16353 C 1507.89 -2.07284 2.78659 0
M  V30 16354 C 1506.84 -1.75912 3.90178 0
M  V30 16355 C 1506.17 -3.07871 4.37172 0
M  V30 16356 C 1507.47 -1.02517 5.1214 0
M  V30 16357 H 1509.16 -0.312488 2.97765 0
M  V30 16358 H 1506.71 -0.148862 1.43228 0
M  V30 16359 H 1508.66 -2.73903 3.20242 0
M  V30 16360 H 1507.39 -2.60743 1.96673 0
M  V30 16361 H 1506.04 -1.11681 3.49174 0
M  V30 16362 H 1505.69 -3.59271 3.52041 0
M  V30 16363 H 1505.39 -2.87653 5.12376 0
M  V30 16364 H 1506.92 -3.75604 4.81409 0
M  V30 16365 H 1508.33 -1.59295 5.50725 0
M  V30 16366 H 1506.73 -0.923836 5.92946 0
M  V30 16367 H 1507.8 -0.0124219 4.84898 0
M  V30 16368 N 1509.14 -1.56867 -0.151857 0
M  V30 16369 C 1510.39 -1.83353 -0.866566 0
M  V30 16370 C 1510.72 -0.702784 -1.81038 0
M  V30 16371 O 1509.99 0.293944 -1.92266 0
M  V30 16372 C 1510.28 -3.20316 -1.64529 0
M  V30 16373 C 1510.13 -4.43946 -0.723297 0
M  V30 16374 C 1511.45 -3.54441 -2.60882 0
M  V30 16375 H 1508.57 -0.666957 -0.313588 0
M  V30 16376 H 1511.21 -1.89541 -0.131954 0
M  V30 16377 H 1509.36 -3.15172 -2.27154 0
M  V30 16378 H 1511.03 -4.61173 -0.10842 0
M  V30 16379 H 1509.28 -4.33788 -0.0325582 0
M  V30 16380 H 1509.95 -5.36374 -1.3041 0
M  V30 16381 H 1512.42 -3.60164 -2.08377 0
M  V30 16382 H 1511.3 -4.51314 -3.12422 0
M  V30 16383 H 1511.56 -2.80146 -3.42009 0
M  V30 16384 N 1510.62 0.421051 -1.51871 0
M  V30 16385 C 1511.57 1.5122 -1.74359 0
M  V30 16386 C 1512.54 1.55432 -0.585667 0
M  V30 16387 O 1513.72 1.7219 -0.821912 0
M  V30 16388 C 1510.86 2.88787 -1.88935 0
M  V30 16389 C 1509.97 2.93977 -3.16546 0
M  V30 16390 C 1509.11 4.22768 -3.21622 0
M  V30 16391 C 1508.15 4.21888 -4.43483 0
M  V30 16392 N 1507.28 5.4223 -4.46017 0
M  V30 16393 H 1512.12 1.31348 -2.67492 0
M  V30 16394 H 1509.66 0.637779 -1.32555 0
M  V30 16395 H 1511.62 3.68629 -1.95368 0
M  V30 16396 H 1510.25 3.07181 -0.991942 0
M  V30 16397 H 1509.3 2.06699 -3.19343 0
M  V30 16398 H 1510.61 2.8919 -4.06412 0
M  V30 16399 H 1509.77 5.10995 -3.27061 0
M  V30 16400 H 1508.51 4.30234 -2.29674 0
M  V30 16401 H 1507.51 3.32052 -4.38202 0
M  V30 16402 H 1508.74 4.16072 -5.36713 0
M  V30 16403 H 1506.68 5.50386 -3.56947 0
M  V30 16404 H 1506.6 5.39389 -5.29713 0
M  V30 16405 H 1507.87 6.32443 -4.55671 0
M  V30 16406 N 1512.1 1.42293 0.677538 0
M  V30 16407 C 1513.03 1.48344 1.80323 0
M  V30 16408 C 1514.01 0.340276 1.66662 0
M  V30 16409 O 1515.19 0.554209 1.86124 0
M  V30 16410 C 1512.32 1.38247 3.18599 0
M  V30 16411 C 1511.28 2.50562 3.46991 0
M  V30 16412 C 1510.6 2.25524 4.84812 0
M  V30 16413 C 1511.9 3.92877 3.44158 0
M  V30 16414 H 1513.6 2.42558 1.75516 0
M  V30 16415 H 1511.14 1.16746 0.842999 0
M  V30 16416 H 1513.1 1.41089 3.97079 0
M  V30 16417 H 1511.82 0.405255 3.24076 0
M  V30 16418 H 1510.48 2.47032 2.7087 0
M  V30 16419 H 1510.13 1.26102 4.86937 0
M  V30 16420 H 1509.83 3.00797 5.04772 0
M  V30 16421 H 1511.35 2.3011 5.65581 0
M  V30 16422 H 1512.76 3.98024 4.12613 0
M  V30 16423 H 1511.16 4.6798 3.75653 0
M  V30 16424 H 1512.23 4.19743 2.42783 0
M  V30 16425 N 1513.57 -0.913576 1.28419 0
M  V30 16426 C 1514.82 -1.66546 1.16765 0
M  V30 16427 C 1515.18 -1.90338 -0.280935 0
M  V30 16428 O 1514.47 -1.49279 -1.2011 0
M  V30 16429 C 1514.66 -3.02722 1.89985 0
M  V30 16430 C 1514.49 -2.9222 3.41815 0
M  V30 16431 C 1513.26 -2.93735 4.11154 0
M  V30 16432 C 1515.46 -2.70279 4.37554 0
M  V30 16433 N 1513.44 -2.73824 5.49448 0
M  V30 16434 C 1514.81 -2.59213 5.63213 0
M  V30 16435 C 1516.87 -2.55278 4.27478 0
M  V30 16436 C 1515.57 -2.34673 6.79942 0
M  V30 16437 C 1517.6 -2.32118 5.43944 0
M  V30 16438 C 1516.96 -2.21806 6.68567 0
M  V30 16439 H 1513.06 -0.615629 0.482208 0
M  V30 16440 H 1515.64 -1.07892 1.62072 0
M  V30 16441 H 1513.81 -3.59462 1.47112 0
M  V30 16442 H 1515.54 -3.66932 1.70714 0
M  V30 16443 H 1512.3 -3.04498 3.62736 0
M  V30 16444 H 1512.72 -2.6696 6.22143 0
M  V30 16445 H 1517.37 -2.62001 3.31836 0
M  V30 16446 H 1515.08 -2.26689 7.75653 0
M  V30 16447 H 1518.67 -2.21375 5.38038 0
M  V30 16448 H 1517.55 -2.0413 7.57166 0
M  V30 16449 N 1515.05 -1.1067 -1.12204 0
M  V30 16450 C 1516.28 -0.871601 -1.87314 0
M  V30 16451 C 1516.69 0.581644 -1.80038 0
M  V30 16452 O 1516.03 1.4129 -1.17401 0
M  V30 16453 C 1516.1 -1.24458 -3.37269 0
M  V30 16454 C 1515.76 -2.70536 -3.6832 0
M  V30 16455 C 1516.76 -3.68769 -3.66477 0
M  V30 16456 C 1514.44 -3.06982 -3.97577 0
M  V30 16457 C 1516.44 -5.01471 -3.93454 0
M  V30 16458 C 1514.12 -4.39871 -4.24213 0
M  V30 16459 C 1515.12 -5.36924 -4.22139 0
M  V30 16460 O 1514.81 -6.6742 -4.48113 0
M  V30 16461 H 1514.54 -0.312472 -0.599447 0
M  V30 16462 H 1517.09 -1.47562 -1.4288 0
M  V30 16463 H 1515.32 -0.583674 -3.8227 0
M  V30 16464 H 1517.01 -0.986569 -3.93728 0
M  V30 16465 H 1517.78 -3.41957 -3.43934 0
M  V30 16466 H 1513.66 -2.32062 -3.98332 0
M  V30 16467 H 1517.2 -5.77215 -3.9175 0
M  V30 16468 H 1513.1 -4.6642 -4.46231 0
M  V30 16469 H 1513.87 -6.73088 -4.6572 0
M  V30 16470 N 1516.53 1.29665 -0.895815 0
M  V30 16471 C 1517.46 2.26842 -0.327939 0
M  V30 16472 C 1518.48 1.54151 0.523578 0
M  V30 16473 O 1519.66 1.75205 0.341367 0
M  V30 16474 C 1516.76 3.34384 0.551393 0
M  V30 16475 C 1515.94 4.36544 -0.273514 0
M  V30 16476 C 1515 5.23442 0.538031 0
M  V30 16477 O 1514.02 5.69184 -0.0431025 0
M  V30 16478 N 1515.22 5.50402 1.84493 0
M  V30 16479 H 1517.99 2.76208 -1.16315 0
M  V30 16480 H 1515.55 1.42958 -0.759903 0
M  V30 16481 H 1517.54 3.89446 1.10062 0
M  V30 16482 H 1516.11 2.84864 1.28728 0
M  V30 16483 H 1515.33 3.81196 -1.00416 0
M  V30 16484 H 1516.62 5.01842 -0.838589 0
M  V30 16485 H 1516.02 5.15041 2.33985 0
M  V30 16486 H 1514.58 6.08295 2.34137 0
M  V30 16487 N 1518.01 0.657889 1.43212 0
M  V30 16488 C 1518.94 -0.0172114 2.33494 0
M  V30 16489 C 1519.92 -0.807087 1.49733 0
M  V30 16490 O 1521.1 -0.767631 1.78385 0
M  V30 16491 C 1518.23 -0.981029 3.33156 0
M  V30 16492 C 1517.19 -0.30094 4.26941 0
M  V30 16493 C 1516.51 -1.37653 5.16678 0
M  V30 16494 C 1517.81 0.809572 5.15988 0
M  V30 16495 H 1519.51 0.736749 2.90194 0
M  V30 16496 H 1517.05 0.355744 1.39537 0
M  V30 16497 H 1519.01 -1.46226 3.95216 0
M  V30 16498 H 1517.73 -1.76621 2.74723 0
M  V30 16499 H 1516.39 0.159893 3.66251 0
M  V30 16500 H 1516.04 -2.15326 4.54581 0
M  V30 16501 H 1515.74 -0.926704 5.80246 0
M  V30 16502 H 1517.26 -1.85903 5.81612 0
M  V30 16503 H 1518.68 0.410297 5.7183 0
M  V30 16504 H 1517.07 1.18415 5.88301 0
M  V30 16505 H 1518.14 1.66558 4.55397 0
M  V30 16506 N 1519.49 -1.52437 0.400108 0
M  V30 16507 C 1520.4 -2.30496 -0.436875 0
M  V30 16508 C 1521.41 -1.37851 -1.06175 0
M  V30 16509 O 1522.59 -1.70924 -1.06522 0
M  V30 16510 C 1519.65 -3.10459 -1.54325 0
M  V30 16511 C 1518.71 -4.18829 -0.942367 0
M  V30 16512 C 1517.95 -4.94969 -1.99602 0
M  V30 16513 O 1518.17 -4.71314 -3.21278 0
M  V30 16514 O 1517.1 -5.80043 -1.60728 0
M  V30 16515 H 1520.93 -3.03045 0.199343 0
M  V30 16516 H 1518.52 -1.48502 0.163541 0
M  V30 16517 H 1520.4 -3.60282 -2.18575 0
M  V30 16518 H 1519.07 -2.40713 -2.16423 0
M  V30 16519 H 1517.98 -3.73176 -0.262831 0
M  V30 16520 H 1519.31 -4.90841 -0.365441 0
M  V30 16521 N 1520.96 -0.130252 -1.57061 0
M  V30 16522 C 1521.91 0.815767 -2.15902 0
M  V30 16523 C 1522.88 1.2558 -1.08715 0
M  V30 16524 O 1524.07 1.33132 -1.36677 0
M  V30 16525 C 1521.21 2.0561 -2.77162 0
M  V30 16526 C 1520.32 1.6634 -3.98692 0
M  V30 16527 C 1519.45 2.85425 -4.48002 0
M  V30 16528 C 1518.49 2.42449 -5.62036 0
M  V30 16529 N 1517.63 3.54486 -6.0604 0
M  V30 16530 H 1522.47 0.307164 -2.96413 0
M  V30 16531 H 1520.01 0.139913 -1.46433 0
M  V30 16532 H 1521.97 2.78298 -3.10815 0
M  V30 16533 H 1520.6 2.5391 -1.99323 0
M  V30 16534 H 1519.65 0.834817 -3.71127 0
M  V30 16535 H 1520.96 1.30765 -4.81354 0
M  V30 16536 H 1520.11 3.66325 -4.83623 0
M  V30 16537 H 1518.85 3.24235 -3.64312 0
M  V30 16538 H 1517.86 1.59985 -5.26008 0
M  V30 16539 H 1519.08 2.04744 -6.475 0
M  V30 16540 H 1517.03 3.92948 -5.25289 0
M  V30 16541 H 1516.95 3.22871 -6.83586 0
M  V30 16542 H 1518.21 4.35792 -6.46302 0
M  V30 16543 N 1522.44 1.56945 0.143535 0
M  V30 16544 C 1523.35 2.01795 1.1965 0
M  V30 16545 C 1524.37 0.933965 1.4681 0
M  V30 16546 O 1525.55 1.2437 1.58411 0
M  V30 16547 C 1522.61 2.39249 2.5092 0
M  V30 16548 C 1521.67 3.61613 2.31376 0
M  V30 16549 C 1520.9 3.97271 3.56386 0
M  V30 16550 O 1521.13 3.33552 4.62709 0
M  V30 16551 O 1520.06 4.90501 3.48844 0
M  V30 16552 H 1523.89 2.91687 0.845718 0
M  V30 16553 H 1521.47 1.45182 0.352518 0
M  V30 16554 H 1523.35 2.64184 3.28306 0
M  V30 16555 H 1522.03 1.52511 2.85521 0
M  V30 16556 H 1520.94 3.4186 1.51929 0
M  V30 16557 H 1522.27 4.48979 2.01689 0
M  V30 16558 N 1523.92 -0.412991 1.52093 0
M  V30 16559 C 1525.33 -0.991955 1.58168 0
M  V30 16560 C 1525.68 -1.91655 0.419834 0
M  V30 16561 O 1524.81 -2.11448 -0.460308 0
M  V30 16562 C 1525.4 -1.80581 2.86663 0
M  V30 16563 C 1523.96 -2.33487 2.9523 0
M  V30 16564 C 1523.11 -1.13362 2.5307 0
M  V30 16565 H 1526.06 -0.193364 1.57518 0
M  V30 16566 H 1526.08 -2.66282 2.71798 0
M  V30 16567 H 1525.59 -1.13262 3.71205 0
M  V30 16568 H 1523.69 -3.0419 2.15173 0
M  V30 16569 H 1523.81 -2.64617 3.99393 0
M  V30 16570 H 1522.17 -1.48641 2.06828 0
M  V30 16571 H 1522.95 -0.476148 3.39982 0
M  V30 16572 N 1525.4 -1.4265 -0.669982 0
M  V30 16573 C 1526.65 -1.42667 -1.42579 0
M  V30 16574 C 1526.96 -0.0483217 -1.9554 0
M  V30 16575 O 1528.17 0.0740917 -2.71399 0
M  V30 16576 C 1526.62 -2.5098 -2.57948 0
M  V30 16577 C 1526.23 -3.94844 -2.11666 0
M  V30 16578 C 1527.98 -2.6017 -3.35428 0
M  V30 16579 C 1525.88 -4.94655 -3.24146 0
M  V30 16580 H 1524.81 -0.530651 -0.535654 0
M  V30 16581 H 1527.46 -1.68576 -0.724861 0
M  V30 16582 H 1525.85 -2.18244 -3.30432 0
M  V30 16583 H 1527.02 -4.36958 -1.46303 0
M  V30 16584 H 1525.33 -3.89547 -1.47111 0
M  V30 16585 H 1527.93 -3.31918 -4.19207 0
M  V30 16586 H 1528.27 -1.64683 -3.82342 0
M  V30 16587 H 1528.81 -2.92124 -2.70016 0
M  V30 16588 H 1525.55 -5.91636 -2.82218 0
M  V30 16589 H 1525.07 -4.57168 -3.88275 0
M  V30 16590 H 1526.75 -5.16593 -3.89538 0
M  V30 16591 N 1526.88 0.906753 -1.28902 0
M  V30 16592 C 1528.12 1.65903 -1.16636 0
M  V30 16593 C 1528.46 1.92127 0.282981 0
M  V30 16594 O 1527.73 1.52666 1.20513 0
M  V30 16595 C 1528.01 3.01257 -1.97272 0
M  V30 16596 C 1527.87 2.82143 -3.50308 0
M  V30 16597 C 1529.19 4.01893 -1.7936 0
M  V30 16598 H 1526.31 0.602063 -0.425076 0
M  V30 16599 H 1528.95 1.05081 -1.58297 0
M  V30 16600 H 1527.1 3.53172 -1.61871 0
M  V30 16601 H 1528.77 2.37184 -3.95653 0
M  V30 16602 H 1527.01 2.17063 -3.75588 0
M  V30 16603 H 1527.68 3.78293 -4.01993 0
M  V30 16604 H 1530.16 3.59064 -2.10267 0
M  V30 16605 H 1529.04 4.9455 -2.38141 0
M  V30 16606 H 1529.3 4.35745 -0.746923 0
M  V30 16607 N 1528.36 1.11264 1.11616 0
M  V30 16608 C 1529.6 0.858664 1.82952 0
M  V30 16609 C 1529.92 -0.617439 1.84967 0
M  V30 16610 O 1529.19 -1.44849 1.31893 0
M  V30 16611 H 1527.77 0.314671 0.677489 0
M  V30 16612 H 1530.44 1.40466 1.35113 0
M  V30 16613 H 1529.53 1.22921 2.86874 0
M  V30 16614 N 1529.83 -1.29188 0.902679 0
M  V30 16615 C 1530.8 -2.25901 0.387485 0
M  V30 16616 C 1531.8 -1.53469 -0.479993 0
M  V30 16617 O 1532.99 -1.71859 -0.284623 0
M  V30 16618 C 1530.12 -3.37974 -0.445723 0
M  V30 16619 H 1531.31 -2.72988 1.24167 0
M  V30 16620 H 1528.86 -1.4068 0.681083 0
M  V30 16621 H 1529.6 -2.9623 -1.31977 0
M  V30 16622 H 1529.38 -3.91705 0.175899 0
M  V30 16623 H 1530.87 -4.09917 -0.797384 0
M  V30 16624 N 1531.31 -0.665475 -1.42861 0
M  V30 16625 C 1532.22 0.018927 -2.34592 0
M  V30 16626 C 1533.24 0.798967 -1.54572 0
M  V30 16627 O 1534.41 0.743419 -1.87177 0
M  V30 16628 C 1531.48 0.965013 -3.32999 0
M  V30 16629 C 1530.54 0.180544 -4.2892 0
M  V30 16630 C 1529.77 1.08157 -5.22626 0
M  V30 16631 O 1530 2.32101 -5.21043 0
M  V30 16632 O 1528.93 0.54738 -5.99406 0
M  V30 16633 H 1532.76 -0.736444 -2.94636 0
M  V30 16634 H 1530.34 -0.425684 -1.43207 0
M  V30 16635 H 1532.22 1.50839 -3.93479 0
M  V30 16636 H 1530.9 1.7004 -2.75442 0
M  V30 16637 H 1529.8 -0.40671 -3.71883 0
M  V30 16638 H 1531.14 -0.515529 -4.89493 0
M  V30 16639 N 1532.79 1.52222 -0.408187 0
M  V30 16640 C 1534.02 2.06221 0.16743 0
M  V30 16641 C 1534.43 1.27832 1.3894 0
M  V30 16642 O 1533.79 0.329933 1.79493 0
M  V30 16643 C 1533.84 3.57758 0.518804 0
M  V30 16644 O 1533.56 4.33181 -0.654639 0
M  V30 16645 C 1535.06 4.28171 1.14825 0
M  V30 16646 H 1532.28 0.670677 0.0208054 0
M  V30 16647 H 1534.83 1.96136 -0.578868 0
M  V30 16648 H 1532.98 3.67854 1.215 0
M  V30 16649 H 1533.4 5.23252 -0.361558 0
M  V30 16650 H 1534.87 5.3538 1.34433 0
M  V30 16651 H 1535.35 3.84586 2.12108 0
M  V30 16652 H 1535.95 4.22441 0.492291 0
M  V30 16653 N 1534.27 0.138579 1.5699 0
M  V30 16654 C 1535.51 -0.514627 1.95852 0
M  V30 16655 C 1535.84 -1.65424 1.02299 0
M  V30 16656 O 1535.1 -1.95635 0.0505654 0
M  V30 16657 C 1535.4 -1.06969 3.41017 0
M  V30 16658 C 1535.06 -0.049396 4.50873 0
M  V30 16659 C 1533.72 0.231103 4.80645 0
M  V30 16660 C 1536.08 0.644865 5.17195 0
M  V30 16661 C 1533.4 1.21181 5.74049 0
M  V30 16662 C 1535.76 1.61434 6.11655 0
M  V30 16663 C 1534.42 1.90262 6.3981 0
M  V30 16664 H 1533.69 -0.188315 0.716672 0
M  V30 16665 H 1536.34 0.223629 1.9019 0
M  V30 16666 H 1534.64 -1.88511 3.43469 0
M  V30 16667 H 1536.34 -1.58354 3.68409 0
M  V30 16668 H 1532.93 -0.278202 4.27696 0
M  V30 16669 H 1537.11 0.441346 4.94334 0
M  V30 16670 H 1532.37 1.4417 5.94159 0
M  V30 16671 H 1536.54 2.15786 6.62125 0
M  V30 16672 H 1534.17 2.66407 7.11991 0
M  V30 16673 N 1535.75 -1.57019 -0.13521 0
M  V30 16674 C 1536.98 -1.87887 -0.859187 0
M  V30 16675 C 1537.38 -0.726131 -1.74711 0
M  V30 16676 O 1536.73 0.312784 -1.81018 0
M  V30 16677 C 1536.79 -3.13594 -1.75782 0
M  V30 16678 C 1536.45 -4.44872 -1.04586 0
M  V30 16679 C 1537.45 -5.18403 -0.39422 0
M  V30 16680 C 1535.13 -4.91587 -1.03185 0
M  V30 16681 C 1537.13 -6.36862 0.261905 0
M  V30 16682 C 1534.82 -6.09967 -0.371923 0
M  V30 16683 C 1535.81 -6.82451 0.273817 0
M  V30 16684 O 1535.5 -7.98581 0.923256 0
M  V30 16685 H 1535.23 -0.626795 -0.253188 0
M  V30 16686 H 1537.79 -2.04994 -0.129109 0
M  V30 16687 H 1536.02 -2.92527 -2.52913 0
M  V30 16688 H 1537.71 -3.30613 -2.35478 0
M  V30 16689 H 1538.47 -4.83374 -0.396766 0
M  V30 16690 H 1534.35 -4.35085 -1.52389 0
M  V30 16691 H 1537.9 -6.93376 0.766515 0
M  V30 16692 H 1533.79 -6.44455 -0.367084 0
M  V30 16693 H 1534.56 -8.1432 0.826104 0
M  V30 16694 N 1537.22 0.404919 -1.52309 0
M  V30 16695 C 1538.47 1.15319 -1.66822 0
M  V30 16696 C 1538.8 1.90056 -0.399041 0
M  V30 16697 O 1538.08 1.84927 0.602679 0
M  V30 16698 C 1538.36 2.14426 -2.89298 0
M  V30 16699 C 1538.21 1.43558 -4.26276 0
M  V30 16700 C 1539.53 3.15046 -3.07301 0
M  V30 16701 H 1536.65 0.417869 -0.607087 0
M  V30 16702 H 1539.29 0.438414 -1.84873 0
M  V30 16703 H 1537.44 2.75382 -2.74039 0
M  V30 16704 H 1539.12 0.856899 -4.53271 0
M  V30 16705 H 1537.36 0.737515 -4.27485 0
M  V30 16706 H 1538.03 2.15895 -5.08029 0
M  V30 16707 H 1540.51 2.6417 -3.21486 0
M  V30 16708 H 1539.38 3.81652 -3.94503 0
M  V30 16709 H 1539.64 3.83012 -2.20803 0
M  V30 16710 N 1538.7 1.43003 0.662408 0
M  V30 16711 C 1539.98 1.34613 1.41911 0
M  V30 16712 C 1540.36 -0.0105336 2.11097 0
M  V30 16713 O 1539.71 -1.02667 2.04137 0
M  V30 16714 C 1539.92 2.52297 2.41137 0
M  V30 16715 C 1541.27 2.94972 3.05412 0
M  V30 16716 O 1542.29 2.52277 2.51465 0
M  V30 16717 O 1541.15 3.68906 4.03201 0
M  V30 16718 H 1538.24 0.531508 0.633583 0
M  V30 16719 H 1540.79 1.55035 0.690088 0
M  V30 16720 H 1539.56 3.42685 1.88898 0
M  V30 16721 H 1539.18 2.33926 3.21503 0
M  V30 16722 N 1540.18 -0.899904 1.29381 0
M  V30 16723 C 1541.43 -1.64712 1.17109 0
M  V30 16724 C 1541.75 -1.93011 -0.277772 0
M  V30 16725 O 1541.02 -1.55604 -1.19013 0
M  V30 16726 H 1539.6 -0.610532 0.430418 0
M  V30 16727 H 1542.26 -1.07905 1.62304 0
M  V30 16728 H 1541.36 -2.60362 1.72098 0
M  V30 16729 N 1541.66 -1.11854 -1.11024 0
M  V30 16730 C 1542.62 -0.784033 -2.15373 0
M  V30 16731 C 1543.62 0.198686 -1.59568 0
M  V30 16732 O 1544.81 -0.0263428 -1.7418 0
M  V30 16733 C 1541.94 -0.163987 -3.40505 0
M  V30 16734 H 1543.14 -1.70849 -2.46477 0
M  V30 16735 H 1540.69 -0.920988 -1.26283 0
M  V30 16736 H 1541.42 0.770483 -3.15014 0
M  V30 16737 H 1541.21 -0.871447 -3.82293 0
M  V30 16738 H 1542.7 0.0537739 -4.17565 0
M  V30 16739 N 1543.14 1.28707 -0.909517 0
M  V30 16740 C 1544.1 2.25692 -0.39946 0
M  V30 16741 C 1545.1 1.53721 0.471848 0
M  V30 16742 O 1546.29 1.72008 0.275504 0
M  V30 16743 C 1543.42 3.38205 0.427793 0
M  V30 16744 H 1544.61 2.72326 -1.25613 0
M  V30 16745 H 1542.17 1.40317 -0.688535 0
M  V30 16746 H 1542.9 2.96926 1.30404 0
M  V30 16747 H 1542.69 3.91606 -0.19667 0
M  V30 16748 H 1544.18 4.10334 0.775634 0
M  V30 16749 N 1544.61 0.673042 1.42506 0
M  V30 16750 C 1545.84 0.201349 2.0642 0
M  V30 16751 C 1546.26 -1.132 1.50224 0
M  V30 16752 O 1545.62 -1.70368 0.620024 0
M  V30 16753 C 1545.67 0.14505 3.60308 0
M  V30 16754 O 1544.77 -0.886953 4.02749 0
M  V30 16755 H 1544.12 0.103975 0.655809 0
M  V30 16756 H 1546.65 0.921559 1.8267 0
M  V30 16757 H 1546.66 -0.0316792 4.07988 0
M  V30 16758 H 1545.33 1.11829 4.00583 0
M  V30 16759 H 1543.91 -0.681408 3.66621 0
M  V30 16760 N 1546.09 -1.52004 0.416254 0
M  V30 16761 C 1547.51 -1.59457 0.0674775 0
M  V30 16762 C 1547.71 -1.42865 -1.42098 0
M  V30 16763 O 1546.76 -1.2592 -2.18862 0
M  V30 16764 C 1548.08 -2.95272 0.56876 0
M  V30 16765 C 1549.63 -3.08525 0.527356 0
M  V30 16766 C 1550.1 -4.46832 1.00526 0
M  V30 16767 N 1551.59 -4.53092 0.962377 0
M  V30 16768 C 1552.33 -5.58393 1.30327 0
M  V30 16769 N 1551.82 -6.71212 1.71597 0
M  V30 16770 N 1553.62 -5.48639 1.22278 0
M  V30 16771 H 1545.77 -1.61036 1.38496 0
M  V30 16772 H 1548.03 -0.75795 0.569399 0
M  V30 16773 H 1547.74 -3.12717 1.60937 0
M  V30 16774 H 1547.61 -3.77196 -0.0177595 0
M  V30 16775 H 1550 -2.9076 -0.504225 0
M  V30 16776 H 1550.08 -2.28491 1.15002 0
M  V30 16777 H 1549.72 -4.6534 2.03521 0
M  V30 16778 H 1549.65 -5.25373 0.359345 0
M  V30 16779 H 1552.14 -3.72109 0.65904 0
M  V30 16780 H 1552.46 -7.47558 1.95901 0
M  V30 16781 H 1550.8 -6.72475 1.75507 0
M  V30 16782 H 1553.99 -4.59383 0.899175 0
M  V30 16783 H 1554.16 -6.30596 1.49175 0
M  V30 16784 N 1547.57 -0.146903 -1.56914 0
M  V30 16785 C 1548.48 0.805875 -2.20324 0
M  V30 16786 C 1549.5 1.27178 -1.18751 0
M  V30 16787 O 1550.67 1.32899 -1.51327 0
M  V30 16788 C 1547.74 2.02755 -2.81232 0
M  V30 16789 C 1546.8 1.61089 -3.97931 0
M  V30 16790 C 1546.03 2.77433 -4.55924 0
M  V30 16791 O 1546.25 3.93643 -4.12797 0
M  V30 16792 O 1545.19 2.52911 -5.46187 0
M  V30 16793 H 1549.01 0.296098 -3.02253 0
M  V30 16794 H 1546.6 0.0801175 -1.49185 0
M  V30 16795 H 1548.48 2.74252 -3.19944 0
M  V30 16796 H 1547.16 2.52686 -2.02316 0
M  V30 16797 H 1546.06 0.86616 -3.63935 0
M  V30 16798 H 1547.4 1.15874 -4.78366 0
M  V30 16799 N 1549.05 1.57088 0.126881 0
M  V30 16800 C 1550.28 1.88614 0.850444 0
M  V30 16801 C 1550.69 0.737309 1.73808 0
M  V30 16802 O 1550.05 -0.292196 1.80146 0
M  V30 16803 C 1550.1 3.19541 1.69044 0
M  V30 16804 O 1549.82 4.3 0.838555 0
M  V30 16805 C 1551.32 3.64717 2.51985 0
M  V30 16806 H 1548.54 0.624715 0.244892 0
M  V30 16807 H 1551.09 2.04184 0.113634 0
M  V30 16808 H 1549.24 3.05664 2.38009 0
M  V30 16809 H 1549.65 5.04992 1.41717 0
M  V30 16810 H 1551.13 4.5911 3.06467 0
M  V30 16811 H 1551.61 2.90986 3.28974 0
M  V30 16812 H 1552.21 3.81356 1.88276 0
M  V30 16813 N 1550.53 -0.396836 1.52522 0
M  V30 16814 C 1551.47 -1.48427 1.76743 0
M  V30 16815 C 1552.44 -1.54481 0.610321 0
M  V30 16816 O 1553.63 -1.7086 0.849201 0
M  V30 16817 C 1550.77 -2.85744 1.93505 0
M  V30 16818 C 1549.88 -2.88904 3.21183 0
M  V30 16819 C 1549.02 -4.17598 3.28307 0
M  V30 16820 C 1548.06 -4.14779 4.50138 0
M  V30 16821 N 1547.19 -5.35065 4.54587 0
M  V30 16822 H 1552.03 -1.27075 2.69548 0
M  V30 16823 H 1549.57 -0.61661 1.33553 0
M  V30 16824 H 1551.53 -3.65474 2.01208 0
M  V30 16825 H 1550.16 -3.05564 1.04069 0
M  V30 16826 H 1549.21 -2.01592 3.22591 0
M  V30 16827 H 1550.52 -2.82688 4.10961 0
M  V30 16828 H 1549.68 -5.05727 3.35149 0
M  V30 16829 H 1548.41 -4.26526 2.36489 0
M  V30 16830 H 1547.42 -3.25039 4.4343 0
M  V30 16831 H 1548.64 -4.07481 5.43264 0
M  V30 16832 H 1546.59 -5.44638 3.65658 0
M  V30 16833 H 1546.51 -5.30894 5.38227 0
M  V30 16834 H 1547.78 -6.25114 4.65675 0
M  V30 16835 N 1552.01 -1.43353 -0.654814 0
M  V30 16836 C 1552.94 -1.51194 -1.7794 0
M  V30 16837 C 1553.92 -0.366747 -1.66099 0
M  V30 16838 O 1555.1 -0.58375 -1.85219 0
M  V30 16839 C 1552.23 -1.43298 -3.16359 0
M  V30 16840 C 1551.19 -2.5605 -3.42961 0
M  V30 16841 C 1550.51 -2.33208 -4.81163 0
M  V30 16842 C 1551.81 -3.98303 -3.37864 0
M  V30 16843 H 1553.51 -2.4532 -1.71635 0
M  V30 16844 H 1551.05 -1.18072 -0.824319 0
M  V30 16845 H 1553 -1.47388 -3.94784 0
M  V30 16846 H 1551.73 -0.456761 -3.2339 0
M  V30 16847 H 1550.39 -2.5131 -2.66906 0
M  V30 16848 H 1550.04 -1.33833 -4.84869 0
M  V30 16849 H 1549.74 -3.08789 -4.99923 0
M  V30 16850 H 1551.26 -2.39079 -5.61848 0
M  V30 16851 H 1552.67 -4.04538 -4.06229 0
M  V30 16852 H 1551.07 -4.73897 -3.6816 0
M  V30 16853 H 1552.14 -4.23552 -2.36075 0
M  V30 16854 N 1553.48 0.89303 -1.29857 0
M  V30 16855 C 1554.73 1.64088 -1.17981 0
M  V30 16856 C 1555.05 1.93156 0.267533 0
M  V30 16857 O 1554.32 1.56233 1.18186 0
M  V30 16858 H 1552.9 0.608241 -0.43365 0
M  V30 16859 H 1555.56 1.07042 -1.62874 0
M  V30 16860 H 1554.66 2.59446 -1.73477 0
M  V30 16861 N 1554.96 1.12442 1.10429 0
M  V30 16862 C 1555.91 0.792332 2.16773 0
M  V30 16863 C 1556.88 -0.240945 1.64343 0
M  V30 16864 O 1558.06 -0.115504 1.9045 0
M  V30 16865 C 1555.2 0.253166 3.4417 0
M  V30 16866 C 1554.32 1.34426 4.10553 0
M  V30 16867 C 1553.45 0.764527 5.2567 0
M  V30 16868 C 1552.49 1.83474 5.83955 0
M  V30 16869 N 1551.63 1.27372 6.9045 0
M  V30 16870 H 1556.47 1.7033 2.44524 0
M  V30 16871 H 1554 0.850418 1.20026 0
M  V30 16872 H 1555.96 -0.0774862 4.17128 0
M  V30 16873 H 1554.59 -0.620962 3.16771 0
M  V30 16874 H 1553.64 1.79169 3.35563 0
M  V30 16875 H 1554.96 2.15354 4.49916 0
M  V30 16876 H 1554.11 0.384548 6.0548 0
M  V30 16877 H 1552.85 -0.0759512 4.87641 0
M  V30 16878 H 1551.85 2.22391 5.02814 0
M  V30 16879 H 1553.08 2.67844 6.24048 0
M  V30 16880 H 1551.03 0.455069 6.5442 0
M  V30 16881 H 1550.94 2.01959 7.28525 0
M  V30 16882 H 1552.21 0.920975 7.7404 0
M  V30 16883 N 1556.44 -1.28223 0.91633 0
M  V30 16884 C 1557.4 -2.25477 0.411423 0
M  V30 16885 C 1558.4 -1.53969 -0.463689 0
M  V30 16886 O 1559.59 -1.72151 -0.266379 0
M  V30 16887 C 1556.72 -3.38427 -0.409851 0
M  V30 16888 H 1557.92 -2.71656 1.27056 0
M  V30 16889 H 1555.47 -1.3995 0.695966 0
M  V30 16890 H 1556.21 -2.97614 -1.28828 0
M  V30 16891 H 1555.99 -3.91497 0.217435 0
M  V30 16892 H 1557.48 -4.10739 -0.753862 0
M  V30 16893 N 1557.92 -0.68059 -1.42147 0
M  V30 16894 C 1559.17 -0.204857 -2.01059 0
M  V30 16895 C 1559.49 1.19475 -1.54113 0
M  V30 16896 O 1558.76 1.80334 -0.765279 0
M  V30 16897 H 1557.34 -0.0727459 -0.743449 0
M  V30 16898 H 1560 -0.878396 -1.73983 0
M  V30 16899 H 1559.09 -0.210628 -3.11388 0
M  V30 16900 N 1559.4 1.51781 -0.424309 0
M  V30 16901 C 1560.63 2.06088 0.145337 0
M  V30 16902 C 1561.03 1.29297 1.38127 0
M  V30 16903 O 1560.38 0.342227 1.80484 0
M  V30 16904 C 1560.44 3.55333 0.545777 0
M  V30 16905 C 1560.1 4.53285 -0.581528 0
M  V30 16906 C 1561.1 4.99278 -1.44973 0
M  V30 16907 C 1558.78 4.96539 -0.758549 0
M  V30 16908 C 1560.78 5.87185 -2.47977 0
M  V30 16909 C 1558.47 5.84239 -1.79188 0
M  V30 16910 C 1559.46 6.29458 -2.65089 0
M  V30 16911 O 1559.15 7.15418 -3.6665 0
M  V30 16912 H 1558.88 0.675782 0.0171719 0
M  V30 16913 H 1561.44 1.96492 -0.598349 0
M  V30 16914 H 1559.67 3.62668 1.34197 0
M  V30 16915 H 1561.36 3.92215 1.04508 0
M  V30 16916 H 1562.12 4.66566 -1.32445 0
M  V30 16917 H 1558 4.60893 -0.0995452 0
M  V30 16918 H 1561.55 6.22401 -3.15059 0
M  V30 16919 H 1557.44 6.16365 -1.91742 0
M  V30 16920 H 1558.21 7.33566 -3.63074 0
M  V30 16921 N 1560.87 0.155222 1.56834 0
M  V30 16922 C 1562.12 -0.494557 1.96677 0
M  V30 16923 C 1562.45 -1.63973 1.04051 0
M  V30 16924 O 1561.73 -1.94316 0.0844791 0
M  V30 16925 C 1562.01 -0.992902 3.46141 0
M  V30 16926 C 1561.86 0.151335 4.49545 0
M  V30 16927 C 1563.18 -1.87197 3.98303 0
M  V30 16928 H 1560.3 -0.178298 0.715107 0
M  V30 16929 H 1562.94 0.23811 1.88502 0
M  V30 16930 H 1561.09 -1.61724 3.53239 0
M  V30 16931 H 1562.77 0.787945 4.54521 0
M  V30 16932 H 1561.01 0.809262 4.26185 0
M  V30 16933 H 1561.68 -0.23921 5.51481 0
M  V30 16934 H 1564.16 -1.34578 3.93736 0
M  V30 16935 H 1563.03 -2.18972 5.03331 0
M  V30 16936 H 1563.29 -2.81191 3.41151 0
M  V30 16937 N 1562.35 -1.57153 -0.118549 0
M  V30 16938 C 1563.58 -1.89062 -0.840429 0
M  V30 16939 C 1563.99 -0.746516 -1.73414 0
M  V30 16940 O 1563.35 0.282638 -1.80298 0
M  V30 16941 C 1563.4 -3.20433 -1.67347 0
M  V30 16942 O 1563.12 -4.30439 -0.815739 0
M  V30 16943 C 1564.62 -3.66048 -2.50047 0
M  V30 16944 H 1561.84 -0.626005 -0.241575 0
M  V30 16945 H 1564.39 -2.04241 -0.102804 0
M  V30 16946 H 1562.54 -3.06922 -2.36385 0
M  V30 16947 H 1562.96 -5.05736 -1.39037 0
M  V30 16948 H 1564.43 -4.60729 -3.04028 0
M  V30 16949 H 1564.91 -2.92727 -3.27426 0
M  V30 16950 H 1565.51 -3.82349 -1.86251 0
M  V30 16951 N 1563.83 0.388742 -1.5273 0
M  V30 16952 C 1564.78 1.49531 -1.78166 0
M  V30 16953 C 1565.77 1.56449 -0.649613 0
M  V30 16954 O 1566.98 1.59612 -0.832097 0
M  V30 16955 H 1563.35 0.497684 -0.56375 0
M  V30 16956 H 1565.32 1.25271 -2.70831 0
M  V30 16957 C 1564.07 2.86663 -1.96774 0
M  V30 16958 H 1563.4 2.82089 -2.83312 0
M  V30 16959 H 1564.84 3.63328 -2.18561 0
M  V30 16960 C 1563.29 3.28665 -0.740345 0
M  V30 16961 O 1563.82 4.01616 0.0821005 0
M  V30 16962 N 1562.03 2.84947 -0.570383 0
M  V30 16963 H 1561.58 2.25748 -1.24078 0
M  V30 16964 H 1561.54 3.13408 0.249496 0
M  V30 16965 N 1565.31 1.43698 0.647203 0
M  V30 16966 C 1566.72 1.27231 0.963563 0
M  V30 16967 C 1566.92 0.196385 2.00541 0
M  V30 16968 O 1565.98 -0.423162 2.48929 0
M  V30 16969 C 1567.29 2.63863 1.44211 0
M  V30 16970 C 1568.84 2.71444 1.55844 0
M  V30 16971 C 1569.32 4.08508 2.07087 0
M  V30 16972 N 1570.81 4.10603 2.14381 0
M  V30 16973 C 1571.54 5.13496 2.55166 0
M  V30 16974 N 1571.04 6.26759 2.95203 0
M  V30 16975 N 1572.83 5.0085 2.55158 0
M  V30 16976 H 1564.98 2.12358 -0.0420956 0
M  V30 16977 H 1567.24 0.946989 0.0437628 0
M  V30 16978 H 1566.95 3.43589 0.75096 0
M  V30 16979 H 1566.82 2.89666 2.41605 0
M  V30 16980 H 1569.21 1.92046 2.24058 0
M  V30 16981 H 1569.29 2.49399 0.56866 0
M  V30 16982 H 1568.94 4.88375 1.39472 0
M  V30 16983 H 1568.87 4.2792 3.06907 0
M  V30 16984 H 1571.36 3.2885 1.86188 0
M  V30 16985 H 1571.67 7.01096 3.25091 0
M  V30 16986 H 1570.02 6.30222 2.92993 0
M  V30 16987 H 1573.21 4.11428 2.2326 0
M  V30 16988 H 1573.38 5.81165 2.86621 0
M  V30 16989 N 1566.79 -0.886131 1.30328 0
M  V30 16990 C 1568.03 -1.6346 1.18849 0
M  V30 16991 C 1568.36 -1.93295 -0.257285 0
M  V30 16992 O 1567.63 -1.56858 -1.17356 0
M  V30 16993 H 1566.21 -0.605932 0.43687 0
M  V30 16994 H 1568.87 -1.06177 1.63439 0
M  V30 16995 H 1567.96 -2.58522 1.7485 0
M  V30 16996 N 1568.26 -1.13026 -1.09832 0
M  V30 16997 C 1569.68 -0.867598 -1.33959 0
M  V30 16998 C 1569.88 0.499047 -1.95222 0
M  V30 16999 O 1568.94 1.24644 -2.19591 0
M  V30 17000 C 1570.25 -1.98893 -2.25526 0
M  V30 17001 C 1571.8 -2.02054 -2.39047 0
M  V30 17002 C 1572.27 -3.13438 -3.33947 0
M  V30 17003 N 1573.76 -3.12921 -3.41518 0
M  V30 17004 C 1574.5 -3.95746 -4.14937 0
M  V30 17005 N 1573.99 -4.88574 -4.91189 0
M  V30 17006 N 1575.79 -3.8386 -4.10619 0
M  V30 17007 H 1567.94 -2.01072 -0.684382 0
M  V30 17008 H 1570.2 -0.875341 -0.363982 0
M  V30 17009 H 1569.91 -2.97405 -1.87731 0
M  V30 17010 H 1569.78 -1.89948 -3.25883 0
M  V30 17011 H 1572.17 -1.04158 -2.76107 0
M  V30 17012 H 1572.25 -2.15072 -1.38483 0
M  V30 17013 H 1571.89 -4.11571 -2.9761 0
M  V30 17014 H 1571.82 -2.97658 -4.34405 0
M  V30 17015 H 1574.31 -2.45677 -2.87144 0
M  V30 17016 H 1574.63 -5.48269 -5.44629 0
M  V30 17017 H 1572.97 -4.92583 -4.90292 0
M  V30 17018 H 1576.16 -3.10669 -3.50146 0
M  V30 17019 H 1576.34 -4.48637 -4.67577 0
M  V30 17020 N 1569.74 1.27735 -0.923117 0
M  V30 17021 C 1570.67 2.26095 -0.375982 0
M  V30 17022 C 1571.69 1.55227 0.490763 0
M  V30 17023 O 1572.88 1.7589 0.304127 0
M  V30 17024 C 1569.98 3.35479 0.480342 0
M  V30 17025 C 1569.15 4.35866 -0.36605 0
M  V30 17026 C 1568.21 5.24466 0.42688 0
M  V30 17027 O 1567.23 5.68964 -0.163825 0
M  V30 17028 N 1568.44 5.54192 1.72777 0
M  V30 17029 H 1571.2 2.73679 -1.22147 0
M  V30 17030 H 1568.76 1.41314 -0.790056 0
M  V30 17031 H 1570.75 3.91693 1.01776 0
M  V30 17032 H 1569.32 2.87531 1.22657 0
M  V30 17033 H 1568.54 3.7898 -1.08479 0
M  V30 17034 H 1569.83 4.9995 -0.944849 0
M  V30 17035 H 1569.23 5.19888 2.23008 0
M  V30 17036 H 1567.79 6.13125 2.21181 0
M  V30 17037 N 1571.22 0.688118 1.41784 0
M  V30 17038 C 1572.17 0.018099 2.30793 0
M  V30 17039 C 1573.14 -0.779009 1.46699 0
M  V30 17040 O 1574.32 -0.748556 1.75503 0
M  V30 17041 C 1571.46 -0.91769 3.32675 0
M  V30 17042 C 1570.58 -0.11299 4.31852 0
M  V30 17043 C 1569.71 -1.04574 5.20805 0
M  V30 17044 C 1568.75 -0.233509 6.11654 0
M  V30 17045 N 1567.89 -1.11967 6.93115 0
M  V30 17046 H 1572.73 0.782911 2.87532 0
M  V30 17047 H 1570.26 0.397806 1.41619 0
M  V30 17048 H 1572.22 -1.47421 3.90286 0
M  V30 17049 H 1570.85 -1.64898 2.77504 0
M  V30 17050 H 1569.9 0.560344 3.7625 0
M  V30 17051 H 1571.22 0.517033 4.96113 0
M  V30 17052 H 1570.37 -1.67174 5.83213 0
M  V30 17053 H 1569.11 -1.70963 4.56753 0
M  V30 17054 H 1568.11 0.405614 5.48302 0
M  V30 17055 H 1569.34 0.426479 6.7776 0
M  V30 17056 H 1567.28 -1.76972 6.31678 0
M  V30 17057 H 1567.2 -0.545042 7.54033 0
M  V30 17058 H 1568.47 -1.73272 7.59998 0
M  V30 17059 N 1572.7 -1.51554 0.432352 0
M  V30 17060 C 1573.94 -2.02344 -0.13598 0
M  V30 17061 C 1574.28 -1.31619 -1.42794 0
M  V30 17062 O 1573.55 -0.42957 -1.89697 0
M  V30 17063 C 1573.84 -3.58297 -0.359865 0
M  V30 17064 C 1573.69 -4.39645 0.950399 0
M  V30 17065 C 1575.01 -4.25297 -1.13184 0
M  V30 17066 H 1572.13 -0.735439 -0.0479461 0
M  V30 17067 H 1574.77 -1.81237 0.570373 0
M  V30 17068 H 1572.92 -3.76413 -0.961547 0
M  V30 17069 H 1574.59 -4.3319 1.58568 0
M  V30 17070 H 1572.83 -4.04928 1.55614 0
M  V30 17071 H 1573.5 -5.46911 0.747852 0
M  V30 17072 H 1575.98 -4.11421 -0.622231 0
M  V30 17073 H 1574.86 -5.34307 -1.25726 0
M  V30 17074 H 1575.12 -3.85818 -2.15862 0
M  V30 17075 N 1574.18 -0.163538 -1.56749 0
M  V30 17076 C 1575.42 0.48412 -1.96937 0
M  V30 17077 C 1575.76 1.63418 -1.04919 0
M  V30 17078 O 1575.03 1.94269 -0.094783 0
M  V30 17079 C 1575.31 0.974532 -3.46663 0
M  V30 17080 C 1575.17 -0.175173 -4.49459 0
M  V30 17081 C 1576.49 1.85082 -3.9929 0
M  V30 17082 H 1573.6 0.174503 -0.716043 0
M  V30 17083 H 1576.25 -0.248103 -1.88373 0
M  V30 17084 H 1574.4 1.59849 -3.54091 0
M  V30 17085 H 1576.07 -0.812038 -4.54096 0
M  V30 17086 H 1574.31 -0.831853 -4.2575 0
M  V30 17087 H 1574.98 0.20996 -5.51601 0
M  V30 17088 H 1577.46 1.32488 -3.94444 0
M  V30 17089 H 1576.33 2.163 -5.04485 0
M  V30 17090 H 1576.6 2.79378 -3.42638 0
M  V30 17091 N 1575.65 1.57214 0.110213 0
M  V30 17092 C 1576.88 1.89505 0.830391 0
M  V30 17093 C 1577.3 0.755702 1.73016 0
M  V30 17094 O 1576.65 -0.273072 1.80445 0
M  V30 17095 C 1576.71 3.21316 1.65646 0
M  V30 17096 O 1576.43 4.30865 0.7929 0
M  V30 17097 C 1577.93 3.67369 2.48102 0
M  V30 17098 H 1575.15 0.627277 0.238252 0
M  V30 17099 H 1577.69 2.04293 0.0919716 0
M  V30 17100 H 1575.85 3.08171 2.34754 0
M  V30 17101 H 1576.26 5.06466 1.36353 0
M  V30 17102 H 1577.73 4.62335 3.0158 0
M  V30 17103 H 1578.21 2.94459 3.25869 0
M  V30 17104 H 1578.82 3.83331 1.8422 0
M  V30 17105 N 1577.13 -0.380637 1.52934 0
M  V30 17106 C 1578.06 -1.47174 1.81279 0
M  V30 17107 C 1579.04 -1.56549 0.665319 0
M  V30 17108 O 1580.23 -1.71362 0.913722 0
M  V30 17109 C 1577.36 -2.84691 1.98918 0
M  V30 17110 C 1576.31 -2.90151 3.14637 0
M  V30 17111 C 1575.64 -4.30198 3.17544 0
M  V30 17112 C 1576.94 -2.59037 4.53539 0
M  V30 17113 H 1578.63 -1.23703 2.7265 0
M  V30 17114 H 1576.18 -0.593654 1.31194 0
M  V30 17115 H 1578.13 -3.61034 2.1733 0
M  V30 17116 H 1576.86 -3.09517 1.04244 0
M  V30 17117 H 1575.51 -2.16257 2.96021 0
M  V30 17118 H 1575.16 -4.52076 2.20536 0
M  V30 17119 H 1574.86 -4.3477 3.95284 0
M  V30 17120 H 1576.39 -5.08435 3.38121 0
M  V30 17121 H 1577.8 -3.25096 4.72214 0
M  V30 17122 H 1576.2 -2.74946 5.33408 0
M  V30 17123 H 1577.27 -1.54342 4.59681 0
M  V30 17124 N 1578.61 -1.44039 -0.639573 0
M  V30 17125 C 1579.84 -1.49844 -1.42669 0
M  V30 17126 C 1580.25 -0.120599 -1.88414 0
M  V30 17127 O 1579.61 0.871875 -1.60327 0
M  V30 17128 C 1579.66 -2.45597 -2.65263 0
M  V30 17129 O 1579.38 -3.78023 -2.21427 0
M  V30 17130 C 1580.88 -2.60781 -3.5848 0
M  V30 17131 H 1578.1 -0.508477 -0.437826 0
M  V30 17132 H 1580.65 -1.88919 -0.782923 0
M  V30 17133 H 1578.8 -2.09679 -3.2575 0
M  V30 17134 H 1579.22 -4.29642 -3.00846 0
M  V30 17135 H 1580.69 -3.31826 -4.4113 0
M  V30 17136 H 1581.17 -1.65727 -4.06732 0
M  V30 17137 H 1581.77 -2.97565 -3.03867 0
M  V30 17138 N 1580.09 0.879207 -1.30796 0
M  V30 17139 C 1581.04 1.97297 -1.14272 0
M  V30 17140 C 1582.02 1.60802 -0.0562653 0
M  V30 17141 O 1583.21 1.74768 -0.280204 0
M  V30 17142 C 1580.34 3.32799 -0.842604 0
M  V30 17143 C 1579.43 3.7559 -1.96959 0
M  V30 17144 N 1579.82 3.90426 -3.21561 0
M  V30 17145 C 1578.12 4.05031 -1.86725 0
M  V30 17146 C 1578.82 4.2682 -3.9522 0
M  V30 17147 N 1577.8 4.36999 -3.23316 0
M  V30 17148 H 1581.6 2.06865 -2.08768 0
M  V30 17149 H 1579.11 1.0694 -1.2222 0
M  V30 17150 H 1581.11 4.10892 -0.705224 0
M  V30 17151 H 1579.77 3.24563 0.0942269 0
M  V30 17152 H 1580.78 3.75401 -3.56783 0
M  V30 17153 H 1577.46 4.05236 -1.00447 0
M  V30 17154 H 1578.85 4.45973 -5.02551 0
M  V30 17155 N 1581.57 1.13606 1.09231 0
M  V30 17156 C 1582.8 0.922295 1.85206 0
M  V30 17157 C 1583.21 -0.528954 1.81239 0
M  V30 17158 O 1582.57 -1.36622 1.20999 0
M  V30 17159 C 1582.62 1.40453 3.331 0
M  V30 17160 O 1582.34 2.7989 3.37036 0
M  V30 17161 C 1583.84 1.22948 4.25909 0
M  V30 17162 H 1581.06 0.328757 0.584945 0
M  V30 17163 H 1583.6 1.50911 1.38007 0
M  V30 17164 H 1581.76 0.86066 3.77719 0
M  V30 17165 H 1582.17 3.01342 4.29294 0
M  V30 17166 H 1583.65 1.61562 5.27827 0
M  V30 17167 H 1584.12 0.171387 4.38865 0
M  V30 17168 H 1584.73 1.76147 3.87108 0
M  V30 17169 N 1583.05 -1.27244 0.929878 0
M  V30 17170 C 1584.27 -1.98373 0.587845 0
M  V30 17171 C 1584.69 -1.69349 -0.834638 0
M  V30 17172 O 1584.05 -0.955281 -1.55501 0
M  V30 17173 C 1584.1 -3.52381 0.806843 0
M  V30 17174 O 1583.82 -3.8039 2.17337 0
M  V30 17175 C 1585.32 -4.40761 0.473818 0
M  V30 17176 H 1582.54 -0.633015 0.22256 0
M  V30 17177 H 1585.08 -1.62043 1.2475 0
M  V30 17178 H 1583.24 -3.86914 0.193963 0
M  V30 17179 H 1583.65 -4.74968 2.22498 0
M  V30 17180 H 1585.13 -5.47824 0.677736 0
M  V30 17181 H 1585.6 -4.35209 -0.590734 0
M  V30 17182 H 1586.21 -4.11751 1.06493 0
M  V30 17183 N 1584.52 -0.695628 -1.41417 0
M  V30 17184 C 1585.47 -0.0189456 -2.32592 0
M  V30 17185 C 1586.47 0.76848 -1.50966 0
M  V30 17186 O 1587.67 0.674096 -1.66901 0
M  V30 17187 H 1584.05 0.0126742 -0.751893 0
M  V30 17188 H 1586.02 -0.804968 -2.87337 0
M  V30 17189 C 1584.77 0.903458 -3.35757 0
M  V30 17190 H 1584.09 0.306963 -3.9862 0
M  V30 17191 H 1585.53 1.34525 -4.02093 0
M  V30 17192 C 1583.99 2.01966 -2.69651 0
M  V30 17193 O 1584.52 3.10845 -2.54438 0
M  V30 17194 N 1582.72 1.79741 -2.28345 0
M  V30 17195 H 1582.27 0.911929 -2.40918 0
M  V30 17196 H 1582.23 2.54609 -1.84449 0
M  V30 17197 N 1586 1.51322 -0.440383 0
M  V30 17198 C 1586.93 2.25587 0.40537 0
M  V30 17199 C 1587.95 1.29721 0.983686 0
M  V30 17200 O 1589.14 1.55453 0.877308 0
M  V30 17201 C 1586.24 2.99848 1.57938 0
M  V30 17202 C 1585.41 4.22834 1.11939 0
M  V30 17203 C 1584.47 4.79649 2.16387 0
M  V30 17204 O 1583.49 5.41405 1.75697 0
M  V30 17205 N 1584.7 4.63948 3.48902 0
M  V30 17206 H 1587.46 2.98807 -0.231143 0
M  V30 17207 H 1585.02 1.59642 -0.26944 0
M  V30 17208 H 1587.01 3.34743 2.2744 0
M  V30 17209 H 1585.58 2.29619 2.12117 0
M  V30 17210 H 1584.8 3.93398 0.251323 0
M  V30 17211 H 1586.09 5.02637 0.7895 0
M  V30 17212 H 1585.49 4.14764 3.84691 0
M  V30 17213 H 1584.05 5.03196 4.14291 0
M  V30 17214 N 1587.48 0.171848 1.5666 0
M  V30 17215 C 1588.43 -0.758237 2.17989 0
M  V30 17216 C 1589.4 -1.22654 1.12006 0
M  V30 17217 O 1590.58 -1.29461 1.40159 0
M  V30 17218 C 1587.72 -1.98189 2.82516 0
M  V30 17219 C 1586.83 -1.55711 4.02962 0
M  V30 17220 C 1585.97 -2.73447 4.55412 0
M  V30 17221 C 1585.01 -2.27462 5.68267 0
M  V30 17222 N 1584.15 -3.38293 6.15225 0
M  V30 17223 H 1588.99 -0.228467 2.97123 0
M  V30 17224 H 1586.52 -0.10104 1.46753 0
M  V30 17225 H 1588.48 -2.6996 3.18084 0
M  V30 17226 H 1587.11 -2.48536 2.05985 0
M  V30 17227 H 1586.16 -0.736126 3.7321 0
M  V30 17228 H 1587.47 -1.17957 4.84652 0
M  V30 17229 H 1586.63 -3.53374 4.93165 0
M  V30 17230 H 1585.37 -3.14462 3.7278 0
M  V30 17231 H 1584.37 -1.45982 5.30065 0
M  V30 17232 H 1585.6 -1.87505 6.52701 0
M  V30 17233 H 1583.54 -3.78882 5.35522 0
M  V30 17234 H 1583.46 -3.04633 6.91907 0
M  V30 17235 H 1584.73 -4.18503 6.57629 0
M  V30 17236 N 1588.96 -1.5727 -0.101874 0
M  V30 17237 C 1590.19 -1.89943 -0.820329 0
M  V30 17238 C 1590.6 -0.764867 -1.72613 0
M  V30 17239 O 1589.96 0.263499 -1.80588 0
M  V30 17240 C 1590.01 -3.2219 -1.63939 0
M  V30 17241 O 1589.73 -4.31279 -0.770039 0
M  V30 17242 C 1591.23 -3.6868 -2.46151 0
M  V30 17243 H 1588.45 -0.628532 -0.234922 0
M  V30 17244 H 1590.99 -2.04339 -0.0811362 0
M  V30 17245 H 1589.15 -3.09411 -2.33117 0
M  V30 17246 H 1589.56 -5.07182 -1.33665 0
M  V30 17247 H 1591.04 -4.63928 -2.99124 0
M  V30 17248 H 1591.51 -2.96183 -3.24303 0
M  V30 17249 H 1592.12 -3.84303 -1.82185 0
M  V30 17250 N 1590.44 0.372521 -1.53134 0
M  V30 17251 C 1591.35 1.47994 -1.8203 0
M  V30 17252 C 1592.36 1.58937 -0.708179 0
M  V30 17253 O 1593.54 1.74962 -0.997511 0
M  V30 17254 C 1590.6 2.83342 -1.99796 0
M  V30 17255 C 1589.66 2.81984 -3.23702 0
M  V30 17256 C 1588.9 4.10877 -3.40611 0
M  V30 17257 O 1589.12 5.06686 -2.61964 0
M  V30 17258 O 1588.05 4.17111 -4.33938 0
M  V30 17259 H 1591.88 1.26501 -2.761 0
M  V30 17260 H 1589.46 0.561957 -1.38428 0
M  V30 17261 H 1591.35 3.63551 -2.13092 0
M  V30 17262 H 1590.02 3.04826 -1.08916 0
M  V30 17263 H 1588.93 2.00498 -3.15834 0
M  V30 17264 H 1590.26 2.65453 -4.14482 0
M  V30 17265 N 1591.91 1.44376 0.631925 0
M  V30 17266 C 1592.84 1.54005 1.75512 0
M  V30 17267 C 1593.82 0.393126 1.65495 0
M  V30 17268 O 1595.01 0.613143 1.84267 0
M  V30 17269 C 1592.14 1.48313 3.14039 0
M  V30 17270 C 1591.09 2.61474 3.38844 0
M  V30 17271 C 1590.42 2.40834 4.77392 0
M  V30 17272 C 1591.72 4.03627 3.31485 0
M  V30 17273 H 1593.41 2.48019 1.6771 0
M  V30 17274 H 1590.96 1.19368 0.80543 0
M  V30 17275 H 1592.91 1.5365 3.9239 0
M  V30 17276 H 1591.64 0.508152 3.22623 0
M  V30 17277 H 1590.3 2.55525 2.62874 0
M  V30 17278 H 1589.94 1.4153 4.82678 0
M  V30 17279 H 1589.64 3.16703 4.94947 0
M  V30 17280 H 1591.17 2.47988 5.57974 0
M  V30 17281 H 1592.58 4.1095 3.99741 0
M  V30 17282 H 1590.98 4.79694 3.60574 0
M  V30 17283 H 1592.05 4.27255 2.29307 0
M  V30 17284 N 1593.39 -0.872258 1.31261 0
M  V30 17285 C 1594.32 -1.9853 1.14537 0
M  V30 17286 C 1595.34 -1.62578 0.0850723 0
M  V30 17287 O 1596.53 -1.75379 0.332343 0
M  V30 17288 C 1593.63 -3.31005 0.72727 0
M  V30 17289 C 1592.8 -3.95313 1.87208 0
M  V30 17290 C 1591.86 -5.06101 1.44042 0
M  V30 17291 O 1590.88 -5.27045 2.1497 0
M  V30 17292 N 1592.09 -5.79581 0.32653 0
M  V30 17293 H 1594.85 -2.13423 2.10406 0
M  V30 17294 H 1592.41 -1.0461 1.23565 0
M  V30 17295 H 1594.4 -4.02502 0.421255 0
M  V30 17296 H 1592.97 -3.12287 -0.13975 0
M  V30 17297 H 1592.19 -3.16825 2.34553 0
M  V30 17298 H 1593.48 -4.35015 2.63893 0
M  V30 17299 H 1592.88 -5.65083 -0.264202 0
M  V30 17300 H 1591.44 -6.51751 0.0800358 0
M  V30 17301 N 1594.87 -1.14184 -1.08627 0
M  V30 17302 C 1595.83 -0.82954 -2.13662 0
M  V30 17303 C 1596.83 0.164794 -1.59953 0
M  V30 17304 O 1598.02 -0.0632831 -1.74085 0
M  V30 17305 C 1595.15 -0.236176 -3.40081 0
M  V30 17306 H 1596.35 -1.76038 -2.42797 0
M  V30 17307 H 1593.9 -0.947568 -1.24301 0
M  V30 17308 H 1594.64 0.70349 -3.16578 0
M  V30 17309 H 1594.42 -0.952341 -3.80359 0
M  V30 17310 H 1595.91 -0.03481 -4.17585 0
M  V30 17311 N 1596.35 1.26749 -0.936613 0
M  V30 17312 C 1597.6 1.93255 -0.577524 0
M  V30 17313 C 1597.91 1.74337 0.886905 0
M  V30 17314 O 1599.12 2.3526 1.35517 0
M  V30 17315 C 1597.57 3.4624 -0.982119 0
M  V30 17316 C 1597.18 3.739 -2.46784 0
M  V30 17317 C 1598.92 4.18777 -0.694706 0
M  V30 17318 C 1596.83 5.20303 -2.81138 0
M  V30 17319 H 1595.76 0.723502 -0.212276 0
M  V30 17320 H 1598.41 1.43901 -1.13863 0
M  V30 17321 H 1596.79 3.94454 -0.349577 0
M  V30 17322 H 1597.97 3.3641 -3.14905 0
M  V30 17323 H 1596.28 3.14587 -2.72808 0
M  V30 17324 H 1598.88 5.2659 -0.927756 0
M  V30 17325 H 1599.22 4.14667 0.368392 0
M  V30 17326 H 1599.76 3.76414 -1.28676 0
M  V30 17327 H 1596.5 5.29511 -3.86392 0
M  V30 17328 H 1596.02 5.58907 -2.17675 0
M  V30 17329 H 1597.69 5.88265 -2.69358 0
M  V30 17330 N 1597.83 0.703118 1.41046 0
M  V30 17331 C 1598.78 0.0192623 2.27992 0
M  V30 17332 C 1599.76 -0.745216 1.42602 0
M  V30 17333 O 1600.95 -0.619468 1.65806 0
M  V30 17334 C 1598.08 -0.910896 3.30995 0
M  V30 17335 C 1597.17 -0.142265 4.23861 0
M  V30 17336 N 1597.56 0.867928 4.98298 0
M  V30 17337 C 1595.86 -0.376651 4.44407 0
M  V30 17338 C 1596.56 1.32869 5.66322 0
M  V30 17339 N 1595.53 0.653176 5.39662 0
M  V30 17340 H 1599.34 0.793687 2.8298 0
M  V30 17341 H 1596.85 0.534609 1.53348 0
M  V30 17342 H 1598.85 -1.41603 3.92115 0
M  V30 17343 H 1597.51 -1.68483 2.77567 0
M  V30 17344 H 1598.52 1.2484 5.02628 0
M  V30 17345 H 1595.19 -1.12789 4.01976 0
M  V30 17346 H 1596.58 2.16738 6.35983 0
M  V30 17347 N 1599.3 -1.51086 0.448402 0
M  V30 17348 C 1600.23 -2.30896 -0.347773 0
M  V30 17349 C 1601.22 -1.36792 -1.01104 0
M  V30 17350 O 1602.4 -1.65713 -1.01257 0
M  V30 17351 C 1599.53 -3.15901 -1.44304 0
M  V30 17352 C 1598.48 -4.18373 -0.90265 0
M  V30 17353 C 1597.81 -4.9197 -2.0945 0
M  V30 17354 C 1599.11 -5.22252 0.0705335 0
M  V30 17355 H 1600.8 -2.97704 0.318273 0
M  V30 17356 H 1598.35 -1.43169 0.154509 0
M  V30 17357 H 1600.3 -3.70519 -2.00733 0
M  V30 17358 H 1599.03 -2.46935 -2.13753 0
M  V30 17359 H 1597.69 -3.64823 -0.3605 0
M  V30 17360 H 1597.33 -4.19497 -2.77545 0
M  V30 17361 H 1597.03 -5.6127 -1.73926 0
M  V30 17362 H 1598.56 -5.49415 -2.66412 0
M  V30 17363 H 1599.97 -5.71876 -0.403814 0
M  V30 17364 H 1598.37 -5.99142 0.338905 0
M  V30 17365 H 1599.44 -4.74398 1.00373 0
M  V30 17366 N 1600.78 -0.180154 -1.56567 0
M  V30 17367 C 1601.75 0.732809 -2.17169 0
M  V30 17368 C 1602.75 1.15176 -1.1221 0
M  V30 17369 O 1603.94 1.06728 -1.37677 0
M  V30 17370 C 1601.07 1.99857 -2.7617 0
M  V30 17371 H 1602.26 0.205088 -2.99198 0
M  V30 17372 H 1599.81 0.0694351 -1.56146 0
M  V30 17373 H 1600.55 2.56917 -1.97899 0
M  V30 17374 H 1600.33 1.70705 -3.5299 0
M  V30 17375 H 1601.82 2.64992 -3.22752 0
M  V30 17376 N 1602.26 1.57322 0.0935319 0
M  V30 17377 C 1603.19 2.05208 1.11409 0
M  V30 17378 C 1604.17 0.941295 1.41681 0
M  V30 17379 O 1605.36 1.21266 1.51684 0
M  V30 17380 C 1602.49 2.47782 2.43354 0
M  V30 17381 C 1601.44 3.62538 2.27486 0
M  V30 17382 C 1600.77 3.91095 3.64622 0
M  V30 17383 C 1602.07 4.93371 1.71412 0
M  V30 17384 H 1603.76 2.9072 0.715702 0
M  V30 17385 H 1601.31 1.3986 0.342827 0
M  V30 17386 H 1603.26 2.79891 3.15022 0
M  V30 17387 H 1601.98 1.59272 2.85132 0
M  V30 17388 H 1600.64 3.30679 1.58263 0
M  V30 17389 H 1600.29 2.99749 4.0393 0
M  V30 17390 H 1599.99 4.68353 3.5485 0
M  V30 17391 H 1601.51 4.25679 4.37755 0
M  V30 17392 H 1602.93 5.23851 2.32922 0
M  V30 17393 H 1601.33 5.74804 1.72395 0
M  V30 17394 H 1602.4 4.80197 0.67368 0
M  V30 17395 N 1603.74 -0.364395 1.53329 0
M  V30 17396 C 1604.67 -1.46658 1.76137 0
M  V30 17397 C 1605.68 -1.496 0.642166 0
M  V30 17398 O 1606.87 -1.53058 0.918452 0
M  V30 17399 C 1603.97 -2.85417 1.8273 0
M  V30 17400 C 1603.15 -3.06158 3.12388 0
M  V30 17401 C 1602.2 -4.25038 3.10208 0
M  V30 17402 O 1601.23 -4.20156 3.84002 0
M  V30 17403 N 1602.43 -5.32511 2.31111 0
M  V30 17404 H 1605.2 -1.27471 2.7124 0
M  V30 17405 H 1602.76 -0.554127 1.52122 0
M  V30 17406 H 1604.75 -3.63086 1.78748 0
M  V30 17407 H 1603.32 -2.97845 0.949058 0
M  V30 17408 H 1602.54 -2.16139 3.29663 0
M  V30 17409 H 1603.83 -3.16885 3.98072 0
M  V30 17410 H 1603.23 -5.39341 1.70669 0
M  V30 17411 H 1601.78 -6.08752 2.32946 0
M  V30 17412 N 1605.22 -1.44709 -0.62426 0
M  V30 17413 C 1606.49 -1.38328 -1.38292 0
M  V30 17414 C 1606.87 -0.0454388 -2.11051 0
M  V30 17415 O 1606.22 0.972183 -2.06787 0
M  V30 17416 C 1606.43 -2.58602 -2.34364 0
M  V30 17417 C 1607.78 -3.02966 -2.97484 0
M  V30 17418 O 1608.8 -2.58856 -2.44688 0
M  V30 17419 O 1607.66 -3.79466 -3.93278 0
M  V30 17420 H 1604.76 -0.54812 -0.619269 0
M  V30 17421 H 1607.3 -1.5681 -0.648741 0
M  V30 17422 H 1606.07 -3.47573 -1.79746 0
M  V30 17423 H 1605.7 -2.42368 -3.15188 0
M  V30 17424 N 1606.69 0.865285 -1.31722 0
M  V30 17425 C 1607.92 1.65661 -1.24785 0
M  V30 17426 C 1608.34 1.87208 0.182952 0
M  V30 17427 O 1607.7 1.41721 1.1307 0
M  V30 17428 C 1607.75 2.99921 -2.00199 0
M  V30 17429 O 1606.85 3.89936 -1.34253 0
M  V30 17430 H 1606.2 0.505459 -0.430589 0
M  V30 17431 H 1608.73 1.0785 -1.73867 0
M  V30 17432 H 1608.74 3.49823 -2.09971 0
M  V30 17433 H 1607.41 2.83559 -3.04249 0
M  V30 17434 H 1605.99 3.4839 -1.32961 0
M  V30 17435 N 1608.17 1.14759 1.0802 0
M  V30 17436 C 1609.42 0.916435 1.80127 0
M  V30 17437 C 1609.74 -0.558281 1.86837 0
M  V30 17438 O 1609.01 -1.40579 1.36434 0
M  V30 17439 H 1607.59 0.336066 0.667135 0
M  V30 17440 H 1610.25 1.44693 1.30576 0
M  V30 17441 H 1609.35 1.31986 2.82818 0
M  V30 17442 N 1609.65 -1.26251 0.943322 0
M  V30 17443 C 1610.58 -2.28673 0.472347 0
M  V30 17444 C 1611.56 -1.63319 -0.475481 0
M  V30 17445 O 1612.75 -1.90508 -0.376875 0
M  V30 17446 C 1609.88 -3.46316 -0.261286 0
M  V30 17447 C 1608.83 -4.23771 0.600192 0
M  V30 17448 C 1608.16 -5.3405 -0.263525 0
M  V30 17449 C 1609.46 -4.87576 1.87262 0
M  V30 17450 H 1611.15 -2.68319 1.32836 0
M  V30 17451 H 1608.7 -1.28987 0.640182 0
M  V30 17452 H 1610.65 -4.1708 -0.601821 0
M  V30 17453 H 1609.37 -3.05629 -1.15146 0
M  V30 17454 H 1608.03 -3.54774 0.923651 0
M  V30 17455 H 1607.68 -4.89604 -1.15312 0
M  V30 17456 H 1607.38 -5.86784 0.309495 0
M  V30 17457 H 1608.9 -6.07652 -0.599281 0
M  V30 17458 H 1610.32 -5.50544 1.59919 0
M  V30 17459 H 1608.72 -5.50437 2.39038 0
M  V30 17460 H 1609.79 -4.10397 2.58268 0
M  V30 17461 N 1611.13 -0.710588 -1.40671 0
M  V30 17462 C 1612.04 -0.0557164 -2.34534 0
M  V30 17463 C 1613.06 0.749387 -1.57036 0
M  V30 17464 O 1614.23 0.683493 -1.89447 0
M  V30 17465 C 1611.3 0.858583 -3.35901 0
M  V30 17466 C 1610.36 0.043995 -4.29277 0
M  V30 17467 C 1609.59 0.91475 -5.25802 0
M  V30 17468 O 1609.81 2.15407 -5.28163 0
M  V30 17469 O 1608.75 0.356407 -6.00844 0
M  V30 17470 H 1612.57 -0.829807 -2.92144 0
M  V30 17471 H 1610.16 -0.471028 -1.4178 0
M  V30 17472 H 1612.04 1.38244 -3.98079 0
M  V30 17473 H 1610.72 1.61191 -2.80712 0
M  V30 17474 H 1609.62 -0.524815 -3.704 0
M  V30 17475 H 1610.96 -0.670996 -4.87605 0
M  V30 17476 N 1612.61 1.50847 -0.456408 0
M  V30 17477 C 1613.85 2.02534 0.103772 0
M  V30 17478 C 1614.19 1.33874 1.40682 0
M  V30 17479 O 1613.46 0.459695 1.8899 0
M  V30 17480 C 1613.74 3.58825 0.302817 0
M  V30 17481 C 1613.6 4.38077 -1.02022 0
M  V30 17482 C 1614.92 4.27044 1.06404 0
M  V30 17483 H 1612.04 0.736108 0.0362398 0
M  V30 17484 H 1614.68 1.80306 -0.599134 0
M  V30 17485 H 1612.83 3.77895 0.901542 0
M  V30 17486 H 1614.5 4.30613 -1.6544 0
M  V30 17487 H 1612.74 4.02401 -1.62036 0
M  V30 17488 H 1613.41 5.45652 -0.834766 0
M  V30 17489 H 1615.89 4.12359 0.556698 0
M  V30 17490 H 1614.77 5.3624 1.17209 0
M  V30 17491 H 1615.03 3.89204 2.09697 0
M  V30 17492 N 1614.09 0.188454 1.56469 0
M  V30 17493 C 1615.03 -0.751822 2.20115 0
M  V30 17494 C 1616.03 -1.22476 1.1703 0
M  V30 17495 O 1617.23 -1.18843 1.3519 0
M  V30 17496 H 1613.61 -0.260778 0.705336 0
M  V30 17497 H 1615.58 -0.191249 2.97786 0
M  V30 17498 C 1614.33 -1.96365 2.86943 0
M  V30 17499 H 1613.65 -1.60879 3.66003 0
M  V30 17500 H 1615.09 -2.60007 3.34921 0
M  V30 17501 C 1613.55 -2.7982 1.87623 0
M  V30 17502 O 1614.08 -3.7753 1.37237 0
M  V30 17503 N 1612.29 -2.45179 1.55999 0
M  V30 17504 H 1611.83 -1.6578 1.97167 0
M  V30 17505 H 1611.79 -3.01302 0.898012 0
M  V30 17506 N 1615.56 -1.5737 -0.0851874 0
M  V30 17507 C 1616.81 -1.85772 -0.785604 0
M  V30 17508 C 1617.13 -0.779172 -1.79411 0
M  V30 17509 O 1618.33 -0.950621 -2.54314 0
M  V30 17510 C 1616.79 -3.29484 -1.44805 0
M  V30 17511 C 1616.4 -4.45434 -0.478799 0
M  V30 17512 C 1618.14 -3.671 -2.13161 0
M  V30 17513 C 1616.05 -5.80183 -1.1464 0
M  V30 17514 H 1614.98 -0.69298 -0.297145 0
M  V30 17515 H 1617.63 -1.83459 -0.0386776 0
M  V30 17516 H 1616.01 -3.26367 -2.24278 0
M  V30 17517 H 1617.18 -4.59917 0.285148 0
M  V30 17518 H 1615.5 -4.16281 0.0995964 0
M  V30 17519 H 1618.1 -4.65061 -2.6386 0
M  V30 17520 H 1618.44 -2.96223 -2.92503 0
M  V30 17521 H 1618.97 -3.72148 -1.40536 0
M  V30 17522 H 1615.71 -6.54317 -0.393583 0
M  V30 17523 H 1615.23 -5.69525 -1.88153 0
M  V30 17524 H 1616.91 -6.25074 -1.67006 0
M  V30 17525 N 1617.04 0.356258 -1.53521 0
M  V30 17526 C 1618.29 1.09953 -1.70406 0
M  V30 17527 C 1618.62 1.8869 -0.459304 0
M  V30 17528 O 1617.9 1.86751 0.54354 0
M  V30 17529 C 1618.18 2.05114 -2.95973 0
M  V30 17530 C 1618.03 1.29924 -4.30627 0
M  V30 17531 C 1619.35 3.0511 -3.17168 0
M  V30 17532 H 1616.47 0.398343 -0.620074 0
M  V30 17533 H 1619.11 0.379376 -1.86174 0
M  V30 17534 H 1617.26 2.66524 -2.82661 0
M  V30 17535 H 1618.93 0.71226 -4.55768 0
M  V30 17536 H 1617.18 0.601141 -4.29615 0
M  V30 17537 H 1617.85 1.99624 -5.1464 0
M  V30 17538 H 1620.32 2.53809 -3.29728 0
M  V30 17539 H 1619.2 3.68908 -4.06445 0
M  V30 17540 H 1619.46 3.75794 -2.32876 0
M  V30 17541 N 1618.52 1.45038 0.616577 0
M  V30 17542 C 1619.75 1.52094 1.40267 0
M  V30 17543 C 1620.16 0.150558 1.88199 0
M  V30 17544 O 1619.52 -0.846258 1.61693 0
M  V30 17545 C 1619.57 2.49786 2.61322 0
M  V30 17546 O 1619.29 3.81498 2.15385 0
M  V30 17547 C 1620.79 2.66451 3.54286 0
M  V30 17548 H 1618.01 0.515378 0.429681 0
M  V30 17549 H 1620.56 1.90141 0.752768 0
M  V30 17550 H 1618.71 2.14835 3.22373 0
M  V30 17551 H 1619.13 4.34374 2.93972 0
M  V30 17552 H 1620.6 3.38802 4.35795 0
M  V30 17553 H 1621.08 1.72177 4.04044 0
M  V30 17554 H 1621.68 3.02362 2.99095 0
M  V30 17555 N 1620 -0.858287 1.32179 0
M  V30 17556 C 1621.27 -1.59548 1.13154 0
M  V30 17557 C 1621.65 -2.0882 -0.309439 0
M  V30 17558 O 1621 -1.87536 -1.30547 0
M  V30 17559 C 1621.21 -2.74443 2.15597 0
M  V30 17560 C 1622.56 -3.44115 2.48737 0
M  V30 17561 O 1623.58 -2.84664 2.14114 0
M  V30 17562 O 1622.44 -4.51389 3.08074 0
M  V30 17563 H 1619.54 -0.702481 0.436405 0
M  V30 17564 H 1622.08 -0.902731 1.43697 0
M  V30 17565 H 1620.86 -2.35533 3.12473 0
M  V30 17566 H 1620.48 -3.51397 1.86028 0
M  V30 17567 N 1621.48 -1.1533 -1.07409 0
M  V30 17568 C 1622.7 -0.952101 -1.84255 0
M  V30 17569 C 1623.13 0.494571 -1.81482 0
M  V30 17570 O 1622.48 1.35253 -1.20733 0
M  V30 17571 C 1622.53 -1.47019 -3.29268 0
M  V30 17572 O 1621.64 -0.669005 -4.06937 0
M  V30 17573 H 1620.98 -0.339643 -0.57056 0
M  V30 17574 H 1623.51 -1.53298 -1.35502 0
M  V30 17575 H 1623.52 -1.48278 -3.80102 0
M  V30 17576 H 1622.19 -2.5234 -3.30602 0
M  V30 17577 H 1620.77 -0.726003 -3.65764 0
M  V30 17578 N 1622.95 1.25748 -0.950004 0
M  V30 17579 C 1623.89 2.25247 -0.423855 0
M  V30 17580 C 1624.9 1.56233 0.457726 0
M  V30 17581 O 1626.09 1.76496 0.266749 0
M  V30 17582 C 1623.19 3.36422 0.409074 0
M  V30 17583 C 1622.36 4.34991 -0.458421 0
M  V30 17584 C 1621.42 5.25253 0.315537 0
M  V30 17585 O 1620.45 5.68489 -0.284474 0
M  V30 17586 N 1621.65 5.57732 1.60983 0
M  V30 17587 H 1624.41 2.71026 -1.27925 0
M  V30 17588 H 1621.97 1.39607 -0.819853 0
M  V30 17589 H 1623.97 3.93764 0.934447 0
M  V30 17590 H 1622.54 2.90068 1.1653 0
M  V30 17591 H 1621.76 3.76594 -1.16494 0
M  V30 17592 H 1623.04 4.97833 -1.05068 0
M  V30 17593 H 1622.44 5.24502 2.1193 0
M  V30 17594 H 1621 6.17678 2.08126 0
M  V30 17595 N 1624.43 0.718038 1.40292 0
M  V30 17596 C 1625.66 0.267937 2.04855 0
M  V30 17597 C 1626.07 -1.09615 1.54211 0
M  V30 17598 O 1625.41 -1.70055 0.694754 0
M  V30 17599 C 1625.47 0.172691 3.59085 0
M  V30 17600 C 1625.14 1.47246 4.32629 0
M  V30 17601 C 1626.14 2.41487 4.60413 0
M  V30 17602 C 1623.82 1.73207 4.71492 0
M  V30 17603 C 1625.81 3.59932 5.26049 0
M  V30 17604 C 1623.5 2.91933 5.3686 0
M  V30 17605 C 1624.5 3.85118 5.64068 0
M  V30 17606 O 1624.19 5.01762 6.28085 0
M  V30 17607 H 1623.92 0.117734 0.665669 0
M  V30 17608 H 1626.47 0.977621 1.80643 0
M  V30 17609 H 1624.7 -0.592957 3.82127 0
M  V30 17610 H 1626.39 -0.243171 4.05171 0
M  V30 17611 H 1627.16 2.22695 4.3085 0
M  V30 17612 H 1623.04 1.01528 4.49681 0
M  V30 17613 H 1626.58 4.32683 5.47203 0
M  V30 17614 H 1622.48 3.10633 5.65842 0
M  V30 17615 H 1623.25 5.01872 6.46581 0
M  V30 17616 N 1625.91 -1.50602 0.464402 0
M  V30 17617 C 1626.87 -2.26929 -0.32185 0
M  V30 17618 C 1627.87 -1.3144 -0.926289 0
M  V30 17619 O 1629.06 -1.54924 -0.796511 0
M  V30 17620 C 1626.2 -3.08155 -1.45785 0
M  V30 17621 H 1627.39 -2.97881 0.347436 0
M  V30 17622 H 1624.94 -1.54768 0.218278 0
M  V30 17623 H 1625.68 -2.41684 -2.16239 0
M  V30 17624 H 1625.46 -3.78321 -1.03031 0
M  V30 17625 H 1626.95 -3.65899 -2.01266 0
M  V30 17626 N 1627.39 -0.19675 -1.56367 0
M  V30 17627 C 1628.32 0.718607 -2.22167 0
M  V30 17628 C 1629.3 1.22002 -1.1853 0
M  V30 17629 O 1630.48 1.26856 -1.47042 0
M  V30 17630 C 1627.61 1.93753 -2.88231 0
M  V30 17631 C 1626.57 1.57096 -3.98127 0
M  V30 17632 C 1625.89 2.86663 -4.51363 0
M  V30 17633 C 1627.19 0.779649 -5.16448 0
M  V30 17634 H 1628.89 0.170064 -2.98917 0
M  V30 17635 H 1626.43 0.0803568 -1.43776 0
M  V30 17636 H 1628.39 2.58312 -3.32946 0
M  V30 17637 H 1627.11 2.51063 -2.0889 0
M  V30 17638 H 1625.77 0.948947 -3.54105 0
M  V30 17639 H 1625.42 3.42066 -3.68782 0
M  V30 17640 H 1625.12 2.6288 -5.25517 0
M  V30 17641 H 1626.64 3.52207 -4.98781 0
M  V30 17642 H 1628.06 1.32838 -5.57698 0
M  V30 17643 H 1626.45 0.639882 -5.96679 0
M  V30 17644 H 1627.52 -0.218944 -4.84405 0
M  V30 17645 N 1628.87 1.57413 0.0768405 0
M  V30 17646 C 1630.11 1.86633 0.775414 0
M  V30 17647 C 1630.44 0.788041 1.78367 0
M  V30 17648 O 1629.71 -0.183835 1.95036 0
M  V30 17649 H 1628.29 0.688678 0.289365 0
M  V30 17650 H 1630.95 1.94825 0.0541285 0
M  V30 17651 H 1630.04 2.83977 1.29474 0
M  V30 17652 N 1630.34 -0.348112 1.53707 0
M  V30 17653 C 1631.59 -1.08626 1.69951 0
M  V30 17654 C 1631.91 -1.89944 0.466992 0
M  V30 17655 O 1633.11 -2.66661 0.51029 0
M  V30 17656 C 1631.57 -1.98052 3.00505 0
M  V30 17657 C 1631.18 -1.21963 4.31079 0
M  V30 17658 C 1632.92 -2.71752 3.26115 0
M  V30 17659 C 1630.83 -2.10392 5.52711 0
M  V30 17660 H 1629.76 -0.409241 0.633275 0
M  V30 17661 H 1632.41 -0.346051 1.80207 0
M  V30 17662 H 1630.79 -2.75874 2.84094 0
M  V30 17663 H 1631.96 -0.490831 4.58178 0
M  V30 17664 H 1630.28 -0.600511 4.12047 0
M  V30 17665 H 1632.88 -3.38174 4.14177 0
M  V30 17666 H 1633.22 -3.38072 2.42926 0
M  V30 17667 H 1633.75 -2.01005 3.43281 0
M  V30 17668 H 1630.49 -1.48622 6.38429 0
M  V30 17669 H 1630.01 -2.81074 5.29866 0
M  V30 17670 H 1631.69 -2.69551 5.88176 0
M  V30 17671 N 1631.82 -1.45363 -0.608876 0
M  V30 17672 C 1633.07 -1.48586 -1.364 0
M  V30 17673 C 1633.38 -0.131213 -1.95159 0
M  V30 17674 O 1634.59 -0.0410845 -2.71469 0
M  V30 17675 C 1633.05 -2.61694 -2.47071 0
M  V30 17676 C 1632.65 -4.03466 -1.94729 0
M  V30 17677 C 1634.4 -2.74162 -3.24091 0
M  V30 17678 C 1632.31 -5.07958 -3.02874 0
M  V30 17679 H 1631.24 -0.552893 -0.512665 0
M  V30 17680 H 1633.89 -1.71499 -0.65271 0
M  V30 17681 H 1632.27 -2.32062 -3.20879 0
M  V30 17682 H 1633.44 -4.4277 -1.27638 0
M  V30 17683 H 1631.76 -3.95436 -1.30457 0
M  V30 17684 H 1634.35 -3.494 -4.04752 0
M  V30 17685 H 1634.7 -1.80751 -3.75013 0
M  V30 17686 H 1635.23 -3.03313 -2.57383 0
M  V30 17687 H 1631.97 -6.03073 -2.56871 0
M  V30 17688 H 1631.49 -4.73225 -3.68535 0
M  V30 17689 H 1633.17 -5.3265 -3.67277 0
M  V30 17690 N 1633.3 0.851265 -1.32632 0
M  V30 17691 C 1634.23 1.96682 -1.17681 0
M  V30 17692 C 1635.25 1.62422 -0.110926 0
M  V30 17693 O 1636.43 1.74828 -0.360202 0
M  V30 17694 C 1633.53 3.29806 -0.779838 0
M  V30 17695 C 1632.71 3.92284 -1.93473 0
M  V30 17696 C 1631.77 5.03745 -1.52075 0
M  V30 17697 O 1630.79 5.23558 -2.23328 0
M  V30 17698 N 1631.99 5.78988 -0.418695 0
M  V30 17699 H 1634.76 2.10049 -2.13775 0
M  V30 17700 H 1632.32 1.02631 -1.25214 0
M  V30 17701 H 1634.31 4.0178 -0.485236 0
M  V30 17702 H 1632.88 3.1247 0.0900498 0
M  V30 17703 H 1632.1 3.13054 -2.39564 0
M  V30 17704 H 1633.39 4.30762 -2.7078 0
M  V30 17705 H 1632.79 5.65432 0.174269 0
M  V30 17706 H 1631.35 6.51541 -0.183714 0
M  V30 17707 N 1634.78 1.15898 1.06796 0
M  V30 17708 C 1635.74 0.863427 2.12315 0
M  V30 17709 C 1636.74 -0.139326 1.60195 0
M  V30 17710 O 1637.93 0.0909705 1.73962 0
M  V30 17711 C 1635.06 0.290251 3.39662 0
M  V30 17712 H 1636.26 1.79879 2.39966 0
M  V30 17713 H 1633.81 0.967223 1.22778 0
M  V30 17714 H 1634.54 -0.653037 3.17657 0
M  V30 17715 H 1634.33 1.01273 3.78796 0
M  V30 17716 H 1635.82 0.10124 4.17477 0
M  V30 17717 N 1636.26 -1.25243 0.956659 0
M  V30 17718 C 1637.19 -2.25019 0.435795 0
M  V30 17719 C 1638.2 -1.56473 -0.449435 0
M  V30 17720 O 1639.39 -1.76635 -0.257386 0
M  V30 17721 C 1636.49 -3.36634 -0.391226 0
M  V30 17722 C 1635.66 -4.34742 0.481483 0
M  V30 17723 C 1634.72 -5.25413 -0.287678 0
M  V30 17724 O 1633.75 -5.6833 0.314618 0
M  V30 17725 N 1634.95 -5.58578 -1.58023 0
M  V30 17726 H 1637.72 -2.70344 1.2936 0
M  V30 17727 H 1635.28 -1.3917 0.827245 0
M  V30 17728 H 1637.27 -3.94254 -0.913552 0
M  V30 17729 H 1635.84 -2.90682 -1.14991 0
M  V30 17730 H 1635.06 -3.75971 1.18489 0
M  V30 17731 H 1636.35 -4.97269 1.07707 0
M  V30 17732 H 1635.74 -5.25618 -2.09146 0
M  V30 17733 H 1634.3 -6.18774 -2.04848 0
M  V30 17734 N 1637.73 -0.725468 -1.3991 0
M  V30 17735 C 1639.15 -0.340415 -1.8357 0
M  V30 17736 C 1639.5 1.1266 -1.6063 0
M  V30 17737 O 1638.62 1.86804 -1.0924 0
M  V30 17738 C 1639.22 -0.611079 -3.33244 0
M  V30 17739 C 1637.78 -0.279627 -3.7536 0
M  V30 17740 C 1636.92 -0.878498 -2.63017 0
M  V30 17741 H 1639.87 -0.923856 -1.29037 0
M  V30 17742 H 1639.89 0.120377 -3.8031 0
M  V30 17743 H 1639.41 -1.67886 -3.49908 0
M  V30 17744 H 1637.51 0.782703 -3.64286 0
M  V30 17745 H 1637.62 -0.755528 -4.73105 0
M  V30 17746 H 1635.98 -0.305813 -2.52857 0
M  V30 17747 H 1636.77 -1.95075 -2.8249 0
M  V30 17748 N 1639.21 1.50354 -0.472382 0
M  V30 17749 C 1640.49 1.95071 0.143803 0
M  V30 17750 C 1640.87 1.41281 1.56853 0
M  V30 17751 O 1640.22 0.614349 2.20086 0
M  V30 17752 C 1640.43 3.48895 0.0857944 0
M  V30 17753 C 1641.78 4.23715 0.274039 0
M  V30 17754 O 1642.8 3.5583 0.162319 0
M  V30 17755 O 1641.66 5.4421 0.499815 0
M  V30 17756 H 1638.75 0.819521 0.110966 0
M  V30 17757 H 1641.3 1.61116 -0.532876 0
M  V30 17758 H 1640.07 3.80598 -0.908887 0
M  V30 17759 H 1639.69 3.89389 0.803875 0
M  V30 17760 N 1640.69 0.205039 1.56261 0
M  V30 17761 C 1641.64 -0.711828 2.19549 0
M  V30 17762 C 1642.61 -1.2025 1.14582 0
M  V30 17763 O 1643.79 -1.26459 1.42873 0
M  V30 17764 C 1640.93 -1.92152 2.86656 0
M  V30 17765 C 1640.05 -1.47129 4.06174 0
M  V30 17766 C 1639.18 -2.63726 4.6111 0
M  V30 17767 C 1638.22 -2.15357 5.72964 0
M  V30 17768 N 1637.36 -3.25167 6.22263 0
M  V30 17769 H 1642.2 -0.165392 2.97541 0
M  V30 17770 H 1639.73 -0.0698889 1.46934 0
M  V30 17771 H 1641.69 -2.63152 3.23739 0
M  V30 17772 H 1640.32 -2.4411 2.11211 0
M  V30 17773 H 1639.37 -0.656797 3.74687 0
M  V30 17774 H 1640.69 -1.0765 4.87045 0
M  V30 17775 H 1639.84 -3.42833 5.0055 0
M  V30 17776 H 1638.58 -3.06484 3.79367 0
M  V30 17777 H 1637.58 -1.34706 5.33043 0
M  V30 17778 H 1638.81 -1.73618 6.56532 0
M  V30 17779 H 1636.76 -3.67438 5.43439 0
M  V30 17780 H 1636.67 -2.89888 6.98213 0
M  V30 17781 H 1637.94 -4.0446 6.66358 0
M  V30 17782 N 1642.17 -1.57451 -0.0684915 0
M  V30 17783 C 1643.39 -1.92025 -0.78366 0
M  V30 17784 C 1643.82 -0.801743 -1.70158 0
M  V30 17785 O 1643.18 0.245227 -1.79634 0
M  V30 17786 C 1643.23 -3.25563 -1.55051 0
M  V30 17787 O 1642.33 -3.15029 -2.6614 0
M  V30 17788 H 1641.67 -0.628714 -0.213576 0
M  V30 17789 H 1644.2 -2.04569 -0.0357474 0
M  V30 17790 H 1644.21 -3.59516 -1.92905 0
M  V30 17791 H 1642.89 -4.06547 -0.87704 0
M  V30 17792 H 1641.46 -2.9264 -2.31119 0
M  V30 17793 N 1643.65 0.339955 -1.5389 0
M  V30 17794 C 1644.56 1.441 -1.85128 0
M  V30 17795 C 1645.57 1.57399 -0.741733 0
M  V30 17796 O 1646.75 1.72807 -1.0344 0
M  V30 17797 C 1643.81 2.7904 -2.05761 0
M  V30 17798 C 1642.88 2.75055 -3.29611 0
M  V30 17799 C 1642.11 4.0356 -3.4925 0
M  V30 17800 O 1642.33 5.01015 -2.72653 0
M  V30 17801 O 1641.27 4.07813 -4.42687 0
M  V30 17802 H 1645.09 1.20616 -2.78721 0
M  V30 17803 H 1642.68 0.532468 -1.39589 0
M  V30 17804 H 1644.56 3.5895 -2.20756 0
M  V30 17805 H 1643.23 3.02447 -1.15357 0
M  V30 17806 H 1642.14 1.93753 -3.20016 0
M  V30 17807 H 1643.47 2.56602 -4.20019 0
M  V30 17808 N 1645.13 1.45684 0.601159 0
M  V30 17809 C 1646.35 1.53806 1.39135 0
M  V30 17810 C 1646.78 0.173625 1.87297 0
M  V30 17811 O 1646.13 -0.842931 1.60513 0
M  V30 17812 C 1646.18 2.53201 2.56752 0
M  V30 17813 O 1645.29 2.05427 3.57594 0
M  V30 17814 H 1644.63 0.51824 0.415118 0
M  V30 17815 H 1647.16 1.91095 0.731006 0
M  V30 17816 H 1647.17 2.72215 3.03912 0
M  V30 17817 H 1645.84 3.52294 2.21047 0
M  V30 17818 H 1644.42 1.96318 3.17039 0
M  V30 17819 N 1646.6 -0.84422 1.33082 0
M  V30 17820 C 1647.51 -1.9858 1.24913 0
M  V30 17821 C 1648.53 -1.73256 0.160708 0
M  V30 17822 O 1649.71 -1.97719 0.383313 0
M  V30 17823 C 1646.77 -3.32471 0.983063 0
M  V30 17824 C 1645.83 -3.70946 2.16096 0
M  V30 17825 C 1645.06 -4.98448 1.90749 0
M  V30 17826 O 1645.29 -5.63953 0.855173 0
M  V30 17827 O 1644.22 -5.34301 2.7714 0
M  V30 17828 H 1648.05 -2.0841 2.20905 0
M  V30 17829 H 1645.63 -0.976447 1.13075 0
M  V30 17830 H 1647.51 -4.12705 0.851612 0
M  V30 17831 H 1646.19 -3.23656 0.053384 0
M  V30 17832 H 1645.1 -2.91244 2.34793 0
M  V30 17833 H 1646.43 -3.8442 3.07379 0
M  V30 17834 N 1648.08 -1.16463 -1.0618 0
M  V30 17835 C 1649.01 -0.895399 -2.1565 0
M  V30 17836 C 1649.99 0.158729 -1.69358 0
M  V30 17837 O 1651.18 0.010586 -1.94197 0
M  V30 17838 C 1648.31 -0.396959 -3.45024 0
M  V30 17839 C 1647.26 -1.38913 -4.0483 0
M  V30 17840 C 1646.59 -0.749043 -5.29427 0
M  V30 17841 C 1647.89 -2.7591 -4.43476 0
M  V30 17842 H 1649.58 -1.81085 -2.38429 0
M  V30 17843 H 1647.13 -0.872098 -1.14588 0
M  V30 17844 H 1649.08 -0.196086 -4.20944 0
M  V30 17845 H 1647.8 0.554002 -3.21867 0
M  V30 17846 H 1646.46 -1.57657 -3.30968 0
M  V30 17847 H 1646.11 0.208439 -5.02568 0
M  V30 17848 H 1645.81 -1.41128 -5.704 0
M  V30 17849 H 1647.34 -0.558217 -6.08043 0
M  V30 17850 H 1648.75 -2.60942 -5.10473 0
M  V30 17851 H 1647.15 -3.38618 -4.95437 0
M  V30 17852 H 1648.22 -3.31076 -3.54284 0
M  V30 17853 N 1649.56 1.24734 -0.963288 0
M  V30 17854 C 1650.81 1.92971 -0.623688 0
M  V30 17855 C 1651.14 1.7517 0.838393 0
M  V30 17856 O 1650.41 1.10208 1.60264 0
M  V30 17857 C 1650.7 3.46115 -0.99379 0
M  V30 17858 C 1650.55 3.73104 -2.51224 0
M  V30 17859 C 1651.87 4.36956 -0.525128 0
M  V30 17860 H 1648.99 0.700827 -0.228058 0
M  V30 17861 H 1651.63 1.47187 -1.2015 0
M  V30 17862 H 1649.78 3.85242 -0.502108 0
M  V30 17863 H 1651.45 3.43563 -3.07835 0
M  V30 17864 H 1649.69 3.18409 -2.94616 0
M  V30 17865 H 1650.37 4.80237 -2.7217 0
M  V30 17866 H 1652.84 4.0518 -0.947015 0
M  V30 17867 H 1651.72 5.4285 -0.812695 0
M  V30 17868 H 1651.98 4.38347 0.574843 0
M  V30 17869 N 1651.04 0.732878 1.39523 0
M  V30 17870 C 1651.99 0.0806066 2.3246 0
M  V30 17871 C 1652.98 -0.728184 1.5295 0
M  V30 17872 O 1654.19 -0.629608 1.6863 0
M  V30 17873 H 1650.56 0.00726537 0.751965 0
M  V30 17874 H 1652.53 0.880867 2.85102 0
M  V30 17875 C 1651.28 -0.81412 3.38035 0
M  V30 17876 H 1650.6 -0.201168 3.99294 0
M  V30 17877 H 1652.04 -1.23817 4.05519 0
M  V30 17878 C 1650.5 -1.94745 2.74911 0
M  V30 17879 O 1651.03 -3.03989 2.6259 0
M  V30 17880 N 1649.24 -1.73624 2.3303 0
M  V30 17881 H 1648.79 -0.847733 2.43251 0
M  V30 17882 H 1648.74 -2.49629 1.91135 0
M  V30 17883 N 1652.52 -1.50101 0.480349 0
M  V30 17884 C 1653.45 -2.26582 -0.345418 0
M  V30 17885 C 1654.46 -1.32283 -0.948947 0
M  V30 17886 O 1655.65 -1.57724 -0.835784 0
M  V30 17887 C 1652.75 -3.0393 -1.49932 0
M  V30 17888 C 1651.92 -4.25653 -1.00689 0
M  V30 17889 C 1650.98 -4.85217 -2.03594 0
M  V30 17890 O 1650.01 -5.45873 -1.61281 0
M  V30 17891 N 1651.21 -4.73035 -3.36479 0
M  V30 17892 H 1653.97 -2.98089 0.310285 0
M  V30 17893 H 1651.54 -1.58872 0.311671 0
M  V30 17894 H 1653.53 -3.40656 -2.18485 0
M  V30 17895 H 1652.1 -2.35162 -2.05955 0
M  V30 17896 H 1651.32 -3.93926 -0.146932 0
M  V30 17897 H 1652.61 -5.04554 -0.655957 0
M  V30 17898 H 1652 -4.24818 -3.73559 0
M  V30 17899 H 1650.56 -5.14004 -4.00804 0
M  V30 17900 N 1653.99 -0.213323 -1.5615 0
M  V30 17901 C 1655.24 0.420909 -1.97259 0
M  V30 17902 C 1655.56 1.61483 -1.10375 0
M  V30 17903 O 1656.76 2.31804 -1.41347 0
M  V30 17904 C 1655.22 0.800243 -3.5089 0
M  V30 17905 C 1654.83 -0.370405 -4.46466 0
M  V30 17906 C 1656.57 1.40054 -4.00731 0
M  V30 17907 C 1654.48 0.0309052 -5.91392 0
M  V30 17908 H 1653.41 0.16103 -0.736604 0
M  V30 17909 H 1656.06 -0.308232 -1.80893 0
M  V30 17910 H 1654.44 1.58657 -3.62828 0
M  V30 17911 H 1655.61 -1.14796 -4.46272 0
M  V30 17912 H 1653.93 -0.883391 -4.06922 0
M  V30 17913 H 1656.53 1.71355 -5.06499 0
M  V30 17914 H 1656.87 2.31345 -3.461 0
M  V30 17915 H 1657.4 0.677813 -3.91983 0
M  V30 17916 H 1654.14 -0.848284 -6.49988 0
M  V30 17917 H 1653.66 0.772941 -5.94799 0
M  V30 17918 H 1655.34 0.460441 -6.4536 0
M  V30 17919 N 1655.47 1.57485 0.0601405 0
M  V30 17920 C 1656.72 1.86998 0.75595 0
M  V30 17921 C 1657.03 0.807616 1.78149 0
M  V30 17922 O 1658.24 0.99096 2.52769 0
M  V30 17923 C 1656.7 3.31746 1.39545 0
M  V30 17924 C 1656.3 4.46139 0.407874 0
M  V30 17925 C 1658.05 3.70445 2.07294 0
M  V30 17926 C 1655.96 5.81933 1.05395 0
M  V30 17927 H 1654.89 0.697619 0.286083 0
M  V30 17928 H 1657.54 1.83498 0.00948593 0
M  V30 17929 H 1655.92 3.29894 2.19057 0
M  V30 17930 H 1657.09 4.59405 -0.358281 0
M  V30 17931 H 1655.41 4.1607 -0.16581 0
M  V30 17932 H 1658 4.692 2.56428 0
M  V30 17933 H 1658.35 3.00839 2.87753 0
M  V30 17934 H 1658.88 3.74337 1.34598 0
M  V30 17935 H 1655.62 6.54861 0.289437 0
M  V30 17936 H 1655.14 5.72446 1.79068 0
M  V30 17937 H 1656.82 6.27652 1.5704 0
M  V30 17938 N 1656.95 -0.331789 1.54068 0
M  V30 17939 C 1657.86 -1.43116 1.8589 0
M  V30 17940 C 1658.88 -1.57003 0.75007 0
M  V30 17941 O 1660.05 -1.72256 1.04355 0
M  V30 17942 C 1657.12 -2.77945 2.07238 0
M  V30 17943 C 1656.18 -2.73303 3.31065 0
M  V30 17944 C 1655.41 -4.01702 3.51385 0
M  V30 17945 O 1655.63 -4.99562 2.75306 0
M  V30 17946 O 1654.57 -4.0546 4.44844 0
M  V30 17947 H 1658.39 -1.19137 2.79357 0
M  V30 17948 H 1655.98 -0.525057 1.3987 0
M  V30 17949 H 1657.86 -3.57774 2.22656 0
M  V30 17950 H 1656.54 -3.01831 1.16959 0
M  V30 17951 H 1655.44 -1.92054 3.21039 0
M  V30 17952 H 1656.78 -2.54371 4.21374 0
M  V30 17953 N 1658.43 -1.46001 -0.593424 0
M  V30 17954 C 1659.36 -1.51774 -1.71748 0
M  V30 17955 C 1660.37 -0.407093 -1.57628 0
M  V30 17956 O 1661.56 -0.674903 -1.65249 0
M  V30 17957 C 1658.66 -1.3718 -3.09895 0
M  V30 17958 C 1657.84 -2.62173 -3.5012 0
M  V30 17959 C 1656.89 -2.41933 -4.67285 0
M  V30 17960 O 1655.92 -3.15611 -4.73686 0
M  V30 17961 N 1657.12 -1.47405 -5.61473 0
M  V30 17962 H 1659.89 -2.48689 -1.67253 0
M  V30 17963 H 1657.45 -1.41921 -0.779111 0
M  V30 17964 H 1659.44 -1.21428 -3.86054 0
M  V30 17965 H 1658.01 -0.484876 -3.08817 0
M  V30 17966 H 1657.23 -2.92943 -2.63777 0
M  V30 17967 H 1658.52 -3.45229 -3.73758 0
M  V30 17968 H 1657.92 -0.866282 -5.59028 0
M  V30 17969 H 1656.47 -1.3762 -6.37106 0
M  V30 17970 N 1659.91 0.83715 -1.33527 0
M  V30 17971 C 1660.84 1.96231 -1.26553 0
M  V30 17972 C 1661.82 1.69474 -0.14576 0
M  V30 17973 O 1663 1.91274 -0.335815 0
M  V30 17974 C 1660.13 3.32419 -1.00574 0
M  V30 17975 C 1659.09 3.73577 -2.08864 0
M  V30 17976 C 1658.41 5.07591 -1.68095 0
M  V30 17977 C 1659.71 3.87179 -3.50556 0
M  V30 17978 H 1661.41 2.02324 -2.20693 0
M  V30 17979 H 1658.95 0.972038 -1.06242 0
M  V30 17980 H 1660.91 4.10703 -0.943439 0
M  V30 17981 H 1659.63 3.26587 -0.0287268 0
M  V30 17982 H 1658.29 2.97557 -2.14139 0
M  V30 17983 H 1657.94 4.98232 -0.690922 0
M  V30 17984 H 1657.64 5.361 -2.40563 0
M  V30 17985 H 1659.16 5.88349 -1.63334 0
M  V30 17986 H 1660.57 4.55771 -3.47772 0
M  V30 17987 H 1658.97 4.27127 -4.21524 0
M  V30 17988 H 1660.04 2.8958 -3.88936 0
M  V30 17989 N 1661.38 1.17024 1.05561 0
M  V30 17990 C 1662.63 0.950769 1.77886 0
M  V30 17991 C 1662.95 -0.522005 1.88506 0
M  V30 17992 O 1664.15 -0.859582 2.57533 0
M  V30 17993 C 1662.61 1.65189 3.19751 0
M  V30 17994 C 1662.22 3.16294 3.17273 0
M  V30 17995 C 1663.96 1.51466 3.96558 0
M  V30 17996 C 1661.87 3.79111 4.53904 0
M  V30 17997 H 1660.8 0.352089 0.666745 0
M  V30 17998 H 1663.45 1.40237 1.18346 0
M  V30 17999 H 1661.83 1.12801 3.79594 0
M  V30 18000 H 1663 3.75585 2.66969 0
M  V30 18001 H 1661.32 3.29986 2.53966 0
M  V30 18002 H 1663.92 1.95772 4.97571 0
M  V30 18003 H 1664.26 0.46467 4.13699 0
M  V30 18004 H 1664.79 2.0105 3.43254 0
M  V30 18005 H 1661.53 4.84091 4.41969 0
M  V30 18006 H 1661.05 3.24606 5.04372 0
M  V30 18007 H 1662.73 3.81099 5.2285 0
M  V30 18008 N 1662.86 -1.24221 0.969889 0
M  V30 18009 C 1663.81 -2.25292 0.501215 0
M  V30 18010 C 1664.78 -1.59764 -0.454382 0
M  V30 18011 O 1665.96 -1.87291 -0.364261 0
M  V30 18012 C 1663.1 -3.44518 -0.200361 0
M  V30 18013 C 1662.22 -4.24636 0.79426 0
M  V30 18014 C 1661.35 -5.31156 0.068568 0
M  V30 18015 C 1660.39 -6.02973 1.05311 0
M  V30 18016 N 1659.53 -7.0119 0.357274 0
M  V30 18017 H 1664.37 -2.64749 1.36792 0
M  V30 18018 H 1661.91 -1.30142 0.685673 0
M  V30 18019 H 1663.86 -4.1251 -0.623833 0
M  V30 18020 H 1662.49 -3.05892 -1.03101 0
M  V30 18021 H 1661.55 -3.56161 1.33616 0
M  V30 18022 H 1662.86 -4.74271 1.54493 0
M  V30 18023 H 1662.01 -6.05294 -0.412792 0
M  V30 18024 H 1660.75 -4.82434 -0.714781 0
M  V30 18025 H 1659.76 -5.27636 1.54532 0
M  V30 18026 H 1660.98 -6.53784 1.83694 0
M  V30 18027 H 1658.93 -6.54736 -0.407059 0
M  V30 18028 H 1658.84 -7.48718 1.04677 0
M  V30 18029 H 1660.11 -7.79433 -0.102045 0
M  V30 18030 N 1664.34 -0.740267 -1.39132 0
M  V30 18031 C 1665.29 -0.103744 -2.30567 0
M  V30 18032 C 1666.26 0.724026 -1.49489 0
M  V30 18033 O 1667.44 0.682904 -1.7816 0
M  V30 18034 C 1664.58 0.793587 -3.35851 0
M  V30 18035 C 1663.7 -0.0473671 -4.31974 0
M  V30 18036 C 1662.83 0.851726 -5.24327 0
M  V30 18037 C 1661.87 0.00633633 -6.121 0
M  V30 18038 N 1661.01 0.861652 -6.96793 0
M  V30 18039 H 1665.85 -0.889087 -2.84428 0
M  V30 18040 H 1663.38 -0.450093 -1.40045 0
M  V30 18041 H 1665.34 1.32834 -3.95488 0
M  V30 18042 H 1663.97 1.54485 -2.83433 0
M  V30 18043 H 1663.02 -0.699601 -3.73911 0
M  V30 18044 H 1664.34 -0.700806 -4.93852 0
M  V30 18045 H 1663.49 1.45413 -5.89016 0
M  V30 18046 H 1662.23 1.53893 -4.62783 0
M  V30 18047 H 1661.23 -0.608833 -5.46419 0
M  V30 18048 H 1662.46 -0.677731 -6.7571 0
M  V30 18049 H 1660.4 1.53405 -6.37811 0
M  V30 18050 H 1660.32 0.264812 -7.55536 0
M  V30 18051 H 1661.59 1.44945 -7.65905 0
M  V30 18052 N 1665.82 1.49844 -0.488302 0
M  V30 18053 C 1666.73 2.32651 0.301746 0
M  V30 18054 C 1667.74 1.43807 0.979573 0
M  V30 18055 O 1668.92 1.76844 0.963758 0
M  V30 18056 C 1665.99 3.18928 1.35962 0
M  V30 18057 C 1665.05 4.23611 0.696575 0
M  V30 18058 C 1664.28 5.05765 1.70404 0
M  V30 18059 O 1664.5 4.89243 2.93253 0
M  V30 18060 O 1663.44 5.88427 1.26637 0
M  V30 18061 H 1667.26 3.01367 -0.375687 0
M  V30 18062 H 1664.85 1.47296 -0.249844 0
M  V30 18063 H 1666.73 3.72413 1.97198 0
M  V30 18064 H 1665.4 2.52921 2.02021 0
M  V30 18065 H 1664.31 3.74073 0.0448118 0
M  V30 18066 H 1665.64 4.92137 0.0786446 0
M  V30 18067 N 1667.3 0.221601 1.56034 0
M  V30 18068 C 1668.24 -0.688502 2.20291 0
M  V30 18069 C 1669.21 -1.19028 1.15851 0
M  V30 18070 O 1670.4 -1.24936 1.44206 0
M  V30 18071 C 1667.54 -1.89101 2.88678 0
M  V30 18072 C 1666.65 -1.42812 4.07711 0
M  V30 18073 C 1665.79 -2.5882 4.63881 0
M  V30 18074 C 1664.83 -2.09268 5.75216 0
M  V30 18075 N 1663.96 -3.18549 6.25676 0
M  V30 18076 H 1668.8 -0.133824 2.97699 0
M  V30 18077 H 1666.34 -0.0543007 1.47 0
M  V30 18078 H 1668.3 -2.59704 3.26512 0
M  V30 18079 H 1666.93 -2.41857 2.13788 0
M  V30 18080 H 1665.98 -0.617019 3.75363 0
M  V30 18081 H 1667.29 -1.02478 4.8816 0
M  V30 18082 H 1666.45 -3.37505 5.04158 0
M  V30 18083 H 1665.18 -3.02443 3.82596 0
M  V30 18084 H 1664.19 -1.29045 5.34441 0
M  V30 18085 H 1665.41 -1.66645 6.58336 0
M  V30 18086 H 1663.36 -3.61653 5.47305 0
M  V30 18087 H 1663.28 -2.82466 7.01248 0
M  V30 18088 H 1664.55 -3.97369 6.7061 0
M  V30 18089 N 1668.77 -1.57515 -0.0517878 0
M  V30 18090 C 1670.02 -1.88493 -0.748206 0
M  V30 18091 C 1670.35 -0.816494 -1.76202 0
M  V30 18092 O 1669.63 0.171075 -1.93746 0
M  V30 18093 C 1669.91 -3.30131 -1.43825 0
M  V30 18094 C 1669.76 -4.47648 -0.4395 0
M  V30 18095 C 1671.08 -3.70315 -2.37813 0
M  V30 18096 H 1668.2 -0.68555 -0.270537 0
M  V30 18097 H 1670.84 -1.89997 -0.0111457 0
M  V30 18098 H 1668.99 -3.2898 -2.06651 0
M  V30 18099 H 1670.67 -4.60929 0.185088 0
M  V30 18100 H 1668.91 -4.33117 0.243381 0
M  V30 18101 H 1669.58 -5.43582 -0.96035 0
M  V30 18102 H 1672.06 -3.72687 -1.8505 0
M  V30 18103 H 1670.93 -4.70269 -2.83087 0
M  V30 18104 H 1671.19 -3.0133 -3.23501 0
M  V30 18105 N 1670.25 0.323614 -1.54242 0
M  V30 18106 C 1671.48 1.07954 -1.76152 0
M  V30 18107 C 1671.89 1.82194 -0.510099 0
M  V30 18108 O 1671.23 1.75923 0.528838 0
M  V30 18109 C 1671.3 2.12323 -2.90102 0
M  V30 18110 C 1670.96 1.57481 -4.29009 0
M  V30 18111 C 1671.96 1.01662 -5.09864 0
M  V30 18112 C 1669.64 1.61726 -4.75552 0
M  V30 18113 C 1671.64 0.508168 -6.35371 0
M  V30 18114 C 1669.32 1.10493 -6.01028 0
M  V30 18115 C 1670.32 0.551331 -6.80771 0
M  V30 18116 O 1670.01 0.0467053 -8.03886 0
M  V30 18117 H 1669.74 0.326941 -0.59168 0
M  V30 18118 H 1672.3 0.375423 -2.0194 0
M  V30 18119 H 1670.53 2.8635 -2.59885 0
M  V30 18120 H 1672.21 2.73636 -2.99796 0
M  V30 18121 H 1672.98 0.976899 -4.7506 0
M  V30 18122 H 1668.86 2.03755 -4.13527 0
M  V30 18123 H 1672.4 0.0754082 -6.97559 0
M  V30 18124 H 1668.3 1.14172 -6.35323 0
M  V30 18125 H 1669.07 0.162133 -8.18339 0
M  V30 18126 N 1671.73 1.46313 0.585673 0
M  V30 18127 C 1672.66 1.59511 1.70524 0
M  V30 18128 C 1673.64 0.445578 1.6416 0
M  V30 18129 O 1674.83 0.671455 1.82223 0
M  V30 18130 C 1671.96 1.58229 3.09162 0
M  V30 18131 C 1670.91 2.72122 3.30354 0
M  V30 18132 C 1670.24 2.559 4.69489 0
M  V30 18133 C 1671.54 4.13969 3.18476 0
M  V30 18134 H 1673.23 2.53229 1.59735 0
M  V30 18135 H 1670.78 1.2187 0.767046 0
M  V30 18136 H 1672.73 1.66056 3.87303 0
M  V30 18137 H 1671.45 0.610535 3.20843 0
M  V30 18138 H 1670.11 2.63759 2.54611 0
M  V30 18139 H 1669.76 1.56814 4.77931 0
M  V30 18140 H 1669.46 3.32289 4.84621 0
M  V30 18141 H 1670.99 2.65613 5.49802 0
M  V30 18142 H 1672.4 4.23459 3.86465 0
M  V30 18143 H 1670.8 4.90922 3.45131 0
M  V30 18144 H 1671.87 4.34334 2.15598 0
M  V30 18145 N 1673.21 -0.830057 1.33969 0
M  V30 18146 C 1674.17 -1.92206 1.24858 0
M  V30 18147 C 1675.17 -1.59946 0.16549 0
M  V30 18148 O 1676.36 -1.6912 0.417629 0
M  V30 18149 C 1673.49 -3.28082 0.926029 0
M  V30 18150 H 1674.69 -2.01708 2.21932 0
M  V30 18151 H 1672.24 -1.02319 1.18154 0
M  V30 18152 H 1672.98 -3.24273 -0.0418364 0
M  V30 18153 H 1672.76 -3.52878 1.70938 0
M  V30 18154 H 1674.25 -4.08065 0.887263 0
M  V30 18155 N 1674.69 -1.17582 -1.04939 0
M  V30 18156 C 1675.93 -0.977213 -1.78388 0
M  V30 18157 C 1676.29 0.488754 -1.86089 0
M  V30 18158 O 1675.58 1.35813 -1.3515 0
M  V30 18159 C 1675.78 -1.55507 -3.21796 0
M  V30 18160 C 1675.6 -3.0757 -3.28072 0
M  V30 18161 C 1674.37 -3.76321 -3.3721 0
M  V30 18162 C 1676.57 -4.05142 -3.16803 0
M  V30 18163 N 1674.55 -5.15966 -3.32644 0
M  V30 18164 C 1675.93 -5.31256 -3.19636 0
M  V30 18165 C 1677.98 -3.96779 -3.00783 0
M  V30 18166 C 1676.68 -6.49976 -3.08096 0
M  V30 18167 C 1678.71 -5.15087 -2.90585 0
M  V30 18168 C 1678.07 -6.40087 -2.94054 0
M  V30 18169 H 1674.17 -0.411508 -0.66497 0
M  V30 18170 H 1676.75 -1.4921 -1.25078 0
M  V30 18171 H 1674.93 -1.06648 -3.73471 0
M  V30 18172 H 1676.66 -1.29284 -3.83494 0
M  V30 18173 H 1673.41 -3.27012 -3.42578 0
M  V30 18174 H 1673.84 -5.88974 -3.33824 0
M  V30 18175 H 1678.48 -3.00978 -2.96938 0
M  V30 18176 H 1676.2 -7.45985 -3.10696 0
M  V30 18177 H 1679.78 -5.10399 -2.79257 0
M  V30 18178 H 1678.66 -7.30094 -2.86239 0
M  V30 18179 N 1676.17 1.23705 -0.976463 0
M  V30 18180 C 1677.41 1.92299 -0.64412 0
M  V30 18181 C 1677.74 1.7605 0.819767 0
M  V30 18182 O 1677.02 1.11902 1.59086 0
M  V30 18183 C 1677.3 3.45042 -1.03044 0
M  V30 18184 C 1677.16 3.70418 -2.55167 0
M  V30 18185 C 1678.47 4.36374 -0.571444 0
M  V30 18186 H 1675.59 0.698369 -0.235478 0
M  V30 18187 H 1678.24 1.45904 -1.21704 0
M  V30 18188 H 1676.39 3.84687 -0.54294 0
M  V30 18189 H 1678.06 3.40278 -3.11462 0
M  V30 18190 H 1676.3 3.15266 -2.97976 0
M  V30 18191 H 1676.97 4.77323 -2.77248 0
M  V30 18192 H 1679.45 4.04153 -0.989936 0
M  V30 18193 H 1678.32 5.41958 -0.870226 0
M  V30 18194 H 1678.58 4.38932 0.528318 0
M  V30 18195 N 1677.64 0.747635 1.38738 0
M  V30 18196 C 1679.05 0.369576 1.83006 0
M  V30 18197 C 1679.41 -1.10091 1.62402 0
M  V30 18198 O 1678.53 -1.85042 1.12198 0
M  V30 18199 C 1679.13 0.664018 3.32229 0
M  V30 18200 C 1677.68 0.339308 3.74868 0
M  V30 18201 C 1676.83 0.920231 2.61586 0
M  V30 18202 H 1679.78 0.944268 1.27551 0
M  V30 18203 H 1679.8 -0.0598575 3.80453 0
M  V30 18204 H 1679.32 1.73432 3.47193 0
M  V30 18205 H 1677.42 -0.724649 3.65485 0
M  V30 18206 H 1677.53 0.830699 4.71843 0
M  V30 18207 H 1675.89 0.346002 2.52339 0
M  V30 18208 H 1676.68 1.99544 2.79351 0
M  V30 18209 N 1679.12 -1.49583 0.496242 0
M  V30 18210 C 1680.08 -2.27561 -0.273642 0
M  V30 18211 C 1681.08 -1.33375 -0.8982 0
M  V30 18212 O 1682.27 -1.56578 -0.76347 0
M  V30 18213 C 1679.41 -3.11178 -1.39216 0
M  V30 18214 H 1680.6 -2.97077 0.410543 0
M  V30 18215 H 1678.15 -1.54271 0.251058 0
M  V30 18216 H 1678.89 -2.46217 -2.11064 0
M  V30 18217 H 1678.67 -3.80422 -0.949829 0
M  V30 18218 H 1680.16 -3.70085 -1.93459 0
M  V30 18219 N 1680.6 -0.229873 -1.55915 0
M  V30 18220 C 1681.55 0.690362 -2.17297 0
M  V30 18221 C 1682.53 1.15155 -1.12375 0
M  V30 18222 O 1683.73 1.10416 -1.38338 0
M  V30 18223 C 1680.85 1.89461 -2.86286 0
M  V30 18224 C 1679.94 1.45271 -3.98443 0
M  V30 18225 N 1680.33 0.723932 -5.00593 0
M  V30 18226 C 1678.63 1.73935 -4.10686 0
M  V30 18227 C 1679.33 0.497439 -5.79569 0
M  V30 18228 N 1678.31 1.05662 -5.33232 0
M  V30 18229 H 1682.11 0.12522 -2.93633 0
M  V30 18230 H 1679.62 -0.0314724 -1.6237 0
M  V30 18231 H 1681.62 2.5647 -3.28677 0
M  V30 18232 H 1680.28 2.46414 -2.11448 0
M  V30 18233 H 1681.29 0.375765 -5.16535 0
M  V30 18234 H 1677.97 2.32149 -3.47006 0
M  V30 18235 H 1679.36 -0.0831841 -6.71849 0
M  V30 18236 N 1682.08 1.5754 0.0434337 0
M  V30 18237 C 1683.02 2.0561 1.04848 0
M  V30 18238 C 1683.99 0.942299 1.36784 0
M  V30 18239 O 1685.18 1.21191 1.47368 0
M  V30 18240 C 1682.32 2.52844 2.3487 0
M  V30 18241 C 1681.43 3.77958 2.09218 0
M  V30 18242 C 1680.57 4.13859 3.33007 0
M  V30 18243 C 1679.61 5.31932 3.02845 0
M  V30 18244 N 1678.74 5.63335 4.19045 0
M  V30 18245 H 1683.58 2.9123 0.631591 0
M  V30 18246 H 1681.12 1.44003 0.300258 0
M  V30 18247 H 1683.08 2.78291 3.10822 0
M  V30 18248 H 1681.71 1.70161 2.74308 0
M  V30 18249 H 1680.76 3.59681 1.23828 0
M  V30 18250 H 1682.07 4.64034 1.82958 0
M  V30 18251 H 1681.23 4.40358 4.17336 0
M  V30 18252 H 1679.97 3.26406 3.62368 0
M  V30 18253 H 1678.97 5.052 2.16916 0
M  V30 18254 H 1680.2 6.21027 2.74777 0
M  V30 18255 H 1678.14 4.7884 4.48384 0
M  V30 18256 H 1678.06 6.4389 3.96158 0
M  V30 18257 H 1679.33 5.94402 5.04289 0
M  V30 18258 N 1683.56 -0.31543 1.54411 0
M  V30 18259 C 1684.8 -1.05033 1.72663 0
M  V30 18260 C 1685.12 -1.8828 0.507504 0
M  V30 18261 O 1684.39 -1.89968 -0.478418 0
M  V30 18262 H 1682.97 -0.39077 0.636638 0
M  V30 18263 H 1685.64 -0.3499 1.91733 0
M  V30 18264 H 1684.73 -1.71171 2.60973 0
M  V30 18265 N 1685.03 -1.46622 -0.577906 0
M  V30 18266 C 1686.28 -1.51446 -1.33218 0
M  V30 18267 C 1686.6 -0.17258 -1.94837 0
M  V30 18268 O 1687.8 -0.0986578 -2.71321 0
M  V30 18269 C 1686.26 -2.66876 -2.41465 0
M  V30 18270 C 1685.87 -4.07506 -1.86127 0
M  V30 18271 C 1687.61 -2.80975 -3.18203 0
M  V30 18272 C 1685.52 -5.14268 -2.92031 0
M  V30 18273 H 1684.45 -0.563643 -0.500822 0
M  V30 18274 H 1687.1 -1.72845 -0.616186 0
M  V30 18275 H 1685.48 -2.38816 -3.15884 0
M  V30 18276 H 1686.65 -4.45378 -1.18218 0
M  V30 18277 H 1684.97 -3.98115 -1.2204 0
M  V30 18278 H 1687.57 -3.57906 -3.97249 0
M  V30 18279 H 1687.91 -1.88665 -3.71095 0
M  V30 18280 H 1688.44 -3.08705 -2.50891 0
M  V30 18281 H 1685.18 -6.08386 -2.44021 0
M  V30 18282 H 1684.7 -4.80936 -3.58414 0
M  V30 18283 H 1686.38 -5.40321 -3.55896 0
M  V30 18284 N 1686.51 0.822941 -1.34408 0
M  V30 18285 C 1687.76 1.57604 -1.26513 0
M  V30 18286 C 1688.08 1.94303 0.164769 0
M  V30 18287 O 1687.35 1.62278 1.09738 0
M  V30 18288 H 1685.93 0.584399 -0.465282 0
M  V30 18289 H 1688.59 0.982582 -1.68319 0
M  V30 18290 H 1687.69 2.49886 -1.86986 0
M  V30 18291 N 1687.99 1.18137 1.04314 0
M  V30 18292 C 1689.24 0.973277 1.77121 0
M  V30 18293 C 1689.56 -0.498558 1.88519 0
M  V30 18294 O 1688.83 -1.36168 1.40837 0
M  V30 18295 H 1687.41 0.35712 0.656105 0
M  V30 18296 H 1690.07 1.48774 1.25906 0
M  V30 18297 H 1689.17 1.40917 2.78476 0
M  V30 18298 N 1689.47 -1.23186 0.98301 0
M  V30 18299 C 1690.42 -2.26762 0.517846 0
M  V30 18300 C 1691.41 -1.63944 -0.426459 0
M  V30 18301 O 1692.62 -1.77481 -0.300065 0
M  V30 18302 H 1688.99 -0.737082 0.149042 0
M  V30 18303 H 1690.96 -2.63356 1.40307 0
M  V30 18304 C 1689.71 -3.47324 -0.16157 0
M  V30 18305 H 1689.03 -3.95915 0.555973 0
M  V30 18306 H 1690.47 -4.21598 -0.450644 0
M  V30 18307 C 1688.93 -3.06722 -1.39366 0
M  V30 18308 O 1689.46 -3.15239 -2.48973 0
M  V30 18309 N 1687.67 -2.61609 -1.26528 0
M  V30 18310 H 1687.22 -2.54879 -0.373449 0
M  V30 18311 H 1687.17 -2.34809 -2.09074 0
M  V30 18312 N 1690.95 -0.754982 -1.38339 0
M  V30 18313 C 1691.86 -0.130303 -2.34238 0
M  V30 18314 C 1692.87 0.699048 -1.5934 0
M  V30 18315 O 1694.05 0.622876 -1.91526 0
M  V30 18316 C 1691.11 0.751285 -3.38462 0
M  V30 18317 C 1690.17 -0.0925987 -4.292 0
M  V30 18318 C 1689.41 0.747007 -5.28446 0
M  V30 18319 O 1689.63 1.98495 -5.34749 0
M  V30 18320 O 1688.56 0.165072 -6.01674 0
M  V30 18321 H 1692.39 -0.92233 -2.89356 0
M  V30 18322 H 1689.98 -0.515896 -1.4021 0
M  V30 18323 H 1691.86 1.2551 -4.02275 0
M  V30 18324 H 1690.53 1.52178 -2.85698 0
M  V30 18325 H 1689.44 -0.64239 -3.68543 0
M  V30 18326 H 1690.77 -0.825784 -4.85223 0
M  V30 18327 N 1692.42 1.49318 -0.504168 0
M  V30 18328 C 1693.36 2.27103 0.309327 0
M  V30 18329 C 1694.37 1.33776 0.927781 0
M  V30 18330 O 1695.56 1.59034 0.810585 0
M  V30 18331 C 1692.66 3.06277 1.45078 0
M  V30 18332 C 1691.83 4.27201 0.939045 0
M  V30 18333 C 1690.89 4.88395 1.95849 0
M  V30 18334 O 1689.92 5.4837 1.52576 0
M  V30 18335 N 1691.12 4.78328 3.28911 0
M  V30 18336 H 1693.88 2.97558 -0.35767 0
M  V30 18337 H 1691.44 1.58356 -0.336907 0
M  V30 18338 H 1693.44 3.44088 2.13038 0
M  V30 18339 H 1692.01 2.38409 2.02188 0
M  V30 18340 H 1691.23 3.9411 0.0842433 0
M  V30 18341 H 1692.51 5.05534 0.575603 0
M  V30 18342 H 1691.91 4.30707 3.66753 0
M  V30 18343 H 1690.47 5.20315 3.92576 0
M  V30 18344 N 1693.9 0.238138 1.5579 0
M  V30 18345 C 1695.15 -0.389608 1.99022 0
M  V30 18346 C 1695.48 -1.58226 1.12597 0
M  V30 18347 O 1694.76 -1.93595 0.187363 0
M  V30 18348 C 1695.04 -0.808025 3.50917 0
M  V30 18349 C 1694.89 0.389417 4.48111 0
M  V30 18350 C 1696.21 -1.6582 4.07666 0
M  V30 18351 H 1693.33 -0.140141 0.723553 0
M  V30 18352 H 1695.97 0.337696 1.86975 0
M  V30 18353 H 1694.12 -1.42772 3.61315 0
M  V30 18354 H 1695.79 1.02777 4.49705 0
M  V30 18355 H 1694.04 1.03404 4.21296 0
M  V30 18356 H 1694.71 0.0534549 5.51974 0
M  V30 18357 H 1697.18 -1.13518 4.00316 0
M  V30 18358 H 1696.06 -1.91984 5.14231 0
M  V30 18359 H 1696.32 -2.62712 3.55577 0
M  V30 18360 N 1695.38 -1.57561 -0.0350783 0
M  V30 18361 C 1696.66 -1.8014 -0.76217 0
M  V30 18362 C 1697.04 -0.834754 -1.93894 0
M  V30 18363 O 1696.39 0.124387 -2.28161 0
M  V30 18364 C 1696.6 -3.2769 -1.20084 0
M  V30 18365 C 1697.94 -3.92513 -1.61923 0
M  V30 18366 O 1698.97 -3.31803 -1.29558 0
M  V30 18367 O 1697.83 -4.9939 -2.21972 0
M  V30 18368 H 1694.92 -0.740572 -0.368078 0
M  V30 18369 H 1697.47 -1.69696 -0.0123195 0
M  V30 18370 H 1696.24 -3.89636 -0.3605 0
M  V30 18371 H 1695.86 -3.43 -2.01089 0
M  V30 18372 N 1696.86 0.307236 -1.54576 0
M  V30 18373 C 1697.81 1.3787 -1.85096 0
M  V30 18374 C 1698.78 1.5066 -0.69935 0
M  V30 18375 O 1699.96 1.65618 -0.947373 0
M  V30 18376 C 1697.1 2.73976 -2.09836 0
M  V30 18377 C 1696.21 2.69687 -3.3748 0
M  V30 18378 C 1695.35 3.97746 -3.52096 0
M  V30 18379 C 1694.39 3.87829 -4.73556 0
M  V30 18380 N 1693.52 5.07651 -4.8501 0
M  V30 18381 H 1698.36 1.11144 -2.76498 0
M  V30 18382 H 1695.9 0.537696 -1.36921 0
M  V30 18383 H 1697.86 3.53121 -2.22174 0
M  V30 18384 H 1696.49 2.98977 -1.21707 0
M  V30 18385 H 1695.54 1.82441 -3.33795 0
M  V30 18386 H 1696.85 2.58247 -4.26743 0
M  V30 18387 H 1696.01 4.85327 -3.64065 0
M  V30 18388 H 1694.75 4.12012 -2.60955 0
M  V30 18389 H 1693.75 2.98633 -4.61626 0
M  V30 18390 H 1694.98 3.75114 -5.66098 0
M  V30 18391 H 1692.92 5.22393 -3.9679 0
M  V30 18392 H 1692.84 4.9861 -5.68264 0
M  V30 18393 H 1694.11 5.969 -5.01328 0
M  V30 18394 N 1698.34 1.46926 0.570122 0
M  V30 18395 C 1699.27 1.61311 1.68822 0
M  V30 18396 C 1700.25 0.462964 1.63678 0
M  V30 18397 O 1701.43 0.690745 1.815 0
M  V30 18398 C 1698.56 1.61499 3.07466 0
M  V30 18399 C 1697.52 2.7561 3.27449 0
M  V30 18400 C 1696.84 2.60865 4.66748 0
M  V30 18401 C 1698.14 4.17324 3.14067 0
M  V30 18402 H 1699.84 2.54909 1.5704 0
M  V30 18403 H 1697.38 1.22677 0.754077 0
M  V30 18404 H 1699.34 1.70155 3.8552 0
M  V30 18405 H 1698.06 0.64453 3.20177 0
M  V30 18406 H 1696.72 2.66444 2.51799 0
M  V30 18407 H 1696.37 1.61875 4.76241 0
M  V30 18408 H 1696.07 3.37411 4.81069 0
M  V30 18409 H 1697.59 2.7143 5.46954 0
M  V30 18410 H 1699 4.27534 3.81952 0
M  V30 18411 H 1697.4 4.94555 3.39905 0
M  V30 18412 H 1698.47 4.36596 2.10979 0
M  V30 18413 N 1699.82 -0.815801 1.34842 0
M  V30 18414 C 1701.06 -1.57474 1.27788 0
M  V30 18415 C 1701.39 -1.9362 -0.149956 0
M  V30 18416 O 1700.67 -1.60605 -1.0971 0
M  V30 18417 C 1700.95 -2.86952 2.17556 0
M  V30 18418 C 1700.81 -2.5734 3.68912 0
M  V30 18419 C 1702.12 -3.88582 2.0662 0
M  V30 18420 H 1699.24 -0.57135 0.465541 0
M  V30 18421 H 1701.89 -0.939271 1.6516 0
M  V30 18422 H 1700.04 -3.41182 1.85815 0
M  V30 18423 H 1701.71 -2.09365 4.11052 0
M  V30 18424 H 1699.95 -1.90674 3.89648 0
M  V30 18425 H 1700.62 -3.49702 4.27098 0
M  V30 18426 H 1703.1 -3.43726 2.34503 0
M  V30 18427 H 1701.97 -4.7697 2.71644 0
M  V30 18428 H 1702.23 -4.29564 1.04532 0
M  V30 18429 N 1701.29 -1.18689 -1.03686 0
M  V30 18430 C 1702.52 -1.01024 -1.81132 0
M  V30 18431 C 1702.94 0.436584 -1.82963 0
M  V30 18432 O 1702.3 1.31343 -1.24975 0
M  V30 18433 C 1702.35 -1.5742 -3.24424 0
M  V30 18434 O 1701.45 -0.79813 -4.04603 0
M  V30 18435 H 1700.79 -0.357623 -0.559465 0
M  V30 18436 H 1703.32 -1.57532 -1.30556 0
M  V30 18437 H 1703.33 -1.60295 -3.75193 0
M  V30 18438 H 1702.01 -2.6273 -3.22406 0
M  V30 18439 H 1700.59 -0.842 -3.6327 0
M  V30 18440 N 1702.77 1.22662 -0.989529 0
M  V30 18441 C 1703.73 2.22695 -0.542183 0
M  V30 18442 C 1704.73 1.56411 0.373132 0
M  V30 18443 O 1705.92 1.73412 0.165556 0
M  V30 18444 C 1703.06 3.40241 0.211841 0
M  V30 18445 H 1704.25 2.63786 -1.42678 0
M  V30 18446 H 1701.8 1.35654 -0.776377 0
M  V30 18447 H 1702.54 3.04618 1.11257 0
M  V30 18448 H 1702.32 3.89563 -0.445319 0
M  V30 18449 H 1703.81 4.14436 0.513107 0
M  V30 18450 N 1704.25 0.762308 1.37937 0
M  V30 18451 C 1705.5 0.321732 1.99523 0
M  V30 18452 C 1705.82 -1.10286 1.60816 0
M  V30 18453 O 1705.09 -1.75565 0.869117 0
M  V30 18454 H 1703.67 0.115967 0.737943 0
M  V30 18455 H 1706.33 0.978339 1.68566 0
M  V30 18456 H 1705.43 0.391818 3.09631 0
M  V30 18457 N 1705.73 -1.49049 0.51208 0
M  V30 18458 C 1706.98 -2.01677 -0.0303931 0
M  V30 18459 C 1707.29 -1.39594 -1.37014 0
M  V30 18460 O 1708.5 -1.83615 -1.99994 0
M  V30 18461 C 1706.95 -3.59748 -0.104605 0
M  V30 18462 C 1706.56 -4.30808 1.22916 0
M  V30 18463 C 1708.3 -4.20283 -0.596854 0
M  V30 18464 C 1706.21 -5.80765 1.11651 0
M  V30 18465 H 1705.14 -0.753848 -0.015131 0
M  V30 18466 H 1707.79 -1.71482 0.653169 0
M  V30 18467 H 1706.17 -3.86707 -0.852859 0
M  V30 18468 H 1707.35 -4.15539 1.99158 0
M  V30 18469 H 1705.66 -3.82066 1.65573 0
M  V30 18470 H 1708.26 -5.30114 -0.698821 0
M  V30 18471 H 1708.6 -3.84392 -1.59838 0
M  V30 18472 H 1709.14 -3.97686 0.0951882 0
M  V30 18473 H 1705.87 -6.212 2.09264 0
M  V30 18474 H 1705.39 -5.98497 0.395167 0
M  V30 18475 H 1707.07 -6.42038 0.799782 0
M  V30 18476 N 1707.21 -0.246397 -1.55662 0
M  V30 18477 C 1708.62 0.108465 -1.59231 0
M  V30 18478 C 1708.82 1.56961 -1.26354 0
M  V30 18479 O 1707.88 2.31393 -1.01062 0
M  V30 18480 C 1709.19 -0.240265 -2.99739 0
M  V30 18481 C 1710.74 -0.184523 -3.12456 0
M  V30 18482 C 1711.21 -0.507279 -4.55182 0
M  V30 18483 N 1712.7 -0.457761 -4.60933 0
M  V30 18484 C 1713.44 -0.680664 -5.69346 0
M  V30 18485 N 1712.94 -0.966667 -6.86023 0
M  V30 18486 N 1714.73 -0.611405 -5.58765 0
M  V30 18487 H 1706.88 -1.19928 -1.75303 0
M  V30 18488 H 1709.14 -0.482503 -0.816024 0
M  V30 18489 H 1708.85 -1.25535 -3.28533 0
M  V30 18490 H 1708.72 0.432872 -3.74708 0
M  V30 18491 H 1711.11 0.821232 -2.83443 0
M  V30 18492 H 1711.19 -0.891504 -2.39762 0
M  V30 18493 H 1710.83 -1.51059 -4.84916 0
M  V30 18494 H 1710.76 0.221174 -5.26135 0
M  V30 18495 H 1713.26 -0.245414 -3.77102 0
M  V30 18496 H 1713.57 -1.12419 -7.6458 0
M  V30 18497 H 1711.91 -1.00413 -6.87708 0
M  V30 18498 H 1715.1 -0.388018 -4.66489 0
M  V30 18499 H 1715.28 -0.788519 -6.43185 0
M  V30 18500 N 1708.68 1.57577 0.026722 0
M  V30 18501 C 1709.63 2.06711 1.02661 0
M  V30 18502 C 1710.6 0.956754 1.35777 0
M  V30 18503 O 1711.79 1.22747 1.46074 0
M  V30 18504 C 1708.93 2.55321 2.32175 0
M  V30 18505 C 1708.04 3.80155 2.05197 0
M  V30 18506 C 1707.17 4.17368 3.28599 0
M  V30 18507 C 1706.21 5.35114 2.97186 0
M  V30 18508 N 1705.35 5.67747 4.13046 0
M  V30 18509 H 1710.19 2.91884 0.600666 0
M  V30 18510 H 1707.73 1.44313 0.284968 0
M  V30 18511 H 1709.68 2.81572 3.07853 0
M  V30 18512 H 1708.31 1.73061 2.72488 0
M  V30 18513 H 1707.37 3.60975 1.20006 0
M  V30 18514 H 1708.68 4.65949 1.78026 0
M  V30 18515 H 1707.83 4.4476 4.12642 0
M  V30 18516 H 1706.57 3.30231 3.58886 0
M  V30 18517 H 1705.58 5.07473 2.11545 0
M  V30 18518 H 1706.8 6.23906 2.68175 0
M  V30 18519 H 1704.75 4.83569 4.4328 0
M  V30 18520 H 1704.66 6.48056 3.89307 0
M  V30 18521 H 1705.93 5.99717 4.97956 0
M  V30 18522 N 1710.16 -0.299034 1.54737 0
M  V30 18523 C 1711.41 -1.03164 1.7332 0
M  V30 18524 C 1711.72 -1.88362 0.527184 0
M  V30 18525 O 1712.93 -2.64903 0.594868 0
M  V30 18526 C 1711.39 -1.88391 3.06654 0
M  V30 18527 C 1710.99 -1.08187 4.34741 0
M  V30 18528 C 1712.74 -2.6124 3.34595 0
M  V30 18529 C 1710.64 -1.92702 5.59124 0
M  V30 18530 H 1709.57 -0.388887 0.645975 0
M  V30 18531 H 1712.23 -0.288544 1.81217 0
M  V30 18532 H 1710.61 -2.66696 2.92727 0
M  V30 18533 H 1711.78 -0.344817 4.59508 0
M  V30 18534 H 1710.1 -0.469118 4.13749 0
M  V30 18535 H 1712.69 -3.24826 4.24726 0
M  V30 18536 H 1713.04 -3.30172 2.53559 0
M  V30 18537 H 1713.57 -1.89982 3.49502 0
M  V30 18538 H 1710.31 -1.28236 6.42834 0
M  V30 18539 H 1709.83 -2.64074 5.38539 0
M  V30 18540 H 1711.51 -2.50702 5.96454 0
M  V30 18541 N 1711.64 -1.47227 -0.562322 0
M  V30 18542 C 1712.57 -1.62204 -1.67965 0
M  V30 18543 C 1713.55 -0.471638 -1.63431 0
M  V30 18544 O 1714.74 -0.70036 -1.81131 0
M  V30 18545 C 1711.87 -1.63127 -3.06605 0
M  V30 18546 C 1710.82 -2.77343 -3.25983 0
M  V30 18547 C 1710.15 -2.63336 -4.65358 0
M  V30 18548 C 1711.45 -4.18983 -3.1185 0
M  V30 18549 H 1713.14 -2.55739 -1.55686 0
M  V30 18550 H 1710.69 -1.23075 -0.747561 0
M  V30 18551 H 1712.64 -1.72197 -3.84612 0
M  V30 18552 H 1711.36 -0.661501 -3.19831 0
M  V30 18553 H 1710.02 -2.67776 -2.50383 0
M  V30 18554 H 1709.67 -1.64398 -4.75376 0
M  V30 18555 H 1709.37 -3.39957 -4.79273 0
M  V30 18556 H 1710.89 -2.74327 -5.45506 0
M  V30 18557 H 1712.31 -4.29554 -3.79679 0
M  V30 18558 H 1710.7 -4.96351 -3.37277 0
M  V30 18559 H 1711.77 -4.37709 -2.08661 0
M  V30 18560 N 1713.12 0.808639 -1.35273 0
M  V30 18561 C 1714.36 1.56562 -1.28431 0
M  V30 18562 C 1714.69 1.93982 0.141842 0
M  V30 18563 O 1713.95 1.61409 1.10661 0
M  V30 18564 C 1714.25 2.86667 -2.1344 0
M  V30 18565 C 1713.91 2.68475 -3.6226 0
M  V30 18566 C 1712.57 2.63221 -4.02825 0
M  V30 18567 C 1714.93 2.51151 -4.56698 0
M  V30 18568 C 1712.25 2.38583 -5.35999 0
M  V30 18569 C 1714.61 2.28043 -5.90067 0
M  V30 18570 C 1713.27 2.2121 -6.2978 0
M  V30 18571 H 1712.54 0.572902 -0.469963 0
M  V30 18572 H 1715.19 0.934504 -1.6715 0
M  V30 18573 H 1713.49 3.54146 -1.67595 0
M  V30 18574 H 1715.19 3.44351 -2.05483 0
M  V30 18575 H 1711.78 2.7341 -3.30068 0
M  V30 18576 H 1715.96 2.54223 -4.26244 0
M  V30 18577 H 1711.22 2.31761 -5.65771 0
M  V30 18578 H 1715.39 2.13628 -6.62824 0
M  V30 18579 H 1713.02 2.01881 -7.32904 0
M  V30 18580 N 1714.6 1.19237 1.03055 0
M  V30 18581 C 1715.53 0.95226 2.132 0
M  V30 18582 C 1716.51 -0.113771 1.69719 0
M  V30 18583 O 1717.69 0.0409057 1.94157 0
M  V30 18584 C 1714.82 0.488296 3.4385 0
M  V30 18585 C 1713.78 1.49597 4.01005 0
M  V30 18586 C 1713.1 0.889148 5.27255 0
M  V30 18587 C 1714.4 2.87571 4.36005 0
M  V30 18588 H 1716.1 1.87343 2.33544 0
M  V30 18589 H 1713.64 0.902172 1.12236 0
M  V30 18590 H 1715.6 0.307623 4.20276 0
M  V30 18591 H 1714.32 -0.468469 3.23223 0
M  V30 18592 H 1712.98 1.66376 3.26672 0
M  V30 18593 H 1712.63 -0.0751191 5.02944 0
M  V30 18594 H 1712.33 1.56202 5.66458 0
M  V30 18595 H 1713.85 0.719233 6.06349 0
M  V30 18596 H 1715.26 2.74384 5.03375 0
M  V30 18597 H 1713.66 3.51635 4.86285 0
M  V30 18598 H 1714.73 3.40353 3.45381 0
M  V30 18599 N 1716.07 -1.22136 0.99602 0
M  V30 18600 C 1717.35 -1.86506 0.589466 0
M  V30 18601 C 1717.73 -1.89355 -0.933159 0
M  V30 18602 O 1717.08 -1.38634 -1.8164 0
M  V30 18603 C 1717.29 -3.27224 1.21349 0
M  V30 18604 C 1718.64 -4.03692 1.31597 0
M  V30 18605 O 1719.66 -3.36502 1.16812 0
M  V30 18606 O 1718.52 -5.23973 1.55289 0
M  V30 18607 H 1715.61 -0.802279 0.200692 0
M  V30 18608 H 1718.16 -1.2989 1.0921 0
M  V30 18609 H 1716.93 -3.19802 2.25483 0
M  V30 18610 H 1716.56 -3.91449 0.696645 0
M  V30 18611 N 1717.55 -0.769612 -1.37531 0
M  V30 18612 C 1718.8 -0.332309 -1.99349 0
M  V30 18613 C 1719.12 1.09432 -1.61399 0
M  V30 18614 O 1718.39 1.75102 -0.878415 0
M  V30 18615 H 1716.97 -0.119879 -0.737318 0
M  V30 18616 H 1719.63 -0.987265 -1.68045 0
M  V30 18617 H 1718.73 -0.408233 -3.09419 0
M  V30 18618 N 1719.03 1.48775 -0.519977 0
M  V30 18619 C 1720.28 2.0169 0.0196973 0
M  V30 18620 C 1720.59 1.40319 1.36272 0
M  V30 18621 O 1721.8 1.84673 1.99018 0
M  V30 18622 C 1720.25 3.59798 0.085525 0
M  V30 18623 C 1719.86 4.3015 -1.25199 0
M  V30 18624 C 1721.61 4.20594 0.574557 0
M  V30 18625 C 1719.51 5.80165 -1.14729 0
M  V30 18626 H 1718.44 0.753918 0.011133 0
M  V30 18627 H 1721.09 1.71133 -0.662254 0
M  V30 18628 H 1719.48 3.87154 0.832339 0
M  V30 18629 H 1720.65 4.14477 -2.01359 0
M  V30 18630 H 1718.97 3.81183 -1.67596 0
M  V30 18631 H 1721.56 5.30477 0.670698 0
M  V30 18632 H 1721.91 3.85235 1.57797 0
M  V30 18633 H 1722.44 3.9763 -0.116277 0
M  V30 18634 H 1719.18 6.20081 -2.12555 0
M  V30 18635 H 1718.7 5.98279 -0.426902 0
M  V30 18636 H 1720.38 6.41605 -0.83382 0
M  V30 18637 N 1720.51 0.254649 1.55529 0
M  V30 18638 C 1721.79 -0.418663 1.91067 0
M  V30 18639 C 1722.17 -1.75284 1.17638 0
M  V30 18640 O 1721.51 -2.26569 0.296411 0
M  V30 18641 C 1721.72 -0.579125 3.44162 0
M  V30 18642 C 1723.07 -0.871451 4.15561 0
M  V30 18643 O 1724.1 -0.664702 3.49943 0
M  V30 18644 O 1722.95 -1.26563 5.31643 0
M  V30 18645 H 1720.05 -0.22593 0.795541 0
M  V30 18646 H 1722.59 0.299288 1.6704 0
M  V30 18647 H 1721.37 0.36062 3.89635 0
M  V30 18648 H 1720.99 -1.34732 3.74076 0
M  V30 18649 N 1721.99 -1.57589 -0.0183649 0
M  V30 18650 C 1722.93 -2.07252 -1.01563 0
M  V30 18651 C 1723.9 -0.963941 -1.35268 0
M  V30 18652 O 1725.09 -1.2352 -1.45421 0
M  V30 18653 C 1722.23 -2.56548 -2.30818 0
M  V30 18654 C 1721.34 -3.81238 -2.03178 0
M  V30 18655 C 1720.48 -4.19105 -3.26381 0
M  V30 18656 C 1719.52 -5.36682 -2.94344 0
M  V30 18657 N 1718.65 -5.6993 -4.1003 0
M  V30 18658 H 1723.49 -2.92198 -0.585179 0
M  V30 18659 H 1721.03 -1.44462 -0.27731 0
M  V30 18660 H 1722.99 -2.832 -3.06355 0
M  V30 18661 H 1721.62 -1.74504 -2.71566 0
M  V30 18662 H 1720.67 -3.61606 -1.1809 0
M  V30 18663 H 1721.98 -4.66886 -1.75552 0
M  V30 18664 H 1721.14 -4.46942 -4.10278 0
M  V30 18665 H 1719.87 -3.32129 -3.57129 0
M  V30 18666 H 1718.88 -5.08587 -2.08851 0
M  V30 18667 H 1720.1 -6.2532 -2.64862 0
M  V30 18668 H 1718.05 -4.85913 -4.40709 0
M  V30 18669 H 1717.97 -6.50111 -3.85865 0
M  V30 18670 H 1719.24 -6.02349 -4.94768 0
M  V30 18671 N 1723.46 0.290824 -1.54893 0
M  V30 18672 C 1724.43 1.34215 -1.85793 0
M  V30 18673 C 1725.43 1.43204 -0.731393 0
M  V30 18674 O 1726.62 1.42663 -0.999647 0
M  V30 18675 C 1723.75 2.72577 -2.0473 0
M  V30 18676 H 1724.94 1.08056 -2.79757 0
M  V30 18677 H 1722.5 0.528008 -1.47111 0
M  V30 18678 H 1723.23 3.03943 -1.13088 0
M  V30 18679 H 1723.02 2.67442 -2.86736 0
M  V30 18680 H 1724.51 3.48573 -2.29971 0
M  V30 18681 N 1724.94 1.47523 0.554506 0
M  V30 18682 C 1725.87 1.56275 1.67663 0
M  V30 18683 C 1726.89 0.448743 1.56493 0
M  V30 18684 O 1728.08 0.718478 1.63402 0
M  V30 18685 C 1725.18 1.45348 3.06149 0
M  V30 18686 C 1724.35 2.71364 3.43046 0
M  V30 18687 C 1723.41 2.54237 4.60706 0
M  V30 18688 O 1722.43 3.28059 4.65152 0
M  V30 18689 N 1723.64 1.6224 5.57367 0
M  V30 18690 H 1726.4 2.53036 1.60601 0
M  V30 18691 H 1723.96 1.43936 0.741209 0
M  V30 18692 H 1725.95 1.31621 3.82698 0
M  V30 18693 H 1724.52 0.566583 3.07423 0
M  V30 18694 H 1723.74 2.99833 2.55917 0
M  V30 18695 H 1725.03 3.55017 3.64473 0
M  V30 18696 H 1724.43 1.01419 5.56534 0
M  V30 18697 H 1722.99 1.54463 6.33233 0
M  V30 18698 N 1726.42 -0.801453 1.357 0
M  V30 18699 C 1727.33 -1.94505 1.31167 0
M  V30 18700 C 1728.35 -1.72657 0.215747 0
M  V30 18701 O 1729.52 -1.96399 0.446022 0
M  V30 18702 C 1726.59 -3.29175 1.08834 0
M  V30 18703 C 1725.65 -3.63883 2.27788 0
M  V30 18704 C 1724.88 -4.92127 2.06511 0
M  V30 18705 O 1725.1 -5.60947 1.03416 0
M  V30 18706 O 1724.04 -5.25213 2.93998 0
M  V30 18707 H 1727.86 -2.01277 2.27423 0
M  V30 18708 H 1725.45 -0.939979 1.16124 0
M  V30 18709 H 1727.33 -4.09787 0.98248 0
M  V30 18710 H 1726.01 -3.23322 0.156326 0
M  V30 18711 H 1724.91 -2.83627 2.4394 0
M  V30 18712 H 1726.25 -3.74446 3.19454 0
M  V30 18713 N 1727.9 -1.19782 -1.02421 0
M  V30 18714 C 1728.81 -0.955253 -2.14271 0
M  V30 18715 C 1729.82 0.0863233 -1.73786 0
M  V30 18716 O 1731 -0.0993878 -2.01155 0
M  V30 18717 C 1728.07 -0.502219 -3.43043 0
M  V30 18718 C 1727.13 -1.61374 -3.97815 0
M  V30 18719 C 1726.36 -1.18223 -5.20441 0
M  V30 18720 O 1726.58 -0.0477334 -5.7038 0
M  V30 18721 O 1725.52 -1.98664 -5.68169 0
M  V30 18722 H 1729.34 -1.89157 -2.37599 0
M  V30 18723 H 1726.93 -0.981035 -1.12677 0
M  V30 18724 H 1728.81 -0.258445 -4.20607 0
M  V30 18725 H 1727.48 0.4056 -3.21149 0
M  V30 18726 H 1726.39 -1.91172 -3.21565 0
M  V30 18727 H 1727.72 -2.49829 -4.24083 0
M  V30 18728 N 1729.38 1.21606 -1.00248 0
M  V30 18729 C 1730.33 2.21711 -0.531824 0
M  V30 18730 C 1731.31 1.55714 0.405201 0
M  V30 18731 O 1732.5 1.75493 0.230462 0
M  V30 18732 C 1729.63 3.43003 0.142686 0
M  V30 18733 C 1728.72 4.16191 -0.815209 0
M  V30 18734 N 1729.11 4.65986 -1.967 0
M  V30 18735 C 1727.41 4.41484 -0.633069 0
M  V30 18736 C 1728.11 5.21897 -2.56901 0
M  V30 18737 N 1727.08 5.11121 -1.85084 0
M  V30 18738 H 1730.89 2.57862 -1.41013 0
M  V30 18739 H 1728.4 1.37385 -0.86598 0
M  V30 18740 H 1730.4 4.13923 0.497322 0
M  V30 18741 H 1729.06 3.08362 1.01701 0
M  V30 18742 H 1730.07 4.61644 -2.34746 0
M  V30 18743 H 1726.75 4.17047 0.194381 0
M  V30 18744 H 1728.14 5.70898 -3.54296 0
M  V30 18745 N 1730.86 0.776895 1.37121 0
M  V30 18746 C 1731.77 0.167552 2.34001 0
M  V30 18747 C 1732.78 -0.673609 1.60432 0
M  V30 18748 O 1733.96 -0.592327 1.92493 0
M  V30 18749 C 1731.02 -0.697343 3.39615 0
M  V30 18750 C 1730.08 0.160869 4.28998 0
M  V30 18751 C 1729.32 -0.662841 5.29568 0
M  V30 18752 O 1729.54 -1.89962 5.37839 0
M  V30 18753 O 1728.47 -0.0693304 6.0186 0
M  V30 18754 H 1732.3 0.968247 2.87852 0
M  V30 18755 H 1729.88 0.538137 1.39372 0
M  V30 18756 H 1731.77 -1.19094 4.04221 0
M  V30 18757 H 1730.44 -1.47614 2.88083 0
M  V30 18758 H 1729.35 0.700941 3.67475 0
M  V30 18759 H 1730.68 0.902875 4.83848 0
M  V30 18760 N 1732.33 -1.48497 0.527859 0
M  V30 18761 C 1733.28 -2.2959 -0.23607 0
M  V30 18762 C 1734.25 -1.37232 -0.935762 0
M  V30 18763 O 1735.44 -1.66196 -0.937202 0
M  V30 18764 C 1732.58 -3.20551 -1.27832 0
M  V30 18765 C 1731.69 -4.27984 -0.58769 0
M  V30 18766 C 1730.82 -5.06128 -1.61269 0
M  V30 18767 C 1729.86 -6.05367 -0.905404 0
M  V30 18768 N 1729 -6.76577 -1.87585 0
M  V30 18769 H 1733.84 -2.94403 0.461635 0
M  V30 18770 H 1731.38 -1.45137 0.239493 0
M  V30 18771 H 1733.33 -3.71686 -1.89488 0
M  V30 18772 H 1731.96 -2.57665 -1.94444 0
M  V30 18773 H 1731.02 -3.80132 0.142759 0
M  V30 18774 H 1732.33 -4.9879 -0.0322348 0
M  V30 18775 H 1731.48 -5.61266 -2.30359 0
M  V30 18776 H 1730.22 -4.35157 -2.20204 0
M  V30 18777 H 1729.23 -5.49435 -0.200426 0
M  V30 18778 H 1730.45 -6.78335 -0.322197 0
M  V30 18779 H 1728.4 -6.08358 -2.45432 0
M  V30 18780 H 1728.31 -7.4345 -1.37178 0
M  V30 18781 H 1729.58 -7.36305 -2.5588 0
M  V30 18782 N 1733.81 -0.262893 -1.55392 0
M  V30 18783 C 1735.04 0.360534 -2.0343 0
M  V30 18784 C 1735.45 1.50917 -1.14108 0
M  V30 18785 O 1734.79 1.83077 -0.15118 0
M  V30 18786 C 1734.85 0.91519 -3.47656 0
M  V30 18787 C 1734.52 -0.103245 -4.56883 0
M  V30 18788 C 1735.52 -0.918464 -5.11723 0
M  V30 18789 C 1733.2 -0.233956 -5.01755 0
M  V30 18790 C 1735.19 -1.8507 -6.09941 0
M  V30 18791 C 1732.88 -1.16968 -5.99801 0
M  V30 18792 C 1733.88 -1.97656 -6.53774 0
M  V30 18793 O 1733.57 -2.89648 -7.49906 0
M  V30 18794 H 1733.3 0.0879049 -0.67026 0
M  V30 18795 H 1735.85 -0.389114 -2.01681 0
M  V30 18796 H 1734.08 1.71469 -3.46605 0
M  V30 18797 H 1735.77 1.4504 -3.79102 0
M  V30 18798 H 1736.54 -0.828152 -4.77877 0
M  V30 18799 H 1732.42 0.384057 -4.59397 0
M  V30 18800 H 1735.96 -2.48091 -6.51994 0
M  V30 18801 H 1731.86 -1.26085 -6.33066 0
M  V30 18802 H 1732.63 -2.84191 -7.67579 0
M  V30 18803 N 1735.29 1.57597 0.0100073 0
M  V30 18804 C 1736.24 2.04265 1.01292 0
M  V30 18805 C 1737.22 0.93547 1.30911 0
M  V30 18806 O 1738.42 1.19929 1.30177 0
M  V30 18807 C 1735.54 2.54129 2.3081 0
M  V30 18808 C 1734.63 3.71704 2.04198 0
M  V30 18809 N 1735.02 4.83752 1.47709 0
M  V30 18810 C 1733.32 3.79443 2.34391 0
M  V30 18811 C 1734.02 5.65255 1.37339 0
M  V30 18812 N 1733 5.1095 1.85556 0
M  V30 18813 H 1736.8 2.8831 0.570489 0
M  V30 18814 H 1734.31 1.60958 0.215919 0
M  V30 18815 H 1736.31 2.85832 3.03489 0
M  V30 18816 H 1734.97 1.71497 2.75715 0
M  V30 18817 H 1735.98 5.04805 1.15723 0
M  V30 18818 H 1732.66 3.07648 2.82239 0
M  V30 18819 H 1734.05 6.65293 0.939918 0
M  V30 18820 N 1736.77 -0.282606 1.55045 0
M  V30 18821 C 1737.99 -1.03825 1.79542 0
M  V30 18822 C 1738.42 -1.79503 0.562165 0
M  V30 18823 O 1737.78 -1.7461 -0.487946 0
M  V30 18824 C 1737.82 -1.98007 3.01373 0
M  V30 18825 O 1736.93 -3.06621 2.75785 0
M  V30 18826 H 1736.27 -0.297333 0.593708 0
M  V30 18827 H 1738.8 -0.314434 2.02169 0
M  V30 18828 H 1738.81 -2.40138 3.29845 0
M  V30 18829 H 1737.48 -1.42335 3.90786 0
M  V30 18830 H 1736.06 -2.68874 2.58382 0
M  V30 18831 N 1738.25 -1.47815 -0.546675 0
M  V30 18832 C 1739.19 -1.61513 -1.67381 0
M  V30 18833 C 1740.19 -0.482064 -1.62396 0
M  V30 18834 O 1741.39 -0.660227 -1.67454 0
M  V30 18835 H 1737.77 -0.508484 -0.554029 0
M  V30 18836 H 1739.74 -2.5621 -1.52967 0
M  V30 18837 C 1738.49 -1.65645 -3.05707 0
M  V30 18838 H 1737.81 -2.52186 -3.10229 0
M  V30 18839 H 1739.25 -1.79277 -3.84234 0
M  V30 18840 C 1737.71 -0.391799 -3.34614 0
M  V30 18841 O 1738.24 0.502576 -3.98544 0
M  V30 18842 N 1736.45 -0.268593 -2.89356 0
M  V30 18843 H 1735.99 -0.997347 -2.37509 0
M  V30 18844 H 1735.95 0.5766 -3.09067 0
M  V30 18845 N 1739.72 0.794246 -1.36123 0
M  V30 18846 C 1740.97 1.55357 -1.31285 0
M  V30 18847 C 1741.32 1.92094 0.108426 0
M  V30 18848 O 1740.62 1.59486 1.06182 0
M  V30 18849 C 1740.81 2.84387 -2.16469 0
M  V30 18850 C 1740.64 2.60259 -3.66736 0
M  V30 18851 C 1739.41 2.55525 -4.3593 0
M  V30 18852 C 1741.61 2.29787 -4.60111 0
M  V30 18853 N 1739.59 2.23243 -5.7187 0
M  V30 18854 C 1740.96 2.07452 -5.84263 0
M  V30 18855 C 1743.02 2.15753 -4.48726 0
M  V30 18856 C 1741.72 1.72503 -6.98309 0
M  V30 18857 C 1743.75 1.82202 -5.62633 0
M  V30 18858 C 1743.11 1.60711 -6.85822 0
M  V30 18859 H 1739.21 0.569714 -0.535677 0
M  V30 18860 H 1741.79 0.928621 -1.71128 0
M  V30 18861 H 1739.96 3.44757 -1.78878 0
M  V30 18862 H 1741.69 3.50072 -2.03056 0
M  V30 18863 H 1738.45 2.70603 -3.88678 0
M  V30 18864 H 1738.87 2.09862 -6.43651 0
M  V30 18865 H 1743.51 2.31061 -3.54077 0
M  V30 18866 H 1741.23 1.55933 -7.92913 0
M  V30 18867 H 1744.82 1.72034 -5.55784 0
M  V30 18868 H 1743.7 1.35131 -7.7247 0
M  V30 18869 N 1741.2 1.20323 1.01785 0
M  V30 18870 C 1742.62 0.957818 1.27664 0
M  V30 18871 C 1742.82 -0.363377 1.98196 0
M  V30 18872 O 1741.87 -1.09221 2.27656 0
M  V30 18873 C 1743.19 2.13957 2.11289 0
M  V30 18874 C 1744.73 2.18041 2.2456 0
M  V30 18875 C 1745.21 3.35698 3.11562 0
M  V30 18876 N 1746.7 3.35704 3.1915 0
M  V30 18877 C 1747.44 4.2339 3.86689 0
M  V30 18878 N 1746.93 5.21251 4.56366 0
M  V30 18879 N 1748.72 4.11235 3.832 0
M  V30 18880 H 1740.88 2.05309 0.544242 0
M  V30 18881 H 1743.14 0.898335 0.302817 0
M  V30 18882 H 1742.84 3.09631 1.66798 0
M  V30 18883 H 1742.72 2.11946 3.12024 0
M  V30 18884 H 1745.11 1.22931 2.68276 0
M  V30 18885 H 1745.19 2.24101 1.23338 0
M  V30 18886 H 1744.83 4.31095 2.68551 0
M  V30 18887 H 1744.76 3.26876 4.12868 0
M  V30 18888 H 1747.25 2.64874 2.69537 0
M  V30 18889 H 1747.56 5.84485 5.05566 0
M  V30 18890 H 1745.91 5.25189 4.55195 0
M  V30 18891 H 1749.1 3.34052 3.27913 0
M  V30 18892 H 1749.27 4.79782 4.35561 0
M  V30 18893 N 1742.68 -1.21073 1.00892 0
M  V30 18894 C 1743.64 -2.21804 0.577543 0
M  V30 18895 C 1744.64 -1.56985 -0.348201 0
M  V30 18896 O 1745.83 -1.73653 -0.137947 0
M  V30 18897 C 1742.96 -3.40535 -0.157685 0
M  V30 18898 H 1744.16 -2.61483 1.46856 0
M  V30 18899 H 1741.71 -1.34402 0.79786 0
M  V30 18900 H 1742.45 -3.0635 -1.06397 0
M  V30 18901 H 1742.23 -3.88805 0.507238 0
M  V30 18902 H 1743.72 -4.152 -0.447109 0
M  V30 18903 N 1744.16 -0.784156 -1.36707 0
M  V30 18904 C 1745.09 -0.124956 -2.27858 0
M  V30 18905 C 1746.07 0.695835 -1.46959 0
M  V30 18906 O 1747.25 0.667944 -1.76269 0
M  V30 18907 C 1744.38 0.828816 -3.28403 0
M  V30 18908 C 1743.43 0.0904776 -4.26404 0
M  V30 18909 S 1744.26 -1.23012 -5.2118 0
M  V30 18910 C 1745.42 -0.280212 -6.25272 0
M  V30 18911 H 1745.65 -0.89783 -2.83419 0
M  V30 18912 H 1743.18 -0.578123 -1.43168 0
M  V30 18913 H 1745.14 1.37367 -3.86834 0
M  V30 18914 H 1743.8 1.5749 -2.71764 0
M  V30 18915 H 1742.99 0.813986 -4.97383 0
M  V30 18916 H 1742.6 -0.383737 -3.72026 0
M  V30 18917 H 1744.89 0.542878 -6.75321 0
M  V30 18918 H 1745.83 -0.958538 -7.01582 0
M  V30 18919 H 1746.24 0.114109 -5.64385 0
M  V30 18920 N 1745.64 1.48215 -0.535727 0
M  V30 18921 C 1746.6 2.28206 0.213212 0
M  V30 18922 C 1747.6 1.3571 0.862522 0
M  V30 18923 O 1748.79 1.58547 0.721688 0
M  V30 18924 C 1745.92 3.1476 1.30917 0
M  V30 18925 H 1747.11 2.95884 -0.489163 0
M  V30 18926 H 1744.67 1.53551 -0.291872 0
M  V30 18927 H 1745.4 2.51726 2.04462 0
M  V30 18928 H 1745.19 3.82806 0.848633 0
M  V30 18929 H 1746.68 3.75085 1.83579 0
M  V30 18930 N 1747.11 0.27113 1.5525 0
M  V30 18931 C 1748.34 -0.353138 2.04371 0
M  V30 18932 C 1748.76 -1.48978 1.14835 0
M  V30 18933 O 1748.12 -1.8071 0.146138 0
M  V30 18934 C 1748.17 -0.815425 3.51259 0
M  V30 18935 O 1747.27 -1.92302 3.6482 0
M  V30 18936 H 1746.62 -0.0736207 0.659906 0
M  V30 18937 H 1749.15 0.404266 2.00566 0
M  V30 18938 H 1749.16 -1.11224 3.92547 0
M  V30 18939 H 1747.83 0.0162079 4.15897 0
M  V30 18940 H 1746.41 -1.62904 3.35435 0
M  V30 18941 N 1748.59 -1.576 -0.00164943 0
M  V30 18942 C 1749.87 -1.81716 -0.723788 0
M  V30 18943 C 1750.25 -0.875694 -1.9208 0
M  V30 18944 O 1749.6 0.0759629 -2.28374 0
M  V30 18945 C 1749.81 -3.30164 -1.13106 0
M  V30 18946 C 1751.16 -3.95859 -1.5356 0
M  V30 18947 O 1752.18 -3.34477 -1.2249 0
M  V30 18948 O 1751.04 -5.03986 -2.1133 0
M  V30 18949 H 1748.13 -0.748213 -0.352287 0
M  V30 18950 H 1750.68 -1.69683 0.0236782 0
M  V30 18951 H 1749.45 -3.90313 -0.277771 0
M  V30 18952 H 1749.07 -3.47188 -1.93768 0
M  V30 18953 N 1750.07 0.274379 -1.55193 0
M  V30 18954 C 1751.32 1.00617 -1.75734 0
M  V30 18955 C 1751.65 1.86334 -0.557679 0
M  V30 18956 O 1750.9 1.90221 0.459848 0
M  V30 18957 C 1751.2 1.91958 -3.01475 0
M  V30 18958 C 1750.87 1.22002 -4.34081 0
M  V30 18959 C 1749.53 1.02658 -4.70122 0
M  V30 18960 C 1751.88 0.722087 -5.16174 0
M  V30 18961 C 1749.21 0.322465 -5.85813 0
M  V30 18962 C 1751.56 0.0315683 -6.32592 0
M  V30 18963 C 1750.22 -0.173595 -6.67274 0
M  V30 18964 H 1749.49 0.368182 -0.643058 0
M  V30 18965 H 1752.14 0.278579 -1.89463 0
M  V30 18966 H 1750.45 2.71333 -2.8264 0
M  V30 18967 H 1752.14 2.48698 -3.14564 0
M  V30 18968 H 1748.73 1.3807 -4.05752 0
M  V30 18969 H 1752.92 0.859163 -4.88807 0
M  V30 18970 H 1748.17 0.152775 -6.11209 0
M  V30 18971 H 1752.35 -0.362033 -6.95458 0
M  V30 18972 H 1749.97 -0.721178 -7.56771 0
M  V30 18973 N 1751.55 1.48103 0.538828 0
M  V30 18974 C 1752.5 1.62398 1.66522 0
M  V30 18975 C 1753.49 0.490669 1.62138 0
M  V30 18976 O 1754.7 0.669098 1.67102 0
M  V30 18977 H 1751.07 0.511415 0.551324 0
M  V30 18978 H 1753.04 2.57018 1.51606 0
M  V30 18979 C 1751.79 1.67264 3.04824 0
M  V30 18980 H 1751.11 2.53828 3.08887 0
M  V30 18981 H 1752.55 1.81312 3.83278 0
M  V30 18982 C 1751.01 0.409539 3.34402 0
M  V30 18983 O 1751.54 -0.481433 3.98805 0
M  V30 18984 N 1749.75 0.283934 2.8921 0
M  V30 18985 H 1749.3 1.00993 2.36977 0
M  V30 18986 H 1749.25 -0.560201 3.09369 0
M  V30 18987 N 1753.03 -0.787016 1.36542 0
M  V30 18988 C 1753.96 -1.91399 1.33749 0
M  V30 18989 C 1754.94 -1.68817 0.208559 0
M  V30 18990 O 1756.12 -1.89896 0.406574 0
M  V30 18991 C 1753.25 -3.28457 1.12842 0
M  V30 18992 C 1752.21 -3.65568 2.22585 0
M  V30 18993 C 1751.53 -5.01002 1.86818 0
M  V30 18994 C 1752.83 -3.73902 3.64684 0
M  V30 18995 H 1754.53 -1.93993 2.2805 0
M  V30 18996 H 1752.07 -0.931937 1.09777 0
M  V30 18997 H 1754.03 -4.06919 1.09522 0
M  V30 18998 H 1752.75 -3.26256 0.149918 0
M  V30 18999 H 1751.41 -2.89405 2.25035 0
M  V30 19000 H 1751.06 -4.95325 0.875361 0
M  V30 19001 H 1750.76 -5.26802 2.60294 0
M  V30 19002 H 1752.28 -5.81881 1.85058 0
M  V30 19003 H 1753.69 -4.4255 3.64448 0
M  V30 19004 H 1752.09 -4.11188 4.37086 0
M  V30 19005 H 1753.16 -2.74946 3.99416 0
M  V30 19006 N 1754.5 -1.20861 -1.01145 0
M  V30 19007 C 1755.92 -1.02156 -1.56272 0
M  V30 19008 C 1756.27 0.420552 -1.9164 0
M  V30 19009 O 1755.39 1.30277 -1.72792 0
M  V30 19010 C 1755.99 -1.84812 -2.83954 0
M  V30 19011 C 1754.55 -1.70458 -3.35591 0
M  V30 19012 C 1753.69 -1.82425 -2.08846 0
M  V30 19013 H 1756.64 -1.34978 -0.834669 0
M  V30 19014 H 1756.66 -1.35455 -3.55573 0
M  V30 19015 H 1756.18 -2.89765 -2.58181 0
M  V30 19016 H 1754.28 -0.681631 -3.66312 0
M  V30 19017 H 1754.39 -2.52041 -4.07446 0
M  V30 19018 H 1752.75 -1.25665 -2.21541 0
M  V30 19019 H 1753.54 -2.88872 -1.85493 0
M  V30 19020 N 1755.98 1.20536 -1.01532 0
M  V30 19021 C 1757.39 1.71594 -0.735687 0
M  V30 19022 C 1757.74 1.81469 0.745873 0
M  V30 19023 O 1756.87 1.47638 1.58215 0
M  V30 19024 C 1757.46 3.11654 -1.3288 0
M  V30 19025 C 1756.02 3.60027 -1.09806 0
M  V30 19026 C 1755.17 2.37266 -1.43528 0
M  V30 19027 H 1758.12 1.05568 -1.18495 0
M  V30 19028 H 1758.14 3.7365 -0.718725 0
M  V30 19029 H 1757.65 3.04434 -2.4071 0
M  V30 19030 H 1755.76 3.72581 -0.0373763 0
M  V30 19031 H 1755.87 4.44918 -1.77722 0
M  V30 19032 H 1754.23 2.39947 -0.854268 0
M  V30 19033 H 1755.02 2.32688 -2.5241 0
M  V30 19034 N 1757.46 0.791395 1.36289 0
M  V30 19035 C 1758.71 0.365242 1.99484 0
M  V30 19036 C 1759.04 -1.06087 1.62663 0
M  V30 19037 O 1758.31 -1.73332 0.882396 0
M  V30 19038 C 1758.6 0.531317 3.56159 0
M  V30 19039 C 1758.45 2.00126 4.02827 0
M  V30 19040 C 1759.77 -0.0524248 4.40069 0
M  V30 19041 H 1756.89 0.134183 0.724682 0
M  V30 19042 H 1759.53 0.998102 1.61672 0
M  V30 19043 H 1757.68 -0.0074293 3.88499 0
M  V30 19044 H 1759.35 2.60122 3.80965 0
M  V30 19045 H 1757.6 2.50316 3.54294 0
M  V30 19046 H 1758.27 2.06842 5.11782 0
M  V30 19047 H 1760.74 0.407489 4.141 0
M  V30 19048 H 1759.62 0.0937898 5.4882 0
M  V30 19049 H 1759.88 -1.14472 4.27023 0
M  V30 19050 N 1758.94 -1.47929 0.54358 0
M  V30 19051 C 1760.19 -2.02795 0.014488 0
M  V30 19052 C 1760.52 -1.41848 -1.32638 0
M  V30 19053 O 1759.79 -0.569099 -1.85988 0
M  V30 19054 C 1760.08 -3.5998 -0.093097 0
M  V30 19055 C 1759.93 -4.31384 1.2739 0
M  V30 19056 C 1761.25 -4.32521 -0.813251 0
M  V30 19057 H 1758.37 -0.736969 0.00673905 0
M  V30 19058 H 1761.01 -1.76507 0.703238 0
M  V30 19059 H 1759.16 -3.82508 -0.679685 0
M  V30 19060 H 1760.83 -4.20235 1.90264 0
M  V30 19061 H 1759.07 -3.9227 1.85221 0
M  V30 19062 H 1759.75 -5.39856 1.15148 0
M  V30 19063 H 1762.22 -4.14903 -0.315334 0
M  V30 19064 H 1761.1 -5.42161 -0.857456 0
M  V30 19065 H 1761.36 -4.00768 -1.86649 0
M  V30 19066 N 1760.42 -0.27936 -1.55104 0
M  V30 19067 C 1761.38 0.593214 -2.2139 0
M  V30 19068 C 1762.38 1.07807 -1.19308 0
M  V30 19069 O 1763.57 0.97756 -1.44185 0
M  V30 19070 C 1760.7 1.81889 -2.88321 0
M  V30 19071 H 1761.9 0.0143941 -2.99897 0
M  V30 19072 H 1759.45 -0.0300083 -1.56271 0
M  V30 19073 H 1760.18 2.43811 -2.13838 0
M  V30 19074 H 1759.97 1.4791 -3.63132 0
M  V30 19075 H 1761.46 2.4393 -3.38951 0
M  V30 19076 N 1761.9 1.57599 -0.0067085 0
M  V30 19077 C 1762.84 2.08842 0.982532 0
M  V30 19078 C 1763.81 0.985339 1.33717 0
M  V30 19079 O 1765 1.25818 1.43438 0
M  V30 19080 C 1762.14 2.60188 2.26708 0
M  V30 19081 C 1761.25 3.84422 1.97087 0
M  V30 19082 C 1760.39 4.24244 3.19672 0
M  V30 19083 C 1759.42 5.41297 2.85769 0
M  V30 19084 N 1758.56 5.76381 4.00911 0
M  V30 19085 H 1763.4 2.93092 0.538618 0
M  V30 19086 H 1760.94 1.44885 0.254293 0
M  V30 19087 H 1762.9 2.88038 3.01811 0
M  V30 19088 H 1761.53 1.78802 2.68756 0
M  V30 19089 H 1760.58 3.63439 1.12323 0
M  V30 19090 H 1761.89 4.6962 1.68102 0
M  V30 19091 H 1761.04 4.53413 4.03115 0
M  V30 19092 H 1759.78 3.37769 3.518 0
M  V30 19093 H 1758.79 5.11846 2.00734 0
M  V30 19094 H 1760.01 6.29454 2.54881 0
M  V30 19095 H 1757.96 4.92863 4.32923 0
M  V30 19096 H 1757.88 6.56168 3.75473 0
M  V30 19097 H 1759.14 6.10144 4.85123 0
M  V30 19098 N 1763.37 -0.266145 1.55336 0
M  V30 19099 C 1764.28 -1.35103 1.91793 0
M  V30 19100 C 1765.3 -1.5368 0.815985 0
M  V30 19101 O 1766.48 -1.67675 1.11567 0
M  V30 19102 C 1763.54 -2.68905 2.1884 0
M  V30 19103 C 1762.6 -2.59015 3.42359 0
M  V30 19104 C 1761.83 -3.86437 3.68106 0
M  V30 19105 O 1762.06 -4.87436 2.96247 0
M  V30 19106 O 1760.99 -3.86227 4.61641 0
M  V30 19107 H 1764.82 -1.07181 2.84158 0
M  V30 19108 H 1762.4 -0.465262 1.41971 0
M  V30 19109 H 1764.28 -3.48008 2.3763 0
M  V30 19110 H 1762.96 -2.96599 1.29656 0
M  V30 19111 H 1761.87 -1.78264 3.28896 0
M  V30 19112 H 1763.2 -2.3627 4.31784 0
M  V30 19113 N 1764.85 -1.48386 -0.530967 0
M  V30 19114 C 1766.1 -1.55608 -1.28332 0
M  V30 19115 C 1766.41 -0.234479 -1.94189 0
M  V30 19116 O 1767.62 -0.184926 -2.70869 0
M  V30 19117 C 1766.08 -2.74423 -2.32852 0
M  V30 19118 C 1765.68 -4.13221 -1.73068 0
M  V30 19119 C 1767.43 -2.90956 -3.09103 0
M  V30 19120 C 1765.33 -5.23299 -2.75522 0
M  V30 19121 H 1764.26 -0.579291 -0.482637 0
M  V30 19122 H 1766.92 -1.74718 -0.560885 0
M  V30 19123 H 1765.3 -2.48745 -3.08126 0
M  V30 19124 H 1766.47 -4.48913 -1.03989 0
M  V30 19125 H 1764.79 -4.01796 -1.09312 0
M  V30 19126 H 1767.38 -3.70363 -3.85662 0
M  V30 19127 H 1767.73 -2.00376 -3.64905 0
M  V30 19128 H 1768.26 -3.1653 -2.40943 0
M  V30 19129 H 1765 -6.15842 -2.24542 0
M  V30 19130 H 1764.52 -4.92095 -3.42932 0
M  V30 19131 H 1766.2 -5.5137 -3.38526 0
M  V30 19132 N 1766.33 0.779763 -1.36958 0
M  V30 19133 C 1767.58 1.54031 -1.31918 0
M  V30 19134 C 1767.91 1.9395 0.0985685 0
M  V30 19135 O 1767.18 1.63458 1.05413 0
M  V30 19136 C 1767.47 2.81083 -2.25088 0
M  V30 19137 C 1767.32 2.47469 -3.75605 0
M  V30 19138 C 1768.64 3.82968 -2.1685 0
M  V30 19139 H 1765.76 0.558806 -0.480526 0
M  V30 19140 H 1768.4 0.895152 -1.67592 0
M  V30 19141 H 1766.55 3.36135 -1.94796 0
M  V30 19142 H 1768.22 1.98393 -4.16459 0
M  V30 19143 H 1766.46 1.80276 -3.94567 0
M  V30 19144 H 1767.14 3.38255 -4.3622 0
M  V30 19145 H 1769.61 3.37388 -2.43534 0
M  V30 19146 H 1768.49 4.69601 -2.84194 0
M  V30 19147 H 1768.75 4.26642 -1.15885 0
M  V30 19148 N 1767.81 1.21396 1.00503 0
M  V30 19149 C 1768.77 0.974756 2.07439 0
M  V30 19150 C 1769.77 -0.0542142 1.60709 0
M  V30 19151 O 1770.96 0.183056 1.73236 0
M  V30 19152 C 1768.09 0.46989 3.37646 0
M  V30 19153 H 1769.29 1.92346 2.30094 0
M  V30 19154 H 1766.84 1.03095 1.17479 0
M  V30 19155 H 1767.57 -0.483735 3.20672 0
M  V30 19156 H 1767.36 1.2121 3.72895 0
M  V30 19157 H 1768.85 0.322393 4.16354 0
M  V30 19158 N 1769.29 -1.19996 1.0217 0
M  V30 19159 C 1770.51 -1.94007 0.733207 0
M  V30 19160 C 1770.94 -1.74565 -0.70061 0
M  V30 19161 O 1770.29 -1.04326 -1.48276 0
M  V30 19162 C 1770.34 -3.44029 1.08057 0
M  V30 19163 O 1769.45 -4.11938 0.195135 0
M  V30 19164 H 1768.79 -0.605929 0.271562 0
M  V30 19165 H 1771.32 -1.5228 1.36645 0
M  V30 19166 H 1771.33 -3.94669 1.03443 0
M  V30 19167 H 1770 -3.57502 2.1252 0
M  V30 19168 H 1768.58 -3.71697 0.299246 0
M  V30 19169 N 1770.76 -0.798611 -1.35867 0
M  V30 19170 C 1772 -0.380789 -2.00822 0
M  V30 19171 C 1772.37 1.03061 -1.61995 0
M  V30 19172 O 1773.57 1.55001 -2.19609 0
M  V30 19173 C 1771.84 -0.549604 -3.53149 0
M  V30 19174 S 1773.4 -0.221022 -4.38243 0
M  V30 19175 H 1770.22 -0.145008 -0.696056 0
M  V30 19176 H 1772.82 -1.03912 -1.65598 0
M  V30 19177 H 1771.52 -1.57695 -3.78894 0
M  V30 19178 H 1771.05 0.124329 -3.93203 0
M  V30 19179 H 1773.07 0.974167 -4.86543 0
M  V30 19180 N 1772.24 1.47639 -0.551417 0
M  V30 19181 C 1773.52 1.95559 0.0401983 0
M  V30 19182 C 1773.9 1.49396 1.49144 0
M  V30 19183 O 1773.25 0.730148 2.1652 0
M  V30 19184 C 1773.46 3.48859 -0.0992677 0
M  V30 19185 C 1774.8 4.24572 0.0490517 0
M  V30 19186 O 1775.83 3.5619 -0.026527 0
M  V30 19187 O 1774.69 5.46094 0.210638 0
M  V30 19188 H 1771.78 0.824251 0.0673694 0
M  V30 19189 H 1774.33 1.58065 -0.617532 0
M  V30 19190 H 1773.1 3.75245 -1.10936 0
M  V30 19191 H 1772.72 3.93102 0.596339 0
M  V30 19192 N 1773.72 0.287581 1.54954 0
M  V30 19193 C 1774.67 -0.594449 2.23013 0
M  V30 19194 C 1775.64 -1.14007 1.20795 0
M  V30 19195 O 1776.82 -1.18708 1.49376 0
M  V30 19196 C 1773.96 -1.76687 2.96439 0
M  V30 19197 C 1773.08 -1.25391 4.13402 0
M  V30 19198 C 1772.21 -2.38912 4.74441 0
M  V30 19199 C 1771.25 -1.84683 5.83574 0
M  V30 19200 N 1770.39 -2.91725 6.38624 0
M  V30 19201 H 1775.23 -0.00743921 2.97999 0
M  V30 19202 H 1772.76 0.00809578 1.47098 0
M  V30 19203 H 1774.72 -2.45621 3.37233 0
M  V30 19204 H 1773.35 -2.32571 2.23853 0
M  V30 19205 H 1772.4 -0.45726 3.77642 0
M  V30 19206 H 1773.72 -0.816813 4.92067 0
M  V30 19207 H 1772.87 -3.15818 5.18019 0
M  V30 19208 H 1771.61 -2.85943 3.95079 0
M  V30 19209 H 1770.61 -1.06261 5.39434 0
M  V30 19210 H 1771.84 -1.38572 6.64812 0
M  V30 19211 H 1769.78 -3.38115 5.62152 0
M  V30 19212 H 1769.7 -2.5247 7.12597 0
M  V30 19213 H 1770.97 -3.68569 6.86861 0
M  V30 19214 N 1775.2 -1.57593 0.0150662 0
M  V30 19215 C 1776.44 -1.93075 -0.670923 0
M  V30 19216 C 1776.8 -0.890626 -1.70094 0
M  V30 19217 O 1778 -1.13118 -2.4384 0
M  V30 19218 C 1776.27 -3.33544 -1.28388 0
M  V30 19219 S 1777.83 -3.90934 -1.9929 0
M  V30 19220 H 1774.65 -0.675698 -0.221253 0
M  V30 19221 H 1777.25 -1.95355 0.075366 0
M  V30 19222 H 1775.96 -4.07072 -0.521599 0
M  V30 19223 H 1775.49 -3.34674 -2.06778 0
M  V30 19224 H 1777.5 -3.73229 -3.26978 0
M  V30 19225 N 1776.68 0.257904 -1.55475 0
M  V30 19226 C 1777.61 1.34176 -1.85821 0
M  V30 19227 C 1778.62 1.44821 -0.743696 0
M  V30 19228 O 1779.81 1.46367 -1.02171 0
M  V30 19229 C 1776.91 2.72151 -2.01958 0
M  V30 19230 C 1776.08 2.83911 -3.32736 0
M  V30 19231 C 1775.14 4.02659 -3.38751 0
M  V30 19232 O 1774.17 3.92705 -4.12034 0
M  V30 19233 N 1775.37 5.15325 -2.67245 0
M  V30 19234 H 1778.14 1.08483 -2.79377 0
M  V30 19235 H 1775.7 0.448017 -1.55578 0
M  V30 19236 H 1777.69 3.4991 -2.03335 0
M  V30 19237 H 1776.26 2.906 -1.15198 0
M  V30 19238 H 1775.48 1.92915 -3.43769 0
M  V30 19239 H 1776.77 2.88709 -4.18956 0
M  V30 19240 H 1776.16 5.26303 -2.07418 0
M  V30 19241 H 1774.72 5.91259 -2.74328 0
M  V30 19242 N 1778.15 1.48666 0.52309 0
M  V30 19243 C 1779.08 1.666 1.63605 0
M  V30 19244 C 1780.07 0.514803 1.62123 0
M  V30 19245 O 1781.25 0.748138 1.79211 0
M  V30 19246 C 1778.38 1.71199 3.02172 0
M  V30 19247 C 1777.33 2.85888 3.18515 0
M  V30 19248 C 1776.66 2.75582 4.58213 0
M  V30 19249 C 1777.96 4.27104 3.00631 0
M  V30 19250 H 1779.65 2.59776 1.48851 0
M  V30 19251 H 1777.2 1.25014 0.714667 0
M  V30 19252 H 1779.15 1.82333 3.79911 0
M  V30 19253 H 1777.88 0.746066 3.17964 0
M  V30 19254 H 1776.54 2.7432 2.43195 0
M  V30 19255 H 1776.18 1.76944 4.7085 0
M  V30 19256 H 1775.88 3.52545 4.70091 0
M  V30 19257 H 1777.41 2.88693 5.38041 0
M  V30 19258 H 1778.82 4.3947 3.68157 0
M  V30 19259 H 1777.22 5.05119 3.23999 0
M  V30 19260 H 1778.29 4.43087 1.96982 0
M  V30 19261 N 1779.63 -0.772489 1.37369 0
M  V30 19262 C 1780.58 -1.88575 1.33073 0
M  V30 19263 C 1781.55 -1.64935 0.19641 0
M  V30 19264 O 1782.73 -1.86862 0.385651 0
M  V30 19265 C 1779.87 -3.25628 1.14281 0
M  V30 19266 C 1778.99 -3.61227 2.36936 0
M  V30 19267 C 1778.12 -4.87486 2.11023 0
M  V30 19268 C 1777.16 -5.15814 3.29548 0
M  V30 19269 N 1776.3 -6.33261 3.03191 0
M  V30 19270 H 1781.14 -1.91583 2.28255 0
M  V30 19271 H 1778.68 -0.936654 1.13425 0
M  V30 19272 H 1780.63 -4.04688 1.01407 0
M  V30 19273 H 1779.26 -3.21998 0.227467 0
M  V30 19274 H 1778.32 -2.77158 2.60552 0
M  V30 19275 H 1779.63 -3.781 3.25333 0
M  V30 19276 H 1778.78 -5.74449 1.95176 0
M  V30 19277 H 1777.52 -4.72716 1.19962 0
M  V30 19278 H 1776.53 -4.27328 3.45935 0
M  V30 19279 H 1777.75 -5.32493 4.21459 0
M  V30 19280 H 1775.7 -6.19851 2.14759 0
M  V30 19281 H 1775.61 -6.50546 3.85131 0
M  V30 19282 H 1776.88 -7.23162 2.9096 0
M  V30 19283 N 1781.11 -1.21927 -0.998575 0
M  V30 19284 C 1782.36 -1.03834 -1.73386 0
M  V30 19285 C 1782.68 0.428247 -1.90239 0
M  V30 19286 O 1781.95 1.30847 -1.45794 0
M  V30 19287 H 1780.53 -0.381225 -0.642399 0
M  V30 19288 H 1783.19 -1.53344 -1.20298 0
M  V30 19289 H 1782.29 -1.51155 -2.73054 0
M  V30 19290 N 1782.59 1.19452 -1.02805 0
M  V30 19291 C 1783.5 2.2631 -0.618147 0
M  V30 19292 C 1784.51 1.70449 0.349712 0
M  V30 19293 O 1785.69 2.00325 0.207801 0
M  V30 19294 C 1782.76 3.46691 0.0255242 0
M  V30 19295 C 1781.82 4.17735 -0.98973 0
M  V30 19296 C 1781.05 5.32369 -0.376681 0
M  V30 19297 O 1781.27 5.64467 0.820584 0
M  V30 19298 O 1780.21 5.9178 -1.09911 0
M  V30 19299 H 1784.03 2.63611 -1.50807 0
M  V30 19300 H 1781.62 1.2629 -0.798192 0
M  V30 19301 H 1783.5 4.19643 0.384464 0
M  V30 19302 H 1782.17 3.1124 0.889467 0
M  V30 19303 H 1781.08 3.46906 -1.40024 0
M  V30 19304 H 1782.41 4.57155 -1.82402 0
M  V30 19305 N 1784.07 0.805805 1.35442 0
M  V30 19306 C 1785.03 0.221278 2.28129 0
M  V30 19307 C 1786.03 -0.590919 1.49549 0
M  V30 19308 O 1787.22 -0.409518 1.69318 0
M  V30 19309 C 1784.35 -0.691643 3.3381 0
M  V30 19310 H 1785.54 1.03875 2.81336 0
M  V30 19311 H 1783.1 0.5764 1.45284 0
M  V30 19312 H 1783.83 -1.53283 2.85788 0
M  V30 19313 H 1783.62 -0.110972 3.91943 0
M  V30 19314 H 1785.11 -1.09497 4.02989 0
M  V30 19315 N 1785.54 -1.47344 0.559239 0
M  V30 19316 C 1786.48 -2.26985 -0.235197 0
M  V30 19317 C 1787.46 -1.34177 -0.918443 0
M  V30 19318 O 1788.64 -1.63561 -0.937027 0
M  V30 19319 C 1785.77 -3.11267 -1.33532 0
M  V30 19320 C 1784.81 -4.19667 -0.760412 0
M  V30 19321 S 1785.65 -5.34044 0.394576 0
M  V30 19322 C 1786.8 -6.21891 -0.707314 0
M  V30 19323 H 1787.03 -2.94017 0.440606 0
M  V30 19324 H 1784.57 -1.50482 0.345606 0
M  V30 19325 H 1786.53 -3.60395 -1.96534 0
M  V30 19326 H 1785.19 -2.43593 -1.98296 0
M  V30 19327 H 1784.38 -4.78375 -1.58661 0
M  V30 19328 H 1783.98 -3.73429 -0.206528 0
M  V30 19329 H 1786.27 -6.58362 -1.59891 0
M  V30 19330 H 1787.22 -7.07925 -0.157535 0
M  V30 19331 H 1787.62 -5.55556 -1.0009 0
M  V30 19332 N 1787.02 -0.295795 -1.54799 0
M  V30 19333 C 1787.97 0.597578 -2.2003 0
M  V30 19334 C 1788.96 1.10286 -1.17158 0
M  V30 19335 O 1790.15 1.04449 -1.42896 0
M  V30 19336 C 1787.28 1.77148 -2.94064 0
M  V30 19337 C 1786.36 1.28241 -4.04246 0
M  V30 19338 N 1786.75 0.510962 -5.03213 0
M  V30 19339 C 1785.05 1.5636 -4.17693 0
M  V30 19340 C 1785.75 0.251176 -5.81157 0
M  V30 19341 N 1784.73 0.829504 -5.37234 0
M  V30 19342 H 1788.53 0.000567564 -2.939 0
M  V30 19343 H 1786.05 -0.10031 -1.6209 0
M  V30 19344 H 1788.04 2.42299 -3.39259 0
M  V30 19345 H 1786.7 2.37224 -2.21709 0
M  V30 19346 H 1787.71 0.156346 -5.17664 0
M  V30 19347 H 1784.39 2.17222 -3.5654 0
M  V30 19348 H 1785.78 -0.368063 -6.70891 0
M  V30 19349 N 1788.5 1.57583 -0.0234236 0
M  V30 19350 C 1789.75 1.91186 0.655152 0
M  V30 19351 C 1790.07 0.89988 1.72995 0
M  V30 19352 O 1789.34 -0.0594278 1.9581 0
M  V30 19353 H 1787.92 0.705686 0.244982 0
M  V30 19354 H 1790.58 1.94775 -0.0698824 0
M  V30 19355 H 1789.68 2.91636 1.11152 0
M  V30 19356 N 1789.98 -0.249655 1.5561 0
M  V30 19357 C 1790.91 -1.33188 1.8653 0
M  V30 19358 C 1791.92 -1.44424 0.751366 0
M  V30 19359 O 1793.11 -1.45823 1.02946 0
M  V30 19360 C 1790.21 -2.71076 2.03398 0
M  V30 19361 C 1789.39 -2.82142 3.34237 0
M  V30 19362 C 1788.45 -4.00857 3.40882 0
M  V30 19363 O 1787.47 -3.90514 4.1411 0
M  V30 19364 N 1788.67 -5.13901 2.69974 0
M  V30 19365 H 1791.44 -1.07 2.79948 0
M  V30 19366 H 1789 -0.43976 1.55813 0
M  V30 19367 H 1790.99 -3.48826 2.05188 0
M  V30 19368 H 1789.56 -2.89985 1.16738 0
M  V30 19369 H 1788.78 -1.9109 3.44788 0
M  V30 19370 H 1790.07 -2.86483 4.20481 0
M  V30 19371 H 1789.47 -5.25195 2.10206 0
M  V30 19372 H 1788.02 -5.89796 2.7746 0
M  V30 19373 N 1791.46 -1.48941 -0.515198 0
M  V30 19374 C 1792.7 -1.57943 -1.27207 0
M  V30 19375 C 1793.04 -0.259011 -1.92465 0
M  V30 19376 O 1792.31 0.736277 -1.80026 0
M  V30 19377 C 1792.59 -2.72846 -2.35005 0
M  V30 19378 C 1792.45 -4.14639 -1.74341 0
M  V30 19379 C 1793.77 -2.83444 -3.36672 0
M  V30 19380 H 1790.89 -0.574909 -0.461138 0
M  V30 19381 H 1793.53 -1.81172 -0.572413 0
M  V30 19382 H 1791.68 -2.5317 -2.94681 0
M  V30 19383 H 1793.35 -4.45793 -1.18602 0
M  V30 19384 H 1791.59 -4.20948 -1.0481 0
M  V30 19385 H 1792.26 -4.90883 -2.52463 0
M  V30 19386 H 1794.74 -3.01311 -2.86969 0
M  V30 19387 H 1793.62 -3.65542 -4.09475 0
M  V30 19388 H 1793.88 -1.92208 -3.98131 0
M  V30 19389 N 1792.94 0.765193 -1.37777 0
M  V30 19390 C 1794.21 1.51374 -1.23876 0
M  V30 19391 C 1794.59 2.10455 0.164852 0
M  V30 19392 O 1793.94 1.96084 1.17318 0
M  V30 19393 C 1794.15 2.58939 -2.33991 0
M  V30 19394 C 1795.5 3.26162 -2.71852 0
M  V30 19395 O 1796.52 2.69238 -2.33216 0
M  V30 19396 O 1795.38 4.29094 -3.38438 0
M  V30 19397 H 1792.48 0.670749 -0.48376 0
M  V30 19398 H 1795.02 0.801597 -1.49574 0
M  V30 19399 H 1793.79 2.13448 -3.27957 0
M  V30 19400 H 1793.42 3.37747 -2.09793 0
M  V30 19401 N 1794.41 1.22455 0.992094 0
M  V30 19402 C 1795.65 1.06119 1.74694 0
M  V30 19403 C 1796.02 -0.396703 1.87857 0
M  V30 19404 O 1797.22 -0.680936 2.60032 0
M  V30 19405 C 1795.49 1.75374 3.11414 0
M  V30 19406 S 1797.05 1.74461 4.02627 0
M  V30 19407 H 1793.87 0.380011 0.600927 0
M  V30 19408 H 1796.47 1.55408 1.18611 0
M  V30 19409 H 1795.17 2.8061 2.99477 0
M  V30 19410 H 1794.7 1.26319 3.72568 0
M  V30 19411 H 1796.72 0.794871 4.89792 0
M  V30 19412 N 1795.89 -1.18905 1.03437 0
M  V30 19413 C 1797.12 -1.93219 0.753743 0
M  V30 19414 C 1797.54 -1.75299 -0.682055 0
M  V30 19415 O 1796.9 -1.05892 -1.47161 0
M  V30 19416 C 1796.95 -3.42864 1.117 0
M  V30 19417 O 1796.05 -4.11708 0.238816 0
M  V30 19418 H 1795.39 -0.603015 0.277973 0
M  V30 19419 H 1797.92 -1.50823 1.38252 0
M  V30 19420 H 1797.93 -3.9355 1.07623 0
M  V30 19421 H 1796.61 -3.55228 2.163 0
M  V30 19422 H 1795.18 -3.71359 0.338652 0
M  V30 19423 N 1797.37 -0.812977 -1.35013 0
M  V30 19424 C 1798.78 -0.45647 -1.81034 0
M  V30 19425 C 1799.13 1.02217 -1.6747 0
M  V30 19426 O 1798.26 1.79478 -1.20898 0
M  V30 19427 C 1798.85 -0.821773 -3.28683 0
M  V30 19428 C 1797.41 -0.517776 -3.72822 0
M  V30 19429 C 1796.56 -1.04399 -2.56897 0
M  V30 19430 H 1799.51 -1.00405 -1.22901 0
M  V30 19431 H 1799.53 -0.12173 -3.80305 0
M  V30 19432 H 1799.04 -1.89799 -3.38523 0
M  V30 19433 H 1797.14 0.549446 -3.68527 0
M  V30 19434 H 1797.26 -1.05488 -4.67343 0
M  V30 19435 H 1795.62 -0.466002 -2.50401 0
M  V30 19436 H 1796.4 -2.12645 -2.69512 0
M  V30 19437 N 1798.85 1.47045 -0.567045 0
M  V30 19438 C 1800.1 2.02046 -0.0465877 0
M  V30 19439 C 1800.42 1.44271 1.3119 0
M  V30 19440 O 1799.69 0.621533 1.85779 0
M  V30 19441 H 1798.27 0.746864 -0.0142323 0
M  V30 19442 H 1800.93 1.80335 -0.739281 0
M  V30 19443 H 1800.02 3.12081 0.0341623 0
M  V30 19444 N 1800.33 0.304 1.5464 0
M  V30 19445 C 1801.57 -0.305185 1.99378 0
M  V30 19446 C 1801.89 -1.54773 1.19602 0
M  V30 19447 O 1803.09 -2.23169 1.54621 0
M  V30 19448 C 1801.55 -0.594303 3.54959 0
M  V30 19449 C 1801.16 0.630078 4.43547 0
M  V30 19450 C 1802.9 -1.16452 4.08215 0
M  V30 19451 C 1800.81 0.313946 5.90566 0
M  V30 19452 H 1799.74 -0.11781 0.744739 0
M  V30 19453 H 1802.39 0.413174 1.78788 0
M  V30 19454 H 1800.77 -1.37233 3.71461 0
M  V30 19455 H 1801.95 1.40619 4.3882 0
M  V30 19456 H 1800.26 1.11914 4.01079 0
M  V30 19457 H 1802.86 -1.41534 5.15628 0
M  V30 19458 H 1803.2 -2.10773 3.58999 0
M  V30 19459 H 1803.73 -0.448123 3.95268 0
M  V30 19460 H 1800.47 1.2258 6.43937 0
M  V30 19461 H 1799.99 -0.424841 5.98294 0
M  V30 19462 H 1801.67 -0.083395 6.46946 0
M  V30 19463 N 1801.8 -1.57568 0.0317802 0
M  V30 19464 C 1803.05 -1.93021 -0.641437 0
M  V30 19465 C 1803.4 -0.908815 -1.69583 0
M  V30 19466 O 1802.7 0.0747763 -1.91454 0
M  V30 19467 C 1802.89 -3.32976 -1.29852 0
M  V30 19468 C 1802.72 -4.48635 -0.3093 0
M  V30 19469 C 1801.49 -5.05217 0.0917902 0
M  V30 19470 C 1803.69 -5.12436 0.437482 0
M  V30 19471 N 1801.67 -6.04399 1.0759 0
M  V30 19472 C 1803.04 -6.06743 1.27526 0
M  V30 19473 C 1805.1 -4.95404 0.497895 0
M  V30 19474 C 1803.8 -6.8585 2.16801 0
M  V30 19475 C 1805.83 -5.75122 1.37799 0
M  V30 19476 C 1805.19 -6.69047 2.20354 0
M  V30 19477 H 1801.29 -0.754119 -0.206951 0
M  V30 19478 H 1803.87 -1.94445 0.0995777 0
M  V30 19479 H 1802.04 -3.32366 -2.00966 0
M  V30 19480 H 1803.77 -3.5577 -1.92898 0
M  V30 19481 H 1800.53 -4.72752 -0.283202 0
M  V30 19482 H 1800.95 -6.5868 1.56427 0
M  V30 19483 H 1805.59 -4.22612 -0.126117 0
M  V30 19484 H 1803.31 -7.57946 2.80256 0
M  V30 19485 H 1806.9 -5.63976 1.42906 0
M  V30 19486 H 1805.78 -7.29656 2.87352 0
M  V30 19487 N 1803.28 0.241399 -1.5574 0
M  V30 19488 C 1804.21 1.32197 -1.87234 0
M  V30 19489 C 1805.23 1.44024 -0.759015 0
M  V30 19490 O 1806.42 1.45275 -1.03718 0
M  V30 19491 C 1803.52 2.69994 -2.04833 0
M  V30 19492 C 1802.69 2.80366 -3.35729 0
M  V30 19493 C 1801.75 3.99043 -3.43003 0
M  V30 19494 O 1800.77 3.88312 -4.16176 0
M  V30 19495 N 1801.98 5.12462 -2.72696 0
M  V30 19496 H 1804.74 1.05514 -2.80512 0
M  V30 19497 H 1802.3 0.431491 -1.56044 0
M  V30 19498 H 1804.29 3.47733 -2.07035 0
M  V30 19499 H 1802.86 2.89361 -1.18274 0
M  V30 19500 H 1802.08 1.89258 -3.45796 0
M  V30 19501 H 1803.37 2.8425 -4.21995 0
M  V30 19502 H 1802.77 5.24073 -2.12988 0
M  V30 19503 H 1801.33 5.88316 -2.80584 0
M  V30 19504 N 1804.76 1.49212 0.507292 0
M  V30 19505 C 1805.69 1.68326 1.61829 0
M  V30 19506 C 1806.67 0.531969 1.61568 0
M  V30 19507 O 1807.86 0.767104 1.78407 0
M  V30 19508 C 1804.99 1.74394 3.0034 0
M  V30 19509 C 1803.94 2.89251 3.15465 0
M  V30 19510 C 1803.27 2.80426 4.55264 0
M  V30 19511 C 1804.57 4.30269 2.96085 0
M  V30 19512 H 1806.26 2.6134 1.46087 0
M  V30 19513 H 1803.81 1.25765 0.701367 0
M  V30 19514 H 1805.76 1.86353 3.77956 0
M  V30 19515 H 1804.48 0.779748 3.17155 0
M  V30 19516 H 1803.14 2.76884 2.40272 0
M  V30 19517 H 1802.79 1.81928 4.68947 0
M  V30 19518 H 1802.49 3.57511 4.66326 0
M  V30 19519 H 1804.01 2.94384 5.34949 0
M  V30 19520 H 1805.43 4.4335 3.63475 0
M  V30 19521 H 1803.83 5.08527 3.18623 0
M  V30 19522 H 1804.9 4.45151 1.92272 0
M  V30 19523 N 1806.24 -0.757876 1.38181 0
M  V30 19524 C 1807.52 -1.50715 1.24677 0
M  V30 19525 C 1807.9 -2.1054 -0.153689 0
M  V30 19526 O 1807.24 -1.96703 -1.16276 0
M  V30 19527 C 1807.45 -2.57695 2.3536 0
M  V30 19528 C 1808.8 -3.24716 2.73578 0
M  V30 19529 O 1809.83 -2.67997 2.3464 0
M  V30 19530 O 1808.68 -4.27294 3.40709 0
M  V30 19531 H 1805.78 -0.668175 0.487311 0
M  V30 19532 H 1808.32 -0.793653 1.49997 0
M  V30 19533 H 1807.1 -2.11706 3.29084 0
M  V30 19534 H 1806.72 -3.36629 2.11581 0
M  V30 19535 N 1807.72 -1.22979 -0.985586 0
M  V30 19536 C 1808.96 -1.07044 -1.74129 0
M  V30 19537 C 1809.32 0.386735 -1.88065 0
M  V30 19538 O 1810.52 0.667136 -2.6039 0
M  V30 19539 C 1808.79 -1.77023 -3.1048 0
M  V30 19540 S 1810.35 -1.76594 -4.01697 0
M  V30 19541 H 1807.17 -0.383192 -0.598903 0
M  V30 19542 H 1809.77 -1.56035 -1.17785 0
M  V30 19543 H 1808.48 -2.82194 -2.97984 0
M  V30 19544 H 1808.01 -1.28293 -3.71893 0
M  V30 19545 H 1810.02 -0.820835 -4.89364 0
M  V30 19546 N 1809.19 1.18355 -1.04066 0
M  V30 19547 C 1810.42 1.92275 -0.76406 0
M  V30 19548 C 1810.84 1.76176 0.678777 0
M  V30 19549 O 1810.19 1.0914 1.46269 0
M  V30 19550 C 1810.25 3.43686 -1.12083 0
M  V30 19551 O 1809.97 3.59277 -2.50702 0
M  V30 19552 C 1811.47 4.34705 -0.868726 0
M  V30 19553 H 1808.69 0.610406 -0.278649 0
M  V30 19554 H 1811.23 1.50153 -1.38832 0
M  V30 19555 H 1809.39 3.83596 -0.541528 0
M  V30 19556 H 1809.8 4.53007 -2.64357 0
M  V30 19557 H 1811.27 5.39497 -1.16821 0
M  V30 19558 H 1811.75 4.3876 0.196501 0
M  V30 19559 H 1812.36 4.00491 -1.43132 0
M  V30 19560 N 1810.67 0.820125 1.3458 0
M  V30 19561 C 1811.62 0.212417 2.27008 0
M  V30 19562 C 1812.61 -0.621679 1.48405 0
M  V30 19563 O 1813.8 -0.476717 1.70459 0
M  V30 19564 C 1810.93 -0.627099 3.37524 0
M  V30 19565 C 1810.01 0.217471 4.23542 0
M  V30 19566 N 1810.4 1.28711 4.89149 0
M  V30 19567 C 1808.7 0.00134142 4.46 0
M  V30 19568 C 1809.4 1.80387 5.53024 0
M  V30 19569 N 1808.38 1.10819 5.32184 0
M  V30 19570 H 1812.18 1.03066 2.75236 0
M  V30 19571 H 1809.7 0.662649 1.48266 0
M  V30 19572 H 1811.69 -1.07861 4.02705 0
M  V30 19573 H 1810.35 -1.44353 2.90847 0
M  V30 19574 H 1811.36 1.66989 4.9024 0
M  V30 19575 H 1808.04 -0.783152 4.10089 0
M  V30 19576 H 1809.43 2.69858 6.15326 0
M  V30 19577 N 1812.15 -1.46743 0.574835 0
M  V30 19578 C 1813.08 -2.33012 -0.150836 0
M  V30 19579 C 1814.06 -1.44868 -0.891472 0
M  V30 19580 O 1815.25 -1.73698 -0.868481 0
M  V30 19581 C 1812.38 -3.26995 -1.17012 0
M  V30 19582 C 1811.33 -4.24518 -0.544829 0
M  V30 19583 C 1810.66 -5.07951 -1.67002 0
M  V30 19584 C 1811.96 -5.19776 0.512891 0
M  V30 19585 H 1813.65 -2.93935 0.569433 0
M  V30 19586 H 1811.2 -1.41344 0.275289 0
M  V30 19587 H 1813.15 -3.86198 -1.68609 0
M  V30 19588 H 1811.87 -2.64163 -1.92056 0
M  V30 19589 H 1810.53 -3.66566 -0.0500133 0
M  V30 19590 H 1810.18 -4.4151 -2.40993 0
M  V30 19591 H 1809.88 -5.73991 -1.25732 0
M  V30 19592 H 1811.4 -5.70017 -2.1889 0
M  V30 19593 H 1812.82 -5.73241 0.0823064 0
M  V30 19594 H 1811.22 -5.94114 0.845462 0
M  V30 19595 H 1812.29 -4.64184 1.40217 0
M  V30 19596 N 1813.63 -0.312197 -1.54477 0
M  V30 19597 C 1814.54 0.568096 -2.27618 0
M  V30 19598 C 1815.55 1.13892 -1.31547 0
M  V30 19599 O 1816.73 1.16131 -1.64546 0
M  V30 19600 C 1813.8 1.71843 -3.01116 0
M  V30 19601 C 1812.86 1.18056 -4.12748 0
M  V30 19602 C 1812.09 2.27607 -4.82733 0
M  V30 19603 O 1812.31 3.4773 -4.52151 0
M  V30 19604 O 1811.25 1.93667 -5.69892 0
M  V30 19605 H 1815.07 -0.0255513 -3.03689 0
M  V30 19606 H 1812.66 -0.0782698 -1.49195 0
M  V30 19607 H 1814.54 2.38839 -3.4718 0
M  V30 19608 H 1813.21 2.29847 -2.2793 0
M  V30 19609 H 1812.12 0.476007 -3.71059 0
M  V30 19610 H 1813.45 0.645802 -4.87945 0
M  V30 19611 N 1815.11 1.57549 -0.040136 0
M  V30 19612 C 1816.35 1.9187 0.634838 0
M  V30 19613 C 1816.68 0.918178 1.7203 0
M  V30 19614 O 1815.95 -0.0386563 1.95862 0
M  V30 19615 H 1814.53 0.708245 0.237483 0
M  V30 19616 H 1817.19 1.9469 -0.0905369 0
M  V30 19617 H 1816.28 2.92799 1.08053 0
M  V30 19618 N 1816.58 -0.233136 1.55866 0
M  V30 19619 C 1817.53 -1.28882 1.91463 0
M  V30 19620 C 1818.5 -1.47151 0.770435 0
M  V30 19621 O 1819.69 -1.6091 1.02531 0
M  V30 19622 C 1816.83 -2.63653 2.22668 0
M  V30 19623 C 1815.94 -2.53278 3.49963 0
M  V30 19624 C 1815.07 -3.80494 3.70672 0
M  V30 19625 C 1814.11 -3.64794 4.9152 0
M  V30 19626 N 1813.25 -4.83933 5.08678 0
M  V30 19627 H 1818.09 -0.978251 2.81486 0
M  V30 19628 H 1815.63 -0.471757 1.3933 0
M  V30 19629 H 1817.59 -3.42119 2.38769 0
M  V30 19630 H 1816.22 -2.9283 1.35833 0
M  V30 19631 H 1815.27 -1.66308 3.4212 0
M  V30 19632 H 1816.58 -2.37592 4.38579 0
M  V30 19633 H 1815.73 -4.67404 3.86806 0
M  V30 19634 H 1814.47 -3.99092 2.80315 0
M  V30 19635 H 1813.48 -2.76268 4.75348 0
M  V30 19636 H 1814.7 -3.47677 5.8335 0
M  V30 19637 H 1812.65 -5.02866 4.21262 0
M  V30 19638 H 1812.57 -4.7093 5.91406 0
M  V30 19639 H 1813.83 -5.72302 5.29236 0
M  V30 19640 N 1818.06 -1.49479 -0.499372 0
M  V30 19641 C 1819.31 -1.59284 -1.25525 0
M  V30 19642 C 1819.64 -0.27941 -1.92179 0
M  V30 19643 O 1818.92 0.717142 -1.80796 0
M  V30 19644 C 1819.2 -2.75323 -2.32098 0
M  V30 19645 C 1819.05 -4.16464 -1.69934 0
M  V30 19646 C 1820.37 -2.86998 -3.33646 0
M  V30 19647 H 1817.49 -0.579768 -0.455015 0
M  V30 19648 H 1820.13 -1.81769 -0.553165 0
M  V30 19649 H 1818.28 -2.56282 -2.91979 0
M  V30 19650 H 1819.96 -4.47026 -1.13867 0
M  V30 19651 H 1818.2 -4.22036 -1.0034 0
M  V30 19652 H 1818.87 -4.93534 -2.47242 0
M  V30 19653 H 1821.35 -3.04337 -2.83757 0
M  V30 19654 H 1820.22 -3.69865 -4.05575 0
M  V30 19655 H 1820.48 -1.96419 -3.9607 0
M  V30 19656 N 1819.54 0.750537 -1.38581 0
M  V30 19657 C 1820.79 1.50512 -1.34272 0
M  V30 19658 C 1821.1 1.95496 0.0636858 0
M  V30 19659 O 1822.31 2.7053 0.22932 0
M  V30 19660 C 1820.77 2.71891 -2.35803 0
M  V30 19661 C 1820.37 2.3392 -3.8208 0
M  V30 19662 C 1822.12 3.4977 -2.40543 0
M  V30 19663 C 1820.02 3.51928 -4.7529 0
M  V30 19664 H 1818.95 0.56515 -0.49912 0
M  V30 19665 H 1821.61 0.820167 -1.64151 0
M  V30 19666 H 1819.99 3.42383 -1.98972 0
M  V30 19667 H 1821.16 1.71075 -4.27867 0
M  V30 19668 H 1819.48 1.69168 -3.80488 0
M  V30 19669 H 1822.07 4.37519 -3.07379 0
M  V30 19670 H 1822.42 3.91141 -1.42527 0
M  V30 19671 H 1822.95 2.86294 -2.76189 0
M  V30 19672 H 1819.69 3.15621 -5.74512 0
M  V30 19673 H 1819.21 4.13807 -4.34194 0
M  V30 19674 H 1820.89 4.1847 -4.93449 0
M  V30 19675 N 1821.02 1.235 0.979051 0
M  V30 19676 C 1821.95 1.04183 2.08969 0
M  V30 19677 C 1822.93 -0.041685 1.70049 0
M  V30 19678 O 1824.12 0.123217 1.93809 0
M  V30 19679 C 1821.25 0.633696 3.4147 0
M  V30 19680 C 1820.2 1.66471 3.94299 0
M  V30 19681 C 1819.53 1.11198 5.2301 0
M  V30 19682 C 1820.83 3.05804 4.23416 0
M  V30 19683 H 1822.52 1.9708 2.25388 0
M  V30 19684 H 1820.07 0.948963 1.08308 0
M  V30 19685 H 1822.02 0.485599 4.18593 0
M  V30 19686 H 1820.74 -0.330958 3.24919 0
M  V30 19687 H 1819.4 1.80082 3.19321 0
M  V30 19688 H 1819.05 0.138264 5.0281 0
M  V30 19689 H 1818.75 1.80087 5.59323 0
M  V30 19690 H 1820.27 0.975759 6.02753 0
M  V30 19691 H 1821.69 2.95487 4.91284 0
M  V30 19692 H 1820.08 3.71944 4.70933 0
M  V30 19693 H 1821.15 3.54695 3.30635 0
M  V30 19694 N 1822.5 -1.17802 1.04693 0
M  V30 19695 C 1823.74 -1.88217 0.755141 0
M  V30 19696 C 1824.08 -1.8053 -0.715731 0
M  V30 19697 O 1823.35 -1.20987 -1.52291 0
M  V30 19698 C 1823.63 -3.38447 1.22986 0
M  V30 19699 C 1823.49 -3.54911 2.7633 0
M  V30 19700 C 1824.81 -4.323 0.824891 0
M  V30 19701 H 1821.93 -0.683452 0.275795 0
M  V30 19702 H 1824.57 -1.38561 1.30004 0
M  V30 19703 H 1822.72 -3.80868 0.7663 0
M  V30 19704 H 1824.39 -3.2154 3.30771 0
M  V30 19705 H 1822.63 -2.97357 3.1585 0
M  V30 19706 H 1823.3 -4.60347 3.04606 0
M  V30 19707 H 1825.78 -3.97694 1.22389 0
M  V30 19708 H 1824.66 -5.35962 1.18472 0
M  V30 19709 H 1824.92 -4.41265 -0.27151 0
M  V30 19710 N 1823.98 -0.827251 -1.34143 0
M  V30 19711 C 1824.94 -0.257543 -2.27748 0
M  V30 19712 C 1825.94 0.567053 -1.5047 0
M  V30 19713 O 1827.13 0.382529 -1.69948 0
M  V30 19714 C 1824.26 0.638449 -3.34868 0
M  V30 19715 H 1825.45 -1.08338 -2.79648 0
M  V30 19716 H 1823.01 -0.599441 -1.44348 0
M  V30 19717 H 1823.74 1.48717 -2.8819 0
M  V30 19718 H 1823.53 0.0486033 -3.9207 0
M  V30 19719 H 1825.02 1.03071 -4.0468 0
M  V30 19720 N 1825.45 1.46436 -0.582609 0
M  V30 19721 C 1826.7 2.02685 -0.0682503 0
M  V30 19722 C 1827.03 1.45315 1.2883 0
M  V30 19723 O 1826.31 0.61821 1.84414 0
M  V30 19724 C 1826.59 3.601 -0.00237797 0
M  V30 19725 C 1826.44 4.27855 -1.38782 0
M  V30 19726 C 1827.76 4.34525 0.69829 0
M  V30 19727 H 1824.88 0.736531 -0.0262761 0
M  V30 19728 H 1827.52 1.7458 -0.749789 0
M  V30 19729 H 1825.67 3.84176 0.57803 0
M  V30 19730 H 1827.35 4.15043 -2.01339 0
M  V30 19731 H 1825.59 3.87221 -1.95557 0
M  V30 19732 H 1826.26 5.36614 -1.2942 0
M  V30 19733 H 1828.74 4.15594 0.205219 0
M  V30 19734 H 1827.61 5.44244 0.71341 0
M  V30 19735 H 1827.87 4.05575 1.75957 0
M  V30 19736 N 1826.93 0.320385 1.54309 0
M  V30 19737 C 1827.88 -0.562498 2.20952 0
M  V30 19738 C 1828.87 -1.08408 1.18897 0
M  V30 19739 O 1830.06 -1.02163 1.4454 0
M  V30 19740 C 1827.19 -1.72448 2.96845 0
M  V30 19741 C 1826.27 -1.21794 4.06235 0
M  V30 19742 N 1826.66 -0.43084 5.03962 0
M  V30 19743 C 1824.96 -1.49695 4.20128 0
M  V30 19744 C 1825.66 -0.158687 5.81484 0
M  V30 19745 N 1824.64 -0.74393 5.38486 0
M  V30 19746 H 1828.44 0.0461894 2.93864 0
M  V30 19747 H 1825.95 0.126085 1.6191 0
M  V30 19748 H 1827.95 -2.36871 3.43071 0
M  V30 19749 H 1826.61 -2.33667 2.25455 0
M  V30 19750 H 1827.62 -0.0739708 5.17847 0
M  V30 19751 H 1824.3 -2.11522 3.59951 0
M  V30 19752 H 1825.69 0.47475 6.70221 0
M  V30 19753 N 1828.41 -1.57525 0.0484906 0
M  V30 19754 C 1829.66 -1.9287 -0.626817 0
M  V30 19755 C 1829.99 -0.926899 -1.70652 0
M  V30 19756 O 1829.26 0.0475129 -1.94442 0
M  V30 19757 C 1829.55 -3.38609 -1.22539 0
M  V30 19758 C 1829.4 -4.49537 -0.153923 0
M  V30 19759 C 1830.72 -3.84689 -2.13781 0
M  V30 19760 H 1827.84 -0.701367 -0.226391 0
M  V30 19761 H 1830.48 -1.89683 0.109708 0
M  V30 19762 H 1828.63 -3.41456 -1.85311 0
M  V30 19763 H 1830.3 -4.58818 0.477846 0
M  V30 19764 H 1828.54 -4.30692 0.518334 0
M  V30 19765 H 1829.22 -5.48589 -0.612708 0
M  V30 19766 H 1831.69 -3.83701 -1.60974 0
M  V30 19767 H 1830.57 -4.8732 -2.52607 0
M  V30 19768 H 1830.83 -3.21293 -3.03682 0
M  V30 19769 N 1829.89 0.224867 -1.55988 0
M  V30 19770 C 1830.85 1.26214 -1.91318 0
M  V30 19771 C 1831.85 1.39973 -0.791472 0
M  V30 19772 O 1833.04 1.38295 -1.05926 0
M  V30 19773 C 1830.17 2.63648 -2.16107 0
M  V30 19774 H 1831.37 0.960933 -2.84088 0
M  V30 19775 H 1828.92 0.465138 -1.49218 0
M  V30 19776 H 1829.65 2.98873 -1.25878 0
M  V30 19777 H 1829.44 2.5504 -2.97821 0
M  V30 19778 H 1830.93 3.38505 -2.44548 0
M  V30 19779 N 1831.37 1.49742 0.491438 0
M  V30 19780 C 1832.59 1.63703 1.27343 0
M  V30 19781 C 1833.02 0.312079 1.85493 0
M  V30 19782 O 1832.37 -0.721545 1.66323 0
M  V30 19783 C 1832.42 2.71549 2.37262 0
M  V30 19784 O 1831.53 2.31387 3.41371 0
M  V30 19785 H 1830.87 0.547605 0.375533 0
M  V30 19786 H 1833.4 1.95991 0.587243 0
M  V30 19787 H 1833.41 2.94009 2.82883 0
M  V30 19788 H 1832.08 3.6772 1.94306 0
M  V30 19789 H 1830.66 2.19295 3.01603 0
M  V30 19790 N 1832.84 -0.743177 1.38977 0
M  V30 19791 C 1834.09 -1.49959 1.35486 0
M  V30 19792 C 1834.41 -1.94933 -0.0512044 0
M  V30 19793 O 1833.68 -1.684 -1.0009 0
M  V30 19794 H 1832.26 -0.556277 0.498562 0
M  V30 19795 H 1834.93 -0.882776 1.73762 0
M  V30 19796 H 1834.02 -2.38559 2.01237 0
M  V30 19797 N 1834.32 -1.24018 -0.972487 0
M  V30 19798 C 1835.55 -1.10232 -1.74736 0
M  V30 19799 C 1835.96 0.348409 -1.85964 0
M  V30 19800 O 1835.3 1.25245 -1.34386 0
M  V30 19801 C 1835.37 -1.66263 -3.18743 0
M  V30 19802 C 1835.03 -3.151 -3.31 0
M  V30 19803 C 1836.03 -4.12305 -3.16703 0
M  V30 19804 C 1833.71 -3.54965 -3.55394 0
M  V30 19805 C 1835.71 -5.47357 -3.26617 0
M  V30 19806 C 1833.39 -4.9016 -3.64947 0
M  V30 19807 C 1834.39 -5.86165 -3.5057 0
M  V30 19808 O 1834.08 -7.18903 -3.5977 0
M  V30 19809 H 1833.81 -0.386036 -0.554935 0
M  V30 19810 H 1836.36 -1.64505 -1.22993 0
M  V30 19811 H 1834.59 -1.06419 -3.71769 0
M  V30 19812 H 1836.28 -1.47837 -3.7802 0
M  V30 19813 H 1837.05 -3.82848 -2.97745 0
M  V30 19814 H 1832.93 -2.80747 -3.65653 0
M  V30 19815 H 1836.47 -6.22273 -3.15312 0
M  V30 19816 H 1832.37 -5.1929 -3.83416 0
M  V30 19817 H 1833.14 -7.26759 -3.76515 0
M  V30 19818 N 1835.8 1.17245 -1.05316 0
M  V30 19819 C 1837.05 1.86871 -0.759093 0
M  V30 19820 C 1837.36 1.81997 0.7167 0
M  V30 19821 O 1838.57 2.47106 1.12476 0
M  V30 19822 C 1837.02 3.35303 -1.30766 0
M  V30 19823 C 1836.63 3.48676 -2.81299 0
M  V30 19824 C 1838.38 4.10249 -1.0907 0
M  V30 19825 C 1836.28 4.91138 -3.2945 0
M  V30 19826 H 1835.21 0.699975 -0.28027 0
M  V30 19827 H 1837.86 1.32393 -1.27061 0
M  V30 19828 H 1836.25 3.89326 -0.723955 0
M  V30 19829 H 1837.42 3.04864 -3.45536 0
M  V30 19830 H 1835.74 2.87152 -3.0155 0
M  V30 19831 H 1838.33 5.1535 -1.42545 0
M  V30 19832 H 1838.68 4.1629 -0.0285204 0
M  V30 19833 H 1839.21 3.62436 -1.63967 0
M  V30 19834 H 1835.95 4.90271 -4.35103 0
M  V30 19835 H 1835.47 5.35615 -2.69956 0
M  V30 19836 H 1837.15 5.59913 -3.24201 0
M  V30 19837 N 1837.28 0.834353 1.33702 0
M  V30 19838 C 1838.19 0.266649 2.3308 0
M  V30 19839 C 1839.2 -0.604958 1.63145 0
M  V30 19840 O 1840.38 -0.510151 1.94832 0
M  V30 19841 C 1837.45 -0.552673 3.42267 0
M  V30 19842 C 1836.51 0.342677 4.2793 0
M  V30 19843 C 1835.74 -0.437637 5.31903 0
M  V30 19844 O 1835.96 -1.6698 5.45412 0
M  V30 19845 O 1834.9 0.186001 6.01613 0
M  V30 19846 H 1838.72 1.08946 2.83486 0
M  V30 19847 H 1836.31 0.596765 1.36964 0
M  V30 19848 H 1838.19 -1.01842 4.08908 0
M  V30 19849 H 1836.86 -1.35263 2.94085 0
M  V30 19850 H 1835.77 0.856168 3.64171 0
M  V30 19851 H 1837.1 1.10728 4.79583 0
M  V30 19852 N 1838.76 -1.46125 0.590367 0
M  V30 19853 C 1839.72 -2.2884 -0.128368 0
M  V30 19854 C 1840.72 -1.38818 -0.81156 0
M  V30 19855 O 1841.91 -1.61117 -0.662347 0
M  V30 19856 C 1839.04 -3.19402 -1.19144 0
M  V30 19857 H 1840.23 -2.93864 0.598641 0
M  V30 19858 H 1837.79 -1.52362 0.34866 0
M  V30 19859 H 1838.52 -2.59141 -1.94978 0
M  V30 19860 H 1838.31 -3.85692 -0.705973 0
M  V30 19861 H 1839.8 -3.8164 -1.69532 0
M  V30 19862 N 1840.23 -0.328564 -1.54137 0
M  V30 19863 C 1841.14 0.543922 -2.28207 0
M  V30 19864 C 1842.16 1.1249 -1.32748 0
M  V30 19865 O 1843.34 1.1438 -1.65769 0
M  V30 19866 C 1840.4 1.6864 -3.02922 0
M  V30 19867 C 1839.46 1.13672 -4.13977 0
M  V30 19868 C 1838.7 2.22474 -4.85119 0
M  V30 19869 O 1838.92 3.42914 -4.55813 0
M  V30 19870 O 1837.85 1.87611 -5.71914 0
M  V30 19871 H 1841.68 -0.0577601 -3.03645 0
M  V30 19872 H 1839.26 -0.0940895 -1.49103 0
M  V30 19873 H 1841.15 2.35143 -3.49693 0
M  V30 19874 H 1839.82 2.27417 -2.30355 0
M  V30 19875 H 1838.73 0.436625 -3.71543 0
M  V30 19876 H 1840.06 0.594012 -4.88602 0
M  V30 19877 N 1841.71 1.57497 -0.0568439 0
M  V30 19878 C 1842.96 1.932 0.61658 0
M  V30 19879 C 1843.29 0.935936 1.70158 0
M  V30 19880 O 1842.57 -0.0372005 1.94464 0
M  V30 19881 C 1842.85 3.39254 1.20742 0
M  V30 19882 C 1842.7 4.49612 0.130081 0
M  V30 19883 C 1844.02 3.85817 2.11738 0
M  V30 19884 H 1841.14 0.702558 0.222668 0
M  V30 19885 H 1843.78 1.89622 -0.119765 0
M  V30 19886 H 1841.93 3.42434 1.83497 0
M  V30 19887 H 1843.6 4.58559 -0.502172 0
M  V30 19888 H 1841.85 4.30411 -0.541167 0
M  V30 19889 H 1842.52 5.48906 0.583606 0
M  V30 19890 H 1844.99 3.8455 1.58936 0
M  V30 19891 H 1843.87 4.88653 2.50019 0
M  V30 19892 H 1844.13 3.22899 3.01974 0
M  V30 19893 N 1843.19 -0.216591 1.56105 0
M  V30 19894 C 1844.44 -0.938321 1.78545 0
M  V30 19895 C 1844.75 -1.85302 0.62629 0
M  V30 19896 O 1845.96 -2.61377 0.734451 0
M  V30 19897 C 1844.41 -1.71871 3.16209 0
M  V30 19898 C 1844.02 -0.849904 4.39864 0
M  V30 19899 C 1845.77 -2.43136 3.47973 0
M  V30 19900 C 1843.67 -1.62793 5.68553 0
M  V30 19901 H 1842.6 -0.354098 0.66568 0
M  V30 19902 H 1845.25 -0.192079 1.82492 0
M  V30 19903 H 1843.64 -2.50804 3.06453 0
M  V30 19904 H 1844.81 -0.100757 4.6069 0
M  V30 19905 H 1843.13 -0.249139 4.15654 0
M  V30 19906 H 1845.72 -3.01856 4.41347 0
M  V30 19907 H 1846.07 -3.16267 2.70704 0
M  V30 19908 H 1846.6 -1.71189 3.59081 0
M  V30 19909 H 1843.34 -0.939801 6.48728 0
M  V30 19910 H 1842.86 -2.35156 5.5178 0
M  V30 19911 H 1844.54 -2.18733 6.08905 0
M  V30 19912 N 1844.67 -1.5 -0.48349 0
M  V30 19913 C 1846.08 -1.53369 -1.06466 0
M  V30 19914 C 1846.43 -0.329973 -1.93405 0
M  V30 19915 O 1845.56 0.558444 -2.0907 0
M  V30 19916 C 1846.15 -2.77927 -1.93757 0
M  V30 19917 C 1844.71 -2.84017 -2.47005 0
M  V30 19918 C 1843.86 -2.47506 -1.25044 0
M  V30 19919 H 1846.81 -1.56444 -0.266633 0
M  V30 19920 H 1846.83 -2.59081 -2.78671 0
M  V30 19921 H 1846.34 -3.65518 -1.30454 0
M  V30 19922 H 1844.44 -2.00748 -3.13896 0
M  V30 19923 H 1844.55 -3.86614 -2.8296 0
M  V30 19924 H 1842.92 -1.99669 -1.58127 0
M  V30 19925 H 1843.7 -3.37391 -0.634225 0
M  V30 19926 N 1846.15 0.735796 -1.39369 0
M  V30 19927 C 1847.11 1.83148 -1.37802 0
M  V30 19928 C 1848.11 1.58426 -0.27528 0
M  V30 19929 O 1849.3 1.65841 -0.53314 0
M  V30 19930 C 1846.43 3.20923 -1.14984 0
M  V30 19931 H 1847.62 1.85941 -2.353 0
M  V30 19932 H 1845.18 0.939367 -1.24922 0
M  V30 19933 H 1845.91 3.23791 -0.181648 0
M  V30 19934 H 1845.7 3.40264 -1.94841 0
M  V30 19935 H 1847.19 4.00984 -1.16626 0
M  V30 19936 N 1847.63 1.24532 0.965897 0
M  V30 19937 C 1848.54 1.0564 2.09469 0
M  V30 19938 C 1849.55 -0.00330962 1.74 0
M  V30 19939 O 1850.73 0.195248 2.00451 0
M  V30 19940 C 1847.79 0.665318 3.40256 0
M  V30 19941 C 1846.85 1.80171 3.89663 0
M  V30 19942 C 1846.09 1.42919 5.14208 0
M  V30 19943 O 1846.31 0.319815 5.69503 0
M  V30 19944 O 1845.24 2.25546 5.58044 0
M  V30 19945 H 1849.07 2.00277 2.28304 0
M  V30 19946 H 1846.65 1.03368 1.07868 0
M  V30 19947 H 1848.54 0.458827 4.18895 0
M  V30 19948 H 1847.21 -0.251914 3.22718 0
M  V30 19949 H 1846.12 2.06296 3.12078 0
M  V30 19950 H 1847.45 2.69778 4.11681 0
M  V30 19951 N 1849.1 -1.16685 1.05936 0
M  V30 19952 C 1850.33 -1.91035 0.794553 0
M  V30 19953 C 1850.75 -1.77234 -0.650663 0
M  V30 19954 O 1850.1 -1.11454 -1.44514 0
M  V30 19955 C 1850.15 -3.41859 1.17536 0
M  V30 19956 O 1849.88 -3.55243 2.56386 0
M  V30 19957 C 1851.38 -4.33267 0.937774 0
M  V30 19958 H 1848.6 -0.605896 0.288325 0
M  V30 19959 H 1851.14 -1.47925 1.41203 0
M  V30 19960 H 1849.3 -3.82686 0.602486 0
M  V30 19961 H 1849.71 -4.48744 2.71531 0
M  V30 19962 H 1851.18 -5.3757 1.25389 0
M  V30 19963 H 1851.66 -4.39017 -0.126673 0
M  V30 19964 H 1852.27 -3.98163 1.49486 0
M  V30 19965 N 1850.58 -0.841432 -1.33258 0
M  V30 19966 C 1851.83 -0.437512 -1.97307 0
M  V30 19967 C 1852.15 1.00723 -1.66973 0
M  V30 19968 O 1851.42 1.70199 -0.969998 0
M  V30 19969 H 1850 -0.158794 -0.729927 0
M  V30 19970 H 1852.66 -1.07495 -1.62575 0
M  V30 19971 H 1851.76 -0.571675 -3.0682 0
M  V30 19972 N 1852.06 1.4581 -0.598108 0
M  V30 19973 C 1852.99 2.28611 0.164271 0
M  V30 19974 C 1854 1.39406 0.840827 0
M  V30 19975 O 1855.19 1.63867 0.707805 0
M  V30 19976 C 1852.29 3.14883 1.25306 0
M  V30 19977 C 1851.47 4.32308 0.66546 0
M  V30 19978 C 1850.53 4.99862 1.64392 0
M  V30 19979 O 1849.55 5.56963 1.17393 0
M  V30 19980 N 1850.75 4.98278 2.97825 0
M  V30 19981 H 1853.52 2.94681 -0.546181 0
M  V30 19982 H 1851.08 1.55893 -0.436933 0
M  V30 19983 H 1853.07 3.5694 1.90724 0
M  V30 19984 H 1851.64 2.50785 1.86616 0
M  V30 19985 H 1850.86 3.93848 -0.166567 0
M  V30 19986 H 1852.15 5.08171 0.252938 0
M  V30 19987 H 1851.55 4.53159 3.38619 0
M  V30 19988 H 1850.1 5.44228 3.58691 0
M  V30 19989 N 1853.54 0.336733 1.53961 0
M  V30 19990 C 1854.45 -0.531812 2.28493 0
M  V30 19991 C 1855.46 -1.11784 1.33343 0
M  V30 19992 O 1856.64 -1.13499 1.66373 0
M  V30 19993 C 1853.7 -1.67031 3.03812 0
M  V30 19994 C 1852.77 -1.11475 4.14574 0
M  V30 19995 C 1852 -2.19898 4.86292 0
M  V30 19996 O 1852.22 -3.40492 4.57625 0
M  V30 19997 O 1851.16 -1.84576 5.72901 0
M  V30 19998 H 1854.98 0.0738624 3.0361 0
M  V30 19999 H 1852.57 0.101996 1.49051 0
M  V30 20000 H 1854.45 -2.33286 3.50936 0
M  V30 20001 H 1853.12 -2.26192 2.31558 0
M  V30 20002 H 1852.03 -0.416915 3.7177 0
M  V30 20003 H 1853.36 -0.568092 4.88911 0
M  V30 20004 N 1855.02 -1.57465 0.0651956 0
M  V30 20005 C 1856.24 -1.9756 -0.614633 0
M  V30 20006 C 1856.66 -0.943308 -1.63546 0
M  V30 20007 O 1856.02 0.0708362 -1.82362 0
M  V30 20008 C 1856.07 -3.37735 -1.28909 0
M  V30 20009 O 1855.79 -4.37008 -0.309131 0
M  V30 20010 C 1857.29 -3.92667 -2.05736 0
M  V30 20011 H 1854.51 -0.64987 -0.167061 0
M  V30 20012 H 1857.05 -2.0405 0.135647 0
M  V30 20013 H 1855.21 -3.32352 -1.9905 0
M  V30 20014 H 1855.62 -5.18483 -0.792206 0
M  V30 20015 H 1857.1 -4.92988 -2.48329 0
M  V30 20016 H 1857.57 -3.28851 -2.91124 0
M  V30 20017 H 1858.18 -4.01431 -1.40476 0
M  V30 20018 N 1856.49 0.20831 -1.56217 0
M  V30 20019 C 1857.46 1.24178 -1.92646 0
M  V30 20020 C 1858.46 1.39125 -0.806274 0
M  V30 20021 O 1859.65 1.37163 -1.07386 0
M  V30 20022 C 1856.78 2.61342 -2.18891 0
M  V30 20023 H 1857.97 0.930748 -2.85091 0
M  V30 20024 H 1855.52 0.449285 -1.49703 0
M  V30 20025 H 1856.26 2.97521 -1.29041 0
M  V30 20026 H 1856.04 2.51866 -3.00509 0
M  V30 20027 H 1857.53 3.35892 -2.48125 0
M  V30 20028 N 1857.97 1.50255 0.475528 0
M  V30 20029 C 1859.2 1.64532 1.24951 0
M  V30 20030 C 1859.61 0.326223 1.86366 0
M  V30 20031 O 1858.95 -0.701313 1.69786 0
M  V30 20032 C 1859.01 2.67528 2.40143 0
M  V30 20033 C 1858.68 4.11204 1.99399 0
M  V30 20034 C 1859.68 4.97213 1.51906 0
M  V30 20035 C 1857.36 4.57094 2.08256 0
M  V30 20036 C 1859.35 6.27158 1.13805 0
M  V30 20037 C 1857.04 5.87046 1.69766 0
M  V30 20038 C 1858.04 6.71903 1.22618 0
M  V30 20039 O 1857.73 7.9943 0.846604 0
M  V30 20040 H 1857.46 0.556201 0.384209 0
M  V30 20041 H 1860.01 1.972 0.574555 0
M  V30 20042 H 1858.24 2.30094 3.10795 0
M  V30 20043 H 1859.93 2.71072 3.02117 0
M  V30 20044 H 1860.7 4.62977 1.44489 0
M  V30 20045 H 1856.58 3.91194 2.43903 0
M  V30 20046 H 1860.12 6.93345 0.769334 0
M  V30 20047 H 1856.02 6.20804 1.76841 0
M  V30 20048 H 1856.79 8.12662 0.975845 0
M  V30 20049 N 1859.45 -0.728395 1.39758 0
M  V30 20050 C 1860.7 -1.48808 1.37341 0
M  V30 20051 C 1861.02 -1.94479 -0.0285032 0
M  V30 20052 O 1860.28 -1.67586 -1.01062 0
M  V30 20053 C 1860.58 -2.73735 2.29791 0
M  V30 20054 C 1860.24 -2.46897 3.77296 0
M  V30 20055 C 1858.91 -2.39287 4.17487 0
M  V30 20056 C 1861.26 -2.24097 4.70564 0
M  V30 20057 C 1858.59 -2.06927 5.48997 0
M  V30 20058 C 1860.94 -1.93252 6.02359 0
M  V30 20059 C 1859.6 -1.84115 6.41606 0
M  V30 20060 H 1858.87 -0.544527 0.502565 0
M  V30 20061 H 1861.52 -0.835461 1.72315 0
M  V30 20062 H 1859.82 -3.43772 1.87957 0
M  V30 20063 H 1861.52 -3.31785 2.2521 0
M  V30 20064 H 1858.11 -2.53701 3.45447 0
M  V30 20065 H 1862.3 -2.28939 4.40341 0
M  V30 20066 H 1857.55 -1.98381 5.78321 0
M  V30 20067 H 1861.73 -1.7462 6.74152 0
M  V30 20068 H 1859.35 -1.58807 7.43427 0
M  V30 20069 N 1860.93 -1.25042 -0.959279 0
M  V30 20070 C 1861.86 -1.07494 -2.07285 0
M  V30 20071 C 1862.84 0.0146264 -1.70094 0
M  V30 20072 O 1864.02 -0.154035 -1.93588 0
M  V30 20073 C 1861.15 -0.68794 -3.40418 0
M  V30 20074 C 1860.11 -1.72722 -3.91601 0
M  V30 20075 C 1859.43 -1.19504 -5.21175 0
M  V30 20076 C 1860.73 -3.12502 -4.18497 0
M  V30 20077 H 1862.43 -2.00641 -2.22224 0
M  V30 20078 H 1859.97 -0.966074 -1.06785 0
M  V30 20079 H 1861.93 -0.552133 -4.17767 0
M  V30 20080 H 1860.65 0.279224 -3.25404 0
M  V30 20081 H 1859.31 -1.85139 -3.16416 0
M  V30 20082 H 1858.96 -0.218239 -5.02526 0
M  V30 20083 H 1858.66 -1.88962 -5.56387 0
M  V30 20084 H 1860.18 -1.07153 -6.01124 0
M  V30 20085 H 1861.6 -3.03266 -4.86521 0
M  V30 20086 H 1859.99 -3.79389 -4.64956 0
M  V30 20087 H 1861.06 -3.5991 -3.2495 0
M  V30 20088 N 1862.41 1.16121 -1.06553 0
M  V30 20089 C 1863.34 2.22761 -0.699976 0
M  V30 20090 C 1864.32 1.67274 0.308783 0
M  V30 20091 O 1865.5 1.93333 0.183328 0
M  V30 20092 C 1862.63 3.47187 -0.0884044 0
M  V30 20093 C 1861.59 4.15584 -1.02343 0
M  V30 20094 C 1860.91 5.33992 -0.275022 0
M  V30 20095 C 1862.21 4.66266 -2.35358 0
M  V30 20096 H 1863.91 2.53595 -1.59153 0
M  V30 20097 H 1861.45 1.21893 -0.766686 0
M  V30 20098 H 1863.41 4.21019 0.17922 0
M  V30 20099 H 1862.13 3.15661 0.838181 0
M  V30 20100 H 1860.79 3.43683 -1.27584 0
M  V30 20101 H 1860.44 4.9872 0.654765 0
M  V30 20102 H 1860.14 5.80695 -0.898181 0
M  V30 20103 H 1861.66 6.10598 -0.0150056 0
M  V30 20104 H 1863.07 5.31665 -2.14488 0
M  V30 20105 H 1861.47 5.236 -2.93195 0
M  V30 20106 H 1862.54 3.82335 -2.98241 0
M  V30 20107 N 1863.88 0.848487 1.3281 0
M  V30 20108 C 1864.83 0.286636 2.29013 0
M  V30 20109 C 1865.8 -0.602944 1.5477 0
M  V30 20110 O 1866.99 -0.539169 1.83024 0
M  V30 20111 C 1864.13 -0.524193 3.41096 0
M  V30 20112 C 1863.24 0.390486 4.30232 0
M  V30 20113 C 1862.37 -0.432376 5.29437 0
M  V30 20114 C 1861.41 0.48009 6.10214 0
M  V30 20115 N 1860.55 -0.30522 7.01436 0
M  V30 20116 H 1865.39 1.1123 2.76463 0
M  V30 20117 H 1862.93 0.559956 1.36025 0
M  V30 20118 H 1864.89 -1.00987 4.04793 0
M  V30 20119 H 1863.52 -1.31474 2.94813 0
M  V30 20120 H 1862.57 0.994518 3.6717 0
M  V30 20121 H 1863.88 1.09103 4.86722 0
M  V30 20122 H 1863.03 -0.981471 5.98709 0
M  V30 20123 H 1861.77 -1.16631 4.73549 0
M  V30 20124 H 1860.78 1.04112 5.39853 0
M  V30 20125 H 1862 1.21254 6.68187 0
M  V30 20126 H 1859.95 -1.02236 6.47984 0
M  V30 20127 H 1859.87 0.336414 7.55251 0
M  V30 20128 H 1861.13 -0.836242 7.75001 0
M  V30 20129 N 1865.36 -1.4549 0.605832 0
M  V30 20130 C 1866.29 -2.3328 -0.101377 0
M  V30 20131 C 1867.27 -1.46727 -0.860543 0
M  V30 20132 O 1868.46 -1.75501 -0.831441 0
M  V30 20133 C 1865.59 -3.29403 -1.1005 0
M  V30 20134 C 1864.54 -4.25578 -0.45466 0
M  V30 20135 C 1863.87 -5.11379 -1.5619 0
M  V30 20136 C 1865.17 -5.18571 0.623028 0
M  V30 20137 H 1866.86 -2.92661 0.631653 0
M  V30 20138 H 1864.41 -1.40728 0.305208 0
M  V30 20139 H 1866.36 -3.89688 -1.60379 0
M  V30 20140 H 1865.09 -2.68177 -1.8641 0
M  V30 20141 H 1863.74 -3.66589 0.027752 0
M  V30 20142 H 1863.39 -4.46523 -2.31574 0
M  V30 20143 H 1863.09 -5.76528 -1.13529 0
M  V30 20144 H 1864.62 -5.74532 -2.0675 0
M  V30 20145 H 1866.03 -5.72937 0.203881 0
M  V30 20146 H 1864.43 -5.92187 0.971292 0
M  V30 20147 H 1865.5 -4.61106 1.50032 0
M  V30 20148 N 1866.84 -0.344893 -1.5378 0
M  V30 20149 C 1867.8 0.498781 -2.23707 0
M  V30 20150 C 1868.8 1.02649 -1.23773 0
M  V30 20151 O 1869.99 0.915526 -1.48202 0
M  V30 20152 C 1867.13 1.69497 -2.95776 0
M  V30 20153 H 1868.32 -0.112815 -2.99688 0
M  V30 20154 H 1865.87 -0.0962613 -1.56003 0
M  V30 20155 H 1866.61 2.34522 -2.23986 0
M  V30 20156 H 1866.39 1.32376 -3.69079 0
M  V30 20157 H 1867.88 2.29334 -3.48992 0
M  V30 20158 N 1868.32 1.57428 -0.0735454 0
M  V30 20159 C 1869.57 1.93174 0.593996 0
M  V30 20160 C 1869.89 0.954462 1.70044 0
M  V30 20161 O 1869.16 0.00289765 1.959 0
M  V30 20162 H 1867.74 0.713123 0.222407 0
M  V30 20163 H 1870.4 1.94454 -0.131813 0
M  V30 20164 H 1869.5 2.95025 1.01818 0
M  V30 20165 N 1869.8 -0.200022 1.56326 0
M  V30 20166 C 1871.21 -0.550653 1.498 0
M  V30 20167 C 1871.41 -1.86097 0.772664 0
M  V30 20168 O 1870.47 -2.50449 0.321155 0
M  V30 20169 C 1871.78 -0.60995 2.94449 0
M  V30 20170 C 1873.33 -0.699119 3.05092 0
M  V30 20171 C 1873.8 -0.78957 4.51143 0
M  V30 20172 N 1875.3 -0.853228 4.55274 0
M  V30 20173 C 1876.03 -0.943298 5.65588 0
M  V30 20174 N 1875.53 -0.995976 6.85603 0
M  V30 20175 N 1877.32 -0.980106 5.53489 0
M  V30 20176 H 1869.47 0.659543 2.019 0
M  V30 20177 H 1871.73 0.234299 0.91859 0
M  V30 20178 H 1871.44 0.283651 3.50554 0
M  V30 20179 H 1871.31 -1.46632 3.47533 0
M  V30 20180 H 1873.7 -1.58315 2.49039 0
M  V30 20181 H 1873.78 0.183351 2.55142 0
M  V30 20182 H 1873.43 0.0900924 5.0782 0
M  V30 20183 H 1873.36 -1.68777 4.9882 0
M  V30 20184 H 1875.85 -0.821964 3.68853 0
M  V30 20185 H 1876.16 -1.06508 7.65425 0
M  V30 20186 H 1874.5 -0.964738 6.88272 0
M  V30 20187 H 1877.7 -0.935755 4.58652 0
M  V30 20188 H 1877.87 -1.04684 6.39488 0
M  V30 20189 N 1871.27 -1.50505 -0.467553 0
M  V30 20190 C 1872.52 -1.62878 -1.21829 0
M  V30 20191 C 1872.88 -0.326629 -1.89607 0
M  V30 20192 O 1872.17 0.675689 -1.7929 0
M  V30 20193 C 1872.36 -2.74913 -2.28381 0
M  V30 20194 C 1872.19 -4.15897 -1.71056 0
M  V30 20195 C 1870.96 -4.82251 -1.50873 0
M  V30 20196 C 1873.16 -5.0002 -1.20354 0
M  V30 20197 N 1871.14 -6.0744 -0.888281 0
M  V30 20198 C 1872.51 -6.15961 -0.70653 0
M  V30 20199 C 1874.57 -4.85768 -1.09242 0
M  V30 20200 C 1873.27 -7.19217 -0.109362 0
M  V30 20201 C 1875.3 -5.89204 -0.509182 0
M  V30 20202 C 1874.66 -7.04396 -0.0225726 0
M  V30 20203 H 1870.76 -0.650141 -0.434557 0
M  V30 20204 H 1873.34 -1.87636 -0.51971 0
M  V30 20205 H 1871.51 -2.51871 -2.95661 0
M  V30 20206 H 1873.24 -2.76626 -2.95399 0
M  V30 20207 H 1870 -4.39604 -1.76198 0
M  V30 20208 H 1870.42 -6.74368 -0.596371 0
M  V30 20209 H 1875.07 -3.96992 -1.45455 0
M  V30 20210 H 1872.78 -8.07665 0.264973 0
M  V30 20211 H 1876.37 -5.80242 -0.425524 0
M  V30 20212 H 1875.25 -7.83066 0.421661 0
M  V30 20213 N 1872.75 0.720973 -1.40142 0
M  V30 20214 C 1874.16 1.29988 -1.34015 0
M  V30 20215 C 1874.51 1.96197 -0.0110816 0
M  V30 20216 O 1873.64 1.97207 0.890984 0
M  V30 20217 C 1874.23 2.36373 -2.42721 0
M  V30 20218 C 1872.79 2.89902 -2.40071 0
M  V30 20219 C 1871.94 1.63627 -2.23878 0
M  V30 20220 H 1874.89 0.51748 -1.50026 0
M  V30 20221 H 1874.91 3.17091 -2.10317 0
M  V30 20222 H 1874.42 1.88156 -3.39439 0
M  V30 20223 H 1872.53 3.42362 -1.47033 0
M  V30 20224 H 1872.64 3.42062 -3.35456 0
M  V30 20225 H 1871 1.88491 -1.71298 0
M  V30 20226 H 1871.79 1.17442 -3.22587 0
M  V30 20227 N 1874.23 1.25549 0.952634 0
M  V30 20228 C 1875.48 1.1058 1.7 0
M  V30 20229 C 1875.81 -0.35206 1.90982 0
M  V30 20230 O 1875.08 -1.25938 1.48222 0
M  V30 20231 C 1875.37 1.86283 3.08173 0
M  V30 20232 C 1875.22 3.39909 2.94588 0
M  V30 20233 C 1876.54 1.64755 4.08098 0
M  V30 20234 H 1873.66 0.403095 0.616996 0
M  V30 20235 H 1876.3 1.54406 1.1072 0
M  V30 20236 H 1874.45 1.49033 3.58778 0
M  V30 20237 H 1876.12 3.86845 2.51294 0
M  V30 20238 H 1874.37 3.67518 2.30462 0
M  V30 20239 H 1875.04 3.88094 3.92539 0
M  V30 20240 H 1877.51 1.97186 3.66411 0
M  V30 20241 H 1876.39 2.20157 5.02814 0
M  V30 20242 H 1876.65 0.589348 4.38154 0
M  V30 20243 N 1875.71 -1.15554 1.07168 0
M  V30 20244 C 1876.66 -2.20234 0.690348 0
M  V30 20245 C 1877.63 -1.6304 -0.317346 0
M  V30 20246 O 1878.81 -1.89704 -0.20422 0
M  V30 20247 C 1875.95 -3.44976 0.0923404 0
M  V30 20248 C 1875.06 -4.16377 1.15128 0
M  V30 20249 C 1874.2 -5.28664 0.518478 0
M  V30 20250 C 1873.24 -5.91878 1.56034 0
M  V30 20251 N 1872.37 -6.9564 0.950251 0
M  V30 20252 H 1877.21 -2.52203 1.58738 0
M  V30 20253 H 1874.75 -1.23863 0.793502 0
M  V30 20254 H 1876.71 -4.16312 -0.271985 0
M  V30 20255 H 1875.34 -3.1353 -0.768054 0
M  V30 20256 H 1874.39 -3.43556 1.63321 0
M  V30 20257 H 1875.7 -4.59472 1.94132 0
M  V30 20258 H 1874.86 -6.06615 0.101683 0
M  V30 20259 H 1873.6 -4.86756 -0.303345 0
M  V30 20260 H 1872.6 -5.12641 1.98694 0
M  V30 20261 H 1873.83 -6.35864 2.38442 0
M  V30 20262 H 1871.77 -6.5583 0.149298 0
M  V30 20263 H 1871.69 -7.37153 1.67755 0
M  V30 20264 H 1872.96 -7.77494 0.558895 0
M  V30 20265 N 1877.19 -0.855519 -1.32358 0
M  V30 20266 C 1878.42 -0.473331 -2.01413 0
M  V30 20267 C 1878.83 0.930206 -1.64294 0
M  V30 20268 O 1878.19 1.60714 -0.864705 0
M  V30 20269 C 1878.24 -0.603815 -3.56422 0
M  V30 20270 O 1877.96 -1.95207 -3.92207 0
M  V30 20271 C 1879.46 -0.220748 -4.4275 0
M  V30 20272 H 1876.68 -0.185962 -0.644716 0
M  V30 20273 H 1879.22 -1.1527 -1.68918 0
M  V30 20274 H 1877.38 0.0278263 -3.8739 0
M  V30 20275 H 1877.79 -1.94946 -4.86925 0
M  V30 20276 H 1879.27 -0.363048 -5.50805 0
M  V30 20277 H 1879.74 0.838881 -4.31114 0
M  V30 20278 H 1880.35 -0.827498 -4.17172 0
M  V30 20279 N 1878.67 1.45167 -0.61354 0
M  V30 20280 C 1879.91 2.01407 -0.10861 0
M  V30 20281 C 1880.23 1.48701 1.27072 0
M  V30 20282 O 1881.43 1.96956 1.8687 0
M  V30 20283 C 1879.89 3.59614 -0.143466 0
M  V30 20284 C 1879.5 4.21317 -1.52302 0
M  V30 20285 C 1881.24 4.23396 0.305912 0
M  V30 20286 C 1879.15 5.71694 -1.51393 0
M  V30 20287 H 1878.08 0.7531 -0.0368359 0
M  V30 20288 H 1880.73 1.66575 -0.769748 0
M  V30 20289 H 1879.11 3.91664 0.584438 0
M  V30 20290 H 1880.29 4.00832 -2.2731 0
M  V30 20291 H 1878.6 3.69753 -1.91499 0
M  V30 20292 H 1881.2 5.33668 0.331977 0
M  V30 20293 H 1881.54 3.9449 1.32978 0
M  V30 20294 H 1882.07 3.96086 -0.36892 0
M  V30 20295 H 1878.81 6.05308 -2.5156 0
M  V30 20296 H 1878.33 5.94353 -0.80652 0
M  V30 20297 H 1880.01 6.35003 -1.24017 0
M  V30 20298 N 1880.14 0.353044 1.53595 0
M  V30 20299 C 1881.09 -0.515504 2.22096 0
M  V30 20300 C 1882.08 -1.05861 1.2117 0
M  V30 20301 O 1883.27 -0.990737 1.46674 0
M  V30 20302 C 1880.4 -1.66112 3.00436 0
M  V30 20303 C 1879.48 -1.1315 4.08727 0
M  V30 20304 N 1879.88 -0.323846 5.04762 0
M  V30 20305 C 1878.17 -1.4075 4.23209 0
M  V30 20306 C 1878.87 -0.0353104 5.81689 0
M  V30 20307 N 1877.85 -0.629542 5.39942 0
M  V30 20308 H 1881.65 0.108512 2.937 0
M  V30 20309 H 1879.17 0.1604 1.61606 0
M  V30 20310 H 1881.16 -2.29541 3.48018 0
M  V30 20311 H 1879.82 -2.28832 2.3036 0
M  V30 20312 H 1880.83 0.0358889 5.17888 0
M  V30 20313 H 1877.51 -2.0384 3.64357 0
M  V30 20314 H 1878.9 0.616806 6.69063 0
M  V30 20315 N 1881.62 -1.57387 0.0818932 0
M  V30 20316 C 1882.85 -1.98201 -0.593645 0
M  V30 20317 C 1883.26 -0.960602 -1.62536 0
M  V30 20318 O 1882.62 0.0514903 -1.82427 0
M  V30 20319 C 1882.67 -3.39083 -1.2532 0
M  V30 20320 O 1882.39 -4.37311 -0.262763 0
M  V30 20321 C 1883.89 -3.94827 -2.0156 0
M  V30 20322 H 1881.11 -0.651606 -0.160159 0
M  V30 20323 H 1883.66 -2.03894 0.157281 0
M  V30 20324 H 1881.81 -3.34444 -1.95514 0
M  V30 20325 H 1882.23 -5.19294 -0.737169 0
M  V30 20326 H 1883.7 -4.95594 -2.43086 0
M  V30 20327 H 1884.18 -3.31921 -2.8762 0
M  V30 20328 H 1884.78 -4.02898 -1.36211 0
M  V30 20329 N 1883.1 0.191729 -1.56429 0
M  V30 20330 C 1884.38 0.937684 -1.71659 0
M  V30 20331 C 1884.76 2.0124 -0.63762 0
M  V30 20332 O 1884.1 2.2579 0.350865 0
M  V30 20333 C 1884.31 1.52104 -3.14111 0
M  V30 20334 C 1885.66 2.00186 -3.74447 0
M  V30 20335 O 1886.69 1.61939 -3.1726 0
M  V30 20336 O 1885.55 2.70576 -4.74817 0
M  V30 20337 H 1882.64 0.439962 -0.700259 0
M  V30 20338 H 1885.19 0.181161 -1.6873 0
M  V30 20339 H 1883.96 0.746526 -3.84113 0
M  V30 20340 H 1883.58 2.3423 -3.21282 0
M  V30 20341 N 1884.58 1.50751 0.459565 0
M  V30 20342 C 1885.53 1.70997 1.57679 0
M  V30 20343 C 1886.52 0.575925 1.59309 0
M  V30 20344 O 1887.73 0.756735 1.6332 0
M  V30 20345 H 1884.1 0.539921 0.52344 0
M  V30 20346 H 1886.07 2.64693 1.37769 0
M  V30 20347 C 1884.82 1.83187 2.9553 0
M  V30 20348 H 1884.14 2.69844 2.94998 0
M  V30 20349 H 1885.58 2.01374 3.73128 0
M  V30 20350 C 1884.04 0.586222 3.31761 0
M  V30 20351 O 1884.57 -0.269358 4.00796 0
M  V30 20352 N 1882.78 0.436839 2.87298 0
M  V30 20353 H 1882.33 1.13413 2.31291 0
M  V30 20354 H 1882.28 -0.395424 3.11903 0
M  V30 20355 N 1886.06 -0.713531 1.40522 0
M  V30 20356 C 1887.3 -1.47052 1.38637 0
M  V30 20357 C 1887.62 -1.94998 -0.00984474 0
M  V30 20358 O 1886.89 -1.70486 -0.964959 0
M  V30 20359 H 1885.47 -0.545577 0.51025 0
M  V30 20360 H 1888.14 -0.84572 1.75595 0
M  V30 20361 H 1887.23 -2.34237 2.06251 0
M  V30 20362 N 1887.53 -1.26053 -0.945962 0
M  V30 20363 C 1888.76 -1.14181 -1.7314 0
M  V30 20364 C 1889.18 0.299663 -1.85698 0
M  V30 20365 O 1888.54 1.21711 -1.34373 0
M  V30 20366 C 1888.59 -1.81052 -3.11854 0
M  V30 20367 O 1887.69 -1.09606 -3.97568 0
M  V30 20368 H 1887.03 -0.398138 -0.531397 0
M  V30 20369 H 1889.56 -1.66782 -1.18511 0
M  V30 20370 H 1889.57 -1.87685 -3.62269 0
M  V30 20371 H 1888.25 -2.85921 -3.0203 0
M  V30 20372 H 1886.83 -1.10915 -3.56023 0
M  V30 20373 N 1889.01 1.14984 -1.07779 0
M  V30 20374 C 1889.96 2.2193 -0.696405 0
M  V30 20375 C 1890.95 1.66815 0.294832 0
M  V30 20376 O 1892.16 1.79305 0.158081 0
M  V30 20377 H 1888.53 0.722908 -0.207143 0
M  V30 20378 H 1890.51 2.51374 -1.60791 0
M  V30 20379 C 1889.25 3.4751 -0.114943 0
M  V30 20380 H 1888.58 3.90245 -0.86883 0
M  V30 20381 H 1890.02 4.23846 0.114195 0
M  V30 20382 C 1888.48 3.16827 1.14552 0
M  V30 20383 O 1889.01 3.34026 2.23135 0
M  V30 20384 N 1887.21 2.70836 1.05339 0
M  V30 20385 H 1886.76 2.5704 0.169728 0
M  V30 20386 H 1886.72 2.50681 1.89754 0
M  V30 20387 N 1890.49 0.862526 1.31902 0
M  V30 20388 C 1891.74 0.469775 1.96976 0
M  V30 20389 C 1892.06 -0.976339 1.6822 0
M  V30 20390 O 1891.32 -1.70131 0.967153 0
M  V30 20391 C 1891.62 0.664872 3.51161 0
M  V30 20392 C 1891.28 2.08264 3.99921 0
M  V30 20393 C 1889.95 2.47039 4.12947 0
M  V30 20394 C 1892.3 3.00762 4.25666 0
M  V30 20395 C 1889.63 3.77568 4.49065 0
M  V30 20396 C 1891.98 4.30797 4.63245 0
M  V30 20397 C 1890.64 4.69496 4.74478 0
M  V30 20398 H 1889.91 0.171903 0.720785 0
M  V30 20399 H 1892.56 1.09409 1.57169 0
M  V30 20400 H 1890.86 -0.0426255 3.91777 0
M  V30 20401 H 1892.56 0.340921 3.99548 0
M  V30 20402 H 1889.15 1.77158 3.90273 0
M  V30 20403 H 1893.34 2.72034 4.15104 0
M  V30 20404 H 1888.59 4.07323 4.55958 0
M  V30 20405 H 1892.77 5.02527 4.8212 0
M  V30 20406 H 1890.39 5.70682 5.02221 0
M  V30 20407 N 1891.97 -1.4484 0.62123 0
M  V30 20408 C 1893.2 -2.065 0.128561 0
M  V30 20409 C 1893.61 -1.46351 -1.19277 0
M  V30 20410 O 1892.97 -0.582692 -1.72948 0
M  V30 20411 C 1893.02 -3.615 -0.00297622 0
M  V30 20412 O 1892.74 -4.19407 1.26609 0
M  V30 20413 C 1894.24 -4.40174 -0.525505 0
M  V30 20414 H 1891.46 -0.666783 0.0751128 0
M  V30 20415 H 1894.01 -1.85868 0.852829 0
M  V30 20416 H 1892.16 -3.81427 -0.677635 0
M  V30 20417 H 1892.57 -5.12738 1.10454 0
M  V30 20418 H 1894.05 -5.49085 -0.566585 0
M  V30 20419 H 1894.53 -4.10918 -1.55057 0
M  V30 20420 H 1895.13 -4.25143 0.115568 0
M  V30 20421 N 1893.45 -0.361184 -1.53405 0
M  V30 20422 C 1894.67 0.233383 -2.06083 0
M  V30 20423 C 1895.1 1.42029 -1.23326 0
M  V30 20424 O 1894.45 1.79551 -0.251249 0
M  V30 20425 C 1894.5 0.609243 -3.55416 0
M  V30 20426 O 1893.61 1.70705 -3.75411 0
M  V30 20427 H 1892.95 0.035021 -0.663076 0
M  V30 20428 H 1895.48 -0.520514 -1.97868 0
M  V30 20429 H 1895.49 0.881483 -3.98364 0
M  V30 20430 H 1894.16 -0.25866 -4.15095 0
M  V30 20431 H 1892.74 1.4307 -3.44362 0
M  V30 20432 N 1894.92 1.57341 -0.0902386 0
M  V30 20433 C 1895.89 2.12619 0.855916 0
M  V30 20434 C 1896.89 1.05434 1.2141 0
M  V30 20435 O 1898.08 1.31342 1.14433 0
M  V30 20436 C 1895.21 2.64277 2.15338 0
M  V30 20437 H 1896.4 2.97533 0.376014 0
M  V30 20438 H 1893.96 1.55492 0.1587 0
M  V30 20439 H 1894.69 1.82869 2.67824 0
M  V30 20440 H 1894.48 3.4264 1.9063 0
M  V30 20441 H 1895.97 3.07055 2.83032 0
M  V30 20442 N 1896.4 -0.183431 1.56529 0
M  V30 20443 C 1897.63 -0.917888 1.85425 0
M  V30 20444 C 1898.05 -1.76353 0.674171 0
M  V30 20445 O 1897.4 -1.78975 -0.35695 0
M  V30 20446 C 1897.45 -1.80454 3.13239 0
M  V30 20447 O 1897.17 -0.993028 4.26697 0
M  V30 20448 C 1898.68 -2.64969 3.55396 0
M  V30 20449 H 1895.9 -0.267254 0.61548 0
M  V30 20450 H 1898.44 -0.187171 2.03642 0
M  V30 20451 H 1896.59 -2.48874 2.96884 0
M  V30 20452 H 1897.01 -1.59831 4.99554 0
M  V30 20453 H 1898.48 -3.22819 4.47763 0
M  V30 20454 H 1898.96 -3.3925 2.78937 0
M  V30 20455 H 1899.57 -2.01902 3.74321 0
M  V30 20456 N 1897.88 -1.50992 -0.451564 0
M  V30 20457 C 1899.13 -1.63197 -1.20394 0
M  V30 20458 C 1899.46 -0.340409 -1.91193 0
M  V30 20459 O 1898.73 0.65926 -1.82986 0
M  V30 20460 C 1899.02 -2.82567 -2.23221 0
M  V30 20461 C 1898.87 -4.2166 -1.56598 0
M  V30 20462 C 1900.19 -2.97468 -3.24347 0
M  V30 20463 H 1897.31 -0.59395 -0.43634 0
M  V30 20464 H 1899.95 -1.83437 -0.495056 0
M  V30 20465 H 1898.1 -2.65441 -2.83678 0
M  V30 20466 H 1899.77 -4.50422 -0.995877 0
M  V30 20467 H 1898.02 -4.25015 -0.86862 0
M  V30 20468 H 1898.69 -5.0115 -2.31415 0
M  V30 20469 H 1901.16 -3.13211 -2.73931 0
M  V30 20470 H 1900.04 -3.82581 -3.93603 0
M  V30 20471 H 1900.3 -2.08921 -3.89621 0
M  V30 20472 N 1899.36 0.706069 -1.40899 0
M  V30 20473 C 1900.31 1.82011 -1.41918 0
M  V30 20474 C 1901.28 1.6381 -0.274879 0
M  V30 20475 O 1902.46 1.84809 -0.474366 0
M  V30 20476 C 1899.6 3.19805 -1.29687 0
M  V30 20477 C 1898.71 3.49512 -2.53901 0
M  V30 20478 C 1897.85 4.76863 -2.34041 0
M  V30 20479 C 1896.89 4.99504 -3.53783 0
M  V30 20480 N 1896.02 6.18074 -3.33059 0
M  V30 20481 H 1900.86 1.80474 -2.37135 0
M  V30 20482 H 1898.4 0.881471 -1.17765 0
M  V30 20483 H 1900.36 3.99389 -1.206 0
M  V30 20484 H 1898.99 3.20546 -0.380837 0
M  V30 20485 H 1898.04 2.64411 -2.73479 0
M  V30 20486 H 1899.35 3.62147 -3.43002 0
M  V30 20487 H 1898.51 5.64482 -2.22361 0
M  V30 20488 H 1897.25 4.66454 -1.42379 0
M  V30 20489 H 1896.25 4.10336 -3.65929 0
M  V30 20490 H 1897.48 5.11779 -4.46385 0
M  V30 20491 H 1895.42 6.08898 -2.44088 0
M  V30 20492 H 1895.34 6.3143 -4.15731 0
M  V30 20493 H 1896.61 7.08456 -3.25131 0
M  V30 20494 N 1900.84 1.26553 0.939264 0
M  V30 20495 C 1901.8 1.08335 2.01981 0
M  V30 20496 C 1902.8 0.0310501 1.6077 0
M  V30 20497 O 1903.99 0.274627 1.72022 0
M  V30 20498 C 1901.12 0.648208 3.34681 0
M  V30 20499 H 1902.31 2.04272 2.19574 0
M  V30 20500 H 1899.87 1.09177 1.11849 0
M  V30 20501 H 1900.6 -0.313074 3.22785 0
M  V30 20502 H 1900.39 1.40806 3.65946 0
M  V30 20503 H 1901.88 0.54264 4.14059 0
M  V30 20504 N 1902.31 -1.14411 1.08387 0
M  V30 20505 C 1903.28 -2.17682 0.717433 0
M  V30 20506 C 1904.28 -1.58881 -0.24766 0
M  V30 20507 O 1905.47 -1.74179 -0.027231 0
M  V30 20508 C 1902.6 -3.40849 0.0592022 0
M  V30 20509 H 1903.79 -2.51614 1.63188 0
M  V30 20510 H 1901.35 -1.29056 0.88172 0
M  V30 20511 H 1902.08 -3.12496 -0.866987 0
M  V30 20512 H 1901.87 -3.84792 0.753477 0
M  V30 20513 H 1903.36 -4.17203 -0.182152 0
M  V30 20514 N 1903.79 -0.869509 -1.31443 0
M  V30 20515 C 1905.03 -0.486705 -1.98521 0
M  V30 20516 C 1905.4 0.943287 -1.67231 0
M  V30 20517 O 1906.6 1.43142 -2.27517 0
M  V30 20518 C 1904.87 -0.736028 -3.49739 0
M  V30 20519 S 1906.43 -0.453014 -4.36455 0
M  V30 20520 H 1903.25 -0.181701 -0.687391 0
M  V30 20521 H 1905.85 -1.12544 -1.59857 0
M  V30 20522 H 1904.55 -1.77557 -3.70002 0
M  V30 20523 H 1904.08 -0.0842742 -3.9331 0
M  V30 20524 H 1906.1 0.714891 -4.91023 0
M  V30 20525 N 1905.27 1.44508 -0.628902 0
M  V30 20526 C 1906.52 2.02909 -0.141209 0
M  V30 20527 C 1906.87 1.48569 1.2225 0
M  V30 20528 O 1906.16 0.659289 1.799 0
M  V30 20529 C 1906.36 3.57339 -0.0660437 0
M  V30 20530 C 1906.19 4.26661 -1.42092 0
M  V30 20531 C 1904.96 4.63727 -2.00713 0
M  V30 20532 C 1907.16 4.5725 -2.35429 0
M  V30 20533 N 1905.14 5.18006 -3.29459 0
M  V30 20534 C 1906.51 5.12589 -3.48788 0
M  V30 20535 C 1908.56 4.39201 -2.34535 0
M  V30 20536 C 1907.27 5.51779 -4.61446 0
M  V30 20537 C 1909.29 4.79437 -3.46257 0
M  V30 20538 C 1908.65 5.34887 -4.58339 0
M  V30 20539 H 1904.75 0.776142 -0.09554 0
M  V30 20540 H 1907.34 1.76032 -0.83191 0
M  V30 20541 H 1905.51 3.83832 0.593932 0
M  V30 20542 H 1907.24 4.02406 0.430272 0
M  V30 20543 H 1904 4.47972 -1.53682 0
M  V30 20544 H 1904.42 5.49623 -3.95276 0
M  V30 20545 H 1909.06 3.95626 -1.49131 0
M  V30 20546 H 1906.78 5.94309 -5.4756 0
M  V30 20547 H 1910.37 4.67187 -3.46739 0
M  V30 20548 H 1909.25 5.65447 -5.43359 0
M  V30 20549 N 1906.75 0.369315 1.53212 0
M  V30 20550 C 1908 -0.212093 2.02291 0
M  V30 20551 C 1908.35 -1.46118 1.25169 0
M  V30 20552 O 1907.64 -1.88595 0.337991 0
M  V30 20553 C 1907.84 -0.553392 3.5309 0
M  V30 20554 C 1907.67 0.661066 4.44815 0
M  V30 20555 C 1906.44 1.17428 4.91466 0
M  V30 20556 C 1908.63 1.52741 4.91095 0
M  V30 20557 N 1906.62 2.34837 5.67208 0
M  V30 20558 C 1907.99 2.54812 5.65218 0
M  V30 20559 C 1910.04 1.54985 4.73164 0
M  V30 20560 C 1908.75 3.58988 6.23314 0
M  V30 20561 C 1910.77 2.58056 5.32129 0
M  V30 20562 C 1910.13 3.58851 6.0614 0
M  V30 20563 H 1906.23 -0.0402269 0.780965 0
M  V30 20564 H 1908.82 0.514701 1.87774 0
M  V30 20565 H 1906.99 -1.24926 3.67761 0
M  V30 20566 H 1908.72 -1.12021 3.88887 0
M  V30 20567 H 1905.47 0.738332 4.67809 0
M  V30 20568 H 1905.9 2.94189 6.09739 0
M  V30 20569 H 1910.54 0.78411 4.15465 0
M  V30 20570 H 1908.26 4.36441 6.80106 0
M  V30 20571 H 1911.84 2.60651 5.20146 0
M  V30 20572 H 1910.72 4.37299 6.50953 0
M  V30 20573 N 1908.23 -1.57291 0.0985816 0
M  V30 20574 C 1909.19 -2.1307 -0.844628 0
M  V30 20575 C 1910.19 -1.06076 -1.20849 0
M  V30 20576 O 1911.38 -1.31947 -1.13735 0
M  V30 20577 C 1908.51 -2.65416 -2.13933 0
M  V30 20578 H 1909.71 -2.97729 -0.36023 0
M  V30 20579 H 1907.26 -1.55574 -0.150451 0
M  V30 20580 H 1907.99 -1.84287 -2.6685 0
M  V30 20581 H 1907.78 -3.43647 -1.88811 0
M  V30 20582 H 1909.27 -3.08551 -2.814 0
M  V30 20583 N 1909.71 0.175127 -1.56624 0
M  V30 20584 C 1910.95 0.890605 -1.81418 0
M  V30 20585 C 1911.27 1.82946 -0.674958 0
M  V30 20586 O 1910.54 1.93504 0.305439 0
M  V30 20587 H 1909.12 0.331864 -0.669235 0
M  V30 20588 H 1911.79 0.175855 -1.94105 0
M  V30 20589 H 1910.88 1.46979 -2.75325 0
M  V30 20590 N 1911.18 1.5123 0.44355 0
M  V30 20591 C 1912.43 1.62825 1.19041 0
M  V30 20592 C 1912.75 0.347298 1.92492 0
M  V30 20593 O 1913.95 0.342537 2.69331 0
M  V30 20594 C 1912.41 2.87532 2.16456 0
M  V30 20595 C 1912.02 4.22608 1.48682 0
M  V30 20596 C 1913.76 3.08483 2.91614 0
M  V30 20597 C 1911.67 5.38472 2.44544 0
M  V30 20598 H 1910.6 0.606444 0.448041 0
M  V30 20599 H 1913.25 1.77691 0.458065 0
M  V30 20600 H 1911.63 2.66287 2.931 0
M  V30 20601 H 1912.8 4.54212 0.776389 0
M  V30 20602 H 1911.12 4.07485 0.857007 0
M  V30 20603 H 1913.72 3.92219 3.63413 0
M  V30 20604 H 1914.06 2.2131 3.52601 0
M  V30 20605 H 1914.59 3.30039 2.22078 0
M  V30 20606 H 1911.33 6.27886 1.88255 0
M  V30 20607 H 1910.85 5.11252 3.13658 0
M  V30 20608 H 1912.53 5.70169 3.05804 0
M  V30 20609 N 1912.66 -0.698586 1.41271 0
M  V30 20610 C 1913.61 -1.81256 1.42881 0
M  V30 20611 C 1914.58 -1.63662 0.283562 0
M  V30 20612 O 1915.76 -1.84555 0.48416 0
M  V30 20613 C 1912.9 -3.19113 1.31381 0
M  V30 20614 C 1912.02 -3.4816 2.55751 0
M  V30 20615 C 1911.15 -4.75615 2.36566 0
M  V30 20616 C 1910.19 -4.9762 3.56427 0
M  V30 20617 N 1909.33 -6.16299 3.36332 0
M  V30 20618 H 1914.17 -1.79214 2.38089 0
M  V30 20619 H 1911.7 -0.875213 1.1823 0
M  V30 20620 H 1913.66 -3.98744 1.22716 0
M  V30 20621 H 1912.29 -3.20339 0.397831 0
M  V30 20622 H 1911.34 -2.62957 2.74878 0
M  V30 20623 H 1912.66 -3.60323 3.44918 0
M  V30 20624 H 1911.81 -5.63295 2.25352 0
M  V30 20625 H 1910.55 -4.65693 1.44851 0
M  V30 20626 H 1909.55 -4.0839 3.681 0
M  V30 20627 H 1910.78 -5.09404 4.49093 0
M  V30 20628 H 1908.73 -6.07595 2.47314 0
M  V30 20629 H 1908.64 -6.29216 4.19074 0
M  V30 20630 H 1909.91 -7.06722 3.28884 0
M  V30 20631 N 1914.14 -1.27049 -0.93254 0
M  V30 20632 C 1915.07 -1.05151 -2.03656 0
M  V30 20633 C 1916.08 -0.00913996 -1.62797 0
M  V30 20634 O 1917.27 -0.25017 -1.76738 0
M  V30 20635 C 1914.37 -0.572071 -3.34037 0
M  V30 20636 C 1913.55 -1.68563 -4.03615 0
M  V30 20637 C 1912.61 -1.20276 -5.12269 0
M  V30 20638 O 1911.63 -1.9015 -5.36499 0
M  V30 20639 N 1912.83 -0.0558099 -5.80473 0
M  V30 20640 H 1915.6 -2.00221 -2.23006 0
M  V30 20641 H 1913.16 -1.18551 -1.1026 0
M  V30 20642 H 1915.15 -0.233036 -4.04029 0
M  V30 20643 H 1913.72 0.285274 -3.11296 0
M  V30 20644 H 1912.94 -2.19519 -3.27422 0
M  V30 20645 H 1914.23 -2.43313 -4.46852 0
M  V30 20646 H 1913.63 0.527516 -5.63235 0
M  V30 20647 H 1912.18 0.224082 -6.51415 0
M  V30 20648 N 1915.62 1.13835 -1.08993 0
M  V30 20649 C 1916.53 2.22715 -0.73724 0
M  V30 20650 C 1917.54 1.72064 0.258869 0
M  V30 20651 O 1918.72 2.01145 0.101321 0
M  V30 20652 C 1915.78 3.46338 -0.158285 0
M  V30 20653 C 1914.85 4.11902 -1.20977 0
M  V30 20654 C 1914.08 5.29624 -0.658349 0
M  V30 20655 O 1914.3 5.68023 0.520219 0
M  V30 20656 O 1913.24 5.85121 -1.41126 0
M  V30 20657 H 1917.06 2.55247 -1.64568 0
M  V30 20658 H 1914.65 1.21882 -0.864013 0
M  V30 20659 H 1916.53 4.2109 0.161481 0
M  V30 20660 H 1915.2 3.15517 0.723235 0
M  V30 20661 H 1914.11 3.38996 -1.58216 0
M  V30 20662 H 1915.44 4.46843 -2.06378 0
M  V30 20663 N 1917.1 0.876467 1.3098 0
M  V30 20664 C 1918.34 0.49064 1.96466 0
M  V30 20665 C 1918.67 -0.958443 1.69246 0
M  V30 20666 O 1917.93 -1.69096 0.985144 0
M  V30 20667 C 1918.22 0.70208 3.50436 0
M  V30 20668 C 1917.89 2.12494 3.9769 0
M  V30 20669 C 1916.55 2.51405 4.10303 0
M  V30 20670 C 1918.9 3.0526 4.22452 0
M  V30 20671 C 1916.23 3.82309 4.45035 0
M  V30 20672 C 1918.58 4.35686 4.5865 0
M  V30 20673 C 1917.25 4.74502 4.69472 0
M  V30 20674 H 1916.52 0.179538 0.718921 0
M  V30 20675 H 1919.17 1.1107 1.55999 0
M  V30 20676 H 1917.47 -0.00106996 3.918 0
M  V30 20677 H 1919.17 0.383279 3.99164 0
M  V30 20678 H 1915.76 1.81287 3.88372 0
M  V30 20679 H 1919.94 2.76422 4.12195 0
M  V30 20680 H 1915.2 4.12136 4.51612 0
M  V30 20681 H 1919.37 5.07612 4.76763 0
M  V30 20682 H 1917 5.75976 4.9614 0
M  V30 20683 N 1918.57 -1.44173 0.636557 0
M  V30 20684 C 1919.82 -2.01594 0.142933 0
M  V30 20685 C 1920.14 -1.50366 -1.24157 0
M  V30 20686 O 1919.41 -0.709463 -1.82602 0
M  V30 20687 H 1917.99 -0.745335 0.04985 0
M  V30 20688 H 1920.65 -1.76602 0.824479 0
M  V30 20689 H 1919.75 -3.11889 0.114775 0
M  V30 20690 N 1920.05 -0.377435 -1.53014 0
M  V30 20691 C 1921.3 0.209712 -2.00607 0
M  V30 20692 C 1921.61 1.48891 -1.2685 0
M  V30 20693 O 1922.82 2.15538 -1.65093 0
M  V30 20694 C 1921.28 0.424271 -3.5739 0
M  V30 20695 C 1920.88 -0.840982 -4.40036 0
M  V30 20696 C 1922.63 0.968428 -4.13306 0
M  V30 20697 C 1920.53 -0.595355 -5.88396 0
M  V30 20698 H 1919.46 0.0821436 -0.749512 0
M  V30 20699 H 1922.12 -0.498005 -1.76613 0
M  V30 20700 H 1920.5 1.19354 -3.77585 0
M  V30 20701 H 1921.67 -1.61396 -4.31611 0
M  V30 20702 H 1919.99 -1.30922 -3.95283 0
M  V30 20703 H 1922.58 1.16771 -5.21794 0
M  V30 20704 H 1922.93 1.93405 -3.68647 0
M  V30 20705 H 1923.46 0.259025 -3.96956 0
M  V30 20706 H 1920.2 -1.53164 -6.37355 0
M  V30 20707 H 1919.72 0.138904 -5.99639 0
M  V30 20708 H 1921.4 -0.225366 -6.46607 0
M  V30 20709 N 1921.53 1.57237 -0.106922 0
M  V30 20710 C 1922.94 1.81906 0.420368 0
M  V30 20711 C 1923.29 1.02332 1.67399 0
M  V30 20712 O 1922.42 0.256247 2.14877 0
M  V30 20713 C 1923.01 3.29947 0.769432 0
M  V30 20714 C 1921.57 3.55339 1.24141 0
M  V30 20715 C 1920.72 2.76224 0.243997 0
M  V30 20716 H 1923.67 1.55184 -0.332216 0
M  V30 20717 H 1923.69 3.43916 1.62794 0
M  V30 20718 H 1923.2 3.87836 -0.14316 0
M  V30 20719 H 1921.3 3.02795 2.17131 0
M  V30 20720 H 1921.42 4.63956 1.19508 0
M  V30 20721 H 1919.78 2.44057 0.728574 0
M  V30 20722 H 1920.56 3.36867 -0.661482 0
M  V30 20723 N 1923.01 -0.166818 1.56715 0
M  V30 20724 C 1924.24 -0.896867 1.86118 0
M  V30 20725 C 1924.65 -1.76139 0.690784 0
M  V30 20726 O 1923.99 -1.80351 -0.349191 0
M  V30 20727 C 1924.05 -1.82064 3.09989 0
M  V30 20728 C 1923.72 -1.13527 4.42674 0
M  V30 20729 C 1924.71 -0.498585 5.17504 0
M  V30 20730 C 1922.4 -1.13069 4.89409 0
M  V30 20731 C 1924.39 0.13354 6.3726 0
M  V30 20732 C 1922.08 -0.494741 6.09094 0
M  V30 20733 C 1923.08 0.136265 6.82864 0
M  V30 20734 O 1922.76 0.762174 8.00279 0
M  V30 20735 H 1922.5 -0.265765 0.621567 0
M  V30 20736 H 1925.05 -0.170384 2.04692 0
M  V30 20737 H 1923.28 -2.58756 2.87372 0
M  V30 20738 H 1924.97 -2.42092 3.25801 0
M  V30 20739 H 1925.74 -0.494073 4.82477 0
M  V30 20740 H 1921.61 -1.61124 4.31926 0
M  V30 20741 H 1925.16 0.626661 6.9478 0
M  V30 20742 H 1921.06 -0.496852 6.43585 0
M  V30 20743 H 1921.82 0.66187 8.1582 0
M  V30 20744 N 1924.49 -1.51463 -0.435524 0
M  V30 20745 C 1925.43 -1.73484 -1.54939 0
M  V30 20746 C 1926.43 -0.601197 -1.58373 0
M  V30 20747 O 1927.63 -0.782622 -1.62096 0
M  V30 20748 H 1924.01 -0.54818 -0.514784 0
M  V30 20749 H 1925.98 -2.66851 -1.3354 0
M  V30 20750 C 1924.73 -1.87866 -2.92578 0
M  V30 20751 H 1924.05 -2.74503 -2.90668 0
M  V30 20752 H 1925.49 -2.07285 -3.69877 0
M  V30 20753 C 1923.95 -0.638928 -3.30786 0
M  V30 20754 O 1924.48 0.205561 -4.01174 0
M  V30 20755 N 1922.69 -0.48249 -2.86567 0
M  V30 20756 H 1922.23 -1.17078 -2.29457 0
M  V30 20757 H 1922.19 0.345753 -3.12493 0
M  V30 20758 N 1925.96 0.691085 -1.4164 0
M  V30 20759 C 1927.38 1.27116 -1.36742 0
M  V30 20760 C 1927.73 1.96129 -0.0526953 0
M  V30 20761 O 1926.85 1.99052 0.848953 0
M  V30 20762 C 1927.45 2.31171 -2.4768 0
M  V30 20763 C 1926.01 2.84744 -2.46166 0
M  V30 20764 C 1925.15 1.58841 -2.27299 0
M  V30 20765 H 1928.1 0.485541 -1.5109 0
M  V30 20766 H 1928.12 3.12559 -2.16996 0
M  V30 20767 H 1927.64 1.80913 -3.43354 0
M  V30 20768 H 1925.74 3.39167 -1.54262 0
M  V30 20769 H 1925.85 3.34869 -3.42636 0
M  V30 20770 H 1924.21 1.84815 -1.75258 0
M  V30 20771 H 1925 1.10573 -3.25005 0
M  V30 20772 N 1927.44 1.27542 0.925789 0
M  V30 20773 C 1928.37 1.06229 2.03096 0
M  V30 20774 C 1929.39 0.0177734 1.6279 0
M  V30 20775 O 1930.58 0.259539 1.76603 0
M  V30 20776 C 1927.68 0.589777 3.33729 0
M  V30 20777 C 1926.85 1.70701 4.02716 0
M  V30 20778 C 1925.91 1.22991 5.11624 0
M  V30 20779 O 1924.93 1.92993 5.35483 0
M  V30 20780 N 1926.14 0.086593 5.80435 0
M  V30 20781 H 1928.9 2.01401 2.21941 0
M  V30 20782 H 1926.46 1.19134 1.0963 0
M  V30 20783 H 1928.45 0.254459 4.03899 0
M  V30 20784 H 1927.02 -0.268762 3.11443 0
M  V30 20785 H 1926.24 2.21252 3.26253 0
M  V30 20786 H 1927.53 2.45679 4.45555 0
M  V30 20787 H 1926.93 -0.497638 5.63507 0
M  V30 20788 H 1925.49 -0.189533 6.51524 0
M  V30 20789 N 1928.92 -1.13255 1.09595 0
M  V30 20790 C 1930.15 -1.88952 0.855104 0
M  V30 20791 C 1930.57 -1.78668 -0.588174 0
M  V30 20792 O 1929.93 -1.13544 -1.41341 0
M  V30 20793 C 1929.98 -3.36461 1.29717 0
M  V30 20794 O 1929.08 -4.09863 0.456717 0
M  V30 20795 H 1928.42 -0.587432 0.309547 0
M  V30 20796 H 1930.95 -1.43282 1.46053 0
M  V30 20797 H 1930.96 -3.87291 1.28333 0
M  V30 20798 H 1929.64 -3.43263 2.34826 0
M  V30 20799 H 1928.21 -3.69042 0.535026 0
M  V30 20800 N 1930.4 -0.883401 -1.30514 0
M  V30 20801 C 1931.33 -0.306278 -2.27144 0
M  V30 20802 C 1932.34 0.538264 -1.53644 0
M  V30 20803 O 1933.53 0.35807 -1.74872 0
M  V30 20804 C 1930.63 0.583276 -3.33843 0
M  V30 20805 C 1929.81 -0.231845 -4.36785 0
M  V30 20806 C 1928.86 0.587955 -5.22905 0
M  V30 20807 O 1927.89 0.0112122 -5.69199 0
M  V30 20808 N 1929.09 1.89737 -5.48617 0
M  V30 20809 H 1931.86 -1.13674 -2.77306 0
M  V30 20810 H 1929.42 -0.746227 -1.43677 0
M  V30 20811 H 1931.41 1.13773 -3.88379 0
M  V30 20812 H 1929.98 1.31441 -2.83623 0
M  V30 20813 H 1929.2 -0.967741 -3.82137 0
M  V30 20814 H 1930.49 -0.790664 -5.02619 0
M  V30 20815 H 1929.89 2.38889 -5.12785 0
M  V30 20816 H 1928.44 2.39931 -6.06033 0
M  V30 20817 N 1931.88 1.43833 -0.644194 0
M  V30 20818 C 1933.12 2.01515 -0.153623 0
M  V30 20819 C 1933.45 1.51022 1.23358 0
M  V30 20820 O 1932.72 0.719137 1.82223 0
M  V30 20821 H 1931.3 0.74506 -0.053802 0
M  V30 20822 H 1933.96 1.76163 -0.833833 0
M  V30 20823 H 1933.05 3.11824 -0.131313 0
M  V30 20824 N 1933.35 0.385544 1.52811 0
M  V30 20825 C 1934.6 -0.198138 2.0183 0
M  V30 20826 C 1934.93 -1.46774 1.27165 0
M  V30 20827 O 1934.21 -1.90928 0.371034 0
M  V30 20828 C 1934.49 -0.469873 3.57021 0
M  V30 20829 C 1934.34 0.814756 4.42359 0
M  V30 20830 C 1935.66 -1.26209 4.21615 0
M  V30 20831 H 1932.78 -0.0705386 0.733617 0
M  V30 20832 H 1935.42 0.514372 1.82905 0
M  V30 20833 H 1933.57 -1.07684 3.73278 0
M  V30 20834 H 1935.25 1.45172 4.37862 0
M  V30 20835 H 1933.49 1.43088 4.09522 0
M  V30 20836 H 1934.16 0.57932 5.48952 0
M  V30 20837 H 1936.64 -0.748451 4.09313 0
M  V30 20838 H 1935.51 -1.42096 5.30188 0
M  V30 20839 H 1935.77 -2.27624 3.78998 0
M  V30 20840 N 1934.83 -1.57178 0.115259 0
M  V30 20841 C 1936.08 -1.95355 -0.54445 0
M  V30 20842 C 1936.41 -0.998445 -1.66567 0
M  V30 20843 O 1935.69 -0.0349993 -1.94469 0
M  V30 20844 C 1935.97 -3.43502 -1.08067 0
M  V30 20845 C 1935.82 -4.49785 0.0368794 0
M  V30 20846 C 1937.14 -3.9341 -1.97273 0
M  V30 20847 H 1934.26 -0.710338 -0.19644 0
M  V30 20848 H 1936.9 -1.89047 0.19006 0
M  V30 20849 H 1935.05 -3.49008 -1.70662 0
M  V30 20850 H 1936.72 -4.56379 0.672017 0
M  V30 20851 H 1934.97 -4.28106 0.700539 0
M  V30 20852 H 1935.64 -5.50694 -0.379481 0
M  V30 20853 H 1938.11 -3.90184 -1.44555 0
M  V30 20854 H 1936.99 -4.97596 -2.31711 0
M  V30 20855 H 1937.25 -3.33884 -2.89782 0
M  V30 20856 N 1936.31 0.158505 -1.56801 0
M  V30 20857 C 1937.22 1.2157 -2.00644 0
M  V30 20858 C 1938.24 1.47694 -0.919914 0
M  V30 20859 O 1939.41 1.59591 -1.22853 0
M  V30 20860 C 1936.48 2.53191 -2.36844 0
M  V30 20861 C 1935.54 2.34816 -3.59389 0
M  V30 20862 C 1934.77 3.60161 -3.93853 0
M  V30 20863 O 1935 4.65871 -3.29121 0
M  V30 20864 O 1933.93 3.53508 -4.8715 0
M  V30 20865 H 1937.76 0.873512 -2.90867 0
M  V30 20866 H 1935.34 0.366356 -1.44839 0
M  V30 20867 H 1937.22 3.30812 -2.6104 0
M  V30 20868 H 1935.9 2.86963 -1.4978 0
M  V30 20869 H 1934.8 1.55184 -3.40395 0
M  V30 20870 H 1936.14 2.05964 -4.47034 0
M  V30 20871 N 1937.79 1.51692 0.427485 0
M  V30 20872 C 1939.01 1.68956 1.20285 0
M  V30 20873 C 1939.44 0.390472 1.84003 0
M  V30 20874 O 1938.8 -0.650352 1.69234 0
M  V30 20875 C 1938.85 2.81368 2.25532 0
M  V30 20876 O 1937.95 2.45657 3.3125 0
M  V30 20877 H 1937.29 0.56304 0.351969 0
M  V30 20878 H 1939.82 1.98306 0.503588 0
M  V30 20879 H 1939.83 3.05742 2.70158 0
M  V30 20880 H 1938.51 3.7563 1.78535 0
M  V30 20881 H 1937.08 2.31889 2.9203 0
M  V30 20882 N 1939.27 -0.683564 1.42004 0
M  V30 20883 C 1940.2 -1.80812 1.39221 0
M  V30 20884 C 1941.18 -1.60545 0.25771 0
M  V30 20885 O 1942.36 -1.83135 0.446539 0
M  V30 20886 C 1939.49 -3.17679 1.17463 0
M  V30 20887 C 1938.54 -3.56713 2.33791 0
M  V30 20888 S 1939.37 -3.60144 3.96304 0
M  V30 20889 C 1940.52 -4.99718 3.76872 0
M  V30 20890 H 1940.76 -1.82897 2.34384 0
M  V30 20891 H 1938.29 -0.853409 1.28671 0
M  V30 20892 H 1940.25 -3.96686 1.05597 0
M  V30 20893 H 1938.91 -3.13189 0.239001 0
M  V30 20894 H 1938.1 -4.56174 2.14292 0
M  V30 20895 H 1937.7 -2.85045 2.42127 0
M  V30 20896 H 1940 -5.87555 3.37321 0
M  V30 20897 H 1940.94 -5.24261 4.75979 0
M  V30 20898 H 1941.35 -4.71823 3.09909 0
M  V30 20899 N 1940.75 -1.28031 -0.919012 0
M  V30 20900 C 1941.69 -1.11355 -2.04213 0
M  V30 20901 C 1942.69 -0.0342517 -1.69365 0
M  V30 20902 O 1943.89 -0.192628 -1.78966 0
M  V30 20903 H 1940.27 -0.343397 -0.669016 0
M  V30 20904 H 1942.24 -2.06485 -2.15421 0
M  V30 20905 C 1940.99 -0.786653 -3.38684 0
M  V30 20906 H 1940.31 -1.6091 -3.65989 0
M  V30 20907 H 1941.75 -0.709897 -4.18015 0
M  V30 20908 C 1940.21 0.509383 -3.33027 0
M  V30 20909 O 1940.74 1.54125 -3.70956 0
M  V30 20910 N 1938.95 0.508188 -2.86122 0
M  V30 20911 H 1938.49 -0.331947 -2.55452 0
M  V30 20912 H 1938.45 1.37539 -2.82719 0
M  V30 20913 N 1942.22 1.12672 -1.10194 0
M  V30 20914 C 1943.17 2.18326 -0.748496 0
M  V30 20915 C 1944.14 1.63824 0.274007 0
M  V30 20916 O 1945.33 1.90179 0.153852 0
M  V30 20917 C 1942.47 3.4461 -0.183772 0
M  V30 20918 C 1941.58 4.13178 -1.26127 0
M  V30 20919 C 1940.71 5.27103 -0.658462 0
M  V30 20920 C 1939.75 5.87533 -1.71672 0
M  V30 20921 N 1938.89 6.92876 -1.13435 0
M  V30 20922 H 1943.73 2.47906 -1.65369 0
M  V30 20923 H 1941.27 1.21715 -0.826064 0
M  V30 20924 H 1943.22 4.16887 0.161511 0
M  V30 20925 H 1941.85 3.15456 0.684657 0
M  V30 20926 H 1940.91 3.39105 -1.72372 0
M  V30 20927 H 1942.22 4.54163 -2.06246 0
M  V30 20928 H 1941.37 6.06132 -0.26248 0
M  V30 20929 H 1940.11 4.87389 0.174183 0
M  V30 20930 H 1939.12 5.07193 -2.12215 0
M  V30 20931 H 1940.34 6.29318 -2.55217 0
M  V30 20932 H 1938.29 6.55204 -0.323127 0
M  V30 20933 H 1938.2 7.32446 -1.8724 0
M  V30 20934 H 1939.47 7.75739 -0.764838 0
M  V30 20935 N 1943.7 0.89031 1.30043 0
M  V30 20936 C 1944.61 0.365266 2.31739 0
M  V30 20937 C 1945.63 -0.535219 1.65564 0
M  V30 20938 O 1946.8 -0.427058 1.9682 0
M  V30 20939 C 1943.87 -0.407009 3.44303 0
M  V30 20940 C 1942.93 0.523869 4.26092 0
M  V30 20941 C 1942.16 -0.211645 5.3328 0
M  V30 20942 O 1942.39 -1.43697 5.52003 0
M  V30 20943 O 1941.32 0.440999 6.00282 0
M  V30 20944 H 1945.15 1.20872 2.7861 0
M  V30 20945 H 1942.73 0.654319 1.34309 0
M  V30 20946 H 1944.61 -0.844074 4.1286 0
M  V30 20947 H 1943.29 -1.22668 2.99557 0
M  V30 20948 H 1942.19 1.00986 3.60212 0
M  V30 20949 H 1943.53 1.30969 4.74455 0
M  V30 20950 N 1945.18 -1.43489 0.651812 0
M  V30 20951 C 1946.11 -2.33484 -0.0271093 0
M  V30 20952 C 1947.09 -1.4939 -0.813427 0
M  V30 20953 O 1948.28 -1.78058 -0.775186 0
M  V30 20954 C 1945.41 -3.32737 -0.995143 0
M  V30 20955 C 1944.36 -4.26809 -0.319036 0
M  V30 20956 C 1943.69 -5.1609 -1.39842 0
M  V30 20957 C 1944.99 -5.16326 0.787692 0
M  V30 20958 H 1946.68 -2.90503 0.724441 0
M  V30 20959 H 1944.23 -1.39686 0.349826 0
M  V30 20960 H 1946.18 -3.94593 -1.479 0
M  V30 20961 H 1944.9 -2.73972 -1.77784 0
M  V30 20962 H 1943.56 -3.66316 0.144366 0
M  V30 20963 H 1943.21 -4.53664 -2.17251 0
M  V30 20964 H 1942.91 -5.79848 -0.951292 0
M  V30 20965 H 1944.43 -5.80819 -1.88367 0
M  V30 20966 H 1945.85 -5.71999 0.386053 0
M  V30 20967 H 1944.24 -5.88798 1.1592 0
M  V30 20968 H 1945.31 -4.56099 1.64626 0
M  V30 20969 N 1946.66 -0.393643 -1.52605 0
M  V30 20970 C 1947.6 0.439408 -2.26579 0
M  V30 20971 C 1948.57 1.05415 -1.28362 0
M  V30 20972 O 1949.76 1.08136 -1.57198 0
M  V30 20973 C 1946.9 1.55846 -3.07906 0
M  V30 20974 C 1946.01 0.966152 -4.21058 0
M  V30 20975 C 1945.15 2.05662 -4.89772 0
M  V30 20976 C 1944.19 1.44043 -5.9491 0
M  V30 20977 N 1943.32 2.47039 -6.57203 0
M  V30 20978 H 1948.16 -0.197864 -2.97342 0
M  V30 20979 H 1945.7 -0.109409 -1.46693 0
M  V30 20980 H 1947.66 2.21807 -3.53352 0
M  V30 20981 H 1946.29 2.16598 -2.39343 0
M  V30 20982 H 1945.34 0.196024 -3.79895 0
M  V30 20983 H 1946.65 0.475898 -4.96525 0
M  V30 20984 H 1945.81 2.79383 -5.38544 0
M  V30 20985 H 1944.55 2.58048 -4.13839 0
M  V30 20986 H 1943.55 0.688483 -5.45472 0
M  V30 20987 H 1944.78 0.924458 -6.72778 0
M  V30 20988 H 1942.72 2.98586 -5.84108 0
M  V30 20989 H 1942.64 2.02781 -7.28297 0
M  V30 20990 H 1943.91 3.20377 -7.10619 0
M  V30 20991 N 1948.14 1.57115 -0.123593 0
M  V30 20992 C 1949.08 2.15555 0.824912 0
M  V30 20993 C 1950.05 1.08181 1.2604 0
M  V30 20994 O 1951.24 1.36111 1.3371 0
M  V30 20995 C 1948.38 2.76288 2.06783 0
M  V30 20996 C 1947.49 3.97983 1.68029 0
M  V30 20997 C 1946.63 4.46788 2.87322 0
M  V30 20998 C 1945.66 5.61004 2.44829 0
M  V30 20999 N 1944.8 6.04532 3.57052 0
M  V30 21000 H 1949.64 2.9628 0.319726 0
M  V30 21001 H 1947.18 1.46372 0.14612 0
M  V30 21002 H 1949.14 3.09632 2.79613 0
M  V30 21003 H 1947.77 1.98245 2.54752 0
M  V30 21004 H 1946.82 3.70769 0.850542 0
M  V30 21005 H 1948.13 4.80796 1.32804 0
M  V30 21006 H 1947.28 4.82066 3.68372 0
M  V30 21007 H 1946.02 3.62934 3.25776 0
M  V30 21008 H 1945.03 5.25326 1.62213 0
M  V30 21009 H 1946.25 6.46627 2.07487 0
M  V30 21010 H 1944.2 5.23618 3.95171 0
M  V30 21011 H 1944.12 6.82212 3.25766 0
M  V30 21012 H 1945.38 6.44449 4.38527 0
M  V30 21013 N 1949.61 -0.150187 1.56883 0
M  V30 21014 C 1950.86 -0.861749 1.82364 0
M  V30 21015 C 1951.18 -1.82479 0.704319 0
M  V30 21016 O 1952.38 -2.58027 0.844649 0
M  V30 21017 C 1950.84 -1.58305 3.23214 0
M  V30 21018 C 1950.45 -0.662577 4.43073 0
M  V30 21019 C 1952.19 -2.28159 3.57972 0
M  V30 21020 C 1950.1 -1.38532 5.74946 0
M  V30 21021 H 1949.03 -0.325546 0.6801 0
M  V30 21022 H 1951.68 -0.114505 1.83142 0
M  V30 21023 H 1950.06 -2.37581 3.16814 0
M  V30 21024 H 1951.23 0.0947281 4.60703 0
M  V30 21025 H 1949.55 -0.0726217 4.16337 0
M  V30 21026 H 1952.15 -2.82865 4.53753 0
M  V30 21027 H 1952.49 -3.04501 2.83874 0
M  V30 21028 H 1953.02 -1.55805 3.66019 0
M  V30 21029 H 1949.76 -0.663808 6.5213 0
M  V30 21030 H 1949.28 -2.11542 5.61258 0
M  V30 21031 H 1950.96 -1.9271 6.17634 0
M  V30 21032 N 1951.09 -1.51916 -0.419434 0
M  V30 21033 C 1952.34 -1.64698 -1.16436 0
M  V30 21034 C 1952.65 -0.377878 -1.91915 0
M  V30 21035 O 1953.86 -0.385341 -2.68752 0
M  V30 21036 C 1952.32 -2.90939 -2.11854 0
M  V30 21037 C 1951.92 -4.2492 -1.4194 0
M  V30 21038 C 1953.67 -3.13083 -2.86669 0
M  V30 21039 C 1951.58 -5.42294 -2.35946 0
M  V30 21040 H 1950.51 -0.613496 -0.438337 0
M  V30 21041 H 1953.16 -1.78397 -0.429738 0
M  V30 21042 H 1951.54 -2.70916 -2.88826 0
M  V30 21043 H 1952.71 -4.5539 -0.70403 0
M  V30 21044 H 1951.03 -4.08797 -0.792071 0
M  V30 21045 H 1953.62 -3.97951 -3.57127 0
M  V30 21046 H 1953.97 -2.26891 -3.49036 0
M  V30 21047 H 1954.5 -3.33531 -2.168 0
M  V30 21048 H 1951.24 -6.30801 -1.78242 0
M  V30 21049 H 1950.76 -5.16177 -3.05485 0
M  V30 21050 H 1952.44 -5.74962 -2.96695 0
M  V30 21051 N 1952.57 0.676023 -1.42365 0
M  V30 21052 C 1953.82 1.43324 -1.42487 0
M  V30 21053 C 1954.14 1.94955 -0.0418589 0
M  V30 21054 O 1953.41 1.72984 0.919418 0
M  V30 21055 H 1951.99 0.531857 -0.524535 0
M  V30 21056 H 1954.65 0.798867 -1.77775 0
M  V30 21057 H 1953.75 2.28686 -2.12389 0
M  V30 21058 N 1954.05 1.28517 0.912209 0
M  V30 21059 C 1954.98 1.08378 2.01958 0
M  V30 21060 C 1955.99 0.0350385 1.62762 0
M  V30 21061 O 1957.18 0.278256 1.76318 0
M  V30 21062 C 1954.28 0.62514 3.33084 0
M  V30 21063 C 1953.46 1.74963 4.00882 0
M  V30 21064 C 1952.51 1.28411 5.10291 0
M  V30 21065 O 1951.54 1.98662 5.33406 0
M  V30 21066 N 1952.74 0.148151 5.80311 0
M  V30 21067 H 1955.51 2.03744 2.19792 0
M  V30 21068 H 1953.07 1.2029 1.0836 0
M  V30 21069 H 1955.06 0.297284 4.03607 0
M  V30 21070 H 1953.63 -0.235714 3.1171 0
M  V30 21071 H 1952.85 2.247 3.23888 0
M  V30 21072 H 1954.14 2.50391 4.42924 0
M  V30 21073 H 1953.54 -0.437843 5.64003 0
M  V30 21074 H 1952.09 -0.120419 6.51689 0
M  V30 21075 N 1955.53 -1.12086 1.1079 0
M  V30 21076 C 1956.77 -1.83949 0.853848 0
M  V30 21077 C 1957.11 -1.8407 -0.619029 0
M  V30 21078 O 1956.38 -1.28889 -1.45664 0
M  V30 21079 C 1956.66 -3.31452 1.40754 0
M  V30 21080 C 1956.52 -3.39765 2.94754 0
M  V30 21081 C 1957.84 -4.2732 1.05288 0
M  V30 21082 H 1954.95 -0.667872 0.311635 0
M  V30 21083 H 1957.6 -1.31475 1.37166 0
M  V30 21084 H 1955.75 -3.7627 0.967112 0
M  V30 21085 H 1957.42 -3.03555 3.4735 0
M  V30 21086 H 1955.66 -2.80196 3.31168 0
M  V30 21087 H 1956.33 -4.43553 3.2858 0
M  V30 21088 H 1958.81 -3.90647 1.43297 0
M  V30 21089 H 1957.68 -5.28929 1.46716 0
M  V30 21090 H 1957.95 -4.42084 -0.0372227 0
M  V30 21091 N 1957 -0.897194 -1.29569 0
M  V30 21092 C 1958.42 -0.592933 -1.48177 0
M  V30 21093 C 1958.62 0.866214 -1.81931 0
M  V30 21094 O 1957.68 1.64658 -1.91427 0
M  V30 21095 C 1958.99 -1.5166 -2.59653 0
M  V30 21096 C 1960.54 -1.52153 -2.73529 0
M  V30 21097 C 1961.01 -2.43142 -3.88131 0
M  V30 21098 N 1962.5 -2.41175 -3.9546 0
M  V30 21099 C 1963.24 -3.08283 -4.83476 0
M  V30 21100 N 1962.73 -3.84662 -5.76201 0
M  V30 21101 N 1964.53 -2.97453 -4.76946 0
M  V30 21102 H 1956.68 -1.84096 -1.05935 0
M  V30 21103 H 1958.94 -0.788701 -0.52598 0
M  V30 21104 H 1958.65 -2.55612 -2.41569 0
M  V30 21105 H 1958.52 -1.23526 -3.564 0
M  V30 21106 H 1960.91 -0.489472 -2.91012 0
M  V30 21107 H 1960.99 -1.84324 -1.77365 0
M  V30 21108 H 1960.63 -3.46441 -3.71404 0
M  V30 21109 H 1960.56 -2.08282 -4.83659 0
M  V30 21110 H 1963.05 -1.8568 -3.29137 0
M  V30 21111 H 1963.37 -4.32929 -6.4015 0
M  V30 21112 H 1961.71 -3.88769 -5.76094 0
M  V30 21113 H 1964.9 -2.37301 -4.03492 0
M  V30 21114 H 1965.08 -3.50029 -5.45329 0
M  V30 21115 N 1958.48 1.43142 -0.659413 0
M  V30 21116 C 1959.76 1.95318 -0.104973 0
M  V30 21117 C 1960.14 1.60048 1.37651 0
M  V30 21118 O 1959.49 0.888746 2.10508 0
M  V30 21119 C 1959.7 3.47161 -0.357769 0
M  V30 21120 C 1961.05 4.23766 -0.26602 0
M  V30 21121 O 1962.07 3.55012 -0.290667 0
M  V30 21122 O 1960.93 5.46152 -0.195021 0
M  V30 21123 H 1958.02 0.826978 0.0060428 0
M  V30 21124 H 1960.57 1.53049 -0.733079 0
M  V30 21125 H 1959.34 3.65983 -1.38465 0
M  V30 21126 H 1958.96 3.96443 0.303102 0
M  V30 21127 N 1959.96 0.40173 1.52394 0
M  V30 21128 C 1960.89 -0.46265 2.24482 0
M  V30 21129 C 1961.91 -1.01638 1.27175 0
M  V30 21130 O 1963.09 -0.916585 1.5317 0
M  V30 21131 C 1960.19 -1.65517 2.95732 0
M  V30 21132 C 1959.37 -1.22664 4.19848 0
M  V30 21133 C 1958.43 -2.28524 4.73987 0
M  V30 21134 O 1957.45 -1.89419 5.36758 0
M  V30 21135 N 1958.65 -3.60596 4.54918 0
M  V30 21136 H 1961.42 0.155024 2.99299 0
M  V30 21137 H 1958.98 0.228724 1.60276 0
M  V30 21138 H 1960.97 -2.35886 3.28847 0
M  V30 21139 H 1959.54 -2.17892 2.24147 0
M  V30 21140 H 1958.76 -0.351359 3.92631 0
M  V30 21141 H 1960.05 -0.917162 5.00465 0
M  V30 21142 H 1959.45 -3.95122 4.0484 0
M  V30 21143 H 1958.01 -4.26962 4.9249 0
M  V30 21144 N 1961.44 -1.57047 0.131923 0
M  V30 21145 C 1962.4 -2.14813 -0.799243 0
M  V30 21146 C 1963.4 -1.08616 -1.18572 0
M  V30 21147 O 1964.59 -1.3433 -1.10911 0
M  V30 21148 C 1961.72 -2.69894 -2.08255 0
M  V30 21149 H 1962.92 -2.98426 -0.296996 0
M  V30 21150 H 1960.47 -1.55858 -0.117418 0
M  V30 21151 H 1961.2 -1.89905 -2.62881 0
M  V30 21152 H 1960.99 -3.47574 -1.81479 0
M  V30 21153 H 1962.48 -3.14451 -2.74792 0
M  V30 21154 N 1962.92 0.141865 -1.5696 0
M  V30 21155 C 1963.83 1.19435 -2.01922 0
M  V30 21156 C 1964.84 1.4671 -0.935527 0
M  V30 21157 O 1966.02 1.58279 -1.24538 0
M  V30 21158 C 1963.08 2.50665 -2.39516 0
M  V30 21159 C 1962.14 2.30991 -3.61859 0
M  V30 21160 C 1961.38 3.55963 -3.9765 0
M  V30 21161 O 1961.6 4.62354 -3.34044 0
M  V30 21162 O 1960.53 3.48322 -4.90872 0
M  V30 21163 H 1964.36 0.842613 -2.91777 0
M  V30 21164 H 1961.95 0.350973 -1.45219 0
M  V30 21165 H 1963.83 3.28024 -2.64534 0
M  V30 21166 H 1962.5 2.85358 -1.52815 0
M  V30 21167 H 1961.41 1.51565 -3.42022 0
M  V30 21168 H 1962.74 2.01211 -4.49194 0
M  V30 21169 N 1964.39 1.52136 0.411372 0
M  V30 21170 C 1965.34 1.717 1.50011 0
M  V30 21171 C 1966.33 0.570895 1.50431 0
M  V30 21172 O 1967.52 0.827873 1.56446 0
M  V30 21173 C 1964.65 1.86904 2.87961 0
M  V30 21174 C 1963.74 3.07379 2.92197 0
M  V30 21175 N 1964.13 4.30124 2.66133 0
M  V30 21176 C 1962.42 3.07167 3.23365 0
M  V30 21177 C 1963.13 5.11579 2.76879 0
M  V30 21178 N 1962.1 4.46777 3.09663 0
M  V30 21179 H 1965.9 2.64246 1.28651 0
M  V30 21180 H 1963.42 1.50138 0.61905 0
M  V30 21181 H 1965.41 1.99036 3.6632 0
M  V30 21182 H 1964.07 0.955566 3.10321 0
M  V30 21183 H 1965.09 4.58635 2.4057 0
M  V30 21184 H 1961.76 2.25548 3.51333 0
M  V30 21185 H 1963.15 6.19362 2.60463 0
M  V30 21186 N 1965.87 -0.668464 1.42721 0
M  V30 21187 C 1966.8 -1.79375 1.49489 0
M  V30 21188 C 1967.78 -1.66442 0.350881 0
M  V30 21189 O 1968.97 -1.85767 0.566049 0
M  V30 21190 C 1966.1 -3.17712 1.40273 0
M  V30 21191 C 1965.05 -3.45389 2.52766 0
M  V30 21192 C 1964.38 -4.83367 2.28606 0
M  V30 21193 C 1965.68 -3.4165 3.95061 0
M  V30 21194 H 1967.37 -1.73968 2.43671 0
M  V30 21195 H 1964.92 -0.835548 1.1728 0
M  V30 21196 H 1966.87 -3.96173 1.43614 0
M  V30 21197 H 1965.6 -3.23811 0.425882 0
M  V30 21198 H 1964.26 -2.69292 2.48752 0
M  V30 21199 H 1963.9 -4.86124 1.292 0
M  V30 21200 H 1963.6 -5.02847 3.04005 0
M  V30 21201 H 1965.13 -5.64104 2.33707 0
M  V30 21202 H 1966.54 -4.1007 4.00644 0
M  V30 21203 H 1964.94 -3.72666 4.70362 0
M  V30 21204 H 1966.01 -2.40106 4.2128 0
M  V30 21205 N 1967.35 -1.28999 -0.905381 0
M  V30 21206 C 1968.3 -1.13642 -2.00883 0
M  V30 21207 C 1969.27 -0.0312703 -1.66071 0
M  V30 21208 O 1970.45 -0.197747 -1.89773 0
M  V30 21209 C 1967.59 -0.813027 -3.35386 0
M  V30 21210 C 1966.71 -1.99806 -3.83017 0
M  V30 21211 C 1965.84 -1.61454 -5.06069 0
M  V30 21212 C 1964.88 -2.76572 -5.46054 0
M  V30 21213 N 1964.02 -2.38655 -6.60294 0
M  V30 21214 H 1968.86 -2.08052 -2.1335 0
M  V30 21215 H 1966.39 -1.03539 -1.0449 0
M  V30 21216 H 1968.35 -0.606238 -4.12772 0
M  V30 21217 H 1966.98 0.094156 -3.22663 0
M  V30 21218 H 1966.03 -2.31672 -3.01715 0
M  V30 21219 H 1967.35 -2.86084 -4.08604 0
M  V30 21220 H 1966.5 -1.3703 -5.91023 0
M  V30 21221 H 1965.24 -0.723154 -4.82309 0
M  V30 21222 H 1964.24 -3.01684 -4.59638 0
M  V30 21223 H 1965.47 -3.66365 -5.71798 0
M  V30 21224 H 1963.42 -1.51997 -6.38148 0
M  V30 21225 H 1963.33 -3.18468 -6.85649 0
M  V30 21226 H 1964.6 -2.17536 -7.48531 0
M  V30 21227 N 1968.83 1.11497 -1.11383 0
M  V30 21228 C 1970.06 1.87027 -0.884793 0
M  V30 21229 C 1970.47 1.80136 0.565362 0
M  V30 21230 O 1969.83 1.18222 1.39032 0
M  V30 21231 C 1969.88 3.35862 -1.33713 0
M  V30 21232 O 1969.6 3.42606 -2.73043 0
M  V30 21233 C 1971.1 4.283 -1.14342 0
M  V30 21234 H 1968.32 0.591449 -0.316905 0
M  V30 21235 H 1970.87 1.4102 -1.481 0
M  V30 21236 H 1969.02 3.79376 -0.784385 0
M  V30 21237 H 1969.44 4.35278 -2.92632 0
M  V30 21238 H 1970.91 5.30975 -1.50894 0
M  V30 21239 H 1971.39 4.39122 -0.0829321 0
M  V30 21240 H 1971.99 3.90578 -1.68312 0
M  V30 21241 N 1970.31 0.904053 1.29092 0
M  V30 21242 C 1971.27 0.389889 2.25859 0
M  V30 21243 C 1972.27 -0.47836 1.5352 0
M  V30 21244 O 1973.46 -0.282793 1.71889 0
M  V30 21245 C 1970.59 -0.442126 3.38021 0
M  V30 21246 H 1971.79 1.24458 2.72856 0
M  V30 21247 H 1969.34 0.68258 1.40608 0
M  V30 21248 H 1970.07 -1.31662 2.96371 0
M  V30 21249 H 1969.86 0.180067 3.91686 0
M  V30 21250 H 1971.35 -0.793021 4.10001 0
M  V30 21251 N 1971.79 -1.4279 0.666995 0
M  V30 21252 C 1973.03 -2.01942 0.186305 0
M  V30 21253 C 1973.36 -1.52579 -1.20139 0
M  V30 21254 O 1972.64 -0.724677 -1.80496 0
M  V30 21255 C 1972.92 -3.59474 0.212322 0
M  V30 21256 C 1972.78 -4.19035 1.63491 0
M  V30 21257 C 1974.09 -4.37857 -0.443762 0
M  V30 21258 H 1971.21 -0.733747 0.0691733 0
M  V30 21259 H 1973.86 -1.69912 0.850298 0
M  V30 21260 H 1972.01 -3.86892 -0.353062 0
M  V30 21261 H 1973.68 -4.02598 2.25195 0
M  V30 21262 H 1971.92 -3.75161 2.178 0
M  V30 21263 H 1972.59 -5.28155 1.60486 0
M  V30 21264 H 1975.07 -4.16083 0.0374331 0
M  V30 21265 H 1973.94 -5.47478 -0.394887 0
M  V30 21266 H 1974.2 -4.15144 -1.52012 0
M  V30 21267 N 1973.26 -0.409806 -1.52179 0
M  V30 21268 C 1974.2 0.450738 -2.24724 0
M  V30 21269 C 1975.21 1.00962 -1.27713 0
M  V30 21270 O 1976.4 0.908449 -1.53654 0
M  V30 21271 C 1973.5 1.63947 -2.96605 0
M  V30 21272 C 1972.67 1.20435 -4.20493 0
M  V30 21273 C 1971.73 2.26007 -4.75192 0
M  V30 21274 O 1970.76 1.86569 -5.37755 0
M  V30 21275 N 1971.96 3.58179 -4.56824 0
M  V30 21276 H 1974.72 -0.170894 -2.99212 0
M  V30 21277 H 1972.28 -0.237221 -1.60153 0
M  V30 21278 H 1974.28 2.34138 -3.30093 0
M  V30 21279 H 1972.85 2.16701 -2.25299 0
M  V30 21280 H 1972.07 0.330532 -3.92812 0
M  V30 21281 H 1973.35 0.890608 -5.00945 0
M  V30 21282 H 1972.75 3.92969 -4.0693 0
M  V30 21283 H 1971.31 4.24345 -4.94747 0
M  V30 21284 N 1974.74 1.56975 -0.14025 0
M  V30 21285 C 1975.67 2.12183 0.839848 0
M  V30 21286 C 1976.65 1.04364 1.24687 0
M  V30 21287 O 1977.84 1.32153 1.34417 0
M  V30 21288 C 1974.96 2.636 2.1268 0
M  V30 21289 C 1974.01 3.83503 1.86622 0
M  V30 21290 S 1974.84 5.24837 1.0633 0
M  V30 21291 C 1976 5.79638 2.36159 0
M  V30 21292 H 1976.23 2.94984 0.370337 0
M  V30 21293 H 1973.76 1.54223 0.0739155 0
M  V30 21294 H 1975.72 2.93875 2.86614 0
M  V30 21295 H 1974.38 1.80942 2.56747 0
M  V30 21296 H 1973.58 4.177 2.82033 0
M  V30 21297 H 1973.18 3.53954 1.208 0
M  V30 21298 H 1975.47 5.90658 3.31858 0
M  V30 21299 H 1976.41 6.77328 2.06476 0
M  V30 21300 H 1976.82 5.07837 2.46499 0
M  V30 21301 N 1976.22 -0.133539 1.57033 0
M  V30 21302 C 1977.18 -1.14845 1.98351 0
M  V30 21303 C 1978.18 -1.3512 0.871734 0
M  V30 21304 O 1979.37 -1.31884 1.13808 0
M  V30 21305 C 1976.5 -2.506 2.31111 0
M  V30 21306 H 1977.7 -0.793667 2.89207 0
M  V30 21307 H 1975.25 -0.377348 1.51677 0
M  V30 21308 H 1975.99 -2.91026 1.43089 0
M  V30 21309 H 1975.77 -2.37242 3.12184 0
M  V30 21310 H 1977.26 -3.23672 2.63868 0
M  V30 21311 N 1977.7 -1.52352 -0.403298 0
M  V30 21312 C 1978.94 -1.66944 -1.15141 0
M  V30 21313 C 1979.28 -0.401064 -1.90013 0
M  V30 21314 O 1978.55 0.60071 -1.84991 0
M  V30 21315 C 1978.83 -2.89526 -2.14118 0
M  V30 21316 C 1978.69 -4.26428 -1.43104 0
M  V30 21317 C 1980.01 -3.07636 -3.14719 0
M  V30 21318 H 1977.13 -0.607531 -0.417223 0
M  V30 21319 H 1979.77 -1.84919 -0.436447 0
M  V30 21320 H 1977.92 -2.74332 -2.7509 0
M  V30 21321 H 1979.59 -4.53362 -0.852075 0
M  V30 21322 H 1977.83 -4.27563 -0.732965 0
M  V30 21323 H 1978.5 -5.08258 -2.15355 0
M  V30 21324 H 1980.98 -3.21767 -2.63828 0
M  V30 21325 H 1979.86 -3.94909 -3.81232 0
M  V30 21326 H 1980.12 -2.2121 -3.82777 0
M  V30 21327 N 1979.18 0.660885 -1.43074 0
M  V30 21328 C 1980.42 1.42086 -1.44284 0
M  V30 21329 C 1980.75 1.94394 -0.0643177 0
M  V30 21330 O 1980.01 1.72217 0.929509 0
M  V30 21331 C 1980.3 2.6246 -2.42589 0
M  V30 21332 C 1979.97 2.28615 -3.88647 0
M  V30 21333 C 1978.63 2.19096 -4.28428 0
M  V30 21334 C 1980.98 2.0139 -4.8072 0
M  V30 21335 C 1978.31 1.80498 -5.58245 0
M  V30 21336 C 1980.66 1.64293 -6.10893 0
M  V30 21337 C 1979.33 1.53294 -6.49659 0
M  V30 21338 H 1978.6 0.519929 -0.527973 0
M  V30 21339 H 1981.25 0.752296 -1.76104 0
M  V30 21340 H 1979.55 3.34413 -2.04145 0
M  V30 21341 H 1981.25 3.20662 -2.40784 0
M  V30 21342 H 1977.84 2.36931 -3.57158 0
M  V30 21343 H 1982.02 2.0767 -4.50763 0
M  V30 21344 H 1977.28 1.70563 -5.87127 0
M  V30 21345 H 1981.45 1.42256 -6.81716 0
M  V30 21346 H 1979.08 1.23156 -7.50158 0
M  V30 21347 N 1980.65 1.29477 0.898527 0
M  V30 21348 C 1981.9 1.16888 1.64378 0
M  V30 21349 C 1982.22 -0.278503 1.93607 0
M  V30 21350 O 1983.42 -0.525728 2.66361 0
M  V30 21351 C 1981.88 2.0444 2.96196 0
M  V30 21352 C 1981.49 3.54008 2.74558 0
M  V30 21353 C 1983.23 2.00578 3.74124 0
M  V30 21354 C 1981.14 4.33661 4.0211 0
M  V30 21355 H 1980.07 0.433875 0.616659 0
M  V30 21356 H 1982.72 1.54125 0.995881 0
M  V30 21357 H 1981.1 1.60073 3.62205 0
M  V30 21358 H 1982.27 4.06435 2.17135 0
M  V30 21359 H 1980.59 3.59553 2.10025 0
M  V30 21360 H 1983.19 2.57348 4.68696 0
M  V30 21361 H 1983.53 0.98604 4.04454 0
M  V30 21362 H 1984.06 2.42995 3.14957 0
M  V30 21363 H 1980.8 5.36276 3.76946 0
M  V30 21364 H 1980.32 3.86003 4.59088 0
M  V30 21365 H 1982 4.44385 4.70246 0
M  V30 21366 N 1982.13 -1.10905 1.11972 0
M  V30 21367 C 1983.08 -2.15236 0.752149 0
M  V30 21368 C 1984.07 -1.59 -0.246511 0
M  V30 21369 O 1985.26 -1.76921 -0.0527613 0
M  V30 21370 C 1982.39 -3.42699 0.20307 0
M  V30 21371 C 1981.47 -4.0588 1.22973 0
M  V30 21372 N 1981.86 -4.43836 2.42576 0
M  V30 21373 C 1980.16 -4.32877 1.07395 0
M  V30 21374 C 1980.86 -4.93408 3.08097 0
M  V30 21375 N 1979.84 -4.89911 2.35559 0
M  V30 21376 H 1983.64 -2.42369 1.66236 0
M  V30 21377 H 1981.16 -1.27977 0.999785 0
M  V30 21378 H 1983.15 -4.16826 -0.0784271 0
M  V30 21379 H 1981.81 -3.17028 -0.70166 0
M  V30 21380 H 1982.82 -4.35688 2.79993 0
M  V30 21381 H 1979.5 -4.16887 0.22612 0
M  V30 21382 H 1980.89 -5.32363 4.09926 0
M  V30 21383 N 1983.61 -0.910886 -1.2861 0
M  V30 21384 C 1984.56 -0.387197 -2.29355 0
M  V30 21385 C 1985.55 0.519603 -1.61234 0
M  V30 21386 O 1986.76 0.401165 -1.75473 0
M  V30 21387 H 1983.13 -0.106607 -0.744405 0
M  V30 21388 H 1985.1 -1.25002 -2.70956 0
M  V30 21389 C 1983.85 0.360115 -3.4583 0
M  V30 21390 H 1983.18 -0.328438 -3.98449 0
M  V30 21391 H 1984.62 0.69123 -4.18328 0
M  V30 21392 C 1983.08 1.56695 -2.98242 0
M  V30 21393 O 1983.61 2.66609 -3.00471 0
M  V30 21394 N 1981.81 1.41295 -2.53937 0
M  V30 21395 H 1981.36 0.51873 -2.52323 0
M  V30 21396 H 1981.32 2.22172 -2.22457 0
M  V30 21397 N 1985.09 1.42434 -0.674558 0
M  V30 21398 C 1986.34 2.01542 -0.196721 0
M  V30 21399 C 1986.66 1.53331 1.19666 0
M  V30 21400 O 1985.92 0.726066 1.81733 0
M  V30 21401 C 1986.22 3.56948 -0.179695 0
M  V30 21402 C 1985.88 4.2459 -1.51771 0
M  V30 21403 C 1984.55 4.42782 -1.88407 0
M  V30 21404 C 1986.9 4.6271 -2.39893 0
M  V30 21405 C 1984.23 4.96367 -3.12789 0
M  V30 21406 C 1986.58 5.17675 -3.63587 0
M  V30 21407 C 1985.24 5.34081 -4.00392 0
M  V30 21408 H 1984.51 0.737495 -0.0719853 0
M  V30 21409 H 1987.16 1.70622 -0.869495 0
M  V30 21410 H 1985.46 3.87534 0.576588 0
M  V30 21411 H 1987.16 4.00464 0.207226 0
M  V30 21412 H 1983.75 4.10789 -1.22271 0
M  V30 21413 H 1987.93 4.48328 -2.12874 0
M  V30 21414 H 1983.19 5.07254 -3.41326 0
M  V30 21415 H 1987.36 5.46156 -4.32072 0
M  V30 21416 H 1984.99 5.75366 -4.96848 0
M  V30 21417 N 1986.57 0.417871 1.51959 0
M  V30 21418 C 1987.51 -0.403305 2.27249 0
M  V30 21419 C 1988.48 -1.0336 1.30023 0
M  V30 21420 O 1989.67 -1.05621 1.58899 0
M  V30 21421 C 1986.81 -1.50928 3.10346 0
M  V30 21422 C 1985.92 -0.899043 4.22541 0
M  V30 21423 C 1985.06 -1.97844 4.92982 0
M  V30 21424 C 1984.1 -1.3456 5.97126 0
M  V30 21425 N 1983.23 -2.36552 6.6105 0
M  V30 21426 H 1988.07 0.245143 2.9699 0
M  V30 21427 H 1985.61 0.132733 1.465 0
M  V30 21428 H 1987.57 -2.16157 3.56836 0
M  V30 21429 H 1986.2 -2.12763 2.42759 0
M  V30 21430 H 1985.25 -0.135561 3.80158 0
M  V30 21431 H 1986.56 -0.396845 4.97219 0
M  V30 21432 H 1985.72 -2.7078 5.42921 0
M  V30 21433 H 1984.45 -2.51432 4.17892 0
M  V30 21434 H 1983.46 -0.601616 5.46499 0
M  V30 21435 H 1984.68 -0.817308 6.74164 0
M  V30 21436 H 1982.63 -2.89256 5.88784 0
M  V30 21437 H 1982.55 -1.91169 7.3143 0
M  V30 21438 H 1983.82 -3.09031 7.15626 0
M  V30 21439 N 1988.04 -1.56898 0.148573 0
M  V30 21440 C 1989.46 -1.58241 -0.207826 0
M  V30 21441 C 1989.66 -1.16291 -1.64556 0
M  V30 21442 O 1988.72 -0.863939 -2.3726 0
M  V30 21443 C 1990.03 -3.00654 0.0523559 0
M  V30 21444 C 1991.58 -3.12998 -0.0112297 0
M  V30 21445 C 1992.05 -4.57463 0.221641 0
M  V30 21446 N 1993.54 -4.62893 0.168624 0
M  V30 21447 C 1994.28 -5.72488 0.323296 0
M  V30 21448 N 1993.77 -6.90725 0.535776 0
M  V30 21449 N 1995.57 -5.61495 0.26079 0
M  V30 21450 H 1987.72 -1.82459 1.08731 0
M  V30 21451 H 1989.98 -0.8446 0.430529 0
M  V30 21452 H 1989.69 -3.3574 1.04745 0
M  V30 21453 H 1989.56 -3.71268 -0.666346 0
M  V30 21454 H 1991.95 -2.77752 -0.996873 0
M  V30 21455 H 1992.03 -2.44868 0.739826 0
M  V30 21456 H 1991.67 -4.93413 1.20439 0
M  V30 21457 H 1991.6 -5.23722 -0.549756 0
M  V30 21458 H 1994.09 -3.77899 0.00911581 0
M  V30 21459 H 1994.41 -7.70113 0.643862 0
M  V30 21460 H 1992.75 -6.92641 0.572117 0
M  V30 21461 H 1995.94 -4.68002 0.095543 0
M  V30 21462 H 1996.12 -6.46857 0.384765 0
M  V30 21463 N 1989.52 0.125209 -1.57102 0
M  V30 21464 C 1990.47 1.15387 -1.99886 0
M  V30 21465 C 1991.44 1.41494 -0.869974 0
M  V30 21466 O 1992.62 1.53464 -1.13372 0
M  V30 21467 C 1989.76 2.47687 -2.40302 0
M  V30 21468 C 1988.88 2.28568 -3.6658 0
M  V30 21469 C 1988.01 3.54056 -3.96003 0
M  V30 21470 C 1987.05 3.30067 -5.15482 0
M  V30 21471 N 1986.19 4.47741 -5.40807 0
M  V30 21472 H 1991.03 0.782018 -2.87556 0
M  V30 21473 H 1988.57 0.374655 -1.42249 0
M  V30 21474 H 1990.52 3.24858 -2.61769 0
M  V30 21475 H 1989.15 2.82777 -1.55683 0
M  V30 21476 H 1988.21 1.42345 -3.52764 0
M  V30 21477 H 1989.52 2.06815 -4.53904 0
M  V30 21478 H 1988.67 4.39647 -4.18085 0
M  V30 21479 H 1987.41 3.78834 -3.07142 0
M  V30 21480 H 1986.42 2.42866 -4.93251 0
M  V30 21481 H 1987.64 3.06666 -6.05915 0
M  V30 21482 H 1985.59 4.72652 -4.54902 0
M  V30 21483 H 1985.5 4.2907 -6.22442 0
M  V30 21484 H 1986.77 5.34484 -5.67404 0
M  V30 21485 N 1991 1.52564 0.395213 0
M  V30 21486 C 1992.25 1.66974 1.1386 0
M  V30 21487 C 1992.57 0.409016 1.90662 0
M  V30 21488 O 1991.84 -0.576451 1.87227 0
M  V30 21489 H 1990.42 0.61548 0.423313 0
M  V30 21490 H 1993.08 1.89657 0.449024 0
M  V30 21491 H 1992.18 2.5173 1.84496 0
M  V30 21492 N 1992.48 -0.653289 1.43422 0
M  V30 21493 C 1993.73 -1.41039 1.44749 0
M  V30 21494 C 1994.05 -1.94864 0.0728692 0
M  V30 21495 O 1993.32 -1.74425 -0.891782 0
M  V30 21496 H 1991.9 -0.523445 0.53293 0
M  V30 21497 H 1994.56 -0.770483 1.79024 0
M  V30 21498 H 1993.66 -2.25278 2.16001 0
M  V30 21499 N 1993.96 -1.29952 -0.891648 0
M  V30 21500 C 1995.21 -1.17758 -1.63756 0
M  V30 21501 C 1995.52 0.268231 -1.93752 0
M  V30 21502 O 1996.72 0.511595 -2.66636 0
M  V30 21503 C 1995.18 -2.06008 -2.95108 0
M  V30 21504 C 1994.79 -3.55459 -2.72677 0
M  V30 21505 C 1996.53 -2.0256 -3.73055 0
M  V30 21506 C 1994.44 -4.35787 -3.99805 0
M  V30 21507 H 1993.37 -0.437139 -0.61435 0
M  V30 21508 H 1996.02 -1.54651 -0.987694 0
M  V30 21509 H 1994.4 -1.61991 -3.61351 0
M  V30 21510 H 1995.58 -4.0758 -2.14977 0
M  V30 21511 H 1993.89 -3.60662 -2.08115 0
M  V30 21512 H 1996.49 -2.5983 -4.67325 0
M  V30 21513 H 1996.83 -1.00748 -4.03925 0
M  V30 21514 H 1997.36 -2.44662 -3.13664 0
M  V30 21515 H 1994.1 -5.38268 -3.74096 0
M  V30 21516 H 1993.62 -3.88432 -4.57035 0
M  V30 21517 H 1995.3 -4.46872 -4.67883 0
M  V30 21518 N 1995.44 1.1031 -1.12559 0
M  V30 21519 C 1996.68 1.81937 -0.879957 0
M  V30 21520 C 1997 1.85675 0.595811 0
M  V30 21521 O 1996.27 1.33574 1.433 0
M  V30 21522 H 1994.85 0.67377 -0.322556 0
M  V30 21523 H 1997.52 1.33464 -1.42033 0
M  V30 21524 H 1996.61 2.8542 -1.26261 0
M  V30 21525 N 1996.91 0.917694 1.28125 0
M  V30 21526 C 1998.16 0.551804 1.94421 0
M  V30 21527 C 1998.48 -0.908163 1.72561 0
M  V30 21528 O 1997.75 -1.64255 1.06758 0
M  V30 21529 H 1996.33 0.201081 0.719427 0
M  V30 21530 H 1998.99 1.16791 1.56032 0
M  V30 21531 H 1998.09 0.749587 3.02965 0
M  V30 21532 N 1998.39 -1.42074 0.682102 0
M  V30 21533 C 1999.62 -2.05471 0.215716 0
M  V30 21534 C 2000.03 -1.51372 -1.13504 0
M  V30 21535 O 1999.37 -0.651251 -1.71768 0
M  V30 21536 C 1999.43 -3.59408 0.0812503 0
M  V30 21537 C 1999.1 -4.36236 1.36189 0
M  V30 21538 C 2000.1 -4.6641 2.29691 0
M  V30 21539 C 1997.78 -4.75747 1.61152 0
M  V30 21540 C 1999.77 -5.35039 3.46428 0
M  V30 21541 C 1997.46 -5.44115 2.78176 0
M  V30 21542 C 1998.46 -5.73687 3.70638 0
M  V30 21543 O 1998.15 -6.40651 4.85615 0
M  V30 21544 H 1997.88 -0.668449 0.100755 0
M  V30 21545 H 2000.43 -1.83072 0.931332 0
M  V30 21546 H 1998.66 -3.80494 -0.690014 0
M  V30 21547 H 2000.35 -4.04421 -0.346206 0
M  V30 21548 H 2001.12 -4.36378 2.11658 0
M  V30 21549 H 1997 -4.52119 0.900512 0
M  V30 21550 H 2000.54 -5.58037 4.18617 0
M  V30 21551 H 1996.44 -5.73565 2.96132 0
M  V30 21552 H 1997.21 -6.59144 4.85254 0
M  V30 21553 N 1999.87 -0.425924 -1.51735 0
M  V30 21554 C 2001.09 0.145767 -2.06887 0
M  V30 21555 C 2001.52 1.36671 -1.29239 0
M  V30 21556 O 2000.88 1.78323 -0.327176 0
M  V30 21557 C 2000.93 0.457951 -3.5768 0
M  V30 21558 O 2000.03 1.54629 -3.82314 0
M  V30 21559 H 1999.37 0.00686619 -0.663964 0
M  V30 21560 H 2001.9 -0.603968 -1.95482 0
M  V30 21561 H 2001.91 0.71173 -4.01744 0
M  V30 21562 H 2000.59 -0.434483 -4.13624 0
M  V30 21563 H 1999.16 1.28336 -3.5012 0
M  V30 21564 N 2001.35 1.56817 -0.156891 0
M  V30 21565 C 2002.31 2.16058 0.764967 0
M  V30 21566 C 2003.31 1.10488 1.16829 0
M  V30 21567 O 2004.5 1.36077 1.0876 0
M  V30 21568 C 2001.63 2.73173 2.03935 0
M  V30 21569 H 2002.83 2.98861 0.249482 0
M  V30 21570 H 2000.38 1.56025 0.0926074 0
M  V30 21571 H 2001.11 1.94064 2.59827 0
M  V30 21572 H 2000.9 3.50417 1.75926 0
M  V30 21573 H 2002.39 3.18783 2.69754 0
M  V30 21574 N 2002.83 -0.116876 1.57166 0
M  V30 21575 C 2004.07 -0.822659 1.84599 0
M  V30 21576 C 2004.39 -1.80315 0.742392 0
M  V30 21577 O 2003.66 -1.94505 -0.233411 0
M  V30 21578 H 2002.24 -0.306797 0.681091 0
M  V30 21579 H 2004.91 -0.103693 1.94624 0
M  V30 21580 H 2004 -1.36659 2.8059 0
M  V30 21581 N 2004.3 -1.52772 -0.387116 0
M  V30 21582 C 2005.21 -1.8061 -1.49724 0
M  V30 21583 C 2006.23 -0.692981 -1.59605 0
M  V30 21584 O 2007.41 -0.98077 -1.75906 0
M  V30 21585 C 2004.47 -1.97083 -2.85236 0
M  V30 21586 C 2003.53 -3.20997 -2.8506 0
M  V30 21587 C 2002.76 -3.36675 -4.14108 0
M  V30 21588 O 2002.99 -2.57118 -5.09163 0
M  V30 21589 O 2001.92 -4.29938 -4.21233 0
M  V30 21590 H 2005.75 -2.7488 -1.2913 0
M  V30 21591 H 2003.33 -1.37886 -0.57514 0
M  V30 21592 H 2005.21 -2.09614 -3.65568 0
M  V30 21593 H 2003.89 -1.06002 -3.05852 0
M  V30 21594 H 2002.8 -3.13907 -2.03503 0
M  V30 21595 H 2004.13 -4.1193 -2.69396 0
M  V30 21596 N 2005.78 0.645673 -1.43767 0
M  V30 21597 C 2007.2 0.962209 -1.27333 0
M  V30 21598 C 2007.4 2.0052 -0.198519 0
M  V30 21599 O 2006.45 2.48974 0.420512 0
M  V30 21600 C 2007.77 1.4393 -2.64016 0
M  V30 21601 C 2009.31 1.55555 -2.71609 0
M  V30 21602 C 2009.79 2.06652 -4.08728 0
M  V30 21603 N 2011.28 2.13944 -4.10831 0
M  V30 21604 C 2012.02 2.54619 -5.13767 0
M  V30 21605 N 2011.51 2.94536 -6.27073 0
M  V30 21606 N 2013.3 2.54625 -5.01121 0
M  V30 21607 H 2005.46 -0.0443554 -2.12354 0
M  V30 21608 H 2007.72 0.042755 -0.947035 0
M  V30 21609 H 2007.42 0.747304 -3.43669 0
M  V30 21610 H 2007.3 2.41297 -2.89923 0
M  V30 21611 H 2009.69 2.23854 -1.92285 0
M  V30 21612 H 2009.77 0.566006 -2.49459 0
M  V30 21613 H 2009.41 1.38952 -4.88523 0
M  V30 21614 H 2009.34 3.06451 -4.28247 0
M  V30 21615 H 2011.83 1.85838 -3.29048 0
M  V30 21616 H 2012.14 3.24345 -7.01442 0
M  V30 21617 H 2010.49 2.92323 -6.30533 0
M  V30 21618 H 2013.68 2.22822 -4.11665 0
M  V30 21619 H 2013.85 2.86002 -5.81469 0
M  V30 21620 N 2007.26 1.30423 0.884744 0
M  V30 21621 C 2008.51 1.18625 1.63129 0
M  V30 21622 C 2008.82 -0.257953 1.93892 0
M  V30 21623 O 2010.03 -0.497448 2.66904 0
M  V30 21624 C 2008.48 2.0757 2.94011 0
M  V30 21625 C 2008.09 3.569 2.70788 0
M  V30 21626 C 2009.84 2.04535 3.71975 0
M  V30 21627 C 2007.74 4.37901 3.97488 0
M  V30 21628 H 2006.67 0.440391 0.612023 0
M  V30 21629 H 2009.32 1.55172 0.979478 0
M  V30 21630 H 2007.71 1.63905 3.60487 0
M  V30 21631 H 2008.88 4.08715 2.12812 0
M  V30 21632 H 2007.19 3.61761 2.06199 0
M  V30 21633 H 2009.79 2.62305 4.6594 0
M  V30 21634 H 2010.13 1.02888 4.03385 0
M  V30 21635 H 2010.67 2.46322 3.12362 0
M  V30 21636 H 2007.41 5.40244 3.71236 0
M  V30 21637 H 2006.93 3.9085 4.54968 0
M  V30 21638 H 2008.61 4.49347 4.65506 0
M  V30 21639 N 2008.74 -1.09711 1.13142 0
M  V30 21640 C 2009.98 -1.82097 0.892675 0
M  V30 21641 C 2010.32 -1.85341 -0.579846 0
M  V30 21642 O 2009.59 -1.3195 -1.42897 0
M  V30 21643 C 2009.87 -3.28392 1.47752 0
M  V30 21644 C 2009.73 -3.33436 3.01895 0
M  V30 21645 C 2011.05 -4.24991 1.14329 0
M  V30 21646 H 2008.17 -0.661111 0.325732 0
M  V30 21647 H 2010.81 -1.28535 1.39924 0
M  V30 21648 H 2008.96 -3.74134 1.04671 0
M  V30 21649 H 2010.63 -2.96119 3.53711 0
M  V30 21650 H 2008.87 -2.73109 3.37037 0
M  V30 21651 H 2009.54 -4.36484 3.37914 0
M  V30 21652 H 2012.02 -3.8752 1.51551 0
M  V30 21653 H 2010.9 -5.25698 1.57902 0
M  V30 21654 H 2011.16 -4.42064 0.0565583 0
M  V30 21655 N 2010.22 -0.924476 -1.27637 0
M  V30 21656 C 2011.49 -0.481742 -1.89575 0
M  V30 21657 C 2011.87 1.04002 -1.83703 0
M  V30 21658 O 2011.22 1.89277 -1.28009 0
M  V30 21659 C 2011.43 -1.02419 -3.33633 0
M  V30 21660 C 2012.78 -1.08274 -4.10563 0
M  V30 21661 O 2013.8 -0.97359 -3.42636 0
M  V30 21662 O 2012.66 -1.25042 -5.32003 0
M  V30 21663 H 2009.76 -0.15444 -0.812451 0
M  V30 21664 H 2012.3 -1.01596 -1.35928 0
M  V30 21665 H 2011.07 -2.06808 -3.32184 0
M  V30 21666 H 2010.7 -0.471435 -3.94795 0
M  V30 21667 N 2011.69 1.41711 -0.689627 0
M  V30 21668 C 2012.94 2.00548 -0.215219 0
M  V30 21669 C 2013.26 1.55228 1.19011 0
M  V30 21670 O 2014.46 2.06585 1.76167 0
M  V30 21671 C 2012.92 3.58348 -0.333888 0
M  V30 21672 C 2012.53 4.12652 -1.74421 0
M  V30 21673 C 2014.27 4.24423 0.0810486 0
M  V30 21674 C 2012.18 5.62865 -1.81485 0
M  V30 21675 H 2011.11 0.750088 -0.0767043 0
M  V30 21676 H 2013.76 1.6226 -0.856963 0
M  V30 21677 H 2012.14 3.94211 0.376004 0
M  V30 21678 H 2013.31 3.8822 -2.48238 0
M  V30 21679 H 2011.63 3.59082 -2.1083 0
M  V30 21680 H 2014.23 5.34678 0.0486243 0
M  V30 21681 H 2014.57 4.00984 1.1188 0
M  V30 21682 H 2015.1 3.93573 -0.578357 0
M  V30 21683 H 2011.84 5.91122 -2.83292 0
M  V30 21684 H 2011.36 5.89242 -1.12044 0
M  V30 21685 H 2013.04 6.27536 -1.57503 0
M  V30 21686 N 2013.17 0.433965 1.51507 0
M  V30 21687 C 2014.42 -0.135114 2.01247 0
M  V30 21688 C 2014.73 -1.4408 1.32289 0
M  V30 21689 O 2015.94 -2.09262 1.72979 0
M  V30 21690 C 2014.4 -0.291335 3.58719 0
M  V30 21691 C 2014 1.00372 4.36611 0
M  V30 21692 C 2015.75 -0.814365 4.16615 0
M  V30 21693 C 2013.66 0.813324 5.85781 0
M  V30 21694 H 2012.59 -0.0542694 0.752044 0
M  V30 21695 H 2015.24 0.563211 1.74643 0
M  V30 21696 H 2013.62 -1.05258 3.81755 0
M  V30 21697 H 2014.79 1.77304 4.25323 0
M  V30 21698 H 2013.11 1.45503 3.90151 0
M  V30 21699 H 2015.7 -0.973246 5.25768 0
M  V30 21700 H 2016.05 -1.79589 3.75571 0
M  V30 21701 H 2016.58 -0.111519 3.97644 0
M  V30 21702 H 2013.32 1.76713 6.31231 0
M  V30 21703 H 2012.84 0.083744 5.99742 0
M  V30 21704 H 2014.52 0.465195 6.45325 0
M  V30 21705 N 2014.65 -1.56732 0.165206 0
M  V30 21706 C 2015.61 -2.1646 -0.753498 0
M  V30 21707 C 2016.61 -1.11106 -1.16241 0
M  V30 21708 O 2017.8 -1.36652 -1.08037 0
M  V30 21709 C 2014.94 -2.7425 -2.02483 0
M  V30 21710 H 2016.13 -2.98989 -0.233629 0
M  V30 21711 H 2013.68 -1.56072 -0.0843317 0
M  V30 21712 H 2014.42 -1.95439 -2.58794 0
M  V30 21713 H 2014.2 -3.51345 -1.74065 0
M  V30 21714 H 2015.69 -3.20209 -2.6806 0
M  V30 21715 N 2016.13 0.10854 -1.57226 0
M  V30 21716 C 2017.36 0.828374 -1.89593 0
M  V30 21717 C 2017.77 1.72936 -0.757543 0
M  V30 21718 O 2017.13 1.80474 0.271152 0
M  V30 21719 C 2017.18 1.65304 -3.21492 0
M  V30 21720 O 2016.9 0.788315 -4.30949 0
M  V30 21721 C 2018.4 2.47711 -3.67633 0
M  V30 21722 H 2015.62 0.237584 -0.627531 0
M  V30 21723 H 2018.17 0.0897975 -2.04303 0
M  V30 21724 H 2016.32 2.34426 -3.0842 0
M  V30 21725 H 2016.73 1.35814 -5.06611 0
M  V30 21726 H 2018.21 3.01088 -4.62655 0
M  V30 21727 H 2018.69 3.25555 -2.94806 0
M  V30 21728 H 2019.29 1.83812 -3.83527 0
M  V30 21729 N 2017.61 1.52975 0.379009 0
M  V30 21730 C 2018.88 1.59096 1.13789 0
M  V30 21731 C 2019.26 0.390236 2.07462 0
M  V30 21732 O 2018.61 -0.620644 2.1991 0
M  V30 21733 C 2018.82 2.93471 1.8888 0
M  V30 21734 C 2020.17 3.47567 2.43889 0
M  V30 21735 O 2021.19 2.95411 1.99024 0
M  V30 21736 O 2020.05 4.38714 3.25871 0
M  V30 21737 H 2017.15 0.64208 0.521213 0
M  V30 21738 H 2019.69 1.65313 0.383355 0
M  V30 21739 H 2018.46 3.72304 1.20438 0
M  V30 21740 H 2018.09 2.90684 2.71272 0
M  V30 21741 N 2019.08 -0.63804 1.44107 0
M  V30 21742 C 2020.33 -1.39366 1.45808 0
M  V30 21743 C 2020.65 -1.95384 0.091867 0
M  V30 21744 O 2021.85 -2.71497 -0.0136182 0
M  V30 21745 C 2020.31 -2.52293 2.56663 0
M  V30 21746 C 2019.92 -2.02818 3.99461 0
M  V30 21747 C 2021.66 -3.29549 2.67577 0
M  V30 21748 C 2019.57 -3.13047 5.01753 0
M  V30 21749 H 2018.5 -0.5237 0.542452 0
M  V30 21750 H 2021.15 -0.687131 1.70149 0
M  V30 21751 H 2019.53 -3.25489 2.2555 0
M  V30 21752 H 2020.7 -1.36533 4.40108 0
M  V30 21753 H 2019.02 -1.38398 3.92728 0
M  V30 21754 H 2021.62 -4.11709 3.41174 0
M  V30 21755 H 2021.96 -3.78579 1.73159 0
M  V30 21756 H 2022.49 -2.63441 2.98066 0
M  V30 21757 H 2019.23 -2.68969 5.97776 0
M  V30 21758 H 2018.75 -3.77995 4.65704 0
M  V30 21759 H 2020.43 -3.77934 5.25142 0
M  V30 21760 N 2020.56 -1.3089 -0.877815 0
M  V30 21761 C 2021.49 -1.13694 -1.99013 0
M  V30 21762 C 2022.51 -0.0781797 -1.62612 0
M  V30 21763 O 2023.7 -0.324906 -1.75518 0
M  V30 21764 C 2020.8 -0.713232 -3.3131 0
M  V30 21765 C 2019.97 -1.8553 -3.96103 0
M  V30 21766 C 2019.03 -1.41895 -5.06707 0
M  V30 21767 O 2018.05 -2.12734 -5.27952 0
M  V30 21768 N 2019.26 -0.301958 -5.79714 0
M  V30 21769 H 2022.02 -2.09499 -2.14313 0
M  V30 21770 H 2019.58 -1.2312 -1.05133 0
M  V30 21771 H 2021.57 -0.404189 -4.02677 0
M  V30 21772 H 2020.14 0.152987 -3.12225 0
M  V30 21773 H 2019.36 -2.33208 -3.17817 0
M  V30 21774 H 2020.65 -2.62046 -4.3613 0
M  V30 21775 H 2020.05 0.288154 -5.64966 0
M  V30 21776 H 2018.61 -0.0524068 -6.51779 0
M  V30 21777 N 2022.04 1.0911 -1.13723 0
M  V30 21778 C 2023.27 1.85108 -0.924265 0
M  V30 21779 C 2023.68 1.81295 0.527025 0
M  V30 21780 O 2023.04 1.21144 1.36493 0
M  V30 21781 C 2023.09 3.3295 -1.40807 0
M  V30 21782 O 2022.81 3.36738 -2.80249 0
M  V30 21783 C 2024.31 4.25778 -1.23401 0
M  V30 21784 H 2021.53 0.584594 -0.329379 0
M  V30 21785 H 2024.08 1.37847 -1.51058 0
M  V30 21786 H 2022.23 3.77627 -0.864679 0
M  V30 21787 H 2022.65 4.28973 -3.01799 0
M  V30 21788 H 2024.12 5.27655 -1.62123 0
M  V30 21789 H 2024.6 4.38847 -0.176058 0
M  V30 21790 H 2025.2 3.8692 -1.76559 0
M  V30 21791 N 2023.52 0.931232 1.27145 0
M  V30 21792 C 2024.47 0.4317 2.26727 0
M  V30 21793 C 2025.44 -0.503295 1.58291 0
M  V30 21794 O 2026.62 -0.421681 1.86082 0
M  V30 21795 C 2023.76 -0.306208 3.43739 0
M  V30 21796 C 2022.87 0.663307 4.26877 0
M  V30 21797 C 2022.01 -0.0947979 5.31115 0
M  V30 21798 C 2021.05 0.867191 6.05926 0
M  V30 21799 N 2020.18 0.141485 7.01957 0
M  V30 21800 H 2025.02 1.28587 2.6883 0
M  V30 21801 H 2022.56 0.64533 1.32189 0
M  V30 21802 H 2024.52 -0.750387 4.10396 0
M  V30 21803 H 2023.15 -1.12458 3.02577 0
M  V30 21804 H 2022.2 1.22601 3.60102 0
M  V30 21805 H 2023.51 1.39836 4.78798 0
M  V30 21806 H 2022.67 -0.598728 6.03738 0
M  V30 21807 H 2021.41 -0.862794 4.80007 0
M  V30 21808 H 2020.41 1.38234 5.32139 0
M  V30 21809 H 2021.64 1.63503 6.59123 0
M  V30 21810 H 2019.58 -0.608201 6.53174 0
M  V30 21811 H 2019.5 0.816044 7.51583 0
M  V30 21812 H 2020.77 -0.341677 7.78751 0
M  V30 21813 N 2025 -1.41343 0.697132 0
M  V30 21814 C 2025.91 -2.34576 0.0333341 0
M  V30 21815 C 2026.92 -1.56313 -0.764337 0
M  V30 21816 O 2028.1 -1.88787 -0.70154 0
M  V30 21817 C 2025.16 -3.35066 -0.890597 0
M  V30 21818 C 2024.23 -4.29216 -0.0849556 0
M  V30 21819 C 2023.46 -5.24905 -0.964881 0
M  V30 21820 O 2023.68 -5.26083 -2.20437 0
M  V30 21821 O 2022.62 -6.00476 -0.413724 0
M  V30 21822 H 2026.44 -2.92922 0.801892 0
M  V30 21823 H 2024.03 -1.42223 0.457478 0
M  V30 21824 H 2025.91 -3.96741 -1.42036 0
M  V30 21825 H 2024.58 -2.79161 -1.63862 0
M  V30 21826 H 2023.49 -3.70884 0.489447 0
M  V30 21827 H 2024.82 -4.88223 0.624437 0
M  V30 21828 N 2026.48 -0.441993 -1.51275 0
M  V30 21829 C 2027.41 0.357557 -2.30746 0
M  V30 21830 C 2028.39 1.01683 -1.36362 0
M  V30 21831 O 2029.57 1.01958 -1.65282 0
M  V30 21832 C 2026.7 1.45642 -3.15287 0
M  V30 21833 C 2025.66 0.920377 -4.17987 0
M  V30 21834 C 2024.98 2.11534 -4.91078 0
M  V30 21835 C 2026.28 -0.0483941 -5.22278 0
M  V30 21836 H 2027.98 -0.30565 -2.97836 0
M  V30 21837 H 2025.52 -0.148438 -1.43233 0
M  V30 21838 H 2027.47 2.02301 -3.69665 0
M  V30 21839 H 2026.2 2.14798 -2.46027 0
M  V30 21840 H 2024.86 0.375962 -3.64667 0
M  V30 21841 H 2024.51 2.7932 -4.18317 0
M  V30 21842 H 2024.21 1.76303 -5.60527 0
M  V30 21843 H 2025.73 2.68738 -5.48281 0
M  V30 21844 H 2027.14 0.428053 -5.717 0
M  V30 21845 H 2025.54 -0.313504 -5.99281 0
M  V30 21846 H 2026.61 -0.983611 -4.74819 0
M  V30 21847 N 2027.95 1.56642 -0.173515 0
M  V30 21848 C 2028.89 2.15251 0.787381 0
M  V30 21849 C 2029.9 1.10866 1.19217 0
M  V30 21850 O 2031.09 1.38044 1.13164 0
M  V30 21851 C 2028.19 2.6821 2.07163 0
M  V30 21852 C 2027.36 3.97275 1.83006 0
M  V30 21853 C 2026.42 4.35276 2.95671 0
M  V30 21854 O 2025.45 5.03111 2.6621 0
M  V30 21855 N 2026.65 3.97014 4.23509 0
M  V30 21856 H 2029.41 2.98329 0.28631 0
M  V30 21857 H 2026.97 1.61897 0.00919258 0
M  V30 21858 H 2028.97 2.90629 2.81632 0
M  V30 21859 H 2027.54 1.89708 2.48454 0
M  V30 21860 H 2026.76 3.83211 0.924298 0
M  V30 21861 H 2028.04 4.81564 1.64237 0
M  V30 21862 H 2027.44 3.42407 4.50304 0
M  V30 21863 H 2026 4.24429 4.94675 0
M  V30 21864 N 2029.43 -0.1002 1.57281 0
M  V30 21865 C 2030.38 -1.12192 2.01697 0
M  V30 21866 C 2031.35 -1.40092 0.892374 0
M  V30 21867 O 2032.53 -1.51641 1.158 0
M  V30 21868 C 2029.67 -2.43833 2.44212 0
M  V30 21869 C 2028.79 -2.22707 3.70169 0
M  V30 21870 C 2027.92 -3.47711 4.01585 0
M  V30 21871 C 2026.96 -3.21825 5.20668 0
M  V30 21872 N 2026.1 -4.39081 5.47862 0
M  V30 21873 H 2030.94 -0.736171 2.88764 0
M  V30 21874 H 2028.47 -0.351977 1.42827 0
M  V30 21875 H 2030.43 -3.20652 2.66904 0
M  V30 21876 H 2029.06 -2.80264 1.60162 0
M  V30 21877 H 2028.11 -1.36715 3.54983 0
M  V30 21878 H 2029.43 -1.99568 4.57137 0
M  V30 21879 H 2028.58 -4.3294 4.25027 0
M  V30 21880 H 2027.32 -3.739 3.1313 0
M  V30 21881 H 2026.32 -2.34988 4.97052 0
M  V30 21882 H 2027.55 -2.96987 6.10717 0
M  V30 21883 H 2025.5 -4.65355 4.62364 0
M  V30 21884 H 2025.41 -4.19114 6.2919 0
M  V30 21885 H 2026.68 -5.2539 5.75835 0
M  V30 21886 N 2030.91 -1.53174 -0.370891 0
M  V30 21887 C 2031.84 -1.75513 -1.47403 0
M  V30 21888 C 2032.85 -0.635818 -1.49871 0
M  V30 21889 O 2034.04 -0.911956 -1.53446 0
M  V30 21890 C 2031.14 -1.81519 -2.86189 0
M  V30 21891 C 2030.32 -3.11087 -3.07479 0
M  V30 21892 C 2029.38 -3.08403 -4.26349 0
M  V30 21893 O 2028.4 -3.82218 -4.2178 0
M  V30 21894 N 2029.6 -2.28851 -5.33486 0
M  V30 21895 H 2032.37 -2.70697 -1.2862 0
M  V30 21896 H 2029.93 -1.51886 -0.56057 0
M  V30 21897 H 2031.92 -1.77207 -3.6384 0
M  V30 21898 H 2030.49 -0.936423 -2.98245 0
M  V30 21899 H 2029.71 -3.28744 -2.17534 0
M  V30 21900 H 2031 -3.96726 -3.18569 0
M  V30 21901 H 2030.4 -1.68381 -5.4006 0
M  V30 21902 H 2028.95 -2.30363 -6.09734 0
M  V30 21903 N 2032.39 0.630389 -1.44443 0
M  V30 21904 C 2033.64 1.38591 -1.46545 0
M  V30 21905 C 2033.95 1.95333 -0.102227 0
M  V30 21906 O 2035.16 2.715 -0.000780135 0
M  V30 21907 C 2033.61 2.50929 -2.57998 0
M  V30 21908 C 2033.22 2.00697 -4.00531 0
M  V30 21909 C 2034.96 3.28126 -2.69321 0
M  V30 21910 C 2032.87 3.10381 -5.03406 0
M  V30 21911 H 2031.8 0.520816 -0.545221 0
M  V30 21912 H 2034.45 0.678097 -1.70511 0
M  V30 21913 H 2032.83 3.24288 -2.27273 0
M  V30 21914 H 2034.01 1.34197 -4.40826 0
M  V30 21915 H 2032.32 1.36313 -3.93456 0
M  V30 21916 H 2034.92 4.09894 -3.43353 0
M  V30 21917 H 2035.26 3.77655 -1.75164 0
M  V30 21918 H 2035.8 2.61857 -2.99459 0
M  V30 21919 H 2032.53 2.65795 -5.99194 0
M  V30 21920 H 2032.05 3.7552 -4.67702 0
M  V30 21921 H 2033.73 3.75144 -5.27139 0
M  V30 21922 N 2033.87 1.31354 0.870861 0
M  V30 21923 C 2035.09 1.23948 1.65664 0
M  V30 21924 C 2035.51 -0.195353 1.87787 0
M  V30 21925 O 2034.87 -1.12708 1.43538 0
M  V30 21926 C 2034.92 1.97912 3.02511 0
M  V30 21927 O 2034.64 3.35795 2.81377 0
M  V30 21928 C 2036.14 1.97336 3.96955 0
M  V30 21929 H 2033.36 0.428328 0.516504 0
M  V30 21930 H 2035.9 1.73214 1.08706 0
M  V30 21931 H 2034.06 1.52409 3.5616 0
M  V30 21932 H 2034.47 3.73444 3.68293 0
M  V30 21933 H 2035.95 2.53601 4.90297 0
M  V30 21934 H 2036.42 0.955651 4.28677 0
M  V30 21935 H 2037.03 2.42714 3.49242 0
M  V30 21936 N 2035.34 -1.08505 1.143 0
M  V30 21937 C 2036.29 -2.15397 0.829011 0
M  V30 21938 C 2037.26 -1.64728 -0.213016 0
M  V30 21939 O 2038.45 -1.90619 -0.0831625 0
M  V30 21940 C 2035.59 -3.43691 0.311546 0
M  V30 21941 C 2034.7 -4.08212 1.41375 0
M  V30 21942 C 2033.83 -5.24296 0.853639 0
M  V30 21943 C 2032.87 -5.80757 1.93359 0
M  V30 21944 N 2032.01 -6.88188 1.39073 0
M  V30 21945 H 2036.85 -2.41597 1.74456 0
M  V30 21946 H 2034.39 -1.18566 0.870668 0
M  V30 21947 H 2036.34 -4.17199 -0.00667521 0
M  V30 21948 H 2034.97 -3.17779 -0.567106 0
M  V30 21949 H 2034.03 -3.32474 1.84839 0
M  V30 21950 H 2035.34 -4.46196 2.2296 0
M  V30 21951 H 2034.49 -6.0474 0.487261 0
M  V30 21952 H 2033.23 -4.877 0.00682778 0
M  V30 21953 H 2032.24 -4.98967 2.30893 0
M  V30 21954 H 2033.46 -6.19412 2.78398 0
M  V30 21955 H 2031.41 -6.53553 0.566079 0
M  V30 21956 H 2031.32 -7.24992 2.14296 0
M  V30 21957 H 2032.59 -7.72366 1.05222 0
M  V30 21958 N 2036.82 -0.937962 -1.26649 0
M  V30 21959 C 2038.07 -0.57958 -1.93194 0
M  V30 21960 C 2038.38 0.88505 -1.74431 0
M  V30 21961 O 2039.59 1.35267 -2.35404 0
M  V30 21962 C 2038.05 -0.985803 -3.46136 0
M  V30 21963 C 2037.65 -2.47182 -3.73637 0
M  V30 21964 C 2039.4 -0.699162 -4.18703 0
M  V30 21965 C 2037.3 -2.81691 -5.20004 0
M  V30 21966 H 2036.23 -0.213046 -0.723275 0
M  V30 21967 H 2038.89 -1.14017 -1.43779 0
M  V30 21968 H 2037.27 -0.353775 -3.94417 0
M  V30 21969 H 2038.44 -3.15263 -3.36075 0
M  V30 21970 H 2036.76 -2.73143 -3.14296 0
M  V30 21971 H 2039.35 -0.933359 -5.26491 0
M  V30 21972 H 2039.7 0.363979 -4.14706 0
M  V30 21973 H 2040.23 -1.29076 -3.76277 0
M  V30 21974 H 2036.97 -3.86955 -5.29099 0
M  V30 21975 H 2036.49 -2.1827 -5.58675 0
M  V30 21976 H 2038.17 -2.69984 -5.87978 0
M  V30 21977 N 2038.3 1.40971 -0.704618 0
M  V30 21978 C 2039.23 2.29199 -0.00575899 0
M  V30 21979 C 2040.24 1.45259 0.735102 0
M  V30 21980 O 2041.43 1.68666 0.584302 0
M  V30 21981 C 2038.53 3.23311 1.01604 0
M  V30 21982 C 2037.71 4.36053 0.342951 0
M  V30 21983 C 2036.77 5.10679 1.26861 0
M  V30 21984 O 2035.79 5.64136 0.757556 0
M  V30 21985 N 2036.99 5.18997 2.60043 0
M  V30 21986 H 2039.76 2.89818 -0.763264 0
M  V30 21987 H 2037.32 1.52222 -0.551367 0
M  V30 21988 H 2039.31 3.70104 1.63722 0
M  V30 21989 H 2037.88 2.63937 1.675 0
M  V30 21990 H 2037.1 3.91527 -0.458254 0
M  V30 21991 H 2038.39 5.08647 -0.124708 0
M  V30 21992 H 2037.79 4.77029 3.04072 0
M  V30 21993 H 2036.34 5.69336 3.17333 0
M  V30 21994 N 2039.78 0.45001 1.51039 0
M  V30 21995 C 2040.73 -0.369268 2.2965 0
M  V30 21996 C 2041.72 -1.00952 1.36034 0
M  V30 21997 O 2042.93 -0.943032 1.5332 0
M  V30 21998 H 2039.3 -0.137907 0.739247 0
M  V30 21999 H 2041.27 0.314433 2.96739 0
M  V30 22000 C 2040.02 -1.45082 3.15985 0
M  V30 22001 H 2039.34 -0.967533 3.87916 0
M  V30 22002 H 2040.78 -1.99707 3.74023 0
M  V30 22003 C 2039.24 -2.44112 2.32187 0
M  V30 22004 O 2039.77 -3.48929 1.99027 0
M  V30 22005 N 2037.98 -2.1531 1.95167 0
M  V30 22006 H 2037.53 -1.30099 2.22333 0
M  V30 22007 H 2037.48 -2.81807 1.39398 0
M  V30 22008 N 2041.26 -1.56548 0.18182 0
M  V30 22009 C 2042.5 -1.97196 -0.460422 0
M  V30 22010 C 2042.83 -1.06822 -1.6254 0
M  V30 22011 O 2042.09 -0.104496 -1.95421 0
M  V30 22012 C 2042.39 -3.43837 -0.975236 0
M  V30 22013 C 2042.05 -4.50838 0.07496 0
M  V30 22014 C 2040.71 -4.79825 0.363562 0
M  V30 22015 C 2043.07 -5.1522 0.787246 0
M  V30 22016 C 2040.39 -5.70489 1.36966 0
M  V30 22017 C 2042.75 -6.06971 1.7824 0
M  V30 22018 C 2041.41 -6.3432 2.07834 0
M  V30 22019 H 2040.68 -0.721592 -0.16848 0
M  V30 22020 H 2043.33 -1.89501 0.275993 0
M  V30 22021 H 2041.63 -3.48537 -1.78967 0
M  V30 22022 H 2043.33 -3.72636 -1.48134 0
M  V30 22023 H 2039.92 -4.28301 -0.160151 0
M  V30 22024 H 2044.1 -4.92929 0.5775 0
M  V30 22025 H 2039.36 -5.89957 1.605 0
M  V30 22026 H 2043.53 -6.55922 2.33963 0
M  V30 22027 H 2041.16 -7.04374 2.85941 0
M  V30 22028 N 2042.73 0.0918577 -1.57332 0
M  V30 22029 C 2044.15 0.446151 -1.53237 0
M  V30 22030 C 2044.35 1.80332 -0.899027 0
M  V30 22031 O 2043.41 2.47642 -0.492921 0
M  V30 22032 C 2044.72 0.405662 -2.97951 0
M  V30 22033 C 2046.27 0.487286 -3.09184 0
M  V30 22034 C 2046.74 0.476912 -4.5551 0
M  V30 22035 N 2048.23 0.537573 -4.6007 0
M  V30 22036 C 2048.97 0.551436 -5.70742 0
M  V30 22037 N 2048.46 0.521312 -6.90836 0
M  V30 22038 N 2050.26 0.59649 -5.58926 0
M  V30 22039 H 2042.41 -0.797061 -1.96877 0
M  V30 22040 H 2044.67 -0.297022 -0.900268 0
M  V30 22041 H 2044.38 -0.524467 -3.47768 0
M  V30 22042 H 2044.25 1.22343 -3.56808 0
M  V30 22043 H 2046.64 1.40783 -2.59353 0
M  V30 22044 H 2046.72 -0.358678 -2.53273 0
M  V30 22045 H 2046.36 -0.439705 -5.05993 0
M  V30 22046 H 2046.29 1.34013 -5.09262 0
M  V30 22047 H 2048.78 0.565916 -3.73639 0
M  V30 22048 H 2049.1 0.535263 -7.70944 0
M  V30 22049 H 2047.44 0.48831 -6.93282 0
M  V30 22050 H 2050.63 0.617576 -4.64008 0
M  V30 22051 H 2050.81 0.603826 -6.45181 0
M  V30 22052 N 2044.21 1.53368 0.362763 0
M  V30 22053 C 2045.46 1.69938 1.10674 0
M  V30 22054 C 2045.79 0.451301 1.88883 0
M  V30 22055 O 2045.07 -0.551452 1.86519 0
M  V30 22056 C 2045.35 2.95101 2.06367 0
M  V30 22057 C 2045.2 4.30073 1.31748 0
M  V30 22058 C 2046.52 3.15872 3.06452 0
M  V30 22059 H 2043.64 0.61838 0.400968 0
M  V30 22060 H 2046.28 1.86011 0.387265 0
M  V30 22061 H 2044.43 2.81529 2.6772 0
M  V30 22062 H 2046.1 4.55462 0.731574 0
M  V30 22063 H 2044.35 4.29356 0.619347 0
M  V30 22064 H 2045.02 5.13789 2.01803 0
M  V30 22065 H 2047.49 3.28649 2.55204 0
M  V30 22066 H 2046.37 4.04878 3.70628 0
M  V30 22067 H 2046.63 2.31281 3.76778 0
M  V30 22068 N 2045.69 -0.62272 1.44776 0
M  V30 22069 C 2046.92 -1.40706 1.51279 0
M  V30 22070 C 2047.33 -1.88688 0.139108 0
M  V30 22071 O 2046.67 -1.61963 -0.866823 0
M  V30 22072 C 2046.73 -2.65579 2.42298 0
M  V30 22073 C 2046.4 -2.39338 3.89315 0
M  V30 22074 C 2047.39 -2.0064 4.79624 0
M  V30 22075 C 2045.08 -2.52717 4.34096 0
M  V30 22076 C 2047.07 -1.75662 6.12716 0
M  V30 22077 C 2044.76 -2.27354 5.67233 0
M  V30 22078 C 2045.76 -1.88886 6.56362 0
M  V30 22079 O 2045.45 -1.6381 7.87033 0
M  V30 22080 H 2045.18 -0.437662 0.515197 0
M  V30 22081 H 2047.73 -0.767982 1.90503 0
M  V30 22082 H 2045.96 -3.32154 1.98017 0
M  V30 22083 H 2047.65 -3.27598 2.39655 0
M  V30 22084 H 2048.42 -1.89853 4.46297 0
M  V30 22085 H 2044.3 -2.81628 3.64975 0
M  V30 22086 H 2047.84 -1.45562 6.82244 0
M  V30 22087 H 2043.74 -2.37753 6.0012 0
M  V30 22088 H 2044.51 -1.77986 7.98914 0
M  V30 22089 N 2047.17 -1.31814 -0.863883 0
M  V30 22090 C 2048.4 -1.24644 -1.64765 0
M  V30 22091 C 2048.81 0.189549 -1.88248 0
M  V30 22092 O 2048.15 1.13405 -1.44517 0
M  V30 22093 C 2048.21 -1.92678 -3.03505 0
M  V30 22094 C 2047.88 -3.42019 -3.03104 0
M  V30 22095 C 2048.87 -4.37662 -2.8062 0
M  V30 22096 C 2046.56 -3.83808 -3.24032 0
M  V30 22097 C 2048.55 -5.73069 -2.79053 0
M  V30 22098 C 2046.24 -5.19326 -3.22093 0
M  V30 22099 C 2047.24 -6.13767 -2.99631 0
M  V30 22100 O 2046.92 -7.46807 -2.97548 0
M  V30 22101 H 2046.66 -0.431678 -0.520222 0
M  V30 22102 H 2049.21 -1.74337 -1.08609 0
M  V30 22103 H 2047.44 -1.37543 -3.61412 0
M  V30 22104 H 2049.13 -1.79342 -3.64131 0
M  V30 22105 H 2049.9 -4.06705 -2.64228 0
M  V30 22106 H 2045.77 -3.10727 -3.40544 0
M  V30 22107 H 2049.32 -6.46757 -2.6144 0
M  V30 22108 H 2045.22 -5.49916 -3.38027 0
M  V30 22109 H 2045.98 -7.56054 -3.13567 0
M  V30 22110 N 2048.65 1.07897 -1.14873 0
M  V30 22111 C 2050.06 1.32467 -0.89021 0
M  V30 22112 C 2050.26 1.96041 0.46584 0
M  V30 22113 O 2049.32 2.21675 1.20899 0
M  V30 22114 C 2050.63 2.22118 -2.02692 0
M  V30 22115 C 2052.18 2.35583 -2.06082 0
M  V30 22116 C 2052.65 3.28579 -3.19061 0
M  V30 22117 N 2054.15 3.36158 -3.18673 0
M  V30 22118 C 2054.88 4.0816 -4.02731 0
M  V30 22119 N 2054.38 4.82826 -4.96841 0
M  V30 22120 N 2056.17 4.04045 -3.90774 0
M  V30 22121 H 2048.32 0.650155 -2.02205 0
M  V30 22122 H 2050.58 0.349072 -0.881393 0
M  V30 22123 H 2050.29 1.82656 -3.00549 0
M  V30 22124 H 2050.16 3.22612 -1.95452 0
M  V30 22125 H 2052.55 2.743 -1.08829 0
M  V30 22126 H 2052.63 1.34812 -2.17392 0
M  V30 22127 H 2052.28 2.90582 -4.16563 0
M  V30 22128 H 2052.21 4.2929 -3.04988 0
M  V30 22129 H 2054.7 2.82932 -2.50515 0
M  V30 22130 H 2055.01 5.35244 -5.57434 0
M  V30 22131 H 2053.35 4.81861 -5.00834 0
M  V30 22132 H 2056.55 3.44823 -3.16567 0
M  V30 22133 H 2056.72 4.59895 -4.56509 0
M  V30 22134 N 2050.12 0.944665 1.2615 0
M  V30 22135 C 2051.4 0.511841 1.88784 0
M  V30 22136 C 2051.78 -1.01066 1.85335 0
M  V30 22137 O 2051.13 -1.87217 1.31004 0
M  V30 22138 C 2051.34 1.07714 3.31962 0
M  V30 22139 C 2052.69 1.14792 4.08788 0
M  V30 22140 O 2053.71 1.02798 3.41044 0
M  V30 22141 O 2052.57 1.3349 5.29946 0
M  V30 22142 H 2049.66 0.167346 0.809892 0
M  V30 22143 H 2052.21 1.03745 1.34294 0
M  V30 22144 H 2050.98 2.12066 3.28852 0
M  V30 22145 H 2050.61 0.534184 3.93995 0
M  V30 22146 N 2051.6 -1.40596 0.712085 0
M  V30 22147 C 2052.83 -2.05787 0.258197 0
M  V30 22148 C 2053.25 -1.53289 -1.09015 0
M  V30 22149 O 2052.61 -0.666771 -1.68594 0
M  V30 22150 C 2052.66 -3.59771 0.244357 0
M  V30 22151 O 2051.76 -4.05042 -0.77555 0
M  V30 22152 H 2051.1 -0.652692 0.12202 0
M  V30 22153 H 2053.63 -1.80059 0.971583 0
M  V30 22154 H 2053.64 -4.0792 0.0808437 0
M  V30 22155 H 2052.32 -3.97347 1.22834 0
M  V30 22156 H 2050.9 -3.68361 -0.580045 0
M  V30 22157 N 2053.08 -0.458013 -1.50798 0
M  V30 22158 C 2054.5 -0.111425 -1.59211 0
M  V30 22159 C 2054.7 1.38104 -1.46729 0
M  V30 22160 O 2053.75 2.15306 -1.31907 0
M  V30 22161 C 2055.07 -0.649971 -2.93591 0
M  V30 22162 C 2056.61 -0.612237 -3.06954 0
M  V30 22163 C 2057.09 -1.1281 -4.43889 0
M  V30 22164 N 2058.58 -1.08696 -4.50266 0
M  V30 22165 C 2059.31 -1.45676 -5.54586 0
M  V30 22166 N 2058.81 -1.90042 -6.66225 0
M  V30 22167 N 2060.6 -1.37362 -5.45058 0
M  V30 22168 H 2052.75 -1.42885 -1.57155 0
M  V30 22169 H 2055.02 -0.590085 -0.741959 0
M  V30 22170 H 2054.72 -1.695 -3.0816 0
M  V30 22171 H 2054.6 -0.0862666 -3.77101 0
M  V30 22172 H 2056.98 0.42385 -2.9204 0
M  V30 22173 H 2057.07 -1.21259 -2.25233 0
M  V30 22174 H 2056.71 -2.16276 -4.59551 0
M  V30 22175 H 2056.64 -0.50409 -5.24182 0
M  V30 22176 H 2059.13 -0.761406 -3.7015 0
M  V30 22177 H 2059.44 -2.16442 -7.41871 0
M  V30 22178 H 2057.79 -1.93985 -6.67379 0
M  V30 22179 H 2060.98 -1.02552 -4.56728 0
M  V30 22180 H 2061.15 -1.66508 -6.26242 0
M  V30 22181 N 2054.56 1.56449 -0.190119 0
M  V30 22182 C 2055.51 2.20194 0.749479 0
M  V30 22183 C 2056.5 1.1716 1.22352 0
M  V30 22184 O 2057.71 1.35317 1.18699 0
M  V30 22185 H 2054.08 0.705613 0.260028 0
M  V30 22186 H 2056.05 2.97807 0.18808 0
M  V30 22187 C 2054.8 2.87151 1.9606 0
M  V30 22188 H 2054.13 3.66174 1.60489 0
M  V30 22189 H 2055.57 3.35198 2.5965 0
M  V30 22190 C 2054.02 1.87921 2.7962 0
M  V30 22191 O 2054.55 1.37638 3.77384 0
M  V30 22192 N 2052.76 1.5626 2.45013 0
M  V30 22193 H 2052.31 1.97343 1.6557 0
M  V30 22194 H 2052.27 0.901217 3.01207 0
M  V30 22195 N 2056.04 -0.0835127 1.57379 0
M  V30 22196 C 2057.45 -0.636708 1.75508 0
M  V30 22197 C 2057.8 -1.7852 0.813942 0
M  V30 22198 O 2056.92 -2.16399 -0.00480143 0
M  V30 22199 C 2057.52 -1.16179 3.18258 0
M  V30 22200 C 2056.08 -1.66095 3.37771 0
M  V30 22201 C 2055.23 -0.575388 2.71265 0
M  V30 22202 H 2058.18 0.142613 1.58058 0
M  V30 22203 H 2058.2 -2.03087 3.2177 0
M  V30 22204 H 2057.71 -0.325679 3.86731 0
M  V30 22205 H 2055.81 -2.52068 2.74395 0
M  V30 22206 H 2055.92 -1.74596 4.46154 0
M  V30 22207 H 2054.29 -1.01763 2.33487 0
M  V30 22208 H 2055.07 0.250335 3.42386 0
M  V30 22209 N 2057.52 -1.53558 -0.354624 0
M  V30 22210 C 2058.45 -1.83751 -1.44076 0
M  V30 22211 C 2059.43 -0.691795 -1.55397 0
M  V30 22212 O 2060.61 -0.942676 -1.69786 0
M  V30 22213 C 2057.74 -2.03721 -2.81274 0
M  V30 22214 C 2056.7 -3.19517 -2.84769 0
M  V30 22215 C 2056.02 -3.248 -4.24746 0
M  V30 22216 C 2057.32 -4.5787 -2.51301 0
M  V30 22217 H 2059.02 -2.7471 -1.19058 0
M  V30 22218 H 2056.56 -1.32182 -0.5713 0
M  V30 22219 H 2058.51 -2.23427 -3.57293 0
M  V30 22220 H 2057.24 -1.09482 -3.07703 0
M  V30 22221 H 2055.9 -2.99649 -2.11201 0
M  V30 22222 H 2055.55 -2.28177 -4.48268 0
M  V30 22223 H 2055.25 -4.02606 -4.27998 0
M  V30 22224 H 2056.77 -3.46702 -5.02623 0
M  V30 22225 H 2058.18 -4.77663 -3.17034 0
M  V30 22226 H 2056.58 -5.37998 -2.65853 0
M  V30 22227 H 2057.65 -4.62234 -1.46518 0
M  V30 22228 N 2058.99 0.615033 -1.45104 0
M  V30 22229 C 2060.24 1.37436 -1.49943 0
M  V30 22230 C 2060.59 1.91917 -0.136286 0
M  V30 22231 O 2059.89 1.71675 0.850787 0
M  V30 22232 C 2060.08 2.54609 -2.50816 0
M  V30 22233 C 2059.91 2.11602 -3.96806 0
M  V30 22234 C 2058.68 1.98123 -4.64839 0
M  V30 22235 C 2060.88 1.69524 -4.85557 0
M  V30 22236 N 2058.86 1.48847 -5.95582 0
M  V30 22237 C 2060.23 1.31611 -6.0587 0
M  V30 22238 C 2062.29 1.57049 -4.72483 0
M  V30 22239 C 2060.99 0.824676 -7.14557 0
M  V30 22240 C 2063.02 1.09311 -5.8121 0
M  V30 22241 C 2062.38 0.723566 -7.00674 0
M  V30 22242 H 2058.48 0.49711 -0.60366 0
M  V30 22243 H 2061.06 0.703888 -1.81531 0
M  V30 22244 H 2059.23 3.19262 -2.21193 0
M  V30 22245 H 2060.96 3.21465 -2.4585 0
M  V30 22246 H 2057.72 2.19078 -4.19883 0
M  V30 22247 H 2058.14 1.26463 -6.65084 0
M  V30 22248 H 2062.78 1.84247 -3.80543 0
M  V30 22249 H 2060.5 0.540235 -8.06292 0
M  V30 22250 H 2064.09 1.00094 -5.73125 0
M  V30 22251 H 2062.97 0.359841 -7.83374 0
M  V30 22252 N 2060.47 1.3227 0.85688 0
M  V30 22253 C 2061.42 1.2102 1.96527 0
M  V30 22254 C 2062.39 0.0928848 1.6584 0
M  V30 22255 O 2063.57 0.268043 1.88908 0
M  V30 22256 C 2060.71 0.936943 3.32138 0
M  V30 22257 C 2059.83 2.13883 3.75337 0
M  V30 22258 C 2058.96 1.80125 4.99728 0
M  V30 22259 C 2058 2.96647 5.35413 0
M  V30 22260 N 2057.14 2.62997 6.50982 0
M  V30 22261 H 2061.98 2.15827 2.05481 0
M  V30 22262 H 2059.51 1.07346 1.00575 0
M  V30 22263 H 2061.47 0.759018 4.10237 0
M  V30 22264 H 2060.1 0.025663 3.2279 0
M  V30 22265 H 2059.15 2.4271 2.92909 0
M  V30 22266 H 2060.47 3.01052 3.97705 0
M  V30 22267 H 2059.62 1.58871 5.8553 0
M  V30 22268 H 2058.36 0.901662 4.79293 0
M  V30 22269 H 2057.36 3.18535 4.48124 0
M  V30 22270 H 2058.59 3.87335 5.57807 0
M  V30 22271 H 2056.54 1.75576 6.32067 0
M  V30 22272 H 2056.45 3.43696 6.73357 0
M  V30 22273 H 2057.72 2.45168 7.39941 0
M  V30 22274 N 2061.95 -1.07287 1.15444 0
M  V30 22275 C 2063.2 -1.7954 0.927885 0
M  V30 22276 C 2063.52 -1.87189 -0.546373 0
M  V30 22277 O 2062.79 -1.37326 -1.39708 0
M  V30 22278 H 2061.37 -0.664981 0.340307 0
M  V30 22279 H 2064.03 -1.29652 1.45521 0
M  V30 22280 H 2063.13 -2.81972 1.33784 0
M  V30 22281 N 2063.43 -0.951342 -1.25647 0
M  V30 22282 C 2064.84 -0.645559 -1.75184 0
M  V30 22283 C 2065.19 0.83913 -1.7735 0
M  V30 22284 O 2064.31 1.65671 -1.3922 0
M  V30 22285 C 2064.91 -1.16512 -3.18136 0
M  V30 22286 C 2063.47 -0.90956 -3.65245 0
M  V30 22287 C 2062.62 -1.31009 -2.44401 0
M  V30 22288 H 2065.57 -1.12852 -1.1158 0
M  V30 22289 H 2065.59 -0.523662 -3.76879 0
M  V30 22290 H 2065.1 -2.24571 -3.16527 0
M  V30 22291 H 2063.2 0.156212 -3.72272 0
M  V30 22292 H 2063.31 -1.54371 -4.53549 0
M  V30 22293 H 2061.68 -0.728474 -2.4406 0
M  V30 22294 H 2062.46 -2.39983 -2.45486 0
M  V30 22295 N 2064.91 1.40216 -0.719531 0
M  V30 22296 C 2065.87 2.29067 -0.078186 0
M  V30 22297 C 2066.87 1.45561 0.683282 0
M  V30 22298 O 2068.06 1.66426 0.514598 0
M  V30 22299 C 2065.19 3.28832 0.899035 0
M  V30 22300 H 2066.38 2.87281 -0.860786 0
M  V30 22301 H 2063.94 1.48604 -0.48442 0
M  V30 22302 H 2064.67 2.75643 1.70855 0
M  V30 22303 H 2064.46 3.90482 0.355853 0
M  V30 22304 H 2065.95 3.95353 1.34483 0
M  V30 22305 N 2066.38 0.466004 1.50553 0
M  V30 22306 C 2067.33 -0.330804 2.28417 0
M  V30 22307 C 2068.3 -0.991708 1.33246 0
M  V30 22308 O 2069.49 -1.00512 1.62179 0
M  V30 22309 C 2066.63 -1.40978 3.14991 0
M  V30 22310 C 2065.74 -0.76416 4.25188 0
M  V30 22311 C 2064.87 -1.8206 4.99027 0
M  V30 22312 C 2063.91 -1.15495 6.01105 0
M  V30 22313 N 2063.05 -2.15401 6.68242 0
M  V30 22314 H 2067.89 0.339504 2.9606 0
M  V30 22315 H 2065.43 0.179273 1.46003 0
M  V30 22316 H 2067.38 -2.04695 3.63532 0
M  V30 22317 H 2066.01 -2.04932 2.49405 0
M  V30 22318 H 2065.07 -0.0145483 3.80397 0
M  V30 22319 H 2066.38 -0.238458 4.9823 0
M  V30 22320 H 2065.53 -2.5337 5.51261 0
M  V30 22321 H 2064.27 -2.38009 4.25679 0
M  V30 22322 H 2063.28 -0.427447 5.48136 0
M  V30 22323 H 2064.5 -0.602414 6.76423 0
M  V30 22324 H 2062.45 -2.70378 5.97689 0
M  V30 22325 H 2062.36 -1.67802 7.37142 0
M  V30 22326 H 2063.63 -2.86107 7.25095 0
M  V30 22327 N 2067.86 -1.56346 0.198413 0
M  V30 22328 C 2068.79 -2.22244 -0.716243 0
M  V30 22329 C 2069.77 -1.1866 -1.21876 0
M  V30 22330 O 2070.96 -1.47177 -1.26699 0
M  V30 22331 C 2068.09 -2.88437 -1.93446 0
M  V30 22332 C 2067.04 -3.98294 -1.56672 0
M  V30 22333 C 2066.37 -4.51668 -2.86182 0
M  V30 22334 C 2067.67 -5.16531 -0.774153 0
M  V30 22335 H 2069.36 -2.98935 -0.166883 0
M  V30 22336 H 2066.91 -1.43784 -0.0788267 0
M  V30 22337 H 2068.86 -3.33221 -2.57957 0
M  V30 22338 H 2067.58 -2.09157 -2.5084 0
M  V30 22339 H 2066.24 -3.54206 -0.945178 0
M  V30 22340 H 2065.89 -3.69146 -3.41673 0
M  V30 22341 H 2065.59 -5.25796 -2.6232 0
M  V30 22342 H 2067.12 -4.99155 -3.51676 0
M  V30 22343 H 2068.53 -5.57839 -1.32244 0
M  V30 22344 H 2066.93 -5.96746 -0.633532 0
M  V30 22345 H 2068 -4.84382 0.224098 0
M  V30 22346 N 2069.34 0.0751653 -1.57421 0
M  V30 22347 C 2070.27 1.09007 -2.06494 0
M  V30 22348 C 2071.25 1.40573 -0.957766 0
M  V30 22349 O 2072.44 1.50259 -1.23028 0
M  V30 22350 C 2069.57 2.40446 -2.50605 0
M  V30 22351 C 2068.52 2.2324 -3.65168 0
M  V30 22352 C 2067.85 3.60033 -3.95323 0
M  V30 22353 C 2069.15 1.65642 -4.95338 0
M  V30 22354 H 2070.84 0.681725 -2.91535 0
M  V30 22355 H 2068.39 0.326481 -1.4025 0
M  V30 22356 H 2070.34 3.11734 -2.83548 0
M  V30 22357 H 2069.06 2.83254 -1.62588 0
M  V30 22358 H 2067.72 1.54393 -3.32503 0
M  V30 22359 H 2067.37 4.00404 -3.04443 0
M  V30 22360 H 2067.07 3.4936 -4.72463 0
M  V30 22361 H 2068.59 4.32757 -4.30759 0
M  V30 22362 H 2070.01 2.26793 -5.26534 0
M  V30 22363 H 2068.41 1.65675 -5.76777 0
M  V30 22364 H 2069.48 0.617593 -4.80951 0
M  V30 22365 N 2070.82 1.53744 0.346476 0
M  V30 22366 C 2072.06 1.72044 1.08501 0
M  V30 22367 C 2072.42 0.476268 1.86412 0
M  V30 22368 O 2071.71 -0.531079 1.84093 0
M  V30 22369 C 2071.91 2.92192 2.05812 0
M  V30 22370 C 2071.74 4.28174 1.37466 0
M  V30 22371 C 2070.51 4.92715 1.12073 0
M  V30 22372 C 2072.7 5.08002 0.802388 0
M  V30 22373 N 2070.69 6.12577 0.40277 0
M  V30 22374 C 2072.06 6.19628 0.214821 0
M  V30 22375 C 2074.11 4.92913 0.702946 0
M  V30 22376 C 2072.81 7.17811 -0.462511 0
M  V30 22377 C 2074.84 5.91387 0.0393604 0
M  V30 22378 C 2074.2 7.02348 -0.537248 0
M  V30 22379 H 2070.3 0.682618 0.381519 0
M  V30 22380 H 2072.89 1.91172 0.368961 0
M  V30 22381 H 2071.06 2.7457 2.74711 0
M  V30 22382 H 2072.79 2.99225 2.72482 0
M  V30 22383 H 2069.54 4.52215 1.40707 0
M  V30 22384 H 2069.97 6.76975 0.0585971 0
M  V30 22385 H 2074.61 4.07295 1.13448 0
M  V30 22386 H 2072.33 8.03006 -0.905947 0
M  V30 22387 H 2075.91 5.81788 -0.036912 0
M  V30 22388 H 2074.79 7.77238 -1.04259 0
M  V30 22389 N 2072.3 -0.607329 1.45428 0
M  V30 22390 C 2073.24 -1.71802 1.54119 0
M  V30 22391 C 2074.21 -1.61527 0.387071 0
M  V30 22392 O 2075.4 -1.81102 0.60055 0
M  V30 22393 C 2072.54 -3.10112 1.5141 0
M  V30 22394 C 2071.65 -3.31191 2.77375 0
M  V30 22395 C 2070.79 -4.59608 2.66335 0
M  V30 22396 C 2069.83 -4.73946 3.87353 0
M  V30 22397 N 2068.96 -5.93662 3.74846 0
M  V30 22398 H 2073.8 -1.6371 2.49004 0
M  V30 22399 H 2071.34 -0.798251 1.23557 0
M  V30 22400 H 2073.3 -3.90132 1.47826 0
M  V30 22401 H 2071.93 -3.17161 0.600749 0
M  V30 22402 H 2070.98 -2.44944 2.91044 0
M  V30 22403 H 2072.29 -3.37658 3.67135 0
M  V30 22404 H 2071.45 -5.47823 2.60719 0
M  V30 22405 H 2070.18 -4.55538 1.74174 0
M  V30 22406 H 2069.19 -3.84153 3.93327 0
M  V30 22407 H 2070.41 -4.79812 4.8058 0
M  V30 22408 H 2068.36 -5.90637 2.85454 0
M  V30 22409 H 2068.28 -6.01291 4.58241 0
M  V30 22410 H 2069.55 -6.84375 3.73163 0
M  V30 22411 N 2073.77 -1.32722 -0.849853 0
M  V30 22412 C 2075.02 -1.23312 -1.60121 0
M  V30 22413 C 2075.34 0.203882 -1.93931 0
M  V30 22414 O 2074.61 1.12986 -1.60035 0
M  V30 22415 H 2073.19 -0.453413 -0.593654 0
M  V30 22416 H 2075.86 -1.66305 -1.0163 0
M  V30 22417 H 2074.95 -1.81913 -2.53602 0
M  V30 22418 N 2075.25 1.06673 -1.16011 0
M  V30 22419 C 2076.16 2.17576 -0.877386 0
M  V30 22420 C 2077.18 1.73362 0.148919 0
M  V30 22421 O 2078.35 2.01382 -0.0268051 0
M  V30 22422 C 2075.42 3.44631 -0.378223 0
M  V30 22423 C 2074.48 4.03374 -1.46928 0
M  V30 22424 C 2073.71 5.24365 -0.993837 0
M  V30 22425 O 2073.94 5.70181 0.157925 0
M  V30 22426 O 2072.87 5.74962 -1.78052 0
M  V30 22427 H 2076.7 2.44264 -1.80468 0
M  V30 22428 H 2074.28 1.1614 -0.939777 0
M  V30 22429 H 2076.16 4.21265 -0.106644 0
M  V30 22430 H 2074.84 3.19478 0.521114 0
M  V30 22431 H 2073.75 3.28248 -1.79455 0
M  V30 22432 H 2075.08 4.32814 -2.34378 0
M  V30 22433 N 2076.73 0.957992 1.25141 0
M  V30 22434 C 2077.98 0.613378 1.92567 0
M  V30 22435 C 2078.3 -0.852805 1.75363 0
M  V30 22436 O 2077.57 -1.60775 1.11929 0
M  V30 22437 H 2076.15 0.223867 0.712666 0
M  V30 22438 H 2078.81 1.21696 1.52237 0
M  V30 22439 H 2077.91 0.845594 3.00427 0
M  V30 22440 N 2078.21 -1.39832 0.726957 0
M  V30 22441 C 2079.17 -2.29022 0.0903329 0
M  V30 22442 C 2080.17 -1.45921 -0.675553 0
M  V30 22443 O 2081.36 -1.66696 -0.505765 0
M  V30 22444 C 2078.49 -3.29304 -0.881584 0
M  V30 22445 H 2079.69 -2.86821 0.87601 0
M  V30 22446 H 2077.24 -1.48345 0.492294 0
M  V30 22447 H 2077.97 -2.76545 -1.69391 0
M  V30 22448 H 2077.76 -3.90665 -0.33514 0
M  V30 22449 H 2079.25 -3.96061 -1.32384 0
M  V30 22450 N 2079.69 -0.473982 -1.50304 0
M  V30 22451 C 2080.93 0.0801282 -2.02642 0
M  V30 22452 C 2081.27 1.3911 -1.35506 0
M  V30 22453 O 2080.54 1.8844 -0.481719 0
M  V30 22454 C 2080.82 0.26092 -3.59153 0
M  V30 22455 C 2080.68 -1.07128 -4.36857 0
M  V30 22456 C 2082 1.01413 -4.28256 0
M  V30 22457 H 2079.11 0.0276467 -0.736481 0
M  V30 22458 H 2081.76 -0.620135 -1.79595 0
M  V30 22459 H 2079.91 0.857378 -3.78921 0
M  V30 22460 H 2081.58 -1.70454 -4.28653 0
M  V30 22461 H 2079.82 -1.66721 -4.00483 0
M  V30 22462 H 2080.49 -0.898389 -5.4464 0
M  V30 22463 H 2082.97 0.508536 -4.12981 0
M  V30 22464 H 2081.84 1.10943 -5.37571 0
M  V30 22465 H 2082.11 2.05141 -3.91624 0
M  V30 22466 N 2081.16 1.56239 -0.206702 0
M  V30 22467 C 2082.41 1.98197 0.429627 0
M  V30 22468 C 2082.74 1.09386 1.60463 0
M  V30 22469 O 2082.02 0.148321 1.93934 0
M  V30 22470 C 2082.3 3.49218 0.878562 0
M  V30 22471 C 2082.15 4.48805 -0.299054 0
M  V30 22472 C 2083.47 4.04243 1.74 0
M  V30 22473 H 2080.59 0.720583 0.154691 0
M  V30 22474 H 2083.23 1.87617 -0.299957 0
M  V30 22475 H 2081.38 3.58365 1.50023 0
M  V30 22476 H 2083.06 4.51684 -0.936956 0
M  V30 22477 H 2081.3 4.23294 -0.948945 0
M  V30 22478 H 2081.97 5.5197 0.0577652 0
M  V30 22479 H 2084.45 3.97948 1.2156 0
M  V30 22480 H 2083.32 5.10259 2.02305 0
M  V30 22481 H 2083.58 3.50212 2.69823 0
M  V30 22482 N 2082.64 -0.0668159 1.57458 0
M  V30 22483 C 2083.89 -0.76387 1.86676 0
M  V30 22484 C 2084.2 -1.78489 0.800057 0
M  V30 22485 O 2085.41 -2.53187 0.980236 0
M  V30 22486 C 2083.87 -1.4095 3.31151 0
M  V30 22487 C 2083.47 -0.426782 4.45963 0
M  V30 22488 C 2085.22 -2.08863 3.69563 0
M  V30 22489 C 2083.13 -1.07861 5.81481 0
M  V30 22490 H 2082.06 -0.289037 0.6964 0
M  V30 22491 H 2084.71 -0.0172645 1.83492 0
M  V30 22492 H 2083.09 -2.20453 3.28962 0
M  V30 22493 H 2084.26 0.338803 4.59553 0
M  V30 22494 H 2082.58 0.148171 4.16136 0
M  V30 22495 H 2085.17 -2.58415 4.68109 0
M  V30 22496 H 2085.52 -2.89026 2.99616 0
M  V30 22497 H 2086.05 -1.36184 3.73763 0
M  V30 22498 H 2082.79 -0.317194 6.54732 0
M  V30 22499 H 2082.31 -1.81493 5.71682 0
M  V30 22500 H 2083.99 -1.597 6.26981 0
M  V30 22501 N 2084.12 -1.53926 -0.338317 0
M  V30 22502 C 2085.05 -1.78601 -1.43647 0
M  V30 22503 C 2086.07 -0.667465 -1.48488 0
M  V30 22504 O 2087.26 -0.944299 -1.51477 0
M  V30 22505 C 2084.36 -1.87548 -2.82274 0
M  V30 22506 C 2083.53 -3.17539 -3.00811 0
M  V30 22507 C 2082.59 -3.17377 -4.19712 0
M  V30 22508 O 2081.61 -3.91078 -4.13578 0
M  V30 22509 N 2082.82 -2.40116 -5.28512 0
M  V30 22510 H 2085.58 -2.73365 -1.22849 0
M  V30 22511 H 2083.14 -1.5304 -0.528227 0
M  V30 22512 H 2085.13 -1.84885 -3.6 0
M  V30 22513 H 2083.7 -0.999475 -2.96191 0
M  V30 22514 H 2082.92 -3.33284 -2.10512 0
M  V30 22515 H 2084.21 -4.03394 -3.10082 0
M  V30 22516 H 2083.61 -1.79799 -5.36366 0
M  V30 22517 H 2082.17 -2.43245 -6.04711 0
M  V30 22518 N 2085.6 0.599608 -1.45748 0
M  V30 22519 C 2086.88 1.35925 -1.40655 0
M  V30 22520 C 2087.26 2.10944 -0.0812543 0
M  V30 22521 O 2086.6 2.08407 0.936945 0
M  V30 22522 C 2086.81 2.2994 -2.62542 0
M  V30 22523 C 2088.16 2.92299 -3.07971 0
M  V30 22524 O 2089.19 2.40259 -2.62971 0
M  V30 22525 O 2088.05 3.86781 -3.86087 0
M  V30 22526 H 2085.14 0.609876 -0.558552 0
M  V30 22527 H 2087.69 0.622032 -1.57889 0
M  V30 22528 H 2086.46 1.73821 -3.50574 0
M  V30 22529 H 2086.08 3.11029 -2.47683 0
M  V30 22530 N 2087.08 1.33171 0.842803 0
M  V30 22531 C 2088.03 1.23072 1.97373 0
M  V30 22532 C 2089.02 0.132938 1.68878 0
M  V30 22533 O 2090.23 0.296643 1.77539 0
M  V30 22534 H 2086.6 0.381819 0.647857 0
M  V30 22535 H 2088.57 2.18694 2.03016 0
M  V30 22536 C 2087.32 0.982778 3.33522 0
M  V30 22537 H 2086.64 1.81975 3.55985 0
M  V30 22538 H 2088.08 0.952404 4.13165 0
M  V30 22539 C 2086.54 -0.314352 3.3543 0
M  V30 22540 O 2087.07 -1.32235 3.79311 0
M  V30 22541 N 2085.28 -0.340506 2.88598 0
M  V30 22542 H 2084.83 0.480318 2.53082 0
M  V30 22543 H 2084.78 -1.20822 2.90257 0
M  V30 22544 N 2088.56 -1.06056 1.16576 0
M  V30 22545 C 2089.78 -1.83131 0.973539 0
M  V30 22546 C 2090.21 -1.82047 -0.473358 0
M  V30 22547 O 2089.56 -1.22303 -1.33834 0
M  V30 22548 C 2089.61 -3.2753 1.50852 0
M  V30 22549 O 2088.72 -4.06129 0.716451 0
M  V30 22550 H 2088.06 -0.566557 0.346279 0
M  V30 22551 H 2090.59 -1.33704 1.54869 0
M  V30 22552 H 2090.6 -3.78346 1.52704 0
M  V30 22553 H 2089.27 -3.27634 2.56181 0
M  V30 22554 H 2087.85 -3.64892 0.768639 0
M  V30 22555 N 2090.03 -0.964615 -1.24631 0
M  V30 22556 C 2091.31 -0.54181 -1.87946 0
M  V30 22557 C 2091.69 0.981047 -1.86919 0
M  V30 22558 O 2091.04 1.85109 -1.33966 0
M  V30 22559 C 2091.25 -1.12982 -3.30206 0
M  V30 22560 C 2092.6 -1.21281 -4.0691 0
M  V30 22561 O 2093.62 -1.0821 -3.39366 0
M  V30 22562 O 2092.48 -1.41904 -5.27755 0
M  V30 22563 H 2089.57 -0.180209 -0.807127 0
M  V30 22564 H 2092.12 -1.05869 -1.32627 0
M  V30 22565 H 2090.89 -2.17271 -3.25436 0
M  V30 22566 H 2090.51 -0.596798 -3.93096 0
M  V30 22567 N 2091.51 1.39445 -0.734362 0
M  V30 22568 C 2092.76 1.99762 -0.278913 0
M  V30 22569 C 2093.07 1.58936 1.14012 0
M  V30 22570 O 2094.28 2.12085 1.69506 0
M  V30 22571 C 2092.74 3.57104 -0.447725 0
M  V30 22572 C 2092.34 4.06894 -1.87461 0
M  V30 22573 C 2094.09 4.24466 -0.0540192 0
M  V30 22574 C 2091.99 5.56806 -1.993 0
M  V30 22575 H 2090.92 0.747268 -0.100529 0
M  V30 22576 H 2093.58 1.59452 -0.908151 0
M  V30 22577 H 2091.96 3.95208 0.250399 0
M  V30 22578 H 2093.13 3.80126 -2.60463 0
M  V30 22579 H 2091.45 3.52193 -2.22147 0
M  V30 22580 H 2094.04 5.34562 -0.121504 0
M  V30 22581 H 2094.39 4.04341 0.990665 0
M  V30 22582 H 2094.92 3.91534 -0.703277 0
M  V30 22583 H 2091.66 5.8181 -3.01955 0
M  V30 22584 H 2091.18 5.85379 -1.30734 0
M  V30 22585 H 2092.86 6.22208 -1.77387 0
M  V30 22586 N 2092.99 0.481946 1.5005 0
M  V30 22587 C 2093.94 -0.306558 2.28755 0
M  V30 22588 C 2094.91 -0.97752 1.3429 0
M  V30 22589 O 2096.09 -0.987865 1.63236 0
M  V30 22590 C 2093.23 -1.37629 3.16468 0
M  V30 22591 C 2092.34 -0.71902 4.25974 0
M  V30 22592 C 2091.48 -1.76757 5.0093 0
M  V30 22593 C 2090.52 -1.09113 6.02296 0
M  V30 22594 N 2089.66 -2.08302 6.70489 0
M  V30 22595 H 2094.5 0.370886 2.95683 0
M  V30 22596 H 2092.03 0.194749 1.45805 0
M  V30 22597 H 2093.99 -2.00828 3.65683 0
M  V30 22598 H 2092.62 -2.02275 2.51564 0
M  V30 22599 H 2091.67 0.0257987 3.80391 0
M  V30 22600 H 2092.98 -0.1856 4.98455 0
M  V30 22601 H 2092.14 -2.47509 5.53917 0
M  V30 22602 H 2090.88 -2.33481 4.2818 0
M  V30 22603 H 2089.88 -0.369286 5.48558 0
M  V30 22604 H 2091.11 -0.530637 6.77024 0
M  V30 22605 H 2089.05 -2.64023 6.00523 0
M  V30 22606 H 2088.97 -1.59974 7.3888 0
M  V30 22607 H 2090.24 -2.78401 7.28089 0
M  V30 22608 N 2094.47 -1.56127 0.214985 0
M  V30 22609 C 2095.71 -1.98422 -0.41911 0
M  V30 22610 C 2096.05 -1.10235 -1.59881 0
M  V30 22611 O 2095.32 -0.158603 -1.93852 0
M  V30 22612 C 2095.6 -3.49679 -0.86003 0
M  V30 22613 C 2095.46 -4.4864 0.322851 0
M  V30 22614 C 2096.78 -4.0516 -1.71854 0
M  V30 22615 H 2093.9 -0.721393 -0.150867 0
M  V30 22616 H 2096.54 -1.87456 0.309902 0
M  V30 22617 H 2094.69 -3.59155 -1.48121 0
M  V30 22618 H 2096.36 -4.51181 0.960896 0
M  V30 22619 H 2094.6 -4.22784 0.97138 0
M  V30 22620 H 2095.27 -5.51993 -0.028492 0
M  V30 22621 H 2097.75 -3.98587 -1.19448 0
M  V30 22622 H 2096.63 -5.11324 -1.99596 0
M  V30 22623 H 2096.89 -3.51638 -2.67962 0
M  V30 22624 N 2095.95 0.0584645 -1.57492 0
M  V30 22625 C 2097.19 0.75619 -1.88174 0
M  V30 22626 C 2097.52 1.76546 -0.809018 0
M  V30 22627 O 2096.8 1.93672 0.179286 0
M  V30 22628 C 2097.08 1.45223 -3.29518 0
M  V30 22629 C 2096.94 0.458472 -4.47457 0
M  V30 22630 C 2098.25 2.39381 -3.69303 0
M  V30 22631 H 2095.37 0.27344 -0.684397 0
M  V30 22632 H 2098.02 0.0191997 -1.8999 0
M  V30 22633 H 2096.17 2.08044 -3.28101 0
M  V30 22634 H 2097.84 -0.165547 -4.61003 0
M  V30 22635 H 2096.08 -0.225018 -4.33216 0
M  V30 22636 H 2096.75 0.983384 -5.4317 0
M  V30 22637 H 2099.23 1.86628 -3.719 0
M  V30 22638 H 2098.1 2.85078 -4.69065 0
M  V30 22639 H 2098.36 3.24775 -2.99956 0
M  V30 22640 N 2097.42 1.54103 0.330149 0
M  V30 22641 C 2098.83 1.633 0.904982 0
M  V30 22642 C 2099.19 0.522849 1.89105 0
M  V30 22643 O 2098.31 -0.345304 2.13627 0
M  V30 22644 C 2098.91 2.96008 1.64817 0
M  V30 22645 C 2097.46 3.07423 2.17182 0
M  V30 22646 C 2096.61 2.58829 0.995126 0
M  V30 22647 H 2099.56 1.58333 0.10791 0
M  V30 22648 H 2099.58 2.85799 2.51196 0
M  V30 22649 H 2099.1 3.76786 0.930246 0
M  V30 22650 H 2097.2 2.31306 2.9211 0
M  V30 22651 H 2097.31 4.13117 2.42635 0
M  V30 22652 H 2095.67 2.14563 1.3724 0
M  V30 22653 H 2096.46 3.42059 0.291621 0
M  V30 22654 N 2098.9 -0.59187 1.46064 0
M  V30 22655 C 2100.32 -0.914287 1.30816 0
M  V30 22656 C 2100.52 -1.99645 0.272804 0
M  V30 22657 O 2099.57 -2.50363 -0.327818 0
M  V30 22658 C 2100.89 -1.34032 2.69176 0
M  V30 22659 C 2102.44 -1.45367 2.77196 0
M  V30 22660 C 2102.91 -1.9134 4.16117 0
M  V30 22661 N 2104.4 -1.98548 4.18489 0
M  V30 22662 C 2105.14 -2.35376 5.22863 0
M  V30 22663 N 2104.63 -2.7106 6.37572 0
M  V30 22664 N 2106.43 -2.35851 5.10226 0
M  V30 22665 H 2098.58 0.123139 2.12043 0
M  V30 22666 H 2100.84 -0.00757695 0.94797 0
M  V30 22667 H 2100.55 -0.619238 3.46206 0
M  V30 22668 H 2100.42 -2.3037 2.98679 0
M  V30 22669 H 2102.81 -2.16563 2.0046 0
M  V30 22670 H 2102.89 -0.473031 2.51388 0
M  V30 22671 H 2102.53 -1.20726 4.93343 0
M  V30 22672 H 2102.46 -2.90346 4.39325 0
M  V30 22673 H 2104.95 -1.73498 3.35719 0
M  V30 22674 H 2105.27 -2.98088 7.12996 0
M  V30 22675 H 2103.61 -2.68719 6.40948 0
M  V30 22676 H 2106.8 -2.07389 4.19651 0
M  V30 22677 H 2106.97 -2.64224 5.91684 0
M  V30 22678 N 2100.38 -1.33616 -0.835729 0
M  V30 22679 C 2101.8 -1.13019 -1.12689 0
M  V30 22680 C 2102 0.0768335 -2.01353 0
M  V30 22681 O 2101.05 0.756169 -2.40911 0
M  V30 22682 C 2102.37 -2.41918 -1.78595 0
M  V30 22683 C 2103.91 -2.47854 -1.91147 0
M  V30 22684 C 2104.39 -3.76723 -2.60469 0
M  V30 22685 N 2105.88 -3.77811 -2.67979 0
M  V30 22686 C 2106.61 -4.74237 -3.22315 0
M  V30 22687 N 2106.11 -5.81039 -3.77313 0
M  V30 22688 N 2107.9 -4.61709 -3.20596 0
M  V30 22689 H 2100.05 -2.10974 -0.245697 0
M  V30 22690 H 2102.32 -0.932353 -0.171526 0
M  V30 22691 H 2102.02 -3.30264 -1.20906 0
M  V30 22692 H 2101.9 -2.54302 -2.78586 0
M  V30 22693 H 2104.28 -1.59955 -2.47989 0
M  V30 22694 H 2104.37 -2.39408 -0.900965 0
M  V30 22695 H 2104.01 -4.65005 -2.04286 0
M  V30 22696 H 2103.94 -3.82447 -3.61998 0
M  V30 22697 H 2106.43 -3.00626 -2.28982 0
M  V30 22698 H 2106.74 -6.50648 -4.16986 0
M  V30 22699 H 2105.09 -5.8477 -3.75592 0
M  V30 22700 H 2108.28 -3.77426 -2.76888 0
M  V30 22701 H 2108.45 -5.37026 -3.62639 0
M  V30 22702 N 2101.86 1.05436 -1.17136 0
M  V30 22703 C 2102.81 2.13124 -0.885828 0
M  V30 22704 C 2103.78 1.65235 0.169267 0
M  V30 22705 O 2104.96 1.90772 0.032594 0
M  V30 22706 C 2102.1 3.42744 -0.40256 0
M  V30 22707 C 2101.21 4.0432 -1.52149 0
M  V30 22708 C 2100.35 5.21849 -0.992347 0
M  V30 22709 C 2099.39 5.75426 -2.08689 0
M  V30 22710 N 2098.52 6.84259 -1.5727 0
M  V30 22711 H 2103.36 2.36887 -1.808 0
M  V30 22712 H 2100.9 1.16215 -0.901798 0
M  V30 22713 H 2102.86 4.17071 -0.10394 0
M  V30 22714 H 2101.49 3.19171 0.482653 0
M  V30 22715 H 2100.54 3.27456 -1.93589 0
M  V30 22716 H 2101.85 4.40127 -2.34711 0
M  V30 22717 H 2101.01 6.03236 -0.647426 0
M  V30 22718 H 2099.75 4.8751 -0.13613 0
M  V30 22719 H 2098.75 4.9267 -2.44041 0
M  V30 22720 H 2099.98 6.11813 -2.94722 0
M  V30 22721 H 2097.92 6.51822 -0.739158 0
M  V30 22722 H 2097.84 7.19055 -2.33442 0
M  V30 22723 H 2099.11 7.69304 -1.25663 0
M  V30 22724 N 2103.34 0.971211 1.24118 0
M  V30 22725 C 2104.3 0.509064 2.23475 0
M  V30 22726 C 2105.3 -0.39631 1.5584 0
M  V30 22727 O 2106.49 -0.191281 1.73147 0
M  V30 22728 C 2103.62 -0.262327 3.39889 0
M  V30 22729 H 2104.81 1.38746 2.65875 0
M  V30 22730 H 2102.37 0.756154 1.36792 0
M  V30 22731 H 2103.1 -1.15767 3.02933 0
M  V30 22732 H 2102.89 0.387439 3.90181 0
M  V30 22733 H 2104.38 -0.574574 4.13628 0
M  V30 22734 N 2104.81 -1.39054 0.741747 0
M  V30 22735 C 2105.76 -2.30556 0.106197 0
M  V30 22736 C 2106.73 -1.49566 -0.722434 0
M  V30 22737 O 2107.92 -1.78233 -0.681008 0
M  V30 22738 C 2105.06 -3.35936 -0.790013 0
M  V30 22739 C 2104.17 -4.31969 0.051964 0
M  V30 22740 C 2103.3 -5.24418 -0.846146 0
M  V30 22741 C 2102.34 -6.121 0.000177444 0
M  V30 22742 N 2101.48 -6.96884 -0.854237 0
M  V30 22743 H 2106.32 -2.84333 0.892113 0
M  V30 22744 H 2103.86 -1.39997 0.451583 0
M  V30 22745 H 2105.82 -3.95629 -1.32413 0
M  V30 22746 H 2104.45 -2.83597 -1.54183 0
M  V30 22747 H 2103.5 -3.73837 0.70358 0
M  V30 22748 H 2104.81 -4.93777 0.706061 0
M  V30 22749 H 2103.96 -5.8917 -1.44786 0
M  V30 22750 H 2102.7 -4.62947 -1.53401 0
M  V30 22751 H 2101.71 -5.46353 0.614648 0
M  V30 22752 H 2102.93 -6.75637 0.684921 0
M  V30 22753 H 2100.88 -6.37974 -1.52727 0
M  V30 22754 H 2100.8 -7.55564 -0.256771 0
M  V30 22755 H 2102.06 -7.66059 -1.4413 0
M  V30 22756 N 2106.29 -0.489897 -1.49792 0
M  V30 22757 C 2107.54 0.0603289 -2.0161 0
M  V30 22758 C 2107.85 1.39071 -1.37545 0
M  V30 22759 O 2109.06 2.02698 -1.80626 0
M  V30 22760 C 2107.52 0.157998 -3.59553 0
M  V30 22761 C 2107.12 -1.16507 -4.32585 0
M  V30 22762 C 2108.87 0.65918 -4.19351 0
M  V30 22763 C 2106.78 -1.03017 -5.82358 0
M  V30 22764 H 2105.71 0.0263203 -0.75354 0
M  V30 22765 H 2108.36 -0.627641 -1.72432 0
M  V30 22766 H 2106.74 0.910172 -3.85398 0
M  V30 22767 H 2107.91 -1.92967 -4.1845 0
M  V30 22768 H 2106.23 -1.59883 -3.84482 0
M  V30 22769 H 2108.82 0.77744 -5.29018 0
M  V30 22770 H 2109.17 1.65527 -3.81977 0
M  V30 22771 H 2109.7 -0.0361409 -3.97784 0
M  V30 22772 H 2106.44 -2.00019 -6.24238 0
M  V30 22773 H 2105.96 -0.306276 -5.99018 0
M  V30 22774 H 2107.64 -0.704383 -6.43154 0
M  V30 22775 N 2107.77 1.56011 -0.223262 0
M  V30 22776 C 2109.02 1.97523 0.40834 0
M  V30 22777 C 2109.33 1.11401 1.60777 0
M  V30 22778 O 2110.54 1.4282 2.309 0
M  V30 22779 C 2108.99 3.51393 0.777885 0
M  V30 22780 C 2108.6 4.46221 -0.398826 0
M  V30 22781 C 2110.35 4.01614 1.37499 0
M  V30 22782 C 2108.25 5.914 -0.00675168 0
M  V30 22783 H 2107.18 0.737614 0.156337 0
M  V30 22784 H 2109.83 1.80693 -0.319744 0
M  V30 22785 H 2108.22 3.6383 1.56344 0
M  V30 22786 H 2109.39 4.45532 -1.17635 0
M  V30 22787 H 2107.71 4.06351 -0.909284 0
M  V30 22788 H 2110.3 5.0758 1.68127 0
M  V30 22789 H 2110.65 3.47566 2.29137 0
M  V30 22790 H 2111.18 3.92406 0.65284 0
M  V30 22791 H 2107.92 6.49435 -0.889654 0
M  V30 22792 H 2107.44 5.95279 0.735052 0
M  V30 22793 H 2109.12 6.4564 0.419339 0
M  V30 22794 N 2109.25 -0.0501116 1.5752 0
M  V30 22795 C 2110.66 -0.405366 1.54366 0
M  V30 22796 C 2110.86 -1.77885 0.946523 0
M  V30 22797 O 2109.92 -2.46248 0.558406 0
M  V30 22798 C 2111.23 -0.326523 2.98922 0
M  V30 22799 C 2112.78 -0.40514 3.10367 0
M  V30 22800 C 2113.26 -0.355974 4.56615 0
M  V30 22801 N 2114.75 -0.415404 4.61334 0
M  V30 22802 C 2115.48 -0.39992 5.72004 0
M  V30 22803 N 2114.98 -0.337966 6.91975 0
M  V30 22804 N 2116.77 -0.448091 5.60311 0
M  V30 22805 H 2108.92 0.848979 1.94695 0
M  V30 22806 H 2111.19 0.320787 0.892076 0
M  V30 22807 H 2110.89 0.616487 3.46255 0
M  V30 22808 H 2110.77 -1.12839 3.59927 0
M  V30 22809 H 2113.15 -1.33858 2.62995 0
M  V30 22810 H 2113.23 0.425702 2.52233 0
M  V30 22811 H 2112.88 0.573705 5.04649 0
M  V30 22812 H 2112.81 -1.20464 5.12636 0
M  V30 22813 H 2115.3 -0.466654 3.75008 0
M  V30 22814 H 2115.61 -0.330673 7.72092 0
M  V30 22815 H 2113.96 -0.304327 6.94333 0
M  V30 22816 H 2117.15 -0.494336 4.65482 0
M  V30 22817 H 2117.32 -0.432555 6.46555 0
M  V30 22818 N 2110.73 -1.54276 -0.321972 0
M  V30 22819 C 2112 -1.63209 -1.07806 0
M  V30 22820 C 2112.38 -0.466965 -2.0587 0
M  V30 22821 O 2111.73 0.538598 -2.22062 0
M  V30 22822 C 2111.94 -3.00279 -1.77858 0
M  V30 22823 C 2113.29 -3.5638 -2.30822 0
M  V30 22824 O 2114.31 -3.02594 -1.87923 0
M  V30 22825 O 2113.17 -4.50507 -3.09364 0
M  V30 22826 H 2110.27 -0.660982 -0.497023 0
M  V30 22827 H 2112.81 -1.66622 -0.321736 0
M  V30 22828 H 2111.58 -3.76518 -1.06537 0
M  V30 22829 H 2111.21 -3.00552 -2.60297 0
M  V30 22830 N 2112.2 0.584116 -1.46376 0
M  V30 22831 C 2113.43 1.36646 -1.54956 0
M  V30 22832 C 2113.84 1.88253 -0.189086 0
M  V30 22833 O 2113.19 1.64204 0.823577 0
M  V30 22834 C 2113.25 2.59061 -2.49254 0
M  V30 22835 C 2112.91 2.28931 -3.95524 0
M  V30 22836 C 2113.91 1.87853 -4.84775 0
M  V30 22837 C 2111.59 2.41119 -4.40644 0
M  V30 22838 C 2113.59 1.59356 -6.17158 0
M  V30 22839 C 2111.27 2.12234 -5.73062 0
M  V30 22840 C 2112.27 1.71417 -6.61139 0
M  V30 22841 O 2111.96 1.42885 -7.911 0
M  V30 22842 H 2111.69 0.423848 -0.52662 0
M  V30 22843 H 2114.25 0.717203 -1.92472 0
M  V30 22844 H 2112.48 3.26787 -2.06754 0
M  V30 22845 H 2114.17 3.21128 -2.48257 0
M  V30 22846 H 2114.93 1.77953 -4.51174 0
M  V30 22847 H 2110.81 2.71852 -3.72313 0
M  V30 22848 H 2114.35 1.27422 -6.85864 0
M  V30 22849 H 2110.25 2.21758 -6.06212 0
M  V30 22850 H 2111.02 1.56742 -8.03352 0
M  V30 22851 N 2113.68 1.34058 0.828631 0
M  V30 22852 C 2114.93 1.25844 1.58138 0
M  V30 22853 C 2115.25 -0.173004 1.94231 0
M  V30 22854 O 2114.52 -1.10425 1.61812 0
M  V30 22855 H 2113.1 0.4628 0.586366 0
M  V30 22856 H 2115.76 1.67901 0.989709 0
M  V30 22857 H 2114.86 1.85925 2.50676 0
M  V30 22858 N 2115.16 -1.04814 1.17694 0
M  V30 22859 C 2116.11 -2.12651 0.897118 0
M  V30 22860 C 2117.08 -1.65323 -0.160501 0
M  V30 22861 O 2118.26 -1.90787 -0.0224765 0
M  V30 22862 C 2115.4 -3.42526 0.420731 0
M  V30 22863 C 2114.52 -4.03508 1.54291 0
M  V30 22864 C 2113.65 -5.21315 1.02001 0
M  V30 22865 C 2112.69 -5.74311 2.11738 0
M  V30 22866 N 2111.83 -6.83415 1.60897 0
M  V30 22867 H 2116.67 -2.35925 1.82054 0
M  V30 22868 H 2114.2 -1.15736 0.907948 0
M  V30 22869 H 2116.16 -4.1701 0.126057 0
M  V30 22870 H 2114.79 -3.19423 -0.46572 0
M  V30 22871 H 2113.84 -3.26425 1.95323 0
M  V30 22872 H 2115.16 -4.38876 2.37042 0
M  V30 22873 H 2114.31 -6.02884 0.679408 0
M  V30 22874 H 2113.05 -4.87431 0.161982 0
M  V30 22875 H 2112.05 -4.91369 2.46651 0
M  V30 22876 H 2113.28 -6.10242 2.97963 0
M  V30 22877 H 2111.23 -6.51421 0.773715 0
M  V30 22878 H 2111.14 -7.17807 2.37252 0
M  V30 22879 H 2112.41 -7.68627 1.29741 0
M  V30 22880 N 2116.64 -0.977779 -1.23601 0
M  V30 22881 C 2117.57 -0.473925 -2.24247 0
M  V30 22882 C 2118.58 0.422811 -1.57214 0
M  V30 22883 O 2119.77 0.227368 -1.77046 0
M  V30 22884 C 2116.87 0.334033 -3.3725 0
M  V30 22885 C 2116.05 -0.555203 -4.33862 0
M  V30 22886 C 2115.11 0.198457 -5.25826 0
M  V30 22887 O 2114.13 -0.411037 -5.67714 0
M  V30 22888 N 2115.33 1.48519 -5.61179 0
M  V30 22889 H 2118.1 -1.3393 -2.6811 0
M  V30 22890 H 2115.66 -0.850748 -1.37746 0
M  V30 22891 H 2117.65 0.846503 -3.95748 0
M  V30 22892 H 2116.22 1.1004 -2.92592 0
M  V30 22893 H 2115.44 -1.24853 -3.73905 0
M  V30 22894 H 2116.73 -1.16132 -4.95369 0
M  V30 22895 H 2116.13 2.00194 -5.29092 0
M  V30 22896 H 2114.68 1.94316 -6.22161 0
M  V30 22897 N 2118.12 1.38658 -0.749111 0
M  V30 22898 C 2119.05 2.28102 -0.0669266 0
M  V30 22899 C 2120.03 1.4514 0.73301 0
M  V30 22900 O 2121.21 1.74512 0.712587 0
M  V30 22901 C 2118.34 3.26187 0.912124 0
M  V30 22902 C 2117.39 4.26036 0.198966 0
M  V30 22903 S 2118.22 5.24141 -1.09709 0
M  V30 22904 C 2119.37 6.25783 -0.120993 0
M  V30 22905 H 2119.61 2.85612 -0.825411 0
M  V30 22906 H 2117.14 1.44593 -0.541501 0
M  V30 22907 H 2119.1 3.83213 1.47167 0
M  V30 22908 H 2117.76 2.67668 1.64355 0
M  V30 22909 H 2116.95 4.95151 0.940303 0
M  V30 22910 H 2116.55 3.72882 -0.288934 0
M  V30 22911 H 2118.85 6.73721 0.714567 0
M  V30 22912 H 2119.79 7.03794 -0.779679 0
M  V30 22913 H 2120.2 5.63911 0.257705 0
M  V30 22914 N 2119.6 0.497834 1.49531 0
M  V30 22915 C 2120.56 -0.27122 2.2759 0
M  V30 22916 C 2121.56 -0.89678 1.33471 0
M  V30 22917 O 2122.75 -0.761804 1.56659 0
M  V30 22918 C 2119.88 -1.38885 3.11326 0
M  V30 22919 H 2121.07 0.413704 2.97033 0
M  V30 22920 H 2118.63 0.252699 1.54244 0
M  V30 22921 H 2119.36 -2.10802 2.46441 0
M  V30 22922 H 2119.15 -0.94578 3.80523 0
M  V30 22923 H 2120.64 -1.93065 3.70291 0
M  V30 22924 N 2121.07 -1.5589 0.231532 0
M  V30 22925 C 2122.32 -1.98169 -0.396667 0
M  V30 22926 C 2122.64 -1.12067 -1.59581 0
M  V30 22927 O 2121.91 -0.199942 -1.94877 0
M  V30 22928 H 2120.49 -0.731878 -0.149544 0
M  V30 22929 H 2123.15 -1.92142 0.326749 0
M  V30 22930 H 2122.25 -3.0377 -0.716243 0
M  V30 22931 N 2122.55 0.0417572 -1.57545 0
M  V30 22932 C 2123.83 0.769799 -1.79815 0
M  V30 22933 C 2124.21 1.94247 -0.826527 0
M  V30 22934 O 2123.56 2.28106 0.134058 0
M  V30 22935 C 2123.77 1.21472 -3.27178 0
M  V30 22936 C 2125.11 1.63585 -3.91823 0
M  V30 22937 O 2126.14 1.30963 -3.31251 0
M  V30 22938 O 2125 2.24087 -4.98445 0
M  V30 22939 H 2122.09 0.371214 -0.739005 0
M  V30 22940 H 2124.64 0.019513 -1.69689 0
M  V30 22941 H 2123.41 0.377014 -3.8948 0
M  V30 22942 H 2123.03 2.02541 -3.42144 0
M  V30 22943 N 2124.03 1.54445 0.313786 0
M  V30 22944 C 2125.31 1.63779 1.06939 0
M  V30 22945 C 2125.69 0.477876 2.0562 0
M  V30 22946 O 2125.03 -0.526814 2.22344 0
M  V30 22947 C 2125.24 3.01218 1.76263 0
M  V30 22948 C 2126.59 3.57599 2.28928 0
M  V30 22949 O 2127.62 3.03587 1.86316 0
M  V30 22950 O 2126.48 4.52141 3.06971 0
M  V30 22951 H 2123.57 0.663608 0.493511 0
M  V30 22952 H 2126.12 1.6679 0.312895 0
M  V30 22953 H 2124.89 3.77077 1.04539 0
M  V30 22954 H 2124.51 3.01928 2.58699 0
M  V30 22955 N 2125.51 -0.576345 1.46683 0
M  V30 22956 C 2126.75 -1.3453 1.53886 0
M  V30 22957 C 2127.11 -1.91071 0.188643 0
M  V30 22958 O 2128.31 -2.68459 0.135445 0
M  V30 22959 C 2126.58 -2.4398 2.61168 0
M  V30 22960 S 2128.14 -3.31217 2.87821 0
M  V30 22961 H 2124.96 -0.458249 0.543626 0
M  V30 22962 H 2127.56 -0.661885 1.83955 0
M  V30 22963 H 2126.27 -2.00844 3.57896 0
M  V30 22964 H 2125.8 -3.17086 2.32852 0
M  V30 22965 H 2127.81 -4.42977 2.23576 0
M  V30 22966 N 2126.99 -1.34495 -0.82151 0
M  V30 22967 C 2128.23 -1.27119 -1.58014 0
M  V30 22968 C 2128.56 0.158163 -1.93555 0
M  V30 22969 O 2127.84 1.10389 -1.60139 0
M  V30 22970 C 2128.12 -2.16338 -2.87871 0
M  V30 22971 C 2127.98 -3.67818 -2.58902 0
M  V30 22972 C 2129.29 -2.04971 -3.89455 0
M  V30 22973 H 2126.41 -0.463115 -0.573318 0
M  V30 22974 H 2129.06 -1.6476 -0.946264 0
M  V30 22975 H 2127.21 -1.84367 -3.41966 0
M  V30 22976 H 2128.88 -4.10161 -2.11106 0
M  V30 22977 H 2127.12 -3.88837 -1.92324 0
M  V30 22978 H 2127.79 -4.25612 -3.51509 0
M  V30 22979 H 2130.27 -2.33044 -3.44717 0
M  V30 22980 H 2129.14 -2.6962 -4.78118 0
M  V30 22981 H 2129.4 -1.02711 -4.30003 0
M  V30 22982 N 2128.46 1.04188 -1.18248 0
M  V30 22983 C 2129.43 2.10339 -0.910507 0
M  V30 22984 C 2130.43 1.60466 0.103607 0
M  V30 22985 O 2131.62 1.73717 -0.129699 0
M  V30 22986 C 2128.75 3.38931 -0.36584 0
M  V30 22987 H 2129.94 2.359 -1.85179 0
M  V30 22988 H 2127.5 1.20593 -0.994332 0
M  V30 22989 H 2128.23 3.19033 0.582115 0
M  V30 22990 H 2128.02 3.76446 -1.09686 0
M  V30 22991 H 2129.51 4.17148 -0.194209 0
M  V30 22992 N 2129.94 0.98432 1.23081 0
M  V30 22993 C 2131.17 0.673202 1.9617 0
M  V30 22994 C 2131.59 -0.753958 1.72328 0
M  V30 22995 O 2130.95 -1.51414 0.997167 0
M  V30 22996 C 2131 0.974266 3.47189 0
M  V30 22997 O 2130.1 0.0683695 4.12343 0
M  V30 22998 H 2129.44 0.252801 0.613993 0
M  V30 22999 H 2131.97 1.31898 1.5641 0
M  V30 23000 H 2131.98 0.912577 3.97663 0
M  V30 23001 H 2130.66 2.01426 3.63868 0
M  V30 23002 H 2129.24 0.184805 3.72442 0
M  V30 23003 N 2131.42 -1.38259 0.756453 0
M  V30 23004 C 2132.84 -1.53575 0.434365 0
M  V30 23005 C 2133.04 -1.71851 -1.05212 0
M  V30 23006 O 2132.09 -1.73115 -1.83814 0
M  V30 23007 C 2133.41 -2.74118 1.23611 0
M  V30 23008 C 2134.95 -2.8797 1.22647 0
M  V30 23009 C 2135.43 -4.11477 2.01124 0
M  V30 23010 N 2136.92 -4.1856 1.98399 0
M  V30 23011 C 2137.65 -5.13124 2.55913 0
M  V30 23012 N 2137.15 -6.13343 3.22153 0
M  V30 23013 N 2138.94 -5.05495 2.45827 0
M  V30 23014 H 2131.09 -1.24647 1.7198 0
M  V30 23015 H 2133.36 -0.605745 0.72923 0
M  V30 23016 H 2133.06 -2.67028 2.28886 0
M  V30 23017 H 2132.94 -3.67384 0.854919 0
M  V30 23018 H 2135.32 -2.9454 0.181771 0
M  V30 23019 H 2135.41 -1.95707 1.6472 0
M  V30 23020 H 2135.05 -4.05669 3.05607 0
M  V30 23021 H 2134.98 -5.02825 1.56444 0
M  V30 23022 H 2137.47 -3.46785 1.50161 0
M  V30 23023 H 2137.78 -6.81999 3.63451 0
M  V30 23024 H 2136.13 -6.13667 3.26248 0
M  V30 23025 H 2139.32 -4.26141 1.93705 0
M  V30 23026 H 2139.49 -5.79012 2.90946 0
M  V30 23027 N 2132.9 -0.505757 -1.49264 0
M  V30 23028 C 2133.83 0.30691 -2.27136 0
M  V30 23029 C 2134.84 0.926357 -1.33875 0
M  V30 23030 O 2136.03 0.808892 -1.5912 0
M  V30 23031 C 2133.13 1.44752 -3.06431 0
M  V30 23032 C 2132.31 0.934498 -4.27301 0
M  V30 23033 C 2131.36 1.95329 -4.88603 0
M  V30 23034 O 2130.39 1.51993 -5.48532 0
M  V30 23035 N 2131.59 3.28401 -4.78678 0
M  V30 23036 H 2134.36 -0.360836 -2.9752 0
M  V30 23037 H 2131.92 -0.338592 -1.5832 0
M  V30 23038 H 2133.91 2.12672 -3.44315 0
M  V30 23039 H 2132.48 2.01934 -2.38624 0
M  V30 23040 H 2131.7 0.0800492 -3.94119 0
M  V30 23041 H 2132.99 0.570223 -5.05595 0
M  V30 23042 H 2132.39 3.66295 -4.31097 0
M  V30 23043 H 2130.94 3.92022 -5.20732 0
M  V30 23044 N 2134.38 1.55765 -0.239796 0
M  V30 23045 C 2135.65 1.90659 0.436876 0
M  V30 23046 C 2136.03 1.1596 1.76398 0
M  V30 23047 O 2135.38 0.274778 2.26842 0
M  V30 23048 C 2135.59 3.43593 0.611939 0
M  V30 23049 C 2136.94 4.1471 0.911065 0
M  V30 23050 O 2137.96 3.49293 0.698064 0
M  V30 23051 O 2136.82 5.30411 1.3163 0
M  V30 23052 H 2133.92 0.793348 0.233511 0
M  V30 23053 H 2136.46 1.67318 -0.283335 0
M  V30 23054 H 2135.23 3.89961 -0.323424 0
M  V30 23055 H 2134.86 3.72773 1.38296 0
M  V30 23056 N 2135.85 -0.0334016 1.57565 0
M  V30 23057 C 2136.76 -1.05241 2.0967 0
M  V30 23058 C 2137.78 -1.39917 1.03437 0
M  V30 23059 O 2138.96 -1.49324 1.35146 0
M  V30 23060 C 2136.02 -2.3357 2.56215 0
M  V30 23061 C 2135.08 -2.05514 3.76912 0
M  V30 23062 C 2134.32 -3.27724 4.21227 0
M  V30 23063 O 2134.54 -4.38244 3.65101 0
M  V30 23064 O 2133.47 -3.13679 5.13701 0
M  V30 23065 H 2137.3 -0.639612 2.96888 0
M  V30 23066 H 2134.88 -0.250101 1.47292 0
M  V30 23067 H 2136.77 -3.09022 2.86502 0
M  V30 23068 H 2135.44 -2.74153 1.7211 0
M  V30 23069 H 2134.35 -1.27644 3.5165 0
M  V30 23070 H 2135.68 -1.69789 4.61988 0
M  V30 23071 N 2137.33 -1.54609 -0.305591 0
M  V30 23072 C 2138.61 -1.64344 -1.06068 0
M  V30 23073 C 2138.99 -0.488774 -2.05364 0
M  V30 23074 O 2138.34 0.515015 -2.2262 0
M  V30 23075 C 2138.55 -3.02149 -1.74663 0
M  V30 23076 C 2139.9 -3.58808 -2.27029 0
M  V30 23077 O 2140.92 -3.04571 -1.84703 0
M  V30 23078 O 2139.78 -4.53762 -3.04568 0
M  V30 23079 H 2136.87 -0.666216 -0.489984 0
M  V30 23080 H 2139.42 -1.66954 -0.304046 0
M  V30 23081 H 2138.19 -3.77626 -1.02538 0
M  V30 23082 H 2137.81 -3.03296 -2.57094 0
M  V30 23083 O 2138.85 0.4515 -1.5506 0
M  V30 23084 H 2139.54 1.10542 -1.5906 0
M  V30 END ATOM
M  V30 BEGIN BOND
M  V30 END BOND
M  V30 END CTAB
M  END
$$$$
