drugbank_target|Q8MU52 Glutathione S-transferase (DB00608; DB01942; DB04132)
 OpenBabel12092120233D

  0  0  0     0  0            999 V3000
M  V30 BEGIN CTAB
M  V30 COUNTS 3470 3513 0 0 0
M  V30 BEGIN ATOM
M  V30 1 H -0.908 1.98254 -0.117106 0
M  V30 2 N 0 1.576 0 0
M  V30 3 C 0.933 2.03868 1.02534 0
M  V30 4 C 1.911 0.928543 1.3348 0
M  V30 5 O 3.095 1.19667 1.45644 0
M  V30 6 C 0.222 2.43627 2.35294 0
M  V30 7 C -0.732 3.65373 2.2001 0
M  V30 8 S 0.101 5.13292 1.52614 0
M  V30 9 C 1.257 5.56322 2.86805 0
M  V30 10 H 1.49 2.90518 0.631377 0
M  V30 11 H -0.977 1.52953 0.210867 0
M  V30 12 H 0.981 2.67203 3.11629 0
M  V30 13 H -0.358 1.57376 2.7183 0
M  V30 14 H -1.165 3.90944 3.18086 0
M  V30 15 H -1.563 3.418 1.51819 0
M  V30 16 H 0.729 5.58782 3.83104 0
M  V30 17 H 1.672 6.56266 2.65933 0
M  V30 18 H 2.08 4.83886 2.90714 0
M  V30 19 N 1.4781 -0.272755 1.55222 0
M  V30 20 C 2.7261 -1.00234 1.75492 0
M  V30 21 C 3.0471 -1.8681 0.5592 0
M  V30 22 O 2.3171 -1.91215 -0.425882 0
M  V30 23 H 0.8971 -0.373076 0.647166 0
M  V30 24 H 3.5591 -0.296926 1.92625 0
M  V30 25 H 2.6551 -1.63913 2.65592 0
M  V30 26 N 2.9562 -1.48159 -0.537278 0
M  V30 27 C 4.2332 -1.46291 -1.29839 0
M  V30 28 C 4.6132 -0.170613 -2.10409 0
M  V30 29 O 3.9612 0.847746 -2.12192 0
M  V30 30 C 4.1712 -2.72055 -2.18603 0
M  V30 31 C 5.5192 -3.20087 -2.7898 0
M  V30 32 O 6.5432 -2.72921 -2.28894 0
M  V30 33 O 5.4022 -4.02138 -3.70064 0
M  V30 34 H 2.4962 -0.583906 -0.585647 0
M  V30 35 H 5.0422 -1.60384 -0.554534 0
M  V30 36 H 3.8142 -3.57628 -1.58801 0
M  V30 37 H 3.4372 -2.60646 -3.00249 0
M  V30 38 N 4.4343 0.785586 -1.36625 0
M  V30 39 C 5.3823 1.91978 -1.31329 0
M  V30 40 C 6.3763 1.68162 -0.204416 0
M  V30 41 O 7.5823 1.76122 -0.371645 0
M  V30 42 H 3.9573 0.631087 -0.408942 0
M  V30 43 H 5.9283 1.93562 -2.27104 0
M  V30 44 C 4.6773 3.29055 -1.12329 0
M  V30 45 H 4.0003 3.4795 -1.96903 0
M  V30 46 H 5.4403 4.08756 -1.12671 0
M  V30 47 C 3.8993 3.36461 0.171861 0
M  V30 48 O 4.4293 3.84576 1.16035 0
M  V30 49 N 2.6353 2.89782 0.217846 0
M  V30 50 H 2.1823 2.50819 -0.587183 0
M  V30 51 H 2.1403 2.95119 1.08408 0
M  V30 52 N 5.9124 1.20967 1.01018 0
M  V30 53 C 7.1614 1.01796 1.74128 0
M  V30 54 C 7.4744 -0.449691 1.90361 0
M  V30 55 O 8.6804 -0.76068 2.60626 0
M  V30 56 C 7.1364 1.7727 3.13215 0
M  V30 57 C 6.7444 3.28171 3.04972 0
M  V30 58 C 8.4884 1.66489 3.90489 0
M  V30 59 C 6.3954 3.96156 4.39107 0
M  V30 60 H 5.3254 0.377276 0.652824 0
M  V30 61 H 7.9764 1.44651 1.12909 0
M  V30 62 H 6.3584 1.27205 3.75013 0
M  V30 63 H 7.5324 3.85499 2.52443 0
M  V30 64 H 5.8474 3.39437 2.41188 0
M  V30 65 H 8.4444 2.14617 4.89738 0
M  V30 66 H 8.7874 0.6222 4.11624 0
M  V30 67 H 9.3204 2.14003 3.35332 0
M  V30 68 H 6.0594 5.00604 4.23174 0
M  V30 69 H 5.5794 3.43617 4.91617 0
M  V30 70 H 7.2584 4.00774 5.07926 0
M  V30 71 N 7.3905 -1.2043 1.01659 0
M  V30 72 C 8.6365 -1.90079 0.706963 0
M  V30 73 C 8.9695 -1.78648 -0.761474 0
M  V30 74 O 8.2445 -1.17069 -1.55323 0
M  V30 75 C 8.5275 -3.41469 1.14327 0
M  V30 76 C 8.3805 -3.61833 2.67201 0
M  V30 77 C 9.6995 -4.34261 0.714529 0
M  V30 78 H 6.8185 -0.690254 0.2583 0
M  V30 79 H 9.4605 -1.41826 1.26433 0
M  V30 80 H 7.6105 -3.82696 0.669056 0
M  V30 81 H 9.2825 -3.2986 3.22475 0
M  V30 82 H 7.5255 -3.05304 3.08175 0
M  V30 83 H 8.1965 -4.67955 2.92783 0
M  V30 84 H 10.6725 -4.00682 1.12221 0
M  V30 85 H 9.5485 -5.38806 1.04784 0
M  V30 86 H 9.8095 -4.40431 -0.383799 0
M  V30 87 N 8.8686 -0.792821 -1.36206 0
M  V30 88 C 9.7986 -0.207853 -2.32573 0
M  V30 89 C 10.7796 0.659055 -1.56813 0
M  V30 90 O 11.9646 0.592176 -1.84951 0
M  V30 91 C 9.0946 0.655449 -3.41059 0
M  V30 92 C 8.0486 -0.111842 -4.27854 0
M  V30 93 C 7.3746 0.872274 -5.27537 0
M  V30 94 C 8.6746 -1.30299 -5.05786 0
M  V30 95 H 10.3686 -1.01294 -2.81744 0
M  V30 96 H 7.9146 -0.48854 -1.3546 0
M  V30 97 H 9.8676 1.07464 -4.07467 0
M  V30 98 H 8.5916 1.49328 -2.90463 0
M  V30 99 H 7.2506 -0.512053 -3.63006 0
M  V30 100 H 6.8986 1.70523 -4.73214 0
M  V30 101 H 6.5986 0.363291 -5.86476 0
M  V30 102 H 8.1226 1.28996 -5.96818 0
M  V30 103 H 9.5366 -0.959379 -5.65216 0
M  V30 104 H 7.9336 -1.7455 -5.74154 0
M  V30 105 H 9.0036 -2.09663 -4.37229 0
M  V30 106 N 10.3467 1.47872 -0.545128 0
M  V30 107 C 11.5767 2.06589 -0.0210534 0
M  V30 108 C 11.9847 1.39997 1.27269 0
M  V30 109 O 11.3277 0.486421 1.77143 0
M  V30 110 C 11.3897 3.58574 0.257933 0
M  V30 111 C 11.0537 4.47132 -0.944573 0
M  V30 112 C 12.0507 4.85986 -1.84699 0
M  V30 113 C 9.7357 4.88821 -1.15584 0
M  V30 114 C 11.7297 5.65314 -2.94446 0
M  V30 115 C 9.4167 5.67916 -2.25642 0
M  V30 116 C 10.4147 6.06073 -3.14905 0
M  V30 117 O 10.1027 6.83578 -4.23057 0
M  V30 118 H 9.8347 0.674971 -0.0372899 0
M  V30 119 H 12.3887 1.91037 -0.754599 0
M  V30 120 H 10.6187 3.72295 1.04564 0
M  V30 121 H 12.3077 3.99356 0.72592 0
M  V30 122 H 13.0737 4.54388 -1.69577 0
M  V30 123 H 8.9527 4.58595 -0.470279 0
M  V30 124 H 12.4967 5.95016 -3.64145 0
M  V30 125 H 8.3937 5.98927 -2.40742 0
M  V30 126 H 9.1617 7.01954 -4.20954 0
M  V30 127 N 11.8248 0.280983 1.55075 0
M  V30 128 C 13.0548 -0.336804 2.03836 0
M  V30 129 C 13.4628 -1.49577 1.15859 0
M  V30 130 O 12.8058 -1.82888 0.172503 0
M  V30 131 C 12.8678 -0.874616 3.48699 0
M  V30 132 C 12.5318 0.156478 4.56732 0
M  V30 133 C 13.5288 0.978032 5.10618 0
M  V30 134 C 11.2138 0.292409 5.01448 0
M  V30 135 C 13.2078 1.92165 6.07743 0
M  V30 136 C 10.8948 1.23949 5.98398 0
M  V30 137 C 11.8928 2.05261 6.51427 0
M  V30 138 O 11.5808 2.98367 7.4648 0
M  V30 139 H 11.3128 -0.0800885 0.671239 0
M  V30 140 H 13.8668 0.412589 2.01213 0
M  V30 141 H 12.0968 -1.67418 3.4858 0
M  V30 142 H 13.7858 -1.40612 3.80766 0
M  V30 143 H 14.5518 0.883782 4.7688 0
M  V30 144 H 10.4308 -0.330498 4.59814 0
M  V30 145 H 13.9748 2.55672 6.49059 0
M  V30 146 H 9.8718 1.33454 6.31554 0
M  V30 147 H 10.6398 2.93116 7.64215 0
M  V30 148 N 13.3029 -1.57598 0.00835791 0
M  V30 149 C 14.5499 -1.90928 -0.674732 0
M  V30 150 C 14.8779 -0.88277 -1.73313 0
M  V30 151 O 14.1329 0.111294 -1.95383 0
M  V30 152 C 14.4319 -3.3101 -1.34787 0
M  V30 153 C 14.0979 -4.48922 -0.421861 0
M  V30 154 C 12.7599 -4.8091 -0.166927 0
M  V30 155 C 15.1119 -5.20755 0.215211 0
M  V30 156 C 12.4399 -5.821 0.733232 0
M  V30 157 C 14.7919 -6.22905 1.1033 0
M  V30 158 C 13.4559 -6.53346 1.36733 0
M  V30 159 H 12.7259 -0.698656 -0.246902 0
M  V30 160 H 15.3729 -1.91387 0.0656779 0
M  V30 161 H 13.6779 -3.26714 -2.16253 0
M  V30 162 H 15.3749 -3.54061 -1.8826 0
M  V30 163 H 11.9649 -4.23934 -0.630729 0
M  V30 164 H 16.1489 -4.9629 0.0312829 0
M  V30 165 H 11.4049 -6.04042 0.945712 0
M  V30 166 H 15.5789 -6.77694 1.60325 0
M  V30 167 H 13.2059 -7.31573 2.06652 0
M  V30 168 N 14.781 0.264519 -1.55364 0
M  V30 169 C 16.058 1.01677 -1.67096 0
M  V30 170 C 16.438 2.03996 -0.543015 0
M  V30 171 O 15.786 2.23907 0.45585 0
M  V30 172 C 15.996 1.66596 -3.0667 0
M  V30 173 C 17.344 2.17442 -3.64697 0
M  V30 174 O 18.368 1.76568 -3.09358 0
M  V30 175 O 17.227 2.92439 -4.61673 0
M  V30 176 H 14.321 0.472161 -0.678965 0
M  V30 177 H 16.867 0.259703 -1.67701 0
M  V30 178 H 15.639 0.924962 -3.80211 0
M  V30 179 H 15.262 2.48968 -3.10001 0
M  V30 180 N 16.2591 1.48442 0.529413 0
M  V30 181 C 17.2221 1.62524 1.61612 0
M  V30 182 C 18.2221 0.498509 1.52877 0
M  V30 183 O 19.4121 0.76431 1.56537 0
M  V30 184 C 16.5441 1.59597 3.01233 0
M  V30 185 H 17.7371 2.59423 1.50465 0
M  V30 186 H 15.2901 1.37047 0.751514 0
M  V30 187 H 16.0251 0.641781 3.17886 0
M  V30 188 H 15.8101 2.41397 3.08982 0
M  V30 189 H 17.3001 1.72646 3.80241 0
M  V30 190 N 17.7372 -0.778329 1.37039 0
M  V30 191 C 19.1532 -1.07796 1.17695 0
M  V30 192 C 19.3532 -2.01498 0.00860115 0
M  V30 193 O 18.4092 -2.43901 -0.653352 0
M  V30 194 C 19.7222 -1.68178 2.49272 0
M  V30 195 C 21.2702 -1.80467 2.55735 0
M  V30 196 C 21.7452 -2.44263 3.87427 0
M  V30 197 N 23.2362 -2.51721 3.88833 0
M  V30 198 C 23.9712 -3.01919 4.87476 0
M  V30 199 N 23.4672 -3.5234 5.96513 0
M  V30 200 N 25.2602 -3.00733 4.74885 0
M  V30 201 H 17.4112 -0.156032 2.11826 0
M  V30 202 H 19.6742 -0.131844 0.938787 0
M  V30 203 H 19.3802 -1.06796 3.35093 0
M  V30 204 H 19.2542 -2.67554 2.65885 0
M  V30 205 H 21.6412 -2.40984 1.70325 0
M  V30 206 H 21.7222 -0.798656 2.43013 0
M  V30 207 H 21.3662 -1.84388 4.73248 0
M  V30 208 H 21.2962 -3.45458 3.9745 0
M  V30 209 H 23.7872 -2.1603 3.10063 0
M  V30 210 H 24.1002 -3.89027 6.67741 0
M  V30 211 H 22.4452 -3.50462 6.00168 0
M  V30 212 H 25.6362 -2.60638 3.88826 0
M  V30 213 H 25.8092 -3.39545 5.51918 0
M  V30 214 N 19.2153 -1.21501 -1.00376 0
M  V30 215 C 20.4633 -1.03095 -1.73827 0
M  V30 216 C 20.7843 0.436341 -1.90055 0
M  V30 217 O 20.0543 1.31466 -1.45236 0
M  V30 218 H 18.6343 -0.378487 -0.644016 0
M  V30 219 H 21.2963 -1.52831 -1.20949 0
M  V30 220 H 20.3923 -1.49991 -2.73695 0
M  V30 221 N 20.6934 1.19889 -1.02296 0
M  V30 222 C 21.6404 2.22901 -0.598651 0
M  V30 223 C 22.6104 1.61588 0.384521 0
M  V30 224 O 23.7954 1.88697 0.282522 0
M  V30 225 C 20.9354 3.45063 0.0504476 0
M  V30 226 C 20.0484 4.20783 -0.978053 0
M  V30 227 C 19.1834 5.30356 -0.299338 0
M  V30 228 C 18.2224 5.97826 -1.31416 0
M  V30 229 N 17.3594 6.98975 -0.661667 0
M  V30 230 H 22.1994 2.58554 -1.48169 0
M  V30 231 H 19.7364 1.27039 -0.741584 0
M  V30 232 H 21.6944 4.14831 0.443971 0
M  V30 233 H 20.3244 3.10084 0.897097 0
M  V30 234 H 19.3764 3.50018 -1.48969 0
M  V30 235 H 20.6884 4.67109 -1.74958 0
M  V30 236 H 19.8424 6.06516 0.149347 0
M  V30 237 H 18.5814 4.85084 0.504445 0
M  V30 238 H 17.5864 5.20422 -1.77317 0
M  V30 239 H 18.8114 6.45183 -2.11933 0
M  V30 240 H 16.7574 6.55886 0.122132 0
M  V30 241 H 16.6744 7.43461 -1.37117 0
M  V30 242 H 17.9424 7.7914 -0.236785 0
M  V30 243 N 22.1715 0.800033 1.35784 0
M  V30 244 C 23.1345 0.211565 2.28221 0
M  V30 245 C 24.1345 -0.59728 1.49296 0
M  V30 246 O 25.3245 -0.416721 1.69142 0
M  V30 247 C 22.4565 -0.705846 3.33513 0
M  V30 248 H 23.6495 1.02677 2.81776 0
M  V30 249 H 21.2025 0.570211 1.45528 0
M  V30 250 H 21.9375 -1.54498 2.85133 0
M  V30 251 H 21.7225 -0.127655 3.91892 0
M  V30 252 H 23.2125 -1.11211 4.02519 0
M  V30 253 N 23.6496 -1.47581 0.552962 0
M  V30 254 C 24.5596 -2.33743 -0.200353 0
M  V30 255 C 25.5756 -1.47928 -0.916151 0
M  V30 256 O 26.7516 -1.80865 -0.885993 0
M  V30 257 C 23.8166 -3.24536 -1.21973 0
M  V30 258 C 22.8776 -4.26238 -0.511819 0
M  V30 259 C 22.1106 -5.12693 -1.48263 0
M  V30 260 O 22.3336 -5.01525 -2.71714 0
M  V30 261 O 21.2676 -5.93375 -1.00945 0
M  V30 262 H 25.0936 -2.9945 0.506304 0
M  V30 263 H 22.6786 -1.46071 0.313622 0
M  V30 264 H 24.5606 -3.80631 -1.80827 0
M  V30 265 H 23.2356 -2.61462 -1.90839 0
M  V30 266 H 22.1426 -3.73914 0.117799 0
M  V30 267 H 23.4756 -4.92014 0.135308 0
M  V30 268 N 25.1277 -0.289203 -1.54924 0
M  V30 269 C 26.0577 0.58549 -2.2604 0
M  V30 270 C 27.0387 1.14753 -1.25562 0
M  V30 271 O 28.2237 1.17906 -1.54311 0
M  V30 272 C 25.3537 1.76305 -2.99222 0
M  V30 273 C 24.3077 1.33191 -4.06748 0
M  V30 274 C 23.6337 2.5937 -4.6758 0
M  V30 275 C 24.9337 0.471775 -5.20165 0
M  V30 276 H 26.6277 -0.00763532 -2.99399 0
M  V30 277 H 24.1737 -0.00511229 -1.43999 0
M  V30 278 H 26.1267 2.38097 -3.47689 0
M  V30 279 H 24.8507 2.38223 -2.23422 0
M  V30 280 H 23.5097 0.737121 -3.59113 0
M  V30 281 H 23.1577 3.19576 -3.88433 0
M  V30 282 H 22.8577 2.31228 -5.40192 0
M  V30 283 H 24.3817 3.21985 -5.18804 0
M  V30 284 H 25.7957 0.995056 -5.64599 0
M  V30 285 H 24.1927 0.284639 -5.99425 0
M  V30 286 H 25.2627 -0.506041 -4.82252 0
M  V30 287 N 26.6058 1.57591 -0.0167156 0
M  V30 288 C 27.8548 1.90461 0.663877 0
M  V30 289 C 28.1678 0.893515 1.73999 0
M  V30 290 O 29.3738 1.11302 2.47637 0
M  V30 291 C 27.8298 3.38155 1.23204 0
M  V30 292 C 27.4378 4.47597 0.189866 0
M  V30 293 C 29.1818 3.80111 1.88986 0
M  V30 294 C 27.0888 5.86379 0.768964 0
M  V30 295 H 26.0188 0.710738 0.251729 0
M  V30 296 H 28.6698 1.83326 -0.0799926 0
M  V30 297 H 27.0518 3.40182 2.02712 0
M  V30 298 H 28.2258 4.57112 -0.581846 0
M  V30 299 H 26.5408 4.14766 -0.368475 0
M  V30 300 H 29.1378 4.81145 2.33247 0
M  V30 301 H 29.4808 3.14511 2.72743 0
M  V30 302 H 30.0138 3.80454 1.16187 0
M  V30 303 H 26.7528 6.55493 -0.0301957 0
M  V30 304 H 26.2728 5.80496 1.50945 0
M  V30 305 H 27.9518 6.34563 1.26251 0
M  V30 306 N 28.0839 -0.256276 1.55502 0
M  V30 307 C 29.4999 -0.604325 1.47716 0
M  V30 308 C 29.6999 -1.88763 0.705039 0
M  V30 309 O 28.7559 -2.51445 0.230613 0
M  V30 310 C 30.0689 -0.715756 2.92057 0
M  V30 311 C 31.6169 -0.808706 3.02372 0
M  V30 312 C 32.0919 -0.951777 4.48001 0
M  V30 313 N 33.5829 -1.01688 4.519 0
M  V30 314 C 34.3179 -1.14668 5.61817 0
M  V30 315 N 33.8139 -1.24261 6.81565 0
M  V30 316 N 35.6069 -1.1791 5.49594 0
M  V30 317 H 27.7579 0.586291 2.04148 0
M  V30 318 H 30.0209 0.201015 0.926443 0
M  V30 319 H 29.7269 0.157027 3.51349 0
M  V30 320 H 29.6009 -1.59071 3.42018 0
M  V30 321 H 31.9879 -1.67195 2.43166 0
M  V30 322 H 32.0689 0.0912063 2.55637 0
M  V30 323 H 31.7129 -0.0931291 5.07815 0
M  V30 324 H 31.6429 -1.86659 4.92408 0
M  V30 325 H 34.1339 -0.954468 3.65648 0
M  V30 326 H 34.4469 -1.34046 7.61086 0
M  V30 327 H 32.7919 -1.21236 6.84344 0
M  V30 328 H 35.9829 -1.10057 4.54978 0
M  V30 329 H 36.1559 -1.27681 6.35296 0
M  V30 330 N 29.562 -1.4872 -0.521534 0
M  V30 331 C 30.492 -1.66771 -1.63431 0
M  V30 332 C 31.473 -0.516499 -1.62069 0
M  V30 333 O 32.658 -0.750013 -1.79132 0
M  V30 334 C 29.788 -1.71515 -3.01993 0
M  V30 335 C 28.742 -2.86222 -3.18216 0
M  V30 336 C 28.068 -2.76061 -4.57924 0
M  V30 337 C 29.368 -4.27419 -3.00184 0
M  V30 338 H 31.062 -2.59932 -1.48579 0
M  V30 339 H 28.608 -1.25089 -0.713358 0
M  V30 340 H 30.561 -1.82731 -3.7972 0
M  V30 341 H 29.285 -0.749393 -3.17886 0
M  V30 342 H 27.944 -2.74575 -2.42908 0
M  V30 343 H 27.592 -1.77437 -4.70665 0
M  V30 344 H 27.292 -3.53037 -4.69722 0
M  V30 345 H 28.816 -2.89256 -5.37739 0
M  V30 346 H 30.23 -4.39855 -3.67697 0
M  V30 347 H 28.627 -5.05458 -3.2347 0
M  V30 348 H 29.697 -4.43293 -1.96518 0
M  V30 349 N 31.0401 0.771051 -1.3745 0
M  V30 350 C 32.2891 1.52491 -1.3202 0
M  V30 351 C 32.6021 1.9538 0.0927347 0
M  V30 352 O 33.8081 2.70159 0.269503 0
M  V30 353 C 32.2641 2.75366 -2.31736 0
M  V30 354 C 31.8721 2.39573 -3.78562 0
M  V30 355 C 33.6161 3.53307 -2.35318 0
M  V30 356 C 31.5231 3.58954 -4.70007 0
M  V30 357 H 30.4531 0.572506 -0.490666 0
M  V30 358 H 33.1041 0.844474 -1.62914 0
M  V30 359 H 31.4861 3.45303 -1.93861 0
M  V30 360 H 32.6601 1.77415 -4.25277 0
M  V30 361 H 30.9751 1.74805 -3.77932 0
M  V30 362 H 33.5721 4.42039 -3.00842 0
M  V30 363 H 33.9151 3.93217 -1.36698 0
M  V30 364 H 34.4481 2.90367 -2.71904 0
M  V30 365 H 31.1871 3.24125 -5.69757 0
M  V30 366 H 30.7071 4.20214 -4.27996 0
M  V30 367 H 32.3861 4.25758 -4.87175 0
M  V30 368 N 32.5182 1.22032 0.997298 0
M  V30 369 C 33.7652 1.04222 1.73621 0
M  V30 370 C 34.0932 -0.423264 1.89839 0
M  V30 371 O 33.3482 -1.3302 1.43542 0
M  V30 372 C 33.6472 1.69345 3.14733 0
M  V30 373 C 33.3132 3.19226 3.18442 0
M  V30 374 C 31.9752 3.60124 3.19161 0
M  V30 375 C 34.3272 4.15181 3.15078 0
M  V30 376 C 31.6552 4.95467 3.14212 0
M  V30 377 C 34.0072 5.50495 3.1167 0
M  V30 378 C 32.6712 5.90779 3.10703 0
M  V30 379 H 31.9412 0.381374 0.635323 0
M  V30 380 H 34.5882 1.51732 1.16831 0
M  V30 381 H 32.8932 1.14147 3.74803 0
M  V30 382 H 34.5902 1.53059 3.7064 0
M  V30 383 H 31.1802 2.86659 3.18629 0
M  V30 384 H 35.3642 3.84605 3.13676 0
M  V30 385 H 30.6202 5.25916 3.11805 0
M  V30 386 H 34.7942 6.24576 3.08022 0
M  V30 387 H 32.4212 6.9562 3.06622 0
M  V30 388 N 33.9963 -1.19345 1.0293 0
M  V30 389 C 34.9593 -2.20793 0.615069 0
M  V30 390 C 35.9593 -1.57553 -0.321533 0
M  V30 391 O 37.1493 -1.73862 -0.108483 0
M  V30 392 C 34.2813 -3.40754 -0.0999222 0
M  V30 393 H 35.4743 -2.58955 1.51269 0
M  V30 394 H 33.0273 -1.3303 0.820534 0
M  V30 395 H 33.7623 -3.0811 -1.01187 0
M  V30 396 H 33.5473 -3.87889 0.57309 0
M  V30 397 H 35.0373 -4.15898 -0.376645 0
M  V30 398 N 35.4744 -0.807222 -1.35358 0
M  V30 399 C 36.7044 -0.399796 -2.02695 0
M  V30 400 C 37.1124 0.994176 -1.60974 0
M  V30 401 O 36.4554 1.65209 -0.803226 0
M  V30 402 C 36.5174 -0.404445 -3.57218 0
M  V30 403 C 36.1814 -1.74904 -4.22206 0
M  V30 404 C 37.1784 -2.70743 -4.4384 0
M  V30 405 C 34.8634 -2.03322 -4.5931 0
M  V30 406 C 36.8574 -3.93183 -5.01683 0
M  V30 407 C 34.5444 -3.26026 -5.16866 0
M  V30 408 C 35.5424 -4.20774 -5.37994 0
M  V30 409 O 35.2304 -5.41312 -5.94337 0
M  V30 410 H 34.9624 -0.160517 -0.656666 0
M  V30 411 H 37.5164 -1.09235 -1.73945 0
M  V30 412 H 35.7464 0.344707 -3.85161 0
M  V30 413 H 37.4354 -0.0192429 -4.05895 0
M  V30 414 H 38.2014 -2.5008 -4.15554 0
M  V30 415 H 34.0804 -1.30384 -4.42178 0
M  V30 416 H 37.6244 -4.6715 -5.1809 0
M  V30 417 H 33.5214 -3.46559 -5.44579 0
M  V30 418 H 34.2894 -5.42618 -6.12787 0
M  V30 419 N 36.9525 1.47285 -0.560781 0
M  V30 420 C 37.8825 2.32857 0.173105 0
M  V30 421 C 38.8635 1.44009 0.905281 0
M  V30 422 O 40.0485 1.7286 0.885046 0
M  V30 423 C 37.1785 3.25861 1.20133 0
M  V30 424 C 36.1325 4.23978 0.585388 0
M  V30 425 C 35.4585 5.06332 1.7185 0
M  V30 426 C 36.7585 5.20242 -0.463178 0
M  V30 427 H 38.4525 2.94466 -0.541307 0
M  V30 428 H 35.9985 1.41601 -0.261764 0
M  V30 429 H 37.9515 3.84569 1.72293 0
M  V30 430 H 36.6755 2.62315 1.94573 0
M  V30 431 H 35.3345 3.66501 0.085054 0
M  V30 432 H 34.9825 4.39186 2.45203 0
M  V30 433 H 34.6825 5.72762 1.31213 0
M  V30 434 H 36.2065 5.67899 2.24329 0
M  V30 435 H 37.6205 5.73293 -0.027502 0
M  V30 436 H 36.0175 5.94896 -0.788627 0
M  V30 437 H 37.0875 4.65504 -1.35773 0
M  V30 438 N 38.4306 0.297415 1.54768 0
M  V30 439 C 39.6786 -0.312295 1.99673 0
M  V30 440 C 39.9996 -1.54686 1.18732 0
M  V30 441 O 39.2696 -1.93854 0.282382 0
M  V30 442 H 37.8496 -0.118381 0.73756 0
M  V30 443 H 40.5116 0.407915 1.90583 0
M  V30 444 H 39.6076 -0.586813 3.06534 0
M  V30 445 N 39.9087 -1.5758 0.0250728 0
M  V30 446 C 41.1577 -1.90811 -0.653767 0
M  V30 447 C 41.4707 -0.90273 -1.73523 0
M  V30 448 O 42.6767 -1.12614 -2.47043 0
M  V30 449 C 41.1327 -3.38804 -1.21409 0
M  V30 450 C 40.7407 -4.47692 -0.166126 0
M  V30 451 C 42.4847 -3.81108 -1.86967 0
M  V30 452 C 40.3917 -5.86779 -0.737856 0
M  V30 453 H 39.3217 -0.712063 -0.247956 0
M  V30 454 H 41.9727 -1.83281 0.0897137 0
M  V30 455 H 40.3547 -3.41252 -2.00905 0
M  V30 456 H 41.5287 -4.56797 0.606079 0
M  V30 457 H 39.8437 -4.14565 0.390466 0
M  V30 458 H 42.4407 -4.82375 -2.30692 0
M  V30 459 H 42.7837 -3.15953 -2.71071 0
M  V30 460 H 43.3167 -3.81065 -1.14167 0
M  V30 461 H 40.0557 -6.55468 0.0649577 0
M  V30 462 H 39.5757 -5.81288 -1.47864 0
M  V30 463 H 41.2547 -6.35223 -1.22884 0
M  V30 464 N 41.3868 0.248026 -1.55636 0
M  V30 465 C 42.2968 1.32859 -1.93354 0
M  V30 466 C 43.3128 1.52719 -0.833838 0
M  V30 467 O 44.4888 1.66363 -1.13513 0
M  V30 468 C 41.5538 2.66337 -2.21958 0
M  V30 469 C 40.6148 2.55008 -3.45354 0
M  V30 470 C 39.8478 3.82121 -3.72584 0
M  V30 471 O 40.0708 4.83951 -3.01907 0
M  V30 472 O 39.0048 3.80822 -4.6611 0
M  V30 473 H 42.8308 1.03862 -2.85388 0
M  V30 474 H 40.4158 0.448686 -1.42503 0
M  V30 475 H 42.2978 3.45216 -2.4167 0
M  V30 476 H 40.9728 2.95068 -1.33103 0
M  V30 477 H 39.8798 1.7442 -3.30951 0
M  V30 478 H 41.2128 2.31222 -4.34508 0
M  V30 479 N 42.8649 1.48995 0.513639 0
M  V30 480 C 44.0949 1.61297 1.291 0
M  V30 481 C 44.5029 0.278656 1.87137 0
M  V30 482 O 43.8459 -0.744325 1.67945 0
M  V30 483 C 43.9079 2.61326 2.46879 0
M  V30 484 C 43.5719 4.05993 2.09807 0
M  V30 485 C 44.5689 4.93183 1.64519 0
M  V30 486 C 42.2539 4.51642 2.19829 0
M  V30 487 C 44.2479 6.24056 1.2974 0
M  V30 488 C 41.9349 5.82532 1.84662 0
M  V30 489 C 42.9329 6.68562 1.3969 0
M  V30 490 O 42.6209 7.97014 1.04992 0
M  V30 491 H 42.3529 0.546236 0.39825 0
M  V30 492 H 44.9069 1.95673 0.62459 0
M  V30 493 H 43.1369 2.22104 3.16554 0
M  V30 494 H 44.8259 2.6329 3.08923 0
M  V30 495 H 45.5919 4.59147 1.56233 0
M  V30 496 H 41.4709 3.84855 2.53786 0
M  V30 497 H 45.0149 6.91161 0.945659 0
M  V30 498 H 40.9119 6.16099 1.92594 0
M  V30 499 H 41.6799 8.09913 1.18249 0
M  V30 500 N 44.343 -0.763751 1.37857 0
M  V30 501 C 45.571 -1.55293 1.36718 0
M  V30 502 C 45.986 -1.88745 -0.0455434 0
M  V30 503 O 45.343 -1.52039 -1.00947 0
M  V30 504 C 45.394 -2.85831 2.2132 0
M  V30 505 O 45.115 -2.5381 3.57089 0
M  V30 506 C 46.616 -3.80023 2.28249 0
M  V30 507 H 43.836 -0.480841 0.468009 0
M  V30 508 H 46.38 -0.946009 1.81303 0
M  V30 509 H 44.535 -3.42926 1.80223 0
M  V30 510 H 44.949 -3.37459 4.01524 0
M  V30 511 H 46.423 -4.68599 2.91752 0
M  V30 512 H 46.9 -4.1973 1.2932 0
M  V30 513 H 47.506 -3.28855 2.69693 0
M  V30 514 N 45.8211 -1.22559 -0.990812 0
M  V30 515 C 47.0981 -0.959875 -1.70428 0
M  V30 516 C 47.4781 0.524455 -2.04481 0
M  V30 517 O 46.8261 1.49302 -1.72977 0
M  V30 518 C 47.0361 -1.85955 -2.95333 0
M  V30 519 C 48.3841 -2.11687 -3.68068 0
M  V30 520 O 49.4081 -1.8342 -3.05345 0
M  V30 521 O 48.2671 -2.59572 -4.80921 0
M  V30 522 H 45.3611 -0.361154 -0.743974 0
M  V30 523 H 47.9071 -1.33554 -1.04697 0
M  V30 524 H 46.6791 -2.86346 -2.66687 0
M  V30 525 H 46.3021 -1.4856 -3.68803 0
M  V30 526 N 47.2992 1.18797 -1.03562 0
M  V30 527 C 48.2462 2.22253 -0.622259 0
M  V30 528 C 49.2162 1.61987 0.36736 0
M  V30 529 O 50.4012 1.88986 0.262492 0
M  V30 530 C 47.5412 3.45097 0.0138462 0
M  V30 531 C 46.6542 4.19722 -1.02263 0
M  V30 532 C 45.7892 5.30009 -0.355573 0
M  V30 533 C 44.8282 5.96399 -1.37749 0
M  V30 534 N 43.9652 6.98234 -0.735766 0
M  V30 535 H 48.8052 2.56968 -1.50903 0
M  V30 536 H 46.3422 1.26245 -0.755017 0
M  V30 537 H 48.3002 4.15279 0.399948 0
M  V30 538 H 46.9302 3.11018 0.864158 0
M  V30 539 H 45.9822 3.48418 -1.52673 0
M  V30 540 H 47.2942 4.65227 -1.79903 0
M  V30 541 H 46.4482 6.0664 0.0850095 0
M  V30 542 H 45.1872 4.85592 0.452967 0
M  V30 543 H 44.1922 5.18512 -1.82826 0
M  V30 544 H 45.4172 6.42899 -2.18764 0
M  V30 545 H 43.3632 6.55979 0.0525597 0
M  V30 546 H 43.2802 7.41965 -1.44995 0
M  V30 547 H 44.5482 7.78845 -0.31941 0
M  V30 548 N 48.7773 0.814389 1.34928 0
M  V30 549 C 50.1933 0.499084 1.51596 0
M  V30 550 C 50.3933 -0.978319 1.76157 0
M  V30 551 O 49.4493 -1.76309 1.80752 0
M  V30 552 C 50.7623 1.35121 2.68631 0
M  V30 553 C 52.3103 1.34746 2.82511 0
M  V30 554 C 52.7853 2.18388 4.0258 0
M  V30 555 N 54.2763 2.15966 4.09772 0
M  V30 556 C 55.0113 2.77437 5.01813 0
M  V30 557 N 54.5073 3.47866 5.99134 0
M  V30 558 N 56.3003 2.67037 4.94619 0
M  V30 559 H 48.4513 1.7711 1.17243 0
M  V30 560 H 50.7143 0.754256 0.574284 0
M  V30 561 H 50.4203 2.40001 2.57085 0
M  V30 562 H 50.2943 1.00991 3.63429 0
M  V30 563 H 52.6813 0.30648 2.93504 0
M  V30 564 H 52.7623 1.72869 1.88547 0
M  V30 565 H 52.4063 3.2253 3.92347 0
M  V30 566 H 52.3363 1.77621 4.9574 0
M  V30 567 H 54.8273 1.64729 3.40107 0
M  V30 568 H 55.1403 3.92038 6.65977 0
M  V30 569 H 53.4853 3.51972 5.99284 0
M  V30 570 H 56.6763 2.11597 4.17546 0
M  V30 571 H 56.8493 3.15232 5.66156 0
M  V30 572 N 50.2554 -1.46986 0.568584 0
M  V30 573 C 51.5024 -2.02441 0.0487986 0
M  V30 574 C 51.8304 -1.44169 -1.30559 0
M  V30 575 O 51.0854 -0.591213 -1.86556 0
M  V30 576 C 51.3844 -3.57306 -0.081836 0
M  V30 577 C 51.0504 -4.34552 1.20313 0
M  V30 578 C 49.7124 -4.55376 1.5552 0
M  V30 579 C 52.0644 -4.79016 2.05411 0
M  V30 580 C 49.3924 -5.17913 2.7565 0
M  V30 581 C 51.7444 -5.42879 3.24754 0
M  V30 582 C 50.4084 -5.61933 3.60261 0
M  V30 583 H 49.6784 -0.740785 0.0178567 0
M  V30 584 H 52.3254 -1.76525 0.742384 0
M  V30 585 H 50.6304 -3.8228 -0.858463 0
M  V30 586 H 52.3274 -3.97876 -0.499546 0
M  V30 587 H 48.9174 -4.18631 0.919014 0
M  V30 588 H 53.1014 -4.62696 1.79516 0
M  V30 589 H 48.3574 -5.30858 3.03315 0
M  V30 590 H 52.5314 -5.76293 3.90973 0
M  V30 591 H 50.1584 -6.10161 4.53439 0
M  V30 592 N 51.7335 -0.305618 -1.54608 0
M  V30 593 C 52.9815 0.301701 -1.99835 0
M  V30 594 C 53.3025 1.54054 -1.19551 0
M  V30 595 O 52.5725 1.93702 -0.292658 0
M  V30 596 H 51.1525 0.114468 -0.738178 0
M  V30 597 H 53.8145 -0.418016 -1.90364 0
M  V30 598 H 52.9105 0.570548 -3.06841 0
M  V30 599 N 53.2116 1.57565 -0.0334293 0
M  V30 600 C 54.4576 1.92262 0.645226 0
M  V30 601 C 54.7906 0.910543 1.71531 0
M  V30 602 O 54.0656 -0.066099 1.94388 0
M  V30 603 C 54.3486 3.37422 1.2577 0
M  V30 604 C 54.2016 4.49369 0.196891 0
M  V30 605 C 55.5206 3.82628 2.17449 0
M  V30 606 H 52.6396 0.699171 0.233085 0
M  V30 607 H 55.2816 1.89779 -0.0915694 0
M  V30 608 H 53.4316 3.39669 1.88566 0
M  V30 609 H 55.1036 4.59254 -0.433962 0
M  V30 610 H 53.3466 4.31168 -0.477137 0
M  V30 611 H 54.0176 5.47978 0.665124 0
M  V30 612 H 56.4936 3.82145 1.64634 0
M  V30 613 H 55.3696 4.84883 2.57254 0
M  V30 614 H 55.6306 3.18376 3.0674 0
M  V30 615 N 54.6897 -0.239769 1.55765 0
M  V30 616 C 55.6377 -1.31668 1.91745 0
M  V30 617 C 56.6317 -1.49462 0.797338 0
M  V30 618 O 57.8377 -1.50852 0.982021 0
M  V30 619 H 54.2127 -0.441048 0.609082 0
M  V30 620 H 56.1837 -0.985923 2.81642 0
M  V30 621 C 54.9327 -2.66368 2.2348 0
M  V30 622 H 54.2557 -2.53478 3.09175 0
M  V30 623 H 55.6957 -3.40578 2.52553 0
M  V30 624 C 54.1547 -3.20002 1.05359 0
M  V30 625 O 54.6847 -4.00538 0.305261 0
M  V30 626 N 52.8907 -2.78126 0.842292 0
M  V30 627 H 52.4377 -2.12742 1.45253 0
M  V30 628 H 52.3957 -3.14354 0.053652 0
M  V30 629 N 56.1678 -1.49265 -0.50573 0
M  V30 630 C 57.4158 -1.582 -1.25766 0
M  V30 631 C 57.7368 -0.268482 -1.93143 0
M  V30 632 O 57.0068 0.711833 -1.8251 0
M  V30 633 H 55.5868 -0.582873 -0.467191 0
M  V30 634 H 58.2488 -1.85865 -0.586525 0
M  V30 635 H 57.3448 -2.37563 -2.02412 0
M  V30 636 N 57.6459 0.756429 -1.3826 0
M  V30 637 C 58.9229 1.50584 -1.24835 0
M  V30 638 C 59.3029 2.10556 0.151485 0
M  V30 639 O 58.6509 1.96825 1.1607 0
M  V30 640 C 58.8609 2.57448 -2.3563 0
M  V30 641 C 60.2089 3.24429 -2.73917 0
M  V30 642 O 61.2329 2.67751 -2.34921 0
M  V30 643 O 60.0919 4.26937 -3.41156 0
M  V30 644 H 57.1859 0.667664 -0.48801 0
M  V30 645 H 59.7319 0.792083 -1.5008 0
M  V30 646 H 58.5039 2.11362 -3.29305 0
M  V30 647 H 58.1269 3.36408 -2.11933 0
M  V30 648 N 59.124 1.23083 0.984299 0
M  V30 649 C 60.087 1.00979 2.05757 0
M  V30 650 C 61.087 -0.0269573 1.60777 0
M  V30 651 O 62.277 0.212403 1.729 0
M  V30 652 C 59.409 0.527072 3.36801 0
M  V30 653 H 60.602 1.9622 2.26799 0
M  V30 654 H 58.155 1.05072 1.15714 0
M  V30 655 H 58.89 -0.429294 3.21446 0
M  V30 656 H 58.675 1.27515 3.70786 0
M  V30 657 H 60.165 0.392942 4.15747 0
M  V30 658 N 60.6021 -1.18246 1.0419 0
M  V30 659 C 61.8491 -1.88257 0.746017 0
M  V30 660 C 62.1771 -1.80429 -0.726331 0
M  V30 661 O 61.4321 -1.2 -1.54591 0
M  V30 662 C 61.7311 -3.38082 1.15911 0
M  V30 663 C 61.3971 -3.66114 2.63195 0
M  V30 664 C 60.0591 -3.73474 3.03432 0
M  V30 665 C 62.4111 -3.78398 3.5842 0
M  V30 666 C 59.7391 -3.90599 4.37778 0
M  V30 667 C 62.0911 -3.97039 4.92487 0
M  V30 668 C 60.7551 -4.02635 5.32392 0
M  V30 669 H 60.0251 -0.688883 0.272987 0
M  V30 670 H 62.6721 -1.3995 1.30715 0
M  V30 671 H 60.9771 -3.88377 0.516806 0
M  V30 672 H 62.6741 -3.90596 0.907516 0
M  V30 673 H 59.2641 -3.61003 2.3103 0
M  V30 674 H 63.4481 -3.72042 3.28479 0
M  V30 675 H 58.7041 -3.93175 4.68213 0
M  V30 676 H 62.8781 -4.05486 5.66175 0
M  V30 677 H 60.5051 -4.15657 6.36501 0
M  V30 678 N 62.0802 -0.821533 -1.34494 0
M  V30 679 C 63.3262 -0.409552 -1.98622 0
M  V30 680 C 63.6592 1.0244 -1.64984 0
M  V30 681 O 62.9342 1.71325 -0.920758 0
M  V30 682 C 63.2172 -0.610458 -3.54888 0
M  V30 683 C 63.0702 -2.09043 -3.98273 0
M  V30 684 C 64.3892 -0.0455379 -4.40076 0
M  V30 685 H 61.5082 -0.15028 -0.721516 0
M  V30 686 H 64.1502 -1.03384 -1.59411 0
M  V30 687 H 62.3002 -0.079044 -3.8842 0
M  V30 688 H 63.9722 -2.68537 -3.75081 0
M  V30 689 H 62.2152 -2.58139 -3.48635 0
M  V30 690 H 62.8862 -2.18182 -5.07051 0
M  V30 691 H 65.3622 -0.499557 -4.1309 0
M  V30 692 H 64.2382 -0.215922 -5.48475 0
M  V30 693 H 64.4992 1.04939 -4.29465 0
M  V30 694 N 63.5583 1.46682 -0.576371 0
M  V30 695 C 64.4683 2.34032 0.163141 0
M  V30 696 C 65.4843 1.49367 0.892501 0
M  V30 697 O 66.6603 1.82252 0.857106 0
M  V30 698 C 63.7253 3.26435 1.16795 0
M  V30 699 C 62.7863 4.26998 0.443944 0
M  V30 700 C 62.0193 5.14986 1.40088 0
M  V30 701 O 62.2423 5.05785 2.637 0
M  V30 702 O 61.1763 5.94906 0.914917 0
M  V30 703 H 65.0023 2.98607 -0.55388 0
M  V30 704 H 62.5873 1.45554 -0.336821 0
M  V30 705 H 64.4693 3.83459 1.74748 0
M  V30 706 H 63.1443 2.64465 1.86655 0
M  V30 707 H 62.0513 3.7368 -0.177271 0
M  V30 708 H 63.3843 4.91736 -0.213566 0
M  V30 709 N 65.0364 0.313813 1.54444 0
M  V30 710 C 66.2834 -0.291675 2.00388 0
M  V30 711 C 66.6114 -1.52904 1.2021 0
M  V30 712 O 65.8664 -1.93833 0.269707 0
M  V30 713 C 66.1654 -0.680386 3.50864 0
M  V30 714 C 65.8314 0.456699 4.48581 0
M  V30 715 C 64.4934 0.768824 4.75018 0
M  V30 716 C 66.8454 1.22098 5.06697 0
M  V30 717 C 64.1734 1.84812 5.56831 0
M  V30 718 C 66.5254 2.29029 5.89685 0
M  V30 719 C 65.1894 2.60834 6.14428 0
M  V30 720 H 64.4594 -0.106732 0.733273 0
M  V30 721 H 67.1064 0.43557 1.86481 0
M  V30 722 H 65.4114 -1.48791 3.62448 0
M  V30 723 H 67.1084 -1.16026 3.83847 0
M  V30 724 H 63.6984 0.203337 4.28117 0
M  V30 725 H 67.8824 0.993096 4.86263 0
M  V30 726 H 63.1384 2.09912 5.74236 0
M  V30 727 H 67.3124 2.887 6.33739 0
M  V30 728 H 64.9394 3.44596 6.77612 0
M  V30 729 N 66.5145 -1.57545 0.0417849 0
M  V30 730 C 67.4615 -2.10977 -0.935805 0
M  V30 731 C 68.4315 -1.01486 -1.31491 0
M  V30 732 O 69.6165 -1.2898 -1.40602 0
M  V30 733 C 66.7565 -2.65169 -2.2086 0
M  V30 734 C 65.8695 -3.88714 -1.88482 0
M  V30 735 C 65.0045 -4.31254 -3.1015 0
M  V30 736 C 64.0435 -5.47524 -2.7365 0
M  V30 737 N 63.1805 -5.85162 -3.87982 0
M  V30 738 H 68.0205 -2.94218 -0.473249 0
M  V30 739 H 65.5575 -1.45415 -0.221981 0
M  V30 740 H 67.5155 -2.94685 -2.95325 0
M  V30 741 H 66.1455 -1.8474 -2.64709 0
M  V30 742 H 65.1975 -3.65849 -1.04205 0
M  V30 743 H 66.5095 -4.73245 -1.57608 0
M  V30 744 H 65.6635 -4.62273 -3.92923 0
M  V30 745 H 64.4025 -3.45516 -3.44195 0
M  V30 746 H 63.4075 -5.16187 -1.89291 0
M  V30 747 H 64.6325 -6.34971 -2.40807 0
M  V30 748 H 62.5785 -5.02377 -4.21846 0
M  V30 749 H 62.4955 -6.64362 -3.60775 0
M  V30 750 H 63.7635 -6.20791 -4.71422 0
M  V30 751 N 67.9926 0.231505 -1.5589 0
M  V30 752 C 68.9406 1.30649 -1.92441 0
M  V30 753 C 69.9346 1.49037 -0.805254 0
M  V30 754 O 71.1406 1.50329 -0.990007 0
M  V30 755 H 67.5156 0.437812 -0.611412 0
M  V30 756 H 69.4866 0.970973 -2.82161 0
M  V30 757 C 68.2356 2.65179 -2.24889 0
M  V30 758 H 67.5586 2.51835 -3.10514 0
M  V30 759 H 68.9986 3.39234 -2.54355 0
M  V30 760 C 67.4576 3.19439 -1.07054 0
M  V30 761 O 67.9876 4.00371 -0.326499 0
M  V30 762 N 66.1936 2.77675 -0.85703 0
M  V30 763 H 65.7406 2.11969 -1.46379 0
M  V30 764 H 65.6986 3.14321 -0.0703223 0
M  V30 765 N 69.4707 1.49531 0.497807 0
M  V30 766 C 70.7177 1.59179 1.25173 0
M  V30 767 C 71.0457 0.279932 1.92475 0
M  V30 768 O 70.3007 -0.732383 1.81479 0
M  V30 769 C 70.5997 2.70252 2.33878 0
M  V30 770 C 70.2657 4.11644 1.84012 0
M  V30 771 C 68.9277 4.50121 1.70132 0
M  V30 772 C 71.2797 5.00121 1.46725 0
M  V30 773 C 68.6077 5.74845 1.17348 0
M  V30 774 C 70.9597 6.25366 0.95392 0
M  V30 775 C 69.6237 6.6267 0.801538 0
M  V30 776 H 68.8937 0.582478 0.45804 0
M  V30 777 H 71.5407 1.83373 0.551948 0
M  V30 778 H 69.8457 2.40041 3.09657 0
M  V30 779 H 71.5427 2.74925 2.9192 0
M  V30 780 H 68.1327 3.81274 1.95775 0
M  V30 781 H 72.3167 4.71048 1.56294 0
M  V30 782 H 67.5727 6.02444 1.04264 0
M  V30 783 H 71.7467 6.93301 0.656225 0
M  V30 784 H 69.3737 7.59197 0.390351 0
M  V30 785 N 70.9488 -0.749086 1.3866 0
M  V30 786 C 71.8958 -1.86291 1.36251 0
M  V30 787 C 72.8658 -1.64578 0.224347 0
M  V30 788 O 74.0508 -1.86181 0.417279 0
M  V30 789 C 71.1908 -3.23644 1.19786 0
M  V30 790 C 70.3038 -3.57158 2.43027 0
M  V30 791 C 69.4388 -4.83838 2.19258 0
M  V30 792 C 68.4778 -5.10152 3.38247 0
M  V30 793 N 67.6148 -6.28029 3.13884 0
M  V30 794 H 72.4548 -1.87685 2.3147 0
M  V30 795 H 69.9918 -0.917287 1.14997 0
M  V30 796 H 71.9498 -4.0291 1.08254 0
M  V30 797 H 70.5798 -3.21566 0.282031 0
M  V30 798 H 69.6318 -2.72701 2.65214 0
M  V30 799 H 70.9438 -3.7253 3.31697 0
M  V30 800 H 70.0978 -5.71057 2.04888 0
M  V30 801 H 68.8368 -4.70614 1.2796 0
M  V30 802 H 67.8418 -4.21401 3.53131 0
M  V30 803 H 69.0668 -5.25271 4.30427 0
M  V30 804 H 67.0128 -6.1612 2.25238 0
M  V30 805 H 66.9298 -6.43922 3.96106 0
M  V30 806 H 68.1978 -7.18124 3.03179 0
M  V30 807 N 72.4269 -1.23603 -0.977757 0
M  V30 808 C 73.3739 -1.01954 -2.07061 0
M  V30 809 C 74.3439 0.0638697 -1.65977 0
M  V30 810 O 75.5289 -0.0887624 -1.90593 0
M  V30 811 C 72.6689 -0.619658 -3.39491 0
M  V30 812 C 71.7819 -1.77547 -3.93829 0
M  V30 813 C 70.9169 -1.32212 -5.14484 0
M  V30 814 C 69.9559 -2.44852 -5.60994 0
M  V30 815 N 69.0929 -2.00456 -6.72876 0
M  V30 816 H 73.9329 -1.95495 -2.24913 0
M  V30 817 H 71.4699 -0.973861 -1.10247 0
M  V30 818 H 73.4279 -0.368898 -4.15566 0
M  V30 819 H 72.0579 0.278752 -3.21594 0
M  V30 820 H 71.1099 -2.14016 -3.14486 0
M  V30 821 H 72.4219 -2.62219 -4.24314 0
M  V30 822 H 71.5759 -1.02965 -5.97899 0
M  V30 823 H 70.3149 -0.445808 -4.85658 0
M  V30 824 H 69.3199 -2.74871 -4.76157 0
M  V30 825 H 70.5449 -3.33024 -5.91837 0
M  V30 826 H 68.4909 -1.15208 -6.45804 0
M  V30 827 H 68.4079 -2.78687 -7.02759 0
M  V30 828 H 69.6759 -1.7432 -7.59758 0
M  V30 829 N 73.905 1.17692 -1.04816 0
M  V30 830 C 74.815 2.25229 -0.65643 0
M  V30 831 C 75.831 1.71018 0.320761 0
M  V30 832 O 77.007 2.00649 0.173805 0
M  V30 833 C 74.072 3.46684 -0.0332629 0
M  V30 834 C 73.133 4.15997 -1.06042 0
M  V30 835 C 72.366 5.31654 -0.466893 0
M  V30 836 O 72.589 5.65777 0.724758 0
M  V30 837 O 71.523 5.89831 -1.1993 0
M  V30 838 H 75.349 2.61016 -1.55255 0
M  V30 839 H 72.934 1.24919 -0.81949 0
M  V30 840 H 74.816 4.20234 0.313256 0
M  V30 841 H 73.491 3.12703 0.836566 0
M  V30 842 H 72.398 3.44482 -1.45886 0
M  V30 843 H 73.731 4.53996 -1.90127 0
M  V30 844 N 75.3831 0.828654 1.34056 0
M  V30 845 C 76.3301 0.252567 2.29414 0
M  V30 846 C 77.3001 -0.62588 1.53857 0
M  V30 847 O 78.4851 -0.566312 1.82202 0
M  V30 848 C 75.6251 -0.574831 3.40279 0
M  V30 849 C 74.7381 0.326499 4.30764 0
M  V30 850 C 73.8731 -0.511016 5.28736 0
M  V30 851 C 72.9121 0.389342 6.1086 0
M  V30 852 N 72.0491 -0.409439 7.00905 0
M  V30 853 H 76.8891 1.07108 2.78086 0
M  V30 854 H 74.4261 0.539677 1.36843 0
M  V30 855 H 76.3841 -1.06992 4.03248 0
M  V30 856 H 75.0141 -1.35841 2.92826 0
M  V30 857 H 74.0661 0.939837 3.68607 0
M  V30 858 H 75.3781 1.01857 4.88289 0
M  V30 859 H 74.5321 -1.07035 5.97184 0
M  V30 860 H 73.2711 -1.23657 4.71763 0
M  V30 861 H 72.2761 0.960769 5.4134 0
M  V30 862 H 73.5011 1.1131 6.69916 0
M  V30 863 H 71.4471 -1.11856 6.46393 0
M  V30 864 H 71.3641 0.224126 7.55668 0
M  V30 865 H 72.6321 -0.951336 7.73673 0
M  V30 866 N 76.8612 -1.46375 0.584142 0
M  V30 867 C 78.1382 -1.956 0.0033388 0
M  V30 868 C 78.5182 -1.52679 -1.45782 0
M  V30 869 O 77.8662 -0.77816 -2.14842 0
M  V30 870 C 78.0762 -3.48551 0.176891 0
M  V30 871 C 79.4242 -4.24576 0.0454609 0
M  V30 872 O 80.4482 -3.56043 0.105801 0
M  V30 873 O 79.3072 -5.46427 -0.0890376 0
M  V30 874 H 76.4012 -0.825547 -0.0490066 0
M  V30 875 H 78.9472 -1.56652 0.65256 0
M  V30 876 H 77.7192 -3.72683 1.1926 0
M  V30 877 H 77.3422 -3.94332 -0.508695 0
M  V30 878 N 78.3393 -0.321999 -1.54275 0
M  V30 879 C 79.5673 0.283052 -2.04955 0
M  V30 880 C 79.9823 1.45904 -1.19823 0
M  V30 881 O 79.3393 1.81063 -0.228545 0
M  V30 882 C 79.3903 0.719028 -3.54277 0
M  V30 883 O 79.1113 -0.410175 -4.36176 0
M  V30 884 C 80.6123 1.38705 -4.21041 0
M  V30 885 H 77.8323 0.0584616 -0.668448 0
M  V30 886 H 80.3763 -0.467734 -1.99079 0
M  V30 887 H 78.5313 1.41979 -3.60445 0
M  V30 888 H 78.9453 -0.0669416 -5.24457 0
M  V30 889 H 80.4193 1.64306 -5.2698 0
M  V30 890 H 80.8963 2.33385 -3.72059 0
M  V30 891 H 81.5023 0.728906 -4.19007 0
M  V30 892 N 79.8174 1.5752 -0.0501392 0
M  V30 893 C 81.2284 1.80271 0.485705 0
M  V30 894 C 81.5794 0.96228 1.70981 0
M  V30 895 O 80.7044 0.178578 2.15662 0
M  V30 896 C 81.2994 3.26957 0.887938 0
M  V30 897 C 79.8584 3.5063 1.36877 0
M  V30 898 C 79.0054 2.75165 0.343468 0
M  V30 899 H 81.9564 1.56281 -0.276028 0
M  V30 900 H 81.9774 3.37821 1.75093 0
M  V30 901 H 81.4894 3.881 -0.0031809 0
M  V30 902 H 79.5904 2.94766 2.27911 0
M  V30 903 H 79.7034 4.59343 1.36164 0
M  V30 904 H 78.0674 2.4127 0.816128 0
M  V30 905 H 78.8504 3.39034 -0.539548 0
M  V30 906 N 81.2955 -0.223234 1.56011 0
M  V30 907 C 82.5425 -0.947875 1.78946 0
M  V30 908 C 82.8705 -1.844 0.618608 0
M  V30 909 O 82.1255 -1.91629 -0.397093 0
M  V30 910 C 82.4245 -1.81948 3.0762 0
M  V30 911 C 82.0905 -1.07672 4.37856 0
M  V30 912 C 80.7525 -0.871544 4.73242 0
M  V30 913 C 83.1045 -0.552081 5.18268 0
M  V30 914 C 80.4325 -0.129791 5.86556 0
M  V30 915 C 82.7845 0.17632 6.32354 0
M  V30 916 C 81.4485 0.39277 6.66343 0
M  V30 917 H 80.7185 -0.346852 0.654809 0
M  V30 918 H 83.3655 -0.216171 1.90276 0
M  V30 919 H 81.6705 -2.61899 2.91404 0
M  V30 920 H 83.3675 -2.38227 3.22566 0
M  V30 921 H 79.9575 -1.24662 4.1007 0
M  V30 922 H 84.1415 -0.698076 4.91366 0
M  V30 923 H 79.3975 0.048153 6.11381 0
M  V30 924 H 83.5715 0.590367 6.93893 0
M  V30 925 H 81.1985 0.969466 7.53993 0
M  V30 926 N 82.7736 -1.49793 -0.48987 0
M  V30 927 C 83.6836 -1.70036 -1.61632 0
M  V30 928 C 84.6996 -0.583102 -1.63939 0
M  V30 929 O 85.8756 -0.859169 -1.82154 0
M  V30 930 C 82.9406 -1.77277 -2.97949 0
M  V30 931 C 82.0016 -3.00918 -3.06181 0
M  V30 932 C 81.2346 -3.07804 -4.35996 0
M  V30 933 O 81.4576 -2.21982 -5.25433 0
M  V30 934 O 80.3916 -4.00369 -4.49431 0
M  V30 935 H 84.2176 -2.65486 -1.47482 0
M  V30 936 H 81.8026 -1.33666 -0.667362 0
M  V30 937 H 83.6846 -1.84329 -3.78947 0
M  V30 938 H 82.3596 -0.850076 -3.12339 0
M  V30 939 H 81.2666 -2.99377 -2.2433 0
M  V30 940 H 82.5996 -3.92704 -2.96723 0
M  V30 941 N 84.2517 0.741722 -1.39055 0
M  V30 942 C 85.1837 1.8657 -1.33133 0
M  V30 943 C 86.1967 1.61001 -0.241329 0
M  V30 944 O 87.3857 1.7136 -0.499784 0
M  V30 945 C 84.4857 3.22457 -1.04283 0
M  V30 946 C 83.6587 3.75435 -2.24427 0
M  V30 947 C 82.7177 4.89867 -1.92138 0
M  V30 948 O 81.7437 5.03879 -2.64754 0
M  V30 949 N 82.9457 5.73738 -0.88347 0
M  V30 950 H 85.7107 1.92156 -2.29991 0
M  V30 951 H 83.2717 0.922172 -1.3307 0
M  V30 952 H 85.2637 3.9657 -0.807128 0
M  V30 953 H 83.8337 3.12181 -0.161807 0
M  V30 954 H 83.0537 2.92751 -2.6399 0
M  V30 955 H 84.3417 4.07563 -3.04581 0
M  V30 956 H 83.7397 5.64999 -0.281517 0
M  V30 957 H 82.2967 6.47947 -0.707662 0
M  V30 958 N 85.7298 1.2412 0.971189 0
M  V30 959 C 86.9758 1.08041 1.71625 0
M  V30 960 C 87.3088 -0.380407 1.90438 0
M  V30 961 O 86.5838 -1.28127 1.46334 0
M  V30 962 C 86.8668 1.81682 3.10908 0
M  V30 963 C 86.7198 3.35493 2.99608 0
M  V30 964 C 88.0388 1.58671 4.10501 0
M  V30 965 H 85.1578 0.39388 0.622919 0
M  V30 966 H 87.7998 1.52743 1.13003 0
M  V30 967 H 85.9498 1.43684 3.60953 0
M  V30 968 H 87.6218 3.83068 2.57015 0
M  V30 969 H 85.8648 3.64052 2.35899 0
M  V30 970 H 86.5358 3.82217 3.98264 0
M  V30 971 H 89.0118 1.91719 3.69301 0
M  V30 972 H 87.8878 2.1266 5.06031 0
M  V30 973 H 88.1488 0.524161 4.38982 0
M  V30 974 N 87.2079 -1.17134 1.05439 0
M  V30 975 C 88.6189 -1.69084 0.791676 0
M  V30 976 C 88.9699 -1.83822 -0.685839 0
M  V30 977 O 88.0949 -1.52757 -1.53278 0
M  V30 978 C 88.6899 -3.07119 1.4305 0
M  V30 979 C 87.2489 -3.56225 1.21577 0
M  V30 980 C 86.3959 -2.32421 1.51247 0
M  V30 981 H 89.3469 -1.01617 1.219 0
M  V30 982 H 89.3679 -3.71087 0.84112 0
M  V30 983 H 88.8799 -2.9636 2.50584 0
M  V30 984 H 86.9809 -3.72257 0.159787 0
M  V30 985 H 87.0939 -4.38837 1.92246 0
M  V30 986 H 85.4579 -2.3701 0.932653 0
M  V30 987 H 86.2409 -2.24268 2.5992 0
M  V30 988 N 88.686 -0.835752 -1.33615 0
M  V30 989 C 89.935 -0.426289 -1.97144 0
M  V30 990 C 90.248 1.01912 -1.66953 0
M  V30 991 O 91.454 1.53311 -2.24072 0
M  V30 992 C 89.91 -0.711321 -3.52801 0
M  V30 993 C 89.518 -2.1712 -3.91871 0
M  V30 994 C 91.262 -0.368654 -4.22896 0
M  V30 995 C 89.169 -2.40044 -5.40493 0
M  V30 996 H 88.099 -0.15567 -0.737755 0
M  V30 997 H 90.75 -1.0239 -1.52278 0
M  V30 998 H 89.132 -0.0433766 -3.95976 0
M  V30 999 H 90.306 -2.87936 -3.59763 0
M  V30 1000 H 88.621 -2.47654 -3.34749 0
M  V30 1001 H 91.218 -0.517601 -5.32189 0
M  V30 1002 H 91.561 0.688078 -4.10574 0
M  V30 1003 H 92.094 -0.991702 -3.8524 0
M  V30 1004 H 88.833 -3.44271 -5.57815 0
M  V30 1005 H 88.353 -1.73785 -5.74072 0
M  V30 1006 H 90.032 -2.23042 -6.0734 0
M  V30 1007 N 90.1641 1.46063 -0.591896 0
M  V30 1008 C 91.0941 2.33172 0.123673 0
M  V30 1009 C 92.0751 1.45897 0.87453 0
M  V30 1010 O 93.2601 1.74698 0.848181 0
M  V30 1011 C 90.3901 3.28336 1.13194 0
M  V30 1012 C 89.3441 4.25124 0.495324 0
M  V30 1013 C 88.6701 5.09863 1.61071 0
M  V30 1014 C 89.9701 5.19143 -0.573425 0
M  V30 1015 H 91.6641 2.93252 -0.603646 0
M  V30 1016 H 89.2101 1.41014 -0.291741 0
M  V30 1017 H 91.1631 3.88137 1.64097 0
M  V30 1018 H 89.8871 2.66383 1.88965 0
M  V30 1019 H 88.5461 3.66599 0.00729452 0
M  V30 1020 H 88.1941 4.44288 2.35832 0
M  V30 1021 H 87.8941 5.75417 1.19035 0
M  V30 1022 H 89.4181 5.72529 2.12233 0
M  V30 1023 H 90.8321 5.73106 -0.1491 0
M  V30 1024 H 89.2291 5.93089 -0.914636 0
M  V30 1025 H 90.2991 4.62519 -1.45617 0
M  V30 1026 N 91.6422 0.330177 1.54103 0
M  V30 1027 C 92.5742 -0.566902 2.22079 0
M  V30 1028 C 93.5872 -1.07462 1.22294 0
M  V30 1029 O 94.7762 -0.987065 1.48726 0
M  V30 1030 C 91.8762 -1.79138 2.87685 0
M  V30 1031 C 91.0492 -1.42123 4.13666 0
M  V30 1032 C 90.1082 -2.50394 4.62806 0
M  V30 1033 O 89.1342 -2.14261 5.27334 0
M  V30 1034 N 90.3362 -3.81433 4.37595 0
M  V30 1035 H 93.1012 0.0151844 2.99696 0
M  V30 1036 H 90.6622 0.153681 1.61169 0
M  V30 1037 H 92.6542 -2.50975 3.1748 0
M  V30 1038 H 91.2242 -2.28115 2.13734 0
M  V30 1039 H 90.4442 -0.534201 3.90564 0
M  V30 1040 H 91.7322 -1.14971 4.9564 0
M  V30 1041 H 91.1302 -4.13584 3.8596 0
M  V30 1042 H 89.6872 -4.4948 4.72029 0
M  V30 1043 N 93.1203 -1.57491 0.0584922 0
M  V30 1044 C 94.3693 -1.92155 -0.613146 0
M  V30 1045 C 94.6823 -0.939334 -1.71569 0
M  V30 1046 O 95.8883 -1.17829 -2.44599 0
M  V30 1047 C 94.3443 -3.41303 -1.14195 0
M  V30 1048 C 93.9523 -4.47944 -0.0711265 0
M  V30 1049 C 95.6963 -3.84988 -1.78841 0
M  V30 1050 C 93.6033 -5.88212 -0.613225 0
M  V30 1051 H 92.5333 -0.717162 -0.232796 0
M  V30 1052 H 95.1843 -1.83049 0.12857 0
M  V30 1053 H 93.5663 -3.45437 -1.93621 0
M  V30 1054 H 94.7403 -4.55408 0.702836 0
M  V30 1055 H 93.0553 -4.13644 0.478313 0
M  V30 1056 H 95.6523 -4.87159 -2.20408 0
M  V30 1057 H 95.9953 -3.21632 -2.64308 0
M  V30 1058 H 96.5283 -3.83401 -1.06059 0
M  V30 1059 H 93.2673 -6.55183 0.203978 0
M  V30 1060 H 92.7873 -5.84294 -1.35501 0
M  V30 1061 H 94.4663 -6.37687 -1.09383 0
M  V30 1062 N 94.5984 0.214957 -1.56127 0
M  V30 1063 C 95.8464 0.936518 -1.79091 0
M  V30 1064 C 96.1674 1.84606 -0.628148 0
M  V30 1065 O 95.4374 1.92664 0.35462 0
M  V30 1066 H 94.0174 0.3488 -0.660566 0
M  V30 1067 H 96.6794 0.22523 -1.93594 0
M  V30 1068 H 95.7754 1.53943 -2.71492 0
M  V30 1069 N 96.0765 1.50051 0.48192 0
M  V30 1070 C 97.3535 1.51009 1.2432 0
M  V30 1071 C 97.7335 0.248587 2.09631 0
M  V30 1072 O 97.0815 -0.768409 2.15192 0
M  V30 1073 C 97.2915 2.79981 2.08355 0
M  V30 1074 C 98.6395 3.3022 2.66908 0
M  V30 1075 O 99.6635 2.81228 2.18607 0
M  V30 1076 O 98.5225 4.15595 3.54884 0
M  V30 1077 H 95.6165 0.605239 0.563573 0
M  V30 1078 H 98.1625 1.62332 0.494627 0
M  V30 1079 H 96.9345 3.63275 1.45419 0
M  V30 1080 H 96.5575 2.7161 2.90368 0
M  V30 1081 N 97.5546 -0.734337 1.39446 0
M  V30 1082 C 98.4846 -1.86155 1.40955 0
M  V30 1083 C 99.4656 -1.67898 0.272827 0
M  V30 1084 O 100.651 -1.88207 0.478743 0
M  V30 1085 C 97.7806 -3.23912 1.25294 0
M  V30 1086 C 96.7346 -3.56808 2.36373 0
M  V30 1087 C 96.0606 -4.93508 2.058 0
M  V30 1088 C 97.3606 -3.59713 3.78687 0
M  V30 1089 H 99.0546 -1.8515 2.35287 0
M  V30 1090 H 96.6006 -0.889367 1.13253 0
M  V30 1091 H 98.5536 -4.02443 1.2497 0
M  V30 1092 H 97.2776 -3.25446 0.274308 0
M  V30 1093 H 95.9366 -2.80606 2.35914 0
M  V30 1094 H 95.5846 -4.91623 1.06374 0
M  V30 1095 H 95.2846 -5.16486 2.80208 0
M  V30 1096 H 96.8086 -5.74396 2.07128 0
M  V30 1097 H 98.2226 -4.2832 3.81071 0
M  V30 1098 H 96.6196 -3.94209 4.52459 0
M  V30 1099 H 97.6896 -2.59504 4.09617 0
M  V30 1100 N 99.0327 -1.24633 -0.964593 0
M  V30 1101 C 100.282 -1.08188 -1.7023 0
M  V30 1102 C 100.595 0.37873 -1.91898 0
M  V30 1103 O 101.801 0.663427 -2.6327 0
M  V30 1104 C 100.257 -1.88773 -3.06419 0
M  V30 1105 C 99.8647 -3.39263 -2.92582 0
M  V30 1106 C 101.609 -1.80867 -3.84041 0
M  V30 1107 C 99.5157 -4.1218 -4.24101 0
M  V30 1108 H 98.4457 -0.401245 -0.638372 0
M  V30 1109 H 101.097 -1.48742 -1.07462 0
M  V30 1110 H 99.4787 -1.41035 -3.70034 0
M  V30 1111 H 100.653 -3.94603 -2.37961 0
M  V30 1112 H 98.9677 -3.48154 -2.28424 0
M  V30 1113 H 101.565 -2.32646 -4.81435 0
M  V30 1114 H 101.908 -0.774543 -4.09031 0
M  V30 1115 H 102.441 -2.26301 -3.27159 0
M  V30 1116 H 99.1797 -5.15965 -4.04303 0
M  V30 1117 H 98.6997 -3.61626 -4.78526 0
M  V30 1118 H 100.379 -4.19349 -4.92702 0
M  V30 1119 N 100.511 1.16574 -1.06058 0
M  V30 1120 C 101.441 2.23057 -0.690488 0
M  V30 1121 C 102.422 1.67141 0.315901 0
M  V30 1122 O 103.607 1.93253 0.191556 0
M  V30 1123 C 100.737 3.47222 -0.073625 0
M  V30 1124 C 99.6908 4.16016 -1.00573 0
M  V30 1125 C 99.0168 5.34104 -0.252289 0
M  V30 1126 C 100.317 4.67264 -2.33371 0
M  V30 1127 H 102.011 2.54271 -1.58072 0
M  V30 1128 H 99.5568 1.22218 -0.76149 0
M  V30 1129 H 101.51 4.20939 0.19714 0
M  V30 1130 H 100.234 3.15302 0.85161 0
M  V30 1131 H 98.8928 3.44223 -1.2612 0
M  V30 1132 H 98.5408 4.98437 0.675988 0
M  V30 1133 H 98.2408 5.81072 -0.873455 0
M  V30 1134 H 99.7648 6.10599 0.0109857 0
M  V30 1135 H 101.179 5.32573 -2.12223 0
M  V30 1136 H 99.5758 5.24843 -2.90963 0
M  V30 1137 H 100.646 3.83602 -2.96611 0
M  V30 1138 N 101.989 0.842826 1.3317 0
M  V30 1139 C 102.952 0.284065 2.27433 0
M  V30 1140 C 103.952 -0.54948 1.5112 0
M  V30 1141 O 105.142 -0.362699 1.70382 0
M  V30 1142 C 102.274 -0.599384 3.35589 0
M  V30 1143 H 103.467 1.11589 2.78366 0
M  V30 1144 H 101.02 0.616221 1.4364 0
M  V30 1145 H 101.755 -1.45349 2.89904 0
M  V30 1146 H 101.54 -0.00291266 3.921 0
M  V30 1147 H 103.03 -0.983488 4.05854 0
M  V30 1148 N 103.467 -1.45747 0.599634 0
M  V30 1149 C 104.399 -2.28628 -0.161879 0
M  V30 1150 C 105.412 -1.39494 -0.839367 0
M  V30 1151 O 106.601 -1.63941 -0.706089 0
M  V30 1152 C 103.701 -3.15014 -1.24976 0
M  V30 1153 C 102.874 -4.32378 -0.660935 0
M  V30 1154 C 101.933 -5.00033 -1.63869 0
M  V30 1155 O 100.959 -5.57085 -1.1681 0
M  V30 1156 N 102.161 -4.98589 -2.97303 0
M  V30 1157 H 104.926 -2.94624 0.549265 0
M  V30 1158 H 102.487 -1.55847 0.438565 0
M  V30 1159 H 104.479 -3.5714 -1.9035 0
M  V30 1160 H 103.049 -2.5098 -1.86354 0
M  V30 1161 H 102.269 -3.9383 0.170688 0
M  V30 1162 H 103.557 -5.08197 -0.247619 0
M  V30 1163 H 102.955 -4.53514 -3.38145 0
M  V30 1164 H 101.512 -5.44603 -3.58121 0
M  V30 1165 N 104.945 -0.338344 -1.53925 0
M  V30 1166 C 106.17 0.263987 -2.05713 0
M  V30 1167 C 106.595 1.43847 -1.21201 0
M  V30 1168 O 105.953 1.79904 -0.224535 0
M  V30 1169 C 106.001 0.662 -3.54471 0
M  V30 1170 O 105.105 1.76265 -3.72833 0
M  V30 1171 H 104.446 0.0448722 -0.662482 0
M  V30 1172 H 106.976 -0.491048 -1.9862 0
M  V30 1173 H 106.986 0.940594 -3.9701 0
M  V30 1174 H 105.661 -0.196937 -4.15433 0
M  V30 1175 H 104.238 1.48173 -3.42198 0
M  V30 1176 N 106.423 1.57458 -0.0668435 0
M  V30 1177 C 107.355 2.09413 0.931601 0
M  V30 1178 C 108.368 1.02522 1.26464 0
M  V30 1179 O 109.557 1.30049 1.22269 0
M  V30 1180 C 106.657 2.53537 2.24882 0
M  V30 1181 C 105.83 3.83944 2.09537 0
M  V30 1182 C 104.889 4.14214 3.2452 0
M  V30 1183 O 103.915 4.83891 2.9973 0
M  V30 1184 N 105.117 3.67367 4.49469 0
M  V30 1185 H 107.882 2.95699 0.488048 0
M  V30 1186 H 105.443 1.61462 0.119009 0
M  V30 1187 H 107.435 2.70853 3.00701 0
M  V30 1188 H 106.005 1.72415 2.60753 0
M  V30 1189 H 105.225 3.76057 1.18215 0
M  V30 1190 H 106.513 4.69312 1.96529 0
M  V30 1191 H 105.911 3.11068 4.72497 0
M  V30 1192 H 104.468 3.89891 5.2233 0
M  V30 1193 N 107.901 -0.206675 1.56239 0
M  V30 1194 C 108.864 -1.23976 1.92776 0
M  V30 1195 C 109.864 -1.39041 0.807729 0
M  V30 1196 O 111.054 -1.37051 1.0753 0
M  V30 1197 C 108.186 -2.61112 2.19165 0
M  V30 1198 H 109.379 -0.927764 2.85189 0
M  V30 1199 H 106.932 -0.447718 1.4975 0
M  V30 1200 H 107.667 -2.97386 1.29352 0
M  V30 1201 H 107.452 -2.51552 3.00772 0
M  V30 1202 H 108.942 -3.35633 2.48476 0
M  V30 1203 N 109.379 -1.50304 -0.473955 0
M  V30 1204 C 110.628 -1.60392 -1.22301 0
M  V30 1205 C 110.941 -0.308411 -1.93153 0
M  V30 1206 O 112.147 -0.288156 -2.69966 0
M  V30 1207 C 110.603 -2.83109 -2.2221 0
M  V30 1208 C 110.211 -4.19524 -1.57173 0
M  V30 1209 C 111.955 -3.0254 -2.97775 0
M  V30 1210 C 109.862 -5.33431 -2.55353 0
M  V30 1211 H 108.792 -0.597286 -0.460179 0
M  V30 1212 H 111.443 -1.76731 -0.493803 0
M  V30 1213 H 109.825 -2.60322 -2.9841 0
M  V30 1214 H 110.999 -4.52554 -0.867824 0
M  V30 1215 H 109.314 -4.05674 -0.939002 0
M  V30 1216 H 111.911 -3.84811 -3.71248 0
M  V30 1217 H 112.254 -2.14154 -3.56992 0
M  V30 1218 H 112.787 -3.25494 -2.28688 0
M  V30 1219 H 109.526 -6.23962 -2.00878 0
M  V30 1220 H 109.046 -5.04823 -3.23904 0
M  V30 1221 H 110.725 -5.63887 -3.17239 0
M  V30 1222 N 110.857 0.726932 -1.39834 0
M  V30 1223 C 112.103 1.48884 -1.377 0
M  V30 1224 C 112.436 1.94185 0.0244852 0
M  V30 1225 O 111.711 1.67361 0.990986 0
M  V30 1226 C 111.994 2.72288 -2.3565 0
M  V30 1227 C 111.847 2.32956 -3.84775 0
M  V30 1228 C 113.166 3.74414 -2.31306 0
M  V30 1229 H 110.285 0.540062 -0.5015 0
M  V30 1230 H 112.927 0.830547 -1.70886 0
M  V30 1231 H 111.077 3.28457 -2.07481 0
M  V30 1232 H 112.749 1.82356 -4.23726 0
M  V30 1233 H 110.992 1.65088 -4.01159 0
M  V30 1234 H 111.663 3.21362 -4.4881 0
M  V30 1235 H 114.139 3.27849 -2.56231 0
M  V30 1236 H 113.015 4.58414 -3.01907 0
M  V30 1237 H 113.276 4.21909 -1.32081 0
M  V30 1238 N 112.336 1.25143 0.95797 0
M  V30 1239 C 113.752 1.01892 1.22842 0
M  V30 1240 C 113.952 -0.266311 1.99732 0
M  V30 1241 O 113.008 -0.979913 2.3271 0
M  V30 1242 C 114.321 2.24004 2.00606 0
M  V30 1243 C 115.869 2.28731 2.13662 0
M  V30 1244 C 116.344 3.5049 2.94823 0
M  V30 1245 N 117.835 3.50866 3.02403 0
M  V30 1246 C 118.57 4.4174 3.65586 0
M  V30 1247 N 118.066 5.42882 4.30408 0
M  V30 1248 N 119.859 4.29429 3.62694 0
M  V30 1249 H 112.01 2.07718 0.443493 0
M  V30 1250 H 114.273 0.912031 0.258657 0
M  V30 1251 H 113.979 3.17395 1.51503 0
M  V30 1252 H 113.853 2.26907 3.01319 0
M  V30 1253 H 116.24 1.35865 2.61963 0
M  V30 1254 H 116.321 2.29848 1.12265 0
M  V30 1255 H 115.965 4.43676 2.47213 0
M  V30 1256 H 115.895 3.46617 3.96439 0
M  V30 1257 H 118.386 2.777 2.56302 0
M  V30 1258 H 118.699 6.0844 4.76467 0
M  V30 1259 H 117.044 5.46758 4.29047 0
M  V30 1260 H 120.235 3.49643 3.11236 0
M  V30 1261 H 120.408 5.00448 4.1165 0
M  V30 1262 N 113.814 -1.1601 1.06675 0
M  V30 1263 C 115.044 -1.90251 0.805497 0
M  V30 1264 C 115.452 -1.77891 -0.64431 0
M  V30 1265 O 114.795 -1.12383 -1.45313 0
M  V30 1266 C 114.857 -3.41419 1.12576 0
M  V30 1267 C 114.521 -3.77564 2.57477 0
M  V30 1268 C 115.518 -3.79161 3.55715 0
M  V30 1269 C 113.203 -4.08079 2.92877 0
M  V30 1270 C 115.197 -4.10767 4.8739 0
M  V30 1271 C 112.884 -4.39351 4.24751 0
M  V30 1272 C 113.882 -4.40675 5.21818 0
M  V30 1273 O 113.57 -4.71202 6.51325 0
M  V30 1274 H 113.302 -0.610018 0.291297 0
M  V30 1275 H 115.856 -1.47958 1.4247 0
M  V30 1276 H 114.086 -3.84079 0.449503 0
M  V30 1277 H 115.775 -3.9694 0.84814 0
M  V30 1278 H 116.541 -3.55693 3.29708 0
M  V30 1279 H 112.42 -4.06211 2.17976 0
M  V30 1280 H 115.964 -4.11715 5.63148 0
M  V30 1281 H 111.861 -4.62285 4.50514 0
M  V30 1282 H 112.629 -4.88996 6.56373 0
M  V30 1283 N 115.292 -0.849877 -1.32721 0
M  V30 1284 C 116.222 -0.306308 -2.31482 0
M  V30 1285 C 117.203 0.591952 -1.59468 0
M  V30 1286 O 118.388 0.513199 -1.87296 0
M  V30 1287 C 115.518 0.510204 -3.43532 0
M  V30 1288 C 114.472 -0.293209 -4.26994 0
M  V30 1289 C 113.798 0.647743 -5.30762 0
M  V30 1290 C 115.098 -1.51634 -4.99804 0
M  V30 1291 H 116.792 -1.13153 -2.77195 0
M  V30 1292 H 114.338 -0.545553 -1.33266 0
M  V30 1293 H 116.291 0.900856 -4.11658 0
M  V30 1294 H 115.015 1.36874 -2.96535 0
M  V30 1295 H 113.674 -0.665555 -3.60508 0
M  V30 1296 H 113.322 1.50299 -4.8002 0
M  V30 1297 H 113.022 0.11422 -5.87489 0
M  V30 1298 H 114.546 1.03567 -6.01753 0
M  V30 1299 H 115.96 -1.19824 -5.60638 0
M  V30 1300 H 114.357 -1.98745 -5.66234 0
M  V30 1301 H 115.427 -2.28018 -4.27943 0
M  V30 1302 N 116.77 1.45427 -0.607355 0
M  V30 1303 C 117.995 2.07124 -0.107006 0
M  V30 1304 C 118.42 1.44906 1.19933 0
M  V30 1305 O 117.778 0.541687 1.73019 0
M  V30 1306 C 117.826 3.60595 0.0194119 0
M  V30 1307 O 116.93 3.98285 1.0697 0
M  V30 1308 H 116.271 0.659868 -0.0739597 0
M  V30 1309 H 118.801 1.86683 -0.837297 0
M  V30 1310 H 118.811 4.07419 0.2177 0
M  V30 1311 H 117.486 4.05266 -0.934453 0
M  V30 1312 H 116.063 3.63133 0.847889 0
M  V30 1313 N 118.248 0.346503 1.53744 0
M  V30 1314 C 119.195 -0.508914 2.25119 0
M  V30 1315 C 120.165 -1.09315 1.25058 0
M  V30 1316 O 121.35 -1.12921 1.53797 0
M  V30 1317 C 118.49 -1.65246 3.02965 0
M  V30 1318 C 117.603 -1.09525 4.17886 0
M  V30 1319 C 116.738 -2.20634 4.83212 0
M  V30 1320 C 115.777 -1.62279 5.90196 0
M  V30 1321 N 114.914 -2.67143 6.49291 0
M  V30 1322 H 119.754 0.106283 2.9781 0
M  V30 1323 H 117.291 0.0642227 1.4696 0
M  V30 1324 H 119.249 -2.32574 3.4636 0
M  V30 1325 H 117.879 -2.2386 2.32565 0
M  V30 1326 H 116.931 -0.312818 3.79112 0
M  V30 1327 H 118.243 -0.628444 4.94825 0
M  V30 1328 H 117.397 -2.95821 5.29693 0
M  V30 1329 H 116.136 -2.70659 4.05703 0
M  V30 1330 H 115.141 -0.855989 5.43096 0
M  V30 1331 H 116.366 -1.13102 6.69615 0
M  V30 1332 H 114.312 -3.16417 5.74645 0
M  V30 1333 H 114.229 -2.25093 7.21713 0
M  V30 1334 H 115.497 -3.4209 7.00425 0
M  V30 1335 N 119.726 -1.57421 0.075193 0
M  V30 1336 C 120.673 -2.12915 -0.890843 0
M  V30 1337 C 121.643 -1.04252 -1.29309 0
M  V30 1338 O 122.828 -1.31933 -1.37834 0
M  V30 1339 C 119.968 -2.69795 -2.15186 0
M  V30 1340 C 119.081 -3.92624 -1.80194 0
M  V30 1341 C 118.216 -4.37736 -3.00933 0
M  V30 1342 C 117.255 -5.53205 -2.61974 0
M  V30 1343 N 116.392 -5.9326 -3.75483 0
M  V30 1344 H 121.232 -2.95156 -0.410735 0
M  V30 1345 H 118.769 -1.45854 -0.191086 0
M  V30 1346 H 120.727 -3.00883 -2.89008 0
M  V30 1347 H 119.357 -1.90313 -2.60731 0
M  V30 1348 H 118.409 -3.67977 -0.964218 0
M  V30 1349 H 119.721 -4.76482 -1.47534 0
M  V30 1350 H 118.875 -4.70503 -3.8303 0
M  V30 1351 H 117.614 -3.52739 -3.36789 0
M  V30 1352 H 116.619 -5.20086 -1.783 0
M  V30 1353 H 117.844 -6.39936 -2.27284 0
M  V30 1354 H 115.79 -5.11212 -4.11094 0
M  V30 1355 H 115.707 -6.71865 -3.46602 0
M  V30 1356 H 116.975 -6.30651 -4.58148 0
M  V30 1357 N 121.204 0.198386 -1.56346 0
M  V30 1358 C 122.434 0.934215 -1.84271 0
M  V30 1359 C 122.842 1.77496 -0.655125 0
M  V30 1360 O 122.185 1.7961 0.385488 0
M  V30 1361 C 122.247 1.88278 -3.06254 0
M  V30 1362 C 121.911 1.22431 -4.40295 0
M  V30 1363 C 122.908 0.602839 -5.16393 0
M  V30 1364 C 120.593 1.22915 -4.87029 0
M  V30 1365 C 122.587 -0.0050083 -6.374 0
M  V30 1366 C 120.274 0.617465 -6.07973 0
M  V30 1367 C 121.272 0.00146341 -6.83 0
M  V30 1368 O 120.96 -0.600642 -8.01653 0
M  V30 1369 H 120.692 0.278245 -0.616081 0
M  V30 1370 H 123.246 0.211626 -2.04307 0
M  V30 1371 H 121.476 2.64498 -2.82095 0
M  V30 1372 H 123.165 2.48612 -3.20853 0
M  V30 1373 H 123.931 0.591265 -4.81382 0
M  V30 1374 H 119.81 1.69801 -4.28589 0
M  V30 1375 H 123.354 -0.48643 -6.95902 0
M  V30 1376 H 119.251 0.62653 -6.42452 0
M  V30 1377 H 120.019 -0.497225 -8.16988 0
M  V30 1378 N 122.682 1.50554 0.465978 0
M  V30 1379 C 123.63 1.70324 1.58406 0
M  V30 1380 C 124.624 0.569139 1.59553 0
M  V30 1381 O 125.83 0.749776 1.63641 0
M  V30 1382 H 122.205 0.537688 0.525734 0
M  V30 1383 H 124.176 2.64104 1.38894 0
M  V30 1384 C 122.925 1.81928 2.96307 0
M  V30 1385 H 122.248 2.68586 2.96144 0
M  V30 1386 H 123.688 1.99784 3.73982 0
M  V30 1387 C 122.147 0.572095 3.32007 0
M  V30 1388 O 122.677 -0.286416 4.00678 0
M  V30 1389 N 120.883 0.424606 2.87481 0
M  V30 1390 H 120.43 1.12427 2.31771 0
M  V30 1391 H 120.388 -0.408697 3.11732 0
M  V30 1392 N 124.16 -0.719506 1.40217 0
M  V30 1393 C 125.409 -1.47486 1.37589 0
M  V30 1394 C 125.722 -1.9559 -0.0201568 0
M  V30 1395 O 126.928 -2.70973 -0.169049 0
M  V30 1396 C 125.384 -2.66575 2.41796 0
M  V30 1397 C 124.992 -2.25358 3.87192 0
M  V30 1398 C 126.736 -3.4433 2.48269 0
M  V30 1399 C 124.643 -3.41262 4.83005 0
M  V30 1400 H 123.573 -0.553901 0.511576 0
M  V30 1401 H 126.224 -0.783427 1.65936 0
M  V30 1402 H 124.606 -3.3787 2.06543 0
M  V30 1403 H 125.78 -1.61509 4.31569 0
M  V30 1404 H 124.095 -1.60657 3.84159 0
M  V30 1405 H 126.692 -4.30569 3.17041 0
M  V30 1406 H 127.035 -3.87872 1.51198 0
M  V30 1407 H 127.568 -2.80076 2.82493 0
M  V30 1408 H 124.307 -3.02755 5.81394 0
M  V30 1409 H 123.827 -4.0404 4.43297 0
M  V30 1410 H 125.506 -4.07383 5.02641 0
M  V30 1411 N 125.638 -1.25649 -0.95132 0
M  V30 1412 C 126.878 -1.11802 -1.71113 0
M  V30 1413 C 127.242 0.334758 -1.89059 0
M  V30 1414 O 128.443 0.595121 -2.62129 0
M  V30 1415 C 126.714 -1.85512 -3.05483 0
M  V30 1416 S 128.273 -1.87597 -3.96677 0
M  V30 1417 H 125.091 -0.399552 -0.588115 0
M  V30 1418 H 127.693 -1.59222 -1.1344 0
M  V30 1419 H 126.397 -2.90299 -2.90094 0
M  V30 1420 H 125.928 -1.38493 -3.68216 0
M  V30 1421 H 127.943 -0.955389 -4.86916 0
M  V30 1422 N 127.117 1.15442 -1.07289 0
M  V30 1423 C 128.365 1.85845 -0.794096 0
M  V30 1424 C 128.686 1.82692 0.681809 0
M  V30 1425 O 127.956 1.26741 1.49377 0
M  V30 1426 H 126.536 0.688089 -0.290763 0
M  V30 1427 H 129.198 1.39947 -1.3565 0
M  V30 1428 H 128.294 2.91001 -1.12804 0
M  V30 1429 N 128.595 0.856903 1.32268 0
M  V30 1430 C 129.505 0.306131 2.32594 0
M  V30 1431 C 130.521 -0.577209 1.64147 0
M  V30 1432 O 131.697 -0.477043 1.95669 0
M  V30 1433 C 128.762 -0.494561 3.43154 0
M  V30 1434 C 127.823 0.415186 4.27288 0
M  V30 1435 C 127.056 -0.347387 5.32568 0
M  V30 1436 O 127.279 -1.57708 5.48165 0
M  V30 1437 O 126.213 0.287982 6.01211 0
M  V30 1438 H 130.039 1.13737 2.81598 0
M  V30 1439 H 127.624 0.619902 1.35932 0
M  V30 1440 H 129.506 -0.948944 4.10576 0
M  V30 1441 H 128.181 -1.30257 2.96336 0
M  V30 1442 H 127.088 0.917793 3.62667 0
M  V30 1443 H 128.421 1.18844 4.77637 0
M  V30 1444 N 130.073 -1.45103 0.615059 0
M  V30 1445 C 131.298 -2.07064 0.117988 0
M  V30 1446 C 131.723 -1.4554 -1.19163 0
M  V30 1447 O 131.081 -0.550855 -1.72729 0
M  V30 1448 C 131.129 -3.606 -0.000288387 0
M  V30 1449 O 130.233 -3.98847 -1.04856 0
M  V30 1450 H 129.574 -0.659467 0.0774581 0
M  V30 1451 H 132.104 -1.86236 0.847186 0
M  V30 1452 H 132.114 -4.07529 -0.196091 0
M  V30 1453 H 130.789 -4.04765 0.955932 0
M  V30 1454 H 129.366 -3.63577 -0.828619 0
M  V30 1455 N 131.551 -0.354651 -1.53558 0
M  V30 1456 C 132.461 0.50515 -2.29097 0
M  V30 1457 C 133.477 1.10223 -1.34636 0
M  V30 1458 O 134.653 1.11553 -1.67684 0
M  V30 1459 C 131.718 1.63479 -3.05738 0
M  V30 1460 C 130.779 1.06636 -4.15845 0
M  V30 1461 C 130.012 2.14217 -4.88822 0
M  V30 1462 O 130.235 3.35137 -4.61562 0
M  V30 1463 O 129.169 1.77887 -5.75013 0
M  V30 1464 H 132.995 -0.109237 -3.03503 0
M  V30 1465 H 130.58 -0.119357 -1.48922 0
M  V30 1466 H 132.462 2.2918 -3.5363 0
M  V30 1467 H 131.137 2.23478 -2.34178 0
M  V30 1468 H 130.044 0.373565 -3.7223 0
M  V30 1469 H 131.377 0.511081 -4.89539 0
M  V30 1470 N 133.029 1.57378 -0.0835403 0
M  V30 1471 C 133.959 2.1641 0.87686 0
M  V30 1472 C 134.94 1.09429 1.30228 0
M  V30 1473 O 136.125 1.37516 1.37124 0
M  V30 1474 C 133.255 2.73517 2.14022 0
M  V30 1475 C 132.209 3.85769 1.85381 0
M  V30 1476 C 131.535 4.29529 3.18448 0
M  V30 1477 C 132.835 5.09486 1.14984 0
M  V30 1478 H 134.529 2.96914 0.385059 0
M  V30 1479 H 132.075 1.42823 0.18377 0
M  V30 1480 H 134.028 3.13463 2.81636 0
M  V30 1481 H 132.752 1.90252 2.65465 0
M  V30 1482 H 131.411 3.46345 1.20169 0
M  V30 1483 H 131.059 3.43169 3.67755 0
M  V30 1484 H 130.759 5.05204 3.00071 0
M  V30 1485 H 132.283 4.72099 3.8724 0
M  V30 1486 H 133.697 5.46674 1.72687 0
M  V30 1487 H 132.094 5.90515 1.06826 0
M  V30 1488 H 133.164 4.84724 0.130749 0
M  V30 1489 N 134.507 -0.190092 1.56449 0
M  V30 1490 C 135.455 -1.25501 1.95837 0
M  V30 1491 C 136.449 -1.4685 0.844485 0
M  V30 1492 O 137.655 -1.47651 1.02952 0
M  V30 1493 H 134.03 -0.421447 0.622805 0
M  V30 1494 H 136.001 -0.895821 2.84636 0
M  V30 1495 C 134.75 -2.59124 2.31841 0
M  V30 1496 H 134.073 -2.43514 3.17082 0
M  V30 1497 H 135.513 -3.32371 2.6326 0
M  V30 1498 C 133.972 -3.16488 1.15486 0
M  V30 1499 O 134.502 -3.99365 0.432535 0
M  V30 1500 N 132.708 -2.75305 0.930349 0
M  V30 1501 H 132.255 -2.08013 1.51948 0
M  V30 1502 H 132.213 -3.14024 0.153634 0
M  V30 1503 N 135.985 -1.50799 -0.457987 0
M  V30 1504 C 136.895 -1.73426 -1.57989 0
M  V30 1505 C 137.911 -0.617745 -1.62665 0
M  V30 1506 O 139.087 -0.897614 -1.80291 0
M  V30 1507 C 136.152 -1.83557 -2.94122 0
M  V30 1508 C 135.213 -3.07345 -2.99729 0
M  V30 1509 C 134.446 -3.16983 -4.29368 0
M  V30 1510 O 134.669 -2.33077 -5.20607 0
M  V30 1511 O 133.603 -4.09812 -4.40837 0
M  V30 1512 H 137.429 -2.68555 -1.41817 0
M  V30 1513 H 135.014 -1.35052 -0.638859 0
M  V30 1514 H 136.896 -1.92326 -3.74952 0
M  V30 1515 H 135.571 -0.916137 -3.10465 0
M  V30 1516 H 134.478 -3.04068 -2.1793 0
M  V30 1517 H 135.811 -3.9891 -2.88326 0
M  V30 1518 N 137.463 0.71206 -1.40597 0
M  V30 1519 C 138.71 1.47197 -1.39065 0
M  V30 1520 C 139.038 1.94499 0.00583891 0
M  V30 1521 O 138.293 1.68752 0.99102 0
M  V30 1522 C 138.592 2.71039 -2.32965 0
M  V30 1523 C 138.258 2.42484 -3.80148 0
M  V30 1524 C 136.92 2.34406 -4.20247 0
M  V30 1525 C 139.272 2.18598 -4.73143 0
M  V30 1526 C 136.6 2.00516 -5.51371 0
M  V30 1527 C 138.952 1.8622 -6.0457 0
M  V30 1528 C 137.616 1.76626 -6.43708 0
M  V30 1529 H 136.886 0.538634 -0.508876 0
M  V30 1530 H 139.533 0.815325 -1.73276 0
M  V30 1531 H 137.838 3.41558 -1.91951 0
M  V30 1532 H 139.535 3.29138 -2.29061 0
M  V30 1533 H 136.125 2.49659 -3.4838 0
M  V30 1534 H 140.309 2.23793 -4.42979 0
M  V30 1535 H 135.565 1.91628 -5.80593 0
M  V30 1536 H 139.739 1.66752 -6.76141 0
M  V30 1537 H 137.366 1.50133 -7.45228 0
M  V30 1538 N 138.941 1.26152 0.944643 0
M  V30 1539 C 140.171 1.14094 1.72239 0
M  V30 1540 C 140.579 -0.306931 1.86694 0
M  V30 1541 O 139.922 -1.22222 1.3714 0
M  V30 1542 C 139.984 1.73316 3.14963 0
M  V30 1543 C 139.648 3.2239 3.23904 0
M  V30 1544 C 140.645 4.19252 3.07447 0
M  V30 1545 C 138.33 3.62788 3.47405 0
M  V30 1546 C 140.324 5.54491 3.14353 0
M  V30 1547 C 138.011 4.98162 3.53947 0
M  V30 1548 C 139.009 5.93823 3.37436 0
M  V30 1549 O 138.697 7.26732 3.43679 0
M  V30 1550 H 138.429 0.398292 0.546205 0
M  V30 1551 H 140.983 1.67201 1.19301 0
M  V30 1552 H 139.213 1.14667 3.69308 0
M  V30 1553 H 140.902 1.56214 3.74636 0
M  V30 1554 H 141.668 3.8938 2.8915 0
M  V30 1555 H 137.547 2.88816 3.59313 0
M  V30 1556 H 141.091 6.29137 3.01384 0
M  V30 1557 H 136.988 5.27695 3.71763 0
M  V30 1558 H 137.756 7.3496 3.60245 0
M  V30 1559 N 140.419 -1.14872 1.07899 0
M  V30 1560 C 141.382 -2.17986 0.708161 0
M  V30 1561 C 142.382 -1.58775 -0.25442 0
M  V30 1562 O 143.572 -1.74166 -0.034645 0
M  V30 1563 C 140.704 -3.40871 0.0446929 0
M  V30 1564 H 141.897 -2.52306 1.62116 0
M  V30 1565 H 139.45 -1.2943 0.876218 0
M  V30 1566 H 140.185 -3.12124 -0.880281 0
M  V30 1567 H 139.97 -3.8511 0.737091 0
M  V30 1568 H 141.46 -4.17121 -0.19991 0
M  V30 1569 N 141.898 -0.863906 -1.31812 0
M  V30 1570 C 143.175 -0.39275 -1.91616 0
M  V30 1571 C 143.555 1.12461 -1.7865 0
M  V30 1572 O 142.903 1.95045 -1.19037 0
M  V30 1573 C 143.113 -0.867385 -3.38049 0
M  V30 1574 C 144.461 -0.889966 -4.15168 0
M  V30 1575 O 145.485 -0.812635 -3.46806 0
M  V30 1576 O 144.344 -1.00079 -5.37258 0
M  V30 1577 H 141.438 -0.116358 -0.818773 0
M  V30 1578 H 143.984 -0.951418 -1.40521 0
M  V30 1579 H 142.756 -1.91081 -3.41473 0
M  V30 1580 H 142.379 -0.286687 -3.96565 0
M  V30 1581 N 143.376 1.44774 -0.622745 0
M  V30 1582 C 144.309 2.27792 0.136329 0
M  V30 1583 C 145.287 1.38041 0.859264 0
M  V30 1584 O 146.471 1.67478 0.86506 0
M  V30 1585 C 143.598 3.16776 1.19878 0
M  V30 1586 C 142.644 4.22575 0.57731 0
M  V30 1587 S 143.477 5.31825 -0.626294 0
M  V30 1588 C 144.633 6.24377 0.436378 0
M  V30 1589 H 144.866 2.91824 -0.567967 0
M  V30 1590 H 142.399 1.48838 -0.410677 0
M  V30 1591 H 144.357 3.68596 1.80686 0
M  V30 1592 H 143.018 2.5198 1.87523 0
M  V30 1593 H 142.211 4.84818 1.37721 0
M  V30 1594 H 141.813 3.73974 0.0440439 0
M  V30 1595 H 144.105 6.64689 1.31128 0
M  V30 1596 H 145.048 7.07941 -0.150271 0
M  V30 1597 H 145.456 5.59381 0.758513 0
M  V30 1598 N 144.854 0.36279 1.53368 0
M  V30 1599 C 146.103 -0.22888 2.00397 0
M  V30 1600 C 146.416 -1.50096 1.25421 0
M  V30 1601 O 147.622 -2.17106 1.63025 0
M  V30 1602 C 146.078 -0.458417 3.56969 0
M  V30 1603 C 145.686 0.798877 4.4082 0
M  V30 1604 C 147.43 -1.00789 4.12361 0
M  V30 1605 C 145.337 0.539078 5.88938 0
M  V30 1606 H 144.267 -0.089305 0.748693 0
M  V30 1607 H 146.918 0.481099 1.77081 0
M  V30 1608 H 145.3 -1.22959 3.76427 0
M  V30 1609 H 146.474 1.57262 4.33134 0
M  V30 1610 H 144.789 1.27137 3.96516 0
M  V30 1611 H 147.386 -1.21754 5.20653 0
M  V30 1612 H 147.729 -1.9692 3.66781 0
M  V30 1613 H 148.262 -0.296961 3.9669 0
M  V30 1614 H 145.001 1.47064 6.3879 0
M  V30 1615 H 144.521 -0.196222 5.99479 0
M  V30 1616 H 146.2 0.163542 6.46793 0
M  V30 1617 N 146.332 -1.57332 0.0918853 0
M  V30 1618 C 147.579 -1.94236 -0.572577 0
M  V30 1619 C 147.907 -0.973398 -1.6839 0
M  V30 1620 O 147.162 0.00756912 -1.95699 0
M  V30 1621 C 147.461 -3.37689 -1.17051 0
M  V30 1622 C 147.127 -4.50527 -0.183304 0
M  V30 1623 C 145.789 -4.81119 0.0882276 0
M  V30 1624 C 148.141 -5.18883 0.49095 0
M  V30 1625 C 145.469 -5.77395 1.04076 0
M  V30 1626 C 147.821 -6.1618 1.43193 0
M  V30 1627 C 146.485 -6.45179 1.71173 0
M  V30 1628 H 145.755 -0.710762 -0.209521 0
M  V30 1629 H 148.402 -1.9077 0.167036 0
M  V30 1630 H 146.707 -3.37718 -1.9863 0
M  V30 1631 H 148.404 -3.63543 -1.69227 0
M  V30 1632 H 144.994 -4.26681 -0.405124 0
M  V30 1633 H 149.178 -4.95427 0.294312 0
M  V30 1634 H 144.434 -5.98179 1.26457 0
M  V30 1635 H 148.608 -6.68243 1.96023 0
M  V30 1636 H 146.235 -7.1959 2.4514 0
M  V30 1637 N 147.81 0.181792 -1.56548 0
M  V30 1638 C 149.05 0.906711 -1.83189 0
M  V30 1639 C 149.414 1.79882 -0.671312 0
M  V30 1640 O 150.615 2.56054 -0.81792 0
M  V30 1641 C 148.886 1.69023 -3.14906 0
M  V30 1642 S 150.445 2.46535 -3.62996 0
M  V30 1643 H 147.263 0.303877 -0.642791 0
M  V30 1644 H 149.865 0.169107 -1.94767 0
M  V30 1645 H 148.569 1.02571 -3.97376 0
M  V30 1646 H 148.1 2.46941 -3.06241 0
M  V30 1647 H 150.115 3.71014 -3.29489 0
M  V30 1648 N 149.288 1.51039 0.449983 0
M  V30 1649 C 150.536 1.62759 1.19808 0
M  V30 1650 C 150.857 0.339981 1.92013 0
M  V30 1651 O 150.127 -0.643606 1.85026 0
M  V30 1652 H 148.707 0.599811 0.445237 0
M  V30 1653 H 151.369 1.87914 0.517138 0
M  V30 1654 H 150.465 2.44911 1.93455 0
M  V30 1655 N 150.766 -0.704594 1.40972 0
M  V30 1656 C 152.012 -1.46675 1.40051 0
M  V30 1657 C 152.345 -1.94199 0.00641102 0
M  V30 1658 O 151.62 -1.68916 -0.964235 0
M  V30 1659 C 151.903 -2.68505 2.39952 0
M  V30 1660 C 151.756 -2.26805 3.88432 0
M  V30 1661 C 153.075 -3.70686 2.37233 0
M  V30 1662 H 150.194 -0.532015 0.510028 0
M  V30 1663 H 152.836 -0.803255 1.72185 0
M  V30 1664 H 150.986 -3.25114 2.1268 0
M  V30 1665 H 152.658 -1.75592 4.26574 0
M  V30 1666 H 150.901 -1.58685 4.03734 0
M  V30 1667 H 151.572 -3.14181 4.53866 0
M  V30 1668 H 154.048 -3.23731 2.61415 0
M  V30 1669 H 152.924 -4.53553 3.09162 0
M  V30 1670 H 153.185 -4.19754 1.38777 0
M  V30 1671 N 152.244 -1.26651 -0.937939 0
M  V30 1672 C 153.176 -1.04283 -2.04102 0
M  V30 1673 C 154.189 -0.00221014 -1.628 0
M  V30 1674 O 155.378 -0.242645 -1.76843 0
M  V30 1675 C 152.478 -0.557846 -3.34277 0
M  V30 1676 C 151.651 -1.66843 -4.04329 0
M  V30 1677 C 150.71 -1.18095 -5.12777 0
M  V30 1678 O 149.736 -1.87865 -5.37304 0
M  V30 1679 N 150.938 -0.0311006 -5.80492 0
M  V30 1680 H 153.703 -1.9927 -2.23856 0
M  V30 1681 H 151.264 -1.1808 -1.10764 0
M  V30 1682 H 153.256 -0.215836 -4.04124 0
M  V30 1683 H 151.826 0.298523 -3.11171 0
M  V30 1684 H 151.046 -2.18123 -3.28353 0
M  V30 1685 H 152.334 -2.41408 -4.47883 0
M  V30 1686 H 151.732 0.551486 -5.63005 0
M  V30 1687 H 150.289 0.251809 -6.51313 0
M  V30 1688 N 153.722 1.14298 -1.08507 0
M  V30 1689 C 154.999 1.81544 -0.728088 0
M  V30 1690 C 155.379 1.95838 0.78808 0
M  V30 1691 O 154.727 1.51904 1.70697 0
M  V30 1692 C 154.937 3.17169 -1.45619 0
M  V30 1693 C 156.285 3.9265 -1.61591 0
M  V30 1694 O 157.309 3.26762 -1.41793 0
M  V30 1695 O 156.168 5.10807 -1.94263 0
M  V30 1696 H 153.262 0.78491 -0.260471 0
M  V30 1697 H 155.808 1.21307 -1.18671 0
M  V30 1698 H 154.58 3.01934 -2.489 0
M  V30 1699 H 154.203 3.851 -0.989124 0
M  V30 1700 N 155.201 0.870884 1.31352 0
M  V30 1701 C 156.45 0.478408 1.95944 0
M  V30 1702 C 156.763 -0.974493 1.69597 0
M  V30 1703 O 157.969 -1.47316 2.28058 0
M  V30 1704 C 156.425 0.804609 3.50791 0
M  V30 1705 C 156.033 2.27433 3.85977 0
M  V30 1706 C 157.777 0.480648 4.2177 0
M  V30 1707 C 155.684 2.5429 5.33939 0
M  V30 1708 H 154.614 0.175175 0.733369 0
M  V30 1709 H 157.265 1.06391 1.4951 0
M  V30 1710 H 155.647 0.148347 3.95722 0
M  V30 1711 H 156.821 2.97373 3.52002 0
M  V30 1712 H 155.136 2.56442 3.28065 0
M  V30 1713 H 157.733 0.658519 5.30629 0
M  V30 1714 H 158.076 -0.578979 4.12254 0
M  V30 1715 H 158.609 1.09349 3.82476 0
M  V30 1716 H 155.348 3.58939 5.48491 0
M  V30 1717 H 154.868 1.88945 5.69263 0
M  V30 1718 H 156.547 2.39066 6.01212 0
M  V30 1719 N 156.679 -1.44442 0.630414 0
M  V30 1720 C 157.629 -2.27794 -0.0968103 0
M  V30 1721 C 158.613 -1.38624 -0.816834 0
M  V30 1722 O 159.805 -1.62438 -0.70306 0
M  V30 1723 C 156.934 -3.25929 -1.07819 0
M  V30 1724 C 156.02 -4.22588 -0.357826 0
M  V30 1725 N 156.411 -5.0207 0.613169 0
M  V30 1726 C 154.709 -4.41914 -0.602365 0
M  V30 1727 C 155.41 -5.72351 1.03871 0
M  V30 1728 N 154.386 -5.42287 0.377642 0
M  V30 1729 H 158.188 -2.86653 0.648621 0
M  V30 1730 H 155.702 -1.55871 0.455862 0
M  V30 1731 H 157.699 -3.84399 -1.61378 0
M  V30 1732 H 156.359 -2.68631 -1.82393 0
M  V30 1733 H 157.37 -5.08331 0.990947 0
M  V30 1734 H 154.047 -3.95714 -1.33103 0
M  V30 1735 H 155.437 -6.4619 1.84086 0
M  V30 1736 N 158.157 -0.370918 -1.53173 0
M  V30 1737 C 159.387 0.217389 -2.05453 0
M  V30 1738 C 159.795 1.42568 -1.24382 0
M  V30 1739 O 159.138 1.81571 -0.278839 0
M  V30 1740 C 159.2 0.669827 -3.53205 0
M  V30 1741 C 158.864 -0.4225 -4.55043 0
M  V30 1742 C 159.861 -1.27407 -5.04047 0
M  V30 1743 C 157.546 -0.58427 -4.9889 0
M  V30 1744 C 159.54 -2.27271 -5.95505 0
M  V30 1745 C 157.227 -1.58627 -5.90153 0
M  V30 1746 C 158.225 -2.42892 -6.38351 0
M  V30 1747 O 157.913 -3.41382 -7.27814 0
M  V30 1748 H 157.645 0.0408171 -0.674767 0
M  V30 1749 H 160.199 -0.5292 -1.98466 0
M  V30 1750 H 158.429 1.4681 -3.57748 0
M  V30 1751 H 160.118 1.18173 -3.88317 0
M  V30 1752 H 160.884 -1.16031 -4.70916 0
M  V30 1753 H 156.763 0.061851 -4.60959 0
M  V30 1754 H 160.307 -2.93079 -6.33049 0
M  V30 1755 H 156.204 -1.70048 -6.22699 0
M  V30 1756 H 156.972 -3.37173 -7.45826 0
M  V30 1757 N 159.635 1.57281 -0.100228 0
M  V30 1758 C 160.582 2.14305 0.856858 0
M  V30 1759 C 161.552 1.06296 1.27634 0
M  V30 1760 O 162.737 1.34109 1.35718 0
M  V30 1761 C 159.877 2.73184 2.10866 0
M  V30 1762 C 158.99 3.95442 1.73925 0
M  V30 1763 C 158.125 4.42468 2.93931 0
M  V30 1764 C 157.164 5.57303 2.5314 0
M  V30 1765 N 156.301 5.99158 3.65997 0
M  V30 1766 H 161.141 2.95772 0.363726 0
M  V30 1767 H 158.678 1.46139 0.167858 0
M  V30 1768 H 160.636 3.05442 2.84185 0
M  V30 1769 H 159.266 1.94437 2.57671 0
M  V30 1770 H 158.318 3.69464 0.905554 0
M  V30 1771 H 159.63 4.78769 1.39935 0
M  V30 1772 H 158.784 4.76537 3.75496 0
M  V30 1773 H 157.523 3.58052 3.31134 0
M  V30 1774 H 156.528 5.22857 1.70003 0
M  V30 1775 H 157.753 6.43471 2.17075 0
M  V30 1776 H 155.699 5.17687 4.02909 0
M  V30 1777 H 155.616 6.77295 3.35869 0
M  V30 1778 H 156.884 6.3786 4.48057 0
M  V30 1779 N 161.113 -0.173488 1.56642 0
M  V30 1780 C 162.36 -0.890465 1.81871 0
M  V30 1781 C 162.688 -1.82339 0.67696 0
M  V30 1782 O 161.943 -1.92795 -0.335926 0
M  V30 1783 C 162.242 -1.72069 3.13252 0
M  V30 1784 C 161.908 -0.936878 4.41059 0
M  V30 1785 C 160.57 -0.720545 4.75775 0
M  V30 1786 C 162.922 -0.386919 5.19762 0
M  V30 1787 C 160.25 0.0568829 5.86672 0
M  V30 1788 C 162.602 0.37741 6.31473 0
M  V30 1789 C 161.266 0.604563 6.64757 0
M  V30 1790 H 160.536 -0.325844 0.665512 0
M  V30 1791 H 163.183 -0.155527 1.90867 0
M  V30 1792 H 161.488 -2.52496 2.99588 0
M  V30 1793 H 163.185 -2.27844 3.29982 0
M  V30 1794 H 159.775 -1.11553 4.13828 0
M  V30 1795 H 163.959 -0.541398 4.93338 0
M  V30 1796 H 159.215 0.242635 6.10918 0
M  V30 1797 H 163.389 0.810825 6.91664 0
M  V30 1798 H 161.016 1.20885 7.50527 0
M  V30 1799 N 162.591 -1.51276 -0.441967 0
M  V30 1800 C 163.539 -1.72823 -1.55676 0
M  V30 1801 C 164.533 -0.59445 -1.58627 0
M  V30 1802 O 165.739 -0.775715 -1.62427 0
M  V30 1803 H 162.114 -0.545983 -0.517113 0
M  V30 1804 H 164.085 -2.6628 -1.34675 0
M  V30 1805 C 162.834 -1.86619 -2.93375 0
M  V30 1806 H 162.157 -2.73264 -2.91834 0
M  V30 1807 H 163.597 -2.05709 -3.70756 0
M  V30 1808 C 162.056 -0.624842 -3.31055 0
M  V30 1809 O 162.586 0.222636 -4.01083 0
M  V30 1810 N 160.792 -0.470288 -2.86769 0
M  V30 1811 H 160.339 -1.161 -2.29953 0
M  V30 1812 H 160.297 0.359051 -3.12343 0
M  V30 1813 N 164.069 0.697108 -1.41344 0
M  V30 1814 C 165.017 1.83237 -1.43272 0
M  V30 1815 C 166.011 1.66522 -0.310947 0
M  V30 1816 O 167.217 1.73402 -0.482899 0
M  V30 1817 H 163.592 0.603802 -0.448249 0
M  V30 1818 H 165.563 1.78727 -2.38954 0
M  V30 1819 C 164.312 3.21245 -1.33029 0
M  V30 1820 H 163.635 3.34723 -2.18633 0
M  V30 1821 H 165.075 4.00763 -1.38439 0
M  V30 1822 C 163.534 3.36873 -0.0424635 0
M  V30 1823 O 164.064 3.91177 0.913421 0
M  V30 1824 N 162.27 2.90581 0.0331145 0
M  V30 1825 H 161.817 2.46577 -0.745506 0
M  V30 1826 H 161.775 3.01416 0.894199 0
M  V30 1827 N 165.547 1.27147 0.931209 0
M  V30 1828 C 166.775 1.16082 1.71267 0
M  V30 1829 C 167.19 -0.282772 1.8667 0
M  V30 1830 O 166.547 -1.19283 1.38122 0
M  V30 1831 C 166.598 1.8358 3.11417 0
M  V30 1832 O 166.319 3.22299 2.96741 0
M  V30 1833 C 167.82 1.78597 4.05732 0
M  V30 1834 H 165.04 0.403758 0.535929 0
M  V30 1835 H 167.584 1.67953 1.16671 0
M  V30 1836 H 165.739 1.35623 3.62885 0
M  V30 1837 H 166.153 3.55851 3.85319 0
M  V30 1838 H 167.627 2.30444 5.01597 0
M  V30 1839 H 168.104 0.754564 4.3267 0
M  V30 1840 H 168.71 2.26152 3.60188 0
M  V30 1841 N 167.025 -1.13721 1.09112 0
M  V30 1842 C 167.973 -2.21103 0.722219 0
M  V30 1843 C 168.967 -1.67147 -0.275374 0
M  V30 1844 O 170.173 -1.79477 -0.137176 0
M  V30 1845 H 166.548 -0.720445 0.215553 0
M  V30 1846 H 168.519 -2.49483 1.63709 0
M  V30 1847 C 167.268 -3.47352 0.15543 0
M  V30 1848 H 166.591 -3.89206 0.914246 0
M  V30 1849 H 168.031 -4.2395 -0.0647967 0
M  V30 1850 C 166.49 -3.1814 -1.10852 0
M  V30 1851 O 167.02 -3.36604 -2.19227 0
M  V30 1852 N 165.226 -2.72045 -1.02176 0
M  V30 1853 H 164.773 -2.57221 -0.139764 0
M  V30 1854 H 164.731 -2.52875 -1.8682 0
M  V30 1855 N 168.503 -0.877838 -1.30888 0
M  V30 1856 C 169.433 -0.35534 -2.3078 0
M  V30 1857 C 170.414 0.557994 -1.60687 0
M  V30 1858 O 171.599 0.473355 -1.88343 0
M  V30 1859 C 168.729 0.437221 -3.44537 0
M  V30 1860 C 167.683 -0.383715 -4.26276 0
M  V30 1861 C 167.009 0.535014 -5.32017 0
M  V30 1862 C 168.309 -1.62201 -4.96476 0
M  V30 1863 H 170.003 -1.19007 -2.74732 0
M  V30 1864 H 167.549 -0.573698 -1.32078 0
M  V30 1865 H 169.502 0.813334 -4.13477 0
M  V30 1866 H 168.226 1.30553 -2.99372 0
M  V30 1867 H 166.885 -0.741874 -3.59015 0
M  V30 1868 H 166.533 1.40083 -4.831 0
M  V30 1869 H 166.233 -0.0104211 -5.87599 0
M  V30 1870 H 167.757 0.907799 -6.03814 0
M  V30 1871 H 169.171 -1.31689 -5.5797 0
M  V30 1872 H 167.568 -2.10711 -5.61891 0
M  V30 1873 H 168.638 -2.37044 -4.23011 0
M  V30 1874 N 169.982 1.44106 -0.638065 0
M  V30 1875 C 171.229 2.01978 -0.14533 0
M  V30 1876 C 171.557 1.50234 1.23532 0
M  V30 1877 O 170.812 0.679548 1.83523 0
M  V30 1878 C 171.111 3.5729 -0.0887327 0
M  V30 1879 C 170.777 4.28317 -1.40909 0
M  V30 1880 C 169.439 4.47437 -1.77069 0
M  V30 1881 C 171.791 4.6867 -2.28031 0
M  V30 1882 C 169.119 5.04171 -3.00047 0
M  V30 1883 C 171.471 5.26766 -3.50286 0
M  V30 1884 C 170.135 5.44104 -3.86661 0
M  V30 1885 H 169.405 0.739089 -0.0531801 0
M  V30 1886 H 172.052 1.72781 -0.825761 0
M  V30 1887 H 170.357 3.8594 0.675095 0
M  V30 1888 H 172.054 3.99807 0.309145 0
M  V30 1889 H 168.644 4.1377 -1.1177 0
M  V30 1890 H 172.828 4.53604 -2.01388 0
M  V30 1891 H 168.084 5.15782 -3.28298 0
M  V30 1892 H 172.258 5.56983 -4.18023 0
M  V30 1893 H 169.885 5.87832 -4.82034 0
M  V30 1894 N 171.46 0.379036 1.52974 0
M  V30 1895 C 172.407 -0.461048 2.26148 0
M  V30 1896 C 173.377 -1.06637 1.27349 0
M  V30 1897 O 174.562 -1.09633 1.56157 0
M  V30 1898 C 171.702 -1.58782 3.06402 0
M  V30 1899 C 170.815 -1.00636 4.20115 0
M  V30 1900 C 169.95 -2.10334 4.87784 0
M  V30 1901 C 168.989 -1.49724 5.93506 0
M  V30 1902 N 168.126 -2.5331 6.54812 0
M  V30 1903 H 172.966 0.169429 2.97518 0
M  V30 1904 H 170.503 0.0953806 1.4679 0
M  V30 1905 H 172.461 -2.25174 3.51215 0
M  V30 1906 H 171.091 -2.18876 2.37261 0
M  V30 1907 H 170.143 -0.232332 3.7969 0
M  V30 1908 H 171.455 -0.523343 4.96047 0
M  V30 1909 H 170.609 -2.84519 5.35849 0
M  V30 1910 H 169.348 -2.61992 4.11353 0
M  V30 1911 H 168.353 -0.740598 5.44789 0
M  V30 1912 H 169.578 -0.988732 6.71864 0
M  V30 1913 H 167.524 -3.04156 5.81227 0
M  V30 1914 H 167.441 -2.09734 7.26325 0
M  V30 1915 H 168.709 -3.27155 7.07524 0
M  V30 1916 N 172.938 -1.57226 0.108567 0
M  V30 1917 C 173.87 -2.11809 -0.875752 0
M  V30 1918 C 174.883 -1.05839 -1.23701 0
M  V30 1919 O 176.072 -1.33245 -1.18778 0
M  V30 1920 C 173.172 -2.59411 -2.18081 0
M  V30 1921 C 172.345 -3.89364 -1.99284 0
M  V30 1922 C 171.404 -4.22672 -3.13424 0
M  V30 1923 O 170.43 -4.91668 -2.86795 0
M  V30 1924 N 171.632 -3.79154 -4.3957 0
M  V30 1925 H 174.397 -2.9689 -0.409477 0
M  V30 1926 H 171.958 -1.61721 -0.076158 0
M  V30 1927 H 173.95 -2.7873 -2.93414 0
M  V30 1928 H 172.52 -1.79268 -2.5609 0
M  V30 1929 H 171.74 -3.79059 -1.08203 0
M  V30 1930 H 173.028 -4.74358 -1.84017 0
M  V30 1931 H 172.426 -3.23486 -4.64083 0
M  V30 1932 H 170.983 -4.03602 -5.11809 0
M  V30 1933 N 174.416 0.165178 -1.56732 0
M  V30 1934 C 175.364 1.22369 -1.97809 0
M  V30 1935 C 176.358 1.45488 -0.867741 0
M  V30 1936 O 177.564 1.45995 -1.05288 0
M  V30 1937 H 173.939 0.411486 -0.629431 0
M  V30 1938 H 175.91 0.850425 -2.86025 0
M  V30 1939 C 174.659 2.55403 -2.35934 0
M  V30 1940 H 173.982 2.38438 -3.20916 0
M  V30 1941 H 175.422 3.2814 -2.68514 0
M  V30 1942 C 173.881 3.14611 -1.20506 0
M  V30 1943 O 174.411 3.98626 -0.496016 0
M  V30 1944 N 172.617 2.7379 -0.97403 0
M  V30 1945 H 172.164 2.0557 -1.55238 0
M  V30 1946 H 172.122 3.1374 -0.203573 0
M  V30 1947 N 175.894 1.51508 0.433938 0
M  V30 1948 C 176.804 1.75917 1.5521 0
M  V30 1949 C 177.82 0.643545 1.61662 0
M  V30 1950 O 178.996 0.926183 1.7884 0
M  V30 1951 C 176.061 1.88213 2.91164 0
M  V30 1952 C 175.122 3.12074 2.94802 0
M  V30 1953 C 174.355 3.23774 4.24271 0
M  V30 1954 O 174.578 2.4133 5.16833 0
M  V30 1955 O 173.512 4.16774 4.34262 0
M  V30 1956 H 177.338 2.70777 1.37527 0
M  V30 1957 H 174.923 1.36051 0.617293 0
M  V30 1958 H 176.805 1.98267 3.71845 0
M  V30 1959 H 175.48 0.965413 3.08968 0
M  V30 1960 H 174.387 3.07497 2.13065 0
M  V30 1961 H 175.72 4.03446 2.81943 0
M  V30 1962 N 177.372 -0.689602 1.41712 0
M  V30 1963 C 178.6 -1.47827 1.44758 0
M  V30 1964 C 179.015 -1.88721 0.0545703 0
M  V30 1965 O 178.372 -1.57176 -0.927463 0
M  V30 1966 C 178.423 -2.73698 2.3616 0
M  V30 1967 O 178.144 -2.34524 3.7004 0
M  V30 1968 C 179.645 -3.67389 2.48072 0
M  V30 1969 H 176.865 -0.455357 0.49284 0
M  V30 1970 H 179.409 -0.848574 1.86063 0
M  V30 1971 H 177.564 -3.32891 1.98148 0
M  V30 1972 H 177.978 -3.15701 4.18847 0
M  V30 1973 H 179.452 -4.52475 3.16181 0
M  V30 1974 H 179.929 -4.12284 1.51388 0
M  V30 1975 H 180.535 -3.14097 2.86746 0
M  V30 1976 N 178.85 -1.27639 -0.924453 0
M  V30 1977 C 180.078 -1.16989 -1.70649 0
M  V30 1978 C 180.493 0.272869 -1.86818 0
M  V30 1979 O 179.85 1.18549 -1.38753 0
M  V30 1980 C 179.901 -1.85229 -3.10439 0
M  V30 1981 O 179.622 -3.23868 -2.95028 0
M  V30 1982 C 181.123 -1.80746 -4.04779 0
M  V30 1983 H 178.343 -0.406595 -0.53378 0
M  V30 1984 H 180.887 -1.68569 -1.15778 0
M  V30 1985 H 179.042 -1.37545 -3.6216 0
M  V30 1986 H 179.456 -3.57889 -3.83426 0
M  V30 1987 H 180.93 -2.33101 -5.00368 0
M  V30 1988 H 181.407 -0.777499 -4.32263 0
M  V30 1989 H 182.013 -2.28059 -3.58984 0
M  V30 1990 N 180.328 1.1314 -1.09713 0
M  V30 1991 C 181.575 1.84484 -0.834987 0
M  V30 1992 C 181.903 1.83689 0.639418 0
M  V30 1993 O 181.158 1.2724 1.4869 0
M  V30 1994 C 181.457 3.32167 -1.3191 0
M  V30 1995 C 181.123 3.53139 -2.80363 0
M  V30 1996 C 179.785 3.58571 -3.20905 0
M  V30 1997 C 182.137 3.60866 -3.76065 0
M  V30 1998 C 179.465 3.69267 -4.55916 0
M  V30 1999 C 181.817 3.73089 -5.10869 0
M  V30 2000 C 180.481 3.76775 -5.50996 0
M  V30 2001 H 179.751 0.675073 -0.305544 0
M  V30 2002 H 182.398 1.33554 -1.37243 0
M  V30 2003 H 180.703 3.85469 -0.701517 0
M  V30 2004 H 182.4 3.85821 -1.09284 0
M  V30 2005 H 178.99 3.49569 -2.47991 0
M  V30 2006 H 183.174 3.55946 -3.45855 0
M  V30 2007 H 178.43 3.70388 -4.86438 0
M  V30 2008 H 182.604 3.78011 -5.84877 0
M  V30 2009 H 180.231 3.84815 -6.55608 0
M  V30 2010 N 181.806 0.884767 1.30421 0
M  V30 2011 C 182.736 0.367574 2.30589 0
M  V30 2012 C 183.717 -0.549464 1.60981 0
M  V30 2013 O 184.902 -0.46336 1.88591 0
M  V30 2014 C 182.032 -0.418944 3.44764 0
M  V30 2015 C 180.986 0.406316 4.26067 0
M  V30 2016 C 180.312 -0.506793 5.32293 0
M  V30 2017 C 181.612 1.64832 4.95608 0
M  V30 2018 H 183.306 1.20462 2.74097 0
M  V30 2019 H 180.852 0.580695 1.31772 0
M  V30 2020 H 182.805 -0.791395 4.13902 0
M  V30 2021 H 181.529 -1.28964 3.0006 0
M  V30 2022 H 180.188 0.760903 3.58617 0
M  V30 2023 H 179.836 -1.37519 4.83836 0
M  V30 2024 H 179.536 0.0415828 5.87585 0
M  V30 2025 H 181.06 -0.875764 6.04287 0
M  V30 2026 H 182.474 1.34646 5.57264 0
M  V30 2027 H 180.871 2.13688 5.60765 0
M  V30 2028 H 181.941 2.39284 4.21748 0
M  V30 2029 N 183.284 -1.43765 0.645699 0
M  V30 2030 C 184.232 -2.32516 -0.0624849 0
M  V30 2031 C 185.226 -1.48183 -0.820855 0
M  V30 2032 O 186.432 -1.64439 -0.732106 0
M  V30 2033 H 182.807 -0.750989 -0.0389864 0
M  V30 2034 H 184.778 -2.89979 0.703892 0
M  V30 2035 C 183.527 -3.32389 -1.02044 0
M  V30 2036 H 182.85 -3.97301 -0.446312 0
M  V30 2037 H 184.29 -3.97138 -1.48517 0
M  V30 2038 C 182.749 -2.62416 -2.11281 0
M  V30 2039 O 183.279 -2.434 -3.19561 0
M  V30 2040 N 181.485 -2.21913 -1.87624 0
M  V30 2041 H 181.032 -2.37578 -0.995703 0
M  V30 2042 H 180.99 -1.75424 -2.6091 0
M  V30 2043 N 184.763 -0.387143 -1.52771 0
M  V30 2044 C 185.673 0.456442 -2.30117 0
M  V30 2045 C 186.689 1.07342 -1.36944 0
M  V30 2046 O 187.865 1.07971 -1.70013 0
M  V30 2047 C 184.93 1.56957 -3.09136 0
M  V30 2048 C 183.991 0.977916 -4.18014 0
M  V30 2049 C 183.224 2.038 -4.93256 0
M  V30 2050 O 183.447 3.25271 -4.68567 0
M  V30 2051 O 182.381 1.6565 -5.78657 0
M  V30 2052 H 186.207 -0.17359 -3.03203 0
M  V30 2053 H 183.792 -0.150919 -1.48636 0
M  V30 2054 H 185.674 2.21628 -3.58412 0
M  V30 2055 H 184.349 2.18461 -2.38865 0
M  V30 2056 H 183.256 0.294525 -3.72939 0
M  V30 2057 H 184.589 0.407128 -4.90513 0
M  V30 2058 N 186.241 1.57166 -0.116904 0
M  V30 2059 C 187.518 1.86645 0.585049 0
M  V30 2060 C 187.898 1.0177 1.84949 0
M  V30 2061 O 187.246 0.0960379 2.28298 0
M  V30 2062 C 187.456 3.37736 0.879507 0
M  V30 2063 C 188.804 4.06289 1.23348 0
M  V30 2064 O 189.828 3.42743 0.969836 0
M  V30 2065 O 188.687 5.18455 1.7282 0
M  V30 2066 H 185.781 0.772593 0.295007 0
M  V30 2067 H 188.327 1.69025 -0.151249 0
M  V30 2068 H 187.099 3.91296 -0.0166136 0
M  V30 2069 H 186.722 3.6078 1.67103 0
M  V30 2070 N 187.719 -0.156864 1.56817 0
M  V30 2071 C 188.649 -1.19589 2.00551 0
M  V30 2072 C 189.63 -1.4536 0.883426 0
M  V30 2073 O 190.815 -1.56449 1.15054 0
M  V30 2074 C 187.945 -2.53143 2.37773 0
M  V30 2075 C 186.899 -2.41913 3.53075 0
M  V30 2076 C 186.225 -3.80088 3.76081 0
M  V30 2077 C 187.525 -1.91157 4.86062 0
M  V30 2078 H 189.219 -0.832293 2.87599 0
M  V30 2079 H 186.765 -0.398918 1.38364 0
M  V30 2080 H 188.718 -3.26047 2.66967 0
M  V30 2081 H 187.442 -2.91319 1.4765 0
M  V30 2082 H 186.101 -1.71462 3.24031 0
M  V30 2083 H 185.749 -4.15683 2.83225 0
M  V30 2084 H 185.449 -3.73439 4.53671 0
M  V30 2085 H 186.973 -4.54556 4.0769 0
M  V30 2086 H 188.387 -2.53846 5.14038 0
M  V30 2087 H 186.784 -1.95422 5.67389 0
M  V30 2088 H 187.854 -0.866673 4.77092 0
M  V30 2089 N 189.197 -1.51736 -0.425897 0
M  V30 2090 C 190.608 -1.5732 -1.00536 0
M  V30 2091 C 190.959 -0.403537 -1.92005 0
M  V30 2092 O 190.084 0.478256 -2.11049 0
M  V30 2093 C 190.679 -2.85119 -1.8301 0
M  V30 2094 C 189.238 -2.93236 -2.35987 0
M  V30 2095 C 188.385 -2.52098 -1.15508 0
M  V30 2096 H 191.336 -1.57348 -0.206739 0
M  V30 2097 H 191.357 -2.69526 -2.68581 0
M  V30 2098 H 190.869 -3.7023 -1.16411 0
M  V30 2099 H 188.97 -2.12581 -3.06007 0
M  V30 2100 H 189.083 -3.9713 -2.68001 0
M  V30 2101 H 187.447 -2.05558 -1.50393 0
M  V30 2102 H 188.23 -3.39565 -0.505014 0
M  V30 2103 N 190.675 0.682077 -1.42076 0
M  V30 2104 C 191.622 1.79578 -1.44984 0
M  V30 2105 C 192.592 1.6332 -0.302614 0
M  V30 2106 O 193.777 1.83978 -0.505633 0
M  V30 2107 C 190.917 3.1756 -1.35091 0
M  V30 2108 C 190.03 3.45156 -2.59791 0
M  V30 2109 C 189.165 4.72826 -2.42093 0
M  V30 2110 C 188.204 4.93433 -3.62202 0
M  V30 2111 N 187.341 6.12338 -3.43491 0
M  V30 2112 H 192.181 1.76427 -2.40161 0
M  V30 2113 H 189.718 0.861376 -1.19242 0
M  V30 2114 H 191.676 3.97287 -1.27354 0
M  V30 2115 H 190.306 3.19854 -0.435133 0
M  V30 2116 H 189.358 2.59736 -2.77923 0
M  V30 2117 H 190.67 3.5628 -3.49094 0
M  V30 2118 H 189.824 5.60631 -2.319 0
M  V30 2119 H 188.563 4.63973 -1.50268 0
M  V30 2120 H 187.568 4.04073 -3.72834 0
M  V30 2121 H 188.793 5.04136 -4.54998 0
M  V30 2122 H 186.739 6.04672 -2.54377 0
M  V30 2123 H 186.656 6.2429 -4.26377 0
M  V30 2124 H 187.924 7.02841 -3.37097 0
M  V30 2125 N 192.153 1.28127 0.917671 0
M  V30 2126 C 193.399 1.16232 1.66918 0
M  V30 2127 C 193.754 -0.28701 1.90247 0
M  V30 2128 O 193.047 -1.20586 1.48895 0
M  V30 2129 C 193.241 1.89018 3.03327 0
M  V30 2130 C 193.07 3.4088 2.9331 0
M  V30 2131 C 191.84 4.10214 2.95047 0
M  V30 2132 C 194.038 4.36689 2.71675 0
M  V30 2133 N 192.02 5.48571 2.75577 0
M  V30 2134 C 193.391 5.62382 2.6101 0
M  V30 2135 C 195.446 4.26661 2.56641 0
M  V30 2136 C 194.149 6.79189 2.36843 0
M  V30 2137 C 196.175 5.432 2.33853 0
M  V30 2138 C 195.537 6.67855 2.23939 0
M  V30 2139 H 191.636 0.48024 0.617166 0
M  V30 2140 H 194.22 1.61727 1.08409 0
M  V30 2141 H 192.391 1.45963 3.59929 0
M  V30 2142 H 194.123 1.69541 3.67475 0
M  V30 2143 H 190.878 3.61762 3.05655 0
M  V30 2144 H 191.302 6.21287 2.68945 0
M  V30 2145 H 195.944 3.30998 2.63059 0
M  V30 2146 H 193.662 7.74926 2.29164 0
M  V30 2147 H 197.248 5.37328 2.23091 0
M  V30 2148 H 196.128 7.56511 2.06546 0
M  V30 2149 N 193.631 -1.12557 1.10312 0
M  V30 2150 C 194.856 -1.88405 0.867085 0
M  V30 2151 C 195.281 -1.79038 -0.576817 0
M  V30 2152 O 194.639 -1.14439 -1.40618 0
M  V30 2153 C 194.687 -3.3563 1.31851 0
M  V30 2154 O 193.791 -4.09565 0.482734 0
M  V30 2155 H 193.132 -0.585455 0.313271 0
M  V30 2156 H 195.662 -1.42352 1.4696 0
M  V30 2157 H 195.672 -3.86469 1.3079 0
M  V30 2158 H 194.347 -3.41765 2.37001 0
M  V30 2159 H 192.924 -3.68695 0.558448 0
M  V30 2160 N 195.109 -0.891671 -1.2995 0
M  V30 2161 C 196.357 -0.512486 -1.95494 0
M  V30 2162 C 196.678 0.942776 -1.70695 0
M  V30 2163 O 195.948 1.66374 -1.03424 0
M  V30 2164 H 194.528 -0.186533 -0.723336 0
M  V30 2165 H 197.19 -1.13621 -1.58355 0
M  V30 2166 H 196.286 -0.688342 -3.04415 0
M  V30 2167 N 196.587 1.43421 -0.653314 0
M  V30 2168 C 197.817 2.05864 -0.174238 0
M  V30 2169 C 198.225 1.49052 1.16534 0
M  V30 2170 O 197.568 0.616481 1.73047 0
M  V30 2171 C 197.63 3.59499 -0.00875873 0
M  V30 2172 C 197.294 4.38893 -1.27364 0
M  V30 2173 C 198.291 4.70947 -2.20239 0
M  V30 2174 C 195.976 4.789 -1.51525 0
M  V30 2175 C 197.97 5.41916 -3.35568 0
M  V30 2176 C 195.657 5.49614 -2.67147 0
M  V30 2177 C 196.655 5.81044 -3.58994 0
M  V30 2178 O 196.343 6.50313 -4.72597 0
M  V30 2179 H 196.075 0.670345 -0.0872549 0
M  V30 2180 H 198.629 1.84913 -0.894226 0
M  V30 2181 H 196.859 3.79025 0.7666 0
M  V30 2182 H 198.548 4.0364 0.427687 0
M  V30 2183 H 199.314 4.40558 -2.02815 0
M  V30 2184 H 195.193 4.53843 -0.809158 0
M  V30 2185 H 198.737 5.66365 -4.07279 0
M  V30 2186 H 194.634 5.79419 -2.84505 0
M  V30 2187 H 195.402 6.68795 -4.71864 0
M  V30 2188 N 198.065 0.39524 1.52563 0
M  V30 2189 C 199.312 -0.185044 2.01653 0
M  V30 2190 C 199.64 -1.46317 1.28146 0
M  V30 2191 O 198.895 -1.9213 0.372074 0
M  V30 2192 C 199.194 -0.493444 3.53977 0
M  V30 2193 C 198.86 0.69384 4.4553 0
M  V30 2194 C 197.522 1.01954 4.70275 0
M  V30 2195 C 199.874 1.48785 4.99512 0
M  V30 2196 C 197.202 2.14069 5.46252 0
M  V30 2197 C 199.554 2.59965 5.76716 0
M  V30 2198 C 198.218 2.93037 5.99738 0
M  V30 2199 H 197.488 -0.0677123 0.7379 0
M  V30 2200 H 200.135 0.533807 1.8391 0
M  V30 2201 H 198.44 -1.29369 3.69825 0
M  V30 2202 H 200.137 -0.955163 3.89458 0
M  V30 2203 H 196.727 0.429987 4.26438 0
M  V30 2204 H 200.911 1.24946 4.80315 0
M  V30 2205 H 196.167 2.40056 5.62302 0
M  V30 2206 H 200.341 3.21887 6.17545 0
M  V30 2207 H 197.968 3.8003 6.58393 0
M  V30 2208 N 199.544 -1.57102 0.125237 0
M  V30 2209 C 200.454 -2.19191 -0.8362 0
M  V30 2210 C 201.47 -1.16985 -1.28805 0
M  V30 2211 O 202.646 -1.49479 -1.34974 0
M  V30 2212 C 199.711 -2.78407 -2.06617 0
M  V30 2213 C 198.772 -3.9567 -1.66565 0
M  V30 2214 C 198.005 -4.52052 -2.83698 0
M  V30 2215 O 198.228 -4.07326 -3.99302 0
M  V30 2216 O 197.162 -5.42645 -2.60423 0
M  V30 2217 H 200.988 -3.01816 -0.337776 0
M  V30 2218 H 198.573 -1.4906 -0.100695 0
M  V30 2219 H 200.455 -3.16129 -2.7864 0
M  V30 2220 H 199.13 -1.9881 -2.55453 0
M  V30 2221 H 198.037 -3.62705 -0.916296 0
M  V30 2222 H 199.37 -4.76722 -1.22464 0
M  V30 2223 N 201.022 0.148545 -1.56898 0
M  V30 2224 C 201.969 1.18345 -1.98149 0
M  V30 2225 C 202.939 1.42772 -0.848848 0
M  V30 2226 O 204.124 1.55132 -1.11079 0
M  V30 2227 C 201.264 2.51231 -2.36594 0
M  V30 2228 C 200.377 2.33991 -3.63142 0
M  V30 2229 C 199.512 3.59902 -3.90697 0
M  V30 2230 C 198.551 3.37692 -5.1052 0
M  V30 2231 N 197.688 4.5573 -5.34092 0
M  V30 2232 H 202.528 0.82467 -2.86362 0
M  V30 2233 H 200.065 0.395756 -1.41676 0
M  V30 2234 H 202.023 3.28713 -2.56912 0
M  V30 2235 H 200.653 2.85059 -1.51463 0
M  V30 2236 H 199.705 1.47572 -3.50609 0
M  V30 2237 H 201.017 2.13539 -4.5078 0
M  V30 2238 H 200.171 4.45813 -4.11505 0
M  V30 2239 H 198.91 3.83357 -3.01477 0
M  V30 2240 H 197.915 2.5017 -4.89587 0
M  V30 2241 H 199.14 3.15637 -6.0129 0
M  V30 2242 H 197.086 4.79361 -4.47827 0
M  V30 2243 H 197.003 4.38274 -6.15996 0
M  V30 2244 H 198.271 5.42858 -5.59397 0
M  V30 2245 N 202.5 1.5196 0.417844 0
M  V30 2246 C 203.43 1.77634 1.51554 0
M  V30 2247 C 204.411 0.626918 1.58126 0
M  V30 2248 O 205.596 0.871632 1.7354 0
M  V30 2249 C 202.726 1.91911 2.8946 0
M  V30 2250 C 201.68 3.07463 2.97743 0
M  V30 2251 C 201.006 3.06951 4.37819 0
M  V30 2252 C 202.306 4.47082 2.70027 0
M  V30 2253 H 204 2.6955 1.3032 0
M  V30 2254 H 201.546 1.29706 0.625492 0
M  V30 2255 H 203.499 2.08455 3.6623 0
M  V30 2256 H 202.223 0.966598 3.11969 0
M  V30 2257 H 200.882 2.90656 2.23416 0
M  V30 2258 H 200.53 2.09438 4.57323 0
M  V30 2259 H 200.23 3.84556 4.44286 0
M  V30 2260 H 201.754 3.25613 5.16535 0
M  V30 2261 H 203.168 4.6414 3.36522 0
M  V30 2262 H 201.565 5.2654 2.87881 0
M  V30 2263 H 202.635 4.55777 1.65514 0
M  V30 2264 N 203.978 -0.674533 1.42435 0
M  V30 2265 C 204.908 -1.80009 1.48724 0
M  V30 2266 C 205.889 -1.6659 0.343793 0
M  V30 2267 O 207.074 -1.86007 0.558137 0
M  V30 2268 C 204.204 -3.18306 1.38919 0
M  V30 2269 C 203.158 -3.46461 2.51294 0
M  V30 2270 C 202.484 -4.84335 2.26547 0
M  V30 2271 C 203.784 -3.43328 3.93603 0
M  V30 2272 H 205.478 -1.75004 2.42928 0
M  V30 2273 H 203.024 -0.840533 1.16923 0
M  V30 2274 H 204.977 -3.9678 1.41927 0
M  V30 2275 H 203.701 -3.2399 0.412094 0
M  V30 2276 H 202.36 -2.70348 2.47604 0
M  V30 2277 H 202.008 -4.86669 1.2713 0
M  V30 2278 H 201.708 -5.04136 3.01861 0
M  V30 2279 H 203.232 -5.65094 2.31304 0
M  V30 2280 H 204.646 -4.11772 3.98894 0
M  V30 2281 H 203.043 -3.74664 4.68771 0
M  V30 2282 H 204.113 -2.41897 4.20255 0
M  V30 2283 N 205.456 -1.28612 -0.910864 0
M  V30 2284 C 206.403 -1.12786 -2.01365 0
M  V30 2285 C 207.373 -0.024201 -1.66082 0
M  V30 2286 O 208.558 -0.189667 -1.89855 0
M  V30 2287 C 205.698 -0.798743 -3.35729 0
M  V30 2288 C 204.811 -1.98173 -3.83864 0
M  V30 2289 C 203.946 -1.59298 -5.06752 0
M  V30 2290 C 202.985 -2.74245 -5.47226 0
M  V30 2291 N 202.122 -2.35842 -6.61304 0
M  V30 2292 H 206.962 -2.07142 -2.14234 0
M  V30 2293 H 204.499 -1.03093 -1.0493 0
M  V30 2294 H 206.457 -0.588662 -4.13026 0
M  V30 2295 H 205.087 0.10789 -3.2262 0
M  V30 2296 H 204.139 -2.30386 -3.02699 0
M  V30 2297 H 205.451 -2.84343 -4.09818 0
M  V30 2298 H 204.605 -1.34513 -5.916 0
M  V30 2299 H 203.344 -0.702618 -4.82612 0
M  V30 2300 H 202.349 -2.99725 -4.60918 0
M  V30 2301 H 203.574 -3.63928 -5.73353 0
M  V30 2302 H 201.52 -1.49279 -6.38789 0
M  V30 2303 H 201.437 -3.15546 -6.86998 0
M  V30 2304 H 202.705 -2.14348 -7.4945 0
M  V30 2305 N 206.934 1.1197 -1.10907 0
M  V30 2306 C 207.881 2.17846 -0.762345 0
M  V30 2307 C 208.851 1.63995 0.263599 0
M  V30 2308 O 210.036 1.90273 0.141773 0
M  V30 2309 C 207.176 3.44487 -0.205651 0
M  V30 2310 C 206.289 4.12369 -1.28748 0
M  V30 2311 C 205.424 5.26674 -0.691919 0
M  V30 2312 C 204.463 5.86431 -1.75399 0
M  V30 2313 N 203.6 6.92142 -1.17833 0
M  V30 2314 H 208.44 2.46851 -1.6694 0
M  V30 2315 H 205.977 1.21188 -0.833776 0
M  V30 2316 H 207.935 4.16981 0.135037 0
M  V30 2317 H 206.565 3.15884 0.664613 0
M  V30 2318 H 205.617 3.38003 -1.74522 0
M  V30 2319 H 206.929 4.52844 -2.09125 0
M  V30 2320 H 206.083 6.05953 -0.300963 0
M  V30 2321 H 204.822 4.8749 0.143232 0
M  V30 2322 H 203.827 5.05835 -2.15432 0
M  V30 2323 H 205.052 6.27685 -2.59208 0
M  V30 2324 H 202.998 6.54985 -0.364725 0
M  V30 2325 H 202.915 7.31242 -1.91887 0
M  V30 2326 H 204.183 7.75237 -0.81408 0
M  V30 2327 N 208.412 0.89855 1.29475 0
M  V30 2328 C 209.36 0.365253 2.29714 0
M  V30 2329 C 210.354 -0.534993 1.6073 0
M  V30 2330 O 211.56 -0.417921 1.75081 0
M  V30 2331 H 207.935 0.0994853 0.74539 0
M  V30 2332 H 209.906 1.22406 2.72138 0
M  V30 2333 C 208.655 -0.393159 3.4547 0
M  V30 2334 H 207.978 0.290332 3.98744 0
M  V30 2335 H 209.418 -0.731189 4.17648 0
M  V30 2336 C 207.877 -1.59539 2.9673 0
M  V30 2337 O 208.407 -2.69469 2.97908 0
M  V30 2338 N 206.613 -1.43716 2.52575 0
M  V30 2339 H 206.16 -0.542828 2.51816 0
M  V30 2340 H 206.118 -2.24288 2.20323 0
M  V30 2341 N 209.89 -1.43072 0.660911 0
M  V30 2342 C 210.84 -2.27948 -0.04847 0
M  V30 2343 C 211.824 -1.40325 -0.787246 0
M  V30 2344 O 213.016 -1.63893 -0.668446 0
M  V30 2345 C 210.145 -3.28143 -1.00881 0
M  V30 2346 C 209.231 -4.23252 -0.268108 0
M  V30 2347 N 209.622 -5.00656 0.719528 0
M  V30 2348 C 207.92 -4.43092 -0.508493 0
M  V30 2349 C 208.621 -5.70019 1.15988 0
M  V30 2350 N 207.597 -5.41364 0.492584 0
M  V30 2351 H 211.399 -2.85213 0.709279 0
M  V30 2352 H 208.913 -1.54869 0.488822 0
M  V30 2353 H 210.91 -3.87736 -1.53188 0
M  V30 2354 H 209.57 -2.7244 -1.76654 0
M  V30 2355 H 210.581 -5.06115 1.09855 0
M  V30 2356 H 207.258 -3.98449 -1.24679 0
M  V30 2357 H 208.648 -6.4214 1.97751 0
M  V30 2358 N 211.368 -0.403325 -1.52352 0
M  V30 2359 C 212.596 0.174012 -2.06167 0
M  V30 2360 C 213.011 1.39347 -1.27388 0
M  V30 2361 O 212.368 1.79597 -0.324201 0
M  V30 2362 C 212.419 0.530223 -3.5759 0
M  V30 2363 O 212.14 -0.640806 -4.33388 0
M  V30 2364 C 213.641 1.16192 -4.27802 0
M  V30 2365 H 210.861 0.0229464 -0.670608 0
M  V30 2366 H 213.405 -0.572604 -1.9632 0
M  V30 2367 H 211.56 1.22673 -3.67464 0
M  V30 2368 H 211.974 -0.344851 -5.23365 0
M  V30 2369 H 213.448 1.36141 -5.34948 0
M  V30 2370 H 213.925 2.13335 -3.83907 0
M  V30 2371 H 214.531 0.505775 -4.22282 0
M  V30 2372 N 212.846 1.57033 -0.133567 0
M  V30 2373 C 213.794 2.17348 0.828412 0
M  V30 2374 C 214.788 1.12671 1.26498 0
M  V30 2375 O 215.994 1.30947 1.23502 0
M  V30 2376 H 212.369 0.695775 0.285309 0
M  V30 2377 H 214.34 2.96935 0.295372 0
M  V30 2378 C 213.089 2.79893 2.06289 0
M  V30 2379 H 212.412 3.60147 1.73592 0
M  V30 2380 H 213.852 3.25615 2.71572 0
M  V30 2381 C 212.311 1.77713 2.86216 0
M  V30 2382 O 212.841 1.23937 3.82103 0
M  V30 2383 N 211.047 1.47321 2.50489 0
M  V30 2384 H 210.594 1.91243 1.7258 0
M  V30 2385 H 210.552 0.79199 3.04261 0
M  V30 2386 N 214.325 -0.140222 1.56975 0
M  V30 2387 C 215.273 -1.19207 1.99731 0
M  V30 2388 C 216.267 -1.44089 0.890777 0
M  V30 2389 O 217.473 -1.44301 1.07597 0
M  V30 2390 H 213.848 -0.40142 0.635898 0
M  V30 2391 H 215.819 -0.804813 2.87342 0
M  V30 2392 C 214.568 -2.51617 2.39967 0
M  V30 2393 H 213.891 -2.33303 3.24669 0
M  V30 2394 H 215.331 -3.23827 2.73701 0
M  V30 2395 C 213.79 -3.12654 1.25496 0
M  V30 2396 O 214.32 -3.97786 0.559371 0
M  V30 2397 N 212.526 -2.72206 1.01746 0
M  V30 2398 H 212.073 -2.03074 1.58489 0
M  V30 2399 H 212.031 -3.13377 0.253461 0
M  V30 2400 N 215.803 -1.52179 -0.40978 0
M  V30 2401 C 216.751 -1.76086 -1.51975 0
M  V30 2402 C 217.745 -0.627964 -1.57331 0
M  V30 2403 O 218.951 -0.809993 -1.60745 0
M  V30 2404 H 215.326 -0.556829 -0.505416 0
M  V30 2405 H 217.297 -2.69077 -1.28996 0
M  V30 2406 C 216.046 -1.92799 -2.8935 0
M  V30 2407 H 215.369 -2.79392 -2.85972 0
M  V30 2408 H 216.809 -2.13527 -3.66309 0
M  V30 2409 C 215.268 -0.694923 -3.29655 0
M  V30 2410 O 215.798 0.13751 -4.01465 0
M  V30 2411 N 214.004 -0.53101 -2.85707 0
M  V30 2412 H 213.551 -1.20952 -2.27439 0
M  V30 2413 H 213.509 0.292718 -3.13034 0
M  V30 2414 N 217.281 0.66697 -1.42791 0
M  V30 2415 C 218.229 1.80157 -1.47127 0
M  V30 2416 C 219.223 1.65825 -0.346199 0
M  V30 2417 O 220.429 1.72338 -0.519572 0
M  V30 2418 H 216.804 0.594158 -0.460956 0
M  V30 2419 H 218.775 1.73619 -2.42692 0
M  V30 2420 C 217.524 3.18351 -1.39813 0
M  V30 2421 H 216.847 3.3001 -2.25684 0
M  V30 2422 H 218.287 3.97736 -1.46908 0
M  V30 2423 C 216.746 3.36707 -0.11391 0
M  V30 2424 O 217.276 3.93027 0.830241 0
M  V30 2425 N 215.482 2.90586 -0.0285295 0
M  V30 2426 H 215.029 2.4494 -0.79764 0
M  V30 2427 H 214.987 3.03245 0.830063 0
M  V30 2428 N 218.759 1.29093 0.90403 0
M  V30 2429 C 220.036 1.075 1.63411 0
M  V30 2430 C 220.416 -0.382346 2.07609 0
M  V30 2431 O 219.764 -1.37031 1.82851 0
M  V30 2432 C 219.974 2.05858 2.81822 0
M  V30 2433 C 221.322 2.36539 3.52611 0
M  V30 2434 O 222.346 2.04019 2.91984 0
M  V30 2435 O 221.205 2.92085 4.61897 0
M  V30 2436 H 218.299 0.411547 0.717327 0
M  V30 2437 H 220.845 1.40449 0.952479 0
M  V30 2438 H 219.617 3.04037 2.46327 0
M  V30 2439 H 219.24 1.73613 3.57693 0
M  V30 2440 N 220.237 -1.11381 1.11499 0
M  V30 2441 C 221.184 -2.17439 0.773887 0
M  V30 2442 C 222.154 -1.64132 -0.254899 0
M  V30 2443 O 223.339 -1.90345 -0.13168 0
M  V30 2444 C 220.479 -3.44373 0.223917 0
M  V30 2445 C 219.592 -4.1168 1.30934 0
M  V30 2446 C 218.727 -5.263 0.71984 0
M  V30 2447 C 217.766 -5.85493 1.78507 0
M  V30 2448 N 216.903 -6.91507 1.21502 0
M  V30 2449 H 221.743 -2.45962 1.68246 0
M  V30 2450 H 219.28 -1.20744 0.840191 0
M  V30 2451 H 221.238 -4.17047 -0.112921 0
M  V30 2452 H 219.868 -3.16232 -0.647851 0
M  V30 2453 H 218.92 -3.37073 1.76312 0
M  V30 2454 H 220.232 -4.51729 2.11524 0
M  V30 2455 H 219.386 -6.05785 0.333094 0
M  V30 2456 H 218.125 -4.87559 -0.117377 0
M  V30 2457 H 217.13 -5.04686 2.18111 0
M  V30 2458 H 218.355 -6.26301 2.62533 0
M  V30 2459 H 216.301 -6.54783 0.399455 0
M  V30 2460 H 216.218 -7.30214 1.95763 0
M  V30 2461 H 217.486 -7.74795 0.855181 0
M  V30 2462 N 221.715 -0.905404 -1.28997 0
M  V30 2463 C 222.945 -0.549049 -1.99171 0
M  V30 2464 C 223.353 0.87203 -1.67906 0
M  V30 2465 O 222.696 1.58796 -0.923561 0
M  V30 2466 C 222.758 -0.668306 -3.53234 0
M  V30 2467 C 222.422 -2.0574 -4.08069 0
M  V30 2468 C 223.419 -3.0292 -4.22534 0
M  V30 2469 C 221.104 -2.36833 -4.42962 0
M  V30 2470 C 223.098 -4.29314 -4.71135 0
M  V30 2471 C 220.785 -3.63467 -4.91258 0
M  V30 2472 C 221.783 -4.59522 -5.053 0
M  V30 2473 O 221.471 -5.83907 -5.52546 0
M  V30 2474 H 221.203 -0.208784 -0.64295 0
M  V30 2475 H 223.757 -1.21836 -1.65363 0
M  V30 2476 H 221.987 0.0580547 -3.86656 0
M  V30 2477 H 223.676 -0.320273 -4.04634 0
M  V30 2478 H 224.442 -2.80216 -3.95859 0
M  V30 2479 H 220.321 -1.62824 -4.31288 0
M  V30 2480 H 223.865 -5.04293 -4.8201 0
M  V30 2481 H 219.762 -3.86 -5.17372 0
M  V30 2482 H 220.53 -5.86578 -5.70849 0
M  V30 2483 N 223.193 1.4272 -0.668489 0
M  V30 2484 C 224.423 2.05668 -0.196063 0
M  V30 2485 C 224.831 1.5028 1.14946 0
M  V30 2486 O 224.174 0.6348 1.72383 0
M  V30 2487 C 224.236 3.59469 -0.0468879 0
M  V30 2488 C 223.9 4.37518 -1.32012 0
M  V30 2489 C 224.897 4.68584 -2.25222 0
M  V30 2490 C 222.582 4.77266 -1.56596 0
M  V30 2491 C 224.576 5.38326 -3.41297 0
M  V30 2492 C 222.263 5.4675 -2.72962 0
M  V30 2493 C 223.261 5.77204 -3.65137 0
M  V30 2494 O 222.949 6.45264 -4.79468 0
M  V30 2495 H 222.681 0.669382 -0.0943599 0
M  V30 2496 H 225.235 1.83954 -0.913788 0
M  V30 2497 H 223.465 3.79817 0.726357 0
M  V30 2498 H 225.154 4.04071 0.384852 0
M  V30 2499 H 225.92 4.38382 -2.07477 0
M  V30 2500 H 221.799 4.52959 -0.857249 0
M  V30 2501 H 225.343 5.62014 -4.13263 0
M  V30 2502 H 221.24 5.76369 -2.90635 0
M  V30 2503 H 222.008 6.63753 -4.78931 0
M  V30 2504 N 224.671 0.411399 1.52136 0
M  V30 2505 C 225.918 -0.163645 2.01838 0
M  V30 2506 C 226.246 -1.4495 1.29691 0
M  V30 2507 O 225.501 -1.91725 0.392431 0
M  V30 2508 C 225.8 -0.455872 3.54481 0
M  V30 2509 C 225.466 0.741055 4.44769 0
M  V30 2510 C 224.128 1.06936 4.69167 0
M  V30 2511 C 226.48 1.54075 4.97906 0
M  V30 2512 C 223.808 2.19851 5.43951 0
M  V30 2513 C 226.16 2.66067 5.73926 0
M  V30 2514 C 224.824 2.99381 5.96596 0
M  V30 2515 H 224.094 -0.0598821 0.738576 0
M  V30 2516 H 226.741 0.553283 1.83333 0
M  V30 2517 H 225.046 -1.2544 3.71177 0
M  V30 2518 H 226.743 -0.913802 3.90449 0
M  V30 2519 H 223.333 0.475192 4.25958 0
M  V30 2520 H 227.517 1.30033 4.78963 0
M  V30 2521 H 222.773 2.46006 5.59724 0
M  V30 2522 H 226.947 3.28419 6.14096 0
M  V30 2523 H 224.574 3.86992 6.54325 0
M  V30 2524 N 226.149 -1.5696 0.141893 0
M  V30 2525 C 227.395 -1.9625 -0.511248 0
M  V30 2526 C 227.728 -1.02654 -1.64851 0
M  V30 2527 O 227.003 -0.0679676 -1.94381 0
M  V30 2528 C 227.286 -3.45285 -1.02227 0
M  V30 2529 C 227.139 -4.49658 0.113138 0
M  V30 2530 C 228.458 -3.96698 -1.90574 0
M  V30 2531 H 225.577 -0.713567 -0.184367 0
M  V30 2532 H 228.219 -1.88698 0.222087 0
M  V30 2533 H 226.369 -3.51852 -1.64719 0
M  V30 2534 H 228.041 -4.55174 0.749302 0
M  V30 2535 H 226.284 -4.26857 0.773026 0
M  V30 2536 H 226.955 -5.51258 -0.286053 0
M  V30 2537 H 229.431 -3.92578 -1.37918 0
M  V30 2538 H 228.307 -5.01453 -2.2324 0
M  V30 2539 H 228.568 -3.3875 -2.84079 0
M  V30 2540 N 227.627 0.131896 -1.57047 0
M  V30 2541 C 228.875 0.840269 -1.83804 0
M  V30 2542 C 229.196 1.81017 -0.72512 0
M  V30 2543 O 228.466 1.94272 0.251995 0
M  V30 2544 H 227.046 0.313294 -0.678127 0
M  V30 2545 H 229.708 0.122294 -1.94516 0
M  V30 2546 H 228.804 1.39335 -2.79271 0
M  V30 2547 N 229.106 1.52395 0.401703 0
M  V30 2548 C 230.054 1.7689 1.51039 0
M  V30 2549 C 231.048 0.636298 1.56996 0
M  V30 2550 O 232.254 0.818507 1.60314 0
M  V30 2551 H 228.629 0.559502 0.502456 0
M  V30 2552 H 230.6 2.69757 1.27568 0
M  V30 2553 C 229.349 1.94331 2.88324 0
M  V30 2554 H 228.672 2.80905 2.84486 0
M  V30 2555 H 230.112 2.15466 3.65172 0
M  V30 2556 C 228.571 0.712396 3.29282 0
M  V30 2557 O 229.101 -0.116218 4.01532 0
M  V30 2558 N 227.307 0.546154 2.85422 0
M  V30 2559 H 226.854 1.22156 2.26794 0
M  V30 2560 H 226.812 -0.276113 3.13185 0
M  V30 2561 N 230.584 -0.659388 1.43143 0
M  V30 2562 C 231.532 -1.79374 1.4808 0
M  V30 2563 C 232.526 -1.65639 0.354988 0
M  V30 2564 O 233.732 -1.7206 0.528704 0
M  V30 2565 H 230.107 -0.591705 0.4641 0
M  V30 2566 H 232.078 -1.72329 2.43609 0
M  V30 2567 C 230.827 -3.17606 1.41499 0
M  V30 2568 H 230.15 -3.28809 2.27431 0
M  V30 2569 H 231.59 -3.96951 1.49015 0
M  V30 2570 C 230.049 -3.36642 0.131765 0
M  V30 2571 O 230.579 -3.93461 -0.809386 0
M  V30 2572 N 228.785 -2.90567 0.0439396 0
M  V30 2573 H 228.332 -2.44513 0.810619 0
M  V30 2574 H 228.29 -3.03681 -0.813969 0
M  V30 2575 N 232.062 -1.29571 -0.897171 0
M  V30 2576 C 232.992 -1.17473 -2.01798 0
M  V30 2577 C 233.973 -0.068323 -1.69963 0
M  V30 2578 O 235.158 -0.248239 -1.92607 0
M  V30 2579 C 232.288 -0.853099 -3.36659 0
M  V30 2580 C 231.242 -1.9161 -3.82713 0
M  V30 2581 C 230.568 -1.44773 -5.14728 0
M  V30 2582 C 231.868 -3.32535 -4.02763 0
M  V30 2583 H 233.562 -2.11237 -2.12177 0
M  V30 2584 H 231.108 -1.01699 -1.01948 0
M  V30 2585 H 233.061 -0.755165 -4.14578 0
M  V30 2586 H 231.785 0.120236 -3.26379 0
M  V30 2587 H 230.444 -2.00346 -3.07013 0
M  V30 2588 H 230.092 -0.462995 -5.00865 0
M  V30 2589 H 229.792 -2.15865 -5.46513 0
M  V30 2590 H 231.316 -1.36334 -5.95185 0
M  V30 2591 H 232.73 -3.26626 -4.71156 0
M  V30 2592 H 231.127 -4.01607 -4.45905 0
M  V30 2593 H 232.197 -3.75326 -3.07016 0
M  V30 2594 N 233.54 1.10788 -1.12088 0
M  V30 2595 C 234.768 1.86461 -0.896651 0
M  V30 2596 C 235.183 1.80492 0.553912 0
M  V30 2597 O 234.54 1.19102 1.38278 0
M  V30 2598 C 234.591 3.35006 -1.35843 0
M  V30 2599 O 234.312 3.40866 -2.75213 0
M  V30 2600 C 235.813 4.27565 -1.1706 0
M  V30 2601 H 233.033 0.589425 -0.320654 0
M  V30 2602 H 235.577 1.40076 -1.48993 0
M  V30 2603 H 233.732 3.7887 -0.808458 0
M  V30 2604 H 234.146 4.33411 -2.9539 0
M  V30 2605 H 235.62 5.30007 -1.54263 0
M  V30 2606 H 236.097 4.3906 -0.110814 0
M  V30 2607 H 236.703 3.89501 -1.70789 0
M  V30 2608 N 235.018 0.912232 1.28515 0
M  V30 2609 C 236.248 0.559604 1.98877 0
M  V30 2610 C 236.656 -0.863113 1.68366 0
M  V30 2611 O 235.999 -1.58304 0.931969 0
M  V30 2612 C 236.061 0.68703 3.52874 0
M  V30 2613 C 235.725 2.07901 4.06972 0
M  V30 2614 C 236.722 3.05157 4.20922 0
M  V30 2615 C 234.407 2.39178 4.417 0
M  V30 2616 C 236.401 4.31806 4.68852 0
M  V30 2617 C 234.088 3.66068 4.89324 0
M  V30 2618 C 235.086 4.62195 5.02856 0
M  V30 2619 O 234.774 5.86829 5.49442 0
M  V30 2620 H 234.506 0.212191 0.641834 0
M  V30 2621 H 237.06 1.22712 1.64715 0
M  V30 2622 H 235.29 -0.0375486 3.86682 0
M  V30 2623 H 236.979 0.341727 4.04459 0
M  V30 2624 H 237.745 2.82311 3.94367 0
M  V30 2625 H 233.624 1.65109 4.30418 0
M  V30 2626 H 237.168 5.06842 4.79329 0
M  V30 2627 H 233.065 3.88739 5.15318 0
M  V30 2628 H 233.833 5.89597 5.6773 0
M  V30 2629 N 236.496 -1.42363 0.676048 0
M  V30 2630 C 237.459 -2.29199 0.00766941 0
M  V30 2631 C 238.459 -1.43389 -0.727745 0
M  V30 2632 O 239.649 -1.64764 -0.56556 0
M  V30 2633 C 236.781 -3.2591 -0.999785 0
M  V30 2634 H 237.974 -2.89794 0.771988 0
M  V30 2635 H 235.527 -1.50024 0.438468 0
M  V30 2636 H 236.262 -2.70256 -1.79255 0
M  V30 2637 H 236.047 -3.89202 -0.475829 0
M  V30 2638 H 237.537 -3.91028 -1.46583 0
M  V30 2639 N 237.974 -0.419461 -1.51915 0
M  V30 2640 C 239.251 0.211999 -1.94448 0
M  V30 2641 C 239.631 1.61703 -1.35703 0
M  V30 2642 O 238.979 2.22102 -0.536931 0
M  V30 2643 C 239.189 0.207872 -3.4838 0
M  V30 2644 C 240.537 0.422192 -4.22496 0
M  V30 2645 O 241.561 0.286778 -3.55044 0
M  V30 2646 O 240.42 0.690009 -5.42126 0
M  V30 2647 H 237.514 0.139586 -0.815135 0
M  V30 2648 H 240.06 -0.476151 -1.62883 0
M  V30 2649 H 238.832 -0.775102 -3.83546 0
M  V30 2650 H 238.455 0.939688 -3.86336 0
M  V30 2651 N 239.452 1.56882 -0.150215 0
M  V30 2652 C 240.382 2.19935 0.784284 0
M  V30 2653 C 241.363 1.14854 1.25469 0
M  V30 2654 O 242.548 1.43209 1.31168 0
M  V30 2655 C 239.678 2.82349 2.02229 0
M  V30 2656 C 238.632 3.93285 1.68853 0
M  V30 2657 C 237.958 4.42649 2.99944 0
M  V30 2658 C 239.258 5.13904 0.932714 0
M  V30 2659 H 240.952 2.9828 0.258781 0
M  V30 2660 H 238.498 1.43473 0.123029 0
M  V30 2661 H 240.451 3.25126 2.68088 0
M  V30 2662 H 239.175 2.0134 2.57157 0
M  V30 2663 H 237.834 3.5113 1.05371 0
M  V30 2664 H 237.482 3.58458 3.52869 0
M  V30 2665 H 237.182 5.17476 2.78374 0
M  V30 2666 H 238.706 4.88099 3.66868 0
M  V30 2667 H 240.12 5.53506 1.49345 0
M  V30 2668 H 238.517 5.94515 0.81684 0
M  V30 2669 H 239.587 4.84842 -0.0749568 0
M  V30 2670 N 240.93 -0.123565 1.57115 0
M  V30 2671 C 241.893 -1.13583 1.99076 0
M  V30 2672 C 242.893 -1.34564 0.880296 0
M  V30 2673 O 244.083 -1.31158 1.14644 0
M  V30 2674 C 241.215 -2.49128 2.32698 0
M  V30 2675 H 242.408 -0.775287 2.89706 0
M  V30 2676 H 239.961 -0.36771 1.51913 0
M  V30 2677 H 240.696 -2.90111 1.44934 0
M  V30 2678 H 240.481 -2.35255 3.13684 0
M  V30 2679 H 241.971 -3.2199 2.65918 0
M  V30 2680 N 242.408 -1.52605 -0.393616 0
M  V30 2681 C 243.654 -1.67672 -1.14079 0
M  V30 2682 C 243.987 -0.413121 -1.89755 0
M  V30 2683 O 243.262 0.588952 -1.85369 0
M  V30 2684 C 243.545 -2.9088 -2.12276 0
M  V30 2685 C 243.398 -4.27329 -1.40394 0
M  V30 2686 C 244.717 -3.09628 -3.12759 0
M  V30 2687 H 241.836 -0.610168 -0.413356 0
M  V30 2688 H 244.478 -1.85193 -0.424696 0
M  V30 2689 H 242.628 -2.76073 -2.73342 0
M  V30 2690 H 244.3 -4.53894 -0.82327 0
M  V30 2691 H 242.543 -4.2802 -0.705801 0
M  V30 2692 H 243.214 -5.09615 -2.12123 0
M  V30 2693 H 245.69 -3.23436 -2.61779 0
M  V30 2694 H 244.566 -3.97322 -3.78717 0
M  V30 2695 H 244.827 -2.23637 -3.81365 0
M  V30 2696 N 243.887 0.651787 -1.4349 0
M  V30 2697 C 245.134 1.41167 -1.45183 0
M  V30 2698 C 245.462 1.94349 -0.0766601 0
M  V30 2699 O 244.717 1.72804 0.918555 0
M  V30 2700 C 245.016 2.60914 -2.44251 0
M  V30 2701 C 244.682 2.26142 -3.9009 0
M  V30 2702 C 243.344 2.16371 -4.2981 0
M  V30 2703 C 245.696 1.98334 -4.81989 0
M  V30 2704 C 243.024 1.7695 -5.5938 0
M  V30 2705 C 245.376 1.6041 -6.11924 0
M  V30 2706 C 244.04 1.49166 -6.5062 0
M  V30 2707 H 243.31 0.516566 -0.531263 0
M  V30 2708 H 245.957 0.741099 -1.76579 0
M  V30 2709 H 244.262 3.3311 -2.06265 0
M  V30 2710 H 245.959 3.19127 -2.42815 0
M  V30 2711 H 242.549 2.34658 -3.58655 0
M  V30 2712 H 246.733 2.04803 -4.52072 0
M  V30 2713 H 241.989 1.66831 -5.88198 0
M  V30 2714 H 246.163 1.37925 -6.82605 0
M  V30 2715 H 243.79 1.1839 -7.50925 0
M  V30 2716 N 245.365 1.30045 0.890287 0
M  V30 2717 C 246.313 1.15873 2.01683 0
M  V30 2718 C 247.307 0.0719403 1.69247 0
M  V30 2719 O 248.513 0.232414 1.78493 0
M  V30 2720 H 244.888 0.358203 0.661207 0
M  V30 2721 H 246.859 2.11229 2.10772 0
M  V30 2722 C 245.608 0.861842 3.36849 0
M  V30 2723 H 244.931 1.69016 3.62317 0
M  V30 2724 H 246.371 0.802762 4.16331 0
M  V30 2725 C 244.83 -0.435132 3.34078 0
M  V30 2726 O 245.36 -1.4583 3.74295 0
M  V30 2727 N 243.566 -0.444377 2.87182 0
M  V30 2728 H 243.113 0.388723 2.5465 0
M  V30 2729 H 243.071 -1.31213 2.85711 0
M  V30 2730 N 246.843 -1.10192 1.12674 0
M  V30 2731 C 247.773 -2.18652 0.819362 0
M  V30 2732 C 248.754 -1.68698 -0.217915 0
M  V30 2733 O 249.939 -1.94041 -0.0785581 0
M  V30 2734 C 247.069 -3.46202 0.27594 0
M  V30 2735 C 246.023 -4.09444 1.24656 0
M  V30 2736 C 245.349 -5.31725 0.563258 0
M  V30 2737 C 246.649 -4.52863 2.60217 0
M  V30 2738 H 248.343 -2.44622 1.72628 0
M  V30 2739 H 245.889 -1.17571 0.831451 0
M  V30 2740 H 247.842 -4.21372 0.0486149 0
M  V30 2741 H 246.566 -3.1973 -0.666331 0
M  V30 2742 H 245.225 -3.36284 1.45974 0
M  V30 2743 H 244.873 -5.0153 -0.384235 0
M  V30 2744 H 244.573 -5.74991 1.21075 0
M  V30 2745 H 246.097 -6.09624 0.34503 0
M  V30 2746 H 247.511 -5.19294 2.42913 0
M  V30 2747 H 245.908 -5.06986 3.21068 0
M  V30 2748 H 246.978 -3.65656 3.18471 0
M  V30 2749 N 248.321 -0.919034 -1.28029 0
M  V30 2750 C 249.551 -0.570143 -1.98577 0
M  V30 2751 C 249.959 0.854172 -1.68821 0
M  V30 2752 O 249.302 1.57807 -0.940351 0
M  V30 2753 C 249.364 -0.705734 -3.52505 0
M  V30 2754 C 249.028 -2.10057 -4.05863 0
M  V30 2755 C 250.025 -3.07385 -4.19298 0
M  V30 2756 C 247.71 -2.41517 -4.40426 0
M  V30 2757 C 249.704 -4.34287 -4.66555 0
M  V30 2758 C 247.391 -3.68657 -4.87376 0
M  V30 2759 C 248.389 -4.64856 -5.00398 0
M  V30 2760 O 248.077 -5.89735 -5.46322 0
M  V30 2761 H 247.809 -0.215592 -0.6407 0
M  V30 2762 H 250.363 -1.23583 -1.64062 0
M  V30 2763 H 248.593 0.0170414 -3.86696 0
M  V30 2764 H 250.282 -0.363172 -4.04272 0
M  V30 2765 H 251.048 -2.84398 -3.92865 0
M  V30 2766 H 246.927 -1.67389 -4.29537 0
M  V30 2767 H 250.471 -5.09377 -4.76635 0
M  V30 2768 H 246.368 -3.91466 -5.13249 0
M  V30 2769 H 247.136 -5.92599 -5.64596 0
M  V30 2770 N 249.799 1.42003 -0.683588 0
M  V30 2771 C 251.076 1.95112 -0.138075 0
M  V30 2772 C 251.456 1.62359 1.34918 0
M  V30 2773 O 250.804 0.924311 2.08971 0
M  V30 2774 C 251.014 3.46505 -0.416581 0
M  V30 2775 C 252.362 4.23254 -0.337834 0
M  V30 2776 O 253.386 3.54468 -0.35082 0
M  V30 2777 O 252.245 5.45743 -0.287596 0
M  V30 2778 H 249.339 0.826961 -0.00797996 0
M  V30 2779 H 251.885 1.51784 -0.758924 0
M  V30 2780 H 250.657 3.63582 -1.4465 0
M  V30 2781 H 250.28 3.969 0.235839 0
M  V30 2782 N 251.277 0.427512 1.51691 0
M  V30 2783 C 252.554 -0.201684 1.94557 0
M  V30 2784 C 252.934 -1.60981 1.36559 0
M  V30 2785 O 252.282 -2.21814 0.548702 0
M  V30 2786 C 252.492 -0.189394 3.48486 0
M  V30 2787 C 253.84 -0.39978 4.22714 0
M  V30 2788 O 254.864 -0.267945 3.55191 0
M  V30 2789 O 253.723 -0.661249 5.42485 0
M  V30 2790 H 250.817 -0.135261 0.815864 0
M  V30 2791 H 253.363 0.484782 1.62628 0
M  V30 2792 H 252.135 0.795431 3.8313 0
M  V30 2793 H 251.758 -0.919187 3.86829 0
M  V30 2794 N 252.755 -1.56801 0.158532 0
M  V30 2795 C 254.004 -1.95665 -0.489702 0
M  V30 2796 C 254.317 -1.04654 -1.65248 0
M  V30 2797 O 255.523 -1.33146 -2.3661 0
M  V30 2798 C 253.979 -3.47874 -0.922582 0
M  V30 2799 C 253.587 -4.47489 0.213893 0
M  V30 2800 C 255.331 -3.95583 -1.53996 0
M  V30 2801 C 253.238 -5.90921 -0.237903 0
M  V30 2802 H 252.168 -0.730516 -0.186716 0
M  V30 2803 H 254.819 -1.81861 0.244722 0
M  V30 2804 H 253.201 -3.57051 -1.71261 0
M  V30 2805 H 254.375 -4.50017 0.991036 0
M  V30 2806 H 252.69 -4.09764 0.740407 0
M  V30 2807 H 255.287 -5.0019 -1.8898 0
M  V30 2808 H 255.63 -3.37789 -2.43319 0
M  V30 2809 H 256.163 -3.8937 -0.814611 0
M  V30 2810 H 252.902 -6.52559 0.620236 0
M  V30 2811 H 252.422 -5.91729 -0.980676 0
M  V30 2812 H 254.101 -6.43352 -0.686067 0
M  V30 2813 N 254.233 0.115231 -1.57178 0
M  V30 2814 C 255.143 1.15994 -2.03918 0
M  V30 2815 C 256.159 1.45103 -0.960268 0
M  V30 2816 O 257.335 1.56144 -1.27204 0
M  V30 2817 C 254.4 2.46568 -2.43732 0
M  V30 2818 C 253.461 2.24822 -3.65723 0
M  V30 2819 C 252.694 3.4917 -4.03629 0
M  V30 2820 O 252.917 4.56623 -3.41835 0
M  V30 2821 O 251.851 3.39949 -4.96708 0
M  V30 2822 H 255.677 0.793019 -2.93164 0
M  V30 2823 H 253.262 0.3263 -1.45793 0
M  V30 2824 H 255.144 3.23492 -2.70057 0
M  V30 2825 H 253.819 2.82726 -1.57631 0
M  V30 2826 H 252.726 1.45744 -3.44542 0
M  V30 2827 H 254.059 1.93566 -4.52541 0
M  V30 2828 N 255.711 1.52812 0.385517 0
M  V30 2829 C 256.939 1.71907 1.15133 0
M  V30 2830 C 257.354 0.439004 1.83625 0
M  V30 2831 O 256.711 -0.586765 1.7281 0
M  V30 2832 C 256.762 2.87099 2.19673 0
M  V30 2833 O 256.483 4.10151 1.53973 0
M  V30 2834 C 257.984 3.17902 3.08955 0
M  V30 2835 H 255.204 0.575479 0.345057 0
M  V30 2836 H 257.748 1.99476 0.45052 0
M  V30 2837 H 255.903 2.61982 2.85384 0
M  V30 2838 H 256.317 4.74514 2.23465 0
M  V30 2839 H 257.791 4.01959 3.7833 0
M  V30 2840 H 258.268 2.3243 3.72657 0
M  V30 2841 H 258.874 3.44871 2.48885 0
M  V30 2842 N 257.189 -0.644168 1.43834 0
M  V30 2843 C 258.136 -1.75671 1.49694 0
M  V30 2844 C 259.106 -1.6246 0.345809 0
M  V30 2845 O 260.291 -1.82573 0.554234 0
M  V30 2846 C 257.431 -3.13867 1.43463 0
M  V30 2847 C 256.544 -3.38147 2.6885 0
M  V30 2848 C 255.679 -4.66241 2.54544 0
M  V30 2849 C 254.718 -4.83657 3.75157 0
M  V30 2850 N 253.855 -6.03016 3.59605 0
M  V30 2851 H 258.695 -1.69998 2.44754 0
M  V30 2852 H 256.232 -0.829458 1.21484 0
M  V30 2853 H 258.19 -3.9377 1.37843 0
M  V30 2854 H 256.82 -3.18588 0.519783 0
M  V30 2855 H 255.872 -2.52276 2.84712 0
M  V30 2856 H 257.184 -3.46899 3.58417 0
M  V30 2857 H 256.338 -5.54285 2.46683 0
M  V30 2858 H 255.077 -4.59826 1.62516 0
M  V30 2859 H 254.082 -3.94046 3.83416 0
M  V30 2860 H 255.307 -4.91896 4.68204 0
M  V30 2861 H 253.253 -5.97715 2.7032 0
M  V30 2862 H 253.17 -6.12766 4.42779 0
M  V30 2863 H 254.438 -6.93657 3.55613 0
M  V30 2864 N 258.668 -1.30515 -0.883378 0
M  V30 2865 C 259.898 -1.22182 -1.66599 0
M  V30 2866 C 260.306 0.217507 -1.87946 0
M  V30 2867 O 259.649 1.1554 -1.42815 0
M  V30 2868 C 259.711 -1.88146 -3.06335 0
M  V30 2869 C 259.375 -3.37476 -3.08154 0
M  V30 2870 C 260.372 -4.33443 -2.87094 0
M  V30 2871 C 258.057 -3.7895 -3.29701 0
M  V30 2872 C 260.051 -5.68858 -2.8754 0
M  V30 2873 C 257.738 -5.14482 -3.29776 0
M  V30 2874 C 258.736 -6.09246 -3.0872 0
M  V30 2875 O 258.424 -7.42302 -3.08615 0
M  V30 2876 H 258.156 -0.423898 -0.52658 0
M  V30 2877 H 260.71 -1.72703 -1.11188 0
M  V30 2878 H 258.94 -1.32157 -3.63416 0
M  V30 2879 H 260.629 -1.7391 -3.66756 0
M  V30 2880 H 261.395 -4.02733 -2.70243 0
M  V30 2881 H 257.274 -3.05631 -3.45124 0
M  V30 2882 H 260.818 -6.428 -2.71024 0
M  V30 2883 H 256.715 -5.44832 -3.46163 0
M  V30 2884 H 257.483 -7.5131 -3.24769 0
M  V30 2885 N 260.146 1.09593 -1.13257 0
M  V30 2886 C 261.557 1.63229 -0.906274 0
M  V30 2887 C 261.908 1.8811 0.557578 0
M  V30 2888 O 261.033 1.62953 1.42391 0
M  V30 2889 C 261.628 2.96535 -1.63867 0
M  V30 2890 C 260.187 3.47003 -1.45828 0
M  V30 2891 C 259.334 2.2145 -1.66898 0
M  V30 2892 H 262.285 0.92978 -1.28611 0
M  V30 2893 H 262.306 3.64411 -1.09476 0
M  V30 2894 H 261.818 2.78394 -2.70404 0
M  V30 2895 H 259.919 3.70272 -0.415848 0
M  V30 2896 H 260.032 4.24551 -2.2202 0
M  V30 2897 H 258.396 2.30022 -1.09371 0
M  V30 2898 H 259.179 2.0583 -2.74752 0
M  V30 2899 N 261.624 0.925811 1.2754 0
M  V30 2900 C 262.849 0.580924 1.99098 0
M  V30 2901 C 263.274 -0.833555 1.68622 0
M  V30 2902 O 262.632 -1.55903 0.925422 0
M  V30 2903 C 262.68 0.811186 3.51358 0
M  V30 2904 O 261.784 -0.124129 4.12213 0
M  V30 2905 H 261.125 0.223873 0.625122 0
M  V30 2906 H 263.655 1.24455 1.62395 0
M  V30 2907 H 263.665 0.72601 4.01489 0
M  V30 2908 H 262.34 1.84227 3.72872 0
M  V30 2909 H 260.917 0.0108006 3.72898 0
M  V30 2910 N 263.102 -1.41638 0.69111 0
M  V30 2911 C 264.327 -2.06148 0.227583 0
M  V30 2912 C 264.752 -1.51652 -1.11281 0
M  V30 2913 O 264.11 -0.64164 -1.69566 0
M  V30 2914 C 264.158 -3.60095 0.190858 0
M  V30 2915 O 263.262 -4.03845 -0.835664 0
M  V30 2916 H 262.603 -0.654434 0.112306 0
M  V30 2917 H 265.133 -1.81484 0.944714 0
M  V30 2918 H 265.143 -4.07995 0.020207 0
M  V30 2919 H 263.818 -3.99129 1.16915 0
M  V30 2920 H 262.395 -3.67458 -0.63473 0
M  V30 2921 N 264.58 -0.43555 -1.51462 0
M  V30 2922 C 265.51 0.367376 -2.30592 0
M  V30 2923 C 266.491 1.02263 -1.35928 0
M  V30 2924 O 267.676 1.02661 -1.64847 0
M  V30 2925 C 264.806 1.46983 -3.14664 0
M  V30 2926 C 263.76 0.938161 -4.17591 0
M  V30 2927 C 263.086 2.13622 -4.90173 0
M  V30 2928 C 264.386 -0.0261621 -5.22293 0
M  V30 2929 H 266.08 -0.292969 -2.97963 0
M  V30 2930 H 263.626 -0.14234 -1.43295 0
M  V30 2931 H 265.579 2.03873 -3.688 0
M  V30 2932 H 264.303 2.15843 -2.4511 0
M  V30 2933 H 262.962 0.391481 -3.64504 0
M  V30 2934 H 262.61 2.81098 -4.17124 0
M  V30 2935 H 262.31 1.78688 -5.59772 0
M  V30 2936 H 263.834 2.7107 -5.47132 0
M  V30 2937 H 265.248 0.452384 -5.71512 0
M  V30 2938 H 263.645 -0.287992 -5.99409 0
M  V30 2939 H 264.715 -0.963391 -4.75233 0
M  V30 2940 N 266.058 1.56714 -0.166846 0
M  V30 2941 C 267.005 2.17746 0.765193 0
M  V30 2942 C 267.975 1.11614 1.23011 0
M  V30 2943 O 269.16 1.39745 1.29908 0
M  V30 2944 C 266.3 2.81882 1.9909 0
M  V30 2945 C 265.413 4.02462 1.56997 0
M  V30 2946 C 264.548 4.54537 2.749 0
M  V30 2947 C 263.587 5.67538 2.29275 0
M  V30 2948 N 262.724 6.14142 3.40255 0
M  V30 2949 H 267.564 2.97048 0.237952 0
M  V30 2950 H 265.101 1.4672 0.105725 0
M  V30 2951 H 267.059 3.17221 2.70974 0
M  V30 2952 H 265.689 2.05191 2.49192 0
M  V30 2953 H 264.741 3.72973 0.748037 0
M  V30 2954 H 266.053 4.84273 1.19503 0
M  V30 2955 H 265.207 4.92035 3.54946 0
M  V30 2956 H 263.946 3.71774 3.1565 0
M  V30 2957 H 262.951 5.29597 1.47674 0
M  V30 2958 H 264.176 6.52099 1.89588 0
M  V30 2959 H 262.122 5.3431 3.8059 0
M  V30 2960 H 262.039 6.9093 3.06841 0
M  V30 2961 H 263.307 6.56289 4.206 0
M  V30 2962 N 267.536 -0.106894 1.57237 0
M  V30 2963 C 268.484 -1.14944 2.02215 0
M  V30 2964 C 269.478 -1.42167 0.92114 0
M  V30 2965 O 270.684 -1.41987 1.10634 0
M  V30 2966 H 267.059 -0.387841 0.64427 0
M  V30 2967 H 269.03 -0.743683 2.88984 0
M  V30 2968 C 267.779 -2.4647 2.4525 0
M  V30 2969 H 267.102 -2.26363 3.29545 0
M  V30 2970 H 268.542 -3.17948 2.80508 0
M  V30 2971 C 267.001 -3.09921 1.321 0
M  V30 2972 O 267.531 -3.9651 0.643622 0
M  V30 2973 N 265.737 -2.69986 1.07497 0
M  V30 2974 H 265.284 -1.99667 1.62761 0
M  V30 2975 H 265.242 -3.12769 0.319876 0
M  V30 2976 N 269.014 -1.53014 -0.377408 0
M  V30 2977 C 270.261 -1.68623 -1.12128 0
M  V30 2978 C 270.589 -0.431997 -1.89642 0
M  V30 2979 O 269.844 0.585855 -1.86725 0
M  V30 2980 C 270.143 -2.87982 -2.11663 0
M  V30 2981 C 269.809 -4.24964 -1.50719 0
M  V30 2982 C 268.471 -4.62217 -1.33825 0
M  V30 2983 C 270.823 -5.10199 -1.06519 0
M  V30 2984 C 268.151 -5.82352 -0.712963 0
M  V30 2985 C 270.503 -6.30969 -0.453955 0
M  V30 2986 C 269.167 -6.66944 -0.272411 0
M  V30 2987 H 268.437 -0.617034 -0.410305 0
M  V30 2988 H 271.084 -1.8718 -0.404484 0
M  V30 2989 H 269.389 -2.63889 -2.89603 0
M  V30 2990 H 271.086 -2.97253 -2.6915 0
M  V30 2991 H 267.676 -3.95626 -1.64858 0
M  V30 2992 H 271.86 -4.81978 -1.18368 0
M  V30 2993 H 267.116 -6.08824 -0.560611 0
M  V30 2994 H 271.29 -6.96324 -0.103217 0
M  V30 2995 H 268.917 -7.59898 0.214181 0
M  V30 2996 N 270.492 0.636531 -1.44174 0
M  V30 2997 C 271.903 1.21806 -1.41493 0
M  V30 2998 C 272.254 1.95785 -0.1275 0
M  V30 2999 O 271.379 2.02147 0.772376 0
M  V30 3000 C 271.974 2.21551 -2.56321 0
M  V30 3001 C 270.533 2.75143 -2.56853 0
M  V30 3002 C 269.68 1.50052 -2.33195 0
M  V30 3003 H 272.631 0.427531 -1.52833 0
M  V30 3004 H 272.652 3.0405 -2.28765 0
M  V30 3005 H 272.164 1.67679 -3.50008 0
M  V30 3006 H 270.265 3.33033 -1.67093 0
M  V30 3007 H 270.378 3.2155 -3.55165 0
M  V30 3008 H 268.742 1.77993 -1.82183 0
M  V30 3009 H 269.525 0.980903 -3.28988 0
M  V30 3010 N 271.97 1.30982 0.876444 0
M  V30 3011 C 272.9 1.20668 1.99903 0
M  V30 3012 C 273.881 0.095354 1.69833 0
M  V30 3013 O 275.066 0.27885 1.92188 0
M  V30 3014 C 272.196 0.90655 3.3526 0
M  V30 3015 C 271.15 1.97675 3.79617 0
M  V30 3016 C 270.476 1.52943 5.1236 0
M  V30 3017 C 271.776 3.389 3.97422 0
M  V30 3018 H 273.47 2.14586 2.0879 0
M  V30 3019 H 271.016 1.03308 1.00317 0
M  V30 3020 H 272.969 0.821025 4.13324 0
M  V30 3021 H 271.693 -0.0682969 3.26529 0
M  V30 3022 H 270.352 2.05205 3.03787 0
M  V30 3023 H 270 0.54262 5.00065 0
M  V30 3024 H 269.7 2.24532 5.43009 0
M  V30 3025 H 271.224 1.45786 5.92941 0
M  V30 3026 H 272.638 3.34081 4.659 0
M  V30 3027 H 271.035 4.0865 4.3946 0
M  V30 3028 H 272.105 3.80163 3.01006 0
M  V30 3029 N 273.449 -1.08991 1.13837 0
M  V30 3030 C 274.379 -2.17771 0.842507 0
M  V30 3031 C 275.36 -1.6892 -0.20001 0
M  V30 3032 O 276.545 -1.94113 -0.0579731 0
M  V30 3033 C 273.675 -3.4589 0.312644 0
M  V30 3034 C 272.629 -4.08099 1.28992 0
M  V30 3035 C 271.955 -5.31098 0.619623 0
M  V30 3036 C 273.255 -4.50077 2.65005 0
M  V30 3037 H 274.949 -2.42777 1.75213 0
M  V30 3038 H 272.495 -1.16682 0.843875 0
M  V30 3039 H 274.448 -4.21297 0.0933043 0
M  V30 3040 H 273.172 -3.20419 -0.632382 0
M  V30 3041 H 271.831 -3.34717 1.49533 0
M  V30 3042 H 271.479 -5.0191 -0.33102 0
M  V30 3043 H 271.179 -5.73674 1.27167 0
M  V30 3044 H 272.703 -6.09224 0.409669 0
M  V30 3045 H 274.117 -5.16688 2.48407 0
M  V30 3046 H 272.514 -5.03553 3.26427 0
M  V30 3047 H 273.584 -3.62257 3.22332 0
M  V30 3048 N 274.927 -0.932562 -1.27047 0
M  V30 3049 C 275.874 -0.434072 -2.26681 0
M  V30 3050 C 276.844 0.501639 -1.58344 0
M  V30 3051 O 278.029 0.419734 -1.86126 0
M  V30 3052 C 275.169 0.30261 -3.43771 0
M  V30 3053 C 274.282 -0.667774 -4.26808 0
M  V30 3054 C 273.417 0.0892393 -5.31125 0
M  V30 3055 C 272.456 -0.873532 -6.05835 0
M  V30 3056 N 271.593 -0.148832 -7.01942 0
M  V30 3057 H 276.433 -1.28868 -2.68695 0
M  V30 3058 H 273.97 -0.646713 -1.32121 0
M  V30 3059 H 275.928 0.746092 -4.10474 0
M  V30 3060 H 274.558 1.12142 -3.02695 0
M  V30 3061 H 273.61 -1.22978 -3.59973 0
M  V30 3062 H 274.922 -1.40337 -4.78651 0
M  V30 3063 H 274.076 0.592409 -6.03801 0
M  V30 3064 H 272.815 0.85777 -4.80097 0
M  V30 3065 H 271.82 -1.38791 -5.31994 0
M  V30 3066 H 273.045 -1.64193 -6.58952 0
M  V30 3067 H 270.991 0.601365 -6.53238 0
M  V30 3068 H 270.908 -0.82391 -7.51497 0
M  V30 3069 H 272.176 0.333527 -7.78786 0
M  V30 3070 N 276.405 1.4127 -0.698611 0
M  V30 3071 C 277.368 2.29158 -0.044132 0
M  V30 3072 C 278.368 1.44529 0.704841 0
M  V30 3073 O 279.558 1.65643 0.539276 0
M  V30 3074 C 276.69 3.27459 0.947809 0
M  V30 3075 H 277.883 2.88529 -0.817994 0
M  V30 3076 H 275.436 1.49307 -0.46228 0
M  V30 3077 H 276.171 2.73073 1.74933 0
M  V30 3078 H 275.956 3.8991 0.41385 0
M  V30 3079 H 277.446 3.93311 1.40344 0
M  V30 3080 N 277.883 0.443576 1.51229 0
M  V30 3081 C 278.833 -0.382787 2.24764 0
M  V30 3082 C 279.817 -0.984836 1.27239 0
M  V30 3083 O 281.009 -0.901943 1.52296 0
M  V30 3084 C 278.138 -1.47989 3.09765 0
M  V30 3085 C 277.224 -0.886931 4.14722 0
M  V30 3086 N 277.615 -0.0237103 5.05794 0
M  V30 3087 C 275.913 -1.15385 4.30816 0
M  V30 3088 C 276.614 0.309971 5.80874 0
M  V30 3089 N 275.59 -0.307989 5.42727 0
M  V30 3090 H 279.392 0.282624 2.92538 0
M  V30 3091 H 276.906 0.256027 1.60369 0
M  V30 3092 H 278.903 -2.08482 3.61027 0
M  V30 3093 H 277.563 -2.14758 2.43535 0
M  V30 3094 H 278.574 0.34318 5.16762 0
M  V30 3095 H 275.251 -1.81857 3.75812 0
M  V30 3096 H 276.641 1.01279 6.64223 0
M  V30 3097 N 279.361 -1.56624 0.175154 0
M  V30 3098 C 280.309 -2.19468 -0.770495 0
M  V30 3099 C 281.303 -1.15985 -1.23466 0
M  V30 3100 O 282.509 -1.34176 -1.19987 0
M  V30 3101 H 278.884 -0.703095 -0.266761 0
M  V30 3102 H 280.855 -2.97613 -0.216542 0
M  V30 3103 C 279.604 -2.85264 -1.98796 0
M  V30 3104 H 278.927 -3.64623 -1.63983 0
M  V30 3105 H 280.367 -3.327 -2.62843 0
M  V30 3106 C 278.826 -1.85239 -2.81404 0
M  V30 3107 O 279.356 -1.34024 -3.78682 0
M  V30 3108 N 277.562 -1.53911 -2.46495 0
M  V30 3109 H 277.109 -1.95751 -1.67449 0
M  V30 3110 H 277.067 -0.872382 -3.02054 0
M  V30 3111 N 280.839 0.0985539 -1.57292 0
M  V30 3112 C 281.749 1.13824 -2.05137 0
M  V30 3113 C 282.765 1.44076 -0.975604 0
M  V30 3114 O 283.941 1.54786 -1.28853 0
M  V30 3115 C 281.006 2.43969 -2.46333 0
M  V30 3116 C 280.067 2.2093 -3.68087 0
M  V30 3117 C 279.3 3.44869 -4.0731 0
M  V30 3118 O 279.523 4.52972 -3.46659 0
M  V30 3119 O 278.457 3.34661 -5.00285 0
M  V30 3120 H 282.283 0.761881 -2.93988 0
M  V30 3121 H 279.868 0.310818 -1.46131 0
M  V30 3122 H 281.75 3.20609 -2.73473 0
M  V30 3123 H 280.425 2.81038 -1.60621 0
M  V30 3124 H 279.332 1.42081 -3.46069 0
M  V30 3125 H 280.665 1.88755 -4.54568 0
M  V30 3126 N 282.317 1.53212 0.369288 0
M  V30 3127 C 283.564 1.69215 1.11232 0
M  V30 3128 C 283.892 0.442048 1.8941 0
M  V30 3129 O 283.147 -0.575944 1.87033 0
M  V30 3130 C 283.446 2.89101 2.10132 0
M  V30 3131 C 283.112 4.25758 1.48463 0
M  V30 3132 C 281.774 4.6292 1.31372 0
M  V30 3133 C 284.126 5.10757 1.03811 0
M  V30 3134 C 281.454 5.82722 0.68207 0
M  V30 3135 C 283.806 6.31201 0.420487 0
M  V30 3136 C 282.47 6.67079 0.237038 0
M  V30 3137 H 281.74 0.619201 0.407027 0
M  V30 3138 H 284.387 1.87391 0.394552 0
M  V30 3139 H 282.692 2.65421 2.88199 0
M  V30 3140 H 284.389 2.98676 2.6757 0
M  V30 3141 H 280.979 3.96494 1.62758 0
M  V30 3142 H 285.163 4.82599 1.1581 0
M  V30 3143 H 280.419 6.09113 0.528316 0
M  V30 3144 H 284.593 6.96368 0.0662874 0
M  V30 3145 H 282.22 7.59774 -0.254477 0
M  V30 3146 N 283.795 -0.628877 1.44509 0
M  V30 3147 C 285.044 -1.38437 1.4669 0
M  V30 3148 C 285.357 -1.95322 0.104272 0
M  V30 3149 O 286.563 -2.715 0.00362163 0
M  V30 3150 C 285.019 -2.50659 2.5826 0
M  V30 3151 C 284.627 -2.00277 4.0074 0
M  V30 3152 C 286.371 -3.27844 2.69664 0
M  V30 3153 C 284.278 -3.09854 5.0373 0
M  V30 3154 H 283.208 -0.520245 0.545766 0
M  V30 3155 H 285.859 -0.676313 1.70582 0
M  V30 3156 H 284.241 -3.2405 2.27612 0
M  V30 3157 H 285.415 -1.33736 4.40966 0
M  V30 3158 H 283.73 -1.35901 3.93599 0
M  V30 3159 H 286.327 -4.09534 3.43781 0
M  V30 3160 H 286.67 -3.77471 1.75559 0
M  V30 3161 H 287.203 -2.61543 2.99733 0
M  V30 3162 H 283.942 -2.65168 5.99472 0
M  V30 3163 H 283.462 -3.7503 4.68095 0
M  V30 3164 H 285.141 -3.74592 5.27532 0
M  V30 3165 N 285.273 -1.31445 -0.869486 0
M  V30 3166 C 286.498 -1.24256 -1.66058 0
M  V30 3167 C 286.923 0.188928 -1.87149 0
M  V30 3168 O 286.281 1.13522 -1.4136 0
M  V30 3169 C 286.329 -1.9924 -3.00559 0
M  V30 3170 O 285.433 -1.33007 -3.90362 0
M  V30 3171 H 284.774 -0.428973 -0.506831 0
M  V30 3172 H 287.304 -1.73521 -1.08404 0
M  V30 3173 H 287.314 -2.08854 -3.50491 0
M  V30 3174 H 285.989 -3.03342 -2.84528 0
M  V30 3175 H 284.566 -1.31848 -3.48813 0
M  V30 3176 N 286.751 1.08385 -1.14413 0
M  V30 3177 C 287.699 2.17406 -0.826888 0
M  V30 3178 C 288.693 1.6827 0.195312 0
M  V30 3179 O 289.899 1.79927 0.0513892 0
M  V30 3180 H 286.274 0.70934 -0.249681 0
M  V30 3181 H 288.245 2.41388 -1.75426 0
M  V30 3182 C 286.994 3.46215 -0.320979 0
M  V30 3183 H 286.317 3.84401 -1.0989 0
M  V30 3184 H 287.757 4.23777 -0.137549 0
M  V30 3185 C 286.216 3.23067 0.955472 0
M  V30 3186 O 286.746 3.4668 2.02918 0
M  V30 3187 N 284.952 2.7661 0.890798 0
M  V30 3188 H 284.499 2.57594 0.0168815 0
M  V30 3189 H 284.457 2.61501 1.74542 0
M  V30 3190 N 288.23 0.939286 1.26551 0
M  V30 3191 C 289.16 0.465044 2.28822 0
M  V30 3192 C 290.141 -0.480692 1.63167 0
M  V30 3193 O 291.326 -0.382955 1.90387 0
M  V30 3194 C 288.456 -0.27234 3.46231 0
M  V30 3195 C 287.41 0.58666 4.2396 0
M  V30 3196 C 286.736 -0.280573 5.33963 0
M  V30 3197 C 288.036 1.85704 4.88171 0
M  V30 3198 H 289.73 1.31979 2.68741 0
M  V30 3199 H 287.276 0.636061 1.29191 0
M  V30 3200 H 289.229 -0.615133 4.16886 0
M  V30 3201 H 287.953 -1.16121 3.0526 0
M  V30 3202 H 286.612 0.91232 3.55067 0
M  V30 3203 H 286.26 -1.16874 4.89234 0
M  V30 3204 H 285.96 0.29076 5.8688 0
M  V30 3205 H 287.484 -0.618678 6.07458 0
M  V30 3206 H 288.898 1.58161 5.51052 0
M  V30 3207 H 287.295 2.37279 5.51197 0
M  V30 3208 H 288.365 2.56957 4.11219 0
M  V30 3209 N 289.708 -1.40897 0.706093 0
M  V30 3210 C 291.119 -1.84023 0.315052 0
M  V30 3211 C 291.47 -1.5906 -1.14866 0
M  V30 3212 O 290.595 -1.06651 -1.88293 0
M  V30 3213 C 291.19 -3.34055 0.565038 0
M  V30 3214 C 289.749 -3.7571 0.227806 0
M  V30 3215 C 288.896 -2.64204 0.842122 0
M  V30 3216 H 291.847 -1.303 0.905963 0
M  V30 3217 H 291.868 -3.80107 -0.172843 0
M  V30 3218 H 291.38 -3.52192 1.63042 0
M  V30 3219 H 289.481 -3.63172 -0.832895 0
M  V30 3220 H 289.594 -4.74103 0.690174 0
M  V30 3221 H 287.958 -2.53255 0.270893 0
M  V30 3222 H 288.741 -2.85155 1.91158 0
M  V30 3223 N 291.186 -0.45159 -1.50991 0
M  V30 3224 C 292.134 0.366864 -2.29689 0
M  V30 3225 C 293.128 1.00809 -1.36139 0
M  V30 3226 O 294.334 0.941427 -1.53418 0
M  V30 3227 H 290.709 0.137133 -0.739391 0
M  V30 3228 H 292.68 -0.317538 -2.96706 0
M  V30 3229 C 291.429 1.44751 -3.16137 0
M  V30 3230 H 290.752 0.963473 -3.88017 0
M  V30 3231 H 292.192 1.99315 -3.74232 0
M  V30 3232 C 290.651 2.43869 -2.32442 0
M  V30 3233 O 291.181 3.4872 -1.99392 0
M  V30 3234 N 289.387 2.15105 -1.95392 0
M  V30 3235 H 288.934 1.29866 -2.22469 0
M  V30 3236 H 288.892 2.81661 -1.39693 0
M  V30 3237 N 292.664 1.56529 -0.183458 0
M  V30 3238 C 293.913 1.96419 0.458511 0
M  V30 3239 C 294.226 1.0727 1.63562 0
M  V30 3240 O 295.432 1.36893 2.34462 0
M  V30 3241 C 293.888 3.49298 0.867122 0
M  V30 3242 C 293.496 4.47092 -0.285057 0
M  V30 3243 C 295.24 3.97983 1.47683 0
M  V30 3244 C 293.147 5.91225 0.143862 0
M  V30 3245 H 292.077 0.733394 0.175071 0
M  V30 3246 H 294.728 1.81448 -0.273624 0
M  V30 3247 H 293.11 3.59731 1.65559 0
M  V30 3248 H 294.284 4.48383 -1.0625 0
M  V30 3249 H 292.599 4.08535 -0.805503 0
M  V30 3250 H 295.196 5.03134 1.80999 0
M  V30 3251 H 295.539 3.41618 2.37914 0
M  V30 3252 H 296.072 3.90617 0.752562 0
M  V30 3253 H 292.811 6.5149 -0.723974 0
M  V30 3254 H 292.331 5.93214 0.886413 0
M  V30 3255 H 294.01 6.44362 0.583628 0
M  V30 3256 N 294.142 -0.090211 1.57342 0
M  V30 3257 C 295.089 -1.10909 2.02405 0
M  V30 3258 C 296.059 -1.39523 0.901252 0
M  V30 3259 O 297.244 -1.50903 1.1676 0
M  V30 3260 C 294.384 -2.42277 2.45755 0
M  V30 3261 C 293.497 -2.20352 3.71576 0
M  V30 3262 C 292.632 -3.45154 4.03785 0
M  V30 3263 C 291.671 -3.18512 5.22701 0
M  V30 3264 N 290.808 -4.35593 5.50639 0
M  V30 3265 H 295.648 -0.71782 2.89225 0
M  V30 3266 H 293.185 -0.342901 1.43048 0
M  V30 3267 H 295.143 -3.18951 2.68935 0
M  V30 3268 H 293.773 -2.79242 1.61938 0
M  V30 3269 H 292.825 -1.34458 3.55844 0
M  V30 3270 H 294.137 -1.96661 4.58395 0
M  V30 3271 H 293.291 -4.30233 4.27767 0
M  V30 3272 H 292.03 -3.71904 3.15498 0
M  V30 3273 H 291.035 -2.31827 4.98534 0
M  V30 3274 H 292.26 -2.93103 6.12591 0
M  V30 3275 H 290.206 -4.6241 4.6531 0
M  V30 3276 H 290.123 -4.1511 6.31838 0
M  V30 3277 H 291.391 -5.21723 5.7916 0
M  V30 3278 N 295.62 -1.53406 -0.361157 0
M  V30 3279 C 296.568 -1.80832 -1.46296 0
M  V30 3280 C 297.562 -0.677699 -1.55253 0
M  V30 3281 O 298.768 -0.860723 -1.58087 0
M  V30 3282 H 295.143 -0.572627 -0.487445 0
M  V30 3283 H 297.114 -2.73045 -1.20371 0
M  V30 3284 C 295.863 -2.01907 -2.8307 0
M  V30 3285 H 295.186 -2.88349 -2.76938 0
M  V30 3286 H 296.626 -2.25072 -3.59331 0
M  V30 3287 C 295.085 -0.799449 -3.27277 0
M  V30 3288 O 295.615 0.00971761 -4.01699 0
M  V30 3289 N 293.821 -0.621637 -2.83873 0
M  V30 3290 H 293.368 -1.28126 -2.23476 0
M  V30 3291 H 293.326 0.19298 -3.13807 0
M  V30 3292 N 297.098 0.621204 -1.44841 0
M  V30 3293 C 298.328 1.40548 -1.51426 0
M  V30 3294 C 298.736 1.88673 -0.141083 0
M  V30 3295 O 298.079 1.62053 0.865128 0
M  V30 3296 C 298.141 2.65325 -2.42576 0
M  V30 3297 C 297.805 2.3893 -3.89566 0
M  V30 3298 C 298.802 2.00138 -4.79834 0
M  V30 3299 C 296.487 2.52263 -4.3436 0
M  V30 3300 C 298.481 1.75021 -6.129 0
M  V30 3301 C 296.168 2.2676 -5.67471 0
M  V30 3302 C 297.166 1.88199 -6.56559 0
M  V30 3303 O 296.854 1.62986 -7.87204 0
M  V30 3304 H 296.586 0.437122 -0.515655 0
M  V30 3305 H 299.14 0.765987 -1.90583 0
M  V30 3306 H 297.37 3.31947 -1.98364 0
M  V30 3307 H 299.059 3.27347 -2.39998 0
M  V30 3308 H 299.825 1.89386 -4.46495 0
M  V30 3309 H 295.704 2.81246 -3.65269 0
M  V30 3310 H 299.248 1.44848 -6.82396 0
M  V30 3311 H 295.145 2.37125 -6.00368 0
M  V30 3312 H 295.913 1.7715 -7.991 0
M  V30 3313 N 298.576 1.31904 0.862503 0
M  V30 3314 C 299.825 1.21373 1.61094 0
M  V30 3315 C 300.138 -0.22504 1.94301 0
M  V30 3316 O 301.344 -0.452121 2.67709 0
M  V30 3317 C 299.8 2.12525 2.9045 0
M  V30 3318 C 299.408 3.61441 2.64697 0
M  V30 3319 C 301.152 2.10813 3.68454 0
M  V30 3320 C 299.059 4.44578 3.90006 0
M  V30 3321 H 297.989 0.450705 0.604468 0
M  V30 3322 H 300.64 1.56811 0.953027 0
M  V30 3323 H 299.022 1.69994 3.57656 0
M  V30 3324 H 300.196 4.12264 2.05851 0
M  V30 3325 H 298.511 3.65205 2.00036 0
M  V30 3326 H 301.108 2.70167 4.61426 0
M  V30 3327 H 301.451 1.09713 4.01583 0
M  V30 3328 H 301.984 2.51583 3.08141 0
M  V30 3329 H 298.723 5.46461 3.62023 0
M  V30 3330 H 298.243 3.98508 4.48276 0
M  V30 3331 H 299.922 4.57176 4.5782 0
M  V30 3332 N 300.054 -1.07777 1.14986 0
M  V30 3333 C 301.282 -1.84018 0.945773 0
M  V30 3334 C 301.697 -1.81897 -0.505863 0
M  V30 3335 O 301.054 -1.22726 -1.35072 0
M  V30 3336 C 301.105 -3.31287 1.44677 0
M  V30 3337 O 300.826 -3.33449 2.84154 0
M  V30 3338 C 302.327 -4.24311 1.28355 0
M  V30 3339 H 299.547 -0.580716 0.336169 0
M  V30 3340 H 302.091 -1.36077 1.52654 0
M  V30 3341 H 300.246 -3.76594 0.908625 0
M  V30 3342 H 300.66 -4.25427 3.06777 0
M  V30 3343 H 302.134 -5.2573 1.68261 0
M  V30 3344 H 302.611 -4.38612 0.227184 0
M  V30 3345 H 303.217 -3.84836 1.81056 0
M  V30 3346 N 301.532 -0.945985 -1.26051 0
M  V30 3347 C 302.48 -0.450259 -2.282 0
M  V30 3348 C 303.474 0.47497 -1.62605 0
M  V30 3349 O 304.68 0.352653 -1.76512 0
M  V30 3350 H 301.055 -0.127081 -0.741184 0
M  V30 3351 H 303.026 -1.32422 -2.67408 0
M  V30 3352 C 301.775 0.26467 -3.46691 0
M  V30 3353 H 301.098 -0.438123 -3.97392 0
M  V30 3354 H 302.538 0.575678 -4.20074 0
M  V30 3355 C 300.997 1.48416 -3.02447 0
M  V30 3356 O 301.527 2.58227 -3.07704 0
M  V30 3357 N 299.733 1.34243 -2.57735 0
M  V30 3358 H 299.28 0.448994 -2.53657 0
M  V30 3359 H 299.238 2.15957 -2.28495 0
M  V30 3360 N 303.011 1.40521 -0.713556 0
M  V30 3361 C 304.427 1.54839 -0.386907 0
M  V30 3362 C 304.627 1.68532 1.1045 0
M  V30 3363 O 303.683 1.67377 1.89053 0
M  V30 3364 C 304.996 2.77792 -1.15118 0
M  V30 3365 C 306.544 2.91607 -1.13729 0
M  V30 3366 C 307.019 4.1747 -1.88368 0
M  V30 3367 N 308.51 4.24466 -1.85427 0
M  V30 3368 C 309.245 5.20755 -2.40004 0
M  V30 3369 N 308.741 6.22965 -3.03129 0
M  V30 3370 N 310.534 5.1282 -2.30158 0
M  V30 3371 H 302.685 1.29879 -1.68063 0
M  V30 3372 H 304.948 0.627896 -0.710247 0
M  V30 3373 H 304.654 2.73944 -2.20561 0
M  V30 3374 H 304.528 3.6984 -0.741477 0
M  V30 3375 H 306.915 2.94959 -0.0910608 0
M  V30 3376 H 306.996 2.00682 -1.5862 0
M  V30 3377 H 306.64 4.1488 -2.9298 0
M  V30 3378 H 306.57 5.074 -1.40898 0
M  V30 3379 H 309.061 3.51241 -1.3942 0
M  V30 3380 H 309.374 6.92859 -3.42295 0
M  V30 3381 H 307.719 6.23415 -3.07212 0
M  V30 3382 H 310.91 4.31899 -1.80501 0
M  V30 3383 H 311.083 5.87689 -2.72993 0
M  V30 3384 N 304.489 0.459591 1.5075 0
M  V30 3385 C 305.436 -0.340524 2.28274 0
M  V30 3386 C 306.406 -0.997371 1.32822 0
M  V30 3387 O 307.591 -1.01202 1.61749 0
M  V30 3388 C 304.731 -1.42317 3.14388 0
M  V30 3389 C 303.844 -0.782251 4.24859 0
M  V30 3390 C 302.979 -1.84182 4.98247 0
M  V30 3391 C 302.018 -1.18053 6.00608 0
M  V30 3392 N 301.155 -2.18244 6.67319 0
M  V30 3393 H 305.995 0.326899 2.96202 0
M  V30 3394 H 303.532 0.173057 1.46078 0
M  V30 3395 H 305.49 -2.06241 3.62658 0
M  V30 3396 H 304.12 -2.05992 2.4853 0
M  V30 3397 H 303.172 -0.0307404 3.80388 0
M  V30 3398 H 304.484 -0.259663 4.98124 0
M  V30 3399 H 303.638 -2.55714 5.50177 0
M  V30 3400 H 302.377 -2.39819 4.24662 0
M  V30 3401 H 301.382 -0.450776 5.47949 0
M  V30 3402 H 302.607 -0.631202 6.7616 0
M  V30 3403 H 300.553 -2.72919 5.96533 0
M  V30 3404 H 300.47 -1.70938 7.36421 0
M  V30 3405 H 301.738 -2.89191 7.23871 0
M  V30 3406 N 305.967 -1.56429 0.191757 0
M  V30 3407 C 306.877 -2.22541 -0.742481 0
M  V30 3408 C 307.893 -1.22342 -1.23727 0
M  V30 3409 O 309.069 -1.55069 -1.28513 0
M  V30 3410 C 306.134 -2.8692 -1.94623 0
M  V30 3411 C 305.195 -4.02378 -1.49633 0
M  V30 3412 C 304.428 -4.63678 -2.6427 0
M  V30 3413 O 304.651 -4.23895 -3.81666 0
M  V30 3414 O 303.585 -5.53202 -2.37174 0
M  V30 3415 H 307.411 -3.02977 -0.209462 0
M  V30 3416 H 304.996 -1.49353 -0.0373832 0
M  V30 3417 H 306.878 -3.27663 -2.64982 0
M  V30 3418 H 305.553 -2.09466 -2.46791 0
M  V30 3419 H 304.46 -3.66265 -0.761636 0
M  V30 3420 H 305.793 -4.81487 -1.02134 0
M  V30 3421 N 307.445 0.0818655 -1.57387 0
M  V30 3422 C 308.67 0.799946 -1.91352 0
M  V30 3423 C 309.095 1.70833 -0.787258 0
M  V30 3424 O 308.453 1.79419 0.26048 0
M  V30 3425 C 308.501 1.57812 -3.24234 0
M  V30 3426 O 307.605 2.68806 -3.12757 0
M  V30 3427 H 306.946 0.21891 -0.626877 0
M  V30 3428 H 309.476 0.0531256 -2.04531 0
M  V30 3429 H 309.486 1.95952 -3.57864 0
M  V30 3430 H 308.161 0.911548 -4.05788 0
M  V30 3431 H 306.738 2.33597 -2.90666 0
M  V30 3432 N 308.923 1.53595 0.353017 0
M  V30 3433 C 310.169 1.70638 1.09593 0
M  V30 3434 C 310.502 0.463286 1.88593 0
M  V30 3435 O 309.777 -0.539597 1.86865 0
M  V30 3436 C 310.06 2.96406 2.04489 0
M  V30 3437 C 309.913 4.30901 1.29014 0
M  V30 3438 C 311.232 3.17812 3.0444 0
M  V30 3439 H 308.351 0.620913 0.397034 0
M  V30 3440 H 310.993 1.86254 0.375446 0
M  V30 3441 H 309.143 2.83223 2.65927 0
M  V30 3442 H 310.815 4.55917 0.702638 0
M  V30 3443 H 309.058 4.29741 0.592071 0
M  V30 3444 H 309.729 5.1506 1.98537 0
M  V30 3445 H 312.205 3.30263 2.53112 0
M  V30 3446 H 311.081 4.07223 3.6805 0
M  V30 3447 H 311.342 2.33669 3.75301 0
M  V30 3448 N 310.401 -0.613514 1.45168 0
M  V30 3449 C 311.631 -1.39743 1.52169 0
M  V30 3450 C 312.039 -1.88596 0.151086 0
M  V30 3451 O 311.382 -1.6251 -0.856521 0
M  V30 3452 C 311.444 -2.64035 2.43979 0
M  V30 3453 C 311.108 -2.36861 3.90827 0
M  V30 3454 C 312.105 -1.97591 4.80889 0
M  V30 3455 C 309.79 -2.49956 4.35692 0
M  V30 3456 C 311.784 -1.71768 6.1382 0
M  V30 3457 C 309.471 -2.23747 5.68665 0
M  V30 3458 C 310.469 -1.84714 6.57548 0
M  V30 3459 O 310.157 -1.58809 7.88058 0
M  V30 3460 H 309.889 -0.434382 0.517966 0
M  V30 3461 H 312.443 -0.75587 1.90986 0
M  V30 3462 H 310.673 -3.3089 2.00122 0
M  V30 3463 H 312.362 -3.26069 2.41731 0
M  V30 3464 H 313.128 -1.87015 4.47493 0
M  V30 3465 H 309.007 -2.79305 3.66756 0
M  V30 3466 H 312.551 -1.41227 6.83155 0
M  V30 3467 H 308.448 -2.33938 6.01617 0
M  V30 3468 H 309.216 -1.7291 8.00028 0
M  V30 3469 O 311.918 -1.42644 -0.757294 0
M  V30 3470 H 312.609 -1.33267 -1.40569 0
M  V30 END ATOM
M  V30 BEGIN BOND
M  V30 END BOND
M  V30 END CTAB
M  END
$$$$
