drugbank_target|Q96AZ6 Interferon-stimulated gene 20 kDa protein (DB03685)
 OpenBabel12092120023D

  0  0  0     0  0            999 V3000
M  V30 BEGIN CTAB
M  V30 COUNTS 7346 7889 0 0 0
M  V30 BEGIN ATOM
M  V30 1 H -1.547 9.37743 -1.21644 0
M  V30 2 O -1.44 8.89599 -0.40059 0
M  V30 3 P 0 8.91 0 0
M  V30 4 O 0.22 10.1746 0.733838 0
M  V30 5 O 0.79 8.73346 -1.23964 0
M  V30 6 O 0.25 7.66872 0.971405 0
M  V30 7 C -0.69 7.42405 2.04668 0
M  V30 8 C 0.04 6.86059 3.24661 0
M  V30 9 O 0.25 5.42934 3.03695 0
M  V30 10 C 1.44 7.41287 3.50796 0
M  V30 11 O 1.83 7.27073 4.86816 0
M  V30 12 C 2.32 6.5273 2.63741 0
M  V30 13 C 1.61 5.1842 2.73198 0
M  V30 14 N 1.66 4.38762 1.4784 0
M  V30 15 H -1.178 8.36899 2.3252 0
M  V30 16 H -1.45 6.70391 1.71179 0
M  V30 17 H -0.582 7.03638 4.13219 0
M  V30 18 H 2.073 4.59931 3.54016 0
M  V30 19 H 2.353 6.88995 1.59871 0
M  V30 20 H 3.344 6.4684 3.0373 0
M  V30 21 H 1.51 8.47002 3.20749 0
M  V30 22 P 3.37998 7.20834 5.23717 0
M  V30 23 O 3.59998 7.80006 6.57415 0
M  V30 24 O 4.16998 7.79416 4.13051 0
M  V30 25 O 3.62998 5.63315 5.29344 0
M  V30 26 C 2.68998 4.80318 6.01954 0
M  V30 27 C 3.41998 3.64202 6.65911 0
M  V30 28 O 3.62998 2.60736 5.64823 0
M  V30 29 C 4.81998 3.93521 7.19518 0
M  V30 30 O 5.20998 3.02071 8.21205 0
M  V30 31 C 5.69998 3.73047 5.97036 0
M  V30 32 C 4.98998 2.58828 5.25741 0
M  V30 33 N 5.03998 2.68068 3.77503 0
M  V30 34 C 4.95998 3.80474 2.99159 0
M  V30 35 N 5.02998 3.55622 1.71925 0
M  V30 36 C 5.17998 2.1832 1.65733 0
M  V30 37 C 5.30998 1.28842 0.572777 0
M  V30 38 N 5.31998 1.66875 -0.70098 0
M  V30 39 N 5.42998 -0.016788 0.859836 0
M  V30 40 C 5.41998 -0.398145 2.13316 0
M  V30 41 N 5.29998 0.328224 3.22333 0
M  V30 42 C 5.17998 1.62992 2.90383 0
M  V30 43 H 2.20198 5.40394 6.8003 0
M  V30 44 H 1.92998 4.41741 5.32532 0
M  V30 45 H 2.79798 3.26371 7.47889 0
M  V30 46 H 5.45298 1.64007 5.56746 0
M  V30 47 H 5.73298 4.63439 5.3432 0
M  V30 48 H 6.72398 3.44776 6.25925 0
M  V30 49 H 4.88998 4.96707 7.57347 0
M  V30 50 H 4.84898 4.8089 3.39924 0
M  V30 51 H 5.22998 2.66547 -0.941919 0
M  V30 52 H 5.41898 0.965341 -1.44766 0
M  V30 53 H 5.52698 -1.46427 2.29697 0
M  V30 54 P 6.75996 2.75334 8.47391 0
M  V30 55 O 6.97996 2.44571 9.90142 0
M  V30 56 O 7.54996 3.87688 7.92115 0
M  V30 57 O 7.00996 1.4459 7.59357 0
M  V30 58 C 6.06996 0.347608 7.69215 0
M  V30 59 C 6.79996 -0.96767 7.52806 0
M  V30 60 O 7.00996 -1.21036 6.1011 0
M  V30 61 C 8.19996 -1.04544 8.13308 0
M  V30 62 O 8.58996 -2.38311 8.41922 0
M  V30 63 C 9.07996 -0.491279 7.02284 0
M  V30 64 C 8.36996 -0.996264 5.77469 0
M  V30 65 N 8.41996 -0.0501916 4.62973 0
M  V30 66 C 8.33996 1.32786 4.63244 0
M  V30 67 N 8.41996 1.86957 3.44545 0
M  V30 68 C 8.55996 0.780241 2.58481 0
M  V30 69 C 8.68996 0.738536 1.17757 0
M  V30 70 O 8.70996 1.66794 0.372349 0
M  V30 71 N 8.80996 -0.58337 0.711393 0
M  V30 72 C 8.80996 -1.70816 1.51017 0
M  V30 73 N 8.93996 -2.87826 0.880757 0
M  V30 74 N 8.67996 -1.67126 2.8339 0
M  V30 75 C 8.55996 -0.401421 3.30572 0
M  V30 76 H 5.58096 0.374722 8.67691 0
M  V30 77 H 5.31096 0.443485 6.90277 0
M  V30 78 H 6.17796 -1.75537 7.96793 0
M  V30 79 H 8.83296 -1.95076 5.46529 0
M  V30 80 H 9.11196 0.608565 7.04577 0
M  V30 81 H 10.104 -0.889672 7.08939 0
M  V30 82 H 8.26996 -0.43308 9.04564 0
M  V30 83 H 8.22096 1.91249 5.54442 0
M  V30 84 H 8.90296 -0.718054 -0.275244 0
M  V30 85 H 8.93996 -3.75721 1.41832 0
M  V30 86 H 9.04096 -2.90436 -0.145468 0
M  V30 87 P 10.1399 -2.75334 8.47391 0
M  V30 88 O 10.3599 -3.84128 9.44797 0
M  V30 89 O 10.9299 -1.51947 8.68712 0
M  V30 90 O 10.3899 -3.29363 6.99321 0
M  V30 91 C 9.44994 -4.24011 6.4274 0
M  V30 92 C 10.1799 -5.20775 5.52155 0
M  V30 93 O 10.3899 -4.56534 4.22446 0
M  V30 94 C 11.5799 -5.62629 5.96531 0
M  V30 95 O 11.9699 -6.87667 5.41053 0
M  V30 96 C 12.4599 -4.52537 5.39283 0
M  V30 97 C 11.7499 -4.20027 4.08623 0
M  V30 98 N 11.7999 -2.76189 3.71603 0
M  V30 99 H 8.96094 -4.797 7.24003 0
M  V30 100 H 8.69094 -3.69856 5.84513 0
M  V30 101 H 9.55794 -6.10356 5.41441 0
M  V30 102 P 13.5199 -7.20834 5.23717 0
M  V30 103 O 13.7399 -8.66104 5.38572 0
M  V30 104 O 14.3099 -6.33544 6.1349 0
M  V30 105 O 13.7699 -6.7751 3.72168 0
M  V30 106 C 12.8299 -7.20825 2.7076 0
M  V30 107 C 13.5599 -7.45864 1.40599 0
M  V30 108 O 13.7699 -6.17651 0.734225 0
M  V30 109 C 14.9599 -8.05808 1.51899 0
M  V30 110 O 15.3499 -8.74358 0.335205 0
M  V30 111 C 15.8399 -6.83093 1.70294 0
M  V30 112 C 15.1299 -5.79992 0.836974 0
M  V30 113 N 15.1799 -4.41864 1.38293 0
M  V30 114 C 15.0999 -3.99538 2.69438 0
M  V30 115 N 15.1799 -2.69909 2.84277 0
M  V30 116 C 15.3199 -2.21719 1.5408 0
M  V30 117 C 15.4499 -0.891712 1.06628 0
M  V30 118 N 15.5699 -0.856846 -0.334985 0
M  V30 119 C 15.5699 -1.9641 -1.15789 0
M  V30 120 N 15.6999 -1.72708 -2.46522 0
M  V30 121 N 15.4399 -3.21165 -0.713741 0
M  V30 122 C 15.3199 -3.26797 0.639748 0
M  V30 123 H 12.3409 -8.13644 3.0377 0
M  V30 124 H 12.0709 -6.42788 2.55485 0
M  V30 125 H 12.9379 -8.12039 0.792769 0
M  V30 126 P 16.8999 -8.91 1.09116e-15 0
M  V30 127 O 17.1199 -10.1726 -0.733694 0
M  V30 128 O 17.6899 -8.73148 1.23936 0
M  V30 129 O 17.1499 -7.66872 -0.971405 0
M  V30 130 C 16.2099 -7.42309 -2.04641 0
M  V30 131 C 16.9399 -6.86059 -3.24661 0
M  V30 132 O 17.1499 -5.42847 -3.03646 0
M  V30 133 C 18.3399 -7.41196 -3.50753 0
M  V30 134 O 18.7299 -7.27073 -4.86816 0
M  V30 135 C 19.2199 -6.5273 -2.63741 0
M  V30 136 C 18.5099 -5.1842 -2.73198 0
M  V30 137 N 18.5599 -4.38762 -1.4784 0
M  V30 138 H 15.7209 -8.36803 -2.32493 0
M  V30 139 H 15.4509 -6.70197 -1.71129 0
M  V30 140 H 16.3179 -7.03551 -4.13168 0
M  V30 141 P 20.2799 -7.20834 -5.23717 0
M  V30 142 O 20.4999 -7.79853 -6.57286 0
M  V30 143 O 21.0699 -7.79239 -4.12957 0
M  V30 144 O 20.5299 -5.63315 -5.29344 0
M  V30 145 C 19.5899 -4.80255 -6.01876 0
M  V30 146 C 20.3199 -3.64202 -6.65911 0
M  V30 147 O 20.5299 -2.60694 -5.64732 0
M  V30 148 C 21.7199 -3.93473 -7.1943 0
M  V30 149 O 22.1099 -3.02071 -8.21205 0
M  V30 150 C 22.5999 -3.73047 -5.97036 0
M  V30 151 C 21.8899 -2.58828 -5.25741 0
M  V30 152 N 21.9399 -2.68068 -3.77503 0
M  V30 153 H 19.1009 -5.40332 -6.79951 0
M  V30 154 H 18.8309 -4.41613 -5.32378 0
M  V30 155 H 19.6979 -3.26331 -7.47797 0
M  V30 156 P 23.6599 -2.75334 -8.47391 0
M  V30 157 O 23.8799 -2.44571 -9.90142 0
M  V30 158 O 24.4499 -3.87688 -7.92115 0
M  V30 159 O 23.9099 -1.4459 -7.59357 0
M  V30 160 C 22.9699 -0.347608 -7.69215 0
M  V30 161 C 23.6999 0.96767 -7.52806 0
M  V30 162 O 23.9099 1.21036 -6.1011 0
M  V30 163 C 25.0999 1.04544 -8.13308 0
M  V30 164 O 25.4899 2.38311 -8.41922 0
M  V30 165 C 25.9799 0.491279 -7.02284 0
M  V30 166 C 25.2699 0.996264 -5.77469 0
M  V30 167 N 25.3199 0.0501916 -4.62973 0
M  V30 168 H 22.4809 -0.374722 -8.67691 0
M  V30 169 H 22.2109 -0.443485 -6.90277 0
M  V30 170 H 23.0779 1.75537 -7.96793 0
M  V30 171 P 27.0398 2.75334 -8.47391 0
M  V30 172 O 27.2598 3.84204 -9.44982 0
M  V30 173 O 27.8298 1.51982 -8.68909 0
M  V30 174 O 27.2898 3.29363 -6.99321 0
M  V30 175 C 26.3498 4.24066 -6.42823 0
M  V30 176 C 27.0798 5.20775 -5.52155 0
M  V30 177 O 27.2898 4.56607 -4.22514 0
M  V30 178 C 28.4798 5.62697 -5.96604 0
M  V30 179 O 28.8698 6.87667 -5.41053 0
M  V30 180 C 29.3598 4.52537 -5.39283 0
M  V30 181 C 28.6498 4.20027 -4.08623 0
M  V30 182 N 28.6998 2.76189 -3.71603 0
M  V30 183 C 28.6198 1.66944 -4.54297 0
M  V30 184 N 28.6898 0.536169 -3.91344 0
M  V30 185 C 28.8398 0.901569 -2.58849 0
M  V30 186 C 28.9698 0.146599 -1.40236 0
M  V30 187 N 28.9798 -1.18234 -1.37046 0
M  V30 188 N 29.0898 0.822941 -0.249738 0
M  V30 189 C 29.0798 2.15179 -0.280525 0
M  V30 190 N 28.9598 2.96414 -1.30822 0
M  V30 191 C 28.8398 2.25804 -2.44748 0
M  V30 192 H 25.8618 4.79756 -7.24086 0
M  V30 193 H 25.5898 3.69963 -5.84682 0
M  V30 194 H 26.4578 6.10431 -5.41508 0
M  V30 195 H 29.1128 4.78816 -3.28024 0
M  V30 196 H 29.3928 3.64957 -6.05871 0
M  V30 197 H 30.3838 4.88748 -5.21323 0
M  V30 198 H 28.5498 5.66789 -7.0643 0
M  V30 199 H 28.5088 1.74684 -5.62396 0
M  V30 200 H 28.8898 -1.71949 -2.24394 0
M  V30 201 H 29.0788 -1.67511 -0.470742 0
M  V30 202 H 29.1868 2.63704 0.6828 0
M  V30 203 P 30.4198 7.20834 -5.23717 0
M  V30 204 O 30.6398 8.66274 -5.38678 0
M  V30 205 O 31.2098 6.33687 -6.13629 0
M  V30 206 O 30.6698 6.7751 -3.72168 0
M  V30 207 C 29.7298 7.20919 -2.70795 0
M  V30 208 C 30.4598 7.45864 -1.40599 0
M  V30 209 O 30.6698 6.17751 -0.734343 0
M  V30 210 C 31.8598 8.05906 -1.51917 0
M  V30 211 O 32.2498 8.74358 -0.335205 0
M  V30 212 C 32.7398 6.83093 -1.70294 0
M  V30 213 C 32.0298 5.79992 -0.836974 0
M  V30 214 N 32.0798 4.41864 -1.38293 0
M  V30 215 H 29.2418 8.13738 -3.03804 0
M  V30 216 H 28.9698 6.42974 -2.55559 0
M  V30 217 H 29.8378 8.12139 -0.792866 0
M  V30 218 H 32.4928 5.80178 0.160643 0
M  V30 219 H 32.7728 6.51379 -2.75643 0
M  V30 220 H 33.7638 7.01832 -1.3448 0
M  V30 221 H 31.9298 8.73771 -2.38364 0
M  V30 222 P 33.7998 8.91 -2.18232e-15 0
M  V30 223 O 34.0198 10.1726 0.733694 0
M  V30 224 O 34.5898 8.73148 -1.23936 0
M  V30 225 O 34.0498 7.66872 0.971405 0
M  V30 226 C 33.1098 7.42309 2.04641 0
M  V30 227 C 33.8398 6.86059 3.24661 0
M  V30 228 O 34.0498 5.42847 3.03646 0
M  V30 229 C 35.2398 7.41196 3.50753 0
M  V30 230 O 35.6298 7.27073 4.86816 0
M  V30 231 C 36.1198 6.5273 2.63741 0
M  V30 232 C 35.4098 5.1842 2.73198 0
M  V30 233 N 35.4598 4.38762 1.4784 0
M  V30 234 H 32.6208 8.36803 2.32493 0
M  V30 235 H 32.3508 6.70197 1.71129 0
M  V30 236 H 33.2178 7.03551 4.13168 0
M  V30 237 P 37.1798 7.20834 5.23717 0
M  V30 238 O 37.3998 7.7993 6.57351 0
M  V30 239 O 37.9698 7.79328 4.13004 0
M  V30 240 O 37.4298 5.63315 5.29344 0
M  V30 241 C 36.4898 4.80255 6.01876 0
M  V30 242 C 37.2198 3.64202 6.65911 0
M  V30 243 O 37.4298 2.60694 5.64732 0
M  V30 244 C 38.6198 3.93473 7.1943 0
M  V30 245 O 39.0098 3.02071 8.21205 0
M  V30 246 C 39.4998 3.73047 5.97036 0
M  V30 247 C 38.7898 2.58828 5.25741 0
M  V30 248 N 38.8398 2.6801 3.77422 0
M  V30 249 C 38.9898 1.50173 3.05038 0
M  V30 250 O 39.0798 0.428832 3.665 0
M  V30 251 N 39.0398 1.70922 1.55541 0
M  V30 252 C 38.9398 2.7407 1.06402 0
M  V30 253 N 38.9898 2.74764 -0.260931 0
M  V30 254 C 38.7898 3.96781 1.78296 0
M  V30 255 C 38.7398 3.87909 3.13891 0
M  V30 256 H 35.9998 5.4027 6.79873 0
M  V30 257 H 35.7308 4.41549 5.32301 0
M  V30 258 H 36.5978 3.26371 7.47889 0
M  V30 259 H 39.2528 1.63978 5.5665 0
M  V30 260 H 39.5318 4.63439 5.3432 0
M  V30 261 H 40.5238 3.44728 6.25838 0
M  V30 262 H 38.6898 4.96652 7.57263 0
M  V30 263 H 38.6178 4.78425 3.73088 0
M  V30 264 H 38.7198 4.92593 1.26997 0
M  V30 265 H 39.1078 1.86285 -0.77595 0
M  V30 266 H 38.9108 3.63657 -0.773896 0
M  V30 267 P 40.5598 2.75334 8.47391 0
M  V30 268 O 40.7798 2.44571 9.90142 0
M  V30 269 O 41.3498 3.87688 7.92115 0
M  V30 270 O 40.8098 1.4459 7.59357 0
M  V30 271 C 39.8698 0.347608 7.69215 0
M  V30 272 C 40.5998 -0.96767 7.52806 0
M  V30 273 O 40.8098 -1.21036 6.1011 0
M  V30 274 C 41.9998 -1.04544 8.13308 0
M  V30 275 O 42.3898 -2.38311 8.41922 0
M  V30 276 C 42.8798 -0.491279 7.02284 0
M  V30 277 C 42.1698 -0.996264 5.77469 0
M  V30 278 N 42.2198 -0.0501916 4.62973 0
M  V30 279 H 39.3808 0.374722 8.67691 0
M  V30 280 H 39.1108 0.443485 6.90277 0
M  V30 281 H 39.9778 -1.75537 7.96793 0
M  V30 282 P 43.9397 -2.75334 8.47391 0
M  V30 283 O 44.1597 -3.84204 9.44982 0
M  V30 284 O 44.7297 -1.51982 8.68909 0
M  V30 285 O 44.1897 -3.29363 6.99321 0
M  V30 286 C 43.2497 -4.24066 6.42823 0
M  V30 287 C 43.9797 -5.20775 5.52155 0
M  V30 288 O 44.1897 -4.56607 4.22514 0
M  V30 289 C 45.3797 -5.62697 5.96604 0
M  V30 290 O 45.7697 -6.87667 5.41053 0
M  V30 291 C 46.2597 -4.52537 5.39283 0
M  V30 292 C 45.5497 -4.20027 4.08623 0
M  V30 293 N 45.5997 -2.76189 3.71603 0
M  V30 294 H 42.7617 -4.79756 7.24086 0
M  V30 295 H 42.4897 -3.69963 5.84682 0
M  V30 296 H 43.3577 -6.10431 5.41508 0
M  V30 297 H 46.0127 -4.78816 3.28024 0
M  V30 298 H 46.2927 -3.64957 6.05871 0
M  V30 299 H 47.2837 -4.88748 5.21323 0
M  V30 300 H 45.4497 -5.66789 7.0643 0
M  V30 301 P 47.3197 -7.20834 5.23717 0
M  V30 302 O 47.5397 -8.66104 5.38572 0
M  V30 303 O 48.1097 -6.33544 6.1349 0
M  V30 304 O 47.5697 -6.7751 3.72168 0
M  V30 305 C 46.6297 -7.20825 2.7076 0
M  V30 306 C 47.3597 -7.45864 1.40599 0
M  V30 307 O 47.5697 -6.17651 0.734225 0
M  V30 308 C 48.7597 -8.05808 1.51899 0
M  V30 309 O 49.1497 -8.74358 0.335205 0
M  V30 310 C 49.6397 -6.83093 1.70294 0
M  V30 311 C 48.9297 -5.79992 0.836974 0
M  V30 312 N 48.9797 -4.41864 1.38293 0
M  V30 313 H 46.1407 -8.13644 3.0377 0
M  V30 314 H 45.8707 -6.42788 2.55485 0
M  V30 315 H 46.7377 -8.12039 0.792769 0
M  V30 316 P 50.6997 -8.91 3.27348e-15 0
M  V30 317 O 50.9197 -10.1726 -0.733694 0
M  V30 318 O 51.4897 -8.73148 1.23936 0
M  V30 319 O 50.9497 -7.66872 -0.971405 0
M  V30 320 C 50.0097 -7.42309 -2.04641 0
M  V30 321 C 50.7397 -6.86059 -3.24661 0
M  V30 322 O 50.9497 -5.42847 -3.03646 0
M  V30 323 C 52.1397 -7.41196 -3.50753 0
M  V30 324 O 52.5297 -7.27073 -4.86816 0
M  V30 325 C 53.0197 -6.5273 -2.63741 0
M  V30 326 C 52.3097 -5.1842 -2.73198 0
M  V30 327 N 52.3597 -4.38762 -1.4784 0
M  V30 328 C 52.2797 -4.81605 -0.168631 0
M  V30 329 N 52.3597 -3.85454 0.713363 0
M  V30 330 C 52.4997 -2.6994 -0.0566958 0
M  V30 331 C 52.6297 -1.34815 0.338502 0
M  V30 332 O 52.6497 -0.869548 1.47125 0
M  V30 333 N 52.7497 -0.496304 -0.77465 0
M  V30 334 C 52.7497 -0.908403 -2.09122 0
M  V30 335 N 52.8797 0.0517805 -3.00955 0
M  V30 336 N 52.6197 -2.17875 -2.46519 0
M  V30 337 C 52.4997 -3.01988 -1.4033 0
M  V30 338 H 49.5207 -8.36803 -2.32493 0
M  V30 339 H 49.2507 -6.70197 -1.71129 0
M  V30 340 H 50.1177 -7.03551 -4.13168 0
M  V30 341 H 52.7727 -4.59498 -3.54415 0
M  V30 342 H 53.0517 -6.88898 -1.59848 0
M  V30 343 H 54.0437 -6.46749 -3.03687 0
M  V30 344 H 52.2097 -8.46908 -3.20714 0
M  V30 345 H 52.1607 -5.86405 0.105564 0
M  V30 346 H 52.8427 0.483664 -0.597855 0
M  V30 347 H 52.8797 -0.187865 -4.0116 0
M  V30 348 H 52.9807 1.03585 -2.71726 0
M  V30 349 P 54.0797 -7.20834 -5.23717 0
M  V30 350 O 54.2997 -7.79853 -6.57286 0
M  V30 351 O 54.8697 -7.79239 -4.12957 0
M  V30 352 O 54.3297 -5.63315 -5.29344 0
M  V30 353 C 53.3897 -4.80255 -6.01876 0
M  V30 354 C 54.1197 -3.64202 -6.65911 0
M  V30 355 O 54.3297 -2.60694 -5.64732 0
M  V30 356 C 55.5197 -3.93473 -7.1943 0
M  V30 357 O 55.9097 -3.02071 -8.21205 0
M  V30 358 C 56.3997 -3.73047 -5.97036 0
M  V30 359 C 55.6897 -2.58828 -5.25741 0
M  V30 360 N 55.7397 -2.68068 -3.77503 0
M  V30 361 H 52.9007 -5.40332 -6.79951 0
M  V30 362 H 52.6307 -4.41613 -5.32378 0
M  V30 363 H 53.4977 -3.26331 -7.47797 0
M  V30 364 P 57.4597 -2.75334 -8.47391 0
M  V30 365 O 57.6797 -2.44571 -9.90142 0
M  V30 366 O 58.2497 -3.87688 -7.92115 0
M  V30 367 O 57.7097 -1.4459 -7.59357 0
M  V30 368 C 56.7697 -0.347608 -7.69215 0
M  V30 369 C 57.4997 0.96767 -7.52806 0
M  V30 370 O 57.7097 1.21036 -6.1011 0
M  V30 371 C 58.8997 1.04544 -8.13308 0
M  V30 372 O 59.2897 2.38311 -8.41922 0
M  V30 373 C 59.7797 0.491279 -7.02284 0
M  V30 374 C 59.0697 0.996264 -5.77469 0
M  V30 375 N 59.1197 0.0501916 -4.62973 0
M  V30 376 C 59.0397 -1.32786 -4.63244 0
M  V30 377 N 59.1197 -1.86957 -3.44545 0
M  V30 378 C 59.2597 -0.780241 -2.58481 0
M  V30 379 C 59.3897 -0.738536 -1.17757 0
M  V30 380 O 59.4097 -1.66794 -0.372349 0
M  V30 381 N 59.5097 0.58337 -0.711393 0
M  V30 382 C 59.5097 1.70816 -1.51017 0
M  V30 383 N 59.6397 2.87826 -0.880757 0
M  V30 384 N 59.3797 1.67126 -2.8339 0
M  V30 385 C 59.2597 0.401421 -3.30572 0
M  V30 386 H 56.2807 -0.374722 -8.67691 0
M  V30 387 H 56.0107 -0.443485 -6.90277 0
M  V30 388 H 56.8777 1.75537 -7.96793 0
M  V30 389 H 59.5327 1.95076 -5.46529 0
M  V30 390 H 59.8117 -0.608565 -7.04577 0
M  V30 391 H 60.8037 0.889672 -7.08939 0
M  V30 392 H 58.9697 0.43308 -9.04564 0
M  V30 393 H 58.9207 -1.91249 -5.54442 0
M  V30 394 H 59.6027 0.718054 0.275244 0
M  V30 395 H 59.6397 3.75721 -1.41832 0
M  V30 396 H 59.7407 2.90436 0.145468 0
M  V30 397 P 60.8396 2.75334 -8.47391 0
M  V30 398 O 61.0596 3.84128 -9.44797 0
M  V30 399 O 61.6296 1.51947 -8.68712 0
M  V30 400 O 61.0896 3.29363 -6.99321 0
M  V30 401 C 60.1496 4.24011 -6.4274 0
M  V30 402 C 60.8796 5.20775 -5.52155 0
M  V30 403 O 61.0896 4.56534 -4.22446 0
M  V30 404 C 62.2796 5.62629 -5.96531 0
M  V30 405 O 62.6696 6.87667 -5.41053 0
M  V30 406 C 63.1596 4.52537 -5.39283 0
M  V30 407 C 62.4496 4.20027 -4.08623 0
M  V30 408 N 62.4996 2.76189 -3.71603 0
M  V30 409 H 59.6606 4.797 -7.24003 0
M  V30 410 H 59.3906 3.69856 -5.84513 0
M  V30 411 H 60.2576 6.10356 -5.41441 0
M  V30 412 P 64.2196 7.20834 -5.23717 0
M  V30 413 O 64.4396 8.66274 -5.38678 0
M  V30 414 O 65.0096 6.33687 -6.13629 0
M  V30 415 O 64.4696 6.7751 -3.72168 0
M  V30 416 C 63.5296 7.20919 -2.70795 0
M  V30 417 C 64.2596 7.45864 -1.40599 0
M  V30 418 O 64.4696 6.17751 -0.734343 0
M  V30 419 C 65.6596 8.05906 -1.51917 0
M  V30 420 O 66.0496 8.74358 -0.335205 0
M  V30 421 C 66.5396 6.83093 -1.70294 0
M  V30 422 C 65.8296 5.79992 -0.836974 0
M  V30 423 N 65.8796 4.41864 -1.38293 0
M  V30 424 H 63.0416 8.13738 -3.03804 0
M  V30 425 H 62.7696 6.42974 -2.55559 0
M  V30 426 H 63.6376 8.12139 -0.792866 0
M  V30 427 H 66.2926 5.80178 0.160643 0
M  V30 428 H 66.5726 6.51379 -2.75643 0
M  V30 429 H 67.5636 7.01832 -1.3448 0
M  V30 430 H 65.7296 8.73771 -2.38364 0
M  V30 431 P 67.5996 8.91 -4.36464e-15 0
M  V30 432 O 67.8196 10.1726 0.733694 0
M  V30 433 O 68.3896 8.73148 -1.23936 0
M  V30 434 O 67.8496 7.66872 0.971405 0
M  V30 435 C 66.9096 7.42309 2.04641 0
M  V30 436 C 67.6396 6.86059 3.24661 0
M  V30 437 O 67.8496 5.42847 3.03646 0
M  V30 438 C 69.0396 7.41196 3.50753 0
M  V30 439 O 69.4296 7.27073 4.86816 0
M  V30 440 C 69.9196 6.5273 2.63741 0
M  V30 441 C 69.2096 5.1842 2.73198 0
M  V30 442 N 69.2596 4.38762 1.4784 0
M  V30 443 C 69.1796 4.81605 0.168631 0
M  V30 444 N 69.2596 3.85454 -0.713363 0
M  V30 445 C 69.3996 2.6994 0.0566958 0
M  V30 446 C 69.5296 1.34815 -0.338502 0
M  V30 447 N 69.6496 0.496304 0.77465 0
M  V30 448 C 69.6496 0.908403 2.09122 0
M  V30 449 N 69.7796 -0.0517805 3.00955 0
M  V30 450 N 69.5196 2.17875 2.46519 0
M  V30 451 C 69.3996 3.01988 1.4033 0
M  V30 452 H 66.4206 8.36803 2.32493 0
M  V30 453 H 66.1506 6.70197 1.71129 0
M  V30 454 H 67.0176 7.03551 4.13168 0
M  V30 455 P 70.9796 7.20834 5.23717 0
M  V30 456 O 71.1996 7.79853 6.57286 0
M  V30 457 O 71.7696 7.79239 4.12957 0
M  V30 458 O 71.2296 5.63315 5.29344 0
M  V30 459 C 70.2896 4.80255 6.01876 0
M  V30 460 C 71.0196 3.64202 6.65911 0
M  V30 461 O 71.2296 2.60694 5.64732 0
M  V30 462 C 72.4196 3.93473 7.1943 0
M  V30 463 O 72.8096 3.02071 8.21205 0
M  V30 464 C 73.2996 3.73047 5.97036 0
M  V30 465 C 72.5896 2.58828 5.25741 0
M  V30 466 N 72.6396 2.68068 3.77503 0
M  V30 467 H 69.8006 5.40332 6.79951 0
M  V30 468 H 69.5306 4.41613 5.32378 0
M  V30 469 H 70.3976 3.26331 7.47797 0
M  V30 470 P 74.3596 2.75334 8.47391 0
M  V30 471 O 74.5796 2.44571 9.90142 0
M  V30 472 O 75.1496 3.87688 7.92115 0
M  V30 473 O 74.6096 1.4459 7.59357 0
M  V30 474 C 73.6696 0.347608 7.69215 0
M  V30 475 C 74.3996 -0.96767 7.52806 0
M  V30 476 O 74.6096 -1.21036 6.1011 0
M  V30 477 C 75.7996 -1.04544 8.13308 0
M  V30 478 O 76.1896 -2.38311 8.41922 0
M  V30 479 C 76.6796 -0.491279 7.02284 0
M  V30 480 C 75.9696 -0.996264 5.77469 0
M  V30 481 N 76.0196 -0.0501916 4.62973 0
M  V30 482 H 73.1806 0.374722 8.67691 0
M  V30 483 H 72.9106 0.443485 6.90277 0
M  V30 484 H 73.7776 -1.75537 7.96793 0
M  V30 485 P 77.7395 -2.75334 8.47391 0
M  V30 486 O 77.9595 -3.84128 9.44797 0
M  V30 487 O 78.5295 -1.51947 8.68712 0
M  V30 488 O 77.9895 -3.29363 6.99321 0
M  V30 489 C 77.0495 -4.24011 6.4274 0
M  V30 490 C 77.7795 -5.20775 5.52155 0
M  V30 491 O 77.9895 -4.56534 4.22446 0
M  V30 492 C 79.1795 -5.62629 5.96531 0
M  V30 493 O 79.5695 -6.87667 5.41053 0
M  V30 494 C 80.0595 -4.52537 5.39283 0
M  V30 495 C 79.3495 -4.20027 4.08623 0
M  V30 496 N 79.3995 -2.76189 3.71603 0
M  V30 497 C 79.3195 -1.64862 4.52822 0
M  V30 498 N 79.3995 -0.512671 3.88633 0
M  V30 499 C 79.5395 -0.888083 2.54977 0
M  V30 500 C 79.6695 -0.094668 1.38677 0
M  V30 501 O 79.6895 1.13053 1.28163 0
M  V30 502 N 79.7895 -0.890102 0.232633 0
M  V30 503 C 79.7895 -2.26958 0.21772 0
M  V30 504 N 79.9195 -2.84626 -0.97925 0
M  V30 505 N 79.6595 -3.0178 1.31033 0
M  V30 506 C 79.5395 -2.26781 2.43843 0
M  V30 507 H 76.5605 -4.797 7.24003 0
M  V30 508 H 76.2905 -3.69856 5.84513 0
M  V30 509 H 77.1575 -6.10356 5.41441 0
M  V30 510 H 79.8125 -4.79061 3.27488 0
M  V30 511 H 80.0915 -3.64906 6.05785 0
M  V30 512 H 81.0835 -4.8868 5.2125 0
M  V30 513 H 79.2495 -5.66726 7.06352 0
M  V30 514 H 79.2005 -1.71169 5.60966 0
M  V30 515 H 79.8825 -0.419134 -0.644739 0
M  V30 516 H 79.9195 -3.87332 -1.06098 0
M  V30 517 H 80.0205 -2.26417 -1.82483 0
M  V30 518 P 81.1195 -7.20834 5.23717 0
M  V30 519 O 81.3395 -8.66104 5.38572 0
M  V30 520 O 81.9095 -6.33544 6.1349 0
M  V30 521 O 81.3695 -6.7751 3.72168 0
M  V30 522 C 80.4295 -7.20825 2.7076 0
M  V30 523 C 81.1595 -7.45864 1.40599 0
M  V30 524 O 81.3695 -6.17651 0.734225 0
M  V30 525 C 82.5595 -8.05808 1.51899 0
M  V30 526 O 82.9495 -8.74358 0.335205 0
M  V30 527 C 83.4395 -6.83093 1.70294 0
M  V30 528 C 82.7295 -5.79992 0.836974 0
M  V30 529 N 82.7795 -4.41864 1.38293 0
M  V30 530 H 79.9405 -8.13644 3.0377 0
M  V30 531 H 79.6705 -6.42788 2.55485 0
M  V30 532 H 80.5375 -8.12039 0.792769 0
M  V30 533 P 84.4995 -8.91 5.4558e-15 0
M  V30 534 O 84.7195 -10.1746 -0.733838 0
M  V30 535 O 85.2895 -8.73346 1.23964 0
M  V30 536 O 84.7495 -7.66872 -0.971405 0
M  V30 537 C 83.8095 -7.42405 -2.04668 0
M  V30 538 C 84.5395 -6.86059 -3.24661 0
M  V30 539 O 84.7495 -5.42934 -3.03695 0
M  V30 540 C 85.9395 -7.41287 -3.50796 0
M  V30 541 O 86.3295 -7.27073 -4.86816 0
M  V30 542 C 86.8195 -6.5273 -2.63741 0
M  V30 543 C 86.1095 -5.1842 -2.73198 0
M  V30 544 N 86.1595 -4.38762 -1.4784 0
M  V30 545 C 86.0795 -4.83651 -0.183876 0
M  V30 546 N 86.1495 -3.88759 0.699393 0
M  V30 547 C 86.2995 -2.7404 -0.0575568 0
M  V30 548 C 86.4295 -1.37902 0.293928 0
M  V30 549 N 86.4395 -0.938021 1.54797 0
M  V30 550 N 86.5495 -0.491817 -0.70549 0
M  V30 551 C 86.5395 -0.931735 -1.95979 0
M  V30 552 N 86.4195 -2.16017 -2.41481 0
M  V30 553 C 86.2995 -3.02547 -1.39121 0
M  V30 554 H 83.3215 -8.36899 -2.3252 0
M  V30 555 H 83.0495 -6.70391 -1.71179 0
M  V30 556 H 83.9175 -7.03638 -4.13219 0
M  V30 557 H 86.5725 -4.59931 -3.54016 0
M  V30 558 H 86.8525 -6.88995 -1.59871 0
M  V30 559 H 87.8435 -6.4684 -3.0373 0
M  V30 560 H 86.0095 -8.47002 -3.20749 0
M  V30 561 H 85.9685 -5.8885 0.0765548 0
M  V30 562 H 86.3495 -1.60276 2.32875 0
M  V30 563 H 86.5385 0.0699355 1.73859 0
M  V30 564 H 86.6465 -0.165507 -2.71897 0
M  V30 565 P 87.8795 -7.20834 -5.23717 0
M  V30 566 O 88.0995 -7.79853 -6.57286 0
M  V30 567 O 88.6695 -7.79239 -4.12957 0
M  V30 568 O 88.1295 -5.63315 -5.29344 0
M  V30 569 C 87.1895 -4.80255 -6.01876 0
M  V30 570 C 87.9195 -3.64202 -6.65911 0
M  V30 571 O 88.1295 -2.60694 -5.64732 0
M  V30 572 C 89.3195 -3.93473 -7.1943 0
M  V30 573 O 89.7095 -3.02071 -8.21205 0
M  V30 574 C 90.1995 -3.73047 -5.97036 0
M  V30 575 C 89.4895 -2.58828 -5.25741 0
M  V30 576 N 89.5395 -2.68068 -3.77503 0
M  V30 577 C 89.4595 -3.79715 -2.96723 0
M  V30 578 N 89.5395 -3.5377 -1.68852 0
M  V30 579 C 89.6795 -2.15054 -1.63254 0
M  V30 580 C 89.8095 -1.28964 -0.518571 0
M  V30 581 N 89.9295 0.0538097 -0.918425 0
M  V30 582 C 89.9295 0.494275 -2.22578 0
M  V30 583 N 90.0595 1.81086 -2.40434 0
M  V30 584 N 89.7995 -0.313645 -3.27502 0
M  V30 585 C 89.6795 -1.61829 -2.91033 0
M  V30 586 H 86.7005 -5.40332 -6.79951 0
M  V30 587 H 86.4305 -4.41613 -5.32378 0
M  V30 588 H 87.2975 -3.26331 -7.47797 0
M  V30 589 P 91.2595 -2.75334 -8.47391 0
M  V30 590 O 91.4795 -2.44595 -9.90239 0
M  V30 591 O 92.0495 -3.87732 -7.92204 0
M  V30 592 O 91.5095 -1.4459 -7.59357 0
M  V30 593 C 90.5695 -0.347608 -7.69215 0
M  V30 594 C 91.2995 0.96767 -7.52806 0
M  V30 595 O 91.5095 1.21036 -6.1011 0
M  V30 596 C 92.6995 1.04544 -8.13308 0
M  V30 597 O 93.0895 2.38311 -8.41922 0
M  V30 598 C 93.5795 0.491279 -7.02284 0
M  V30 599 C 92.8695 0.996264 -5.77469 0
M  V30 600 N 92.9195 0.0501808 -4.62873 0
M  V30 601 C 93.0695 0.578037 -3.3505 0
M  V30 602 O 93.1595 1.8073 -3.21711 0
M  V30 603 N 93.1195 -0.468541 -2.263 0
M  V30 604 C 93.0195 -1.59186 -2.47176 0
M  V30 605 N 93.0695 -2.37626 -1.40392 0
M  V30 606 C 92.8695 -2.16203 -3.77467 0
M  V30 607 C 92.8195 -1.29324 -4.8195 0
M  V30 608 H 90.0795 -0.374679 -8.67591 0
M  V30 609 H 89.8105 -0.443421 -6.90177 0
M  V30 610 H 90.6775 1.75559 -7.96891 0
M  V30 611 H 93.3325 1.94529 -5.46723 0
M  V30 612 H 93.6115 -0.608651 -7.04676 0
M  V30 613 H 94.6035 0.889672 -7.08939 0
M  V30 614 H 92.7695 0.43308 -9.04564 0
M  V30 615 H 92.6975 -1.67758 -5.83046 0
M  V30 616 H 92.7995 -3.23869 -3.92281 0
M  V30 617 H 93.1875 -1.96317 -0.467202 0
M  V30 618 H 92.9905 -3.39693 -1.51142 0
M  V30 619 P 94.6394 2.75334 -8.47391 0
M  V30 620 O 94.8594 3.84128 -9.44797 0
M  V30 621 O 95.4294 1.51947 -8.68712 0
M  V30 622 O 94.8894 3.29363 -6.99321 0
M  V30 623 C 93.9494 4.24011 -6.4274 0
M  V30 624 C 94.6794 5.20775 -5.52155 0
M  V30 625 O 94.8894 4.56534 -4.22446 0
M  V30 626 C 96.0794 5.62629 -5.96531 0
M  V30 627 O 96.4694 6.87667 -5.41053 0
M  V30 628 C 96.9594 4.52537 -5.39283 0
M  V30 629 C 96.2494 4.20027 -4.08623 0
M  V30 630 N 96.2994 2.76189 -3.71603 0
M  V30 631 H 93.4604 4.797 -7.24003 0
M  V30 632 H 93.1904 3.69856 -5.84513 0
M  V30 633 H 94.0574 6.10356 -5.41441 0
M  V30 634 P 98.0194 7.20834 -5.23717 0
M  V30 635 O 98.2394 8.66104 -5.38572 0
M  V30 636 O 98.8094 6.33544 -6.1349 0
M  V30 637 O 98.2694 6.7751 -3.72168 0
M  V30 638 C 97.3294 7.20825 -2.7076 0
M  V30 639 C 98.0594 7.45864 -1.40599 0
M  V30 640 O 98.2694 6.17651 -0.734225 0
M  V30 641 C 99.4594 8.05808 -1.51899 0
M  V30 642 O 99.8494 8.74358 -0.335205 0
M  V30 643 C 100.339 6.83093 -1.70294 0
M  V30 644 C 99.6294 5.79992 -0.836974 0
M  V30 645 N 99.6794 4.41864 -1.38293 0
M  V30 646 H 96.8404 8.13644 -3.0377 0
M  V30 647 H 96.5704 6.42788 -2.55485 0
M  V30 648 H 97.4374 8.12039 -0.792769 0
M  V30 649 P 101.399 8.91 -6.54696e-15 0
M  V30 650 O 101.619 10.1726 0.733694 0
M  V30 651 O 102.189 8.73148 -1.23936 0
M  V30 652 O 101.649 7.66872 0.971405 0
M  V30 653 C 100.709 7.42309 2.04641 0
M  V30 654 C 101.439 6.86059 3.24661 0
M  V30 655 O 101.649 5.42847 3.03646 0
M  V30 656 C 102.839 7.41196 3.50753 0
M  V30 657 O 103.229 7.27073 4.86816 0
M  V30 658 C 103.719 6.5273 2.63741 0
M  V30 659 C 103.009 5.1842 2.73198 0
M  V30 660 N 103.059 4.38762 1.4784 0
M  V30 661 H 100.22 8.36803 2.32493 0
M  V30 662 H 99.9504 6.70197 1.71129 0
M  V30 663 H 100.817 7.03551 4.13168 0
M  V30 664 P 104.779 7.20834 5.23717 0
M  V30 665 O 104.999 7.79853 6.57286 0
M  V30 666 O 105.569 7.79239 4.12957 0
M  V30 667 O 105.029 5.63315 5.29344 0
M  V30 668 C 104.089 4.80255 6.01876 0
M  V30 669 C 104.819 3.64202 6.65911 0
M  V30 670 O 105.029 2.60694 5.64732 0
M  V30 671 C 106.219 3.93473 7.1943 0
M  V30 672 O 106.609 3.02071 8.21205 0
M  V30 673 C 107.099 3.73047 5.97036 0
M  V30 674 C 106.389 2.58828 5.25741 0
M  V30 675 N 106.439 2.68068 3.77503 0
M  V30 676 H 103.6 5.40332 6.79951 0
M  V30 677 H 103.33 4.41613 5.32378 0
M  V30 678 H 104.197 3.26331 7.47797 0
M  V30 679 P 108.159 2.75334 8.47391 0
M  V30 680 O 108.379 2.44571 9.90142 0
M  V30 681 O 108.949 3.87688 7.92115 0
M  V30 682 O 108.409 1.4459 7.59357 0
M  V30 683 C 107.469 0.347608 7.69215 0
M  V30 684 C 108.199 -0.96767 7.52806 0
M  V30 685 O 108.409 -1.21036 6.1011 0
M  V30 686 C 109.599 -1.04544 8.13308 0
M  V30 687 O 109.989 -2.38311 8.41922 0
M  V30 688 C 110.479 -0.491279 7.02284 0
M  V30 689 C 109.769 -0.996264 5.77469 0
M  V30 690 N 109.819 -0.0501916 4.62973 0
M  V30 691 H 106.98 0.374722 8.67691 0
M  V30 692 H 106.71 0.443485 6.90277 0
M  V30 693 H 107.577 -1.75537 7.96793 0
M  V30 694 P 111.539 -2.75334 8.47391 0
M  V30 695 O 111.759 -3.84204 9.44982 0
M  V30 696 O 112.329 -1.51982 8.68909 0
M  V30 697 O 111.789 -3.29363 6.99321 0
M  V30 698 C 110.849 -4.24066 6.42823 0
M  V30 699 C 111.579 -5.20775 5.52155 0
M  V30 700 O 111.789 -4.56607 4.22514 0
M  V30 701 C 112.979 -5.62697 5.96604 0
M  V30 702 O 113.369 -6.87667 5.41053 0
M  V30 703 C 113.859 -4.52537 5.39283 0
M  V30 704 C 113.149 -4.20027 4.08623 0
M  V30 705 N 113.199 -2.76189 3.71603 0
M  V30 706 H 110.361 -4.79756 7.24086 0
M  V30 707 H 110.089 -3.69963 5.84682 0
M  V30 708 H 110.957 -6.10431 5.41508 0
M  V30 709 H 113.612 -4.78816 3.28024 0
M  V30 710 H 113.892 -3.64957 6.05871 0
M  V30 711 H 114.883 -4.88748 5.21323 0
M  V30 712 H 113.049 -5.66789 7.0643 0
M  V30 713 P 114.919 -7.20834 5.23717 0
M  V30 714 O 115.139 -8.66104 5.38572 0
M  V30 715 O 115.709 -6.33544 6.1349 0
M  V30 716 O 115.169 -6.7751 3.72168 0
M  V30 717 C 114.229 -7.20825 2.7076 0
M  V30 718 C 114.959 -7.45864 1.40599 0
M  V30 719 O 115.169 -6.17651 0.734225 0
M  V30 720 C 116.359 -8.05808 1.51899 0
M  V30 721 O 116.749 -8.74358 0.335205 0
M  V30 722 C 117.239 -6.83093 1.70294 0
M  V30 723 C 116.529 -5.79992 0.836974 0
M  V30 724 N 116.579 -4.41864 1.38293 0
M  V30 725 C 116.499 -3.99538 2.69438 0
M  V30 726 N 116.579 -2.69909 2.84277 0
M  V30 727 C 116.719 -2.21719 1.5408 0
M  V30 728 C 116.849 -0.891712 1.06628 0
M  V30 729 O 116.869 0.161298 1.70137 0
M  V30 730 N 116.969 -0.856846 -0.334985 0
M  V30 731 C 116.969 -1.9641 -1.15789 0
M  V30 732 N 117.099 -1.72708 -2.46522 0
M  V30 733 N 116.839 -3.21165 -0.713741 0
M  V30 734 C 116.719 -3.26797 0.639748 0
M  V30 735 H 113.74 -8.13644 3.0377 0
M  V30 736 H 113.47 -6.42788 2.55485 0
M  V30 737 H 114.337 -8.12039 0.792769 0
M  V30 738 H 116.992 -5.80061 -0.166416 0
M  V30 739 H 117.271 -6.51287 2.75604 0
M  V30 740 H 118.263 -7.01734 1.34462 0
M  V30 741 H 116.429 -8.73674 2.38337 0
M  V30 742 H 116.38 -4.68207 3.53221 0
M  V30 743 H 117.062 0.0398818 -0.767965 0
M  V30 744 H 117.099 -2.50995 -3.13503 0
M  V30 745 H 117.2 -0.759148 -2.80716 0
M  V30 746 P 118.299 -8.91 7.63812e-15 0
M  V30 747 O 118.519 -10.1746 -0.733838 0
M  V30 748 O 119.089 -8.73346 1.23964 0
M  V30 749 O 118.549 -7.66872 -0.971405 0
M  V30 750 C 117.609 -7.42405 -2.04668 0
M  V30 751 C 118.339 -6.86059 -3.24661 0
M  V30 752 O 118.549 -5.42934 -3.03695 0
M  V30 753 C 119.739 -7.41287 -3.50796 0
M  V30 754 O 120.129 -7.27073 -4.86816 0
M  V30 755 C 120.619 -6.5273 -2.63741 0
M  V30 756 C 119.909 -5.1842 -2.73198 0
M  V30 757 N 119.959 -4.38762 -1.4784 0
M  V30 758 C 119.879 -4.83651 -0.183876 0
M  V30 759 N 119.949 -3.88759 0.699393 0
M  V30 760 C 120.099 -2.7404 -0.0575568 0
M  V30 761 C 120.229 -1.37902 0.293928 0
M  V30 762 N 120.239 -0.938021 1.54797 0
M  V30 763 N 120.349 -0.491817 -0.70549 0
M  V30 764 C 120.339 -0.931735 -1.95979 0
M  V30 765 N 120.219 -2.16017 -2.41481 0
M  V30 766 C 120.099 -3.02547 -1.39121 0
M  V30 767 H 117.121 -8.36899 -2.3252 0
M  V30 768 H 116.849 -6.70391 -1.71179 0
M  V30 769 H 117.717 -7.03638 -4.13219 0
M  V30 770 H 120.372 -4.59931 -3.54016 0
M  V30 771 H 120.652 -6.88995 -1.59871 0
M  V30 772 H 121.643 -6.4684 -3.0373 0
M  V30 773 H 119.809 -8.47002 -3.20749 0
M  V30 774 H 119.768 -5.8885 0.0765548 0
M  V30 775 H 120.149 -1.60276 2.32875 0
M  V30 776 H 120.338 0.0699355 1.73859 0
M  V30 777 H 120.446 -0.165507 -2.71897 0
M  V30 778 P 121.679 -7.20834 -5.23717 0
M  V30 779 O 121.899 -7.79853 -6.57286 0
M  V30 780 O 122.469 -7.79239 -4.12957 0
M  V30 781 O 121.929 -5.63315 -5.29344 0
M  V30 782 C 120.989 -4.80255 -6.01876 0
M  V30 783 C 121.719 -3.64202 -6.65911 0
M  V30 784 O 121.929 -2.60694 -5.64732 0
M  V30 785 C 123.119 -3.93473 -7.1943 0
M  V30 786 O 123.509 -3.02071 -8.21205 0
M  V30 787 C 123.999 -3.73047 -5.97036 0
M  V30 788 C 123.289 -2.58828 -5.25741 0
M  V30 789 N 123.339 -2.68068 -3.77503 0
M  V30 790 H 120.5 -5.40332 -6.79951 0
M  V30 791 H 120.23 -4.41613 -5.32378 0
M  V30 792 H 121.097 -3.26331 -7.47797 0
M  V30 793 P 125.059 -2.75334 -8.47391 0
M  V30 794 O 125.279 -2.44571 -9.90142 0
M  V30 795 O 125.849 -3.87688 -7.92115 0
M  V30 796 O 125.309 -1.4459 -7.59357 0
M  V30 797 C 124.369 -0.347608 -7.69215 0
M  V30 798 C 125.099 0.96767 -7.52806 0
M  V30 799 O 125.309 1.21036 -6.1011 0
M  V30 800 C 126.499 1.04544 -8.13308 0
M  V30 801 O 126.889 2.38311 -8.41922 0
M  V30 802 C 127.379 0.491279 -7.02284 0
M  V30 803 C 126.669 0.996264 -5.77469 0
M  V30 804 N 126.719 0.0501916 -4.62973 0
M  V30 805 H 123.88 -0.374722 -8.67691 0
M  V30 806 H 123.61 -0.443485 -6.90277 0
M  V30 807 H 124.477 1.75537 -7.96793 0
M  V30 808 P 128.439 2.75334 -8.47391 0
M  V30 809 O 128.659 3.84166 -9.4489 0
M  V30 810 O 129.229 1.51964 -8.6881 0
M  V30 811 O 128.689 3.29363 -6.99321 0
M  V30 812 C 127.749 4.23956 -6.42656 0
M  V30 813 C 128.479 5.20775 -5.52155 0
M  V30 814 O 128.689 4.56534 -4.22446 0
M  V30 815 C 129.879 5.62629 -5.96531 0
M  V30 816 O 130.269 6.87667 -5.41053 0
M  V30 817 C 130.759 4.52537 -5.39283 0
M  V30 818 C 130.049 4.20027 -4.08623 0
M  V30 819 N 130.099 2.7613 -3.71522 0
M  V30 820 C 130.249 2.45612 -2.37989 0
M  V30 821 O 130.339 3.30919 -1.51621 0
M  V30 822 N 130.289 1.10684 -2.08435 0
M  V30 823 C 130.199 0.0690084 -2.9792 0
M  V30 824 C 130.049 0.481522 -4.35345 0
M  V30 825 C 129.999 1.78906 -4.67968 0
M  V30 826 H 127.259 4.797 -7.24003 0
M  V30 827 H 126.99 3.69802 -5.84429 0
M  V30 828 H 127.857 6.10356 -5.41441 0
M  V30 829 H 130.512 4.78651 -3.27911 0
M  V30 830 H 130.791 3.64957 -6.05871 0
M  V30 831 H 131.783 4.8868 -5.2125 0
M  V30 832 H 129.949 5.66726 -7.06352 0
M  V30 833 H 129.878 2.07737 -5.72367 0
M  V30 834 P 131.819 7.20834 -5.23717 0
M  V30 835 O 132.039 8.66104 -5.38572 0
M  V30 836 O 132.609 6.33544 -6.1349 0
M  V30 837 O 132.069 6.7751 -3.72168 0
M  V30 838 C 131.129 7.20825 -2.7076 0
M  V30 839 C 131.859 7.45864 -1.40599 0
M  V30 840 O 132.069 6.17651 -0.734225 0
M  V30 841 C 133.259 8.05808 -1.51899 0
M  V30 842 O 133.649 8.74358 -0.335205 0
M  V30 843 C 134.139 6.83093 -1.70294 0
M  V30 844 C 133.429 5.79992 -0.836974 0
M  V30 845 N 133.479 4.41864 -1.38293 0
M  V30 846 H 130.64 8.13644 -3.0377 0
M  V30 847 H 130.37 6.42788 -2.55485 0
M  V30 848 H 131.237 8.12039 -0.792769 0
M  V30 849 P 135.199 8.91 -8.72928e-15 0
M  V30 850 O 135.419 10.1726 0.733694 0
M  V30 851 O 135.989 8.73148 -1.23936 0
M  V30 852 O 135.449 7.66872 0.971405 0
M  V30 853 C 134.509 7.42309 2.04641 0
M  V30 854 C 135.239 6.86059 3.24661 0
M  V30 855 O 135.449 5.42847 3.03646 0
M  V30 856 C 136.639 7.41196 3.50753 0
M  V30 857 O 137.029 7.27073 4.86816 0
M  V30 858 C 137.519 6.5273 2.63741 0
M  V30 859 C 136.809 5.1842 2.73198 0
M  V30 860 N 136.859 4.38762 1.4784 0
M  V30 861 H 134.02 8.36803 2.32493 0
M  V30 862 H 133.75 6.70197 1.71129 0
M  V30 863 H 134.617 7.03551 4.13168 0
M  V30 864 P 138.579 7.20834 5.23717 0
M  V30 865 O 138.799 7.79853 6.57286 0
M  V30 866 O 139.369 7.79239 4.12957 0
M  V30 867 O 138.829 5.63315 5.29344 0
M  V30 868 C 137.889 4.80255 6.01876 0
M  V30 869 C 138.619 3.64202 6.65911 0
M  V30 870 O 138.829 2.60694 5.64732 0
M  V30 871 C 140.019 3.93473 7.1943 0
M  V30 872 O 140.409 3.02071 8.21205 0
M  V30 873 C 140.899 3.73047 5.97036 0
M  V30 874 C 140.189 2.58828 5.25741 0
M  V30 875 N 140.239 2.68068 3.77503 0
M  V30 876 H 137.4 5.40332 6.79951 0
M  V30 877 H 137.13 4.41613 5.32378 0
M  V30 878 H 137.997 3.26331 7.47797 0
M  V30 879 P 141.959 2.75334 8.47391 0
M  V30 880 O 142.179 2.44571 9.90142 0
M  V30 881 O 142.749 3.87688 7.92115 0
M  V30 882 O 142.209 1.4459 7.59357 0
M  V30 883 C 141.269 0.347608 7.69215 0
M  V30 884 C 141.999 -0.96767 7.52806 0
M  V30 885 O 142.209 -1.21036 6.1011 0
M  V30 886 C 143.399 -1.04544 8.13308 0
M  V30 887 O 143.789 -2.38311 8.41922 0
M  V30 888 C 144.279 -0.491279 7.02284 0
M  V30 889 C 143.569 -0.996264 5.77469 0
M  V30 890 N 143.619 -0.0501916 4.62973 0
M  V30 891 H 140.78 0.374722 8.67691 0
M  V30 892 H 140.51 0.443485 6.90277 0
M  V30 893 H 141.377 -1.75537 7.96793 0
M  V30 894 P 145.339 -2.75334 8.47391 0
M  V30 895 O 145.559 -3.84128 9.44797 0
M  V30 896 O 146.129 -1.51947 8.68712 0
M  V30 897 O 145.589 -3.29363 6.99321 0
M  V30 898 C 144.649 -4.24011 6.4274 0
M  V30 899 C 145.379 -5.20775 5.52155 0
M  V30 900 O 145.589 -4.56534 4.22446 0
M  V30 901 C 146.779 -5.62629 5.96531 0
M  V30 902 O 147.169 -6.87667 5.41053 0
M  V30 903 C 147.659 -4.52537 5.39283 0
M  V30 904 C 146.949 -4.20027 4.08623 0
M  V30 905 N 146.999 -2.76189 3.71603 0
M  V30 906 C 146.919 -1.64862 4.52822 0
M  V30 907 N 146.999 -0.512671 3.88633 0
M  V30 908 C 147.139 -0.888083 2.54977 0
M  V30 909 C 147.269 -0.094668 1.38677 0
M  V30 910 N 147.389 -0.890102 0.232633 0
M  V30 911 C 147.389 -2.26958 0.21772 0
M  V30 912 N 147.519 -2.84626 -0.97925 0
M  V30 913 N 147.259 -3.0178 1.31033 0
M  V30 914 C 147.139 -2.26781 2.43843 0
M  V30 915 H 144.16 -4.797 7.24003 0
M  V30 916 H 143.89 -3.69856 5.84513 0
M  V30 917 H 144.757 -6.10356 5.41441 0
M  V30 918 P 148.719 -7.20834 5.23717 0
M  V30 919 O 148.939 -8.66104 5.38572 0
M  V30 920 O 149.509 -6.33544 6.1349 0
M  V30 921 O 148.969 -6.7751 3.72168 0
M  V30 922 C 148.029 -7.20825 2.7076 0
M  V30 923 C 148.759 -7.45864 1.40599 0
M  V30 924 O 148.969 -6.17651 0.734225 0
M  V30 925 C 150.159 -8.05808 1.51899 0
M  V30 926 O 150.549 -8.74358 0.335205 0
M  V30 927 C 151.039 -6.83093 1.70294 0
M  V30 928 C 150.329 -5.79992 0.836974 0
M  V30 929 N 150.379 -4.41864 1.38293 0
M  V30 930 H 147.54 -8.13644 3.0377 0
M  V30 931 H 147.27 -6.42788 2.55485 0
M  V30 932 H 148.137 -8.12039 0.792769 0
M  V30 933 P 152.099 -8.91 9.82044e-15 0
M  V30 934 O 152.319 -10.1726 -0.733694 0
M  V30 935 O 152.889 -8.73148 1.23936 0
M  V30 936 O 152.349 -7.66872 -0.971405 0
M  V30 937 C 151.409 -7.42309 -2.04641 0
M  V30 938 C 152.139 -6.86059 -3.24661 0
M  V30 939 O 152.349 -5.42847 -3.03646 0
M  V30 940 C 153.539 -7.41196 -3.50753 0
M  V30 941 O 153.929 -7.27073 -4.86816 0
M  V30 942 C 154.419 -6.5273 -2.63741 0
M  V30 943 C 153.709 -5.1842 -2.73198 0
M  V30 944 N 153.759 -4.38762 -1.4784 0
M  V30 945 H 150.92 -8.36803 -2.32493 0
M  V30 946 H 150.65 -6.70197 -1.71129 0
M  V30 947 H 151.517 -7.03551 -4.13168 0
M  V30 948 P 155.479 -7.20834 -5.23717 0
M  V30 949 O 155.699 -7.79853 -6.57286 0
M  V30 950 O 156.269 -7.79239 -4.12957 0
M  V30 951 O 155.729 -5.63315 -5.29344 0
M  V30 952 C 154.789 -4.80255 -6.01876 0
M  V30 953 C 155.519 -3.64202 -6.65911 0
M  V30 954 O 155.729 -2.60694 -5.64732 0
M  V30 955 C 156.919 -3.93473 -7.1943 0
M  V30 956 O 157.309 -3.02071 -8.21205 0
M  V30 957 C 157.799 -3.73047 -5.97036 0
M  V30 958 C 157.089 -2.58828 -5.25741 0
M  V30 959 N 157.139 -2.68068 -3.77503 0
M  V30 960 C 157.059 -3.79715 -2.96723 0
M  V30 961 N 157.139 -3.5377 -1.68852 0
M  V30 962 C 157.279 -2.15054 -1.63254 0
M  V30 963 C 157.409 -1.28964 -0.518571 0
M  V30 964 O 157.429 -1.56826 0.679156 0
M  V30 965 N 157.529 0.0538097 -0.918425 0
M  V30 966 C 157.529 0.494275 -2.22578 0
M  V30 967 N 157.659 1.81086 -2.40434 0
M  V30 968 N 157.399 -0.313645 -3.27502 0
M  V30 969 C 157.279 -1.61829 -2.91033 0
M  V30 970 H 154.3 -5.40332 -6.79951 0
M  V30 971 H 154.03 -4.41613 -5.32378 0
M  V30 972 H 154.897 -3.26331 -7.47797 0
M  V30 973 H 157.552 -1.63422 -5.56814 0
M  V30 974 H 157.831 -4.63374 -5.34244 0
M  V30 975 H 158.823 -3.44728 -6.25838 0
M  V30 976 H 156.989 -4.96652 -7.57263 0
M  V30 977 H 156.94 -4.80617 -3.3614 0
M  V30 978 H 157.622 0.742702 -0.199384 0
M  V30 979 H 157.659 2.20598 -3.35588 0
M  V30 980 H 157.76 2.43518 -1.58945 0
M  V30 981 P 158.859 -2.75334 -8.47391 0
M  V30 982 O 159.079 -2.44571 -9.90142 0
M  V30 983 O 159.649 -3.87688 -7.92115 0
M  V30 984 O 159.109 -1.4459 -7.59357 0
M  V30 985 C 158.169 -0.347608 -7.69215 0
M  V30 986 C 158.899 0.96767 -7.52806 0
M  V30 987 O 159.109 1.21036 -6.1011 0
M  V30 988 C 160.299 1.04544 -8.13308 0
M  V30 989 O 160.689 2.38311 -8.41922 0
M  V30 990 C 161.179 0.491279 -7.02284 0
M  V30 991 C 160.469 0.996264 -5.77469 0
M  V30 992 N 160.519 0.0501916 -4.62973 0
M  V30 993 H 157.68 -0.374722 -8.67691 0
M  V30 994 H 157.41 -0.443485 -6.90277 0
M  V30 995 H 158.277 1.75537 -7.96793 0
M  V30 996 P 162.239 2.75334 -8.47391 0
M  V30 997 O 162.459 3.84128 -9.44797 0
M  V30 998 O 163.029 1.51947 -8.68712 0
M  V30 999 O 162.489 3.29363 -6.99321 0
M  V30 1000 C 161.549 4.24011 -6.4274 0
M  V30 1001 C 162.279 5.20775 -5.52155 0
M  V30 1002 O 162.489 4.56534 -4.22446 0
M  V30 1003 C 163.679 5.62629 -5.96531 0
M  V30 1004 O 164.069 6.87667 -5.41053 0
M  V30 1005 C 164.559 4.52537 -5.39283 0
M  V30 1006 C 163.849 4.20027 -4.08623 0
M  V30 1007 N 163.899 2.76189 -3.71603 0
M  V30 1008 H 161.06 4.797 -7.24003 0
M  V30 1009 H 160.79 3.69856 -5.84513 0
M  V30 1010 H 161.657 6.10356 -5.41441 0
M  V30 1011 P 165.619 7.20834 -5.23717 0
M  V30 1012 O 165.839 8.66189 -5.38625 0
M  V30 1013 O 166.409 6.33615 -6.1356 0
M  V30 1014 O 165.869 6.7751 -3.72168 0
M  V30 1015 C 164.929 7.20732 -2.70725 0
M  V30 1016 C 165.659 7.45864 -1.40599 0
M  V30 1017 O 165.869 6.17651 -0.734225 0
M  V30 1018 C 167.059 8.05808 -1.51899 0
M  V30 1019 O 167.449 8.74358 -0.335205 0
M  V30 1020 C 167.939 6.83093 -1.70294 0
M  V30 1021 C 167.229 5.79992 -0.836974 0
M  V30 1022 N 167.279 4.41769 -1.38263 0
M  V30 1023 C 167.429 3.38591 -0.481702 0
M  V30 1024 O 167.519 3.56839 0.718452 0
M  V30 1025 N 167.469 2.1206 -1.03569 0
M  V30 1026 C 167.379 1.80696 -2.36966 0
M  V30 1027 O 167.429 0.630473 -2.74862 0
M  V30 1028 C 167.229 2.94845 -3.23898 0
M  V30 1029 C 167.119 2.65253 -4.70362 0
M  V30 1030 C 167.179 4.19803 -2.73435 0
M  V30 1031 H 164.439 8.13644 -3.0377 0
M  V30 1032 H 164.17 6.42695 -2.55448 0
M  V30 1033 H 165.037 8.12039 -0.792769 0
M  V30 1034 H 167.692 5.79978 0.160587 0
M  V30 1035 H 167.971 6.51379 -2.75643 0
M  V30 1036 H 168.963 7.01734 -1.34462 0
M  V30 1037 H 167.129 8.73674 -2.38337 0
M  V30 1038 H 167.058 5.04492 -3.4095 0
M  V30 1039 H 168.088 2.83924 -5.1913 0
M  V30 1040 H 166.351 3.29824 -5.15163 0
M  V30 1041 H 166.839 1.59723 -4.84449 0
M  V30 1042 H 167.575 1.35644 -0.399345 0
M  V30 1043 P 168.999 8.91 -1.09116e-14 0
M  V30 1044 O 169.219 10.1726 0.733694 0
M  V30 1045 O 169.789 8.73148 -1.23936 0
M  V30 1046 O 169.249 7.66872 0.971405 0
M  V30 1047 C 168.309 7.42309 2.04641 0
M  V30 1048 C 169.039 6.86059 3.24661 0
M  V30 1049 O 169.249 5.42847 3.03646 0
M  V30 1050 C 170.439 7.41196 3.50753 0
M  V30 1051 O 170.829 7.27073 4.86816 0
M  V30 1052 C 171.319 6.5273 2.63741 0
M  V30 1053 C 170.609 5.1842 2.73198 0
M  V30 1054 N 170.659 4.38762 1.4784 0
M  V30 1055 H 167.82 8.36803 2.32493 0
M  V30 1056 H 167.55 6.70197 1.71129 0
M  V30 1057 H 168.417 7.03551 4.13168 0
M  V30 1058 P 172.379 7.20834 5.23717 0
M  V30 1059 O 172.599 7.7993 6.57351 0
M  V30 1060 O 173.169 7.79328 4.13004 0
M  V30 1061 O 172.629 5.63315 5.29344 0
M  V30 1062 C 171.689 4.80193 6.01798 0
M  V30 1063 C 172.419 3.64202 6.65911 0
M  V30 1064 O 172.629 2.60694 5.64732 0
M  V30 1065 C 173.819 3.93473 7.1943 0
M  V30 1066 O 174.209 3.02071 8.21205 0
M  V30 1067 C 174.699 3.73047 5.97036 0
M  V30 1068 C 173.989 2.58828 5.25741 0
M  V30 1069 N 174.039 2.6801 3.77422 0
M  V30 1070 C 174.189 1.50443 3.07133 0
M  V30 1071 O 174.279 0.419406 3.61576 0
M  V30 1072 N 174.229 1.6403 1.69677 0
M  V30 1073 C 174.139 2.81206 0.986255 0
M  V30 1074 C 173.989 3.99158 1.80325 0
M  V30 1075 C 173.939 3.89779 3.1476 0
M  V30 1076 H 171.199 5.40332 6.79951 0
M  V30 1077 H 170.93 4.41549 5.32301 0
M  V30 1078 H 171.797 3.26331 7.47797 0
M  V30 1079 H 174.452 1.6395 5.56554 0
M  V30 1080 H 174.731 4.63439 5.3432 0
M  V30 1081 H 175.723 3.44728 6.25838 0
M  V30 1082 H 173.889 4.96652 7.57263 0
M  V30 1083 H 173.818 4.80159 3.74441 0
M  V30 1084 P 175.759 2.75334 8.47391 0
M  V30 1085 O 175.979 2.44571 9.90142 0
M  V30 1086 O 176.549 3.87688 7.92115 0
M  V30 1087 O 176.009 1.4459 7.59357 0
M  V30 1088 C 175.069 0.347608 7.69215 0
M  V30 1089 C 175.799 -0.96767 7.52806 0
M  V30 1090 O 176.009 -1.21036 6.1011 0
M  V30 1091 C 177.199 -1.04544 8.13308 0
M  V30 1092 O 177.589 -2.38311 8.41922 0
M  V30 1093 C 178.079 -0.491279 7.02284 0
M  V30 1094 C 177.369 -0.996264 5.77469 0
M  V30 1095 N 177.419 -0.0501916 4.62973 0
M  V30 1096 C 177.339 1.32786 4.63244 0
M  V30 1097 N 177.419 1.86957 3.44545 0
M  V30 1098 C 177.559 0.780241 2.58481 0
M  V30 1099 C 177.689 0.738536 1.17757 0
M  V30 1100 N 177.809 -0.58337 0.711393 0
M  V30 1101 C 177.809 -1.70816 1.51017 0
M  V30 1102 N 177.939 -2.87826 0.880757 0
M  V30 1103 N 177.679 -1.67126 2.8339 0
M  V30 1104 C 177.559 -0.401421 3.30572 0
M  V30 1105 H 174.58 0.374722 8.67691 0
M  V30 1106 H 174.31 0.443485 6.90277 0
M  V30 1107 H 175.177 -1.75537 7.96793 0
M  V30 1108 P 179.139 -2.75334 8.47391 0
M  V30 1109 O 179.359 -3.84166 9.4489 0
M  V30 1110 O 179.929 -1.51964 8.6881 0
M  V30 1111 O 179.389 -3.29363 6.99321 0
M  V30 1112 C 178.449 -4.23956 6.42656 0
M  V30 1113 C 179.179 -5.20775 5.52155 0
M  V30 1114 O 179.389 -4.56534 4.22446 0
M  V30 1115 C 180.579 -5.62629 5.96531 0
M  V30 1116 O 180.969 -6.87667 5.41053 0
M  V30 1117 C 181.459 -4.52537 5.39283 0
M  V30 1118 C 180.749 -4.20027 4.08623 0
M  V30 1119 N 180.799 -2.7613 3.71522 0
M  V30 1120 C 180.949 -2.45612 2.37989 0
M  V30 1121 O 181.039 -3.30919 1.51621 0
M  V30 1122 N 180.989 -1.10684 2.08435 0
M  V30 1123 C 180.899 -0.0690084 2.9792 0
M  V30 1124 O 180.949 1.10553 2.59426 0
M  V30 1125 C 180.749 -0.481522 4.35345 0
M  V30 1126 C 180.639 0.618778 5.36443 0
M  V30 1127 C 180.699 -1.78906 4.67968 0
M  V30 1128 H 177.959 -4.797 7.24003 0
M  V30 1129 H 177.69 -3.69802 5.84429 0
M  V30 1130 H 178.557 -6.10356 5.41441 0
M  V30 1131 H 181.212 -4.78651 3.27911 0
M  V30 1132 H 181.491 -3.64957 6.05871 0
M  V30 1133 H 182.483 -4.8868 5.2125 0
M  V30 1134 H 180.649 -5.66726 7.06352 0
M  V30 1135 H 180.578 -2.07737 5.72367 0
M  V30 1136 H 181.608 0.754375 5.86871 0
M  V30 1137 H 179.871 0.359721 6.10641 0
M  V30 1138 H 180.359 1.55533 4.8581 0
M  V30 1139 H 181.095 -0.862651 1.12037 0
M  V30 1140 P 182.519 -7.20834 5.23717 0
M  V30 1141 O 182.739 -8.66104 5.38572 0
M  V30 1142 O 183.309 -6.33544 6.1349 0
M  V30 1143 O 182.769 -6.7751 3.72168 0
M  V30 1144 C 181.829 -7.20825 2.7076 0
M  V30 1145 C 182.559 -7.45864 1.40599 0
M  V30 1146 O 182.769 -6.17651 0.734225 0
M  V30 1147 C 183.959 -8.05808 1.51899 0
M  V30 1148 O 184.349 -8.74358 0.335205 0
M  V30 1149 C 184.839 -6.83093 1.70294 0
M  V30 1150 C 184.129 -5.79992 0.836974 0
M  V30 1151 N 184.179 -4.41864 1.38293 0
M  V30 1152 C 184.099 -3.99538 2.69438 0
M  V30 1153 N 184.179 -2.69909 2.84277 0
M  V30 1154 C 184.319 -2.21719 1.5408 0
M  V30 1155 C 184.449 -0.891712 1.06628 0
M  V30 1156 N 184.569 -0.856846 -0.334985 0
M  V30 1157 C 184.569 -1.9641 -1.15789 0
M  V30 1158 N 184.699 -1.72708 -2.46522 0
M  V30 1159 N 184.439 -3.21165 -0.713741 0
M  V30 1160 C 184.319 -3.26797 0.639748 0
M  V30 1161 H 181.34 -8.13644 3.0377 0
M  V30 1162 H 181.07 -6.42788 2.55485 0
M  V30 1163 H 181.937 -8.12039 0.792769 0
M  V30 1164 P 185.899 -8.91 -8.29613e-14 0
M  V30 1165 O 186.119 -10.1726 -0.733694 0
M  V30 1166 O 186.689 -8.73148 1.23936 0
M  V30 1167 O 186.149 -7.66872 -0.971405 0
M  V30 1168 C 185.209 -7.42309 -2.04641 0
M  V30 1169 C 185.939 -6.86059 -3.24661 0
M  V30 1170 O 186.149 -5.42847 -3.03646 0
M  V30 1171 C 187.339 -7.41196 -3.50753 0
M  V30 1172 O 187.729 -7.27073 -4.86816 0
M  V30 1173 C 188.219 -6.5273 -2.63741 0
M  V30 1174 C 187.509 -5.1842 -2.73198 0
M  V30 1175 N 187.559 -4.38762 -1.4784 0
M  V30 1176 H 184.72 -8.36803 -2.32493 0
M  V30 1177 H 184.45 -6.70197 -1.71129 0
M  V30 1178 H 185.317 -7.03551 -4.13168 0
M  V30 1179 P 189.279 -7.20834 -5.23717 0
M  V30 1180 O 189.499 -7.79853 -6.57286 0
M  V30 1181 O 190.069 -7.79239 -4.12957 0
M  V30 1182 O 189.529 -5.63315 -5.29344 0
M  V30 1183 C 188.589 -4.80255 -6.01876 0
M  V30 1184 C 189.319 -3.64202 -6.65911 0
M  V30 1185 O 189.529 -2.60694 -5.64732 0
M  V30 1186 C 190.719 -3.93473 -7.1943 0
M  V30 1187 O 191.109 -3.02071 -8.21205 0
M  V30 1188 C 191.599 -3.73047 -5.97036 0
M  V30 1189 C 190.889 -2.58828 -5.25741 0
M  V30 1190 N 190.939 -2.68068 -3.77503 0
M  V30 1191 H 188.1 -5.40332 -6.79951 0
M  V30 1192 H 187.83 -4.41613 -5.32378 0
M  V30 1193 H 188.697 -3.26331 -7.47797 0
M  V30 1194 P 192.659 -2.75334 -8.47391 0
M  V30 1195 O 192.879 -2.44571 -9.90142 0
M  V30 1196 O 193.449 -3.87688 -7.92115 0
M  V30 1197 O 192.909 -1.4459 -7.59357 0
M  V30 1198 C 191.969 -0.347608 -7.69215 0
M  V30 1199 C 192.699 0.96767 -7.52806 0
M  V30 1200 O 192.909 1.21036 -6.1011 0
M  V30 1201 C 194.099 1.04544 -8.13308 0
M  V30 1202 O 194.489 2.38311 -8.41922 0
M  V30 1203 C 194.979 0.491279 -7.02284 0
M  V30 1204 C 194.269 0.996264 -5.77469 0
M  V30 1205 N 194.319 0.0501916 -4.62973 0
M  V30 1206 C 194.239 -1.32786 -4.63244 0
M  V30 1207 N 194.319 -1.86957 -3.44545 0
M  V30 1208 C 194.459 -0.780241 -2.58481 0
M  V30 1209 C 194.589 -0.738536 -1.17757 0
M  V30 1210 O 194.609 -1.66794 -0.372349 0
M  V30 1211 N 194.709 0.58337 -0.711393 0
M  V30 1212 C 194.709 1.70816 -1.51017 0
M  V30 1213 N 194.839 2.87826 -0.880757 0
M  V30 1214 N 194.579 1.67126 -2.8339 0
M  V30 1215 C 194.459 0.401421 -3.30572 0
M  V30 1216 H 191.48 -0.374722 -8.67691 0
M  V30 1217 H 191.21 -0.443485 -6.90277 0
M  V30 1218 H 192.077 1.75537 -7.96793 0
M  V30 1219 H 194.732 1.95076 -5.46529 0
M  V30 1220 H 195.011 -0.608565 -7.04577 0
M  V30 1221 H 196.003 0.889672 -7.08939 0
M  V30 1222 H 194.169 0.43308 -9.04564 0
M  V30 1223 H 194.12 -1.91249 -5.54442 0
M  V30 1224 H 194.802 0.718054 0.275244 0
M  V30 1225 H 194.839 3.75721 -1.41832 0
M  V30 1226 H 194.94 2.90436 0.145468 0
M  V30 1227 P 196.039 2.75334 -8.47391 0
M  V30 1228 O 196.259 3.84128 -9.44797 0
M  V30 1229 O 196.829 1.51947 -8.68712 0
M  V30 1230 O 196.289 3.29363 -6.99321 0
M  V30 1231 C 195.349 4.24011 -6.4274 0
M  V30 1232 C 196.079 5.20775 -5.52155 0
M  V30 1233 O 196.289 4.56534 -4.22446 0
M  V30 1234 C 197.479 5.62629 -5.96531 0
M  V30 1235 O 197.869 6.87667 -5.41053 0
M  V30 1236 C 198.359 4.52537 -5.39283 0
M  V30 1237 C 197.649 4.20027 -4.08623 0
M  V30 1238 N 197.699 2.76189 -3.71603 0
M  V30 1239 H 194.86 4.797 -7.24003 0
M  V30 1240 H 194.59 3.69856 -5.84513 0
M  V30 1241 H 195.457 6.10356 -5.41441 0
M  V30 1242 P 199.419 7.20834 -5.23717 0
M  V30 1243 O 199.639 8.66189 -5.38625 0
M  V30 1244 O 200.209 6.33615 -6.1356 0
M  V30 1245 O 199.669 6.7751 -3.72168 0
M  V30 1246 C 198.729 7.20732 -2.70725 0
M  V30 1247 C 199.459 7.45864 -1.40599 0
M  V30 1248 O 199.669 6.17651 -0.734225 0
M  V30 1249 C 200.859 8.05808 -1.51899 0
M  V30 1250 O 201.249 8.74358 -0.335205 0
M  V30 1251 C 201.739 6.83093 -1.70294 0
M  V30 1252 C 201.029 5.79992 -0.836974 0
M  V30 1253 N 201.079 4.41769 -1.38263 0
M  V30 1254 C 201.229 3.38591 -0.481702 0
M  V30 1255 O 201.319 3.56839 0.718452 0
M  V30 1256 N 201.269 2.1206 -1.03569 0
M  V30 1257 C 201.179 1.80696 -2.36966 0
M  V30 1258 O 201.229 0.630473 -2.74862 0
M  V30 1259 C 201.029 2.94845 -3.23898 0
M  V30 1260 C 200.919 2.65253 -4.70362 0
M  V30 1261 C 200.979 4.19803 -2.73435 0
M  V30 1262 H 198.239 8.13644 -3.0377 0
M  V30 1263 H 197.97 6.42695 -2.55448 0
M  V30 1264 H 198.837 8.12039 -0.792769 0
M  V30 1265 H 201.492 5.79978 0.160587 0
M  V30 1266 H 201.771 6.51379 -2.75643 0
M  V30 1267 H 202.763 7.01734 -1.34462 0
M  V30 1268 H 200.929 8.73674 -2.38337 0
M  V30 1269 H 200.858 5.04492 -3.4095 0
M  V30 1270 H 201.888 2.83924 -5.1913 0
M  V30 1271 H 200.151 3.29824 -5.15163 0
M  V30 1272 H 200.639 1.59723 -4.84449 0
M  V30 1273 H 201.375 1.35644 -0.399345 0
M  V30 1274 P 202.799 8.91 2.40144e-13 0
M  V30 1275 O 203.019 10.1726 0.733694 0
M  V30 1276 O 203.589 8.73148 -1.23936 0
M  V30 1277 O 203.049 7.66872 0.971405 0
M  V30 1278 C 202.109 7.42309 2.04641 0
M  V30 1279 C 202.839 6.86059 3.24661 0
M  V30 1280 O 203.049 5.42847 3.03646 0
M  V30 1281 C 204.239 7.41196 3.50753 0
M  V30 1282 O 204.629 7.27073 4.86816 0
M  V30 1283 C 205.119 6.5273 2.63741 0
M  V30 1284 C 204.409 5.1842 2.73198 0
M  V30 1285 N 204.459 4.38762 1.4784 0
M  V30 1286 H 201.62 8.36803 2.32493 0
M  V30 1287 H 201.35 6.70197 1.71129 0
M  V30 1288 H 202.217 7.03551 4.13168 0
M  V30 1289 P 206.179 7.20834 5.23717 0
M  V30 1290 O 206.399 7.79853 6.57286 0
M  V30 1291 O 206.969 7.79239 4.12957 0
M  V30 1292 O 206.429 5.63315 5.29344 0
M  V30 1293 C 205.489 4.80255 6.01876 0
M  V30 1294 C 206.219 3.64202 6.65911 0
M  V30 1295 O 206.429 2.60694 5.64732 0
M  V30 1296 C 207.619 3.93473 7.1943 0
M  V30 1297 O 208.009 3.02071 8.21205 0
M  V30 1298 C 208.499 3.73047 5.97036 0
M  V30 1299 C 207.789 2.58828 5.25741 0
M  V30 1300 N 207.839 2.68068 3.77503 0
M  V30 1301 H 205 5.40332 6.79951 0
M  V30 1302 H 204.73 4.41613 5.32378 0
M  V30 1303 H 205.597 3.26331 7.47797 0
M  V30 1304 P 209.559 2.75334 8.47391 0
M  V30 1305 O 209.779 2.44619 9.90336 0
M  V30 1306 O 210.349 3.87776 7.92294 0
M  V30 1307 O 209.809 1.4459 7.59357 0
M  V30 1308 C 208.869 0.347653 7.69315 0
M  V30 1309 C 209.599 -0.96767 7.52806 0
M  V30 1310 O 209.809 -1.21055 6.10208 0
M  V30 1311 C 210.999 -1.04557 8.13408 0
M  V30 1312 O 211.389 -2.38311 8.41922 0
M  V30 1313 C 211.879 -0.491279 7.02284 0
M  V30 1314 C 211.169 -0.996264 5.77469 0
M  V30 1315 N 211.219 -0.0501916 4.62973 0
M  V30 1316 H 208.381 0.374765 8.67791 0
M  V30 1317 H 208.109 0.443613 6.90476 0
M  V30 1318 H 208.977 -1.75559 7.96891 0
M  V30 1319 H 211.632 -1.94563 5.46818 0
M  V30 1320 H 211.912 0.608651 7.04676 0
M  V30 1321 H 212.903 -0.889796 7.09039 0
M  V30 1322 H 211.069 -0.433128 9.04664 0
M  V30 1323 P 212.939 -2.75334 8.47391 0
M  V30 1324 O 213.159 -3.84204 9.44982 0
M  V30 1325 O 213.729 -1.51982 8.68909 0
M  V30 1326 O 213.189 -3.29363 6.99321 0
M  V30 1327 C 212.249 -4.24066 6.42823 0
M  V30 1328 C 212.979 -5.20775 5.52155 0
M  V30 1329 O 213.189 -4.56607 4.22514 0
M  V30 1330 C 214.379 -5.62697 5.96604 0
M  V30 1331 O 214.769 -6.87667 5.41053 0
M  V30 1332 C 215.259 -4.52537 5.39283 0
M  V30 1333 C 214.549 -4.20027 4.08623 0
M  V30 1334 N 214.599 -2.76189 3.71603 0
M  V30 1335 H 211.761 -4.79756 7.24086 0
M  V30 1336 H 211.489 -3.69963 5.84682 0
M  V30 1337 H 212.357 -6.10431 5.41508 0
M  V30 1338 H 215.012 -4.78816 3.28024 0
M  V30 1339 H 215.292 -3.64957 6.05871 0
M  V30 1340 H 216.283 -4.88748 5.21323 0
M  V30 1341 H 214.449 -5.66789 7.0643 0
M  V30 1342 P 216.319 -7.20834 5.23717 0
M  V30 1343 O 216.539 -8.66104 5.38572 0
M  V30 1344 O 217.109 -6.33544 6.1349 0
M  V30 1345 O 216.569 -6.7751 3.72168 0
M  V30 1346 C 215.629 -7.20825 2.7076 0
M  V30 1347 C 216.359 -7.45864 1.40599 0
M  V30 1348 O 216.569 -6.17651 0.734225 0
M  V30 1349 C 217.759 -8.05808 1.51899 0
M  V30 1350 O 218.149 -8.74358 0.335205 0
M  V30 1351 C 218.639 -6.83093 1.70294 0
M  V30 1352 C 217.929 -5.79992 0.836974 0
M  V30 1353 N 217.979 -4.41864 1.38293 0
M  V30 1354 H 215.14 -8.13644 3.0377 0
M  V30 1355 H 214.87 -6.42788 2.55485 0
M  V30 1356 H 215.737 -8.12039 0.792769 0
M  V30 1357 P 219.699 -8.91 -3.97326e-13 0
M  V30 1358 O 219.919 -10.1726 -0.733694 0
M  V30 1359 O 220.489 -8.73148 1.23936 0
M  V30 1360 O 219.949 -7.66872 -0.971405 0
M  V30 1361 C 219.009 -7.42309 -2.04641 0
M  V30 1362 C 219.739 -6.86059 -3.24661 0
M  V30 1363 O 219.949 -5.42847 -3.03646 0
M  V30 1364 C 221.139 -7.41196 -3.50753 0
M  V30 1365 O 221.529 -7.27073 -4.86816 0
M  V30 1366 C 222.019 -6.5273 -2.63741 0
M  V30 1367 C 221.309 -5.1842 -2.73198 0
M  V30 1368 N 221.359 -4.38762 -1.4784 0
M  V30 1369 C 221.279 -4.81605 -0.168631 0
M  V30 1370 N 221.359 -3.85454 0.713363 0
M  V30 1371 C 221.499 -2.6994 -0.0566958 0
M  V30 1372 C 221.629 -1.34815 0.338502 0
M  V30 1373 O 221.649 -0.869548 1.47125 0
M  V30 1374 N 221.749 -0.496304 -0.77465 0
M  V30 1375 C 221.749 -0.908403 -2.09122 0
M  V30 1376 N 221.879 0.0517805 -3.00955 0
M  V30 1377 N 221.619 -2.17875 -2.46519 0
M  V30 1378 C 221.499 -3.01988 -1.4033 0
M  V30 1379 H 218.52 -8.36803 -2.32493 0
M  V30 1380 H 218.25 -6.70197 -1.71129 0
M  V30 1381 H 219.117 -7.03551 -4.13168 0
M  V30 1382 H 221.772 -4.59498 -3.54415 0
M  V30 1383 H 222.051 -6.88898 -1.59848 0
M  V30 1384 H 223.043 -6.46749 -3.03687 0
M  V30 1385 H 221.209 -8.46908 -3.20714 0
M  V30 1386 H 221.16 -5.86405 0.105564 0
M  V30 1387 H 221.842 0.483664 -0.597855 0
M  V30 1388 H 221.879 -0.187865 -4.0116 0
M  V30 1389 H 221.98 1.03585 -2.71726 0
M  V30 1390 P 223.079 -7.20834 -5.23717 0
M  V30 1391 O 223.299 -7.80006 -6.57415 0
M  V30 1392 O 223.869 -7.79416 -4.13051 0
M  V30 1393 O 223.329 -5.63315 -5.29344 0
M  V30 1394 C 222.389 -4.80318 -6.01954 0
M  V30 1395 C 223.119 -3.64202 -6.65911 0
M  V30 1396 O 223.329 -2.60736 -5.64823 0
M  V30 1397 C 224.519 -3.93521 -7.19518 0
M  V30 1398 O 224.909 -3.02071 -8.21205 0
M  V30 1399 C 225.399 -3.73047 -5.97036 0
M  V30 1400 C 224.689 -2.58828 -5.25741 0
M  V30 1401 N 224.739 -2.68068 -3.77503 0
M  V30 1402 C 224.659 -3.80474 -2.99159 0
M  V30 1403 N 224.729 -3.55622 -1.71925 0
M  V30 1404 C 224.879 -2.1832 -1.65733 0
M  V30 1405 C 225.009 -1.28842 -0.572777 0
M  V30 1406 N 225.019 -1.66875 0.70098 0
M  V30 1407 N 225.129 0.016788 -0.859836 0
M  V30 1408 C 225.119 0.398145 -2.13316 0
M  V30 1409 N 224.999 -0.328224 -3.22333 0
M  V30 1410 C 224.879 -1.62992 -2.90383 0
M  V30 1411 H 221.901 -5.40394 -6.8003 0
M  V30 1412 H 221.629 -4.41741 -5.32532 0
M  V30 1413 H 222.497 -3.26371 -7.47889 0
M  V30 1414 H 225.152 -1.64007 -5.56746 0
M  V30 1415 H 225.432 -4.63439 -5.3432 0
M  V30 1416 H 226.423 -3.44776 -6.25925 0
M  V30 1417 H 224.589 -4.96707 -7.57347 0
M  V30 1418 H 224.548 -4.8089 -3.39924 0
M  V30 1419 H 224.929 -2.66547 0.941919 0
M  V30 1420 H 225.118 -0.965341 1.44766 0
M  V30 1421 H 225.226 1.46427 -2.29697 0
M  V30 1422 P 226.459 -2.75334 -8.47391 0
M  V30 1423 O 226.679 -2.44595 -9.90239 0
M  V30 1424 O 227.249 -3.87732 -7.92204 0
M  V30 1425 O 226.709 -1.4459 -7.59357 0
M  V30 1426 C 225.769 -0.347563 -7.69115 0
M  V30 1427 C 226.499 0.96767 -7.52806 0
M  V30 1428 O 226.709 1.21036 -6.1011 0
M  V30 1429 C 227.899 1.04544 -8.13308 0
M  V30 1430 O 228.289 2.38311 -8.41922 0
M  V30 1431 C 228.779 0.491279 -7.02284 0
M  V30 1432 C 228.069 0.996264 -5.77469 0
M  V30 1433 N 228.119 0.0501808 -4.62873 0
M  V30 1434 C 228.269 0.588177 -3.36904 0
M  V30 1435 O 228.359 1.78598 -3.17173 0
M  V30 1436 N 228.309 -0.329694 -2.33686 0
M  V30 1437 C 228.219 -1.6953 -2.45079 0
M  V30 1438 O 228.269 -2.41926 -1.44899 0
M  V30 1439 C 228.069 -2.16933 -3.80505 0
M  V30 1440 C 227.959 -3.65373 -3.97621 0
M  V30 1441 C 228.019 -1.30326 -4.83752 0
M  V30 1442 H 225.279 -0.374722 -8.67691 0
M  V30 1443 H 225.01 -0.443421 -6.90177 0
M  V30 1444 H 225.877 1.75537 -7.96793 0
M  V30 1445 H 228.532 1.94496 -5.46629 0
M  V30 1446 H 228.811 -0.608651 -7.04676 0
M  V30 1447 H 229.803 0.889672 -7.08939 0
M  V30 1448 H 227.969 0.43308 -9.04564 0
M  V30 1449 H 227.898 -1.68366 -5.8516 0
M  V30 1450 H 228.928 -4.05985 -4.30448 0
M  V30 1451 H 227.191 -3.88028 -4.72875 0
M  V30 1452 H 227.679 -4.11381 -3.01609 0
M  V30 1453 H 228.415 0.0393617 -1.41345 0
M  V30 1454 P 229.839 2.75334 -8.47391 0
M  V30 1455 O 230.059 3.84128 -9.44797 0
M  V30 1456 O 230.629 1.51947 -8.68712 0
M  V30 1457 O 230.089 3.29363 -6.99321 0
M  V30 1458 C 229.149 4.24011 -6.4274 0
M  V30 1459 C 229.879 5.20775 -5.52155 0
M  V30 1460 O 230.089 4.56534 -4.22446 0
M  V30 1461 C 231.279 5.62629 -5.96531 0
M  V30 1462 O 231.669 6.87667 -5.41053 0
M  V30 1463 C 232.159 4.52537 -5.39283 0
M  V30 1464 C 231.449 4.20027 -4.08623 0
M  V30 1465 N 231.499 2.76189 -3.71603 0
M  V30 1466 H 228.66 4.797 -7.24003 0
M  V30 1467 H 228.39 3.69856 -5.84513 0
M  V30 1468 H 229.257 6.10356 -5.41441 0
M  V30 1469 P 233.219 7.20834 -5.23717 0
M  V30 1470 O 233.439 8.66104 -5.38572 0
M  V30 1471 O 234.009 6.33544 -6.1349 0
M  V30 1472 O 233.469 6.7751 -3.72168 0
M  V30 1473 C 232.529 7.20825 -2.7076 0
M  V30 1474 C 233.259 7.45864 -1.40599 0
M  V30 1475 O 233.469 6.17651 -0.734225 0
M  V30 1476 C 234.659 8.05808 -1.51899 0
M  V30 1477 O 235.049 8.74358 -0.335205 0
M  V30 1478 C 235.539 6.83093 -1.70294 0
M  V30 1479 C 234.829 5.79992 -0.836974 0
M  V30 1480 N 234.879 4.41864 -1.38293 0
M  V30 1481 H 232.04 8.13644 -3.0377 0
M  V30 1482 H 231.77 6.42788 -2.55485 0
M  V30 1483 H 232.637 8.12039 -0.792769 0
M  V30 1484 P 236.599 8.91 5.54508e-13 0
M  V30 1485 O 236.819 10.1746 0.733838 0
M  V30 1486 O 237.389 8.73346 -1.23964 0
M  V30 1487 O 236.849 7.66872 0.971405 0
M  V30 1488 C 235.909 7.42405 2.04668 0
M  V30 1489 C 236.639 6.86059 3.24661 0
M  V30 1490 O 236.849 5.42934 3.03695 0
M  V30 1491 C 238.039 7.41287 3.50796 0
M  V30 1492 O 238.429 7.27073 4.86816 0
M  V30 1493 C 238.919 6.5273 2.63741 0
M  V30 1494 C 238.209 5.1842 2.73198 0
M  V30 1495 N 238.259 4.38762 1.4784 0
M  V30 1496 C 238.179 4.83651 0.183876 0
M  V30 1497 N 238.249 3.88759 -0.699393 0
M  V30 1498 C 238.399 2.7404 0.0575568 0
M  V30 1499 C 238.529 1.37902 -0.293928 0
M  V30 1500 N 238.539 0.938021 -1.54797 0
M  V30 1501 N 238.649 0.491817 0.70549 0
M  V30 1502 C 238.639 0.931735 1.95979 0
M  V30 1503 N 238.519 2.16017 2.41481 0
M  V30 1504 C 238.399 3.02547 1.39121 0
M  V30 1505 H 235.421 8.36899 2.3252 0
M  V30 1506 H 235.149 6.70391 1.71179 0
M  V30 1507 H 236.017 7.03638 4.13219 0
M  V30 1508 H 238.672 4.59931 3.54016 0
M  V30 1509 H 238.952 6.88995 1.59871 0
M  V30 1510 H 239.943 6.4684 3.0373 0
M  V30 1511 H 238.109 8.47002 3.20749 0
M  V30 1512 H 238.068 5.8885 -0.0765548 0
M  V30 1513 H 238.449 1.60276 -2.32875 0
M  V30 1514 H 238.638 -0.0699355 -1.73859 0
M  V30 1515 H 238.746 0.165507 2.71897 0
M  V30 1516 P 239.979 7.20834 5.23717 0
M  V30 1517 O 240.199 7.79853 6.57286 0
M  V30 1518 O 240.769 7.79239 4.12957 0
M  V30 1519 O 240.229 5.63315 5.29344 0
M  V30 1520 C 239.289 4.80255 6.01876 0
M  V30 1521 C 240.019 3.64202 6.65911 0
M  V30 1522 O 240.229 2.60694 5.64732 0
M  V30 1523 C 241.419 3.93473 7.1943 0
M  V30 1524 O 241.809 3.02071 8.21205 0
M  V30 1525 C 242.299 3.73047 5.97036 0
M  V30 1526 C 241.589 2.58828 5.25741 0
M  V30 1527 N 241.639 2.68068 3.77503 0
M  V30 1528 H 238.8 5.40332 6.79951 0
M  V30 1529 H 238.53 4.41613 5.32378 0
M  V30 1530 H 239.397 3.26331 7.47797 0
M  V30 1531 P 243.359 2.75334 8.47391 0
M  V30 1532 O 243.579 2.44619 9.90336 0
M  V30 1533 O 244.149 3.87776 7.92294 0
M  V30 1534 O 243.609 1.4459 7.59357 0
M  V30 1535 C 242.669 0.347653 7.69315 0
M  V30 1536 C 243.399 -0.96767 7.52806 0
M  V30 1537 O 243.609 -1.21055 6.10208 0
M  V30 1538 C 244.799 -1.04557 8.13408 0
M  V30 1539 O 245.189 -2.38311 8.41922 0
M  V30 1540 C 245.679 -0.491279 7.02284 0
M  V30 1541 C 244.969 -0.996264 5.77469 0
M  V30 1542 N 245.019 -0.0501916 4.62973 0
M  V30 1543 C 244.939 1.31969 4.65661 0
M  V30 1544 N 245.009 1.86649 3.48119 0
M  V30 1545 C 245.159 0.792089 2.62406 0
M  V30 1546 C 245.289 0.705684 1.2207 0
M  V30 1547 N 245.299 1.76207 0.413762 0
M  V30 1548 N 245.409 -0.518981 0.685754 0
M  V30 1549 C 245.399 -1.57595 1.49174 0
M  V30 1550 N 245.279 -1.62909 2.80066 0
M  V30 1551 C 245.159 -0.388195 3.3073 0
M  V30 1552 H 242.181 0.374765 8.67791 0
M  V30 1553 H 241.909 0.443613 6.90476 0
M  V30 1554 H 242.777 -1.75559 7.96891 0
M  V30 1555 H 245.432 -1.94563 5.46818 0
M  V30 1556 H 245.712 0.608651 7.04676 0
M  V30 1557 H 246.703 -0.889796 7.09039 0
M  V30 1558 H 244.869 -0.433128 9.04664 0
M  V30 1559 H 244.828 1.89246 5.57664 0
M  V30 1560 H 245.209 2.71005 0.804694 0
M  V30 1561 H 245.398 1.63189 -0.603768 0
M  V30 1562 H 245.506 -2.53475 0.997614 0
M  V30 1563 P 246.739 -2.75334 8.47391 0
M  V30 1564 O 246.959 -3.84128 9.44797 0
M  V30 1565 O 247.529 -1.51947 8.68712 0
M  V30 1566 O 246.989 -3.29363 6.99321 0
M  V30 1567 C 246.049 -4.24011 6.4274 0
M  V30 1568 C 246.779 -5.20775 5.52155 0
M  V30 1569 O 246.989 -4.56534 4.22446 0
M  V30 1570 C 248.179 -5.62629 5.96531 0
M  V30 1571 O 248.569 -6.87667 5.41053 0
M  V30 1572 C 249.059 -4.52537 5.39283 0
M  V30 1573 C 248.349 -4.20027 4.08623 0
M  V30 1574 N 248.399 -2.76189 3.71603 0
M  V30 1575 C 248.319 -1.64862 4.52822 0
M  V30 1576 N 248.399 -0.512671 3.88633 0
M  V30 1577 C 248.539 -0.888083 2.54977 0
M  V30 1578 C 248.669 -0.094668 1.38677 0
M  V30 1579 N 248.789 -0.890102 0.232633 0
M  V30 1580 C 248.789 -2.26958 0.21772 0
M  V30 1581 N 248.919 -2.84626 -0.97925 0
M  V30 1582 N 248.659 -3.0178 1.31033 0
M  V30 1583 C 248.539 -2.26781 2.43843 0
M  V30 1584 H 245.56 -4.797 7.24003 0
M  V30 1585 H 245.29 -3.69856 5.84513 0
M  V30 1586 H 246.157 -6.10356 5.41441 0
M  V30 1587 P 250.119 -7.20834 5.23717 0
M  V30 1588 O 250.339 -8.66104 5.38572 0
M  V30 1589 O 250.909 -6.33544 6.1349 0
M  V30 1590 O 250.369 -6.7751 3.72168 0
M  V30 1591 C 249.429 -7.20825 2.7076 0
M  V30 1592 C 250.159 -7.45864 1.40599 0
M  V30 1593 O 250.369 -6.17651 0.734225 0
M  V30 1594 C 251.559 -8.05808 1.51899 0
M  V30 1595 O 251.949 -8.74358 0.335205 0
M  V30 1596 C 252.439 -6.83093 1.70294 0
M  V30 1597 C 251.729 -5.79992 0.836974 0
M  V30 1598 N 251.779 -4.41864 1.38293 0
M  V30 1599 H 248.94 -8.13644 3.0377 0
M  V30 1600 H 248.67 -6.42788 2.55485 0
M  V30 1601 H 249.537 -8.12039 0.792769 0
M  V30 1602 P 253.498 -8.91 -7.1169e-13 0
M  V30 1603 O 253.718 -10.1726 -0.733694 0
M  V30 1604 O 254.288 -8.73148 1.23936 0
M  V30 1605 O 253.748 -7.66872 -0.971405 0
M  V30 1606 C 252.808 -7.42309 -2.04641 0
M  V30 1607 C 253.538 -6.86059 -3.24661 0
M  V30 1608 O 253.748 -5.42847 -3.03646 0
M  V30 1609 C 254.938 -7.41196 -3.50753 0
M  V30 1610 O 255.328 -7.27073 -4.86816 0
M  V30 1611 C 255.818 -6.5273 -2.63741 0
M  V30 1612 C 255.108 -5.1842 -2.73198 0
M  V30 1613 N 255.158 -4.38762 -1.4784 0
M  V30 1614 H 252.319 -8.36803 -2.32493 0
M  V30 1615 H 252.049 -6.70197 -1.71129 0
M  V30 1616 H 252.916 -7.03551 -4.13168 0
M  V30 1617 P 256.878 -7.20834 -5.23717 0
M  V30 1618 O 257.098 -7.79853 -6.57286 0
M  V30 1619 O 257.668 -7.79239 -4.12957 0
M  V30 1620 O 257.128 -5.63315 -5.29344 0
M  V30 1621 C 256.188 -4.80255 -6.01876 0
M  V30 1622 C 256.918 -3.64202 -6.65911 0
M  V30 1623 O 257.128 -2.60694 -5.64732 0
M  V30 1624 C 258.318 -3.93473 -7.1943 0
M  V30 1625 O 258.708 -3.02071 -8.21205 0
M  V30 1626 C 259.198 -3.73047 -5.97036 0
M  V30 1627 C 258.488 -2.58828 -5.25741 0
M  V30 1628 N 258.538 -2.68068 -3.77503 0
M  V30 1629 H 255.699 -5.40332 -6.79951 0
M  V30 1630 H 255.429 -4.41613 -5.32378 0
M  V30 1631 H 256.296 -3.26331 -7.47797 0
M  V30 1632 P 260.258 -2.75334 -8.47391 0
M  V30 1633 O 260.478 -2.44571 -9.90142 0
M  V30 1634 O 261.048 -3.87688 -7.92115 0
M  V30 1635 O 260.508 -1.4459 -7.59357 0
M  V30 1636 C 259.568 -0.347608 -7.69215 0
M  V30 1637 C 260.298 0.96767 -7.52806 0
M  V30 1638 O 260.508 1.21036 -6.1011 0
M  V30 1639 C 261.698 1.04544 -8.13308 0
M  V30 1640 O 262.088 2.38311 -8.41922 0
M  V30 1641 C 262.578 0.491279 -7.02284 0
M  V30 1642 C 261.868 0.996264 -5.77469 0
M  V30 1643 N 261.918 0.0501916 -4.62973 0
M  V30 1644 H 259.079 -0.374722 -8.67691 0
M  V30 1645 H 258.809 -0.443485 -6.90277 0
M  V30 1646 H 259.676 1.75537 -7.96793 0
M  V30 1647 P 263.638 2.75334 -8.47391 0
M  V30 1648 O 263.858 3.84128 -9.44797 0
M  V30 1649 O 264.428 1.51947 -8.68712 0
M  V30 1650 O 263.888 3.29363 -6.99321 0
M  V30 1651 C 262.948 4.24011 -6.4274 0
M  V30 1652 C 263.678 5.20775 -5.52155 0
M  V30 1653 O 263.888 4.56534 -4.22446 0
M  V30 1654 C 265.078 5.62629 -5.96531 0
M  V30 1655 O 265.468 6.87667 -5.41053 0
M  V30 1656 C 265.958 4.52537 -5.39283 0
M  V30 1657 C 265.248 4.20027 -4.08623 0
M  V30 1658 N 265.298 2.76189 -3.71603 0
M  V30 1659 H 262.459 4.797 -7.24003 0
M  V30 1660 H 262.189 3.69856 -5.84513 0
M  V30 1661 H 263.056 6.10356 -5.41441 0
M  V30 1662 P 267.018 7.20834 -5.23717 0
M  V30 1663 O 267.238 8.66104 -5.38572 0
M  V30 1664 O 267.808 6.33544 -6.1349 0
M  V30 1665 O 267.268 6.7751 -3.72168 0
M  V30 1666 C 266.328 7.20825 -2.7076 0
M  V30 1667 C 267.058 7.45864 -1.40599 0
M  V30 1668 O 267.268 6.17651 -0.734225 0
M  V30 1669 C 268.458 8.05808 -1.51899 0
M  V30 1670 O 268.848 8.74358 -0.335205 0
M  V30 1671 C 269.338 6.83093 -1.70294 0
M  V30 1672 C 268.628 5.79992 -0.836974 0
M  V30 1673 N 268.678 4.41864 -1.38293 0
M  V30 1674 H 265.839 8.13644 -3.0377 0
M  V30 1675 H 265.569 6.42788 -2.55485 0
M  V30 1676 H 266.436 8.12039 -0.792769 0
M  V30 1677 P 270.398 8.91 8.68872e-13 0
M  V30 1678 O 270.618 10.1726 0.733694 0
M  V30 1679 O 271.188 8.73148 -1.23936 0
M  V30 1680 O 270.648 7.66872 0.971405 0
M  V30 1681 C 269.708 7.42309 2.04641 0
M  V30 1682 C 270.438 6.86059 3.24661 0
M  V30 1683 O 270.648 5.42847 3.03646 0
M  V30 1684 C 271.838 7.41196 3.50753 0
M  V30 1685 O 272.228 7.27073 4.86816 0
M  V30 1686 C 272.718 6.5273 2.63741 0
M  V30 1687 C 272.008 5.1842 2.73198 0
M  V30 1688 N 272.058 4.38762 1.4784 0
M  V30 1689 H 269.219 8.36803 2.32493 0
M  V30 1690 H 268.949 6.70197 1.71129 0
M  V30 1691 H 269.816 7.03551 4.13168 0
M  V30 1692 P 273.778 7.20834 5.23717 0
M  V30 1693 O 273.998 7.79853 6.57286 0
M  V30 1694 O 274.568 7.79239 4.12957 0
M  V30 1695 O 274.028 5.63315 5.29344 0
M  V30 1696 C 273.088 4.80255 6.01876 0
M  V30 1697 C 273.818 3.64202 6.65911 0
M  V30 1698 O 274.028 2.60694 5.64732 0
M  V30 1699 C 275.218 3.93473 7.1943 0
M  V30 1700 O 275.608 3.02071 8.21205 0
M  V30 1701 C 276.098 3.73047 5.97036 0
M  V30 1702 C 275.388 2.58828 5.25741 0
M  V30 1703 N 275.438 2.68068 3.77503 0
M  V30 1704 H 272.599 5.40332 6.79951 0
M  V30 1705 H 272.329 4.41613 5.32378 0
M  V30 1706 H 273.196 3.26331 7.47797 0
M  V30 1707 P 277.158 2.75334 8.47391 0
M  V30 1708 O 277.378 2.44571 9.90142 0
M  V30 1709 O 277.948 3.87688 7.92115 0
M  V30 1710 O 277.408 1.4459 7.59357 0
M  V30 1711 C 276.468 0.347608 7.69215 0
M  V30 1712 C 277.198 -0.96767 7.52806 0
M  V30 1713 O 277.408 -1.21036 6.1011 0
M  V30 1714 C 278.598 -1.04544 8.13308 0
M  V30 1715 O 278.988 -2.38311 8.41922 0
M  V30 1716 C 279.478 -0.491279 7.02284 0
M  V30 1717 C 278.768 -0.996264 5.77469 0
M  V30 1718 N 278.818 -0.0501916 4.62973 0
M  V30 1719 C 278.738 1.32786 4.63244 0
M  V30 1720 N 278.818 1.86957 3.44545 0
M  V30 1721 C 278.958 0.780241 2.58481 0
M  V30 1722 C 279.088 0.738536 1.17757 0
M  V30 1723 O 279.108 1.66794 0.372349 0
M  V30 1724 N 279.208 -0.58337 0.711393 0
M  V30 1725 C 279.208 -1.70816 1.51017 0
M  V30 1726 N 279.338 -2.87826 0.880757 0
M  V30 1727 N 279.078 -1.67126 2.8339 0
M  V30 1728 C 278.958 -0.401421 3.30572 0
M  V30 1729 H 275.979 0.374722 8.67691 0
M  V30 1730 H 275.709 0.443485 6.90277 0
M  V30 1731 H 276.576 -1.75537 7.96793 0
M  V30 1732 H 279.231 -1.95076 5.46529 0
M  V30 1733 H 279.51 0.608565 7.04577 0
M  V30 1734 H 280.502 -0.889672 7.08939 0
M  V30 1735 H 278.668 -0.43308 9.04564 0
M  V30 1736 H 278.619 1.91249 5.54442 0
M  V30 1737 H 279.301 -0.718054 -0.275244 0
M  V30 1738 H 279.338 -3.75721 1.41832 0
M  V30 1739 H 279.439 -2.90436 -0.145468 0
M  V30 1740 P 280.538 -2.75334 8.47391 0
M  V30 1741 O 280.758 -3.84128 9.44797 0
M  V30 1742 O 281.328 -1.51947 8.68712 0
M  V30 1743 O 280.788 -3.29363 6.99321 0
M  V30 1744 C 279.848 -4.24011 6.4274 0
M  V30 1745 C 280.578 -5.20775 5.52155 0
M  V30 1746 O 280.788 -4.56534 4.22446 0
M  V30 1747 C 281.978 -5.62629 5.96531 0
M  V30 1748 O 282.368 -6.87667 5.41053 0
M  V30 1749 C 282.858 -4.52537 5.39283 0
M  V30 1750 C 282.148 -4.20027 4.08623 0
M  V30 1751 N 282.198 -2.76189 3.71603 0
M  V30 1752 H 279.359 -4.797 7.24003 0
M  V30 1753 H 279.089 -3.69856 5.84513 0
M  V30 1754 H 279.956 -6.10356 5.41441 0
M  V30 1755 P 283.918 -7.20834 5.23717 0
M  V30 1756 O 284.138 -8.66104 5.38572 0
M  V30 1757 O 284.708 -6.33544 6.1349 0
M  V30 1758 O 284.168 -6.7751 3.72168 0
M  V30 1759 C 283.228 -7.20825 2.7076 0
M  V30 1760 C 283.958 -7.45864 1.40599 0
M  V30 1761 O 284.168 -6.17651 0.734225 0
M  V30 1762 C 285.358 -8.05808 1.51899 0
M  V30 1763 O 285.748 -8.74358 0.335205 0
M  V30 1764 C 286.238 -6.83093 1.70294 0
M  V30 1765 C 285.528 -5.79992 0.836974 0
M  V30 1766 N 285.578 -4.41864 1.38293 0
M  V30 1767 H 282.739 -8.13644 3.0377 0
M  V30 1768 H 282.469 -6.42788 2.55485 0
M  V30 1769 H 283.336 -8.12039 0.792769 0
M  V30 1770 P 287.298 -8.91 -1.02605e-12 0
M  V30 1771 O 287.518 -10.1726 -0.733694 0
M  V30 1772 O 288.088 -8.73148 1.23936 0
M  V30 1773 O 287.548 -7.66872 -0.971405 0
M  V30 1774 C 286.608 -7.42309 -2.04641 0
M  V30 1775 C 287.338 -6.86059 -3.24661 0
M  V30 1776 O 287.548 -5.42847 -3.03646 0
M  V30 1777 C 288.738 -7.41196 -3.50753 0
M  V30 1778 O 289.128 -7.27073 -4.86816 0
M  V30 1779 C 289.618 -6.5273 -2.63741 0
M  V30 1780 C 288.908 -5.1842 -2.73198 0
M  V30 1781 N 288.958 -4.38762 -1.4784 0
M  V30 1782 H 286.119 -8.36803 -2.32493 0
M  V30 1783 H 285.849 -6.70197 -1.71129 0
M  V30 1784 H 286.716 -7.03551 -4.13168 0
M  V30 1785 P 290.678 -7.20834 -5.23717 0
M  V30 1786 O 290.898 -7.79853 -6.57286 0
M  V30 1787 O 291.468 -7.79239 -4.12957 0
M  V30 1788 O 290.928 -5.63315 -5.29344 0
M  V30 1789 C 289.988 -4.80255 -6.01876 0
M  V30 1790 C 290.718 -3.64202 -6.65911 0
M  V30 1791 O 290.928 -2.60694 -5.64732 0
M  V30 1792 C 292.118 -3.93473 -7.1943 0
M  V30 1793 O 292.508 -3.02071 -8.21205 0
M  V30 1794 C 292.998 -3.73047 -5.97036 0
M  V30 1795 C 292.288 -2.58828 -5.25741 0
M  V30 1796 N 292.338 -2.68068 -3.77503 0
M  V30 1797 H 289.499 -5.40332 -6.79951 0
M  V30 1798 H 289.229 -4.41613 -5.32378 0
M  V30 1799 H 290.096 -3.26331 -7.47797 0
M  V30 1800 P 294.058 -2.75334 -8.47391 0
M  V30 1801 O 294.278 -2.44571 -9.90142 0
M  V30 1802 O 294.848 -3.87688 -7.92115 0
M  V30 1803 O 294.308 -1.4459 -7.59357 0
M  V30 1804 C 293.368 -0.347608 -7.69215 0
M  V30 1805 C 294.098 0.96767 -7.52806 0
M  V30 1806 O 294.308 1.21036 -6.1011 0
M  V30 1807 C 295.498 1.04544 -8.13308 0
M  V30 1808 O 295.888 2.38311 -8.41922 0
M  V30 1809 C 296.378 0.491279 -7.02284 0
M  V30 1810 C 295.668 0.996264 -5.77469 0
M  V30 1811 N 295.718 0.0501916 -4.62973 0
M  V30 1812 C 295.638 -1.32786 -4.63244 0
M  V30 1813 N 295.718 -1.86957 -3.44545 0
M  V30 1814 C 295.858 -0.780241 -2.58481 0
M  V30 1815 C 295.988 -0.738536 -1.17757 0
M  V30 1816 O 296.008 -1.66794 -0.372349 0
M  V30 1817 N 296.108 0.58337 -0.711393 0
M  V30 1818 C 296.108 1.70816 -1.51017 0
M  V30 1819 N 296.238 2.87826 -0.880757 0
M  V30 1820 N 295.978 1.67126 -2.8339 0
M  V30 1821 C 295.858 0.401421 -3.30572 0
M  V30 1822 H 292.879 -0.374722 -8.67691 0
M  V30 1823 H 292.609 -0.443485 -6.90277 0
M  V30 1824 H 293.476 1.75537 -7.96793 0
M  V30 1825 H 296.131 1.95076 -5.46529 0
M  V30 1826 H 296.41 -0.608565 -7.04577 0
M  V30 1827 H 297.402 0.889672 -7.08939 0
M  V30 1828 H 295.568 0.43308 -9.04564 0
M  V30 1829 H 295.519 -1.91249 -5.54442 0
M  V30 1830 H 296.201 0.718054 0.275244 0
M  V30 1831 H 296.238 3.75721 -1.41832 0
M  V30 1832 H 296.339 2.90436 0.145468 0
M  V30 1833 P 297.438 2.75334 -8.47391 0
M  V30 1834 O 297.658 3.84204 -9.44982 0
M  V30 1835 O 298.228 1.51982 -8.68909 0
M  V30 1836 O 297.688 3.29363 -6.99321 0
M  V30 1837 C 296.748 4.24066 -6.42823 0
M  V30 1838 C 297.478 5.20775 -5.52155 0
M  V30 1839 O 297.688 4.56607 -4.22514 0
M  V30 1840 C 298.878 5.62697 -5.96604 0
M  V30 1841 O 299.268 6.87667 -5.41053 0
M  V30 1842 C 299.758 4.52537 -5.39283 0
M  V30 1843 C 299.048 4.20027 -4.08623 0
M  V30 1844 N 299.098 2.76189 -3.71603 0
M  V30 1845 H 296.26 4.79756 -7.24086 0
M  V30 1846 H 295.988 3.69963 -5.84682 0
M  V30 1847 H 296.856 6.10431 -5.41508 0
M  V30 1848 H 299.511 4.78816 -3.28024 0
M  V30 1849 H 299.791 3.64957 -6.05871 0
M  V30 1850 H 300.782 4.88748 -5.21323 0
M  V30 1851 H 298.948 5.66789 -7.0643 0
M  V30 1852 P 300.818 7.20834 -5.23717 0
M  V30 1853 O 301.038 8.66104 -5.38572 0
M  V30 1854 O 301.608 6.33544 -6.1349 0
M  V30 1855 O 301.068 6.7751 -3.72168 0
M  V30 1856 C 300.128 7.20825 -2.7076 0
M  V30 1857 C 300.858 7.45864 -1.40599 0
M  V30 1858 O 301.068 6.17651 -0.734225 0
M  V30 1859 C 302.258 8.05808 -1.51899 0
M  V30 1860 O 302.648 8.74358 -0.335205 0
M  V30 1861 C 303.138 6.83093 -1.70294 0
M  V30 1862 C 302.428 5.79992 -0.836974 0
M  V30 1863 N 302.478 4.41864 -1.38293 0
M  V30 1864 H 299.639 8.13644 -3.0377 0
M  V30 1865 H 299.369 6.42788 -2.55485 0
M  V30 1866 H 300.236 8.12039 -0.792769 0
M  V30 1867 P 304.198 8.91 1.18324e-12 0
M  V30 1868 O 304.418 10.1726 0.733694 0
M  V30 1869 O 304.988 8.73148 -1.23936 0
M  V30 1870 O 304.448 7.66872 0.971405 0
M  V30 1871 C 303.508 7.42309 2.04641 0
M  V30 1872 C 304.238 6.86059 3.24661 0
M  V30 1873 O 304.448 5.42847 3.03646 0
M  V30 1874 C 305.638 7.41196 3.50753 0
M  V30 1875 O 306.028 7.27073 4.86816 0
M  V30 1876 C 306.518 6.5273 2.63741 0
M  V30 1877 C 305.808 5.1842 2.73198 0
M  V30 1878 N 305.858 4.38762 1.4784 0
M  V30 1879 H 303.019 8.36803 2.32493 0
M  V30 1880 H 302.749 6.70197 1.71129 0
M  V30 1881 H 303.616 7.03551 4.13168 0
M  V30 1882 P 307.578 7.20834 5.23717 0
M  V30 1883 O 307.798 7.79853 6.57286 0
M  V30 1884 O 308.368 7.79239 4.12957 0
M  V30 1885 O 307.828 5.63315 5.29344 0
M  V30 1886 C 306.888 4.80255 6.01876 0
M  V30 1887 C 307.618 3.64202 6.65911 0
M  V30 1888 O 307.828 2.60694 5.64732 0
M  V30 1889 C 309.018 3.93473 7.1943 0
M  V30 1890 O 309.408 3.02071 8.21205 0
M  V30 1891 C 309.898 3.73047 5.97036 0
M  V30 1892 C 309.188 2.58828 5.25741 0
M  V30 1893 N 309.238 2.68068 3.77503 0
M  V30 1894 H 306.399 5.40332 6.79951 0
M  V30 1895 H 306.129 4.41613 5.32378 0
M  V30 1896 H 306.996 3.26331 7.47797 0
M  V30 1897 P 310.958 2.75334 8.47391 0
M  V30 1898 O 311.178 2.44619 9.90336 0
M  V30 1899 O 311.748 3.87776 7.92294 0
M  V30 1900 O 311.208 1.4459 7.59357 0
M  V30 1901 C 310.268 0.347653 7.69315 0
M  V30 1902 C 310.998 -0.96767 7.52806 0
M  V30 1903 O 311.208 -1.21055 6.10208 0
M  V30 1904 C 312.398 -1.04557 8.13408 0
M  V30 1905 O 312.788 -2.38311 8.41922 0
M  V30 1906 C 313.278 -0.491279 7.02284 0
M  V30 1907 C 312.568 -0.996264 5.77469 0
M  V30 1908 N 312.618 -0.0501916 4.62973 0
M  V30 1909 H 309.78 0.374765 8.67791 0
M  V30 1910 H 309.508 0.443613 6.90476 0
M  V30 1911 H 310.376 -1.75559 7.96891 0
M  V30 1912 H 313.031 -1.94563 5.46818 0
M  V30 1913 H 313.311 0.608651 7.04676 0
M  V30 1914 H 314.302 -0.889796 7.09039 0
M  V30 1915 H 312.468 -0.433128 9.04664 0
M  V30 1916 P 314.338 -2.75334 8.47391 0
M  V30 1917 O 314.558 -3.84128 9.44797 0
M  V30 1918 O 315.128 -1.51947 8.68712 0
M  V30 1919 O 314.588 -3.29363 6.99321 0
M  V30 1920 C 313.648 -4.24011 6.4274 0
M  V30 1921 C 314.378 -5.20775 5.52155 0
M  V30 1922 O 314.588 -4.56534 4.22446 0
M  V30 1923 C 315.778 -5.62629 5.96531 0
M  V30 1924 O 316.168 -6.87667 5.41053 0
M  V30 1925 C 316.658 -4.52537 5.39283 0
M  V30 1926 C 315.948 -4.20027 4.08623 0
M  V30 1927 N 315.998 -2.76189 3.71603 0
M  V30 1928 H 313.159 -4.797 7.24003 0
M  V30 1929 H 312.889 -3.69856 5.84513 0
M  V30 1930 H 313.756 -6.10356 5.41441 0
M  V30 1931 P 317.718 -7.20834 5.23717 0
M  V30 1932 O 317.938 -8.66104 5.38572 0
M  V30 1933 O 318.508 -6.33544 6.1349 0
M  V30 1934 O 317.968 -6.7751 3.72168 0
M  V30 1935 C 317.028 -7.20825 2.7076 0
M  V30 1936 C 317.758 -7.45864 1.40599 0
M  V30 1937 O 317.968 -6.17651 0.734225 0
M  V30 1938 C 319.158 -8.05808 1.51899 0
M  V30 1939 O 319.548 -8.74358 0.335205 0
M  V30 1940 C 320.038 -6.83093 1.70294 0
M  V30 1941 C 319.328 -5.79992 0.836974 0
M  V30 1942 N 319.378 -4.41864 1.38293 0
M  V30 1943 H 316.539 -8.13644 3.0377 0
M  V30 1944 H 316.269 -6.42788 2.55485 0
M  V30 1945 H 317.136 -8.12039 0.792769 0
M  V30 1946 P 321.098 -8.91 -1.34042e-12 0
M  V30 1947 O 321.318 -10.1726 -0.733694 0
M  V30 1948 O 321.888 -8.73148 1.23936 0
M  V30 1949 O 321.348 -7.66872 -0.971405 0
M  V30 1950 C 320.408 -7.42309 -2.04641 0
M  V30 1951 C 321.138 -6.86059 -3.24661 0
M  V30 1952 O 321.348 -5.42847 -3.03646 0
M  V30 1953 C 322.538 -7.41196 -3.50753 0
M  V30 1954 O 322.928 -7.27073 -4.86816 0
M  V30 1955 C 323.418 -6.5273 -2.63741 0
M  V30 1956 C 322.708 -5.1842 -2.73198 0
M  V30 1957 N 322.758 -4.38762 -1.4784 0
M  V30 1958 H 319.919 -8.36803 -2.32493 0
M  V30 1959 H 319.649 -6.70197 -1.71129 0
M  V30 1960 H 320.516 -7.03551 -4.13168 0
M  V30 1961 P 324.478 -7.20834 -5.23717 0
M  V30 1962 O 324.698 -7.80006 -6.57415 0
M  V30 1963 O 325.268 -7.79416 -4.13051 0
M  V30 1964 O 324.728 -5.63315 -5.29344 0
M  V30 1965 C 323.788 -4.80318 -6.01954 0
M  V30 1966 C 324.518 -3.64202 -6.65911 0
M  V30 1967 O 324.728 -2.60736 -5.64823 0
M  V30 1968 C 325.918 -3.93521 -7.19518 0
M  V30 1969 O 326.308 -3.02071 -8.21205 0
M  V30 1970 C 326.798 -3.73047 -5.97036 0
M  V30 1971 C 326.088 -2.58828 -5.25741 0
M  V30 1972 N 326.138 -2.68068 -3.77503 0
M  V30 1973 C 326.058 -3.80474 -2.99159 0
M  V30 1974 N 326.128 -3.55622 -1.71925 0
M  V30 1975 C 326.278 -2.1832 -1.65733 0
M  V30 1976 C 326.408 -1.28842 -0.572777 0
M  V30 1977 N 326.418 -1.66875 0.70098 0
M  V30 1978 N 326.528 0.016788 -0.859836 0
M  V30 1979 C 326.518 0.398145 -2.13316 0
M  V30 1980 N 326.398 -0.328224 -3.22333 0
M  V30 1981 C 326.278 -1.62992 -2.90383 0
M  V30 1982 H 323.3 -5.40394 -6.8003 0
M  V30 1983 H 323.028 -4.41741 -5.32532 0
M  V30 1984 H 323.896 -3.26371 -7.47889 0
M  V30 1985 H 326.551 -1.64007 -5.56746 0
M  V30 1986 H 326.831 -4.63439 -5.3432 0
M  V30 1987 H 327.822 -3.44776 -6.25925 0
M  V30 1988 H 325.988 -4.96707 -7.57347 0
M  V30 1989 H 325.947 -4.8089 -3.39924 0
M  V30 1990 H 326.328 -2.66547 0.941919 0
M  V30 1991 H 326.517 -0.965341 1.44766 0
M  V30 1992 H 326.625 1.46427 -2.29697 0
M  V30 1993 P 327.858 -2.75334 -8.47391 0
M  V30 1994 O 328.078 -2.44571 -9.90142 0
M  V30 1995 O 328.648 -3.87688 -7.92115 0
M  V30 1996 O 328.108 -1.4459 -7.59357 0
M  V30 1997 C 327.168 -0.347608 -7.69215 0
M  V30 1998 C 327.898 0.96767 -7.52806 0
M  V30 1999 O 328.108 1.21036 -6.1011 0
M  V30 2000 C 329.298 1.04544 -8.13308 0
M  V30 2001 O 329.688 2.38311 -8.41922 0
M  V30 2002 C 330.178 0.491279 -7.02284 0
M  V30 2003 C 329.468 0.996264 -5.77469 0
M  V30 2004 N 329.518 0.0501916 -4.62973 0
M  V30 2005 H 326.679 -0.374722 -8.67691 0
M  V30 2006 H 326.409 -0.443485 -6.90277 0
M  V30 2007 H 327.276 1.75537 -7.96793 0
M  V30 2008 P 331.238 2.75334 -8.47391 0
M  V30 2009 O 331.458 3.84128 -9.44797 0
M  V30 2010 O 332.028 1.51947 -8.68712 0
M  V30 2011 O 331.488 3.29363 -6.99321 0
M  V30 2012 C 330.548 4.24011 -6.4274 0
M  V30 2013 C 331.278 5.20775 -5.52155 0
M  V30 2014 O 331.488 4.56534 -4.22446 0
M  V30 2015 C 332.678 5.62629 -5.96531 0
M  V30 2016 O 333.068 6.87667 -5.41053 0
M  V30 2017 C 333.558 4.52537 -5.39283 0
M  V30 2018 C 332.848 4.20027 -4.08623 0
M  V30 2019 N 332.898 2.76189 -3.71603 0
M  V30 2020 H 330.059 4.797 -7.24003 0
M  V30 2021 H 329.789 3.69856 -5.84513 0
M  V30 2022 H 330.656 6.10356 -5.41441 0
M  V30 2023 P 334.618 7.20834 -5.23717 0
M  V30 2024 O 334.838 8.66104 -5.38572 0
M  V30 2025 O 335.408 6.33544 -6.1349 0
M  V30 2026 O 334.868 6.7751 -3.72168 0
M  V30 2027 C 333.928 7.20825 -2.7076 0
M  V30 2028 C 334.658 7.45864 -1.40599 0
M  V30 2029 O 334.868 6.17651 -0.734225 0
M  V30 2030 C 336.058 8.05808 -1.51899 0
M  V30 2031 O 336.448 8.74358 -0.335205 0
M  V30 2032 C 336.938 6.83093 -1.70294 0
M  V30 2033 C 336.228 5.79992 -0.836974 0
M  V30 2034 N 336.278 4.41864 -1.38293 0
M  V30 2035 H 333.439 8.13644 -3.0377 0
M  V30 2036 H 333.169 6.42788 -2.55485 0
M  V30 2037 H 334.036 8.12039 -0.792769 0
M  V30 2038 P 337.998 8.91 1.4976e-12 0
M  V30 2039 O 338.218 10.1726 0.733694 0
M  V30 2040 O 338.788 8.73148 -1.23936 0
M  V30 2041 O 338.248 7.66872 0.971405 0
M  V30 2042 C 337.308 7.42309 2.04641 0
M  V30 2043 C 338.038 6.86059 3.24661 0
M  V30 2044 O 338.248 5.42847 3.03646 0
M  V30 2045 C 339.438 7.41196 3.50753 0
M  V30 2046 O 339.828 7.27073 4.86816 0
M  V30 2047 C 340.318 6.5273 2.63741 0
M  V30 2048 C 339.608 5.1842 2.73198 0
M  V30 2049 N 339.658 4.38762 1.4784 0
M  V30 2050 H 336.819 8.36803 2.32493 0
M  V30 2051 H 336.549 6.70197 1.71129 0
M  V30 2052 H 337.416 7.03551 4.13168 0
M  V30 2053 P 341.378 7.20834 5.23717 0
M  V30 2054 O 341.598 7.80006 6.57415 0
M  V30 2055 O 342.168 7.79416 4.13051 0
M  V30 2056 O 341.628 5.63315 5.29344 0
M  V30 2057 C 340.688 4.80318 6.01954 0
M  V30 2058 C 341.418 3.64202 6.65911 0
M  V30 2059 O 341.628 2.60736 5.64823 0
M  V30 2060 C 342.818 3.93521 7.19518 0
M  V30 2061 O 343.208 3.02071 8.21205 0
M  V30 2062 C 343.698 3.73047 5.97036 0
M  V30 2063 C 342.988 2.58828 5.25741 0
M  V30 2064 N 343.038 2.68068 3.77503 0
M  V30 2065 H 340.2 5.40394 6.8003 0
M  V30 2066 H 339.928 4.41741 5.32532 0
M  V30 2067 H 340.796 3.26371 7.47889 0
M  V30 2068 H 343.451 1.64007 5.56746 0
M  V30 2069 H 343.731 4.63439 5.3432 0
M  V30 2070 H 344.722 3.44776 6.25925 0
M  V30 2071 H 342.888 4.96707 7.57347 0
M  V30 2072 P 344.758 2.75334 8.47391 0
M  V30 2073 O 344.978 2.44571 9.90142 0
M  V30 2074 O 345.548 3.87688 7.92115 0
M  V30 2075 O 345.008 1.4459 7.59357 0
M  V30 2076 C 344.068 0.347608 7.69215 0
M  V30 2077 C 344.798 -0.96767 7.52806 0
M  V30 2078 O 345.008 -1.21036 6.1011 0
M  V30 2079 C 346.198 -1.04544 8.13308 0
M  V30 2080 O 346.588 -2.38311 8.41922 0
M  V30 2081 C 347.078 -0.491279 7.02284 0
M  V30 2082 C 346.368 -0.996264 5.77469 0
M  V30 2083 N 346.418 -0.0501916 4.62973 0
M  V30 2084 H 343.579 0.374722 8.67691 0
M  V30 2085 H 343.309 0.443485 6.90277 0
M  V30 2086 H 344.176 -1.75537 7.96793 0
M  V30 2087 P 348.138 -2.75334 8.47391 0
M  V30 2088 O 348.358 -3.84128 9.44797 0
M  V30 2089 O 348.928 -1.51947 8.68712 0
M  V30 2090 O 348.388 -3.29363 6.99321 0
M  V30 2091 C 347.448 -4.24011 6.4274 0
M  V30 2092 C 348.178 -5.20775 5.52155 0
M  V30 2093 O 348.388 -4.56534 4.22446 0
M  V30 2094 C 349.578 -5.62629 5.96531 0
M  V30 2095 O 349.968 -6.87667 5.41053 0
M  V30 2096 C 350.458 -4.52537 5.39283 0
M  V30 2097 C 349.748 -4.20027 4.08623 0
M  V30 2098 N 349.798 -2.76189 3.71603 0
M  V30 2099 C 349.718 -1.64862 4.52822 0
M  V30 2100 N 349.798 -0.512671 3.88633 0
M  V30 2101 C 349.938 -0.888083 2.54977 0
M  V30 2102 C 350.068 -0.094668 1.38677 0
M  V30 2103 O 350.088 1.13053 1.28163 0
M  V30 2104 N 350.188 -0.890102 0.232633 0
M  V30 2105 C 350.188 -2.26958 0.21772 0
M  V30 2106 N 350.318 -2.84626 -0.97925 0
M  V30 2107 N 350.058 -3.0178 1.31033 0
M  V30 2108 C 349.938 -2.26781 2.43843 0
M  V30 2109 H 346.959 -4.797 7.24003 0
M  V30 2110 H 346.689 -3.69856 5.84513 0
M  V30 2111 H 347.556 -6.10356 5.41441 0
M  V30 2112 H 350.211 -4.79061 3.27488 0
M  V30 2113 H 350.49 -3.64906 6.05785 0
M  V30 2114 H 351.482 -4.8868 5.2125 0
M  V30 2115 H 349.648 -5.66726 7.06352 0
M  V30 2116 H 349.599 -1.71169 5.60966 0
M  V30 2117 H 350.281 -0.419134 -0.644739 0
M  V30 2118 H 350.318 -3.87332 -1.06098 0
M  V30 2119 H 350.419 -2.26417 -1.82483 0
M  V30 2120 P 351.518 -7.20834 5.23717 0
M  V30 2121 O 351.738 -8.66189 5.38625 0
M  V30 2122 O 352.308 -6.33615 6.1356 0
M  V30 2123 O 351.768 -6.7751 3.72168 0
M  V30 2124 C 350.828 -7.20732 2.70725 0
M  V30 2125 C 351.558 -7.45864 1.40599 0
M  V30 2126 O 351.768 -6.17651 0.734225 0
M  V30 2127 C 352.958 -8.05808 1.51899 0
M  V30 2128 O 353.348 -8.74358 0.335205 0
M  V30 2129 C 353.838 -6.83093 1.70294 0
M  V30 2130 C 353.128 -5.79992 0.836974 0
M  V30 2131 N 353.178 -4.41769 1.38263 0
M  V30 2132 C 353.328 -3.38591 0.481702 0
M  V30 2133 O 353.418 -3.56839 -0.718452 0
M  V30 2134 N 353.368 -2.1206 1.03569 0
M  V30 2135 C 353.278 -1.80696 2.36966 0
M  V30 2136 C 353.128 -2.94845 3.23898 0
M  V30 2137 C 353.078 -4.19803 2.73435 0
M  V30 2138 H 350.338 -8.13644 3.0377 0
M  V30 2139 H 350.069 -6.42695 2.55448 0
M  V30 2140 H 350.936 -8.12039 0.792769 0
M  V30 2141 H 353.591 -5.79978 -0.160587 0
M  V30 2142 H 353.87 -6.51379 2.75643 0
M  V30 2143 H 354.862 -7.01734 1.34462 0
M  V30 2144 H 353.028 -8.73674 2.38337 0
M  V30 2145 H 352.957 -5.04492 3.4095 0
M  V30 2146 P 354.898 -8.91 -1.65478e-12 0
M  V30 2147 O 355.118 -10.1736 -0.733766 0
M  V30 2148 O 355.688 -8.73247 1.2395 0
M  V30 2149 O 355.148 -7.66872 -0.971405 0
M  V30 2150 C 354.208 -7.42212 -2.04614 0
M  V30 2151 C 354.938 -6.86059 -3.24661 0
M  V30 2152 O 355.148 -5.42847 -3.03646 0
M  V30 2153 C 356.338 -7.41196 -3.50753 0
M  V30 2154 O 356.728 -7.27073 -4.86816 0
M  V30 2155 C 357.218 -6.5273 -2.63741 0
M  V30 2156 C 356.508 -5.1842 -2.73198 0
M  V30 2157 N 356.558 -4.38668 -1.47808 0
M  V30 2158 C 356.708 -3.02239 -1.60048 0
M  V30 2159 O 356.798 -2.46459 -2.67869 0
M  V30 2160 N 356.748 -2.32436 -0.408571 0
M  V30 2161 C 356.658 -2.85471 0.854993 0
M  V30 2162 O 356.708 -2.12566 1.8531 0
M  V30 2163 C 356.508 -4.28918 0.887335 0
M  V30 2164 C 356.398 -4.91066 2.24619 0
M  V30 2165 C 356.458 -5.00349 -0.255399 0
M  V30 2166 H 353.718 -8.36803 -2.32493 0
M  V30 2167 H 353.449 -6.701 -1.71105 0
M  V30 2168 H 354.316 -7.03551 -4.13168 0
M  V30 2169 H 356.971 -4.59773 -3.53894 0
M  V30 2170 H 357.25 -6.88995 -1.59871 0
M  V30 2171 H 358.242 -6.46749 -3.03687 0
M  V30 2172 H 356.408 -8.46908 -3.20714 0
M  V30 2173 H 356.337 -6.08548 -0.206986 0
M  V30 2174 H 357.367 -5.34836 2.53099 0
M  V30 2175 H 355.63 -5.69638 2.2291 0
M  V30 2176 H 356.118 -4.13971 2.98044 0
M  V30 2177 H 356.854 -1.33211 -0.474216 0
M  V30 2178 P 358.278 -7.20834 -5.23717 0
M  V30 2179 O 358.498 -7.79853 -6.57286 0
M  V30 2180 O 359.068 -7.79239 -4.12957 0
M  V30 2181 O 358.528 -5.63315 -5.29344 0
M  V30 2182 C 357.588 -4.80255 -6.01876 0
M  V30 2183 C 358.318 -3.64202 -6.65911 0
M  V30 2184 O 358.528 -2.60694 -5.64732 0
M  V30 2185 C 359.718 -3.93473 -7.1943 0
M  V30 2186 O 360.108 -3.02071 -8.21205 0
M  V30 2187 C 360.598 -3.73047 -5.97036 0
M  V30 2188 C 359.888 -2.58828 -5.25741 0
M  V30 2189 N 359.938 -2.68068 -3.77503 0
M  V30 2190 H 357.099 -5.40332 -6.79951 0
M  V30 2191 H 356.829 -4.41613 -5.32378 0
M  V30 2192 H 357.696 -3.26331 -7.47797 0
M  V30 2193 P 361.658 -2.75334 -8.47391 0
M  V30 2194 O 361.878 -2.44595 -9.90239 0
M  V30 2195 O 362.448 -3.87732 -7.92204 0
M  V30 2196 O 361.908 -1.4459 -7.59357 0
M  V30 2197 C 360.968 -0.347563 -7.69115 0
M  V30 2198 C 361.698 0.96767 -7.52806 0
M  V30 2199 O 361.908 1.21036 -6.1011 0
M  V30 2200 C 363.098 1.04544 -8.13308 0
M  V30 2201 O 363.488 2.38311 -8.41922 0
M  V30 2202 C 363.978 0.491279 -7.02284 0
M  V30 2203 C 363.268 0.996264 -5.77469 0
M  V30 2204 N 363.318 0.0501808 -4.62873 0
M  V30 2205 C 363.468 0.588177 -3.36904 0
M  V30 2206 O 363.558 1.78598 -3.17173 0
M  V30 2207 N 363.508 -0.329694 -2.33686 0
M  V30 2208 C 363.418 -1.6953 -2.45079 0
M  V30 2209 C 363.268 -2.16933 -3.80505 0
M  V30 2210 C 363.218 -1.30326 -4.83752 0
M  V30 2211 H 360.478 -0.374722 -8.67691 0
M  V30 2212 H 360.209 -0.443421 -6.90177 0
M  V30 2213 H 361.076 1.75537 -7.96793 0
M  V30 2214 H 363.731 1.94496 -5.46629 0
M  V30 2215 H 364.01 -0.608651 -7.04676 0
M  V30 2216 H 365.002 0.889672 -7.08939 0
M  V30 2217 H 363.168 0.43308 -9.04564 0
M  V30 2218 H 363.097 -1.68366 -5.8516 0
M  V30 2219 P 365.038 2.75334 -8.47391 0
M  V30 2220 O 365.258 3.84128 -9.44797 0
M  V30 2221 O 365.828 1.51947 -8.68712 0
M  V30 2222 O 365.288 3.29363 -6.99321 0
M  V30 2223 C 364.348 4.24011 -6.4274 0
M  V30 2224 C 365.078 5.20775 -5.52155 0
M  V30 2225 O 365.288 4.56534 -4.22446 0
M  V30 2226 C 366.478 5.62629 -5.96531 0
M  V30 2227 O 366.868 6.87667 -5.41053 0
M  V30 2228 C 367.358 4.52537 -5.39283 0
M  V30 2229 C 366.648 4.20027 -4.08623 0
M  V30 2230 N 366.698 2.76189 -3.71603 0
M  V30 2231 H 363.859 4.797 -7.24003 0
M  V30 2232 H 363.589 3.69856 -5.84513 0
M  V30 2233 H 364.456 6.10356 -5.41441 0
M  V30 2234 P 368.418 7.20834 -5.23717 0
M  V30 2235 O 368.638 8.66189 -5.38625 0
M  V30 2236 O 369.208 6.33615 -6.1356 0
M  V30 2237 O 368.668 6.7751 -3.72168 0
M  V30 2238 C 367.728 7.20732 -2.70725 0
M  V30 2239 C 368.458 7.45864 -1.40599 0
M  V30 2240 O 368.668 6.17651 -0.734225 0
M  V30 2241 C 369.858 8.05808 -1.51899 0
M  V30 2242 O 370.248 8.74358 -0.335205 0
M  V30 2243 C 370.738 6.83093 -1.70294 0
M  V30 2244 C 370.028 5.79992 -0.836974 0
M  V30 2245 N 370.078 4.41769 -1.38263 0
M  V30 2246 C 370.228 3.38591 -0.481702 0
M  V30 2247 O 370.318 3.56839 0.718452 0
M  V30 2248 N 370.268 2.1206 -1.03569 0
M  V30 2249 C 370.178 1.80696 -2.36966 0
M  V30 2250 O 370.228 0.630473 -2.74862 0
M  V30 2251 C 370.028 2.94845 -3.23898 0
M  V30 2252 C 369.918 2.65253 -4.70362 0
M  V30 2253 C 369.978 4.19803 -2.73435 0
M  V30 2254 H 367.238 8.13644 -3.0377 0
M  V30 2255 H 366.969 6.42695 -2.55448 0
M  V30 2256 H 367.836 8.12039 -0.792769 0
M  V30 2257 H 370.491 5.79978 0.160587 0
M  V30 2258 H 370.77 6.51379 -2.75643 0
M  V30 2259 H 371.762 7.01734 -1.34462 0
M  V30 2260 H 369.928 8.73674 -2.38337 0
M  V30 2261 H 369.857 5.04492 -3.4095 0
M  V30 2262 H 370.887 2.83924 -5.1913 0
M  V30 2263 H 369.15 3.29824 -5.15163 0
M  V30 2264 H 369.638 1.59723 -4.84449 0
M  V30 2265 H 370.374 1.35644 -0.399345 0
M  V30 2266 P 371.798 8.91 1.81197e-12 0
M  V30 2267 O 372.018 10.1726 0.733694 0
M  V30 2268 O 372.588 8.73148 -1.23936 0
M  V30 2269 O 372.048 7.66872 0.971405 0
M  V30 2270 C 371.108 7.42309 2.04641 0
M  V30 2271 C 371.838 6.86059 3.24661 0
M  V30 2272 O 372.048 5.42847 3.03646 0
M  V30 2273 C 373.238 7.41196 3.50753 0
M  V30 2274 O 373.628 7.27073 4.86816 0
M  V30 2275 C 374.118 6.5273 2.63741 0
M  V30 2276 C 373.408 5.1842 2.73198 0
M  V30 2277 N 373.458 4.38762 1.4784 0
M  V30 2278 H 370.619 8.36803 2.32493 0
M  V30 2279 H 370.349 6.70197 1.71129 0
M  V30 2280 H 371.216 7.03551 4.13168 0
M  V30 2281 P 375.178 7.20834 5.23717 0
M  V30 2282 O 375.398 7.7993 6.57351 0
M  V30 2283 O 375.968 7.79328 4.13004 0
M  V30 2284 O 375.428 5.63315 5.29344 0
M  V30 2285 C 374.488 4.80193 6.01798 0
M  V30 2286 C 375.218 3.64202 6.65911 0
M  V30 2287 O 375.428 2.60694 5.64732 0
M  V30 2288 C 376.618 3.93473 7.1943 0
M  V30 2289 O 377.008 3.02071 8.21205 0
M  V30 2290 C 377.498 3.73047 5.97036 0
M  V30 2291 C 376.788 2.58828 5.25741 0
M  V30 2292 N 376.838 2.6801 3.77422 0
M  V30 2293 C 376.988 1.50443 3.07133 0
M  V30 2294 O 377.078 0.419406 3.61576 0
M  V30 2295 N 377.028 1.6403 1.69677 0
M  V30 2296 C 376.938 2.81206 0.986255 0
M  V30 2297 O 376.988 2.80892 -0.249754 0
M  V30 2298 C 376.788 3.99158 1.80325 0
M  V30 2299 C 376.678 5.29309 1.06921 0
M  V30 2300 C 376.738 3.89779 3.1476 0
M  V30 2301 H 373.998 5.40332 6.79951 0
M  V30 2302 H 373.729 4.41549 5.32301 0
M  V30 2303 H 374.596 3.26331 7.47797 0
M  V30 2304 H 377.251 1.6395 5.56554 0
M  V30 2305 H 377.53 4.63439 5.3432 0
M  V30 2306 H 378.522 3.44728 6.25838 0
M  V30 2307 H 376.688 4.96652 7.57263 0
M  V30 2308 H 376.617 4.80159 3.74441 0
M  V30 2309 H 377.647 5.81459 1.09608 0
M  V30 2310 H 375.91 5.9187 1.54487 0
M  V30 2311 H 376.398 5.10095 0.0220288 0
M  V30 2312 H 377.134 0.798962 1.16664 0
M  V30 2313 P 378.558 2.75334 8.47391 0
M  V30 2314 O 378.778 2.44571 9.90142 0
M  V30 2315 O 379.348 3.87688 7.92115 0
M  V30 2316 O 378.808 1.4459 7.59357 0
M  V30 2317 C 377.868 0.347608 7.69215 0
M  V30 2318 C 378.598 -0.96767 7.52806 0
M  V30 2319 O 378.808 -1.21036 6.1011 0
M  V30 2320 C 379.998 -1.04544 8.13308 0
M  V30 2321 O 380.388 -2.38311 8.41922 0
M  V30 2322 C 380.878 -0.491279 7.02284 0
M  V30 2323 C 380.168 -0.996264 5.77469 0
M  V30 2324 N 380.218 -0.0501916 4.62973 0
M  V30 2325 H 377.379 0.374722 8.67691 0
M  V30 2326 H 377.109 0.443485 6.90277 0
M  V30 2327 H 377.976 -1.75537 7.96793 0
M  V30 2328 P 381.938 -2.75334 8.47391 0
M  V30 2329 O 382.158 -3.84128 9.44797 0
M  V30 2330 O 382.728 -1.51947 8.68712 0
M  V30 2331 O 382.188 -3.29363 6.99321 0
M  V30 2332 C 381.248 -4.24011 6.4274 0
M  V30 2333 C 381.978 -5.20775 5.52155 0
M  V30 2334 O 382.188 -4.56534 4.22446 0
M  V30 2335 C 383.378 -5.62629 5.96531 0
M  V30 2336 O 383.768 -6.87667 5.41053 0
M  V30 2337 C 384.258 -4.52537 5.39283 0
M  V30 2338 C 383.548 -4.20027 4.08623 0
M  V30 2339 N 383.598 -2.76189 3.71603 0
M  V30 2340 C 383.518 -1.64862 4.52822 0
M  V30 2341 N 383.598 -0.512671 3.88633 0
M  V30 2342 C 383.738 -0.888083 2.54977 0
M  V30 2343 C 383.868 -0.094668 1.38677 0
M  V30 2344 N 383.988 -0.890102 0.232633 0
M  V30 2345 C 383.988 -2.26958 0.21772 0
M  V30 2346 N 384.118 -2.84626 -0.97925 0
M  V30 2347 N 383.858 -3.0178 1.31033 0
M  V30 2348 C 383.738 -2.26781 2.43843 0
M  V30 2349 H 380.759 -4.797 7.24003 0
M  V30 2350 H 380.489 -3.69856 5.84513 0
M  V30 2351 H 381.356 -6.10356 5.41441 0
M  V30 2352 P 385.318 -7.20834 5.23717 0
M  V30 2353 O 385.538 -8.66104 5.38572 0
M  V30 2354 O 386.108 -6.33544 6.1349 0
M  V30 2355 O 385.568 -6.7751 3.72168 0
M  V30 2356 C 384.628 -7.20825 2.7076 0
M  V30 2357 C 385.358 -7.45864 1.40599 0
M  V30 2358 O 385.568 -6.17651 0.734225 0
M  V30 2359 C 386.758 -8.05808 1.51899 0
M  V30 2360 O 387.148 -8.74358 0.335205 0
M  V30 2361 C 387.638 -6.83093 1.70294 0
M  V30 2362 C 386.928 -5.79992 0.836974 0
M  V30 2363 N 386.978 -4.41864 1.38293 0
M  V30 2364 H 384.139 -8.13644 3.0377 0
M  V30 2365 H 383.869 -6.42788 2.55485 0
M  V30 2366 H 384.736 -8.12039 0.792769 0
M  V30 2367 P 388.698 -8.91 -1.96915e-12 0
M  V30 2368 O 388.918 -10.1726 -0.733694 0
M  V30 2369 O 389.488 -8.73148 1.23936 0
M  V30 2370 O 388.948 -7.66872 -0.971405 0
M  V30 2371 C 388.008 -7.42309 -2.04641 0
M  V30 2372 C 388.738 -6.86059 -3.24661 0
M  V30 2373 O 388.948 -5.42847 -3.03646 0
M  V30 2374 C 390.138 -7.41196 -3.50753 0
M  V30 2375 O 390.528 -7.27073 -4.86816 0
M  V30 2376 C 391.018 -6.5273 -2.63741 0
M  V30 2377 C 390.308 -5.1842 -2.73198 0
M  V30 2378 N 390.358 -4.38762 -1.4784 0
M  V30 2379 H 387.519 -8.36803 -2.32493 0
M  V30 2380 H 387.249 -6.70197 -1.71129 0
M  V30 2381 H 388.116 -7.03551 -4.13168 0
M  V30 2382 P 392.078 -7.20834 -5.23717 0
M  V30 2383 O 392.298 -7.80006 -6.57415 0
M  V30 2384 O 392.868 -7.79416 -4.13051 0
M  V30 2385 O 392.328 -5.63315 -5.29344 0
M  V30 2386 C 391.388 -4.80318 -6.01954 0
M  V30 2387 C 392.118 -3.64202 -6.65911 0
M  V30 2388 O 392.328 -2.60736 -5.64823 0
M  V30 2389 C 393.518 -3.93521 -7.19518 0
M  V30 2390 O 393.908 -3.02071 -8.21205 0
M  V30 2391 C 394.398 -3.73047 -5.97036 0
M  V30 2392 C 393.688 -2.58828 -5.25741 0
M  V30 2393 N 393.738 -2.68068 -3.77503 0
M  V30 2394 H 390.9 -5.40394 -6.8003 0
M  V30 2395 H 390.628 -4.41741 -5.32532 0
M  V30 2396 H 391.496 -3.26371 -7.47889 0
M  V30 2397 H 394.151 -1.64007 -5.56746 0
M  V30 2398 H 394.431 -4.63439 -5.3432 0
M  V30 2399 H 395.422 -3.44776 -6.25925 0
M  V30 2400 H 393.588 -4.96707 -7.57347 0
M  V30 2401 P 395.458 -2.75334 -8.47391 0
M  V30 2402 O 395.678 -2.44571 -9.90142 0
M  V30 2403 O 396.248 -3.87688 -7.92115 0
M  V30 2404 O 395.708 -1.4459 -7.59357 0
M  V30 2405 C 394.768 -0.347608 -7.69215 0
M  V30 2406 C 395.498 0.96767 -7.52806 0
M  V30 2407 O 395.708 1.21036 -6.1011 0
M  V30 2408 C 396.898 1.04544 -8.13308 0
M  V30 2409 O 397.288 2.38311 -8.41922 0
M  V30 2410 C 397.778 0.491279 -7.02284 0
M  V30 2411 C 397.068 0.996264 -5.77469 0
M  V30 2412 N 397.118 0.0501916 -4.62973 0
M  V30 2413 C 397.038 -1.32786 -4.63244 0
M  V30 2414 N 397.118 -1.86957 -3.44545 0
M  V30 2415 C 397.258 -0.780241 -2.58481 0
M  V30 2416 C 397.388 -0.738536 -1.17757 0
M  V30 2417 N 397.508 0.58337 -0.711393 0
M  V30 2418 C 397.508 1.70816 -1.51017 0
M  V30 2419 N 397.638 2.87826 -0.880757 0
M  V30 2420 N 397.378 1.67126 -2.8339 0
M  V30 2421 C 397.258 0.401421 -3.30572 0
M  V30 2422 H 394.279 -0.374722 -8.67691 0
M  V30 2423 H 394.009 -0.443485 -6.90277 0
M  V30 2424 H 394.876 1.75537 -7.96793 0
M  V30 2425 P 398.838 2.75334 -8.47391 0
M  V30 2426 O 399.058 3.84128 -9.44797 0
M  V30 2427 O 399.628 1.51947 -8.68712 0
M  V30 2428 O 399.088 3.29363 -6.99321 0
M  V30 2429 C 398.148 4.24011 -6.4274 0
M  V30 2430 C 398.878 5.20775 -5.52155 0
M  V30 2431 O 399.088 4.56534 -4.22446 0
M  V30 2432 C 400.278 5.62629 -5.96531 0
M  V30 2433 O 400.668 6.87667 -5.41053 0
M  V30 2434 C 401.158 4.52537 -5.39283 0
M  V30 2435 C 400.448 4.20027 -4.08623 0
M  V30 2436 N 400.498 2.76189 -3.71603 0
M  V30 2437 H 397.659 4.797 -7.24003 0
M  V30 2438 H 397.389 3.69856 -5.84513 0
M  V30 2439 H 398.256 6.10356 -5.41441 0
M  V30 2440 P 402.218 7.20834 -5.23717 0
M  V30 2441 O 402.438 8.66274 -5.38678 0
M  V30 2442 O 403.008 6.33687 -6.13629 0
M  V30 2443 O 402.468 6.7751 -3.72168 0
M  V30 2444 C 401.528 7.20919 -2.70795 0
M  V30 2445 C 402.258 7.45864 -1.40599 0
M  V30 2446 O 402.468 6.17751 -0.734343 0
M  V30 2447 C 403.658 8.05906 -1.51917 0
M  V30 2448 O 404.048 8.74358 -0.335205 0
M  V30 2449 C 404.538 6.83093 -1.70294 0
M  V30 2450 C 403.828 5.79992 -0.836974 0
M  V30 2451 N 403.878 4.41864 -1.38293 0
M  V30 2452 C 403.798 4.02089 -2.69407 0
M  V30 2453 N 403.868 2.73403 -2.85089 0
M  V30 2454 C 404.018 2.25086 -1.5642 0
M  V30 2455 C 404.148 0.942887 -1.04836 0
M  V30 2456 N 404.158 -0.150999 -1.80369 0
M  V30 2457 N 404.268 0.812565 0.28167 0
M  V30 2458 C 404.258 1.90572 1.03784 0
M  V30 2459 N 404.138 3.167 0.683905 0
M  V30 2460 C 404.018 3.26538 -0.652815 0
M  V30 2461 H 401.04 8.13738 -3.03804 0
M  V30 2462 H 400.768 6.42974 -2.55559 0
M  V30 2463 H 401.636 8.12139 -0.792866 0
M  V30 2464 H 404.291 5.80178 0.160643 0
M  V30 2465 H 404.571 6.51379 -2.75643 0
M  V30 2466 H 405.562 7.01832 -1.3448 0
M  V30 2467 H 403.728 8.73771 -2.38364 0
M  V30 2468 H 403.687 4.7189 -3.52311 0
M  V30 2469 H 404.068 -0.0721434 -2.82608 0
M  V30 2470 H 404.257 -1.0785 -1.36544 0
M  V30 2471 H 404.365 1.73207 2.10241 0
M  V30 2472 P 405.598 8.91 2.12633e-12 0
M  V30 2473 O 405.818 10.1726 0.733694 0
M  V30 2474 O 406.388 8.73148 -1.23936 0
M  V30 2475 O 405.848 7.66872 0.971405 0
M  V30 2476 C 404.908 7.42309 2.04641 0
M  V30 2477 C 405.638 6.86059 3.24661 0
M  V30 2478 O 405.848 5.42847 3.03646 0
M  V30 2479 C 407.038 7.41196 3.50753 0
M  V30 2480 O 407.428 7.27073 4.86816 0
M  V30 2481 C 407.918 6.5273 2.63741 0
M  V30 2482 C 407.208 5.1842 2.73198 0
M  V30 2483 N 407.258 4.38762 1.4784 0
M  V30 2484 H 404.419 8.36803 2.32493 0
M  V30 2485 H 404.149 6.70197 1.71129 0
M  V30 2486 H 405.016 7.03551 4.13168 0
M  V30 2487 P 408.978 7.20834 5.23717 0
M  V30 2488 O 409.198 7.79853 6.57286 0
M  V30 2489 O 409.768 7.79239 4.12957 0
M  V30 2490 O 409.228 5.63315 5.29344 0
M  V30 2491 C 408.288 4.80255 6.01876 0
M  V30 2492 C 409.018 3.64202 6.65911 0
M  V30 2493 O 409.228 2.60694 5.64732 0
M  V30 2494 C 410.418 3.93473 7.1943 0
M  V30 2495 O 410.808 3.02071 8.21205 0
M  V30 2496 C 411.298 3.73047 5.97036 0
M  V30 2497 C 410.588 2.58828 5.25741 0
M  V30 2498 N 410.638 2.68068 3.77503 0
M  V30 2499 H 407.799 5.40332 6.79951 0
M  V30 2500 H 407.529 4.41613 5.32378 0
M  V30 2501 H 408.396 3.26331 7.47797 0
M  V30 2502 P 412.358 2.75334 8.47391 0
M  V30 2503 O 412.578 2.44571 9.90142 0
M  V30 2504 O 413.148 3.87688 7.92115 0
M  V30 2505 O 412.608 1.4459 7.59357 0
M  V30 2506 C 411.668 0.347608 7.69215 0
M  V30 2507 C 412.398 -0.96767 7.52806 0
M  V30 2508 O 412.608 -1.21036 6.1011 0
M  V30 2509 C 413.798 -1.04544 8.13308 0
M  V30 2510 O 414.188 -2.38311 8.41922 0
M  V30 2511 C 414.678 -0.491279 7.02284 0
M  V30 2512 C 413.968 -0.996264 5.77469 0
M  V30 2513 N 414.018 -0.0501916 4.62973 0
M  V30 2514 H 411.179 0.374722 8.67691 0
M  V30 2515 H 410.909 0.443485 6.90277 0
M  V30 2516 H 411.776 -1.75537 7.96793 0
M  V30 2517 P 415.738 -2.75334 8.47391 0
M  V30 2518 O 415.958 -3.84204 9.44982 0
M  V30 2519 O 416.528 -1.51982 8.68909 0
M  V30 2520 O 415.988 -3.29363 6.99321 0
M  V30 2521 C 415.048 -4.24066 6.42823 0
M  V30 2522 C 415.778 -5.20775 5.52155 0
M  V30 2523 O 415.988 -4.56607 4.22514 0
M  V30 2524 C 417.178 -5.62697 5.96604 0
M  V30 2525 O 417.568 -6.87667 5.41053 0
M  V30 2526 C 418.058 -4.52537 5.39283 0
M  V30 2527 C 417.348 -4.20027 4.08623 0
M  V30 2528 N 417.398 -2.76189 3.71603 0
M  V30 2529 H 414.56 -4.79756 7.24086 0
M  V30 2530 H 414.288 -3.69963 5.84682 0
M  V30 2531 H 415.156 -6.10431 5.41508 0
M  V30 2532 H 417.811 -4.78816 3.28024 0
M  V30 2533 H 418.091 -3.64957 6.05871 0
M  V30 2534 H 419.082 -4.88748 5.21323 0
M  V30 2535 H 417.248 -5.66789 7.0643 0
M  V30 2536 P 419.118 -7.20834 5.23717 0
M  V30 2537 O 419.338 -8.66189 5.38625 0
M  V30 2538 O 419.908 -6.33615 6.1356 0
M  V30 2539 O 419.368 -6.7751 3.72168 0
M  V30 2540 C 418.428 -7.20825 2.7076 0
M  V30 2541 C 419.158 -7.45864 1.40599 0
M  V30 2542 O 419.368 -6.17651 0.734225 0
M  V30 2543 C 420.558 -8.05808 1.51899 0
M  V30 2544 O 420.948 -8.74358 0.335205 0
M  V30 2545 C 421.438 -6.83093 1.70294 0
M  V30 2546 C 420.728 -5.79992 0.836974 0
M  V30 2547 N 420.778 -4.41769 1.38263 0
M  V30 2548 C 420.928 -3.36514 0.485617 0
M  V30 2549 O 421.018 -3.61814 -0.724703 0
M  V30 2550 N 420.978 -2.00746 1.14492 0
M  V30 2551 C 420.878 -1.85887 2.27776 0
M  V30 2552 N 420.928 -0.600907 2.69379 0
M  V30 2553 C 420.728 -2.92182 3.22265 0
M  V30 2554 C 420.678 -4.18399 2.71925 0
M  V30 2555 H 417.938 -8.1355 3.03735 0
M  V30 2556 H 417.669 -6.42695 2.55448 0
M  V30 2557 H 418.536 -8.12139 0.792866 0
M  V30 2558 H 421.191 -5.80078 -0.160615 0
M  V30 2559 H 421.47 -6.51379 2.75643 0
M  V30 2560 H 422.462 -7.01734 1.34462 0
M  V30 2561 H 420.628 -8.73674 2.38337 0
M  V30 2562 H 420.556 -5.02669 3.39718 0
M  V30 2563 H 420.658 -2.73001 4.29239 0
M  V30 2564 H 421.046 0.162318 2.01146 0
M  V30 2565 H 420.849 -0.387742 3.69773 0
M  V30 2566 P 422.497 -8.91 -2.28351e-12 0
M  V30 2567 O 422.717 -10.1726 -0.733694 0
M  V30 2568 O 423.287 -8.73148 1.23936 0
M  V30 2569 O 422.747 -7.66872 -0.971405 0
M  V30 2570 C 421.807 -7.42309 -2.04641 0
M  V30 2571 C 422.537 -6.86059 -3.24661 0
M  V30 2572 O 422.747 -5.42847 -3.03646 0
M  V30 2573 C 423.937 -7.41196 -3.50753 0
M  V30 2574 O 424.327 -7.27073 -4.86816 0
M  V30 2575 C 424.817 -6.5273 -2.63741 0
M  V30 2576 C 424.107 -5.1842 -2.73198 0
M  V30 2577 N 424.157 -4.38762 -1.4784 0
M  V30 2578 C 424.077 -4.81605 -0.168631 0
M  V30 2579 N 424.157 -3.85454 0.713363 0
M  V30 2580 C 424.297 -2.6994 -0.0566958 0
M  V30 2581 C 424.427 -1.34815 0.338502 0
M  V30 2582 N 424.547 -0.496304 -0.77465 0
M  V30 2583 C 424.547 -0.908403 -2.09122 0
M  V30 2584 N 424.677 0.0517805 -3.00955 0
M  V30 2585 N 424.417 -2.17875 -2.46519 0
M  V30 2586 C 424.297 -3.01988 -1.4033 0
M  V30 2587 H 421.318 -8.36803 -2.32493 0
M  V30 2588 H 421.048 -6.70197 -1.71129 0
M  V30 2589 H 421.915 -7.03551 -4.13168 0
M  V30 2590 P 425.877 -7.20834 -5.23717 0
M  V30 2591 O 426.097 -7.79853 -6.57286 0
M  V30 2592 O 426.667 -7.79239 -4.12957 0
M  V30 2593 O 426.127 -5.63315 -5.29344 0
M  V30 2594 C 425.187 -4.80255 -6.01876 0
M  V30 2595 C 425.917 -3.64202 -6.65911 0
M  V30 2596 O 426.127 -2.60694 -5.64732 0
M  V30 2597 C 427.317 -3.93473 -7.1943 0
M  V30 2598 O 427.707 -3.02071 -8.21205 0
M  V30 2599 C 428.197 -3.73047 -5.97036 0
M  V30 2600 C 427.487 -2.58828 -5.25741 0
M  V30 2601 N 427.537 -2.68068 -3.77503 0
M  V30 2602 C 427.457 -3.79715 -2.96723 0
M  V30 2603 N 427.537 -3.5377 -1.68852 0
M  V30 2604 C 427.677 -2.15054 -1.63254 0
M  V30 2605 C 427.807 -1.28964 -0.518571 0
M  V30 2606 N 427.927 0.0538097 -0.918425 0
M  V30 2607 C 427.927 0.494275 -2.22578 0
M  V30 2608 N 428.057 1.81086 -2.40434 0
M  V30 2609 N 427.797 -0.313645 -3.27502 0
M  V30 2610 C 427.677 -1.61829 -2.91033 0
M  V30 2611 H 424.698 -5.40332 -6.79951 0
M  V30 2612 H 424.428 -4.41613 -5.32378 0
M  V30 2613 H 425.295 -3.26331 -7.47797 0
M  V30 2614 P 429.257 -2.75334 -8.47391 0
M  V30 2615 O 429.477 -2.44571 -9.90142 0
M  V30 2616 O 430.047 -3.87688 -7.92115 0
M  V30 2617 O 429.507 -1.4459 -7.59357 0
M  V30 2618 C 428.567 -0.347608 -7.69215 0
M  V30 2619 C 429.297 0.96767 -7.52806 0
M  V30 2620 O 429.507 1.21036 -6.1011 0
M  V30 2621 C 430.697 1.04544 -8.13308 0
M  V30 2622 O 431.087 2.38311 -8.41922 0
M  V30 2623 C 431.577 0.491279 -7.02284 0
M  V30 2624 C 430.867 0.996264 -5.77469 0
M  V30 2625 N 430.917 0.0501916 -4.62973 0
M  V30 2626 H 428.078 -0.374722 -8.67691 0
M  V30 2627 H 427.808 -0.443485 -6.90277 0
M  V30 2628 H 428.675 1.75537 -7.96793 0
M  V30 2629 P 432.637 2.75334 -8.47391 0
M  V30 2630 O 432.857 3.84128 -9.44797 0
M  V30 2631 O 433.427 1.51947 -8.68712 0
M  V30 2632 O 432.887 3.29363 -6.99321 0
M  V30 2633 C 431.947 4.24011 -6.4274 0
M  V30 2634 C 432.677 5.20775 -5.52155 0
M  V30 2635 O 432.887 4.56534 -4.22446 0
M  V30 2636 C 434.077 5.62629 -5.96531 0
M  V30 2637 O 434.467 6.87667 -5.41053 0
M  V30 2638 C 434.957 4.52537 -5.39283 0
M  V30 2639 C 434.247 4.20027 -4.08623 0
M  V30 2640 N 434.297 2.76189 -3.71603 0
M  V30 2641 H 431.458 4.797 -7.24003 0
M  V30 2642 H 431.188 3.69856 -5.84513 0
M  V30 2643 H 432.055 6.10356 -5.41441 0
M  V30 2644 P 436.017 7.20834 -5.23717 0
M  V30 2645 O 436.237 8.66104 -5.38572 0
M  V30 2646 O 436.807 6.33544 -6.1349 0
M  V30 2647 O 436.267 6.7751 -3.72168 0
M  V30 2648 C 435.327 7.20825 -2.7076 0
M  V30 2649 C 436.057 7.45864 -1.40599 0
M  V30 2650 O 436.267 6.17651 -0.734225 0
M  V30 2651 C 437.457 8.05808 -1.51899 0
M  V30 2652 O 437.847 8.74358 -0.335205 0
M  V30 2653 C 438.337 6.83093 -1.70294 0
M  V30 2654 C 437.627 5.79992 -0.836974 0
M  V30 2655 N 437.677 4.41864 -1.38293 0
M  V30 2656 H 434.838 8.13644 -3.0377 0
M  V30 2657 H 434.568 6.42788 -2.55485 0
M  V30 2658 H 435.435 8.12039 -0.792769 0
M  V30 2659 P 439.397 8.91 2.44069e-12 0
M  V30 2660 O 439.617 10.1726 0.733694 0
M  V30 2661 O 440.187 8.73148 -1.23936 0
M  V30 2662 O 439.647 7.66872 0.971405 0
M  V30 2663 C 438.707 7.42309 2.04641 0
M  V30 2664 C 439.437 6.86059 3.24661 0
M  V30 2665 O 439.647 5.42847 3.03646 0
M  V30 2666 C 440.837 7.41196 3.50753 0
M  V30 2667 O 441.227 7.27073 4.86816 0
M  V30 2668 C 441.717 6.5273 2.63741 0
M  V30 2669 C 441.007 5.1842 2.73198 0
M  V30 2670 N 441.057 4.38762 1.4784 0
M  V30 2671 C 440.977 4.81605 0.168631 0
M  V30 2672 N 441.057 3.85454 -0.713363 0
M  V30 2673 C 441.197 2.6994 0.0566958 0
M  V30 2674 C 441.327 1.34815 -0.338502 0
M  V30 2675 N 441.447 0.496304 0.77465 0
M  V30 2676 C 441.447 0.908403 2.09122 0
M  V30 2677 N 441.577 -0.0517805 3.00955 0
M  V30 2678 N 441.317 2.17875 2.46519 0
M  V30 2679 C 441.197 3.01988 1.4033 0
M  V30 2680 H 438.218 8.36803 2.32493 0
M  V30 2681 H 437.948 6.70197 1.71129 0
M  V30 2682 H 438.815 7.03551 4.13168 0
M  V30 2683 P 442.777 7.20834 5.23717 0
M  V30 2684 O 442.997 7.79853 6.57286 0
M  V30 2685 O 443.567 7.79239 4.12957 0
M  V30 2686 O 443.027 5.63315 5.29344 0
M  V30 2687 C 442.087 4.80255 6.01876 0
M  V30 2688 C 442.817 3.64202 6.65911 0
M  V30 2689 O 443.027 2.60694 5.64732 0
M  V30 2690 C 444.217 3.93473 7.1943 0
M  V30 2691 O 444.607 3.02071 8.21205 0
M  V30 2692 C 445.097 3.73047 5.97036 0
M  V30 2693 C 444.387 2.58828 5.25741 0
M  V30 2694 N 444.437 2.68068 3.77503 0
M  V30 2695 H 441.598 5.40332 6.79951 0
M  V30 2696 H 441.328 4.41613 5.32378 0
M  V30 2697 H 442.195 3.26331 7.47797 0
M  V30 2698 P 446.157 2.75334 8.47391 0
M  V30 2699 O 446.377 2.44571 9.90142 0
M  V30 2700 O 446.947 3.87688 7.92115 0
M  V30 2701 O 446.407 1.4459 7.59357 0
M  V30 2702 C 445.467 0.347608 7.69215 0
M  V30 2703 C 446.197 -0.96767 7.52806 0
M  V30 2704 O 446.407 -1.21036 6.1011 0
M  V30 2705 C 447.597 -1.04544 8.13308 0
M  V30 2706 O 447.987 -2.38311 8.41922 0
M  V30 2707 C 448.477 -0.491279 7.02284 0
M  V30 2708 C 447.767 -0.996264 5.77469 0
M  V30 2709 N 447.817 -0.0501916 4.62973 0
M  V30 2710 H 444.978 0.374722 8.67691 0
M  V30 2711 H 444.708 0.443485 6.90277 0
M  V30 2712 H 445.575 -1.75537 7.96793 0
M  V30 2713 P 449.537 -2.75334 8.47391 0
M  V30 2714 O 449.757 -3.84128 9.44797 0
M  V30 2715 O 450.327 -1.51947 8.68712 0
M  V30 2716 O 449.787 -3.29363 6.99321 0
M  V30 2717 C 448.847 -4.24011 6.4274 0
M  V30 2718 C 449.577 -5.20775 5.52155 0
M  V30 2719 O 449.787 -4.56534 4.22446 0
M  V30 2720 C 450.977 -5.62629 5.96531 0
M  V30 2721 O 451.367 -6.87667 5.41053 0
M  V30 2722 C 451.857 -4.52537 5.39283 0
M  V30 2723 C 451.147 -4.20027 4.08623 0
M  V30 2724 N 451.197 -2.76189 3.71603 0
M  V30 2725 H 448.358 -4.797 7.24003 0
M  V30 2726 H 448.088 -3.69856 5.84513 0
M  V30 2727 H 448.955 -6.10356 5.41441 0
M  V30 2728 P 452.917 -7.20834 5.23717 0
M  V30 2729 O 453.137 -8.66104 5.38572 0
M  V30 2730 O 453.707 -6.33544 6.1349 0
M  V30 2731 O 453.167 -6.7751 3.72168 0
M  V30 2732 C 452.227 -7.20825 2.7076 0
M  V30 2733 C 452.957 -7.45864 1.40599 0
M  V30 2734 O 453.167 -6.17651 0.734225 0
M  V30 2735 C 454.357 -8.05808 1.51899 0
M  V30 2736 O 454.747 -8.74358 0.335205 0
M  V30 2737 C 455.237 -6.83093 1.70294 0
M  V30 2738 C 454.527 -5.79992 0.836974 0
M  V30 2739 N 454.577 -4.41864 1.38293 0
M  V30 2740 H 451.738 -8.13644 3.0377 0
M  V30 2741 H 451.468 -6.42788 2.55485 0
M  V30 2742 H 452.335 -8.12039 0.792769 0
M  V30 2743 P 456.297 -8.91 -2.59788e-12 0
M  V30 2744 O 456.517 -10.1726 -0.733694 0
M  V30 2745 O 457.087 -8.73148 1.23936 0
M  V30 2746 O 456.547 -7.66872 -0.971405 0
M  V30 2747 C 455.607 -7.42309 -2.04641 0
M  V30 2748 C 456.337 -6.86059 -3.24661 0
M  V30 2749 O 456.547 -5.42847 -3.03646 0
M  V30 2750 C 457.737 -7.41196 -3.50753 0
M  V30 2751 O 458.127 -7.27073 -4.86816 0
M  V30 2752 C 458.617 -6.5273 -2.63741 0
M  V30 2753 C 457.907 -5.1842 -2.73198 0
M  V30 2754 N 457.957 -4.38762 -1.4784 0
M  V30 2755 C 457.877 -4.81605 -0.168631 0
M  V30 2756 N 457.957 -3.85454 0.713363 0
M  V30 2757 C 458.097 -2.6994 -0.0566958 0
M  V30 2758 C 458.227 -1.34815 0.338502 0
M  V30 2759 N 458.347 -0.496304 -0.77465 0
M  V30 2760 C 458.347 -0.908403 -2.09122 0
M  V30 2761 N 458.477 0.0517805 -3.00955 0
M  V30 2762 N 458.217 -2.17875 -2.46519 0
M  V30 2763 C 458.097 -3.01988 -1.4033 0
M  V30 2764 H 455.118 -8.36803 -2.32493 0
M  V30 2765 H 454.848 -6.70197 -1.71129 0
M  V30 2766 H 455.715 -7.03551 -4.13168 0
M  V30 2767 P 459.677 -7.20834 -5.23717 0
M  V30 2768 O 459.897 -7.79853 -6.57286 0
M  V30 2769 O 460.467 -7.79239 -4.12957 0
M  V30 2770 O 459.927 -5.63315 -5.29344 0
M  V30 2771 C 458.987 -4.80255 -6.01876 0
M  V30 2772 C 459.717 -3.64202 -6.65911 0
M  V30 2773 O 459.927 -2.60694 -5.64732 0
M  V30 2774 C 461.117 -3.93473 -7.1943 0
M  V30 2775 O 461.507 -3.02071 -8.21205 0
M  V30 2776 C 461.997 -3.73047 -5.97036 0
M  V30 2777 C 461.287 -2.58828 -5.25741 0
M  V30 2778 N 461.337 -2.68068 -3.77503 0
M  V30 2779 H 458.498 -5.40332 -6.79951 0
M  V30 2780 H 458.228 -4.41613 -5.32378 0
M  V30 2781 H 459.095 -3.26331 -7.47797 0
M  V30 2782 P 463.057 -2.75334 -8.47391 0
M  V30 2783 O 463.277 -2.44571 -9.90142 0
M  V30 2784 O 463.847 -3.87688 -7.92115 0
M  V30 2785 O 463.307 -1.4459 -7.59357 0
M  V30 2786 C 462.367 -0.347608 -7.69215 0
M  V30 2787 C 463.097 0.96767 -7.52806 0
M  V30 2788 O 463.307 1.21036 -6.1011 0
M  V30 2789 C 464.497 1.04544 -8.13308 0
M  V30 2790 O 464.887 2.38311 -8.41922 0
M  V30 2791 C 465.377 0.491279 -7.02284 0
M  V30 2792 C 464.667 0.996264 -5.77469 0
M  V30 2793 N 464.717 0.0501916 -4.62973 0
M  V30 2794 H 461.878 -0.374722 -8.67691 0
M  V30 2795 H 461.608 -0.443485 -6.90277 0
M  V30 2796 H 462.475 1.75537 -7.96793 0
M  V30 2797 P 466.437 2.75334 -8.47391 0
M  V30 2798 O 466.657 3.84204 -9.44982 0
M  V30 2799 O 467.227 1.51982 -8.68909 0
M  V30 2800 O 466.687 3.29363 -6.99321 0
M  V30 2801 C 465.747 4.24066 -6.42823 0
M  V30 2802 C 466.477 5.20775 -5.52155 0
M  V30 2803 O 466.687 4.56607 -4.22514 0
M  V30 2804 C 467.877 5.62697 -5.96604 0
M  V30 2805 O 468.267 6.87667 -5.41053 0
M  V30 2806 C 468.757 4.52537 -5.39283 0
M  V30 2807 C 468.047 4.20027 -4.08623 0
M  V30 2808 N 468.097 2.76189 -3.71603 0
M  V30 2809 H 465.259 4.79756 -7.24086 0
M  V30 2810 H 464.987 3.69963 -5.84682 0
M  V30 2811 H 465.855 6.10431 -5.41508 0
M  V30 2812 H 468.51 4.78816 -3.28024 0
M  V30 2813 H 468.79 3.64957 -6.05871 0
M  V30 2814 H 469.781 4.88748 -5.21323 0
M  V30 2815 H 467.947 5.66789 -7.0643 0
M  V30 2816 P 469.817 7.20834 -5.23717 0
M  V30 2817 O 470.037 8.66104 -5.38572 0
M  V30 2818 O 470.607 6.33544 -6.1349 0
M  V30 2819 O 470.067 6.7751 -3.72168 0
M  V30 2820 C 469.127 7.20825 -2.7076 0
M  V30 2821 C 469.857 7.45864 -1.40599 0
M  V30 2822 O 470.067 6.17651 -0.734225 0
M  V30 2823 C 471.257 8.05808 -1.51899 0
M  V30 2824 O 471.647 8.74358 -0.335205 0
M  V30 2825 C 472.137 6.83093 -1.70294 0
M  V30 2826 C 471.427 5.79992 -0.836974 0
M  V30 2827 N 471.477 4.41864 -1.38293 0
M  V30 2828 H 468.638 8.13644 -3.0377 0
M  V30 2829 H 468.368 6.42788 -2.55485 0
M  V30 2830 H 469.235 8.12039 -0.792769 0
M  V30 2831 P 473.197 8.91 2.75506e-12 0
M  V30 2832 O 473.417 10.1726 0.733694 0
M  V30 2833 O 473.987 8.73148 -1.23936 0
M  V30 2834 O 473.447 7.66872 0.971405 0
M  V30 2835 C 472.507 7.42309 2.04641 0
M  V30 2836 C 473.237 6.86059 3.24661 0
M  V30 2837 O 473.447 5.42847 3.03646 0
M  V30 2838 C 474.637 7.41196 3.50753 0
M  V30 2839 O 475.027 7.27073 4.86816 0
M  V30 2840 C 475.517 6.5273 2.63741 0
M  V30 2841 C 474.807 5.1842 2.73198 0
M  V30 2842 N 474.857 4.38762 1.4784 0
M  V30 2843 H 472.018 8.36803 2.32493 0
M  V30 2844 H 471.748 6.70197 1.71129 0
M  V30 2845 H 472.615 7.03551 4.13168 0
M  V30 2846 P 476.577 7.20834 5.23717 0
M  V30 2847 O 476.797 7.79853 6.57286 0
M  V30 2848 O 477.367 7.79239 4.12957 0
M  V30 2849 O 476.827 5.63315 5.29344 0
M  V30 2850 C 475.887 4.80255 6.01876 0
M  V30 2851 C 476.617 3.64202 6.65911 0
M  V30 2852 O 476.827 2.60694 5.64732 0
M  V30 2853 C 478.017 3.93473 7.1943 0
M  V30 2854 O 478.407 3.02071 8.21205 0
M  V30 2855 C 478.897 3.73047 5.97036 0
M  V30 2856 C 478.187 2.58828 5.25741 0
M  V30 2857 N 478.237 2.68068 3.77503 0
M  V30 2858 H 475.398 5.40332 6.79951 0
M  V30 2859 H 475.128 4.41613 5.32378 0
M  V30 2860 H 475.995 3.26331 7.47797 0
M  V30 2861 P 479.957 2.75334 8.47391 0
M  V30 2862 O 480.177 2.44571 9.90142 0
M  V30 2863 O 480.747 3.87688 7.92115 0
M  V30 2864 O 480.207 1.4459 7.59357 0
M  V30 2865 C 479.267 0.347608 7.69215 0
M  V30 2866 C 479.997 -0.96767 7.52806 0
M  V30 2867 O 480.207 -1.21036 6.1011 0
M  V30 2868 C 481.397 -1.04544 8.13308 0
M  V30 2869 O 481.787 -2.38311 8.41922 0
M  V30 2870 C 482.277 -0.491279 7.02284 0
M  V30 2871 C 481.567 -0.996264 5.77469 0
M  V30 2872 N 481.617 -0.0501916 4.62973 0
M  V30 2873 H 478.778 0.374722 8.67691 0
M  V30 2874 H 478.508 0.443485 6.90277 0
M  V30 2875 H 479.375 -1.75537 7.96793 0
M  V30 2876 P 483.337 -2.75334 8.47391 0
M  V30 2877 O 483.557 -3.84128 9.44797 0
M  V30 2878 O 484.127 -1.51947 8.68712 0
M  V30 2879 O 483.587 -3.29363 6.99321 0
M  V30 2880 C 482.647 -4.24011 6.4274 0
M  V30 2881 C 483.377 -5.20775 5.52155 0
M  V30 2882 O 483.587 -4.56534 4.22446 0
M  V30 2883 C 484.777 -5.62629 5.96531 0
M  V30 2884 O 485.167 -6.87667 5.41053 0
M  V30 2885 C 485.657 -4.52537 5.39283 0
M  V30 2886 C 484.947 -4.20027 4.08623 0
M  V30 2887 N 484.997 -2.76189 3.71603 0
M  V30 2888 H 482.158 -4.797 7.24003 0
M  V30 2889 H 481.888 -3.69856 5.84513 0
M  V30 2890 H 482.755 -6.10356 5.41441 0
M  V30 2891 P 486.717 -7.20834 5.23717 0
M  V30 2892 O 486.937 -8.66104 5.38572 0
M  V30 2893 O 487.507 -6.33544 6.1349 0
M  V30 2894 O 486.967 -6.7751 3.72168 0
M  V30 2895 C 486.027 -7.20825 2.7076 0
M  V30 2896 C 486.757 -7.45864 1.40599 0
M  V30 2897 O 486.967 -6.17651 0.734225 0
M  V30 2898 C 488.157 -8.05808 1.51899 0
M  V30 2899 O 488.547 -8.74358 0.335205 0
M  V30 2900 C 489.037 -6.83093 1.70294 0
M  V30 2901 C 488.327 -5.79992 0.836974 0
M  V30 2902 N 488.377 -4.41864 1.38293 0
M  V30 2903 H 485.538 -8.13644 3.0377 0
M  V30 2904 H 485.268 -6.42788 2.55485 0
M  V30 2905 H 486.135 -8.12039 0.792769 0
M  V30 2906 P 490.097 -8.91 -2.91224e-12 0
M  V30 2907 O 490.317 -10.1726 -0.733694 0
M  V30 2908 O 490.887 -8.73148 1.23936 0
M  V30 2909 O 490.347 -7.66872 -0.971405 0
M  V30 2910 C 489.407 -7.42309 -2.04641 0
M  V30 2911 C 490.137 -6.86059 -3.24661 0
M  V30 2912 O 490.347 -5.42847 -3.03646 0
M  V30 2913 C 491.537 -7.41196 -3.50753 0
M  V30 2914 O 491.927 -7.27073 -4.86816 0
M  V30 2915 C 492.417 -6.5273 -2.63741 0
M  V30 2916 C 491.707 -5.1842 -2.73198 0
M  V30 2917 N 491.757 -4.38762 -1.4784 0
M  V30 2918 H 488.918 -8.36803 -2.32493 0
M  V30 2919 H 488.648 -6.70197 -1.71129 0
M  V30 2920 H 489.515 -7.03551 -4.13168 0
M  V30 2921 P 493.477 -7.20834 -5.23717 0
M  V30 2922 O 493.697 -7.79853 -6.57286 0
M  V30 2923 O 494.267 -7.79239 -4.12957 0
M  V30 2924 O 493.727 -5.63315 -5.29344 0
M  V30 2925 C 492.787 -4.80255 -6.01876 0
M  V30 2926 C 493.517 -3.64202 -6.65911 0
M  V30 2927 O 493.727 -2.60694 -5.64732 0
M  V30 2928 C 494.917 -3.93473 -7.1943 0
M  V30 2929 O 495.307 -3.02071 -8.21205 0
M  V30 2930 C 495.797 -3.73047 -5.97036 0
M  V30 2931 C 495.087 -2.58828 -5.25741 0
M  V30 2932 N 495.137 -2.68068 -3.77503 0
M  V30 2933 H 492.298 -5.40332 -6.79951 0
M  V30 2934 H 492.028 -4.41613 -5.32378 0
M  V30 2935 H 492.895 -3.26331 -7.47797 0
M  V30 2936 P 496.857 -2.75334 -8.47391 0
M  V30 2937 O 497.077 -2.44571 -9.90142 0
M  V30 2938 O 497.647 -3.87688 -7.92115 0
M  V30 2939 O 497.107 -1.4459 -7.59357 0
M  V30 2940 C 496.167 -0.347608 -7.69215 0
M  V30 2941 C 496.897 0.96767 -7.52806 0
M  V30 2942 O 497.107 1.21036 -6.1011 0
M  V30 2943 C 498.297 1.04544 -8.13308 0
M  V30 2944 O 498.687 2.38311 -8.41922 0
M  V30 2945 C 499.177 0.491279 -7.02284 0
M  V30 2946 C 498.467 0.996264 -5.77469 0
M  V30 2947 N 498.517 0.0501916 -4.62973 0
M  V30 2948 C 498.437 -1.32786 -4.63244 0
M  V30 2949 N 498.517 -1.86957 -3.44545 0
M  V30 2950 C 498.657 -0.780241 -2.58481 0
M  V30 2951 C 498.787 -0.738536 -1.17757 0
M  V30 2952 O 498.807 -1.66794 -0.372349 0
M  V30 2953 N 498.907 0.58337 -0.711393 0
M  V30 2954 C 498.907 1.70816 -1.51017 0
M  V30 2955 N 499.037 2.87826 -0.880757 0
M  V30 2956 N 498.777 1.67126 -2.8339 0
M  V30 2957 C 498.657 0.401421 -3.30572 0
M  V30 2958 H 495.678 -0.374722 -8.67691 0
M  V30 2959 H 495.408 -0.443485 -6.90277 0
M  V30 2960 H 496.275 1.75537 -7.96793 0
M  V30 2961 H 498.93 1.95076 -5.46529 0
M  V30 2962 H 499.209 -0.608565 -7.04577 0
M  V30 2963 H 500.201 0.889672 -7.08939 0
M  V30 2964 H 498.367 0.43308 -9.04564 0
M  V30 2965 H 498.318 -1.91249 -5.54442 0
M  V30 2966 H 499 0.718054 0.275244 0
M  V30 2967 H 499.037 3.75721 -1.41832 0
M  V30 2968 H 499.138 2.90436 0.145468 0
M  V30 2969 P 500.237 2.75334 -8.47391 0
M  V30 2970 O 500.457 3.84204 -9.44982 0
M  V30 2971 O 501.027 1.51982 -8.68909 0
M  V30 2972 O 500.487 3.29363 -6.99321 0
M  V30 2973 C 499.547 4.24066 -6.42823 0
M  V30 2974 C 500.277 5.20775 -5.52155 0
M  V30 2975 O 500.487 4.56607 -4.22514 0
M  V30 2976 C 501.677 5.62697 -5.96604 0
M  V30 2977 O 502.067 6.87667 -5.41053 0
M  V30 2978 C 502.557 4.52537 -5.39283 0
M  V30 2979 C 501.847 4.20027 -4.08623 0
M  V30 2980 N 501.897 2.76189 -3.71603 0
M  V30 2981 H 499.059 4.79756 -7.24086 0
M  V30 2982 H 498.787 3.69963 -5.84682 0
M  V30 2983 H 499.655 6.10431 -5.41508 0
M  V30 2984 H 502.31 4.78816 -3.28024 0
M  V30 2985 H 502.59 3.64957 -6.05871 0
M  V30 2986 H 503.581 4.88748 -5.21323 0
M  V30 2987 H 501.747 5.66789 -7.0643 0
M  V30 2988 P 503.617 7.20834 -5.23717 0
M  V30 2989 O 503.837 8.66104 -5.38572 0
M  V30 2990 O 504.407 6.33544 -6.1349 0
M  V30 2991 O 503.867 6.7751 -3.72168 0
M  V30 2992 C 502.927 7.20825 -2.7076 0
M  V30 2993 C 503.657 7.45864 -1.40599 0
M  V30 2994 O 503.867 6.17651 -0.734225 0
M  V30 2995 C 505.057 8.05808 -1.51899 0
M  V30 2996 O 505.447 8.74358 -0.335205 0
M  V30 2997 C 505.937 6.83093 -1.70294 0
M  V30 2998 C 505.227 5.79992 -0.836974 0
M  V30 2999 N 505.277 4.41864 -1.38293 0
M  V30 3000 H 502.438 8.13644 -3.0377 0
M  V30 3001 H 502.168 6.42788 -2.55485 0
M  V30 3002 H 503.035 8.12039 -0.792769 0
M  V30 3003 P 506.997 8.91 3.06942e-12 0
M  V30 3004 O 507.217 10.1726 0.733694 0
M  V30 3005 O 507.787 8.73148 -1.23936 0
M  V30 3006 O 507.247 7.66872 0.971405 0
M  V30 3007 C 506.307 7.42309 2.04641 0
M  V30 3008 C 507.037 6.86059 3.24661 0
M  V30 3009 O 507.247 5.42847 3.03646 0
M  V30 3010 C 508.437 7.41196 3.50753 0
M  V30 3011 O 508.827 7.27073 4.86816 0
M  V30 3012 C 509.317 6.5273 2.63741 0
M  V30 3013 C 508.607 5.1842 2.73198 0
M  V30 3014 N 508.657 4.38762 1.4784 0
M  V30 3015 H 505.818 8.36803 2.32493 0
M  V30 3016 H 505.548 6.70197 1.71129 0
M  V30 3017 H 506.415 7.03551 4.13168 0
M  V30 3018 P 510.377 7.20834 5.23717 0
M  V30 3019 O 510.597 7.79853 6.57286 0
M  V30 3020 O 511.167 7.79239 4.12957 0
M  V30 3021 O 510.627 5.63315 5.29344 0
M  V30 3022 C 509.687 4.80255 6.01876 0
M  V30 3023 C 510.417 3.64202 6.65911 0
M  V30 3024 O 510.627 2.60694 5.64732 0
M  V30 3025 C 511.817 3.93473 7.1943 0
M  V30 3026 O 512.207 3.02071 8.21205 0
M  V30 3027 C 512.697 3.73047 5.97036 0
M  V30 3028 C 511.987 2.58828 5.25741 0
M  V30 3029 N 512.037 2.68068 3.77503 0
M  V30 3030 H 509.198 5.40332 6.79951 0
M  V30 3031 H 508.928 4.41613 5.32378 0
M  V30 3032 H 509.795 3.26331 7.47797 0
M  V30 3033 P 513.757 2.75334 8.47391 0
M  V30 3034 O 513.977 2.44571 9.90142 0
M  V30 3035 O 514.547 3.87688 7.92115 0
M  V30 3036 O 514.007 1.4459 7.59357 0
M  V30 3037 C 513.067 0.347608 7.69215 0
M  V30 3038 C 513.797 -0.96767 7.52806 0
M  V30 3039 O 514.007 -1.21036 6.1011 0
M  V30 3040 C 515.197 -1.04544 8.13308 0
M  V30 3041 O 515.587 -2.38311 8.41922 0
M  V30 3042 C 516.077 -0.491279 7.02284 0
M  V30 3043 C 515.367 -0.996264 5.77469 0
M  V30 3044 N 515.417 -0.0501916 4.62973 0
M  V30 3045 H 512.578 0.374722 8.67691 0
M  V30 3046 H 512.308 0.443485 6.90277 0
M  V30 3047 H 513.175 -1.75537 7.96793 0
M  V30 3048 P 517.137 -2.75334 8.47391 0
M  V30 3049 O 517.357 -3.84128 9.44797 0
M  V30 3050 O 517.927 -1.51947 8.68712 0
M  V30 3051 O 517.387 -3.29363 6.99321 0
M  V30 3052 C 516.447 -4.24011 6.4274 0
M  V30 3053 C 517.177 -5.20775 5.52155 0
M  V30 3054 O 517.387 -4.56534 4.22446 0
M  V30 3055 C 518.577 -5.62629 5.96531 0
M  V30 3056 O 518.967 -6.87667 5.41053 0
M  V30 3057 C 519.457 -4.52537 5.39283 0
M  V30 3058 C 518.747 -4.20027 4.08623 0
M  V30 3059 N 518.797 -2.76189 3.71603 0
M  V30 3060 H 515.958 -4.797 7.24003 0
M  V30 3061 H 515.688 -3.69856 5.84513 0
M  V30 3062 H 516.555 -6.10356 5.41441 0
M  V30 3063 P 520.517 -7.20834 5.23717 0
M  V30 3064 O 520.737 -8.66274 5.38678 0
M  V30 3065 O 521.307 -6.33687 6.13629 0
M  V30 3066 O 520.767 -6.7751 3.72168 0
M  V30 3067 C 519.827 -7.20919 2.70795 0
M  V30 3068 C 520.557 -7.45864 1.40599 0
M  V30 3069 O 520.767 -6.17751 0.734343 0
M  V30 3070 C 521.957 -8.05906 1.51917 0
M  V30 3071 O 522.347 -8.74358 0.335205 0
M  V30 3072 C 522.837 -6.83093 1.70294 0
M  V30 3073 C 522.127 -5.79992 0.836974 0
M  V30 3074 N 522.177 -4.41864 1.38293 0
M  V30 3075 C 522.097 -4.02089 2.69407 0
M  V30 3076 N 522.167 -2.73403 2.85089 0
M  V30 3077 C 522.317 -2.25086 1.5642 0
M  V30 3078 C 522.447 -0.942887 1.04836 0
M  V30 3079 N 522.457 0.150999 1.80369 0
M  V30 3080 N 522.567 -0.812565 -0.28167 0
M  V30 3081 C 522.557 -1.90572 -1.03784 0
M  V30 3082 N 522.437 -3.167 -0.683905 0
M  V30 3083 C 522.317 -3.26538 0.652815 0
M  V30 3084 H 519.339 -8.13738 3.03804 0
M  V30 3085 H 519.067 -6.42974 2.55559 0
M  V30 3086 H 519.935 -8.12139 0.792866 0
M  V30 3087 H 522.59 -5.80178 -0.160643 0
M  V30 3088 H 522.87 -6.51379 2.75643 0
M  V30 3089 H 523.861 -7.01832 1.3448 0
M  V30 3090 H 522.027 -8.73771 2.38364 0
M  V30 3091 H 521.986 -4.7189 3.52311 0
M  V30 3092 H 522.367 0.0721434 2.82608 0
M  V30 3093 H 522.556 1.0785 1.36544 0
M  V30 3094 H 522.664 -1.73207 -2.10241 0
M  V30 3095 P 523.897 -8.91 -3.22661e-12 0
M  V30 3096 O 524.117 -10.1726 -0.733694 0
M  V30 3097 O 524.687 -8.73148 1.23936 0
M  V30 3098 O 524.147 -7.66872 -0.971405 0
M  V30 3099 C 523.207 -7.42309 -2.04641 0
M  V30 3100 C 523.937 -6.86059 -3.24661 0
M  V30 3101 O 524.147 -5.42847 -3.03646 0
M  V30 3102 C 525.337 -7.41196 -3.50753 0
M  V30 3103 O 525.727 -7.27073 -4.86816 0
M  V30 3104 C 526.217 -6.5273 -2.63741 0
M  V30 3105 C 525.507 -5.1842 -2.73198 0
M  V30 3106 N 525.557 -4.38762 -1.4784 0
M  V30 3107 C 525.477 -4.81605 -0.168631 0
M  V30 3108 N 525.557 -3.85454 0.713363 0
M  V30 3109 C 525.697 -2.6994 -0.0566958 0
M  V30 3110 C 525.827 -1.34815 0.338502 0
M  V30 3111 N 525.947 -0.496304 -0.77465 0
M  V30 3112 C 525.947 -0.908403 -2.09122 0
M  V30 3113 N 526.077 0.0517805 -3.00955 0
M  V30 3114 N 525.817 -2.17875 -2.46519 0
M  V30 3115 C 525.697 -3.01988 -1.4033 0
M  V30 3116 H 522.718 -8.36803 -2.32493 0
M  V30 3117 H 522.448 -6.70197 -1.71129 0
M  V30 3118 H 523.315 -7.03551 -4.13168 0
M  V30 3119 P 527.277 -7.20834 -5.23717 0
M  V30 3120 O 527.497 -7.80006 -6.57415 0
M  V30 3121 O 528.067 -7.79416 -4.13051 0
M  V30 3122 O 527.527 -5.63315 -5.29344 0
M  V30 3123 C 526.587 -4.80318 -6.01954 0
M  V30 3124 C 527.317 -3.64202 -6.65911 0
M  V30 3125 O 527.527 -2.60736 -5.64823 0
M  V30 3126 C 528.717 -3.93521 -7.19518 0
M  V30 3127 O 529.107 -3.02071 -8.21205 0
M  V30 3128 C 529.597 -3.73047 -5.97036 0
M  V30 3129 C 528.887 -2.58828 -5.25741 0
M  V30 3130 N 528.937 -2.68068 -3.77503 0
M  V30 3131 C 528.857 -3.80474 -2.99159 0
M  V30 3132 N 528.927 -3.55622 -1.71925 0
M  V30 3133 C 529.077 -2.1832 -1.65733 0
M  V30 3134 C 529.207 -1.28842 -0.572777 0
M  V30 3135 N 529.217 -1.66875 0.70098 0
M  V30 3136 N 529.327 0.016788 -0.859836 0
M  V30 3137 C 529.317 0.398145 -2.13316 0
M  V30 3138 N 529.197 -0.328224 -3.22333 0
M  V30 3139 C 529.077 -1.62992 -2.90383 0
M  V30 3140 H 526.099 -5.40394 -6.8003 0
M  V30 3141 H 525.827 -4.41741 -5.32532 0
M  V30 3142 H 526.695 -3.26371 -7.47889 0
M  V30 3143 H 529.35 -1.64007 -5.56746 0
M  V30 3144 H 529.63 -4.63439 -5.3432 0
M  V30 3145 H 530.621 -3.44776 -6.25925 0
M  V30 3146 H 528.787 -4.96707 -7.57347 0
M  V30 3147 H 528.746 -4.8089 -3.39924 0
M  V30 3148 H 529.127 -2.66547 0.941919 0
M  V30 3149 H 529.316 -0.965341 1.44766 0
M  V30 3150 H 529.424 1.46427 -2.29697 0
M  V30 3151 P 530.657 -2.75334 -8.47391 0
M  V30 3152 O 530.877 -2.44595 -9.90239 0
M  V30 3153 O 531.447 -3.87732 -7.92204 0
M  V30 3154 O 530.907 -1.4459 -7.59357 0
M  V30 3155 C 529.967 -0.347563 -7.69115 0
M  V30 3156 C 530.697 0.96767 -7.52806 0
M  V30 3157 O 530.907 1.21036 -6.1011 0
M  V30 3158 C 532.097 1.04544 -8.13308 0
M  V30 3159 O 532.487 2.38311 -8.41922 0
M  V30 3160 C 532.977 0.491279 -7.02284 0
M  V30 3161 C 532.267 0.996264 -5.77469 0
M  V30 3162 N 532.317 0.0501808 -4.62873 0
M  V30 3163 C 532.467 0.588177 -3.36904 0
M  V30 3164 O 532.557 1.78598 -3.17173 0
M  V30 3165 N 532.507 -0.329694 -2.33686 0
M  V30 3166 C 532.417 -1.6953 -2.45079 0
M  V30 3167 O 532.467 -2.41926 -1.44899 0
M  V30 3168 C 532.267 -2.16933 -3.80505 0
M  V30 3169 C 532.157 -3.65373 -3.97621 0
M  V30 3170 C 532.217 -1.30326 -4.83752 0
M  V30 3171 H 529.477 -0.374722 -8.67691 0
M  V30 3172 H 529.208 -0.443421 -6.90177 0
M  V30 3173 H 530.075 1.75537 -7.96793 0
M  V30 3174 H 532.73 1.94496 -5.46629 0
M  V30 3175 H 533.009 -0.608651 -7.04676 0
M  V30 3176 H 534.001 0.889672 -7.08939 0
M  V30 3177 H 532.167 0.43308 -9.04564 0
M  V30 3178 H 532.096 -1.68366 -5.8516 0
M  V30 3179 H 533.126 -4.05985 -4.30448 0
M  V30 3180 H 531.389 -3.88028 -4.72875 0
M  V30 3181 H 531.877 -4.11381 -3.01609 0
M  V30 3182 H 532.613 0.0393617 -1.41345 0
M  V30 3183 P 534.037 2.75334 -8.47391 0
M  V30 3184 O 534.257 3.84204 -9.44982 0
M  V30 3185 O 534.827 1.51982 -8.68909 0
M  V30 3186 O 534.287 3.29363 -6.99321 0
M  V30 3187 C 533.347 4.24066 -6.42823 0
M  V30 3188 C 534.077 5.20775 -5.52155 0
M  V30 3189 O 534.287 4.56607 -4.22514 0
M  V30 3190 C 535.477 5.62697 -5.96604 0
M  V30 3191 O 535.867 6.87667 -5.41053 0
M  V30 3192 C 536.357 4.52537 -5.39283 0
M  V30 3193 C 535.647 4.20027 -4.08623 0
M  V30 3194 N 535.697 2.76189 -3.71603 0
M  V30 3195 H 532.859 4.79756 -7.24086 0
M  V30 3196 H 532.587 3.69963 -5.84682 0
M  V30 3197 H 533.455 6.10431 -5.41508 0
M  V30 3198 H 536.11 4.78816 -3.28024 0
M  V30 3199 H 536.39 3.64957 -6.05871 0
M  V30 3200 H 537.381 4.88748 -5.21323 0
M  V30 3201 H 535.547 5.66789 -7.0643 0
M  V30 3202 P 537.417 7.20834 -5.23717 0
M  V30 3203 O 537.637 8.66104 -5.38572 0
M  V30 3204 O 538.207 6.33544 -6.1349 0
M  V30 3205 O 537.667 6.7751 -3.72168 0
M  V30 3206 C 536.727 7.20825 -2.7076 0
M  V30 3207 C 537.457 7.45864 -1.40599 0
M  V30 3208 O 537.667 6.17651 -0.734225 0
M  V30 3209 C 538.857 8.05808 -1.51899 0
M  V30 3210 O 539.247 8.74358 -0.335205 0
M  V30 3211 C 539.737 6.83093 -1.70294 0
M  V30 3212 C 539.027 5.79992 -0.836974 0
M  V30 3213 N 539.077 4.41864 -1.38293 0
M  V30 3214 H 536.238 8.13644 -3.0377 0
M  V30 3215 H 535.968 6.42788 -2.55485 0
M  V30 3216 H 536.835 8.12039 -0.792769 0
M  V30 3217 P 540.797 8.91 3.38379e-12 0
M  V30 3218 O 541.017 10.1726 0.733694 0
M  V30 3219 O 541.587 8.73148 -1.23936 0
M  V30 3220 O 541.047 7.66872 0.971405 0
M  V30 3221 C 540.107 7.42309 2.04641 0
M  V30 3222 C 540.837 6.86059 3.24661 0
M  V30 3223 O 541.047 5.42847 3.03646 0
M  V30 3224 C 542.237 7.41196 3.50753 0
M  V30 3225 O 542.627 7.27073 4.86816 0
M  V30 3226 C 543.117 6.5273 2.63741 0
M  V30 3227 C 542.407 5.1842 2.73198 0
M  V30 3228 N 542.457 4.38762 1.4784 0
M  V30 3229 H 539.618 8.36803 2.32493 0
M  V30 3230 H 539.348 6.70197 1.71129 0
M  V30 3231 H 540.215 7.03551 4.13168 0
M  V30 3232 P 544.177 7.20834 5.23717 0
M  V30 3233 O 544.397 7.7993 6.57351 0
M  V30 3234 O 544.967 7.79328 4.13004 0
M  V30 3235 O 544.427 5.63315 5.29344 0
M  V30 3236 C 543.487 4.80193 6.01798 0
M  V30 3237 C 544.217 3.64202 6.65911 0
M  V30 3238 O 544.427 2.60694 5.64732 0
M  V30 3239 C 545.617 3.93473 7.1943 0
M  V30 3240 O 546.007 3.02071 8.21205 0
M  V30 3241 C 546.497 3.73047 5.97036 0
M  V30 3242 C 545.787 2.58828 5.25741 0
M  V30 3243 N 545.837 2.6801 3.77422 0
M  V30 3244 C 545.987 1.50443 3.07133 0
M  V30 3245 O 546.077 0.419406 3.61576 0
M  V30 3246 N 546.027 1.6403 1.69677 0
M  V30 3247 C 545.937 2.81206 0.986255 0
M  V30 3248 C 545.787 3.99158 1.80325 0
M  V30 3249 C 545.737 3.89779 3.1476 0
M  V30 3250 H 542.997 5.40332 6.79951 0
M  V30 3251 H 542.728 4.41549 5.32301 0
M  V30 3252 H 543.595 3.26331 7.47797 0
M  V30 3253 H 546.25 1.6395 5.56554 0
M  V30 3254 H 546.529 4.63439 5.3432 0
M  V30 3255 H 547.521 3.44728 6.25838 0
M  V30 3256 H 545.687 4.96652 7.57263 0
M  V30 3257 H 545.616 4.80159 3.74441 0
M  V30 3258 P 547.557 2.75334 8.47391 0
M  V30 3259 O 547.777 2.44571 9.90142 0
M  V30 3260 O 548.347 3.87688 7.92115 0
M  V30 3261 O 547.807 1.4459 7.59357 0
M  V30 3262 C 546.867 0.347608 7.69215 0
M  V30 3263 C 547.597 -0.96767 7.52806 0
M  V30 3264 O 547.807 -1.21036 6.1011 0
M  V30 3265 C 548.997 -1.04544 8.13308 0
M  V30 3266 O 549.387 -2.38311 8.41922 0
M  V30 3267 C 549.877 -0.491279 7.02284 0
M  V30 3268 C 549.167 -0.996264 5.77469 0
M  V30 3269 N 549.217 -0.0501916 4.62973 0
M  V30 3270 H 546.378 0.374722 8.67691 0
M  V30 3271 H 546.108 0.443485 6.90277 0
M  V30 3272 H 546.975 -1.75537 7.96793 0
M  V30 3273 P 550.937 -2.75334 8.47391 0
M  V30 3274 O 551.157 -3.84128 9.44797 0
M  V30 3275 O 551.727 -1.51947 8.68712 0
M  V30 3276 O 551.187 -3.29363 6.99321 0
M  V30 3277 C 550.247 -4.24011 6.4274 0
M  V30 3278 C 550.977 -5.20775 5.52155 0
M  V30 3279 O 551.187 -4.56534 4.22446 0
M  V30 3280 C 552.377 -5.62629 5.96531 0
M  V30 3281 O 552.767 -6.87667 5.41053 0
M  V30 3282 C 553.257 -4.52537 5.39283 0
M  V30 3283 C 552.547 -4.20027 4.08623 0
M  V30 3284 N 552.597 -2.76189 3.71603 0
M  V30 3285 H 549.758 -4.797 7.24003 0
M  V30 3286 H 549.488 -3.69856 5.84513 0
M  V30 3287 H 550.355 -6.10356 5.41441 0
M  V30 3288 P 554.317 -7.20834 5.23717 0
M  V30 3289 O 554.537 -8.66104 5.38572 0
M  V30 3290 O 555.107 -6.33544 6.1349 0
M  V30 3291 O 554.567 -6.7751 3.72168 0
M  V30 3292 C 553.627 -7.20825 2.7076 0
M  V30 3293 C 554.357 -7.45864 1.40599 0
M  V30 3294 O 554.567 -6.17651 0.734225 0
M  V30 3295 C 555.757 -8.05808 1.51899 0
M  V30 3296 O 556.147 -8.74358 0.335205 0
M  V30 3297 C 556.637 -6.83093 1.70294 0
M  V30 3298 C 555.927 -5.79992 0.836974 0
M  V30 3299 N 555.977 -4.41864 1.38293 0
M  V30 3300 H 553.138 -8.13644 3.0377 0
M  V30 3301 H 552.868 -6.42788 2.55485 0
M  V30 3302 H 553.735 -8.12039 0.792769 0
M  V30 3303 P 557.697 -8.91 -3.54097e-12 0
M  V30 3304 O 557.917 -10.1726 -0.733694 0
M  V30 3305 O 558.487 -8.73148 1.23936 0
M  V30 3306 O 557.947 -7.66872 -0.971405 0
M  V30 3307 C 557.007 -7.42309 -2.04641 0
M  V30 3308 C 557.737 -6.86059 -3.24661 0
M  V30 3309 O 557.947 -5.42847 -3.03646 0
M  V30 3310 C 559.137 -7.41196 -3.50753 0
M  V30 3311 O 559.527 -7.27073 -4.86816 0
M  V30 3312 C 560.017 -6.5273 -2.63741 0
M  V30 3313 C 559.307 -5.1842 -2.73198 0
M  V30 3314 N 559.357 -4.38762 -1.4784 0
M  V30 3315 H 556.518 -8.36803 -2.32493 0
M  V30 3316 H 556.248 -6.70197 -1.71129 0
M  V30 3317 H 557.115 -7.03551 -4.13168 0
M  V30 3318 P 561.077 -7.20834 -5.23717 0
M  V30 3319 O 561.297 -7.79853 -6.57286 0
M  V30 3320 O 561.867 -7.79239 -4.12957 0
M  V30 3321 O 561.327 -5.63315 -5.29344 0
M  V30 3322 C 560.387 -4.80255 -6.01876 0
M  V30 3323 C 561.117 -3.64202 -6.65911 0
M  V30 3324 O 561.327 -2.60694 -5.64732 0
M  V30 3325 C 562.517 -3.93473 -7.1943 0
M  V30 3326 O 562.907 -3.02071 -8.21205 0
M  V30 3327 C 563.397 -3.73047 -5.97036 0
M  V30 3328 C 562.687 -2.58828 -5.25741 0
M  V30 3329 N 562.737 -2.68068 -3.77503 0
M  V30 3330 C 562.657 -3.79715 -2.96723 0
M  V30 3331 N 562.737 -3.5377 -1.68852 0
M  V30 3332 C 562.877 -2.15054 -1.63254 0
M  V30 3333 C 563.007 -1.28964 -0.518571 0
M  V30 3334 N 563.127 0.0538097 -0.918425 0
M  V30 3335 C 563.127 0.494275 -2.22578 0
M  V30 3336 N 563.257 1.81086 -2.40434 0
M  V30 3337 N 562.997 -0.313645 -3.27502 0
M  V30 3338 C 562.877 -1.61829 -2.91033 0
M  V30 3339 H 559.898 -5.40332 -6.79951 0
M  V30 3340 H 559.628 -4.41613 -5.32378 0
M  V30 3341 H 560.495 -3.26331 -7.47797 0
M  V30 3342 P 564.457 -2.75334 -8.47391 0
M  V30 3343 O 564.677 -2.44571 -9.90142 0
M  V30 3344 O 565.247 -3.87688 -7.92115 0
M  V30 3345 O 564.707 -1.4459 -7.59357 0
M  V30 3346 C 563.767 -0.347608 -7.69215 0
M  V30 3347 C 564.497 0.96767 -7.52806 0
M  V30 3348 O 564.707 1.21036 -6.1011 0
M  V30 3349 C 565.897 1.04544 -8.13308 0
M  V30 3350 O 566.287 2.38311 -8.41922 0
M  V30 3351 C 566.777 0.491279 -7.02284 0
M  V30 3352 C 566.067 0.996264 -5.77469 0
M  V30 3353 N 566.117 0.0501916 -4.62973 0
M  V30 3354 H 563.278 -0.374722 -8.67691 0
M  V30 3355 H 563.008 -0.443485 -6.90277 0
M  V30 3356 H 563.875 1.75537 -7.96793 0
M  V30 3357 P 567.837 2.75334 -8.47391 0
M  V30 3358 O 568.057 3.84128 -9.44797 0
M  V30 3359 O 568.627 1.51947 -8.68712 0
M  V30 3360 O 568.087 3.29363 -6.99321 0
M  V30 3361 C 567.147 4.24011 -6.4274 0
M  V30 3362 C 567.877 5.20775 -5.52155 0
M  V30 3363 O 568.087 4.56534 -4.22446 0
M  V30 3364 C 569.277 5.62629 -5.96531 0
M  V30 3365 O 569.667 6.87667 -5.41053 0
M  V30 3366 C 570.157 4.52537 -5.39283 0
M  V30 3367 C 569.447 4.20027 -4.08623 0
M  V30 3368 N 569.497 2.76189 -3.71603 0
M  V30 3369 C 569.417 1.64862 -4.52822 0
M  V30 3370 N 569.497 0.512671 -3.88633 0
M  V30 3371 C 569.637 0.888083 -2.54977 0
M  V30 3372 C 569.767 0.094668 -1.38677 0
M  V30 3373 N 569.887 0.890102 -0.232633 0
M  V30 3374 C 569.887 2.26958 -0.21772 0
M  V30 3375 N 570.017 2.84626 0.97925 0
M  V30 3376 N 569.757 3.0178 -1.31033 0
M  V30 3377 C 569.637 2.26781 -2.43843 0
M  V30 3378 H 566.658 4.797 -7.24003 0
M  V30 3379 H 566.388 3.69856 -5.84513 0
M  V30 3380 H 567.255 6.10356 -5.41441 0
M  V30 3381 P 571.217 7.20834 -5.23717 0
M  V30 3382 O 571.437 8.66274 -5.38678 0
M  V30 3383 O 572.007 6.33687 -6.13629 0
M  V30 3384 O 571.467 6.7751 -3.72168 0
M  V30 3385 C 570.527 7.20919 -2.70795 0
M  V30 3386 C 571.257 7.45864 -1.40599 0
M  V30 3387 O 571.467 6.17751 -0.734343 0
M  V30 3388 C 572.657 8.05906 -1.51917 0
M  V30 3389 O 573.047 8.74358 -0.335205 0
M  V30 3390 C 573.537 6.83093 -1.70294 0
M  V30 3391 C 572.827 5.79992 -0.836974 0
M  V30 3392 N 572.877 4.41864 -1.38293 0
M  V30 3393 C 572.797 4.02089 -2.69407 0
M  V30 3394 N 572.867 2.73403 -2.85089 0
M  V30 3395 C 573.017 2.25086 -1.5642 0
M  V30 3396 C 573.147 0.942887 -1.04836 0
M  V30 3397 N 573.157 -0.150999 -1.80369 0
M  V30 3398 N 573.267 0.812565 0.28167 0
M  V30 3399 C 573.257 1.90572 1.03784 0
M  V30 3400 N 573.137 3.167 0.683905 0
M  V30 3401 C 573.017 3.26538 -0.652815 0
M  V30 3402 H 570.039 8.13738 -3.03804 0
M  V30 3403 H 569.767 6.42974 -2.55559 0
M  V30 3404 H 570.635 8.12139 -0.792866 0
M  V30 3405 H 573.29 5.80178 0.160643 0
M  V30 3406 H 573.57 6.51379 -2.75643 0
M  V30 3407 H 574.561 7.01832 -1.3448 0
M  V30 3408 H 572.727 8.73771 -2.38364 0
M  V30 3409 H 572.686 4.7189 -3.52311 0
M  V30 3410 H 573.067 -0.0721434 -2.82608 0
M  V30 3411 H 573.256 -1.0785 -1.36544 0
M  V30 3412 H 573.364 1.73207 2.10241 0
M  V30 3413 P 574.597 8.91 3.69815e-12 0
M  V30 3414 O 574.817 10.1726 0.733694 0
M  V30 3415 O 575.387 8.73148 -1.23936 0
M  V30 3416 O 574.847 7.66872 0.971405 0
M  V30 3417 C 573.907 7.42309 2.04641 0
M  V30 3418 C 574.637 6.86059 3.24661 0
M  V30 3419 O 574.847 5.42847 3.03646 0
M  V30 3420 C 576.037 7.41196 3.50753 0
M  V30 3421 O 576.427 7.27073 4.86816 0
M  V30 3422 C 576.917 6.5273 2.63741 0
M  V30 3423 C 576.207 5.1842 2.73198 0
M  V30 3424 N 576.257 4.38762 1.4784 0
M  V30 3425 C 576.177 4.81605 0.168631 0
M  V30 3426 N 576.257 3.85454 -0.713363 0
M  V30 3427 C 576.397 2.6994 0.0566958 0
M  V30 3428 C 576.527 1.34815 -0.338502 0
M  V30 3429 N 576.647 0.496304 0.77465 0
M  V30 3430 C 576.647 0.908403 2.09122 0
M  V30 3431 N 576.777 -0.0517805 3.00955 0
M  V30 3432 N 576.517 2.17875 2.46519 0
M  V30 3433 C 576.397 3.01988 1.4033 0
M  V30 3434 H 573.418 8.36803 2.32493 0
M  V30 3435 H 573.148 6.70197 1.71129 0
M  V30 3436 H 574.015 7.03551 4.13168 0
M  V30 3437 P 577.977 7.20834 5.23717 0
M  V30 3438 O 578.197 7.79853 6.57286 0
M  V30 3439 O 578.767 7.79239 4.12957 0
M  V30 3440 O 578.227 5.63315 5.29344 0
M  V30 3441 C 577.287 4.80255 6.01876 0
M  V30 3442 C 578.017 3.64202 6.65911 0
M  V30 3443 O 578.227 2.60694 5.64732 0
M  V30 3444 C 579.417 3.93473 7.1943 0
M  V30 3445 O 579.807 3.02071 8.21205 0
M  V30 3446 C 580.297 3.73047 5.97036 0
M  V30 3447 C 579.587 2.58828 5.25741 0
M  V30 3448 N 579.637 2.68068 3.77503 0
M  V30 3449 C 579.557 3.79715 2.96723 0
M  V30 3450 N 579.637 3.5377 1.68852 0
M  V30 3451 C 579.777 2.15054 1.63254 0
M  V30 3452 C 579.907 1.28964 0.518571 0
M  V30 3453 N 580.027 -0.0538097 0.918425 0
M  V30 3454 C 580.027 -0.494275 2.22578 0
M  V30 3455 N 580.157 -1.81086 2.40434 0
M  V30 3456 N 579.897 0.313645 3.27502 0
M  V30 3457 C 579.777 1.61829 2.91033 0
M  V30 3458 H 576.798 5.40332 6.79951 0
M  V30 3459 H 576.528 4.41613 5.32378 0
M  V30 3460 H 577.395 3.26331 7.47797 0
M  V30 3461 P 581.357 2.75334 8.47391 0
M  V30 3462 O 581.577 2.44571 9.90142 0
M  V30 3463 O 582.147 3.87688 7.92115 0
M  V30 3464 O 581.607 1.4459 7.59357 0
M  V30 3465 C 580.667 0.347608 7.69215 0
M  V30 3466 C 581.397 -0.96767 7.52806 0
M  V30 3467 O 581.607 -1.21036 6.1011 0
M  V30 3468 C 582.797 -1.04544 8.13308 0
M  V30 3469 O 583.187 -2.38311 8.41922 0
M  V30 3470 C 583.677 -0.491279 7.02284 0
M  V30 3471 C 582.967 -0.996264 5.77469 0
M  V30 3472 N 583.017 -0.0501916 4.62973 0
M  V30 3473 C 582.937 1.32786 4.63244 0
M  V30 3474 N 583.017 1.86957 3.44545 0
M  V30 3475 C 583.157 0.780241 2.58481 0
M  V30 3476 C 583.287 0.738536 1.17757 0
M  V30 3477 O 583.307 1.66794 0.372349 0
M  V30 3478 N 583.407 -0.58337 0.711393 0
M  V30 3479 C 583.407 -1.70816 1.51017 0
M  V30 3480 N 583.537 -2.87826 0.880757 0
M  V30 3481 N 583.277 -1.67126 2.8339 0
M  V30 3482 C 583.157 -0.401421 3.30572 0
M  V30 3483 H 580.178 0.374722 8.67691 0
M  V30 3484 H 579.908 0.443485 6.90277 0
M  V30 3485 H 580.775 -1.75537 7.96793 0
M  V30 3486 H 583.43 -1.95076 5.46529 0
M  V30 3487 H 583.709 0.608565 7.04577 0
M  V30 3488 H 584.701 -0.889672 7.08939 0
M  V30 3489 H 582.867 -0.43308 9.04564 0
M  V30 3490 H 582.818 1.91249 5.54442 0
M  V30 3491 H 583.5 -0.718054 -0.275244 0
M  V30 3492 H 583.537 -3.75721 1.41832 0
M  V30 3493 H 583.638 -2.90436 -0.145468 0
M  V30 3494 P 584.737 -2.75334 8.47391 0
M  V30 3495 O 584.957 -3.84128 9.44797 0
M  V30 3496 O 585.527 -1.51947 8.68712 0
M  V30 3497 O 584.987 -3.29363 6.99321 0
M  V30 3498 C 584.047 -4.24011 6.4274 0
M  V30 3499 C 584.777 -5.20775 5.52155 0
M  V30 3500 O 584.987 -4.56534 4.22446 0
M  V30 3501 C 586.177 -5.62629 5.96531 0
M  V30 3502 O 586.567 -6.87667 5.41053 0
M  V30 3503 C 587.057 -4.52537 5.39283 0
M  V30 3504 C 586.347 -4.20027 4.08623 0
M  V30 3505 N 586.397 -2.76189 3.71603 0
M  V30 3506 H 583.558 -4.797 7.24003 0
M  V30 3507 H 583.288 -3.69856 5.84513 0
M  V30 3508 H 584.155 -6.10356 5.41441 0
M  V30 3509 P 588.117 -7.20834 5.23717 0
M  V30 3510 O 588.337 -8.66104 5.38572 0
M  V30 3511 O 588.907 -6.33544 6.1349 0
M  V30 3512 O 588.367 -6.7751 3.72168 0
M  V30 3513 C 587.427 -7.20825 2.7076 0
M  V30 3514 C 588.157 -7.45864 1.40599 0
M  V30 3515 O 588.367 -6.17651 0.734225 0
M  V30 3516 C 589.557 -8.05808 1.51899 0
M  V30 3517 O 589.947 -8.74358 0.335205 0
M  V30 3518 C 590.437 -6.83093 1.70294 0
M  V30 3519 C 589.727 -5.79992 0.836974 0
M  V30 3520 N 589.777 -4.41864 1.38293 0
M  V30 3521 H 586.938 -8.13644 3.0377 0
M  V30 3522 H 586.668 -6.42788 2.55485 0
M  V30 3523 H 587.535 -8.12039 0.792769 0
M  V30 3524 P 591.496 -8.91 -3.85533e-12 0
M  V30 3525 O 591.716 -10.1726 -0.733694 0
M  V30 3526 O 592.286 -8.73148 1.23936 0
M  V30 3527 O 591.746 -7.66872 -0.971405 0
M  V30 3528 C 590.806 -7.42309 -2.04641 0
M  V30 3529 C 591.536 -6.86059 -3.24661 0
M  V30 3530 O 591.746 -5.42847 -3.03646 0
M  V30 3531 C 592.937 -7.41196 -3.50753 0
M  V30 3532 O 593.327 -7.27073 -4.86816 0
M  V30 3533 C 593.817 -6.5273 -2.63741 0
M  V30 3534 C 593.106 -5.1842 -2.73198 0
M  V30 3535 N 593.156 -4.38762 -1.4784 0
M  V30 3536 C 593.077 -4.81605 -0.168631 0
M  V30 3537 N 593.156 -3.85454 0.713363 0
M  V30 3538 C 593.296 -2.6994 -0.0566958 0
M  V30 3539 C 593.426 -1.34815 0.338502 0
M  V30 3540 N 593.546 -0.496304 -0.77465 0
M  V30 3541 C 593.546 -0.908403 -2.09122 0
M  V30 3542 N 593.676 0.0517805 -3.00955 0
M  V30 3543 N 593.416 -2.17875 -2.46519 0
M  V30 3544 C 593.296 -3.01988 -1.4033 0
M  V30 3545 H 590.317 -8.36803 -2.32493 0
M  V30 3546 H 590.048 -6.70197 -1.71129 0
M  V30 3547 H 590.914 -7.03551 -4.13168 0
M  V30 3548 P 594.876 -7.20834 -5.23717 0
M  V30 3549 O 595.096 -7.79853 -6.57286 0
M  V30 3550 O 595.666 -7.79239 -4.12957 0
M  V30 3551 O 595.126 -5.63315 -5.29344 0
M  V30 3552 C 594.186 -4.80255 -6.01876 0
M  V30 3553 C 594.916 -3.64202 -6.65911 0
M  V30 3554 O 595.126 -2.60694 -5.64732 0
M  V30 3555 C 596.316 -3.93473 -7.1943 0
M  V30 3556 O 596.706 -3.02071 -8.21205 0
M  V30 3557 C 597.196 -3.73047 -5.97036 0
M  V30 3558 C 596.486 -2.58828 -5.25741 0
M  V30 3559 N 596.536 -2.68068 -3.77503 0
M  V30 3560 H 593.697 -5.40332 -6.79951 0
M  V30 3561 H 593.427 -4.41613 -5.32378 0
M  V30 3562 H 594.294 -3.26331 -7.47797 0
M  V30 3563 P 598.256 -2.75334 -8.47391 0
M  V30 3564 O 598.476 -2.44619 -9.90336 0
M  V30 3565 O 599.046 -3.87776 -7.92294 0
M  V30 3566 O 598.506 -1.4459 -7.59357 0
M  V30 3567 C 597.566 -0.347653 -7.69315 0
M  V30 3568 C 598.296 0.96767 -7.52806 0
M  V30 3569 O 598.506 1.21055 -6.10208 0
M  V30 3570 C 599.696 1.04557 -8.13408 0
M  V30 3571 O 600.086 2.38311 -8.41922 0
M  V30 3572 C 600.576 0.491279 -7.02284 0
M  V30 3573 C 599.866 0.996264 -5.77469 0
M  V30 3574 N 599.916 0.0501916 -4.62973 0
M  V30 3575 C 599.836 -1.31969 -4.65661 0
M  V30 3576 N 599.906 -1.86649 -3.48119 0
M  V30 3577 C 600.056 -0.792089 -2.62406 0
M  V30 3578 C 600.186 -0.705684 -1.2207 0
M  V30 3579 N 600.196 -1.76207 -0.413762 0
M  V30 3580 N 600.306 0.518981 -0.685754 0
M  V30 3581 C 600.296 1.57595 -1.49174 0
M  V30 3582 N 600.176 1.62909 -2.80066 0
M  V30 3583 C 600.056 0.388195 -3.3073 0
M  V30 3584 H 597.078 -0.374765 -8.67791 0
M  V30 3585 H 596.806 -0.443613 -6.90476 0
M  V30 3586 H 597.674 1.75559 -7.96891 0
M  V30 3587 H 600.329 1.94563 -5.46818 0
M  V30 3588 H 600.609 -0.608651 -7.04676 0
M  V30 3589 H 601.6 0.889796 -7.09039 0
M  V30 3590 H 599.766 0.433128 -9.04664 0
M  V30 3591 H 599.725 -1.89246 -5.57664 0
M  V30 3592 H 600.106 -2.71005 -0.804694 0
M  V30 3593 H 600.295 -1.63189 0.603768 0
M  V30 3594 H 600.403 2.53475 -0.997614 0
M  V30 3595 P 601.636 2.75334 -8.47391 0
M  V30 3596 O 601.856 3.84128 -9.44797 0
M  V30 3597 O 602.426 1.51947 -8.68712 0
M  V30 3598 O 601.886 3.29363 -6.99321 0
M  V30 3599 C 600.946 4.24011 -6.4274 0
M  V30 3600 C 601.676 5.20775 -5.52155 0
M  V30 3601 O 601.886 4.56534 -4.22446 0
M  V30 3602 C 603.076 5.62629 -5.96531 0
M  V30 3603 O 603.466 6.87667 -5.41053 0
M  V30 3604 C 603.956 4.52537 -5.39283 0
M  V30 3605 C 603.246 4.20027 -4.08623 0
M  V30 3606 N 603.296 2.76189 -3.71603 0
M  V30 3607 H 600.457 4.797 -7.24003 0
M  V30 3608 H 600.187 3.69856 -5.84513 0
M  V30 3609 H 601.054 6.10356 -5.41441 0
M  V30 3610 P 605.016 7.20834 -5.23717 0
M  V30 3611 O 605.236 8.66104 -5.38572 0
M  V30 3612 O 605.806 6.33544 -6.1349 0
M  V30 3613 O 605.266 6.7751 -3.72168 0
M  V30 3614 C 604.326 7.20825 -2.7076 0
M  V30 3615 C 605.056 7.45864 -1.40599 0
M  V30 3616 O 605.266 6.17651 -0.734225 0
M  V30 3617 C 606.456 8.05808 -1.51899 0
M  V30 3618 O 606.846 8.74358 -0.335205 0
M  V30 3619 C 607.336 6.83093 -1.70294 0
M  V30 3620 C 606.626 5.79992 -0.836974 0
M  V30 3621 N 606.676 4.41864 -1.38293 0
M  V30 3622 H 603.837 8.13644 -3.0377 0
M  V30 3623 H 603.567 6.42788 -2.55485 0
M  V30 3624 H 604.434 8.12039 -0.792769 0
M  V30 3625 P 608.396 8.91 4.01252e-12 0
M  V30 3626 O 608.616 10.1726 0.733694 0
M  V30 3627 O 609.186 8.73148 -1.23936 0
M  V30 3628 O 608.646 7.66872 0.971405 0
M  V30 3629 C 607.706 7.42309 2.04641 0
M  V30 3630 C 608.436 6.86059 3.24661 0
M  V30 3631 O 608.646 5.42847 3.03646 0
M  V30 3632 C 609.836 7.41196 3.50753 0
M  V30 3633 O 610.226 7.27073 4.86816 0
M  V30 3634 C 610.716 6.5273 2.63741 0
M  V30 3635 C 610.006 5.1842 2.73198 0
M  V30 3636 N 610.056 4.38762 1.4784 0
M  V30 3637 H 607.217 8.36803 2.32493 0
M  V30 3638 H 606.947 6.70197 1.71129 0
M  V30 3639 H 607.814 7.03551 4.13168 0
M  V30 3640 H 610.095 6.36132 5.14416 0
M  V30 3641 H 614.117 -9.0732 -2.85239 0
M  V30 3642 O 613.997 -8.67639 -2.00036 0
M  V30 3643 P 612.556 -8.7635 -1.60911 0
M  V30 3644 O 612.336 -10.1388 -1.11561 0
M  V30 3645 O 611.766 -8.36503 -2.79617 0
M  V30 3646 O 612.306 -7.71806 -0.42951 0
M  V30 3647 C 613.246 -7.67148 0.673689 0
M  V30 3648 C 612.516 -7.33374 1.95559 0
M  V30 3649 O 612.306 -5.88721 2.00726 0
M  V30 3650 C 611.116 -7.92526 2.10483 0
M  V30 3651 O 610.726 -8.02971 3.47653 0
M  V30 3652 C 610.236 -6.89602 1.41652 0
M  V30 3653 C 610.946 -5.59201 1.75185 0
M  V30 3654 N 610.896 -4.58301 0.657969 0
M  V30 3655 H 613.735 -8.65116 0.777161 0
M  V30 3656 H 614.007 -6.9022 0.46725 0
M  V30 3657 H 613.139 -7.66548 2.79458 0
M  V30 3658 H 610.484 -5.16165 2.65183 0
M  V30 3659 H 610.204 -7.06433 0.329384 0
M  V30 3660 H 609.213 -6.90926 1.82021 0
M  V30 3661 H 611.047 -8.90873 1.62657 0
M  V30 3662 P 609.176 -8.03563 3.84925 0
M  V30 3663 O 608.956 -8.85821 5.0569 0
M  V30 3664 O 608.386 -8.41101 2.65469 0
M  V30 3665 O 608.926 -6.4965 4.18908 0
M  V30 3666 C 609.866 -5.81037 5.05421 0
M  V30 3667 C 609.136 -4.78366 5.89277 0
M  V30 3668 O 608.926 -3.58302 5.08433 0
M  V30 3669 C 607.736 -5.17448 6.36119 0
M  V30 3670 O 607.346 -4.45271 7.53232 0
M  V30 3671 C 606.856 -4.74639 5.19936 0
M  V30 3672 C 607.566 -3.49432 4.70418 0
M  V30 3673 N 607.516 -3.32099 3.22613 0
M  V30 3674 H 610.355 -6.54213 5.71376 0
M  V30 3675 H 610.627 -5.30936 4.43503 0
M  V30 3676 H 609.759 -4.55889 6.76652 0
M  V30 3677 H 607.104 -2.61715 5.17932 0
M  V30 3678 H 606.824 -5.52155 4.41878 0
M  V30 3679 H 605.833 -4.51981 5.53374 0
M  V30 3680 H 607.667 -6.25124 6.55234 0
M  V30 3681 P 605.796 -4.23843 7.83734 0
M  V30 3682 O 605.576 -4.19407 9.29784 0
M  V30 3683 O 605.006 -5.24426 7.09156 0
M  V30 3684 O 605.546 -2.7935 7.20758 0
M  V30 3685 C 606.486 -1.7299 7.50419 0
M  V30 3686 C 605.756 -0.406376 7.57911 0
M  V30 3687 O 605.546 0.0897726 6.21935 0
M  V30 3688 C 604.356 -0.447224 8.1878 0
M  V30 3689 O 603.966 0.825065 8.71101 0
M  V30 3690 C 603.476 -0.783801 6.99623 0
M  V30 3691 C 604.186 -0.0619192 5.85967 0
M  V30 3692 N 604.136 -0.7859 4.56281 0
M  V30 3693 H 606.975 -1.93423 8.4679 0
M  V30 3694 H 607.247 -1.68181 6.71046 0
M  V30 3695 H 606.379 0.289041 8.15388 0
M  V30 3696 P 602.416 1.17771 8.83182 0
M  V30 3697 O 602.196 2.07206 9.98732 0
M  V30 3698 O 601.626 -0.0743816 8.81969 0
M  V30 3699 O 602.166 1.97652 7.47304 0
M  V30 3700 C 603.106 3.01055 7.08599 0
M  V30 3701 C 602.376 4.12613 6.37049 0
M  V30 3702 O 602.166 3.72827 4.97879 0
M  V30 3703 C 600.976 4.45719 6.88164 0
M  V30 3704 O 600.586 5.7877 6.5624 0
M  V30 3705 C 600.096 3.47768 6.11991 0
M  V30 3706 C 600.806 3.39356 4.77615 0
M  V30 3707 N 600.756 2.04571 4.15244 0
M  V30 3708 C 600.606 1.98587 2.78314 0
M  V30 3709 O 600.516 2.98134 2.08835 0
M  V30 3710 N 600.566 0.714467 2.24925 0
M  V30 3711 C 600.656 -0.470001 2.94169 0
M  V30 3712 O 600.606 -1.55587 2.35195 0
M  V30 3713 C 600.806 -0.312541 4.36783 0
M  V30 3714 C 600.916 -1.57711 5.16352 0
M  V30 3715 C 600.856 0.914512 4.92583 0
M  V30 3716 H 603.597 3.41169 7.98575 0
M  V30 3717 H 603.866 2.58295 6.41556 0
M  V30 3718 H 602.999 5.02657 6.42673 0
M  V30 3719 H 600.344 4.11637 4.08885 0
M  V30 3720 H 600.065 2.49626 6.61679 0
M  V30 3721 H 599.073 3.86566 6.00778 0
M  V30 3722 H 600.907 4.29943 7.96918 0
M  V30 3723 H 600.978 1.00937 6.00374 0
M  V30 3724 H 599.948 -1.80153 5.63503 0
M  V30 3725 H 601.685 -1.4566 5.94104 0
M  V30 3726 H 601.197 -2.40664 4.49645 0
M  V30 3727 H 600.461 0.647622 1.25697 0
M  V30 3728 P 599.036 6.144 6.45285 0
M  V30 3729 O 598.816 7.54673 6.86199 0
M  V30 3730 O 598.246 5.12391 7.179 0
M  V30 3731 O 598.786 5.99158 4.88404 0
M  V30 3732 C 599.726 6.60234 3.96415 0
M  V30 3733 C 598.996 7.08259 2.72856 0
M  V30 3734 O 598.786 5.9427 1.83651 0
M  V30 3735 C 597.596 7.64886 2.9555 0
M  V30 3736 O 597.206 8.53963 1.90717 0
M  V30 3737 C 596.716 6.4116 2.90739 0
M  V30 3738 C 597.426 5.55375 1.86963 0
M  V30 3739 N 597.376 4.09664 2.15742 0
M  V30 3740 H 600.215 7.45574 4.45629 0
M  V30 3741 H 600.487 5.86232 3.67314 0
M  V30 3742 H 599.619 7.84412 2.24479 0
M  V30 3743 P 595.656 8.7635 1.60911 0
M  V30 3744 O 595.437 10.1388 1.11561 0
M  V30 3745 O 594.866 8.36503 2.79617 0
M  V30 3746 O 595.406 7.71806 0.42951 0
M  V30 3747 C 596.346 7.66948 -0.673514 0
M  V30 3748 C 595.616 7.33374 -1.95559 0
M  V30 3749 O 595.406 5.88721 -2.00726 0
M  V30 3750 C 594.216 7.92218 -2.1125 0
M  V30 3751 O 593.827 8.02971 -3.47653 0
M  V30 3752 C 593.337 6.89504 -1.41631 0
M  V30 3753 C 594.046 5.59106 -1.75155 0
M  V30 3754 N 593.996 4.58136 -0.662409 0
M  V30 3755 C 593.846 3.26059 -1.02863 0
M  V30 3756 O 593.756 2.90743 -2.19009 0
M  V30 3757 N 593.806 2.35995 0.0155585 0
M  V30 3758 C 593.896 2.65248 1.35603 0
M  V30 3759 C 594.046 4.05747 1.64698 0
M  V30 3760 C 594.096 4.96734 0.652411 0
M  V30 3761 H 596.837 8.64917 -0.776982 0
M  V30 3762 H 597.106 6.89974 -0.474015 0
M  V30 3763 H 596.24 7.66548 -2.79458 0
M  V30 3764 H 593.584 5.16076 -2.65138 0
M  V30 3765 H 593.305 7.06433 -0.329384 0
M  V30 3766 H 592.313 6.90829 -1.81996 0
M  V30 3767 H 594.147 8.90774 -1.62639 0
M  V30 3768 H 594.218 6.02181 0.895285 0
M  V30 3769 P 592.277 8.03563 -3.84925 0
M  V30 3770 O 592.057 8.85821 -5.0569 0
M  V30 3771 O 591.487 8.41101 -2.65469 0
M  V30 3772 O 592.027 6.4965 -4.18908 0
M  V30 3773 C 592.967 5.81037 -5.05421 0
M  V30 3774 C 592.237 4.78366 -5.89277 0
M  V30 3775 O 592.027 3.58302 -5.08433 0
M  V30 3776 C 590.837 5.17448 -6.36119 0
M  V30 3777 O 590.447 4.45271 -7.53232 0
M  V30 3778 C 589.957 4.74639 -5.19936 0
M  V30 3779 C 590.667 3.49432 -4.70418 0
M  V30 3780 N 590.617 3.31776 -3.22945 0
M  V30 3781 H 593.456 6.54213 -5.71376 0
M  V30 3782 H 593.728 5.30492 -4.44033 0
M  V30 3783 H 592.86 4.55889 -6.76652 0
M  V30 3784 P 588.897 4.23843 -7.83734 0
M  V30 3785 O 588.677 4.19407 -9.29784 0
M  V30 3786 O 588.107 5.24426 -7.09156 0
M  V30 3787 O 588.647 2.7935 -7.20758 0
M  V30 3788 C 589.587 1.7299 -7.50419 0
M  V30 3789 C 588.857 0.406376 -7.57911 0
M  V30 3790 O 588.647 -0.0897726 -6.21935 0
M  V30 3791 C 587.457 0.447224 -8.1878 0
M  V30 3792 O 587.067 -0.825065 -8.71101 0
M  V30 3793 C 586.577 0.783801 -6.99623 0
M  V30 3794 C 587.287 0.0619192 -5.85967 0
M  V30 3795 N 587.237 0.7859 -4.56281 0
M  V30 3796 H 590.076 1.93423 -8.4679 0
M  V30 3797 H 590.348 1.68181 -6.71046 0
M  V30 3798 H 589.48 -0.289041 -8.15388 0
M  V30 3799 P 585.517 -1.17771 -8.83182 0
M  V30 3800 O 585.297 -2.07206 -9.98732 0
M  V30 3801 O 584.727 0.0743816 -8.81969 0
M  V30 3802 O 585.267 -1.97678 -7.474 0
M  V30 3803 C 586.207 -3.01133 -7.08783 0
M  V30 3804 C 585.477 -4.1203 -6.37546 0
M  V30 3805 O 585.267 -3.72887 -4.9796 0
M  V30 3806 C 584.077 -4.45085 -6.88694 0
M  V30 3807 O 583.687 -5.78836 -6.56315 0
M  V30 3808 C 583.197 -3.47817 -6.12078 0
M  V30 3809 C 583.907 -3.39414 -4.77697 0
M  V30 3810 N 583.857 -2.04615 -4.15333 0
M  V30 3811 C 583.707 -1.96929 -2.77162 0
M  V30 3812 O 583.617 -3.02017 -2.12006 0
M  V30 3813 N 583.657 -0.55485 -2.24237 0
M  V30 3814 C 583.757 0.367808 -2.9169 0
M  V30 3815 N 583.707 1.53426 -2.29427 0
M  V30 3816 C 583.907 0.319148 -4.33828 0
M  V30 3817 C 583.957 -0.920672 -4.90433 0
M  V30 3818 H 586.697 -3.41209 -7.98667 0
M  V30 3819 H 586.967 -2.5837 -6.41742 0
M  V30 3820 H 586.1 -5.02718 -6.42752 0
M  V30 3821 H 583.445 -4.11779 -4.09026 0
M  V30 3822 H 583.165 -2.49661 -6.61772 0
M  V30 3823 H 582.174 -3.86674 -6.00946 0
M  V30 3824 H 584.008 -4.29991 -7.97006 0
M  V30 3825 H 584.08 -1.00589 -5.98303 0
M  V30 3826 H 583.978 1.22639 -4.93799 0
M  V30 3827 H 583.59 1.56819 -1.27167 0
M  V30 3828 H 583.786 2.41062 -2.83063 0
M  V30 3829 P 582.137 -6.144 -6.45285 0
M  V30 3830 O 581.917 -7.54673 -6.86199 0
M  V30 3831 O 581.347 -5.12391 -7.179 0
M  V30 3832 O 581.887 -5.99158 -4.88404 0
M  V30 3833 C 582.827 -6.60062 -3.96313 0
M  V30 3834 C 582.097 -7.08259 -2.72856 0
M  V30 3835 O 581.887 -5.9427 -1.83651 0
M  V30 3836 C 580.697 -7.65087 -2.94749 0
M  V30 3837 O 580.307 -8.53963 -1.90717 0
M  V30 3838 C 579.817 -6.41069 -2.90698 0
M  V30 3839 C 580.527 -5.5528 -1.86931 0
M  V30 3840 N 580.477 -4.09575 -2.15696 0
M  V30 3841 C 580.327 -3.24249 -1.08435 0
M  V30 3842 O 580.237 -3.63946 0.0628747 0
M  V30 3843 N 580.287 -1.90009 -1.39973 0
M  V30 3844 C 580.377 -1.34884 -2.65614 0
M  V30 3845 C 580.527 -2.3145 -3.71736 0
M  V30 3846 C 580.577 -3.63518 -3.44754 0
M  V30 3847 H 583.318 -7.45402 -4.45526 0
M  V30 3848 H 583.587 -5.86062 -3.67208 0
M  V30 3849 H 582.72 -7.84412 -2.24479 0
M  V30 3850 H 580.065 -5.73358 -0.888409 0
M  V30 3851 H 579.786 -5.90877 -3.88583 0
M  V30 3852 H 578.794 -6.65867 -2.58821 0
M  V30 3853 H 580.628 -8.16248 -3.92006 0
M  V30 3854 H 580.699 -4.34551 -4.26383 0
M  V30 3855 P 578.757 -8.7635 -1.60911 0
M  V30 3856 O 578.537 -10.1388 -1.11561 0
M  V30 3857 O 577.967 -8.36503 -2.79617 0
M  V30 3858 O 578.507 -7.71806 -0.42951 0
M  V30 3859 C 579.447 -7.66948 0.673514 0
M  V30 3860 C 578.717 -7.33374 1.95559 0
M  V30 3861 O 578.507 -5.88721 2.00726 0
M  V30 3862 C 577.317 -7.92218 2.1125 0
M  V30 3863 O 576.927 -8.02971 3.47653 0
M  V30 3864 C 576.437 -6.89504 1.41631 0
M  V30 3865 C 577.147 -5.59106 1.75155 0
M  V30 3866 N 577.097 -4.58136 0.662409 0
M  V30 3867 C 576.947 -3.26059 1.02863 0
M  V30 3868 O 576.857 -2.90743 2.19009 0
M  V30 3869 N 576.907 -2.35995 -0.0155585 0
M  V30 3870 C 576.997 -2.65248 -1.35603 0
M  V30 3871 C 577.147 -4.05747 -1.64698 0
M  V30 3872 C 577.197 -4.96734 -0.652411 0
M  V30 3873 H 579.938 -8.64917 0.776982 0
M  V30 3874 H 580.207 -6.89974 0.474015 0
M  V30 3875 H 579.34 -7.66548 2.79458 0
M  V30 3876 H 576.685 -5.16076 2.65138 0
M  V30 3877 H 576.406 -7.06433 0.329384 0
M  V30 3878 H 575.414 -6.90829 1.81996 0
M  V30 3879 H 577.248 -8.90774 1.62639 0
M  V30 3880 H 577.319 -6.02181 -0.895285 0
M  V30 3881 P 575.377 -8.03563 3.84925 0
M  V30 3882 O 575.157 -8.85821 5.0569 0
M  V30 3883 O 574.587 -8.41101 2.65469 0
M  V30 3884 O 575.127 -6.4965 4.18908 0
M  V30 3885 C 576.067 -5.80886 5.05289 0
M  V30 3886 C 575.337 -4.78366 5.89277 0
M  V30 3887 O 575.127 -3.58302 5.08433 0
M  V30 3888 C 573.937 -5.16748 6.36559 0
M  V30 3889 O 573.547 -4.45271 7.53232 0
M  V30 3890 C 573.057 -4.74572 5.19863 0
M  V30 3891 C 573.767 -3.49373 4.70338 0
M  V30 3892 N 573.717 -3.31704 3.22876 0
M  V30 3893 C 573.567 -2.03326 2.74871 0
M  V30 3894 O 573.477 -1.06486 3.48076 0
M  V30 3895 N 573.527 -1.91838 1.37456 0
M  V30 3896 C 573.617 -2.94295 0.462035 0
M  V30 3897 O 573.567 -2.71763 -0.752928 0
M  V30 3898 C 573.767 -4.25064 1.05249 0
M  V30 3899 C 573.877 -5.39815 0.095697 0
M  V30 3900 C 573.817 -4.40214 2.39192 0
M  V30 3901 H 576.558 -6.54063 5.71245 0
M  V30 3902 H 576.827 -5.30339 4.43905 0
M  V30 3903 H 575.96 -4.55889 6.76652 0
M  V30 3904 H 573.305 -2.6167 5.17842 0
M  V30 3905 H 573.026 -5.52155 4.41878 0
M  V30 3906 H 572.034 -4.51918 5.53297 0
M  V30 3907 H 573.868 -6.25055 6.55162 0
M  V30 3908 H 573.939 -5.39798 2.81523 0
M  V30 3909 H 572.909 -5.91593 0.0279582 0
M  V30 3910 H 574.646 -6.10038 0.450573 0
M  V30 3911 H 574.158 -5.02007 -0.89937 0
M  V30 3912 H 573.422 -0.995326 1.00435 0
M  V30 3913 P 571.997 -4.23843 7.83734 0
M  V30 3914 O 571.777 -4.19407 9.29784 0
M  V30 3915 O 571.207 -5.24426 7.09156 0
M  V30 3916 O 571.747 -2.7935 7.20758 0
M  V30 3917 C 572.687 -1.72945 7.50224 0
M  V30 3918 C 571.957 -0.406376 7.57911 0
M  V30 3919 O 571.747 0.0897726 6.21935 0
M  V30 3920 C 570.557 -0.438983 8.18724 0
M  V30 3921 O 570.167 0.825065 8.71101 0
M  V30 3922 C 569.677 -0.783689 6.99524 0
M  V30 3923 C 570.387 -0.0619086 5.85867 0
M  V30 3924 N 570.337 -0.78573 4.56183 0
M  V30 3925 C 570.187 -0.0292889 3.41887 0
M  V30 3926 O 570.097 1.18445 3.4419 0
M  V30 3927 N 570.147 -0.744061 2.23964 0
M  V30 3928 C 570.237 -2.10932 2.10362 0
M  V30 3929 C 570.387 -2.8202 3.34994 0
M  V30 3930 C 570.437 -2.15547 4.52261 0
M  V30 3931 H 573.178 -1.93379 8.46595 0
M  V30 3932 H 573.447 -1.68132 6.70852 0
M  V30 3933 H 572.58 0.289041 8.15388 0
M  V30 3934 H 569.925 0.926847 5.72749 0
M  V30 3935 H 569.646 -1.86973 6.82036 0
M  V30 3936 H 568.654 -0.403896 7.13257 0
M  V30 3937 H 570.488 -1.20585 8.97435 0
M  V30 3938 H 570.559 -2.71231 5.45042 0
M  V30 3939 P 568.617 1.17771 8.83182 0
M  V30 3940 O 568.397 2.07206 9.98732 0
M  V30 3941 O 567.827 -0.0743816 8.81969 0
M  V30 3942 O 568.367 1.97652 7.47304 0
M  V30 3943 C 569.307 3.01133 7.08783 0
M  V30 3944 C 568.577 4.12613 6.37049 0
M  V30 3945 O 568.367 3.72827 4.97879 0
M  V30 3946 C 567.177 4.45085 6.88694 0
M  V30 3947 O 566.787 5.7877 6.5624 0
M  V30 3948 C 566.297 3.47817 6.12078 0
M  V30 3949 C 567.007 3.39414 4.77697 0
M  V30 3950 N 566.957 2.04615 4.15333 0
M  V30 3951 H 569.796 3.41248 7.98759 0
M  V30 3952 H 570.068 2.5837 6.41742 0
M  V30 3953 H 569.2 5.02657 6.42673 0
M  V30 3954 P 565.237 6.144 6.45285 0
M  V30 3955 O 565.017 7.54673 6.86199 0
M  V30 3956 O 564.447 5.12391 7.179 0
M  V30 3957 O 564.987 5.99158 4.88404 0
M  V30 3958 C 565.927 6.60062 3.96313 0
M  V30 3959 C 565.197 7.08259 2.72856 0
M  V30 3960 O 564.987 5.9427 1.83651 0
M  V30 3961 C 563.797 7.65087 2.94749 0
M  V30 3962 O 563.407 8.53963 1.90717 0
M  V30 3963 C 562.917 6.41069 2.90698 0
M  V30 3964 C 563.627 5.5528 1.86931 0
M  V30 3965 N 563.577 4.09575 2.15696 0
M  V30 3966 C 563.427 3.24249 1.08435 0
M  V30 3967 O 563.337 3.63946 -0.0628747 0
M  V30 3968 N 563.387 1.90009 1.39973 0
M  V30 3969 C 563.477 1.34884 2.65614 0
M  V30 3970 C 563.627 2.3145 3.71736 0
M  V30 3971 C 563.677 3.63518 3.44754 0
M  V30 3972 H 566.418 7.45402 4.45526 0
M  V30 3973 H 566.687 5.86062 3.67208 0
M  V30 3974 H 565.82 7.84412 2.24479 0
M  V30 3975 H 563.165 5.73358 0.888409 0
M  V30 3976 H 562.886 5.90877 3.88583 0
M  V30 3977 H 561.894 6.65867 2.58821 0
M  V30 3978 H 563.728 8.16248 3.92006 0
M  V30 3979 H 563.799 4.34551 4.26383 0
M  V30 3980 P 561.857 8.7635 1.60911 0
M  V30 3981 O 561.637 10.1388 1.11561 0
M  V30 3982 O 561.067 8.36503 2.79617 0
M  V30 3983 O 561.607 7.71806 0.42951 0
M  V30 3984 C 562.547 7.67148 -0.673689 0
M  V30 3985 C 561.817 7.33374 -1.95559 0
M  V30 3986 O 561.607 5.88721 -2.00726 0
M  V30 3987 C 560.417 7.92526 -2.10483 0
M  V30 3988 O 560.027 8.02971 -3.47653 0
M  V30 3989 C 559.537 6.89602 -1.41652 0
M  V30 3990 C 560.247 5.59201 -1.75185 0
M  V30 3991 N 560.197 4.58235 -0.662552 0
M  V30 3992 H 563.036 8.65116 -0.777161 0
M  V30 3993 H 563.308 6.90173 -0.474152 0
M  V30 3994 H 562.44 7.66548 -2.79458 0
M  V30 3995 P 558.477 8.03563 -3.84925 0
M  V30 3996 O 558.257 8.85821 -5.0569 0
M  V30 3997 O 557.687 8.41101 -2.65469 0
M  V30 3998 O 558.227 6.4965 -4.18908 0
M  V30 3999 C 559.167 5.81037 -5.05421 0
M  V30 4000 C 558.437 4.78366 -5.89277 0
M  V30 4001 O 558.227 3.58302 -5.08433 0
M  V30 4002 C 557.037 5.17448 -6.36119 0
M  V30 4003 O 556.647 4.45271 -7.53232 0
M  V30 4004 C 556.157 4.74639 -5.19936 0
M  V30 4005 C 556.867 3.49432 -4.70418 0
M  V30 4006 N 556.817 3.32099 -3.22613 0
M  V30 4007 H 559.656 6.54213 -5.71376 0
M  V30 4008 H 559.928 5.30936 -4.43503 0
M  V30 4009 H 559.06 4.55889 -6.76652 0
M  V30 4010 H 556.405 2.61715 -5.17932 0
M  V30 4011 H 556.125 5.52155 -4.41878 0
M  V30 4012 H 555.134 4.51981 -5.53374 0
M  V30 4013 H 556.968 6.25124 -6.55234 0
M  V30 4014 P 555.097 4.23843 -7.83734 0
M  V30 4015 O 554.877 4.19407 -9.29784 0
M  V30 4016 O 554.307 5.24426 -7.09156 0
M  V30 4017 O 554.847 2.7935 -7.20758 0
M  V30 4018 C 555.787 1.7299 -7.50419 0
M  V30 4019 C 555.057 0.406376 -7.57911 0
M  V30 4020 O 554.847 -0.0897726 -6.21935 0
M  V30 4021 C 553.657 0.447224 -8.1878 0
M  V30 4022 O 553.267 -0.825065 -8.71101 0
M  V30 4023 C 552.777 0.783801 -6.99623 0
M  V30 4024 C 553.487 0.0619192 -5.85967 0
M  V30 4025 N 553.437 0.7859 -4.56281 0
M  V30 4026 H 556.276 1.93423 -8.4679 0
M  V30 4027 H 556.548 1.68181 -6.71046 0
M  V30 4028 H 555.68 -0.289041 -8.15388 0
M  V30 4029 P 551.717 -1.17771 -8.83182 0
M  V30 4030 O 551.497 -2.07206 -9.98732 0
M  V30 4031 O 550.927 0.0743816 -8.81969 0
M  V30 4032 O 551.467 -1.97652 -7.47304 0
M  V30 4033 C 552.407 -3.01133 -7.08783 0
M  V30 4034 C 551.677 -4.12613 -6.37049 0
M  V30 4035 O 551.467 -3.72827 -4.97879 0
M  V30 4036 C 550.277 -4.45085 -6.88694 0
M  V30 4037 O 549.887 -5.7877 -6.5624 0
M  V30 4038 C 549.397 -3.47817 -6.12078 0
M  V30 4039 C 550.107 -3.39414 -4.77697 0
M  V30 4040 N 550.057 -2.04615 -4.15333 0
M  V30 4041 H 552.896 -3.41248 -7.98759 0
M  V30 4042 H 553.168 -2.5837 -6.41742 0
M  V30 4043 H 552.3 -5.02657 -6.42673 0
M  V30 4044 P 548.337 -6.144 -6.45285 0
M  V30 4045 O 548.117 -7.54673 -6.86199 0
M  V30 4046 O 547.547 -5.12391 -7.179 0
M  V30 4047 O 548.087 -5.99158 -4.88404 0
M  V30 4048 C 549.027 -6.60234 -3.96415 0
M  V30 4049 C 548.297 -7.08259 -2.72856 0
M  V30 4050 O 548.087 -5.9427 -1.83651 0
M  V30 4051 C 546.897 -7.64886 -2.9555 0
M  V30 4052 O 546.507 -8.53963 -1.90717 0
M  V30 4053 C 546.017 -6.4116 -2.90739 0
M  V30 4054 C 546.727 -5.55375 -1.86963 0
M  V30 4055 N 546.677 -4.09664 -2.15742 0
M  V30 4056 C 546.757 -3.44381 -3.37233 0
M  V30 4057 N 546.677 -2.14131 -3.28347 0
M  V30 4058 C 546.537 -1.90247 -1.91588 0
M  V30 4059 C 546.407 -0.683992 -1.20892 0
M  V30 4060 N 546.287 -0.903396 0.173998 0
M  V30 4061 C 546.287 -2.14171 0.784879 0
M  V30 4062 N 546.157 -2.1435 2.11317 0
M  V30 4063 N 546.417 -3.28784 0.119316 0
M  V30 4064 C 546.537 -3.0977 -1.22194 0
M  V30 4065 H 549.516 -7.45574 -4.45629 0
M  V30 4066 H 549.788 -5.86232 -3.67314 0
M  V30 4067 H 548.92 -7.84412 -2.24479 0
M  V30 4068 P 544.957 -8.7635 -1.60911 0
M  V30 4069 O 544.737 -10.1388 -1.11561 0
M  V30 4070 O 544.167 -8.36503 -2.79617 0
M  V30 4071 O 544.707 -7.71806 -0.42951 0
M  V30 4072 C 545.647 -7.67148 0.673689 0
M  V30 4073 C 544.917 -7.33374 1.95559 0
M  V30 4074 O 544.707 -5.88721 2.00726 0
M  V30 4075 C 543.517 -7.92526 2.10483 0
M  V30 4076 O 543.127 -8.02971 3.47653 0
M  V30 4077 C 542.637 -6.89602 1.41652 0
M  V30 4078 C 543.347 -5.59201 1.75185 0
M  V30 4079 N 543.297 -4.58235 0.662552 0
M  V30 4080 H 546.136 -8.65116 0.777161 0
M  V30 4081 H 546.408 -6.90173 0.474152 0
M  V30 4082 H 545.54 -7.66548 2.79458 0
M  V30 4083 P 541.577 -8.03563 3.84925 0
M  V30 4084 O 541.357 -8.85821 5.0569 0
M  V30 4085 O 540.787 -8.41101 2.65469 0
M  V30 4086 O 541.327 -6.4965 4.18908 0
M  V30 4087 C 542.267 -5.81037 5.05421 0
M  V30 4088 C 541.537 -4.78366 5.89277 0
M  V30 4089 O 541.327 -3.58302 5.08433 0
M  V30 4090 C 540.137 -5.17448 6.36119 0
M  V30 4091 O 539.747 -4.45271 7.53232 0
M  V30 4092 C 539.257 -4.74639 5.19936 0
M  V30 4093 C 539.967 -3.49432 4.70418 0
M  V30 4094 N 539.917 -3.31776 3.22945 0
M  V30 4095 H 542.756 -6.54213 5.71376 0
M  V30 4096 H 543.028 -5.30492 4.44033 0
M  V30 4097 H 542.16 -4.55889 6.76652 0
M  V30 4098 P 538.197 -4.23843 7.83734 0
M  V30 4099 O 537.977 -4.19407 9.29784 0
M  V30 4100 O 537.407 -5.24426 7.09156 0
M  V30 4101 O 537.947 -2.7935 7.20758 0
M  V30 4102 C 538.887 -1.7299 7.50419 0
M  V30 4103 C 538.157 -0.406376 7.57911 0
M  V30 4104 O 537.947 0.0897726 6.21935 0
M  V30 4105 C 536.757 -0.447224 8.1878 0
M  V30 4106 O 536.367 0.825065 8.71101 0
M  V30 4107 C 535.877 -0.783801 6.99623 0
M  V30 4108 C 536.587 -0.0619192 5.85967 0
M  V30 4109 N 536.537 -0.7859 4.56281 0
M  V30 4110 H 539.376 -1.93423 8.4679 0
M  V30 4111 H 539.648 -1.68181 6.71046 0
M  V30 4112 H 538.78 0.289041 8.15388 0
M  V30 4113 P 534.817 1.17771 8.83182 0
M  V30 4114 O 534.597 2.07206 9.98732 0
M  V30 4115 O 534.027 -0.0743816 8.81969 0
M  V30 4116 O 534.567 1.97652 7.47304 0
M  V30 4117 C 535.507 3.01133 7.08783 0
M  V30 4118 C 534.777 4.12613 6.37049 0
M  V30 4119 O 534.567 3.72827 4.97879 0
M  V30 4120 C 533.377 4.45085 6.88694 0
M  V30 4121 O 532.987 5.7877 6.5624 0
M  V30 4122 C 532.497 3.47817 6.12078 0
M  V30 4123 C 533.207 3.39414 4.77697 0
M  V30 4124 N 533.157 2.04199 4.15538 0
M  V30 4125 C 533.237 0.821545 4.76977 0
M  V30 4126 N 533.167 -0.1794 3.94592 0
M  V30 4127 C 533.017 0.419121 2.70776 0
M  V30 4128 C 532.887 -0.109072 1.40577 0
M  V30 4129 N 532.877 -1.4104 1.1344 0
M  V30 4130 N 532.767 0.764381 0.39411 0
M  V30 4131 C 532.777 2.06587 0.664135 0
M  V30 4132 N 532.897 2.67948 1.82153 0
M  V30 4133 C 533.017 1.77942 2.8147 0
M  V30 4134 H 535.996 3.41248 7.98759 0
M  V30 4135 H 536.268 2.57728 6.42 0
M  V30 4136 H 535.4 5.02657 6.42673 0
M  V30 4137 H 532.745 4.11708 4.08956 0
M  V30 4138 H 532.465 2.49626 6.61679 0
M  V30 4139 H 531.474 3.8662 6.00862 0
M  V30 4140 H 533.308 4.29991 7.97006 0
M  V30 4141 H 533.349 0.702451 5.84696 0
M  V30 4142 H 532.968 -2.09647 1.89651 0
M  V30 4143 H 532.779 -1.73358 0.160575 0
M  V30 4144 H 532.671 2.71695 -0.195838 0
M  V30 4145 P 531.437 6.144 6.45285 0
M  V30 4146 O 531.217 7.54673 6.86199 0
M  V30 4147 O 530.647 5.12391 7.179 0
M  V30 4148 O 531.187 5.99158 4.88404 0
M  V30 4149 C 532.127 6.60062 3.96313 0
M  V30 4150 C 531.397 7.08259 2.72856 0
M  V30 4151 O 531.187 5.9427 1.83651 0
M  V30 4152 C 529.997 7.65087 2.94749 0
M  V30 4153 O 529.607 8.53963 1.90717 0
M  V30 4154 C 529.117 6.41069 2.90698 0
M  V30 4155 C 529.827 5.5528 1.86931 0
M  V30 4156 N 529.777 4.09575 2.15696 0
M  V30 4157 C 529.627 3.24249 1.08435 0
M  V30 4158 O 529.537 3.63946 -0.0628747 0
M  V30 4159 N 529.587 1.90009 1.39973 0
M  V30 4160 C 529.677 1.34884 2.65614 0
M  V30 4161 O 529.627 0.123716 2.81728 0
M  V30 4162 C 529.827 2.3145 3.71736 0
M  V30 4163 C 529.937 1.75913 5.10438 0
M  V30 4164 C 529.877 3.63518 3.44754 0
M  V30 4165 H 532.618 7.45402 4.45526 0
M  V30 4166 H 532.887 5.86062 3.67208 0
M  V30 4167 H 532.02 7.84412 2.24479 0
M  V30 4168 H 529.365 5.73358 0.888409 0
M  V30 4169 H 529.086 5.90877 3.88583 0
M  V30 4170 H 528.094 6.65867 2.58821 0
M  V30 4171 H 529.928 8.16248 3.92006 0
M  V30 4172 H 529.999 4.34551 4.26383 0
M  V30 4173 H 528.969 1.85471 5.61775 0
M  V30 4174 H 530.706 2.31364 5.66257 0
M  V30 4175 H 530.218 0.695936 5.05229 0
M  V30 4176 H 529.482 1.26277 0.63625 0
M  V30 4177 P 528.057 8.7635 1.60911 0
M  V30 4178 O 527.837 10.1388 1.11561 0
M  V30 4179 O 527.267 8.36503 2.79617 0
M  V30 4180 O 527.807 7.71806 0.42951 0
M  V30 4181 C 528.747 7.66948 -0.673514 0
M  V30 4182 C 528.017 7.33374 -1.95559 0
M  V30 4183 O 527.807 5.88721 -2.00726 0
M  V30 4184 C 526.617 7.92218 -2.1125 0
M  V30 4185 O 526.227 8.02971 -3.47653 0
M  V30 4186 C 525.737 6.89504 -1.41631 0
M  V30 4187 C 526.447 5.59106 -1.75155 0
M  V30 4188 N 526.397 4.58136 -0.662409 0
M  V30 4189 C 526.247 3.26059 -1.02863 0
M  V30 4190 O 526.157 2.90743 -2.19009 0
M  V30 4191 N 526.207 2.35995 0.0155585 0
M  V30 4192 C 526.297 2.65248 1.35603 0
M  V30 4193 C 526.447 4.05747 1.64698 0
M  V30 4194 C 526.497 4.96734 0.652411 0
M  V30 4195 H 529.238 8.64917 -0.776982 0
M  V30 4196 H 529.507 6.89974 -0.474015 0
M  V30 4197 H 528.64 7.66548 -2.79458 0
M  V30 4198 H 525.985 5.16076 -2.65138 0
M  V30 4199 H 525.706 7.06433 -0.329384 0
M  V30 4200 H 524.714 6.90829 -1.81996 0
M  V30 4201 H 526.548 8.90774 -1.62639 0
M  V30 4202 H 526.619 6.02181 0.895285 0
M  V30 4203 P 524.677 8.03563 -3.84925 0
M  V30 4204 O 524.457 8.85821 -5.0569 0
M  V30 4205 O 523.887 8.41101 -2.65469 0
M  V30 4206 O 524.427 6.4965 -4.18908 0
M  V30 4207 C 525.367 5.80886 -5.05289 0
M  V30 4208 C 524.637 4.78366 -5.89277 0
M  V30 4209 O 524.427 3.58302 -5.08433 0
M  V30 4210 C 523.237 5.16748 -6.36559 0
M  V30 4211 O 522.847 4.45271 -7.53232 0
M  V30 4212 C 522.357 4.74572 -5.19863 0
M  V30 4213 C 523.067 3.49373 -4.70338 0
M  V30 4214 N 523.017 3.31704 -3.22876 0
M  V30 4215 C 522.867 2.03326 -2.74871 0
M  V30 4216 O 522.777 1.06486 -3.48076 0
M  V30 4217 N 522.827 1.91838 -1.37456 0
M  V30 4218 C 522.917 2.94295 -0.462035 0
M  V30 4219 O 522.867 2.71763 0.752928 0
M  V30 4220 C 523.067 4.25064 -1.05249 0
M  V30 4221 C 523.177 5.39815 -0.095697 0
M  V30 4222 C 523.117 4.40214 -2.39192 0
M  V30 4223 H 525.858 6.54063 -5.71245 0
M  V30 4224 H 526.127 5.30339 -4.43905 0
M  V30 4225 H 525.26 4.55889 -6.76652 0
M  V30 4226 H 522.605 2.6167 -5.17842 0
M  V30 4227 H 522.326 5.52155 -4.41878 0
M  V30 4228 H 521.334 4.51918 -5.53297 0
M  V30 4229 H 523.168 6.25055 -6.55162 0
M  V30 4230 H 523.239 5.39798 -2.81523 0
M  V30 4231 H 522.209 5.91593 -0.0279582 0
M  V30 4232 H 523.946 6.10038 -0.450573 0
M  V30 4233 H 523.458 5.02007 0.89937 0
M  V30 4234 H 522.722 0.995326 -1.00435 0
M  V30 4235 P 521.297 4.23843 -7.83734 0
M  V30 4236 O 521.077 4.19407 -9.29784 0
M  V30 4237 O 520.507 5.24426 -7.09156 0
M  V30 4238 O 521.047 2.7935 -7.20758 0
M  V30 4239 C 521.987 1.7299 -7.50419 0
M  V30 4240 C 521.257 0.406376 -7.57911 0
M  V30 4241 O 521.047 -0.0897726 -6.21935 0
M  V30 4242 C 519.857 0.447224 -8.1878 0
M  V30 4243 O 519.467 -0.825065 -8.71101 0
M  V30 4244 C 518.977 0.783801 -6.99623 0
M  V30 4245 C 519.687 0.0619192 -5.85967 0
M  V30 4246 N 519.637 0.790462 -4.56202 0
M  V30 4247 H 522.476 1.93423 -8.4679 0
M  V30 4248 H 522.748 1.68852 -6.70877 0
M  V30 4249 H 521.88 -0.289041 -8.15388 0
M  V30 4250 H 519.225 -0.927006 -5.72848 0
M  V30 4251 H 518.945 1.86973 -6.82036 0
M  V30 4252 H 517.954 0.403953 -7.13357 0
M  V30 4253 H 519.788 1.20599 -8.97534 0
M  V30 4254 P 517.917 -1.17771 -8.83182 0
M  V30 4255 O 517.697 -2.07206 -9.98732 0
M  V30 4256 O 517.127 0.0743816 -8.81969 0
M  V30 4257 O 517.667 -1.97652 -7.47304 0
M  V30 4258 C 518.607 -3.01133 -7.08783 0
M  V30 4259 C 517.877 -4.12613 -6.37049 0
M  V30 4260 O 517.667 -3.72827 -4.97879 0
M  V30 4261 C 516.477 -4.45085 -6.88694 0
M  V30 4262 O 516.087 -5.7877 -6.5624 0
M  V30 4263 C 515.597 -3.47817 -6.12078 0
M  V30 4264 C 516.307 -3.39414 -4.77697 0
M  V30 4265 N 516.257 -2.04615 -4.15333 0
M  V30 4266 H 519.096 -3.41248 -7.98759 0
M  V30 4267 H 519.368 -2.5837 -6.41742 0
M  V30 4268 H 518.5 -5.02657 -6.42673 0
M  V30 4269 P 514.537 -6.144 -6.45285 0
M  V30 4270 O 514.317 -7.54673 -6.86199 0
M  V30 4271 O 513.747 -5.12391 -7.179 0
M  V30 4272 O 514.287 -5.99158 -4.88404 0
M  V30 4273 C 515.227 -6.60234 -3.96415 0
M  V30 4274 C 514.497 -7.08259 -2.72856 0
M  V30 4275 O 514.287 -5.9427 -1.83651 0
M  V30 4276 C 513.097 -7.64886 -2.9555 0
M  V30 4277 O 512.707 -8.53963 -1.90717 0
M  V30 4278 C 512.217 -6.4116 -2.90739 0
M  V30 4279 C 512.927 -5.55375 -1.86963 0
M  V30 4280 N 512.877 -4.09664 -2.15742 0
M  V30 4281 H 515.716 -7.45574 -4.45629 0
M  V30 4282 H 515.988 -5.86232 -3.67314 0
M  V30 4283 H 515.12 -7.84412 -2.24479 0
M  V30 4284 P 511.157 -8.7635 -1.60911 0
M  V30 4285 O 510.937 -10.1388 -1.11561 0
M  V30 4286 O 510.367 -8.36503 -2.79617 0
M  V30 4287 O 510.907 -7.71806 -0.42951 0
M  V30 4288 C 511.847 -7.67148 0.673689 0
M  V30 4289 C 511.117 -7.33374 1.95559 0
M  V30 4290 O 510.907 -5.88721 2.00726 0
M  V30 4291 C 509.717 -7.92526 2.10483 0
M  V30 4292 O 509.327 -8.02971 3.47653 0
M  V30 4293 C 508.837 -6.89602 1.41652 0
M  V30 4294 C 509.547 -5.59201 1.75185 0
M  V30 4295 N 509.497 -4.58301 0.657969 0
M  V30 4296 H 512.336 -8.65116 0.777161 0
M  V30 4297 H 512.608 -6.9022 0.46725 0
M  V30 4298 H 511.74 -7.66548 2.79458 0
M  V30 4299 H 509.085 -5.16165 2.65183 0
M  V30 4300 H 508.805 -7.06433 0.329384 0
M  V30 4301 H 507.814 -6.90926 1.82021 0
M  V30 4302 H 509.648 -8.90873 1.62657 0
M  V30 4303 P 507.777 -8.03563 3.84925 0
M  V30 4304 O 507.557 -8.85821 5.0569 0
M  V30 4305 O 506.987 -8.41101 2.65469 0
M  V30 4306 O 507.527 -6.4965 4.18908 0
M  V30 4307 C 508.467 -5.81037 5.05421 0
M  V30 4308 C 507.737 -4.78366 5.89277 0
M  V30 4309 O 507.527 -3.58302 5.08433 0
M  V30 4310 C 506.337 -5.17448 6.36119 0
M  V30 4311 O 505.947 -4.45271 7.53232 0
M  V30 4312 C 505.457 -4.74639 5.19936 0
M  V30 4313 C 506.167 -3.49432 4.70418 0
M  V30 4314 N 506.117 -3.32099 3.22613 0
M  V30 4315 H 508.956 -6.54213 5.71376 0
M  V30 4316 H 509.228 -5.30936 4.43503 0
M  V30 4317 H 508.36 -4.55889 6.76652 0
M  V30 4318 H 505.705 -2.61715 5.17932 0
M  V30 4319 H 505.425 -5.52155 4.41878 0
M  V30 4320 H 504.434 -4.51981 5.53374 0
M  V30 4321 H 506.268 -6.25124 6.55234 0
M  V30 4322 P 504.397 -4.23843 7.83734 0
M  V30 4323 O 504.177 -4.19407 9.29784 0
M  V30 4324 O 503.607 -5.24426 7.09156 0
M  V30 4325 O 504.147 -2.7935 7.20758 0
M  V30 4326 C 505.087 -1.7299 7.50419 0
M  V30 4327 C 504.357 -0.406376 7.57911 0
M  V30 4328 O 504.147 0.0897726 6.21935 0
M  V30 4329 C 502.957 -0.447224 8.1878 0
M  V30 4330 O 502.567 0.825065 8.71101 0
M  V30 4331 C 502.077 -0.783801 6.99623 0
M  V30 4332 C 502.787 -0.0619192 5.85967 0
M  V30 4333 N 502.737 -0.7859 4.56281 0
M  V30 4334 H 505.576 -1.93423 8.4679 0
M  V30 4335 H 505.848 -1.68181 6.71046 0
M  V30 4336 H 504.98 0.289041 8.15388 0
M  V30 4337 P 501.017 1.17771 8.83182 0
M  V30 4338 O 500.797 2.07206 9.98732 0
M  V30 4339 O 500.227 -0.0743816 8.81969 0
M  V30 4340 O 500.767 1.97678 7.474 0
M  V30 4341 C 501.707 3.01133 7.08783 0
M  V30 4342 C 500.977 4.1203 6.37546 0
M  V30 4343 O 500.767 3.72887 4.9796 0
M  V30 4344 C 499.577 4.45085 6.88694 0
M  V30 4345 O 499.187 5.78836 6.56315 0
M  V30 4346 C 498.697 3.47817 6.12078 0
M  V30 4347 C 499.407 3.39414 4.77697 0
M  V30 4348 N 499.357 2.04615 4.15333 0
M  V30 4349 C 499.207 1.96929 2.77162 0
M  V30 4350 O 499.117 3.02017 2.12006 0
M  V30 4351 N 499.157 0.55485 2.24237 0
M  V30 4352 C 499.257 -0.367808 2.9169 0
M  V30 4353 N 499.207 -1.53426 2.29427 0
M  V30 4354 C 499.407 -0.319148 4.33828 0
M  V30 4355 C 499.457 0.920672 4.90433 0
M  V30 4356 H 502.197 3.41209 7.98667 0
M  V30 4357 H 502.467 2.5837 6.41742 0
M  V30 4358 H 501.6 5.02718 6.42752 0
M  V30 4359 H 498.945 4.11779 4.09026 0
M  V30 4360 H 498.665 2.49661 6.61772 0
M  V30 4361 H 497.674 3.86674 6.00946 0
M  V30 4362 H 499.508 4.29991 7.97006 0
M  V30 4363 H 499.58 1.00589 5.98303 0
M  V30 4364 H 499.478 -1.22639 4.93799 0
M  V30 4365 H 499.09 -1.56819 1.27167 0
M  V30 4366 H 499.286 -2.41062 2.83063 0
M  V30 4367 P 497.637 6.144 6.45285 0
M  V30 4368 O 497.417 7.54673 6.86199 0
M  V30 4369 O 496.847 5.12391 7.179 0
M  V30 4370 O 497.387 5.99158 4.88404 0
M  V30 4371 C 498.327 6.60234 3.96415 0
M  V30 4372 C 497.597 7.08259 2.72856 0
M  V30 4373 O 497.387 5.9427 1.83651 0
M  V30 4374 C 496.197 7.64886 2.9555 0
M  V30 4375 O 495.807 8.53963 1.90717 0
M  V30 4376 C 495.317 6.4116 2.90739 0
M  V30 4377 C 496.027 5.55375 1.86963 0
M  V30 4378 N 495.977 4.09664 2.15742 0
M  V30 4379 H 498.816 7.45574 4.45629 0
M  V30 4380 H 499.088 5.86232 3.67314 0
M  V30 4381 H 498.22 7.84412 2.24479 0
M  V30 4382 P 494.257 8.7635 1.60911 0
M  V30 4383 O 494.037 10.1388 1.11561 0
M  V30 4384 O 493.467 8.36503 2.79617 0
M  V30 4385 O 494.007 7.71806 0.42951 0
M  V30 4386 C 494.947 7.67148 -0.673689 0
M  V30 4387 C 494.217 7.33374 -1.95559 0
M  V30 4388 O 494.007 5.88721 -2.00726 0
M  V30 4389 C 492.817 7.92526 -2.10483 0
M  V30 4390 O 492.427 8.02971 -3.47653 0
M  V30 4391 C 491.937 6.89602 -1.41652 0
M  V30 4392 C 492.647 5.59201 -1.75185 0
M  V30 4393 N 492.597 4.58235 -0.662552 0
M  V30 4394 H 495.436 8.65116 -0.777161 0
M  V30 4395 H 495.708 6.90173 -0.474152 0
M  V30 4396 H 494.84 7.66548 -2.79458 0
M  V30 4397 P 490.877 8.03563 -3.84925 0
M  V30 4398 O 490.657 8.85821 -5.0569 0
M  V30 4399 O 490.087 8.41101 -2.65469 0
M  V30 4400 O 490.627 6.4965 -4.18908 0
M  V30 4401 C 491.567 5.81037 -5.05421 0
M  V30 4402 C 490.837 4.78366 -5.89277 0
M  V30 4403 O 490.627 3.58302 -5.08433 0
M  V30 4404 C 489.437 5.17448 -6.36119 0
M  V30 4405 O 489.047 4.45271 -7.53232 0
M  V30 4406 C 488.557 4.74639 -5.19936 0
M  V30 4407 C 489.267 3.49432 -4.70418 0
M  V30 4408 N 489.217 3.32099 -3.22613 0
M  V30 4409 H 492.056 6.54213 -5.71376 0
M  V30 4410 H 492.328 5.30936 -4.43503 0
M  V30 4411 H 491.46 4.55889 -6.76652 0
M  V30 4412 H 488.805 2.61715 -5.17932 0
M  V30 4413 H 488.525 5.52155 -4.41878 0
M  V30 4414 H 487.534 4.51981 -5.53374 0
M  V30 4415 H 489.368 6.25124 -6.55234 0
M  V30 4416 P 487.497 4.23843 -7.83734 0
M  V30 4417 O 487.277 4.19407 -9.29784 0
M  V30 4418 O 486.707 5.24426 -7.09156 0
M  V30 4419 O 487.247 2.7935 -7.20758 0
M  V30 4420 C 488.187 1.7299 -7.50419 0
M  V30 4421 C 487.457 0.406376 -7.57911 0
M  V30 4422 O 487.247 -0.0897726 -6.21935 0
M  V30 4423 C 486.057 0.447224 -8.1878 0
M  V30 4424 O 485.667 -0.825065 -8.71101 0
M  V30 4425 C 485.177 0.783801 -6.99623 0
M  V30 4426 C 485.887 0.0619192 -5.85967 0
M  V30 4427 N 485.837 0.7859 -4.56281 0
M  V30 4428 H 488.676 1.93423 -8.4679 0
M  V30 4429 H 488.948 1.68181 -6.71046 0
M  V30 4430 H 488.08 -0.289041 -8.15388 0
M  V30 4431 P 484.117 -1.17771 -8.83182 0
M  V30 4432 O 483.897 -2.07206 -9.98732 0
M  V30 4433 O 483.327 0.0743816 -8.81969 0
M  V30 4434 O 483.867 -1.97652 -7.47304 0
M  V30 4435 C 484.807 -3.01133 -7.08783 0
M  V30 4436 C 484.077 -4.12613 -6.37049 0
M  V30 4437 O 483.867 -3.72827 -4.97879 0
M  V30 4438 C 482.677 -4.45085 -6.88694 0
M  V30 4439 O 482.287 -5.7877 -6.5624 0
M  V30 4440 C 481.797 -3.47817 -6.12078 0
M  V30 4441 C 482.507 -3.39414 -4.77697 0
M  V30 4442 N 482.457 -2.04615 -4.15333 0
M  V30 4443 H 485.296 -3.41248 -7.98759 0
M  V30 4444 H 485.568 -2.5837 -6.41742 0
M  V30 4445 H 484.7 -5.02657 -6.42673 0
M  V30 4446 P 480.737 -6.144 -6.45285 0
M  V30 4447 O 480.517 -7.54673 -6.86199 0
M  V30 4448 O 479.947 -5.12391 -7.179 0
M  V30 4449 O 480.487 -5.99158 -4.88404 0
M  V30 4450 C 481.427 -6.60234 -3.96415 0
M  V30 4451 C 480.697 -7.08259 -2.72856 0
M  V30 4452 O 480.487 -5.9427 -1.83651 0
M  V30 4453 C 479.297 -7.64886 -2.9555 0
M  V30 4454 O 478.907 -8.53963 -1.90717 0
M  V30 4455 C 478.417 -6.4116 -2.90739 0
M  V30 4456 C 479.127 -5.55375 -1.86963 0
M  V30 4457 N 479.077 -4.09664 -2.15742 0
M  V30 4458 H 481.916 -7.45574 -4.45629 0
M  V30 4459 H 482.188 -5.86232 -3.67314 0
M  V30 4460 H 481.32 -7.84412 -2.24479 0
M  V30 4461 P 477.357 -8.7635 -1.60911 0
M  V30 4462 O 477.137 -10.1388 -1.11561 0
M  V30 4463 O 476.567 -8.36503 -2.79617 0
M  V30 4464 O 477.107 -7.71806 -0.42951 0
M  V30 4465 C 478.047 -7.67148 0.673689 0
M  V30 4466 C 477.317 -7.33374 1.95559 0
M  V30 4467 O 477.107 -5.88721 2.00726 0
M  V30 4468 C 475.917 -7.92526 2.10483 0
M  V30 4469 O 475.527 -8.02971 3.47653 0
M  V30 4470 C 475.037 -6.89602 1.41652 0
M  V30 4471 C 475.747 -5.59201 1.75185 0
M  V30 4472 N 475.697 -4.58301 0.657969 0
M  V30 4473 H 478.536 -8.65116 0.777161 0
M  V30 4474 H 478.808 -6.9022 0.46725 0
M  V30 4475 H 477.94 -7.66548 2.79458 0
M  V30 4476 H 475.285 -5.16165 2.65183 0
M  V30 4477 H 475.005 -7.06433 0.329384 0
M  V30 4478 H 474.014 -6.90926 1.82021 0
M  V30 4479 H 475.848 -8.90873 1.62657 0
M  V30 4480 P 473.977 -8.03563 3.84925 0
M  V30 4481 O 473.757 -8.85821 5.0569 0
M  V30 4482 O 473.187 -8.41101 2.65469 0
M  V30 4483 O 473.727 -6.4965 4.18908 0
M  V30 4484 C 474.667 -5.81037 5.05421 0
M  V30 4485 C 473.937 -4.78366 5.89277 0
M  V30 4486 O 473.727 -3.58302 5.08433 0
M  V30 4487 C 472.537 -5.17448 6.36119 0
M  V30 4488 O 472.147 -4.45271 7.53232 0
M  V30 4489 C 471.657 -4.74639 5.19936 0
M  V30 4490 C 472.367 -3.49432 4.70418 0
M  V30 4491 N 472.317 -3.32099 3.22613 0
M  V30 4492 H 475.156 -6.54213 5.71376 0
M  V30 4493 H 475.428 -5.30936 4.43503 0
M  V30 4494 H 474.56 -4.55889 6.76652 0
M  V30 4495 H 471.905 -2.61715 5.17932 0
M  V30 4496 H 471.625 -5.52155 4.41878 0
M  V30 4497 H 470.634 -4.51981 5.53374 0
M  V30 4498 H 472.468 -6.25124 6.55234 0
M  V30 4499 P 470.597 -4.23843 7.83734 0
M  V30 4500 O 470.377 -4.19407 9.29784 0
M  V30 4501 O 469.807 -5.24426 7.09156 0
M  V30 4502 O 470.347 -2.7935 7.20758 0
M  V30 4503 C 471.287 -1.7299 7.50419 0
M  V30 4504 C 470.557 -0.406376 7.57911 0
M  V30 4505 O 470.347 0.0897726 6.21935 0
M  V30 4506 C 469.157 -0.447224 8.1878 0
M  V30 4507 O 468.767 0.825065 8.71101 0
M  V30 4508 C 468.277 -0.783801 6.99623 0
M  V30 4509 C 468.987 -0.0619192 5.85967 0
M  V30 4510 N 468.937 -0.7859 4.56281 0
M  V30 4511 H 471.776 -1.93423 8.4679 0
M  V30 4512 H 472.048 -1.68181 6.71046 0
M  V30 4513 H 471.18 0.289041 8.15388 0
M  V30 4514 P 467.217 1.17771 8.83182 0
M  V30 4515 O 466.997 2.07206 9.98732 0
M  V30 4516 O 466.427 -0.0743816 8.81969 0
M  V30 4517 O 466.967 1.97652 7.47304 0
M  V30 4518 C 467.907 3.01133 7.08783 0
M  V30 4519 C 467.177 4.12613 6.37049 0
M  V30 4520 O 466.967 3.72827 4.97879 0
M  V30 4521 C 465.777 4.45085 6.88694 0
M  V30 4522 O 465.387 5.7877 6.5624 0
M  V30 4523 C 464.897 3.47817 6.12078 0
M  V30 4524 C 465.607 3.39414 4.77697 0
M  V30 4525 N 465.557 2.04615 4.15333 0
M  V30 4526 H 468.396 3.41248 7.98759 0
M  V30 4527 H 468.668 2.5837 6.41742 0
M  V30 4528 H 467.8 5.02657 6.42673 0
M  V30 4529 P 463.837 6.144 6.45285 0
M  V30 4530 O 463.617 7.54673 6.86199 0
M  V30 4531 O 463.047 5.12391 7.179 0
M  V30 4532 O 463.587 5.99158 4.88404 0
M  V30 4533 C 464.527 6.60234 3.96415 0
M  V30 4534 C 463.797 7.08259 2.72856 0
M  V30 4535 O 463.587 5.9427 1.83651 0
M  V30 4536 C 462.397 7.64886 2.9555 0
M  V30 4537 O 462.007 8.53963 1.90717 0
M  V30 4538 C 461.517 6.4116 2.90739 0
M  V30 4539 C 462.227 5.55375 1.86963 0
M  V30 4540 N 462.177 4.09664 2.15742 0
M  V30 4541 H 465.016 7.45574 4.45629 0
M  V30 4542 H 465.288 5.86232 3.67314 0
M  V30 4543 H 464.42 7.84412 2.24479 0
M  V30 4544 P 460.457 8.7635 1.60911 0
M  V30 4545 O 460.237 10.1388 1.11561 0
M  V30 4546 O 459.667 8.36503 2.79617 0
M  V30 4547 O 460.207 7.71806 0.42951 0
M  V30 4548 C 461.147 7.66948 -0.673514 0
M  V30 4549 C 460.417 7.33374 -1.95559 0
M  V30 4550 O 460.207 5.88721 -2.00726 0
M  V30 4551 C 459.017 7.92218 -2.1125 0
M  V30 4552 O 458.627 8.02971 -3.47653 0
M  V30 4553 C 458.137 6.89504 -1.41631 0
M  V30 4554 C 458.847 5.59106 -1.75155 0
M  V30 4555 N 458.797 4.58136 -0.662409 0
M  V30 4556 C 458.647 3.26059 -1.02863 0
M  V30 4557 O 458.557 2.90743 -2.19009 0
M  V30 4558 N 458.607 2.35995 0.0155585 0
M  V30 4559 C 458.697 2.65248 1.35603 0
M  V30 4560 C 458.847 4.05747 1.64698 0
M  V30 4561 C 458.897 4.96734 0.652411 0
M  V30 4562 H 461.638 8.64917 -0.776982 0
M  V30 4563 H 461.907 6.89974 -0.474015 0
M  V30 4564 H 461.04 7.66548 -2.79458 0
M  V30 4565 H 458.385 5.16076 -2.65138 0
M  V30 4566 H 458.106 7.06433 -0.329384 0
M  V30 4567 H 457.114 6.90829 -1.81996 0
M  V30 4568 H 458.948 8.90774 -1.62639 0
M  V30 4569 H 459.019 6.02181 0.895285 0
M  V30 4570 P 457.077 8.03563 -3.84925 0
M  V30 4571 O 456.857 8.85821 -5.0569 0
M  V30 4572 O 456.287 8.41101 -2.65469 0
M  V30 4573 O 456.827 6.4965 -4.18908 0
M  V30 4574 C 457.767 5.81037 -5.05421 0
M  V30 4575 C 457.037 4.78366 -5.89277 0
M  V30 4576 O 456.827 3.58302 -5.08433 0
M  V30 4577 C 455.637 5.17448 -6.36119 0
M  V30 4578 O 455.247 4.45271 -7.53232 0
M  V30 4579 C 454.757 4.74639 -5.19936 0
M  V30 4580 C 455.467 3.49432 -4.70418 0
M  V30 4581 N 455.417 3.31776 -3.22945 0
M  V30 4582 H 458.256 6.54213 -5.71376 0
M  V30 4583 H 458.528 5.30492 -4.44033 0
M  V30 4584 H 457.66 4.55889 -6.76652 0
M  V30 4585 P 453.697 4.23843 -7.83734 0
M  V30 4586 O 453.477 4.19407 -9.29784 0
M  V30 4587 O 452.907 5.24426 -7.09156 0
M  V30 4588 O 453.447 2.7935 -7.20758 0
M  V30 4589 C 454.387 1.7299 -7.50419 0
M  V30 4590 C 453.657 0.406376 -7.57911 0
M  V30 4591 O 453.447 -0.0897726 -6.21935 0
M  V30 4592 C 452.257 0.447224 -8.1878 0
M  V30 4593 O 451.867 -0.825065 -8.71101 0
M  V30 4594 C 451.377 0.783801 -6.99623 0
M  V30 4595 C 452.087 0.0619192 -5.85967 0
M  V30 4596 N 452.037 0.790462 -4.56202 0
M  V30 4597 H 454.876 1.93423 -8.4679 0
M  V30 4598 H 455.148 1.68852 -6.70877 0
M  V30 4599 H 454.28 -0.289041 -8.15388 0
M  V30 4600 H 451.625 -0.927006 -5.72848 0
M  V30 4601 H 451.345 1.86973 -6.82036 0
M  V30 4602 H 450.354 0.403953 -7.13357 0
M  V30 4603 H 452.188 1.20599 -8.97534 0
M  V30 4604 P 450.317 -1.17771 -8.83182 0
M  V30 4605 O 450.097 -2.07206 -9.98732 0
M  V30 4606 O 449.527 0.0743816 -8.81969 0
M  V30 4607 O 450.067 -1.97652 -7.47304 0
M  V30 4608 C 451.007 -3.01133 -7.08783 0
M  V30 4609 C 450.277 -4.12613 -6.37049 0
M  V30 4610 O 450.067 -3.72827 -4.97879 0
M  V30 4611 C 448.877 -4.45085 -6.88694 0
M  V30 4612 O 448.487 -5.7877 -6.5624 0
M  V30 4613 C 447.997 -3.47817 -6.12078 0
M  V30 4614 C 448.707 -3.39414 -4.77697 0
M  V30 4615 N 448.657 -2.04615 -4.15333 0
M  V30 4616 H 451.496 -3.41248 -7.98759 0
M  V30 4617 H 451.768 -2.5837 -6.41742 0
M  V30 4618 H 450.9 -5.02657 -6.42673 0
M  V30 4619 P 446.937 -6.144 -6.45285 0
M  V30 4620 O 446.717 -7.54673 -6.86199 0
M  V30 4621 O 446.147 -5.12391 -7.179 0
M  V30 4622 O 446.687 -5.99158 -4.88404 0
M  V30 4623 C 447.627 -6.60234 -3.96415 0
M  V30 4624 C 446.897 -7.08259 -2.72856 0
M  V30 4625 O 446.687 -5.9427 -1.83651 0
M  V30 4626 C 445.497 -7.64886 -2.9555 0
M  V30 4627 O 445.107 -8.53963 -1.90717 0
M  V30 4628 C 444.617 -6.4116 -2.90739 0
M  V30 4629 C 445.327 -5.55375 -1.86963 0
M  V30 4630 N 445.277 -4.09664 -2.15742 0
M  V30 4631 H 448.116 -7.45574 -4.45629 0
M  V30 4632 H 448.388 -5.86232 -3.67314 0
M  V30 4633 H 447.52 -7.84412 -2.24479 0
M  V30 4634 P 443.557 -8.7635 -1.60911 0
M  V30 4635 O 443.337 -10.1388 -1.11561 0
M  V30 4636 O 442.767 -8.36503 -2.79617 0
M  V30 4637 O 443.307 -7.71806 -0.42951 0
M  V30 4638 C 444.247 -7.66948 0.673514 0
M  V30 4639 C 443.517 -7.33374 1.95559 0
M  V30 4640 O 443.307 -5.88721 2.00726 0
M  V30 4641 C 442.117 -7.92218 2.1125 0
M  V30 4642 O 441.727 -8.02971 3.47653 0
M  V30 4643 C 441.237 -6.89504 1.41631 0
M  V30 4644 C 441.947 -5.59106 1.75155 0
M  V30 4645 N 441.897 -4.58136 0.662409 0
M  V30 4646 C 441.747 -3.26059 1.02863 0
M  V30 4647 O 441.657 -2.90743 2.19009 0
M  V30 4648 N 441.707 -2.35995 -0.0155585 0
M  V30 4649 C 441.797 -2.65248 -1.35603 0
M  V30 4650 C 441.947 -4.05747 -1.64698 0
M  V30 4651 C 441.997 -4.96734 -0.652411 0
M  V30 4652 H 444.738 -8.64917 0.776982 0
M  V30 4653 H 445.007 -6.89974 0.474015 0
M  V30 4654 H 444.14 -7.66548 2.79458 0
M  V30 4655 H 441.485 -5.16076 2.65138 0
M  V30 4656 H 441.206 -7.06433 0.329384 0
M  V30 4657 H 440.214 -6.90829 1.81996 0
M  V30 4658 H 442.048 -8.90774 1.62639 0
M  V30 4659 H 442.119 -6.02181 -0.895285 0
M  V30 4660 P 440.177 -8.03563 3.84925 0
M  V30 4661 O 439.957 -8.85821 5.0569 0
M  V30 4662 O 439.387 -8.41101 2.65469 0
M  V30 4663 O 439.927 -6.4965 4.18908 0
M  V30 4664 C 440.867 -5.81037 5.05421 0
M  V30 4665 C 440.137 -4.78366 5.89277 0
M  V30 4666 O 439.927 -3.58302 5.08433 0
M  V30 4667 C 438.737 -5.17448 6.36119 0
M  V30 4668 O 438.347 -4.45271 7.53232 0
M  V30 4669 C 437.857 -4.74639 5.19936 0
M  V30 4670 C 438.567 -3.49432 4.70418 0
M  V30 4671 N 438.517 -3.31776 3.22945 0
M  V30 4672 H 441.356 -6.54213 5.71376 0
M  V30 4673 H 441.628 -5.30492 4.44033 0
M  V30 4674 H 440.76 -4.55889 6.76652 0
M  V30 4675 P 436.797 -4.23843 7.83734 0
M  V30 4676 O 436.577 -4.19407 9.29784 0
M  V30 4677 O 436.007 -5.24426 7.09156 0
M  V30 4678 O 436.547 -2.7935 7.20758 0
M  V30 4679 C 437.487 -1.7299 7.50419 0
M  V30 4680 C 436.757 -0.406376 7.57911 0
M  V30 4681 O 436.547 0.0897726 6.21935 0
M  V30 4682 C 435.357 -0.447224 8.1878 0
M  V30 4683 O 434.967 0.825065 8.71101 0
M  V30 4684 C 434.477 -0.783801 6.99623 0
M  V30 4685 C 435.187 -0.0619192 5.85967 0
M  V30 4686 N 435.137 -0.790462 4.56202 0
M  V30 4687 H 437.976 -1.93423 8.4679 0
M  V30 4688 H 438.248 -1.68852 6.70877 0
M  V30 4689 H 437.38 0.289041 8.15388 0
M  V30 4690 H 434.725 0.927006 5.72848 0
M  V30 4691 H 434.445 -1.86973 6.82036 0
M  V30 4692 H 433.454 -0.403953 7.13357 0
M  V30 4693 H 435.288 -1.20599 8.97534 0
M  V30 4694 P 433.417 1.17771 8.83182 0
M  V30 4695 O 433.197 2.07206 9.98732 0
M  V30 4696 O 432.627 -0.0743816 8.81969 0
M  V30 4697 O 433.167 1.97652 7.47304 0
M  V30 4698 C 434.107 3.01133 7.08783 0
M  V30 4699 C 433.377 4.12613 6.37049 0
M  V30 4700 O 433.167 3.72827 4.97879 0
M  V30 4701 C 431.977 4.45085 6.88694 0
M  V30 4702 O 431.587 5.7877 6.5624 0
M  V30 4703 C 431.097 3.47817 6.12078 0
M  V30 4704 C 431.807 3.39414 4.77697 0
M  V30 4705 N 431.757 2.04615 4.15333 0
M  V30 4706 H 434.596 3.41248 7.98759 0
M  V30 4707 H 434.868 2.5837 6.41742 0
M  V30 4708 H 434 5.02657 6.42673 0
M  V30 4709 P 430.037 6.144 6.45285 0
M  V30 4710 O 429.817 7.54673 6.86199 0
M  V30 4711 O 429.247 5.12391 7.179 0
M  V30 4712 O 429.787 5.99158 4.88404 0
M  V30 4713 C 430.727 6.60062 3.96313 0
M  V30 4714 C 429.997 7.08259 2.72856 0
M  V30 4715 O 429.787 5.9427 1.83651 0
M  V30 4716 C 428.597 7.65087 2.94749 0
M  V30 4717 O 428.207 8.53963 1.90717 0
M  V30 4718 C 427.717 6.41069 2.90698 0
M  V30 4719 C 428.427 5.5528 1.86931 0
M  V30 4720 N 428.377 4.09575 2.15696 0
M  V30 4721 C 428.227 3.24249 1.08435 0
M  V30 4722 O 428.137 3.63946 -0.0628747 0
M  V30 4723 N 428.187 1.90009 1.39973 0
M  V30 4724 C 428.277 1.34884 2.65614 0
M  V30 4725 C 428.427 2.3145 3.71736 0
M  V30 4726 C 428.477 3.63518 3.44754 0
M  V30 4727 H 431.218 7.45402 4.45526 0
M  V30 4728 H 431.487 5.86062 3.67208 0
M  V30 4729 H 430.62 7.84412 2.24479 0
M  V30 4730 H 427.965 5.73358 0.888409 0
M  V30 4731 H 427.686 5.90877 3.88583 0
M  V30 4732 H 426.694 6.65867 2.58821 0
M  V30 4733 H 428.528 8.16248 3.92006 0
M  V30 4734 H 428.599 4.34551 4.26383 0
M  V30 4735 P 426.657 8.7635 1.60911 0
M  V30 4736 O 426.437 10.1388 1.11561 0
M  V30 4737 O 425.867 8.36503 2.79617 0
M  V30 4738 O 426.407 7.71806 0.42951 0
M  V30 4739 C 427.347 7.66948 -0.673514 0
M  V30 4740 C 426.617 7.33374 -1.95559 0
M  V30 4741 O 426.407 5.88721 -2.00726 0
M  V30 4742 C 425.217 7.92218 -2.1125 0
M  V30 4743 O 424.827 8.02971 -3.47653 0
M  V30 4744 C 424.337 6.89504 -1.41631 0
M  V30 4745 C 425.047 5.59106 -1.75155 0
M  V30 4746 N 424.997 4.58136 -0.662409 0
M  V30 4747 C 424.847 3.26059 -1.02863 0
M  V30 4748 O 424.757 2.90743 -2.19009 0
M  V30 4749 N 424.807 2.35995 0.0155585 0
M  V30 4750 C 424.897 2.65248 1.35603 0
M  V30 4751 C 425.047 4.05747 1.64698 0
M  V30 4752 C 425.097 4.96734 0.652411 0
M  V30 4753 H 427.838 8.64917 -0.776982 0
M  V30 4754 H 428.107 6.89974 -0.474015 0
M  V30 4755 H 427.24 7.66548 -2.79458 0
M  V30 4756 H 424.585 5.16076 -2.65138 0
M  V30 4757 H 424.306 7.06433 -0.329384 0
M  V30 4758 H 423.314 6.90829 -1.81996 0
M  V30 4759 H 425.148 8.90774 -1.62639 0
M  V30 4760 H 425.219 6.02181 0.895285 0
M  V30 4761 P 423.278 8.03563 -3.84925 0
M  V30 4762 O 423.058 8.85821 -5.0569 0
M  V30 4763 O 422.488 8.41101 -2.65469 0
M  V30 4764 O 423.028 6.4965 -4.18908 0
M  V30 4765 C 423.968 5.81037 -5.05421 0
M  V30 4766 C 423.238 4.78366 -5.89277 0
M  V30 4767 O 423.028 3.58302 -5.08433 0
M  V30 4768 C 421.838 5.17448 -6.36119 0
M  V30 4769 O 421.448 4.45271 -7.53232 0
M  V30 4770 C 420.958 4.74639 -5.19936 0
M  V30 4771 C 421.668 3.49432 -4.70418 0
M  V30 4772 N 421.618 3.31776 -3.22945 0
M  V30 4773 C 421.698 4.27147 -2.23315 0
M  V30 4774 N 421.618 3.78447 -1.02186 0
M  V30 4775 C 421.478 2.41001 -1.21732 0
M  V30 4776 C 421.348 1.36111 -0.27694 0
M  V30 4777 O 421.328 1.42065 0.951767 0
M  V30 4778 N 421.228 0.113683 -0.912949 0
M  V30 4779 C 421.228 -0.0846396 -2.27943 0
M  V30 4780 N 421.098 -1.34737 -2.6916 0
M  V30 4781 N 421.358 0.902521 -3.16379 0
M  V30 4782 C 421.478 2.11937 -2.56849 0
M  V30 4783 H 424.457 6.54213 -5.71376 0
M  V30 4784 H 424.729 5.30492 -4.44033 0
M  V30 4785 H 423.861 4.55889 -6.76652 0
M  V30 4786 H 421.206 2.6176 -5.18021 0
M  V30 4787 H 420.926 5.52233 -4.41941 0
M  V30 4788 H 419.935 4.52045 -5.53452 0
M  V30 4789 H 421.769 6.25193 -6.55307 0
M  V30 4790 H 421.818 5.3351 -2.43857 0
M  V30 4791 H 421.136 -0.69331 -0.330371 0
M  V30 4792 H 421.099 -1.56433 -3.6988 0
M  V30 4793 H 420.998 -2.10701 -2.00133 0
M  V30 4794 P 419.898 4.23843 -7.83734 0
M  V30 4795 O 419.678 4.19407 -9.29784 0
M  V30 4796 O 419.108 5.24426 -7.09156 0
M  V30 4797 O 419.648 2.7935 -7.20758 0
M  V30 4798 C 420.588 1.7299 -7.50419 0
M  V30 4799 C 419.858 0.406376 -7.57911 0
M  V30 4800 O 419.648 -0.0897726 -6.21935 0
M  V30 4801 C 418.458 0.447224 -8.1878 0
M  V30 4802 O 418.068 -0.825065 -8.71101 0
M  V30 4803 C 417.578 0.783801 -6.99623 0
M  V30 4804 C 418.288 0.0619192 -5.85967 0
M  V30 4805 N 418.238 0.7859 -4.56281 0
M  V30 4806 H 421.077 1.93423 -8.4679 0
M  V30 4807 H 421.349 1.68181 -6.71046 0
M  V30 4808 H 420.481 -0.289041 -8.15388 0
M  V30 4809 P 416.518 -1.17771 -8.83182 0
M  V30 4810 O 416.298 -2.07206 -9.98732 0
M  V30 4811 O 415.728 0.0743816 -8.81969 0
M  V30 4812 O 416.268 -1.97652 -7.47304 0
M  V30 4813 C 417.208 -3.01133 -7.08783 0
M  V30 4814 C 416.478 -4.12613 -6.37049 0
M  V30 4815 O 416.268 -3.72827 -4.97879 0
M  V30 4816 C 415.078 -4.45085 -6.88694 0
M  V30 4817 O 414.688 -5.7877 -6.5624 0
M  V30 4818 C 414.198 -3.47817 -6.12078 0
M  V30 4819 C 414.908 -3.39414 -4.77697 0
M  V30 4820 N 414.858 -2.04199 -4.15538 0
M  V30 4821 H 417.697 -3.41248 -7.98759 0
M  V30 4822 H 417.969 -2.57728 -6.42 0
M  V30 4823 H 417.101 -5.02657 -6.42673 0
M  V30 4824 H 414.446 -4.11708 -4.08956 0
M  V30 4825 H 414.166 -2.49626 -6.61679 0
M  V30 4826 H 413.175 -3.8662 -6.00862 0
M  V30 4827 H 415.009 -4.29991 -7.97006 0
M  V30 4828 P 413.138 -6.144 -6.45285 0
M  V30 4829 O 412.918 -7.54673 -6.86199 0
M  V30 4830 O 412.348 -5.12391 -7.179 0
M  V30 4831 O 412.888 -5.99158 -4.88404 0
M  V30 4832 C 413.828 -6.60234 -3.96415 0
M  V30 4833 C 413.098 -7.08259 -2.72856 0
M  V30 4834 O 412.888 -5.9427 -1.83651 0
M  V30 4835 C 411.698 -7.64886 -2.9555 0
M  V30 4836 O 411.308 -8.53963 -1.90717 0
M  V30 4837 C 410.818 -6.4116 -2.90739 0
M  V30 4838 C 411.528 -5.55375 -1.86963 0
M  V30 4839 N 411.478 -4.09664 -2.15742 0
M  V30 4840 H 414.317 -7.45574 -4.45629 0
M  V30 4841 H 414.589 -5.86232 -3.67314 0
M  V30 4842 H 413.721 -7.84412 -2.24479 0
M  V30 4843 P 409.758 -8.7635 -1.60911 0
M  V30 4844 O 409.538 -10.1388 -1.11561 0
M  V30 4845 O 408.968 -8.36503 -2.79617 0
M  V30 4846 O 409.508 -7.71806 -0.42951 0
M  V30 4847 C 410.448 -7.67148 0.673689 0
M  V30 4848 C 409.718 -7.33374 1.95559 0
M  V30 4849 O 409.508 -5.88721 2.00726 0
M  V30 4850 C 408.318 -7.92526 2.10483 0
M  V30 4851 O 407.928 -8.02971 3.47653 0
M  V30 4852 C 407.438 -6.89602 1.41652 0
M  V30 4853 C 408.148 -5.59201 1.75185 0
M  V30 4854 N 408.098 -4.58301 0.657969 0
M  V30 4855 H 410.937 -8.65116 0.777161 0
M  V30 4856 H 411.209 -6.9022 0.46725 0
M  V30 4857 H 410.341 -7.66548 2.79458 0
M  V30 4858 H 407.686 -5.16165 2.65183 0
M  V30 4859 H 407.406 -7.06433 0.329384 0
M  V30 4860 H 406.415 -6.90926 1.82021 0
M  V30 4861 H 408.249 -8.90873 1.62657 0
M  V30 4862 P 406.378 -8.03563 3.84925 0
M  V30 4863 O 406.158 -8.85821 5.0569 0
M  V30 4864 O 405.588 -8.41101 2.65469 0
M  V30 4865 O 406.128 -6.4965 4.18908 0
M  V30 4866 C 407.068 -5.80886 5.05289 0
M  V30 4867 C 406.338 -4.78366 5.89277 0
M  V30 4868 O 406.128 -3.58302 5.08433 0
M  V30 4869 C 404.938 -5.16748 6.36559 0
M  V30 4870 O 404.548 -4.45271 7.53232 0
M  V30 4871 C 404.058 -4.74572 5.19863 0
M  V30 4872 C 404.768 -3.49373 4.70338 0
M  V30 4873 N 404.718 -3.31704 3.22876 0
M  V30 4874 C 404.568 -2.03326 2.74871 0
M  V30 4875 O 404.478 -1.06486 3.48076 0
M  V30 4876 N 404.528 -1.91838 1.37456 0
M  V30 4877 C 404.618 -2.94295 0.462035 0
M  V30 4878 O 404.568 -2.71763 -0.752928 0
M  V30 4879 C 404.768 -4.25064 1.05249 0
M  V30 4880 C 404.878 -5.39815 0.095697 0
M  V30 4881 C 404.818 -4.40214 2.39192 0
M  V30 4882 H 407.559 -6.54063 5.71245 0
M  V30 4883 H 407.828 -5.30339 4.43905 0
M  V30 4884 H 406.961 -4.55889 6.76652 0
M  V30 4885 H 404.306 -2.6167 5.17842 0
M  V30 4886 H 404.027 -5.52155 4.41878 0
M  V30 4887 H 403.035 -4.51918 5.53297 0
M  V30 4888 H 404.869 -6.25055 6.55162 0
M  V30 4889 H 404.94 -5.39798 2.81523 0
M  V30 4890 H 403.91 -5.91593 0.0279582 0
M  V30 4891 H 405.647 -6.10038 0.450573 0
M  V30 4892 H 405.159 -5.02007 -0.89937 0
M  V30 4893 H 404.423 -0.995326 1.00435 0
M  V30 4894 P 402.998 -4.23843 7.83734 0
M  V30 4895 O 402.778 -4.19407 9.29784 0
M  V30 4896 O 402.208 -5.24426 7.09156 0
M  V30 4897 O 402.748 -2.7935 7.20758 0
M  V30 4898 C 403.688 -1.7299 7.50419 0
M  V30 4899 C 402.958 -0.406376 7.57911 0
M  V30 4900 O 402.748 0.0897726 6.21935 0
M  V30 4901 C 401.558 -0.447224 8.1878 0
M  V30 4902 O 401.168 0.825065 8.71101 0
M  V30 4903 C 400.678 -0.783801 6.99623 0
M  V30 4904 C 401.388 -0.0619192 5.85967 0
M  V30 4905 N 401.338 -0.7859 4.56281 0
M  V30 4906 H 404.177 -1.93423 8.4679 0
M  V30 4907 H 404.449 -1.68181 6.71046 0
M  V30 4908 H 403.581 0.289041 8.15388 0
M  V30 4909 P 399.618 1.17771 8.83182 0
M  V30 4910 O 399.398 2.07206 9.98732 0
M  V30 4911 O 398.828 -0.0743816 8.81969 0
M  V30 4912 O 399.368 1.97652 7.47304 0
M  V30 4913 C 400.308 3.01055 7.08599 0
M  V30 4914 C 399.578 4.12613 6.37049 0
M  V30 4915 O 399.368 3.72827 4.97879 0
M  V30 4916 C 398.178 4.45719 6.88164 0
M  V30 4917 O 397.788 5.7877 6.5624 0
M  V30 4918 C 397.298 3.47768 6.11991 0
M  V30 4919 C 398.008 3.39356 4.77615 0
M  V30 4920 N 397.958 2.04571 4.15244 0
M  V30 4921 C 397.808 1.98587 2.78314 0
M  V30 4922 O 397.718 2.98134 2.08835 0
M  V30 4923 N 397.768 0.714467 2.24925 0
M  V30 4924 C 397.858 -0.470001 2.94169 0
M  V30 4925 C 398.008 -0.312541 4.36783 0
M  V30 4926 C 398.058 0.914512 4.92583 0
M  V30 4927 H 400.799 3.41169 7.98575 0
M  V30 4928 H 401.068 2.58295 6.41556 0
M  V30 4929 H 400.201 5.02657 6.42673 0
M  V30 4930 H 397.546 4.11637 4.08885 0
M  V30 4931 H 397.267 2.49626 6.61679 0
M  V30 4932 H 396.275 3.86566 6.00778 0
M  V30 4933 H 398.109 4.29943 7.96918 0
M  V30 4934 H 398.18 1.00937 6.00374 0
M  V30 4935 P 396.238 6.144 6.45285 0
M  V30 4936 O 396.018 7.54673 6.86199 0
M  V30 4937 O 395.448 5.12391 7.179 0
M  V30 4938 O 395.988 5.99158 4.88404 0
M  V30 4939 C 396.928 6.60234 3.96415 0
M  V30 4940 C 396.198 7.08259 2.72856 0
M  V30 4941 O 395.988 5.9427 1.83651 0
M  V30 4942 C 394.798 7.64886 2.9555 0
M  V30 4943 O 394.408 8.53963 1.90717 0
M  V30 4944 C 393.918 6.4116 2.90739 0
M  V30 4945 C 394.628 5.55375 1.86963 0
M  V30 4946 N 394.578 4.09664 2.15742 0
M  V30 4947 H 397.417 7.45574 4.45629 0
M  V30 4948 H 397.689 5.86232 3.67314 0
M  V30 4949 H 396.821 7.84412 2.24479 0
M  V30 4950 P 392.858 8.7635 1.60911 0
M  V30 4951 O 392.638 10.1388 1.11561 0
M  V30 4952 O 392.068 8.36503 2.79617 0
M  V30 4953 O 392.608 7.71806 0.42951 0
M  V30 4954 C 393.548 7.67148 -0.673689 0
M  V30 4955 C 392.818 7.33374 -1.95559 0
M  V30 4956 O 392.608 5.88721 -2.00726 0
M  V30 4957 C 391.418 7.92526 -2.10483 0
M  V30 4958 O 391.028 8.02971 -3.47653 0
M  V30 4959 C 390.538 6.89602 -1.41652 0
M  V30 4960 C 391.248 5.59201 -1.75185 0
M  V30 4961 N 391.198 4.58235 -0.662552 0
M  V30 4962 H 394.037 8.65116 -0.777161 0
M  V30 4963 H 394.309 6.90173 -0.474152 0
M  V30 4964 H 393.441 7.66548 -2.79458 0
M  V30 4965 P 389.478 8.03563 -3.84925 0
M  V30 4966 O 389.258 8.85821 -5.0569 0
M  V30 4967 O 388.688 8.41101 -2.65469 0
M  V30 4968 O 389.228 6.4965 -4.18908 0
M  V30 4969 C 390.168 5.81037 -5.05421 0
M  V30 4970 C 389.438 4.78366 -5.89277 0
M  V30 4971 O 389.228 3.58302 -5.08433 0
M  V30 4972 C 388.038 5.17448 -6.36119 0
M  V30 4973 O 387.648 4.45271 -7.53232 0
M  V30 4974 C 387.158 4.74639 -5.19936 0
M  V30 4975 C 387.868 3.49432 -4.70418 0
M  V30 4976 N 387.818 3.31776 -3.22945 0
M  V30 4977 H 390.657 6.54213 -5.71376 0
M  V30 4978 H 390.929 5.30492 -4.44033 0
M  V30 4979 H 390.061 4.55889 -6.76652 0
M  V30 4980 P 386.098 4.23843 -7.83734 0
M  V30 4981 O 385.878 4.19407 -9.29784 0
M  V30 4982 O 385.308 5.24426 -7.09156 0
M  V30 4983 O 385.848 2.7935 -7.20758 0
M  V30 4984 C 386.788 1.72945 -7.50224 0
M  V30 4985 C 386.058 0.406376 -7.57911 0
M  V30 4986 O 385.848 -0.0897726 -6.21935 0
M  V30 4987 C 384.658 0.438983 -8.18724 0
M  V30 4988 O 384.268 -0.825065 -8.71101 0
M  V30 4989 C 383.778 0.783689 -6.99524 0
M  V30 4990 C 384.488 0.0619086 -5.85867 0
M  V30 4991 N 384.438 0.78573 -4.56183 0
M  V30 4992 C 384.288 0.0292889 -3.41887 0
M  V30 4993 O 384.198 -1.18445 -3.4419 0
M  V30 4994 N 384.248 0.744061 -2.23964 0
M  V30 4995 C 384.338 2.10932 -2.10362 0
M  V30 4996 C 384.488 2.8202 -3.34994 0
M  V30 4997 C 384.538 2.15547 -4.52261 0
M  V30 4998 H 387.279 1.93379 -8.46595 0
M  V30 4999 H 387.548 1.68132 -6.70852 0
M  V30 5000 H 386.681 -0.289041 -8.15388 0
M  V30 5001 H 384.026 -0.926847 -5.72749 0
M  V30 5002 H 383.747 1.86973 -6.82036 0
M  V30 5003 H 382.755 0.403896 -7.13257 0
M  V30 5004 H 384.589 1.20585 -8.97435 0
M  V30 5005 H 384.66 2.71231 -5.45042 0
M  V30 5006 P 382.718 -1.17771 -8.83182 0
M  V30 5007 O 382.498 -2.07206 -9.98732 0
M  V30 5008 O 381.928 0.0743816 -8.81969 0
M  V30 5009 O 382.468 -1.97652 -7.47304 0
M  V30 5010 C 383.408 -3.01133 -7.08783 0
M  V30 5011 C 382.678 -4.12613 -6.37049 0
M  V30 5012 O 382.468 -3.72827 -4.97879 0
M  V30 5013 C 381.278 -4.45085 -6.88694 0
M  V30 5014 O 380.888 -5.7877 -6.5624 0
M  V30 5015 C 380.398 -3.47817 -6.12078 0
M  V30 5016 C 381.108 -3.39414 -4.77697 0
M  V30 5017 N 381.058 -2.04199 -4.15538 0
M  V30 5018 H 383.897 -3.41248 -7.98759 0
M  V30 5019 H 384.169 -2.57728 -6.42 0
M  V30 5020 H 383.301 -5.02657 -6.42673 0
M  V30 5021 H 380.646 -4.11708 -4.08956 0
M  V30 5022 H 380.366 -2.49626 -6.61679 0
M  V30 5023 H 379.375 -3.8662 -6.00862 0
M  V30 5024 H 381.209 -4.29991 -7.97006 0
M  V30 5025 P 379.338 -6.144 -6.45285 0
M  V30 5026 O 379.118 -7.54673 -6.86199 0
M  V30 5027 O 378.548 -5.12391 -7.179 0
M  V30 5028 O 379.088 -5.99158 -4.88404 0
M  V30 5029 C 380.028 -6.60234 -3.96415 0
M  V30 5030 C 379.298 -7.08259 -2.72856 0
M  V30 5031 O 379.088 -5.9427 -1.83651 0
M  V30 5032 C 377.898 -7.64886 -2.9555 0
M  V30 5033 O 377.508 -8.53963 -1.90717 0
M  V30 5034 C 377.018 -6.4116 -2.90739 0
M  V30 5035 C 377.728 -5.55375 -1.86963 0
M  V30 5036 N 377.678 -4.09448 -2.16152 0
M  V30 5037 C 377.758 -3.46824 -3.37593 0
M  V30 5038 N 377.688 -2.17422 -3.29777 0
M  V30 5039 C 377.538 -1.93065 -1.94427 0
M  V30 5040 C 377.408 -0.738053 -1.20141 0
M  V30 5041 N 377.398 0.474256 -1.74676 0
M  V30 5042 N 377.288 -0.850049 0.13045 0
M  V30 5043 C 377.298 -2.06169 0.676992 0
M  V30 5044 N 377.418 -3.23842 0.101312 0
M  V30 5045 C 377.538 -3.09402 -1.23122 0
M  V30 5046 H 380.517 -7.45574 -4.45629 0
M  V30 5047 H 380.789 -5.85864 -3.679 0
M  V30 5048 H 379.921 -7.84412 -2.24479 0
M  V30 5049 H 377.266 -5.73457 -0.888562 0
M  V30 5050 H 376.986 -5.90877 -3.88583 0
M  V30 5051 H 375.995 -6.6596 -2.58858 0
M  V30 5052 H 377.829 -8.16339 -3.92049 0
M  V30 5053 H 377.87 -4.00505 -4.3174 0
M  V30 5054 H 377.489 0.581337 -2.76658 0
M  V30 5055 H 377.3 1.30811 -1.14888 0
M  V30 5056 H 377.192 -2.08295 1.75542 0
M  V30 5057 P 375.958 -8.7635 -1.60911 0
M  V30 5058 O 375.738 -10.1388 -1.11561 0
M  V30 5059 O 375.168 -8.36503 -2.79617 0
M  V30 5060 O 375.708 -7.71806 -0.42951 0
M  V30 5061 C 376.648 -7.67148 0.673689 0
M  V30 5062 C 375.918 -7.33374 1.95559 0
M  V30 5063 O 375.708 -5.88721 2.00726 0
M  V30 5064 C 374.518 -7.92526 2.10483 0
M  V30 5065 O 374.128 -8.02971 3.47653 0
M  V30 5066 C 373.638 -6.89602 1.41652 0
M  V30 5067 C 374.348 -5.59201 1.75185 0
M  V30 5068 N 374.298 -4.58301 0.657969 0
M  V30 5069 H 377.137 -8.65116 0.777161 0
M  V30 5070 H 377.409 -6.9022 0.46725 0
M  V30 5071 H 376.541 -7.66548 2.79458 0
M  V30 5072 H 373.886 -5.16165 2.65183 0
M  V30 5073 H 373.606 -7.06433 0.329384 0
M  V30 5074 H 372.615 -6.90926 1.82021 0
M  V30 5075 H 374.449 -8.90873 1.62657 0
M  V30 5076 P 372.578 -8.03563 3.84925 0
M  V30 5077 O 372.358 -8.85821 5.0569 0
M  V30 5078 O 371.788 -8.41101 2.65469 0
M  V30 5079 O 372.328 -6.4965 4.18908 0
M  V30 5080 C 373.268 -5.81037 5.05421 0
M  V30 5081 C 372.538 -4.78366 5.89277 0
M  V30 5082 O 372.328 -3.58302 5.08433 0
M  V30 5083 C 371.138 -5.17448 6.36119 0
M  V30 5084 O 370.748 -4.45271 7.53232 0
M  V30 5085 C 370.258 -4.74639 5.19936 0
M  V30 5086 C 370.968 -3.49432 4.70418 0
M  V30 5087 N 370.918 -3.32099 3.22613 0
M  V30 5088 C 370.998 -4.28245 2.25527 0
M  V30 5089 N 370.928 -3.80823 1.04874 0
M  V30 5090 C 370.778 -2.44571 1.23535 0
M  V30 5091 C 370.648 -1.37068 0.330675 0
M  V30 5092 N 370.638 -1.51472 -0.990824 0
M  V30 5093 N 370.528 -0.138614 0.848756 0
M  V30 5094 C 370.538 0.00675923 2.16999 0
M  V30 5095 N 370.658 -0.904372 3.11122 0
M  V30 5096 C 370.778 -2.12707 2.56212 0
M  V30 5097 H 373.757 -6.54213 5.71376 0
M  V30 5098 H 374.029 -5.30936 4.43503 0
M  V30 5099 H 373.161 -4.55889 6.76652 0
M  V30 5100 H 370.506 -2.61715 5.17932 0
M  V30 5101 H 370.226 -5.52155 4.41878 0
M  V30 5102 H 369.235 -4.51981 5.53374 0
M  V30 5103 H 371.069 -6.25124 6.55234 0
M  V30 5104 H 371.11 -5.34372 2.47488 0
M  V30 5105 H 370.729 -2.45153 -1.4078 0
M  V30 5106 H 370.54 -0.688422 -1.59911 0
M  V30 5107 H 370.432 1.02584 2.52346 0
M  V30 5108 P 369.198 -4.23843 7.83734 0
M  V30 5109 O 368.978 -4.19407 9.29784 0
M  V30 5110 O 368.408 -5.24426 7.09156 0
M  V30 5111 O 368.948 -2.7935 7.20758 0
M  V30 5112 C 369.888 -1.7299 7.50419 0
M  V30 5113 C 369.158 -0.406376 7.57911 0
M  V30 5114 O 368.948 0.0897726 6.21935 0
M  V30 5115 C 367.758 -0.447224 8.1878 0
M  V30 5116 O 367.368 0.825065 8.71101 0
M  V30 5117 C 366.878 -0.783801 6.99623 0
M  V30 5118 C 367.588 -0.0619192 5.85967 0
M  V30 5119 N 367.538 -0.790462 4.56202 0
M  V30 5120 H 370.377 -1.93423 8.4679 0
M  V30 5121 H 370.649 -1.68852 6.70877 0
M  V30 5122 H 369.781 0.289041 8.15388 0
M  V30 5123 H 367.126 0.927006 5.72848 0
M  V30 5124 H 366.846 -1.86973 6.82036 0
M  V30 5125 H 365.855 -0.403953 7.13357 0
M  V30 5126 H 367.689 -1.20599 8.97534 0
M  V30 5127 P 365.818 1.17771 8.83182 0
M  V30 5128 O 365.598 2.07206 9.98732 0
M  V30 5129 O 365.028 -0.0743816 8.81969 0
M  V30 5130 O 365.568 1.97652 7.47304 0
M  V30 5131 C 366.508 3.01133 7.08783 0
M  V30 5132 C 365.778 4.12613 6.37049 0
M  V30 5133 O 365.568 3.72827 4.97879 0
M  V30 5134 C 364.378 4.45085 6.88694 0
M  V30 5135 O 363.988 5.7877 6.5624 0
M  V30 5136 C 363.498 3.47817 6.12078 0
M  V30 5137 C 364.208 3.39414 4.77697 0
M  V30 5138 N 364.158 2.04615 4.15333 0
M  V30 5139 C 364.238 0.803897 4.75249 0
M  V30 5140 N 364.158 -0.197615 3.91502 0
M  V30 5141 C 364.018 0.413002 2.66823 0
M  V30 5142 C 363.888 -0.157221 1.38007 0
M  V30 5143 N 363.768 0.833136 0.390236 0
M  V30 5144 C 363.768 2.19402 0.623885 0
M  V30 5145 N 363.638 2.97622 -0.449677 0
M  V30 5146 N 363.898 2.73005 1.83601 0
M  V30 5147 C 364.018 1.78786 2.80935 0
M  V30 5148 H 366.997 3.41248 7.98759 0
M  V30 5149 H 367.269 2.5837 6.41742 0
M  V30 5150 H 366.401 5.02657 6.42673 0
M  V30 5151 P 362.438 6.144 6.45285 0
M  V30 5152 O 362.218 7.54673 6.86199 0
M  V30 5153 O 361.648 5.12391 7.179 0
M  V30 5154 O 362.188 5.99158 4.88404 0
M  V30 5155 C 363.128 6.60234 3.96415 0
M  V30 5156 C 362.398 7.08259 2.72856 0
M  V30 5157 O 362.188 5.9427 1.83651 0
M  V30 5158 C 360.998 7.64886 2.9555 0
M  V30 5159 O 360.608 8.53963 1.90717 0
M  V30 5160 C 360.118 6.4116 2.90739 0
M  V30 5161 C 360.828 5.55375 1.86963 0
M  V30 5162 N 360.778 4.09664 2.15742 0
M  V30 5163 H 363.617 7.45574 4.45629 0
M  V30 5164 H 363.889 5.86232 3.67314 0
M  V30 5165 H 363.021 7.84412 2.24479 0
M  V30 5166 P 359.058 8.7635 1.60911 0
M  V30 5167 O 358.838 10.1388 1.11561 0
M  V30 5168 O 358.268 8.36503 2.79617 0
M  V30 5169 O 358.808 7.71806 0.42951 0
M  V30 5170 C 359.748 7.67148 -0.673689 0
M  V30 5171 C 359.018 7.33374 -1.95559 0
M  V30 5172 O 358.808 5.88721 -2.00726 0
M  V30 5173 C 357.618 7.92526 -2.10483 0
M  V30 5174 O 357.228 8.02971 -3.47653 0
M  V30 5175 C 356.738 6.89602 -1.41652 0
M  V30 5176 C 357.448 5.59201 -1.75185 0
M  V30 5177 N 357.398 4.58301 -0.657969 0
M  V30 5178 C 357.478 4.79019 0.692603 0
M  V30 5179 N 357.408 3.69736 1.38998 0
M  V30 5180 C 357.258 2.70474 0.438135 0
M  V30 5181 C 357.128 1.30327 0.538142 0
M  V30 5182 N 357.118 0.64304 1.69192 0
M  V30 5183 N 357.008 0.611027 -0.605183 0
M  V30 5184 C 357.018 1.27002 -1.75953 0
M  V30 5185 N 357.138 2.56038 -1.98546 0
M  V30 5186 C 357.258 3.22681 -0.822541 0
M  V30 5187 H 360.237 8.65116 -0.777161 0
M  V30 5188 H 360.509 6.9022 -0.46725 0
M  V30 5189 H 359.641 7.66548 -2.79458 0
M  V30 5190 H 356.986 5.16165 -2.65183 0
M  V30 5191 H 356.706 7.06433 -0.329384 0
M  V30 5192 H 355.715 6.90926 -1.82021 0
M  V30 5193 H 357.549 8.90873 -1.62657 0
M  V30 5194 H 357.59 5.77785 1.13874 0
M  V30 5195 H 357.209 1.15585 2.57991 0
M  V30 5196 H 357.02 -0.382989 1.69835 0
M  V30 5197 H 356.912 0.653331 -2.64449 0
M  V30 5198 P 355.678 8.03563 -3.84925 0
M  V30 5199 O 355.458 8.85821 -5.0569 0
M  V30 5200 O 354.888 8.41101 -2.65469 0
M  V30 5201 O 355.428 6.4965 -4.18908 0
M  V30 5202 C 356.368 5.81037 -5.05421 0
M  V30 5203 C 355.638 4.78366 -5.89277 0
M  V30 5204 O 355.428 3.58302 -5.08433 0
M  V30 5205 C 354.238 5.17448 -6.36119 0
M  V30 5206 O 353.848 4.45271 -7.53232 0
M  V30 5207 C 353.358 4.74639 -5.19936 0
M  V30 5208 C 354.068 3.49432 -4.70418 0
M  V30 5209 N 354.018 3.31776 -3.22945 0
M  V30 5210 C 354.098 4.27147 -2.23315 0
M  V30 5211 N 354.018 3.78447 -1.02186 0
M  V30 5212 C 353.878 2.41001 -1.21732 0
M  V30 5213 C 353.748 1.36111 -0.27694 0
M  V30 5214 N 353.628 0.113683 -0.912949 0
M  V30 5215 C 353.628 -0.0846396 -2.27943 0
M  V30 5216 N 353.498 -1.34737 -2.6916 0
M  V30 5217 N 353.758 0.902521 -3.16379 0
M  V30 5218 C 353.878 2.11937 -2.56849 0
M  V30 5219 H 356.857 6.54213 -5.71376 0
M  V30 5220 H 357.129 5.30492 -4.44033 0
M  V30 5221 H 356.261 4.55889 -6.76652 0
M  V30 5222 P 352.298 4.23843 -7.83734 0
M  V30 5223 O 352.078 4.19407 -9.29784 0
M  V30 5224 O 351.508 5.24426 -7.09156 0
M  V30 5225 O 352.048 2.79386 -7.20852 0
M  V30 5226 C 352.988 1.7299 -7.50419 0
M  V30 5227 C 352.258 0.41401 -7.5797 0
M  V30 5228 O 352.048 -0.089787 -6.22035 0
M  V30 5229 C 350.858 0.447224 -8.1878 0
M  V30 5230 O 350.468 -0.825159 -8.71201 0
M  V30 5231 C 349.978 0.783801 -6.99623 0
M  V30 5232 C 350.688 0.0619192 -5.85967 0
M  V30 5233 N 350.638 0.7859 -4.56281 0
M  V30 5234 C 350.488 0.0359258 -3.39981 0
M  V30 5235 O 350.398 -1.19723 -3.49038 0
M  V30 5236 N 350.438 0.869151 -2.14025 0
M  V30 5237 C 350.538 2.01207 -2.14363 0
M  V30 5238 N 350.488 2.58978 -0.954287 0
M  V30 5239 C 350.688 2.80817 -3.32215 0
M  V30 5240 C 350.738 2.13785 -4.50884 0
M  V30 5241 H 353.478 1.93401 -8.46693 0
M  V30 5242 H 353.748 1.68181 -6.71046 0
M  V30 5243 H 352.881 -0.289076 -8.15488 0
M  V30 5244 H 350.226 -0.927166 -5.72947 0
M  V30 5245 H 349.946 1.87 -6.82132 0
M  V30 5246 H 348.955 0.404009 -7.13457 0
M  V30 5247 H 350.789 1.20599 -8.97534 0
M  V30 5248 H 350.861 2.70295 -5.43162 0
M  V30 5249 H 350.759 3.89465 -3.27406 0
M  V30 5250 H 350.371 2.01616 -0.107046 0
M  V30 5251 H 350.567 3.61403 -0.873101 0
M  V30 5252 P 348.918 -1.17771 -8.83182 0
M  V30 5253 O 348.698 -2.07206 -9.98732 0
M  V30 5254 O 348.128 0.0743816 -8.81969 0
M  V30 5255 O 348.668 -1.97652 -7.47304 0
M  V30 5256 C 349.608 -3.01133 -7.08783 0
M  V30 5257 C 348.878 -4.12613 -6.37049 0
M  V30 5258 O 348.668 -3.72827 -4.97879 0
M  V30 5259 C 347.478 -4.45085 -6.88694 0
M  V30 5260 O 347.088 -5.7877 -6.5624 0
M  V30 5261 C 346.598 -3.47817 -6.12078 0
M  V30 5262 C 347.308 -3.39414 -4.77697 0
M  V30 5263 N 347.258 -2.04199 -4.15538 0
M  V30 5264 H 350.097 -3.41248 -7.98759 0
M  V30 5265 H 350.369 -2.57728 -6.42 0
M  V30 5266 H 349.501 -5.02657 -6.42673 0
M  V30 5267 H 346.846 -4.11708 -4.08956 0
M  V30 5268 H 346.566 -2.49626 -6.61679 0
M  V30 5269 H 345.575 -3.8662 -6.00862 0
M  V30 5270 H 347.409 -4.29991 -7.97006 0
M  V30 5271 P 345.538 -6.144 -6.45285 0
M  V30 5272 O 345.318 -7.54673 -6.86199 0
M  V30 5273 O 344.748 -5.12391 -7.179 0
M  V30 5274 O 345.288 -5.99158 -4.88404 0
M  V30 5275 C 346.228 -6.60234 -3.96415 0
M  V30 5276 C 345.498 -7.08259 -2.72856 0
M  V30 5277 O 345.288 -5.9427 -1.83651 0
M  V30 5278 C 344.098 -7.64886 -2.9555 0
M  V30 5279 O 343.708 -8.53963 -1.90717 0
M  V30 5280 C 343.218 -6.4116 -2.90739 0
M  V30 5281 C 343.928 -5.55375 -1.86963 0
M  V30 5282 N 343.878 -4.09664 -2.15742 0
M  V30 5283 H 346.717 -7.45574 -4.45629 0
M  V30 5284 H 346.989 -5.86232 -3.67314 0
M  V30 5285 H 346.121 -7.84412 -2.24479 0
M  V30 5286 P 342.158 -8.7635 -1.60911 0
M  V30 5287 O 341.938 -10.1388 -1.11561 0
M  V30 5288 O 341.368 -8.36503 -2.79617 0
M  V30 5289 O 341.908 -7.71806 -0.42951 0
M  V30 5290 C 342.848 -7.67148 0.673689 0
M  V30 5291 C 342.118 -7.33374 1.95559 0
M  V30 5292 O 341.908 -5.88721 2.00726 0
M  V30 5293 C 340.718 -7.92526 2.10483 0
M  V30 5294 O 340.328 -8.02971 3.47653 0
M  V30 5295 C 339.838 -6.89602 1.41652 0
M  V30 5296 C 340.548 -5.59201 1.75185 0
M  V30 5297 N 340.498 -4.58301 0.657969 0
M  V30 5298 H 343.337 -8.65116 0.777161 0
M  V30 5299 H 343.609 -6.9022 0.46725 0
M  V30 5300 H 342.741 -7.66548 2.79458 0
M  V30 5301 H 340.086 -5.16165 2.65183 0
M  V30 5302 H 339.806 -7.06433 0.329384 0
M  V30 5303 H 338.815 -6.90926 1.82021 0
M  V30 5304 H 340.649 -8.90873 1.62657 0
M  V30 5305 P 338.778 -8.03563 3.84925 0
M  V30 5306 O 338.558 -8.85821 5.0569 0
M  V30 5307 O 337.988 -8.41101 2.65469 0
M  V30 5308 O 338.528 -6.4965 4.18908 0
M  V30 5309 C 339.468 -5.81037 5.05421 0
M  V30 5310 C 338.738 -4.78366 5.89277 0
M  V30 5311 O 338.528 -3.58302 5.08433 0
M  V30 5312 C 337.338 -5.17448 6.36119 0
M  V30 5313 O 336.948 -4.45271 7.53232 0
M  V30 5314 C 336.458 -4.74639 5.19936 0
M  V30 5315 C 337.168 -3.49432 4.70418 0
M  V30 5316 N 337.118 -3.31776 3.22945 0
M  V30 5317 H 339.957 -6.54213 5.71376 0
M  V30 5318 H 340.229 -5.30492 4.44033 0
M  V30 5319 H 339.361 -4.55889 6.76652 0
M  V30 5320 P 335.398 -4.23843 7.83734 0
M  V30 5321 O 335.178 -4.19407 9.29784 0
M  V30 5322 O 334.608 -5.24426 7.09156 0
M  V30 5323 O 335.148 -2.7935 7.20758 0
M  V30 5324 C 336.088 -1.7299 7.50419 0
M  V30 5325 C 335.358 -0.406376 7.57911 0
M  V30 5326 O 335.148 0.0897726 6.21935 0
M  V30 5327 C 333.958 -0.447224 8.1878 0
M  V30 5328 O 333.568 0.825065 8.71101 0
M  V30 5329 C 333.078 -0.783801 6.99623 0
M  V30 5330 C 333.788 -0.0619192 5.85967 0
M  V30 5331 N 333.738 -0.790462 4.56202 0
M  V30 5332 H 336.577 -1.93423 8.4679 0
M  V30 5333 H 336.849 -1.68852 6.70877 0
M  V30 5334 H 335.981 0.289041 8.15388 0
M  V30 5335 H 333.326 0.927006 5.72848 0
M  V30 5336 H 333.046 -1.86973 6.82036 0
M  V30 5337 H 332.055 -0.403953 7.13357 0
M  V30 5338 H 333.889 -1.20599 8.97534 0
M  V30 5339 P 332.018 1.17771 8.83182 0
M  V30 5340 O 331.798 2.07206 9.98732 0
M  V30 5341 O 331.228 -0.0743816 8.81969 0
M  V30 5342 O 331.768 1.97652 7.47304 0
M  V30 5343 C 332.708 3.01133 7.08783 0
M  V30 5344 C 331.978 4.12613 6.37049 0
M  V30 5345 O 331.768 3.72827 4.97879 0
M  V30 5346 C 330.578 4.45085 6.88694 0
M  V30 5347 O 330.188 5.7877 6.5624 0
M  V30 5348 C 329.698 3.47817 6.12078 0
M  V30 5349 C 330.408 3.39414 4.77697 0
M  V30 5350 N 330.358 2.04615 4.15333 0
M  V30 5351 H 333.197 3.41248 7.98759 0
M  V30 5352 H 333.469 2.5837 6.41742 0
M  V30 5353 H 332.601 5.02657 6.42673 0
M  V30 5354 P 328.638 6.144 6.45285 0
M  V30 5355 O 328.418 7.54673 6.86199 0
M  V30 5356 O 327.848 5.12391 7.179 0
M  V30 5357 O 328.388 5.99158 4.88404 0
M  V30 5358 C 329.328 6.60062 3.96313 0
M  V30 5359 C 328.598 7.08259 2.72856 0
M  V30 5360 O 328.388 5.9427 1.83651 0
M  V30 5361 C 327.198 7.65087 2.94749 0
M  V30 5362 O 326.808 8.53963 1.90717 0
M  V30 5363 C 326.318 6.41069 2.90698 0
M  V30 5364 C 327.028 5.5528 1.86931 0
M  V30 5365 N 326.978 4.09575 2.15696 0
M  V30 5366 C 326.828 3.24249 1.08435 0
M  V30 5367 O 326.738 3.63946 -0.0628747 0
M  V30 5368 N 326.788 1.90009 1.39973 0
M  V30 5369 C 326.878 1.34884 2.65614 0
M  V30 5370 O 326.828 0.123716 2.81728 0
M  V30 5371 C 327.028 2.3145 3.71736 0
M  V30 5372 C 327.138 1.75913 5.10438 0
M  V30 5373 C 327.078 3.63518 3.44754 0
M  V30 5374 H 329.819 7.45402 4.45526 0
M  V30 5375 H 330.088 5.86062 3.67208 0
M  V30 5376 H 329.221 7.84412 2.24479 0
M  V30 5377 H 326.566 5.73358 0.888409 0
M  V30 5378 H 326.287 5.90877 3.88583 0
M  V30 5379 H 325.295 6.65867 2.58821 0
M  V30 5380 H 327.129 8.16248 3.92006 0
M  V30 5381 H 327.2 4.34551 4.26383 0
M  V30 5382 H 326.17 1.85471 5.61775 0
M  V30 5383 H 327.907 2.31364 5.66257 0
M  V30 5384 H 327.419 0.695936 5.05229 0
M  V30 5385 H 326.683 1.26277 0.63625 0
M  V30 5386 P 325.258 8.7635 1.60911 0
M  V30 5387 O 325.038 10.1388 1.11561 0
M  V30 5388 O 324.468 8.36503 2.79617 0
M  V30 5389 O 325.008 7.71806 0.42951 0
M  V30 5390 C 325.948 7.67148 -0.673689 0
M  V30 5391 C 325.218 7.33374 -1.95559 0
M  V30 5392 O 325.008 5.88721 -2.00726 0
M  V30 5393 C 323.818 7.92526 -2.10483 0
M  V30 5394 O 323.428 8.02971 -3.47653 0
M  V30 5395 C 322.938 6.89602 -1.41652 0
M  V30 5396 C 323.648 5.59201 -1.75185 0
M  V30 5397 N 323.598 4.58235 -0.662552 0
M  V30 5398 H 326.437 8.65116 -0.777161 0
M  V30 5399 H 326.709 6.90173 -0.474152 0
M  V30 5400 H 325.841 7.66548 -2.79458 0
M  V30 5401 P 321.878 8.03563 -3.84925 0
M  V30 5402 O 321.658 8.85821 -5.0569 0
M  V30 5403 O 321.088 8.41101 -2.65469 0
M  V30 5404 O 321.628 6.4965 -4.18908 0
M  V30 5405 C 322.568 5.81037 -5.05421 0
M  V30 5406 C 321.838 4.78366 -5.89277 0
M  V30 5407 O 321.628 3.58302 -5.08433 0
M  V30 5408 C 320.438 5.17448 -6.36119 0
M  V30 5409 O 320.048 4.45271 -7.53232 0
M  V30 5410 C 319.558 4.74639 -5.19936 0
M  V30 5411 C 320.268 3.49432 -4.70418 0
M  V30 5412 N 320.218 3.31776 -3.22945 0
M  V30 5413 H 323.057 6.54213 -5.71376 0
M  V30 5414 H 323.329 5.30492 -4.44033 0
M  V30 5415 H 322.461 4.55889 -6.76652 0
M  V30 5416 P 318.498 4.23843 -7.83734 0
M  V30 5417 O 318.278 4.19407 -9.29784 0
M  V30 5418 O 317.708 5.24426 -7.09156 0
M  V30 5419 O 318.248 2.7935 -7.20758 0
M  V30 5420 C 319.188 1.7299 -7.50419 0
M  V30 5421 C 318.458 0.406376 -7.57911 0
M  V30 5422 O 318.248 -0.0897726 -6.21935 0
M  V30 5423 C 317.058 0.447224 -8.1878 0
M  V30 5424 O 316.668 -0.825065 -8.71101 0
M  V30 5425 C 316.178 0.783801 -6.99623 0
M  V30 5426 C 316.888 0.0619192 -5.85967 0
M  V30 5427 N 316.838 0.790462 -4.56202 0
M  V30 5428 H 319.677 1.93423 -8.4679 0
M  V30 5429 H 319.949 1.68852 -6.70877 0
M  V30 5430 H 319.081 -0.289041 -8.15388 0
M  V30 5431 H 316.426 -0.927006 -5.72848 0
M  V30 5432 H 316.146 1.86973 -6.82036 0
M  V30 5433 H 315.155 0.403953 -7.13357 0
M  V30 5434 H 316.989 1.20599 -8.97534 0
M  V30 5435 P 315.118 -1.17771 -8.83182 0
M  V30 5436 O 314.898 -2.07206 -9.98732 0
M  V30 5437 O 314.328 0.0743816 -8.81969 0
M  V30 5438 O 314.868 -1.97652 -7.47304 0
M  V30 5439 C 315.808 -3.01133 -7.08783 0
M  V30 5440 C 315.078 -4.12613 -6.37049 0
M  V30 5441 O 314.868 -3.72827 -4.97879 0
M  V30 5442 C 313.678 -4.45085 -6.88694 0
M  V30 5443 O 313.288 -5.7877 -6.5624 0
M  V30 5444 C 312.798 -3.47817 -6.12078 0
M  V30 5445 C 313.508 -3.39414 -4.77697 0
M  V30 5446 N 313.458 -2.04615 -4.15333 0
M  V30 5447 H 316.297 -3.41248 -7.98759 0
M  V30 5448 H 316.569 -2.5837 -6.41742 0
M  V30 5449 H 315.701 -5.02657 -6.42673 0
M  V30 5450 P 311.738 -6.144 -6.45285 0
M  V30 5451 O 311.518 -7.54673 -6.86199 0
M  V30 5452 O 310.948 -5.12391 -7.179 0
M  V30 5453 O 311.488 -5.99158 -4.88404 0
M  V30 5454 C 312.428 -6.60234 -3.96415 0
M  V30 5455 C 311.698 -7.08259 -2.72856 0
M  V30 5456 O 311.488 -5.9427 -1.83651 0
M  V30 5457 C 310.298 -7.64886 -2.9555 0
M  V30 5458 O 309.908 -8.53963 -1.90717 0
M  V30 5459 C 309.418 -6.4116 -2.90739 0
M  V30 5460 C 310.128 -5.55375 -1.86963 0
M  V30 5461 N 310.078 -4.09448 -2.16152 0
M  V30 5462 H 312.917 -7.45574 -4.45629 0
M  V30 5463 H 313.189 -5.85864 -3.679 0
M  V30 5464 H 312.321 -7.84412 -2.24479 0
M  V30 5465 H 309.666 -5.73457 -0.888562 0
M  V30 5466 H 309.386 -5.90877 -3.88583 0
M  V30 5467 H 308.395 -6.6596 -2.58858 0
M  V30 5468 H 310.229 -8.16339 -3.92049 0
M  V30 5469 P 308.358 -8.7635 -1.60911 0
M  V30 5470 O 308.138 -10.1388 -1.11561 0
M  V30 5471 O 307.568 -8.36503 -2.79617 0
M  V30 5472 O 308.108 -7.71806 -0.42951 0
M  V30 5473 C 309.048 -7.67148 0.673689 0
M  V30 5474 C 308.318 -7.33374 1.95559 0
M  V30 5475 O 308.108 -5.88721 2.00726 0
M  V30 5476 C 306.918 -7.92526 2.10483 0
M  V30 5477 O 306.528 -8.02971 3.47653 0
M  V30 5478 C 306.038 -6.89602 1.41652 0
M  V30 5479 C 306.748 -5.59201 1.75185 0
M  V30 5480 N 306.698 -4.58235 0.662552 0
M  V30 5481 H 309.537 -8.65116 0.777161 0
M  V30 5482 H 309.809 -6.90173 0.474152 0
M  V30 5483 H 308.941 -7.66548 2.79458 0
M  V30 5484 P 304.978 -8.03563 3.84925 0
M  V30 5485 O 304.758 -8.85821 5.0569 0
M  V30 5486 O 304.188 -8.41101 2.65469 0
M  V30 5487 O 304.728 -6.4965 4.18908 0
M  V30 5488 C 305.668 -5.81037 5.05421 0
M  V30 5489 C 304.938 -4.78366 5.89277 0
M  V30 5490 O 304.728 -3.58302 5.08433 0
M  V30 5491 C 303.538 -5.17448 6.36119 0
M  V30 5492 O 303.148 -4.45271 7.53232 0
M  V30 5493 C 302.658 -4.74639 5.19936 0
M  V30 5494 C 303.368 -3.49432 4.70418 0
M  V30 5495 N 303.318 -3.32099 3.22613 0
M  V30 5496 H 306.157 -6.54213 5.71376 0
M  V30 5497 H 306.429 -5.30936 4.43503 0
M  V30 5498 H 305.561 -4.55889 6.76652 0
M  V30 5499 H 302.906 -2.61715 5.17932 0
M  V30 5500 H 302.626 -5.52155 4.41878 0
M  V30 5501 H 301.635 -4.51981 5.53374 0
M  V30 5502 H 303.469 -6.25124 6.55234 0
M  V30 5503 P 301.598 -4.23843 7.83734 0
M  V30 5504 O 301.378 -4.19407 9.29784 0
M  V30 5505 O 300.808 -5.24426 7.09156 0
M  V30 5506 O 301.348 -2.7935 7.20758 0
M  V30 5507 C 302.288 -1.7299 7.50419 0
M  V30 5508 C 301.558 -0.406376 7.57911 0
M  V30 5509 O 301.348 0.0897726 6.21935 0
M  V30 5510 C 300.158 -0.447224 8.1878 0
M  V30 5511 O 299.768 0.825065 8.71101 0
M  V30 5512 C 299.278 -0.783801 6.99623 0
M  V30 5513 C 299.988 -0.0619192 5.85967 0
M  V30 5514 N 299.938 -0.7859 4.56281 0
M  V30 5515 H 302.777 -1.93423 8.4679 0
M  V30 5516 H 303.049 -1.68181 6.71046 0
M  V30 5517 H 302.181 0.289041 8.15388 0
M  V30 5518 P 298.218 1.17771 8.83182 0
M  V30 5519 O 297.998 2.07206 9.98732 0
M  V30 5520 O 297.428 -0.0743816 8.81969 0
M  V30 5521 O 297.968 1.97678 7.474 0
M  V30 5522 C 298.908 3.01133 7.08783 0
M  V30 5523 C 298.178 4.1203 6.37546 0
M  V30 5524 O 297.968 3.72887 4.9796 0
M  V30 5525 C 296.778 4.45085 6.88694 0
M  V30 5526 O 296.388 5.78836 6.56315 0
M  V30 5527 C 295.898 3.47817 6.12078 0
M  V30 5528 C 296.608 3.39414 4.77697 0
M  V30 5529 N 296.558 2.04615 4.15333 0
M  V30 5530 C 296.408 1.96929 2.77162 0
M  V30 5531 O 296.318 3.02017 2.12006 0
M  V30 5532 N 296.358 0.55485 2.24237 0
M  V30 5533 C 296.458 -0.367808 2.9169 0
M  V30 5534 N 296.408 -1.53426 2.29427 0
M  V30 5535 C 296.608 -0.319148 4.33828 0
M  V30 5536 C 296.658 0.920672 4.90433 0
M  V30 5537 H 299.398 3.41209 7.98667 0
M  V30 5538 H 299.668 2.5837 6.41742 0
M  V30 5539 H 298.801 5.02718 6.42752 0
M  V30 5540 H 296.146 4.11779 4.09026 0
M  V30 5541 H 295.866 2.49661 6.61772 0
M  V30 5542 H 294.875 3.86674 6.00946 0
M  V30 5543 H 296.709 4.29991 7.97006 0
M  V30 5544 H 296.781 1.00589 5.98303 0
M  V30 5545 H 296.679 -1.22639 4.93799 0
M  V30 5546 H 296.291 -1.56819 1.27167 0
M  V30 5547 H 296.487 -2.41062 2.83063 0
M  V30 5548 P 294.838 6.144 6.45285 0
M  V30 5549 O 294.618 7.54673 6.86199 0
M  V30 5550 O 294.048 5.12391 7.179 0
M  V30 5551 O 294.588 5.99158 4.88404 0
M  V30 5552 C 295.528 6.60234 3.96415 0
M  V30 5553 C 294.798 7.08259 2.72856 0
M  V30 5554 O 294.588 5.9427 1.83651 0
M  V30 5555 C 293.398 7.64886 2.9555 0
M  V30 5556 O 293.008 8.53963 1.90717 0
M  V30 5557 C 292.518 6.4116 2.90739 0
M  V30 5558 C 293.228 5.55375 1.86963 0
M  V30 5559 N 293.178 4.09664 2.15742 0
M  V30 5560 H 296.017 7.45574 4.45629 0
M  V30 5561 H 296.289 5.86232 3.67314 0
M  V30 5562 H 295.421 7.84412 2.24479 0
M  V30 5563 P 291.458 8.7635 1.60911 0
M  V30 5564 O 291.238 10.1388 1.11561 0
M  V30 5565 O 290.668 8.36503 2.79617 0
M  V30 5566 O 291.208 7.71806 0.42951 0
M  V30 5567 C 292.148 7.67148 -0.673689 0
M  V30 5568 C 291.418 7.33374 -1.95559 0
M  V30 5569 O 291.208 5.88721 -2.00726 0
M  V30 5570 C 290.018 7.92526 -2.10483 0
M  V30 5571 O 289.628 8.02971 -3.47653 0
M  V30 5572 C 289.138 6.89602 -1.41652 0
M  V30 5573 C 289.848 5.59201 -1.75185 0
M  V30 5574 N 289.798 4.58235 -0.662552 0
M  V30 5575 H 292.637 8.65116 -0.777161 0
M  V30 5576 H 292.909 6.90173 -0.474152 0
M  V30 5577 H 292.041 7.66548 -2.79458 0
M  V30 5578 P 288.078 8.03563 -3.84925 0
M  V30 5579 O 287.858 8.85821 -5.0569 0
M  V30 5580 O 287.288 8.41101 -2.65469 0
M  V30 5581 O 287.828 6.4965 -4.18908 0
M  V30 5582 C 288.768 5.81037 -5.05421 0
M  V30 5583 C 288.038 4.78366 -5.89277 0
M  V30 5584 O 287.828 3.58302 -5.08433 0
M  V30 5585 C 286.638 5.17448 -6.36119 0
M  V30 5586 O 286.248 4.45271 -7.53232 0
M  V30 5587 C 285.758 4.74639 -5.19936 0
M  V30 5588 C 286.468 3.49432 -4.70418 0
M  V30 5589 N 286.418 3.31776 -3.22945 0
M  V30 5590 H 289.257 6.54213 -5.71376 0
M  V30 5591 H 289.529 5.30492 -4.44033 0
M  V30 5592 H 288.661 4.55889 -6.76652 0
M  V30 5593 P 284.698 4.23843 -7.83734 0
M  V30 5594 O 284.478 4.19407 -9.29784 0
M  V30 5595 O 283.908 5.24426 -7.09156 0
M  V30 5596 O 284.448 2.7935 -7.20758 0
M  V30 5597 C 285.388 1.7299 -7.50419 0
M  V30 5598 C 284.658 0.406376 -7.57911 0
M  V30 5599 O 284.448 -0.0897726 -6.21935 0
M  V30 5600 C 283.258 0.447224 -8.1878 0
M  V30 5601 O 282.868 -0.825065 -8.71101 0
M  V30 5602 C 282.378 0.783801 -6.99623 0
M  V30 5603 C 283.088 0.0619192 -5.85967 0
M  V30 5604 N 283.038 0.790462 -4.56202 0
M  V30 5605 H 285.877 1.93423 -8.4679 0
M  V30 5606 H 286.149 1.68852 -6.70877 0
M  V30 5607 H 285.281 -0.289041 -8.15388 0
M  V30 5608 H 282.626 -0.927006 -5.72848 0
M  V30 5609 H 282.346 1.86973 -6.82036 0
M  V30 5610 H 281.355 0.403953 -7.13357 0
M  V30 5611 H 283.189 1.20599 -8.97534 0
M  V30 5612 P 281.318 -1.17771 -8.83182 0
M  V30 5613 O 281.098 -2.07206 -9.98732 0
M  V30 5614 O 280.528 0.0743816 -8.81969 0
M  V30 5615 O 281.068 -1.97678 -7.474 0
M  V30 5616 C 282.008 -3.01133 -7.08783 0
M  V30 5617 C 281.278 -4.1203 -6.37546 0
M  V30 5618 O 281.068 -3.72887 -4.9796 0
M  V30 5619 C 279.878 -4.45085 -6.88694 0
M  V30 5620 O 279.488 -5.78836 -6.56315 0
M  V30 5621 C 278.998 -3.47817 -6.12078 0
M  V30 5622 C 279.708 -3.39414 -4.77697 0
M  V30 5623 N 279.658 -2.04615 -4.15333 0
M  V30 5624 C 279.508 -1.96929 -2.77162 0
M  V30 5625 O 279.418 -3.02017 -2.12006 0
M  V30 5626 N 279.458 -0.55485 -2.24237 0
M  V30 5627 C 279.558 0.367808 -2.9169 0
M  V30 5628 N 279.508 1.53426 -2.29427 0
M  V30 5629 C 279.708 0.319148 -4.33828 0
M  V30 5630 C 279.758 -0.920672 -4.90433 0
M  V30 5631 H 282.498 -3.41209 -7.98667 0
M  V30 5632 H 282.768 -2.5837 -6.41742 0
M  V30 5633 H 281.901 -5.02718 -6.42752 0
M  V30 5634 H 279.246 -4.11779 -4.09026 0
M  V30 5635 H 278.966 -2.49661 -6.61772 0
M  V30 5636 H 277.975 -3.86674 -6.00946 0
M  V30 5637 H 279.809 -4.29991 -7.97006 0
M  V30 5638 H 279.881 -1.00589 -5.98303 0
M  V30 5639 H 279.779 1.22639 -4.93799 0
M  V30 5640 H 279.391 1.56819 -1.27167 0
M  V30 5641 H 279.587 2.41062 -2.83063 0
M  V30 5642 P 277.938 -6.144 -6.45285 0
M  V30 5643 O 277.718 -7.54673 -6.86199 0
M  V30 5644 O 277.148 -5.12391 -7.179 0
M  V30 5645 O 277.688 -5.99158 -4.88404 0
M  V30 5646 C 278.628 -6.60234 -3.96415 0
M  V30 5647 C 277.898 -7.08259 -2.72856 0
M  V30 5648 O 277.688 -5.9427 -1.83651 0
M  V30 5649 C 276.498 -7.64886 -2.9555 0
M  V30 5650 O 276.108 -8.53963 -1.90717 0
M  V30 5651 C 275.618 -6.4116 -2.90739 0
M  V30 5652 C 276.328 -5.55375 -1.86963 0
M  V30 5653 N 276.278 -4.09448 -2.16152 0
M  V30 5654 H 279.117 -7.45574 -4.45629 0
M  V30 5655 H 279.389 -5.85864 -3.679 0
M  V30 5656 H 278.521 -7.84412 -2.24479 0
M  V30 5657 H 275.866 -5.73457 -0.888562 0
M  V30 5658 H 275.586 -5.90877 -3.88583 0
M  V30 5659 H 274.595 -6.6596 -2.58858 0
M  V30 5660 H 276.429 -8.16339 -3.92049 0
M  V30 5661 P 274.558 -8.7635 -1.60911 0
M  V30 5662 O 274.338 -10.1388 -1.11561 0
M  V30 5663 O 273.768 -8.36503 -2.79617 0
M  V30 5664 O 274.308 -7.71806 -0.42951 0
M  V30 5665 C 275.248 -7.67148 0.673689 0
M  V30 5666 C 274.518 -7.33374 1.95559 0
M  V30 5667 O 274.308 -5.88721 2.00726 0
M  V30 5668 C 273.118 -7.92526 2.10483 0
M  V30 5669 O 272.728 -8.02971 3.47653 0
M  V30 5670 C 272.238 -6.89602 1.41652 0
M  V30 5671 C 272.948 -5.59201 1.75185 0
M  V30 5672 N 272.898 -4.58235 0.662552 0
M  V30 5673 H 275.737 -8.65116 0.777161 0
M  V30 5674 H 276.009 -6.90173 0.474152 0
M  V30 5675 H 275.141 -7.66548 2.79458 0
M  V30 5676 P 271.178 -8.03563 3.84925 0
M  V30 5677 O 270.958 -8.85821 5.0569 0
M  V30 5678 O 270.388 -8.41101 2.65469 0
M  V30 5679 O 270.928 -6.4965 4.18908 0
M  V30 5680 C 271.868 -5.81037 5.05421 0
M  V30 5681 C 271.138 -4.78366 5.89277 0
M  V30 5682 O 270.928 -3.58302 5.08433 0
M  V30 5683 C 269.738 -5.17448 6.36119 0
M  V30 5684 O 269.348 -4.45271 7.53232 0
M  V30 5685 C 268.858 -4.74639 5.19936 0
M  V30 5686 C 269.568 -3.49432 4.70418 0
M  V30 5687 N 269.518 -3.31776 3.22945 0
M  V30 5688 H 272.357 -6.54213 5.71376 0
M  V30 5689 H 272.629 -5.30492 4.44033 0
M  V30 5690 H 271.761 -4.55889 6.76652 0
M  V30 5691 P 267.798 -4.23843 7.83734 0
M  V30 5692 O 267.578 -4.19407 9.29784 0
M  V30 5693 O 267.008 -5.24426 7.09156 0
M  V30 5694 O 267.548 -2.7935 7.20758 0
M  V30 5695 C 268.488 -1.7299 7.50419 0
M  V30 5696 C 267.758 -0.406376 7.57911 0
M  V30 5697 O 267.548 0.0897726 6.21935 0
M  V30 5698 C 266.358 -0.447224 8.1878 0
M  V30 5699 O 265.968 0.825065 8.71101 0
M  V30 5700 C 265.478 -0.783801 6.99623 0
M  V30 5701 C 266.188 -0.0619192 5.85967 0
M  V30 5702 N 266.138 -0.7859 4.56281 0
M  V30 5703 H 268.977 -1.93423 8.4679 0
M  V30 5704 H 269.249 -1.68181 6.71046 0
M  V30 5705 H 268.381 0.289041 8.15388 0
M  V30 5706 P 264.418 1.17771 8.83182 0
M  V30 5707 O 264.198 2.07206 9.98732 0
M  V30 5708 O 263.628 -0.0743816 8.81969 0
M  V30 5709 O 264.168 1.97652 7.47304 0
M  V30 5710 C 265.108 3.01133 7.08783 0
M  V30 5711 C 264.378 4.12613 6.37049 0
M  V30 5712 O 264.168 3.72827 4.97879 0
M  V30 5713 C 262.978 4.45085 6.88694 0
M  V30 5714 O 262.588 5.7877 6.5624 0
M  V30 5715 C 262.098 3.47817 6.12078 0
M  V30 5716 C 262.808 3.39414 4.77697 0
M  V30 5717 N 262.758 2.04615 4.15333 0
M  V30 5718 H 265.597 3.41248 7.98759 0
M  V30 5719 H 265.869 2.5837 6.41742 0
M  V30 5720 H 265.001 5.02657 6.42673 0
M  V30 5721 P 261.038 6.144 6.45285 0
M  V30 5722 O 260.818 7.54673 6.86199 0
M  V30 5723 O 260.248 5.12391 7.179 0
M  V30 5724 O 260.788 5.99158 4.88404 0
M  V30 5725 C 261.728 6.60234 3.96415 0
M  V30 5726 C 260.998 7.08259 2.72856 0
M  V30 5727 O 260.788 5.9427 1.83651 0
M  V30 5728 C 259.598 7.64886 2.9555 0
M  V30 5729 O 259.208 8.53963 1.90717 0
M  V30 5730 C 258.718 6.4116 2.90739 0
M  V30 5731 C 259.428 5.55375 1.86963 0
M  V30 5732 N 259.378 4.09664 2.15742 0
M  V30 5733 H 262.217 7.45574 4.45629 0
M  V30 5734 H 262.489 5.86232 3.67314 0
M  V30 5735 H 261.621 7.84412 2.24479 0
M  V30 5736 P 257.658 8.7635 1.60911 0
M  V30 5737 O 257.438 10.1388 1.11561 0
M  V30 5738 O 256.868 8.36503 2.79617 0
M  V30 5739 O 257.408 7.71806 0.42951 0
M  V30 5740 C 258.348 7.67148 -0.673689 0
M  V30 5741 C 257.618 7.33374 -1.95559 0
M  V30 5742 O 257.408 5.88721 -2.00726 0
M  V30 5743 C 256.218 7.92526 -2.10483 0
M  V30 5744 O 255.828 8.02971 -3.47653 0
M  V30 5745 C 255.338 6.89602 -1.41652 0
M  V30 5746 C 256.048 5.59201 -1.75185 0
M  V30 5747 N 255.998 4.58235 -0.662552 0
M  V30 5748 H 258.837 8.65116 -0.777161 0
M  V30 5749 H 259.109 6.90173 -0.474152 0
M  V30 5750 H 258.241 7.66548 -2.79458 0
M  V30 5751 P 254.279 8.03563 -3.84925 0
M  V30 5752 O 254.059 8.85821 -5.0569 0
M  V30 5753 O 253.489 8.41101 -2.65469 0
M  V30 5754 O 254.029 6.4965 -4.18908 0
M  V30 5755 C 254.969 5.81037 -5.05421 0
M  V30 5756 C 254.239 4.78366 -5.89277 0
M  V30 5757 O 254.029 3.58302 -5.08433 0
M  V30 5758 C 252.839 5.17448 -6.36119 0
M  V30 5759 O 252.449 4.45271 -7.53232 0
M  V30 5760 C 251.959 4.74639 -5.19936 0
M  V30 5761 C 252.669 3.49432 -4.70418 0
M  V30 5762 N 252.619 3.31776 -3.22945 0
M  V30 5763 H 255.458 6.54213 -5.71376 0
M  V30 5764 H 255.73 5.30492 -4.44033 0
M  V30 5765 H 254.862 4.55889 -6.76652 0
M  V30 5766 P 250.899 4.23843 -7.83734 0
M  V30 5767 O 250.679 4.19407 -9.29784 0
M  V30 5768 O 250.109 5.24426 -7.09156 0
M  V30 5769 O 250.649 2.7935 -7.20758 0
M  V30 5770 C 251.589 1.72945 -7.50224 0
M  V30 5771 C 250.859 0.406376 -7.57911 0
M  V30 5772 O 250.649 -0.0897726 -6.21935 0
M  V30 5773 C 249.459 0.438983 -8.18724 0
M  V30 5774 O 249.069 -0.825065 -8.71101 0
M  V30 5775 C 248.579 0.783689 -6.99524 0
M  V30 5776 C 249.289 0.0619086 -5.85867 0
M  V30 5777 N 249.239 0.78573 -4.56183 0
M  V30 5778 C 249.089 0.0292889 -3.41887 0
M  V30 5779 O 248.999 -1.18445 -3.4419 0
M  V30 5780 N 249.049 0.744061 -2.23964 0
M  V30 5781 C 249.139 2.10932 -2.10362 0
M  V30 5782 C 249.289 2.8202 -3.34994 0
M  V30 5783 C 249.339 2.15547 -4.52261 0
M  V30 5784 H 252.08 1.93379 -8.46595 0
M  V30 5785 H 252.349 1.68132 -6.70852 0
M  V30 5786 H 251.482 -0.289041 -8.15388 0
M  V30 5787 H 248.827 -0.926847 -5.72749 0
M  V30 5788 H 248.548 1.86973 -6.82036 0
M  V30 5789 H 247.556 0.403896 -7.13257 0
M  V30 5790 H 249.39 1.20585 -8.97435 0
M  V30 5791 H 249.461 2.71231 -5.45042 0
M  V30 5792 P 247.519 -1.17771 -8.83182 0
M  V30 5793 O 247.299 -2.07206 -9.98732 0
M  V30 5794 O 246.729 0.0743816 -8.81969 0
M  V30 5795 O 247.269 -1.97652 -7.47304 0
M  V30 5796 C 248.209 -3.01055 -7.08599 0
M  V30 5797 C 247.479 -4.12613 -6.37049 0
M  V30 5798 O 247.269 -3.72827 -4.97879 0
M  V30 5799 C 246.079 -4.45719 -6.88164 0
M  V30 5800 O 245.689 -5.7877 -6.5624 0
M  V30 5801 C 245.199 -3.47768 -6.11991 0
M  V30 5802 C 245.909 -3.39356 -4.77615 0
M  V30 5803 N 245.859 -2.04571 -4.15244 0
M  V30 5804 C 245.709 -1.98587 -2.78314 0
M  V30 5805 O 245.619 -2.98134 -2.08835 0
M  V30 5806 N 245.669 -0.714467 -2.24925 0
M  V30 5807 C 245.759 0.470001 -2.94169 0
M  V30 5808 O 245.709 1.55587 -2.35195 0
M  V30 5809 C 245.909 0.312541 -4.36783 0
M  V30 5810 C 246.019 1.57711 -5.16352 0
M  V30 5811 C 245.959 -0.914512 -4.92583 0
M  V30 5812 H 248.7 -3.41169 -7.98575 0
M  V30 5813 H 248.969 -2.58295 -6.41556 0
M  V30 5814 H 248.102 -5.02657 -6.42673 0
M  V30 5815 H 245.447 -4.11637 -4.08885 0
M  V30 5816 H 245.168 -2.49626 -6.61679 0
M  V30 5817 H 244.176 -3.86566 -6.00778 0
M  V30 5818 H 246.01 -4.29943 -7.96918 0
M  V30 5819 H 246.081 -1.00937 -6.00374 0
M  V30 5820 H 245.051 1.80153 -5.63503 0
M  V30 5821 H 246.788 1.4566 -5.94104 0
M  V30 5822 H 246.3 2.40664 -4.49645 0
M  V30 5823 H 245.564 -0.647622 -1.25697 0
M  V30 5824 P 244.139 -6.144 -6.45285 0
M  V30 5825 O 243.919 -7.54673 -6.86199 0
M  V30 5826 O 243.349 -5.12391 -7.179 0
M  V30 5827 O 243.889 -5.99158 -4.88404 0
M  V30 5828 C 244.829 -6.60234 -3.96415 0
M  V30 5829 C 244.099 -7.08259 -2.72856 0
M  V30 5830 O 243.889 -5.9427 -1.83651 0
M  V30 5831 C 242.699 -7.64886 -2.9555 0
M  V30 5832 O 242.309 -8.53963 -1.90717 0
M  V30 5833 C 241.819 -6.4116 -2.90739 0
M  V30 5834 C 242.529 -5.55375 -1.86963 0
M  V30 5835 N 242.479 -4.09664 -2.15742 0
M  V30 5836 H 245.318 -7.45574 -4.45629 0
M  V30 5837 H 245.59 -5.86232 -3.67314 0
M  V30 5838 H 244.722 -7.84412 -2.24479 0
M  V30 5839 P 240.759 -8.7635 -1.60911 0
M  V30 5840 O 240.539 -10.1388 -1.11561 0
M  V30 5841 O 239.969 -8.36503 -2.79617 0
M  V30 5842 O 240.509 -7.71806 -0.42951 0
M  V30 5843 C 241.449 -7.66948 0.673514 0
M  V30 5844 C 240.719 -7.33374 1.95559 0
M  V30 5845 O 240.509 -5.88721 2.00726 0
M  V30 5846 C 239.319 -7.92218 2.1125 0
M  V30 5847 O 238.929 -8.02971 3.47653 0
M  V30 5848 C 238.439 -6.89504 1.41631 0
M  V30 5849 C 239.149 -5.59106 1.75155 0
M  V30 5850 N 239.099 -4.58136 0.662409 0
M  V30 5851 C 238.949 -3.26059 1.02863 0
M  V30 5852 O 238.859 -2.90743 2.19009 0
M  V30 5853 N 238.909 -2.35995 -0.0155585 0
M  V30 5854 C 238.999 -2.65248 -1.35603 0
M  V30 5855 O 238.949 -1.75605 -2.20651 0
M  V30 5856 C 239.149 -4.05747 -1.64698 0
M  V30 5857 C 239.259 -4.42345 -3.09553 0
M  V30 5858 C 239.199 -4.96734 -0.652411 0
M  V30 5859 H 241.94 -8.64917 0.776982 0
M  V30 5860 H 242.209 -6.89974 0.474015 0
M  V30 5861 H 241.342 -7.66548 2.79458 0
M  V30 5862 H 238.687 -5.16076 2.65138 0
M  V30 5863 H 238.408 -7.06433 0.329384 0
M  V30 5864 H 237.416 -6.90829 1.81996 0
M  V30 5865 H 239.25 -8.90774 1.62639 0
M  V30 5866 H 239.321 -6.02181 -0.895285 0
M  V30 5867 H 238.291 -4.80252 -3.45468 0
M  V30 5868 H 240.028 -5.20015 -3.22119 0
M  V30 5869 H 239.54 -3.53269 -3.67833 0
M  V30 5870 H 238.804 -1.39558 0.227499 0
M  V30 5871 P 237.379 -8.03563 3.84925 0
M  V30 5872 O 237.159 -8.85821 5.0569 0
M  V30 5873 O 236.589 -8.41101 2.65469 0
M  V30 5874 O 237.129 -6.4965 4.18908 0
M  V30 5875 C 238.069 -5.81037 5.05421 0
M  V30 5876 C 237.339 -4.78366 5.89277 0
M  V30 5877 O 237.129 -3.58302 5.08433 0
M  V30 5878 C 235.939 -5.17448 6.36119 0
M  V30 5879 O 235.549 -4.45271 7.53232 0
M  V30 5880 C 235.059 -4.74639 5.19936 0
M  V30 5881 C 235.769 -3.49432 4.70418 0
M  V30 5882 N 235.719 -3.31776 3.22945 0
M  V30 5883 H 238.558 -6.54213 5.71376 0
M  V30 5884 H 238.83 -5.30492 4.44033 0
M  V30 5885 H 237.962 -4.55889 6.76652 0
M  V30 5886 P 233.999 -4.23843 7.83734 0
M  V30 5887 O 233.779 -4.19407 9.29784 0
M  V30 5888 O 233.209 -5.24426 7.09156 0
M  V30 5889 O 233.749 -2.7935 7.20758 0
M  V30 5890 C 234.689 -1.7299 7.50419 0
M  V30 5891 C 233.959 -0.406376 7.57911 0
M  V30 5892 O 233.749 0.0897726 6.21935 0
M  V30 5893 C 232.559 -0.447224 8.1878 0
M  V30 5894 O 232.169 0.825065 8.71101 0
M  V30 5895 C 231.679 -0.783801 6.99623 0
M  V30 5896 C 232.389 -0.0619192 5.85967 0
M  V30 5897 N 232.339 -0.7859 4.56281 0
M  V30 5898 H 235.178 -1.93423 8.4679 0
M  V30 5899 H 235.45 -1.68181 6.71046 0
M  V30 5900 H 234.582 0.289041 8.15388 0
M  V30 5901 P 230.619 1.17771 8.83182 0
M  V30 5902 O 230.399 2.07206 9.98732 0
M  V30 5903 O 229.829 -0.0743816 8.81969 0
M  V30 5904 O 230.369 1.97652 7.47304 0
M  V30 5905 C 231.309 3.01133 7.08783 0
M  V30 5906 C 230.579 4.12613 6.37049 0
M  V30 5907 O 230.369 3.72827 4.97879 0
M  V30 5908 C 229.179 4.45085 6.88694 0
M  V30 5909 O 228.789 5.7877 6.5624 0
M  V30 5910 C 228.299 3.47817 6.12078 0
M  V30 5911 C 229.009 3.39414 4.77697 0
M  V30 5912 N 228.959 2.04199 4.15538 0
M  V30 5913 C 229.039 0.821545 4.76977 0
M  V30 5914 N 228.969 -0.1794 3.94592 0
M  V30 5915 C 228.819 0.419121 2.70776 0
M  V30 5916 C 228.689 -0.109072 1.40577 0
M  V30 5917 N 228.679 -1.4104 1.1344 0
M  V30 5918 N 228.569 0.764381 0.39411 0
M  V30 5919 C 228.579 2.06587 0.664135 0
M  V30 5920 N 228.699 2.67948 1.82153 0
M  V30 5921 C 228.819 1.77942 2.8147 0
M  V30 5922 H 231.798 3.41248 7.98759 0
M  V30 5923 H 232.07 2.57728 6.42 0
M  V30 5924 H 231.202 5.02657 6.42673 0
M  V30 5925 H 228.547 4.11708 4.08956 0
M  V30 5926 H 228.267 2.49626 6.61679 0
M  V30 5927 H 227.276 3.8662 6.00862 0
M  V30 5928 H 229.11 4.29991 7.97006 0
M  V30 5929 H 229.151 0.702451 5.84696 0
M  V30 5930 H 228.77 -2.09647 1.89651 0
M  V30 5931 H 228.581 -1.73358 0.160575 0
M  V30 5932 H 228.473 2.71695 -0.195838 0
M  V30 5933 P 227.239 6.144 6.45285 0
M  V30 5934 O 227.019 7.54673 6.86199 0
M  V30 5935 O 226.449 5.12391 7.179 0
M  V30 5936 O 226.989 5.99158 4.88404 0
M  V30 5937 C 227.929 6.60062 3.96313 0
M  V30 5938 C 227.199 7.08259 2.72856 0
M  V30 5939 O 226.989 5.9427 1.83651 0
M  V30 5940 C 225.799 7.65087 2.94749 0
M  V30 5941 O 225.409 8.53963 1.90717 0
M  V30 5942 C 224.919 6.41069 2.90698 0
M  V30 5943 C 225.629 5.5528 1.86931 0
M  V30 5944 N 225.579 4.09575 2.15696 0
M  V30 5945 C 225.429 3.24249 1.08435 0
M  V30 5946 O 225.339 3.63946 -0.0628747 0
M  V30 5947 N 225.389 1.90009 1.39973 0
M  V30 5948 C 225.479 1.34884 2.65614 0
M  V30 5949 O 225.429 0.123716 2.81728 0
M  V30 5950 C 225.629 2.3145 3.71736 0
M  V30 5951 C 225.739 1.75913 5.10438 0
M  V30 5952 C 225.679 3.63518 3.44754 0
M  V30 5953 H 228.42 7.45402 4.45526 0
M  V30 5954 H 228.689 5.86062 3.67208 0
M  V30 5955 H 227.822 7.84412 2.24479 0
M  V30 5956 H 225.167 5.73358 0.888409 0
M  V30 5957 H 224.888 5.90877 3.88583 0
M  V30 5958 H 223.896 6.65867 2.58821 0
M  V30 5959 H 225.73 8.16248 3.92006 0
M  V30 5960 H 225.801 4.34551 4.26383 0
M  V30 5961 H 224.771 1.85471 5.61775 0
M  V30 5962 H 226.508 2.31364 5.66257 0
M  V30 5963 H 226.02 0.695936 5.05229 0
M  V30 5964 H 225.284 1.26277 0.63625 0
M  V30 5965 P 223.859 8.7635 1.60911 0
M  V30 5966 O 223.639 10.1388 1.11561 0
M  V30 5967 O 223.069 8.36503 2.79617 0
M  V30 5968 O 223.609 7.71906 0.429565 0
M  V30 5969 C 224.549 7.67148 -0.673689 0
M  V30 5970 C 223.819 7.33666 -1.94851 0
M  V30 5971 O 223.609 5.88816 -2.00759 0
M  V30 5972 C 222.419 7.92526 -2.10483 0
M  V30 5973 O 222.029 8.03063 -3.47693 0
M  V30 5974 C 221.539 6.89602 -1.41652 0
M  V30 5975 C 222.249 5.59201 -1.75185 0
M  V30 5976 N 222.199 4.58235 -0.662552 0
M  V30 5977 C 222.049 3.24451 -1.01643 0
M  V30 5978 O 221.959 2.94958 -2.21722 0
M  V30 5979 N 221.999 2.30408 0.165238 0
M  V30 5980 C 222.099 2.66048 1.25118 0
M  V30 5981 N 222.049 1.70787 2.16813 0
M  V30 5982 C 222.249 4.02732 1.64413 0
M  V30 5983 C 222.299 4.9488 0.63991 0
M  V30 5984 H 225.039 8.65017 -0.777072 0
M  V30 5985 H 225.309 6.90173 -0.474152 0
M  V30 5986 H 224.442 7.66642 -2.79492 0
M  V30 5987 H 221.787 5.16254 -2.65229 0
M  V30 5988 H 221.507 7.06532 -0.329431 0
M  V30 5989 H 220.516 6.91023 -1.82047 0
M  V30 5990 H 222.35 8.90873 -1.62657 0
M  V30 5991 H 222.422 6.00104 0.892197 0
M  V30 5992 H 222.32 4.31733 2.69229 0
M  V30 5993 H 221.932 0.724835 1.8844 0
M  V30 5994 H 222.128 1.94716 3.16734 0
M  V30 5995 P 220.479 8.03563 -3.84925 0
M  V30 5996 O 220.259 8.85821 -5.0569 0
M  V30 5997 O 219.689 8.41101 -2.65469 0
M  V30 5998 O 220.229 6.4965 -4.18908 0
M  V30 5999 C 221.169 5.81037 -5.05421 0
M  V30 6000 C 220.439 4.78366 -5.89277 0
M  V30 6001 O 220.229 3.58302 -5.08433 0
M  V30 6002 C 219.039 5.17448 -6.36119 0
M  V30 6003 O 218.649 4.45271 -7.53232 0
M  V30 6004 C 218.159 4.74639 -5.19936 0
M  V30 6005 C 218.869 3.49432 -4.70418 0
M  V30 6006 N 218.819 3.31776 -3.22945 0
M  V30 6007 H 221.658 6.54213 -5.71376 0
M  V30 6008 H 221.93 5.30492 -4.44033 0
M  V30 6009 H 221.062 4.55889 -6.76652 0
M  V30 6010 P 217.099 4.23843 -7.83734 0
M  V30 6011 O 216.879 4.19407 -9.29784 0
M  V30 6012 O 216.309 5.24426 -7.09156 0
M  V30 6013 O 216.849 2.7935 -7.20758 0
M  V30 6014 C 217.789 1.7299 -7.50419 0
M  V30 6015 C 217.059 0.406376 -7.57911 0
M  V30 6016 O 216.849 -0.0897726 -6.21935 0
M  V30 6017 C 215.659 0.447224 -8.1878 0
M  V30 6018 O 215.269 -0.825065 -8.71101 0
M  V30 6019 C 214.779 0.783801 -6.99623 0
M  V30 6020 C 215.489 0.0619192 -5.85967 0
M  V30 6021 N 215.439 0.7859 -4.56281 0
M  V30 6022 H 218.278 1.93423 -8.4679 0
M  V30 6023 H 218.55 1.68181 -6.71046 0
M  V30 6024 H 217.682 -0.289041 -8.15388 0
M  V30 6025 P 213.719 -1.17771 -8.83182 0
M  V30 6026 O 213.499 -2.07206 -9.98732 0
M  V30 6027 O 212.929 0.0743816 -8.81969 0
M  V30 6028 O 213.469 -1.97652 -7.47304 0
M  V30 6029 C 214.409 -3.01133 -7.08783 0
M  V30 6030 C 213.679 -4.12613 -6.37049 0
M  V30 6031 O 213.469 -3.72827 -4.97879 0
M  V30 6032 C 212.279 -4.45085 -6.88694 0
M  V30 6033 O 211.889 -5.7877 -6.5624 0
M  V30 6034 C 211.399 -3.47817 -6.12078 0
M  V30 6035 C 212.109 -3.39414 -4.77697 0
M  V30 6036 N 212.059 -2.04615 -4.15333 0
M  V30 6037 H 214.898 -3.41248 -7.98759 0
M  V30 6038 H 215.17 -2.5837 -6.41742 0
M  V30 6039 H 214.302 -5.02657 -6.42673 0
M  V30 6040 P 210.339 -6.144 -6.45285 0
M  V30 6041 O 210.119 -7.54673 -6.86199 0
M  V30 6042 O 209.549 -5.12391 -7.179 0
M  V30 6043 O 210.089 -5.99158 -4.88404 0
M  V30 6044 C 211.029 -6.60234 -3.96415 0
M  V30 6045 C 210.299 -7.08259 -2.72856 0
M  V30 6046 O 210.089 -5.9427 -1.83651 0
M  V30 6047 C 208.899 -7.64886 -2.9555 0
M  V30 6048 O 208.509 -8.53963 -1.90717 0
M  V30 6049 C 208.019 -6.4116 -2.90739 0
M  V30 6050 C 208.729 -5.55375 -1.86963 0
M  V30 6051 N 208.679 -4.09664 -2.15742 0
M  V30 6052 H 211.518 -7.45574 -4.45629 0
M  V30 6053 H 211.79 -5.86232 -3.67314 0
M  V30 6054 H 210.922 -7.84412 -2.24479 0
M  V30 6055 P 206.959 -8.7635 -1.60911 0
M  V30 6056 O 206.739 -10.1388 -1.11561 0
M  V30 6057 O 206.169 -8.36503 -2.79617 0
M  V30 6058 O 206.709 -7.71806 -0.42951 0
M  V30 6059 C 207.649 -7.67148 0.673689 0
M  V30 6060 C 206.919 -7.33374 1.95559 0
M  V30 6061 O 206.709 -5.88721 2.00726 0
M  V30 6062 C 205.519 -7.92526 2.10483 0
M  V30 6063 O 205.129 -8.02971 3.47653 0
M  V30 6064 C 204.639 -6.89602 1.41652 0
M  V30 6065 C 205.349 -5.59201 1.75185 0
M  V30 6066 N 205.299 -4.58235 0.662552 0
M  V30 6067 H 208.138 -8.65116 0.777161 0
M  V30 6068 H 208.41 -6.90173 0.474152 0
M  V30 6069 H 207.542 -7.66548 2.79458 0
M  V30 6070 P 203.579 -8.03563 3.84925 0
M  V30 6071 O 203.359 -8.85821 5.0569 0
M  V30 6072 O 202.789 -8.41101 2.65469 0
M  V30 6073 O 203.329 -6.4965 4.18908 0
M  V30 6074 C 204.269 -5.81037 5.05421 0
M  V30 6075 C 203.539 -4.78366 5.89277 0
M  V30 6076 O 203.329 -3.58302 5.08433 0
M  V30 6077 C 202.139 -5.17448 6.36119 0
M  V30 6078 O 201.749 -4.45271 7.53232 0
M  V30 6079 C 201.259 -4.74639 5.19936 0
M  V30 6080 C 201.969 -3.49432 4.70418 0
M  V30 6081 N 201.919 -3.32099 3.22613 0
M  V30 6082 C 201.999 -4.28245 2.25527 0
M  V30 6083 N 201.929 -3.80823 1.04874 0
M  V30 6084 C 201.779 -2.44571 1.23535 0
M  V30 6085 C 201.649 -1.37068 0.330675 0
M  V30 6086 N 201.639 -1.51472 -0.990824 0
M  V30 6087 N 201.529 -0.138614 0.848756 0
M  V30 6088 C 201.539 0.00675923 2.16999 0
M  V30 6089 N 201.659 -0.904372 3.11122 0
M  V30 6090 C 201.779 -2.12707 2.56212 0
M  V30 6091 H 204.758 -6.54213 5.71376 0
M  V30 6092 H 205.03 -5.30936 4.43503 0
M  V30 6093 H 204.162 -4.55889 6.76652 0
M  V30 6094 H 201.507 -2.61715 5.17932 0
M  V30 6095 H 201.227 -5.52155 4.41878 0
M  V30 6096 H 200.236 -4.51981 5.53374 0
M  V30 6097 H 202.07 -6.25124 6.55234 0
M  V30 6098 H 202.111 -5.34372 2.47488 0
M  V30 6099 H 201.73 -2.45153 -1.4078 0
M  V30 6100 H 201.541 -0.688422 -1.59911 0
M  V30 6101 H 201.433 1.02584 2.52346 0
M  V30 6102 P 200.199 -4.23843 7.83734 0
M  V30 6103 O 199.979 -4.19407 9.29784 0
M  V30 6104 O 199.409 -5.24426 7.09156 0
M  V30 6105 O 199.949 -2.7935 7.20758 0
M  V30 6106 C 200.889 -1.7299 7.50419 0
M  V30 6107 C 200.159 -0.406376 7.57911 0
M  V30 6108 O 199.949 0.0897726 6.21935 0
M  V30 6109 C 198.759 -0.447224 8.1878 0
M  V30 6110 O 198.369 0.825065 8.71101 0
M  V30 6111 C 197.879 -0.783801 6.99623 0
M  V30 6112 C 198.589 -0.0619192 5.85967 0
M  V30 6113 N 198.539 -0.7859 4.56281 0
M  V30 6114 H 201.378 -1.93423 8.4679 0
M  V30 6115 H 201.65 -1.68181 6.71046 0
M  V30 6116 H 200.782 0.289041 8.15388 0
M  V30 6117 P 196.819 1.17771 8.83182 0
M  V30 6118 O 196.599 2.07206 9.98732 0
M  V30 6119 O 196.029 -0.0743816 8.81969 0
M  V30 6120 O 196.569 1.97678 7.474 0
M  V30 6121 C 197.509 3.01133 7.08783 0
M  V30 6122 C 196.779 4.1203 6.37546 0
M  V30 6123 O 196.569 3.72887 4.9796 0
M  V30 6124 C 195.379 4.45085 6.88694 0
M  V30 6125 O 194.989 5.78836 6.56315 0
M  V30 6126 C 194.499 3.47817 6.12078 0
M  V30 6127 C 195.209 3.39414 4.77697 0
M  V30 6128 N 195.159 2.04615 4.15333 0
M  V30 6129 C 195.009 1.96929 2.77162 0
M  V30 6130 O 194.919 3.02017 2.12006 0
M  V30 6131 N 194.959 0.55485 2.24237 0
M  V30 6132 C 195.059 -0.367808 2.9169 0
M  V30 6133 N 195.009 -1.53426 2.29427 0
M  V30 6134 C 195.209 -0.319148 4.33828 0
M  V30 6135 C 195.259 0.920672 4.90433 0
M  V30 6136 H 197.999 3.41209 7.98667 0
M  V30 6137 H 198.269 2.5837 6.41742 0
M  V30 6138 H 197.402 5.02718 6.42752 0
M  V30 6139 H 194.747 4.11779 4.09026 0
M  V30 6140 H 194.467 2.49661 6.61772 0
M  V30 6141 H 193.476 3.86674 6.00946 0
M  V30 6142 H 195.31 4.29991 7.97006 0
M  V30 6143 H 195.382 1.00589 5.98303 0
M  V30 6144 H 195.28 -1.22639 4.93799 0
M  V30 6145 H 194.892 -1.56819 1.27167 0
M  V30 6146 H 195.088 -2.41062 2.83063 0
M  V30 6147 P 193.439 6.144 6.45285 0
M  V30 6148 O 193.219 7.54673 6.86199 0
M  V30 6149 O 192.649 5.12391 7.179 0
M  V30 6150 O 193.189 5.99158 4.88404 0
M  V30 6151 C 194.129 6.60234 3.96415 0
M  V30 6152 C 193.399 7.08259 2.72856 0
M  V30 6153 O 193.189 5.9427 1.83651 0
M  V30 6154 C 191.999 7.64886 2.9555 0
M  V30 6155 O 191.609 8.53963 1.90717 0
M  V30 6156 C 191.119 6.4116 2.90739 0
M  V30 6157 C 191.829 5.55375 1.86963 0
M  V30 6158 N 191.779 4.09448 2.16152 0
M  V30 6159 H 194.618 7.45574 4.45629 0
M  V30 6160 H 194.89 5.85864 3.679 0
M  V30 6161 H 194.022 7.84412 2.24479 0
M  V30 6162 H 191.367 5.73457 0.888562 0
M  V30 6163 H 191.087 5.90877 3.88583 0
M  V30 6164 H 190.096 6.6596 2.58858 0
M  V30 6165 H 191.93 8.16339 3.92049 0
M  V30 6166 P 190.059 8.7635 1.60911 0
M  V30 6167 O 189.839 10.1388 1.11561 0
M  V30 6168 O 189.269 8.36503 2.79617 0
M  V30 6169 O 189.809 7.71806 0.42951 0
M  V30 6170 C 190.749 7.67148 -0.673689 0
M  V30 6171 C 190.019 7.33374 -1.95559 0
M  V30 6172 O 189.809 5.88721 -2.00726 0
M  V30 6173 C 188.619 7.92526 -2.10483 0
M  V30 6174 O 188.229 8.02971 -3.47653 0
M  V30 6175 C 187.739 6.89602 -1.41652 0
M  V30 6176 C 188.449 5.59201 -1.75185 0
M  V30 6177 N 188.399 4.58235 -0.662552 0
M  V30 6178 H 191.238 8.65116 -0.777161 0
M  V30 6179 H 191.51 6.90173 -0.474152 0
M  V30 6180 H 190.642 7.66548 -2.79458 0
M  V30 6181 P 186.679 8.03563 -3.84925 0
M  V30 6182 O 186.459 8.85821 -5.0569 0
M  V30 6183 O 185.889 8.41101 -2.65469 0
M  V30 6184 O 186.429 6.4965 -4.18908 0
M  V30 6185 C 187.369 5.80886 -5.05289 0
M  V30 6186 C 186.639 4.78366 -5.89277 0
M  V30 6187 O 186.429 3.58302 -5.08433 0
M  V30 6188 C 185.239 5.16748 -6.36559 0
M  V30 6189 O 184.849 4.45271 -7.53232 0
M  V30 6190 C 184.359 4.74572 -5.19863 0
M  V30 6191 C 185.069 3.49373 -4.70338 0
M  V30 6192 N 185.019 3.31704 -3.22876 0
M  V30 6193 C 184.869 2.03326 -2.74871 0
M  V30 6194 O 184.779 1.06486 -3.48076 0
M  V30 6195 N 184.829 1.91838 -1.37456 0
M  V30 6196 C 184.919 2.94295 -0.462035 0
M  V30 6197 C 185.069 4.25064 -1.05249 0
M  V30 6198 C 185.119 4.40214 -2.39192 0
M  V30 6199 H 187.86 6.54063 -5.71245 0
M  V30 6200 H 188.129 5.30339 -4.43905 0
M  V30 6201 H 187.262 4.55889 -6.76652 0
M  V30 6202 H 184.607 2.6167 -5.17842 0
M  V30 6203 H 184.328 5.52155 -4.41878 0
M  V30 6204 H 183.336 4.51918 -5.53297 0
M  V30 6205 H 185.17 6.25055 -6.55162 0
M  V30 6206 H 185.241 5.39798 -2.81523 0
M  V30 6207 P 183.299 4.23843 -7.83734 0
M  V30 6208 O 183.079 4.19407 -9.29784 0
M  V30 6209 O 182.509 5.24426 -7.09156 0
M  V30 6210 O 183.049 2.7935 -7.20758 0
M  V30 6211 C 183.989 1.7299 -7.50419 0
M  V30 6212 C 183.259 0.406376 -7.57911 0
M  V30 6213 O 183.049 -0.0897726 -6.21935 0
M  V30 6214 C 181.859 0.447224 -8.1878 0
M  V30 6215 O 181.469 -0.825065 -8.71101 0
M  V30 6216 C 180.979 0.783801 -6.99623 0
M  V30 6217 C 181.689 0.0619192 -5.85967 0
M  V30 6218 N 181.639 0.790462 -4.56202 0
M  V30 6219 C 181.719 2.13895 -4.34171 0
M  V30 6220 N 181.649 2.46449 -3.08687 0
M  V30 6221 C 181.499 1.2525 -2.43697 0
M  V30 6222 C 181.369 0.914535 -1.07318 0
M  V30 6223 N 181.359 1.80782 -0.0887348 0
M  V30 6224 N 181.249 -0.386745 -0.768133 0
M  V30 6225 C 181.259 -1.28096 -1.75159 0
M  V30 6226 N 181.379 -1.09708 -3.04861 0
M  V30 6227 C 181.499 0.214857 -3.32306 0
M  V30 6228 H 184.478 1.93423 -8.4679 0
M  V30 6229 H 184.75 1.68852 -6.70877 0
M  V30 6230 H 183.882 -0.289041 -8.15388 0
M  V30 6231 H 181.227 -0.927006 -5.72848 0
M  V30 6232 H 180.947 1.86973 -6.82036 0
M  V30 6233 H 179.956 0.403953 -7.13357 0
M  V30 6234 H 181.79 1.20599 -8.97534 0
M  V30 6235 H 181.831 2.86846 -5.14318 0
M  V30 6236 H 181.45 2.81082 -0.302037 0
M  V30 6237 H 181.261 1.49688 0.889064 0
M  V30 6238 H 181.153 -2.31317 -1.43855 0
M  V30 6239 P 179.919 -1.17771 -8.83182 0
M  V30 6240 O 179.699 -2.07206 -9.98732 0
M  V30 6241 O 179.129 0.0743816 -8.81969 0
M  V30 6242 O 179.669 -1.97652 -7.47304 0
M  V30 6243 C 180.609 -3.01055 -7.08599 0
M  V30 6244 C 179.879 -4.12613 -6.37049 0
M  V30 6245 O 179.669 -3.72827 -4.97879 0
M  V30 6246 C 178.479 -4.45719 -6.88164 0
M  V30 6247 O 178.089 -5.7877 -6.5624 0
M  V30 6248 C 177.599 -3.47768 -6.11991 0
M  V30 6249 C 178.309 -3.39356 -4.77615 0
M  V30 6250 N 178.259 -2.04571 -4.15244 0
M  V30 6251 C 178.109 -1.98587 -2.78314 0
M  V30 6252 O 178.019 -2.98134 -2.08835 0
M  V30 6253 N 178.069 -0.714467 -2.24925 0
M  V30 6254 C 178.159 0.470001 -2.94169 0
M  V30 6255 C 178.309 0.312541 -4.36783 0
M  V30 6256 C 178.359 -0.914512 -4.92583 0
M  V30 6257 H 181.1 -3.41169 -7.98575 0
M  V30 6258 H 181.369 -2.58295 -6.41556 0
M  V30 6259 H 180.502 -5.02657 -6.42673 0
M  V30 6260 H 177.847 -4.11637 -4.08885 0
M  V30 6261 H 177.568 -2.49626 -6.61679 0
M  V30 6262 H 176.576 -3.86566 -6.00778 0
M  V30 6263 H 178.41 -4.29943 -7.96918 0
M  V30 6264 H 178.481 -1.00937 -6.00374 0
M  V30 6265 P 176.539 -6.144 -6.45285 0
M  V30 6266 O 176.319 -7.54673 -6.86199 0
M  V30 6267 O 175.749 -5.12391 -7.179 0
M  V30 6268 O 176.289 -5.99158 -4.88404 0
M  V30 6269 C 177.229 -6.60234 -3.96415 0
M  V30 6270 C 176.499 -7.08259 -2.72856 0
M  V30 6271 O 176.289 -5.9427 -1.83651 0
M  V30 6272 C 175.099 -7.64886 -2.9555 0
M  V30 6273 O 174.709 -8.53963 -1.90717 0
M  V30 6274 C 174.219 -6.4116 -2.90739 0
M  V30 6275 C 174.929 -5.55375 -1.86963 0
M  V30 6276 N 174.879 -4.09664 -2.15742 0
M  V30 6277 C 174.959 -3.44381 -3.37233 0
M  V30 6278 N 174.879 -2.14131 -3.28347 0
M  V30 6279 C 174.739 -1.90247 -1.91588 0
M  V30 6280 C 174.609 -0.683992 -1.20892 0
M  V30 6281 N 174.489 -0.903396 0.173998 0
M  V30 6282 C 174.489 -2.14171 0.784879 0
M  V30 6283 N 174.359 -2.1435 2.11317 0
M  V30 6284 N 174.619 -3.28784 0.119316 0
M  V30 6285 C 174.739 -3.0977 -1.22194 0
M  V30 6286 H 177.718 -7.45574 -4.45629 0
M  V30 6287 H 177.99 -5.86232 -3.67314 0
M  V30 6288 H 177.122 -7.84412 -2.24479 0
M  V30 6289 P 173.159 -8.7635 -1.60911 0
M  V30 6290 O 172.939 -10.1388 -1.11561 0
M  V30 6291 O 172.369 -8.36503 -2.79617 0
M  V30 6292 O 172.909 -7.71806 -0.42951 0
M  V30 6293 C 173.849 -7.67148 0.673689 0
M  V30 6294 C 173.119 -7.33374 1.95559 0
M  V30 6295 O 172.909 -5.88721 2.00726 0
M  V30 6296 C 171.719 -7.92526 2.10483 0
M  V30 6297 O 171.329 -8.02971 3.47653 0
M  V30 6298 C 170.839 -6.89602 1.41652 0
M  V30 6299 C 171.549 -5.59201 1.75185 0
M  V30 6300 N 171.499 -4.58301 0.657969 0
M  V30 6301 H 174.338 -8.65116 0.777161 0
M  V30 6302 H 174.61 -6.9022 0.46725 0
M  V30 6303 H 173.742 -7.66548 2.79458 0
M  V30 6304 H 171.087 -5.16165 2.65183 0
M  V30 6305 H 170.807 -7.06433 0.329384 0
M  V30 6306 H 169.816 -6.90926 1.82021 0
M  V30 6307 H 171.65 -8.90873 1.62657 0
M  V30 6308 P 169.779 -8.03563 3.84925 0
M  V30 6309 O 169.559 -8.85821 5.0569 0
M  V30 6310 O 168.989 -8.41101 2.65469 0
M  V30 6311 O 169.529 -6.4965 4.18908 0
M  V30 6312 C 170.469 -5.81037 5.05421 0
M  V30 6313 C 169.739 -4.78366 5.89277 0
M  V30 6314 O 169.529 -3.58302 5.08433 0
M  V30 6315 C 168.339 -5.17448 6.36119 0
M  V30 6316 O 167.949 -4.45271 7.53232 0
M  V30 6317 C 167.459 -4.74639 5.19936 0
M  V30 6318 C 168.169 -3.49432 4.70418 0
M  V30 6319 N 168.119 -3.32099 3.22613 0
M  V30 6320 C 168.199 -4.28245 2.25527 0
M  V30 6321 N 168.129 -3.80823 1.04874 0
M  V30 6322 C 167.979 -2.44571 1.23535 0
M  V30 6323 C 167.849 -1.37068 0.330675 0
M  V30 6324 N 167.839 -1.51472 -0.990824 0
M  V30 6325 N 167.729 -0.138614 0.848756 0
M  V30 6326 C 167.739 0.00675923 2.16999 0
M  V30 6327 N 167.859 -0.904372 3.11122 0
M  V30 6328 C 167.979 -2.12707 2.56212 0
M  V30 6329 H 170.958 -6.54213 5.71376 0
M  V30 6330 H 171.23 -5.30936 4.43503 0
M  V30 6331 H 170.362 -4.55889 6.76652 0
M  V30 6332 H 167.707 -2.61715 5.17932 0
M  V30 6333 H 167.427 -5.52155 4.41878 0
M  V30 6334 H 166.436 -4.51981 5.53374 0
M  V30 6335 H 168.27 -6.25124 6.55234 0
M  V30 6336 H 168.311 -5.34372 2.47488 0
M  V30 6337 H 167.93 -2.45153 -1.4078 0
M  V30 6338 H 167.741 -0.688422 -1.59911 0
M  V30 6339 H 167.633 1.02584 2.52346 0
M  V30 6340 P 166.399 -4.23843 7.83734 0
M  V30 6341 O 166.179 -4.19407 9.29784 0
M  V30 6342 O 165.609 -5.24426 7.09156 0
M  V30 6343 O 166.149 -2.7935 7.20758 0
M  V30 6344 C 167.089 -1.7299 7.50419 0
M  V30 6345 C 166.359 -0.406376 7.57911 0
M  V30 6346 O 166.149 0.0897726 6.21935 0
M  V30 6347 C 164.959 -0.447224 8.1878 0
M  V30 6348 O 164.569 0.825065 8.71101 0
M  V30 6349 C 164.079 -0.783801 6.99623 0
M  V30 6350 C 164.789 -0.0619192 5.85967 0
M  V30 6351 N 164.739 -0.7859 4.56281 0
M  V30 6352 H 167.578 -1.93423 8.4679 0
M  V30 6353 H 167.85 -1.68181 6.71046 0
M  V30 6354 H 166.982 0.289041 8.15388 0
M  V30 6355 P 163.019 1.17771 8.83182 0
M  V30 6356 O 162.799 2.07206 9.98732 0
M  V30 6357 O 162.229 -0.0743816 8.81969 0
M  V30 6358 O 162.769 1.97652 7.47304 0
M  V30 6359 C 163.709 3.01133 7.08783 0
M  V30 6360 C 162.979 4.12613 6.37049 0
M  V30 6361 O 162.769 3.72827 4.97879 0
M  V30 6362 C 161.579 4.45085 6.88694 0
M  V30 6363 O 161.189 5.7877 6.5624 0
M  V30 6364 C 160.699 3.47817 6.12078 0
M  V30 6365 C 161.409 3.39414 4.77697 0
M  V30 6366 N 161.359 2.04615 4.15333 0
M  V30 6367 H 164.198 3.41248 7.98759 0
M  V30 6368 H 164.47 2.5837 6.41742 0
M  V30 6369 H 163.602 5.02657 6.42673 0
M  V30 6370 P 159.639 6.144 6.45285 0
M  V30 6371 O 159.419 7.54673 6.86199 0
M  V30 6372 O 158.849 5.12391 7.179 0
M  V30 6373 O 159.389 5.99236 4.88467 0
M  V30 6374 C 160.329 6.60234 3.96415 0
M  V30 6375 C 159.599 7.08079 2.736 0
M  V30 6376 O 159.389 5.94365 1.8368 0
M  V30 6377 C 158.199 7.64886 2.9555 0
M  V30 6378 O 157.809 8.5406 1.90739 0
M  V30 6379 C 157.319 6.4116 2.90739 0
M  V30 6380 C 158.029 5.55375 1.86963 0
M  V30 6381 N 157.979 4.09664 2.15742 0
M  V30 6382 C 157.829 3.22231 1.08477 0
M  V30 6383 O 157.739 3.68951 -0.0600489 0
M  V30 6384 N 157.779 1.76692 1.48799 0
M  V30 6385 C 157.879 1.41695 2.57602 0
M  V30 6386 N 157.829 0.107296 2.75791 0
M  V30 6387 C 158.029 2.29178 3.69733 0
M  V30 6388 C 158.079 3.62753 3.42653 0
M  V30 6389 H 160.819 7.45488 4.45578 0
M  V30 6390 H 161.089 5.86232 3.67314 0
M  V30 6391 H 160.222 7.84508 2.24507 0
M  V30 6392 H 157.567 5.73556 0.888715 0
M  V30 6393 H 157.287 5.9096 3.88638 0
M  V30 6394 H 156.296 6.66053 2.58894 0
M  V30 6395 H 158.13 8.16339 3.92049 0
M  V30 6396 H 158.202 4.33052 4.24913 0
M  V30 6397 H 158.1 1.9103 4.71577 0
M  V30 6398 H 157.712 -0.521221 1.95056 0
M  V30 6399 H 157.908 -0.286429 3.70695 0
M  V30 6400 P 156.259 8.7635 1.60911 0
M  V30 6401 O 156.039 10.1388 1.11561 0
M  V30 6402 O 155.469 8.36503 2.79617 0
M  V30 6403 O 156.009 7.71806 0.42951 0
M  V30 6404 C 156.949 7.67148 -0.673689 0
M  V30 6405 C 156.219 7.33374 -1.95559 0
M  V30 6406 O 156.009 5.88721 -2.00726 0
M  V30 6407 C 154.819 7.92526 -2.10483 0
M  V30 6408 O 154.429 8.02971 -3.47653 0
M  V30 6409 C 153.939 6.89602 -1.41652 0
M  V30 6410 C 154.649 5.59201 -1.75185 0
M  V30 6411 N 154.599 4.58235 -0.662552 0
M  V30 6412 H 157.438 8.65116 -0.777161 0
M  V30 6413 H 157.71 6.90173 -0.474152 0
M  V30 6414 H 156.842 7.66548 -2.79458 0
M  V30 6415 P 152.879 8.03563 -3.84925 0
M  V30 6416 O 152.659 8.85821 -5.0569 0
M  V30 6417 O 152.089 8.41101 -2.65469 0
M  V30 6418 O 152.629 6.4965 -4.18908 0
M  V30 6419 C 153.569 5.81037 -5.05421 0
M  V30 6420 C 152.839 4.78366 -5.89277 0
M  V30 6421 O 152.629 3.58302 -5.08433 0
M  V30 6422 C 151.439 5.17448 -6.36119 0
M  V30 6423 O 151.049 4.45271 -7.53232 0
M  V30 6424 C 150.559 4.74639 -5.19936 0
M  V30 6425 C 151.269 3.49432 -4.70418 0
M  V30 6426 N 151.219 3.31776 -3.22945 0
M  V30 6427 H 154.058 6.54213 -5.71376 0
M  V30 6428 H 154.33 5.30492 -4.44033 0
M  V30 6429 H 153.462 4.55889 -6.76652 0
M  V30 6430 P 149.499 4.23843 -7.83734 0
M  V30 6431 O 149.279 4.19407 -9.29784 0
M  V30 6432 O 148.709 5.24426 -7.09156 0
M  V30 6433 O 149.249 2.7935 -7.20758 0
M  V30 6434 C 150.189 1.72945 -7.50224 0
M  V30 6435 C 149.459 0.406376 -7.57911 0
M  V30 6436 O 149.249 -0.0897726 -6.21935 0
M  V30 6437 C 148.059 0.438983 -8.18724 0
M  V30 6438 O 147.669 -0.825065 -8.71101 0
M  V30 6439 C 147.179 0.783689 -6.99524 0
M  V30 6440 C 147.889 0.0619086 -5.85867 0
M  V30 6441 N 147.839 0.78573 -4.56183 0
M  V30 6442 C 147.689 0.0292889 -3.41887 0
M  V30 6443 O 147.599 -1.18445 -3.4419 0
M  V30 6444 N 147.649 0.744061 -2.23964 0
M  V30 6445 C 147.739 2.10932 -2.10362 0
M  V30 6446 C 147.889 2.8202 -3.34994 0
M  V30 6447 C 147.939 2.15547 -4.52261 0
M  V30 6448 H 150.68 1.93379 -8.46595 0
M  V30 6449 H 150.949 1.68132 -6.70852 0
M  V30 6450 H 150.082 -0.289041 -8.15388 0
M  V30 6451 H 147.427 -0.926847 -5.72749 0
M  V30 6452 H 147.148 1.86973 -6.82036 0
M  V30 6453 H 146.156 0.403896 -7.13257 0
M  V30 6454 H 147.99 1.20585 -8.97435 0
M  V30 6455 H 148.061 2.71231 -5.45042 0
M  V30 6456 P 146.119 -1.17771 -8.83182 0
M  V30 6457 O 145.899 -2.07206 -9.98732 0
M  V30 6458 O 145.329 0.0743816 -8.81969 0
M  V30 6459 O 145.869 -1.97652 -7.47304 0
M  V30 6460 C 146.809 -3.01133 -7.08783 0
M  V30 6461 C 146.079 -4.12613 -6.37049 0
M  V30 6462 O 145.869 -3.72827 -4.97879 0
M  V30 6463 C 144.679 -4.45085 -6.88694 0
M  V30 6464 O 144.289 -5.7877 -6.5624 0
M  V30 6465 C 143.799 -3.47817 -6.12078 0
M  V30 6466 C 144.509 -3.39414 -4.77697 0
M  V30 6467 N 144.459 -2.04615 -4.15333 0
M  V30 6468 H 147.298 -3.41248 -7.98759 0
M  V30 6469 H 147.57 -2.5837 -6.41742 0
M  V30 6470 H 146.702 -5.02657 -6.42673 0
M  V30 6471 P 142.739 -6.144 -6.45285 0
M  V30 6472 O 142.519 -7.54673 -6.86199 0
M  V30 6473 O 141.949 -5.12391 -7.179 0
M  V30 6474 O 142.489 -5.99158 -4.88404 0
M  V30 6475 C 143.429 -6.60234 -3.96415 0
M  V30 6476 C 142.699 -7.08259 -2.72856 0
M  V30 6477 O 142.489 -5.9427 -1.83651 0
M  V30 6478 C 141.299 -7.64886 -2.9555 0
M  V30 6479 O 140.909 -8.53963 -1.90717 0
M  V30 6480 C 140.419 -6.4116 -2.90739 0
M  V30 6481 C 141.129 -5.55375 -1.86963 0
M  V30 6482 N 141.079 -4.09664 -2.15742 0
M  V30 6483 H 143.918 -7.45574 -4.45629 0
M  V30 6484 H 144.19 -5.86232 -3.67314 0
M  V30 6485 H 143.322 -7.84412 -2.24479 0
M  V30 6486 P 139.359 -8.7635 -1.60911 0
M  V30 6487 O 139.139 -10.1388 -1.11561 0
M  V30 6488 O 138.569 -8.36503 -2.79617 0
M  V30 6489 O 139.109 -7.71806 -0.42951 0
M  V30 6490 C 140.049 -7.67148 0.673689 0
M  V30 6491 C 139.319 -7.33374 1.95559 0
M  V30 6492 O 139.109 -5.88721 2.00726 0
M  V30 6493 C 137.919 -7.92526 2.10483 0
M  V30 6494 O 137.529 -8.02971 3.47653 0
M  V30 6495 C 137.039 -6.89602 1.41652 0
M  V30 6496 C 137.749 -5.59201 1.75185 0
M  V30 6497 N 137.699 -4.58301 0.657969 0
M  V30 6498 H 140.538 -8.65116 0.777161 0
M  V30 6499 H 140.81 -6.9022 0.46725 0
M  V30 6500 H 139.942 -7.66548 2.79458 0
M  V30 6501 H 137.287 -5.16165 2.65183 0
M  V30 6502 H 137.007 -7.06433 0.329384 0
M  V30 6503 H 136.016 -6.90926 1.82021 0
M  V30 6504 H 137.85 -8.90873 1.62657 0
M  V30 6505 P 135.979 -8.03563 3.84925 0
M  V30 6506 O 135.759 -8.85821 5.0569 0
M  V30 6507 O 135.189 -8.41101 2.65469 0
M  V30 6508 O 135.729 -6.4965 4.18908 0
M  V30 6509 C 136.669 -5.81037 5.05421 0
M  V30 6510 C 135.939 -4.78366 5.89277 0
M  V30 6511 O 135.729 -3.58302 5.08433 0
M  V30 6512 C 134.539 -5.17448 6.36119 0
M  V30 6513 O 134.149 -4.45271 7.53232 0
M  V30 6514 C 133.659 -4.74639 5.19936 0
M  V30 6515 C 134.369 -3.49432 4.70418 0
M  V30 6516 N 134.319 -3.32099 3.22613 0
M  V30 6517 H 137.158 -6.54213 5.71376 0
M  V30 6518 H 137.43 -5.30936 4.43503 0
M  V30 6519 H 136.562 -4.55889 6.76652 0
M  V30 6520 H 133.907 -2.61715 5.17932 0
M  V30 6521 H 133.627 -5.52155 4.41878 0
M  V30 6522 H 132.636 -4.51981 5.53374 0
M  V30 6523 H 134.47 -6.25124 6.55234 0
M  V30 6524 P 132.599 -4.23843 7.83734 0
M  V30 6525 O 132.379 -4.19407 9.29784 0
M  V30 6526 O 131.809 -5.24426 7.09156 0
M  V30 6527 O 132.349 -2.7935 7.20758 0
M  V30 6528 C 133.289 -1.7299 7.50419 0
M  V30 6529 C 132.559 -0.406376 7.57911 0
M  V30 6530 O 132.349 0.0897726 6.21935 0
M  V30 6531 C 131.159 -0.447224 8.1878 0
M  V30 6532 O 130.769 0.825065 8.71101 0
M  V30 6533 C 130.279 -0.783801 6.99623 0
M  V30 6534 C 130.989 -0.0619192 5.85967 0
M  V30 6535 N 130.939 -0.7859 4.56281 0
M  V30 6536 C 131.019 -2.14308 4.31736 0
M  V30 6537 N 130.939 -2.46106 3.05116 0
M  V30 6538 C 130.799 -1.23422 2.4014 0
M  V30 6539 C 130.669 -0.938381 1.02409 0
M  V30 6540 N 130.549 0.444647 0.805413 0
M  V30 6541 C 130.549 1.40829 1.79435 0
M  V30 6542 N 130.419 2.67213 1.38558 0
M  V30 6543 N 130.679 1.12947 3.09005 0
M  V30 6544 C 130.799 -0.204887 3.32369 0
M  V30 6545 H 133.778 -1.93423 8.4679 0
M  V30 6546 H 134.05 -1.68181 6.71046 0
M  V30 6547 H 133.182 0.289041 8.15388 0
M  V30 6548 P 129.219 1.17771 8.83182 0
M  V30 6549 O 128.999 2.07206 9.98732 0
M  V30 6550 O 128.429 -0.0743816 8.81969 0
M  V30 6551 O 128.969 1.97652 7.47304 0
M  V30 6552 C 129.909 3.01133 7.08783 0
M  V30 6553 C 129.179 4.12613 6.37049 0
M  V30 6554 O 128.969 3.72827 4.97879 0
M  V30 6555 C 127.779 4.45085 6.88694 0
M  V30 6556 O 127.389 5.7877 6.5624 0
M  V30 6557 C 126.899 3.47817 6.12078 0
M  V30 6558 C 127.609 3.39414 4.77697 0
M  V30 6559 N 127.559 2.04615 4.15333 0
M  V30 6560 H 130.398 3.41248 7.98759 0
M  V30 6561 H 130.67 2.5837 6.41742 0
M  V30 6562 H 129.802 5.02657 6.42673 0
M  V30 6563 P 125.839 6.144 6.45285 0
M  V30 6564 O 125.619 7.54673 6.86199 0
M  V30 6565 O 125.049 5.12391 7.179 0
M  V30 6566 O 125.589 5.99158 4.88404 0
M  V30 6567 C 126.529 6.60234 3.96415 0
M  V30 6568 C 125.799 7.08259 2.72856 0
M  V30 6569 O 125.589 5.9427 1.83651 0
M  V30 6570 C 124.399 7.64886 2.9555 0
M  V30 6571 O 124.009 8.53963 1.90717 0
M  V30 6572 C 123.519 6.4116 2.90739 0
M  V30 6573 C 124.229 5.55375 1.86963 0
M  V30 6574 N 124.179 4.09664 2.15742 0
M  V30 6575 H 127.018 7.45574 4.45629 0
M  V30 6576 H 127.29 5.86232 3.67314 0
M  V30 6577 H 126.422 7.84412 2.24479 0
M  V30 6578 P 122.459 8.7635 1.60911 0
M  V30 6579 O 122.239 10.1388 1.11561 0
M  V30 6580 O 121.669 8.36503 2.79617 0
M  V30 6581 O 122.209 7.71806 0.42951 0
M  V30 6582 C 123.149 7.66948 -0.673514 0
M  V30 6583 C 122.419 7.33374 -1.95559 0
M  V30 6584 O 122.209 5.88721 -2.00726 0
M  V30 6585 C 121.019 7.92218 -2.1125 0
M  V30 6586 O 120.629 8.02971 -3.47653 0
M  V30 6587 C 120.139 6.89504 -1.41631 0
M  V30 6588 C 120.849 5.59106 -1.75155 0
M  V30 6589 N 120.799 4.58136 -0.662409 0
M  V30 6590 C 120.649 3.26059 -1.02863 0
M  V30 6591 O 120.559 2.90743 -2.19009 0
M  V30 6592 N 120.609 2.35995 0.0155585 0
M  V30 6593 C 120.699 2.65248 1.35603 0
M  V30 6594 O 120.649 1.75605 2.20651 0
M  V30 6595 C 120.849 4.05747 1.64698 0
M  V30 6596 C 120.959 4.42345 3.09553 0
M  V30 6597 C 120.899 4.96734 0.652411 0
M  V30 6598 H 123.64 8.64917 -0.776982 0
M  V30 6599 H 123.909 6.89974 -0.474015 0
M  V30 6600 H 123.042 7.66548 -2.79458 0
M  V30 6601 H 120.387 5.16076 -2.65138 0
M  V30 6602 H 120.108 7.06433 -0.329384 0
M  V30 6603 H 119.116 6.90829 -1.81996 0
M  V30 6604 H 120.95 8.90774 -1.62639 0
M  V30 6605 H 121.021 6.02181 0.895285 0
M  V30 6606 H 119.991 4.80252 3.45468 0
M  V30 6607 H 121.728 5.20015 3.22119 0
M  V30 6608 H 121.24 3.53269 3.67833 0
M  V30 6609 H 120.504 1.39558 -0.227499 0
M  V30 6610 P 119.079 8.03563 -3.84925 0
M  V30 6611 O 118.859 8.85821 -5.0569 0
M  V30 6612 O 118.289 8.41101 -2.65469 0
M  V30 6613 O 118.829 6.49734 -4.18962 0
M  V30 6614 C 119.769 5.81037 -5.05421 0
M  V30 6615 C 119.039 4.79018 -5.88876 0
M  V30 6616 O 118.829 3.58359 -5.08515 0
M  V30 6617 C 117.639 5.17448 -6.36119 0
M  V30 6618 O 117.249 4.45322 -7.53318 0
M  V30 6619 C 116.759 4.74639 -5.19936 0
M  V30 6620 C 117.469 3.49432 -4.70418 0
M  V30 6621 N 117.419 3.31776 -3.22945 0
M  V30 6622 C 117.269 2.02742 -2.72939 0
M  V30 6623 O 117.179 1.08301 -3.52749 0
M  V30 6624 N 117.219 1.96117 -1.22063 0
M  V30 6625 C 117.319 2.8878 -0.551566 0
M  V30 6626 N 117.269 2.65609 0.750198 0
M  V30 6627 C 117.469 4.22457 -1.03707 0
M  V30 6628 C 117.519 4.37979 -2.39113 0
M  V30 6629 H 120.259 6.54138 -5.7131 0
M  V30 6630 H 120.529 5.30492 -4.44033 0
M  V30 6631 H 119.662 4.55945 -6.76735 0
M  V30 6632 H 117.007 2.6176 -5.18021 0
M  V30 6633 H 116.727 5.52233 -4.41941 0
M  V30 6634 H 115.736 4.52045 -5.53452 0
M  V30 6635 H 117.57 6.25124 -6.55234 0
M  V30 6636 H 117.642 5.37936 -2.80552 0
M  V30 6637 H 117.54 5.07528 -0.359553 0
M  V30 6638 H 117.152 1.69403 1.09847 0
M  V30 6639 H 117.348 3.43701 1.41792 0
M  V30 6640 P 115.699 4.23843 -7.83734 0
M  V30 6641 O 115.479 4.19407 -9.29784 0
M  V30 6642 O 114.909 5.24426 -7.09156 0
M  V30 6643 O 115.449 2.7935 -7.20758 0
M  V30 6644 C 116.389 1.7299 -7.50419 0
M  V30 6645 C 115.659 0.406376 -7.57911 0
M  V30 6646 O 115.449 -0.0897726 -6.21935 0
M  V30 6647 C 114.259 0.447224 -8.1878 0
M  V30 6648 O 113.869 -0.825065 -8.71101 0
M  V30 6649 C 113.379 0.783801 -6.99623 0
M  V30 6650 C 114.089 0.0619192 -5.85967 0
M  V30 6651 N 114.039 0.7859 -4.56281 0
M  V30 6652 H 116.878 1.93423 -8.4679 0
M  V30 6653 H 117.15 1.68181 -6.71046 0
M  V30 6654 H 116.282 -0.289041 -8.15388 0
M  V30 6655 P 112.319 -1.17771 -8.83182 0
M  V30 6656 O 112.099 -2.07206 -9.98732 0
M  V30 6657 O 111.529 0.0743816 -8.81969 0
M  V30 6658 O 112.069 -1.97652 -7.47304 0
M  V30 6659 C 113.009 -3.01133 -7.08783 0
M  V30 6660 C 112.279 -4.12613 -6.37049 0
M  V30 6661 O 112.069 -3.72827 -4.97879 0
M  V30 6662 C 110.879 -4.45085 -6.88694 0
M  V30 6663 O 110.489 -5.7877 -6.5624 0
M  V30 6664 C 109.999 -3.47817 -6.12078 0
M  V30 6665 C 110.709 -3.39414 -4.77697 0
M  V30 6666 N 110.659 -2.04615 -4.15333 0
M  V30 6667 H 113.498 -3.41248 -7.98759 0
M  V30 6668 H 113.77 -2.5837 -6.41742 0
M  V30 6669 H 112.902 -5.02657 -6.42673 0
M  V30 6670 P 108.939 -6.144 -6.45285 0
M  V30 6671 O 108.719 -7.54673 -6.86199 0
M  V30 6672 O 108.149 -5.12391 -7.179 0
M  V30 6673 O 108.689 -5.99158 -4.88404 0
M  V30 6674 C 109.629 -6.60234 -3.96415 0
M  V30 6675 C 108.899 -7.08259 -2.72856 0
M  V30 6676 O 108.689 -5.9427 -1.83651 0
M  V30 6677 C 107.499 -7.64886 -2.9555 0
M  V30 6678 O 107.109 -8.53963 -1.90717 0
M  V30 6679 C 106.619 -6.4116 -2.90739 0
M  V30 6680 C 107.329 -5.55375 -1.86963 0
M  V30 6681 N 107.279 -4.09664 -2.15742 0
M  V30 6682 H 110.118 -7.45574 -4.45629 0
M  V30 6683 H 110.39 -5.86232 -3.67314 0
M  V30 6684 H 109.522 -7.84412 -2.24479 0
M  V30 6685 P 105.559 -8.7635 -1.60911 0
M  V30 6686 O 105.339 -10.1388 -1.11561 0
M  V30 6687 O 104.769 -8.36503 -2.79617 0
M  V30 6688 O 105.309 -7.71806 -0.42951 0
M  V30 6689 C 106.249 -7.67148 0.673689 0
M  V30 6690 C 105.519 -7.33374 1.95559 0
M  V30 6691 O 105.309 -5.88721 2.00726 0
M  V30 6692 C 104.119 -7.92526 2.10483 0
M  V30 6693 O 103.729 -8.02971 3.47653 0
M  V30 6694 C 103.239 -6.89602 1.41652 0
M  V30 6695 C 103.949 -5.59201 1.75185 0
M  V30 6696 N 103.899 -4.58235 0.662552 0
M  V30 6697 H 106.738 -8.65116 0.777161 0
M  V30 6698 H 107.01 -6.90173 0.474152 0
M  V30 6699 H 106.142 -7.66548 2.79458 0
M  V30 6700 P 102.179 -8.03563 3.84925 0
M  V30 6701 O 101.959 -8.85821 5.0569 0
M  V30 6702 O 101.389 -8.41101 2.65469 0
M  V30 6703 O 101.929 -6.4965 4.18908 0
M  V30 6704 C 102.869 -5.81037 5.05421 0
M  V30 6705 C 102.139 -4.78366 5.89277 0
M  V30 6706 O 101.929 -3.58302 5.08433 0
M  V30 6707 C 100.739 -5.17448 6.36119 0
M  V30 6708 O 100.349 -4.45271 7.53232 0
M  V30 6709 C 99.8594 -4.74639 5.19936 0
M  V30 6710 C 100.569 -3.49432 4.70418 0
M  V30 6711 N 100.519 -3.31776 3.22945 0
M  V30 6712 H 103.358 -6.54213 5.71376 0
M  V30 6713 H 103.63 -5.30492 4.44033 0
M  V30 6714 H 102.762 -4.55889 6.76652 0
M  V30 6715 P 98.7994 -4.23843 7.83734 0
M  V30 6716 O 98.5794 -4.19407 9.29784 0
M  V30 6717 O 98.0094 -5.24426 7.09156 0
M  V30 6718 O 98.5494 -2.7935 7.20758 0
M  V30 6719 C 99.4894 -1.7299 7.50419 0
M  V30 6720 C 98.7594 -0.406376 7.57911 0
M  V30 6721 O 98.5494 0.0897726 6.21935 0
M  V30 6722 C 97.3594 -0.447224 8.1878 0
M  V30 6723 O 96.9694 0.825065 8.71101 0
M  V30 6724 C 96.4794 -0.783801 6.99623 0
M  V30 6725 C 97.1894 -0.0619192 5.85967 0
M  V30 6726 N 97.1394 -0.790462 4.56202 0
M  V30 6727 H 99.9784 -1.93423 8.4679 0
M  V30 6728 H 100.25 -1.68852 6.70877 0
M  V30 6729 H 99.3824 0.289041 8.15388 0
M  V30 6730 H 96.7274 0.927006 5.72848 0
M  V30 6731 H 96.4474 -1.86973 6.82036 0
M  V30 6732 H 95.4564 -0.403953 7.13357 0
M  V30 6733 H 97.2904 -1.20599 8.97534 0
M  V30 6734 P 95.4195 1.17771 8.83182 0
M  V30 6735 O 95.1995 2.07206 9.98732 0
M  V30 6736 O 94.6295 -0.0743816 8.81969 0
M  V30 6737 O 95.1695 1.97652 7.47304 0
M  V30 6738 C 96.1095 3.01133 7.08783 0
M  V30 6739 C 95.3795 4.12613 6.37049 0
M  V30 6740 O 95.1695 3.72827 4.97879 0
M  V30 6741 C 93.9795 4.45085 6.88694 0
M  V30 6742 O 93.5895 5.7877 6.5624 0
M  V30 6743 C 93.0995 3.47817 6.12078 0
M  V30 6744 C 93.8095 3.39414 4.77697 0
M  V30 6745 N 93.7595 2.04615 4.15333 0
M  V30 6746 C 93.8395 0.803897 4.75249 0
M  V30 6747 N 93.7595 -0.197615 3.91502 0
M  V30 6748 C 93.6195 0.413002 2.66823 0
M  V30 6749 C 93.4895 -0.157221 1.38007 0
M  V30 6750 O 93.4695 -1.34419 1.057 0
M  V30 6751 N 93.3695 0.833136 0.390236 0
M  V30 6752 C 93.3695 2.19402 0.623885 0
M  V30 6753 N 93.2395 2.97622 -0.449677 0
M  V30 6754 N 93.4995 2.73005 1.83601 0
M  V30 6755 C 93.6195 1.78786 2.80935 0
M  V30 6756 H 96.5985 3.41248 7.98759 0
M  V30 6757 H 96.8705 2.5837 6.41742 0
M  V30 6758 H 96.0025 5.02657 6.42673 0
M  V30 6759 H 93.3475 4.11779 4.09026 0
M  V30 6760 H 93.0675 2.49661 6.61772 0
M  V30 6761 H 92.0765 3.86674 6.00946 0
M  V30 6762 H 93.9105 4.30038 7.97094 0
M  V30 6763 H 93.9595 0.670579 5.82754 0
M  V30 6764 H 93.2775 0.528446 -0.557287 0
M  V30 6765 H 93.2405 4.00117 -0.344773 0
M  V30 6766 H 93.1395 2.55448 -1.38544 0
M  V30 6767 P 92.0395 6.144 6.45285 0
M  V30 6768 O 91.8195 7.54673 6.86199 0
M  V30 6769 O 91.2495 5.12391 7.179 0
M  V30 6770 O 91.7895 5.99158 4.88404 0
M  V30 6771 C 92.7295 6.60062 3.96313 0
M  V30 6772 C 91.9995 7.08259 2.72856 0
M  V30 6773 O 91.7895 5.9427 1.83651 0
M  V30 6774 C 90.5995 7.65087 2.94749 0
M  V30 6775 O 90.2095 8.53963 1.90717 0
M  V30 6776 C 89.7195 6.41069 2.90698 0
M  V30 6777 C 90.4295 5.5528 1.86931 0
M  V30 6778 N 90.3795 4.09575 2.15696 0
M  V30 6779 C 90.2295 3.24249 1.08435 0
M  V30 6780 O 90.1395 3.63946 -0.0628747 0
M  V30 6781 N 90.1895 1.90009 1.39973 0
M  V30 6782 C 90.2795 1.34884 2.65614 0
M  V30 6783 C 90.4295 2.3145 3.71736 0
M  V30 6784 C 90.4795 3.63518 3.44754 0
M  V30 6785 H 93.2205 7.45402 4.45526 0
M  V30 6786 H 93.4895 5.86062 3.67208 0
M  V30 6787 H 92.6225 7.84412 2.24479 0
M  V30 6788 H 89.9675 5.73358 0.888409 0
M  V30 6789 H 89.6885 5.90877 3.88583 0
M  V30 6790 H 88.6965 6.65867 2.58821 0
M  V30 6791 H 90.5305 8.16248 3.92006 0
M  V30 6792 H 90.6015 4.34551 4.26383 0
M  V30 6793 P 88.6595 8.7635 1.60911 0
M  V30 6794 O 88.4395 10.1388 1.11561 0
M  V30 6795 O 87.8695 8.36503 2.79617 0
M  V30 6796 O 88.4095 7.71806 0.42951 0
M  V30 6797 C 89.3495 7.66948 -0.673514 0
M  V30 6798 C 88.6195 7.33374 -1.95559 0
M  V30 6799 O 88.4095 5.88721 -2.00726 0
M  V30 6800 C 87.2195 7.92218 -2.1125 0
M  V30 6801 O 86.8295 8.02971 -3.47653 0
M  V30 6802 C 86.3395 6.89504 -1.41631 0
M  V30 6803 C 87.0495 5.59106 -1.75155 0
M  V30 6804 N 86.9995 4.58136 -0.662409 0
M  V30 6805 C 86.8495 3.26059 -1.02863 0
M  V30 6806 O 86.7595 2.90743 -2.19009 0
M  V30 6807 N 86.8095 2.35995 0.0155585 0
M  V30 6808 C 86.8995 2.65248 1.35603 0
M  V30 6809 O 86.8495 1.75605 2.20651 0
M  V30 6810 C 87.0495 4.05747 1.64698 0
M  V30 6811 C 87.1595 4.42345 3.09553 0
M  V30 6812 C 87.0995 4.96734 0.652411 0
M  V30 6813 H 89.8405 8.64917 -0.776982 0
M  V30 6814 H 90.1095 6.89974 -0.474015 0
M  V30 6815 H 89.2425 7.66548 -2.79458 0
M  V30 6816 H 86.5875 5.16076 -2.65138 0
M  V30 6817 H 86.3085 7.06433 -0.329384 0
M  V30 6818 H 85.3165 6.90829 -1.81996 0
M  V30 6819 H 87.1505 8.90774 -1.62639 0
M  V30 6820 H 87.2215 6.02181 0.895285 0
M  V30 6821 H 86.1915 4.80252 3.45468 0
M  V30 6822 H 87.9285 5.20015 3.22119 0
M  V30 6823 H 87.4405 3.53269 3.67833 0
M  V30 6824 H 86.7045 1.39558 -0.227499 0
M  V30 6825 P 85.2795 8.03563 -3.84925 0
M  V30 6826 O 85.0595 8.85821 -5.0569 0
M  V30 6827 O 84.4895 8.41101 -2.65469 0
M  V30 6828 O 85.0295 6.4965 -4.18908 0
M  V30 6829 C 85.9695 5.81037 -5.05421 0
M  V30 6830 C 85.2395 4.78366 -5.89277 0
M  V30 6831 O 85.0295 3.58302 -5.08433 0
M  V30 6832 C 83.8395 5.17448 -6.36119 0
M  V30 6833 O 83.4495 4.45271 -7.53232 0
M  V30 6834 C 82.9595 4.74639 -5.19936 0
M  V30 6835 C 83.6695 3.49432 -4.70418 0
M  V30 6836 N 83.6195 3.31776 -3.22945 0
M  V30 6837 H 86.4585 6.54213 -5.71376 0
M  V30 6838 H 86.7305 5.30492 -4.44033 0
M  V30 6839 H 85.8625 4.55889 -6.76652 0
M  V30 6840 P 81.8995 4.23843 -7.83734 0
M  V30 6841 O 81.6795 4.19407 -9.29784 0
M  V30 6842 O 81.1095 5.24426 -7.09156 0
M  V30 6843 O 81.6495 2.79386 -7.20852 0
M  V30 6844 C 82.5895 1.7299 -7.50419 0
M  V30 6845 C 81.8595 0.41401 -7.5797 0
M  V30 6846 O 81.6495 -0.089787 -6.22035 0
M  V30 6847 C 80.4595 0.447224 -8.1878 0
M  V30 6848 O 80.0695 -0.825159 -8.71201 0
M  V30 6849 C 79.5795 0.783801 -6.99623 0
M  V30 6850 C 80.2895 0.0619192 -5.85967 0
M  V30 6851 N 80.2395 0.7859 -4.56281 0
M  V30 6852 C 80.0895 0.0359258 -3.39981 0
M  V30 6853 O 79.9995 -1.19723 -3.49038 0
M  V30 6854 N 80.0395 0.869151 -2.14025 0
M  V30 6855 C 80.1395 2.01207 -2.14363 0
M  V30 6856 N 80.0895 2.58978 -0.954287 0
M  V30 6857 C 80.2895 2.80817 -3.32215 0
M  V30 6858 C 80.3395 2.13785 -4.50884 0
M  V30 6859 H 83.0795 1.93401 -8.46693 0
M  V30 6860 H 83.3495 1.68181 -6.71046 0
M  V30 6861 H 82.4825 -0.289076 -8.15488 0
M  V30 6862 H 79.8275 -0.927166 -5.72947 0
M  V30 6863 H 79.5475 1.87 -6.82132 0
M  V30 6864 H 78.5565 0.404009 -7.13457 0
M  V30 6865 H 80.3905 1.20599 -8.97534 0
M  V30 6866 H 80.4625 2.70295 -5.43162 0
M  V30 6867 H 80.3605 3.89465 -3.27406 0
M  V30 6868 H 79.9725 2.01616 -0.107046 0
M  V30 6869 H 80.1685 3.61403 -0.873101 0
M  V30 6870 P 78.5196 -1.17771 -8.83182 0
M  V30 6871 O 78.2996 -2.07206 -9.98732 0
M  V30 6872 O 77.7296 0.0743816 -8.81969 0
M  V30 6873 O 78.2696 -1.97652 -7.47304 0
M  V30 6874 C 79.2096 -3.01133 -7.08783 0
M  V30 6875 C 78.4796 -4.12613 -6.37049 0
M  V30 6876 O 78.2696 -3.72827 -4.97879 0
M  V30 6877 C 77.0796 -4.45085 -6.88694 0
M  V30 6878 O 76.6896 -5.7877 -6.5624 0
M  V30 6879 C 76.1996 -3.47817 -6.12078 0
M  V30 6880 C 76.9096 -3.39414 -4.77697 0
M  V30 6881 N 76.8596 -2.04199 -4.15538 0
M  V30 6882 H 79.6986 -3.41248 -7.98759 0
M  V30 6883 H 79.9706 -2.57728 -6.42 0
M  V30 6884 H 79.1026 -5.02657 -6.42673 0
M  V30 6885 H 76.4476 -4.11708 -4.08956 0
M  V30 6886 H 76.1676 -2.49626 -6.61679 0
M  V30 6887 H 75.1766 -3.8662 -6.00862 0
M  V30 6888 H 77.0106 -4.29991 -7.97006 0
M  V30 6889 P 75.1396 -6.144 -6.45285 0
M  V30 6890 O 74.9196 -7.54673 -6.86199 0
M  V30 6891 O 74.3496 -5.12391 -7.179 0
M  V30 6892 O 74.8896 -5.99158 -4.88404 0
M  V30 6893 C 75.8296 -6.60234 -3.96415 0
M  V30 6894 C 75.0996 -7.08259 -2.72856 0
M  V30 6895 O 74.8896 -5.9427 -1.83651 0
M  V30 6896 C 73.6996 -7.64886 -2.9555 0
M  V30 6897 O 73.3096 -8.53963 -1.90717 0
M  V30 6898 C 72.8196 -6.4116 -2.90739 0
M  V30 6899 C 73.5296 -5.55375 -1.86963 0
M  V30 6900 N 73.4796 -4.09664 -2.15742 0
M  V30 6901 H 76.3186 -7.45574 -4.45629 0
M  V30 6902 H 76.5906 -5.86232 -3.67314 0
M  V30 6903 H 75.7226 -7.84412 -2.24479 0
M  V30 6904 P 71.7596 -8.7635 -1.60911 0
M  V30 6905 O 71.5396 -10.1388 -1.11561 0
M  V30 6906 O 70.9696 -8.36503 -2.79617 0
M  V30 6907 O 71.5096 -7.71806 -0.42951 0
M  V30 6908 C 72.4496 -7.66948 0.673514 0
M  V30 6909 C 71.7196 -7.33374 1.95559 0
M  V30 6910 O 71.5096 -5.88721 2.00726 0
M  V30 6911 C 70.3196 -7.92218 2.1125 0
M  V30 6912 O 69.9296 -8.02971 3.47653 0
M  V30 6913 C 69.4396 -6.89504 1.41631 0
M  V30 6914 C 70.1496 -5.59106 1.75155 0
M  V30 6915 N 70.0996 -4.58136 0.662409 0
M  V30 6916 C 69.9496 -3.26059 1.02863 0
M  V30 6917 O 69.8596 -2.90743 2.19009 0
M  V30 6918 N 69.9096 -2.35995 -0.0155585 0
M  V30 6919 C 69.9996 -2.65248 -1.35603 0
M  V30 6920 C 70.1496 -4.05747 -1.64698 0
M  V30 6921 C 70.1996 -4.96734 -0.652411 0
M  V30 6922 H 72.9406 -8.64917 0.776982 0
M  V30 6923 H 73.2096 -6.89974 0.474015 0
M  V30 6924 H 72.3426 -7.66548 2.79458 0
M  V30 6925 H 69.6876 -5.16076 2.65138 0
M  V30 6926 H 69.4086 -7.06433 0.329384 0
M  V30 6927 H 68.4166 -6.90829 1.81996 0
M  V30 6928 H 70.2506 -8.90774 1.62639 0
M  V30 6929 H 70.3216 -6.02181 -0.895285 0
M  V30 6930 P 68.3796 -8.03563 3.84925 0
M  V30 6931 O 68.1596 -8.85821 5.0569 0
M  V30 6932 O 67.5896 -8.41101 2.65469 0
M  V30 6933 O 68.1296 -6.4965 4.18908 0
M  V30 6934 C 69.0696 -5.81037 5.05421 0
M  V30 6935 C 68.3396 -4.78366 5.89277 0
M  V30 6936 O 68.1296 -3.58302 5.08433 0
M  V30 6937 C 66.9396 -5.17448 6.36119 0
M  V30 6938 O 66.5496 -4.45271 7.53232 0
M  V30 6939 C 66.0596 -4.74639 5.19936 0
M  V30 6940 C 66.7696 -3.49432 4.70418 0
M  V30 6941 N 66.7196 -3.31776 3.22945 0
M  V30 6942 H 69.5586 -6.54213 5.71376 0
M  V30 6943 H 69.8306 -5.30492 4.44033 0
M  V30 6944 H 68.9626 -4.55889 6.76652 0
M  V30 6945 P 64.9996 -4.23843 7.83734 0
M  V30 6946 O 64.7796 -4.19407 9.29784 0
M  V30 6947 O 64.2096 -5.24426 7.09156 0
M  V30 6948 O 64.7496 -2.7935 7.20758 0
M  V30 6949 C 65.6896 -1.7299 7.50419 0
M  V30 6950 C 64.9596 -0.406376 7.57911 0
M  V30 6951 O 64.7496 0.0897726 6.21935 0
M  V30 6952 C 63.5596 -0.447224 8.1878 0
M  V30 6953 O 63.1696 0.825065 8.71101 0
M  V30 6954 C 62.6796 -0.783801 6.99623 0
M  V30 6955 C 63.3896 -0.0619192 5.85967 0
M  V30 6956 N 63.3396 -0.7859 4.56281 0
M  V30 6957 H 66.1786 -1.93423 8.4679 0
M  V30 6958 H 66.4506 -1.68181 6.71046 0
M  V30 6959 H 65.5826 0.289041 8.15388 0
M  V30 6960 P 61.6197 1.17771 8.83182 0
M  V30 6961 O 61.3997 2.07206 9.98732 0
M  V30 6962 O 60.8297 -0.0743816 8.81969 0
M  V30 6963 O 61.3697 1.97678 7.474 0
M  V30 6964 C 62.3097 3.01133 7.08783 0
M  V30 6965 C 61.5797 4.1203 6.37546 0
M  V30 6966 O 61.3697 3.72887 4.9796 0
M  V30 6967 C 60.1797 4.45085 6.88694 0
M  V30 6968 O 59.7897 5.78836 6.56315 0
M  V30 6969 C 59.2997 3.47817 6.12078 0
M  V30 6970 C 60.0097 3.39414 4.77697 0
M  V30 6971 N 59.9597 2.04615 4.15333 0
M  V30 6972 C 59.8097 1.96929 2.77162 0
M  V30 6973 O 59.7197 3.02017 2.12006 0
M  V30 6974 N 59.7597 0.55485 2.24237 0
M  V30 6975 C 59.8597 -0.367808 2.9169 0
M  V30 6976 N 59.8097 -1.53426 2.29427 0
M  V30 6977 C 60.0097 -0.319148 4.33828 0
M  V30 6978 C 60.0597 0.920672 4.90433 0
M  V30 6979 H 62.7997 3.41209 7.98667 0
M  V30 6980 H 63.0697 2.5837 6.41742 0
M  V30 6981 H 62.2027 5.02718 6.42752 0
M  V30 6982 H 59.5477 4.11779 4.09026 0
M  V30 6983 H 59.2677 2.49661 6.61772 0
M  V30 6984 H 58.2767 3.86674 6.00946 0
M  V30 6985 H 60.1107 4.29991 7.97006 0
M  V30 6986 H 60.1827 1.00589 5.98303 0
M  V30 6987 H 60.0807 -1.22639 4.93799 0
M  V30 6988 H 59.6927 -1.56819 1.27167 0
M  V30 6989 H 59.8887 -2.41062 2.83063 0
M  V30 6990 P 58.2397 6.144 6.45285 0
M  V30 6991 O 58.0197 7.54673 6.86199 0
M  V30 6992 O 57.4497 5.12391 7.179 0
M  V30 6993 O 57.9897 5.99158 4.88404 0
M  V30 6994 C 58.9297 6.60234 3.96415 0
M  V30 6995 C 58.1997 7.08259 2.72856 0
M  V30 6996 O 57.9897 5.9427 1.83651 0
M  V30 6997 C 56.7997 7.64886 2.9555 0
M  V30 6998 O 56.4097 8.53963 1.90717 0
M  V30 6999 C 55.9197 6.4116 2.90739 0
M  V30 7000 C 56.6297 5.55375 1.86963 0
M  V30 7001 N 56.5797 4.09664 2.15742 0
M  V30 7002 H 59.4187 7.45574 4.45629 0
M  V30 7003 H 59.6907 5.86232 3.67314 0
M  V30 7004 H 58.8227 7.84412 2.24479 0
M  V30 7005 P 54.8597 8.7635 1.60911 0
M  V30 7006 O 54.6397 10.1388 1.11561 0
M  V30 7007 O 54.0697 8.36503 2.79617 0
M  V30 7008 O 54.6097 7.71906 0.429565 0
M  V30 7009 C 55.5497 7.67148 -0.673689 0
M  V30 7010 C 54.8197 7.33666 -1.94851 0
M  V30 7011 O 54.6097 5.88816 -2.00759 0
M  V30 7012 C 53.4197 7.92526 -2.10483 0
M  V30 7013 O 53.0297 8.03063 -3.47693 0
M  V30 7014 C 52.5397 6.89602 -1.41652 0
M  V30 7015 C 53.2497 5.59201 -1.75185 0
M  V30 7016 N 53.1997 4.58235 -0.662552 0
M  V30 7017 C 53.0497 3.24451 -1.01643 0
M  V30 7018 O 52.9597 2.94958 -2.21722 0
M  V30 7019 N 52.9997 2.30408 0.165238 0
M  V30 7020 C 53.0997 2.66048 1.25118 0
M  V30 7021 N 53.0497 1.70787 2.16813 0
M  V30 7022 C 53.2497 4.02732 1.64413 0
M  V30 7023 C 53.2997 4.9488 0.63991 0
M  V30 7024 H 56.0397 8.65017 -0.777072 0
M  V30 7025 H 56.3097 6.90173 -0.474152 0
M  V30 7026 H 55.4427 7.66642 -2.79492 0
M  V30 7027 H 52.7877 5.16254 -2.65229 0
M  V30 7028 H 52.5077 7.06532 -0.329431 0
M  V30 7029 H 51.5167 6.91023 -1.82047 0
M  V30 7030 H 53.3507 8.90873 -1.62657 0
M  V30 7031 H 53.4227 6.00104 0.892197 0
M  V30 7032 H 53.3207 4.31733 2.69229 0
M  V30 7033 H 52.9327 0.724835 1.8844 0
M  V30 7034 H 53.1287 1.94716 3.16734 0
M  V30 7035 P 51.4797 8.03563 -3.84925 0
M  V30 7036 O 51.2597 8.85821 -5.0569 0
M  V30 7037 O 50.6897 8.41101 -2.65469 0
M  V30 7038 O 51.2297 6.4965 -4.18908 0
M  V30 7039 C 52.1697 5.81037 -5.05421 0
M  V30 7040 C 51.4397 4.78366 -5.89277 0
M  V30 7041 O 51.2297 3.58302 -5.08433 0
M  V30 7042 C 50.0397 5.17448 -6.36119 0
M  V30 7043 O 49.6497 4.45271 -7.53232 0
M  V30 7044 C 49.1597 4.74639 -5.19936 0
M  V30 7045 C 49.8697 3.49432 -4.70418 0
M  V30 7046 N 49.8197 3.31776 -3.22945 0
M  V30 7047 H 52.6587 6.54213 -5.71376 0
M  V30 7048 H 52.9307 5.30492 -4.44033 0
M  V30 7049 H 52.0627 4.55889 -6.76652 0
M  V30 7050 P 48.0997 4.23843 -7.83734 0
M  V30 7051 O 47.8797 4.19407 -9.29784 0
M  V30 7052 O 47.3097 5.24426 -7.09156 0
M  V30 7053 O 47.8497 2.7935 -7.20758 0
M  V30 7054 C 48.7897 1.7299 -7.50419 0
M  V30 7055 C 48.0597 0.406376 -7.57911 0
M  V30 7056 O 47.8497 -0.0897726 -6.21935 0
M  V30 7057 C 46.6597 0.447224 -8.1878 0
M  V30 7058 O 46.2697 -0.825065 -8.71101 0
M  V30 7059 C 45.7797 0.783801 -6.99623 0
M  V30 7060 C 46.4897 0.0619192 -5.85967 0
M  V30 7061 N 46.4397 0.7859 -4.56281 0
M  V30 7062 H 49.2787 1.93423 -8.4679 0
M  V30 7063 H 49.5507 1.68181 -6.71046 0
M  V30 7064 H 48.6827 -0.289041 -8.15388 0
M  V30 7065 P 44.7198 -1.17771 -8.83182 0
M  V30 7066 O 44.4998 -2.07206 -9.98732 0
M  V30 7067 O 43.9298 0.0743816 -8.81969 0
M  V30 7068 O 44.4698 -1.97652 -7.47304 0
M  V30 7069 C 45.4098 -3.01133 -7.08783 0
M  V30 7070 C 44.6798 -4.12613 -6.37049 0
M  V30 7071 O 44.4698 -3.72827 -4.97879 0
M  V30 7072 C 43.2798 -4.45085 -6.88694 0
M  V30 7073 O 42.8898 -5.7877 -6.5624 0
M  V30 7074 C 42.3998 -3.47817 -6.12078 0
M  V30 7075 C 43.1098 -3.39414 -4.77697 0
M  V30 7076 N 43.0598 -2.04615 -4.15333 0
M  V30 7077 H 45.8988 -3.41248 -7.98759 0
M  V30 7078 H 46.1708 -2.5837 -6.41742 0
M  V30 7079 H 45.3028 -5.02657 -6.42673 0
M  V30 7080 P 41.3398 -6.144 -6.45285 0
M  V30 7081 O 41.1198 -7.54673 -6.86199 0
M  V30 7082 O 40.5498 -5.12391 -7.179 0
M  V30 7083 O 41.0898 -5.99158 -4.88404 0
M  V30 7084 C 42.0298 -6.60234 -3.96415 0
M  V30 7085 C 41.2998 -7.08259 -2.72856 0
M  V30 7086 O 41.0898 -5.9427 -1.83651 0
M  V30 7087 C 39.8998 -7.64886 -2.9555 0
M  V30 7088 O 39.5098 -8.53963 -1.90717 0
M  V30 7089 C 39.0198 -6.4116 -2.90739 0
M  V30 7090 C 39.7298 -5.55375 -1.86963 0
M  V30 7091 N 39.6798 -4.09664 -2.15742 0
M  V30 7092 C 39.7598 -3.44381 -3.37233 0
M  V30 7093 N 39.6798 -2.14131 -3.28347 0
M  V30 7094 C 39.5398 -1.90247 -1.91588 0
M  V30 7095 C 39.4098 -0.683992 -1.20892 0
M  V30 7096 O 39.3898 0.46618 -1.64523 0
M  V30 7097 N 39.2898 -0.903396 0.173998 0
M  V30 7098 C 39.2898 -2.14171 0.784879 0
M  V30 7099 N 39.1598 -2.1435 2.11317 0
M  V30 7100 N 39.4198 -3.28784 0.119316 0
M  V30 7101 C 39.5398 -3.0977 -1.22194 0
M  V30 7102 H 42.5188 -7.45574 -4.45629 0
M  V30 7103 H 42.7908 -5.86232 -3.67314 0
M  V30 7104 H 41.9228 -7.84412 -2.24479 0
M  V30 7105 H 39.2678 -5.73556 -0.888715 0
M  V30 7106 H 38.9878 -5.9096 -3.88638 0
M  V30 7107 H 37.9968 -6.66053 -2.58894 0
M  V30 7108 H 39.8308 -8.16429 -3.92093 0
M  V30 7109 H 39.8798 -3.96785 -4.32043 0
M  V30 7110 H 39.1978 -0.0999567 0.761467 0
M  V30 7111 H 39.1608 -3.03436 2.63076 0
M  V30 7112 H 39.0598 -1.25228 2.62233 0
M  V30 7113 P 37.9598 -8.7635 -1.60911 0
M  V30 7114 O 37.7398 -10.1388 -1.11561 0
M  V30 7115 O 37.1698 -8.36503 -2.79617 0
M  V30 7116 O 37.7098 -7.71806 -0.42951 0
M  V30 7117 C 38.6498 -7.67148 0.673689 0
M  V30 7118 C 37.9198 -7.33374 1.95559 0
M  V30 7119 O 37.7098 -5.88721 2.00726 0
M  V30 7120 C 36.5198 -7.92526 2.10483 0
M  V30 7121 O 36.1298 -8.02971 3.47653 0
M  V30 7122 C 35.6398 -6.89602 1.41652 0
M  V30 7123 C 36.3498 -5.59201 1.75185 0
M  V30 7124 N 36.2998 -4.58301 0.657969 0
M  V30 7125 H 39.1388 -8.65116 0.777161 0
M  V30 7126 H 39.4108 -6.9022 0.46725 0
M  V30 7127 H 38.5428 -7.66548 2.79458 0
M  V30 7128 H 35.8878 -5.16165 2.65183 0
M  V30 7129 H 35.6078 -7.06433 0.329384 0
M  V30 7130 H 34.6168 -6.90926 1.82021 0
M  V30 7131 H 36.4508 -8.90873 1.62657 0
M  V30 7132 P 34.5798 -8.03563 3.84925 0
M  V30 7133 O 34.3598 -8.85821 5.0569 0
M  V30 7134 O 33.7898 -8.41101 2.65469 0
M  V30 7135 O 34.3298 -6.4965 4.18908 0
M  V30 7136 C 35.2698 -5.81037 5.05421 0
M  V30 7137 C 34.5398 -4.78366 5.89277 0
M  V30 7138 O 34.3298 -3.58302 5.08433 0
M  V30 7139 C 33.1398 -5.17448 6.36119 0
M  V30 7140 O 32.7498 -4.45271 7.53232 0
M  V30 7141 C 32.2598 -4.74639 5.19936 0
M  V30 7142 C 32.9698 -3.49432 4.70418 0
M  V30 7143 N 32.9198 -3.31776 3.22945 0
M  V30 7144 H 35.7588 -6.54213 5.71376 0
M  V30 7145 H 36.0308 -5.30492 4.44033 0
M  V30 7146 H 35.1628 -4.55889 6.76652 0
M  V30 7147 P 31.1998 -4.23843 7.83734 0
M  V30 7148 O 30.9798 -4.19407 9.29784 0
M  V30 7149 O 30.4098 -5.24426 7.09156 0
M  V30 7150 O 30.9498 -2.7935 7.20758 0
M  V30 7151 C 31.8898 -1.72945 7.50224 0
M  V30 7152 C 31.1598 -0.406376 7.57911 0
M  V30 7153 O 30.9498 0.0897726 6.21935 0
M  V30 7154 C 29.7598 -0.438983 8.18724 0
M  V30 7155 O 29.3698 0.825065 8.71101 0
M  V30 7156 C 28.8798 -0.783689 6.99524 0
M  V30 7157 C 29.5898 -0.0619086 5.85867 0
M  V30 7158 N 29.5398 -0.78573 4.56183 0
M  V30 7159 C 29.3898 -0.0292889 3.41887 0
M  V30 7160 O 29.2998 1.18445 3.4419 0
M  V30 7161 N 29.3498 -0.744061 2.23964 0
M  V30 7162 C 29.4398 -2.10932 2.10362 0
M  V30 7163 O 29.3898 -2.64117 0.98825 0
M  V30 7164 C 29.5898 -2.8202 3.34994 0
M  V30 7165 C 29.6998 -4.31095 3.25037 0
M  V30 7166 C 29.6398 -2.15547 4.52261 0
M  V30 7167 H 32.3808 -1.93379 8.46595 0
M  V30 7168 H 32.6498 -1.68132 6.70852 0
M  V30 7169 H 31.7828 0.289041 8.15388 0
M  V30 7170 H 29.1278 0.926847 5.72749 0
M  V30 7171 H 28.8488 -1.86973 6.82036 0
M  V30 7172 H 27.8568 -0.403896 7.13257 0
M  V30 7173 H 29.6908 -1.20585 8.97435 0
M  V30 7174 H 29.7618 -2.71231 5.45042 0
M  V30 7175 H 28.7318 -4.76966 3.49992 0
M  V30 7176 H 30.4688 -4.67047 3.95024 0
M  V30 7177 H 29.9808 -4.58996 2.22312 0
M  V30 7178 H 29.2448 -0.214893 1.39758 0
M  V30 7179 P 27.8199 1.17771 8.83182 0
M  V30 7180 O 27.5999 2.07206 9.98732 0
M  V30 7181 O 27.0299 -0.0743816 8.81969 0
M  V30 7182 O 27.5699 1.97652 7.47304 0
M  V30 7183 C 28.5099 3.01133 7.08783 0
M  V30 7184 C 27.7799 4.12613 6.37049 0
M  V30 7185 O 27.5699 3.72827 4.97879 0
M  V30 7186 C 26.3799 4.45085 6.88694 0
M  V30 7187 O 25.9899 5.7877 6.5624 0
M  V30 7188 C 25.4999 3.47817 6.12078 0
M  V30 7189 C 26.2099 3.39414 4.77697 0
M  V30 7190 N 26.1599 2.04615 4.15333 0
M  V30 7191 H 28.9989 3.41248 7.98759 0
M  V30 7192 H 29.2709 2.5837 6.41742 0
M  V30 7193 H 28.4029 5.02657 6.42673 0
M  V30 7194 P 24.4399 6.144 6.45285 0
M  V30 7195 O 24.2199 7.54673 6.86199 0
M  V30 7196 O 23.6499 5.12391 7.179 0
M  V30 7197 O 24.1899 5.99158 4.88404 0
M  V30 7198 C 25.1299 6.60234 3.96415 0
M  V30 7199 C 24.3999 7.08259 2.72856 0
M  V30 7200 O 24.1899 5.9427 1.83651 0
M  V30 7201 C 22.9999 7.64886 2.9555 0
M  V30 7202 O 22.6099 8.53963 1.90717 0
M  V30 7203 C 22.1199 6.4116 2.90739 0
M  V30 7204 C 22.8299 5.55375 1.86963 0
M  V30 7205 N 22.7799 4.09664 2.15742 0
M  V30 7206 H 25.6189 7.45574 4.45629 0
M  V30 7207 H 25.8909 5.86232 3.67314 0
M  V30 7208 H 25.0229 7.84412 2.24479 0
M  V30 7209 P 21.0599 8.7635 1.60911 0
M  V30 7210 O 20.8399 10.1388 1.11561 0
M  V30 7211 O 20.2699 8.36503 2.79617 0
M  V30 7212 O 20.8099 7.71806 0.42951 0
M  V30 7213 C 21.7499 7.67148 -0.673689 0
M  V30 7214 C 21.0199 7.33374 -1.95559 0
M  V30 7215 O 20.8099 5.88721 -2.00726 0
M  V30 7216 C 19.6199 7.92526 -2.10483 0
M  V30 7217 O 19.2299 8.02971 -3.47653 0
M  V30 7218 C 18.7399 6.89602 -1.41652 0
M  V30 7219 C 19.4499 5.59201 -1.75185 0
M  V30 7220 N 19.3999 4.58235 -0.662552 0
M  V30 7221 H 22.2389 8.65116 -0.777161 0
M  V30 7222 H 22.5109 6.90173 -0.474152 0
M  V30 7223 H 21.6429 7.66548 -2.79458 0
M  V30 7224 P 17.6799 8.03563 -3.84925 0
M  V30 7225 O 17.4599 8.85821 -5.0569 0
M  V30 7226 O 16.8899 8.41101 -2.65469 0
M  V30 7227 O 17.4299 6.4965 -4.18908 0
M  V30 7228 C 18.3699 5.80886 -5.05289 0
M  V30 7229 C 17.6399 4.78366 -5.89277 0
M  V30 7230 O 17.4299 3.58302 -5.08433 0
M  V30 7231 C 16.2399 5.16748 -6.36559 0
M  V30 7232 O 15.8499 4.45271 -7.53232 0
M  V30 7233 C 15.3599 4.74572 -5.19863 0
M  V30 7234 C 16.0699 3.49373 -4.70338 0
M  V30 7235 N 16.0199 3.31704 -3.22876 0
M  V30 7236 C 15.8699 2.03326 -2.74871 0
M  V30 7237 O 15.7799 1.06486 -3.48076 0
M  V30 7238 N 15.8299 1.91838 -1.37456 0
M  V30 7239 C 15.9199 2.94295 -0.462035 0
M  V30 7240 C 16.0699 4.25064 -1.05249 0
M  V30 7241 C 16.1199 4.40214 -2.39192 0
M  V30 7242 H 18.8609 6.54063 -5.71245 0
M  V30 7243 H 19.1299 5.30339 -4.43905 0
M  V30 7244 H 18.2629 4.55889 -6.76652 0
M  V30 7245 H 15.6079 2.6167 -5.17842 0
M  V30 7246 H 15.3289 5.52155 -4.41878 0
M  V30 7247 H 14.3369 4.51918 -5.53297 0
M  V30 7248 H 16.1709 6.25055 -6.55162 0
M  V30 7249 H 16.2419 5.39798 -2.81523 0
M  V30 7250 P 14.2999 4.23843 -7.83734 0
M  V30 7251 O 14.0799 4.19407 -9.29784 0
M  V30 7252 O 13.5099 5.24426 -7.09156 0
M  V30 7253 O 14.0499 2.7935 -7.20758 0
M  V30 7254 C 14.9899 1.7299 -7.50419 0
M  V30 7255 C 14.2599 0.406376 -7.57911 0
M  V30 7256 O 14.0499 -0.0897726 -6.21935 0
M  V30 7257 C 12.8599 0.447224 -8.1878 0
M  V30 7258 O 12.4699 -0.825065 -8.71101 0
M  V30 7259 C 11.9799 0.783801 -6.99623 0
M  V30 7260 C 12.6899 0.0619192 -5.85967 0
M  V30 7261 N 12.6399 0.790462 -4.56202 0
M  V30 7262 H 15.4789 1.93423 -8.4679 0
M  V30 7263 H 15.7509 1.68852 -6.70877 0
M  V30 7264 H 14.8829 -0.289041 -8.15388 0
M  V30 7265 H 12.2279 -0.927006 -5.72848 0
M  V30 7266 H 11.9479 1.86973 -6.82036 0
M  V30 7267 H 10.9569 0.403953 -7.13357 0
M  V30 7268 H 12.7909 1.20599 -8.97534 0
M  V30 7269 P 10.92 -1.17771 -8.83182 0
M  V30 7270 O 10.7 -2.07206 -9.98732 0
M  V30 7271 O 10.13 0.0743816 -8.81969 0
M  V30 7272 O 10.67 -1.97678 -7.474 0
M  V30 7273 C 11.61 -3.01133 -7.08783 0
M  V30 7274 C 10.88 -4.1203 -6.37546 0
M  V30 7275 O 10.67 -3.72887 -4.9796 0
M  V30 7276 C 9.47996 -4.45085 -6.88694 0
M  V30 7277 O 9.08996 -5.78836 -6.56315 0
M  V30 7278 C 8.59996 -3.47817 -6.12078 0
M  V30 7279 C 9.30996 -3.39414 -4.77697 0
M  V30 7280 N 9.25996 -2.04615 -4.15333 0
M  V30 7281 C 9.10996 -1.96929 -2.77162 0
M  V30 7282 O 9.01996 -3.02017 -2.12006 0
M  V30 7283 N 9.05996 -0.55485 -2.24237 0
M  V30 7284 C 9.15996 0.367808 -2.9169 0
M  V30 7285 N 9.10996 1.53426 -2.29427 0
M  V30 7286 C 9.30996 0.319148 -4.33828 0
M  V30 7287 C 9.35996 -0.920672 -4.90433 0
M  V30 7288 H 12.1 -3.41209 -7.98667 0
M  V30 7289 H 12.37 -2.5837 -6.41742 0
M  V30 7290 H 11.503 -5.02718 -6.42752 0
M  V30 7291 H 8.84796 -4.11779 -4.09026 0
M  V30 7292 H 8.56796 -2.49661 -6.61772 0
M  V30 7293 H 7.57696 -3.86674 -6.00946 0
M  V30 7294 H 9.41096 -4.29991 -7.97006 0
M  V30 7295 H 9.48296 -1.00589 -5.98303 0
M  V30 7296 H 9.38096 1.22639 -4.93799 0
M  V30 7297 H 8.99296 1.56819 -1.27167 0
M  V30 7298 H 9.18896 2.41062 -2.83063 0
M  V30 7299 P 7.53998 -6.144 -6.45285 0
M  V30 7300 O 7.31998 -7.54673 -6.86199 0
M  V30 7301 O 6.74998 -5.12391 -7.179 0
M  V30 7302 O 7.28998 -5.99158 -4.88404 0
M  V30 7303 C 8.22998 -6.60062 -3.96313 0
M  V30 7304 C 7.49998 -7.08259 -2.72856 0
M  V30 7305 O 7.28998 -5.9427 -1.83651 0
M  V30 7306 C 6.09998 -7.65087 -2.94749 0
M  V30 7307 O 5.70998 -8.53963 -1.90717 0
M  V30 7308 C 5.21998 -6.41069 -2.90698 0
M  V30 7309 C 5.92998 -5.5528 -1.86931 0
M  V30 7310 N 5.87998 -4.09575 -2.15696 0
M  V30 7311 C 5.72998 -3.24249 -1.08435 0
M  V30 7312 O 5.63998 -3.63946 0.0628747 0
M  V30 7313 N 5.68998 -1.90009 -1.39973 0
M  V30 7314 C 5.77998 -1.34884 -2.65614 0
M  V30 7315 O 5.72998 -0.123716 -2.81728 0
M  V30 7316 C 5.92998 -2.3145 -3.71736 0
M  V30 7317 C 6.03998 -1.75913 -5.10438 0
M  V30 7318 C 5.97998 -3.63518 -3.44754 0
M  V30 7319 H 8.72098 -7.45402 -4.45526 0
M  V30 7320 H 8.98998 -5.86062 -3.67208 0
M  V30 7321 H 8.12298 -7.84412 -2.24479 0
M  V30 7322 H 5.46798 -5.73358 -0.888409 0
M  V30 7323 H 5.18898 -5.90877 -3.88583 0
M  V30 7324 H 4.19698 -6.65867 -2.58821 0
M  V30 7325 H 6.03098 -8.16248 -3.92006 0
M  V30 7326 H 6.10198 -4.34551 -4.26383 0
M  V30 7327 H 5.07198 -1.85471 -5.61775 0
M  V30 7328 H 6.80898 -2.31364 -5.66257 0
M  V30 7329 H 6.32098 -0.695936 -5.05229 0
M  V30 7330 H 5.58498 -1.26277 -0.63625 0
M  V30 7331 P 4.16 -8.7635 -1.60911 0
M  V30 7332 O 3.94 -10.1388 -1.11561 0
M  V30 7333 O 3.37 -8.36503 -2.79617 0
M  V30 7334 O 3.91 -7.71806 -0.42951 0
M  V30 7335 C 4.85 -7.67148 0.673689 0
M  V30 7336 C 4.12 -7.33374 1.95559 0
M  V30 7337 O 3.91 -5.88721 2.00726 0
M  V30 7338 C 2.72 -7.92526 2.10483 0
M  V30 7339 O 2.33 -8.02971 3.47653 0
M  V30 7340 C 1.84 -6.89602 1.41652 0
M  V30 7341 C 2.55 -5.59201 1.75185 0
M  V30 7342 N 2.5 -4.58235 0.662552 0
M  V30 7343 H 5.339 -8.65116 0.777161 0
M  V30 7344 H 5.611 -6.90173 0.474152 0
M  V30 7345 H 4.743 -7.66548 2.79458 0
M  V30 7346 H 1.613 -8.66322 3.55694 0
M  V30 END ATOM
M  V30 BEGIN BOND
M  V30 END BOND
M  V30 END CTAB
M  END
$$$$
