drugbank_target|P14061 Estradiol 17-beta-dehydrogenase 1 (DB00157; DB01536; DB01561; DB02187; DB02323; DB02901; DB03461; DB13951)
 OpenBabel12092119263D

  0  0  0     0  0            999 V3000
M  V30 BEGIN CTAB
M  V30 COUNTS 4921 4968 0 0 0
M  V30 BEGIN ATOM
M  V30 1 H -0.908 1.98254 -0.117106 0
M  V30 2 N 0 1.576 0 0
M  V30 3 C 0.933 2.03868 1.02534 0
M  V30 4 C 1.911 0.928543 1.3348 0
M  V30 5 O 3.095 1.19667 1.45644 0
M  V30 6 C 0.222 2.43627 2.35294 0
M  V30 7 C -0.732 3.65373 2.2001 0
M  V30 8 S 0.101 5.13292 1.52614 0
M  V30 9 C 1.257 5.56322 2.86805 0
M  V30 10 H 1.49 2.90518 0.631377 0
M  V30 11 H -0.977 1.52953 0.210867 0
M  V30 12 H 0.981 2.67203 3.11629 0
M  V30 13 H -0.358 1.57376 2.7183 0
M  V30 14 H -1.165 3.90944 3.18086 0
M  V30 15 H -1.563 3.418 1.51819 0
M  V30 16 H 0.729 5.58782 3.83104 0
M  V30 17 H 1.672 6.56266 2.65933 0
M  V30 18 H 2.08 4.83886 2.90714 0
M  V30 19 N 1.4781 -0.272755 1.55222 0
M  V30 20 C 2.4411 -1.32041 1.87344 0
M  V30 21 C 3.4411 -1.42342 0.74803 0
M  V30 22 O 4.6311 -1.41488 1.0162 0
M  V30 23 C 1.7631 -2.70173 2.07893 0
M  V30 24 H 2.9561 -1.04789 2.80997 0
M  V30 25 H 0.5091 -0.51083 1.47717 0
M  V30 26 H 1.2441 -3.02605 1.16622 0
M  V30 27 H 1.0291 -2.64082 2.89833 0
M  V30 28 H 2.5191 -3.45869 2.34017 0
M  V30 29 N 2.9562 -1.48159 -0.537278 0
M  V30 30 C 4.3722 -1.34118 -0.865129 0
M  V30 31 C 4.5722 -0.346678 -1.98495 0
M  V30 32 O 3.6282 0.234715 -2.51407 0
M  V30 33 C 4.9412 -2.73963 -1.23954 0
M  V30 34 C 6.4892 -2.82397 -1.34984 0
M  V30 35 C 6.9642 -4.22928 -1.75772 0
M  V30 36 N 8.4552 -4.25566 -1.82887 0
M  V30 37 C 9.1902 -5.31235 -2.15817 0
M  V30 38 N 8.6862 -6.47189 -2.47222 0
M  V30 39 N 10.4792 -5.18624 -2.16761 0
M  V30 40 H 2.6302 -2.1144 0.201715 0
M  V30 41 H 4.8932 -0.947598 0.0275949 0
M  V30 42 H 4.5992 -3.48264 -0.490381 0
M  V30 43 H 4.4732 -3.0702 -2.19132 0
M  V30 44 H 6.8602 -2.08356 -2.08978 0
M  V30 45 H 6.9412 -2.5297 -0.379448 0
M  V30 46 H 6.5852 -4.97482 -1.02341 0
M  V30 47 H 6.5152 -4.49794 -2.73848 0
M  V30 48 H 9.0062 -3.41924 -1.60924 0
M  V30 49 H 9.3192 -7.23564 -2.71433 0
M  V30 50 H 7.6642 -6.50476 -2.44757 0
M  V30 51 H 10.8552 -4.27056 -1.91679 0
M  V30 52 H 11.0282 -6.01078 -2.42093 0
M  V30 53 N 4.4343 0.785586 -1.36625 0
M  V30 54 C 5.6623 1.57448 -1.3423 0
M  V30 55 C 6.0773 1.88649 0.0755653 0
M  V30 56 O 5.4343 1.50414 1.03354 0
M  V30 57 C 5.4853 2.89316 -2.16745 0
M  V30 58 O 5.2063 2.59459 -3.53005 0
M  V30 59 C 6.7073 3.83606 -2.22174 0
M  V30 60 H 3.9273 0.488226 -0.4603 0
M  V30 61 H 6.4713 0.974733 -1.79775 0
M  V30 62 H 4.6263 3.4575 -1.74745 0
M  V30 63 H 5.0403 3.43804 -3.96105 0
M  V30 64 H 6.5143 4.73181 -2.8426 0
M  V30 65 H 6.9913 4.21734 -1.22627 0
M  V30 66 H 7.5973 3.33104 -2.64427 0
M  V30 67 N 5.9124 1.20967 1.01018 0
M  V30 68 C 7.1584 1.02526 1.74975 0
M  V30 69 C 7.4914 -0.4408 1.89131 0
M  V30 70 O 6.7664 -1.32718 1.42184 0
M  V30 71 C 7.0494 1.71699 3.1653 0
M  V30 72 C 6.9024 3.25791 3.10129 0
M  V30 73 C 8.2214 1.45531 4.15342 0
M  V30 74 H 5.3404 0.373863 0.635134 0
M  V30 75 H 7.9824 1.49071 1.17805 0
M  V30 76 H 6.1324 1.32128 3.65341 0
M  V30 77 H 7.8044 3.74697 2.69072 0
M  V30 78 H 6.0474 3.56363 2.47362 0
M  V30 79 H 6.7184 3.69353 4.10222 0
M  V30 80 H 9.1944 1.79872 3.75213 0
M  V30 81 H 8.0704 1.96453 5.1254 0
M  V30 82 H 8.3314 0.384237 4.40427 0
M  V30 83 N 7.3905 -1.2043 1.01659 0
M  V30 84 C 8.6365 -1.90079 0.706963 0
M  V30 85 C 8.9695 -1.78648 -0.761474 0
M  V30 86 O 8.2445 -1.17069 -1.55323 0
M  V30 87 C 8.5275 -3.41469 1.14327 0
M  V30 88 C 8.3805 -3.61833 2.67201 0
M  V30 89 C 9.6995 -4.34261 0.714529 0
M  V30 90 H 6.8185 -0.690254 0.2583 0
M  V30 91 H 9.4605 -1.41826 1.26433 0
M  V30 92 H 7.6105 -3.82696 0.669056 0
M  V30 93 H 9.2825 -3.2986 3.22475 0
M  V30 94 H 7.5255 -3.05304 3.08175 0
M  V30 95 H 8.1965 -4.67955 2.92783 0
M  V30 96 H 10.6725 -4.00682 1.12221 0
M  V30 97 H 9.5485 -5.38806 1.04784 0
M  V30 98 H 9.8095 -4.40431 -0.383799 0
M  V30 99 N 8.8686 -0.792821 -1.36206 0
M  V30 100 C 9.7986 -0.207853 -2.32573 0
M  V30 101 C 10.7796 0.659055 -1.56813 0
M  V30 102 O 11.9646 0.592176 -1.84951 0
M  V30 103 C 9.0946 0.655449 -3.41059 0
M  V30 104 C 8.0486 -0.111842 -4.27854 0
M  V30 105 C 7.3746 0.872274 -5.27537 0
M  V30 106 C 8.6746 -1.30299 -5.05786 0
M  V30 107 H 10.3686 -1.01294 -2.81744 0
M  V30 108 H 7.9146 -0.48854 -1.3546 0
M  V30 109 H 9.8676 1.07464 -4.07467 0
M  V30 110 H 8.5916 1.49328 -2.90463 0
M  V30 111 H 7.2506 -0.512053 -3.63006 0
M  V30 112 H 6.8986 1.70523 -4.73214 0
M  V30 113 H 6.5986 0.363291 -5.86476 0
M  V30 114 H 8.1226 1.28996 -5.96818 0
M  V30 115 H 9.5366 -0.959379 -5.65216 0
M  V30 116 H 7.9336 -1.7455 -5.74154 0
M  V30 117 H 9.0036 -2.09663 -4.37229 0
M  V30 118 N 10.3467 1.47872 -0.545128 0
M  V30 119 C 11.5957 2.01695 -0.0145033 0
M  V30 120 C 11.9087 1.42609 1.33873 0
M  V30 121 O 13.1147 1.88021 1.95858 0
M  V30 122 C 11.5707 3.59892 0.0245068 0
M  V30 123 C 11.1787 4.27966 -1.32475 0
M  V30 124 C 12.9227 4.21507 0.50316 0
M  V30 125 C 10.8297 5.78136 -1.2455 0
M  V30 126 H 9.7597 0.753998 -0.00165172 0
M  V30 127 H 12.4107 1.69985 -0.691175 0
M  V30 128 H 10.7927 3.88509 0.766575 0
M  V30 129 H 11.9667 4.11003 -2.08357 0
M  V30 130 H 10.2817 3.78286 -1.74036 0
M  V30 131 H 12.8787 5.31538 0.580656 0
M  V30 132 H 13.2217 3.87855 1.51243 0
M  V30 133 H 13.7547 3.97376 -0.183681 0
M  V30 134 H 10.4937 6.16388 -2.23039 0
M  V30 135 H 10.0137 5.97469 -0.528282 0
M  V30 136 H 11.6927 6.40099 -0.942488 0
M  V30 137 N 11.8248 0.280983 1.55075 0
M  V30 138 C 13.0528 -0.337293 2.04132 0
M  V30 139 C 13.4678 -1.4903 1.15912 0
M  V30 140 O 12.8248 -1.81606 0.180459 0
M  V30 141 C 12.8758 -0.812706 3.52246 0
M  V30 142 O 12.5968 0.294387 4.3711 0
M  V30 143 C 14.0978 -1.4982 4.17216 0
M  V30 144 H 11.3178 -0.0761638 0.666663 0
M  V30 145 H 13.8618 0.414787 2.00249 0
M  V30 146 H 12.0168 -1.51486 3.56554 0
M  V30 147 H 12.4308 -0.0721325 5.2445 0
M  V30 148 H 13.9048 -1.7822 5.22438 0
M  V30 149 H 14.3818 -2.43168 3.65741 0
M  V30 150 H 14.9878 -0.839742 4.16927 0
M  V30 151 N 13.3029 -1.57598 0.00835791 0
M  V30 152 C 14.5509 -1.90551 -0.6734 0
M  V30 153 C 14.8719 -0.883301 -1.73847 0
M  V30 154 O 14.1419 0.0781442 -1.95744 0
M  V30 155 H 12.7219 -0.703312 -0.251717 0
M  V30 156 H 15.3839 -1.94833 0.0512592 0
M  V30 157 H 14.4799 -2.9056 -1.13935 0
M  V30 158 N 14.781 0.264519 -1.55364 0
M  V30 159 C 16.021 1.00254 -1.78125 0
M  V30 160 C 16.385 1.83187 -0.575017 0
M  V30 161 O 17.586 2.60029 -0.681042 0
M  V30 162 C 15.857 1.85478 -3.05504 0
M  V30 163 S 17.416 2.6543 -3.49417 0
M  V30 164 H 14.234 0.337522 -0.625779 0
M  V30 165 H 16.836 0.272111 -1.93597 0
M  V30 166 H 15.54 1.23491 -3.9138 0
M  V30 167 H 15.071 2.62827 -2.92721 0
M  V30 168 H 17.086 3.87958 -3.09359 0
M  V30 169 N 16.2591 1.48442 0.529413 0
M  V30 170 C 17.4841 1.60406 1.31471 0
M  V30 171 C 17.9091 0.264738 1.86228 0
M  V30 172 O 17.2671 -0.763668 1.64432 0
M  V30 173 C 17.3151 2.65419 2.44101 0
M  V30 174 O 16.4191 2.22618 3.47153 0
M  V30 175 H 15.7601 0.537863 0.389357 0
M  V30 176 H 18.2901 1.94432 0.636965 0
M  V30 177 H 18.3001 2.86709 2.90279 0
M  V30 178 H 16.9751 3.62652 2.03608 0
M  V30 179 H 15.5521 2.11543 3.0709 0
M  V30 180 N 17.7372 -0.778329 1.37039 0
M  V30 181 C 18.9622 -1.57248 1.35233 0
M  V30 182 C 19.3872 -1.87999 -0.0615568 0
M  V30 183 O 18.7452 -1.48734 -1.03672 0
M  V30 184 C 18.7932 -2.86353 2.19167 0
M  V30 185 O 17.8972 -3.80442 1.59178 0
M  V30 186 H 17.2382 -0.476569 0.462362 0
M  V30 187 H 19.7682 -0.963853 1.80474 0
M  V30 188 H 19.7782 -3.35519 2.32145 0
M  V30 189 H 18.4532 -2.63299 3.21942 0
M  V30 190 H 17.0302 -3.39067 1.55203 0
M  V30 191 N 19.2153 -1.21501 -1.00376 0
M  V30 192 C 20.4633 -1.03095 -1.73827 0
M  V30 193 C 20.7843 0.436341 -1.90055 0
M  V30 194 O 20.0543 1.31466 -1.45236 0
M  V30 195 H 18.6343 -0.378487 -0.644016 0
M  V30 196 H 21.2963 -1.52831 -1.20949 0
M  V30 197 H 20.3923 -1.49991 -2.73695 0
M  V30 198 N 20.6934 1.19889 -1.02296 0
M  V30 199 C 21.9424 1.88743 -0.711257 0
M  V30 200 C 22.2554 1.80112 0.762817 0
M  V30 201 O 23.4614 2.44161 1.18733 0
M  V30 202 C 21.9174 3.38525 -1.22185 0
M  V30 203 C 21.5254 3.55727 -2.72328 0
M  V30 204 C 23.2694 4.12893 -0.985864 0
M  V30 205 C 21.1764 4.99369 -3.16835 0
M  V30 206 H 20.1064 0.706885 -0.262353 0
M  V30 207 H 22.7574 1.35586 -1.23648 0
M  V30 208 H 21.1394 3.91044 -0.624571 0
M  V30 209 H 22.3134 3.13564 -3.3766 0
M  V30 210 H 20.6284 2.94739 -2.9414 0
M  V30 211 H 23.2254 5.18813 -1.29374 0
M  V30 212 H 23.5684 4.16228 0.0775055 0
M  V30 213 H 24.1014 3.66494 -1.54684 0
M  V30 214 H 20.8404 5.01193 -4.22476 0
M  V30 215 H 20.3604 5.42317 -2.56228 0
M  V30 216 H 22.0394 5.67988 -3.09837 0
M  V30 217 N 22.1715 0.800033 1.35784 0
M  V30 218 C 23.4195 0.376597 1.9856 0
M  V30 219 C 23.7405 -1.05812 1.63795 0
M  V30 220 O 23.0105 -1.73103 0.917171 0
M  V30 221 H 21.5905 0.136261 0.734467 0
M  V30 222 H 24.2525 1.02442 1.65806 0
M  V30 223 H 23.3485 0.477002 3.08433 0
M  V30 224 N 23.6496 -1.47581 0.552962 0
M  V30 225 C 24.5796 -2.32762 -0.185451 0
M  V30 226 C 25.5606 -1.43527 -0.912905 0
M  V30 227 O 26.7456 -1.72388 -0.894201 0
M  V30 228 C 23.8756 -3.25219 -1.21859 0
M  V30 229 C 22.8296 -4.23661 -0.607864 0
M  V30 230 C 22.1556 -5.05413 -1.74533 0
M  V30 231 C 23.4556 -5.20481 0.435582 0
M  V30 232 H 25.1496 -2.94749 0.525684 0
M  V30 233 H 22.6956 -1.41738 0.254251 0
M  V30 234 H 24.6486 -3.8365 -1.7433 0
M  V30 235 H 23.3726 -2.61279 -1.95961 0
M  V30 236 H 22.0316 -3.66451 -0.104489 0
M  V30 237 H 21.6796 -4.3788 -2.47529 0
M  V30 238 H 21.3796 -5.72059 -1.34249 0
M  V30 239 H 22.9036 -5.66701 -2.27338 0
M  V30 240 H 24.3176 -5.733 -0.00290157 0
M  V30 241 H 22.7146 -5.95305 0.757067 0
M  V30 242 H 23.7846 -4.66217 1.33303 0
M  V30 243 N 25.1277 -0.289203 -1.54924 0
M  V30 244 C 26.0777 0.606939 -2.19773 0
M  V30 245 C 27.0617 1.10783 -1.16687 0
M  V30 246 O 28.2537 1.05057 -1.4245 0
M  V30 247 C 25.3827 1.78398 -2.93307 0
M  V30 248 C 24.4687 1.29961 -4.03697 0
M  V30 249 N 24.8597 0.532377 -5.0299 0
M  V30 250 C 23.1577 1.58136 -4.17024 0
M  V30 251 C 23.8587 0.275912 -5.81045 0
M  V30 252 N 22.8347 0.852365 -5.36876 0
M  V30 253 H 26.6367 0.0130779 -2.93897 0
M  V30 254 H 24.1507 -0.09341 -1.62131 0
M  V30 255 H 26.1477 2.43741 -3.38225 0
M  V30 256 H 24.8077 2.38166 -2.20697 0
M  V30 257 H 25.8187 0.17838 -5.17593 0
M  V30 258 H 22.4957 2.18738 -3.55612 0
M  V30 259 H 23.8857 -0.339502 -6.71042 0
M  V30 260 N 26.6058 1.57591 -0.0167156 0
M  V30 261 C 27.5358 2.12496 0.967858 0
M  V30 262 C 28.5168 1.03807 1.34752 0
M  V30 263 O 29.7018 1.31577 1.42833 0
M  V30 264 C 26.8318 2.64194 2.25431 0
M  V30 265 C 25.7858 3.77559 2.01576 0
M  V30 266 C 25.1118 4.15636 3.36379 0
M  V30 267 C 26.4118 5.04151 1.36489 0
M  V30 268 H 28.1058 2.95013 0.510643 0
M  V30 269 H 25.6518 1.41915 0.244181 0
M  V30 270 H 27.6048 3.01236 2.94678 0
M  V30 271 H 26.3288 1.78821 2.73296 0
M  V30 272 H 24.9878 3.40937 1.34751 0
M  V30 273 H 24.6358 3.27263 3.81979 0
M  V30 274 H 24.3358 4.92022 3.21229 0
M  V30 275 H 25.8598 4.5525 4.06915 0
M  V30 276 H 27.2738 5.38857 1.95718 0
M  V30 277 H 25.6708 5.85453 1.31776 0
M  V30 278 H 26.7408 4.83733 0.336219 0
M  V30 279 N 28.0839 -0.256276 1.55502 0
M  V30 280 C 29.0469 -1.30047 1.88734 0
M  V30 281 C 30.0469 -1.4154 0.763086 0
M  V30 282 O 31.2369 -1.40403 1.03115 0
M  V30 283 C 28.3689 -2.67953 2.10747 0
M  V30 284 H 29.5619 -1.01802 2.82093 0
M  V30 285 H 27.1149 -0.495134 1.4825 0
M  V30 286 H 27.8499 -3.01351 1.19825 0
M  V30 287 H 27.6349 -2.60993 2.92617 0
M  V30 288 H 29.1249 -3.43368 2.37673 0
M  V30 289 N 29.562 -1.4872 -0.521534 0
M  V30 290 C 30.808 -1.574 -1.27879 0
M  V30 291 C 31.141 -0.250817 -1.92573 0
M  V30 292 O 30.416 0.743934 -1.79711 0
M  V30 293 C 30.699 -2.71843 -2.36164 0
M  V30 294 C 30.552 -4.13893 -1.76105 0
M  V30 295 C 31.871 -2.82008 -3.37875 0
M  V30 296 H 28.99 -0.572941 -0.463581 0
M  V30 297 H 31.632 -1.80927 -0.580119 0
M  V30 298 H 29.782 -2.51914 -2.95756 0
M  V30 299 H 31.454 -4.45284 -1.20499 0
M  V30 300 H 29.697 -4.20498 -1.06601 0
M  V30 301 H 30.368 -4.89804 -2.5455 0
M  V30 302 H 32.844 -3.00086 -2.88249 0
M  V30 303 H 31.72 -3.63796 -4.11028 0
M  V30 304 H 31.981 -1.90511 -3.98946 0
M  V30 305 N 31.0401 0.771051 -1.3745 0
M  V30 306 C 32.4561 1.07171 -1.18265 0
M  V30 307 C 32.6561 2.01491 -0.019287 0
M  V30 308 O 31.7121 2.44244 0.640408 0
M  V30 309 C 33.0251 1.66854 -2.50161 0
M  V30 310 C 34.5731 1.79109 -2.56689 0
M  V30 311 C 35.0481 2.42205 -3.88717 0
M  V30 312 N 36.5391 2.49655 -3.90162 0
M  V30 313 C 37.2741 2.9933 -4.8907 0
M  V30 314 N 36.7701 3.49172 -5.98374 0
M  V30 315 N 38.5631 2.9821 -4.76474 0
M  V30 316 H 30.7141 0.144796 -2.11906 0
M  V30 317 H 32.9771 0.126863 -0.939473 0
M  V30 318 H 32.6831 1.05017 -3.35655 0
M  V30 319 H 32.5571 2.6614 -2.673 0
M  V30 320 H 34.9441 2.40077 -1.71601 0
M  V30 321 H 35.0251 0.785757 -2.43433 0
M  V30 322 H 34.6691 1.81875 -4.74219 0
M  V30 323 H 34.5991 3.43345 -3.99276 0
M  V30 324 H 37.0901 2.14383 -3.11205 0
M  V30 325 H 37.4031 3.8548 -6.69795 0
M  V30 326 H 35.7481 3.47275 -6.02018 0
M  V30 327 H 38.9391 2.58572 -3.90203 0
M  V30 328 H 39.1121 3.36613 -5.53711 0
M  V30 329 N 32.5182 1.22032 0.997298 0
M  V30 330 C 33.4482 1.01065 2.10495 0
M  V30 331 C 34.4292 -0.0669542 1.69968 0
M  V30 332 O 35.6142 0.0943987 1.9397 0
M  V30 333 C 32.7442 0.582874 3.42374 0
M  V30 334 C 31.6982 1.60592 3.96729 0
M  V30 335 C 31.0242 1.03412 5.24605 0
M  V30 336 C 32.3242 2.99478 4.27914 0
M  V30 337 H 34.0182 1.93708 2.28292 0
M  V30 338 H 31.5642 0.932761 1.09707 0
M  V30 339 H 33.5172 0.423332 4.19268 0
M  V30 340 H 32.2412 -0.379213 3.24391 0
M  V30 341 H 30.9002 1.75316 3.21963 0
M  V30 342 H 30.5482 0.063518 5.0296 0
M  V30 343 H 30.2482 1.71754 5.61938 0
M  V30 344 H 31.7722 0.886066 6.04137 0
M  V30 345 H 33.1862 2.88153 4.95622 0
M  V30 346 H 31.5832 3.64903 4.76409 0
M  V30 347 H 32.6532 3.49742 3.3587 0
M  V30 348 N 33.9963 -1.19345 1.0293 0
M  V30 349 C 34.9593 -2.20793 0.615069 0
M  V30 350 C 35.9593 -1.57553 -0.321533 0
M  V30 351 O 37.1493 -1.73862 -0.108483 0
M  V30 352 C 34.2813 -3.40754 -0.0999222 0
M  V30 353 H 35.4743 -2.58955 1.51269 0
M  V30 354 H 33.0273 -1.3303 0.820534 0
M  V30 355 H 33.7623 -3.0811 -1.01187 0
M  V30 356 H 33.5473 -3.87889 0.57309 0
M  V30 357 H 35.0373 -4.15898 -0.376645 0
M  V30 358 N 35.4744 -0.807222 -1.35358 0
M  V30 359 C 36.6994 -0.399309 -2.0352 0
M  V30 360 C 37.1244 0.981986 -1.60433 0
M  V30 361 O 36.4824 1.63601 -0.781299 0
M  V30 362 C 36.5304 -0.491552 -3.57234 0
M  V30 363 O 35.6344 0.494754 -4.09421 0
M  V30 364 H 34.9754 -0.166682 -0.642739 0
M  V30 365 H 37.5054 -1.09328 -1.72941 0
M  V30 366 H 37.5154 -0.361588 -4.06395 0
M  V30 367 H 36.1904 -1.49907 -3.87944 0
M  V30 368 H 34.7674 0.324977 -3.71481 0
M  V30 369 N 36.9525 1.47285 -0.560781 0
M  V30 370 C 38.2295 1.9558 0.0277798 0
M  V30 371 C 38.6095 1.5034 1.48192 0
M  V30 372 O 37.9575 0.743882 2.16052 0
M  V30 373 C 38.1675 3.48789 -0.121418 0
M  V30 374 C 39.5155 4.24594 0.0220912 0
M  V30 375 O 40.5395 3.56166 -0.0491439 0
M  V30 376 O 39.3985 5.46217 0.175958 0
M  V30 377 H 36.4925 0.824663 0.0621342 0
M  V30 378 H 39.0385 1.5767 -0.627556 0
M  V30 379 H 37.8105 3.74533 -1.13316 0
M  V30 380 H 37.4335 3.93473 0.571366 0
M  V30 381 N 38.4306 0.297415 1.54768 0
M  V30 382 C 39.8416 -0.195947 1.85669 0
M  V30 383 C 40.1926 -1.53707 1.21937 0
M  V30 384 O 39.3176 -2.10164 0.515754 0
M  V30 385 C 39.9126 -0.362318 3.36857 0
M  V30 386 C 38.4716 -0.799901 3.67802 0
M  V30 387 C 37.6186 0.0938578 2.77141 0
M  V30 388 H 40.5696 0.518538 1.4999 0
M  V30 389 H 40.5906 -1.19745 3.61167 0
M  V30 390 H 40.1026 0.613921 3.83214 0
M  V30 391 H 38.2036 -1.78682 3.26961 0
M  V30 392 H 38.3166 -0.621773 4.75048 0
M  V30 393 H 36.6806 -0.426254 2.51108 0
M  V30 394 H 37.4636 1.06639 3.26318 0
M  V30 395 N 39.9087 -1.5758 0.0250728 0
M  V30 396 C 41.1337 -1.96337 -0.668317 0
M  V30 397 C 41.5587 -0.901314 -1.651 0
M  V30 398 O 40.9167 0.138187 -1.80773 0
M  V30 399 C 40.9647 -3.34191 -1.35457 0
M  V30 400 O 40.0687 -3.30269 -2.46974 0
M  V30 401 H 39.4097 -0.640281 -0.175887 0
M  V30 402 H 41.9397 -2.0442 0.0857224 0
M  V30 403 H 41.9497 -3.70331 -1.71228 0
M  V30 404 H 40.6247 -4.11036 -0.634218 0
M  V30 405 H 39.2017 -3.05841 -2.13344 0
M  V30 406 N 41.3868 0.248026 -1.55636 0
M  V30 407 C 42.3188 1.32993 -1.8667 0
M  V30 408 C 43.3318 1.44345 -0.752877 0
M  V30 409 O 44.5208 1.45715 -1.03098 0
M  V30 410 C 41.6208 2.70863 -2.03682 0
M  V30 411 C 40.7938 2.81792 -3.34532 0
M  V30 412 C 39.8528 4.005 -3.41301 0
M  V30 413 O 38.8788 3.9008 -4.14519 0
M  V30 414 N 40.0808 5.13618 -2.70512 0
M  V30 415 H 42.8458 1.06707 -2.8006 0
M  V30 416 H 40.4068 0.438129 -1.55859 0
M  V30 417 H 42.3988 3.48612 -2.05553 0
M  V30 418 H 40.9688 2.89862 -1.17041 0
M  V30 419 H 40.1888 1.90729 -3.44987 0
M  V30 420 H 41.4768 2.86043 -4.20781 0
M  V30 421 H 40.8748 5.24975 -2.10755 0
M  V30 422 H 39.4318 5.89505 -2.78077 0
M  V30 423 N 42.8649 1.48995 0.513639 0
M  V30 424 C 44.0899 1.61792 1.29762 0
M  V30 425 C 44.5149 0.284475 1.85936 0
M  V30 426 O 43.8729 -0.746185 1.65232 0
M  V30 427 C 43.9209 2.67993 2.41272 0
M  V30 428 O 43.0249 2.26287 3.44772 0
M  V30 429 H 42.3659 0.541963 0.38363 0
M  V30 430 H 44.8959 1.95097 0.616307 0
M  V30 431 H 44.9059 2.89772 2.87221 0
M  V30 432 H 43.5809 3.64791 1.9975 0
M  V30 433 H 42.1579 2.14788 3.04829 0
M  V30 434 N 44.343 -0.763751 1.37857 0
M  V30 435 C 45.59 -1.52257 1.33506 0
M  V30 436 C 45.918 -1.94343 -0.078022 0
M  V30 437 O 45.173 -1.64958 -1.05297 0
M  V30 438 C 45.472 -2.79499 2.22745 0
M  V30 439 C 45.138 -2.56426 3.70886 0
M  V30 440 C 43.8 -2.49842 4.11257 0
M  V30 441 C 46.152 -2.36008 4.64704 0
M  V30 442 C 43.48 -2.20841 5.43549 0
M  V30 443 C 45.832 -2.0853 5.97242 0
M  V30 444 C 44.496 -2.00396 6.36709 0
M  V30 445 H 43.766 -0.557149 0.488534 0
M  V30 446 H 46.413 -0.879073 1.70131 0
M  V30 447 H 44.718 -3.48447 1.79142 0
M  V30 448 H 46.415 -3.37413 2.16688 0
M  V30 449 H 43.005 -2.62416 3.38874 0
M  V30 450 H 47.189 -2.40079 4.34368 0
M  V30 451 H 42.445 -2.13045 5.73081 0
M  V30 452 H 46.619 -1.91732 6.69486 0
M  V30 453 H 44.246 -1.77688 7.39142 0
M  V30 454 N 45.8211 -1.22559 -0.990812 0
M  V30 455 C 46.7681 -0.997519 -2.0813 0
M  V30 456 C 47.7381 0.0814702 -1.659 0
M  V30 457 O 48.9231 -0.0685424 -1.90677 0
M  V30 458 C 46.0631 -0.583615 -3.40129 0
M  V30 459 C 45.1761 -1.7336 -3.9569 0
M  V30 460 C 44.3111 -1.26748 -5.15857 0
M  V30 461 C 43.3501 -2.38888 -5.63559 0
M  V30 462 N 42.4871 -1.93308 -6.74964 0
M  V30 463 H 47.3271 -1.93099 -2.26973 0
M  V30 464 H 44.8641 -0.962114 -1.11273 0
M  V30 465 H 46.8221 -0.324801 -4.15934 0
M  V30 466 H 45.4521 0.312845 -3.2128 0
M  V30 467 H 44.5041 -2.10669 -3.16738 0
M  V30 468 H 45.8161 -2.57704 -4.27071 0
M  V30 469 H 44.9701 -0.966173 -5.98957 0
M  V30 470 H 43.7091 -0.394272 -4.86104 0
M  V30 471 H 42.7141 -2.69805 -4.79046 0
M  V30 472 H 43.9391 -3.26728 -5.95336 0
M  V30 473 H 41.8851 -1.08352 -6.4699 0
M  V30 474 H 41.8021 -2.71217 -7.05675 0
M  V30 475 H 43.0701 -1.66252 -7.61564 0
M  V30 476 N 47.2992 1.18797 -1.03562 0
M  V30 477 C 48.5452 1.8893 -0.737113 0
M  V30 478 C 48.8782 1.79837 0.732956 0
M  V30 479 O 48.1532 1.19525 1.5344 0
M  V30 480 C 48.4362 3.39607 -1.19745 0
M  V30 481 C 48.2892 3.57537 -2.72924 0
M  V30 482 C 49.6082 4.33069 -0.783526 0
M  V30 483 H 46.7272 0.686057 -0.269249 0
M  V30 484 H 49.3692 1.39797 -1.28673 0
M  V30 485 H 47.5192 3.81583 -0.729855 0
M  V30 486 H 49.1912 3.24688 -3.27682 0
M  V30 487 H 47.4342 3.00363 -3.12993 0
M  V30 488 H 48.1052 4.63238 -3.00191 0
M  V30 489 H 50.5812 3.98846 -1.18581 0
M  V30 490 H 49.4572 5.3707 -1.13343 0
M  V30 491 H 49.7182 4.40986 0.313681 0
M  V30 492 N 48.7773 0.814389 1.34928 0
M  V30 493 C 50.0073 0.41054 2.0248 0
M  V30 494 C 50.4153 -0.985625 1.61499 0
M  V30 495 O 49.7583 -1.64781 0.811976 0
M  V30 496 C 49.8203 0.423384 3.56998 0
M  V30 497 C 49.4843 1.77141 4.21272 0
M  V30 498 C 50.4813 2.73093 4.42398 0
M  V30 499 C 48.1663 2.05755 4.58225 0
M  V30 500 C 50.1603 3.95838 4.9959 0
M  V30 501 C 47.8473 3.28762 5.1513 0
M  V30 502 C 48.8453 4.23621 5.35755 0
M  V30 503 O 48.5333 5.44456 5.91458 0
M  V30 504 H 48.2653 0.163997 0.655806 0
M  V30 505 H 50.8193 1.10155 1.73364 0
M  V30 506 H 49.0493 -0.324276 3.85338 0
M  V30 507 H 50.7383 0.0407683 4.0588 0
M  V30 508 H 51.5043 2.5228 4.14222 0
M  V30 509 H 47.3833 1.32727 4.4148 0
M  V30 510 H 50.9273 4.69891 5.15605 0
M  V30 511 H 46.8243 3.49443 5.42734 0
M  V30 512 H 47.5923 5.4586 6.09901 0
M  V30 513 N 50.2554 -1.46986 0.568584 0
M  V30 514 C 51.2184 -2.28624 -0.162366 0
M  V30 515 C 52.2184 -1.37596 -0.832103 0
M  V30 516 O 53.4084 -1.60115 -0.68622 0
M  V30 517 C 50.5404 -3.17596 -1.23878 0
M  V30 518 H 51.7334 -2.94722 0.554899 0
M  V30 519 H 49.2864 -1.52863 0.325976 0
M  V30 520 H 50.0214 -2.56214 -1.98808 0
M  V30 521 H 49.8064 -3.846 -0.763219 0
M  V30 522 H 51.2964 -3.79078 -1.75185 0
M  V30 523 N 51.7335 -0.305618 -1.54608 0
M  V30 524 C 52.9615 0.304775 -2.04643 0
M  V30 525 C 53.3765 1.47167 -1.18268 0
M  V30 526 O 52.7335 1.81296 -0.209328 0
M  V30 527 C 52.7845 0.756564 -3.53495 0
M  V30 528 O 52.5055 -0.36389 -4.36586 0
M  V30 529 C 54.0065 1.43163 -4.19546 0
M  V30 530 H 51.2265 0.0655481 -0.667791 0
M  V30 531 H 53.7705 -0.446592 -1.99564 0
M  V30 532 H 51.9255 1.45794 -3.58919 0
M  V30 533 H 52.3395 -0.0113121 -5.24499 0
M  V30 534 H 53.8135 1.69886 -5.25207 0
M  V30 535 H 54.2905 2.37318 -3.69563 0
M  V30 536 H 54.8965 0.773307 -4.18211 0
M  V30 537 N 53.2116 1.57565 -0.0334293 0
M  V30 538 C 54.1416 2.13511 0.945265 0
M  V30 539 C 55.1226 1.05231 1.33643 0
M  V30 540 O 56.3076 1.33084 1.41429 0
M  V30 541 C 53.4376 2.6657 2.22616 0
M  V30 542 C 52.3916 3.79676 1.97561 0
M  V30 543 C 51.7176 4.1918 3.31952 0
M  V30 544 C 53.0176 5.0557 1.31135 0
M  V30 545 H 54.7116 2.95538 0.479325 0
M  V30 546 H 52.2576 1.42166 0.229115 0
M  V30 547 H 54.2106 3.04344 2.91466 0
M  V30 548 H 52.9346 1.8171 2.71384 0
M  V30 549 H 51.5936 3.42347 1.31127 0
M  V30 550 H 51.2416 3.31296 3.78487 0
M  V30 551 H 50.9416 4.95402 3.15992 0
M  V30 552 H 52.4656 4.59541 4.02063 0
M  V30 553 H 53.8796 5.40903 1.89992 0
M  V30 554 H 52.2766 5.86818 1.25559 0
M  V30 555 H 53.3466 4.84062 0.284894 0
M  V30 556 N 54.6897 -0.239769 1.55765 0
M  V30 557 C 56.1057 -0.588624 1.48349 0
M  V30 558 C 56.3057 -1.88005 0.72502 0
M  V30 559 O 55.3617 -2.51186 0.257269 0
M  V30 560 C 56.6747 -0.68474 2.928 0
M  V30 561 C 58.2227 -0.77659 3.03213 0
M  V30 562 C 58.6977 -0.904207 4.48986 0
M  V30 563 N 60.1887 -0.968896 4.52953 0
M  V30 564 C 60.9237 -1.08703 5.63002 0
M  V30 565 N 60.4197 -1.17026 6.82845 0
M  V30 566 N 62.2127 -1.12074 5.50814 0
M  V30 567 H 54.3637 0.607911 2.03515 0
M  V30 568 H 56.6267 0.21083 0.924259 0
M  V30 569 H 56.3327 0.194284 3.51163 0
M  V30 570 H 56.2067 -1.55435 3.43686 0
M  V30 571 H 58.5937 -1.64606 2.44926 0
M  V30 572 H 58.6747 0.118315 2.55526 0
M  V30 573 H 58.3187 -0.0392633 5.07885 0
M  V30 574 H 58.2487 -1.81426 4.9436 0
M  V30 575 H 60.7397 -0.915633 3.6664 0
M  V30 576 H 61.0527 -1.25966 7.62465 0
M  V30 577 H 59.3977 -1.13971 6.85591 0
M  V30 578 H 62.5887 -1.05226 4.5612 0
M  V30 579 H 62.7617 -1.20936 6.36615 0
M  V30 580 N 56.1678 -1.49265 -0.50573 0
M  V30 581 C 57.4448 -1.49012 -1.26707 0
M  V30 582 C 57.8248 -0.215205 -2.1 0
M  V30 583 O 57.1728 0.802547 -2.13943 0
M  V30 584 C 57.3828 -2.7663 -2.12783 0
M  V30 585 C 58.7308 -3.25932 -2.72127 0
M  V30 586 O 59.7548 -2.77715 -2.23054 0
M  V30 587 O 58.6138 -4.09897 -3.61451 0
M  V30 588 H 55.7078 -0.596197 -0.57313 0
M  V30 589 H 58.2538 -1.61524 -0.52039 0
M  V30 590 H 57.0258 -3.60916 -1.5118 0
M  V30 591 H 56.6488 -2.66956 -2.94653 0
M  V30 592 N 57.6459 0.756429 -1.3826 0
M  V30 593 C 58.5759 1.88374 -1.37976 0
M  V30 594 C 59.5569 1.68311 -0.246082 0
M  V30 595 O 60.7419 1.88944 -0.44874 0
M  V30 596 C 57.8719 3.25864 -1.20125 0
M  V30 597 C 56.8259 3.60523 -2.30666 0
M  V30 598 C 56.1519 4.9672 -1.97923 0
M  V30 599 C 57.4519 3.65692 -3.72916 0
M  V30 600 H 59.1459 1.88869 -2.32312 0
M  V30 601 H 56.6919 0.907272 -1.11824 0
M  V30 602 H 58.6449 4.0438 -1.18552 0
M  V30 603 H 57.3689 3.25841 -0.222498 0
M  V30 604 H 56.0279 2.84324 -2.3142 0
M  V30 605 H 55.6759 4.93253 -0.985393 0
M  V30 606 H 55.3759 5.20878 -2.71955 0
M  V30 607 H 56.8999 5.77618 -1.97964 0
M  V30 608 H 58.3139 4.34328 -3.74208 0
M  V30 609 H 56.7109 4.01358 -4.4613 0
M  V30 610 H 57.7809 2.65987 -4.05436 0
M  V30 611 N 59.124 1.23083 0.984299 0
M  V30 612 C 60.071 1.00854 2.07598 0
M  V30 613 C 61.041 -0.0726709 1.65941 0
M  V30 614 O 62.226 0.0786535 1.90638 0
M  V30 615 C 59.366 0.601645 3.39815 0
M  V30 616 C 58.479 1.75456 3.94765 0
M  V30 617 C 57.614 1.29482 5.15177 0
M  V30 618 C 56.653 2.41873 5.62284 0
M  V30 619 N 55.79 1.96885 6.73929 0
M  V30 620 H 60.63 1.943 2.25946 0
M  V30 621 H 58.167 0.968001 1.10762 0
M  V30 622 H 60.125 0.346854 4.15756 0
M  V30 623 H 58.755 -0.295803 3.21442 0
M  V30 624 H 57.807 2.12346 3.15616 0
M  V30 625 H 59.119 2.59965 4.25699 0
M  V30 626 H 58.273 0.997923 5.98437 0
M  V30 627 H 57.012 0.420046 4.85888 0
M  V30 628 H 56.017 2.72342 4.77608 0
M  V30 629 H 57.242 3.29881 5.93595 0
M  V30 630 H 55.188 1.11782 6.46406 0
M  V30 631 H 55.105 2.74956 7.04227 0
M  V30 632 H 56.373 1.70289 7.60672 0
M  V30 633 N 60.6021 -1.18246 1.0419 0
M  V30 634 C 61.8301 -1.92195 0.766072 0
M  V30 635 C 62.2451 -1.76247 -0.676933 0
M  V30 636 O 61.6021 -1.09293 -1.46155 0
M  V30 637 C 61.6531 -3.43568 1.12442 0
M  V30 638 O 61.3741 -3.59015 2.51078 0
M  V30 639 C 62.8751 -4.34613 0.873275 0
M  V30 640 H 60.0951 -0.610114 0.279288 0
M  V30 641 H 62.6391 -1.50007 1.38989 0
M  V30 642 H 60.7941 -3.8354 0.545542 0
M  V30 643 H 61.2081 -4.5273 2.64831 0
M  V30 644 H 62.6821 -5.39374 1.17385 0
M  V30 645 H 63.1591 -4.38781 -0.191909 0
M  V30 646 H 63.7651 -4.00341 1.43551 0
M  V30 647 N 62.0802 -0.821533 -1.34494 0
M  V30 648 C 63.0122 -0.199946 -2.28326 0
M  V30 649 C 64.0252 0.609377 -1.50965 0
M  V30 650 O 65.2142 0.439285 -1.7301 0
M  V30 651 C 62.3142 0.738431 -3.30757 0
M  V30 652 C 61.4872 -0.0277632 -4.37391 0
M  V30 653 C 60.5462 0.831332 -5.19591 0
M  V30 654 O 59.5722 0.276822 -5.68526 0
M  V30 655 N 60.7742 2.15132 -5.39165 0
M  V30 656 H 63.5392 -1.00609 -2.82308 0
M  V30 657 H 61.1002 -0.678366 -1.47003 0
M  V30 658 H 63.0922 1.31773 -3.82646 0
M  V30 659 H 61.6622 1.44533 -2.7718 0
M  V30 660 H 60.8822 -0.788359 -3.86236 0
M  V30 661 H 62.1702 -0.555251 -5.05761 0
M  V30 662 H 61.5682 2.62559 -5.01078 0
M  V30 663 H 60.1252 2.6795 -5.94177 0
M  V30 664 N 63.5583 1.46682 -0.576371 0
M  V30 665 C 64.8063 2.02013 -0.0594163 0
M  V30 666 C 65.1273 1.45101 1.30271 0
M  V30 667 O 64.3973 0.633317 1.8538 0
M  V30 668 H 62.9773 0.746759 -0.0189745 0
M  V30 669 H 65.6393 1.79862 -0.750717 0
M  V30 670 H 64.7353 3.12097 0.014345 0
M  V30 671 N 65.0364 0.313813 1.54444 0
M  V30 672 C 66.4524 -0.0391619 1.59552 0
M  V30 673 C 66.6524 -1.51322 1.33056 0
M  V30 674 O 65.7084 -2.26782 1.11022 0
M  V30 675 C 67.0214 0.370302 2.98411 0
M  V30 676 C 68.5694 0.320139 3.11358 0
M  V30 677 C 69.0444 0.704617 4.52547 0
M  V30 678 N 70.5354 0.657645 4.58508 0
M  V30 679 C 71.2704 0.927453 5.6585 0
M  V30 680 N 70.7664 1.26389 6.81174 0
M  V30 681 N 72.5594 0.853662 5.5558 0
M  V30 682 H 64.7104 1.27433 1.69925 0
M  V30 683 H 66.9734 0.517511 0.794284 0
M  V30 684 H 66.6794 1.39694 3.22767 0
M  V30 685 H 66.5534 -0.269619 3.76235 0
M  V30 686 H 68.9404 -0.697275 2.86744 0
M  V30 687 H 69.0214 0.99486 2.35661 0
M  V30 688 H 68.6654 1.7199 4.77893 0
M  V30 689 H 68.5954 0.00768843 5.26599 0
M  V30 690 H 71.0864 0.409067 3.75679 0
M  V30 691 H 71.3994 1.4554 7.58972 0
M  V30 692 H 69.7444 1.30206 6.82694 0
M  V30 693 H 72.9354 0.590383 4.64362 0
M  V30 694 H 73.1084 1.0673 6.3915 0
M  V30 695 N 66.5145 -1.57545 0.0417849 0
M  V30 696 C 67.4445 -2.14009 -0.933929 0
M  V30 697 C 68.4255 -1.05938 -1.33083 0
M  V30 698 O 69.6105 -1.33833 -1.40721 0
M  V30 699 C 66.7405 -2.67747 -2.21199 0
M  V30 700 C 65.6945 -3.80718 -1.95544 0
M  V30 701 C 65.0205 -4.20935 -3.29724 0
M  V30 702 C 66.3205 -5.06258 -1.28452 0
M  V30 703 H 68.0145 -2.95788 -0.463645 0
M  V30 704 H 65.5605 -1.42285 -0.221573 0
M  V30 705 H 67.5135 -3.05886 -2.89848 0
M  V30 706 H 66.2375 -1.83147 -2.70416 0
M  V30 707 H 64.8965 -3.43037 -1.2931 0
M  V30 708 H 64.5445 -3.33298 -3.76724 0
M  V30 709 H 64.2445 -4.9707 -3.13361 0
M  V30 710 H 65.7685 -4.61666 -3.9962 0
M  V30 711 H 67.1825 -5.41903 -1.8712 0
M  V30 712 H 65.5795 -5.87475 -1.22445 0
M  V30 713 H 66.6495 -4.84207 -0.259219 0
M  V30 714 N 67.9926 0.231505 -1.5589 0
M  V30 715 C 69.2386 0.954429 -1.79617 0
M  V30 716 C 69.5936 1.82367 -0.613199 0
M  V30 717 O 68.8866 1.87524 0.393094 0
M  V30 718 C 69.0806 1.83577 -3.0665 0
M  V30 719 C 68.9096 1.05334 -4.3719 0
M  V30 720 C 67.6796 0.75225 -4.99669 0
M  V30 721 C 69.8776 0.423444 -5.12554 0
M  V30 722 N 67.8596 -0.052627 -6.13877 0
M  V30 723 C 69.2306 -0.245287 -6.19515 0
M  V30 724 C 71.2856 0.335466 -4.96769 0
M  V30 725 C 69.9886 -0.993566 -7.12405 0
M  V30 726 C 72.0146 -0.399321 -5.9005 0
M  V30 727 C 71.3766 -1.05663 -6.9643 0
M  V30 728 H 67.4756 0.329846 -0.709031 0
M  V30 729 H 70.0596 0.226172 -1.93382 0
M  V30 730 H 68.2306 2.53592 -2.94186 0
M  V30 731 H 69.9626 2.49541 -3.18608 0
M  V30 732 H 66.7176 1.06783 -4.61405 0
M  V30 733 H 67.1416 -0.443609 -6.75545 0
M  V30 734 H 71.7836 0.829311 -4.14587 0
M  V30 735 H 69.5016 -1.49896 -7.94076 0
M  V30 736 H 73.0876 -0.468265 -5.79913 0
M  V30 737 H 71.9676 -1.61612 -7.67366 0
M  V30 738 N 69.4707 1.49531 0.497807 0
M  V30 739 C 70.3807 1.69176 1.62532 0
M  V30 740 C 71.3967 0.5744 1.64246 0
M  V30 741 O 72.5727 0.849497 1.82608 0
M  V30 742 C 69.6377 1.75695 2.98885 0
M  V30 743 C 68.6987 2.9929 3.07773 0
M  V30 744 C 67.9317 3.05488 4.37622 0
M  V30 745 O 68.1547 2.19192 5.26603 0
M  V30 746 O 67.0887 3.9798 4.51548 0
M  V30 747 H 70.9147 2.647 1.48887 0
M  V30 748 H 68.4997 1.3331 0.674441 0
M  V30 749 H 70.3817 1.82317 3.79919 0
M  V30 750 H 69.0567 0.8335 3.12785 0
M  V30 751 H 67.9637 2.98183 2.25915 0
M  V30 752 H 69.2967 3.91125 2.98801 0
M  V30 753 N 70.9488 -0.749086 1.3866 0
M  V30 754 C 71.9118 -1.84457 1.36045 0
M  V30 755 C 72.9118 -1.58682 0.260122 0
M  V30 756 O 74.1018 -1.66343 0.517261 0
M  V30 757 C 71.2338 -3.22008 1.11911 0
M  V30 758 H 72.4268 -1.88182 2.33512 0
M  V30 759 H 69.9798 -0.951266 1.24019 0
M  V30 760 H 70.7148 -3.2395 0.150686 0
M  V30 761 H 70.4998 -3.42111 1.91579 0
M  V30 762 H 71.9898 -4.0208 1.12788 0
M  V30 763 N 72.4269 -1.23603 -0.977757 0
M  V30 764 C 73.3899 -1.02069 -2.05218 0
M  V30 765 C 74.3899 0.0184305 -1.60789 0
M  V30 766 O 75.5799 -0.221569 -1.72785 0
M  V30 767 C 72.7119 -0.544926 -3.36517 0
M  V30 768 H 73.9049 -1.9742 -2.25755 0
M  V30 769 H 71.4579 -1.05684 -1.15155 0
M  V30 770 H 72.1929 0.412241 -3.21669 0
M  V30 771 H 71.9779 -1.2948 -3.70105 0
M  V30 772 H 73.4679 -0.414985 -4.15533 0
M  V30 773 N 73.905 1.17692 -1.04816 0
M  V30 774 C 75.321 1.39863 -0.768794 0
M  V30 775 C 75.521 1.91118 0.638451 0
M  V30 776 O 74.577 2.10036 1.40146 0
M  V30 777 C 75.89 2.39274 -1.82122 0
M  V30 778 C 77.438 2.52987 -1.843 0
M  V30 779 C 77.913 3.55669 -2.88555 0
M  V30 780 N 79.404 3.63183 -2.87493 0
M  V30 781 C 80.139 4.42381 -3.64811 0
M  V30 782 N 79.635 5.25125 -4.51903 0
M  V30 783 N 81.428 4.37217 -3.53267 0
M  V30 784 H 73.579 0.82752 -1.95617 0
M  V30 785 H 75.842 0.426123 -0.846831 0
M  V30 786 H 75.548 2.08678 -2.83102 0
M  V30 787 H 75.422 3.38725 -1.65967 0
M  V30 788 H 77.809 2.82896 -0.839869 0
M  V30 789 H 77.89 1.53623 -2.04532 0
M  V30 790 H 77.534 3.26499 -3.89051 0
M  V30 791 H 77.464 4.54728 -2.65575 0
M  V30 792 H 79.955 3.04103 -2.24343 0
M  V30 793 H 80.268 5.82728 -5.07591 0
M  V30 794 H 78.613 5.24519 -4.55966 0
M  V30 795 H 81.804 3.71626 -2.84625 0
M  V30 796 H 81.977 4.98696 -4.13771 0
M  V30 797 N 75.3831 0.828654 1.34056 0
M  V30 798 C 76.3461 0.259927 2.27721 0
M  V30 799 C 77.3461 -0.565478 1.50529 0
M  V30 800 O 78.5361 -0.38075 1.69988 0
M  V30 801 C 75.6681 -0.634944 3.34935 0
M  V30 802 H 76.8611 1.0863 2.79534 0
M  V30 803 H 74.4141 0.600951 1.44285 0
M  V30 804 H 75.1491 -1.48416 2.88346 0
M  V30 805 H 74.9341 -0.0444999 3.92075 0
M  V30 806 H 76.4241 -1.02648 4.04788 0
M  V30 807 N 76.8612 -1.46375 0.584142 0
M  V30 808 C 77.7912 -2.33103 -0.136037 0
M  V30 809 C 78.7722 -1.45431 -0.882255 0
M  V30 810 O 79.9572 -1.74246 -0.857434 0
M  V30 811 C 77.0872 -3.27731 -1.14933 0
M  V30 812 C 76.0412 -4.24855 -0.517862 0
M  V30 813 C 75.3672 -5.09001 -1.63773 0
M  V30 814 C 76.6672 -5.19439 0.545886 0
M  V30 815 H 78.3612 -2.93568 0.588086 0
M  V30 816 H 75.9072 -1.41166 0.284259 0
M  V30 817 H 77.8602 -3.87261 -1.66153 0
M  V30 818 H 76.5842 -2.65377 -1.90375 0
M  V30 819 H 75.2432 -3.6659 -0.0267361 0
M  V30 820 H 74.8912 -4.43031 -2.38185 0
M  V30 821 H 74.5912 -5.74777 -1.22085 0
M  V30 822 H 76.1152 -5.71396 -2.15266 0
M  V30 823 H 77.5292 -5.73177 0.118704 0
M  V30 824 H 75.9262 -5.93566 0.88317 0
M  V30 825 H 76.9962 -4.63285 1.43162 0
M  V30 826 N 78.3393 -0.321999 -1.54275 0
M  V30 827 C 79.3023 0.531975 -2.22941 0
M  V30 828 C 80.3023 1.04478 -1.22234 0
M  V30 829 O 81.4923 0.937452 -1.46825 0
M  V30 830 C 78.6243 1.73874 -2.93224 0
M  V30 831 H 79.8173 -0.0682612 -2.99822 0
M  V30 832 H 77.3703 -0.0730644 -1.56129 0
M  V30 833 H 78.1053 2.37825 -2.20476 0
M  V30 834 H 77.8903 1.37847 -3.6707 0
M  V30 835 H 79.3803 2.34496 -3.45545 0
M  V30 836 N 79.8174 1.5752 -0.0501392 0
M  V30 837 C 81.0574 1.94521 0.627783 0
M  V30 838 C 81.4214 0.928265 1.68069 0
M  V30 839 O 82.6224 1.18517 2.41261 0
M  V30 840 C 80.8934 3.36319 1.20932 0
M  V30 841 S 82.4524 3.95272 1.90539 0
M  V30 842 H 79.2704 0.680456 0.206158 0
M  V30 843 H 81.8724 1.95139 -0.118829 0
M  V30 844 H 80.5764 4.08132 0.430865 0
M  V30 845 H 80.1074 3.39193 1.99277 0
M  V30 846 H 82.1224 3.80415 3.18589 0
M  V30 847 N 81.2955 -0.223234 1.56011 0
M  V30 848 C 82.7065 -0.790368 1.69145 0
M  V30 849 C 83.0575 -1.85055 0.651845 0
M  V30 850 O 82.1825 -2.15498 -0.197359 0
M  V30 851 C 82.7775 -1.4404 3.06656 0
M  V30 852 C 81.3365 -1.95494 3.2165 0
M  V30 853 C 80.4835 -0.814506 2.65068 0
M  V30 854 H 83.4345 0.00139011 1.587 0
M  V30 855 H 83.4555 -2.30916 3.0242 0
M  V30 856 H 82.9675 -0.668543 3.82298 0
M  V30 857 H 81.0685 -2.75487 2.50874 0
M  V30 858 H 81.1815 -2.13607 4.28846 0
M  V30 859 H 79.5455 -1.22137 2.23505 0
M  V30 860 H 80.3285 -0.0553515 3.43255 0
M  V30 861 N 82.7736 -1.49793 -0.48987 0
M  V30 862 C 84.1846 -1.52914 -1.07118 0
M  V30 863 C 84.5356 -0.321738 -1.93544 0
M  V30 864 O 83.6606 0.567338 -2.08831 0
M  V30 865 C 84.2556 -2.771 -1.94938 0
M  V30 866 C 82.8146 -2.82963 -2.48212 0
M  V30 867 C 81.9616 -2.46972 -1.26096 0
M  V30 868 H 84.9126 -1.56329 -0.273289 0
M  V30 869 H 84.9336 -2.57892 -2.79771 0
M  V30 870 H 84.4456 -3.64959 -1.32009 0
M  V30 871 H 82.5466 -1.99411 -3.14748 0
M  V30 872 H 82.6596 -3.85406 -2.84603 0
M  V30 873 H 81.0236 -1.98994 -1.58976 0
M  V30 874 H 81.8066 -3.37118 -0.648581 0
M  V30 875 N 84.2517 0.741722 -1.39055 0
M  V30 876 C 85.4997 1.49818 -1.35643 0
M  V30 877 C 85.8207 1.94938 0.0491642 0
M  V30 878 O 85.0907 1.68505 0.999141 0
M  V30 879 H 83.6707 0.555755 -0.499144 0
M  V30 880 H 86.3327 0.880957 -1.73854 0
M  V30 881 H 85.4287 2.38348 -2.01486 0
M  V30 882 N 85.7298 1.2412 0.971189 0
M  V30 883 C 86.9548 1.10667 1.75407 0
M  V30 884 C 87.3798 -0.337048 1.85056 0
M  V30 885 O 86.7378 -1.24396 1.31892 0
M  V30 886 C 86.7858 1.74726 3.15441 0
M  V30 887 O 85.8898 1.01566 3.99697 0
M  V30 888 H 85.2308 0.387341 0.539317 0
M  V30 889 H 87.7608 1.64358 1.2185 0
M  V30 890 H 87.7708 1.80341 3.6598 0
M  V30 891 H 86.4458 2.79773 3.07734 0
M  V30 892 H 85.0228 1.03713 3.58187 0
M  V30 893 N 87.2079 -1.17134 1.05439 0
M  V30 894 C 88.1379 -2.2342 0.678649 0
M  V30 895 C 89.1189 -1.66971 -0.32476 0
M  V30 896 O 90.3039 -1.93149 -0.201802 0
M  V30 897 C 87.4339 -3.47256 0.0552099 0
M  V30 898 C 86.3879 -4.16543 0.98365 0
M  V30 899 C 85.7139 -5.34231 0.223961 0
M  V30 900 C 87.0139 -4.68495 2.3089 0
M  V30 901 H 88.7079 -2.55105 1.56722 0
M  V30 902 H 86.2539 -1.2262 0.754998 0
M  V30 903 H 88.2069 -4.20828 -0.21946 0
M  V30 904 H 86.9309 -3.14846 -0.868319 0
M  V30 905 H 85.5899 -3.44887 1.24293 0
M  V30 906 H 85.2379 -4.98071 -0.702412 0
M  V30 907 H 84.9379 -5.81527 0.842627 0
M  V30 908 H 86.4619 -6.10585 -0.0433671 0
M  V30 909 H 87.8759 -5.33691 2.09396 0
M  V30 910 H 86.2729 -5.26379 2.88176 0
M  V30 911 H 87.3429 -3.85169 2.94572 0
M  V30 912 N 88.686 -0.835752 -1.33615 0
M  V30 913 C 89.596 -0.269088 -2.33052 0
M  V30 914 C 90.612 0.603251 -1.63208 0
M  V30 915 O 91.788 0.508112 -1.94885 0
M  V30 916 C 88.853 0.549091 -3.42324 0
M  V30 917 C 87.914 -0.347156 -4.27894 0
M  V30 918 C 87.147 0.43207 -5.31948 0
M  V30 919 O 87.37 1.66409 -5.45586 0
M  V30 920 O 86.304 -0.192298 -6.01593 0
M  V30 921 H 90.13 -1.09243 -2.83372 0
M  V30 922 H 87.715 -0.598198 -1.36901 0
M  V30 923 H 89.597 1.01414 -4.09015 0
M  V30 924 H 88.272 1.34955 -2.94226 0
M  V30 925 H 87.179 -0.859979 -3.64081 0
M  V30 926 H 88.512 -1.1123 -4.79467 0
M  V30 927 N 90.1641 1.46063 -0.591896 0
M  V30 928 C 91.3921 2.06717 -0.0868936 0
M  V30 929 C 91.8071 1.43916 1.22203 0
M  V30 930 O 91.1641 0.547698 1.74088 0
M  V30 931 C 91.2151 3.6142 0.0758725 0
M  V30 932 O 90.9361 4.21874 -1.18126 0
M  V30 933 C 92.4371 4.39025 0.61416 0
M  V30 934 H 89.6571 0.668162 -0.0616518 0
M  V30 935 H 92.2011 1.8755 -0.815175 0
M  V30 936 H 90.3561 3.79983 0.754413 0
M  V30 937 H 90.7701 5.14861 -1.00092 0
M  V30 938 H 92.2441 5.4783 0.677193 0
M  V30 939 H 92.7211 4.07708 1.63312 0
M  V30 940 H 93.3271 4.2529 -0.0298142 0
M  V30 941 N 91.6422 0.330177 1.54103 0
M  V30 942 C 92.5722 -0.525353 2.27513 0
M  V30 943 C 93.5532 -1.11383 1.2856 0
M  V30 944 O 94.7382 -1.13773 1.57383 0
M  V30 945 C 91.8682 -1.6831 3.03791 0
M  V30 946 C 90.8222 -1.2236 4.10137 0
M  V30 947 C 90.1482 -2.46882 4.74293 0
M  V30 948 C 91.4482 -0.333697 5.21233 0
M  V30 949 H 93.1422 0.087013 2.99274 0
M  V30 950 H 90.6882 0.0432893 1.43935 0
M  V30 951 H 92.6412 -2.28795 3.5388 0
M  V30 952 H 91.3652 -2.32216 2.29659 0
M  V30 953 H 90.0242 -0.64165 3.60941 0
M  V30 954 H 89.6722 -3.09165 3.96769 0
M  V30 955 H 89.3722 -2.16825 5.46133 0
M  V30 956 H 90.8962 -3.08117 5.27159 0
M  V30 957 H 92.3102 -0.845013 5.67038 0
M  V30 958 H 90.7072 -0.125612 5.99969 0
M  V30 959 H 91.7772 0.633724 4.80741 0
M  V30 960 N 93.1203 -1.57491 0.0584922 0
M  V30 961 C 94.0523 -2.08916 -0.942694 0
M  V30 962 C 95.0653 -1.0185 -1.27006 0
M  V30 963 O 96.2543 -1.29398 -1.22957 0
M  V30 964 C 93.3543 -2.52341 -2.26224 0
M  V30 965 C 92.5273 -3.82827 -2.1157 0
M  V30 966 C 91.5863 -4.12487 -3.26712 0
M  V30 967 O 90.6123 -4.82295 -3.02292 0
M  V30 968 N 91.8143 -3.64978 -4.5141 0
M  V30 969 H 94.5793 -2.95437 -0.503722 0
M  V30 970 H 92.1403 -1.61397 -0.12757 0
M  V30 971 H 94.1323 -2.69254 -3.02133 0
M  V30 972 H 92.7023 -1.7103 -2.61663 0
M  V30 973 H 91.9223 -3.75425 -1.20208 0
M  V30 974 H 93.2103 -4.68263 -1.99015 0
M  V30 975 H 92.6083 -3.08558 -4.7414 0
M  V30 976 H 91.1653 -3.87115 -5.2439 0
M  V30 977 N 94.5984 0.214957 -1.56127 0
M  V30 978 C 95.5284 1.2695 -1.95974 0
M  V30 979 C 96.5094 1.48539 -0.828868 0
M  V30 980 O 97.6944 1.60611 -1.09168 0
M  V30 981 C 94.8244 2.61794 -2.28214 0
M  V30 982 C 93.7784 2.54851 -3.43853 0
M  V30 983 C 93.1044 3.93785 -3.61715 0
M  V30 984 C 94.4044 2.09065 -4.78632 0
M  V30 985 H 96.0984 0.93846 -2.84312 0
M  V30 986 H 93.6444 0.449996 -1.36788 0
M  V30 987 H 95.5974 3.35731 -2.54682 0
M  V30 988 H 94.3214 2.96599 -1.36736 0
M  V30 989 H 92.9804 1.8337 -3.17444 0
M  V30 990 H 92.6284 4.25908 -2.67602 0
M  V30 991 H 92.3284 3.90019 -4.39498 0
M  V30 992 H 93.8524 4.69374 -3.90539 0
M  V30 993 H 95.2664 2.7275 -5.04262 0
M  V30 994 H 93.6634 2.16346 -5.59745 0
M  V30 995 H 94.7334 1.04315 -4.73547 0
M  V30 996 N 96.0765 1.50051 0.48192 0
M  V30 997 C 97.3535 1.51009 1.2432 0
M  V30 998 C 97.7335 0.248587 2.09631 0
M  V30 999 O 97.0815 -0.768409 2.15192 0
M  V30 1000 C 97.2915 2.79981 2.08355 0
M  V30 1001 C 98.6395 3.3022 2.66908 0
M  V30 1002 O 99.6635 2.81228 2.18607 0
M  V30 1003 O 98.5225 4.15595 3.54884 0
M  V30 1004 H 95.6165 0.605239 0.563573 0
M  V30 1005 H 98.1625 1.62332 0.494627 0
M  V30 1006 H 96.9345 3.63275 1.45419 0
M  V30 1007 H 96.5575 2.7161 2.90368 0
M  V30 1008 N 97.5546 -0.734337 1.39446 0
M  V30 1009 C 98.8006 -1.49613 1.36908 0
M  V30 1010 C 99.1336 -1.94169 -0.0347829 0
M  V30 1011 O 98.4086 -1.66833 -0.999847 0
M  V30 1012 C 98.6916 -2.73534 2.34203 0
M  V30 1013 C 98.5446 -2.34993 3.83534 0
M  V30 1014 C 99.8636 -3.75635 2.29317 0
M  V30 1015 H 96.9826 -0.542714 0.498629 0
M  V30 1016 H 99.6246 -0.839597 1.70443 0
M  V30 1017 H 97.7746 -3.29553 2.05736 0
M  V30 1018 H 99.4466 -1.84601 4.22753 0
M  V30 1019 H 97.6896 -1.67213 4.00278 0
M  V30 1020 H 98.3606 -3.23738 4.47099 0
M  V30 1021 H 100.837 -3.29203 2.54489 0
M  V30 1022 H 99.7126 -4.60008 2.99472 0
M  V30 1023 H 99.9736 -4.22603 1.29842 0
M  V30 1024 N 99.0327 -1.24633 -0.964593 0
M  V30 1025 C 100.449 -1.01239 -1.2338 0
M  V30 1026 C 100.649 0.2769 -1.99588 0
M  V30 1027 O 99.7047 0.992241 -2.32187 0
M  V30 1028 C 101.018 -2.22937 -2.01791 0
M  V30 1029 C 102.566 -2.27594 -2.14872 0
M  V30 1030 C 103.041 -3.48921 -2.96678 0
M  V30 1031 N 104.532 -3.49257 -3.04259 0
M  V30 1032 C 105.267 -4.39795 -3.67924 0
M  V30 1033 N 104.763 -5.40591 -4.33281 0
M  V30 1034 N 106.556 -4.275 -3.64966 0
M  V30 1035 H 98.7067 -2.0748 -0.454502 0
M  V30 1036 H 100.97 -0.910647 -0.26349 0
M  V30 1037 H 100.676 -3.16587 -1.53184 0
M  V30 1038 H 100.55 -2.25306 -3.02518 0
M  V30 1039 H 102.937 -1.34473 -2.6268 0
M  V30 1040 H 103.018 -2.2925 -1.13482 0
M  V30 1041 H 102.662 -4.42359 -2.49562 0
M  V30 1042 H 102.592 -3.4451 -3.98272 0
M  V30 1043 H 105.083 -2.76337 -2.57771 0
M  V30 1044 H 105.396 -6.05904 -4.79687 0
M  V30 1045 H 103.741 -5.44475 -4.3194 0
M  V30 1046 H 106.932 -3.47987 -3.13086 0
M  V30 1047 H 107.105 -4.98258 -4.14298 0
M  V30 1048 N 100.511 1.16574 -1.06058 0
M  V30 1049 C 101.788 1.83048 -0.689416 0
M  V30 1050 C 102.168 1.94122 0.829443 0
M  V30 1051 O 101.516 1.48249 1.7388 0
M  V30 1052 C 101.726 3.20186 -1.38859 0
M  V30 1053 C 103.074 3.95989 -1.53226 0
M  V30 1054 O 104.098 3.29696 -1.3483 0
M  V30 1055 O 102.957 5.14813 -1.83384 0
M  V30 1056 H 100.051 0.790258 -0.243764 0
M  V30 1057 H 102.597 1.23797 -1.16071 0
M  V30 1058 H 101.369 3.07146 -2.4244 0
M  V30 1059 H 100.992 3.87112 -0.907216 0
M  V30 1060 N 101.989 0.842826 1.3317 0
M  V30 1061 C 103.214 0.453129 2.02389 0
M  V30 1062 C 103.639 -0.939105 1.6298 0
M  V30 1063 O 102.997 -1.61472 0.8244 0
M  V30 1064 C 103.045 0.586094 3.55805 0
M  V30 1065 O 102.149 -0.386029 4.10589 0
M  V30 1066 H 101.49 0.183664 0.638094 0
M  V30 1067 H 104.02 1.13875 1.69981 0
M  V30 1068 H 104.03 0.469209 4.05293 0
M  V30 1069 H 102.705 1.6014 3.83833 0
M  V30 1070 H 101.282 -0.226371 3.72212 0
M  V30 1071 N 103.467 -1.45747 0.599634 0
M  V30 1072 C 104.414 -2.30467 -0.123849 0
M  V30 1073 C 105.384 -1.41632 -0.86774 0
M  V30 1074 O 106.569 -1.70568 -0.855056 0
M  V30 1075 C 103.709 -3.26402 -1.12051 0
M  V30 1076 C 102.822 -4.3034 -0.37832 0
M  V30 1077 C 101.957 -5.13389 -1.364 0
M  V30 1078 C 100.996 -6.09061 -0.609171 0
M  V30 1079 N 100.133 -6.84918 -1.54374 0
M  V30 1080 H 104.973 -2.91802 0.604627 0
M  V30 1081 H 102.51 -1.43797 0.309972 0
M  V30 1082 H 104.468 -3.80482 -1.7114 0
M  V30 1083 H 103.098 -2.66839 -1.8165 0
M  V30 1084 H 102.15 -3.78984 0.327929 0
M  V30 1085 H 103.462 -4.98354 0.210997 0
M  V30 1086 H 102.616 -5.7183 -2.02719 0
M  V30 1087 H 101.355 -4.45376 -1.98725 0
M  V30 1088 H 100.36 -5.49758 0.0676979 0
M  V30 1089 H 101.585 -6.79099 0.00891991 0
M  V30 1090 H 99.531 -6.19601 -2.15478 0
M  V30 1091 H 99.448 -7.49254 -1.00766 0
M  V30 1092 H 100.716 -7.47906 -2.19676 0
M  V30 1093 N 104.945 -0.338344 -1.53925 0
M  V30 1094 C 106.17 0.263987 -2.05713 0
M  V30 1095 C 106.595 1.43847 -1.21201 0
M  V30 1096 O 105.953 1.79904 -0.224535 0
M  V30 1097 C 106.001 0.662 -3.54471 0
M  V30 1098 O 105.105 1.76265 -3.72833 0
M  V30 1099 H 104.446 0.0448722 -0.662482 0
M  V30 1100 H 106.976 -0.491048 -1.9862 0
M  V30 1101 H 106.986 0.940594 -3.9701 0
M  V30 1102 H 105.661 -0.196937 -4.15433 0
M  V30 1103 H 104.238 1.48173 -3.42198 0
M  V30 1104 N 106.423 1.57458 -0.0668435 0
M  V30 1105 C 107.669 1.93587 0.6043 0
M  V30 1106 C 108.002 0.946722 1.69561 0
M  V30 1107 O 107.277 -0.0248516 1.94484 0
M  V30 1108 C 107.56 3.40014 1.18585 0
M  V30 1109 C 107.413 4.49685 0.101529 0
M  V30 1110 C 108.732 3.87154 2.09284 0
M  V30 1111 H 105.851 0.703958 0.218202 0
M  V30 1112 H 108.493 1.89542 -0.131804 0
M  V30 1113 H 106.643 3.43592 1.81319 0
M  V30 1114 H 108.315 4.5823 -0.531279 0
M  V30 1115 H 106.558 4.30059 -0.568487 0
M  V30 1116 H 107.229 5.49266 0.54874 0
M  V30 1117 H 109.705 3.85551 1.56491 0
M  V30 1118 H 108.581 4.90231 2.46911 0
M  V30 1119 H 108.842 3.2481 2.99918 0
M  V30 1120 N 107.901 -0.206675 1.56239 0
M  V30 1121 C 108.864 -1.23976 1.92776 0
M  V30 1122 C 109.864 -1.39041 0.807729 0
M  V30 1123 O 111.054 -1.37051 1.0753 0
M  V30 1124 C 108.186 -2.61112 2.19165 0
M  V30 1125 H 109.379 -0.927764 2.85189 0
M  V30 1126 H 106.932 -0.447718 1.4975 0
M  V30 1127 H 107.667 -2.97386 1.29352 0
M  V30 1128 H 107.452 -2.51552 3.00772 0
M  V30 1129 H 108.942 -3.35633 2.48476 0
M  V30 1130 N 109.379 -1.50304 -0.473955 0
M  V30 1131 C 110.342 -1.6841 -1.55469 0
M  V30 1132 C 111.342 -0.554905 -1.50922 0
M  V30 1133 O 112.532 -0.821882 -1.53593 0
M  V30 1134 C 109.664 -1.70667 -2.95102 0
M  V30 1135 H 110.857 -2.64828 -1.40733 0
M  V30 1136 H 108.41 -1.39742 -0.700132 0
M  V30 1137 H 109.145 -0.75932 -3.15285 0
M  V30 1138 H 108.93 -2.52698 -2.9981 0
M  V30 1139 H 110.42 -1.8664 -3.73571 0
M  V30 1140 N 110.857 0.726932 -1.39834 0
M  V30 1141 C 111.82 1.82269 -1.38962 0
M  V30 1142 C 112.82 1.58248 -0.285334 0
M  V30 1143 O 114.01 1.65499 -0.54366 0
M  V30 1144 C 111.142 3.20186 -1.17019 0
M  V30 1145 H 112.335 1.84443 -2.36476 0
M  V30 1146 H 109.888 0.931416 -1.25516 0
M  V30 1147 H 110.623 3.23669 -0.202204 0
M  V30 1148 H 110.408 3.3902 -1.96998 0
M  V30 1149 H 111.898 4.00235 -1.1917 0
M  V30 1150 N 112.336 1.25143 0.95797 0
M  V30 1151 C 113.752 1.01892 1.22842 0
M  V30 1152 C 113.952 -0.266311 1.99732 0
M  V30 1153 O 113.008 -0.979913 2.3271 0
M  V30 1154 C 114.321 2.24004 2.00606 0
M  V30 1155 C 115.869 2.28731 2.13662 0
M  V30 1156 C 116.344 3.5049 2.94823 0
M  V30 1157 N 117.835 3.50866 3.02403 0
M  V30 1158 C 118.57 4.4174 3.65586 0
M  V30 1159 N 118.066 5.42882 4.30408 0
M  V30 1160 N 119.859 4.29429 3.62694 0
M  V30 1161 H 112.01 2.07718 0.443493 0
M  V30 1162 H 114.273 0.912031 0.258657 0
M  V30 1163 H 113.979 3.17395 1.51503 0
M  V30 1164 H 113.853 2.26907 3.01319 0
M  V30 1165 H 116.24 1.35865 2.61963 0
M  V30 1166 H 116.321 2.29848 1.12265 0
M  V30 1167 H 115.965 4.43676 2.47213 0
M  V30 1168 H 115.895 3.46617 3.96439 0
M  V30 1169 H 118.386 2.777 2.56302 0
M  V30 1170 H 118.699 6.0844 4.76467 0
M  V30 1171 H 117.044 5.46758 4.29047 0
M  V30 1172 H 120.235 3.49643 3.11236 0
M  V30 1173 H 120.408 5.00448 4.1165 0
M  V30 1174 N 113.814 -1.1601 1.06675 0
M  V30 1175 C 114.724 -2.24156 0.692179 0
M  V30 1176 C 115.74 -1.71507 -0.293513 0
M  V30 1177 O 116.916 -2.009 -0.141861 0
M  V30 1178 C 113.981 -3.46587 0.0884131 0
M  V30 1179 C 113.042 -4.14257 1.12646 0
M  V30 1180 C 112.275 -5.30844 0.551416 0
M  V30 1181 O 112.498 -5.66858 -0.634656 0
M  V30 1182 O 111.432 -5.87848 1.29298 0
M  V30 1183 H 115.258 -2.58513 1.59388 0
M  V30 1184 H 112.843 -1.23599 0.83926 0
M  V30 1185 H 114.725 -4.20679 -0.246361 0
M  V30 1186 H 113.4 -3.13994 -0.786712 0
M  V30 1187 H 112.307 -3.42118 1.51348 0
M  V30 1188 H 113.64 -4.50914 1.97325 0
M  V30 1189 N 115.292 -0.849877 -1.32721 0
M  V30 1190 C 116.708 -0.539102 -1.50219 0
M  V30 1191 C 116.908 0.931271 -1.78689 0
M  V30 1192 O 115.964 1.71455 -1.85363 0
M  V30 1193 C 117.277 -1.42196 -2.64954 0
M  V30 1194 C 118.825 -1.42189 -2.78839 0
M  V30 1195 C 119.3 -2.28985 -3.96648 0
M  V30 1196 N 120.791 -2.26754 -4.03902 0
M  V30 1197 C 121.526 -2.90644 -4.94281 0
M  V30 1198 N 121.022 -3.63629 -5.897 0
M  V30 1199 N 122.815 -2.80057 -4.87365 0
M  V30 1200 H 114.966 -1.80156 -1.12506 0
M  V30 1201 H 117.229 -0.769217 -0.554085 0
M  V30 1202 H 116.935 -2.46733 -2.50631 0
M  V30 1203 H 116.809 -1.10591 -3.60624 0
M  V30 1204 H 119.196 -0.38419 -2.92588 0
M  V30 1205 H 119.277 -1.77807 -1.83898 0
M  V30 1206 H 118.921 -3.32819 -3.83658 0
M  V30 1207 H 118.851 -1.90702 -4.90857 0
M  V30 1208 H 121.342 -1.73688 -3.3562 0
M  V30 1209 H 121.655 -4.09558 -6.55349 0
M  V30 1210 H 120 -3.67737 -5.89741 0
M  V30 1211 H 123.191 -2.22593 -4.11789 0
M  V30 1212 H 123.364 -3.30132 -5.57599 0
M  V30 1213 N 116.77 1.45427 -0.607355 0
M  V30 1214 C 118.016 2.0254 -0.102607 0
M  V30 1215 C 118.349 1.47478 1.26348 0
M  V30 1216 O 117.624 0.64939 1.83339 0
M  V30 1217 C 117.907 3.60044 -0.0634347 0
M  V30 1218 C 117.76 4.2544 -1.46017 0
M  V30 1219 C 119.079 4.35646 0.624514 0
M  V30 1220 H 116.198 0.73598 -0.0387607 0
M  V30 1221 H 118.84 1.73284 -0.779282 0
M  V30 1222 H 116.99 3.85101 0.512808 0
M  V30 1223 H 118.662 4.11569 -2.08347 0
M  V30 1224 H 116.905 3.83849 -2.02094 0
M  V30 1225 H 117.576 5.34342 -1.385 0
M  V30 1226 H 120.052 4.15882 0.134723 0
M  V30 1227 H 118.928 5.45376 0.621028 0
M  V30 1228 H 119.189 4.08501 1.69055 0
M  V30 1229 N 118.248 0.346503 1.53744 0
M  V30 1230 C 119.476 -0.25041 2.05379 0
M  V30 1231 C 119.891 -1.43979 1.22129 0
M  V30 1232 O 119.248 -1.80677 0.257321 0
M  V30 1233 C 119.299 -0.662575 3.55376 0
M  V30 1234 O 119.02 0.479515 4.35468 0
M  V30 1235 C 120.521 -1.31989 4.23195 0
M  V30 1236 H 117.741 -0.0478198 0.669294 0
M  V30 1237 H 120.285 0.499346 1.9831 0
M  V30 1238 H 118.44 -1.36227 3.62658 0
M  V30 1239 H 118.854 0.15037 5.24284 0
M  V30 1240 H 120.328 -1.55902 5.29527 0
M  V30 1241 H 120.805 -2.27436 3.75725 0
M  V30 1242 H 121.411 -0.662154 4.20114 0
M  V30 1243 N 119.726 -1.57421 0.075193 0
M  V30 1244 C 120.636 -2.1642 -0.905511 0
M  V30 1245 C 121.652 -1.12828 -1.32461 0
M  V30 1246 O 122.828 -1.45109 -1.39661 0
M  V30 1247 C 119.893 -2.71693 -2.15369 0
M  V30 1248 C 118.954 -3.90171 -1.79068 0
M  V30 1249 C 118.187 -4.42798 -2.97936 0
M  V30 1250 O 118.41 -3.94416 -4.12058 0
M  V30 1251 O 117.344 -5.34085 -2.77555 0
M  V30 1252 H 121.17 -3.00588 -0.433626 0
M  V30 1253 H 118.755 -1.48664 -0.148067 0
M  V30 1254 H 120.637 -3.07104 -2.88557 0
M  V30 1255 H 119.312 -1.90582 -2.61649 0
M  V30 1256 H 118.219 -3.59606 -1.03122 0
M  V30 1257 H 119.552 -4.72584 -1.37569 0
M  V30 1258 N 121.204 0.198386 -1.56346 0
M  V30 1259 C 122.452 0.91747 -1.80075 0
M  V30 1260 C 122.773 1.83929 -0.647692 0
M  V30 1261 O 122.043 1.93029 0.334166 0
M  V30 1262 H 120.623 0.341774 -0.664228 0
M  V30 1263 H 123.285 0.204684 -1.93822 0
M  V30 1264 H 122.381 1.51055 -2.7311 0
M  V30 1265 N 122.682 1.50554 0.465978 0
M  V30 1266 C 124.098 1.38093 0.800154 0
M  V30 1267 C 124.298 0.440988 1.96615 0
M  V30 1268 O 123.354 -0.114499 2.5224 0
M  V30 1269 C 124.667 2.79565 1.10742 0
M  V30 1270 C 126.215 2.88516 1.21357 0
M  V30 1271 C 126.69 4.30833 1.55393 0
M  V30 1272 N 128.181 4.33807 1.62375 0
M  V30 1273 C 128.916 5.40927 1.90225 0
M  V30 1274 N 128.412 6.58247 2.16062 0
M  V30 1275 N 130.205 5.28376 1.9177 0
M  V30 1276 H 122.356 2.10237 -0.302366 0
M  V30 1277 H 124.619 0.945203 -0.0727746 0
M  V30 1278 H 124.325 3.50208 0.323661 0
M  V30 1279 H 124.199 3.17125 2.04234 0
M  V30 1280 H 126.586 2.1809 1.98799 0
M  V30 1281 H 126.667 2.54492 0.258321 0
M  V30 1282 H 126.311 5.01799 0.784889 0
M  V30 1283 H 126.241 4.62347 2.52076 0
M  V30 1284 H 128.732 3.49212 1.44427 0
M  V30 1285 H 129.045 7.3569 2.36601 0
M  V30 1286 H 127.39 6.61413 2.13444 0
M  V30 1287 H 130.581 4.35715 1.71085 0
M  V30 1288 H 130.754 6.11944 2.13139 0
M  V30 1289 N 124.16 -0.719506 1.40217 0
M  V30 1290 C 125.406 -1.48152 1.38488 0
M  V30 1291 C 125.739 -1.94195 -0.0141867 0
M  V30 1292 O 125.014 -1.67884 -0.982096 0
M  V30 1293 C 125.297 -2.71035 2.37091 0
M  V30 1294 C 125.15 -2.30912 3.86005 0
M  V30 1295 C 126.469 -3.73182 2.33288 0
M  V30 1296 H 123.588 -0.537395 0.504357 0
M  V30 1297 H 126.23 -0.821472 1.71324 0
M  V30 1298 H 124.38 -3.27352 2.0922 0
M  V30 1299 H 126.052 -1.80107 4.24687 0
M  V30 1300 H 124.295 -1.62958 4.02029 0
M  V30 1301 H 124.966 -3.18978 4.50508 0
M  V30 1302 H 127.442 -3.26485 2.57966 0
M  V30 1303 H 126.318 -4.56806 3.04334 0
M  V30 1304 H 126.579 -4.21202 1.34317 0
M  V30 1305 N 125.638 -1.25649 -0.95132 0
M  V30 1306 C 126.915 -1.01361 -1.67288 0
M  V30 1307 C 127.295 0.459135 -2.06046 0
M  V30 1308 O 126.643 1.43723 -1.7764 0
M  V30 1309 C 126.853 -1.95256 -2.89268 0
M  V30 1310 C 128.201 -2.23289 -3.61147 0
M  V30 1311 O 129.225 -1.93041 -2.99355 0
M  V30 1312 O 128.084 -2.74741 -4.72419 0
M  V30 1313 H 125.178 -0.38464 -0.732107 0
M  V30 1314 H 127.724 -1.36817 -1.00395 0
M  V30 1315 H 126.496 -2.94685 -2.57442 0
M  V30 1316 H 126.119 -1.60218 -3.6389 0
M  V30 1317 N 127.117 1.15442 -1.07289 0
M  V30 1318 C 128.363 1.86489 -0.796846 0
M  V30 1319 C 128.696 1.82078 0.675371 0
M  V30 1320 O 127.971 1.24346 1.4956 0
M  V30 1321 C 128.254 3.35626 -1.30489 0
M  V30 1322 C 128.107 3.48673 -2.84161 0
M  V30 1323 C 129.426 4.30357 -0.920907 0
M  V30 1324 H 126.545 0.677144 -0.290939 0
M  V30 1325 H 129.187 1.35633 -1.33056 0
M  V30 1326 H 127.337 3.79068 -0.850883 0
M  V30 1327 H 129.009 3.14099 -3.37846 0
M  V30 1328 H 127.252 2.90253 -3.22391 0
M  V30 1329 H 127.923 4.53453 -3.14777 0
M  V30 1330 H 130.399 3.94871 -1.3121 0
M  V30 1331 H 129.275 5.33193 -1.30372 0
M  V30 1332 H 129.536 4.4176 0.173226 0
M  V30 1333 N 128.595 0.856903 1.32268 0
M  V30 1334 C 129.525 0.31858 2.31316 0
M  V30 1335 C 130.506 -0.583487 1.59779 0
M  V30 1336 O 131.691 -0.503259 1.87566 0
M  V30 1337 C 128.821 -0.491979 3.43798 0
M  V30 1338 C 127.775 0.315849 4.26833 0
M  V30 1339 C 127.101 -0.619586 5.31098 0
M  V30 1340 C 128.401 1.54282 4.98993 0
M  V30 1341 H 130.095 1.14621 2.76591 0
M  V30 1342 H 127.641 0.552613 1.32974 0
M  V30 1343 H 129.594 -0.879012 4.1213 0
M  V30 1344 H 128.318 -1.35299 2.97257 0
M  V30 1345 H 126.977 0.684664 3.6015 0
M  V30 1346 H 126.625 -1.47751 4.8081 0
M  V30 1347 H 126.325 -0.0830621 5.87541 0
M  V30 1348 H 127.849 -1.00375 6.02293 0
M  V30 1349 H 129.263 1.22796 5.59995 0
M  V30 1350 H 127.66 2.01745 5.65172 0
M  V30 1351 H 128.73 2.30285 4.26728 0
M  V30 1352 N 130.073 -1.45103 0.615059 0
M  V30 1353 C 131.319 -2.02483 0.113347 0
M  V30 1354 C 131.652 -1.48146 -1.25564 0
M  V30 1355 O 130.927 -0.659104 -1.82992 0
M  V30 1356 C 131.21 -3.60005 0.0825278 0
M  V30 1357 C 131.063 -4.2466 1.48271 0
M  V30 1358 C 132.382 -4.35972 -0.601401 0
M  V30 1359 H 129.501 -0.735764 0.0426632 0
M  V30 1360 H 132.143 -1.72868 0.788461 0
M  V30 1361 H 130.293 -3.85367 -0.492378 0
M  V30 1362 H 131.965 -4.10458 2.10527 0
M  V30 1363 H 130.208 -3.82772 2.04127 0
M  V30 1364 H 130.879 -5.336 1.41332 0
M  V30 1365 H 133.355 -4.15947 -0.112666 0
M  V30 1366 H 132.231 -5.45697 -0.592097 0
M  V30 1367 H 132.492 -4.09391 -1.66887 0
M  V30 1368 N 131.551 -0.354651 -1.53558 0
M  V30 1369 C 132.791 0.238651 -2.03002 0
M  V30 1370 C 133.155 1.46878 -1.23656 0
M  V30 1371 O 134.356 2.13699 -1.63053 0
M  V30 1372 C 132.627 0.534175 -3.53386 0
M  V30 1373 S 134.186 1.10271 -4.24719 0
M  V30 1374 H 131.004 0.0702908 -0.707517 0
M  V30 1375 H 133.606 -0.494987 -1.8913 0
M  V30 1376 H 132.31 -0.368765 -4.0874 0
M  V30 1377 H 131.841 1.29718 -3.71398 0
M  V30 1378 H 133.856 2.38772 -4.34974 0
M  V30 1379 N 133.029 1.57378 -0.0835403 0
M  V30 1380 C 133.977 2.14602 0.89714 0
M  V30 1381 C 134.971 1.08589 1.30018 0
M  V30 1382 O 136.177 1.26952 1.27606 0
M  V30 1383 H 132.552 0.686346 0.3073 0
M  V30 1384 H 134.523 2.95845 0.38969 0
M  V30 1385 C 133.272 2.73188 2.15089 0
M  V30 1386 H 132.595 3.54442 1.84962 0
M  V30 1387 H 134.035 3.1681 2.81793 0
M  V30 1388 C 132.494 1.68517 2.91725 0
M  V30 1389 O 133.024 1.11718 3.85852 0
M  V30 1390 N 131.23 1.39277 2.55049 0
M  V30 1391 H 130.777 1.85655 1.78577 0
M  V30 1392 H 130.735 0.694791 3.06627 0
M  V30 1393 N 134.507 -0.190092 1.56449 0
M  V30 1394 C 135.47 -1.21925 1.9408 0
M  V30 1395 C 136.47 -1.38176 0.822431 0
M  V30 1396 O 137.66 -1.35903 1.08977 0
M  V30 1397 C 134.792 -2.58773 2.21922 0
M  V30 1398 H 135.985 -0.897464 2.86157 0
M  V30 1399 H 133.538 -0.43181 1.50217 0
M  V30 1400 H 134.273 -2.95998 1.32499 0
M  V30 1401 H 134.058 -2.48348 3.03424 0
M  V30 1402 H 135.548 -3.32978 2.52022 0
M  V30 1403 N 135.985 -1.50799 -0.457987 0
M  V30 1404 C 137.233 -1.62121 -1.2067 0
M  V30 1405 C 137.554 -0.329793 -1.92191 0
M  V30 1406 O 136.824 0.653409 -1.84682 0
M  V30 1407 H 135.404 -0.597441 -0.448411 0
M  V30 1408 H 138.066 -1.87637 -0.527096 0
M  V30 1409 H 137.162 -2.43882 -1.94751 0
M  V30 1410 N 137.463 0.71206 -1.40597 0
M  V30 1411 C 138.393 1.83889 -1.43899 0
M  V30 1412 C 139.374 1.67442 -0.299504 0
M  V30 1413 O 140.559 1.87421 -0.508624 0
M  V30 1414 C 137.689 3.21877 -1.30431 0
M  V30 1415 C 136.643 3.53002 -2.42019 0
M  V30 1416 C 135.969 4.90172 -2.13626 0
M  V30 1417 C 137.269 3.53643 -3.84362 0
M  V30 1418 H 138.963 1.81383 -2.38203 0
M  V30 1419 H 136.509 0.871237 -1.14654 0
M  V30 1420 H 138.462 4.00404 -1.31357 0
M  V30 1421 H 137.186 3.24968 -0.326049 0
M  V30 1422 H 135.845 2.76818 -2.40349 0
M  V30 1423 H 135.493 4.89869 -1.14182 0
M  V30 1424 H 135.193 5.11962 -2.88389 0
M  V30 1425 H 136.717 5.71028 -2.1624 0
M  V30 1426 H 138.131 4.22203 -3.87837 0
M  V30 1427 H 136.528 3.86961 -4.58673 0
M  V30 1428 H 137.598 2.52954 -4.13693 0
M  V30 1429 N 138.941 1.26152 0.944643 0
M  V30 1430 C 140.189 1.11271 1.6871 0
M  V30 1431 C 140.51 -0.345166 1.91921 0
M  V30 1432 O 139.78 -1.24387 1.51343 0
M  V30 1433 H 138.36 0.408783 0.625224 0
M  V30 1434 H 141.022 1.58427 1.1352 0
M  V30 1435 H 140.118 1.62879 2.66227 0
M  V30 1436 N 140.419 -1.14872 1.07899 0
M  V30 1437 C 141.349 -2.2193 0.725887 0
M  V30 1438 C 142.33 -1.67622 -0.28927 0
M  V30 1439 O 143.515 -1.93533 -0.160787 0
M  V30 1440 C 140.645 -3.47061 0.128856 0
M  V30 1441 C 139.599 -4.14363 1.07178 0
M  V30 1442 C 138.925 -5.33636 0.337229 0
M  V30 1443 C 140.225 -4.63492 2.40775 0
M  V30 1444 H 141.919 -2.51724 1.62097 0
M  V30 1445 H 139.465 -1.20991 0.780838 0
M  V30 1446 H 141.418 -4.21199 -0.130147 0
M  V30 1447 H 140.142 -3.16617 -0.80134 0
M  V30 1448 H 138.801 -3.42173 1.3158 0
M  V30 1449 H 138.449 -4.99449 -0.596606 0
M  V30 1450 H 138.149 -5.79609 0.965788 0
M  V30 1451 H 139.673 -6.10539 0.0861567 0
M  V30 1452 H 141.087 -5.2913 2.20669 0
M  V30 1453 H 139.484 -5.20148 2.99276 0
M  V30 1454 H 140.554 -3.78834 3.02676 0
M  V30 1455 N 141.898 -0.863906 -1.31812 0
M  V30 1456 C 142.828 -0.330843 -2.31144 0
M  V30 1457 C 143.809 0.575005 -1.60087 0
M  V30 1458 O 144.994 0.493304 -1.8783 0
M  V30 1459 C 142.124 0.47374 -3.44054 0
M  V30 1460 C 141.078 -0.338481 -4.26659 0
M  V30 1461 C 140.404 0.591412 -5.31419 0
M  V30 1462 C 141.704 -1.56926 -4.98168 0
M  V30 1463 H 143.398 -1.16086 -2.75979 0
M  V30 1464 H 140.944 -0.559657 -1.32679 0
M  V30 1465 H 142.897 0.857143 -4.12591 0
M  V30 1466 H 141.621 1.33721 -2.9797 0
M  V30 1467 H 140.28 -0.703754 -3.59782 0
M  V30 1468 H 139.928 1.45199 -4.81587 0
M  V30 1469 H 139.628 0.0519022 -5.87577 0
M  V30 1470 H 141.152 0.97179 -6.02817 0
M  V30 1471 H 142.566 -1.25764 -5.59336 0
M  V30 1472 H 140.963 -2.04739 -5.64094 0
M  V30 1473 H 142.033 -2.32544 -4.25501 0
M  V30 1474 N 143.376 1.44774 -0.622745 0
M  V30 1475 C 144.624 2.01721 -0.123655 0
M  V30 1476 C 144.945 1.49172 1.25589 0
M  V30 1477 O 144.215 0.691974 1.83272 0
M  V30 1478 H 142.795 0.745777 -0.0427225 0
M  V30 1479 H 145.457 1.77382 -0.807559 0
M  V30 1480 H 144.553 3.11984 -0.0849534 0
M  V30 1481 N 144.854 0.36279 1.53368 0
M  V30 1482 C 146.265 -0.117022 1.86333 0
M  V30 1483 C 146.616 -1.48397 1.28347 0
M  V30 1484 O 145.741 -2.07787 0.604428 0
M  V30 1485 C 146.336 -0.21912 3.38091 0
M  V30 1486 C 144.895 -0.643184 3.70864 0
M  V30 1487 C 144.042 0.211318 2.76494 0
M  V30 1488 H 146.993 0.581687 1.47655 0
M  V30 1489 H 147.014 -1.04319 3.6592 0
M  V30 1490 H 146.526 0.775902 3.80265 0
M  V30 1491 H 144.627 -1.64654 3.34245 0
M  V30 1492 H 144.74 -0.41973 4.77258 0
M  V30 1493 H 143.104 -0.319367 2.5269 0
M  V30 1494 H 143.887 1.20383 3.21501 0
M  V30 1495 N 146.332 -1.57332 0.0918853 0
M  V30 1496 C 147.262 -2.16872 -0.865371 0
M  V30 1497 C 148.243 -1.10118 -1.29646 0
M  V30 1498 O 149.428 -1.38242 -1.36392 0
M  V30 1499 C 146.558 -2.74649 -2.12569 0
M  V30 1500 C 145.512 -3.86747 -1.83333 0
M  V30 1501 C 144.838 -4.31212 -3.16166 0
M  V30 1502 C 146.138 -5.10089 -1.1228 0
M  V30 1503 H 147.832 -2.97114 -0.369307 0
M  V30 1504 H 145.378 -1.42918 -0.176194 0
M  V30 1505 H 147.331 -3.14952 -2.7997 0
M  V30 1506 H 146.055 -1.91657 -2.64452 0
M  V30 1507 H 144.714 -3.46978 -1.18331 0
M  V30 1508 H 144.362 -3.45115 -3.6593 0
M  V30 1509 H 144.062 -5.06788 -2.97388 0
M  V30 1510 H 145.586 -4.74146 -3.84731 0
M  V30 1511 H 147 -5.47582 -1.69785 0
M  V30 1512 H 145.397 -5.91073 -1.03693 0
M  V30 1513 H 146.467 -4.84786 -0.105041 0
M  V30 1514 N 147.81 0.181792 -1.56548 0
M  V30 1515 C 148.72 1.24538 -1.98815 0
M  V30 1516 C 149.736 1.49045 -0.897861 0
M  V30 1517 O 150.912 1.61399 -1.20467 0
M  V30 1518 C 147.977 2.56683 -2.33055 0
M  V30 1519 C 147.038 2.40131 -3.55859 0
M  V30 1520 C 146.271 3.65975 -3.88456 0
M  V30 1521 O 146.494 4.70711 -3.22161 0
M  V30 1522 O 145.428 3.6071 -4.81842 0
M  V30 1523 H 149.254 0.916647 -2.89536 0
M  V30 1524 H 146.839 0.387842 -1.44278 0
M  V30 1525 H 148.721 3.34655 -2.56094 0
M  V30 1526 H 147.396 2.89157 -1.45498 0
M  V30 1527 H 146.303 1.60226 -3.38051 0
M  V30 1528 H 147.636 2.12585 -4.43924 0
M  V30 1529 N 149.288 1.51039 0.449983 0
M  V30 1530 C 150.251 1.70863 1.5277 0
M  V30 1531 C 151.251 0.578846 1.5002 0
M  V30 1532 O 152.441 0.846213 1.52266 0
M  V30 1533 C 149.573 1.75341 2.9235 0
M  V30 1534 H 150.766 2.67034 1.36502 0
M  V30 1535 H 148.319 1.40838 0.677812 0
M  V30 1536 H 149.054 0.809383 3.14037 0
M  V30 1537 H 148.839 2.57436 2.95752 0
M  V30 1538 H 150.329 1.92559 3.70555 0
M  V30 1539 N 150.766 -0.704594 1.40972 0
M  V30 1540 C 151.696 -1.83124 1.44872 0
M  V30 1541 C 152.677 -1.67281 0.30838 0
M  V30 1542 O 153.862 -1.87149 0.518556 0
M  V30 1543 C 150.992 -3.21181 1.32136 0
M  V30 1544 C 149.946 -3.51714 2.43888 0
M  V30 1545 C 149.272 -4.89032 2.16222 0
M  V30 1546 C 150.572 -3.516 3.86232 0
M  V30 1547 H 152.266 -1.80117 2.39161 0
M  V30 1548 H 149.812 -0.865145 1.15114 0
M  V30 1549 H 151.765 -3.99702 1.33479 0
M  V30 1550 H 150.489 -3.24791 0.343279 0
M  V30 1551 H 149.148 -2.75539 2.41813 0
M  V30 1552 H 148.796 -4.89256 1.16778 0
M  V30 1553 H 148.496 -5.10426 2.911 0
M  V30 1554 H 150.02 -5.69873 2.19265 0
M  V30 1555 H 151.434 -4.2014 3.9007 0
M  V30 1556 H 149.831 -3.84523 4.60719 0
M  V30 1557 H 150.901 -2.50757 4.15029 0
M  V30 1558 N 152.244 -1.26651 -0.937939 0
M  V30 1559 C 153.492 -1.12165 -1.68118 0
M  V30 1560 C 153.813 0.334983 -1.92101 0
M  V30 1561 O 153.083 1.23583 -1.52 0
M  V30 1562 H 151.663 -0.412093 -0.623048 0
M  V30 1563 H 154.325 -1.59027 -1.12678 0
M  V30 1564 H 153.421 -1.64289 -2.6536 0
M  V30 1565 N 153.722 1.14298 -1.08507 0
M  V30 1566 C 154.632 2.23027 -0.727753 0
M  V30 1567 C 155.648 1.71952 0.26619 0
M  V30 1568 O 156.824 2.011 0.109882 0
M  V30 1569 C 153.889 3.46403 -0.143541 0
M  V30 1570 C 152.95 4.12413 -1.19223 0
M  V30 1571 C 152.183 5.29899 -0.635798 0
M  V30 1572 O 152.406 5.67796 0.544393 0
M  V30 1573 O 151.34 5.85717 -1.38634 0
M  V30 1574 H 155.166 2.55945 -1.63481 0
M  V30 1575 H 152.751 1.22248 -0.858817 0
M  V30 1576 H 154.633 4.21018 0.179404 0
M  V30 1577 H 153.308 3.15206 0.736659 0
M  V30 1578 H 152.215 3.39667 -1.56772 0
M  V30 1579 H 153.548 4.47718 -2.04474 0
M  V30 1580 N 155.201 0.870884 1.31352 0
M  V30 1581 C 156.478 0.402907 1.91405 0
M  V30 1582 C 156.858 -1.11512 1.79244 0
M  V30 1583 O 156.206 -1.94411 1.2007 0
M  V30 1584 C 156.416 0.885301 3.37585 0
M  V30 1585 C 157.764 0.911971 4.14691 0
M  V30 1586 O 158.788 0.831016 3.46371 0
M  V30 1587 O 157.647 1.02927 5.3672 0
M  V30 1588 H 154.741 0.120698 0.818145 0
M  V30 1589 H 157.287 0.958857 1.40014 0
M  V30 1590 H 156.059 1.92889 3.40455 0
M  V30 1591 H 155.682 0.307714 3.96407 0
M  V30 1592 N 156.679 -1.44442 0.630414 0
M  V30 1593 C 157.642 -2.29107 -0.0652523 0
M  V30 1594 C 158.642 -1.41002 -0.772995 0
M  V30 1595 O 159.832 -1.62881 -0.617692 0
M  V30 1596 C 156.964 -3.22564 -1.10296 0
M  V30 1597 H 158.157 -2.92103 0.679401 0
M  V30 1598 H 155.71 -1.51343 0.390517 0
M  V30 1599 H 156.445 -2.64416 -1.87762 0
M  V30 1600 H 156.23 -3.87491 -0.59941 0
M  V30 1601 H 157.72 -3.86167 -1.5895 0
M  V30 1602 N 158.157 -0.370918 -1.53173 0
M  V30 1603 C 159.403 0.217423 -2.01631 0
M  V30 1604 C 159.736 1.47983 -1.25756 0
M  V30 1605 O 159.011 1.91274 -0.352764 0
M  V30 1606 C 159.294 0.503982 -3.56556 0
M  V30 1607 C 159.147 -0.77243 -4.43118 0
M  V30 1608 C 160.466 1.30234 -4.20389 0
M  V30 1609 H 157.585 0.0775486 -0.732909 0
M  V30 1610 H 160.227 -0.496863 -1.83388 0
M  V30 1611 H 158.377 1.11248 -3.72231 0
M  V30 1612 H 160.049 -1.4098 -4.39229 0
M  V30 1613 H 158.292 -1.39167 -4.10871 0
M  V30 1614 H 158.963 -0.526815 -5.4948 0
M  V30 1615 H 161.439 0.787546 -4.08579 0
M  V30 1616 H 160.315 1.47158 -5.28806 0
M  V30 1617 H 160.576 2.31237 -3.76805 0
M  V30 1618 N 159.635 1.57281 -0.100228 0
M  V30 1619 C 160.598 2.13158 0.842398 0
M  V30 1620 C 161.598 1.06202 1.20738 0
M  V30 1621 O 162.788 1.32066 1.13597 0
M  V30 1622 C 159.92 2.65639 2.13655 0
M  V30 1623 H 161.113 2.97766 0.357114 0
M  V30 1624 H 158.666 1.5559 0.148823 0
M  V30 1625 H 159.401 1.84566 2.66657 0
M  V30 1626 H 159.186 3.43844 1.88451 0
M  V30 1627 H 160.676 3.08846 2.81077 0
M  V30 1628 N 161.113 -0.173488 1.56642 0
M  V30 1629 C 162.338 -0.910149 1.86363 0
M  V30 1630 C 162.763 -1.75132 0.686318 0
M  V30 1631 O 162.121 -1.77595 -0.364643 0
M  V30 1632 C 162.169 -1.76447 3.14482 0
M  V30 1633 O 161.273 -2.86584 2.96553 0
M  V30 1634 H 160.614 -0.255086 0.613047 0
M  V30 1635 H 163.144 -0.172283 2.03873 0
M  V30 1636 H 163.154 -2.16483 3.45831 0
M  V30 1637 H 161.829 -1.14658 3.99783 0
M  V30 1638 H 160.406 -2.50146 2.76553 0
M  V30 1639 N 162.591 -1.51276 -0.441967 0
M  V30 1640 C 163.837 -1.63958 -1.19355 0
M  V30 1641 C 164.17 -0.352543 -1.90973 0
M  V30 1642 O 163.445 0.647627 -1.83401 0
M  V30 1643 C 163.728 -2.83979 -2.21422 0
M  V30 1644 C 163.581 -4.22646 -1.53918 0
M  V30 1645 C 164.9 -2.99521 -3.22451 0
M  V30 1646 H 162.019 -0.596709 -0.432559 0
M  V30 1647 H 164.661 -1.83748 -0.483398 0
M  V30 1648 H 162.811 -2.67237 -2.81987 0
M  V30 1649 H 164.483 -4.51045 -0.967256 0
M  V30 1650 H 162.726 -4.25558 -0.841615 0
M  V30 1651 H 163.397 -5.02609 -2.28229 0
M  V30 1652 H 165.873 -3.14944 -2.71937 0
M  V30 1653 H 164.749 -3.85072 -3.91166 0
M  V30 1654 H 165.01 -2.11391 -3.88287 0
M  V30 1655 N 164.069 0.697108 -1.41344 0
M  V30 1656 C 164.999 1.82353 -1.45841 0
M  V30 1657 C 165.98 1.67115 -0.317247 0
M  V30 1658 O 167.165 1.86871 -0.528474 0
M  V30 1659 C 164.295 3.20476 -1.33838 0
M  V30 1660 C 163.249 3.50415 -2.4575 0
M  V30 1661 C 162.575 4.87878 -2.18813 0
M  V30 1662 C 163.875 3.49546 -3.88091 0
M  V30 1663 H 165.569 1.78846 -2.40113 0
M  V30 1664 H 163.115 0.859028 -1.15571 0
M  V30 1665 H 165.068 3.98988 -1.35596 0
M  V30 1666 H 163.792 3.24604 -0.360498 0
M  V30 1667 H 162.451 2.74253 -2.43271 0
M  V30 1668 H 162.099 4.8863 -1.19371 0
M  V30 1669 H 161.799 5.08875 -2.93803 0
M  V30 1670 H 163.323 5.68702 -2.22284 0
M  V30 1671 H 164.737 4.18066 -3.92293 0
M  V30 1672 H 163.134 3.82075 -4.62751 0
M  V30 1673 H 164.204 2.48552 -4.16353 0
M  V30 1674 N 165.547 1.27147 0.931209 0
M  V30 1675 C 166.824 1.0401 1.65654 0
M  V30 1676 C 167.204 -0.426297 2.06751 0
M  V30 1677 O 166.552 -1.40879 1.79904 0
M  V30 1678 C 166.762 1.99834 2.86125 0
M  V30 1679 C 168.11 2.29007 3.57549 0
M  V30 1680 O 169.134 1.97779 2.96246 0
M  V30 1681 O 167.993 2.82222 4.67989 0
M  V30 1682 H 165.087 0.396239 0.725895 0
M  V30 1683 H 167.633 1.38397 0.982056 0
M  V30 1684 H 166.405 2.98744 2.52721 0
M  V30 1685 H 166.028 1.65987 3.61295 0
M  V30 1686 N 167.025 -1.13721 1.09112 0
M  V30 1687 C 168.271 -1.85198 0.826414 0
M  V30 1688 C 168.604 -1.83129 -0.646319 0
M  V30 1689 O 167.879 -1.2671 -1.47563 0
M  V30 1690 C 168.162 -3.33507 1.35812 0
M  V30 1691 C 168.015 -3.44108 2.89672 0
M  V30 1692 C 169.334 -4.28838 0.989256 0
M  V30 1693 H 166.453 -0.67243 0.301675 0
M  V30 1694 H 169.095 -1.33499 1.35197 0
M  V30 1695 H 167.245 -3.77666 0.911082 0
M  V30 1696 H 168.917 -3.08684 3.428 0
M  V30 1697 H 167.16 -2.85087 3.26967 0
M  V30 1698 H 167.831 -4.48388 3.21951 0
M  V30 1699 H 170.307 -3.92734 1.37475 0
M  V30 1700 H 169.183 -5.31051 1.38838 0
M  V30 1701 H 169.444 -4.4198 -0.102924 0
M  V30 1702 N 168.503 -0.877838 -1.30888 0
M  V30 1703 C 169.451 -0.328662 -2.30266 0
M  V30 1704 C 170.445 0.560496 -1.59859 0
M  V30 1705 O 171.651 0.445722 -1.74394 0
M  V30 1706 H 168.026 -0.0876142 -0.746879 0
M  V30 1707 H 169.997 -1.18061 -2.74051 0
M  V30 1708 C 168.746 0.448071 -3.44801 0
M  V30 1709 H 168.069 -0.226859 -3.99156 0
M  V30 1710 H 169.509 0.797541 -4.16432 0
M  V30 1711 C 167.968 1.64239 -2.94155 0
M  V30 1712 O 168.498 2.74175 -2.93583 0
M  V30 1713 N 166.704 1.47716 -2.50256 0
M  V30 1714 H 166.251 0.582821 -2.5092 0
M  V30 1715 H 166.209 2.27765 -2.16727 0
M  V30 1716 N 169.982 1.44106 -0.638065 0
M  V30 1717 C 171.228 2.02277 -0.145546 0
M  V30 1718 C 171.561 1.50125 1.23191 0
M  V30 1719 O 170.836 0.688133 1.8192 0
M  V30 1720 C 171.119 3.59829 -0.139791 0
M  V30 1721 C 170.972 4.22247 -1.55008 0
M  V30 1722 C 172.291 4.36873 0.531966 0
M  V30 1723 H 169.41 0.734992 -0.0543632 0
M  V30 1724 H 172.052 1.71592 -0.815863 0
M  V30 1725 H 170.202 3.86102 0.431007 0
M  V30 1726 H 171.874 4.07057 -2.1703 0
M  V30 1727 H 170.117 3.79476 -2.10191 0
M  V30 1728 H 170.788 5.31284 -1.49804 0
M  V30 1729 H 173.264 4.16074 0.0464781 0
M  V30 1730 H 172.14 5.4657 0.505206 0
M  V30 1731 H 172.401 4.11995 1.60352 0
M  V30 1732 N 171.46 0.379036 1.52974 0
M  V30 1733 C 172.706 -0.206727 2.01744 0
M  V30 1734 C 173.039 -1.47314 1.26539 0
M  V30 1735 O 172.314 -1.91084 0.362903 0
M  V30 1736 C 172.597 -0.485066 3.56818 0
M  V30 1737 C 172.45 0.795919 4.42702 0
M  V30 1738 C 173.769 -1.28003 4.21074 0
M  V30 1739 H 170.888 -0.0736607 0.73331 0
M  V30 1740 H 173.53 0.506581 1.83122 0
M  V30 1741 H 171.68 -1.09272 3.72816 0
M  V30 1742 H 173.352 1.43307 4.38476 0
M  V30 1743 H 171.595 1.41344 4.10127 0
M  V30 1744 H 172.266 0.555947 5.49193 0
M  V30 1745 H 174.742 -0.765867 4.08991 0
M  V30 1746 H 173.618 -1.44352 5.29579 0
M  V30 1747 H 173.879 -2.29236 3.78026 0
M  V30 1748 N 172.938 -1.57226 0.108567 0
M  V30 1749 C 174.186 -1.94448 -0.550853 0
M  V30 1750 C 174.507 -0.992074 -1.67878 0
M  V30 1751 O 173.777 -0.0465 -1.95845 0
M  V30 1752 H 172.357 -0.717897 -0.206479 0
M  V30 1753 H 175.019 -1.94112 0.175062 0
M  V30 1754 H 174.115 -2.97218 -0.952259 0
M  V30 1755 N 174.416 0.165178 -1.56732 0
M  V30 1756 C 175.644 0.896218 -1.86482 0
M  V30 1757 C 176.059 1.75555 -0.694675 0
M  V30 1758 O 175.416 1.79379 0.33607 0
M  V30 1759 C 175.467 1.76792 -3.1532 0
M  V30 1760 O 175.188 0.943239 -4.27825 0
M  V30 1761 C 176.689 2.6081 -3.58459 0
M  V30 1762 H 173.909 0.260064 -0.618553 0
M  V30 1763 H 176.453 0.163428 -2.03846 0
M  V30 1764 H 174.608 2.45398 -2.99764 0
M  V30 1765 H 175.022 1.53998 -5.01383 0
M  V30 1766 H 176.496 3.17579 -4.51495 0
M  V30 1767 H 176.973 3.35977 -2.82872 0
M  V30 1768 H 177.579 1.97526 -3.76648 0
M  V30 1769 N 175.894 1.51508 0.433938 0
M  V30 1770 C 177.14 1.64588 1.18484 0
M  V30 1771 C 177.473 0.362666 1.90784 0
M  V30 1772 O 176.748 -0.637892 1.83742 0
M  V30 1773 C 177.031 2.85149 2.19913 0
M  V30 1774 C 176.884 4.23456 1.51674 0
M  V30 1775 C 178.203 3.01227 3.20858 0
M  V30 1776 H 175.322 0.598994 0.429389 0
M  V30 1777 H 177.964 1.84002 0.473647 0
M  V30 1778 H 176.114 2.68729 2.80566 0
M  V30 1779 H 177.786 4.51552 0.943322 0
M  V30 1780 H 176.029 4.25998 0.819035 0
M  V30 1781 H 176.7 5.03812 2.2556 0
M  V30 1782 H 179.176 3.16382 2.70263 0
M  V30 1783 H 178.052 3.87141 3.89118 0
M  V30 1784 H 178.313 2.13447 3.8716 0
M  V30 1785 N 177.372 -0.689602 1.41712 0
M  V30 1786 C 178.788 -1.00093 1.24312 0
M  V30 1787 C 178.988 -2.01036 0.136729 0
M  V30 1788 O 178.044 -2.47562 -0.496918 0
M  V30 1789 C 179.357 -1.51985 2.59463 0
M  V30 1790 C 180.905 -1.63838 2.66695 0
M  V30 1791 C 181.38 -2.1913 4.02177 0
M  V30 1792 N 182.871 -2.26483 4.04054 0
M  V30 1793 C 183.606 -2.70306 5.0569 0
M  V30 1794 N 183.102 -3.13691 6.17713 0
M  V30 1795 N 184.895 -2.69923 4.9305 0
M  V30 1796 H 177.046 -0.0210029 2.1239 0
M  V30 1797 H 179.309 -0.0718733 0.945272 0
M  V30 1798 H 179.015 -0.85269 3.41207 0
M  V30 1799 H 178.889 -2.50103 2.82362 0
M  V30 1800 H 181.276 -2.29664 1.85306 0
M  V30 1801 H 181.357 -0.642492 2.476 0
M  V30 1802 H 181.001 -1.53918 4.84016 0
M  V30 1803 H 180.931 -3.19482 4.18615 0
M  V30 1804 H 183.422 -1.95874 3.23174 0
M  V30 1805 H 183.735 -3.45773 6.9113 0
M  V30 1806 H 182.08 -3.11585 6.21241 0
M  V30 1807 H 185.271 -2.35382 4.04614 0
M  V30 1808 H 185.444 -3.03758 5.72394 0
M  V30 1809 N 178.85 -1.27639 -0.924453 0
M  V30 1810 C 179.783 -1.04966 -2.02626 0
M  V30 1811 C 180.761 0.0309505 -1.62571 0
M  V30 1812 O 181.945 -0.114846 -1.8815 0
M  V30 1813 C 179.072 -0.59292 -3.3347 0
M  V30 1814 C 178.118 -1.66858 -3.92506 0
M  V30 1815 S 178.951 -3.2619 -4.24689 0
M  V30 1816 C 180.107 -2.82325 -5.58609 0
M  V30 1817 H 180.34 -1.98252 -2.21547 0
M  V30 1818 H 177.873 -1.11506 -1.06798 0
M  V30 1819 H 179.831 -0.336086 -4.09122 0
M  V30 1820 H 178.492 0.319939 -3.12466 0
M  V30 1821 H 177.685 -1.30038 -4.86935 0
M  V30 1822 H 177.287 -1.87766 -3.2345 0
M  V30 1823 H 179.579 -2.2783 -6.38044 0
M  V30 1824 H 180.522 -3.75511 -6.00331 0
M  V30 1825 H 180.93 -2.21367 -5.19285 0
M  V30 1826 N 180.328 1.1314 -1.09713 0
M  V30 1827 C 181.258 2.20748 -0.761102 0
M  V30 1828 C 182.239 1.68061 0.262566 0
M  V30 1829 O 183.424 1.93765 0.129977 0
M  V30 1830 C 180.554 3.46812 -0.184054 0
M  V30 1831 C 179.508 4.12606 -1.13757 0
M  V30 1832 C 178.834 5.33031 -0.422083 0
M  V30 1833 C 180.134 4.59603 -2.48118 0
M  V30 1834 H 181.828 2.49113 -1.66082 0
M  V30 1835 H 179.374 1.19734 -0.799987 0
M  V30 1836 H 181.327 4.21353 0.0631215 0
M  V30 1837 H 180.051 3.17851 0.750868 0
M  V30 1838 H 178.71 3.40036 -1.37007 0
M  V30 1839 H 178.358 5.00335 0.517072 0
M  V30 1840 H 178.058 5.77999 -1.05788 0
M  V30 1841 H 179.582 6.10325 -0.183277 0
M  V30 1842 H 180.996 5.25552 -2.29059 0
M  V30 1843 H 179.393 5.15321 -3.07514 0
M  V30 1844 H 180.463 3.73971 -3.08665 0
M  V30 1845 N 181.806 0.884767 1.30421 0
M  V30 1846 C 182.738 0.308655 2.27112 0
M  V30 1847 C 183.751 -0.536655 1.53701 0
M  V30 1848 O 184.94 -0.35624 1.74909 0
M  V30 1849 C 182.04 -0.579782 3.33904 0
M  V30 1850 C 181.213 0.236417 4.36761 0
M  V30 1851 C 180.272 -0.582482 5.22966 0
M  V30 1852 O 179.298 -0.00525502 5.692 0
M  V30 1853 N 180.5 -1.89163 5.48815 0
M  V30 1854 H 183.265 1.13964 2.77186 0
M  V30 1855 H 180.826 0.747731 1.43599 0
M  V30 1856 H 182.818 -1.13366 3.88497 0
M  V30 1857 H 181.388 -1.31144 2.83761 0
M  V30 1858 H 180.608 0.97174 3.82035 0
M  V30 1859 H 181.896 0.795924 5.02536 0
M  V30 1860 H 181.294 -2.38352 5.13035 0
M  V30 1861 H 179.851 -2.39296 6.06284 0
M  V30 1862 N 183.284 -1.43765 0.645699 0
M  V30 1863 C 184.247 -2.29163 -0.0409488 0
M  V30 1864 C 185.247 -1.41813 -0.757996 0
M  V30 1865 O 186.437 -1.63527 -0.600382 0
M  V30 1866 C 183.569 -3.23716 -1.06869 0
M  V30 1867 H 184.762 -2.91366 0.710345 0
M  V30 1868 H 182.315 -1.5092 0.406547 0
M  V30 1869 H 183.05 -2.66393 -1.84947 0
M  V30 1870 H 182.835 -3.88105 -0.558277 0
M  V30 1871 H 184.325 -3.87831 -1.54845 0
M  V30 1872 N 184.763 -0.387143 -1.52771 0
M  V30 1873 C 186.01 0.195735 -2.01552 0
M  V30 1874 C 186.338 1.46995 -1.27369 0
M  V30 1875 O 185.593 1.92325 -0.361879 0
M  V30 1876 C 185.892 0.512209 -3.53711 0
M  V30 1877 C 185.558 -0.670202 -4.45891 0
M  V30 1878 C 184.22 -0.994586 -4.70809 0
M  V30 1879 C 186.572 -1.46134 -5.00294 0
M  V30 1880 C 183.9 -2.11169 -5.4738 0
M  V30 1881 C 186.252 -2.56903 -5.78086 0
M  V30 1882 C 184.916 -2.89852 -6.01284 0
M  V30 1883 H 184.186 0.0716246 -0.73753 0
M  V30 1884 H 186.833 -0.524046 -1.8419 0
M  V30 1885 H 185.138 1.31329 -3.69134 0
M  V30 1886 H 186.835 0.975804 -3.88946 0
M  V30 1887 H 183.425 -0.407366 -4.2666 0
M  V30 1888 H 187.609 -1.22397 -4.80971 0
M  V30 1889 H 182.865 -2.3707 -5.63567 0
M  V30 1890 H 187.039 -3.18608 -6.19243 0
M  V30 1891 H 184.666 -3.76533 -6.60399 0
M  V30 1892 N 186.241 1.57166 -0.116904 0
M  V30 1893 C 187.171 2.18222 0.830759 0
M  V30 1894 C 188.152 1.12167 1.27877 0
M  V30 1895 O 189.337 1.40394 1.34176 0
M  V30 1896 C 186.467 2.77996 2.08172 0
M  V30 1897 C 185.421 3.89614 1.77157 0
M  V30 1898 C 184.747 4.36187 3.09265 0
M  V30 1899 C 186.047 5.1181 1.04151 0
M  V30 1900 H 187.741 2.97664 0.321992 0
M  V30 1901 H 185.287 1.4318 0.153434 0
M  V30 1902 H 187.24 3.19366 2.74924 0
M  V30 1903 H 185.964 1.9584 2.6137 0
M  V30 1904 H 184.623 3.48816 1.12796 0
M  V30 1905 H 184.271 3.50893 3.60393 0
M  V30 1906 H 183.971 5.11455 2.89288 0
M  V30 1907 H 185.495 4.80207 3.77139 0
M  V30 1908 H 186.909 5.50214 1.61052 0
M  V30 1909 H 185.306 5.92648 0.942762 0
M  V30 1910 H 186.376 4.84892 0.0279022 0
M  V30 1911 N 187.719 -0.156864 1.56817 0
M  V30 1912 C 189.13 -0.717916 1.72345 0
M  V30 1913 C 189.481 -1.82124 0.729747 0
M  V30 1914 O 188.606 -2.16141 -0.105781 0
M  V30 1915 C 189.201 -1.30904 3.12489 0
M  V30 1916 C 187.76 -1.81676 3.29653 0
M  V30 1917 C 186.907 -0.701349 2.68284 0
M  V30 1918 H 189.858 0.0686989 1.58551 0
M  V30 1919 H 189.879 -2.17882 3.11942 0
M  V30 1920 H 189.391 -0.505796 3.8479 0
M  V30 1921 H 187.492 -2.64598 2.62333 0
M  V30 1922 H 187.605 -1.95226 4.3752 0
M  V30 1923 H 185.969 -1.12548 2.28484 0
M  V30 1924 H 186.752 0.0902846 3.43181 0
M  V30 1925 N 189.197 -1.51736 -0.425897 0
M  V30 1926 C 190.474 -1.55519 -1.1863 0
M  V30 1927 C 190.854 -0.326219 -2.08564 0
M  V30 1928 O 190.202 0.688012 -2.17896 0
M  V30 1929 C 190.412 -2.87521 -1.9782 0
M  V30 1930 C 191.76 -3.39899 -2.54468 0
M  V30 1931 O 192.784 -2.89148 -2.08019 0
M  V30 1932 O 191.643 -4.2848 -3.39215 0
M  V30 1933 H 188.737 -0.625739 -0.540721 0
M  V30 1934 H 191.283 -1.64055 -0.434038 0
M  V30 1935 H 190.055 -3.68422 -1.31836 0
M  V30 1936 H 189.678 -2.822 -2.80088 0
M  V30 1937 N 190.675 0.682077 -1.42076 0
M  V30 1938 C 191.608 1.80666 -1.3941 0
M  V30 1939 C 192.586 1.60518 -0.25939 0
M  V30 1940 O 193.77 1.83088 -0.448456 0
M  V30 1941 C 190.897 3.17556 -1.17796 0
M  V30 1942 C 189.943 3.56468 -2.34164 0
M  V30 1943 S 190.776 3.59729 -3.96681 0
M  V30 1944 C 191.932 4.99323 -3.77395 0
M  V30 1945 H 192.165 1.82652 -2.34575 0
M  V30 1946 H 189.698 0.852062 -1.2876 0
M  V30 1947 H 191.656 3.96575 -1.06012 0
M  V30 1948 H 190.317 3.13164 -0.242279 0
M  V30 1949 H 189.51 4.5595 -2.1477 0
M  V30 1950 H 189.112 2.84792 -2.42425 0
M  V30 1951 H 191.404 5.87202 -3.37935 0
M  V30 1952 H 192.347 5.23763 -4.76527 0
M  V30 1953 H 192.755 4.71498 -3.10403 0
M  V30 1954 N 192.153 1.28127 0.917671 0
M  V30 1955 C 193.1 1.11717 2.0196 0
M  V30 1956 C 194.07 0.0153929 1.66093 0
M  V30 1957 O 195.255 0.179596 1.89953 0
M  V30 1958 C 192.395 0.780927 3.36148 0
M  V30 1959 C 191.508 1.96135 3.84909 0
M  V30 1960 C 190.643 1.56609 5.0759 0
M  V30 1961 C 189.682 2.71339 5.48673 0
M  V30 1962 N 188.819 2.32332 6.62545 0
M  V30 1963 H 193.659 2.06003 2.15329 0
M  V30 1964 H 191.196 1.02535 1.05475 0
M  V30 1965 H 193.154 0.56675 4.13333 0
M  V30 1966 H 191.784 -0.124998 3.22558 0
M  V30 1967 H 190.836 2.28777 3.03916 0
M  V30 1968 H 192.148 2.82165 4.1132 0
M  V30 1969 H 191.302 1.31374 5.92305 0
M  V30 1970 H 190.041 0.677014 4.82978 0
M  V30 1971 H 189.046 2.97276 4.62501 0
M  V30 1972 H 190.271 3.60882 5.75274 0
M  V30 1973 H 188.217 1.45889 6.39572 0
M  V30 1974 H 188.134 3.11899 6.88662 0
M  V30 1975 H 189.402 2.10371 7.50576 0
M  V30 1976 N 193.631 -1.12557 1.10312 0
M  V30 1977 C 195.047 -1.36036 0.834649 0
M  V30 1978 C 195.247 -1.93946 -0.546539 0
M  V30 1979 O 194.303 -2.16484 -1.29966 0
M  V30 1980 C 195.616 -2.30312 1.9333 0
M  V30 1981 C 197.164 -2.43906 1.9616 0
M  V30 1982 C 197.639 -3.41496 3.05195 0
M  V30 1983 N 199.13 -3.49053 3.04494 0
M  V30 1984 C 199.865 -4.24471 3.85502 0
M  V30 1985 N 199.361 -5.02966 4.76442 0
M  V30 1986 N 201.154 -4.19864 3.73725 0
M  V30 1987 H 193.305 -0.733246 1.99342 0
M  V30 1988 H 195.568 -0.385234 0.866198 0
M  V30 1989 H 195.274 -1.94933 2.92735 0
M  V30 1990 H 195.148 -3.30421 1.81939 0
M  V30 1991 H 197.535 -2.78567 0.973886 0
M  V30 1992 H 197.616 -1.4369 2.11629 0
M  V30 1993 H 197.26 -3.07565 4.04186 0
M  V30 1994 H 197.19 -4.41539 2.86968 0
M  V30 1995 H 199.681 -2.93053 2.38596 0
M  V30 1996 H 199.994 -5.57846 5.34815 0
M  V30 1997 H 198.339 -5.02167 4.80472 0
M  V30 1998 H 201.53 -3.57623 3.02032 0
M  V30 1999 H 201.703 -4.78386 4.37093 0
M  V30 2000 N 195.109 -0.891671 -1.2995 0
M  V30 2001 C 196.525 -0.58662 -1.48428 0
M  V30 2002 C 196.725 0.873951 -1.81561 0
M  V30 2003 O 195.781 1.65471 -1.90724 0
M  V30 2004 C 197.094 -1.50553 -2.60296 0
M  V30 2005 C 198.642 -1.50988 -2.74175 0
M  V30 2006 C 199.117 -2.41488 -3.89163 0
M  V30 2007 N 200.608 -2.39489 -3.96483 0
M  V30 2008 C 201.343 -3.06223 -4.84784 0
M  V30 2009 N 200.839 -3.82206 -5.77833 0
M  V30 2010 N 202.632 -2.95421 -4.78208 0
M  V30 2011 H 194.783 -1.83644 -1.06718 0
M  V30 2012 H 197.046 -0.786455 -0.529332 0
M  V30 2013 H 196.752 -2.54581 -2.42654 0
M  V30 2014 H 196.626 -1.22008 -3.56923 0
M  V30 2015 H 199.013 -0.47708 -2.91218 0
M  V30 2016 H 199.094 -1.83567 -1.78148 0
M  V30 2017 H 198.738 -3.44857 -3.72876 0
M  V30 2018 H 198.668 -2.06222 -4.84541 0
M  V30 2019 H 201.159 -1.84278 -3.29924 0
M  V30 2020 H 201.472 -4.302 -6.41988 0
M  V30 2021 H 199.817 -3.86313 -5.77743 0
M  V30 2022 H 203.008 -2.35581 -4.04499 0
M  V30 2023 H 203.181 -3.47704 -5.46814 0
M  V30 2024 N 196.587 1.43421 -0.653314 0
M  V30 2025 C 197.835 2.01414 -0.166415 0
M  V30 2026 C 198.156 1.51803 1.22397 0
M  V30 2027 O 197.426 0.730693 1.81763 0
M  V30 2028 H 196.006 0.744703 -0.0585319 0
M  V30 2029 H 198.668 1.75629 -0.845003 0
M  V30 2030 H 197.764 3.11734 -0.151111 0
M  V30 2031 N 198.065 0.39524 1.52563 0
M  V30 2032 C 199.29 -0.187456 2.06551 0
M  V30 2033 C 199.715 -1.39249 1.26457 0
M  V30 2034 O 199.073 -1.78947 0.291151 0
M  V30 2035 C 199.121 -0.529985 3.56684 0
M  V30 2036 O 198.225 -1.62307 3.79118 0
M  V30 2037 H 197.566 -0.0202537 0.663691 0
M  V30 2038 H 200.096 0.564426 1.96661 0
M  V30 2039 H 200.106 -0.792598 4.00227 0
M  V30 2040 H 198.781 0.350987 4.14416 0
M  V30 2041 H 197.358 -1.3537 3.47461 0
M  V30 2042 N 199.544 -1.57102 0.125237 0
M  V30 2043 C 200.792 -1.95021 -0.530198 0
M  V30 2044 C 201.113 -1.00982 -1.66816 0
M  V30 2045 O 200.383 -0.0672693 -1.95784 0
M  V30 2046 H 198.963 -0.720046 -0.198853 0
M  V30 2047 H 201.625 -1.93916 0.19564 0
M  V30 2048 H 200.721 -2.98211 -0.920681 0
M  V30 2049 N 201.022 0.148545 -1.56898 0
M  V30 2050 C 202.438 0.501131 -1.51528 0
M  V30 2051 C 202.638 1.83458 -0.833399 0
M  V30 2052 O 201.694 2.49259 -0.40328 0
M  V30 2053 C 203.007 0.512864 -2.96294 0
M  V30 2054 C 204.555 0.598487 -3.07225 0
M  V30 2055 C 205.03 0.640897 -4.53494 0
M  V30 2056 N 206.521 0.703163 -4.57832 0
M  V30 2057 C 207.256 0.756935 -5.68382 0
M  V30 2058 N 206.752 0.770147 -6.88506 0
M  V30 2059 N 208.545 0.797698 -5.56411 0
M  V30 2060 H 200.696 -0.725532 -1.99624 0
M  V30 2061 H 202.959 -0.264358 -0.910395 0
M  V30 2062 H 202.665 -0.398691 -3.49433 0
M  V30 2063 H 202.539 1.35133 -3.52163 0
M  V30 2064 H 204.926 1.50046 -2.54106 0
M  V30 2065 H 205.007 -0.267093 -2.54402 0
M  V30 2066 H 204.651 -0.256915 -5.0725 0
M  V30 2067 H 204.581 1.52295 -5.04097 0
M  V30 2068 H 207.072 0.700314 -3.71354 0
M  V30 2069 H 207.385 0.812983 -7.68512 0
M  V30 2070 H 205.73 0.738049 -6.9107 0
M  V30 2071 H 208.921 0.784535 -4.61479 0
M  V30 2072 H 209.094 0.83614 -6.42583 0
M  V30 2073 N 202.5 1.5196 0.417844 0
M  V30 2074 C 203.746 1.65836 1.16732 0
M  V30 2075 C 204.079 0.382881 1.90388 0
M  V30 2076 O 203.354 -0.618368 1.84408 0
M  V30 2077 C 203.637 2.87466 2.16876 0
M  V30 2078 C 203.49 4.25041 1.47174 0
M  V30 2079 C 204.809 3.04613 3.17646 0
M  V30 2080 H 201.928 0.603515 0.423011 0
M  V30 2081 H 204.57 1.84494 0.454105 0
M  V30 2082 H 202.72 2.71689 2.777 0
M  V30 2083 H 204.392 4.52527 0.895376 0
M  V30 2084 H 202.635 4.26843 0.773806 0
M  V30 2085 H 203.306 5.06176 2.20204 0
M  V30 2086 H 205.782 3.1923 2.66892 0
M  V30 2087 H 204.658 3.91247 3.8499 0
M  V30 2088 H 204.919 2.17541 3.84874 0
M  V30 2089 N 203.978 -0.674533 1.42435 0
M  V30 2090 C 204.908 -1.80009 1.48724 0
M  V30 2091 C 205.889 -1.6659 0.343793 0
M  V30 2092 O 207.074 -1.86007 0.558137 0
M  V30 2093 C 204.204 -3.18306 1.38919 0
M  V30 2094 C 203.158 -3.46461 2.51294 0
M  V30 2095 C 202.484 -4.84335 2.26547 0
M  V30 2096 C 203.784 -3.43328 3.93603 0
M  V30 2097 H 205.478 -1.75004 2.42928 0
M  V30 2098 H 203.024 -0.840533 1.16923 0
M  V30 2099 H 204.977 -3.9678 1.41927 0
M  V30 2100 H 203.701 -3.2399 0.412094 0
M  V30 2101 H 202.36 -2.70348 2.47604 0
M  V30 2102 H 202.008 -4.86669 1.2713 0
M  V30 2103 H 201.708 -5.04136 3.01861 0
M  V30 2104 H 203.232 -5.65094 2.31304 0
M  V30 2105 H 204.646 -4.11772 3.98894 0
M  V30 2106 H 203.043 -3.74664 4.68771 0
M  V30 2107 H 204.113 -2.41897 4.20255 0
M  V30 2108 N 205.456 -1.28612 -0.910864 0
M  V30 2109 C 206.702 -1.16106 -1.66274 0
M  V30 2110 C 207.035 0.289113 -1.92036 0
M  V30 2111 O 206.31 1.21 -1.52281 0
M  V30 2112 C 206.593 -1.96309 -3.01885 0
M  V30 2113 C 206.446 -3.49405 -2.8326 0
M  V30 2114 C 207.765 -1.78076 -4.02463 0
M  V30 2115 H 204.884 -0.423152 -0.603417 0
M  V30 2116 H 207.526 -1.57961 -1.05586 0
M  V30 2117 H 205.676 -1.60742 -3.53687 0
M  V30 2118 H 207.348 -3.94894 -2.38446 0
M  V30 2119 H 205.591 -3.74893 -2.18261 0
M  V30 2120 H 206.262 -4.00784 -3.79574 0
M  V30 2121 H 208.738 -2.0912 -3.59733 0
M  V30 2122 H 207.614 -2.36561 -4.95308 0
M  V30 2123 H 207.875 -0.733008 -4.35981 0
M  V30 2124 N 206.934 1.1197 -1.10907 0
M  V30 2125 C 208.162 1.87402 -0.876824 0
M  V30 2126 C 208.577 1.79894 0.573025 0
M  V30 2127 O 207.934 1.17629 1.39534 0
M  V30 2128 C 207.985 3.36428 -1.32282 0
M  V30 2129 O 207.706 3.43765 -2.71582 0
M  V30 2130 C 209.207 4.28783 -1.12518 0
M  V30 2131 H 206.427 0.592793 -0.314384 0
M  V30 2132 H 208.971 1.41649 -1.47499 0
M  V30 2133 H 207.126 3.79706 -0.768229 0
M  V30 2134 H 207.54 4.3652 -2.90776 0
M  V30 2135 H 209.014 5.31613 -1.48633 0
M  V30 2136 H 209.491 4.39153 -0.0642394 0
M  V30 2137 H 210.097 3.91291 -1.66648 0
M  V30 2138 N 208.412 0.89855 1.29475 0
M  V30 2139 C 209.66 0.522847 1.9522 0
M  V30 2140 C 209.981 -0.93371 1.71192 0
M  V30 2141 O 209.251 -1.65823 1.04305 0
M  V30 2142 H 207.831 0.190366 0.722336 0
M  V30 2143 H 210.493 1.14459 1.5775 0
M  V30 2144 H 209.589 0.704476 3.04045 0
M  V30 2145 N 209.89 -1.43072 0.660911 0
M  V30 2146 C 211.115 -2.06584 0.183805 0
M  V30 2147 C 211.54 -1.49257 -1.14472 0
M  V30 2148 O 210.898 -0.605528 -1.70889 0
M  V30 2149 C 210.946 -3.60418 0.114434 0
M  V30 2150 O 210.05 -4.01981 -0.921137 0
M  V30 2151 H 209.391 -0.656669 0.0983994 0
M  V30 2152 H 211.921 -1.83447 0.906006 0
M  V30 2153 H 211.931 -4.07946 -0.0663394 0
M  V30 2154 H 210.606 -4.01519 1.08422 0
M  V30 2155 H 209.183 -3.66029 -0.71253 0
M  V30 2156 N 211.368 -0.403325 -1.52352 0
M  V30 2157 C 212.614 0.174605 -2.02047 0
M  V30 2158 C 212.947 1.45282 -1.28867 0
M  V30 2159 O 212.222 1.90483 -0.393257 0
M  V30 2160 C 212.505 0.428238 -3.57545 0
M  V30 2161 C 212.358 -0.866248 -4.4138 0
M  V30 2162 C 213.677 1.21287 -4.23057 0
M  V30 2163 H 210.796 0.0619851 -0.734389 0
M  V30 2164 H 213.438 -0.53565 -1.82293 0
M  V30 2165 H 211.588 1.03327 -3.74507 0
M  V30 2166 H 213.26 -1.50265 -4.3614 0
M  V30 2167 H 211.503 -1.47851 -4.07827 0
M  V30 2168 H 212.174 -0.643249 -5.48239 0
M  V30 2169 H 214.65 0.700703 -4.10158 0
M  V30 2170 H 213.526 1.35909 -5.31808 0
M  V30 2171 H 213.787 2.23193 -3.81625 0
M  V30 2172 N 212.846 1.57033 -0.133567 0
M  V30 2173 C 214.094 1.953 0.519848 0
M  V30 2174 C 214.415 1.01866 1.66278 0
M  V30 2175 O 213.685 0.0776513 1.95746 0
M  V30 2176 H 212.265 0.721091 0.195032 0
M  V30 2177 H 214.927 1.93809 -0.205921 0
M  V30 2178 H 214.023 2.98695 0.904854 0
M  V30 2179 N 214.325 -0.140222 1.56975 0
M  V30 2180 C 215.573 -0.850005 1.83356 0
M  V30 2181 C 215.894 -1.81399 0.71551 0
M  V30 2182 O 215.164 -1.94136 -0.262294 0
M  V30 2183 H 213.744 -0.316886 0.676456 0
M  V30 2184 H 216.406 -0.132608 1.94448 0
M  V30 2185 H 215.502 -1.40814 2.78528 0
M  V30 2186 N 215.803 -1.52179 -0.40978 0
M  V30 2187 C 216.733 -1.78435 -1.5061 0
M  V30 2188 C 217.714 -0.635295 -1.57791 0
M  V30 2189 O 218.899 -0.880823 -1.73076 0
M  V30 2190 C 216.029 -1.93444 -2.88439 0
M  V30 2191 C 214.983 -3.09038 -2.96108 0
M  V30 2192 C 214.309 -3.09268 -4.36185 0
M  V30 2193 C 215.609 -4.48508 -2.67652 0
M  V30 2194 H 217.303 -2.70237 -1.28889 0
M  V30 2195 H 214.849 -1.30036 -0.618605 0
M  V30 2196 H 216.802 -2.10394 -3.65119 0
M  V30 2197 H 215.526 -0.983129 -3.11452 0
M  V30 2198 H 214.185 -2.91837 -2.21872 0
M  V30 2199 H 213.833 -2.11861 -4.56206 0
M  V30 2200 H 213.533 -3.86907 -4.42241 0
M  V30 2201 H 215.057 -3.28348 -5.14801 0
M  V30 2202 H 216.471 -4.65918 -3.34056 0
M  V30 2203 H 214.868 -5.28059 -2.85085 0
M  V30 2204 H 215.938 -4.56649 -1.63095 0
M  V30 2205 N 217.281 0.66697 -1.42791 0
M  V30 2206 C 218.214 1.79177 -1.41318 0
M  V30 2207 C 219.192 1.60234 -0.276401 0
M  V30 2208 O 220.376 1.82602 -0.46785 0
M  V30 2209 C 217.503 3.16289 -1.21157 0
M  V30 2210 C 216.549 3.53964 -2.37932 0
M  V30 2211 S 217.382 3.55501 -4.00474 0
M  V30 2212 C 218.538 4.95292 -3.8267 0
M  V30 2213 H 218.771 1.80153 -2.365 0
M  V30 2214 H 216.304 0.838357 -1.29657 0
M  V30 2215 H 218.262 3.95428 -1.10212 0
M  V30 2216 H 216.923 3.1289 -0.275481 0
M  V30 2217 H 216.116 4.53646 -2.19594 0
M  V30 2218 H 215.718 2.82204 -2.45432 0
M  V30 2219 H 218.01 5.83584 -3.44145 0
M  V30 2220 H 218.953 5.18679 -4.82055 0
M  V30 2221 H 219.361 4.68179 -3.15386 0
M  V30 2222 N 218.759 1.29093 0.90403 0
M  V30 2223 C 220.007 1.16583 1.65085 0
M  V30 2224 C 220.328 -0.283933 1.92922 0
M  V30 2225 O 219.598 -1.19509 1.55224 0
M  V30 2226 H 218.178 0.428467 0.611903 0
M  V30 2227 H 220.84 1.61959 1.08422 0
M  V30 2228 H 219.936 1.71266 2.6091 0
M  V30 2229 N 220.237 -1.11381 1.11499 0
M  V30 2230 C 221.167 -2.19509 0.796125 0
M  V30 2231 C 222.148 -1.68458 -0.235796 0
M  V30 2232 O 223.333 -1.93947 -0.0991344 0
M  V30 2233 C 220.463 -3.46475 0.239205 0
M  V30 2234 C 219.417 -4.10744 1.20307 0
M  V30 2235 C 218.743 -5.32293 0.50683 0
M  V30 2236 C 220.043 -4.55597 2.55399 0
M  V30 2237 H 221.737 -2.46439 1.70024 0
M  V30 2238 H 219.283 -1.18446 0.818935 0
M  V30 2239 H 221.236 -4.214 0.00392006 0
M  V30 2240 H 219.96 -3.19006 -0.700206 0
M  V30 2241 H 218.619 -3.37813 1.42399 0
M  V30 2242 H 218.267 -5.01095 -0.437408 0
M  V30 2243 H 217.967 -5.76243 1.1497 0
M  V30 2244 H 219.491 -6.09956 0.280351 0
M  V30 2245 H 220.905 -5.21841 2.37391 0
M  V30 2246 H 219.302 -5.10363 3.15673 0
M  V30 2247 H 220.372 -3.69013 3.14575 0
M  V30 2248 N 221.715 -0.905404 -1.28997 0
M  V30 2249 C 223.126 -0.581953 -1.77398 0
M  V30 2250 C 223.477 0.902552 -1.74208 0
M  V30 2251 O 222.602 1.70584 -1.33154 0
M  V30 2252 C 223.197 -1.04961 -3.22131 0
M  V30 2253 C 221.756 -0.777229 -3.68288 0
M  V30 2254 C 220.903 -1.22109 -2.48967 0
M  V30 2255 H 223.854 -1.08754 -1.15578 0
M  V30 2256 H 223.875 -0.387387 -3.78523 0
M  V30 2257 H 223.387 -2.13008 -3.24421 0
M  V30 2258 H 221.488 0.290383 -3.71467 0
M  V30 2259 H 221.601 -1.37911 -4.58822 0
M  V30 2260 H 219.965 -0.639971 -2.46529 0
M  V30 2261 H 220.748 -2.30972 -2.53982 0
M  V30 2262 N 223.193 1.4272 -0.668489 0
M  V30 2263 C 224.44 2.01624 -0.18814 0
M  V30 2264 C 224.768 1.5282 1.20317 0
M  V30 2265 O 224.023 0.718323 1.8204 0
M  V30 2266 C 224.322 3.57021 -0.164499 0
M  V30 2267 C 223.988 4.25232 -1.49962 0
M  V30 2268 C 222.65 4.4358 -1.8652 0
M  V30 2269 C 225.002 4.63727 -2.37921 0
M  V30 2270 C 222.33 4.97694 -3.10674 0
M  V30 2271 C 224.682 5.19218 -3.6138 0
M  V30 2272 C 223.346 5.3578 -3.98115 0
M  V30 2273 H 222.616 0.737795 -0.0688454 0
M  V30 2274 H 225.263 1.70991 -0.862225 0
M  V30 2275 H 223.568 3.87285 0.593079 0
M  V30 2276 H 225.265 4.00372 0.224271 0
M  V30 2277 H 221.855 4.11306 -1.20522 0
M  V30 2278 H 226.039 4.4923 -2.10964 0
M  V30 2279 H 221.295 5.08702 -3.39164 0
M  V30 2280 H 225.469 5.4799 -4.29743 0
M  V30 2281 H 223.096 5.77475 -4.94395 0
M  V30 2282 N 224.671 0.411399 1.52136 0
M  V30 2283 C 225.619 -0.427633 2.28635 0
M  V30 2284 C 226.613 -1.04383 1.33419 0
M  V30 2285 O 227.819 -0.981772 1.50868 0
M  V30 2286 H 224.194 -0.156689 0.735495 0
M  V30 2287 H 226.165 0.238761 2.97443 0
M  V30 2288 C 224.914 -1.53082 3.12188 0
M  V30 2289 H 224.237 -1.06601 3.85326 0
M  V30 2290 H 225.677 -2.09167 3.68816 0
M  V30 2291 C 224.136 -2.49946 2.25895 0
M  V30 2292 O 224.666 -3.53884 1.90076 0
M  V30 2293 N 222.872 -2.2021 1.8962 0
M  V30 2294 H 222.419 -1.35719 2.18948 0
M  V30 2295 H 222.377 -2.85266 1.32176 0
M  V30 2296 N 226.149 -1.5696 0.141893 0
M  V30 2297 C 227.426 -1.87553 -0.555281 0
M  V30 2298 C 227.806 -1.04699 -1.83306 0
M  V30 2299 O 227.154 -0.132346 -2.28116 0
M  V30 2300 C 227.364 -3.39093 -0.825664 0
M  V30 2301 C 228.712 -4.08199 -1.16869 0
M  V30 2302 O 229.736 -3.44242 -0.915185 0
M  V30 2303 O 228.595 -5.21139 -1.6455 0
M  V30 2304 H 225.689 -0.777188 -0.282679 0
M  V30 2305 H 228.235 -1.68763 0.17812 0
M  V30 2306 H 227.007 -3.91221 0.0788633 0
M  V30 2307 H 226.63 -3.63393 -1.61343 0
M  V30 2308 N 227.627 0.131896 -1.57047 0
M  V30 2309 C 228.873 0.843179 -1.84441 0
M  V30 2310 C 229.206 1.80129 -0.725749 0
M  V30 2311 O 228.481 1.92624 0.269469 0
M  V30 2312 C 228.764 1.60442 -3.22382 0
M  V30 2313 C 228.617 0.666782 -4.4483 0
M  V30 2314 C 229.936 2.56354 -3.5773 0
M  V30 2315 H 227.055 0.305081 -0.670891 0
M  V30 2316 H 229.697 0.107839 -1.89694 0
M  V30 2317 H 227.847 2.23128 -3.18035 0
M  V30 2318 H 229.519 0.0497646 -4.61273 0
M  V30 2319 H 227.762 -0.022609 -4.33794 0
M  V30 2320 H 228.433 1.23579 -5.37989 0
M  V30 2321 H 230.909 2.0378 -3.62785 0
M  V30 2322 H 229.785 3.06657 -4.5525 0
M  V30 2323 H 230.046 3.38419 -2.84473 0
M  V30 2324 N 229.106 1.52395 0.401703 0
M  V30 2325 C 230.336 1.70429 1.1678 0
M  V30 2326 C 230.744 0.416702 1.84554 0
M  V30 2327 O 230.087 -0.617697 1.73003 0
M  V30 2328 C 230.149 2.78919 2.26814 0
M  V30 2329 C 229.813 4.20437 1.79113 0
M  V30 2330 C 230.81 5.04028 1.27482 0
M  V30 2331 C 228.495 4.66704 1.85722 0
M  V30 2332 C 230.489 6.31961 0.830913 0
M  V30 2333 C 228.176 5.94625 1.40942 0
M  V30 2334 C 229.174 6.77082 0.897128 0
M  V30 2335 O 228.862 8.02607 0.455822 0
M  V30 2336 H 228.594 0.574272 0.356634 0
M  V30 2337 H 231.148 1.99767 0.477724 0
M  V30 2338 H 229.378 2.44973 2.99207 0
M  V30 2339 H 231.067 2.8548 2.88541 0
M  V30 2340 H 231.833 4.69471 1.21744 0
M  V30 2341 H 227.712 4.0262 2.24539 0
M  V30 2342 H 231.256 6.96271 0.430368 0
M  V30 2343 H 227.153 6.28688 1.46362 0
M  V30 2344 H 227.921 8.16453 0.578457 0
M  V30 2345 N 230.584 -0.659388 1.43143 0
M  V30 2346 C 231.824 -1.43121 1.45931 0
M  V30 2347 C 232.188 -1.91838 0.0789298 0
M  V30 2348 O 233.389 -2.68794 -0.018491 0
M  V30 2349 C 231.66 -2.58534 2.46769 0
M  V30 2350 S 233.219 -3.47154 2.68384 0
M  V30 2351 H 230.037 -0.488624 0.516496 0
M  V30 2352 H 232.639 -0.766128 1.79863 0
M  V30 2353 H 231.343 -2.21007 3.45809 0
M  V30 2354 H 230.874 -3.29898 2.14315 0
M  V30 2355 H 232.889 -4.55051 1.97845 0
M  V30 2356 N 232.062 -1.29571 -0.897171 0
M  V30 2357 C 233.025 -1.14913 -1.98312 0
M  V30 2358 C 234.025 -0.0838629 -1.60581 0
M  V30 2359 O 235.215 -0.331006 -1.71026 0
M  V30 2360 C 232.347 -0.757835 -3.3237 0
M  V30 2361 H 233.54 -2.11377 -2.12743 0
M  V30 2362 H 231.093 -1.12793 -1.08201 0
M  V30 2363 H 231.828 0.206837 -3.2364 0
M  V30 2364 H 231.613 -1.52755 -3.61121 0
M  V30 2365 H 233.103 -0.678408 -4.12053 0
M  V30 2366 N 233.54 1.10788 -1.12088 0
M  V30 2367 C 234.765 1.87002 -0.896949 0
M  V30 2368 C 235.19 1.79933 0.548261 0
M  V30 2369 O 234.548 1.16662 1.38779 0
M  V30 2370 C 234.596 3.3349 -1.37174 0
M  V30 2371 O 233.7 4.08745 -0.547831 0
M  V30 2372 H 233.041 0.580397 -0.322545 0
M  V30 2373 H 235.571 1.39996 -1.49206 0
M  V30 2374 H 235.581 3.84339 -1.36922 0
M  V30 2375 H 234.256 3.37951 -2.42408 0
M  V30 2376 H 232.833 3.6776 -0.617034 0
M  V30 2377 N 235.018 0.912232 1.28515 0
M  V30 2378 C 235.965 0.397954 2.27343 0
M  V30 2379 C 236.935 -0.526766 1.57526 0
M  V30 2380 O 238.12 -0.449292 1.85435 0
M  V30 2381 C 235.26 -0.357263 3.43246 0
M  V30 2382 C 234.373 0.599788 4.27816 0
M  V30 2383 C 233.508 -0.173725 5.30916 0
M  V30 2384 C 232.547 0.777039 6.07148 0
M  V30 2385 N 231.684 0.0371398 7.0209 0
M  V30 2386 H 236.524 1.24577 2.70711 0
M  V30 2387 H 234.061 0.625612 1.33133 0
M  V30 2388 H 236.019 -0.8113 4.09236 0
M  V30 2389 H 234.649 -1.16943 3.00872 0
M  V30 2390 H 233.701 1.17235 3.61884 0
M  V30 2391 H 235.013 1.32704 4.80823 0
M  V30 2392 H 234.167 -0.688394 6.02782 0
M  V30 2393 H 232.906 -0.934041 4.78672 0
M  V30 2394 H 231.911 1.3031 5.34134 0
M  V30 2395 H 233.136 1.53689 6.61481 0
M  V30 2396 H 231.082 -0.705213 6.52198 0
M  V30 2397 H 230.999 0.704249 7.52713 0
M  V30 2398 H 232.267 -0.457383 7.78157 0
M  V30 2399 N 236.496 -1.42363 0.676048 0
M  V30 2400 C 237.743 -2.01522 0.19883 0
M  V30 2401 C 238.071 -1.53456 -1.19505 0
M  V30 2402 O 237.326 -0.727967 -1.81657 0
M  V30 2403 C 237.625 -3.56929 0.183431 0
M  V30 2404 C 237.291 -4.24431 1.52215 0
M  V30 2405 C 235.953 -4.42585 1.8887 0
M  V30 2406 C 238.305 -4.62459 2.40377 0
M  V30 2407 C 235.633 -4.96039 3.13309 0
M  V30 2408 C 237.985 -5.17294 3.64129 0
M  V30 2409 C 236.649 -5.33661 4.00951 0
M  V30 2410 H 235.919 -0.737419 0.0727571 0
M  V30 2411 H 238.566 -1.70531 0.871281 0
M  V30 2412 H 236.871 -3.87594 -0.572532 0
M  V30 2413 H 238.568 -4.00486 -0.203035 0
M  V30 2414 H 235.158 -4.10661 1.22701 0
M  V30 2415 H 239.342 -4.48105 2.13343 0
M  V30 2416 H 234.598 -5.06896 3.41857 0
M  V30 2417 H 238.772 -5.45704 4.32644 0
M  V30 2418 H 236.399 -5.74845 4.9745 0
M  V30 2419 N 237.974 -0.419461 -1.51915 0
M  V30 2420 C 238.937 0.389116 -2.25873 0
M  V30 2421 C 239.937 0.964924 -1.28631 0
M  V30 2422 O 241.127 0.842179 -1.52489 0
M  V30 2423 C 238.259 1.54874 -3.03689 0
M  V30 2424 H 239.452 -0.258799 -2.98781 0
M  V30 2425 H 237.005 -0.172209 -1.55348 0
M  V30 2426 H 237.74 2.23323 -2.35154 0
M  V30 2427 H 237.525 1.14223 -3.75094 0
M  V30 2428 H 239.015 2.12046 -3.59759 0
M  V30 2429 N 239.452 1.56882 -0.150215 0
M  V30 2430 C 240.382 2.19935 0.784284 0
M  V30 2431 C 241.363 1.14854 1.25469 0
M  V30 2432 O 242.548 1.43209 1.31168 0
M  V30 2433 C 239.678 2.82349 2.02229 0
M  V30 2434 C 238.632 3.93285 1.68853 0
M  V30 2435 C 237.958 4.42649 2.99944 0
M  V30 2436 C 239.258 5.13904 0.932714 0
M  V30 2437 H 240.952 2.9828 0.258781 0
M  V30 2438 H 238.498 1.43473 0.123029 0
M  V30 2439 H 240.451 3.25126 2.68088 0
M  V30 2440 H 239.175 2.0134 2.57157 0
M  V30 2441 H 237.834 3.5113 1.05371 0
M  V30 2442 H 237.482 3.58458 3.52869 0
M  V30 2443 H 237.182 5.17476 2.78374 0
M  V30 2444 H 238.706 4.88099 3.66868 0
M  V30 2445 H 240.12 5.53506 1.49345 0
M  V30 2446 H 238.517 5.94515 0.81684 0
M  V30 2447 H 239.587 4.84842 -0.0749568 0
M  V30 2448 N 240.93 -0.123565 1.57115 0
M  V30 2449 C 241.84 -1.17074 2.033 0
M  V30 2450 C 242.856 -1.4561 0.952559 0
M  V30 2451 O 244.032 -1.56817 1.26374 0
M  V30 2452 C 241.097 -2.47857 2.42421 0
M  V30 2453 C 240.158 -2.26758 3.64526 0
M  V30 2454 C 239.391 -3.51305 4.01771 0
M  V30 2455 O 239.614 -4.5843 3.39409 0
M  V30 2456 O 238.548 -3.42578 4.94898 0
M  V30 2457 H 242.374 -0.808555 2.92739 0
M  V30 2458 H 239.959 -0.334027 1.45618 0
M  V30 2459 H 241.841 -3.2492 2.68338 0
M  V30 2460 H 240.516 -2.83558 1.5613 0
M  V30 2461 H 239.423 -1.47569 3.43765 0
M  V30 2462 H 240.756 -1.95963 4.51508 0
M  V30 2463 N 242.408 -1.52605 -0.393616 0
M  V30 2464 C 243.656 -1.67093 -1.13685 0
M  V30 2465 C 243.977 -0.411011 -1.90619 0
M  V30 2466 O 243.247 0.574491 -1.87287 0
M  V30 2467 H 241.827 -0.615923 -0.422668 0
M  V30 2468 H 244.489 -1.89704 -0.447039 0
M  V30 2469 H 243.585 -2.51922 -1.84232 0
M  V30 2470 N 243.887 0.651787 -1.4349 0
M  V30 2471 C 244.817 1.77621 -1.51569 0
M  V30 2472 C 245.798 1.66022 -0.370253 0
M  V30 2473 O 246.983 1.85095 -0.587658 0
M  V30 2474 C 244.113 3.16056 -1.43966 0
M  V30 2475 C 243.067 3.4242 -2.56774 0
M  V30 2476 C 242.393 4.8067 -2.34223 0
M  V30 2477 C 243.693 3.37023 -3.99015 0
M  V30 2478 H 245.387 1.71117 -2.45681 0
M  V30 2479 H 242.933 0.821825 -1.18246 0
M  V30 2480 H 244.886 3.94472 -1.48221 0
M  V30 2481 H 243.61 3.23293 -0.463586 0
M  V30 2482 H 242.269 2.66375 -2.51873 0
M  V30 2483 H 241.917 4.84585 -1.34856 0
M  V30 2484 H 241.617 4.9927 -3.09844 0
M  V30 2485 H 243.141 5.61342 -2.40265 0
M  V30 2486 H 244.555 4.05374 -4.05395 0
M  V30 2487 H 242.952 3.67159 -4.74673 0
M  V30 2488 H 244.022 2.3518 -4.2405 0
M  V30 2489 N 245.365 1.30045 0.890287 0
M  V30 2490 C 246.605 1.19839 1.65584 0
M  V30 2491 C 246.969 -0.244175 1.90441 0
M  V30 2492 O 248.17 -0.469378 2.6467 0
M  V30 2493 C 246.441 1.99876 2.96284 0
M  V30 2494 S 248 2.06309 3.87275 0
M  V30 2495 H 244.818 0.427157 0.568382 0
M  V30 2496 H 247.42 1.64453 1.05715 0
M  V30 2497 H 246.124 3.03809 2.75913 0
M  V30 2498 H 245.655 1.55903 3.61189 0
M  V30 2499 H 247.67 1.18661 4.81803 0
M  V30 2500 N 246.843 -1.10192 1.12674 0
M  V30 2501 C 247.753 -2.20172 0.810026 0
M  V30 2502 C 248.769 -1.72821 -0.202188 0
M  V30 2503 O 249.945 -2.01369 -0.0351691 0
M  V30 2504 C 247.01 -3.45631 0.272007 0
M  V30 2505 C 246.071 -4.07704 1.34447 0
M  V30 2506 C 245.304 -5.27175 0.832029 0
M  V30 2507 O 245.527 -5.69425 -0.333284 0
M  V30 2508 O 244.461 -5.80168 1.60277 0
M  V30 2509 H 248.287 -2.49701 1.72867 0
M  V30 2510 H 245.872 -1.18977 0.903597 0
M  V30 2511 H 247.754 -4.21394 -0.0230219 0
M  V30 2512 H 246.429 -3.17723 -0.619164 0
M  V30 2513 H 245.336 -3.33614 1.6927 0
M  V30 2514 H 246.669 -4.3982 2.2095 0
M  V30 2515 N 248.321 -0.919034 -1.28029 0
M  V30 2516 C 249.546 -0.570357 -1.99403 0
M  V30 2517 C 249.971 0.842486 -1.68178 0
M  V30 2518 O 249.329 1.56391 -0.917141 0
M  V30 2519 C 249.377 -0.792541 -3.51783 0
M  V30 2520 O 248.481 0.145988 -4.12142 0
M  V30 2521 H 247.822 -0.220555 -0.6263 0
M  V30 2522 H 250.352 -1.23592 -1.63053 0
M  V30 2523 H 250.362 -0.704708 -4.01868 0
M  V30 2524 H 249.037 -1.82247 -3.73844 0
M  V30 2525 H 247.614 0.00897528 -3.72899 0
M  V30 2526 N 249.799 1.42003 -0.683588 0
M  V30 2527 C 250.729 2.33487 -0.024866 0
M  V30 2528 C 251.71 1.51163 0.779975 0
M  V30 2529 O 252.895 1.79739 0.735362 0
M  V30 2530 C 250.025 3.3487 0.920836 0
M  V30 2531 C 248.979 4.27414 0.223958 0
M  V30 2532 C 248.305 5.19074 1.2832 0
M  V30 2533 C 249.605 5.14445 -0.90242 0
M  V30 2534 H 251.299 2.88819 -0.788921 0
M  V30 2535 H 248.845 1.38873 -0.38083 0
M  V30 2536 H 250.798 3.97787 1.39081 0
M  V30 2537 H 249.522 2.77861 1.71642 0
M  V30 2538 H 248.181 3.65904 -0.225864 0
M  V30 2539 H 247.829 4.58387 2.071 0
M  V30 2540 H 247.529 5.81822 0.821995 0
M  V30 2541 H 249.053 5.84867 1.75392 0
M  V30 2542 H 250.467 5.70998 -0.513272 0
M  V30 2543 H 248.864 5.86072 -1.28997 0
M  V30 2544 H 249.934 4.52322 -1.74737 0
M  V30 2545 N 251.277 0.427512 1.51691 0
M  V30 2546 C 252.24 -0.377132 2.26076 0
M  V30 2547 C 253.24 -0.958089 1.29141 0
M  V30 2548 O 254.43 -0.83408 1.52934 0
M  V30 2549 C 251.562 -1.53262 3.04506 0
M  V30 2550 H 252.755 0.27464 2.9864 0
M  V30 2551 H 250.308 0.180445 1.55255 0
M  V30 2552 H 251.043 -2.22072 2.36335 0
M  V30 2553 H 250.828 -1.12232 3.75694 0
M  V30 2554 H 252.318 -2.10135 3.60878 0
M  V30 2555 N 252.755 -1.56801 0.158532 0
M  V30 2556 C 254.001 -1.96781 -0.490405 0
M  V30 2557 C 254.334 -1.04397 -1.63753 0
M  V30 2558 O 253.609 -0.0885805 -1.94298 0
M  V30 2559 C 253.892 -3.4635 -0.985594 0
M  V30 2560 C 253.745 -4.49512 0.160824 0
M  V30 2561 C 255.064 -3.98697 -1.86355 0
M  V30 2562 H 252.183 -0.715482 -0.176788 0
M  V30 2563 H 254.825 -1.88451 0.242088 0
M  V30 2564 H 252.975 -3.53579 -1.60978 0
M  V30 2565 H 254.647 -4.54353 0.797537 0
M  V30 2566 H 252.89 -4.26013 0.818256 0
M  V30 2567 H 253.561 -5.51531 -0.227569 0
M  V30 2568 H 256.037 -3.94019 -1.33746 0
M  V30 2569 H 254.913 -5.03792 -2.17909 0
M  V30 2570 H 255.174 -3.41744 -2.8047 0
M  V30 2571 N 254.233 0.115231 -1.57178 0
M  V30 2572 C 255.163 1.1423 -2.03651 0
M  V30 2573 C 256.144 1.42967 -0.921655 0
M  V30 2574 O 257.329 1.53343 -1.19162 0
M  V30 2575 C 254.459 2.4675 -2.44401 0
M  V30 2576 C 253.413 2.32467 -3.59365 0
M  V30 2577 C 252.739 3.69984 -3.86026 0
M  V30 2578 C 254.039 1.78203 -4.90959 0
M  V30 2579 H 255.733 0.755749 -2.89705 0
M  V30 2580 H 253.279 0.362093 -1.39373 0
M  V30 2581 H 255.232 3.18854 -2.75517 0
M  V30 2582 H 253.956 2.87302 -1.55322 0
M  V30 2583 H 252.615 1.62811 -3.28463 0
M  V30 2584 H 252.263 4.08028 -2.94147 0
M  V30 2585 H 251.963 3.61279 -4.63412 0
M  V30 2586 H 253.487 4.43587 -4.19599 0
M  V30 2587 H 254.901 2.40128 -5.20587 0
M  V30 2588 H 253.298 1.8031 -5.72371 0
M  V30 2589 H 254.368 0.739876 -4.79222 0
M  V30 2590 N 255.711 1.52812 0.385517 0
M  V30 2591 C 256.641 1.80808 1.47752 0
M  V30 2592 C 257.622 0.660318 1.5676 0
M  V30 2593 O 258.807 0.908246 1.71652 0
M  V30 2594 C 255.937 1.98008 2.85324 0
M  V30 2595 C 254.891 3.13709 2.91154 0
M  V30 2596 C 254.217 3.16169 4.31209 0
M  V30 2597 C 255.517 4.52709 2.60483 0
M  V30 2598 H 257.211 2.72253 1.24573 0
M  V30 2599 H 254.757 1.31003 0.597839 0
M  V30 2600 H 256.71 2.16176 3.61726 0
M  V30 2601 H 255.434 1.03255 3.09848 0
M  V30 2602 H 254.093 2.95329 2.17201 0
M  V30 2603 H 253.741 2.19092 4.52778 0
M  V30 2604 H 253.441 3.93894 4.36029 0
M  V30 2605 H 254.965 3.36496 5.09512 0
M  V30 2606 H 256.379 4.71173 3.26602 0
M  V30 2607 H 254.776 5.32528 2.76648 0
M  V30 2608 H 255.846 4.59186 1.55809 0
M  V30 2609 N 257.189 -0.644168 1.43834 0
M  V30 2610 C 258.119 -1.76814 1.52509 0
M  V30 2611 C 259.1 -1.65823 0.379052 0
M  V30 2612 O 260.285 -1.84781 0.597466 0
M  V30 2613 C 257.415 -3.15288 1.4564 0
M  V30 2614 C 256.369 -3.41053 2.58586 0
M  V30 2615 C 255.695 -4.79421 2.36769 0
M  V30 2616 C 256.995 -3.34902 4.00797 0
M  V30 2617 H 258.689 -1.69812 2.46586 0
M  V30 2618 H 256.235 -0.815542 1.1868 0
M  V30 2619 H 258.188 -3.93681 1.50311 0
M  V30 2620 H 256.912 -3.23043 0.480725 0
M  V30 2621 H 255.571 -2.65035 2.53282 0
M  V30 2622 H 255.219 -4.83863 1.37424 0
M  V30 2623 H 254.919 -4.9762 3.12487 0
M  V30 2624 H 256.443 -5.6006 2.43238 0
M  V30 2625 H 257.857 -4.03218 4.07539 0
M  V30 2626 H 256.254 -3.64637 4.76613 0
M  V30 2627 H 257.324 -2.32928 4.25291 0
M  V30 2628 N 258.668 -1.30515 -0.883378 0
M  V30 2629 C 260.079 -1.17509 -1.45081 0
M  V30 2630 C 260.43 0.223605 -1.94922 0
M  V30 2631 O 259.555 1.12041 -1.85137 0
M  V30 2632 C 260.15 -2.12715 -2.63701 0
M  V30 2633 C 258.709 -2.03682 -3.16529 0
M  V30 2634 C 257.856 -2.02706 -1.89224 0
M  V30 2635 H 260.807 -1.42762 -0.693165 0
M  V30 2636 H 260.828 -1.70891 -3.39965 0
M  V30 2637 H 260.34 -3.14505 -2.27395 0
M  V30 2638 H 258.441 -1.05039 -3.57488 0
M  V30 2639 H 258.554 -2.92146 -3.7972 0
M  V30 2640 H 256.918 -1.4753 -2.07622 0
M  V30 2641 H 257.701 -3.06229 -1.55174 0
M  V30 2642 N 260.146 1.09593 -1.13257 0
M  V30 2643 C 261.393 1.81734 -0.893257 0
M  V30 2644 C 261.721 1.8563 0.580656 0
M  V30 2645 O 260.976 1.31906 1.44566 0
M  V30 2646 C 261.275 3.27802 -1.42411 0
M  V30 2647 C 260.941 3.44041 -2.91456 0
M  V30 2648 C 259.603 3.48181 -3.3215 0
M  V30 2649 C 261.955 3.48719 -3.87356 0
M  V30 2650 C 259.283 3.54575 -4.67433 0
M  V30 2651 C 261.635 3.56648 -5.2248 0
M  V30 2652 C 260.299 3.59055 -5.62704 0
M  V30 2653 H 259.569 0.665011 -0.326866 0
M  V30 2654 H 262.216 1.2912 -1.41422 0
M  V30 2655 H 260.521 3.83042 -0.823795 0
M  V30 2656 H 262.218 3.82149 -1.21503 0
M  V30 2657 H 258.808 3.41502 -2.58987 0
M  V30 2658 H 262.992 3.44763 -3.57004 0
M  V30 2659 H 258.248 3.54725 -4.97976 0
M  V30 2660 H 262.422 3.59212 -5.96607 0
M  V30 2661 H 260.049 3.63763 -6.67518 0
M  V30 2662 N 261.624 0.925811 1.2754 0
M  V30 2663 C 262.872 0.564138 1.94067 0
M  V30 2664 C 263.193 -0.897188 1.73134 0
M  V30 2665 O 262.463 -1.63573 1.07799 0
M  V30 2666 H 261.043 0.205645 0.718136 0
M  V30 2667 H 263.705 1.1778 1.55287 0
M  V30 2668 H 262.801 0.76881 3.02483 0
M  V30 2669 N 263.102 -1.41638 0.69111 0
M  V30 2670 C 264.348 -2.01598 0.220519 0
M  V30 2671 C 264.681 -1.54594 -1.17535 0
M  V30 2672 O 263.956 -0.755177 -1.79241 0
M  V30 2673 C 264.239 -3.59062 0.273243 0
M  V30 2674 C 264.092 -4.16203 1.70573 0
M  V30 2675 C 265.411 -4.38546 -0.369457 0
M  V30 2676 H 262.53 -0.732468 0.0816045 0
M  V30 2677 H 265.172 -1.68445 0.878986 0
M  V30 2678 H 263.322 -3.87435 -0.287411 0
M  V30 2679 H 264.994 -3.98722 2.31989 0
M  V30 2680 H 263.237 -3.71414 2.2413 0
M  V30 2681 H 263.908 -5.25358 1.69419 0
M  V30 2682 H 266.384 -4.1596 0.107977 0
M  V30 2683 H 265.26 -5.48069 -0.302002 0
M  V30 2684 H 265.521 -4.17662 -1.44951 0
M  V30 2685 N 264.58 -0.43555 -1.51462 0
M  V30 2686 C 265.53 0.394701 -2.24558 0
M  V30 2687 C 266.514 0.99157 -1.26715 0
M  V30 2688 O 267.706 0.910007 -1.51815 0
M  V30 2689 C 264.835 1.4963 -3.08975 0
M  V30 2690 C 263.921 0.908912 -4.14246 0
M  V30 2691 N 264.312 0.0505335 -5.05775 0
M  V30 2692 C 262.61 1.17668 -4.30198 0
M  V30 2693 C 263.311 -0.279161 -5.8103 0
M  V30 2694 N 262.287 0.336767 -5.42556 0
M  V30 2695 H 266.089 -0.267106 -2.92684 0
M  V30 2696 H 263.603 -0.247518 -1.60503 0
M  V30 2697 H 265.6 2.10394 -3.59917 0
M  V30 2698 H 264.26 2.16046 -2.42393 0
M  V30 2699 H 265.271 -0.31577 -5.16936 0
M  V30 2700 H 261.948 1.83847 -3.74842 0
M  V30 2701 H 263.338 -0.977553 -6.64751 0
M  V30 2702 N 266.058 1.56714 -0.166846 0
M  V30 2703 C 266.988 2.20754 0.760913 0
M  V30 2704 C 267.969 1.16178 1.24244 0
M  V30 2705 O 269.154 1.44592 1.29641 0
M  V30 2706 C 266.284 2.84478 1.99223 0
M  V30 2707 C 265.238 3.95053 1.64672 0
M  V30 2708 C 264.564 4.45805 2.95232 0
M  V30 2709 C 265.864 5.14865 0.878155 0
M  V30 2710 H 267.558 2.98537 0.22713 0
M  V30 2711 H 265.104 1.43596 0.107805 0
M  V30 2712 H 267.057 3.27951 2.64624 0
M  V30 2713 H 265.781 2.04056 2.55007 0
M  V30 2714 H 264.44 3.52228 1.01641 0
M  V30 2715 H 264.088 3.62181 3.49047 0
M  V30 2716 H 263.788 5.204 2.7287 0
M  V30 2717 H 265.312 4.91962 3.6167 0
M  V30 2718 H 266.726 5.55059 1.43466 0
M  V30 2719 H 265.123 5.95348 0.753738 0
M  V30 2720 H 266.193 4.84735 -0.126377 0
M  V30 2721 N 267.536 -0.106894 1.57237 0
M  V30 2722 C 268.761 -0.830287 1.90055 0
M  V30 2723 C 269.186 -1.72064 0.75998 0
M  V30 2724 O 268.544 -1.78982 -0.288991 0
M  V30 2725 C 268.592 -1.6295 3.21683 0
M  V30 2726 O 267.696 -2.73748 3.08441 0
M  V30 2727 H 267.037 -0.228855 0.623315 0
M  V30 2728 H 269.567 -0.085658 2.04421 0
M  V30 2729 H 269.577 -2.01621 3.54701 0
M  V30 2730 H 268.252 -0.975989 4.04286 0
M  V30 2731 H 266.829 -2.38192 2.86913 0
M  V30 2732 N 269.014 -1.53014 -0.377408 0
M  V30 2733 C 269.944 -1.81589 -1.46791 0
M  V30 2734 C 270.925 -0.668622 -1.56408 0
M  V30 2735 O 272.11 -0.917337 -1.71168 0
M  V30 2736 C 269.24 -1.99519 -2.8427 0
M  V30 2737 C 268.194 -3.15249 -2.89486 0
M  V30 2738 C 267.52 -3.18451 -4.29527 0
M  V30 2739 C 268.82 -4.54084 -2.58079 0
M  V30 2740 H 270.514 -2.7291 -1.23127 0
M  V30 2741 H 268.06 -1.31319 -0.590883 0
M  V30 2742 H 270.013 -2.18092 -3.60575 0
M  V30 2743 H 268.737 -1.04897 -3.09296 0
M  V30 2744 H 267.396 -2.96477 -2.15631 0
M  V30 2745 H 267.044 -2.2149 -4.5161 0
M  V30 2746 H 266.744 -3.962 -4.33934 0
M  V30 2747 H 268.268 -3.39193 -5.07721 0
M  V30 2748 H 269.682 -4.72899 -3.24098 0
M  V30 2749 H 268.079 -5.33987 -2.7382 0
M  V30 2750 H 269.149 -4.60006 -1.53372 0
M  V30 2751 N 270.492 0.636531 -1.44174 0
M  V30 2752 C 271.741 1.39213 -1.45954 0
M  V30 2753 C 272.054 1.95374 -0.0939119 0
M  V30 2754 O 273.26 2.71498 0.0107767 0
M  V30 2755 C 271.716 2.52025 -2.56927 0
M  V30 2756 C 271.324 2.024 -3.99673 0
M  V30 2757 C 273.068 3.29269 -2.67922 0
M  V30 2758 C 270.975 3.12521 -5.0208 0
M  V30 2759 H 269.905 0.523132 -0.542999 0
M  V30 2760 H 272.556 0.685349 -1.70221 0
M  V30 2761 H 270.938 3.25253 -2.25891 0
M  V30 2762 H 272.112 1.36073 -4.40251 0
M  V30 2763 H 270.427 1.37987 -3.92872 0
M  V30 2764 H 273.024 4.11352 -3.41605 0
M  V30 2765 H 273.367 3.78397 -1.73555 0
M  V30 2766 H 273.9 2.63129 -2.98342 0
M  V30 2767 H 270.639 2.68343 -5.98057 0
M  V30 2768 H 270.159 3.77507 -4.66099 0
M  V30 2769 H 271.838 3.77385 -5.25538 0
M  V30 2770 N 271.97 1.30982 0.876444 0
M  V30 2771 C 272.88 1.2003 2.01569 0
M  V30 2772 C 273.896 0.11838 1.73597 0
M  V30 2773 O 275.072 0.33495 1.98595 0
M  V30 2774 C 272.137 0.901637 3.34771 0
M  V30 2775 C 271.198 2.06979 3.76109 0
M  V30 2776 C 270.431 1.78529 5.02954 0
M  V30 2777 O 270.654 0.717296 5.65872 0
M  V30 2778 O 269.588 2.64019 5.40905 0
M  V30 2779 H 273.414 2.15753 2.13739 0
M  V30 2780 H 270.999 1.10658 1.00375 0
M  V30 2781 H 272.881 0.750645 4.1466 0
M  V30 2782 H 271.556 -0.0256141 3.2369 0
M  V30 2783 H 270.463 2.27616 2.96887 0
M  V30 2784 H 271.796 2.97907 3.91807 0
M  V30 2785 N 273.449 -1.08991 1.13837 0
M  V30 2786 C 274.689 -1.82867 0.913183 0
M  V30 2787 C 275.053 -1.83936 -0.550604 0
M  V30 2788 O 276.254 -2.53515 -0.893515 0
M  V30 2789 C 274.525 -3.24843 1.49036 0
M  V30 2790 S 276.084 -4.15669 1.40588 0
M  V30 2791 H 272.902 -0.630278 0.329046 0
M  V30 2792 H 275.504 -1.31049 1.45073 0
M  V30 2793 H 274.208 -3.21644 2.54899 0
M  V30 2794 H 273.739 -3.81734 0.950947 0
M  V30 2795 H 275.754 -4.94686 0.387353 0
M  V30 2796 N 274.927 -0.932562 -1.27047 0
M  V30 2797 C 276.175 -0.574422 -1.93765 0
M  V30 2798 C 276.496 0.887993 -1.73608 0
M  V30 2799 O 275.766 1.62999 -1.08665 0
M  V30 2800 H 274.346 -0.209451 -0.717035 0
M  V30 2801 H 277.008 -1.18601 -1.5466 0
M  V30 2802 H 276.104 -0.784841 -3.02071 0
M  V30 2803 N 276.405 1.4127 -0.698611 0
M  V30 2804 C 277.816 1.84187 -0.305289 0
M  V30 2805 C 278.167 1.58449 1.15708 0
M  V30 2806 O 277.292 1.05651 1.88856 0
M  V30 2807 C 277.887 3.3435 -0.547314 0
M  V30 2808 C 276.446 3.75826 -0.207878 0
M  V30 2809 C 275.593 2.64647 -0.828099 0
M  V30 2810 H 278.544 1.30778 -0.89904 0
M  V30 2811 H 278.565 3.8001 0.192998 0
M  V30 2812 H 278.077 3.53051 -1.61172 0
M  V30 2813 H 276.178 3.62725 0.852143 0
M  V30 2814 H 276.291 4.74462 -0.665021 0
M  V30 2815 H 274.655 2.53395 -0.257458 0
M  V30 2816 H 275.438 2.86165 -1.89643 0
M  V30 2817 N 277.883 0.443576 1.51229 0
M  V30 2818 C 279.129 -0.120975 2.02439 0
M  V30 2819 C 279.462 -1.41815 1.32674 0
M  V30 2820 O 278.737 -1.89373 0.443622 0
M  V30 2821 C 279.02 -0.333291 3.58554 0
M  V30 2822 C 278.873 0.982968 4.38928 0
M  V30 2823 C 280.192 -1.10028 4.26124 0
M  V30 2824 H 277.311 -0.0424923 0.735774 0
M  V30 2825 H 279.953 0.583794 1.80809 0
M  V30 2826 H 278.103 -0.933614 3.77115 0
M  V30 2827 H 279.775 1.61775 4.32003 0
M  V30 2828 H 278.018 1.58611 4.03763 0
M  V30 2829 H 278.689 0.788379 5.46341 0
M  V30 2830 H 281.165 -0.591711 4.11871 0
M  V30 2831 H 280.041 -1.21761 5.35225 0
M  V30 2832 H 280.302 -2.12996 3.87408 0
M  V30 2833 N 279.361 -1.56624 0.175154 0
M  V30 2834 C 280.311 -2.14747 -0.766004 0
M  V30 2835 C 281.295 -1.08275 -1.19018 0
M  V30 2836 O 282.487 -1.34388 -1.15191 0
M  V30 2837 C 279.616 -2.79478 -1.99366 0
M  V30 2838 C 278.702 -3.93114 -1.5913 0
M  V30 2839 N 279.093 -4.97752 -0.89872 0
M  V30 2840 C 277.391 -4.04345 -1.88204 0
M  V30 2841 C 278.092 -5.77473 -0.700012 0
M  V30 2842 N 277.068 -5.29207 -1.24263 0
M  V30 2843 H 280.87 -2.93015 -0.22793 0
M  V30 2844 H 278.384 -1.6238 -0.0253843 0
M  V30 2845 H 280.381 -3.19498 -2.67818 0
M  V30 2846 H 279.041 -2.02692 -2.53665 0
M  V30 2847 H 280.052 -5.14903 -0.556347 0
M  V30 2848 H 276.729 -3.38667 -2.44153 0
M  V30 2849 H 278.119 -6.71728 -0.152047 0
M  V30 2850 N 280.839 0.0985539 -1.57292 0
M  V30 2851 C 282.067 0.816318 -1.90115 0
M  V30 2852 C 282.482 1.72451 -0.768509 0
M  V30 2853 O 281.839 1.80643 0.259687 0
M  V30 2854 C 281.89 1.63259 -3.22535 0
M  V30 2855 O 281.611 0.760934 -4.31441 0
M  V30 2856 C 283.112 2.45372 -3.69199 0
M  V30 2857 H 280.332 0.233595 -0.629027 0
M  V30 2858 H 282.876 0.0768229 -2.04356 0
M  V30 2859 H 281.031 2.32463 -3.09903 0
M  V30 2860 H 281.445 1.32595 -5.07463 0
M  V30 2861 H 282.919 2.98144 -4.64558 0
M  V30 2862 H 283.396 3.23677 -2.96867 0
M  V30 2863 H 284.002 1.81373 -3.84687 0
M  V30 2864 N 282.317 1.53212 0.369288 0
M  V30 2865 C 283.28 1.7872 1.43498 0
M  V30 2866 C 284.28 0.657554 1.46741 0
M  V30 2867 O 285.47 0.925736 1.47566 0
M  V30 2868 C 282.602 1.90591 2.82645 0
M  V30 2869 H 283.795 2.73894 1.22156 0
M  V30 2870 H 281.348 1.44233 0.602203 0
M  V30 2871 H 282.083 0.974709 3.09306 0
M  V30 2872 H 281.868 2.72751 2.8169 0
M  V30 2873 H 283.358 2.11931 3.59826 0
M  V30 2874 N 283.795 -0.628877 1.44509 0
M  V30 2875 C 285.042 -1.38839 1.47411 0
M  V30 2876 C 285.37 -1.94202 0.10757 0
M  V30 2877 O 284.625 -1.74243 -0.890947 0
M  V30 2878 C 284.924 -2.56995 2.48371 0
M  V30 2879 C 284.59 -2.19908 3.93639 0
M  V30 2880 C 283.252 -2.09506 4.33198 0
M  V30 2881 C 285.604 -1.9064 4.85083 0
M  V30 2882 C 282.932 -1.68028 5.62124 0
M  V30 2883 C 285.284 -1.50655 6.14399 0
M  V30 2884 C 283.948 -1.38796 6.5291 0
M  V30 2885 H 283.218 -0.508048 0.539414 0
M  V30 2886 H 285.865 -0.712913 1.77735 0
M  V30 2887 H 284.17 -3.29786 2.11538 0
M  V30 2888 H 285.867 -3.15223 2.47861 0
M  V30 2889 H 282.457 -2.28922 3.62343 0
M  V30 2890 H 286.641 -1.97585 4.55273 0
M  V30 2891 H 281.897 -1.57452 5.90778 0
M  V30 2892 H 286.071 -1.27048 6.84713 0
M  V30 2893 H 283.698 -1.06429 7.52713 0
M  V30 2894 N 285.273 -1.31445 -0.869486 0
M  V30 2895 C 286.206 -1.13465 -1.97992 0
M  V30 2896 C 287.184 -0.0380291 -1.62556 0
M  V30 2897 O 288.368 -0.194544 -1.87493 0
M  V30 2898 C 285.495 -0.733822 -3.30655 0
M  V30 2899 C 284.541 -1.83356 -3.85075 0
M  V30 2900 S 285.374 -3.43909 -4.10472 0
M  V30 2901 C 286.53 -3.05763 -5.46132 0
M  V30 2902 H 286.763 -2.07471 -2.1294 0
M  V30 2903 H 284.296 -1.15936 -1.01972 0
M  V30 2904 H 286.254 -0.509306 -4.07328 0
M  V30 2905 H 284.915 0.187123 -3.13542 0
M  V30 2906 H 284.108 -1.50574 -4.80982 0
M  V30 2907 H 283.71 -2.01315 -3.15195 0
M  V30 2908 H 286.002 -2.54686 -6.27807 0
M  V30 2909 H 286.945 -4.00635 -5.83864 0
M  V30 2910 H 287.353 -2.43192 -5.09429 0
M  V30 2911 N 286.751 1.08385 -1.14413 0
M  V30 2912 C 287.661 2.18856 -0.844951 0
M  V30 2913 C 288.677 1.73121 0.174668 0
M  V30 2914 O 289.853 2.014 0.00312857 0
M  V30 2915 C 286.918 3.45155 -0.32696 0
M  V30 2916 C 285.979 4.05513 -1.40916 0
M  V30 2917 C 285.212 5.25784 -0.915793 0
M  V30 2918 O 285.435 5.69884 0.242651 0
M  V30 2919 O 284.369 5.77545 -1.69487 0
M  V30 2920 H 288.195 2.46919 -1.76818 0
M  V30 2921 H 285.78 1.17524 -0.922411 0
M  V30 2922 H 287.662 4.21377 -0.0440211 0
M  V30 2923 H 286.337 3.18668 0.568539 0
M  V30 2924 H 285.244 3.30879 -1.74556 0
M  V30 2925 H 286.577 4.3625 -2.27919 0
M  V30 2926 N 288.23 0.939286 1.26551 0
M  V30 2927 C 289.177 0.446088 2.26448 0
M  V30 2928 C 290.147 -0.493234 1.58608 0
M  V30 2929 O 291.332 -0.409857 1.86346 0
M  V30 2930 C 288.472 -0.284375 3.43926 0
M  V30 2931 C 287.585 0.690399 4.26448 0
M  V30 2932 C 286.72 -0.0610712 5.31165 0
M  V30 2933 C 285.759 0.905649 6.05363 0
M  V30 2934 N 284.896 0.186055 7.01853 0
M  V30 2935 H 289.736 1.30291 2.68008 0
M  V30 2936 H 287.273 0.65371 1.31776 0
M  V30 2937 H 289.231 -0.724313 4.10864 0
M  V30 2938 H 287.861 -1.10535 3.03285 0
M  V30 2939 H 286.913 1.24885 3.59316 0
M  V30 2940 H 288.225 1.42873 4.779 0
M  V30 2941 H 287.379 -0.56038 6.04106 0
M  V30 2942 H 286.118 -0.832297 4.80546 0
M  V30 2943 H 285.123 1.4161 5.3125 0
M  V30 2944 H 286.348 1.67685 6.58072 0
M  V30 2945 H 284.294 -0.566714 6.53548 0
M  V30 2946 H 284.211 0.863752 7.51049 0
M  V30 2947 H 285.479 -0.292221 7.78952 0
M  V30 2948 N 289.708 -1.40897 0.706093 0
M  V30 2949 C 290.954 -2.01352 0.241889 0
M  V30 2950 C 291.287 -1.55832 -1.15888 0
M  V30 2951 O 290.562 -0.774145 -1.7843 0
M  V30 2952 C 290.845 -3.58752 0.311311 0
M  V30 2953 C 290.698 -4.1437 1.74978 0
M  V30 2954 C 292.017 -4.38914 -0.322922 0
M  V30 2955 H 289.136 -0.731562 0.0893687 0
M  V30 2956 H 291.778 -1.67504 0.896802 0
M  V30 2957 H 289.928 -3.87718 -0.246302 0
M  V30 2958 H 291.6 -3.96239 2.36205 0
M  V30 2959 H 289.843 -3.69016 2.28057 0
M  V30 2960 H 290.514 -5.23532 1.74981 0
M  V30 2961 H 292.99 -4.15822 0.152089 0
M  V30 2962 H 291.866 -5.48358 -0.243855 0
M  V30 2963 H 292.127 -4.19176 -1.40513 0
M  V30 2964 N 291.186 -0.45159 -1.50991 0
M  V30 2965 C 292.116 0.342898 -2.30969 0
M  V30 2966 C 293.097 1.00815 -1.37005 0
M  V30 2967 O 294.282 1.00907 -1.65926 0
M  V30 2968 C 291.412 1.43637 -3.16205 0
M  V30 2969 C 290.366 0.893818 -4.18563 0
M  V30 2970 C 289.692 2.08411 -4.92411 0
M  V30 2971 C 290.992 -0.0815568 -5.22236 0
M  V30 2972 H 292.686 -0.324556 -2.97636 0
M  V30 2973 H 290.232 -0.157531 -1.43136 0
M  V30 2974 H 292.185 1.9995 -3.70942 0
M  V30 2975 H 290.909 2.13232 -2.47386 0
M  V30 2976 H 289.568 0.352798 -3.64898 0
M  V30 2977 H 289.216 2.76658 -4.20082 0
M  V30 2978 H 288.916 1.72741 -5.61636 0
M  V30 2979 H 290.44 2.65251 -5.49976 0
M  V30 2980 H 291.854 0.391742 -5.7196 0
M  V30 2981 H 290.251 -0.351551 -5.99069 0
M  V30 2982 H 291.321 -1.01374 -4.74185 0
M  V30 2983 N 292.664 1.56529 -0.183458 0
M  V30 2984 C 293.912 1.96855 0.457452 0
M  V30 2985 C 294.233 1.07104 1.62953 0
M  V30 2986 O 293.503 0.139887 1.954 0
M  V30 2987 H 292.083 0.72693 0.171992 0
M  V30 2988 H 294.745 1.93056 -0.267476 0
M  V30 2989 H 293.841 3.01423 0.809368 0
M  V30 2990 N 294.142 -0.090211 1.57342 0
M  V30 2991 C 295.367 -0.810082 1.90925 0
M  V30 2992 C 295.792 -1.71248 0.778187 0
M  V30 2993 O 295.15 -1.79278 -0.269991 0
M  V30 2994 C 295.198 -1.59529 3.23393 0
M  V30 2995 O 294.302 -2.70461 3.11327 0
M  V30 2996 H 293.643 -0.222231 0.625707 0
M  V30 2997 H 296.173 -0.0639716 2.045 0
M  V30 2998 H 296.183 -1.97847 3.5682 0
M  V30 2999 H 294.858 -0.933055 4.05299 0
M  V30 3000 H 293.435 -2.35135 2.89423 0
M  V30 3001 N 295.62 -1.53406 -0.361157 0
M  V30 3002 C 297.031 -1.61442 -0.937728 0
M  V30 3003 C 297.382 -0.48461 -1.90121 0
M  V30 3004 O 296.507 0.388312 -2.12888 0
M  V30 3005 C 297.102 -2.92624 -1.70753 0
M  V30 3006 C 295.661 -3.02981 -2.23337 0
M  V30 3007 C 294.808 -2.5677 -1.04712 0
M  V30 3008 H 297.759 -1.58083 -0.139816 0
M  V30 3009 H 297.78 -2.80675 -2.56908 0
M  V30 3010 H 297.292 -3.74834 -1.00604 0
M  V30 3011 H 295.393 -2.25368 -2.96715 0
M  V30 3012 H 295.506 -4.0814 -2.50916 0
M  V30 3013 H 293.87 -2.11752 -1.41539 0
M  V30 3014 H 294.653 -3.41402 -0.360539 0
M  V30 3015 N 297.098 0.621204 -1.44841 0
M  V30 3016 C 298.008 1.7612 -1.5498 0
M  V30 3017 C 299.024 1.68477 -0.434927 0
M  V30 3018 O 300.2 1.89076 -0.693693 0
M  V30 3019 C 297.265 3.1254 -1.50065 0
M  V30 3020 C 296.326 3.31741 -2.72482 0
M  V30 3021 C 295.559 4.61653 -2.67792 0
M  V30 3022 O 295.782 5.431 -1.74352 0
M  V30 3023 O 294.716 4.83271 -3.58794 0
M  V30 3024 H 298.542 1.70518 -2.51311 0
M  V30 3025 H 296.127 0.783643 -1.27198 0
M  V30 3026 H 298.009 3.93844 -1.49882 0
M  V30 3027 H 296.684 3.18663 -0.568806 0
M  V30 3028 H 295.591 2.50077 -2.7823 0
M  V30 3029 H 296.924 3.30486 -3.64746 0
M  V30 3030 N 298.576 1.31904 0.862503 0
M  V30 3031 C 299.486 1.22161 2.00285 0
M  V30 3032 C 300.502 0.136785 1.73462 0
M  V30 3033 O 301.678 0.355994 1.98229 0
M  V30 3034 C 298.743 0.937093 3.33796 0
M  V30 3035 C 297.804 2.10957 3.73893 0
M  V30 3036 C 297.037 1.83853 5.01033 0
M  V30 3037 O 297.26 0.777274 5.65079 0
M  V30 3038 O 296.194 2.69741 5.38074 0
M  V30 3039 H 300.02 2.18008 2.11439 0
M  V30 3040 H 297.605 1.11716 0.991957 0
M  V30 3041 H 299.487 0.794583 4.13841 0
M  V30 3042 H 298.162 0.00871894 3.23699 0
M  V30 3043 H 297.069 2.30752 2.94456 0
M  V30 3044 H 298.402 3.02046 3.88625 0
M  V30 3045 N 300.054 -1.07777 1.14986 0
M  V30 3046 C 301.3 -1.80557 0.923422 0
M  V30 3047 C 301.633 -1.86298 -0.548337 0
M  V30 3048 O 300.908 -1.34354 -1.40639 0
M  V30 3049 C 301.191 -3.25839 1.53299 0
M  V30 3050 C 301.044 -3.28269 3.07505 0
M  V30 3051 C 302.363 -4.22991 1.21518 0
M  V30 3052 H 299.482 -0.655493 0.336894 0
M  V30 3053 H 302.124 -1.26144 1.42083 0
M  V30 3054 H 300.274 -3.72306 1.10999 0
M  V30 3055 H 301.946 -2.90079 3.58681 0
M  V30 3056 H 300.189 -2.67355 3.4162 0
M  V30 3057 H 300.86 -4.30691 3.45266 0
M  V30 3058 H 303.336 -3.84894 1.581 0
M  V30 3059 H 302.212 -5.22945 1.66793 0
M  V30 3060 H 302.473 -4.41904 0.131505 0
M  V30 3061 N 301.532 -0.945985 -1.26051 0
M  V30 3062 C 302.462 -0.477172 -2.28572 0
M  V30 3063 C 303.443 0.472032 -1.63419 0
M  V30 3064 O 304.628 0.372853 -1.90587 0
M  V30 3065 C 301.758 0.253975 -3.4637 0
M  V30 3066 C 300.712 -0.609135 -4.23643 0
M  V30 3067 C 300.038 0.252252 -5.34105 0
M  V30 3068 C 301.338 -1.8829 -4.8718 0
M  V30 3069 H 303.032 -1.33402 -2.68038 0
M  V30 3070 H 300.578 -0.642904 -1.28852 0
M  V30 3071 H 302.531 0.593016 -4.17207 0
M  V30 3072 H 301.255 1.145 -3.05871 0
M  V30 3073 H 299.914 -0.931138 -3.54578 0
M  V30 3074 H 299.562 1.14278 -4.89846 0
M  V30 3075 H 299.262 -0.32188 -5.86718 0
M  V30 3076 H 300.786 0.586454 -6.07777 0
M  V30 3077 H 302.2 -1.61081 -5.50205 0
M  V30 3078 H 300.597 -2.40199 -5.49931 0
M  V30 3079 H 301.667 -2.59134 -4.09851 0
M  V30 3080 N 303.011 1.40521 -0.713556 0
M  V30 3081 C 304.288 1.94775 -0.17943 0
M  V30 3082 C 304.668 1.65184 1.31444 0
M  V30 3083 O 304.016 0.968429 2.06963 0
M  V30 3084 C 304.226 3.45543 -0.489986 0
M  V30 3085 C 305.574 4.22442 -0.427536 0
M  V30 3086 O 306.598 3.53644 -0.425929 0
M  V30 3087 O 305.457 5.4501 -0.403292 0
M  V30 3088 H 302.551 0.826606 -0.0255192 0
M  V30 3089 H 305.097 1.5014 -0.790949 0
M  V30 3090 H 303.869 3.60432 -1.5233 0
M  V30 3091 H 303.492 3.97311 0.151598 0
M  V30 3092 N 304.489 0.459591 1.5075 0
M  V30 3093 C 305.905 0.113092 1.59199 0
M  V30 3094 C 306.105 -1.37951 1.46874 0
M  V30 3095 O 305.161 -2.15168 1.32132 0
M  V30 3096 C 306.474 0.653043 2.93523 0
M  V30 3097 C 308.022 0.615449 3.0689 0
M  V30 3098 C 308.497 1.13275 4.43771 0
M  V30 3099 N 309.988 1.09167 4.50152 0
M  V30 3100 C 310.723 1.46256 5.54434 0
M  V30 3101 N 310.219 1.90739 6.66026 0
M  V30 3102 N 312.012 1.37932 5.44914 0
M  V30 3103 H 304.163 1.43049 1.57005 0
M  V30 3104 H 306.426 0.590861 0.741341 0
M  V30 3105 H 306.132 1.69822 3.07983 0
M  V30 3106 H 306.006 0.0902132 3.77092 0
M  V30 3107 H 308.393 -0.420793 2.92084 0
M  V30 3108 H 308.474 1.21495 2.25106 0
M  V30 3109 H 308.118 2.16757 4.59324 0
M  V30 3110 H 308.048 0.509576 5.24129 0
M  V30 3111 H 310.539 0.76528 3.7007 0
M  V30 3112 H 310.852 2.17218 7.41644 0
M  V30 3113 H 309.197 1.94683 6.67176 0
M  V30 3114 H 312.388 1.0303 4.56621 0
M  V30 3115 H 312.561 1.67164 6.26067 0
M  V30 3116 N 305.967 -1.56429 0.191757 0
M  V30 3117 C 307.195 -2.01867 -0.453586 0
M  V30 3118 C 307.61 -1.07191 -1.5542 0
M  V30 3119 O 306.967 -0.0762108 -1.82341 0
M  V30 3120 C 307.018 -3.47017 -1.013 0
M  V30 3121 O 306.739 -4.38078 0.0437005 0
M  V30 3122 C 308.24 -4.07956 -1.73456 0
M  V30 3123 H 305.46 -0.661211 -0.114199 0
M  V30 3124 H 308.004 -2.02295 0.299483 0
M  V30 3125 H 306.159 -3.47298 -1.71647 0
M  V30 3126 H 306.573 -5.23178 -0.372212 0
M  V30 3127 H 308.047 -5.1138 -2.07833 0
M  V30 3128 H 308.524 -3.51222 -2.63704 0
M  V30 3129 H 309.13 -4.11437 -1.07702 0
M  V30 3130 N 307.445 0.0818655 -1.57387 0
M  V30 3131 C 308.722 0.815343 -1.77796 0
M  V30 3132 C 309.102 1.96289 -0.77679 0
M  V30 3133 O 308.45 2.27691 0.192106 0
M  V30 3134 C 308.66 1.29765 -3.23978 0
M  V30 3135 C 310.008 1.7351 -3.8753 0
M  V30 3136 O 311.032 1.39356 -3.27808 0
M  V30 3137 O 309.891 2.36708 -4.92576 0
M  V30 3138 H 306.985 0.389914 -0.729312 0
M  V30 3139 H 309.531 0.0627213 -1.69584 0
M  V30 3140 H 308.303 0.47608 -3.88393 0
M  V30 3141 H 307.926 2.11189 -3.36875 0
M  V30 3142 N 308.923 1.53595 0.353017 0
M  V30 3143 C 310.172 1.69603 1.09168 0
M  V30 3144 C 310.485 0.460925 1.90092 0
M  V30 3145 O 311.691 0.501774 2.66823 0
M  V30 3146 C 310.147 2.99872 1.9901 0
M  V30 3147 C 309.755 4.30687 1.23339 0
M  V30 3148 C 311.499 3.25246 2.72792 0
M  V30 3149 C 309.406 5.52036 2.12156 0
M  V30 3150 H 308.336 0.631966 0.411261 0
M  V30 3151 H 310.987 1.80096 0.351802 0
M  V30 3152 H 309.369 2.83212 2.7678 0
M  V30 3153 H 310.543 4.58019 0.505456 0
M  V30 3154 H 308.858 4.11853 0.613663 0
M  V30 3155 H 311.455 4.13095 3.39495 0
M  V30 3156 H 311.798 2.41846 3.38846 0
M  V30 3157 H 312.331 3.42638 2.021 0
M  V30 3158 H 309.07 6.37951 1.50659 0
M  V30 3159 H 308.59 5.28966 2.82764 0
M  V30 3160 H 310.269 5.87313 2.71427 0
M  V30 3161 N 310.401 -0.613514 1.45168 0
M  V30 3162 C 311.351 -1.71871 1.49815 0
M  V30 3163 C 312.335 -1.56774 0.362021 0
M  V30 3164 O 313.527 -1.66212 0.608493 0
M  V30 3165 C 310.656 -3.1061 1.46207 0
M  V30 3166 C 309.742 -3.31114 2.64999 0
M  V30 3167 N 310.133 -3.21904 3.90143 0
M  V30 3168 C 308.431 -3.61966 2.6057 0
M  V30 3169 C 309.132 -3.43577 4.69393 0
M  V30 3170 N 308.108 -3.67287 4.00751 0
M  V30 3171 H 311.91 -1.63235 2.444 0
M  V30 3172 H 309.424 -0.816577 1.40377 0
M  V30 3173 H 311.421 -3.8989 1.4762 0
M  V30 3174 H 310.081 -3.20399 0.52673 0
M  V30 3175 H 311.092 -3.00436 4.21852 0
M  V30 3176 H 307.769 -3.78629 1.75916 0
M  V30 3177 H 309.159 -3.41901 5.78406 0
M  V30 3178 N 311.879 -1.3236 -0.855495 0
M  V30 3179 C 313.107 -1.2587 -1.64208 0
M  V30 3180 C 313.522 0.173457 -1.88002 0
M  V30 3181 O 312.879 1.11027 -1.44842 0
M  V30 3182 C 312.93 -2.01424 -3.00184 0
M  V30 3183 O 312.651 -3.39051 -2.77445 0
M  V30 3184 C 314.152 -2.01948 -3.94629 0
M  V30 3185 H 311.372 -0.434318 -0.511477 0
M  V30 3186 H 313.916 -1.74469 -1.0668 0
M  V30 3187 H 312.071 -1.56549 -3.5436 0
M  V30 3188 H 312.485 -3.77711 -3.63916 0
M  V30 3189 H 313.959 -2.59297 -4.87308 0
M  V30 3190 H 314.436 -1.00554 -4.27534 0
M  V30 3191 H 315.042 -2.46767 -3.4639 0
M  V30 3192 N 313.357 1.07166 -1.15556 0
M  V30 3193 C 314.604 1.79798 -0.931604 0
M  V30 3194 C 314.932 1.8682 0.54115 0
M  V30 3195 O 314.187 1.34942 1.41736 0
M  V30 3196 C 314.486 3.24707 -1.49332 0
M  V30 3197 C 314.152 3.37781 -2.98688 0
M  V30 3198 C 312.814 3.41057 -3.39461 0
M  V30 3199 C 315.166 3.40424 -3.94665 0
M  V30 3200 C 312.494 3.4458 -4.74849 0
M  V30 3201 C 314.846 3.45485 -5.29927 0
M  V30 3202 C 313.51 3.47039 -5.70193 0
M  V30 3203 H 312.78 0.657928 -0.340898 0
M  V30 3204 H 315.427 1.26091 -1.44129 0
M  V30 3205 H 313.732 3.81208 -0.904859 0
M  V30 3206 H 315.429 3.79486 -1.29582 0
M  V30 3207 H 312.019 3.35932 -2.66172 0
M  V30 3208 H 316.203 3.37113 -3.64237 0
M  V30 3209 H 311.459 3.44083 -5.05388 0
M  V30 3210 H 315.633 3.46476 -6.04092 0
M  V30 3211 H 313.26 3.49522 -6.75084 0
M  V30 3212 N 314.835 0.952656 1.25548 0
M  V30 3213 C 315.785 0.442033 2.23674 0
M  V30 3214 C 316.769 -0.467632 1.53955 0
M  V30 3215 O 317.961 -0.301006 1.74422 0
M  V30 3216 C 315.09 -0.280816 3.4215 0
M  V30 3217 C 314.176 0.646803 4.19139 0
M  V30 3218 N 314.567 1.77759 4.73535 0
M  V30 3219 C 312.865 0.454617 4.43677 0
M  V30 3220 C 313.566 2.35658 5.31827 0
M  V30 3221 N 312.542 1.64333 5.18166 0
M  V30 3222 H 316.344 1.30505 2.63336 0
M  V30 3223 H 313.858 0.809904 1.40763 0
M  V30 3224 H 315.855 -0.663747 4.11582 0
M  V30 3225 H 314.515 -1.14046 3.04012 0
M  V30 3226 H 315.526 2.15949 4.7073 0
M  V30 3227 H 312.203 -0.362312 4.15925 0
M  V30 3228 H 313.593 3.30998 5.84713 0
M  V30 3229 N 316.313 -1.40141 0.720998 0
M  V30 3230 C 317.729 -1.54632 0.395113 0
M  V30 3231 C 317.929 -1.69115 -1.09555 0
M  V30 3232 O 316.985 -1.68377 -1.88163 0
M  V30 3233 C 318.298 -2.77177 1.1659 0
M  V30 3234 C 319.846 -2.91 1.15274 0
M  V30 3235 C 320.321 -4.16465 1.90579 0
M  V30 3236 N 321.812 -4.23476 1.87675 0
M  V30 3237 C 322.547 -5.19475 2.42762 0
M  V30 3238 N 322.043 -6.21348 3.06428 0
M  V30 3239 N 323.836 -5.11592 2.32874 0
M  V30 3240 H 315.987 -1.28986 1.68749 0
M  V30 3241 H 318.25 -0.62412 0.713567 0
M  V30 3242 H 317.956 -2.72771 2.22011 0
M  V30 3243 H 317.83 -3.69442 0.76108 0
M  V30 3244 H 320.217 -2.94907 0.106702 0
M  V30 3245 H 320.298 -1.99838 1.59682 0
M  V30 3246 H 319.942 -4.1332 2.95176 0
M  V30 3247 H 319.872 -5.06646 1.43587 0
M  V30 3248 H 322.363 -3.50497 1.41281 0
M  V30 3249 H 322.676 -6.91034 3.45965 0
M  V30 3250 H 321.021 -6.21777 3.10514 0
M  V30 3251 H 324.212 -4.30936 1.82789 0
M  V30 3252 H 324.385 -5.86233 2.76106 0
M  V30 3253 N 317.792 -0.46758 -1.50504 0
M  V30 3254 C 319.039 0.0886219 -2.02306 0
M  V30 3255 C 319.367 1.40037 -1.34981 0
M  V30 3256 O 318.622 1.90136 -0.463318 0
M  V30 3257 C 318.921 0.323995 -3.55928 0
M  V30 3258 C 318.587 -0.905618 -4.41712 0
M  V30 3259 C 317.249 -1.24275 -4.64875 0
M  V30 3260 C 319.601 -1.72448 -4.91845 0
M  V30 3261 C 316.929 -2.39888 -5.35417 0
M  V30 3262 C 319.281 -2.87185 -5.63656 0
M  V30 3263 C 317.945 -3.21317 -5.85074 0
M  V30 3264 H 317.215 0.0324291 -0.74029 0
M  V30 3265 H 319.862 -0.620945 -1.81153 0
M  V30 3266 H 318.167 1.11577 -3.75577 0
M  V30 3267 H 319.864 0.76826 -3.93572 0
M  V30 3268 H 316.454 -0.632956 -4.239 0
M  V30 3269 H 320.638 -1.4772 -4.73806 0
M  V30 3270 H 315.894 -2.66611 -5.50208 0
M  V30 3271 H 320.068 -3.50985 -6.01484 0
M  V30 3272 H 317.695 -4.1101 -6.39511 0
M  V30 3273 N 319.27 1.56325 -0.20005 0
M  V30 3274 C 320.5 2.01811 0.442232 0
M  V30 3275 C 320.908 1.07932 1.55394 0
M  V30 3276 O 320.251 0.0772685 1.83537 0
M  V30 3277 C 320.313 3.43685 1.05457 0
M  V30 3278 C 319.977 4.56928 0.0809833 0
M  V30 3279 C 320.974 5.15009 -0.711471 0
M  V30 3280 C 318.659 5.0229 -0.0315364 0
M  V30 3281 C 320.653 6.16904 -1.60336 0
M  V30 3282 C 318.34 6.04028 -0.926981 0
M  V30 3283 C 319.338 6.6121 -1.71146 0
M  V30 3284 O 319.026 7.60971 -2.59189 0
M  V30 3285 H 318.758 0.666173 0.114848 0
M  V30 3286 H 321.312 2.03085 -0.307511 0
M  V30 3287 H 319.542 3.39413 1.85299 0
M  V30 3288 H 321.231 3.72948 1.60201 0
M  V30 3289 H 321.997 4.80827 -0.634873 0
M  V30 3290 H 317.876 4.57476 0.568902 0
M  V30 3291 H 321.42 6.61464 -2.21611 0
M  V30 3292 H 317.317 6.37634 -1.00468 0
M  V30 3293 H 318.085 7.7841 -2.53023 0
M  V30 3294 N 320.748 -0.0735177 1.57428 0
M  V30 3295 C 321.68 -1.11423 2.00294 0
M  V30 3296 C 322.693 -1.35084 0.908637 0
M  V30 3297 O 323.882 -1.33355 1.18654 0
M  V30 3298 C 320.982 -2.46548 2.32523 0
M  V30 3299 C 320.155 -2.42867 3.63778 0
M  V30 3300 C 319.214 -3.60087 3.83697 0
M  V30 3301 O 318.24 -3.41595 4.55304 0
M  V30 3302 N 319.442 -4.80372 3.25919 0
M  V30 3303 H 322.207 -0.749206 2.90184 0
M  V30 3304 H 319.768 -0.262195 1.59763 0
M  V30 3305 H 321.76 -3.23607 2.43024 0
M  V30 3306 H 320.33 -2.75059 1.48531 0
M  V30 3307 H 319.55 -1.51206 3.64047 0
M  V30 3308 H 320.838 -2.37506 4.49965 0
M  V30 3309 H 320.236 -4.983 2.67795 0
M  V30 3310 H 318.793 -5.54948 3.41871 0
M  V30 3311 N 322.226 -1.5378 -0.344866 0
M  V30 3312 C 323.456 -1.74646 -1.10374 0
M  V30 3313 C 323.864 -0.48491 -1.8288 0
M  V30 3314 O 323.207 0.553062 -1.75177 0
M  V30 3315 C 323.269 -2.87145 -2.16306 0
M  V30 3316 C 322.933 -4.26795 -1.63386 0
M  V30 3317 C 323.93 -5.08412 -1.08688 0
M  V30 3318 C 321.615 -4.73276 -1.68272 0
M  V30 3319 C 323.609 -6.34609 -0.595792 0
M  V30 3320 C 321.296 -5.99446 -1.18776 0
M  V30 3321 C 322.294 -6.79946 -0.645215 0
M  V30 3322 O 321.982 -8.03745 -0.157626 0
M  V30 3323 H 321.714 -0.587112 -0.335075 0
M  V30 3324 H 324.268 -2.01403 -0.403252 0
M  V30 3325 H 322.498 -2.55909 -2.89909 0
M  V30 3326 H 324.187 -2.95992 -2.77747 0
M  V30 3327 H 324.953 -4.73666 -1.04236 0
M  V30 3328 H 320.832 -4.10677 -2.09442 0
M  V30 3329 H 324.376 -6.97389 -0.171654 0
M  V30 3330 H 320.273 -6.33687 -1.22928 0
M  V30 3331 H 321.041 -8.18038 -0.275037 0
M  V30 3332 N 323.704 0.605807 -1.45491 0
M  V30 3333 C 324.634 1.72709 -1.57143 0
M  V30 3334 C 325.615 1.6476 -0.422884 0
M  V30 3335 O 326.8 1.83132 -0.646247 0
M  V30 3336 C 323.93 3.11316 -1.53948 0
M  V30 3337 C 322.884 3.34077 -2.67537 0
M  V30 3338 C 322.21 4.72975 -2.49397 0
M  V30 3339 C 323.51 3.24158 -4.09535 0
M  V30 3340 H 325.204 1.63214 -2.51001 0
M  V30 3341 H 322.75 0.78379 -1.208 0
M  V30 3342 H 324.703 3.89557 -1.60696 0
M  V30 3343 H 323.427 3.21655 -0.566205 0
M  V30 3344 H 322.086 2.58227 -2.6022 0
M  V30 3345 H 321.734 4.8005 -1.50205 0
M  V30 3346 H 321.434 4.8916 -3.25571 0
M  V30 3347 H 322.958 5.53414 -2.58002 0
M  V30 3348 H 324.372 3.92271 -4.18086 0
M  V30 3349 H 322.769 3.51872 -4.86113 0
M  V30 3350 H 323.839 2.2157 -4.31317 0
M  V30 3351 N 325.182 1.32811 0.848464 0
M  V30 3352 C 326.145 1.22194 1.9391 0
M  V30 3353 C 327.145 0.143404 1.60159 0
M  V30 3354 O 328.335 0.394253 1.6968 0
M  V30 3355 C 325.467 0.88067 3.29328 0
M  V30 3356 H 326.66 2.19127 2.04752 0
M  V30 3357 H 324.213 1.16731 1.0394 0
M  V30 3358 H 324.948 -0.0865776 3.24184 0
M  V30 3359 H 324.733 1.66052 3.55203 0
M  V30 3360 H 326.223 0.830871 4.09251 0
M  V30 3361 N 326.66 -1.06551 1.16123 0
M  V30 3362 C 327.61 -2.12209 0.833736 0
M  V30 3363 C 328.594 -1.59825 -0.185656 0
M  V30 3364 O 329.786 -1.76994 0.0147906 0
M  V30 3365 C 326.915 -3.41674 0.333697 0
M  V30 3366 C 326.001 -4.00892 1.38372 0
M  V30 3367 N 326.392 -4.34256 2.59337 0
M  V30 3368 C 324.69 -4.28463 1.23836 0
M  V30 3369 C 325.391 -4.81291 3.26701 0
M  V30 3370 N 324.367 -4.80565 2.54083 0
M  V30 3371 H 328.169 -2.35849 1.75364 0
M  V30 3372 H 325.683 -1.24068 1.04789 0
M  V30 3373 H 327.68 -4.16822 0.0806918 0
M  V30 3374 H 326.34 -3.19475 -0.58017 0
M  V30 3375 H 327.351 -4.24687 2.96415 0
M  V30 3376 H 324.028 -4.15721 0.38504 0
M  V30 3377 H 325.418 -5.16332 4.29943 0
M  V30 3378 N 328.138 -0.959301 -1.25041 0
M  V30 3379 C 329.363 -0.633507 -1.97488 0
M  V30 3380 C 329.788 0.788555 -1.70773 0
M  V30 3381 O 329.146 1.53394 -0.966431 0
M  V30 3382 C 329.194 -0.904057 -3.49083 0
M  V30 3383 O 328.298 0.0147939 -4.12397 0
M  V30 3384 H 327.639 -0.240368 -0.618966 0
M  V30 3385 H 330.169 -1.28717 -1.59038 0
M  V30 3386 H 330.179 -0.832203 -3.99423 0
M  V30 3387 H 328.854 -1.94048 -3.67856 0
M  V30 3388 H 327.431 -0.109664 -3.72739 0
M  V30 3389 N 329.616 1.39756 -0.72842 0
M  V30 3390 C 330.563 2.30647 -0.0841519 0
M  V30 3391 C 331.533 1.48869 0.7367 0
M  V30 3392 O 332.718 1.77574 0.698015 0
M  V30 3393 C 329.858 3.35165 0.822091 0
M  V30 3394 C 328.971 4.31999 -0.0106663 0
M  V30 3395 C 328.106 5.23585 0.896241 0
M  V30 3396 C 327.145 6.12072 0.0583381 0
M  V30 3397 N 326.282 6.96035 0.920818 0
M  V30 3398 H 331.122 2.85173 -0.864891 0
M  V30 3399 H 328.659 1.40422 -0.438179 0
M  V30 3400 H 330.617 3.94345 1.36189 0
M  V30 3401 H 329.247 2.8211 1.56888 0
M  V30 3402 H 328.299 3.74492 -0.66781 0
M  V30 3403 H 329.611 4.9443 -0.658825 0
M  V30 3404 H 328.765 5.87759 1.50412 0
M  V30 3405 H 327.504 4.61459 1.57819 0
M  V30 3406 H 326.509 5.46916 -0.562389 0
M  V30 3407 H 327.734 6.76261 -0.6203 0
M  V30 3408 H 325.68 6.36485 1.58818 0
M  V30 3409 H 325.597 7.55284 0.32899 0
M  V30 3410 H 326.865 7.64646 1.51447 0
M  V30 3411 N 331.094 0.475555 1.50254 0
M  V30 3412 C 332.026 -0.352649 2.26471 0
M  V30 3413 C 333.039 -0.953165 1.3198 0
M  V30 3414 O 334.228 -0.840815 1.57457 0
M  V30 3415 C 331.328 -1.50902 3.0345 0
M  V30 3416 C 330.501 -1.02047 4.25329 0
M  V30 3417 C 329.56 -2.05142 4.84565 0
M  V30 3418 O 328.586 -1.63023 5.45355 0
M  V30 3419 N 329.788 -3.37987 4.71959 0
M  V30 3420 H 332.553 0.300767 2.98187 0
M  V30 3421 H 330.114 0.306598 1.5897 0
M  V30 3422 H 332.106 -2.19572 3.39956 0
M  V30 3423 H 330.676 -2.06705 2.34504 0
M  V30 3424 H 329.896 -0.159507 3.93877 0
M  V30 3425 H 331.184 -0.672061 5.04342 0
M  V30 3426 H 330.582 -3.74913 4.23623 0
M  V30 3427 H 329.139 -4.02443 5.12721 0
M  V30 3428 N 332.573 -1.56217 0.208337 0
M  V30 3429 C 333.819 -1.98242 -0.427552 0
M  V30 3430 C 334.152 -1.09554 -1.60348 0
M  V30 3431 O 333.427 -0.15035 -1.93918 0
M  V30 3432 C 333.71 -3.4931 -0.874907 0
M  V30 3433 C 333.563 -4.48773 0.303751 0
M  V30 3434 C 334.882 -4.04424 -1.73577 0
M  V30 3435 H 332.001 -0.720744 -0.153936 0
M  V30 3436 H 334.643 -1.87586 0.30192 0
M  V30 3437 H 332.793 -3.58522 -1.49648 0
M  V30 3438 H 334.465 -4.51586 0.941682 0
M  V30 3439 H 332.708 -4.23194 0.953375 0
M  V30 3440 H 333.379 -5.51976 -0.0519883 0
M  V30 3441 H 335.855 -3.98075 -1.21143 0
M  V30 3442 H 334.731 -5.1047 -2.01771 0
M  V30 3443 H 334.992 -3.50494 -2.69456 0
M  V30 3444 N 334.051 0.0651679 -1.57465 0
M  V30 3445 C 335.298 0.763063 -1.87573 0
M  V30 3446 C 335.626 1.77242 -0.800961 0
M  V30 3447 O 334.881 1.94651 0.202316 0
M  V30 3448 C 335.18 1.50081 -3.24362 0
M  V30 3449 C 334.846 0.630816 -4.46466 0
M  V30 3450 C 333.508 0.391082 -4.79608 0
M  V30 3451 C 335.86 0.0279465 -5.21193 0
M  V30 3452 C 333.188 -0.460894 -5.84887 0
M  V30 3453 C 335.54 -0.811522 -6.27373 0
M  V30 3454 C 334.204 -1.06106 -6.59013 0
M  V30 3455 H 333.474 0.279224 -0.686378 0
M  V30 3456 H 336.121 0.0236726 -1.91485 0
M  V30 3457 H 334.426 2.31258 -3.16271 0
M  V30 3458 H 336.123 2.04571 -3.44894 0
M  V30 3459 H 332.713 0.8278 -4.2053 0
M  V30 3460 H 336.897 0.200262 -4.95896 0
M  V30 3461 H 332.153 -0.662907 -6.07796 0
M  V30 3462 H 336.327 -1.28537 -6.84435 0
M  V30 3463 H 333.954 -1.723 -7.40417 0
M  V30 3464 N 335.529 1.53961 0.336706 0
M  V30 3465 C 336.945 1.44378 0.680241 0
M  V30 3466 C 337.145 0.606034 1.9217 0
M  V30 3467 O 336.201 0.099688 2.52303 0
M  V30 3468 C 337.514 2.87945 0.8665 0
M  V30 3469 C 339.062 2.97763 0.964682 0
M  V30 3470 C 339.537 4.42453 1.18321 0
M  V30 3471 N 341.028 4.46008 1.25025 0
M  V30 3472 C 341.763 5.55102 1.43697 0
M  V30 3473 N 341.259 6.7419 1.59498 0
M  V30 3474 N 343.052 5.42727 1.463 0
M  V30 3475 H 335.203 2.06918 -0.479455 0
M  V30 3476 H 337.466 0.935634 -0.152619 0
M  V30 3477 H 337.172 3.51691 0.0256937 0
M  V30 3478 H 337.046 3.33293 1.76623 0
M  V30 3479 H 339.433 2.34153 1.796 0
M  V30 3480 H 339.514 2.55766 0.041708 0
M  V30 3481 H 339.158 5.06645 0.356788 0
M  V30 3482 H 339.088 4.82048 2.11985 0
M  V30 3483 H 341.579 3.60196 1.14312 0
M  V30 3484 H 341.892 7.53095 1.734 0
M  V30 3485 H 340.237 6.77123 1.56621 0
M  V30 3486 H 343.428 4.48647 1.33543 0
M  V30 3487 H 343.601 6.27806 1.6051 0
M  V30 3488 N 337.007 -0.598083 1.45811 0
M  V30 3489 C 337.917 -1.73632 1.57763 0
M  V30 3490 C 338.933 -1.67763 0.461676 0
M  V30 3491 O 340.109 -1.87949 0.723685 0
M  V30 3492 C 337.174 -3.10114 1.55018 0
M  V30 3493 C 336.235 -3.27364 2.77726 0
M  V30 3494 C 335.468 -4.57334 2.75102 0
M  V30 3495 O 335.691 -5.40258 1.8297 0
M  V30 3496 O 334.625 -4.77502 3.66437 0
M  V30 3497 H 338.451 -1.66498 2.53992 0
M  V30 3498 H 336.036 -0.763308 1.28429 0
M  V30 3499 H 337.918 -3.9141 1.56129 0
M  V30 3500 H 336.593 -3.17718 0.619431 0
M  V30 3501 H 335.5 -2.45619 2.82174 0
M  V30 3502 H 336.833 -3.24641 3.69958 0
M  V30 3503 N 338.485 -1.33259 -0.841409 0
M  V30 3504 C 339.448 -1.23221 -1.9326 0
M  V30 3505 C 340.448 -0.151895 -1.60081 0
M  V30 3506 O 341.638 -0.403246 -1.69468 0
M  V30 3507 C 338.77 -0.898123 -3.28856 0
M  V30 3508 H 339.963 -2.2021 -2.03587 0
M  V30 3509 H 337.516 -1.17281 -1.03319 0
M  V30 3510 H 338.251 0.0693841 -3.24226 0
M  V30 3511 H 338.036 -1.67934 -3.54317 0
M  V30 3512 H 339.526 -0.852563 -4.08805 0
M  V30 3513 N 339.963 1.05934 -1.16686 0
M  V30 3514 C 340.926 2.11669 -0.879144 0
M  V30 3515 C 341.926 1.60294 0.127445 0
M  V30 3516 O 343.116 1.7389 -0.103865 0
M  V30 3517 C 340.248 3.39438 -0.315425 0
M  V30 3518 H 341.441 2.38626 -1.81653 0
M  V30 3519 H 338.994 1.22058 -0.976299 0
M  V30 3520 H 339.729 3.18132 0.629468 0
M  V30 3521 H 339.514 3.78034 -1.04079 0
M  V30 3522 H 341.004 4.17391 -0.132189 0
M  V30 3523 N 341.441 0.965919 1.2453 0
M  V30 3524 C 342.373 0.452465 2.2469 0
M  V30 3525 C 343.386 -0.437821 1.56802 0
M  V30 3526 O 344.575 -0.244283 1.76821 0
M  V30 3527 C 341.675 -0.366258 3.36915 0
M  V30 3528 C 340.848 0.513701 4.34373 0
M  V30 3529 C 339.907 -0.248716 5.25612 0
M  V30 3530 O 338.933 0.356745 5.68081 0
M  V30 3531 N 340.135 -1.53877 5.59734 0
M  V30 3532 H 342.9 1.31361 2.69378 0
M  V30 3533 H 340.461 0.837541 1.38553 0
M  V30 3534 H 342.453 -0.884297 3.94921 0
M  V30 3535 H 341.023 -1.12832 2.91526 0
M  V30 3536 H 340.243 1.21273 3.75082 0
M  V30 3537 H 341.531 1.11391 4.96457 0
M  V30 3538 H 340.929 -2.05243 5.27154 0
M  V30 3539 H 339.486 -2.00254 6.20275 0
M  V30 3540 N 342.919 -1.39368 0.735821 0
M  V30 3541 C 343.867 -2.32443 0.0855131 0
M  V30 3542 C 344.861 -1.53104 -0.724954 0
M  V30 3543 O 346.067 -1.68762 -0.626047 0
M  V30 3544 H 342.442 -0.751948 0.00885257 0
M  V30 3545 H 344.413 -2.84916 0.886883 0
M  V30 3546 C 343.162 -3.38206 -0.806983 0
M  V30 3547 H 342.485 -3.99335 -0.19274 0
M  V30 3548 H 343.925 -4.05779 -1.2296 0
M  V30 3549 C 342.384 -2.75321 -1.94165 0
M  V30 3550 O 342.914 -2.63231 -3.03435 0
M  V30 3551 N 341.12 -2.33396 -1.73132 0
M  V30 3552 H 340.667 -2.4343 -0.842596 0
M  V30 3553 H 340.625 -1.91661 -2.49225 0
M  V30 3554 N 344.397 -0.483516 -1.5 0
M  V30 3555 C 345.808 -0.0314176 -1.86674 0
M  V30 3556 C 346.159 1.37728 -1.39733 0
M  V30 3557 O 345.284 2.02327 -0.767635 0
M  V30 3558 C 345.879 -0.0502376 -3.38763 0
M  V30 3559 C 344.438 0.346442 -3.74802 0
M  V30 3560 C 343.585 -0.430366 -2.7394 0
M  V30 3561 H 346.536 -0.697182 -1.42566 0
M  V30 3562 H 346.557 0.749116 -3.73053 0
M  V30 3563 H 346.069 -1.07563 -3.72897 0
M  V30 3564 H 344.17 1.37572 -3.46273 0
M  V30 3565 H 344.283 0.0391486 -4.79084 0
M  V30 3566 H 342.647 0.117557 -2.54429 0
M  V30 3567 H 343.43 -1.4555 -3.10918 0
M  V30 3568 N 345.875 1.56104 -0.216619 0
M  V30 3569 C 346.785 2.23694 0.706982 0
M  V30 3570 C 347.801 1.24295 1.21765 0
M  V30 3571 O 348.977 1.57094 1.2603 0
M  V30 3572 C 346.042 2.8998 1.90033 0
M  V30 3573 C 345.103 4.04708 1.43213 0
M  V30 3574 C 344.336 4.67824 2.56859 0
M  V30 3575 O 344.559 4.29913 3.74874 0
M  V30 3576 O 343.493 5.56905 2.28343 0
M  V30 3577 H 347.319 3.03272 0.161235 0
M  V30 3578 H 344.904 1.49394 0.0136177 0
M  V30 3579 H 346.786 3.31837 2.59735 0
M  V30 3580 H 345.461 2.13365 2.43428 0
M  V30 3581 H 344.368 3.6743 0.70327 0
M  V30 3582 H 345.701 4.83051 0.944615 0
M  V30 3583 N 347.353 -0.0568162 1.57498 0
M  V30 3584 C 348.263 -1.08346 2.08083 0
M  V30 3585 C 349.279 -1.41439 1.01346 0
M  V30 3586 O 350.455 -1.51316 1.32912 0
M  V30 3587 C 347.52 -2.37352 2.52715 0
M  V30 3588 C 346.581 -2.11093 3.73816 0
M  V30 3589 C 345.814 -3.33949 4.1631 0
M  V30 3590 O 346.037 -4.43622 3.58547 0
M  V30 3591 O 344.971 -3.21279 5.08983 0
M  V30 3592 H 348.797 -0.683667 2.95905 0
M  V30 3593 H 346.382 -0.271965 1.46904 0
M  V30 3594 H 348.264 -3.13246 2.81877 0
M  V30 3595 H 346.939 -2.76681 1.68016 0
M  V30 3596 H 345.846 -1.32856 3.49714 0
M  V30 3597 H 347.179 -1.76637 4.59413 0
M  V30 3598 N 348.832 -1.54138 -0.328536 0
M  V30 3599 C 350.078 -1.7236 -1.06865 0
M  V30 3600 C 350.411 -0.493231 -1.87832 0
M  V30 3601 O 349.686 0.5098 -1.877 0
M  V30 3602 C 349.969 -2.99621 -1.99747 0
M  V30 3603 C 349.822 -4.32899 -1.22143 0
M  V30 3604 C 351.141 -3.22615 -2.99345 0
M  V30 3605 H 348.26 -0.627151 -0.387105 0
M  V30 3606 H 350.902 -1.86827 -0.345767 0
M  V30 3607 H 349.052 -2.87418 -2.61387 0
M  V30 3608 H 350.724 -4.56978 -0.630017 0
M  V30 3609 H 348.967 -4.30628 -0.523628 0
M  V30 3610 H 349.638 -5.18154 -1.90318 0
M  V30 3611 H 352.114 -3.34248 -2.47826 0
M  V30 3612 H 350.99 -4.13027 -3.61524 0
M  V30 3613 H 351.251 -2.3961 -3.71536 0
M  V30 3614 N 350.31 0.590341 -1.46126 0
M  V30 3615 C 351.273 1.68194 -1.55703 0
M  V30 3616 C 352.273 1.54808 -0.434868 0
M  V30 3617 O 353.463 1.59564 -0.698928 0
M  V30 3618 C 350.595 3.07575 -1.47005 0
M  V30 3619 H 351.788 1.61064 -2.52979 0
M  V30 3620 H 349.341 0.807541 -1.33823 0
M  V30 3621 H 350.076 3.20268 -0.509785 0
M  V30 3622 H 349.861 3.187 -2.28414 0
M  V30 3623 H 351.351 3.87055 -1.56776 0
M  V30 3624 N 351.788 1.33704 0.83433 0
M  V30 3625 C 352.698 1.26382 1.97648 0
M  V30 3626 C 353.714 0.173548 1.73132 0
M  V30 3627 O 354.89 0.397962 1.97429 0
M  V30 3628 C 351.955 1.00769 3.31733 0
M  V30 3629 C 351.016 2.1884 3.69334 0
M  V30 3630 C 350.249 1.9444 4.9702 0
M  V30 3631 O 350.472 0.896961 5.63303 0
M  V30 3632 O 349.406 2.81093 5.32231 0
M  V30 3633 H 353.232 2.22444 2.06767 0
M  V30 3634 H 350.817 1.13795 0.968037 0
M  V30 3635 H 352.699 0.882186 4.12062 0
M  V30 3636 H 351.374 0.0773783 3.23608 0
M  V30 3637 H 350.281 2.36946 2.89495 0
M  V30 3638 H 351.614 3.10221 3.82131 0
M  V30 3639 N 353.266 -1.05314 1.17247 0
M  V30 3640 C 354.512 -1.78557 0.961513 0
M  V30 3641 C 354.845 -1.87419 -0.508697 0
M  V30 3642 O 354.12 -1.37307 -1.37757 0
M  V30 3643 C 354.403 -3.22514 1.60176 0
M  V30 3644 C 354.256 -3.21673 3.14399 0
M  V30 3645 C 355.575 -4.20318 1.30463 0
M  V30 3646 H 352.694 -0.6482 0.350723 0
M  V30 3647 H 355.336 -1.23102 1.44727 0
M  V30 3648 H 353.486 -3.69867 1.18871 0
M  V30 3649 H 355.158 -2.82405 3.64753 0
M  V30 3650 H 353.401 -2.60048 3.47214 0
M  V30 3651 H 354.072 -4.23271 3.54324 0
M  V30 3652 H 356.548 -3.81454 1.66229 0
M  V30 3653 H 355.424 -5.19289 1.77848 0
M  V30 3654 H 355.685 -4.41526 0.22521 0
M  V30 3655 N 354.744 -0.972509 -1.24016 0
M  V30 3656 C 355.991 -0.637034 -1.92219 0
M  V30 3657 C 356.319 0.828418 -1.75976 0
M  V30 3658 O 355.574 1.61206 -1.10955 0
M  V30 3659 C 355.873 -0.963694 -3.44162 0
M  V30 3660 C 355.539 -2.41807 -3.80579 0
M  V30 3661 C 354.201 -2.81556 -3.9023 0
M  V30 3662 C 356.553 -3.36172 -3.98293 0
M  V30 3663 C 353.881 -4.14702 -4.15017 0
M  V30 3664 C 356.233 -4.68952 -4.24578 0
M  V30 3665 C 354.897 -5.08472 -4.32449 0
M  V30 3666 H 354.167 -0.233107 -0.703379 0
M  V30 3667 H 356.814 -1.2249 -1.47202 0
M  V30 3668 H 355.119 -0.29365 -3.90698 0
M  V30 3669 H 356.816 -0.682449 -3.9515 0
M  V30 3670 H 353.406 -2.09988 -3.73635 0
M  V30 3671 H 357.59 -3.06644 -3.90234 0
M  V30 3672 H 352.846 -4.4494 -4.19331 0
M  V30 3673 H 357.02 -5.42037 -4.37229 0
M  V30 3674 H 354.647 -6.11665 -4.51409 0
M  V30 3675 N 356.222 1.38976 -0.743202 0
M  V30 3676 C 357.152 2.33171 -0.123873 0
M  V30 3677 C 358.133 1.54336 0.71516 0
M  V30 3678 O 359.318 1.82696 0.658467 0
M  V30 3679 C 356.448 3.38474 0.777978 0
M  V30 3680 C 355.402 4.27979 0.0424758 0
M  V30 3681 C 354.728 5.2405 1.06189 0
M  V30 3682 C 356.028 5.10155 -1.1198 0
M  V30 3683 H 357.722 2.85213 -0.910709 0
M  V30 3684 H 355.268 1.37133 -0.439388 0
M  V30 3685 H 357.221 4.03328 1.22084 0
M  V30 3686 H 355.945 2.84891 1.59702 0
M  V30 3687 H 354.604 3.64616 -0.380853 0
M  V30 3688 H 354.252 4.66758 1.87472 0
M  V30 3689 H 353.952 5.84785 0.574485 0
M  V30 3690 H 355.476 5.9178 1.50428 0
M  V30 3691 H 356.89 5.68307 -0.75499 0
M  V30 3692 H 355.287 5.80073 -1.53738 0
M  V30 3693 H 356.357 4.44504 -1.93764 0
M  V30 3694 N 357.7 0.491464 1.49741 0
M  V30 3695 C 358.928 -0.0535151 2.06831 0
M  V30 3696 C 359.343 -1.31683 1.35296 0
M  V30 3697 O 358.7 -1.77402 0.42836 0
M  V30 3698 C 358.751 -0.320835 3.60073 0
M  V30 3699 O 358.472 0.892394 4.28915 0
M  V30 3700 C 359.973 -0.910519 4.33848 0
M  V30 3701 H 357.193 0.0161909 0.670805 0
M  V30 3702 H 359.737 0.68609 1.92647 0
M  V30 3703 H 357.892 -1.0104 3.73991 0
M  V30 3704 H 358.306 0.649401 5.20464 0
M  V30 3705 H 359.78 -1.04721 5.41976 0
M  V30 3706 H 360.257 -1.90589 3.95692 0
M  V30 3707 H 360.863 -0.258712 4.24512 0
M  V30 3708 N 359.178 -1.55987 0.224894 0
M  V30 3709 C 360.141 -2.19178 -0.670348 0
M  V30 3710 C 361.141 -1.15461 -1.11917 0
M  V30 3711 O 362.331 -1.40675 -1.02743 0
M  V30 3712 C 359.463 -2.81777 -1.9187 0
M  V30 3713 H 360.656 -2.99662 -0.119364 0
M  V30 3714 H 358.209 -1.5628 -0.0247128 0
M  V30 3715 H 358.944 -2.05172 -2.51147 0
M  V30 3716 H 358.729 -3.57732 -1.60531 0
M  V30 3717 H 360.219 -3.30205 -2.55645 0
M  V30 3718 N 360.656 0.0484629 -1.57525 0
M  V30 3719 C 361.586 1.0549 -2.08313 0
M  V30 3720 C 362.567 1.38929 -0.981463 0
M  V30 3721 O 363.752 1.48151 -1.25558 0
M  V30 3722 C 360.882 2.36162 -2.54646 0
M  V30 3723 C 359.836 2.17016 -3.68901 0
M  V30 3724 C 359.162 3.53278 -4.01371 0
M  V30 3725 C 360.462 1.57219 -4.98076 0
M  V30 3726 H 362.156 0.632195 -2.92649 0
M  V30 3727 H 359.702 0.302654 -1.40784 0
M  V30 3728 H 361.655 3.06882 -2.88793 0
M  V30 3729 H 360.379 2.80456 -1.67368 0
M  V30 3730 H 359.038 1.48733 -3.35073 0
M  V30 3731 H 358.686 3.95185 -3.11188 0
M  V30 3732 H 358.386 3.41299 -4.78318 0
M  V30 3733 H 359.91 4.25391 -4.38035 0
M  V30 3734 H 361.324 2.17832 -5.30304 0
M  V30 3735 H 359.721 1.55871 -5.79503 0
M  V30 3736 H 360.791 0.535956 -4.81929 0
M  V30 3737 N 362.134 1.5431 0.320358 0
M  V30 3738 C 363.55 1.45091 0.664889 0
M  V30 3739 C 363.75 0.626382 1.91517 0
M  V30 3740 O 362.806 0.126443 2.52183 0
M  V30 3741 C 364.119 2.88848 0.83591 0
M  V30 3742 C 365.667 2.9877 0.933046 0
M  V30 3743 C 366.142 4.43683 1.13621 0
M  V30 3744 N 367.633 4.47309 1.20287 0
M  V30 3745 C 368.368 5.56595 1.37801 0
M  V30 3746 N 367.864 6.75844 1.52338 0
M  V30 3747 N 369.657 5.44248 1.40535 0
M  V30 3748 H 361.808 2.06398 -0.501374 0
M  V30 3749 H 364.071 0.933963 -0.162534 0
M  V30 3750 H 363.777 3.51698 -0.0116092 0
M  V30 3751 H 363.651 3.35148 1.73078 0
M  V30 3752 H 366.038 2.36045 1.77107 0
M  V30 3753 H 366.119 2.55796 0.0145782 0
M  V30 3754 H 365.763 5.06995 0.303032 0
M  V30 3755 H 365.693 4.84269 2.0686 0
M  V30 3756 H 368.184 3.61388 1.10485 0
M  V30 3757 H 368.497 7.54892 1.65403 0
M  V30 3758 H 366.842 6.78746 1.4943 0
M  V30 3759 H 370.033 4.50038 1.28777 0
M  V30 3760 H 370.206 6.29473 1.53842 0
M  V30 3761 N 363.613 -0.582584 1.46437 0
M  V30 3762 C 364.576 -1.67366 1.56592 0
M  V30 3763 C 365.576 -1.54575 0.443072 0
M  V30 3764 O 366.766 -1.59191 0.707381 0
M  V30 3765 C 363.898 -3.06791 1.48634 0
M  V30 3766 H 365.091 -1.5972 2.5383 0
M  V30 3767 H 362.644 -0.800432 1.34249 0
M  V30 3768 H 363.379 -3.19993 0.526763 0
M  V30 3769 H 363.164 -3.17484 2.30101 0
M  V30 3770 H 364.654 -3.86218 1.58826 0
M  V30 3771 N 365.091 -1.34144 -0.827227 0
M  V30 3772 C 366.502 -1.23557 -1.39966 0
M  V30 3773 C 366.853 0.140731 -1.95695 0
M  V30 3774 O 365.978 1.04087 -1.89723 0
M  V30 3775 C 366.573 -2.23708 -2.54441 0
M  V30 3776 C 365.132 -2.16924 -3.07605 0
M  V30 3777 C 364.279 -2.10549 -1.80456 0
M  V30 3778 H 367.23 -1.45573 -0.631991 0
M  V30 3779 H 367.251 -1.85157 -3.32411 0
M  V30 3780 H 366.763 -3.23866 -2.13851 0
M  V30 3781 H 364.864 -1.20107 -3.52711 0
M  V30 3782 H 364.977 -3.07988 -3.66988 0
M  V30 3783 H 363.341 -1.56203 -2.01178 0
M  V30 3784 H 364.124 -3.12535 -1.42046 0
M  V30 3785 N 366.569 1.04691 -1.17803 0
M  V30 3786 C 367.516 2.12557 -0.899343 0
M  V30 3787 C 368.486 1.65339 0.158771 0
M  V30 3788 O 369.671 1.90789 0.0204797 0
M  V30 3789 C 366.811 3.42481 -0.424315 0
M  V30 3790 C 365.924 4.03346 -1.54713 0
M  V30 3791 C 365.059 5.21208 -1.02546 0
M  V30 3792 C 364.098 5.74089 -2.12339 0
M  V30 3793 N 363.235 6.83247 -1.61612 0
M  V30 3794 H 368.075 2.35734 -1.823 0
M  V30 3795 H 365.612 1.1564 -0.909159 0
M  V30 3796 H 367.57 4.16996 -0.130421 0
M  V30 3797 H 366.2 3.19471 0.462377 0
M  V30 3798 H 365.252 3.2622 -1.95664 0
M  V30 3799 H 366.564 4.38628 -2.37501 0
M  V30 3800 H 365.718 6.02812 -0.685718 0
M  V30 3801 H 364.457 4.87414 -0.167084 0
M  V30 3802 H 363.462 4.91111 -2.47165 0
M  V30 3803 H 364.687 6.0993 -2.98601 0
M  V30 3804 H 362.633 6.5134 -0.780533 0
M  V30 3805 H 362.55 7.17559 -2.38003 0
M  V30 3806 H 363.818 7.68491 -1.30545 0
M  V30 3807 N 368.047 0.979072 1.23499 0
M  V30 3808 C 369.458 0.684391 1.73704 0
M  V30 3809 C 369.809 -0.799448 1.79174 0
M  V30 3810 O 368.934 -1.62531 1.42873 0
M  V30 3811 C 369.529 1.23564 3.15464 0
M  V30 3812 C 368.088 0.99063 3.6313 0
M  V30 3813 C 367.235 1.36416 2.41425 0
M  V30 3814 H 370.186 1.15307 1.09041 0
M  V30 3815 H 370.207 0.607417 3.7562 0
M  V30 3816 H 369.719 2.31561 3.1145 0
M  V30 3817 H 367.82 -0.0733136 3.72528 0
M  V30 3818 H 367.933 1.64427 4.5 0
M  V30 3819 H 366.297 0.782616 2.42378 0
M  V30 3820 H 367.08 2.45387 2.40083 0
M  V30 3821 N 369.525 -1.3858 0.750561 0
M  V30 3822 C 370.753 -2.04471 0.316098 0
M  V30 3823 C 371.168 -1.56606 -1.05452 0
M  V30 3824 O 370.525 -0.737784 -1.66922 0
M  V30 3825 C 370.576 -3.60025 0.326275 0
M  V30 3826 O 370.297 -4.06133 1.6428 0
M  V30 3827 C 371.798 -4.43131 -0.122429 0
M  V30 3828 H 369.018 -0.65717 0.135528 0
M  V30 3829 H 371.562 -1.77329 1.01857 0
M  V30 3830 H 369.717 -3.86014 -0.327431 0
M  V30 3831 H 370.131 -5.00547 1.56693 0
M  V30 3832 H 371.605 -5.51963 -0.0641473 0
M  V30 3833 H 372.082 -4.23333 -1.16988 0
M  V30 3834 H 372.688 -4.22323 0.50229 0
M  V30 3835 N 371.003 -0.499398 -1.49478 0
M  V30 3836 C 371.933 0.269244 -2.31943 0
M  V30 3837 C 372.914 0.964054 -1.40143 0
M  V30 3838 O 374.099 0.955767 -1.69052 0
M  V30 3839 C 371.229 1.33504 -3.20615 0
M  V30 3840 C 370.183 0.760202 -4.21195 0
M  V30 3841 C 369.509 1.9264 -4.98792 0
M  V30 3842 C 370.809 -0.247661 -5.21712 0
M  V30 3843 H 372.503 -0.419082 -2.96452 0
M  V30 3844 H 370.049 -0.202988 -1.42562 0
M  V30 3845 H 372.002 1.88048 -3.77115 0
M  V30 3846 H 370.726 2.05253 -2.54045 0
M  V30 3847 H 369.385 0.23653 -3.65836 0
M  V30 3848 H 369.033 2.63154 -4.28671 0
M  V30 3849 H 368.733 1.54785 -5.66847 0
M  V30 3850 H 370.257 2.4762 -5.58137 0
M  V30 3851 H 371.671 0.209579 -5.72917 0
M  V30 3852 H 370.068 -0.541962 -5.97648 0
M  V30 3853 H 371.138 -1.16409 -4.7072 0
M  V30 3854 N 372.481 1.55866 -0.233164 0
M  V30 3855 C 373.897 1.59133 0.121988 0
M  V30 3856 C 374.097 1.25016 1.58029 0
M  V30 3857 O 373.153 0.990922 2.32243 0
M  V30 3858 C 374.466 2.99932 -0.214792 0
M  V30 3859 C 376.014 3.12601 -0.157971 0
M  V30 3860 C 376.489 4.55597 -0.46859 0
M  V30 3861 N 377.98 4.61305 -0.418585 0
M  V30 3862 C 378.715 5.69903 -0.63227 0
M  V30 3863 N 378.211 6.86819 -0.90835 0
M  V30 3864 N 380.004 5.59264 -0.563913 0
M  V30 3865 H 372.155 1.76315 -1.18434 0
M  V30 3866 H 374.418 0.820093 -0.475553 0
M  V30 3867 H 374.124 3.29588 -1.22739 0
M  V30 3868 H 373.998 3.74327 0.464691 0
M  V30 3869 H 376.385 2.82735 0.845283 0
M  V30 3870 H 376.466 2.40511 -0.871102 0
M  V30 3871 H 376.11 4.86182 -1.46934 0
M  V30 3872 H 376.04 5.25928 0.265865 0
M  V30 3873 H 378.531 3.77297 -0.213368 0
M  V30 3874 H 378.844 7.65507 -1.05919 0
M  V30 3875 H 377.189 6.88536 -0.945673 0
M  V30 3876 H 380.38 4.66802 -0.348372 0
M  V30 3877 H 380.553 6.43831 -0.733847 0
M  V30 3878 N 373.959 -0.0401083 1.57549 0
M  V30 3879 C 375.189 -0.744115 1.92734 0
M  V30 3880 C 375.597 -1.70005 0.830348 0
M  V30 3881 O 374.94 -1.82576 -0.20286 0
M  V30 3882 C 375.002 -1.56516 3.2364 0
M  V30 3883 C 374.666 -0.7752 4.50377 0
M  V30 3884 C 375.663 -0.0803326 5.19838 0
M  V30 3885 C 373.348 -0.733002 4.96923 0
M  V30 3886 C 375.342 0.646154 6.34116 0
M  V30 3887 C 373.029 -0.00276321 6.111 0
M  V30 3888 C 374.027 0.685585 6.7955 0
M  V30 3889 O 373.715 1.40399 7.91545 0
M  V30 3890 H 373.447 -0.214861 0.640945 0
M  V30 3891 H 376.001 -0.00503675 2.05399 0
M  V30 3892 H 374.231 -2.3478 3.07271 0
M  V30 3893 H 375.92 -2.15076 3.44234 0
M  V30 3894 H 376.686 -0.104035 4.84888 0
M  V30 3895 H 372.565 -1.25827 4.43496 0
M  V30 3896 H 376.109 1.18398 6.87479 0
M  V30 3897 H 372.006 0.0229012 6.45496 0
M  V30 3898 H 372.774 1.31653 8.07843 0
M  V30 3899 N 375.437 -1.54477 -0.31217 0
M  V30 3900 C 376.684 -1.73227 -1.04875 0
M  V30 3901 C 377.012 -0.512042 -1.87639 0
M  V30 3902 O 376.267 0.506131 -1.89042 0
M  V30 3903 C 376.566 -2.967 -1.99258 0
M  V30 3904 C 376.232 -4.30974 -1.32559 0
M  V30 3905 C 374.894 -4.67477 -1.141 0
M  V30 3906 C 377.246 -5.14258 -0.847835 0
M  V30 3907 C 374.574 -5.84852 -0.465326 0
M  V30 3908 C 376.926 -6.32327 -0.185931 0
M  V30 3909 C 375.59 -6.67499 0.0107077 0
M  V30 3910 H 374.86 -0.633881 -0.383765 0
M  V30 3911 H 377.507 -1.88727 -0.324731 0
M  V30 3912 H 375.812 -2.75935 -2.7815 0
M  V30 3913 H 377.509 -3.08401 -2.563 0
M  V30 3914 H 374.099 -4.02262 -1.4793 0
M  V30 3915 H 378.283 -4.86565 -0.978192 0
M  V30 3916 H 373.539 -6.10654 -0.301883 0
M  V30 3917 H 377.713 -6.96135 0.192211 0
M  V30 3918 H 375.34 -7.58306 0.536287 0
M  V30 3919 N 376.915 0.57481 -1.46744 0
M  V30 3920 C 378.143 1.35856 -1.56047 0
M  V30 3921 C 378.558 1.87691 -0.204365 0
M  V30 3922 O 377.915 1.64049 0.79963 0
M  V30 3923 C 377.966 2.54066 -2.57163 0
M  V30 3924 O 377.687 2.04377 -3.87507 0
M  V30 3925 C 379.188 3.46514 -2.76483 0
M  V30 3926 H 376.408 0.414754 -0.527466 0
M  V30 3927 H 378.952 0.698035 -1.92218 0
M  V30 3928 H 377.107 3.16092 -2.23974 0
M  V30 3929 H 377.521 2.81419 -4.4261 0
M  V30 3930 H 378.995 4.25919 -3.51137 0
M  V30 3931 H 379.472 3.98951 -1.83671 0
M  V30 3932 H 380.078 2.90318 -3.10799 0
M  V30 3933 N 378.394 1.34581 0.820102 0
M  V30 3934 C 379.622 1.3018 1.60813 0
M  V30 3935 C 380.037 -0.123551 1.88395 0
M  V30 3936 O 379.394 -1.07148 1.47735 0
M  V30 3937 C 379.445 2.09312 2.94739 0
M  V30 3938 O 379.166 3.46288 2.68358 0
M  V30 3939 C 380.667 2.1234 3.89136 0
M  V30 3940 H 377.887 0.447726 0.499782 0
M  V30 3941 H 380.431 1.77237 1.02017 0
M  V30 3942 H 378.586 1.65889 3.50085 0
M  V30 3943 H 379 3.87227 3.53774 0
M  V30 3944 H 380.474 2.72126 4.80262 0
M  V30 3945 H 380.951 1.11854 4.24718 0
M  V30 3946 H 381.557 2.55864 3.39726 0
M  V30 3947 N 379.872 -1.04064 1.18357 0
M  V30 3948 C 380.782 -2.15569 0.925596 0
M  V30 3949 C 381.798 -1.7365 -0.110295 0
M  V30 3950 O 382.974 -2.01273 0.0716218 0
M  V30 3951 C 380.039 -3.43704 0.454836 0
M  V30 3952 C 379.1 -4.00004 1.55869 0
M  V30 3953 C 378.333 -5.22023 1.1103 0
M  V30 3954 O 378.556 -5.70392 -0.0309756 0
M  V30 3955 O 377.49 -5.70856 1.90805 0
M  V30 3956 H 381.316 -2.40187 1.8586 0
M  V30 3957 H 378.901 -1.1402 0.965394 0
M  V30 3958 H 380.783 -4.20923 0.200382 0
M  V30 3959 H 379.458 -3.20559 -0.449876 0
M  V30 3960 H 378.365 -3.24172 1.86716 0
M  V30 3961 H 379.698 -4.2749 2.43953 0
M  V30 3962 N 381.35 -0.985608 -1.22978 0
M  V30 3963 C 382.766 -0.695104 -1.43668 0
M  V30 3964 C 382.966 0.736866 -1.87543 0
M  V30 3965 O 382.022 1.50868 -2.02473 0
M  V30 3966 C 383.335 -1.69447 -2.48412 0
M  V30 3967 C 384.883 -1.70909 -2.62219 0
M  V30 3968 C 385.358 -2.6969 -3.70178 0
M  V30 3969 N 386.849 -2.6824 -3.77626 0
M  V30 3970 C 387.584 -3.41339 -4.60733 0
M  V30 3971 N 387.08 -4.24015 -5.4789 0
M  V30 3972 N 388.873 -3.30079 -4.54977 0
M  V30 3973 H 381.024 -1.91054 -0.928016 0
M  V30 3974 H 383.287 -0.823553 -0.469536 0
M  V30 3975 H 382.993 -2.7188 -2.23102 0
M  V30 3976 H 382.867 -1.48147 -3.46889 0
M  V30 3977 H 385.254 -0.691785 -2.86877 0
M  V30 3978 H 385.335 -1.96276 -1.6404 0
M  V30 3979 H 384.979 -3.71566 -3.46268 0
M  V30 3980 H 384.909 -2.41595 -4.67909 0
M  V30 3981 H 387.4 -2.08243 -3.15346 0
M  V30 3982 H 387.713 -4.76636 -6.08308 0
M  V30 3983 H 386.058 -4.28104 -5.47496 0
M  V30 3984 H 389.249 -2.64937 -3.85909 0
M  V30 3985 H 389.422 -3.87308 -5.19516 0
M  V30 3986 N 382.828 1.3818 -0.7579 0
M  V30 3987 C 384.075 2.00019 -0.315985 0
M  V30 3988 C 384.403 1.60163 1.10355 0
M  V30 3989 O 383.658 0.83264 1.77103 0
M  V30 3990 C 383.957 3.55252 -0.391218 0
M  V30 3991 C 383.623 4.14834 -1.76702 0
M  V30 3992 C 382.285 4.30821 -2.14353 0
M  V30 3993 C 384.637 4.47658 -2.66931 0
M  V30 3994 C 381.965 4.76928 -3.41696 0
M  V30 3995 C 384.317 4.95184 -3.93669 0
M  V30 3996 C 382.981 5.09377 -4.31383 0
M  V30 3997 H 382.251 0.731923 -0.115627 0
M  V30 3998 H 384.898 1.65161 -0.969223 0
M  V30 3999 H 383.203 3.90273 0.34558 0
M  V30 4000 H 384.9 4.00988 -0.030805 0
M  V30 4001 H 381.49 4.02808 -1.46435 0
M  V30 4002 H 385.674 4.34904 -2.39106 0
M  V30 4003 H 380.93 4.86103 -3.70829 0
M  V30 4004 H 385.104 5.19551 -4.63724 0
M  V30 4005 H 382.731 5.44865 -5.30119 0
M  V30 4006 N 384.306 0.507319 1.49211 0
M  V30 4007 C 385.236 -0.256939 2.32082 0
M  V30 4008 C 386.217 -0.956609 1.40652 0
M  V30 4009 O 387.402 -0.946788 1.69557 0
M  V30 4010 C 384.532 -1.31802 3.21318 0
M  V30 4011 C 383.486 -0.737855 4.21592 0
M  V30 4012 C 382.812 -1.89992 4.99807 0
M  V30 4013 C 384.112 0.275325 5.21574 0
M  V30 4014 H 385.806 0.434798 2.96226 0
M  V30 4015 H 383.352 0.210546 1.42452 0
M  V30 4016 H 385.305 -1.86045 3.78107 0
M  V30 4017 H 384.029 -2.03903 2.5513 0
M  V30 4018 H 382.688 -0.217126 3.65956 0
M  V30 4019 H 382.336 -2.60877 4.30061 0
M  V30 4020 H 382.036 -1.51777 5.6766 0
M  V30 4021 H 383.56 -2.44657 5.59442 0
M  V30 4022 H 384.974 -0.179193 5.7302 0
M  V30 4023 H 383.371 0.573649 5.97352 0
M  V30 4024 H 384.441 1.18903 4.70096 0
M  V30 4025 N 385.784 -1.5574 0.241426 0
M  V30 4026 C 387.195 -1.84842 -0.262755 0
M  V30 4027 C 387.546 -1.16317 -1.58003 0
M  V30 4028 O 386.671 -0.439653 -2.11887 0
M  V30 4029 C 387.266 -3.35332 -0.483523 0
M  V30 4030 C 385.825 -3.6468 -0.931977 0
M  V30 4031 C 384.972 -2.77299 -0.0061151 0
M  V30 4032 H 387.923 -1.51761 0.464129 0
M  V30 4033 H 387.944 -3.56615 -1.32688 0
M  V30 4034 H 387.456 -3.85178 0.47537 0
M  V30 4035 H 385.557 -3.20307 -1.90353 0
M  V30 4036 H 385.67 -4.72498 -0.792628 0
M  V30 4037 H 384.034 -2.49408 -0.516503 0
M  V30 4038 H 384.817 -3.2995 0.948052 0
M  V30 4039 N 387.262 0.0317525 -1.57568 0
M  V30 4040 C 388.192 1.03274 -2.0942 0
M  V30 4041 C 389.173 1.3788 -0.996143 0
M  V30 4042 O 390.358 1.46811 -1.27122 0
M  V30 4043 C 387.488 2.33448 -2.57137 0
M  V30 4044 C 386.442 2.13091 -3.71182 0
M  V30 4045 C 385.768 3.49001 -4.05095 0
M  V30 4046 C 387.068 1.51928 -4.99715 0
M  V30 4047 H 388.762 0.60112 -2.93303 0
M  V30 4048 H 386.308 0.287705 -1.41097 0
M  V30 4049 H 388.261 3.03802 -2.92032 0
M  V30 4050 H 386.985 2.78665 -1.70333 0
M  V30 4051 H 385.644 1.45171 -3.36632 0
M  V30 4052 H 385.292 3.91862 -3.15362 0
M  V30 4053 H 384.992 3.36207 -4.81911 0
M  V30 4054 H 386.516 4.20721 -4.42522 0
M  V30 4055 H 387.93 2.12196 -5.32584 0
M  V30 4056 H 386.327 1.49716 -5.81124 0
M  V30 4057 H 387.397 0.484811 -4.8247 0
M  V30 4058 N 388.74 1.54641 0.303973 0
M  V30 4059 C 389.67 1.88386 1.3796 0
M  V30 4060 C 390.651 0.742485 1.5304 0
M  V30 4061 O 391.836 0.997959 1.66597 0
M  V30 4062 C 388.966 2.12854 2.74427 0
M  V30 4063 C 387.92 3.28702 2.74115 0
M  V30 4064 C 387.246 3.38582 4.13844 0
M  V30 4065 C 388.546 4.65881 2.3612 0
M  V30 4066 H 390.24 2.78474 1.09966 0
M  V30 4067 H 387.786 1.33988 0.527556 0
M  V30 4068 H 389.739 2.35047 3.49758 0
M  V30 4069 H 388.463 1.19535 3.03939 0
M  V30 4070 H 387.122 3.06428 2.0124 0
M  V30 4071 H 386.77 2.42784 4.40528 0
M  V30 4072 H 386.47 4.16453 4.14537 0
M  V30 4073 H 387.994 3.63031 4.90959 0
M  V30 4074 H 389.408 4.87823 3.01167 0
M  V30 4075 H 387.805 5.46444 2.48031 0
M  V30 4076 H 388.875 4.66799 1.3125 0
M  V30 4077 N 390.218 -0.567019 1.47046 0
M  V30 4078 C 391.634 -0.891975 1.32348 0
M  V30 4079 C 391.834 -1.99154 0.306616 0
M  V30 4080 O 390.89 -2.50883 -0.28532 0
M  V30 4081 C 392.203 -1.29449 2.7141 0
M  V30 4082 C 393.751 -1.40646 2.79621 0
M  V30 4083 C 394.226 -1.84257 4.19301 0
M  V30 4084 N 395.717 -1.91424 4.21795 0
M  V30 4085 C 396.452 -2.26476 5.26779 0
M  V30 4086 N 395.948 -2.60211 6.42077 0
M  V30 4087 N 397.741 -2.27166 5.14152 0
M  V30 4088 H 389.892 0.159074 2.11803 0
M  V30 4089 H 392.155 0.00849752 0.947962 0
M  V30 4090 H 391.861 -0.560448 3.47206 0
M  V30 4091 H 391.735 -2.25273 3.02542 0
M  V30 4092 H 394.122 -2.13133 2.04104 0
M  V30 4093 H 394.203 -0.430339 2.52154 0
M  V30 4094 H 393.847 -1.12343 4.95319 0
M  V30 4095 H 393.777 -2.82855 4.44185 0
M  V30 4096 H 396.268 -1.6778 3.38612 0
M  V30 4097 H 396.581 -2.85956 7.17948 0
M  V30 4098 H 394.926 -2.57813 6.45413 0
M  V30 4099 H 398.117 -2.00244 4.23107 0
M  V30 4100 H 398.29 -2.54154 5.96079 0
M  V30 4101 N 391.696 -1.35014 -0.812953 0
M  V30 4102 C 392.629 -1.21761 -1.93001 0
M  V30 4103 C 393.607 -0.10694 -1.62248 0
M  V30 4104 O 394.791 -0.273891 -1.865 0
M  V30 4105 C 391.918 -0.873404 -3.27245 0
M  V30 4106 C 390.964 -1.99523 -3.76952 0
M  V30 4107 S 391.797 -3.61009 -3.95516 0
M  V30 4108 C 392.953 -3.28651 -5.32672 0
M  V30 4109 H 393.186 -2.16315 -2.03948 0
M  V30 4110 H 390.719 -1.20156 -0.969631 0
M  V30 4111 H 392.677 -0.68161 -4.04802 0
M  V30 4112 H 391.338 0.053971 -3.14054 0
M  V30 4113 H 390.531 -1.70838 -4.74163 0
M  V30 4114 H 390.133 -2.14503 -3.06373 0
M  V30 4115 H 392.425 -2.81085 -6.1644 0
M  V30 4116 H 393.368 -4.25039 -5.66346 0
M  V30 4117 H 393.776 -2.6458 -4.98656 0
M  V30 4118 N 393.175 1.03435 -1.18907 0
M  V30 4119 C 394.591 1.28973 -0.940111 0
M  V30 4120 C 394.791 1.97676 0.390691 0
M  V30 4121 O 393.847 2.26127 1.12352 0
M  V30 4122 C 395.16 2.14221 -2.11021 0
M  V30 4123 C 396.708 2.27547 -2.14922 0
M  V30 4124 C 397.183 3.16164 -3.31367 0
M  V30 4125 N 398.674 3.23752 -3.31269 0
M  V30 4126 C 399.409 3.92495 -4.18014 0
M  V30 4127 N 398.905 4.63515 -5.14904 0
M  V30 4128 N 400.698 3.88838 -4.05908 0
M  V30 4129 H 392.849 0.57252 -2.04538 0
M  V30 4130 H 395.112 0.315184 -0.894071 0
M  V30 4131 H 394.818 1.71054 -3.073 0
M  V30 4132 H 394.692 3.14919 -2.0762 0
M  V30 4133 H 397.079 2.69947 -1.19217 0
M  V30 4134 H 397.16 1.26418 -2.22378 0
M  V30 4135 H 396.804 2.74474 -4.27348 0
M  V30 4136 H 396.734 4.17339 -3.21148 0
M  V30 4137 H 399.225 2.73167 -2.61129 0
M  V30 4138 H 399.538 5.13583 -5.77453 0
M  V30 4139 H 397.883 4.62398 -5.18857 0
M  V30 4140 H 401.074 3.32491 -3.29495 0
M  V30 4141 H 401.247 4.4214 -4.73726 0
M  V30 4142 N 394.653 0.992116 1.22453 0
M  V30 4143 C 395.583 0.561677 2.26644 0
M  V30 4144 C 396.564 -0.411055 1.65059 0
M  V30 4145 O 397.749 -0.301861 1.9184 0
M  V30 4146 C 394.879 -0.125247 3.47074 0
M  V30 4147 C 393.833 0.765948 4.21091 0
M  V30 4148 C 393.159 -0.0538484 5.34673 0
M  V30 4149 C 394.459 2.06242 4.79856 0
M  V30 4150 H 396.153 1.43259 2.62902 0
M  V30 4151 H 393.699 0.690283 1.26377 0
M  V30 4152 H 395.652 -0.437764 4.1912 0
M  V30 4153 H 394.376 -1.03069 3.0991 0
M  V30 4154 H 393.035 1.0621 3.50878 0
M  V30 4155 H 392.683 -0.960188 4.9375 0
M  V30 4156 H 392.383 0.539415 5.85119 0
M  V30 4157 H 393.907 -0.360477 6.09535 0
M  V30 4158 H 395.321 1.8139 5.43848 0
M  V30 4159 H 393.718 2.60444 5.40638 0
M  V30 4160 H 394.788 2.74167 3.99951 0
M  V30 4161 N 396.131 -1.37776 0.765217 0
M  V30 4162 C 397.408 -1.93975 0.251596 0
M  V30 4163 C 397.788 -1.69949 -1.25222 0
M  V30 4164 O 397.136 -1.04457 -2.03226 0
M  V30 4165 C 397.346 -3.43487 0.617895 0
M  V30 4166 C 398.694 -4.20564 0.584029 0
M  V30 4167 O 399.718 -3.5182 0.556888 0
M  V30 4168 O 398.577 -5.43138 0.605291 0
M  V30 4169 H 395.671 -0.82509 0.0561806 0
M  V30 4170 H 398.217 -1.47101 0.846128 0
M  V30 4171 H 396.989 -3.5453 1.65602 0
M  V30 4172 H 396.612 -3.976 -0.00403411 0
M  V30 4173 N 397.609 -0.515225 -1.4894 0
M  V30 4174 C 398.886 0.0879088 -1.95402 0
M  V30 4175 C 399.266 1.52745 -1.45712 0
M  V30 4176 O 398.614 2.18238 -0.677093 0
M  V30 4177 C 398.824 -0.0141055 -3.48997 0
M  V30 4178 C 400.172 0.152646 -4.24326 0
M  V30 4179 O 401.196 0.0604025 -3.56149 0
M  V30 4180 O 400.055 0.34384 -5.45417 0
M  V30 4181 H 397.149 0.0874636 -0.822362 0
M  V30 4182 H 399.695 -0.578775 -1.59525 0
M  V30 4183 H 398.467 -1.01745 -3.77841 0
M  V30 4184 H 398.09 0.692091 -3.9153 0
M  V30 4185 N 399.087 1.5561 -0.249682 0
M  V30 4186 C 400.498 1.84979 0.252949 0
M  V30 4187 C 400.849 1.17153 1.57384 0
M  V30 4188 O 399.974 0.450884 2.11651 0
M  V30 4189 C 400.569 3.35584 0.465732 0
M  V30 4190 C 399.128 3.65169 0.912624 0
M  V30 4191 C 398.275 2.77299 -0.00859085 0
M  V30 4192 H 401.226 1.51513 -0.47217 0
M  V30 4193 H 401.247 3.57313 1.30795 0
M  V30 4194 H 400.759 3.8492 -0.49579 0
M  V30 4195 H 398.86 3.21312 1.88652 0
M  V30 4196 H 398.973 4.72912 0.767559 0
M  V30 4197 H 397.337 2.49678 0.50327 0
M  V30 4198 H 398.12 3.29442 -0.965537 0
M  V30 4199 N 400.565 -0.0233959 1.57583 0
M  V30 4200 C 401.79 -0.728376 1.94189 0
M  V30 4201 C 402.215 -1.67793 0.850119 0
M  V30 4202 O 401.573 -1.80262 -0.19371 0
M  V30 4203 C 401.621 -1.45669 3.29868 0
M  V30 4204 O 400.725 -2.57013 3.22518 0
M  V30 4205 H 400.066 -0.195493 0.63457 0
M  V30 4206 H 402.596 0.0228214 2.04587 0
M  V30 4207 H 402.606 -1.82535 3.6489 0
M  V30 4208 H 401.281 -0.760314 4.08891 0
M  V30 4209 H 399.858 -2.22648 2.99136 0
M  V30 4210 N 402.043 -1.548 -0.295768 0
M  V30 4211 C 403.291 -1.73985 -1.02828 0
M  V30 4212 C 403.612 -0.531406 -1.87619 0
M  V30 4213 O 402.882 0.454221 -1.90561 0
M  V30 4214 H 401.462 -0.641556 -0.382642 0
M  V30 4215 H 404.124 -1.92163 -0.325489 0
M  V30 4216 H 403.22 -2.63129 -1.67838 0
M  V30 4217 N 403.521 0.559213 -1.47345 0
M  V30 4218 C 404.746 1.34676 -1.57725 0
M  V30 4219 C 405.171 1.86723 -0.227164 0
M  V30 4220 O 404.529 1.6286 0.796642 0
M  V30 4221 C 404.577 2.49399 -2.60447 0
M  V30 4222 O 403.681 3.51567 -2.15578 0
M  V30 4223 H 403.022 0.400115 -0.52991 0
M  V30 4224 H 405.552 0.676009 -1.93109 0
M  V30 4225 H 405.562 2.95996 -2.80803 0
M  V30 4226 H 404.237 2.10873 -3.58477 0
M  V30 4227 H 402.814 3.11289 -2.05313 0
M  V30 4228 N 404.999 1.35443 0.805782 0
M  V30 4229 C 405.947 1.28465 1.93906 0
M  V30 4230 C 406.941 0.17943 1.68447 0
M  V30 4231 O 408.147 0.345459 1.76654 0
M  V30 4232 H 404.522 0.399528 0.637088 0
M  V30 4233 H 406.493 2.24206 1.96912 0
M  V30 4234 C 405.242 1.07432 3.30687 0
M  V30 4235 H 404.565 1.91716 3.50835 0
M  V30 4236 H 406.005 1.06591 4.10383 0
M  V30 4237 C 404.464 -0.22179 3.36169 0
M  V30 4238 O 404.994 -1.21731 3.82811 0
M  V30 4239 N 403.2 -0.260841 2.89427 0
M  V30 4240 H 402.747 0.549884 2.51663 0
M  V30 4241 H 402.705 -1.12777 2.93477 0
M  V30 4242 N 406.477 -1.02803 1.19454 0
M  V30 4243 C 407.707 -1.79581 1.02149 0
M  V30 4244 C 408.115 -1.84182 -0.432851 0
M  V30 4245 O 407.458 -1.28534 -1.31243 0
M  V30 4246 C 407.52 -3.25993 1.51554 0
M  V30 4247 C 407.184 -3.45025 2.99678 0
M  V30 4248 C 408.181 -3.35175 3.97434 0
M  V30 4249 C 405.866 -3.71212 3.38389 0
M  V30 4250 C 407.86 -3.51238 5.31893 0
M  V30 4251 C 405.547 -3.8692 4.73008 0
M  V30 4252 C 406.545 -3.76936 5.69569 0
M  V30 4253 O 406.233 -3.92179 7.01748 0
M  V30 4254 H 405.965 -0.571962 0.360327 0
M  V30 4255 H 408.519 -1.30367 1.58725 0
M  V30 4256 H 406.749 -3.76235 0.893543 0
M  V30 4257 H 408.438 -3.84368 1.30444 0
M  V30 4258 H 409.204 -3.14895 3.68872 0
M  V30 4259 H 405.083 -3.78075 2.6378 0
M  V30 4260 H 408.627 -3.43362 6.07247 0
M  V30 4261 H 404.524 -4.06699 5.01265 0
M  V30 4262 H 405.292 -4.09265 7.08833 0
M  V30 4263 N 407.956 -0.998596 -1.21925 0
M  V30 4264 C 409.202 -0.678667 -1.91107 0
M  V30 4265 C 409.535 0.78791 -1.77498 0
M  V30 4266 O 408.81 1.57043 -1.1475 0
M  V30 4267 C 409.093 -1.09245 -3.43129 0
M  V30 4268 C 408.946 -2.61801 -3.6576 0
M  V30 4269 C 410.265 -0.649984 -4.35274 0
M  V30 4270 H 407.384 -0.248025 -0.694012 0
M  V30 4271 H 410.026 -1.24314 -1.43688 0
M  V30 4272 H 408.176 -0.612171 -3.83647 0
M  V30 4273 H 409.848 -3.17543 -3.34611 0
M  V30 4274 H 408.091 -3.03609 -3.09845 0
M  V30 4275 H 408.762 -2.85804 -4.7225 0
M  V30 4276 H 411.238 -1.0626 -4.02303 0
M  V30 4277 H 410.114 -0.967743 -5.40302 0
M  V30 4278 H 410.375 0.449139 -4.39813 0
M  V30 4279 N 409.434 1.37368 -0.772513 0
M  V30 4280 C 410.662 2.03942 -0.348588 0
M  V30 4281 C 411.077 1.58264 1.02947 0
M  V30 4282 O 410.434 0.764246 1.65727 0
M  V30 4283 C 410.485 3.5946 -0.38351 0
M  V30 4284 O 410.206 4.03468 -1.70721 0
M  V30 4285 C 411.707 4.4327 0.0519152 0
M  V30 4286 H 408.927 0.654931 -0.145966 0
M  V30 4287 H 411.471 1.75686 -1.04665 0
M  V30 4288 H 409.626 3.86486 0.265978 0
M  V30 4289 H 410.04 4.97991 -1.64636 0
M  V30 4290 H 411.514 5.51995 -0.0236733 0
M  V30 4291 H 411.991 4.2514 1.10238 0
M  V30 4292 H 412.597 4.21471 -0.569415 0
M  V30 4293 N 410.912 0.523116 1.48665 0
M  V30 4294 C 411.875 -0.232592 2.28017 0
M  V30 4295 C 412.875 -0.874021 1.34972 0
M  V30 4296 O 414.065 -0.735132 1.57929 0
M  V30 4297 C 411.197 -1.33586 3.13636 0
M  V30 4298 H 412.39 0.464008 2.96289 0
M  V30 4299 H 409.943 0.278816 1.53793 0
M  V30 4300 H 410.678 -2.06593 2.4998 0
M  V30 4301 H 410.463 -0.881125 3.82071 0
M  V30 4302 H 411.953 -1.86759 3.73511 0
M  V30 4303 N 412.39 -1.55475 0.257931 0
M  V30 4304 C 413.323 -2.179 -0.677862 0
M  V30 4305 C 414.301 -1.13448 -1.16483 0
M  V30 4306 O 415.485 -1.41889 -1.24095 0
M  V30 4307 C 412.612 -2.78851 -1.92249 0
M  V30 4308 C 411.658 -3.96454 -1.57246 0
M  V30 4309 S 412.491 -5.31349 -0.665501 0
M  V30 4310 C 413.647 -5.9576 -1.91889 0
M  V30 4311 H 413.88 -2.96934 -0.147396 0
M  V30 4312 H 411.413 -1.54342 0.0423023 0
M  V30 4313 H 413.371 -3.14602 -2.63697 0
M  V30 4314 H 412.032 -1.99742 -2.42409 0
M  V30 4315 H 411.225 -4.37731 -2.49814 0
M  V30 4316 H 410.827 -3.62038 -0.938325 0
M  V30 4317 H 413.119 -6.13947 -2.86487 0
M  V30 4318 H 414.062 -6.9094 -1.54942 0
M  V30 4319 H 414.47 -5.2494 -2.076 0
M  V30 4320 N 413.868 0.0150385 -1.57593 0
M  V30 4321 C 414.818 1.01943 -2.0394 0
M  V30 4322 C 415.802 1.31209 -0.931286 0
M  V30 4323 O 416.994 1.30559 -1.19513 0
M  V30 4324 C 414.123 2.31621 -2.53391 0
M  V30 4325 C 413.209 2.05384 -3.7105 0
M  V30 4326 N 413.6 1.49253 -4.83278 0
M  V30 4327 C 411.898 2.35601 -3.78693 0
M  V30 4328 C 412.599 1.39143 -5.64813 0
M  V30 4329 N 411.575 1.87187 -5.10355 0
M  V30 4330 H 415.377 0.57969 -2.88126 0
M  V30 4331 H 412.891 0.221056 -1.60888 0
M  V30 4332 H 414.888 3.044 -2.84862 0
M  V30 4333 H 413.548 2.76261 -1.70616 0
M  V30 4334 H 414.559 1.17334 -5.04433 0
M  V30 4335 H 411.236 2.8322 -3.06746 0
M  V30 4336 H 412.626 0.961153 -6.6499 0
M  V30 4337 N 415.346 1.54954 0.287554 0
M  V30 4338 C 416.762 1.46469 0.633964 0
M  V30 4339 C 416.962 0.666865 1.90145 0
M  V30 4340 O 416.018 0.179906 2.51858 0
M  V30 4341 C 417.331 2.90556 0.774454 0
M  V30 4342 C 418.879 3.00681 0.869462 0
M  V30 4343 C 419.354 4.45993 1.04184 0
M  V30 4344 N 420.845 4.4976 1.10772 0
M  V30 4345 C 421.58 5.59393 1.25964 0
M  V30 4346 N 421.076 6.78923 1.37968 0
M  V30 4347 N 422.869 5.47107 1.28959 0
M  V30 4348 H 415.02 2.05288 -0.545041 0
M  V30 4349 H 417.283 0.930305 -0.182308 0
M  V30 4350 H 416.989 3.51594 -0.086207 0
M  V30 4351 H 416.863 3.38743 1.6593 0
M  V30 4352 H 419.25 2.39749 1.7206 0
M  V30 4353 H 419.331 2.55769 -0.0396831 0
M  V30 4354 H 418.975 5.07524 0.195422 0
M  V30 4355 H 418.905 4.88548 1.96542 0
M  V30 4356 H 421.396 3.63651 1.02794 0
M  V30 4357 H 421.709 7.58231 1.49353 0
M  V30 4358 H 420.054 6.81763 1.34999 0
M  V30 4359 H 423.245 4.52668 1.19202 0
M  V30 4360 H 423.418 6.32595 1.40455 0
M  V30 4361 N 416.824 -0.551391 1.4764 0
M  V30 4362 C 417.734 -1.68525 1.63207 0
M  V30 4363 C 418.75 -1.6621 0.514815 0
M  V30 4364 O 419.926 -1.85551 0.783113 0
M  V30 4365 C 416.991 -3.05025 1.64805 0
M  V30 4366 C 416.052 -3.18362 2.88 0
M  V30 4367 C 415.285 -4.4835 2.89513 0
M  V30 4368 O 415.508 -5.34163 2.00065 0
M  V30 4369 O 414.442 -4.65602 3.81443 0
M  V30 4370 H 418.268 -1.58333 2.59161 0
M  V30 4371 H 415.853 -0.722063 1.30792 0
M  V30 4372 H 417.735 -3.86245 1.68502 0
M  V30 4373 H 416.41 -3.15587 0.720197 0
M  V30 4374 H 415.317 -2.36518 2.89845 0
M  V30 4375 H 416.65 -3.12707 3.80099 0
M  V30 4376 N 418.302 -1.35869 -0.798587 0
M  V30 4377 C 419.548 -1.2978 -1.55836 0
M  V30 4378 C 419.881 0.125322 -1.93795 0
M  V30 4379 O 419.156 1.07658 -1.61987 0
M  V30 4380 C 419.439 -2.21188 -2.84162 0
M  V30 4381 C 419.292 -3.72155 -2.52628 0
M  V30 4382 C 420.611 -2.11545 -3.85923 0
M  V30 4383 H 417.73 -0.472769 -0.565383 0
M  V30 4384 H 420.372 -1.66341 -0.918192 0
M  V30 4385 H 418.522 -1.90139 -3.38791 0
M  V30 4386 H 420.194 -4.13682 -2.04121 0
M  V30 4387 H 418.437 -3.92042 -1.85704 0
M  V30 4388 H 419.108 -4.31511 -3.44242 0
M  V30 4389 H 421.584 -2.38855 -3.40716 0
M  V30 4390 H 420.46 -2.77688 -4.73477 0
M  V30 4391 H 420.721 -1.09987 -4.282 0
M  V30 4392 N 419.78 1.02168 -1.19998 0
M  V30 4393 C 421.027 1.75685 -1.00702 0
M  V30 4394 C 421.355 1.88947 0.461426 0
M  V30 4395 O 420.61 1.40832 1.35885 0
M  V30 4396 C 420.909 3.18081 -1.62969 0
M  V30 4397 C 420.575 3.24809 -3.12746 0
M  V30 4398 C 419.237 3.26352 -3.53621 0
M  V30 4399 C 421.589 3.23379 -4.08749 0
M  V30 4400 C 418.917 3.2413 -4.89036 0
M  V30 4401 C 421.269 3.22698 -5.44104 0
M  V30 4402 C 419.933 3.22542 -5.84399 0
M  V30 4403 H 419.203 0.642877 -0.368496 0
M  V30 4404 H 421.85 1.19865 -1.49348 0
M  V30 4405 H 420.155 3.77027 -1.06573 0
M  V30 4406 H 421.852 3.73648 -1.45561 0
M  V30 4407 H 418.442 3.2434 -2.80181 0
M  V30 4408 H 422.626 3.21361 -3.78207 0
M  V30 4409 H 417.882 3.22338 -5.19527 0
M  V30 4410 H 422.056 3.20543 -6.18244 0
M  V30 4411 H 419.683 3.20575 -6.89301 0
M  V30 4412 N 421.258 1.00505 1.21394 0
M  V30 4413 C 422.506 0.686415 1.90086 0
M  V30 4414 C 422.827 -0.785264 1.7849 0
M  V30 4415 O 422.097 -1.56387 1.17983 0
M  V30 4416 H 420.677 0.2509 0.703604 0
M  V30 4417 H 423.339 1.27417 1.47482 0
M  V30 4418 H 422.435 0.959621 2.96981 0
M  V30 4419 N 422.737 -1.36956 0.779787 0
M  V30 4420 C 424.014 -1.93697 0.272156 0
M  V30 4421 C 424.394 -1.71267 -1.23413 0
M  V30 4422 O 423.742 -1.06607 -2.02107 0
M  V30 4423 C 423.952 -3.42812 0.654291 0
M  V30 4424 C 425.3 -4.19921 0.628602 0
M  V30 4425 O 426.324 -3.51209 0.594172 0
M  V30 4426 O 425.183 -5.42465 0.662864 0
M  V30 4427 H 422.277 -0.824447 0.0649286 0
M  V30 4428 H 424.823 -1.46196 0.861682 0
M  V30 4429 H 423.595 -3.52754 1.69353 0
M  V30 4430 H 423.218 -3.97582 0.0381369 0
M  V30 4431 N 424.215 -0.530993 -1.48385 0
M  V30 4432 C 425.461 0.00274135 -2.028 0
M  V30 4433 C 425.794 1.33838 -1.40716 0
M  V30 4434 O 425.069 1.86465 -0.553277 0
M  V30 4435 C 425.352 0.123676 -3.59888 0
M  V30 4436 C 425.205 -1.2372 -4.3245 0
M  V30 4437 C 426.524 0.849967 -4.31814 0
M  V30 4438 H 423.643 -0.000477758 -0.737 0
M  V30 4439 H 426.285 -0.688217 -1.77098 0
M  V30 4440 H 424.435 0.712157 -3.81917 0
M  V30 4441 H 426.107 -1.86687 -4.21836 0
M  V30 4442 H 424.35 -1.81882 -3.93829 0
M  V30 4443 H 425.021 -1.10557 -5.40815 0
M  V30 4444 H 427.497 0.350572 -4.14621 0
M  V30 4445 H 426.373 0.903486 -5.41413 0
M  V30 4446 H 426.634 1.90047 -3.99167 0
M  V30 4447 N 425.693 1.55336 -0.266172 0
M  V30 4448 C 427.104 1.85236 0.233315 0
M  V30 4449 C 427.455 1.18816 1.56132 0
M  V30 4450 O 426.58 0.473307 2.11161 0
M  V30 4451 C 427.175 3.36059 0.430113 0
M  V30 4452 C 425.734 3.66116 0.873842 0
M  V30 4453 C 424.881 2.77274 -0.0380016 0
M  V30 4454 H 427.832 1.51004 -0.488214 0
M  V30 4455 H 427.853 3.58681 1.26998 0
M  V30 4456 H 427.365 3.84373 -0.536588 0
M  V30 4457 H 425.466 3.23295 1.85233 0
M  V30 4458 H 425.579 4.73699 0.717358 0
M  V30 4459 H 423.943 2.50198 0.476759 0
M  V30 4460 H 424.726 3.284 -1.00042 0
M  V30 4461 N 427.171 -0.0066808 1.57599 0
M  V30 4462 C 428.134 -0.985035 2.06953 0
M  V30 4463 C 429.134 -1.27663 0.977687 0
M  V30 4464 O 430.324 -1.22293 1.24057 0
M  V30 4465 C 427.456 -2.3118 2.50536 0
M  V30 4466 H 428.649 -0.558255 2.94658 0
M  V30 4467 H 426.202 -0.254011 1.54222 0
M  V30 4468 H 426.937 -2.78561 1.66054 0
M  V30 4469 H 426.722 -2.11338 3.3027 0
M  V30 4470 H 428.212 -3.01377 2.8907 0
M  V30 4471 N 428.649 -1.55105 -0.279332 0
M  V30 4472 C 429.596 -1.8755 -1.34513 0
M  V30 4473 C 430.566 -0.726384 -1.49375 0
M  V30 4474 O 431.751 -0.977063 -1.63884 0
M  V30 4475 C 428.891 -2.14738 -2.70151 0
M  V30 4476 C 428.004 -3.42285 -2.63562 0
M  V30 4477 C 427.139 -3.59206 -3.91337 0
M  V30 4478 C 426.178 -4.80467 -3.79233 0
M  V30 4479 N 425.315 -4.94079 -4.98829 0
M  V30 4480 H 430.155 -2.78456 -1.06143 0
M  V30 4481 H 427.692 -1.37867 -0.512936 0
M  V30 4482 H 429.65 -2.28501 -3.49061 0
M  V30 4483 H 428.28 -1.27075 -2.96735 0
M  V30 4484 H 427.332 -3.37029 -1.76397 0
M  V30 4485 H 428.644 -4.31328 -2.50515 0
M  V30 4486 H 427.798 -3.72751 -4.78687 0
M  V30 4487 H 426.537 -2.68337 -4.07243 0
M  V30 4488 H 425.542 -4.66932 -2.90266 0
M  V30 4489 H 426.767 -5.72765 -3.64852 0
M  V30 4490 H 424.713 -4.06139 -5.15158 0
M  V30 4491 H 424.63 -5.77156 -4.8829 0
M  V30 4492 H 425.898 -5.12003 -5.8777 0
M  V30 4493 N 430.127 0.543554 -1.4793 0
M  V30 4494 C 431.09 1.63156 -1.60975 0
M  V30 4495 C 432.09 1.53346 -0.483899 0
M  V30 4496 O 433.28 1.5726 -0.749339 0
M  V30 4497 C 430.412 3.02743 -1.56716 0
M  V30 4498 H 431.605 1.52934 -2.57975 0
M  V30 4499 H 429.158 0.764557 -1.36324 0
M  V30 4500 H 429.893 3.18484 -0.611418 0
M  V30 4501 H 429.678 3.11272 -2.38438 0
M  V30 4502 H 431.168 3.81871 -1.6901 0
M  V30 4503 N 431.605 1.3629 0.791371 0
M  V30 4504 C 432.515 1.32606 1.93527 0
M  V30 4505 C 433.531 0.228541 1.72493 0
M  V30 4506 O 434.707 0.460571 1.96063 0
M  V30 4507 C 431.772 1.11271 3.28359 0
M  V30 4508 C 430.833 2.3048 3.62185 0
M  V30 4509 C 430.066 2.10154 4.90583 0
M  V30 4510 O 430.289 1.07572 5.60165 0
M  V30 4511 O 429.223 2.97884 5.23019 0
M  V30 4512 H 433.049 2.28909 1.99585 0
M  V30 4513 H 430.634 1.16818 0.931344 0
M  V30 4514 H 432.516 1.01283 4.09047 0
M  V30 4515 H 431.191 0.180292 3.23198 0
M  V30 4516 H 430.098 2.46036 2.81811 0
M  V30 4517 H 431.431 3.22221 3.72068 0
M  V30 4518 N 433.083 -1.0153 1.20538 0
M  V30 4519 C 434.046 -2.0826 0.957098 0
M  V30 4520 C 435.046 -1.60657 -0.0678655 0
M  V30 4521 O 436.236 -1.73385 0.168332 0
M  V30 4522 C 433.368 -3.38033 0.441188 0
M  V30 4523 H 434.561 -2.31719 1.90384 0
M  V30 4524 H 432.114 -1.1835 1.02093 0
M  V30 4525 H 432.849 -3.20249 -0.510961 0
M  V30 4526 H 432.634 -3.73911 1.18038 0
M  V30 4527 H 434.124 -4.16613 0.287009 0
M  V30 4528 N 434.561 -1.01147 -1.20859 0
M  V30 4529 C 435.809 -0.696486 -1.89719 0
M  V30 4530 C 436.13 0.775788 -1.78904 0
M  V30 4531 O 435.4 1.55759 -1.18811 0
M  V30 4532 H 433.98 -0.254628 -0.702263 0
M  V30 4533 H 436.642 -1.28197 -1.46804 0
M  V30 4534 H 435.738 -0.975357 -2.96468 0
M  V30 4535 N 436.039 1.36541 -0.78704 0
M  V30 4536 C 437.002 2.28413 -0.189778 0
M  V30 4537 C 438.002 1.48719 0.611499 0
M  V30 4538 O 439.192 1.68737 0.432842 0
M  V30 4539 C 436.324 3.32824 0.737638 0
M  V30 4540 H 437.517 2.82743 -0.999831 0
M  V30 4541 H 435.07 1.46065 -0.556298 0
M  V30 4542 H 435.805 2.83646 1.57212 0
M  V30 4543 H 435.59 3.91752 0.165044 0
M  V30 4544 H 437.08 4.0144 1.15047 0
M  V30 4545 N 437.518 0.538854 1.48102 0
M  V30 4546 C 438.428 -0.222648 2.33541 0
M  V30 4547 C 439.444 -0.930225 1.47047 0
M  V30 4548 O 440.62 -0.903211 1.80011 0
M  V30 4549 C 437.685 -1.25064 3.23357 0
M  V30 4550 C 436.746 -0.552469 4.2573 0
M  V30 4551 C 435.979 -1.53149 5.11254 0
M  V30 4552 O 436.202 -2.76487 4.9891 0
M  V30 4553 O 435.136 -1.06602 5.92385 0
M  V30 4554 H 438.962 0.477707 2.99919 0
M  V30 4555 H 436.547 0.299669 1.46364 0
M  V30 4556 H 438.429 -1.8445 3.78888 0
M  V30 4557 H 437.104 -1.93325 2.59629 0
M  V30 4558 H 436.011 0.082114 3.7401 0
M  V30 4559 H 437.344 0.0883526 4.92121 0
M  V30 4560 N 438.996 -1.55193 0.274407 0
M  V30 4561 C 439.959 -2.212 -0.600279 0
M  V30 4562 C 440.959 -1.18963 -1.08187 0
M  V30 4563 O 442.149 -1.43873 -0.982158 0
M  V30 4564 C 439.281 -2.87739 -1.82809 0
M  V30 4565 H 440.474 -2.9989 -0.0239682 0
M  V30 4566 H 438.027 -1.5628 0.0250192 0
M  V30 4567 H 438.762 -2.13058 -2.44493 0
M  V30 4568 H 438.547 -3.62658 -1.49069 0
M  V30 4569 H 440.037 -3.38171 -2.45011 0
M  V30 4570 N 440.474 -0.00167713 -1.576 0
M  V30 4571 C 441.722 0.681471 -1.90264 0
M  V30 4572 C 442.043 1.7422 -0.875924 0
M  V30 4573 O 441.313 1.95709 0.0864412 0
M  V30 4574 H 439.893 0.254696 -0.702239 0
M  V30 4575 H 442.555 -0.0429996 -1.94853 0
M  V30 4576 H 441.651 1.15166 -2.90075 0
M  V30 4577 N 441.952 1.55251 0.271103 0
M  V30 4578 C 443.2 1.75599 1.00047 0
M  V30 4579 C 443.521 0.561188 1.8675 0
M  V30 4580 O 442.791 -0.423846 1.9126 0
M  V30 4581 H 441.371 0.647562 0.372387 0
M  V30 4582 H 444.033 1.92656 0.294876 0
M  V30 4583 H 443.129 2.65766 1.6363 0
M  V30 4584 N 443.43 -0.535701 1.48216 0
M  V30 4585 C 444.678 -1.28928 1.55634 0
M  V30 4586 C 444.999 -1.93645 0.229514 0
M  V30 4587 O 444.269 -1.81038 -0.74846 0
M  V30 4588 H 442.849 -0.47884 0.573342 0
M  V30 4589 H 445.511 -0.623853 1.84646 0
M  V30 4590 H 444.607 -2.07157 2.33436 0
M  V30 4591 N 444.908 -1.36708 -0.784132 0
M  V30 4592 C 445.871 -1.31307 -1.87859 0
M  V30 4593 C 446.871 -0.219654 -1.59293 0
M  V30 4594 O 448.061 -0.47476 -1.67606 0
M  V30 4595 C 445.193 -1.03679 -3.24751 0
M  V30 4596 H 446.386 -2.28647 -1.94064 0
M  V30 4597 H 443.939 -1.21558 -0.98252 0
M  V30 4598 H 444.674 -0.0681936 -3.24228 0
M  V30 4599 H 444.459 -1.82811 -3.46876 0
M  V30 4600 H 445.949 -1.02518 -4.04821 0
M  V30 4601 N 446.386 1.0089 -1.21074 0
M  V30 4602 C 447.634 1.74262 -1.02358 0
M  V30 4603 C 447.955 1.89869 0.444393 0
M  V30 4604 O 447.225 1.44677 1.32081 0
M  V30 4605 H 445.805 0.645615 -0.375754 0
M  V30 4606 H 448.467 1.21596 -1.52317 0
M  V30 4607 H 447.563 2.74328 -1.4883 0
M  V30 4608 N 447.864 1.01787 1.20321 0
M  V30 4609 C 449.275 0.739307 1.71438 0
M  V30 4610 C 449.626 -0.742041 1.81627 0
M  V30 4611 O 448.751 -1.57903 1.47971 0
M  V30 4612 C 449.346 1.33538 3.11373 0
M  V30 4613 C 447.905 1.10566 3.59795 0
M  V30 4614 C 447.052 1.44028 2.36962 0
M  V30 4615 H 450.003 1.18718 1.05317 0
M  V30 4616 H 450.024 0.726611 3.73498 0
M  V30 4617 H 449.536 2.41352 3.03926 0
M  V30 4618 H 447.637 0.0452405 3.72573 0
M  V30 4619 H 447.75 1.78661 4.44542 0
M  V30 4620 H 446.114 0.85933 2.39766 0
M  V30 4621 H 446.897 2.52901 2.32155 0
M  V30 4622 N 449.342 -1.36122 0.79427 0
M  V30 4623 C 450.59 -1.98718 0.368177 0
M  V30 4624 C 450.911 -1.63345 -1.06506 0
M  V30 4625 O 450.181 -0.909825 -1.73491 0
M  V30 4626 H 448.761 -0.735038 0.133146 0
M  V30 4627 H 451.423 -1.66239 1.01739 0
M  V30 4628 H 450.519 -3.08633 0.463923 0
M  V30 4629 N 450.82 -0.546701 -1.47814 0
M  V30 4630 C 451.783 0.196287 -2.28358 0
M  V30 4631 C 452.783 0.852437 -1.36346 0
M  V30 4632 O 453.973 0.709913 -1.59078 0
M  V30 4633 C 451.105 1.28579 -3.15722 0
M  V30 4634 H 452.298 -0.511086 -2.95513 0
M  V30 4635 H 449.851 -0.303248 -1.5333 0
M  V30 4636 H 450.586 2.0259 -2.53235 0
M  V30 4637 H 450.371 0.820229 -3.83425 0
M  V30 4638 H 451.861 1.80793 -3.76435 0
M  V30 4639 N 452.299 1.55045 -0.282633 0
M  V30 4640 C 453.209 2.26491 0.61147 0
M  V30 4641 C 454.225 1.29348 1.16384 0
M  V30 4642 O 455.401 1.62298 1.19253 0
M  V30 4643 C 452.466 2.97779 1.77563 0
M  V30 4644 C 451.527 4.10418 1.25919 0
M  V30 4645 C 450.76 4.78297 2.36786 0
M  V30 4646 O 450.983 4.45426 3.56303 0
M  V30 4647 O 449.917 5.66089 2.04517 0
M  V30 4648 H 453.743 3.03683 0.0324615 0
M  V30 4649 H 451.328 1.49317 -0.0497576 0
M  V30 4650 H 453.21 3.42554 2.45427 0
M  V30 4651 H 451.885 2.23498 2.34159 0
M  V30 4652 H 450.792 3.70082 0.546797 0
M  V30 4653 H 452.125 4.86622 0.738887 0
M  V30 4654 N 453.777 0.010035 1.57597 0
M  V30 4655 C 455.054 -0.710296 1.82248 0
M  V30 4656 C 455.434 -1.91426 0.889911 0
M  V30 4657 O 454.782 -2.28424 -0.0590292 0
M  V30 4658 C 454.992 -1.10655 3.30993 0
M  V30 4659 C 456.34 -1.50621 3.96987 0
M  V30 4660 O 457.364 -1.20007 3.35375 0
M  V30 4661 O 456.223 -2.07587 5.05539 0
M  V30 4662 H 453.317 -0.34673 0.750804 0
M  V30 4663 H 455.863 0.0362578 1.69661 0
M  V30 4664 H 454.635 -0.248826 3.90508 0
M  V30 4665 H 454.258 -1.91189 3.48615 0
M  V30 4666 N 455.255 -1.55392 -0.262866 0
M  V30 4667 C 456.165 -1.92077 -1.34698 0
M  V30 4668 C 457.181 -0.819227 -1.53508 0
M  V30 4669 O 458.357 -1.11921 -1.67439 0
M  V30 4670 C 455.422 -2.19407 -2.68443 0
M  V30 4671 C 454.483 -3.42905 -2.58292 0
M  V30 4672 C 453.716 -3.68921 -3.85659 0
M  V30 4673 O 453.939 -2.97275 -4.8681 0
M  V30 4674 O 452.873 -4.62455 -3.85252 0
M  V30 4675 H 456.699 -2.84384 -1.06581 0
M  V30 4676 H 454.284 -1.42069 -0.462264 0
M  V30 4677 H 456.166 -2.38365 -3.47506 0
M  V30 4678 H 454.841 -1.30282 -2.96325 0
M  V30 4679 H 453.748 -3.29272 -1.7757 0
M  V30 4680 H 455.081 -4.32282 -2.35358 0
M  V30 4681 N 456.733 0.527833 -1.48498 0
M  V30 4682 C 457.696 1.61439 -1.62696 0
M  V30 4683 C 458.696 1.52824 -0.500136 0
M  V30 4684 O 459.886 1.56456 -0.765976 0
M  V30 4685 C 457.018 3.01063 -1.59918 0
M  V30 4686 H 458.211 1.50189 -2.59583 0
M  V30 4687 H 455.764 0.750055 -1.37127 0
M  V30 4688 H 456.499 3.17818 -0.645163 0
M  V30 4689 H 456.284 3.08725 -2.41726 0
M  V30 4690 H 457.774 3.80057 -1.73051 0
M  V30 4691 N 458.211 1.37122 0.776871 0
M  V30 4692 C 459.459 1.31787 1.53221 0
M  V30 4693 C 459.78 -0.0987589 1.9475 0
M  V30 4694 O 459.05 -1.0417 1.65908 0
M  V30 4695 H 457.63 0.484839 0.568278 0
M  V30 4696 H 460.292 1.71556 0.924917 0
M  V30 4697 H 459.388 1.95355 2.43398 0
M  V30 4698 N 459.689 -1.00246 1.21608 0
M  V30 4699 C 461.105 -1.26435 0.973975 0
M  V30 4700 C 461.305 -1.98642 -0.338143 0
M  V30 4701 O 460.361 -2.29026 -1.06317 0
M  V30 4702 C 461.674 -2.08551 2.16626 0
M  V30 4703 C 463.222 -2.21769 2.20879 0
M  V30 4704 C 463.697 -3.07267 3.39633 0
M  V30 4705 N 465.188 -3.14855 3.39736 0
M  V30 4706 C 465.923 -3.81274 4.28273 0
M  V30 4707 N 465.419 -4.497 5.27012 0
M  V30 4708 N 467.212 -3.7794 4.16074 0
M  V30 4709 H 459.363 -0.518089 2.05984 0
M  V30 4710 H 461.626 -0.291368 0.902113 0
M  V30 4711 H 461.332 -1.62847 3.11727 0
M  V30 4712 H 461.206 -3.09303 2.15897 0
M  V30 4713 H 463.593 -2.66691 1.26332 0
M  V30 4714 H 463.674 -1.20478 2.25652 0
M  V30 4715 H 463.318 -2.63047 4.34475 0
M  V30 4716 H 463.248 -4.08678 3.321 0
M  V30 4717 H 465.739 -2.66147 2.6828 0
M  V30 4718 H 466.052 -4.98092 5.90867 0
M  V30 4719 H 464.397 -4.48479 5.30935 0
M  V30 4720 H 467.588 -3.23638 3.38195 0
M  V30 4721 H 467.761 -4.29424 4.85282 0
M  V30 4722 N 461.167 -1.02423 -1.1978 0
M  V30 4723 C 462.415 -0.716569 -1.8897 0
M  V30 4724 C 462.736 0.756769 -1.79716 0
M  V30 4725 O 462.006 1.5449 -1.20456 0
M  V30 4726 H 460.586 -0.262062 -0.699523 0
M  V30 4727 H 463.248 -1.29747 -1.45436 0
M  V30 4728 H 462.344 -1.00675 -2.95417 0
M  V30 4729 N 462.645 1.35699 -0.801477 0
M  V30 4730 C 463.608 2.28199 -0.213994 0
M  V30 4731 C 464.608 1.49359 0.595691 0
M  V30 4732 O 465.798 1.69186 0.414921 0
M  V30 4733 C 462.93 3.33587 0.702297 0
M  V30 4734 H 464.123 2.81666 -1.02976 0
M  V30 4735 H 461.676 1.45467 -0.571759 0
M  V30 4736 H 462.411 2.85297 1.54195 0
M  V30 4737 H 462.196 3.91906 0.123484 0
M  V30 4738 H 463.686 4.02638 1.10783 0
M  V30 4739 N 464.123 0.554532 1.47522 0
M  V30 4740 C 465.369 0.0295227 2.02779 0
M  V30 4741 C 465.702 -1.31582 1.42828 0
M  V30 4742 O 464.977 -1.85561 0.582872 0
M  V30 4743 C 465.26 -0.0664057 3.60039 0
M  V30 4744 C 465.113 1.30585 4.30427 0
M  V30 4745 C 466.432 -0.781162 4.33112 0
M  V30 4746 H 463.551 0.0122027 0.736899 0
M  V30 4747 H 466.193 0.716305 1.7598 0
M  V30 4748 H 464.343 -0.651307 3.83002 0
M  V30 4749 H 466.015 1.93374 4.18813 0
M  V30 4750 H 464.258 1.88125 3.90886 0
M  V30 4751 H 464.929 1.19147 5.38988 0
M  V30 4752 H 467.405 -0.284565 4.15126 0
M  V30 4753 H 466.281 -0.817237 5.42782 0
M  V30 4754 H 466.542 -1.83672 4.0214 0
M  V30 4755 N 465.601 -1.54893 0.290851 0
M  V30 4756 C 466.849 -1.99538 -0.320756 0
M  V30 4757 C 467.17 -1.18075 -1.55188 0
M  V30 4758 O 466.44 -0.274162 -1.93972 0
M  V30 4759 H 465.02 -0.737052 -0.121507 0
M  V30 4760 H 467.682 -1.90755 0.399832 0
M  V30 4761 H 466.778 -3.06282 -0.599802 0
M  V30 4762 N 467.08 -0.0183926 -1.57589 0
M  V30 4763 C 468.357 0.700621 -1.82622 0
M  V30 4764 C 468.737 1.90951 -0.90005 0
M  V30 4765 O 468.085 2.28452 0.0469145 0
M  V30 4766 C 468.295 1.08899 -3.31575 0
M  V30 4767 C 469.643 1.48514 -3.9778 0
M  V30 4768 O 470.667 1.18227 -3.36007 0
M  V30 4769 O 469.526 2.04903 -5.06633 0
M  V30 4770 H 466.62 0.342743 -0.752633 0
M  V30 4771 H 469.166 -0.0452548 -1.6964 0
M  V30 4772 H 467.938 0.228113 -3.90635 0
M  V30 4773 H 467.561 1.89338 -3.49624 0
M  V30 4774 N 468.558 1.5553 0.254621 0
M  V30 4775 C 469.969 1.67518 0.824286 0
M  V30 4776 C 470.32 0.614429 1.86331 0
M  V30 4777 O 469.445 -0.240736 2.15057 0
M  V30 4778 C 470.04 3.03692 1.50189 0
M  V30 4779 C 468.599 3.17646 2.01935 0
M  V30 4780 C 467.746 2.63373 0.867746 0
M  V30 4781 H 470.697 1.58671 0.0305843 0
M  V30 4782 H 470.718 2.97706 2.36962 0
M  V30 4783 H 470.23 3.80874 0.745431 0
M  V30 4784 H 468.331 2.45273 2.80485 0
M  V30 4785 H 468.444 4.24455 2.22204 0
M  V30 4786 H 466.808 2.20999 1.26616 0
M  V30 4787 H 467.591 3.43074 0.124498 0
M  V30 4788 N 470.036 -0.519951 1.48776 0
M  V30 4789 C 470.946 -1.65025 1.66745 0
M  V30 4790 C 471.962 -1.6508 0.549954 0
M  V30 4791 O 473.138 -1.83848 0.822295 0
M  V30 4792 C 470.203 -3.0146 1.71238 0
M  V30 4793 C 469.264 -3.12182 2.94688 0
M  V30 4794 C 468.497 -4.42109 2.98958 0
M  V30 4795 O 468.72 -5.29799 2.1135 0
M  V30 4796 O 467.654 -4.57406 3.91233 0
M  V30 4797 H 471.48 -1.52801 2.62461 0
M  V30 4798 H 469.065 -0.694157 1.32294 0
M  V30 4799 H 470.947 -3.82584 1.76657 0
M  V30 4800 H 469.622 -3.13988 0.786975 0
M  V30 4801 H 468.529 -2.30316 2.94797 0
M  V30 4802 H 469.862 -3.04574 3.86646 0
M  V30 4803 N 471.514 -1.37532 -0.769588 0
M  V30 4804 C 472.444 -1.36172 -1.89682 0
M  V30 4805 C 473.425 -0.23001 -1.68538 0
M  V30 4806 O 474.61 -0.43069 -1.89364 0
M  V30 4807 C 471.74 -1.1701 -3.26995 0
M  V30 4808 C 470.694 -2.27216 -3.62708 0
M  V30 4809 C 470.02 -1.93174 -4.98586 0
M  V30 4810 C 471.32 -3.6941 -3.69234 0
M  V30 4811 H 473.014 -2.30499 -1.91078 0
M  V30 4812 H 470.56 -1.10953 -0.917902 0
M  V30 4813 H 472.513 -1.14688 -4.05493 0
M  V30 4814 H 471.237 -0.191395 -3.26039 0
M  V30 4815 H 469.896 -2.28697 -2.86519 0
M  V30 4816 H 469.544 -0.938281 -4.94171 0
M  V30 4817 H 469.244 -2.66973 -5.23449 0
M  V30 4818 H 470.768 -1.92443 -5.79481 0
M  V30 4819 H 472.182 -3.70047 -4.37879 0
M  V30 4820 H 470.579 -4.4228 -4.05597 0
M  V30 4821 H 471.649 -4.0288 -2.69844 0
M  V30 4822 N 472.992 0.995999 -1.22138 0
M  V30 4823 C 474.24 1.73167 -1.042 0
M  V30 4824 C 474.561 1.90329 0.42423 0
M  V30 4825 O 473.831 1.4607 1.30539 0
M  V30 4826 H 472.411 0.641593 -0.38258 0
M  V30 4827 H 475.073 1.19974 -1.53598 0
M  V30 4828 H 474.169 2.72734 -1.51731 0
M  V30 4829 N 474.47 1.03057 1.19235 0
M  V30 4830 C 475.747 0.642608 1.84743 0
M  V30 4831 C 476.127 -0.878577 1.91948 0
M  V30 4832 O 475.475 -1.77597 1.43776 0
M  V30 4833 C 475.685 1.30665 3.23616 0
M  V30 4834 C 477.033 1.43098 3.9976 0
M  V30 4835 O 478.057 1.26396 3.3302 0
M  V30 4836 O 476.916 1.70223 5.19313 0
M  V30 4837 H 474.01 0.223573 0.796206 0
M  V30 4838 H 476.556 1.12883 1.26711 0
M  V30 4839 H 475.328 2.34544 3.13217 0
M  V30 4840 H 474.951 0.808405 3.89295 0
M  V30 4841 N 475.948 -1.35272 0.808662 0
M  V30 4842 C 477.359 -1.81179 0.450688 0
M  V30 4843 C 477.71 -1.67143 -1.02751 0
M  V30 4844 O 476.835 -1.20325 -1.79864 0
M  V30 4845 C 477.43 -3.28943 0.811275 0
M  V30 4846 C 475.989 -3.72985 0.505871 0
M  V30 4847 C 475.136 -2.57229 1.03578 0
M  V30 4848 H 478.087 -1.2322 1.00012 0
M  V30 4849 H 478.108 -3.80342 0.109588 0
M  V30 4850 H 477.62 -3.39127 1.88718 0
M  V30 4851 H 475.721 -3.68349 -0.561209 0
M  V30 4852 H 475.834 -4.67677 1.03995 0
M  V30 4853 H 474.198 -2.50548 0.458005 0
M  V30 4854 H 474.981 -2.7019 2.11784 0
M  V30 4855 N 477.426 -0.562348 -1.47226 0
M  V30 4856 C 478.837 -0.130325 -1.86245 0
M  V30 4857 C 479.188 1.30128 -1.46838 0
M  V30 4858 O 478.313 1.97974 -0.873805 0
M  V30 4859 C 478.908 -0.229738 -3.3802 0
M  V30 4860 C 477.467 0.14728 -3.76112 0
M  V30 4861 C 476.614 -0.574971 -2.71274 0
M  V30 4862 H 479.565 -0.771773 -1.3867 0
M  V30 4863 H 479.586 0.550316 -3.76499 0
M  V30 4864 H 479.098 -1.27178 -3.66671 0
M  V30 4865 H 477.199 1.19023 -3.53078 0
M  V30 4866 H 477.312 -0.214858 -4.78618 0
M  V30 4867 H 475.676 -0.0174756 -2.54694 0
M  V30 4868 H 476.459 -1.61827 -3.02766 0
M  V30 4869 N 478.904 1.54736 -0.299062 0
M  V30 4870 C 479.867 2.22127 0.565012 0
M  V30 4871 C 480.867 1.20669 1.06281 0
M  V30 4872 O 482.057 1.45417 0.959145 0
M  V30 4873 C 479.189 2.90611 1.78208 0
M  V30 4874 H 480.382 2.99891 -0.0237448 0
M  V30 4875 H 477.935 1.5622 -0.0498788 0
M  V30 4876 H 478.67 2.16921 2.41072 0
M  V30 4877 H 478.455 3.64984 1.43281 0
M  V30 4878 H 479.945 3.42026 2.396 0
M  V30 4879 N 480.382 0.0267497 1.57577 0
M  V30 4880 C 481.345 -0.940916 2.08996 0
M  V30 4881 C 482.345 -1.25561 1.00455 0
M  V30 4882 O 483.535 -1.19634 1.26623 0
M  V30 4883 C 480.667 -2.25814 2.55384 0
M  V30 4884 H 481.86 -0.495628 2.95776 0
M  V30 4885 H 479.413 -0.221241 1.54726 0
M  V30 4886 H 480.148 -2.74976 1.71926 0
M  V30 4887 H 479.933 -2.04285 3.34679 0
M  V30 4888 H 481.423 -2.95178 2.95398 0
M  V30 4889 N 481.861 -1.55662 -0.24637 0
M  V30 4890 C 483.272 -1.67953 -0.81539 0
M  V30 4891 C 483.623 -0.624302 -1.86002 0
M  V30 4892 O 482.748 0.229328 -2.15181 0
M  V30 4893 C 483.343 -3.04484 -1.48576 0
M  V30 4894 C 481.902 -3.18713 -2.00248 0
M  V30 4895 C 481.049 -2.6383 -0.853766 0
M  V30 4896 H 484 -1.58685 -0.0221692 0
M  V30 4897 H 484.021 -2.98959 -2.3538 0
M  V30 4898 H 483.533 -3.81264 -0.725222 0
M  V30 4899 H 481.634 -2.46757 -2.79181 0
M  V30 4900 H 481.747 -4.25628 -2.1995 0
M  V30 4901 H 480.111 -2.21667 -1.25442 0
M  V30 4902 H 480.894 -3.43135 -0.106302 0
M  V30 4903 N 483.339 0.512053 -1.4905 0
M  V30 4904 C 484.271 1.63121 -1.6101 0
M  V30 4905 C 485.284 1.55145 -0.493352 0
M  V30 4906 O 486.473 1.61278 -0.764955 0
M  V30 4907 C 483.573 3.01863 -1.54052 0
M  V30 4908 C 482.746 3.35138 -2.81072 0
M  V30 4909 C 481.805 4.5324 -2.67319 0
M  V30 4910 O 480.831 4.55571 -3.41238 0
M  V30 4911 N 482.033 5.52495 -1.78127 0
M  V30 4912 H 484.798 1.53292 -2.5753 0
M  V30 4913 H 482.359 0.699706 -1.45999 0
M  V30 4914 H 484.351 3.78774 -1.42521 0
M  V30 4915 H 482.921 3.05675 -0.654345 0
M  V30 4916 H 482.141 2.4723 -3.07036 0
M  V30 4917 H 483.429 3.54162 -3.65304 0
M  V30 4918 H 482.827 5.53403 -1.17308 0
M  V30 4919 H 481.384 6.28553 -1.72525 0
M  V30 4920 O 484.856 1.47522 0.657231 0
M  V30 4921 H 485.547 1.42634 1.31055 0
M  V30 END ATOM
M  V30 BEGIN BOND
M  V30 END BOND
M  V30 END CTAB
M  END
$$$$
