drugbank_target|Q9WY54 Aminomethyltransferase (DB03256; DB03760)
 OpenBabel12092119583D

  0  0  0     0  0            999 V3000
M  V30 BEGIN CTAB
M  V30 COUNTS 5718 5769 0 0 0
M  V30 BEGIN ATOM
M  V30 1 H -0.908 1.98254 -0.117106 0
M  V30 2 N 0 1.576 0 0
M  V30 3 C 0.933 2.03868 1.02534 0
M  V30 4 C 1.911 0.928543 1.3348 0
M  V30 5 O 3.095 1.19667 1.45644 0
M  V30 6 C 0.222 2.43627 2.35294 0
M  V30 7 C -0.732 3.65373 2.2001 0
M  V30 8 S 0.101 5.13292 1.52614 0
M  V30 9 C 1.257 5.56322 2.86805 0
M  V30 10 H 1.49 2.90518 0.631377 0
M  V30 11 H -0.977 1.52953 0.210867 0
M  V30 12 H 0.981 2.67203 3.11629 0
M  V30 13 H -0.358 1.57376 2.7183 0
M  V30 14 H -1.165 3.90944 3.18086 0
M  V30 15 H -1.563 3.418 1.51819 0
M  V30 16 H 0.729 5.58782 3.83104 0
M  V30 17 H 1.672 6.56266 2.65933 0
M  V30 18 H 2.08 4.83886 2.90714 0
M  V30 19 N 1.4781 -0.272755 1.55222 0
M  V30 20 C 2.4251 -1.33716 1.88119 0
M  V30 21 C 3.3951 -1.49066 0.73271 0
M  V30 22 O 4.5801 -1.63469 0.984002 0
M  V30 23 C 1.7201 -2.69238 2.15882 0
M  V30 24 C 0.8331 -2.62108 3.43399 0
M  V30 25 C -0.0319 -3.89811 3.60861 0
M  V30 26 C -0.9929 -3.77193 4.8207 0
M  V30 27 N -1.8559 -4.9673 4.96189 0
M  V30 28 H 2.9841 -1.04962 2.78903 0
M  V30 29 H 0.5211 -0.507088 1.38083 0
M  V30 30 H 2.4791 -3.48089 2.29978 0
M  V30 31 H 1.1091 -2.96194 1.28331 0
M  V30 32 H 0.1611 -1.74967 3.37773 0
M  V30 33 H 1.4731 -2.48685 4.32386 0
M  V30 34 H 0.6271 -4.77103 3.74777 0
M  V30 35 H -0.6339 -4.06102 2.7006 0
M  V30 36 H -1.6289 -2.88284 4.68159 0
M  V30 37 H -0.4039 -3.62421 5.74307 0
M  V30 38 H -2.4579 -5.13431 4.08319 0
M  V30 39 H -2.5409 -4.85839 5.79221 0
M  V30 40 H -1.2729 -5.85594 5.1449 0
M  V30 41 N 2.9562 -1.48159 -0.537278 0
M  V30 42 C 4.3722 -1.34118 -0.865129 0
M  V30 43 C 4.5722 -0.346678 -1.98495 0
M  V30 44 O 3.6282 0.234715 -2.51407 0
M  V30 45 C 4.9412 -2.73963 -1.23954 0
M  V30 46 C 6.4892 -2.82397 -1.34984 0
M  V30 47 C 6.9642 -4.22928 -1.75772 0
M  V30 48 N 8.4552 -4.25566 -1.82887 0
M  V30 49 C 9.1902 -5.31235 -2.15817 0
M  V30 50 N 8.6862 -6.47189 -2.47222 0
M  V30 51 N 10.4792 -5.18624 -2.16761 0
M  V30 52 H 2.6302 -2.1144 0.201715 0
M  V30 53 H 4.8932 -0.947598 0.0275949 0
M  V30 54 H 4.5992 -3.48264 -0.490381 0
M  V30 55 H 4.4732 -3.0702 -2.19132 0
M  V30 56 H 6.8602 -2.08356 -2.08978 0
M  V30 57 H 6.9412 -2.5297 -0.379448 0
M  V30 58 H 6.5852 -4.97482 -1.02341 0
M  V30 59 H 6.5152 -4.49794 -2.73848 0
M  V30 60 H 9.0062 -3.41924 -1.60924 0
M  V30 61 H 9.3192 -7.23564 -2.71433 0
M  V30 62 H 7.6642 -6.50476 -2.44757 0
M  V30 63 H 10.8552 -4.27056 -1.91679 0
M  V30 64 H 11.0282 -6.01078 -2.42093 0
M  V30 65 N 4.4343 0.785586 -1.36625 0
M  V30 66 C 5.6623 1.57448 -1.3423 0
M  V30 67 C 6.0773 1.88649 0.0755653 0
M  V30 68 O 5.4343 1.50414 1.03354 0
M  V30 69 C 5.4853 2.89316 -2.16745 0
M  V30 70 O 5.2063 2.59459 -3.53005 0
M  V30 71 C 6.7073 3.83606 -2.22174 0
M  V30 72 H 3.9273 0.488226 -0.4603 0
M  V30 73 H 6.4713 0.974733 -1.79775 0
M  V30 74 H 4.6263 3.4575 -1.74745 0
M  V30 75 H 5.0403 3.43804 -3.96105 0
M  V30 76 H 6.5143 4.73181 -2.8426 0
M  V30 77 H 6.9913 4.21734 -1.22627 0
M  V30 78 H 7.5973 3.33104 -2.64427 0
M  V30 79 N 5.9124 1.20967 1.01018 0
M  V30 80 C 7.3234 1.02319 1.56165 0
M  V30 81 C 7.6744 -0.418546 1.91684 0
M  V30 82 O 6.7994 -1.30096 1.72928 0
M  V30 83 C 7.3944 1.85109 2.8376 0
M  V30 84 C 5.9534 1.70809 3.35412 0
M  V30 85 C 5.1004 1.82643 2.08655 0
M  V30 86 H 8.0514 1.35065 0.833255 0
M  V30 87 H 8.0724 1.35827 3.55431 0
M  V30 88 H 7.5844 2.90035 2.57878 0
M  V30 89 H 5.6854 0.685464 3.66241 0
M  V30 90 H 5.7984 2.52467 4.07182 0
M  V30 91 H 4.1624 1.25896 2.21409 0
M  V30 92 H 4.9454 2.89066 1.85191 0
M  V30 93 N 7.3905 -1.2043 1.01659 0
M  V30 94 C 8.3205 -2.25466 0.607226 0
M  V30 95 C 9.3015 -1.65853 -0.377716 0
M  V30 96 O 10.4865 -1.92409 -0.263149 0
M  V30 97 C 7.6165 -3.47256 -0.0552949 0
M  V30 98 C 6.5705 -4.19462 0.850632 0
M  V30 99 C 5.8965 -5.34673 0.0538859 0
M  V30 100 C 7.1965 -4.75603 2.15868 0
M  V30 101 H 8.8905 -2.59962 1.48526 0
M  V30 102 H 6.4365 -1.2496 0.715605 0
M  V30 103 H 8.3895 -4.19917 -0.353233 0
M  V30 104 H 7.1135 -3.11924 -0.968045 0
M  V30 105 H 5.7725 -3.48667 1.13257 0
M  V30 106 H 5.4205 -4.95585 -0.860514 0
M  V30 107 H 5.1205 -5.83913 0.657192 0
M  V30 108 H 6.6445 -6.10138 -0.237598 0
M  V30 109 H 8.0585 -5.40083 1.92311 0
M  V30 110 H 6.4555 -5.3528 2.71284 0
M  V30 111 H 7.5255 -3.94346 2.82169 0
M  V30 112 N 8.8686 -0.792821 -1.36206 0
M  V30 113 C 10.1156 -0.366786 -1.99151 0
M  V30 114 C 10.4436 1.06243 -1.62919 0
M  V30 115 O 9.6986 1.74927 -0.877442 0
M  V30 116 C 9.9976 -0.481501 -3.54142 0
M  V30 117 C 9.6636 -1.87202 -4.10203 0
M  V30 118 C 8.3256 -2.25248 -4.25226 0
M  V30 119 C 10.6776 -2.78237 -4.40719 0
M  V30 120 C 8.0056 -3.53723 -4.68078 0
M  V30 121 C 10.3576 -4.06144 -4.85005 0
M  V30 122 C 9.0216 -4.44207 -4.98234 0
M  V30 123 H 8.2916 -0.134217 -0.728743 0
M  V30 124 H 10.9386 -1.01094 -1.62641 0
M  V30 125 H 9.2436 0.246146 -3.91026 0
M  V30 126 H 10.9406 -0.132844 -4.0078 0
M  V30 127 H 7.5306 -1.56639 -3.98951 0
M  V30 128 H 11.7146 -2.50097 -4.28679 0
M  V30 129 H 6.9706 -3.8308 -4.76508 0
M  V30 130 H 11.1446 -4.76796 -5.07581 0
M  V30 131 H 8.7716 -5.43814 -5.31197 0
M  V30 132 N 10.3467 1.47872 -0.545128 0
M  V30 133 C 11.2567 2.33633 0.212746 0
M  V30 134 C 12.2727 1.4744 0.923983 0
M  V30 135 O 13.4487 1.80393 0.895572 0
M  V30 136 C 10.5137 3.23884 1.23693 0
M  V30 137 C 9.5747 4.25961 0.534417 0
M  V30 138 C 8.8077 5.11899 1.5098 0
M  V30 139 O 9.0307 5.00077 2.7437 0
M  V30 140 O 7.9647 5.92831 1.0409 0
M  V30 141 H 11.7907 2.99714 -0.490416 0
M  V30 142 H 9.3757 1.46235 -0.305871 0
M  V30 143 H 11.2577 3.79666 1.82843 0
M  V30 144 H 9.9327 2.60446 1.92222 0
M  V30 145 H 8.8397 3.73972 -0.0979679 0
M  V30 146 H 10.1727 4.92079 -0.109213 0
M  V30 147 N 11.8248 0.280983 1.55075 0
M  V30 148 C 12.7718 -0.603937 2.22758 0
M  V30 149 C 13.7418 -1.1452 1.20309 0
M  V30 150 O 14.9268 -1.19343 1.48869 0
M  V30 151 C 12.0668 -1.77947 2.95684 0
M  V30 152 C 11.1798 -1.2715 4.12864 0
M  V30 153 C 10.3148 -2.4093 4.7342 0
M  V30 154 C 9.3538 -1.87165 5.82783 0
M  V30 155 N 8.4908 -2.94441 6.37377 0
M  V30 156 H 13.3308 -0.020124 2.97993 0
M  V30 157 H 10.8678 0.00183425 1.471 0
M  V30 158 H 12.8258 -2.47055 3.36184 0
M  V30 159 H 11.4558 -2.33522 2.22861 0
M  V30 160 H 10.5078 -0.473331 3.77444 0
M  V30 161 H 11.8198 -0.837751 4.91715 0
M  V30 162 H 10.9738 -3.18021 5.1667 0
M  V30 163 H 9.7128 -2.87623 3.93859 0
M  V30 164 H 8.7178 -1.08556 5.38976 0
M  V30 165 H 9.9428 -1.41401 6.64216 0
M  V30 166 H 7.8888 -3.40505 5.60707 0
M  V30 167 H 7.8058 -2.55501 7.11516 0
M  V30 168 H 9.0738 -3.71489 6.85285 0
M  V30 169 N 13.3029 -1.57598 0.00835791 0
M  V30 170 C 14.2529 -2.05431 -0.989045 0
M  V30 171 C 15.2369 -0.950662 -1.29812 0
M  V30 172 O 16.4289 -1.21438 -1.28771 0
M  V30 173 C 13.5579 -2.56801 -2.27833 0
M  V30 174 C 12.6439 -3.74058 -1.99853 0
M  V30 175 N 13.0349 -4.8544 -1.42062 0
M  V30 176 C 11.3329 -3.82148 -2.29953 0
M  V30 177 C 12.0339 -5.66817 -1.30743 0
M  V30 178 N 11.0099 -5.13077 -1.7959 0
M  V30 179 H 14.8119 -2.88955 -0.536853 0
M  V30 180 H 12.3259 -1.61199 -0.197148 0
M  V30 181 H 14.3229 -2.89349 -3.00137 0
M  V30 182 H 12.9829 -1.74699 -2.73698 0
M  V30 183 H 13.9939 -5.0612 -1.09833 0
M  V30 184 H 10.6709 -3.10916 -2.78635 0
M  V30 185 H 12.0609 -6.66343 -0.862328 0
M  V30 186 N 14.781 0.264519 -1.55364 0
M  V30 187 C 16.027 0.99646 -1.76631 0
M  V30 188 C 16.36 1.85632 -0.570478 0
M  V30 189 O 15.635 1.89647 0.43175 0
M  V30 190 C 15.918 1.87187 -3.07625 0
M  V30 191 C 15.771 1.04138 -4.37579 0
M  V30 192 C 17.09 2.85749 -3.34717 0
M  V30 193 H 14.209 0.360841 -0.642622 0
M  V30 194 H 16.851 0.268218 -1.88097 0
M  V30 195 H 15.001 2.49279 -2.9798 0
M  V30 196 H 16.673 0.440517 -4.59192 0
M  V30 197 H 14.916 0.345115 -4.32425 0
M  V30 198 H 15.587 1.68729 -5.2558 0
M  V30 199 H 18.063 2.33793 -3.4421 0
M  V30 200 H 16.939 3.44136 -4.27623 0
M  V30 201 H 17.2 3.61311 -2.54768 0
M  V30 202 N 16.2591 1.48442 0.529413 0
M  V30 203 C 17.1691 1.6569 1.66084 0
M  V30 204 C 18.1851 0.539432 1.65427 0
M  V30 205 O 19.3611 0.810572 1.84368 0
M  V30 206 C 16.4261 1.69315 3.02545 0
M  V30 207 C 15.4871 2.92694 3.14052 0
M  V30 208 C 14.7201 2.96137 4.44003 0
M  V30 209 O 14.9431 2.07973 5.31134 0
M  V30 210 O 13.8771 3.88312 4.59888 0
M  V30 211 H 17.7031 2.61483 1.54469 0
M  V30 212 H 15.2881 1.3185 0.702567 0
M  V30 213 H 17.1701 1.74217 3.83701 0
M  V30 214 H 15.8451 0.766966 3.14483 0
M  V30 215 H 14.7521 2.93324 2.32189 0
M  V30 216 H 16.0851 3.84699 3.0703 0
M  V30 217 N 17.7372 -0.778329 1.37039 0
M  V30 218 C 18.6672 -1.90546 1.34962 0
M  V30 219 C 19.6482 -1.68681 0.219274 0
M  V30 220 O 20.8332 -1.89634 0.418624 0
M  V30 221 C 17.9632 -3.27734 1.14925 0
M  V30 222 C 16.9172 -3.64147 2.24902 0
M  V30 223 C 16.2432 -4.99806 1.89996 0
M  V30 224 C 17.5432 -3.71579 3.67051 0
M  V30 225 H 19.2372 -1.92541 2.29277 0
M  V30 226 H 16.7832 -0.924948 1.10366 0
M  V30 227 H 18.7362 -4.06215 1.12104 0
M  V30 228 H 17.4602 -3.26154 0.170631 0
M  V30 229 H 16.1192 -2.8797 2.26868 0
M  V30 230 H 15.7672 -4.94759 0.906796 0
M  V30 231 H 15.4672 -5.25139 2.63634 0
M  V30 232 H 16.9912 -5.80694 1.88749 0
M  V30 233 H 18.4052 -4.40227 3.67251 0
M  V30 234 H 16.8022 -4.08405 4.39688 0
M  V30 235 H 17.8722 -2.72404 4.01154 0
M  V30 236 N 19.2153 -1.21501 -1.00376 0
M  V30 237 C 20.4633 -1.03095 -1.73827 0
M  V30 238 C 20.7843 0.436341 -1.90055 0
M  V30 239 O 20.0543 1.31466 -1.45236 0
M  V30 240 H 18.6343 -0.378487 -0.644016 0
M  V30 241 H 21.2963 -1.52831 -1.20949 0
M  V30 242 H 20.3923 -1.49991 -2.73695 0
M  V30 243 N 20.6934 1.19889 -1.02296 0
M  V30 244 C 21.6564 2.21116 -0.603351 0
M  V30 245 C 22.6564 1.5738 0.329884 0
M  V30 246 O 23.8464 1.73802 0.117702 0
M  V30 247 C 20.9784 3.40696 0.117992 0
M  V30 248 H 22.1714 2.59754 -1.49893 0
M  V30 249 H 19.7244 1.33463 -0.813468 0
M  V30 250 H 20.4594 3.07569 1.0282 0
M  V30 251 H 20.2444 3.88188 -0.552511 0
M  V30 252 H 21.7344 4.15692 0.398696 0
M  V30 253 N 22.1715 0.800033 1.35784 0
M  V30 254 C 23.1185 0.203848 2.29898 0
M  V30 255 C 24.0885 -0.658375 1.52495 0
M  V30 256 O 25.2735 -0.604832 1.8096 0
M  V30 257 C 22.4135 -0.64688 3.38983 0
M  V30 258 C 21.5265 0.235054 4.3136 0
M  V30 259 C 20.6615 -0.623054 5.27533 0
M  V30 260 C 19.7005 0.259682 6.11549 0
M  V30 261 N 18.8375 -0.558019 6.99879 0
M  V30 262 H 23.6775 1.01186 2.80295 0
M  V30 263 H 21.2145 0.51053 1.37957 0
M  V30 264 H 23.1725 -1.15521 4.00887 0
M  V30 265 H 21.8025 -1.42021 2.89879 0
M  V30 266 H 20.8545 0.861438 3.70518 0
M  V30 267 H 22.1665 0.914768 4.9034 0
M  V30 268 H 21.3205 -1.19678 5.94779 0
M  V30 269 H 20.0595 -1.33636 4.69034 0
M  V30 270 H 19.0645 0.845726 5.43256 0
M  V30 271 H 20.2895 0.970748 6.72126 0
M  V30 272 H 18.2355 -1.25542 6.43875 0
M  V30 273 H 18.1525 0.0637872 7.55973 0
M  V30 274 H 19.4205 -1.11523 7.71481 0
M  V30 275 N 23.6496 -1.47581 0.552962 0
M  V30 276 C 24.5826 -2.26883 -0.244857 0
M  V30 277 C 25.5606 -1.33784 -0.924147 0
M  V30 278 O 26.7446 -1.6316 -0.943981 0
M  V30 279 C 23.8716 -3.10695 -1.34856 0
M  V30 280 C 22.9176 -4.19339 -0.778268 0
M  V30 281 S 23.7506 -5.34207 0.37184 0
M  V30 282 C 24.9066 -6.21584 -0.733779 0
M  V30 283 H 25.1396 -2.94202 0.428087 0
M  V30 284 H 22.6726 -1.50628 0.339197 0
M  V30 285 H 24.6306 -3.59555 -1.98066 0
M  V30 286 H 23.2916 -2.42746 -1.99332 0
M  V30 287 H 22.4846 -4.77695 -1.60696 0
M  V30 288 H 22.0866 -3.73338 -0.222422 0
M  V30 289 H 24.3786 -6.57676 -1.62692 0
M  V30 290 H 25.3216 -7.07851 -0.187668 0
M  V30 291 H 25.7296 -5.55125 -1.02454 0
M  V30 292 N 25.1277 -0.289203 -1.54924 0
M  V30 293 C 26.3737 0.323998 -2.00195 0
M  V30 294 C 26.7067 1.54441 -1.17735 0
M  V30 295 O 25.9817 1.92875 -0.250878 0
M  V30 296 C 26.2647 0.692276 -3.53383 0
M  V30 297 C 26.1177 -0.536457 -4.46589 0
M  V30 298 C 27.4367 1.52335 -4.12895 0
M  V30 299 H 24.5557 0.116289 -0.727768 0
M  V30 300 H 27.1977 -0.398954 -1.85764 0
M  V30 301 H 25.3477 1.30822 -3.65811 0
M  V30 302 H 27.0197 -1.17499 -4.46085 0
M  V30 303 H 25.2627 -1.17192 -4.1767 0
M  V30 304 H 25.9337 -0.234806 -5.515 0
M  V30 305 H 28.4097 1.00302 -4.0383 0
M  V30 306 H 27.2857 1.74982 -5.20262 0
M  V30 307 H 27.5467 2.50886 -3.64018 0
M  V30 308 N 26.6058 1.57591 -0.0167156 0
M  V30 309 C 27.8828 1.82547 0.702564 0
M  V30 310 C 28.2628 0.898018 1.91047 0
M  V30 311 O 27.6108 -0.0493456 2.28447 0
M  V30 312 C 27.8208 3.31459 1.09251 0
M  V30 313 C 29.1688 3.97622 1.48937 0
M  V30 314 O 30.1928 3.35881 1.18584 0
M  V30 315 O 29.0518 5.06415 2.05442 0
M  V30 316 H 26.1458 0.752268 0.343544 0
M  V30 317 H 28.6918 1.69644 -0.0434495 0
M  V30 318 H 27.4638 3.9061 0.23227 0
M  V30 319 H 27.0868 3.49422 1.89709 0
M  V30 320 N 28.0839 -0.256276 1.55502 0
M  V30 321 C 29.3309 -0.985619 1.76895 0
M  V30 322 C 29.6589 -1.85671 0.579355 0
M  V30 323 O 28.9139 -1.90744 -0.437651 0
M  V30 324 C 29.2129 -1.88432 3.03691 0
M  V30 325 C 28.8789 -1.16936 4.35473 0
M  V30 326 C 27.5409 -0.97173 4.71286 0
M  V30 327 C 29.8929 -0.661889 5.1698 0
M  V30 328 C 27.2209 -0.254179 5.86149 0
M  V30 329 C 29.5729 0.042149 6.32586 0
M  V30 330 C 28.2369 0.25134 6.67027 0
M  V30 331 H 27.5069 -0.360663 0.647304 0
M  V30 332 H 30.1539 -0.256483 1.89775 0
M  V30 333 H 28.4589 -2.68021 2.85783 0
M  V30 334 H 30.1559 -2.45015 3.1744 0
M  V30 335 H 26.7459 -1.33332 4.07333 0
M  V30 336 H 30.9299 -0.802145 4.89775 0
M  V30 337 H 26.1859 -0.0815408 6.11346 0
M  V30 338 H 30.3599 0.443049 6.94989 0
M  V30 339 H 27.9869 0.809314 7.5588 0
M  V30 340 N 29.562 -1.4872 -0.521534 0
M  V30 341 C 30.525 -1.63379 -1.60748 0
M  V30 342 C 31.525 -0.50661 -1.52611 0
M  V30 343 O 32.715 -0.772601 -1.5613 0
M  V30 344 C 29.847 -1.61192 -3.00383 0
M  V30 345 H 31.04 -2.60217 -1.49087 0
M  V30 346 H 28.593 -1.37444 -0.744235 0
M  V30 347 H 29.328 -0.65863 -3.17541 0
M  V30 348 H 29.113 -2.43032 -3.07698 0
M  V30 349 H 30.603 -1.7466 -3.7932 0
M  V30 350 N 31.0401 0.771051 -1.3745 0
M  V30 351 C 32.2881 1.52661 -1.32435 0
M  V30 352 C 32.6091 1.9479 0.0905024 0
M  V30 353 O 31.8791 1.66348 1.03466 0
M  V30 354 H 30.4591 0.566218 -0.487244 0
M  V30 355 H 33.1211 0.917636 -1.71946 0
M  V30 356 H 32.2171 2.42568 -1.96385 0
M  V30 357 N 32.5182 1.22032 0.997298 0
M  V30 358 C 33.7642 1.05382 1.73972 0
M  V30 359 C 34.1192 -0.407419 1.88037 0
M  V30 360 O 33.4122 -1.29811 1.40924 0
M  V30 361 C 33.6062 1.69345 3.14733 0
M  V30 362 C 33.4352 3.21537 3.14395 0
M  V30 363 C 32.2052 3.9062 3.20537 0
M  V30 364 C 34.4032 4.18527 2.98897 0
M  V30 365 N 32.3852 5.29935 3.09906 0
M  V30 366 C 33.7562 5.44645 2.96247 0
M  V30 367 C 35.8112 4.09476 2.83255 0
M  V30 368 C 34.5142 6.62752 2.79557 0
M  V30 369 C 36.5402 5.27228 2.67926 0
M  V30 370 C 35.9022 6.52262 2.65959 0
M  V30 371 H 32.0012 0.440018 0.646458 0
M  V30 372 H 34.5852 1.54505 1.18475 0
M  V30 373 H 32.7562 1.22778 3.68484 0
M  V30 374 H 34.4882 1.45828 3.77513 0
M  V30 375 H 31.2432 3.41592 3.28043 0
M  V30 376 H 31.6672 6.02926 3.07912 0
M  V30 377 H 36.3092 3.13598 2.83577 0
M  V30 378 H 34.0272 7.58783 2.77982 0
M  V30 379 H 37.6132 5.22053 2.56812 0
M  V30 380 H 36.4932 7.41844 2.54239 0
M  V30 381 N 33.9963 -1.19345 1.0293 0
M  V30 382 C 34.9063 -2.26245 0.620515 0
M  V30 383 C 35.9223 -1.70486 -0.347928 0
M  V30 384 O 37.0983 -2.00347 -0.205704 0
M  V30 385 C 34.1633 -3.46693 -0.0218957 0
M  V30 386 C 33.2243 -4.17632 0.994102 0
M  V30 387 C 32.4573 -5.32329 0.382253 0
M  V30 388 O 32.6803 -5.64552 -0.814676 0
M  V30 389 O 31.6143 -5.91664 1.10531 0
M  V30 390 H 35.4403 -2.63453 1.51083 0
M  V30 391 H 33.0253 -1.26207 0.799513 0
M  V30 392 H 34.9073 -4.19683 -0.380072 0
M  V30 393 H 33.5823 -3.11333 -0.886209 0
M  V30 394 H 32.4893 -3.4676 1.40387 0
M  V30 395 H 33.8223 -4.56964 1.8288 0
M  V30 396 N 35.4744 -0.807222 -1.35358 0
M  V30 397 C 36.4074 -0.163572 -2.27613 0
M  V30 398 C 37.3854 0.670817 -1.48118 0
M  V30 399 O 38.5694 0.63796 -1.77376 0
M  V30 400 C 35.6964 0.773015 -3.29761 0
M  V30 401 C 34.7424 0.0181653 -4.26496 0
M  V30 402 S 35.5754 -1.31831 -5.19019 0
M  V30 403 C 36.7314 -0.38619 -6.24707 0
M  V30 404 H 36.9644 -0.945757 -2.81856 0
M  V30 405 H 34.4974 -0.602315 -1.42167 0
M  V30 406 H 36.4554 1.30788 -3.89108 0
M  V30 407 H 35.1164 1.52859 -2.74396 0
M  V30 408 H 34.3094 0.729534 -4.98692 0
M  V30 409 H 33.9114 -0.446761 -3.71322 0
M  V30 410 H 36.2034 0.428295 -6.76145 0
M  V30 411 H 37.1464 -1.07736 -6.99856 0
M  V30 412 H 37.5544 0.018398 -5.64497 0
M  V30 413 N 36.9525 1.47285 -0.560781 0
M  V30 414 C 38.3635 1.86258 -0.128343 0
M  V30 415 C 38.7145 1.46699 1.30284 0
M  V30 416 O 37.8395 0.871698 1.98067 0
M  V30 417 C 38.4345 3.38044 -0.22614 0
M  V30 418 C 36.9935 3.76096 0.151283 0
M  V30 419 C 36.1405 2.71335 -0.572084 0
M  V30 420 H 39.0915 1.38752 -0.770297 0
M  V30 421 H 39.1125 3.76441 0.554322 0
M  V30 422 H 38.6245 3.66806 -1.26788 0
M  V30 423 H 36.7255 3.52951 1.19399 0
M  V30 424 H 36.8385 4.78641 -0.209765 0
M  V30 425 H 35.2025 2.54696 -0.0147653 0
M  V30 426 H 35.9855 3.02938 -1.61504 0
M  V30 427 N 38.4306 0.297415 1.54768 0
M  V30 428 C 39.3606 -0.573494 2.26348 0
M  V30 429 C 40.3416 -1.14085 1.26169 0
M  V30 430 O 41.5266 -1.17086 1.54934 0
M  V30 431 C 38.6566 -1.74716 3.00153 0
M  V30 432 C 37.6106 -1.31032 4.07449 0
M  V30 433 C 36.9366 -2.56887 4.68949 0
M  V30 434 C 38.2366 -0.444183 5.20408 0
M  V30 435 H 39.9306 0.0235131 2.99391 0
M  V30 436 H 37.4766 0.0127488 1.43994 0
M  V30 437 H 39.4296 -2.3625 3.48947 0
M  V30 438 H 38.1536 -2.37035 2.24682 0
M  V30 439 H 36.8126 -0.718066 3.59499 0
M  V30 440 H 36.4606 -3.17512 3.90122 0
M  V30 441 H 36.1606 -2.2836 5.41411 0
M  V30 442 H 37.6846 -3.19229 5.20505 0
M  V30 443 H 39.0986 -0.9651 5.65118 0
M  V30 444 H 37.4956 -0.252846 5.99567 0
M  V30 445 H 38.5656 0.531609 4.81977 0
M  V30 446 N 39.9087 -1.5758 0.0250728 0
M  V30 447 C 41.1387 -1.95646 -0.663783 0
M  V30 448 C 41.5467 -0.899935 -1.66427 0
M  V30 449 O 40.8897 0.127191 -1.83259 0
M  V30 450 C 40.9517 -3.29835 -1.43 0
M  V30 451 C 40.6157 -4.53197 -0.588305 0
M  V30 452 C 41.6127 -5.19726 0.13469 0
M  V30 453 C 39.2977 -4.99529 -0.526897 0
M  V30 454 C 41.2917 -6.30902 0.90781 0
M  V30 455 C 38.9787 -6.10589 0.24993 0
M  V30 456 C 39.9767 -6.76134 0.965994 0
M  V30 457 O 39.6647 -7.85062 1.7301 0
M  V30 458 H 39.3967 -0.649282 -0.188174 0
M  V30 459 H 41.9507 -2.05245 0.0799006 0
M  V30 460 H 40.1807 -3.16716 -2.21873 0
M  V30 461 H 41.8697 -3.52833 -2.00658 0
M  V30 462 H 42.6357 -4.84904 0.0965562 0
M  V30 463 H 38.5147 -4.48319 -1.07381 0
M  V30 464 H 42.0587 -6.81995 1.46724 0
M  V30 465 H 37.9557 -6.44849 0.289795 0
M  V30 466 H 38.7237 -8.01708 1.64944 0
M  V30 467 N 41.3868 0.248026 -1.55636 0
M  V30 468 C 42.6168 0.992367 -1.81206 0
M  V30 469 C 43.0248 1.7949 -0.598324 0
M  V30 470 O 42.3678 1.78292 0.442434 0
M  V30 471 C 42.4298 1.97926 -3.00109 0
M  V30 472 C 42.0938 1.36377 -4.36177 0
M  V30 473 C 43.0908 0.76682 -5.14214 0
M  V30 474 C 40.7758 1.38347 -4.82872 0
M  V30 475 C 42.7698 0.197778 -6.37093 0
M  V30 476 C 40.4568 0.810574 -6.057 0
M  V30 477 C 41.4548 0.218754 -6.8265 0
M  V30 478 O 41.1428 -0.345298 -8.03158 0
M  V30 479 H 40.8748 0.297704 -0.606917 0
M  V30 480 H 43.4288 0.276517 -2.0353 0
M  V30 481 H 41.6588 2.73339 -2.73538 0
M  V30 482 H 43.3478 2.58694 -3.12781 0
M  V30 483 H 44.1138 0.744114 -4.79258 0
M  V30 484 H 39.9928 1.8335 -4.2297 0
M  V30 485 H 43.5368 -0.264788 -6.97097 0
M  V30 486 H 39.4338 0.830604 -6.40134 0
M  V30 487 H 40.2018 -0.237055 -8.18157 0
M  V30 488 N 42.8649 1.48995 0.513639 0
M  V30 489 C 44.0929 1.61531 1.29288 0
M  V30 490 C 44.5079 0.281801 1.86685 0
M  V30 491 O 43.8649 -0.731111 1.67215 0
M  V30 492 C 43.9159 2.67449 2.43215 0
M  V30 493 O 43.6369 3.95626 1.88179 0
M  V30 494 C 45.1379 2.90575 3.34785 0
M  V30 495 H 42.3579 0.544165 0.392588 0
M  V30 496 H 44.9019 1.9494 0.617956 0
M  V30 497 H 43.0569 2.36853 3.0656 0
M  V30 498 H 43.4709 4.53868 2.62876 0
M  V30 499 H 44.9449 3.68449 4.11035 0
M  V30 500 H 45.4219 2.00011 3.91015 0
M  V30 501 H 46.0279 3.22538 2.77218 0
M  V30 502 N 44.343 -0.763751 1.37857 0
M  V30 503 C 45.568 -1.55805 1.36893 0
M  V30 504 C 45.993 -1.88054 -0.0416135 0
M  V30 505 O 45.351 -1.49825 -1.02089 0
M  V30 506 C 45.399 -2.84012 2.22192 0
M  V30 507 O 44.503 -3.78732 1.63204 0
M  V30 508 H 43.844 -0.471638 0.46739 0
M  V30 509 H 46.374 -0.944657 1.81487 0
M  V30 510 H 46.384 -3.33037 2.35691 0
M  V30 511 H 45.059 -2.59869 3.24716 0
M  V30 512 H 43.636 -3.37402 1.58791 0
M  V30 513 N 45.8211 -1.22559 -0.990812 0
M  V30 514 C 47.0701 -1.04553 -1.72486 0
M  V30 515 C 47.3831 0.419349 -1.91052 0
M  V30 516 O 48.5891 0.719121 -2.61803 0
M  V30 517 C 47.0451 -1.82231 -3.10355 0
M  V30 518 C 46.6531 -3.32981 -2.99713 0
M  V30 519 C 48.3971 -1.7268 -3.87791 0
M  V30 520 C 46.3041 -4.03091 -4.32748 0
M  V30 521 H 45.2341 -0.387614 -0.646739 0
M  V30 522 H 47.8851 -1.46429 -1.10593 0
M  V30 523 H 46.2671 -1.33155 -3.72942 0
M  V30 524 H 47.4411 -3.89466 -2.46278 0
M  V30 525 H 45.7561 -3.43231 -2.35758 0
M  V30 526 H 48.3531 -2.22381 -4.86262 0
M  V30 527 H 48.6961 -0.687607 -4.10582 0
M  V30 528 H 49.2291 -2.1931 -3.31885 0
M  V30 529 H 45.9681 -5.07273 -4.15156 0
M  V30 530 H 45.4881 -3.51394 -4.86089 0
M  V30 531 H 47.1671 -4.08804 -5.01486 0
M  V30 532 N 47.2992 1.18797 -1.03562 0
M  V30 533 C 48.5462 1.8865 -0.736023 0
M  V30 534 C 48.8742 1.80041 0.735889 0
M  V30 535 O 48.1292 1.19179 1.55225 0
M  V30 536 C 48.4282 3.38692 -1.14117 0
M  V30 537 C 48.0942 3.67504 -2.6125 0
M  V30 538 C 46.7562 3.75078 -3.01447 0
M  V30 539 C 49.1082 3.80293 -3.56408 0
M  V30 540 C 46.4362 3.92915 -4.35701 0
M  V30 541 C 48.7882 3.99645 -4.90374 0
M  V30 542 C 47.4522 4.05453 -5.30249 0
M  V30 543 H 46.7222 0.690321 -0.26933 0
M  V30 544 H 49.3692 1.40641 -1.29971 0
M  V30 545 H 47.6742 3.88645 -0.496202 0
M  V30 546 H 49.3712 3.91072 -0.886789 0
M  V30 547 H 45.9612 3.62223 -2.29113 0
M  V30 548 H 50.1452 3.73779 -3.26501 0
M  V30 549 H 45.4012 3.95653 -4.66121 0
M  V30 550 H 49.5752 4.08482 -5.64017 0
M  V30 551 H 47.2022 4.19027 -6.34288 0
M  V30 552 N 48.7773 0.814389 1.34928 0
M  V30 553 C 49.6873 0.231978 2.3345 0
M  V30 554 C 50.7033 -0.629139 1.62228 0
M  V30 555 O 51.8793 -0.539052 1.94052 0
M  V30 556 C 48.9443 -0.603482 3.41407 0
M  V30 557 C 48.0053 0.279037 4.28392 0
M  V30 558 C 47.2383 -0.516643 5.31193 0
M  V30 559 O 47.4613 -1.75068 5.4287 0
M  V30 560 O 46.3953 0.0965652 6.01823 0
M  V30 561 H 50.2213 1.04721 2.85074 0
M  V30 562 H 47.8063 0.576343 1.37836 0
M  V30 563 H 49.6883 -1.07908 4.0735 0
M  V30 564 H 48.3633 -1.39618 2.92042 0
M  V30 565 H 47.2703 0.801948 3.65403 0
M  V30 566 H 48.6033 1.03588 4.81176 0
M  V30 567 N 50.2554 -1.46986 0.568584 0
M  V30 568 C 51.1654 -2.33942 -0.17555 0
M  V30 569 C 52.1814 -1.48891 -0.90041 0
M  V30 570 O 53.3574 -1.81794 -0.86676 0
M  V30 571 C 50.4224 -3.25811 -1.18524 0
M  V30 572 C 49.4834 -4.26757 -0.466582 0
M  V30 573 C 48.7164 -5.14236 -1.42817 0
M  V30 574 O 48.9394 -5.04379 -2.66379 0
M  V30 575 O 47.8734 -5.94412 -0.946453 0
M  V30 576 H 51.6994 -2.98896 0.538036 0
M  V30 577 H 49.2844 -1.4573 0.329097 0
M  V30 578 H 51.1664 -3.82527 -1.76779 0
M  V30 579 H 49.8414 -2.63471 -1.88055 0
M  V30 580 H 48.7484 -3.73769 0.157451 0
M  V30 581 H 50.0814 -4.91843 0.187485 0
M  V30 582 N 51.7335 -0.305618 -1.54608 0
M  V30 583 C 52.9795 0.302746 -2.00528 0
M  V30 584 C 53.3125 1.53184 -1.19367 0
M  V30 585 O 52.5875 1.92598 -0.271321 0
M  V30 586 C 52.8705 0.654756 -3.54097 0
M  V30 587 C 52.7235 -0.583793 -4.45995 0
M  V30 588 C 54.0425 1.47947 -4.14487 0
M  V30 589 H 51.1615 0.108564 -0.72896 0
M  V30 590 H 53.8035 -0.418634 -1.85331 0
M  V30 591 H 51.9535 1.26935 -3.67178 0
M  V30 592 H 53.6255 -1.22224 -4.44814 0
M  V30 593 H 51.8685 -1.21615 -4.16404 0
M  V30 594 H 52.5395 -0.293287 -5.5122 0
M  V30 595 H 55.0155 0.96013 -4.04871 0
M  V30 596 H 53.8915 1.69454 -5.22088 0
M  V30 597 H 54.1525 2.47011 -3.66658 0
M  V30 598 N 53.2116 1.57565 -0.0334293 0
M  V30 599 C 54.1446 2.05997 0.981866 0
M  V30 600 C 55.1226 0.956647 1.3148 0
M  V30 601 O 56.3066 1.22729 1.43073 0
M  V30 602 C 53.4336 2.48564 2.30074 0
M  V30 603 C 52.4796 3.69958 2.12211 0
M  V30 604 S 53.3126 5.16414 1.41692 0
M  V30 605 C 54.4686 5.6228 2.7494 0
M  V30 606 H 54.7016 2.91792 0.569612 0
M  V30 607 H 52.2346 1.53366 0.178376 0
M  V30 608 H 54.1926 2.73753 3.05892 0
M  V30 609 H 52.8536 1.63106 2.68431 0
M  V30 610 H 52.0466 3.97603 3.09722 0
M  V30 611 H 51.6486 3.44943 1.44535 0
M  V30 612 H 53.9406 5.66783 3.71165 0
M  V30 613 H 54.8836 6.61759 2.51953 0
M  V30 614 H 55.2916 4.89944 2.80384 0
M  V30 615 N 54.6897 -0.239769 1.55765 0
M  V30 616 C 55.6527 -1.28038 1.90103 0
M  V30 617 C 56.6527 -1.40723 0.778055 0
M  V30 618 O 57.8427 -1.39301 1.04599 0
M  V30 619 C 54.9747 -2.65702 2.13577 0
M  V30 620 H 56.1677 -0.988048 2.83157 0
M  V30 621 H 53.7207 -0.479382 1.48767 0
M  V30 622 H 54.4557 -3.00063 1.23015 0
M  V30 623 H 54.2407 -2.57875 2.95369 0
M  V30 624 H 55.7307 -3.40828 2.41301 0
M  V30 625 N 56.1678 -1.49265 -0.50573 0
M  V30 626 C 57.4138 -1.58748 -1.26202 0
M  V30 627 C 57.7468 -0.271227 -1.92297 0
M  V30 628 O 57.0218 0.724831 -1.80489 0
M  V30 629 C 57.3048 -2.74332 -2.33268 0
M  V30 630 C 57.1578 -4.15737 -1.71705 0
M  V30 631 C 58.4768 -2.85576 -3.34865 0
M  V30 632 H 55.5958 -0.577826 -0.457478 0
M  V30 633 H 58.2378 -1.81532 -0.560897 0
M  V30 634 H 56.3878 -2.55036 -2.93068 0
M  V30 635 H 58.0598 -4.46537 -1.15769 0
M  V30 636 H 56.3028 -4.21605 -1.02135 0
M  V30 637 H 56.9738 -4.92477 -2.49341 0
M  V30 638 H 59.4498 -3.03127 -2.8505 0
M  V30 639 H 58.3258 -3.68135 -4.07146 0
M  V30 640 H 58.5868 -1.94732 -3.96903 0
M  V30 641 N 57.6459 0.756429 -1.3826 0
M  V30 642 C 59.0619 1.0591 -1.19395 0
M  V30 643 C 59.2619 2.01459 -0.0406567 0
M  V30 644 O 58.3179 2.44909 0.614467 0
M  V30 645 C 59.6309 1.64191 -2.51916 0
M  V30 646 C 61.1789 1.76376 -2.58574 0
M  V30 647 C 61.6539 2.38069 -3.91264 0
M  V30 648 N 63.1449 2.45503 -3.92788 0
M  V30 649 C 63.8799 2.94126 -4.92217 0
M  V30 650 N 63.3759 3.42805 -6.02043 0
M  V30 651 N 65.1689 2.9314 -4.7961 0
M  V30 652 H 57.3199 0.122313 -2.12048 0
M  V30 653 H 59.5829 0.116892 -0.940766 0
M  V30 654 H 59.2889 1.01451 -3.3675 0
M  V30 655 H 59.1629 2.6329 -2.70108 0
M  V30 656 H 61.5499 2.38244 -1.74137 0
M  V30 657 H 61.6309 0.759894 -2.44252 0
M  V30 658 H 61.2749 1.76835 -4.76121 0
M  V30 659 H 61.2049 3.39091 -4.02895 0
M  V30 660 H 63.6959 2.1107 -3.13461 0
M  V30 661 H 64.0089 3.78354 -6.73846 0
M  V30 662 H 62.3539 3.4087 -6.05667 0
M  V30 663 H 65.5449 2.54419 -3.92923 0
M  V30 664 H 65.7179 3.30721 -5.5725 0
M  V30 665 N 59.124 1.23083 0.984299 0
M  V30 666 C 60.071 1.00854 2.07598 0
M  V30 667 C 61.041 -0.0726709 1.65941 0
M  V30 668 O 62.226 0.0786535 1.90638 0
M  V30 669 C 59.366 0.601645 3.39815 0
M  V30 670 C 58.479 1.75456 3.94765 0
M  V30 671 C 57.614 1.29482 5.15177 0
M  V30 672 C 56.653 2.41873 5.62284 0
M  V30 673 N 55.79 1.96885 6.73929 0
M  V30 674 H 60.63 1.943 2.25946 0
M  V30 675 H 58.167 0.968001 1.10762 0
M  V30 676 H 60.125 0.346854 4.15756 0
M  V30 677 H 58.755 -0.295803 3.21442 0
M  V30 678 H 57.807 2.12346 3.15616 0
M  V30 679 H 59.119 2.59965 4.25699 0
M  V30 680 H 58.273 0.997923 5.98437 0
M  V30 681 H 57.012 0.420046 4.85888 0
M  V30 682 H 56.017 2.72342 4.77608 0
M  V30 683 H 57.242 3.29881 5.93595 0
M  V30 684 H 55.188 1.11782 6.46406 0
M  V30 685 H 55.105 2.74956 7.04227 0
M  V30 686 H 56.373 1.70289 7.60672 0
M  V30 687 N 60.6021 -1.18246 1.0419 0
M  V30 688 C 61.8271 -1.92736 0.765996 0
M  V30 689 C 62.2521 -1.75728 -0.67091 0
M  V30 690 O 61.6101 -1.06825 -1.46486 0
M  V30 691 C 61.6581 -3.42148 1.13875 0
M  V30 692 O 60.7621 -4.11548 0.264954 0
M  V30 693 H 60.1031 -0.601238 0.281797 0
M  V30 694 H 62.6331 -1.49942 1.39207 0
M  V30 695 H 62.6431 -3.92858 1.1012 0
M  V30 696 H 61.3181 -3.53848 2.18551 0
M  V30 697 H 59.8951 -3.71137 0.362226 0
M  V30 698 N 62.0802 -0.821533 -1.34494 0
M  V30 699 C 63.3262 -0.409552 -1.98622 0
M  V30 700 C 63.6592 1.0244 -1.64984 0
M  V30 701 O 62.9342 1.71325 -0.920758 0
M  V30 702 C 63.2172 -0.610458 -3.54888 0
M  V30 703 C 63.0702 -2.09043 -3.98273 0
M  V30 704 C 64.3892 -0.0455379 -4.40076 0
M  V30 705 H 61.5082 -0.15028 -0.721516 0
M  V30 706 H 64.1502 -1.03384 -1.59411 0
M  V30 707 H 62.3002 -0.079044 -3.8842 0
M  V30 708 H 63.9722 -2.68537 -3.75081 0
M  V30 709 H 62.2152 -2.58139 -3.48635 0
M  V30 710 H 62.8862 -2.18182 -5.07051 0
M  V30 711 H 65.3622 -0.499557 -4.1309 0
M  V30 712 H 64.2382 -0.215922 -5.48475 0
M  V30 713 H 64.4992 1.04939 -4.29465 0
M  V30 714 N 63.5583 1.46682 -0.576371 0
M  V30 715 C 64.8063 2.02013 -0.0594163 0
M  V30 716 C 65.1273 1.45101 1.30271 0
M  V30 717 O 64.3973 0.633317 1.8538 0
M  V30 718 H 62.9773 0.746759 -0.0189745 0
M  V30 719 H 65.6393 1.79862 -0.750717 0
M  V30 720 H 64.7353 3.12097 0.014345 0
M  V30 721 N 65.0364 0.313813 1.54444 0
M  V30 722 C 65.9694 -0.598866 2.20202 0
M  V30 723 C 66.9474 -1.12318 1.17573 0
M  V30 724 O 68.1314 -1.18899 1.46271 0
M  V30 725 C 65.2584 -1.82071 2.85601 0
M  V30 726 C 64.3044 -1.42851 4.01865 0
M  V30 727 S 65.1374 -0.473512 5.33402 0
M  V30 728 C 66.2934 -1.70286 6.0229 0
M  V30 729 H 66.5264 -0.0402532 2.97273 0
M  V30 730 H 64.0594 0.0979165 1.54089 0
M  V30 731 H 66.0174 -2.52184 3.23904 0
M  V30 732 H 64.6784 -2.3505 2.08351 0
M  V30 733 H 63.8714 -2.33871 4.46453 0
M  V30 734 H 63.4734 -0.807198 3.65185 0
M  V30 735 H 65.7654 -2.64168 6.23876 0
M  V30 736 H 66.7084 -1.29932 6.96077 0
M  V30 737 H 67.1164 -1.88541 5.32083 0
M  V30 738 N 66.5145 -1.57545 0.0417849 0
M  V30 739 C 67.7615 -1.92317 -0.634082 0
M  V30 740 C 68.0895 -0.919334 -1.71402 0
M  V30 741 O 67.3445 0.0698253 -1.95575 0
M  V30 742 C 67.6435 -3.33794 -1.27735 0
M  V30 743 C 67.3095 -4.49716 -0.326543 0
M  V30 744 C 65.9715 -4.81156 -0.0648814 0
M  V30 745 C 68.3235 -5.20182 0.325623 0
M  V30 746 C 65.6515 -5.80414 0.856539 0
M  V30 747 C 68.0035 -6.20424 1.23518 0
M  V30 748 C 66.6675 -6.50298 1.5056 0
M  V30 749 H 65.9375 -0.703736 -0.232027 0
M  V30 750 H 68.5845 -1.91205 0.106259 0
M  V30 751 H 66.8895 -3.31228 -2.09274 0
M  V30 752 H 68.5865 -3.57975 -1.80707 0
M  V30 753 H 65.1765 -4.25176 -0.540665 0
M  V30 754 H 69.3605 -4.96112 0.136546 0
M  V30 755 H 64.6165 -6.019 1.07363 0
M  V30 756 H 68.7905 -6.74141 1.74664 0
M  V30 757 H 66.4175 -7.27025 2.22123 0
M  V30 758 N 67.9926 0.231505 -1.5589 0
M  V30 759 C 69.2696 0.981096 -1.69215 0
M  V30 760 C 69.6496 2.02799 -0.586164 0
M  V30 761 O 68.9976 2.24823 0.408253 0
M  V30 762 C 69.2076 1.60054 -3.10135 0
M  V30 763 C 70.5556 2.09658 -3.69227 0
M  V30 764 O 71.5796 1.69967 -3.13033 0
M  V30 765 O 70.4386 2.8258 -4.67772 0
M  V30 766 H 67.5326 0.457653 -0.688827 0
M  V30 767 H 70.0786 0.224073 -1.68214 0
M  V30 768 H 68.8506 0.844105 -3.82087 0
M  V30 769 H 68.4736 2.42336 -3.15212 0
M  V30 770 N 69.4707 1.49531 0.497807 0
M  V30 771 C 70.7167 1.59415 1.25358 0
M  V30 772 C 71.0497 0.281422 1.9215 0
M  V30 773 O 70.3247 -0.715249 1.80871 0
M  V30 774 C 70.6077 2.75566 2.3181 0
M  V30 775 C 70.4607 4.16642 1.69498 0
M  V30 776 C 71.7797 2.87347 3.33346 0
M  V30 777 H 68.8987 0.580244 0.454408 0
M  V30 778 H 71.5407 1.81827 0.551262 0
M  V30 779 H 69.6907 2.56587 2.91711 0
M  V30 780 H 71.3627 4.47145 1.13399 0
M  V30 781 H 69.6057 4.22141 0.998978 0
M  V30 782 H 70.2767 4.93792 2.46725 0
M  V30 783 H 72.7527 3.04634 2.83438 0
M  V30 784 H 71.6287 3.70289 4.05188 0
M  V30 785 H 71.8897 1.96834 3.95865 0
M  V30 786 N 70.9488 -0.749086 1.3866 0
M  V30 787 C 72.1738 -1.54344 1.38538 0
M  V30 788 C 72.5988 -1.88088 -0.0216655 0
M  V30 789 O 71.9568 -1.50899 -1.00494 0
M  V30 790 C 72.0048 -2.8164 2.25192 0
M  V30 791 O 71.1088 -3.7698 1.67212 0
M  V30 792 H 70.4498 -0.466654 0.472367 0
M  V30 793 H 72.9798 -0.925355 1.82478 0
M  V30 794 H 72.9898 -3.30519 2.3921 0
M  V30 795 H 71.6648 -2.56411 3.27454 0
M  V30 796 H 70.2418 -3.35699 1.6236 0
M  V30 797 N 72.4269 -1.23603 -0.977757 0
M  V30 798 C 73.3769 -0.986664 -2.05545 0
M  V30 799 C 74.3609 0.0683009 -1.60755 0
M  V30 800 O 75.5529 -0.144162 -1.76412 0
M  V30 801 C 72.6819 -0.582623 -3.3832 0
M  V30 802 C 71.7679 -1.67313 -3.89701 0
M  V30 803 N 72.1589 -2.90394 -4.14132 0
M  V30 804 C 70.4569 -1.54832 -4.18262 0
M  V30 805 C 71.1579 -3.61017 -4.56116 0
M  V30 806 N 70.1339 -2.8854 -4.60701 0
M  V30 807 H 73.9359 -1.92139 -2.22396 0
M  V30 808 H 71.4499 -1.1358 -1.16074 0
M  V30 809 H 73.4469 -0.38524 -4.15116 0
M  V30 810 H 72.1069 0.34503 -3.22862 0
M  V30 811 H 73.1179 -3.26673 -4.01877 0
M  V30 812 H 69.7949 -0.687969 -4.11793 0
M  V30 813 H 71.1849 -4.66544 -4.83514 0
M  V30 814 N 73.905 1.17692 -1.04816 0
M  V30 815 C 74.838 2.20436 -0.590173 0
M  V30 816 C 75.816 1.58115 0.379244 0
M  V30 817 O 77 1.86228 0.291762 0
M  V30 818 C 74.127 3.38424 0.136817 0
M  V30 819 C 73.173 4.19176 -0.787023 0
M  V30 820 S 74.006 4.84815 -2.27409 0
M  V30 821 C 75.162 6.06195 -1.55817 0
M  V30 822 H 75.395 2.58944 -1.46067 0
M  V30 823 H 72.928 1.28246 -0.859784 0
M  V30 824 H 74.886 4.06798 0.550076 0
M  V30 825 H 73.547 2.98312 0.983299 0
M  V30 826 H 72.74 5.03499 -0.224681 0
M  V30 827 H 72.342 3.56219 -1.13947 0
M  V30 828 H 74.634 6.72078 -0.855387 0
M  V30 829 H 75.577 6.6695 -2.37873 0
M  V30 830 H 75.985 5.54701 -1.04722 0
M  V30 831 N 75.3831 0.828654 1.34056 0
M  V30 832 C 76.6311 0.41863 1.97717 0
M  V30 833 C 76.9521 -1.02314 1.66002 0
M  V30 834 O 76.2221 -1.71119 0.953683 0
M  V30 835 H 74.8021 0.151809 0.731412 0
M  V30 836 H 77.4641 1.05936 1.63596 0
M  V30 837 H 76.5601 0.542318 3.07352 0
M  V30 838 N 76.8612 -1.46375 0.584142 0
M  V30 839 C 77.7712 -2.34115 -0.150728 0
M  V30 840 C 78.7872 -1.49838 -0.884567 0
M  V30 841 O 79.9632 -1.82704 -0.847429 0
M  V30 842 C 77.0282 -3.2705 -1.15062 0
M  V30 843 C 76.0892 -4.27228 -0.421293 0
M  V30 844 C 75.3222 -5.15722 -1.37355 0
M  V30 845 O 75.5452 -5.07176 -2.61014 0
M  V30 846 O 74.4792 -5.95383 -0.883355 0
M  V30 847 H 78.3052 -2.98309 0.569708 0
M  V30 848 H 75.8902 -1.45373 0.344535 0
M  V30 849 H 77.7722 -3.84381 -1.72712 0
M  V30 850 H 76.4472 -2.65451 -1.8525 0
M  V30 851 H 75.3542 -3.7358 0.197085 0
M  V30 852 H 76.6872 -4.91616 0.239641 0
M  V30 853 N 78.3393 -0.321999 -1.54275 0
M  V30 854 C 79.5863 0.281044 -2.0054 0
M  V30 855 C 79.9143 1.52265 -1.21019 0
M  V30 856 O 79.1693 1.93687 -0.279982 0
M  V30 857 C 79.4683 0.661769 -3.5122 0
M  V30 858 C 79.1343 -0.480482 -4.48333 0
M  V30 859 C 77.7963 -0.794005 -4.74604 0
M  V30 860 C 80.1483 -1.24783 -5.06042 0
M  V30 861 C 77.4763 -1.87763 -5.55844 0
M  V30 862 C 79.8283 -2.32153 -5.88462 0
M  V30 863 C 78.4923 -2.64089 -6.13036 0
M  V30 864 H 77.7623 0.102841 -0.733829 0
M  V30 865 H 80.4093 -0.445453 -1.86247 0
M  V30 866 H 78.7143 1.46867 -3.63232 0
M  V30 867 H 80.4113 1.13989 -3.84457 0
M  V30 868 H 77.0013 -0.226039 -4.28004 0
M  V30 869 H 81.1853 -1.01887 -4.85729 0
M  V30 870 H 76.4413 -2.12954 -5.73115 0
M  V30 871 H 80.6153 -2.92057 -6.32199 0
M  V30 872 H 78.2423 -3.48185 -6.75775 0
M  V30 873 N 79.8174 1.5752 -0.0501392 0
M  V30 874 C 80.7474 2.14502 0.922566 0
M  V30 875 C 81.7284 1.06642 1.3252 0
M  V30 876 O 82.9134 1.34577 1.4001 0
M  V30 877 C 80.0434 2.68916 2.19776 0
M  V30 878 C 78.9974 3.8175 1.93523 0
M  V30 879 C 78.3234 4.22677 3.27487 0
M  V30 880 C 79.6234 5.06932 1.25765 0
M  V30 881 H 81.3174 2.9603 0.447952 0
M  V30 882 H 78.8634 1.42401 0.214024 0
M  V30 883 H 80.8164 3.07419 2.88222 0
M  V30 884 H 79.5404 1.84578 2.69441 0
M  V30 885 H 78.1994 3.43718 1.27489 0
M  V30 886 H 77.8474 3.35291 3.74952 0
M  V30 887 H 77.5474 4.98725 3.1072 0
M  V30 888 H 79.0714 4.63779 3.97166 0
M  V30 889 H 80.4854 5.42888 1.84244 0
M  V30 890 H 78.8824 5.88116 1.19328 0
M  V30 891 H 79.9524 4.84337 0.233536 0
M  V30 892 N 81.2955 -0.223234 1.56011 0
M  V30 893 C 82.5415 -0.949279 1.79211 0
M  V30 894 C 82.8745 -1.84054 0.619494 0
M  V30 895 O 82.1495 -1.90726 -0.381317 0
M  V30 896 C 82.4325 -1.78965 3.12479 0
M  V30 897 C 82.2855 -0.924997 4.40186 0
M  V30 898 C 83.6045 -2.76774 3.42175 0
M  V30 899 H 80.7235 -0.343676 0.651963 0
M  V30 900 H 83.3655 -0.218253 1.88742 0
M  V30 901 H 81.5155 -2.41291 3.04485 0
M  V30 902 H 83.1875 -0.318615 4.60198 0
M  V30 903 H 81.4305 -0.230344 4.33188 0
M  V30 904 H 82.1015 -1.54735 5.29869 0
M  V30 905 H 84.5775 -2.24584 3.50287 0
M  V30 906 H 83.4535 -3.32678 4.36597 0
M  V30 907 H 83.7145 -3.54429 2.64258 0
M  V30 908 N 82.7736 -1.49793 -0.48987 0
M  V30 909 C 83.7206 -1.67281 -1.59014 0
M  V30 910 C 84.6906 -0.514177 -1.57941 0
M  V30 911 O 85.8756 -0.742533 -1.75759 0
M  V30 912 C 83.0156 -1.75569 -2.97102 0
M  V30 913 C 82.1286 -3.0281 -3.08107 0
M  V30 914 C 81.2636 -3.02008 -4.36995 0
M  V30 915 C 80.3026 -4.23782 -4.41673 0
M  V30 916 N 79.4396 -4.20826 -5.62005 0
M  V30 917 H 84.2796 -2.61224 -1.43409 0
M  V30 918 H 81.8166 -1.29508 -0.697565 0
M  V30 919 H 83.7746 -1.78354 -3.77155 0
M  V30 920 H 82.4046 -0.850827 -3.11385 0
M  V30 921 H 81.4566 -3.09584 -2.21047 0
M  V30 922 H 82.7686 -3.92801 -3.07423 0
M  V30 923 H 81.9226 -3.03418 -5.25378 0
M  V30 924 H 80.6616 -2.09815 -4.4026 0
M  V30 925 H 79.6666 -4.22604 -3.5169 0
M  V30 926 H 80.8916 -5.17181 -4.40115 0
M  V30 927 H 78.8376 -3.31476 -5.66091 0
M  V30 928 H 78.7546 -5.04564 -5.62984 0
M  V30 929 H 80.0226 -4.26355 -6.52565 0
M  V30 930 N 84.2517 0.741722 -1.39055 0
M  V30 931 C 85.4997 1.49818 -1.35643 0
M  V30 932 C 85.8207 1.94938 0.0491642 0
M  V30 933 O 85.0907 1.68505 0.999141 0
M  V30 934 H 83.6707 0.555755 -0.499144 0
M  V30 935 H 86.3327 0.880957 -1.73854 0
M  V30 936 H 85.4287 2.38348 -2.01486 0
M  V30 937 N 85.7298 1.2412 0.971189 0
M  V30 938 C 87.1408 1.07236 1.52831 0
M  V30 939 C 87.4918 -0.357352 1.92918 0
M  V30 940 O 86.6168 -1.24528 1.76979 0
M  V30 941 C 87.2118 1.94043 2.77728 0
M  V30 942 C 85.7708 1.81394 3.29808 0
M  V30 943 C 84.9178 1.89189 2.02738 0
M  V30 944 H 87.8688 1.37648 0.789864 0
M  V30 945 H 87.8898 1.47066 3.5093 0
M  V30 946 H 87.4018 2.98093 2.4852 0
M  V30 947 H 85.5028 0.801634 3.63874 0
M  V30 948 H 85.6158 2.65294 3.98944 0
M  V30 949 H 83.9798 1.32877 2.17292 0
M  V30 950 H 84.7628 2.94812 1.759 0
M  V30 951 N 87.2079 -1.17134 1.05439 0
M  V30 952 C 88.1179 -2.24878 0.668365 0
M  V30 953 C 89.1339 -1.71186 -0.311687 0
M  V30 954 O 90.3099 -2.00738 -0.163161 0
M  V30 955 C 87.3749 -3.46662 0.051648 0
M  V30 956 C 86.4359 -4.15429 1.08246 0
M  V30 957 C 85.6689 -5.31399 0.495082 0
M  V30 958 O 85.8919 -5.66153 -0.694743 0
M  V30 959 O 84.8259 -5.89187 1.23056 0
M  V30 960 H 88.6519 -2.60189 1.56637 0
M  V30 961 H 86.2369 -1.24482 0.826104 0
M  V30 962 H 88.1189 -4.20394 -0.290966 0
M  V30 963 H 86.7939 -3.13142 -0.819971 0
M  V30 964 H 85.7009 -3.43704 1.47711 0
M  V30 965 H 87.0339 -4.52982 1.92532 0
M  V30 966 N 88.686 -0.835752 -1.33615 0
M  V30 967 C 89.649 -0.272 -2.2758 0
M  V30 968 C 90.649 0.557487 -1.50827 0
M  V30 969 O 91.839 0.37173 -1.70188 0
M  V30 970 C 88.971 0.617173 -3.35267 0
M  V30 971 H 90.164 -1.10111 -2.78954 0
M  V30 972 H 87.717 -0.608594 -1.43965 0
M  V30 973 H 88.452 1.46884 -2.89129 0
M  V30 974 H 88.237 0.0237066 -3.92093 0
M  V30 975 H 89.727 1.005 -4.05326 0
M  V30 976 N 90.1641 1.46063 -0.591896 0
M  V30 977 C 91.4101 2.02638 -0.0811191 0
M  V30 978 C 91.7431 1.4613 1.27905 0
M  V30 979 O 91.0181 0.629908 1.84017 0
M  V30 980 C 91.3011 3.60091 -0.0252436 0
M  V30 981 C 91.1541 4.26965 -1.41496 0
M  V30 982 C 92.4731 4.3496 0.670685 0
M  V30 983 H 89.5921 0.73635 -0.0309524 0
M  V30 984 H 92.2341 1.741 -0.760859 0
M  V30 985 H 90.3841 3.84535 0.553624 0
M  V30 986 H 92.0561 4.13756 -2.0397 0
M  V30 987 H 90.2991 3.85971 -1.98011 0
M  V30 988 H 90.9701 5.35781 -1.32825 0
M  V30 989 H 93.4461 4.15716 0.178825 0
M  V30 990 H 92.3221 5.44686 0.678837 0
M  V30 991 H 92.5831 4.06685 1.73379 0
M  V30 992 N 91.6422 0.330177 1.54103 0
M  V30 993 C 92.8672 -0.274893 2.0557 0
M  V30 994 C 93.2922 -1.44487 1.20437 0
M  V30 995 O 92.6502 -1.80021 0.214991 0
M  V30 996 C 92.6982 -0.68079 3.54115 0
M  V30 997 O 91.8022 -1.7824 3.71893 0
M  V30 998 H 91.1432 -0.0483849 0.662235 0
M  V30 999 H 93.6732 0.480508 1.98878 0
M  V30 1000 H 93.6832 -0.961635 3.96505 0
M  V30 1001 H 92.3582 0.174903 4.15532 0
M  V30 1002 H 90.9352 -1.49985 3.41407 0
M  V30 1003 N 93.1203 -1.57491 0.0584922 0
M  V30 1004 C 94.3673 -1.92978 -0.613648 0
M  V30 1005 C 94.6953 -0.937461 -1.70417 0
M  V30 1006 O 93.9503 0.049078 -1.95638 0
M  V30 1007 C 94.2493 -3.3513 -1.24188 0
M  V30 1008 C 93.9153 -4.50037 -0.278826 0
M  V30 1009 C 92.5773 -4.81198 -0.0138447 0
M  V30 1010 C 94.9293 -5.19807 0.380777 0
M  V30 1011 C 92.2573 -5.79473 0.918052 0
M  V30 1012 C 94.6093 -6.19079 1.30091 0
M  V30 1013 C 93.2733 -6.48665 1.57449 0
M  V30 1014 H 92.5433 -0.706157 -0.22455 0
M  V30 1015 H 95.1903 -1.91082 0.126533 0
M  V30 1016 H 93.4953 -3.33429 -2.05749 0
M  V30 1017 H 95.1923 -3.59871 -1.769 0
M  V30 1018 H 91.7823 -4.25726 -0.495539 0
M  V30 1019 H 95.9663 -4.95939 0.189158 0
M  V30 1020 H 91.2223 -6.00727 1.1374 0
M  V30 1021 H 95.3963 -6.7225 1.81804 0
M  V30 1022 H 93.0233 -7.24628 2.29822 0
M  V30 1023 N 94.5984 0.214957 -1.56127 0
M  V30 1024 C 95.8474 0.936451 -1.78643 0
M  V30 1025 C 96.1604 1.85237 -0.628229 0
M  V30 1026 O 97.3664 2.613 -0.737186 0
M  V30 1027 C 95.8224 1.7154 -3.16389 0
M  V30 1028 C 95.4304 0.845299 -4.39953 0
M  V30 1029 C 97.1744 2.42772 -3.48227 0
M  V30 1030 C 95.0814 1.62198 -5.68723 0
M  V30 1031 H 94.0114 0.353401 -0.666051 0
M  V30 1032 H 96.6624 0.190169 -1.82512 0
M  V30 1033 H 95.0444 2.50484 -3.06715 0
M  V30 1034 H 96.2184 0.0959353 -4.607 0
M  V30 1035 H 94.5334 0.244789 -4.1568 0
M  V30 1036 H 97.1304 3.01394 -4.41663 0
M  V30 1037 H 97.4734 3.15984 -2.71035 0
M  V30 1038 H 98.0064 1.70813 -3.5926 0
M  V30 1039 H 94.7454 0.933011 -6.48826 0
M  V30 1040 H 94.2654 2.34579 -5.52026 0
M  V30 1041 H 95.9444 2.18095 -6.09133 0
M  V30 1042 N 96.0765 1.50051 0.48192 0
M  V30 1043 C 97.3535 1.51009 1.2432 0
M  V30 1044 C 97.7335 0.248587 2.09631 0
M  V30 1045 O 97.0815 -0.768409 2.15192 0
M  V30 1046 C 97.2915 2.79981 2.08355 0
M  V30 1047 C 98.6395 3.3022 2.66908 0
M  V30 1048 O 99.6635 2.81228 2.18607 0
M  V30 1049 O 98.5225 4.15595 3.54884 0
M  V30 1050 H 95.6165 0.605239 0.563573 0
M  V30 1051 H 98.1625 1.62332 0.494627 0
M  V30 1052 H 96.9345 3.63275 1.45419 0
M  V30 1053 H 96.5575 2.7161 2.90368 0
M  V30 1054 N 97.5546 -0.734337 1.39446 0
M  V30 1055 C 98.8016 -1.49391 1.36706 0
M  V30 1056 C 99.1296 -1.94465 -0.0367813 0
M  V30 1057 O 98.3846 -1.67154 -1.01774 0
M  V30 1058 C 98.6836 -2.74711 2.28623 0
M  V30 1059 C 98.3496 -2.48501 3.76242 0
M  V30 1060 C 97.0116 -2.41062 4.16464 0
M  V30 1061 C 99.3636 -2.26098 4.69606 0
M  V30 1062 C 96.6916 -2.09262 5.48112 0
M  V30 1063 C 99.0436 -1.95814 6.01531 0
M  V30 1064 C 97.7076 -1.86845 6.40816 0
M  V30 1065 H 96.9776 -0.546661 0.500243 0
M  V30 1066 H 99.6246 -0.842788 1.71957 0
M  V30 1067 H 97.9296 -3.44569 1.86492 0
M  V30 1068 H 99.6266 -3.32741 2.23796 0
M  V30 1069 H 96.2166 -2.55169 3.44364 0
M  V30 1070 H 100.401 -2.30812 4.39363 0
M  V30 1071 H 95.6566 -2.00841 5.77471 0
M  V30 1072 H 99.8306 -1.77488 6.73403 0
M  V30 1073 H 97.4576 -1.6197 7.42745 0
M  V30 1074 N 99.0327 -1.24633 -0.964593 0
M  V30 1075 C 99.9627 -1.06611 -2.07741 0
M  V30 1076 C 100.944 0.0218666 -1.70086 0
M  V30 1077 O 102.129 -0.145793 -1.93652 0
M  V30 1078 C 99.2587 -0.673444 -3.40708 0
M  V30 1079 C 98.2127 -1.71054 -3.92332 0
M  V30 1080 C 97.5387 -1.17285 -5.21678 0
M  V30 1081 C 98.8387 -3.10718 -4.19824 0
M  V30 1082 H 100.533 -1.99693 -2.23076 0
M  V30 1083 H 98.0787 -0.96152 -1.07195 0
M  V30 1084 H 100.032 -0.534345 -4.17998 0
M  V30 1085 H 98.7557 0.293073 -3.25282 0
M  V30 1086 H 97.4147 -1.83791 -3.17201 0
M  V30 1087 H 97.0627 -0.196847 -5.02615 0
M  V30 1088 H 96.7627 -1.86592 -5.57187 0
M  V30 1089 H 98.2867 -1.04593 -6.01575 0
M  V30 1090 H 99.7007 -3.01192 -4.87808 0
M  V30 1091 H 98.0977 -3.77406 -4.66567 0
M  V30 1092 H 99.1677 -3.58524 -3.26479 0
M  V30 1093 N 100.511 1.16574 -1.06058 0
M  V30 1094 C 101.76 1.86385 -0.770944 0
M  V30 1095 C 102.073 1.82448 0.705129 0
M  V30 1096 O 103.279 2.47815 1.10905 0
M  V30 1097 C 101.735 3.34466 -1.32893 0
M  V30 1098 C 101.343 3.46883 -2.83507 0
M  V30 1099 C 103.087 4.09548 -1.11672 0
M  V30 1100 C 100.994 4.89036 -3.32562 0
M  V30 1101 H 99.9238 0.698181 -0.284709 0
M  V30 1102 H 102.575 1.31583 -1.27899 0
M  V30 1103 H 100.957 3.88859 -0.748662 0
M  V30 1104 H 102.131 3.02663 -3.47465 0
M  V30 1105 H 100.446 2.85232 -3.03368 0
M  V30 1106 H 103.043 5.14434 -1.45814 0
M  V30 1107 H 103.386 4.16264 -0.0549535 0
M  V30 1108 H 103.919 3.61387 -1.66265 0
M  V30 1109 H 100.658 4.87499 -4.38207 0
M  V30 1110 H 100.178 5.3389 -2.73351 0
M  V30 1111 H 101.857 5.57843 -3.2775 0
M  V30 1112 N 101.989 0.842826 1.3317 0
M  V30 1113 C 103.217 0.454055 2.01856 0
M  V30 1114 C 103.632 -0.94587 1.63397 0
M  V30 1115 O 102.989 -1.61534 0.849302 0
M  V30 1116 C 103.04 0.569715 3.56982 0
M  V30 1117 O 102.761 1.91448 3.94055 0
M  V30 1118 C 104.262 0.178412 4.42941 0
M  V30 1119 H 101.482 0.17979 0.646465 0
M  V30 1120 H 104.026 1.1365 1.70012 0
M  V30 1121 H 102.181 -0.0648587 3.87346 0
M  V30 1122 H 102.595 1.90282 4.88767 0
M  V30 1123 H 104.069 0.310376 5.51127 0
M  V30 1124 H 104.546 -0.880056 4.30293 0
M  V30 1125 H 105.152 0.787579 4.17944 0
M  V30 1126 N 103.467 -1.45747 0.599634 0
M  V30 1127 C 104.415 -2.322 -0.136426 0
M  V30 1128 C 105.409 -1.45497 -0.867583 0
M  V30 1129 O 106.615 -1.62027 -0.78405 0
M  V30 1130 H 102.99 -0.749368 -0.0628588 0
M  V30 1131 H 104.961 -2.92072 0.611281 0
M  V30 1132 C 103.71 -3.28974 -1.12567 0
M  V30 1133 H 103.033 -3.9568 -0.572484 0
M  V30 1134 H 104.473 -3.92212 -1.61077 0
M  V30 1135 C 102.932 -2.55561 -2.19523 0
M  V30 1136 O 103.462 -2.33111 -3.27143 0
M  V30 1137 N 101.668 -2.15832 -1.94589 0
M  V30 1138 H 101.215 -2.3429 -1.07078 0
M  V30 1139 H 101.173 -1.67034 -2.66359 0
M  V30 1140 N 104.945 -0.338344 -1.53925 0
M  V30 1141 C 106.222 0.314774 -1.93051 0
M  V30 1142 C 106.602 1.68669 -1.26941 0
M  V30 1143 O 105.95 2.24636 -0.418445 0
M  V30 1144 C 106.16 0.392249 -3.46789 0
M  V30 1145 C 107.508 0.645554 -4.19664 0
M  V30 1146 O 108.532 0.474575 -3.53024 0
M  V30 1147 O 107.391 0.976408 -5.37707 0
M  V30 1148 H 104.485 0.182598 -0.80659 0
M  V30 1149 H 107.031 -0.389141 -1.65178 0
M  V30 1150 H 105.803 -0.570702 -3.87116 0
M  V30 1151 H 105.426 1.14316 -3.80812 0
M  V30 1152 N 106.423 1.57458 -0.0668435 0
M  V30 1153 C 107.67 1.93301 0.603406 0
M  V30 1154 C 107.998 0.946486 1.69917 0
M  V30 1155 O 107.253 -0.0387021 1.95662 0
M  V30 1156 C 107.552 3.35784 1.22409 0
M  V30 1157 C 107.218 4.50179 0.254955 0
M  V30 1158 C 105.88 4.81199 -0.0116746 0
M  V30 1159 C 108.232 5.19598 -0.408338 0
M  V30 1160 C 105.56 5.78978 -0.94877 0
M  V30 1161 C 107.912 6.18381 -1.33372 0
M  V30 1162 C 106.576 6.47821 -1.60887 0
M  V30 1163 H 105.846 0.707338 0.220802 0
M  V30 1164 H 108.493 1.91012 -0.136665 0
M  V30 1165 H 106.798 3.34515 2.03978 0
M  V30 1166 H 108.495 3.60804 1.74989 0
M  V30 1167 H 105.085 4.25983 0.472954 0
M  V30 1168 H 109.269 4.95832 -0.215456 0
M  V30 1169 H 104.525 6.00115 -1.16925 0
M  V30 1170 H 108.699 6.71277 -1.85367 0
M  V30 1171 H 106.326 7.23399 -2.33661 0
M  V30 1172 N 107.901 -0.206675 1.56239 0
M  V30 1173 C 109.126 -0.949474 1.8439 0
M  V30 1174 C 109.551 -1.76549 0.649016 0
M  V30 1175 O 108.909 -1.76782 -0.402231 0
M  V30 1176 C 108.957 -1.83078 3.10668 0
M  V30 1177 O 108.061 -2.9281 2.90407 0
M  V30 1178 H 107.402 -0.268033 0.607499 0
M  V30 1179 H 109.932 -0.215488 2.03462 0
M  V30 1180 H 109.942 -2.2377 3.41161 0
M  V30 1181 H 108.617 -1.23112 3.97261 0
M  V30 1182 H 107.194 -2.55956 2.71184 0
M  V30 1183 N 109.379 -1.50304 -0.473955 0
M  V30 1184 C 110.604 -1.65175 -1.25427 0
M  V30 1185 C 111.029 -0.333673 -1.85117 0
M  V30 1186 O 110.387 0.702114 -1.67153 0
M  V30 1187 C 110.435 -2.74295 -2.34082 0
M  V30 1188 O 109.539 -2.35349 -3.38651 0
M  V30 1189 H 108.88 -0.551944 -0.369126 0
M  V30 1190 H 111.41 -1.96662 -0.564364 0
M  V30 1191 H 111.42 -2.97285 -2.79438 0
M  V30 1192 H 110.095 -3.69959 -1.90008 0
M  V30 1193 H 108.672 -2.22794 -2.99027 0
M  V30 1194 N 110.857 0.726932 -1.39834 0
M  V30 1195 C 111.787 1.85405 -1.41941 0
M  V30 1196 C 112.768 1.67751 -0.281728 0
M  V30 1197 O 113.953 1.8795 -0.488717 0
M  V30 1198 C 111.083 3.23243 -1.2701 0
M  V30 1199 C 110.037 3.55549 -2.38262 0
M  V30 1200 C 109.363 4.9241 -2.08415 0
M  V30 1201 C 110.663 3.577 -3.80589 0
M  V30 1202 H 112.357 1.83899 -2.36266 0
M  V30 1203 H 109.903 0.883349 -1.13723 0
M  V30 1204 H 111.856 4.01775 -1.27103 0
M  V30 1205 H 110.58 3.25296 -0.291564 0
M  V30 1206 H 109.239 2.79351 -2.37399 0
M  V30 1207 H 108.887 4.91052 -1.0898 0
M  V30 1208 H 108.587 5.14992 -2.82943 0
M  V30 1209 H 110.111 5.73289 -2.10171 0
M  V30 1210 H 111.525 4.26293 -3.83337 0
M  V30 1211 H 109.922 3.91804 -4.54543 0
M  V30 1212 H 110.992 2.57328 -4.10987 0
M  V30 1213 N 112.336 1.25143 0.95797 0
M  V30 1214 C 113.747 1.08851 1.51685 0
M  V30 1215 C 114.098 -0.33687 1.93286 0
M  V30 1216 O 113.223 -1.22644 1.7829 0
M  V30 1217 C 113.818 1.96978 2.75654 0
M  V30 1218 C 112.377 1.84881 3.27866 0
M  V30 1219 C 111.524 1.91329 2.0072 0
M  V30 1220 H 114.475 1.38478 0.77522 0
M  V30 1221 H 114.496 1.5078 3.4935 0
M  V30 1222 H 114.008 3.00712 2.45345 0
M  V30 1223 H 112.109 0.840182 3.63004 0
M  V30 1224 H 112.222 2.6951 3.96107 0
M  V30 1225 H 110.586 1.35174 2.15871 0
M  V30 1226 H 111.369 2.96661 1.72764 0
M  V30 1227 N 113.814 -1.1601 1.06675 0
M  V30 1228 C 115.091 -1.82679 0.699114 0
M  V30 1229 C 115.471 -1.94559 -0.819137 0
M  V30 1230 O 114.819 -1.49169 -1.73092 0
M  V30 1231 C 115.029 -3.19445 1.40555 0
M  V30 1232 C 116.377 -3.95171 1.55323 0
M  V30 1233 O 117.401 -3.28976 1.36577 0
M  V30 1234 O 116.26 -5.13833 1.86112 0
M  V30 1235 H 113.354 -0.788954 0.247951 0
M  V30 1236 H 115.9 -1.23179 1.16726 0
M  V30 1237 H 114.672 -3.05856 2.44065 0
M  V30 1238 H 114.295 -3.86625 0.927733 0
M  V30 1239 N 115.292 -0.849877 -1.32721 0
M  V30 1240 C 116.54 -0.450032 -1.97026 0
M  V30 1241 C 116.861 0.996604 -1.67609 0
M  V30 1242 O 116.131 1.6958 -0.980786 0
M  V30 1243 H 114.711 -0.163426 -0.728904 0
M  V30 1244 H 117.373 -1.08526 -1.6189 0
M  V30 1245 H 116.469 -0.591146 -3.0645 0
M  V30 1246 N 116.77 1.45427 -0.607355 0
M  V30 1247 C 117.717 2.3053 0.111625 0
M  V30 1248 C 118.687 1.4209 0.860216 0
M  V30 1249 O 119.872 1.71019 0.845998 0
M  V30 1250 C 117.012 3.26992 1.10319 0
M  V30 1251 C 116.125 4.30535 0.355493 0
M  V30 1252 C 115.26 5.14105 1.33676 0
M  V30 1253 C 114.299 6.09376 0.576862 0
M  V30 1254 N 113.436 6.85727 1.5074 0
M  V30 1255 H 118.276 2.91477 -0.620093 0
M  V30 1256 H 115.813 1.43631 -0.317594 0
M  V30 1257 H 117.771 3.81385 1.6912 0
M  V30 1258 H 116.401 2.67799 1.80232 0
M  V30 1259 H 115.453 3.78805 -0.348023 0
M  V30 1260 H 116.765 4.98235 -0.237423 0
M  V30 1261 H 115.919 5.72897 1.99684 0
M  V30 1262 H 114.658 4.46423 1.9636 0
M  V30 1263 H 113.663 5.49715 -0.0968519 0
M  V30 1264 H 114.888 6.79085 -0.0449341 0
M  V30 1265 H 112.834 6.20735 2.12189 0
M  V30 1266 H 112.751 7.49778 0.967913 0
M  V30 1267 H 114.019 7.4906 2.15706 0
M  V30 1268 N 118.248 0.346503 1.53744 0
M  V30 1269 C 119.211 -0.496439 2.23759 0
M  V30 1270 C 120.211 -1.0252 1.2388 0
M  V30 1271 O 121.401 -0.913974 1.48297 0
M  V30 1272 C 118.533 -1.69187 2.95954 0
M  V30 1273 H 119.726 0.115952 2.99676 0
M  V30 1274 H 117.279 0.0978939 1.55993 0
M  V30 1275 H 118.014 -2.34288 2.24231 0
M  V30 1276 H 117.799 -1.31989 3.69217 0
M  V30 1277 H 119.289 -2.28969 3.49232 0
M  V30 1278 N 119.726 -1.57421 0.075193 0
M  V30 1279 C 120.975 -1.92794 -0.592731 0
M  V30 1280 C 121.288 -0.957478 -1.70563 0
M  V30 1281 O 122.494 -1.20417 -2.43335 0
M  V30 1282 C 120.95 -3.42495 -1.10569 0
M  V30 1283 C 120.558 -4.47994 -0.0236121 0
M  V30 1284 C 122.302 -3.86864 -1.74748 0
M  V30 1285 C 120.209 -5.88829 -0.550803 0
M  V30 1286 H 119.139 -0.719591 -0.225177 0
M  V30 1287 H 121.79 -1.82902 0.147978 0
M  V30 1288 H 120.172 -3.47471 -1.89947 0
M  V30 1289 H 121.346 -4.54637 0.751099 0
M  V30 1290 H 119.661 -4.13113 0.522159 0
M  V30 1291 H 122.258 -4.8947 -2.15229 0
M  V30 1292 H 122.601 -3.24417 -2.60882 0
M  V30 1293 H 123.134 -3.84504 -1.01986 0
M  V30 1294 H 119.873 -6.54929 0.273457 0
M  V30 1295 H 119.393 -5.85698 -1.29296 0
M  V30 1296 H 121.072 -6.38811 -1.02613 0
M  V30 1297 N 121.204 0.198386 -1.56346 0
M  V30 1298 C 122.434 0.934215 -1.84271 0
M  V30 1299 C 122.842 1.77496 -0.655125 0
M  V30 1300 O 122.185 1.7961 0.385488 0
M  V30 1301 C 122.247 1.88278 -3.06254 0
M  V30 1302 C 121.911 1.22431 -4.40295 0
M  V30 1303 C 122.908 0.602839 -5.16393 0
M  V30 1304 C 120.593 1.22915 -4.87029 0
M  V30 1305 C 122.587 -0.0050083 -6.374 0
M  V30 1306 C 120.274 0.617465 -6.07973 0
M  V30 1307 C 121.272 0.00146341 -6.83 0
M  V30 1308 O 120.96 -0.600642 -8.01653 0
M  V30 1309 H 120.692 0.278245 -0.616081 0
M  V30 1310 H 123.246 0.211626 -2.04307 0
M  V30 1311 H 121.476 2.64498 -2.82095 0
M  V30 1312 H 123.165 2.48612 -3.20853 0
M  V30 1313 H 123.931 0.591265 -4.81382 0
M  V30 1314 H 119.81 1.69801 -4.28589 0
M  V30 1315 H 123.354 -0.48643 -6.95902 0
M  V30 1316 H 119.251 0.62653 -6.42452 0
M  V30 1317 H 120.019 -0.497225 -8.16988 0
M  V30 1318 N 122.682 1.50554 0.465978 0
M  V30 1319 C 123.907 1.65838 1.24549 0
M  V30 1320 C 124.332 0.343486 1.84937 0
M  V30 1321 O 123.69 -0.69324 1.67523 0
M  V30 1322 C 123.738 2.75533 2.32624 0
M  V30 1323 O 122.842 2.37142 3.37398 0
M  V30 1324 H 122.183 0.553893 0.366194 0
M  V30 1325 H 124.713 1.96959 0.553927 0
M  V30 1326 H 124.723 2.98763 2.77857 0
M  V30 1327 H 123.398 3.70962 1.88043 0
M  V30 1328 H 121.975 2.24377 2.97841 0
M  V30 1329 N 124.16 -0.719506 1.40217 0
M  V30 1330 C 125.406 -1.48152 1.38488 0
M  V30 1331 C 125.739 -1.94195 -0.0141867 0
M  V30 1332 O 125.014 -1.67884 -0.982096 0
M  V30 1333 C 125.297 -2.71035 2.37091 0
M  V30 1334 C 125.15 -2.30912 3.86005 0
M  V30 1335 C 126.469 -3.73182 2.33288 0
M  V30 1336 H 123.588 -0.537395 0.504357 0
M  V30 1337 H 126.23 -0.821472 1.71324 0
M  V30 1338 H 124.38 -3.27352 2.0922 0
M  V30 1339 H 126.052 -1.80107 4.24687 0
M  V30 1340 H 124.295 -1.62958 4.02029 0
M  V30 1341 H 124.966 -3.18978 4.50508 0
M  V30 1342 H 127.442 -3.26485 2.57966 0
M  V30 1343 H 126.318 -4.56806 3.04334 0
M  V30 1344 H 126.579 -4.21202 1.34317 0
M  V30 1345 N 125.638 -1.25649 -0.95132 0
M  V30 1346 C 126.571 -1.00644 -2.04807 0
M  V30 1347 C 127.549 0.0654271 -1.62468 0
M  V30 1348 O 128.733 -0.074911 -1.88351 0
M  V30 1349 C 125.86 -0.522052 -3.34653 0
M  V30 1350 C 124.906 -1.58495 -3.95957 0
M  V30 1351 S 125.739 -3.17108 -4.31512 0
M  V30 1352 C 126.895 -2.70412 -5.64471 0
M  V30 1353 H 127.128 -1.93508 -2.25703 0
M  V30 1354 H 124.661 -1.09216 -1.09139 0
M  V30 1355 H 126.619 -0.24923 -4.09743 0
M  V30 1356 H 125.28 0.386146 -3.11717 0
M  V30 1357 H 124.473 -1.1968 -4.89584 0
M  V30 1358 H 124.075 -1.80862 -3.2736 0
M  V30 1359 H 126.367 -2.14245 -6.42733 0
M  V30 1360 H 127.31 -3.62693 -6.08161 0
M  V30 1361 H 127.718 -2.10302 -5.23864 0
M  V30 1362 N 127.117 1.15442 -1.07289 0
M  V30 1363 C 128.357 1.8788 -0.805012 0
M  V30 1364 C 128.721 1.80413 0.656907 0
M  V30 1365 O 129.922 2.47874 1.0398 0
M  V30 1366 C 128.193 3.3298 -1.29843 0
M  V30 1367 S 129.752 4.23158 -1.16114 0
M  V30 1368 H 126.57 0.64839 -0.291739 0
M  V30 1369 H 129.172 1.39285 -1.37186 0
M  V30 1370 H 127.876 3.35958 -2.35712 0
M  V30 1371 H 127.407 3.86629 -0.726767 0
M  V30 1372 H 129.422 4.96103 -0.0982778 0
M  V30 1373 N 128.595 0.856903 1.32268 0
M  V30 1374 C 129.543 0.291987 2.3076 0
M  V30 1375 C 130.537 -0.585857 1.58947 0
M  V30 1376 O 131.743 -0.47341 1.73663 0
M  V30 1377 H 128.118 0.075721 0.748178 0
M  V30 1378 H 130.089 1.13687 2.75895 0
M  V30 1379 C 128.838 -0.502869 3.44044 0
M  V30 1380 H 128.161 0.163328 3.99466 0
M  V30 1381 H 129.601 -0.863691 4.1511 0
M  V30 1382 C 128.06 -1.68898 2.91505 0
M  V30 1383 O 128.59 -2.78811 2.89184 0
M  V30 1384 N 126.796 -1.51679 2.47875 0
M  V30 1385 H 126.343 -0.622666 2.49961 0
M  V30 1386 H 126.301 -2.31184 2.13076 0
M  V30 1387 N 130.073 -1.45103 0.615059 0
M  V30 1388 C 130.983 -2.34382 -0.101034 0
M  V30 1389 C 131.999 -1.51681 -0.852585 0
M  V30 1390 O 133.175 -1.8446 -0.808484 0
M  V30 1391 C 130.24 -3.29417 -1.08099 0
M  V30 1392 C 129.301 -4.28025 -0.330577 0
M  V30 1393 C 128.534 -5.1852 -1.26385 0
M  V30 1394 O 128.757 -5.12598 -2.50198 0
M  V30 1395 O 127.691 -5.97122 -0.756866 0
M  V30 1396 H 131.517 -2.97033 0.632855 0
M  V30 1397 H 129.102 -1.4461 0.375293 0
M  V30 1398 H 130.984 -3.87958 -1.6452 0
M  V30 1399 H 129.659 -2.69321 -1.79577 0
M  V30 1400 H 128.566 -3.73078 0.276283 0
M  V30 1401 H 129.899 -4.90997 0.343866 0
M  V30 1402 N 131.551 -0.354651 -1.53558 0
M  V30 1403 C 132.499 0.512195 -2.26891 0
M  V30 1404 C 133.493 1.09263 -1.29452 0
M  V30 1405 O 134.699 1.03709 -1.47121 0
M  V30 1406 H 131.074 0.183878 -0.729173 0
M  V30 1407 H 133.045 -0.128202 -2.98124 0
M  V30 1408 C 131.794 1.64563 -3.06291 0
M  V30 1409 H 131.117 1.20829 -3.81104 0
M  V30 1410 H 132.557 2.22711 -3.60799 0
M  V30 1411 C 131.016 2.58158 -2.16462 0
M  V30 1412 O 131.546 3.60695 -1.76811 0
M  V30 1413 N 129.752 2.27096 -1.81317 0
M  V30 1414 H 129.299 1.43751 -2.1376 0
M  V30 1415 H 129.257 2.89975 -1.21498 0
M  V30 1416 N 133.029 1.57378 -0.0835403 0
M  V30 1417 C 134.277 1.93547 0.581718 0
M  V30 1418 C 134.598 0.96524 1.69435 0
M  V30 1419 O 133.868 0.0153369 1.95894 0
M  V30 1420 H 132.448 0.714521 0.217874 0
M  V30 1421 H 135.11 1.94366 -0.144158 0
M  V30 1422 H 134.206 2.95665 0.999423 0
M  V30 1423 N 134.507 -0.190092 1.56449 0
M  V30 1424 C 135.755 -0.907908 1.80559 0
M  V30 1425 C 136.076 -1.83583 0.657438 0
M  V30 1426 O 135.346 -1.93203 -0.323924 0
M  V30 1427 H 133.926 -0.338247 0.666032 0
M  V30 1428 H 136.588 -0.194403 1.93928 0
M  V30 1429 H 135.684 -1.49604 2.73907 0
M  V30 1430 N 135.985 -1.50799 -0.457987 0
M  V30 1431 C 137.234 -1.6168 -1.20593 0
M  V30 1432 C 137.547 -0.32888 -1.92815 0
M  V30 1433 O 138.753 -0.316773 -2.69646 0
M  V30 1434 C 137.209 -2.8545 -2.19195 0
M  V30 1435 C 136.817 -4.21168 -1.52715 0
M  V30 1436 C 138.561 -3.05681 -2.94549 0
M  V30 1437 C 136.468 -5.3611 -2.4968 0
M  V30 1438 H 135.398 -0.602134 -0.453818 0
M  V30 1439 H 138.049 -1.77245 -0.475031 0
M  V30 1440 H 136.431 -2.63472 -2.95632 0
M  V30 1441 H 137.605 -4.53449 -0.819775 0
M  V30 1442 H 135.92 -4.06648 -0.895922 0
M  V30 1443 H 138.517 -3.88727 -3.67145 0
M  V30 1444 H 138.86 -2.17929 -3.54701 0
M  V30 1445 H 139.393 -3.27901 -2.25223 0
M  V30 1446 H 136.132 -6.26057 -1.94249 0
M  V30 1447 H 135.652 -5.0823 -3.18532 0
M  V30 1448 H 137.331 -5.6722 -3.11241 0
M  V30 1449 N 137.463 0.71206 -1.40597 0
M  V30 1450 C 138.712 1.46754 -1.38369 0
M  V30 1451 C 139.025 1.95598 0.0097839 0
M  V30 1452 O 140.231 2.71059 0.154677 0
M  V30 1453 C 138.687 2.65289 -2.43207 0
M  V30 1454 C 138.295 2.23301 -3.88382 0
M  V30 1455 C 140.039 3.43008 -2.50091 0
M  V30 1456 C 137.946 3.38696 -4.84808 0
M  V30 1457 H 136.876 0.55118 -0.514506 0
M  V30 1458 H 139.527 0.774616 -1.66349 0
M  V30 1459 H 137.909 3.36769 -2.08332 0
M  V30 1460 H 139.083 1.59218 -4.32419 0
M  V30 1461 H 137.398 1.58618 -3.85006 0
M  V30 1462 H 139.995 4.28881 -3.1932 0
M  V30 1463 H 140.338 3.87065 -1.53253 0
M  V30 1464 H 140.871 2.78574 -2.83974 0
M  V30 1465 H 137.61 2.99668 -5.82992 0
M  V30 1466 H 137.13 4.01683 -4.45433 0
M  V30 1467 H 138.809 4.04712 -5.04794 0
M  V30 1468 N 138.941 1.26152 0.944643 0
M  V30 1469 C 140.218 1.02247 1.66748 0
M  V30 1470 C 140.598 -0.448202 2.06287 0
M  V30 1471 O 139.946 -1.42779 1.78399 0
M  V30 1472 C 140.156 1.96788 2.88228 0
M  V30 1473 C 141.504 2.25201 3.59958 0
M  V30 1474 O 142.528 1.94626 2.98327 0
M  V30 1475 O 141.387 2.77242 4.70956 0
M  V30 1476 H 138.481 0.388517 0.730057 0
M  V30 1477 H 141.027 1.37348 0.99668 0
M  V30 1478 H 139.799 2.96047 2.55875 0
M  V30 1479 H 139.422 1.62145 3.63035 0
M  V30 1480 N 140.419 -1.14872 1.07899 0
M  V30 1481 C 141.696 -1.81928 0.71845 0
M  V30 1482 C 142.076 -1.95417 -0.798455 0
M  V30 1483 O 141.424 -1.50997 -1.715 0
M  V30 1484 C 141.634 -3.17937 1.43935 0
M  V30 1485 C 142.982 -3.93501 1.59506 0
M  V30 1486 O 144.006 -3.27509 1.40058 0
M  V30 1487 O 142.865 -5.1183 1.91551 0
M  V30 1488 H 139.959 -0.78628 0.256305 0
M  V30 1489 H 142.505 -1.21934 1.18026 0
M  V30 1490 H 141.277 -3.0325 2.47295 0
M  V30 1491 H 140.9 -3.85619 0.968687 0
M  V30 1492 N 141.898 -0.863906 -1.31812 0
M  V30 1493 C 142.828 -0.330843 -2.31144 0
M  V30 1494 C 143.809 0.575005 -1.60087 0
M  V30 1495 O 144.994 0.493304 -1.8783 0
M  V30 1496 C 142.124 0.47374 -3.44054 0
M  V30 1497 C 141.078 -0.338481 -4.26659 0
M  V30 1498 C 140.404 0.591412 -5.31419 0
M  V30 1499 C 141.704 -1.56926 -4.98168 0
M  V30 1500 H 143.398 -1.16086 -2.75979 0
M  V30 1501 H 140.944 -0.559657 -1.32679 0
M  V30 1502 H 142.897 0.857143 -4.12591 0
M  V30 1503 H 141.621 1.33721 -2.9797 0
M  V30 1504 H 140.28 -0.703754 -3.59782 0
M  V30 1505 H 139.928 1.45199 -4.81587 0
M  V30 1506 H 139.628 0.0519022 -5.87577 0
M  V30 1507 H 141.152 0.97179 -6.02817 0
M  V30 1508 H 142.566 -1.25764 -5.59336 0
M  V30 1509 H 140.963 -2.04739 -5.64094 0
M  V30 1510 H 142.033 -2.32544 -4.25501 0
M  V30 1511 N 143.376 1.44774 -0.622745 0
M  V30 1512 C 144.622 2.0242 -0.124083 0
M  V30 1513 C 144.955 1.4881 1.24777 0
M  V30 1514 O 144.23 0.668799 1.8264 0
M  V30 1515 C 144.513 3.59957 -0.101619 0
M  V30 1516 C 144.366 4.23867 -1.50521 0
M  V30 1517 C 145.685 4.36284 0.578272 0
M  V30 1518 H 142.804 0.735528 -0.0465645 0
M  V30 1519 H 145.446 1.72447 -0.797617 0
M  V30 1520 H 143.596 3.85623 0.471934 0
M  V30 1521 H 145.268 4.09336 -2.12701 0
M  V30 1522 H 143.511 3.81684 -2.06154 0
M  V30 1523 H 144.182 5.32843 -1.4416 0
M  V30 1524 H 146.658 4.16001 0.0906057 0
M  V30 1525 H 145.534 5.46004 0.563149 0
M  V30 1526 H 145.795 4.10271 1.64713 0
M  V30 1527 N 144.854 0.36279 1.53368 0
M  V30 1528 C 146.1 -0.228113 2.01513 0
M  V30 1529 C 146.433 -1.48648 1.2497 0
M  V30 1530 O 145.708 -1.91459 0.342616 0
M  V30 1531 C 145.991 -0.522884 3.56284 0
M  V30 1532 C 145.844 0.74892 4.43521 0
M  V30 1533 C 147.163 -1.32461 4.19693 0
M  V30 1534 H 144.282 -0.0814343 0.732487 0
M  V30 1535 H 146.924 0.48713 1.83649 0
M  V30 1536 H 145.074 -1.1322 3.71636 0
M  V30 1537 H 146.746 1.38648 4.39971 0
M  V30 1538 H 144.989 1.36986 4.11603 0
M  V30 1539 H 145.66 0.497667 5.49752 0
M  V30 1540 H 148.136 -0.809203 4.08156 0
M  V30 1541 H 147.012 -1.49961 5.28018 0
M  V30 1542 H 147.273 -2.33232 3.75573 0
M  V30 1543 N 146.332 -1.57332 0.0918853 0
M  V30 1544 C 147.562 -1.98286 -0.580205 0
M  V30 1545 C 147.97 -0.969713 -1.6246 0
M  V30 1546 O 147.313 0.0493501 -1.83634 0
M  V30 1547 C 147.375 -3.35603 -1.28882 0
M  V30 1548 C 147.039 -4.55285 -0.395559 0
M  V30 1549 C 148.036 -5.18687 0.355002 0
M  V30 1550 C 145.721 -5.01314 -0.314556 0
M  V30 1551 C 147.715 -6.26484 1.17458 0
M  V30 1552 C 145.402 -6.08979 0.508677 0
M  V30 1553 C 146.4 -6.71429 1.2519 0
M  V30 1554 O 146.088 -7.77018 2.06151 0
M  V30 1555 H 145.82 -0.656678 -0.160466 0
M  V30 1556 H 148.374 -2.04721 0.16688 0
M  V30 1557 H 146.604 -3.25842 -2.08241 0
M  V30 1558 H 148.293 -3.61026 -1.85512 0
M  V30 1559 H 149.059 -4.84058 0.302134 0
M  V30 1560 H 144.938 -4.5247 -0.882697 0
M  V30 1561 H 148.482 -6.75159 1.75518 0
M  V30 1562 H 144.379 -6.4304 0.563037 0
M  V30 1563 H 145.147 -7.93991 1.98799 0
M  V30 1564 N 147.81 0.181792 -1.56548 0
M  V30 1565 C 148.757 1.22521 -1.95595 0
M  V30 1566 C 149.727 1.4454 -0.818373 0
M  V30 1567 O 150.912 1.57454 -1.07763 0
M  V30 1568 C 148.052 2.56193 -2.31212 0
M  V30 1569 C 147.165 2.41641 -3.58097 0
M  V30 1570 C 146.3 3.68108 -3.82975 0
M  V30 1571 C 145.339 3.48445 -5.03242 0
M  V30 1572 N 144.476 4.66956 -5.24306 0
M  V30 1573 H 149.316 0.885226 -2.84548 0
M  V30 1574 H 146.853 0.425718 -1.40805 0
M  V30 1575 H 148.811 3.34088 -2.49882 0
M  V30 1576 H 147.441 2.88208 -1.45382 0
M  V30 1577 H 146.493 1.54976 -3.474 0
M  V30 1578 H 147.805 2.23052 -4.46149 0
M  V30 1579 H 146.959 4.54441 -4.01956 0
M  V30 1580 H 145.698 3.89666 -2.93278 0
M  V30 1581 H 144.703 2.60499 -4.8417 0
M  V30 1582 H 145.928 3.2832 -5.9446 0
M  V30 1583 H 143.874 4.88752 -4.37559 0
M  V30 1584 H 143.791 4.51242 -6.06561 0
M  V30 1585 H 145.059 5.54602 -5.47756 0
M  V30 1586 N 149.288 1.51039 0.449983 0
M  V30 1587 C 150.534 1.63322 1.20223 0
M  V30 1588 C 150.867 0.34241 1.91158 0
M  V30 1589 O 150.142 -0.657344 1.83055 0
M  V30 1590 C 150.425 2.82801 2.22925 0
M  V30 1591 C 150.278 4.21823 1.56157 0
M  V30 1592 C 151.597 2.97807 3.24035 0
M  V30 1593 H 148.716 0.594407 0.435718 0
M  V30 1594 H 151.358 1.83489 0.493136 0
M  V30 1595 H 149.508 2.65738 2.834 0
M  V30 1596 H 151.18 4.50526 0.991162 0
M  V30 1597 H 149.423 4.25105 0.864172 0
M  V30 1598 H 150.094 5.01391 2.30891 0
M  V30 1599 H 152.57 3.13497 2.73603 0
M  V30 1600 H 151.446 3.82992 3.93202 0
M  V30 1601 H 151.707 2.09328 3.89402 0
M  V30 1602 N 150.766 -0.704594 1.40972 0
M  V30 1603 C 151.991 -1.49858 1.43378 0
M  V30 1604 C 152.416 -1.88061 0.038184 0
M  V30 1605 O 151.774 -1.5402 -0.956425 0
M  V30 1606 C 151.822 -2.74333 2.34038 0
M  V30 1607 O 150.926 -3.7147 1.7912 0
M  V30 1608 H 150.267 -0.45139 0.486974 0
M  V30 1609 H 152.797 -0.866832 1.8533 0
M  V30 1610 H 152.807 -3.22741 2.49604 0
M  V30 1611 H 151.482 -2.45863 3.35446 0
M  V30 1612 H 150.059 -3.30363 1.72958 0
M  V30 1613 N 152.244 -1.26651 -0.937939 0
M  V30 1614 C 153.655 -1.1125 -1.49934 0
M  V30 1615 C 154.006 0.306077 -1.93798 0
M  V30 1616 O 153.131 1.19792 -1.80219 0
M  V30 1617 C 153.726 -2.01339 -2.72485 0
M  V30 1618 C 152.285 -1.90074 -3.24883 0
M  V30 1619 C 151.432 -1.94498 -1.97651 0
M  V30 1620 H 154.383 -1.39693 -0.753091 0
M  V30 1621 H 154.404 -1.56319 -3.46907 0
M  V30 1622 H 153.916 -3.04577 -2.40529 0
M  V30 1623 H 152.017 -0.897827 -3.61621 0
M  V30 1624 H 152.13 -2.75778 -3.9177 0
M  V30 1625 H 150.494 -1.38591 -2.13693 0
M  V30 1626 H 151.277 -2.99372 -1.68022 0
M  V30 1627 N 153.722 1.14298 -1.08507 0
M  V30 1628 C 154.999 1.81544 -0.728088 0
M  V30 1629 C 155.379 1.95838 0.78808 0
M  V30 1630 O 154.727 1.51904 1.70697 0
M  V30 1631 C 154.937 3.17169 -1.45619 0
M  V30 1632 C 156.285 3.9265 -1.61591 0
M  V30 1633 O 157.309 3.26762 -1.41793 0
M  V30 1634 O 156.168 5.10807 -1.94263 0
M  V30 1635 H 153.262 0.78491 -0.260471 0
M  V30 1636 H 155.808 1.21307 -1.18671 0
M  V30 1637 H 154.58 3.01934 -2.489 0
M  V30 1638 H 154.203 3.851 -0.989124 0
M  V30 1639 N 155.201 0.870884 1.31352 0
M  V30 1640 C 156.111 0.330783 2.32256 0
M  V30 1641 C 157.127 -0.559767 1.6475 0
M  V30 1642 O 158.303 -0.456263 1.96164 0
M  V30 1643 C 155.368 -0.458137 3.4366 0
M  V30 1644 C 154.429 0.460482 4.26823 0
M  V30 1645 C 153.662 -0.290881 5.32907 0
M  V30 1646 O 153.885 -1.51885 5.49806 0
M  V30 1647 O 152.819 0.351732 6.00871 0
M  V30 1648 H 156.645 1.16718 2.80376 0
M  V30 1649 H 154.23 0.634285 1.35267 0
M  V30 1650 H 156.112 -0.905343 4.1156 0
M  V30 1651 H 154.787 -1.27106 2.97701 0
M  V30 1652 H 153.694 0.956207 3.61673 0
M  V30 1653 H 155.027 1.23903 4.7635 0
M  V30 1654 N 156.679 -1.44442 0.630414 0
M  V30 1655 C 157.642 -2.29107 -0.0652523 0
M  V30 1656 C 158.642 -1.41002 -0.772995 0
M  V30 1657 O 159.832 -1.62881 -0.617692 0
M  V30 1658 C 156.964 -3.22564 -1.10296 0
M  V30 1659 H 158.157 -2.92103 0.679401 0
M  V30 1660 H 155.71 -1.51343 0.390517 0
M  V30 1661 H 156.445 -2.64416 -1.87762 0
M  V30 1662 H 156.23 -3.87491 -0.59941 0
M  V30 1663 H 157.72 -3.86167 -1.5895 0
M  V30 1664 N 158.157 -0.370918 -1.53173 0
M  V30 1665 C 159.087 0.464847 -2.28826 0
M  V30 1666 C 160.068 1.07936 -1.31468 0
M  V30 1667 O 161.253 1.0956 -1.60344 0
M  V30 1668 C 158.383 1.60196 -3.08147 0
M  V30 1669 C 157.337 1.11443 -4.13237 0
M  V30 1670 C 156.663 2.3422 -4.80672 0
M  V30 1671 C 157.963 0.195384 -5.21934 0
M  V30 1672 H 159.657 -0.166329 -2.98938 0
M  V30 1673 H 157.203 -0.0814359 -1.4377 0
M  V30 1674 H 159.156 2.19332 -3.59822 0
M  V30 1675 H 157.88 2.26045 -2.35735 0
M  V30 1676 H 156.539 0.545727 -3.62515 0
M  V30 1677 H 156.187 2.98537 -4.04827 0
M  V30 1678 H 155.887 2.02269 -5.51689 0
M  V30 1679 H 157.411 2.94032 -5.35143 0
M  V30 1680 H 158.825 0.694375 -5.69079 0
M  V30 1681 H 157.222 -0.0335027 -6.00091 0
M  V30 1682 H 158.292 -0.760961 -4.78892 0
M  V30 1683 N 159.635 1.57281 -0.100228 0
M  V30 1684 C 160.568 2.09976 0.893612 0
M  V30 1685 C 161.546 1.01155 1.27304 0
M  V30 1686 O 162.73 1.28687 1.37739 0
M  V30 1687 C 159.857 2.58098 2.19324 0
M  V30 1688 C 158.903 3.78626 1.96328 0
M  V30 1689 S 159.736 5.21959 1.19662 0
M  V30 1690 C 160.892 5.73435 2.50844 0
M  V30 1691 H 161.125 2.93946 0.44534 0
M  V30 1692 H 158.658 1.53985 0.113167 0
M  V30 1693 H 160.616 2.8648 2.94005 0
M  V30 1694 H 159.277 1.74344 2.61272 0
M  V30 1695 H 158.47 4.10382 2.92579 0
M  V30 1696 H 158.072 3.50763 1.29775 0
M  V30 1697 H 160.364 5.82015 3.46792 0
M  V30 1698 H 161.307 6.7185 2.23659 0
M  V30 1699 H 161.715 5.01395 2.59352 0
M  V30 1700 N 161.113 -0.173488 1.56642 0
M  V30 1701 C 162.359 -0.891784 1.8214 0
M  V30 1702 C 162.692 -1.8199 0.677736 0
M  V30 1703 O 161.967 -1.91842 -0.320446 0
M  V30 1704 C 162.25 -1.68933 3.18015 0
M  V30 1705 C 162.103 -0.784487 4.42906 0
M  V30 1706 C 163.422 -2.65748 3.50808 0
M  V30 1707 H 160.541 -0.322761 0.662567 0
M  V30 1708 H 163.183 -0.158095 1.89341 0
M  V30 1709 H 161.333 -2.31482 3.12007 0
M  V30 1710 H 163.005 -0.172046 4.60979 0
M  V30 1711 H 161.248 -0.0924117 4.33702 0
M  V30 1712 H 161.919 -1.37799 5.34524 0
M  V30 1713 H 164.395 -2.13327 3.57255 0
M  V30 1714 H 163.271 -3.18619 4.4696 0
M  V30 1715 H 163.532 -3.45842 2.75401 0
M  V30 1716 N 162.591 -1.51276 -0.441967 0
M  V30 1717 C 163.837 -1.63958 -1.19355 0
M  V30 1718 C 164.17 -0.352543 -1.90973 0
M  V30 1719 O 163.445 0.647627 -1.83401 0
M  V30 1720 C 163.728 -2.83979 -2.21422 0
M  V30 1721 C 163.581 -4.22646 -1.53918 0
M  V30 1722 C 164.9 -2.99521 -3.22451 0
M  V30 1723 H 162.019 -0.596709 -0.432559 0
M  V30 1724 H 164.661 -1.83748 -0.483398 0
M  V30 1725 H 162.811 -2.67237 -2.81987 0
M  V30 1726 H 164.483 -4.51045 -0.967256 0
M  V30 1727 H 162.726 -4.25558 -0.841615 0
M  V30 1728 H 163.397 -5.02609 -2.28229 0
M  V30 1729 H 165.873 -3.14944 -2.71937 0
M  V30 1730 H 164.749 -3.85072 -3.91166 0
M  V30 1731 H 165.01 -2.11391 -3.88287 0
M  V30 1732 N 164.069 0.697108 -1.41344 0
M  V30 1733 C 165.017 1.83237 -1.43272 0
M  V30 1734 C 166.011 1.66522 -0.310947 0
M  V30 1735 O 167.217 1.73402 -0.482899 0
M  V30 1736 H 163.592 0.603802 -0.448249 0
M  V30 1737 H 165.563 1.78727 -2.38954 0
M  V30 1738 C 164.312 3.21245 -1.33029 0
M  V30 1739 H 163.635 3.34723 -2.18633 0
M  V30 1740 H 165.075 4.00763 -1.38439 0
M  V30 1741 C 163.534 3.36873 -0.0424635 0
M  V30 1742 O 164.064 3.91177 0.913421 0
M  V30 1743 N 162.27 2.90581 0.0331145 0
M  V30 1744 H 161.817 2.46577 -0.745506 0
M  V30 1745 H 161.775 3.01416 0.894199 0
M  V30 1746 N 165.547 1.27147 0.931209 0
M  V30 1747 C 166.51 1.09615 2.01289 0
M  V30 1748 C 167.51 0.0412581 1.60747 0
M  V30 1749 O 168.7 0.285545 1.71844 0
M  V30 1750 C 165.832 0.669447 3.34262 0
M  V30 1751 H 167.025 2.05662 2.18273 0
M  V30 1752 H 164.578 1.09885 1.11153 0
M  V30 1753 H 165.313 -0.292572 3.22978 0
M  V30 1754 H 165.098 1.43127 3.65044 0
M  V30 1755 H 166.588 0.568921 4.13706 0
M  V30 1756 N 167.025 -1.13721 1.09112 0
M  V30 1757 C 167.988 -2.17222 0.731241 0
M  V30 1758 C 168.988 -1.59035 -0.237566 0
M  V30 1759 O 170.178 -1.74192 -0.0161704 0
M  V30 1760 C 167.31 -3.40804 0.0808443 0
M  V30 1761 H 168.503 -2.50573 1.64783 0
M  V30 1762 H 166.056 -1.28493 0.889897 0
M  V30 1763 H 166.791 -3.1304 -0.847127 0
M  V30 1764 H 166.576 -3.84306 0.777896 0
M  V30 1765 H 168.066 -4.1731 -0.155657 0
M  V30 1766 N 168.503 -0.877838 -1.30888 0
M  V30 1767 C 169.451 -0.328662 -2.30266 0
M  V30 1768 C 170.445 0.560496 -1.59859 0
M  V30 1769 O 171.651 0.445722 -1.74394 0
M  V30 1770 H 168.026 -0.0876142 -0.746879 0
M  V30 1771 H 169.997 -1.18061 -2.74051 0
M  V30 1772 C 168.746 0.448071 -3.44801 0
M  V30 1773 H 168.069 -0.226859 -3.99156 0
M  V30 1774 H 169.509 0.797541 -4.16432 0
M  V30 1775 C 167.968 1.64239 -2.94155 0
M  V30 1776 O 168.498 2.74175 -2.93583 0
M  V30 1777 N 166.704 1.47716 -2.50256 0
M  V30 1778 H 166.251 0.582821 -2.5092 0
M  V30 1779 H 166.209 2.27765 -2.16727 0
M  V30 1780 N 169.982 1.44106 -0.638065 0
M  V30 1781 C 171.231 2.01194 -0.142744 0
M  V30 1782 C 171.544 1.50835 1.24532 0
M  V30 1783 O 172.75 2.00096 1.83504 0
M  V30 1784 C 171.206 3.59319 -0.20442 0
M  V30 1785 C 170.814 4.18674 -1.59423 0
M  V30 1786 C 172.558 4.23854 0.234079 0
M  V30 1787 C 170.465 5.69045 -1.61065 0
M  V30 1788 H 169.395 0.752367 -0.0495998 0
M  V30 1789 H 172.046 1.65246 -0.797881 0
M  V30 1790 H 170.428 3.92598 0.517946 0
M  V30 1791 H 171.602 3.96921 -2.34074 0
M  V30 1792 H 169.917 3.66453 -1.97741 0
M  V30 1793 H 172.514 5.34155 0.241443 0
M  V30 1794 H 172.857 3.96688 1.2627 0
M  V30 1795 H 173.39 3.95403 -0.436025 0
M  V30 1796 H 170.129 6.00956 -2.61787 0
M  V30 1797 H 169.649 5.929 -0.90718 0
M  V30 1798 H 171.328 6.32809 -1.34766 0
M  V30 1799 N 171.46 0.379036 1.52974 0
M  V30 1800 C 172.37 -0.468639 2.29872 0
M  V30 1801 C 173.386 -1.08067 1.36373 0
M  V30 1802 O 174.562 -1.08871 1.69438 0
M  V30 1803 C 171.627 -1.58594 3.083 0
M  V30 1804 C 170.688 -1.00007 4.17489 0
M  V30 1805 C 169.921 -2.06413 4.92168 0
M  V30 1806 O 170.144 -3.27751 4.66835 0
M  V30 1807 O 169.078 -1.68717 5.7777 0
M  V30 1808 H 172.904 0.157508 3.03291 0
M  V30 1809 H 170.489 0.143035 1.48714 0
M  V30 1810 H 172.371 -2.23525 3.57232 0
M  V30 1811 H 171.046 -2.19724 2.37703 0
M  V30 1812 H 169.953 -0.314299 3.72777 0
M  V30 1813 H 171.286 -0.433135 4.90291 0
M  V30 1814 N 172.938 -1.57226 0.108567 0
M  V30 1815 C 173.885 -2.14756 -0.845481 0
M  V30 1816 C 174.855 -1.06971 -1.27068 0
M  V30 1817 O 176.04 -1.34827 -1.35005 0
M  V30 1818 C 173.18 -2.74298 -2.09415 0
M  V30 1819 C 172.293 -3.96358 -1.71826 0
M  V30 1820 C 171.428 -4.44021 -2.9158 0
M  V30 1821 C 170.467 -5.58637 -2.50181 0
M  V30 1822 N 169.604 -6.01091 -3.62814 0
M  V30 1823 H 174.444 -2.95961 -0.348035 0
M  V30 1824 H 171.981 -1.46226 -0.160106 0
M  V30 1825 H 173.939 -3.06945 -2.82561 0
M  V30 1826 H 172.569 -1.95801 -2.56636 0
M  V30 1827 H 171.621 -3.69939 -0.885947 0
M  V30 1828 H 172.933 -4.79504 -1.37394 0
M  V30 1829 H 172.087 -4.78522 -3.72963 0
M  V30 1830 H 170.826 -3.59803 -3.29231 0
M  V30 1831 H 169.831 -5.23751 -1.67228 0
M  V30 1832 H 171.056 -6.44613 -2.13659 0
M  V30 1833 H 169.002 -5.19817 -4.00158 0
M  V30 1834 H 168.919 -6.79066 -3.32273 0
M  V30 1835 H 170.187 -6.40227 -4.44668 0
M  V30 1836 N 174.416 0.165178 -1.56732 0
M  V30 1837 C 175.693 0.908443 -1.73224 0
M  V30 1838 C 176.073 2.0013 -0.67165 0
M  V30 1839 O 175.421 2.26353 0.31253 0
M  V30 1840 C 175.631 1.46756 -3.16644 0
M  V30 1841 C 176.979 1.93809 -3.77787 0
M  V30 1842 O 178.003 1.56537 -3.1996 0
M  V30 1843 O 176.862 2.62486 -4.79336 0
M  V30 1844 H 173.956 0.428025 -0.707618 0
M  V30 1845 H 176.502 0.152526 -1.69013 0
M  V30 1846 H 175.274 0.68129 -3.85323 0
M  V30 1847 H 174.897 2.28749 -3.25207 0
M  V30 1848 N 175.894 1.51508 0.433938 0
M  V30 1849 C 177.141 1.64345 1.18309 0
M  V30 1850 C 177.469 0.361315 1.91115 0
M  V30 1851 O 176.724 -0.654753 1.84422 0
M  V30 1852 C 177.023 2.79928 2.22205 0
M  V30 1853 C 176.689 4.19078 1.66387 0
M  V30 1854 C 175.351 4.56932 1.50887 0
M  V30 1855 C 177.703 5.05894 1.25381 0
M  V30 1856 C 175.031 5.79305 0.928608 0
M  V30 1857 C 177.383 6.2885 0.687823 0
M  V30 1858 C 176.047 6.65473 0.519755 0
M  V30 1859 H 175.317 0.601381 0.432923 0
M  V30 1860 H 177.964 1.85549 0.473676 0
M  V30 1861 H 176.269 2.52959 2.99197 0
M  V30 1862 H 177.966 2.87059 2.79997 0
M  V30 1863 H 174.556 3.89234 1.79428 0
M  V30 1864 H 178.74 4.77253 1.36175 0
M  V30 1865 H 173.996 6.06324 0.786186 0
M  V30 1866 H 178.17 6.95461 0.361581 0
M  V30 1867 H 175.797 7.6017 0.0679979 0
M  V30 1868 N 177.372 -0.689602 1.41712 0
M  V30 1869 C 178.32 -1.82475 1.44242 0
M  V30 1870 C 179.314 -1.66354 0.319774 0
M  V30 1871 O 180.52 -1.73143 0.492089 0
M  V30 1872 H 176.895 -0.601416 0.451445 0
M  V30 1873 H 178.866 -1.77458 2.39899 0
M  V30 1874 C 177.615 -3.20535 1.3473 0
M  V30 1875 H 176.938 -3.33559 2.20405 0
M  V30 1876 H 178.378 -4.00023 1.40562 0
M  V30 1877 C 176.837 -3.36846 0.0603281 0
M  V30 1878 O 177.367 -3.91656 -0.892663 0
M  V30 1879 N 175.573 -2.90595 -0.0177039 0
M  V30 1880 H 175.12 -2.46178 0.758572 0
M  V30 1881 H 175.078 -3.01886 -0.878201 0
M  V30 1882 N 178.85 -1.27639 -0.924453 0
M  V30 1883 C 180.096 -1.15345 -1.67532 0
M  V30 1884 C 180.451 0.297096 -1.90092 0
M  V30 1885 O 179.744 1.21374 -1.48253 0
M  V30 1886 C 179.938 -1.87407 -3.04325 0
M  V30 1887 C 179.767 -3.3932 -2.95114 0
M  V30 1888 C 178.537 -4.08644 -2.97218 0
M  V30 1889 C 180.735 -4.35242 -2.73987 0
M  V30 1890 N 178.717 -5.47102 -2.78482 0
M  V30 1891 C 180.088 -5.6099 -2.63988 0
M  V30 1892 C 182.143 -4.25294 -2.589 0
M  V30 1893 C 180.846 -6.77924 -2.40442 0
M  V30 1894 C 182.872 -5.41952 -2.36731 0
M  V30 1895 C 182.234 -6.66658 -2.27478 0
M  V30 1896 H 178.333 -0.47696 -0.619704 0
M  V30 1897 H 180.917 -1.6115 -1.09265 0
M  V30 1898 H 179.088 -1.44053 -3.60699 0
M  V30 1899 H 180.82 -1.6759 -3.68369 0
M  V30 1900 H 177.575 -3.60136 -3.07569 0
M  V30 1901 H 177.999 -6.19852 -2.72236 0
M  V30 1902 H 182.641 -3.29598 -2.64811 0
M  V30 1903 H 180.359 -7.73699 -2.3327 0
M  V30 1904 H 183.945 -5.36137 -2.25938 0
M  V30 1905 H 182.825 -7.55405 -2.10555 0
M  V30 1906 N 180.328 1.1314 -1.09713 0
M  V30 1907 C 181.577 1.83838 -0.829851 0
M  V30 1908 C 181.89 1.84599 0.646728 0
M  V30 1909 O 183.096 2.51218 1.02965 0
M  V30 1910 C 181.552 3.30069 -1.43466 0
M  V30 1911 C 181.16 3.37688 -2.94399 0
M  V30 1912 C 182.904 4.05788 -1.24645 0
M  V30 1913 C 180.811 4.78209 -3.47952 0
M  V30 1914 H 179.741 0.68877 -0.306777 0
M  V30 1915 H 182.392 1.27448 -1.3202 0
M  V30 1916 H 180.774 3.8628 -0.871996 0
M  V30 1917 H 181.948 2.91456 -3.56918 0
M  V30 1918 H 180.263 2.75436 -3.12289 0
M  V30 1919 H 182.86 5.09535 -1.62107 0
M  V30 1920 H 183.203 4.15878 -0.187357 0
M  V30 1921 H 183.736 3.55915 -1.77678 0
M  V30 1922 H 180.475 4.73311 -4.53495 0
M  V30 1923 H 179.995 5.24924 -2.90198 0
M  V30 1924 H 181.674 5.47133 -3.45332 0
M  V30 1925 N 181.806 0.884767 1.30421 0
M  V30 1926 C 182.753 0.349642 2.28136 0
M  V30 1927 C 183.723 -0.560061 1.56373 0
M  V30 1928 O 184.908 -0.488524 1.8444 0
M  V30 1929 C 182.048 -0.42999 3.42411 0
M  V30 1930 C 181.161 0.508907 4.28992 0
M  V30 1931 C 180.296 -0.286301 5.30428 0
M  V30 1932 C 179.335 0.648079 6.08659 0
M  V30 1933 N 178.472 -0.111792 7.02011 0
M  V30 1934 H 183.312 1.18807 2.73293 0
M  V30 1935 H 180.849 0.597231 1.3443 0
M  V30 1936 H 182.807 -0.897923 4.07423 0
M  V30 1937 H 181.437 -1.23299 2.98324 0
M  V30 1938 H 180.489 1.09533 3.64289 0
M  V30 1939 H 181.801 1.22475 4.8353 0
M  V30 1940 H 180.955 -0.816098 6.01186 0
M  V30 1941 H 179.694 -1.03536 4.76583 0
M  V30 1942 H 178.699 1.18951 5.36778 0
M  V30 1943 H 179.924 1.39623 6.64592 0
M  V30 1944 H 177.87 -0.843395 6.50556 0
M  V30 1945 H 177.787 0.544429 7.54037 0
M  V30 1946 H 179.055 -0.622339 7.77012 0
M  V30 1947 N 183.284 -1.43765 0.645699 0
M  V30 1948 C 184.509 -2.06767 0.161883 0
M  V30 1949 C 184.934 -1.48034 -1.16049 0
M  V30 1950 O 184.292 -0.587369 -1.71522 0
M  V30 1951 C 184.34 -3.60519 0.0762003 0
M  V30 1952 O 183.444 -4.00982 -0.963721 0
M  V30 1953 H 182.785 -0.657675 0.091429 0
M  V30 1954 H 185.315 -1.84397 0.886499 0
M  V30 1955 H 185.325 -4.07853 -0.109604 0
M  V30 1956 H 184 -4.02646 1.04157 0
M  V30 1957 H 182.577 -3.65253 -0.751312 0
M  V30 1958 N 184.763 -0.387143 -1.52771 0
M  V30 1959 C 185.713 0.465942 -2.23188 0
M  V30 1960 C 186.697 1.03138 -1.23496 0
M  V30 1961 O 187.889 0.957845 -1.48843 0
M  V30 1962 C 185.018 1.59384 -3.04059 0
M  V30 1963 C 184.104 1.04024 -4.11144 0
M  V30 1964 N 184.495 0.211416 -5.05358 0
M  V30 1965 C 182.793 1.31295 -4.26237 0
M  V30 1966 C 183.494 -0.0941698 -5.81624 0
M  V30 1967 N 182.47 0.509207 -5.4121 0
M  V30 1968 H 186.272 -0.173856 -2.93385 0
M  V30 1969 H 183.786 -0.19633 -1.61209 0
M  V30 1970 H 185.783 2.21738 -3.53041 0
M  V30 1971 H 184.443 2.23648 -2.35397 0
M  V30 1972 H 185.454 -0.151151 -5.17679 0
M  V30 1973 H 182.131 1.95679 -3.68803 0
M  V30 1974 H 183.521 -0.765572 -6.67524 0
M  V30 1975 N 186.241 1.57166 -0.116904 0
M  V30 1976 C 187.466 1.999 0.55271 0
M  V30 1977 C 187.891 0.996039 1.59564 0
M  V30 1978 O 187.249 -0.032556 1.81271 0
M  V30 1979 C 187.297 3.4152 1.15742 0
M  V30 1980 O 186.401 3.44106 2.27299 0
M  V30 1981 H 185.742 0.649447 0.138258 0
M  V30 1982 H 188.272 2.03573 -0.204759 0
M  V30 1983 H 188.282 3.79684 1.49346 0
M  V30 1984 H 186.957 4.14034 0.393493 0
M  V30 1985 H 185.534 3.17759 1.9515 0
M  V30 1986 N 187.719 -0.156864 1.56817 0
M  V30 1987 C 188.666 -1.19394 1.97519 0
M  V30 1988 C 189.636 -1.4322 0.841265 0
M  V30 1989 O 190.821 -1.55719 1.10255 0
M  V30 1990 C 187.961 -2.52483 2.35258 0
M  V30 1991 C 187.074 -2.35914 3.61896 0
M  V30 1992 C 186.209 -3.61969 3.88782 0
M  V30 1993 C 185.248 -3.40395 5.08722 0
M  V30 1994 N 184.385 -4.58556 5.31668 0
M  V30 1995 H 189.225 -0.839845 2.85921 0
M  V30 1996 H 186.762 -0.403264 1.41464 0
M  V30 1997 H 188.72 -3.30071 2.55165 0
M  V30 1998 H 187.35 -2.85859 1.49949 0
M  V30 1999 H 186.402 -1.49429 3.49821 0
M  V30 2000 H 187.714 -2.15926 4.49641 0
M  V30 2001 H 186.868 -4.47989 4.09135 0
M  V30 2002 H 185.607 -3.84951 2.9944 0
M  V30 2003 H 184.612 -2.52763 4.88253 0
M  V30 2004 H 185.837 -3.18822 5.99608 0
M  V30 2005 H 183.783 -4.81729 4.45279 0
M  V30 2006 H 183.7 -4.41535 6.13664 0
M  V30 2007 H 184.968 -5.45817 5.5651 0
M  V30 2008 N 189.197 -1.51736 -0.425897 0
M  V30 2009 C 190.145 -1.74464 -1.53834 0
M  V30 2010 C 191.139 -0.611241 -1.57988 0
M  V30 2011 O 192.345 -0.792899 -1.61596 0
M  V30 2012 H 188.72 -0.551437 -0.511293 0
M  V30 2013 H 190.691 -2.67694 -1.31843 0
M  V30 2014 C 189.44 -1.8972 -2.91379 0
M  V30 2015 H 188.763 -2.76344 -2.88919 0
M  V30 2016 H 190.203 -2.09629 -3.68553 0
M  V30 2017 C 188.662 -0.65992 -3.30374 0
M  V30 2018 O 189.192 0.180083 -4.01296 0
M  V30 2019 N 187.398 -0.500677 -2.86254 0
M  V30 2020 H 186.945 -1.18532 -2.28709 0
M  V30 2021 H 186.903 0.325903 -3.12706 0
M  V30 2022 N 190.675 0.682077 -1.42076 0
M  V30 2023 C 191.922 1.44215 -1.42156 0
M  V30 2024 C 192.25 1.94468 -0.0354186 0
M  V30 2025 O 191.505 1.70816 0.955002 0
M  V30 2026 C 191.804 2.66036 -2.38662 0
M  V30 2027 C 191.47 2.34366 -3.85206 0
M  V30 2028 C 190.132 2.25439 -4.25124 0
M  V30 2029 C 192.484 2.08513 -4.77673 0
M  V30 2030 C 189.812 1.88775 -5.55501 0
M  V30 2031 C 192.164 1.73354 -6.08384 0
M  V30 2032 C 190.828 1.62933 -6.47309 0
M  V30 2033 H 190.098 0.527718 -0.520187 0
M  V30 2034 H 192.745 0.778387 -1.74967 0
M  V30 2035 H 191.05 3.3741 -1.99152 0
M  V30 2036 H 192.747 3.24205 -2.35991 0
M  V30 2037 H 189.337 2.42213 -3.53597 0
M  V30 2038 H 193.521 2.14346 -4.47626 0
M  V30 2039 H 188.777 1.7927 -5.84527 0
M  V30 2040 H 192.951 1.52373 -6.79526 0
M  V30 2041 H 190.578 1.34292 -7.48244 0
M  V30 2042 N 192.153 1.28127 0.917671 0
M  V30 2043 C 193.43 1.05761 1.64542 0
M  V30 2044 C 193.81 -0.404344 2.07191 0
M  V30 2045 O 193.158 -1.38963 1.81388 0
M  V30 2046 C 193.368 2.02857 2.83989 0
M  V30 2047 C 194.716 2.32786 3.551 0
M  V30 2048 O 195.74 2.0091 2.94132 0
M  V30 2049 O 194.599 2.87169 4.64969 0
M  V30 2050 H 191.693 0.403916 0.721652 0
M  V30 2051 H 194.239 1.39431 0.967322 0
M  V30 2052 H 193.011 3.01407 2.49538 0
M  V30 2053 H 192.634 1.69809 3.59514 0
M  V30 2054 N 193.631 -1.12557 1.10312 0
M  V30 2055 C 194.877 -1.84311 0.846011 0
M  V30 2056 C 195.21 -1.83805 -0.626859 0
M  V30 2057 O 194.485 -1.28268 -1.46211 0
M  V30 2058 C 194.768 -3.32048 1.39341 0
M  V30 2059 C 194.621 -3.41016 2.93305 0
M  V30 2060 C 195.94 -4.27764 1.03468 0
M  V30 2061 H 193.059 -0.669192 0.30879 0
M  V30 2062 H 195.701 -1.32057 1.36605 0
M  V30 2063 H 193.851 -3.76678 0.951087 0
M  V30 2064 H 195.523 -3.05031 3.46055 0
M  V30 2065 H 193.766 -2.81603 3.29973 0
M  V30 2066 H 194.437 -4.44948 3.26689 0
M  V30 2067 H 196.913 -3.91253 1.41633 0
M  V30 2068 H 195.789 -5.29549 1.44463 0
M  V30 2069 H 196.05 -4.42064 -0.0560404 0
M  V30 2070 N 195.109 -0.891671 -1.2995 0
M  V30 2071 C 196.019 -0.367691 -2.31701 0
M  V30 2072 C 197.035 0.533486 -1.6562 0
M  V30 2073 O 198.211 0.424997 -1.96865 0
M  V30 2074 C 195.276 0.403406 -3.44345 0
M  V30 2075 C 194.337 -0.528328 -4.26037 0
M  V30 2076 C 193.57 0.206063 -5.33302 0
M  V30 2077 O 193.793 1.43119 -5.52153 0
M  V30 2078 O 192.727 -0.447281 -6.00236 0
M  V30 2079 H 196.553 -1.21163 -2.78484 0
M  V30 2080 H 194.138 -0.655725 -1.34241 0
M  V30 2081 H 196.02 0.839753 -4.12948 0
M  V30 2082 H 194.695 1.22354 -2.99685 0
M  V30 2083 H 193.602 -1.01362 -3.60106 0
M  V30 2084 H 194.935 -1.31465 -4.74318 0
M  V30 2085 N 196.587 1.43421 -0.653314 0
M  V30 2086 C 197.833 2.02111 -0.166992 0
M  V30 2087 C 198.166 1.51423 1.21592 0
M  V30 2088 O 197.441 0.707389 1.8118 0
M  V30 2089 C 197.724 3.5966 -0.177948 0
M  V30 2090 C 197.577 4.20579 -1.59478 0
M  V30 2091 C 198.896 4.37413 0.4856 0
M  V30 2092 H 196.015 0.734374 -0.0621557 0
M  V30 2093 H 198.657 1.70717 -0.834016 0
M  V30 2094 H 196.807 3.86537 0.390032 0
M  V30 2095 H 198.479 4.04732 -2.21336 0
M  V30 2096 H 196.722 3.77226 -2.14204 0
M  V30 2097 H 197.393 5.29665 -1.5543 0
M  V30 2098 H 199.869 4.161 0.00234528 0
M  V30 2099 H 198.745 5.47075 0.447207 0
M  V30 2100 H 199.006 4.13672 1.55974 0
M  V30 2101 N 198.065 0.39524 1.52563 0
M  V30 2102 C 199.29 -0.187456 2.06551 0
M  V30 2103 C 199.715 -1.39249 1.26457 0
M  V30 2104 O 199.073 -1.78947 0.291151 0
M  V30 2105 C 199.121 -0.529985 3.56684 0
M  V30 2106 O 198.225 -1.62307 3.79118 0
M  V30 2107 H 197.566 -0.0202537 0.663691 0
M  V30 2108 H 200.096 0.564426 1.96661 0
M  V30 2109 H 200.106 -0.792598 4.00227 0
M  V30 2110 H 198.781 0.350987 4.14416 0
M  V30 2111 H 197.358 -1.3537 3.47461 0
M  V30 2112 N 199.544 -1.57102 0.125237 0
M  V30 2113 C 200.492 -2.16905 -0.839927 0
M  V30 2114 C 201.486 -1.11998 -1.27094 0
M  V30 2115 O 202.692 -1.3029 -1.24195 0
M  V30 2116 H 199.067 -0.694252 -0.288995 0
M  V30 2117 H 201.038 -2.96774 -0.311115 0
M  V30 2118 C 199.787 -2.78795 -2.07771 0
M  V30 2119 H 199.11 -3.59221 -1.755 0
M  V30 2120 H 200.55 -3.2417 -2.73295 0
M  V30 2121 C 199.009 -1.76193 -2.87155 0
M  V30 2122 O 199.539 -1.21909 -3.82755 0
M  V30 2123 N 197.745 -1.45991 -2.51267 0
M  V30 2124 H 197.292 -1.90325 -1.73592 0
M  V30 2125 H 197.25 -0.775844 -3.04677 0
M  V30 2126 N 201.022 0.148545 -1.56898 0
M  V30 2127 C 202.271 0.85984 -1.82454 0
M  V30 2128 C 202.584 1.82406 -0.706229 0
M  V30 2129 O 203.79 2.57938 -0.847349 0
M  V30 2130 C 202.246 1.57967 -3.2338 0
M  V30 2131 C 201.854 0.65794 -4.43142 0
M  V30 2132 C 203.598 2.27784 -3.58211 0
M  V30 2133 C 201.505 1.3793 -5.75091 0
M  V30 2134 H 200.435 0.324834 -0.68044 0
M  V30 2135 H 203.086 0.112588 -1.83154 0
M  V30 2136 H 201.468 2.37249 -3.17063 0
M  V30 2137 H 202.642 -0.0995497 -4.60692 0
M  V30 2138 H 200.957 0.0682643 -4.16344 0
M  V30 2139 H 203.554 2.8239 -4.54048 0
M  V30 2140 H 203.897 3.04204 -2.84193 0
M  V30 2141 H 204.43 1.55421 -3.66182 0
M  V30 2142 H 201.169 0.656982 -6.52199 0
M  V30 2143 H 200.689 2.10954 -5.61479 0
M  V30 2144 H 202.368 1.92063 -6.17835 0
M  V30 2145 N 202.5 1.5196 0.417844 0
M  V30 2146 C 203.725 1.69717 1.1921 0
M  V30 2147 C 204.15 0.402148 1.83751 0
M  V30 2148 O 203.508 -0.639593 1.69643 0
M  V30 2149 C 203.556 2.82794 2.2374 0
M  V30 2150 O 202.66 2.47756 3.29683 0
M  V30 2151 H 202.001 0.565263 0.348387 0
M  V30 2152 H 204.531 1.98621 0.490985 0
M  V30 2153 H 204.541 3.07452 2.68212 0
M  V30 2154 H 203.216 3.76756 1.76146 0
M  V30 2155 H 201.793 2.33739 2.90552 0
M  V30 2156 N 203.978 -0.674533 1.42435 0
M  V30 2157 C 205.255 -1.4305 1.33402 0
M  V30 2158 C 205.635 -2.11081 -0.0284674 0
M  V30 2159 O 204.983 -2.03257 -1.04397 0
M  V30 2160 C 205.193 -2.43272 2.50239 0
M  V30 2161 C 206.541 -3.07907 2.92367 0
M  V30 2162 O 207.565 -2.53599 2.50132 0
M  V30 2163 O 206.424 -4.0632 3.65467 0
M  V30 2164 H 203.518 -0.638076 0.526106 0
M  V30 2165 H 206.064 -0.703235 1.54443 0
M  V30 2166 H 204.836 -1.91803 3.41068 0
M  V30 2167 H 204.459 -3.23479 2.31186 0
M  V30 2168 N 205.456 -1.28612 -0.910864 0
M  V30 2169 C 206.684 -1.18792 -1.69399 0
M  V30 2170 C 207.099 0.253039 -1.87097 0
M  V30 2171 O 206.456 1.17071 -1.40003 0
M  V30 2172 C 206.507 -1.88511 -3.08457 0
M  V30 2173 O 206.228 -3.26979 -2.91576 0
M  V30 2174 C 207.729 -1.85029 -4.02839 0
M  V30 2175 H 204.949 -0.412233 -0.529438 0
M  V30 2176 H 207.493 -1.69788 -1.13984 0
M  V30 2177 H 205.648 -1.41379 -3.60681 0
M  V30 2178 H 206.062 -3.61936 -3.79608 0
M  V30 2179 H 207.536 -2.38395 -4.97867 0
M  V30 2180 H 208.013 -0.823303 -4.31414 0
M  V30 2181 H 208.619 -2.31853 -3.56545 0
M  V30 2182 N 206.934 1.1197 -1.10907 0
M  V30 2183 C 208.162 1.87402 -0.876824 0
M  V30 2184 C 208.577 1.79894 0.573025 0
M  V30 2185 O 207.934 1.17629 1.39534 0
M  V30 2186 C 207.985 3.36428 -1.32282 0
M  V30 2187 O 207.706 3.43765 -2.71582 0
M  V30 2188 C 209.207 4.28783 -1.12518 0
M  V30 2189 H 206.427 0.592793 -0.314384 0
M  V30 2190 H 208.971 1.41649 -1.47499 0
M  V30 2191 H 207.126 3.79706 -0.768229 0
M  V30 2192 H 207.54 4.3652 -2.90776 0
M  V30 2193 H 209.014 5.31613 -1.48633 0
M  V30 2194 H 209.491 4.39153 -0.0642394 0
M  V30 2195 H 210.097 3.91291 -1.66648 0
M  V30 2196 N 208.412 0.89855 1.29475 0
M  V30 2197 C 209.375 0.380272 2.26023 0
M  V30 2198 C 210.375 -0.484891 1.53315 0
M  V30 2199 O 211.565 -0.290108 1.71767 0
M  V30 2200 C 208.697 -0.45651 3.3783 0
M  V30 2201 H 209.89 1.23295 2.73383 0
M  V30 2202 H 207.443 0.676589 1.40897 0
M  V30 2203 H 208.178 -1.32922 2.95808 0
M  V30 2204 H 207.963 0.163393 3.91759 0
M  V30 2205 H 209.453 -0.810466 4.0966 0
M  V30 2206 N 209.89 -1.43072 0.660911 0
M  V30 2207 C 210.82 -2.33497 -0.0122829 0
M  V30 2208 C 211.801 -1.49903 -0.803925 0
M  V30 2209 O 212.986 -1.78546 -0.763864 0
M  V30 2210 C 210.116 -3.33363 -0.973994 0
M  V30 2211 C 209.07 -4.27003 -0.291928 0
M  V30 2212 C 208.396 -5.16967 -1.36562 0
M  V30 2213 C 209.696 -5.15816 0.820462 0
M  V30 2214 H 211.39 -2.90038 0.742873 0
M  V30 2215 H 208.936 -1.39461 0.358688 0
M  V30 2216 H 210.889 -3.95524 -1.45392 0
M  V30 2217 H 209.613 -2.75095 -1.7604 0
M  V30 2218 H 208.272 -3.66217 0.167623 0
M  V30 2219 H 207.92 -4.55034 -2.14366 0
M  V30 2220 H 207.62 -5.80441 -0.914454 0
M  V30 2221 H 209.144 -5.82003 -1.84675 0
M  V30 2222 H 210.558 -5.71742 0.422366 0
M  V30 2223 H 208.955 -5.8805 1.19656 0
M  V30 2224 H 210.025 -4.55045 1.67518 0
M  V30 2225 N 211.368 -0.403325 -1.52352 0
M  V30 2226 C 212.617 0.175668 -2.00934 0
M  V30 2227 C 212.93 1.46718 -1.29356 0
M  V30 2228 O 214.136 2.12708 -1.68724 0
M  V30 2229 C 212.592 0.363612 -3.58058 0
M  V30 2230 C 212.2 -0.915472 -4.38547 0
M  V30 2231 C 213.944 0.89821 -4.14888 0
M  V30 2232 C 211.851 -0.695035 -5.87302 0
M  V30 2233 H 210.781 0.0694234 -0.750797 0
M  V30 2234 H 213.432 -0.527879 -1.75743 0
M  V30 2235 H 211.814 1.12935 -3.79555 0
M  V30 2236 H 212.988 -1.68691 -4.28812 0
M  V30 2237 H 211.303 -1.37606 -3.93006 0
M  V30 2238 H 213.9 1.07907 -5.23699 0
M  V30 2239 H 214.243 1.87126 -3.71873 0
M  V30 2240 H 214.776 0.191681 -3.97338 0
M  V30 2241 H 211.515 -1.63948 -6.34666 0
M  V30 2242 H 211.035 0.0372116 -5.99788 0
M  V30 2243 H 212.714 -0.33497 -6.46132 0
M  V30 2244 N 212.846 1.57033 -0.133567 0
M  V30 2245 C 213.809 2.14897 0.796995 0
M  V30 2246 C 214.809 1.0874 1.18458 0
M  V30 2247 O 215.999 1.34446 1.1077 0
M  V30 2248 C 213.131 2.70112 2.07973 0
M  V30 2249 H 214.324 2.98457 0.293873 0
M  V30 2250 H 211.877 1.55871 0.115787 0
M  V30 2251 H 212.612 1.9018 2.62682 0
M  V30 2252 H 212.397 3.47764 1.81115 0
M  V30 2253 H 213.887 3.14738 2.74462 0
M  V30 2254 N 214.325 -0.140222 1.56975 0
M  V30 2255 C 215.572 -0.851687 1.83719 0
M  V30 2256 C 215.9 -1.80862 0.715485 0
M  V30 2257 O 215.155 -1.93464 -0.294956 0
M  V30 2258 C 215.454 -1.65386 3.16832 0
M  V30 2259 C 215.12 -0.843112 4.42947 0
M  V30 2260 C 213.782 -0.619464 4.77196 0
M  V30 2261 C 216.134 -0.276582 5.20466 0
M  V30 2262 C 213.462 0.181312 5.8642 0
M  V30 2263 C 215.814 0.51127 6.30531 0
M  V30 2264 C 214.478 0.745432 6.63325 0
M  V30 2265 H 213.748 -0.311654 0.672274 0
M  V30 2266 H 216.395 -0.115006 1.91154 0
M  V30 2267 H 214.7 -2.46084 3.04877 0
M  V30 2268 H 216.397 -2.20793 3.34741 0
M  V30 2269 H 212.987 -1.0275 4.16101 0
M  V30 2270 H 217.171 -0.436632 4.94376 0
M  V30 2271 H 212.427 0.372165 6.10266 0
M  V30 2272 H 216.601 0.957354 6.89788 0
M  V30 2273 H 214.228 1.36778 7.47794 0
M  V30 2274 N 215.803 -1.52179 -0.40978 0
M  V30 2275 C 216.735 -1.71703 -1.51825 0
M  V30 2276 C 217.748 -0.597445 -1.51441 0
M  V30 2277 O 218.937 -0.872582 -1.55719 0
M  V30 2278 C 216.037 -1.74171 -2.90719 0
M  V30 2279 C 215.21 -3.03156 -3.15302 0
M  V30 2280 C 214.269 -2.97445 -4.34065 0
M  V30 2281 O 213.295 -3.71352 -4.31377 0
M  V30 2282 N 214.497 -2.15191 -5.39141 0
M  V30 2283 H 217.262 -2.67334 -1.35472 0
M  V30 2284 H 214.823 -1.50409 -0.599069 0
M  V30 2285 H 216.815 -1.67884 -3.68235 0
M  V30 2286 H 215.385 -0.860166 -3.00533 0
M  V30 2287 H 214.605 -3.23097 -2.25836 0
M  V30 2288 H 215.893 -3.88484 -3.28569 0
M  V30 2289 H 215.291 -1.54573 -5.44173 0
M  V30 2290 H 213.848 -2.1476 -6.15403 0
M  V30 2291 N 217.281 0.66697 -1.42791 0
M  V30 2292 C 218.529 1.42417 -1.43394 0
M  V30 2293 C 218.85 1.94925 -0.0542373 0
M  V30 2294 O 218.12 1.73564 0.908415 0
M  V30 2295 H 216.7 0.528515 -0.527902 0
M  V30 2296 H 219.362 0.787562 -1.78279 0
M  V30 2297 H 218.458 2.27333 -2.13837 0
M  V30 2298 N 218.759 1.29093 0.90403 0
M  V30 2299 C 220.17 1.15186 1.46932 0
M  V30 2300 C 220.521 -0.254587 1.94541 0
M  V30 2301 O 219.646 -1.14972 1.83332 0
M  V30 2302 C 220.241 2.08492 2.67051 0
M  V30 2303 C 218.8 1.98621 3.19729 0
M  V30 2304 C 217.947 1.9967 1.92425 0
M  V30 2305 H 220.898 1.41641 0.715789 0
M  V30 2306 H 220.919 1.65461 3.42641 0
M  V30 2307 H 220.431 3.10847 2.3237 0
M  V30 2308 H 218.532 0.993389 3.59114 0
M  V30 2309 H 218.645 2.86068 3.8432 0
M  V30 2310 H 217.009 1.44208 2.09943 0
M  V30 2311 H 217.792 3.03721 1.60026 0
M  V30 2312 N 220.237 -1.11381 1.11499 0
M  V30 2313 C 221.184 -2.17439 0.773887 0
M  V30 2314 C 222.154 -1.64132 -0.254899 0
M  V30 2315 O 223.339 -1.90345 -0.13168 0
M  V30 2316 C 220.479 -3.44373 0.223917 0
M  V30 2317 C 219.592 -4.1168 1.30934 0
M  V30 2318 C 218.727 -5.263 0.71984 0
M  V30 2319 C 217.766 -5.85493 1.78507 0
M  V30 2320 N 216.903 -6.91507 1.21502 0
M  V30 2321 H 221.743 -2.45962 1.68246 0
M  V30 2322 H 219.28 -1.20744 0.840191 0
M  V30 2323 H 221.238 -4.17047 -0.112921 0
M  V30 2324 H 219.868 -3.16232 -0.647851 0
M  V30 2325 H 218.92 -3.37073 1.76312 0
M  V30 2326 H 220.232 -4.51729 2.11524 0
M  V30 2327 H 219.386 -6.05785 0.333094 0
M  V30 2328 H 218.125 -4.87559 -0.117377 0
M  V30 2329 H 217.13 -5.04686 2.18111 0
M  V30 2330 H 218.355 -6.26301 2.62533 0
M  V30 2331 H 216.301 -6.54783 0.399455 0
M  V30 2332 H 216.218 -7.30214 1.95763 0
M  V30 2333 H 217.486 -7.74795 0.855181 0
M  V30 2334 N 221.715 -0.905404 -1.28997 0
M  V30 2335 C 222.678 -0.392253 -2.25819 0
M  V30 2336 C 223.678 0.476753 -1.5357 0
M  V30 2337 O 224.868 0.280994 -1.71919 0
M  V30 2338 C 222 0.438588 -3.38067 0
M  V30 2339 H 223.193 -1.24743 -2.72725 0
M  V30 2340 H 220.746 -0.684051 -1.40536 0
M  V30 2341 H 221.481 1.31352 -2.96508 0
M  V30 2342 H 221.266 -0.184167 -3.91667 0
M  V30 2343 H 222.756 0.78873 -4.10084 0
M  V30 2344 N 223.193 1.4272 -0.668489 0
M  V30 2345 C 224.125 2.2914 0.052613 0
M  V30 2346 C 225.138 1.43339 0.771857 0
M  V30 2347 O 226.327 1.67123 0.627067 0
M  V30 2348 C 223.427 3.20618 1.09804 0
M  V30 2349 C 222.6 4.35039 0.45389 0
M  V30 2350 C 221.659 5.07282 1.39825 0
M  V30 2351 O 220.685 5.62024 0.900978 0
M  V30 2352 N 221.887 5.12206 2.73176 0
M  V30 2353 H 224.652 2.91668 -0.689209 0
M  V30 2354 H 222.213 1.53577 -0.512422 0
M  V30 2355 H 224.205 3.65815 1.73094 0
M  V30 2356 H 222.775 2.59585 1.74167 0
M  V30 2357 H 221.995 3.92567 -0.358396 0
M  V30 2358 H 223.283 5.088 0.00486972 0
M  V30 2359 H 222.681 4.6913 3.16122 0
M  V30 2360 H 221.238 5.61069 3.31729 0
M  V30 2361 N 224.671 0.411399 1.52136 0
M  V30 2362 C 225.581 -0.419774 2.30814 0
M  V30 2363 C 226.597 -1.0515 1.38634 0
M  V30 2364 O 227.773 -1.05252 1.71709 0
M  V30 2365 C 224.838 -1.52019 3.11594 0
M  V30 2366 C 223.899 -0.91129 4.19516 0
M  V30 2367 C 223.132 -1.95927 4.96436 0
M  V30 2368 O 223.355 -3.17775 4.73683 0
M  V30 2369 O 222.289 -1.56423 5.81219 0
M  V30 2370 H 226.115 0.221805 3.02889 0
M  V30 2371 H 223.7 0.174547 1.48377 0
M  V30 2372 H 225.582 -2.15898 3.61892 0
M  V30 2373 H 224.257 -2.14633 2.42311 0
M  V30 2374 H 223.164 -0.235157 3.7336 0
M  V30 2375 H 224.497 -0.32904 4.91099 0
M  V30 2376 N 226.149 -1.5696 0.141893 0
M  V30 2377 C 227.377 -2.00322 -0.517579 0
M  V30 2378 C 227.792 -1.02193 -1.58752 0
M  V30 2379 O 227.149 -0.0181619 -1.82491 0
M  V30 2380 C 227.2 -3.43618 -1.12289 0
M  V30 2381 O 226.921 -4.37995 -0.0956929 0
M  V30 2382 C 228.422 -4.02231 -1.86347 0
M  V30 2383 H 225.642 -0.657243 -0.135177 0
M  V30 2384 H 228.186 -2.03146 0.234973 0
M  V30 2385 H 226.341 -3.41662 -1.82609 0
M  V30 2386 H 226.755 -5.21729 -0.538469 0
M  V30 2387 H 228.229 -5.04509 -2.23997 0
M  V30 2388 H 228.706 -3.42655 -2.74744 0
M  V30 2389 H 229.312 -4.07802 -1.20737 0
M  V30 2390 N 227.627 0.131896 -1.57047 0
M  V30 2391 C 228.557 1.16384 -2.02428 0
M  V30 2392 C 229.538 1.43936 -0.90644 0
M  V30 2393 O 230.723 1.54599 -1.17528 0
M  V30 2394 C 227.853 2.49328 -2.4177 0
M  V30 2395 C 226.807 2.36266 -3.56879 0
M  V30 2396 C 226.133 3.74057 -3.8208 0
M  V30 2397 C 227.433 1.834 -4.89042 0
M  V30 2398 H 229.127 0.786433 -2.88887 0
M  V30 2399 H 226.673 0.376855 -1.38981 0
M  V30 2400 H 228.626 3.21759 -2.7212 0
M  V30 2401 H 227.35 2.88934 -1.52266 0
M  V30 2402 H 226.009 1.66286 -3.26718 0
M  V30 2403 H 225.657 4.11125 -2.89803 0
M  V30 2404 H 225.357 3.66174 -4.59554 0
M  V30 2405 H 226.881 4.48012 -4.1487 0
M  V30 2406 H 228.295 2.45636 -5.18011 0
M  V30 2407 H 226.692 1.8637 -5.70426 0
M  V30 2408 H 227.762 0.790662 -4.7841 0
M  V30 2409 N 229.106 1.52395 0.401703 0
M  V30 2410 C 230.038 1.72505 1.50912 0
M  V30 2411 C 231.051 0.605468 1.51122 0
M  V30 2412 O 232.24 0.880828 1.55254 0
M  V30 2413 C 229.34 1.75711 2.89791 0
M  V30 2414 C 228.513 3.04824 3.1369 0
M  V30 2415 C 227.572 2.99743 4.32482 0
M  V30 2416 O 226.598 3.73635 4.29402 0
M  V30 2417 N 227.8 2.18047 5.37992 0
M  V30 2418 H 230.565 2.68049 1.34052 0
M  V30 2419 H 228.126 1.50724 0.591084 0
M  V30 2420 H 230.118 1.69834 3.6734 0
M  V30 2421 H 228.688 0.876092 3.00072 0
M  V30 2422 H 227.908 3.2429 2.24119 0
M  V30 2423 H 229.196 3.90221 3.26504 0
M  V30 2424 H 228.594 1.57456 5.43345 0
M  V30 2425 H 227.151 2.18021 6.14256 0
M  V30 2426 N 230.584 -0.659388 1.43143 0
M  V30 2427 C 231.494 -1.80167 1.50256 0
M  V30 2428 C 232.51 -1.69571 0.390106 0
M  V30 2429 O 233.686 -1.90849 0.643319 0
M  V30 2430 C 230.751 -3.16409 1.41725 0
M  V30 2431 C 229.812 -3.38848 2.63591 0
M  V30 2432 C 229.045 -4.68591 2.55458 0
M  V30 2433 O 229.268 -5.47532 1.59891 0
M  V30 2434 O 228.202 -4.92614 3.45854 0
M  V30 2435 H 232.028 -1.77121 2.46702 0
M  V30 2436 H 229.613 -0.817092 1.25076 0
M  V30 2437 H 231.495 -3.9768 1.39387 0
M  V30 2438 H 230.17 -3.20059 0.484118 0
M  V30 2439 H 229.077 -2.57366 2.71502 0
M  V30 2440 H 230.41 -3.4004 3.55856 0
M  V30 2441 N 232.062 -1.29571 -0.897171 0
M  V30 2442 C 232.992 -1.17473 -2.01798 0
M  V30 2443 C 233.973 -0.068323 -1.69963 0
M  V30 2444 O 235.158 -0.248239 -1.92607 0
M  V30 2445 C 232.288 -0.853099 -3.36659 0
M  V30 2446 C 231.242 -1.9161 -3.82713 0
M  V30 2447 C 230.568 -1.44773 -5.14728 0
M  V30 2448 C 231.868 -3.32535 -4.02763 0
M  V30 2449 H 233.562 -2.11237 -2.12177 0
M  V30 2450 H 231.108 -1.01699 -1.01948 0
M  V30 2451 H 233.061 -0.755165 -4.14578 0
M  V30 2452 H 231.785 0.120236 -3.26379 0
M  V30 2453 H 230.444 -2.00346 -3.07013 0
M  V30 2454 H 230.092 -0.462995 -5.00865 0
M  V30 2455 H 229.792 -2.15865 -5.46513 0
M  V30 2456 H 231.316 -1.36334 -5.95185 0
M  V30 2457 H 232.73 -3.26626 -4.71156 0
M  V30 2458 H 231.127 -4.01607 -4.45905 0
M  V30 2459 H 232.197 -3.75326 -3.07016 0
M  V30 2460 N 233.54 1.10788 -1.12088 0
M  V30 2461 C 234.786 1.82942 -0.875226 0
M  V30 2462 C 235.119 1.84779 0.597538 0
M  V30 2463 O 234.394 1.30578 1.44152 0
M  V30 2464 C 234.677 3.29789 -1.44606 0
M  V30 2465 C 234.53 3.36307 -2.98693 0
M  V30 2466 C 235.849 4.26064 -1.10261 0
M  V30 2467 H 232.968 0.664195 -0.319397 0
M  V30 2468 H 235.61 1.29867 -1.38689 0
M  V30 2469 H 233.76 3.75118 -1.01089 0
M  V30 2470 H 235.432 2.99487 -3.50864 0
M  V30 2471 H 233.675 2.76318 -3.34411 0
M  V30 2472 H 234.346 4.39694 -3.33726 0
M  V30 2473 H 236.822 3.88951 -1.4784 0
M  V30 2474 H 235.698 5.27183 -1.52869 0
M  V30 2475 H 235.959 4.42098 -0.0142953 0
M  V30 2476 N 235.018 0.912232 1.28515 0
M  V30 2477 C 235.928 0.404506 2.31086 0
M  V30 2478 C 236.944 -0.50707 1.66448 0
M  V30 2479 O 238.12 -0.393624 1.97516 0
M  V30 2480 C 235.185 -0.348572 3.44943 0
M  V30 2481 C 234.246 0.59604 4.25142 0
M  V30 2482 C 233.479 -0.121194 5.33562 0
M  V30 2483 O 233.702 -1.34317 5.5436 0
M  V30 2484 O 232.636 0.542716 5.99448 0
M  V30 2485 H 236.462 1.25579 2.76521 0
M  V30 2486 H 234.047 0.676998 1.33181 0
M  V30 2487 H 235.929 -0.77395 4.14232 0
M  V30 2488 H 234.604 -1.17571 3.01594 0
M  V30 2489 H 233.511 1.07079 3.58448 0
M  V30 2490 H 234.844 1.38995 4.72167 0
M  V30 2491 N 236.496 -1.42363 0.676048 0
M  V30 2492 C 237.773 -1.95183 0.127726 0
M  V30 2493 C 238.153 -1.61641 -1.35777 0
M  V30 2494 O 237.501 -0.913216 -2.09458 0
M  V30 2495 C 237.711 -3.46721 0.398199 0
M  V30 2496 C 239.059 -4.23427 0.315383 0
M  V30 2497 O 240.083 -3.54649 0.332016 0
M  V30 2498 O 238.942 -5.45888 0.25865 0
M  V30 2499 H 236.036 -0.826992 0.00359427 0
M  V30 2500 H 238.582 -1.52184 0.750864 0
M  V30 2501 H 237.354 -3.64344 1.4272 0
M  V30 2502 H 236.977 -3.96769 -0.256885 0
M  V30 2503 N 237.974 -0.419461 -1.51915 0
M  V30 2504 C 239.222 0.152637 -2.01523 0
M  V30 2505 C 239.543 1.44762 -1.30649 0
M  V30 2506 O 238.813 1.90997 -0.435535 0
M  V30 2507 H 237.393 0.0593966 -0.744635 0
M  V30 2508 H 240.055 -0.558073 -1.86739 0
M  V30 2509 H 239.151 0.341369 -3.10227 0
M  V30 2510 N 239.452 1.56882 -0.150215 0
M  V30 2511 C 240.382 2.19935 0.784284 0
M  V30 2512 C 241.363 1.14854 1.25469 0
M  V30 2513 O 242.548 1.43209 1.31168 0
M  V30 2514 C 239.678 2.82349 2.02229 0
M  V30 2515 C 238.632 3.93285 1.68853 0
M  V30 2516 C 237.958 4.42649 2.99944 0
M  V30 2517 C 239.258 5.13904 0.932714 0
M  V30 2518 H 240.952 2.9828 0.258781 0
M  V30 2519 H 238.498 1.43473 0.123029 0
M  V30 2520 H 240.451 3.25126 2.68088 0
M  V30 2521 H 239.175 2.0134 2.57157 0
M  V30 2522 H 237.834 3.5113 1.05371 0
M  V30 2523 H 237.482 3.58458 3.52869 0
M  V30 2524 H 237.182 5.17476 2.78374 0
M  V30 2525 H 238.706 4.88099 3.66868 0
M  V30 2526 H 240.12 5.53506 1.49345 0
M  V30 2527 H 238.517 5.94515 0.81684 0
M  V30 2528 H 239.587 4.84842 -0.0749568 0
M  V30 2529 N 240.93 -0.123565 1.57115 0
M  V30 2530 C 241.84 -1.17074 2.033 0
M  V30 2531 C 242.856 -1.4561 0.952559 0
M  V30 2532 O 244.032 -1.56817 1.26374 0
M  V30 2533 C 241.097 -2.47857 2.42421 0
M  V30 2534 C 240.158 -2.26758 3.64526 0
M  V30 2535 C 239.391 -3.51305 4.01771 0
M  V30 2536 O 239.614 -4.5843 3.39409 0
M  V30 2537 O 238.548 -3.42578 4.94898 0
M  V30 2538 H 242.374 -0.808555 2.92739 0
M  V30 2539 H 239.959 -0.334027 1.45618 0
M  V30 2540 H 241.841 -3.2492 2.68338 0
M  V30 2541 H 240.516 -2.83558 1.5613 0
M  V30 2542 H 239.423 -1.47569 3.43765 0
M  V30 2543 H 240.756 -1.95963 4.51508 0
M  V30 2544 N 242.408 -1.52605 -0.393616 0
M  V30 2545 C 243.318 -1.79971 -1.50492 0
M  V30 2546 C 244.334 -0.686181 -1.59899 0
M  V30 2547 O 245.51 -0.973274 -1.76322 0
M  V30 2548 C 242.575 -1.95867 -2.86072 0
M  V30 2549 C 241.636 -3.19781 -2.86424 0
M  V30 2550 C 240.869 -3.34909 -4.15538 0
M  V30 2551 O 241.092 -2.54948 -5.10253 0
M  V30 2552 O 240.026 -4.28141 -4.23059 0
M  V30 2553 H 243.852 -2.74328 -1.30299 0
M  V30 2554 H 241.437 -1.3764 -0.581005 0
M  V30 2555 H 243.319 -2.08056 -3.66457 0
M  V30 2556 H 241.994 -1.04699 -3.063 0
M  V30 2557 H 240.901 -3.13038 -2.04837 0
M  V30 2558 H 242.234 -4.1078 -2.71147 0
M  V30 2559 N 243.887 0.651787 -1.4349 0
M  V30 2560 C 245.136 1.40754 -1.44469 0
M  V30 2561 C 245.449 1.95463 -0.0731845 0
M  V30 2562 O 246.655 2.71471 0.0395721 0
M  V30 2563 C 245.111 2.54735 -2.5424 0
M  V30 2564 C 244.719 2.06628 -3.97504 0
M  V30 2565 C 246.463 3.32092 -2.64414 0
M  V30 2566 C 244.37 3.17829 -4.98737 0
M  V30 2567 H 243.3 0.528862 -0.53742 0
M  V30 2568 H 245.951 0.703365 -1.69485 0
M  V30 2569 H 244.333 3.2763 -2.22428 0
M  V30 2570 H 245.507 1.40734 -4.38783 0
M  V30 2571 H 243.822 1.42146 -3.91387 0
M  V30 2572 H 246.419 4.14952 -3.37223 0
M  V30 2573 H 246.762 3.80217 -1.69532 0
M  V30 2574 H 247.295 2.66279 -2.95534 0
M  V30 2575 H 244.034 2.74671 -5.95177 0
M  V30 2576 H 243.554 3.82429 -4.62069 0
M  V30 2577 H 245.233 3.82937 -5.21505 0
M  V30 2578 N 245.365 1.30045 0.890287 0
M  V30 2579 C 246.328 1.15963 1.977 0
M  V30 2580 C 247.328 0.0923777 1.60534 0
M  V30 2581 O 248.518 0.340071 1.70848 0
M  V30 2582 C 245.65 0.775451 3.31963 0
M  V30 2583 H 246.843 2.12502 2.11619 0
M  V30 2584 H 244.396 1.13366 1.07601 0
M  V30 2585 H 245.131 -0.189671 3.23745 0
M  V30 2586 H 244.916 1.54668 3.60306 0
M  V30 2587 H 246.406 0.700251 4.11687 0
M  V30 2588 N 246.843 -1.10192 1.12674 0
M  V30 2589 C 248.073 -1.85713 0.905213 0
M  V30 2590 C 248.481 -1.81056 -0.549108 0
M  V30 2591 O 247.824 -1.19927 -1.39151 0
M  V30 2592 C 247.886 -3.34972 1.30516 0
M  V30 2593 C 247.55 -3.63385 2.77129 0
M  V30 2594 C 248.547 -3.59772 3.75313 0
M  V30 2595 C 246.232 -3.91981 3.14096 0
M  V30 2596 C 248.226 -3.84354 5.08479 0
M  V30 2597 C 245.913 -4.16218 4.47443 0
M  V30 2598 C 246.911 -4.12395 5.44444 0
M  V30 2599 O 246.599 -4.36014 6.75387 0
M  V30 2600 H 246.331 -0.593719 0.323223 0
M  V30 2601 H 248.885 -1.40198 1.50112 0
M  V30 2602 H 247.115 -3.81156 0.652463 0
M  V30 2603 H 248.804 -3.91886 1.05736 0
M  V30 2604 H 249.57 -3.37716 3.48099 0
M  V30 2605 H 245.449 -3.94085 2.39202 0
M  V30 2606 H 248.993 -3.81285 5.84181 0
M  V30 2607 H 244.89 -4.37754 4.74386 0
M  V30 2608 H 245.658 -4.53516 6.8137 0
M  V30 2609 N 248.321 -0.919034 -1.28029 0
M  V30 2610 C 249.551 -0.570143 -1.98577 0
M  V30 2611 C 249.959 0.854172 -1.68821 0
M  V30 2612 O 249.302 1.57807 -0.940351 0
M  V30 2613 C 249.364 -0.705734 -3.52505 0
M  V30 2614 C 249.028 -2.10057 -4.05863 0
M  V30 2615 C 250.025 -3.07385 -4.19298 0
M  V30 2616 C 247.71 -2.41517 -4.40426 0
M  V30 2617 C 249.704 -4.34287 -4.66555 0
M  V30 2618 C 247.391 -3.68657 -4.87376 0
M  V30 2619 C 248.389 -4.64856 -5.00398 0
M  V30 2620 O 248.077 -5.89735 -5.46322 0
M  V30 2621 H 247.809 -0.215592 -0.6407 0
M  V30 2622 H 250.363 -1.23583 -1.64062 0
M  V30 2623 H 248.593 0.0170414 -3.86696 0
M  V30 2624 H 250.282 -0.363172 -4.04272 0
M  V30 2625 H 251.048 -2.84398 -3.92865 0
M  V30 2626 H 246.927 -1.67389 -4.29537 0
M  V30 2627 H 250.471 -5.09377 -4.76635 0
M  V30 2628 H 246.368 -3.91466 -5.13249 0
M  V30 2629 H 247.136 -5.92599 -5.64596 0
M  V30 2630 N 249.799 1.42003 -0.683588 0
M  V30 2631 C 251.024 2.06265 -0.216647 0
M  V30 2632 C 251.449 1.51059 1.12083 0
M  V30 2633 O 250.807 0.632638 1.69904 0
M  V30 2634 C 250.855 3.60191 -0.171759 0
M  V30 2635 O 249.959 4.03396 0.857069 0
M  V30 2636 H 249.3 0.65502 -0.108834 0
M  V30 2637 H 251.83 1.81982 -0.935077 0
M  V30 2638 H 251.84 4.08 0.0014303 0
M  V30 2639 H 250.515 3.99743 -1.14796 0
M  V30 2640 H 249.092 3.67117 0.654208 0
M  V30 2641 N 251.277 0.427512 1.51691 0
M  V30 2642 C 252.524 -0.142229 2.02 0
M  V30 2643 C 252.852 -1.43566 1.31221 0
M  V30 2644 O 252.107 -1.91298 0.412744 0
M  V30 2645 C 252.406 -0.418249 3.54944 0
M  V30 2646 C 252.072 0.788187 4.43958 0
M  V30 2647 C 250.734 1.11906 4.68007 0
M  V30 2648 C 253.086 1.59347 4.96244 0
M  V30 2649 C 250.414 2.25608 5.41588 0
M  V30 2650 C 252.766 2.7214 5.71072 0
M  V30 2651 C 251.43 3.05692 5.93387 0
M  V30 2652 H 250.7 -0.0520451 0.73917 0
M  V30 2653 H 253.347 0.572697 1.82736 0
M  V30 2654 H 251.652 -1.21496 3.72486 0
M  V30 2655 H 253.349 -0.872339 3.91397 0
M  V30 2656 H 249.939 0.520344 4.2543 0
M  V30 2657 H 254.123 1.35106 4.77556 0
M  V30 2658 H 249.379 2.51929 5.57083 0
M  V30 2659 H 253.553 3.34914 6.10578 0
M  V30 2660 H 251.18 3.9391 6.50184 0
M  V30 2661 N 252.755 -1.56801 0.158532 0
M  V30 2662 C 254.171 -1.5837 -0.197774 0
M  V30 2663 C 254.371 -1.17334 -1.63814 0
M  V30 2664 O 253.427 -0.878988 -2.36707 0
M  V30 2665 C 254.74 -3.00615 0.0714459 0
M  V30 2666 C 256.288 -3.12999 0.00864533 0
M  V30 2667 C 256.763 -4.57313 0.250685 0
M  V30 2668 N 258.254 -4.62777 0.198014 0
M  V30 2669 C 258.989 -5.72271 0.359642 0
M  V30 2670 N 258.485 -6.90371 0.579625 0
M  V30 2671 N 260.278 -5.61318 0.296438 0
M  V30 2672 H 252.429 -1.81765 1.09887 0
M  V30 2673 H 254.692 -0.841849 0.435884 0
M  V30 2674 H 254.398 -3.35068 1.06874 0
M  V30 2675 H 254.272 -3.71683 -0.642757 0
M  V30 2676 H 256.659 -2.7838 -0.979217 0
M  V30 2677 H 256.74 -2.44393 0.755359 0
M  V30 2678 H 256.384 -4.92639 1.2357 0
M  V30 2679 H 256.314 -5.24061 -0.516489 0
M  V30 2680 H 258.805 -3.77885 0.0331115 0
M  V30 2681 H 259.118 -7.69689 0.69275 0
M  V30 2682 H 257.463 -6.92264 0.616087 0
M  V30 2683 H 260.654 -4.67932 0.125258 0
M  V30 2684 H 260.827 -6.46599 0.425831 0
M  V30 2685 N 254.233 0.115231 -1.57178 0
M  V30 2686 C 255.18 1.14115 -2.00615 0
M  V30 2687 C 256.15 1.40939 -0.878941 0
M  V30 2688 O 257.335 1.52741 -1.14345 0
M  V30 2689 C 254.475 2.46156 -2.4187 0
M  V30 2690 C 253.588 2.26236 -3.68024 0
M  V30 2691 C 252.723 3.51534 -3.98243 0
M  V30 2692 C 251.762 3.26787 -5.17568 0
M  V30 2693 N 250.899 4.44298 -5.43639 0
M  V30 2694 H 255.739 0.763743 -2.88047 0
M  V30 2695 H 253.276 0.365615 -1.42484 0
M  V30 2696 H 255.234 3.23189 -2.63827 0
M  V30 2697 H 253.864 2.81783 -1.57475 0
M  V30 2698 H 252.916 1.40102 -3.5366 0
M  V30 2699 H 254.228 2.03929 -4.55208 0
M  V30 2700 H 253.382 4.36984 -4.20868 0
M  V30 2701 H 252.121 3.76876 -3.09541 0
M  V30 2702 H 251.126 2.39729 -4.94783 0
M  V30 2703 H 252.351 3.02812 -6.0785 0
M  V30 2704 H 250.297 4.69754 -4.57895 0
M  V30 2705 H 250.214 4.25109 -6.25154 0
M  V30 2706 H 251.482 5.3087 -5.70786 0
M  V30 2707 N 255.711 1.52812 0.385517 0
M  V30 2708 C 256.936 1.72207 1.15583 0
M  V30 2709 C 257.361 0.441034 1.82857 0
M  V30 2710 O 256.719 -0.603465 1.70962 0
M  V30 2711 C 256.767 2.87476 2.17692 0
M  V30 2712 O 255.871 2.54693 3.24354 0
M  V30 2713 H 255.212 0.572526 0.336319 0
M  V30 2714 H 257.742 1.99618 0.448744 0
M  V30 2715 H 257.752 3.13072 2.6163 0
M  V30 2716 H 256.427 3.80408 1.68115 0
M  V30 2717 H 255.004 2.3985 2.85529 0
M  V30 2718 N 257.189 -0.644168 1.43834 0
M  V30 2719 C 258.438 -1.39985 1.45214 0
M  V30 2720 C 258.751 -1.95421 0.0835494 0
M  V30 2721 O 259.957 -2.71488 -0.0251748 0
M  V30 2722 C 258.413 -2.53384 2.55587 0
M  V30 2723 C 258.021 -2.04517 3.98594 0
M  V30 2724 C 259.765 -3.30685 2.66172 0
M  V30 2725 C 257.672 -3.1518 5.00416 0
M  V30 2726 H 256.602 -0.526005 0.540218 0
M  V30 2727 H 259.253 -0.694367 1.69855 0
M  V30 2728 H 257.635 -3.26446 2.24163 0
M  V30 2729 H 258.809 -1.38405 4.39523 0
M  V30 2730 H 257.124 -1.40068 3.92135 0
M  V30 2731 H 259.721 -4.13158 3.39418 0
M  V30 2732 H 260.064 -3.79312 1.71546 0
M  V30 2733 H 260.597 -2.64708 2.96942 0
M  V30 2734 H 257.336 -2.71511 5.96625 0
M  V30 2735 H 256.856 -3.79974 4.64091 0
M  V30 2736 H 258.535 -3.80166 5.23529 0
M  V30 2737 N 258.668 -1.30515 -0.883378 0
M  V30 2738 C 259.914 -1.19607 -1.63774 0
M  V30 2739 C 260.247 0.248314 -1.92606 0
M  V30 2740 O 259.522 1.17742 -1.54813 0
M  V30 2741 C 259.805 -2.02669 -2.97653 0
M  V30 2742 C 259.658 -3.55335 -2.75784 0
M  V30 2743 C 260.977 -1.86573 -3.98596 0
M  V30 2744 H 258.096 -0.435856 -0.594305 0
M  V30 2745 H 260.738 -1.60165 -1.02212 0
M  V30 2746 H 258.888 -1.68208 -3.50197 0
M  V30 2747 H 260.56 -3.99863 -2.30016 0
M  V30 2748 H 258.803 -3.79438 -2.1026 0
M  V30 2749 H 259.474 -4.08745 -3.70988 0
M  V30 2750 H 261.95 -2.16703 -3.55217 0
M  V30 2751 H 260.826 -2.47014 -4.90179 0
M  V30 2752 H 261.087 -0.825321 -4.34328 0
M  V30 2753 N 260.146 1.09593 -1.13257 0
M  V30 2754 C 261.109 2.14359 -0.811358 0
M  V30 2755 C 262.109 1.59808 0.178377 0
M  V30 2756 O 263.299 1.74132 -0.0484911 0
M  V30 2757 C 260.431 3.40269 -0.207276 0
M  V30 2758 H 261.624 2.44284 -1.73969 0
M  V30 2759 H 259.177 1.25102 -0.936973 0
M  V30 2760 H 259.912 3.15969 0.73036 0
M  V30 2761 H 259.697 3.81154 -0.919992 0
M  V30 2762 H 261.187 4.176 0.000667944 0
M  V30 2763 N 261.624 0.925811 1.2754 0
M  V30 2764 C 262.872 0.564138 1.94067 0
M  V30 2765 C 263.193 -0.897188 1.73134 0
M  V30 2766 O 262.463 -1.63573 1.07799 0
M  V30 2767 H 261.043 0.205645 0.718136 0
M  V30 2768 H 263.705 1.1778 1.55287 0
M  V30 2769 H 262.801 0.76881 3.02483 0
M  V30 2770 N 263.102 -1.41638 0.69111 0
M  V30 2771 C 264.348 -2.01598 0.220519 0
M  V30 2772 C 264.681 -1.54594 -1.17535 0
M  V30 2773 O 263.956 -0.755177 -1.79241 0
M  V30 2774 C 264.239 -3.59062 0.273243 0
M  V30 2775 C 264.092 -4.16203 1.70573 0
M  V30 2776 C 265.411 -4.38546 -0.369457 0
M  V30 2777 H 262.53 -0.732468 0.0816045 0
M  V30 2778 H 265.172 -1.68445 0.878986 0
M  V30 2779 H 263.322 -3.87435 -0.287411 0
M  V30 2780 H 264.994 -3.98722 2.31989 0
M  V30 2781 H 263.237 -3.71414 2.2413 0
M  V30 2782 H 263.908 -5.25358 1.69419 0
M  V30 2783 H 266.384 -4.1596 0.107977 0
M  V30 2784 H 265.26 -5.48069 -0.302002 0
M  V30 2785 H 265.521 -4.17662 -1.44951 0
M  V30 2786 N 264.58 -0.43555 -1.51462 0
M  V30 2787 C 265.49 0.383001 -2.31453 0
M  V30 2788 C 266.506 1.02931 -1.4029 0
M  V30 2789 O 267.682 1.02507 -1.73362 0
M  V30 2790 C 264.747 1.47043 -3.13973 0
M  V30 2791 C 263.808 0.844433 -4.20913 0
M  V30 2792 C 263.041 1.88004 -4.9949 0
M  V30 2793 O 263.264 3.10199 -4.78678 0
M  V30 2794 O 262.198 1.47157 -5.83634 0
M  V30 2795 H 266.024 -0.269964 -3.02498 0
M  V30 2796 H 263.609 -0.19813 -1.4808 0
M  V30 2797 H 265.491 2.10113 -3.65281 0
M  V30 2798 H 264.166 2.10751 -2.45695 0
M  V30 2799 H 263.073 0.175729 -3.73687 0
M  V30 2800 H 264.406 0.250869 -4.9156 0
M  V30 2801 N 266.058 1.56714 -0.166846 0
M  V30 2802 C 267.286 2.0112 0.485644 0
M  V30 2803 C 267.701 1.04705 1.57106 0
M  V30 2804 O 267.058 0.0471923 1.82439 0
M  V30 2805 C 267.109 3.45361 1.06808 0
M  V30 2806 O 266.83 4.38092 0.0259995 0
M  V30 2807 C 268.331 4.05145 1.79924 0
M  V30 2808 H 265.551 0.65931 0.124704 0
M  V30 2809 H 268.095 2.02746 -0.267262 0
M  V30 2810 H 266.25 3.44524 1.7715 0
M  V30 2811 H 266.664 5.22519 0.455398 0
M  V30 2812 H 268.138 5.08009 2.15942 0
M  V30 2813 H 268.615 3.46982 2.69258 0
M  V30 2814 H 269.221 4.09672 1.14234 0
M  V30 2815 N 267.536 -0.106894 1.57237 0
M  V30 2816 C 268.466 -1.13148 2.04254 0
M  V30 2817 C 269.447 -1.42476 0.929224 0
M  V30 2818 O 270.632 -1.52709 1.19973 0
M  V30 2819 C 267.762 -2.4545 2.45706 0
M  V30 2820 C 266.716 -2.30558 3.60592 0
M  V30 2821 C 266.042 -3.67931 3.87983 0
M  V30 2822 C 267.342 -1.75597 4.91897 0
M  V30 2823 H 269.036 -0.740374 2.90101 0
M  V30 2824 H 266.582 -0.354696 1.39563 0
M  V30 2825 H 268.535 -3.17389 2.77205 0
M  V30 2826 H 267.259 -2.86475 1.56843 0
M  V30 2827 H 265.918 -1.61067 3.29322 0
M  V30 2828 H 265.566 -4.06462 2.96306 0
M  V30 2829 H 265.266 -3.58817 4.65322 0
M  V30 2830 H 266.79 -4.41356 4.21945 0
M  V30 2831 H 268.204 -2.37364 5.21854 0
M  V30 2832 H 266.601 -1.77272 5.73319 0
M  V30 2833 H 267.671 -0.714451 4.79608 0
M  V30 2834 N 269.014 -1.53014 -0.377408 0
M  V30 2835 C 270.26 -1.68872 -1.12294 0
M  V30 2836 C 270.593 -0.433224 -1.89306 0
M  V30 2837 O 269.868 0.569258 -1.85983 0
M  V30 2838 C 270.151 -2.93115 -2.09179 0
M  V30 2839 C 270.004 -4.28794 -1.35853 0
M  V30 2840 C 271.323 -3.12928 -3.09458 0
M  V30 2841 H 268.442 -0.614518 -0.406862 0
M  V30 2842 H 271.084 -1.85633 -0.40503 0
M  V30 2843 H 269.234 -2.78956 -2.70399 0
M  V30 2844 H 270.906 -4.54742 -0.775082 0
M  V30 2845 H 269.149 -4.28744 -0.660364 0
M  V30 2846 H 269.82 -5.11837 -2.06706 0
M  V30 2847 H 272.296 -3.26194 -2.58334 0
M  V30 2848 H 271.172 -4.01316 -3.74482 0
M  V30 2849 H 271.433 -2.27669 -3.78971 0
M  V30 2850 N 270.492 0.636531 -1.44174 0
M  V30 2851 C 271.717 1.42847 -1.50364 0
M  V30 2852 C 272.142 1.87665 -0.127867 0
M  V30 2853 O 271.5 1.58408 0.88185 0
M  V30 2854 C 271.548 2.62854 -2.4686 0
M  V30 2855 O 270.652 3.62501 -1.9664 0
M  V30 2856 H 269.993 0.427642 -0.507955 0
M  V30 2857 H 272.523 0.777422 -1.89255 0
M  V30 2858 H 272.533 3.10465 -2.64718 0
M  V30 2859 H 271.208 2.29578 -3.46795 0
M  V30 2860 H 269.785 3.21735 -1.88523 0
M  V30 2861 N 271.97 1.30982 0.876444 0
M  V30 2862 C 273.386 1.09498 1.16113 0
M  V30 2863 C 273.586 -0.13875 2.01022 0
M  V30 2864 O 272.642 -0.829935 2.38471 0
M  V30 2865 C 273.955 2.36308 1.85954 0
M  V30 2866 C 275.503 2.41856 1.98683 0
M  V30 2867 C 275.978 3.6853 2.71937 0
M  V30 2868 N 277.469 3.69387 2.79477 0
M  V30 2869 C 278.204 4.64096 3.36753 0
M  V30 2870 N 277.7 5.69155 3.95012 0
M  V30 2871 N 279.493 4.51626 3.3465 0
M  V30 2872 H 271.644 2.10118 0.310494 0
M  V30 2873 H 273.907 0.926634 0.200131 0
M  V30 2874 H 273.613 3.26388 1.31011 0
M  V30 2875 H 273.487 2.4561 2.86278 0
M  V30 2876 H 275.874 1.52249 2.52793 0
M  V30 2877 H 275.955 2.36523 0.9742 0
M  V30 2878 H 275.599 4.58499 2.18496 0
M  V30 2879 H 275.529 3.71127 3.73593 0
M  V30 2880 H 278.02 2.93438 2.38123 0
M  V30 2881 H 278.333 6.3751 4.36808 0
M  V30 2882 H 276.678 5.72937 3.93406 0
M  V30 2883 H 279.869 3.68728 2.8837 0
M  V30 2884 H 280.042 5.25614 3.7899 0
M  V30 2885 N 273.449 -1.08991 1.13837 0
M  V30 2886 C 274.677 -1.85011 0.926202 0
M  V30 2887 C 275.092 -1.8135 -0.525127 0
M  V30 2888 O 274.449 -1.21287 -1.36366 0
M  V30 2889 C 274.5 -3.32802 1.41155 0
M  V30 2890 O 274.221 -3.36444 2.80601 0
M  V30 2891 C 275.722 -4.25649 1.23847 0
M  V30 2892 H 272.942 -0.584249 0.32999 0
M  V30 2893 H 275.486 -1.37688 1.51202 0
M  V30 2894 H 273.641 -3.77536 0.868631 0
M  V30 2895 H 274.055 -4.28657 3.02248 0
M  V30 2896 H 275.529 -5.27485 1.62675 0
M  V30 2897 H 276.006 -4.38828 0.18065 0
M  V30 2898 H 276.612 -3.86735 1.76964 0
M  V30 2899 N 274.927 -0.932562 -1.27047 0
M  V30 2900 C 276.175 -0.574422 -1.93765 0
M  V30 2901 C 276.496 0.887993 -1.73608 0
M  V30 2902 O 275.766 1.62999 -1.08665 0
M  V30 2903 H 274.346 -0.209451 -0.717035 0
M  V30 2904 H 277.008 -1.18601 -1.5466 0
M  V30 2905 H 276.104 -0.784841 -3.02071 0
M  V30 2906 N 276.405 1.4127 -0.698611 0
M  V30 2907 C 277.635 2.05205 -0.239644 0
M  V30 2908 C 278.043 1.52684 1.11733 0
M  V30 2909 O 277.386 0.671222 1.70998 0
M  V30 2910 C 277.448 3.59289 -0.123126 0
M  V30 2911 C 277.112 4.34619 -1.41263 0
M  V30 2912 C 278.109 4.63701 -2.35111 0
M  V30 2913 C 275.794 4.73837 -1.66684 0
M  V30 2914 C 277.788 5.30966 -3.52639 0
M  V30 2915 C 275.475 5.40837 -2.84498 0
M  V30 2916 C 276.473 5.69329 -3.77298 0
M  V30 2917 O 276.161 6.34949 -4.93047 0
M  V30 2918 H 275.893 0.66723 -0.108537 0
M  V30 2919 H 278.447 1.81974 -0.952602 0
M  V30 2920 H 276.677 3.81272 0.645628 0
M  V30 2921 H 278.366 4.04797 0.299056 0
M  V30 2922 H 279.132 4.33882 -2.16729 0
M  V30 2923 H 275.011 4.51039 -0.953135 0
M  V30 2924 H 278.555 5.53121 -4.25091 0
M  V30 2925 H 274.452 5.70075 -3.02795 0
M  V30 2926 H 275.22 6.53445 -4.92902 0
M  V30 2927 N 277.883 0.443576 1.51229 0
M  V30 2928 C 279.111 -0.11929 2.06556 0
M  V30 2929 C 279.526 -1.35921 1.31038 0
M  V30 2930 O 278.883 -1.78675 0.371704 0
M  V30 2931 C 278.934 -0.435228 3.5887 0
M  V30 2932 O 278.655 0.755486 4.31537 0
M  V30 2933 C 280.156 -1.04808 4.30732 0
M  V30 2934 H 277.376 -0.0051584 0.67098 0
M  V30 2935 H 279.92 0.624453 1.94733 0
M  V30 2936 H 278.075 -1.12887 3.70588 0
M  V30 2937 H 278.489 0.483491 5.22267 0
M  V30 2938 H 279.963 -1.2191 5.3837 0
M  V30 2939 H 280.44 -2.03081 3.89429 0
M  V30 2940 H 281.046 -0.393637 4.23474 0
M  V30 2941 N 279.361 -1.56624 0.175154 0
M  V30 2942 C 280.609 -1.96609 -0.467885 0
M  V30 2943 C 280.93 -1.06238 -1.63519 0
M  V30 2944 O 280.2 -0.129523 -1.95471 0
M  V30 2945 H 278.78 -0.726008 -0.175845 0
M  V30 2946 H 281.442 -1.93195 0.257234 0
M  V30 2947 H 280.538 -3.00989 -0.825342 0
M  V30 2948 N 280.839 0.0985539 -1.57292 0
M  V30 2949 C 281.749 1.13824 -2.05137 0
M  V30 2950 C 282.765 1.44076 -0.975604 0
M  V30 2951 O 283.941 1.54786 -1.28853 0
M  V30 2952 C 281.006 2.43969 -2.46333 0
M  V30 2953 C 280.067 2.2093 -3.68087 0
M  V30 2954 C 279.3 3.44869 -4.0731 0
M  V30 2955 O 279.523 4.52972 -3.46659 0
M  V30 2956 O 278.457 3.34661 -5.00285 0
M  V30 2957 H 282.283 0.761881 -2.93988 0
M  V30 2958 H 279.868 0.310818 -1.46131 0
M  V30 2959 H 281.75 3.20609 -2.73473 0
M  V30 2960 H 280.425 2.81038 -1.60621 0
M  V30 2961 H 279.332 1.42081 -3.46069 0
M  V30 2962 H 280.665 1.88755 -4.54568 0
M  V30 2963 N 282.317 1.53212 0.369288 0
M  V30 2964 C 283.594 1.59815 1.12776 0
M  V30 2965 C 283.974 0.403402 2.0721 0
M  V30 2966 O 283.322 -0.606667 2.20299 0
M  V30 2967 C 283.532 2.94664 1.87013 0
M  V30 2968 C 284.88 3.49109 2.41677 0
M  V30 2969 O 285.904 2.96669 1.97144 0
M  V30 2970 O 284.763 4.40775 3.23079 0
M  V30 2971 H 281.857 0.645376 0.517125 0
M  V30 2972 H 284.403 1.65553 0.37285 0
M  V30 2973 H 283.175 3.73061 1.18071 0
M  V30 2974 H 282.798 2.92401 2.69421 0
M  V30 2975 N 283.795 -0.628877 1.44509 0
M  V30 2976 C 285.043 -1.38565 1.4712 0
M  V30 2977 C 285.364 -1.94712 0.105899 0
M  V30 2978 O 284.634 -1.75912 -0.862079 0
M  V30 2979 H 283.214 -0.514333 0.541729 0
M  V30 2980 H 285.876 -0.740018 1.80305 0
M  V30 2981 H 284.972 -2.21583 2.19789 0
M  V30 2982 N 285.273 -1.31445 -0.869486 0
M  V30 2983 C 286.52 -1.21158 -1.62256 0
M  V30 2984 C 286.848 0.230155 -1.93133 0
M  V30 2985 O 286.103 1.17906 -1.56194 0
M  V30 2986 C 286.402 -2.00145 -2.96102 0
M  V30 2987 C 286.068 -3.4964 -2.84715 0
M  V30 2988 C 284.73 -3.90403 -2.81317 0
M  V30 2989 C 287.082 -4.44769 -2.71716 0
M  V30 2990 C 284.41 -5.24561 -2.62778 0
M  V30 2991 C 286.762 -5.79054 -2.54714 0
M  V30 2992 C 285.426 -6.19037 -2.49699 0
M  V30 2993 H 284.696 -0.443348 -0.593737 0
M  V30 2994 H 287.343 -1.62715 -1.00976 0
M  V30 2995 H 285.648 -1.5127 -3.6142 0
M  V30 2996 H 287.345 -1.89566 -3.53363 0
M  V30 2997 H 283.935 -3.17256 -2.88178 0
M  V30 2998 H 288.119 -4.14208 -2.73397 0
M  V30 2999 H 283.375 -5.54613 -2.57321 0
M  V30 3000 H 287.549 -6.52393 -2.43632 0
M  V30 3001 H 285.176 -7.22935 -2.35093 0
M  V30 3002 N 286.751 1.08385 -1.14413 0
M  V30 3003 C 287.661 2.18856 -0.844951 0
M  V30 3004 C 288.677 1.73121 0.174668 0
M  V30 3005 O 289.853 2.014 0.00312857 0
M  V30 3006 C 286.918 3.45155 -0.32696 0
M  V30 3007 C 285.979 4.05513 -1.40916 0
M  V30 3008 C 285.212 5.25784 -0.915793 0
M  V30 3009 O 285.435 5.69884 0.242651 0
M  V30 3010 O 284.369 5.77545 -1.69487 0
M  V30 3011 H 288.195 2.46919 -1.76818 0
M  V30 3012 H 285.78 1.17524 -0.922411 0
M  V30 3013 H 287.662 4.21377 -0.0440211 0
M  V30 3014 H 286.337 3.18668 0.568539 0
M  V30 3015 H 285.244 3.30879 -1.74556 0
M  V30 3016 H 286.577 4.3625 -2.27919 0
M  V30 3017 N 288.23 0.939286 1.26551 0
M  V30 3018 C 289.16 0.465044 2.28822 0
M  V30 3019 C 290.141 -0.480692 1.63167 0
M  V30 3020 O 291.326 -0.382955 1.90387 0
M  V30 3021 C 288.456 -0.27234 3.46231 0
M  V30 3022 C 287.41 0.58666 4.2396 0
M  V30 3023 C 286.736 -0.280573 5.33963 0
M  V30 3024 C 288.036 1.85704 4.88171 0
M  V30 3025 H 289.73 1.31979 2.68741 0
M  V30 3026 H 287.276 0.636061 1.29191 0
M  V30 3027 H 289.229 -0.615133 4.16886 0
M  V30 3028 H 287.953 -1.16121 3.0526 0
M  V30 3029 H 286.612 0.91232 3.55067 0
M  V30 3030 H 286.26 -1.16874 4.89234 0
M  V30 3031 H 285.96 0.29076 5.8688 0
M  V30 3032 H 287.484 -0.618678 6.07458 0
M  V30 3033 H 288.898 1.58161 5.51052 0
M  V30 3034 H 287.295 2.37279 5.51197 0
M  V30 3035 H 288.365 2.56957 4.11219 0
M  V30 3036 N 289.708 -1.40897 0.706093 0
M  V30 3037 C 290.641 -2.282 -0.00328781 0
M  V30 3038 C 291.619 -1.42816 -0.77732 0
M  V30 3039 O 292.803 -1.72237 -0.765944 0
M  V30 3040 C 289.93 -3.23226 -1.01205 0
M  V30 3041 C 288.976 -4.25222 -0.329955 0
M  V30 3042 S 289.809 -5.27269 0.935298 0
M  V30 3043 C 290.965 -6.25859 -0.0716061 0
M  V30 3044 H 291.198 -2.88016 0.737143 0
M  V30 3045 H 288.731 -1.46191 0.496756 0
M  V30 3046 H 290.689 -3.78503 -1.58888 0
M  V30 3047 H 289.35 -2.62485 -1.72513 0
M  V30 3048 H 288.543 -4.92023 -1.09221 0
M  V30 3049 H 288.145 -3.73595 0.174069 0
M  V30 3050 H 290.437 -6.71204 -0.921521 0
M  V30 3051 H 291.38 -7.0586 0.562765 0
M  V30 3052 H 291.788 -5.62852 -0.431088 0
M  V30 3053 N 291.186 -0.45159 -1.50991 0
M  V30 3054 C 292.116 0.342898 -2.30969 0
M  V30 3055 C 293.097 1.00815 -1.37005 0
M  V30 3056 O 294.282 1.00907 -1.65926 0
M  V30 3057 C 291.412 1.43637 -3.16205 0
M  V30 3058 C 290.366 0.893818 -4.18563 0
M  V30 3059 C 289.692 2.08411 -4.92411 0
M  V30 3060 C 290.992 -0.0815568 -5.22236 0
M  V30 3061 H 292.686 -0.324556 -2.97636 0
M  V30 3062 H 290.232 -0.157531 -1.43136 0
M  V30 3063 H 292.185 1.9995 -3.70942 0
M  V30 3064 H 290.909 2.13232 -2.47386 0
M  V30 3065 H 289.568 0.352798 -3.64898 0
M  V30 3066 H 289.216 2.76658 -4.20082 0
M  V30 3067 H 288.916 1.72741 -5.61636 0
M  V30 3068 H 290.44 2.65251 -5.49976 0
M  V30 3069 H 291.854 0.391742 -5.7196 0
M  V30 3070 H 290.251 -0.351551 -5.99069 0
M  V30 3071 H 291.321 -1.01374 -4.74185 0
M  V30 3072 N 292.664 1.56529 -0.183458 0
M  V30 3073 C 293.574 2.22144 0.754272 0
M  V30 3074 C 294.59 1.21684 1.24374 0
M  V30 3075 O 295.766 1.54385 1.29333 0
M  V30 3076 C 292.831 2.85884 1.96141 0
M  V30 3077 C 291.892 4.01579 1.51765 0
M  V30 3078 C 291.125 4.6227 2.66725 0
M  V30 3079 O 291.348 4.21865 3.83909 0
M  V30 3080 O 290.282 5.51936 2.40104 0
M  V30 3081 H 294.108 3.02861 0.225527 0
M  V30 3082 H 291.693 1.49331 0.0453032 0
M  V30 3083 H 293.575 3.26253 2.66715 0
M  V30 3084 H 292.25 2.08154 2.47899 0
M  V30 3085 H 291.157 3.65856 0.781049 0
M  V30 3086 H 292.49 4.80938 1.04686 0
M  V30 3087 N 294.142 -0.090211 1.57342 0
M  V30 3088 C 295.105 -1.09335 2.01441 0
M  V30 3089 C 296.105 -1.32666 0.908641 0
M  V30 3090 O 297.295 -1.28697 1.174 0
M  V30 3091 C 294.427 -2.44136 2.3793 0
M  V30 3092 H 295.62 -0.713662 2.91285 0
M  V30 3093 H 293.173 -0.335404 1.52659 0
M  V30 3094 H 293.908 -2.86972 1.51055 0
M  V30 3095 H 293.693 -2.28548 3.18603 0
M  V30 3096 H 295.183 -3.16277 2.72688 0
M  V30 3097 N 295.62 -1.53406 -0.361157 0
M  V30 3098 C 296.567 -1.80156 -1.44265 0
M  V30 3099 C 297.537 -0.646183 -1.53015 0
M  V30 3100 O 298.722 -0.888818 -1.68833 0
M  V30 3101 C 295.862 -2.00116 -2.81154 0
M  V30 3102 C 294.975 -3.27833 -2.81335 0
M  V30 3103 C 294.11 -3.37957 -4.09828 0
M  V30 3104 C 293.149 -4.59689 -4.04168 0
M  V30 3105 N 292.286 -4.66942 -5.24318 0
M  V30 3106 H 297.126 -2.72438 -1.20754 0
M  V30 3107 H 294.663 -1.34954 -0.585296 0
M  V30 3108 H 296.621 -2.09677 -3.60682 0
M  V30 3109 H 295.251 -1.11167 -3.03054 0
M  V30 3110 H 294.303 -3.27204 -1.94014 0
M  V30 3111 H 295.615 -4.17442 -2.73027 0
M  V30 3112 H 294.769 -3.46853 -4.97773 0
M  V30 3113 H 293.508 -2.46372 -4.20894 0
M  V30 3114 H 292.513 -4.50889 -3.14609 0
M  V30 3115 H 293.738 -5.5262 -3.947 0
M  V30 3116 H 291.684 -3.7826 -5.35962 0
M  V30 3117 H 291.601 -5.50462 -5.18197 0
M  V30 3118 H 292.869 -4.80127 -6.14084 0
M  V30 3119 N 297.098 0.621204 -1.44841 0
M  V30 3120 C 298.046 1.75385 -1.52784 0
M  V30 3121 C 299.04 1.64639 -0.398779 0
M  V30 3122 O 300.246 1.70598 -0.574137 0
M  V30 3123 H 296.621 0.579193 -0.479625 0
M  V30 3124 H 298.592 1.6581 -2.48092 0
M  V30 3125 C 297.341 3.13742 -1.4987 0
M  V30 3126 H 296.664 3.22663 -2.36069 0
M  V30 3127 H 298.104 3.92861 -1.59487 0
M  V30 3128 C 296.563 3.36175 -0.220973 0
M  V30 3129 O 297.093 3.95469 0.704782 0
M  V30 3130 N 295.299 2.90348 -0.120963 0
M  V30 3131 H 294.846 2.42278 -0.875162 0
M  V30 3132 H 294.804 3.05732 0.733168 0
M  V30 3133 N 298.576 1.31904 0.862503 0
M  V30 3134 C 299.539 1.20131 1.95195 0
M  V30 3135 C 300.539 0.126409 1.60302 0
M  V30 3136 O 301.729 0.376234 1.70089 0
M  V30 3137 C 298.861 0.845691 3.30244 0
M  V30 3138 H 300.054 2.16943 2.07064 0
M  V30 3139 H 297.607 1.15622 1.05172 0
M  V30 3140 H 298.342 -0.120957 3.24074 0
M  V30 3141 H 298.127 1.62276 3.56944 0
M  V30 3142 H 299.617 0.787418 4.10109 0
M  V30 3143 N 300.054 -1.07777 1.14986 0
M  V30 3144 C 301.465 -1.61766 0.932127 0
M  V30 3145 C 301.816 -1.88974 -0.527581 0
M  V30 3146 O 300.941 -1.65198 -1.39781 0
M  V30 3147 C 301.536 -2.93891 1.68563 0
M  V30 3148 C 300.095 -3.44639 1.5133 0
M  V30 3149 C 299.242 -2.18767 1.704 0
M  V30 3150 H 302.193 -0.909201 1.30074 0
M  V30 3151 H 302.214 -3.62623 1.15259 0
M  V30 3152 H 301.726 -2.74057 2.74799 0
M  V30 3153 H 299.827 -3.69564 0.474702 0
M  V30 3154 H 299.94 -4.20966 2.28746 0
M  V30 3155 H 298.304 -2.28253 1.13016 0
M  V30 3156 H 299.087 -2.01433 2.77992 0
M  V30 3157 N 301.532 -0.945985 -1.26051 0
M  V30 3158 C 302.479 -0.45809 -2.26208 0
M  V30 3159 C 303.449 0.484816 -1.58867 0
M  V30 3160 O 304.634 0.399969 -1.86561 0
M  V30 3161 C 301.774 0.266131 -3.44072 0
M  V30 3162 C 300.887 -0.713005 -4.26075 0
M  V30 3163 C 300.022 0.0329013 -5.3119 0
M  V30 3164 C 299.061 -0.93774 -6.04874 0
M  V30 3165 N 298.198 -0.223274 -7.01745 0
M  V30 3166 H 303.038 -1.3171 -2.67313 0
M  V30 3167 H 300.575 -0.66069 -1.31428 0
M  V30 3168 H 302.533 0.702514 -4.11243 0
M  V30 3169 H 301.163 1.08925 -3.03867 0
M  V30 3170 H 300.215 -1.26789 -3.58648 0
M  V30 3171 H 301.527 -1.45406 -4.77136 0
M  V30 3172 H 300.681 0.528335 -6.04395 0
M  V30 3173 H 299.42 0.806801 -4.8098 0
M  V30 3174 H 298.425 -1.44425 -5.30492 0
M  V30 3175 H 299.65 -1.71172 -6.57173 0
M  V30 3176 H 297.596 0.532046 -6.53839 0
M  V30 3177 H 297.513 -0.90357 -7.50581 0
M  V30 3178 H 298.781 0.250907 -7.79096 0
M  V30 3179 N 303.011 1.40521 -0.713556 0
M  V30 3180 C 304.257 2.01221 -0.252564 0
M  V30 3181 C 304.59 1.56444 1.1506 0
M  V30 3182 O 303.865 0.783597 1.78017 0
M  V30 3183 C 304.148 3.58582 -0.330332 0
M  V30 3184 C 304.001 4.13437 -1.77173 0
M  V30 3185 C 305.32 4.39079 0.299641 0
M  V30 3186 H 302.439 0.731077 -0.0932471 0
M  V30 3187 H 305.081 1.67026 -0.905673 0
M  V30 3188 H 303.231 3.87844 0.225737 0
M  V30 3189 H 304.903 3.9498 -2.38303 0
M  V30 3190 H 303.146 3.67801 -2.3001 0
M  V30 3191 H 303.817 5.22597 -1.77755 0
M  V30 3192 H 306.293 4.15735 -0.174139 0
M  V30 3193 H 305.169 5.4848 0.214771 0
M  V30 3194 H 305.43 4.19915 1.38288 0
M  V30 3195 N 304.489 0.459591 1.5075 0
M  V30 3196 C 305.735 -0.091664 2.03193 0
M  V30 3197 C 306.09 -1.38432 1.3362 0
M  V30 3198 O 305.383 -1.86257 0.449322 0
M  V30 3199 C 305.577 -0.342866 3.55752 0
M  V30 3200 C 305.406 0.923888 4.40107 0
M  V30 3201 C 304.176 1.46388 4.83631 0
M  V30 3202 C 306.374 1.81617 4.81165 0
M  V30 3203 N 304.356 2.68086 5.52271 0
M  V30 3204 C 305.727 2.87907 5.49099 0
M  V30 3205 C 307.782 1.82793 4.63132 0
M  V30 3206 C 306.485 3.95347 6.0091 0
M  V30 3207 C 308.511 2.89182 5.15876 0
M  V30 3208 C 307.873 3.94191 5.83774 0
M  V30 3209 H 303.972 0.00619247 0.781975 0
M  V30 3210 H 306.556 0.625233 1.84388 0
M  V30 3211 H 304.727 -1.0288 3.74527 0
M  V30 3212 H 306.459 -0.887445 3.9485 0
M  V30 3213 H 303.214 1.01466 4.62603 0
M  V30 3214 H 303.638 3.29857 5.91205 0
M  V30 3215 H 308.28 1.0293 4.1008 0
M  V30 3216 H 305.998 4.76035 6.53006 0
M  V30 3217 H 309.584 2.91061 5.0376 0
M  V30 3218 H 308.464 4.75161 6.23853 0
M  V30 3219 N 305.967 -1.56429 0.191757 0
M  V30 3220 C 307.244 -1.89224 -0.495332 0
M  V30 3221 C 307.624 -1.10478 -1.79883 0
M  V30 3222 O 306.972 -0.204852 -2.2758 0
M  V30 3223 C 307.182 -3.41548 -0.717367 0
M  V30 3224 C 308.53 -4.11711 -1.03823 0
M  V30 3225 O 309.554 -3.4698 -0.805204 0
M  V30 3226 O 308.413 -5.2611 -1.47887 0
M  V30 3227 H 305.507 -0.785788 -0.25781 0
M  V30 3228 H 308.053 -1.68111 0.231721 0
M  V30 3229 H 306.825 -3.90772 0.203287 0
M  V30 3230 H 306.448 -3.68342 -1.497 0
M  V30 3231 N 307.445 0.0818655 -1.57387 0
M  V30 3232 C 308.408 1.08265 -2.02018 0
M  V30 3233 C 309.408 1.32183 -0.915664 0
M  V30 3234 O 310.598 1.28073 -1.18081 0
M  V30 3235 C 307.73 2.42871 -2.39221 0
M  V30 3236 H 308.923 0.698204 -2.91659 0
M  V30 3237 H 306.476 0.327303 -1.52835 0
M  V30 3238 H 307.211 2.86167 -1.52575 0
M  V30 3239 H 306.996 2.26855 -3.19811 0
M  V30 3240 H 308.486 3.14826 -2.74362 0
M  V30 3241 N 308.923 1.53595 0.353017 0
M  V30 3242 C 309.853 1.83902 1.43883 0
M  V30 3243 C 310.834 0.693421 1.55324 0
M  V30 3244 O 312.019 0.944452 1.69687 0
M  V30 3245 C 309.149 2.04016 2.8106 0
M  V30 3246 C 308.103 3.19814 2.84434 0
M  V30 3247 C 307.429 3.25244 4.24406 0
M  V30 3248 C 308.729 4.58133 2.50822 0
M  V30 3249 H 310.423 2.74835 1.1877 0
M  V30 3250 H 307.969 1.32242 0.569917 0
M  V30 3251 H 309.922 2.238 3.57059 0
M  V30 3252 H 308.646 1.09804 3.07588 0
M  V30 3253 H 307.305 2.9987 2.10887 0
M  V30 3254 H 306.953 2.28646 4.48029 0
M  V30 3255 H 306.653 4.03054 4.27576 0
M  V30 3256 H 308.177 3.47228 5.0226 0
M  V30 3257 H 309.591 4.77995 3.16534 0
M  V30 3258 H 307.988 5.38276 2.6529 0
M  V30 3259 H 309.058 4.62387 1.46034 0
M  V30 3260 N 310.401 -0.613514 1.45168 0
M  V30 3261 C 311.334 -1.73809 1.47871 0
M  V30 3262 C 312.312 -1.59097 0.33568 0
M  V30 3263 O 313.496 -1.8074 0.535299 0
M  V30 3264 C 310.623 -3.11574 1.32813 0
M  V30 3265 C 309.669 -3.4489 2.50905 0
M  V30 3266 S 310.502 -3.40393 4.13392 0
M  V30 3267 C 311.658 -4.80749 4.00789 0
M  V30 3268 H 311.891 -1.71252 2.43023 0
M  V30 3269 H 309.424 -0.789658 1.32679 0
M  V30 3270 H 311.382 -3.91065 1.24812 0
M  V30 3271 H 310.043 -3.11652 0.391418 0
M  V30 3272 H 309.236 -4.45183 2.36279 0
M  V30 3273 H 308.838 -2.72901 2.55736 0
M  V30 3274 H 311.13 -5.7041 3.65567 0
M  V30 3275 H 312.073 -5.00431 5.00974 0
M  V30 3276 H 312.481 -4.56151 3.32545 0
M  V30 3277 N 311.879 -1.3236 -0.855495 0
M  V30 3278 C 312.827 -1.2118 -1.9854 0
M  V30 3279 C 313.821 -0.116788 -1.68997 0
M  V30 3280 O 315.027 -0.279657 -1.77814 0
M  V30 3281 H 311.402 -0.375608 -0.651477 0
M  V30 3282 H 313.373 -2.16743 -2.05098 0
M  V30 3283 C 312.122 -0.950849 -3.34446 0
M  V30 3284 H 311.445 -1.78563 -3.57708 0
M  V30 3285 H 312.885 -0.912863 -4.14057 0
M  V30 3286 C 311.344 0.346404 -3.35114 0
M  V30 3287 O 311.874 1.35855 -3.7803 0
M  V30 3288 N 310.08 0.36808 -2.88259 0
M  V30 3289 H 309.627 -0.456102 -2.5353 0
M  V30 3290 H 309.585 1.23591 -2.89089 0
M  V30 3291 N 313.357 1.07166 -1.15556 0
M  V30 3292 C 314.287 2.16403 -0.877046 0
M  V30 3293 C 315.268 1.69217 0.173111 0
M  V30 3294 O 316.453 1.94181 0.027084 0
M  V30 3295 C 313.583 3.45349 -0.367632 0
M  V30 3296 C 312.537 4.05995 -1.35468 0
M  V30 3297 C 311.863 5.30045 -0.704038 0
M  V30 3298 C 313.163 4.45804 -2.72132 0
M  V30 3299 H 314.857 2.39959 -1.79053 0
M  V30 3300 H 312.403 1.15325 -0.862331 0
M  V30 3301 H 314.356 4.21095 -0.160317 0
M  V30 3302 H 313.08 3.21385 0.581326 0
M  V30 3303 H 311.739 3.32296 -1.54839 0
M  V30 3304 H 311.387 5.02373 0.251128 0
M  V30 3305 H 311.087 5.71579 -1.36277 0
M  V30 3306 H 312.611 6.08495 -0.50654 0
M  V30 3307 H 314.025 5.12671 -2.56595 0
M  V30 3308 H 312.422 4.98296 -3.34397 0
M  V30 3309 H 313.492 3.57083 -3.28054 0
M  V30 3310 N 314.835 0.952656 1.25548 0
M  V30 3311 C 315.765 0.489287 2.28316 0
M  V30 3312 C 316.746 -0.463359 1.63667 0
M  V30 3313 O 317.931 -0.36274 1.90782 0
M  V30 3314 C 315.061 -0.235603 3.465 0
M  V30 3315 C 314.015 0.631593 4.23314 0
M  V30 3316 C 313.341 -0.223923 5.34231 0
M  V30 3317 C 314.641 1.90871 4.86174 0
M  V30 3318 H 316.335 1.34822 2.67326 0
M  V30 3319 H 313.881 0.649728 1.28509 0
M  V30 3320 H 315.834 -0.570882 4.17515 0
M  V30 3321 H 314.558 -1.12877 3.06474 0
M  V30 3322 H 313.217 0.949929 3.54079 0
M  V30 3323 H 312.865 -1.11678 4.90446 0
M  V30 3324 H 312.565 0.35299 5.86539 0
M  V30 3325 H 314.089 -0.554214 6.0808 0
M  V30 3326 H 315.503 1.63997 5.49343 0
M  V30 3327 H 313.9 2.43112 5.4865 0
M  V30 3328 H 314.97 2.61304 4.08471 0
M  V30 3329 N 316.313 -1.40141 0.720998 0
M  V30 3330 C 317.729 -1.54632 0.395113 0
M  V30 3331 C 317.929 -1.69115 -1.09555 0
M  V30 3332 O 316.985 -1.68377 -1.88163 0
M  V30 3333 C 318.298 -2.77177 1.1659 0
M  V30 3334 C 319.846 -2.91 1.15274 0
M  V30 3335 C 320.321 -4.16465 1.90579 0
M  V30 3336 N 321.812 -4.23476 1.87675 0
M  V30 3337 C 322.547 -5.19475 2.42762 0
M  V30 3338 N 322.043 -6.21348 3.06428 0
M  V30 3339 N 323.836 -5.11592 2.32874 0
M  V30 3340 H 315.987 -1.28986 1.68749 0
M  V30 3341 H 318.25 -0.62412 0.713567 0
M  V30 3342 H 317.956 -2.72771 2.22011 0
M  V30 3343 H 317.83 -3.69442 0.76108 0
M  V30 3344 H 320.217 -2.94907 0.106702 0
M  V30 3345 H 320.298 -1.99838 1.59682 0
M  V30 3346 H 319.942 -4.1332 2.95176 0
M  V30 3347 H 319.872 -5.06646 1.43587 0
M  V30 3348 H 322.363 -3.50497 1.41281 0
M  V30 3349 H 322.676 -6.91034 3.45965 0
M  V30 3350 H 321.021 -6.21777 3.10514 0
M  V30 3351 H 324.212 -4.30936 1.82789 0
M  V30 3352 H 324.385 -5.86233 2.76106 0
M  V30 3353 N 317.792 -0.46758 -1.50504 0
M  V30 3354 C 318.739 0.328413 -2.28452 0
M  V30 3355 C 319.709 0.990313 -1.33349 0
M  V30 3356 O 320.894 1.00343 -1.62284 0
M  V30 3357 C 318.034 1.40648 -3.15138 0
M  V30 3358 C 317.147 0.759709 -4.25267 0
M  V30 3359 C 316.282 1.81537 -4.99217 0
M  V30 3360 C 315.321 1.14866 -6.01226 0
M  V30 3361 N 314.458 2.14702 -6.68467 0
M  V30 3362 H 319.298 -0.342603 -2.96024 0
M  V30 3363 H 316.835 -0.180801 -1.45985 0
M  V30 3364 H 318.793 2.04315 -3.63746 0
M  V30 3365 H 317.423 2.04671 -2.49619 0
M  V30 3366 H 316.475 0.0105671 -3.80399 0
M  V30 3367 H 317.787 0.233243 -4.98254 0
M  V30 3368 H 316.941 2.52793 -5.51526 0
M  V30 3369 H 315.68 2.37564 -4.25928 0
M  V30 3370 H 314.685 0.42171 -5.4818 0
M  V30 3371 H 315.91 0.595334 -6.76485 0
M  V30 3372 H 313.856 2.69752 -5.97972 0
M  V30 3373 H 313.773 1.6703 -7.37317 0
M  V30 3374 H 315.041 2.85348 -7.25394 0
M  V30 3375 N 319.27 1.56325 -0.20005 0
M  V30 3376 C 320.519 1.96895 0.437652 0
M  V30 3377 C 320.832 1.08999 1.62415 0
M  V30 3378 O 322.038 1.39372 2.32997 0
M  V30 3379 C 320.494 3.50198 0.830025 0
M  V30 3380 C 320.102 4.46765 -0.332461 0
M  V30 3381 C 321.846 3.99526 1.43453 0
M  V30 3382 C 319.753 5.91344 0.0811468 0
M  V30 3383 H 318.683 0.735209 0.167282 0
M  V30 3384 H 321.334 1.81148 -0.292853 0
M  V30 3385 H 319.716 3.61467 1.61734 0
M  V30 3386 H 320.89 4.47231 -1.11 0
M  V30 3387 H 319.205 4.07657 -0.848789 0
M  V30 3388 H 321.802 5.05025 1.75652 0
M  V30 3389 H 322.145 3.44122 2.34277 0
M  V30 3390 H 322.678 3.91393 0.71109 0
M  V30 3391 H 319.417 6.50685 -0.793033 0
M  V30 3392 H 318.937 5.94121 0.823445 0
M  V30 3393 H 320.616 6.44945 0.515252 0
M  V30 3394 N 320.748 -0.0735177 1.57428 0
M  V30 3395 C 322.025 -0.805903 1.78226 0
M  V30 3396 C 322.405 -1.95874 0.787189 0
M  V30 3397 O 321.753 -2.2779 -0.180029 0
M  V30 3398 C 321.963 -1.28045 3.24662 0
M  V30 3399 C 323.311 -1.71453 3.88444 0
M  V30 3400 O 324.335 -1.37616 3.28543 0
M  V30 3401 O 323.194 -2.34093 4.93825 0
M  V30 3402 H 320.288 -0.386041 0.73137 0
M  V30 3403 H 322.834 -0.0537269 1.69615 0
M  V30 3404 H 321.606 -0.455476 3.8864 0
M  V30 3405 H 321.229 -2.094 3.37991 0
M  V30 3406 N 322.226 -1.5378 -0.344866 0
M  V30 3407 C 323.474 -1.70625 -1.08311 0
M  V30 3408 C 323.795 -0.471447 -1.89215 0
M  V30 3409 O 323.065 0.514616 -1.8902 0
M  V30 3410 H 321.645 -0.629058 -0.402859 0
M  V30 3411 H 324.307 -1.9103 -0.386459 0
M  V30 3412 H 323.403 -2.57656 -1.76124 0
M  V30 3413 N 323.704 0.605807 -1.45491 0
M  V30 3414 C 325.12 0.926751 -1.29936 0
M  V30 3415 C 325.32 1.99896 -0.253706 0
M  V30 3416 O 324.376 2.50038 0.351737 0
M  V30 3417 C 325.689 1.36599 -2.67883 0
M  V30 3418 C 327.237 1.4801 -2.75793 0
M  V30 3419 C 327.712 1.95309 -4.14268 0
M  V30 3420 N 329.203 2.0254 -4.16571 0
M  V30 3421 C 329.938 2.40363 -5.20589 0
M  V30 3422 N 329.434 2.77143 -6.34952 0
M  V30 3423 N 331.227 2.40718 -5.07948 0
M  V30 3424 H 323.378 -0.102862 -2.12151 0
M  V30 3425 H 325.641 0.016639 -0.947854 0
M  V30 3426 H 325.347 0.652306 -3.45598 0
M  V30 3427 H 325.221 2.33215 -2.96463 0
M  V30 3428 H 327.608 2.1847 -1.98381 0
M  V30 3429 H 327.689 0.497041 -2.50925 0
M  V30 3430 H 327.333 1.25436 -4.92167 0
M  V30 3431 H 327.263 2.94532 -4.3653 0
M  V30 3432 H 329.754 1.76699 -3.34045 0
M  V30 3433 H 330.067 3.0489 -7.10114 0
M  V30 3434 H 328.412 2.74834 -6.3835 0
M  V30 3435 H 331.603 2.11392 -4.1765 0
M  V30 3436 H 331.776 2.69869 -5.89131 0
M  V30 3437 N 325.182 1.32811 0.848464 0
M  V30 3438 C 326.593 1.21315 1.41914 0
M  V30 3439 C 326.944 -0.171847 1.95446 0
M  V30 3440 O 326.069 -1.07093 1.88043 0
M  V30 3441 C 326.664 2.19631 2.57968 0
M  V30 3442 C 325.223 2.12003 3.11017 0
M  V30 3443 C 324.37 2.07651 1.83783 0
M  V30 3444 H 327.321 1.44549 0.655071 0
M  V30 3445 H 327.342 1.79845 3.35315 0
M  V30 3446 H 326.854 3.20423 2.18976 0
M  V30 3447 H 324.955 1.14481 3.54577 0
M  V30 3448 H 325.068 3.02111 3.71841 0
M  V30 3449 H 323.432 1.52983 2.03638 0
M  V30 3450 H 324.215 3.10235 1.47 0
M  V30 3451 N 326.66 -1.06551 1.16123 0
M  V30 3452 C 327.623 -2.12132 0.867906 0
M  V30 3453 C 328.623 -1.60224 -0.135944 0
M  V30 3454 O 329.813 -1.73943 0.0946422 0
M  V30 3455 C 326.945 -3.396 0.297419 0
M  V30 3456 H 328.138 -2.39586 1.80385 0
M  V30 3457 H 325.691 -1.22574 0.969812 0
M  V30 3458 H 326.426 -3.17794 -0.64633 0
M  V30 3459 H 326.211 -3.78581 1.02073 0
M  V30 3460 H 327.701 -4.17455 0.110052 0
M  V30 3461 N 328.138 -0.959301 -1.25041 0
M  V30 3462 C 329.386 -0.615393 -1.92503 0
M  V30 3463 C 329.707 0.850969 -1.75452 0
M  V30 3464 O 328.977 1.60658 -1.12098 0
M  V30 3465 H 327.557 -0.224613 -0.712431 0
M  V30 3466 H 330.219 -1.21855 -1.5211 0
M  V30 3467 H 329.315 -0.848738 -3.00338 0
M  V30 3468 N 329.616 1.39756 -0.72842 0
M  V30 3469 C 330.546 2.33289 -0.0991354 0
M  V30 3470 C 331.527 1.53568 0.731489 0
M  V30 3471 O 332.712 1.81987 0.677807 0
M  V30 3472 C 329.842 3.3763 0.813834 0
M  V30 3473 C 328.796 4.2791 0.0878663 0
M  V30 3474 C 328.122 5.22894 1.11741 0
M  V30 3475 C 329.422 5.11314 -1.06563 0
M  V30 3476 H 331.116 2.86163 -0.880408 0
M  V30 3477 H 328.662 1.37591 -0.424819 0
M  V30 3478 H 330.615 4.0201 1.26355 0
M  V30 3479 H 329.339 2.83181 1.62715 0
M  V30 3480 H 327.998 3.65 -0.342159 0
M  V30 3481 H 327.646 4.64744 1.92412 0
M  V30 3482 H 327.346 5.84143 0.636477 0
M  V30 3483 H 328.87 5.90151 1.56697 0
M  V30 3484 H 330.284 5.69076 -0.694671 0
M  V30 3485 H 328.681 5.81671 -1.47577 0
M  V30 3486 H 329.751 4.46534 -1.89038 0
M  V30 3487 N 331.094 0.475555 1.50254 0
M  V30 3488 C 332.342 -0.077738 2.0195 0
M  V30 3489 C 332.663 -1.39813 1.35931 0
M  V30 3490 O 331.933 -1.89249 0.506123 0
M  V30 3491 H 330.513 -0.031719 0.746326 0
M  V30 3492 H 333.175 0.626995 1.84539 0
M  V30 3493 H 332.271 -0.225995 3.11281 0
M  V30 3494 N 332.573 -1.56217 0.208337 0
M  V30 3495 C 333.536 -2.18455 -0.693557 0
M  V30 3496 C 334.536 -1.14268 -1.13135 0
M  V30 3497 O 335.726 -1.39577 -1.0423 0
M  V30 3498 C 332.858 -2.79727 -1.94848 0
M  V30 3499 H 334.051 -2.99519 -0.15114 0
M  V30 3500 H 331.604 -1.56245 -0.041287 0
M  V30 3501 H 332.339 -2.02497 -2.53309 0
M  V30 3502 H 332.124 -3.56009 -1.64316 0
M  V30 3503 H 333.614 -3.27475 -2.59133 0
M  V30 3504 N 334.051 0.0651679 -1.57465 0
M  V30 3505 C 335.467 0.420105 -1.53972 0
M  V30 3506 C 335.667 1.78782 -0.929474 0
M  V30 3507 O 334.723 2.46771 -0.534839 0
M  V30 3508 C 336.036 0.355084 -2.98596 0
M  V30 3509 C 337.584 0.434792 -3.09965 0
M  V30 3510 C 338.059 0.399609 -4.56253 0
M  V30 3511 N 339.55 0.459488 -4.60915 0
M  V30 3512 C 340.285 0.454584 -5.71595 0
M  V30 3513 N 339.781 0.404102 -6.9162 0
M  V30 3514 N 341.574 0.501635 -5.59857 0
M  V30 3515 H 333.725 -0.830328 -1.95498 0
M  V30 3516 H 335.988 -0.312244 -0.895102 0
M  V30 3517 H 335.694 -0.583357 -3.46828 0
M  V30 3518 H 335.568 1.16275 -3.58831 0
M  V30 3519 H 337.955 1.36366 -2.61703 0
M  V30 3520 H 338.036 -0.40157 -2.52628 0
M  V30 3521 H 337.68 -0.525436 -5.05175 0
M  V30 3522 H 337.61 1.25359 -5.11461 0
M  V30 3523 H 340.101 0.502482 -3.74544 0
M  V30 3524 H 340.414 0.404468 -7.71741 0
M  V30 3525 H 338.759 0.37069 -6.94011 0
M  V30 3526 H 341.95 0.538812 -4.64989 0
M  V30 3527 H 342.123 0.494345 -6.46112 0
M  V30 3528 N 335.529 1.53961 0.336706 0
M  V30 3529 C 336.806 1.62171 1.09361 0
M  V30 3530 C 337.186 0.447263 2.06307 0
M  V30 3531 O 336.534 -0.559802 2.21537 0
M  V30 3532 C 336.744 2.98565 1.80721 0
M  V30 3533 C 338.092 3.54157 2.34218 0
M  V30 3534 O 339.116 3.00784 1.90807 0
M  V30 3535 O 337.975 4.47528 3.13657 0
M  V30 3536 H 335.069 0.6562 0.503319 0
M  V30 3537 H 337.615 1.66307 0.33765 0
M  V30 3538 H 336.387 3.75482 1.10132 0
M  V30 3539 H 336.01 2.9805 2.63158 0
M  V30 3540 N 337.007 -0.598083 1.45811 0
M  V30 3541 C 338.253 -1.35882 1.50545 0
M  V30 3542 C 338.586 -1.93616 0.150445 0
M  V30 3543 O 337.861 -1.75604 -0.83628 0
M  V30 3544 C 338.144 -2.49966 2.59208 0
M  V30 3545 C 337.997 -1.97367 4.04186 0
M  V30 3546 C 339.316 -3.52068 2.64076 0
M  V30 3547 H 336.435 -0.492717 0.548087 0
M  V30 3548 H 339.077 -0.673319 1.77669 0
M  V30 3549 H 337.227 -3.08443 2.3621 0
M  V30 3550 H 338.899 -1.43466 4.38423 0
M  V30 3551 H 337.142 -1.283 4.14393 0
M  V30 3552 H 337.813 -2.79649 4.75921 0
M  V30 3553 H 340.289 -3.03448 2.84708 0
M  V30 3554 H 339.165 -4.2937 3.41954 0
M  V30 3555 H 339.426 -4.08304 1.69531 0
M  V30 3556 N 338.485 -1.33259 -0.841409 0
M  V30 3557 C 339.725 -1.25902 -1.61022 0
M  V30 3558 C 340.089 0.173325 -1.91216 0
M  V30 3559 O 341.29 0.370824 -2.6623 0
M  V30 3560 C 339.561 -2.10735 -2.88662 0
M  V30 3561 S 341.12 -2.20541 -3.79351 0
M  V30 3562 H 337.938 -0.447958 -0.552137 0
M  V30 3563 H 340.54 -1.68263 -0.995382 0
M  V30 3564 H 339.244 -3.1384 -2.64448 0
M  V30 3565 H 338.775 -1.69201 -3.55154 0
M  V30 3566 H 340.79 -1.36462 -4.77067 0
M  V30 3567 N 339.963 1.05934 -1.16686 0
M  V30 3568 C 341.379 1.30938 -0.912542 0
M  V30 3569 C 341.579 1.96803 0.432533 0
M  V30 3570 O 340.635 2.23693 1.17123 0
M  V30 3571 C 341.948 2.18649 -2.06429 0
M  V30 3572 C 343.496 2.32055 -2.10047 0
M  V30 3573 C 343.971 3.23122 -3.24586 0
M  V30 3574 N 345.462 3.30706 -3.24327 0
M  V30 3575 C 346.197 4.01273 -4.09594 0
M  V30 3576 N 345.693 4.74332 -5.04956 0
M  V30 3577 N 347.486 3.97361 -3.97569 0
M  V30 3578 H 339.637 0.615777 -2.03278 0
M  V30 3579 H 341.9 0.334077 -0.887185 0
M  V30 3580 H 341.606 1.77534 -3.03603 0
M  V30 3581 H 341.48 3.19252 -2.00894 0
M  V30 3582 H 343.867 2.72415 -1.13464 0
M  V30 3583 H 343.948 1.31107 -2.19647 0
M  V30 3584 H 343.592 2.83477 -4.2143 0
M  V30 3585 H 343.522 4.24057 -3.12223 0
M  V30 3586 H 346.013 2.78644 -2.55276 0
M  V30 3587 H 346.326 5.25716 -5.6643 0
M  V30 3588 H 344.671 4.733 -5.08933 0
M  V30 3589 H 347.862 3.39405 -3.22369 0
M  V30 3590 H 348.035 4.52089 -4.64241 0
M  V30 3591 N 341.441 0.965919 1.2453 0
M  V30 3592 C 342.371 0.513476 2.27784 0
M  V30 3593 C 343.352 -0.445974 1.6415 0
M  V30 3594 O 344.537 -0.342485 1.91156 0
M  V30 3595 C 341.667 -0.198839 3.4673 0
M  V30 3596 C 340.621 0.676456 4.2262 0
M  V30 3597 C 339.947 -0.167248 5.34438 0
M  V30 3598 C 341.247 1.96017 4.84123 0
M  V30 3599 H 342.941 1.3765 2.65881 0
M  V30 3600 H 340.487 0.663321 1.27813 0
M  V30 3601 H 342.44 -0.526567 4.18097 0
M  V30 3602 H 341.164 -1.0962 3.07654 0
M  V30 3603 H 339.823 0.98743 3.53052 0
M  V30 3604 H 339.471 -1.0647 4.91603 0
M  V30 3605 H 339.171 0.415181 5.86131 0
M  V30 3606 H 340.695 -0.489688 6.08633 0
M  V30 3607 H 342.109 1.69814 5.47573 0
M  V30 3608 H 340.506 2.48918 5.4604 0
M  V30 3609 H 341.576 2.65622 4.05676 0
M  V30 3610 N 342.919 -1.39368 0.735821 0
M  V30 3611 C 343.829 -2.34395 0.0979693 0
M  V30 3612 C 344.845 -1.58361 -0.720968 0
M  V30 3613 O 346.021 -1.90648 -0.649245 0
M  V30 3614 C 343.086 -3.37393 -0.797916 0
M  V30 3615 C 342.147 -4.29287 0.0333662 0
M  V30 3616 C 341.38 -5.27365 -0.819854 0
M  V30 3617 O 341.603 -5.31959 -2.05855 0
M  V30 3618 O 340.537 -6.01389 -0.248079 0
M  V30 3619 H 344.363 -2.90601 0.882315 0
M  V30 3620 H 341.948 -1.40909 0.4965 0
M  V30 3621 H 343.83 -4.00505 -1.31048 0
M  V30 3622 H 342.505 -2.83571 -1.56106 0
M  V30 3623 H 341.412 -3.69395 0.591475 0
M  V30 3624 H 342.745 -4.86317 0.758752 0
M  V30 3625 N 344.397 -0.483516 -1.5 0
M  V30 3626 C 345.36 0.292965 -2.2732 0
M  V30 3627 C 346.36 0.909499 -1.32608 0
M  V30 3628 O 347.55 0.776745 -1.55924 0
M  V30 3629 C 344.682 1.41854 -3.09984 0
M  V30 3630 H 345.875 -0.385289 -2.97415 0
M  V30 3631 H 343.428 -0.237942 -1.54478 0
M  V30 3632 H 344.163 2.13148 -2.44414 0
M  V30 3633 H 343.948 0.982114 -3.79601 0
M  V30 3634 H 345.438 1.96597 -3.68429 0
M  V30 3635 N 345.875 1.56104 -0.216619 0
M  V30 3636 C 347.103 2.02563 0.421413 0
M  V30 3637 C 347.518 1.0965 1.53695 0
M  V30 3638 O 346.875 0.10521 1.82196 0
M  V30 3639 C 346.926 3.48584 0.957665 0
M  V30 3640 O 346.647 4.37953 -0.113389 0
M  V30 3641 C 348.148 4.10664 1.66943 0
M  V30 3642 H 345.368 0.662944 0.103665 0
M  V30 3643 H 347.912 2.01793 -0.331629 0
M  V30 3644 H 346.067 3.49985 1.661 0
M  V30 3645 H 346.481 5.23704 0.288932 0
M  V30 3646 H 347.955 5.14622 1.99671 0
M  V30 3647 H 348.432 3.55373 2.58083 0
M  V30 3648 H 349.038 4.13098 1.01142 0
M  V30 3649 N 347.353 -0.0568162 1.57498 0
M  V30 3650 C 348.583 -0.764515 1.91934 0
M  V30 3651 C 348.991 -1.70877 0.81227 0
M  V30 3652 O 348.334 -1.82351 -0.222213 0
M  V30 3653 C 348.396 -1.5994 3.21962 0
M  V30 3654 C 348.06 -0.822925 4.4953 0
M  V30 3655 C 349.057 -0.135464 5.19723 0
M  V30 3656 C 346.742 -0.785666 4.96117 0
M  V30 3657 C 348.736 0.578861 6.34766 0
M  V30 3658 C 346.423 -0.0675784 6.11063 0
M  V30 3659 C 347.421 0.613471 6.80239 0
M  V30 3660 O 347.109 1.31996 7.92989 0
M  V30 3661 H 346.841 -0.221647 0.63863 0
M  V30 3662 H 349.395 -0.0268218 2.05382 0
M  V30 3663 H 347.625 -2.38026 3.04763 0
M  V30 3664 H 349.314 -2.18715 3.41934 0
M  V30 3665 H 350.08 -0.155458 4.84751 0
M  V30 3666 H 345.959 -1.30524 4.42136 0
M  V30 3667 H 349.503 1.111 6.88696 0
M  V30 3668 H 345.4 -0.0455636 6.45484 0
M  V30 3669 H 346.168 1.23077 8.09194 0
M  V30 3670 N 348.832 -1.54138 -0.328536 0
M  V30 3671 C 349.762 -1.86167 -1.40939 0
M  V30 3672 C 350.743 -0.718044 -1.54202 0
M  V30 3673 O 351.928 -0.971328 -1.68163 0
M  V30 3674 C 349.058 -2.08461 -2.77779 0
M  V30 3675 C 348.012 -3.24299 -2.7931 0
M  V30 3676 C 347.338 -3.31955 -4.19178 0
M  V30 3677 C 348.638 -4.62065 -2.43502 0
M  V30 3678 H 350.332 -2.76689 -1.14383 0
M  V30 3679 H 347.878 -1.33132 -0.548806 0
M  V30 3680 H 349.831 -2.29453 -3.53454 0
M  V30 3681 H 348.555 -1.14684 -3.05802 0
M  V30 3682 H 347.214 -3.03187 -2.0609 0
M  V30 3683 H 346.862 -2.35745 -4.44335 0
M  V30 3684 H 346.562 -4.09805 -4.2111 0
M  V30 3685 H 348.086 -3.55175 -4.96672 0
M  V30 3686 H 349.5 -4.8297 -3.08889 0
M  V30 3687 H 347.897 -5.42429 -2.56693 0
M  V30 3688 H 348.967 -4.64652 -1.38659 0
M  V30 3689 N 350.31 0.590341 -1.46126 0
M  V30 3690 C 351.24 1.71032 -1.58966 0
M  V30 3691 C 352.221 1.64302 -0.440335 0
M  V30 3692 O 353.406 1.82436 -0.665634 0
M  V30 3693 C 350.536 3.09665 -1.57241 0
M  V30 3694 C 349.49 3.31221 -2.71066 0
M  V30 3695 C 348.816 4.70303 -2.54399 0
M  V30 3696 C 350.116 3.19796 -4.1295 0
M  V30 3697 H 351.81 1.60543 -2.52718 0
M  V30 3698 H 349.356 0.770933 -1.21625 0
M  V30 3699 H 351.309 3.87831 -1.64819 0
M  V30 3700 H 350.033 3.21036 -0.600289 0
M  V30 3701 H 348.692 2.55452 -2.62944 0
M  V30 3702 H 348.34 4.78429 -1.55288 0
M  V30 3703 H 348.04 4.85679 -3.30741 0
M  V30 3704 H 349.564 5.50647 -2.63857 0
M  V30 3705 H 350.978 3.87815 -4.22223 0
M  V30 3706 H 349.375 3.46696 -4.89818 0
M  V30 3707 H 350.445 2.16983 -4.33643 0
M  V30 3708 N 351.788 1.33704 0.83433 0
M  V30 3709 C 353.018 1.28281 1.6195 0
M  V30 3710 C 353.426 -0.147603 1.88623 0
M  V30 3711 O 352.769 -1.1016 1.47005 0
M  V30 3712 C 352.831 1.99386 2.99141 0
M  V30 3713 C 352.495 3.48681 2.95416 0
M  V30 3714 C 353.492 4.438 2.70809 0
M  V30 3715 C 351.177 3.90925 3.15409 0
M  V30 3716 C 353.171 5.79138 2.66229 0
M  V30 3717 C 350.858 5.26366 3.10454 0
M  V30 3718 C 351.856 6.20284 2.85895 0
M  V30 3719 O 351.544 7.53245 2.80852 0
M  V30 3720 H 351.276 0.44315 0.510484 0
M  V30 3721 H 353.83 1.76711 1.04702 0
M  V30 3722 H 352.06 1.45554 3.58261 0
M  V30 3723 H 353.749 1.87403 3.60049 0
M  V30 3724 H 354.515 4.12485 2.5511 0
M  V30 3725 H 350.394 3.18229 3.33543 0
M  V30 3726 H 353.938 6.52416 2.4698 0
M  V30 3727 H 349.835 5.57304 3.25703 0
M  V30 3728 H 350.603 7.62846 2.96661 0
M  V30 3729 N 353.266 -1.05314 1.17247 0
M  V30 3730 C 354.514 -1.77941 0.958194 0
M  V30 3731 C 354.835 -1.88089 -0.514556 0
M  V30 3732 O 354.105 -1.39676 -1.37359 0
M  V30 3733 H 352.685 -0.659116 0.351533 0
M  V30 3734 H 355.347 -1.27166 1.47699 0
M  V30 3735 H 354.443 -2.79663 1.38546 0
M  V30 3736 N 354.744 -0.972509 -1.24016 0
M  V30 3737 C 355.676 -0.464375 -2.24446 0
M  V30 3738 C 356.689 0.4295 -1.57032 0
M  V30 3739 O 357.878 0.234902 -1.76948 0
M  V30 3740 C 354.978 0.348385 -3.37105 0
M  V30 3741 C 354.151 -0.53673 -4.34094 0
M  V30 3742 C 353.21 0.220838 -5.25736 0
M  V30 3743 O 352.236 -0.386867 -5.67884 0
M  V30 3744 N 353.438 1.50907 -5.60542 0
M  V30 3745 H 356.203 -1.32788 -2.68677 0
M  V30 3746 H 353.764 -0.844877 -1.38107 0
M  V30 3747 H 355.756 0.863341 -3.95384 0
M  V30 3748 H 354.326 1.11285 -2.92121 0
M  V30 3749 H 353.546 -1.23261 -3.74433 0
M  V30 3750 H 354.834 -1.14022 -4.95859 0
M  V30 3751 H 354.232 2.02444 -5.28236 0
M  V30 3752 H 352.789 1.96962 -6.21329 0
M  V30 3753 N 356.222 1.38976 -0.743202 0
M  V30 3754 C 357.499 1.94351 -0.220705 0
M  V30 3755 C 357.879 1.67935 1.2791 0
M  V30 3756 O 357.227 1.01211 2.04862 0
M  V30 3757 C 357.437 3.44426 -0.563171 0
M  V30 3758 C 358.785 4.2144 -0.517046 0
M  V30 3759 O 359.809 3.52661 -0.500846 0
M  V30 3760 O 358.668 5.44032 -0.518806 0
M  V30 3761 H 355.762 0.825879 -0.043047 0
M  V30 3762 H 358.308 1.48429 -0.822618 0
M  V30 3763 H 357.08 3.5712 -1.59941 0
M  V30 3764 H 356.703 3.97543 0.0672883 0
M  V30 3765 N 357.7 0.491464 1.49741 0
M  V30 3766 C 358.633 -0.338464 2.25676 0
M  V30 3767 C 359.611 -0.978676 1.29849 0
M  V30 3768 O 360.795 -1.01064 1.59117 0
M  V30 3769 C 357.922 -1.47588 3.04853 0
M  V30 3770 C 356.968 -0.951 4.15762 0
M  V30 3771 S 357.801 0.150626 5.35288 0
M  V30 3772 C 358.957 -0.990178 6.18018 0
M  V30 3773 H 359.19 0.306068 2.9572 0
M  V30 3774 H 356.723 0.276622 1.51902 0
M  V30 3775 H 358.681 -2.12764 3.51058 0
M  V30 3776 H 357.342 -2.09199 2.34296 0
M  V30 3777 H 356.535 -1.80311 4.70642 0
M  V30 3778 H 356.137 -0.376607 3.72099 0
M  V30 3779 H 358.429 -1.89748 6.50386 0
M  V30 3780 H 359.372 -0.480205 7.0647 0
M  V30 3781 H 359.78 -1.25321 5.50413 0
M  V30 3782 N 359.178 -1.55987 0.224894 0
M  V30 3783 C 360.455 -1.90232 -0.455083 0
M  V30 3784 C 360.835 -1.14269 -1.77499 0
M  V30 3785 O 360.183 -0.253079 -2.27094 0
M  V30 3786 C 360.393 -3.42993 -0.644758 0
M  V30 3787 C 361.741 -4.13821 -0.950669 0
M  V30 3788 O 362.765 -3.4861 -0.731423 0
M  V30 3789 O 361.624 -5.29128 -1.36695 0
M  V30 3790 H 358.718 -0.79108 -0.241084 0
M  V30 3791 H 361.264 -1.67581 0.267327 0
M  V30 3792 H 360.036 -3.90252 0.28613 0
M  V30 3793 H 359.659 -3.71434 -1.41853 0
M  V30 3794 N 360.656 0.0484629 -1.57525 0
M  V30 3795 C 361.566 1.07241 -2.08654 0
M  V30 3796 C 362.582 1.409 -1.02095 0
M  V30 3797 O 363.758 1.50609 -1.33712 0
M  V30 3798 C 360.823 2.36008 -2.5397 0
M  V30 3799 C 359.884 2.09108 -3.7493 0
M  V30 3800 C 359.117 3.31736 -4.18075 0
M  V30 3801 O 359.34 4.41714 -3.60895 0
M  V30 3802 O 358.274 3.18576 -5.10679 0
M  V30 3803 H 362.1 0.667965 -2.96263 0
M  V30 3804 H 359.685 0.26417 -1.47046 0
M  V30 3805 H 361.567 3.11747 -2.83535 0
M  V30 3806 H 360.242 2.75786 -1.69481 0
M  V30 3807 H 359.149 1.31 -3.50414 0
M  V30 3808 H 360.482 1.74198 -4.60343 0
M  V30 3809 N 362.134 1.5431 0.320358 0
M  V30 3810 C 363.082 1.84647 1.4145 0
M  V30 3811 C 364.076 0.718624 1.53402 0
M  V30 3812 O 365.282 0.902335 1.5575 0
M  V30 3813 H 361.657 0.585349 0.472091 0
M  V30 3814 H 363.628 2.7614 1.13089 0
M  V30 3815 C 362.377 2.09341 2.77617 0
M  V30 3816 H 361.7 2.9559 2.69196 0
M  V30 3817 H 363.14 2.3452 3.53237 0
M  V30 3818 C 361.599 0.885939 3.25043 0
M  V30 3819 O 362.129 0.0967891 4.01583 0
M  V30 3820 N 360.335 0.696682 2.82125 0
M  V30 3821 H 359.882 1.34006 2.2 0
M  V30 3822 H 359.84 -0.109712 3.14209 0
M  V30 3823 N 363.613 -0.582584 1.46437 0
M  V30 3824 C 364.841 -1.36682 1.55324 0
M  V30 3825 C 365.256 -1.87796 0.194409 0
M  V30 3826 O 364.613 -1.63623 -0.808318 0
M  V30 3827 C 364.664 -2.55426 2.55812 0
M  V30 3828 O 364.385 -2.0643 3.86417 0
M  V30 3829 C 365.886 -3.47976 2.74641 0
M  V30 3830 H 363.106 -0.417545 0.525259 0
M  V30 3831 H 365.65 -0.708219 1.91845 0
M  V30 3832 H 363.805 -3.17275 2.22295 0
M  V30 3833 H 364.219 -2.83762 4.41111 0
M  V30 3834 H 365.693 -4.27775 3.48874 0
M  V30 3835 H 366.17 -3.99919 1.81553 0
M  V30 3836 H 366.776 -2.91962 3.09255 0
M  V30 3837 N 365.091 -1.34144 -0.827227 0
M  V30 3838 C 366.039 -1.25364 -1.95925 0
M  V30 3839 C 367.033 -0.152608 -1.68711 0
M  V30 3840 O 368.239 -0.317311 -1.77181 0
M  V30 3841 H 364.614 -0.389342 -0.643364 0
M  V30 3842 H 366.585 -2.21045 -2.00454 0
M  V30 3843 C 365.334 -1.02158 -3.32354 0
M  V30 3844 H 364.657 -1.86111 -3.5384 0
M  V30 3845 H 366.097 -1.00048 -4.12027 0
M  V30 3846 C 364.556 0.275244 -3.35774 0
M  V30 3847 O 365.086 1.27806 -3.80826 0
M  V30 3848 N 363.292 0.306853 -2.88975 0
M  V30 3849 H 362.839 -0.509777 -2.52506 0
M  V30 3850 H 362.797 1.17432 -2.91646 0
M  V30 3851 N 366.569 1.04691 -1.17803 0
M  V30 3852 C 367.98 1.59238 -0.974689 0
M  V30 3853 C 368.331 1.90306 0.477292 0
M  V30 3854 O 367.456 1.68846 1.35352 0
M  V30 3855 C 368.051 2.89318 -1.76296 0
M  V30 3856 C 366.61 3.40506 -1.60414 0
M  V30 3857 C 365.757 2.14172 -1.76141 0
M  V30 3858 H 368.708 0.874395 -1.32439 0
M  V30 3859 H 368.729 3.5944 -1.24833 0
M  V30 3860 H 368.241 2.66675 -2.81968 0
M  V30 3861 H 366.342 3.68175 -0.572519 0
M  V30 3862 H 366.455 4.14753 -2.39827 0
M  V30 3863 H 364.819 2.25176 -1.19028 0
M  V30 3864 H 365.602 1.93992 -2.83235 0
M  V30 3865 N 368.047 0.979072 1.23499 0
M  V30 3866 C 369.294 0.647219 1.91878 0
M  V30 3867 C 369.622 -0.819074 1.76413 0
M  V30 3868 O 368.877 -1.60616 1.11808 0
M  V30 3869 C 369.176 0.981932 3.43646 0
M  V30 3870 C 368.842 2.43822 3.79291 0
M  V30 3871 C 367.504 2.83622 3.88731 0
M  V30 3872 C 369.856 3.3828 3.96505 0
M  V30 3873 C 367.184 4.16897 4.12812 0
M  V30 3874 C 369.536 4.71197 4.22085 0
M  V30 3875 C 368.2 5.10758 4.29747 0
M  V30 3876 H 367.47 0.236834 0.702133 0
M  V30 3877 H 370.117 1.23268 1.46551 0
M  V30 3878 H 368.422 0.314365 3.90537 0
M  V30 3879 H 370.119 0.703395 3.94783 0
M  V30 3880 H 366.709 2.11966 3.72516 0
M  V30 3881 H 370.893 3.0871 3.88603 0
M  V30 3882 H 366.149 4.47157 4.16966 0
M  V30 3883 H 370.323 5.44348 4.34348 0
M  V30 3884 H 367.95 6.1405 4.48159 0
M  V30 3885 N 369.525 -1.3858 0.750561 0
M  V30 3886 C 370.435 -2.34278 0.122825 0
M  V30 3887 C 371.451 -1.59116 -0.704131 0
M  V30 3888 O 372.627 -1.91326 -0.628987 0
M  V30 3889 C 369.692 -3.38221 -0.762086 0
M  V30 3890 C 368.753 -4.29227 0.078896 0
M  V30 3891 C 367.986 -5.28205 -0.763874 0
M  V30 3892 O 368.209 -5.34112 -2.00201 0
M  V30 3893 O 367.143 -6.01618 -0.18428 0
M  V30 3894 H 370.969 -2.89649 0.913088 0
M  V30 3895 H 368.554 -1.40374 0.511417 0
M  V30 3896 H 370.436 -4.01872 -1.26793 0
M  V30 3897 H 369.111 -2.85211 -1.5309 0
M  V30 3898 H 368.018 -3.68747 0.630621 0
M  V30 3899 H 369.351 -4.85484 0.810289 0
M  V30 3900 N 371.003 -0.499398 -1.49478 0
M  V30 3901 C 372.249 0.0457576 -2.02748 0
M  V30 3902 C 372.582 1.36793 -1.37846 0
M  V30 3903 O 371.857 1.87596 -0.513601 0
M  V30 3904 C 372.14 0.199986 -3.59544 0
M  V30 3905 C 371.993 -1.1452 -4.34977 0
M  V30 3906 C 373.312 0.94137 -4.29914 0
M  V30 3907 H 370.431 0.0151552 -0.736844 0
M  V30 3908 H 373.073 -0.650498 -1.78518 0
M  V30 3909 H 371.223 0.793007 -3.8032 0
M  V30 3910 H 372.895 -1.77697 -4.25701 0
M  V30 3911 H 371.138 -1.73488 -3.97598 0
M  V30 3912 H 371.809 -0.990607 -5.43039 0
M  V30 3913 H 374.285 0.43844 -4.13784 0
M  V30 3914 H 373.161 1.01812 -5.39375 0
M  V30 3915 H 373.422 1.98471 -3.95046 0
M  V30 3916 N 372.481 1.55866 -0.233164 0
M  V30 3917 C 373.729 1.9821 0.394593 0
M  V30 3918 C 374.05 1.12234 1.59463 0
M  V30 3919 O 373.32 0.201981 1.94856 0
M  V30 3920 H 371.9 0.732034 0.148778 0
M  V30 3921 H 374.562 1.92107 -0.32876 0
M  V30 3922 H 373.658 3.03845 0.713063 0
M  V30 3923 N 373.959 -0.0401083 1.57549 0
M  V30 3924 C 374.889 -1.04384 2.08869 0
M  V30 3925 C 375.87 -1.38407 0.988817 0
M  V30 3926 O 377.055 -1.47483 1.26342 0
M  V30 3927 C 374.185 -2.34808 2.55895 0
M  V30 3928 C 373.139 -2.15057 3.70047 0
M  V30 3929 C 372.465 -3.51145 4.03239 0
M  V30 3930 C 373.765 -1.54576 4.98902 0
M  V30 3931 H 375.459 -0.616666 2.92981 0
M  V30 3932 H 373.005 -0.295184 1.40942 0
M  V30 3933 H 374.958 -3.05346 2.90417 0
M  V30 3934 H 373.682 -2.79565 1.68853 0
M  V30 3935 H 372.341 -1.46954 3.35857 0
M  V30 3936 H 371.989 -3.93529 3.13279 0
M  V30 3937 H 371.689 -3.38758 4.80122 0
M  V30 3938 H 373.213 -4.23062 4.40285 0
M  V30 3939 H 374.627 -2.15017 5.31451 0
M  V30 3940 H 373.024 -1.52796 5.80322 0
M  V30 3941 H 374.094 -0.51039 4.82206 0
M  V30 3942 N 375.437 -1.54477 -0.31217 0
M  V30 3943 C 376.662 -1.77526 -1.07235 0
M  V30 3944 C 377.087 -0.527775 -1.80544 0
M  V30 3945 O 376.445 0.52121 -1.73646 0
M  V30 3946 C 376.493 -2.97535 -2.03728 0
M  V30 3947 O 375.597 -2.69878 -3.11833 0
M  V30 3948 H 374.938 -0.58792 -0.30862 0
M  V30 3949 H 377.468 -2.01532 -0.352993 0
M  V30 3950 H 377.478 -3.25198 -2.46395 0
M  V30 3951 H 376.153 -3.87996 -1.49774 0
M  V30 3952 H 374.73 -2.53199 -2.7376 0
M  V30 3953 N 376.915 0.57481 -1.46744 0
M  V30 3954 C 378.161 1.33251 -1.53674 0
M  V30 3955 C 378.516 1.91468 -0.189125 0
M  V30 3956 O 377.809 1.73954 0.803151 0
M  V30 3957 C 378.003 2.476 -2.57738 0
M  V30 3958 C 377.832 2.00586 -4.02487 0
M  V30 3959 C 376.602 1.85237 -4.70123 0
M  V30 3960 C 378.8 1.56078 -4.90045 0
M  V30 3961 N 376.782 1.32377 -5.99458 0
M  V30 3962 C 378.153 1.14863 -6.09267 0
M  V30 3963 C 380.208 1.43968 -4.76632 0
M  V30 3964 C 378.911 0.627435 -7.16558 0
M  V30 3965 C 380.937 0.932512 -5.84002 0
M  V30 3966 C 380.299 0.53019 -7.02402 0
M  V30 3967 H 376.398 0.480284 -0.617131 0
M  V30 3968 H 378.982 0.653592 -1.83402 0
M  V30 3969 H 377.153 3.13045 -2.29907 0
M  V30 3970 H 378.885 3.14567 -2.54616 0
M  V30 3971 H 375.64 2.07423 -4.25761 0
M  V30 3972 H 376.064 1.08085 -6.68316 0
M  V30 3973 H 380.706 1.73689 -3.85476 0
M  V30 3974 H 378.424 0.317821 -8.07475 0
M  V30 3975 H 382.01 0.842611 -5.75666 0
M  V30 3976 H 380.89 0.14381 -7.84068 0
M  V30 3977 N 378.394 1.34581 0.820102 0
M  V30 3978 C 379.64 1.27285 1.57881 0
M  V30 3979 C 379.973 -0.156137 1.93571 0
M  V30 3980 O 379.248 -1.10222 1.60254 0
M  V30 3981 C 379.531 2.16639 2.87645 0
M  V30 3982 C 379.384 3.68088 2.58517 0
M  V30 3983 C 380.703 2.05378 3.8924 0
M  V30 3984 H 377.822 0.463714 0.572833 0
M  V30 3985 H 380.464 1.64859 0.944539 0
M  V30 3986 H 378.614 1.84725 3.41773 0
M  V30 3987 H 380.286 4.10382 2.10676 0
M  V30 3988 H 378.529 3.89038 1.91917 0
M  V30 3989 H 379.2 4.2598 3.51063 0
M  V30 3990 H 381.676 2.33404 3.44473 0
M  V30 3991 H 380.552 2.7012 4.77835 0
M  V30 3992 H 380.813 1.0316 4.29896 0
M  V30 3993 N 379.872 -1.04064 1.18357 0
M  V30 3994 C 381.118 -1.77528 0.980397 0
M  V30 3995 C 381.451 -1.87948 -0.48879 0
M  V30 3996 O 380.726 -1.3876 -1.36293 0
M  V30 3997 C 381.009 -3.20797 1.63588 0
M  V30 3998 C 380.862 -3.1832 3.17793 0
M  V30 3999 C 382.181 -4.18911 1.34914 0
M  V30 4000 H 379.3 -0.644443 0.357578 0
M  V30 4001 H 381.942 -1.2156 1.46024 0
M  V30 4002 H 380.092 -3.68586 1.22788 0
M  V30 4003 H 381.764 -2.78521 3.67728 0
M  V30 4004 H 380.007 -2.56351 3.49952 0
M  V30 4005 H 380.678 -4.19489 3.58794 0
M  V30 4006 H 383.154 -3.7967 1.70265 0
M  V30 4007 H 382.03 -5.17374 1.83346 0
M  V30 4008 H 382.291 -4.41262 0.272027 0
M  V30 4009 N 381.35 -0.985608 -1.22978 0
M  V30 4010 C 382.297 -0.529825 -2.24636 0
M  V30 4011 C 383.267 0.434028 -1.60329 0
M  V30 4012 O 384.452 0.340414 -1.87739 0
M  V30 4013 C 381.592 0.156533 -3.44745 0
M  V30 4014 C 380.705 -0.848197 -4.23591 0
M  V30 4015 C 379.84 -0.136109 -5.31026 0
M  V30 4016 C 378.879 -1.1297 -6.01585 0
M  V30 4017 N 378.016 -0.446415 -7.00679 0
M  V30 4018 H 382.856 -1.40148 -2.62988 0
M  V30 4019 H 380.393 -0.702168 -1.29259 0
M  V30 4020 H 382.351 0.571324 -4.1327 0
M  V30 4021 H 380.981 0.992025 -3.07179 0
M  V30 4022 H 380.033 -1.38135 -3.54433 0
M  V30 4023 H 381.345 -1.60512 -4.72268 0
M  V30 4024 H 380.499 0.335784 -6.0577 0
M  V30 4025 H 379.238 0.653373 -4.83304 0
M  V30 4026 H 378.243 -1.6123 -5.25628 0
M  V30 4027 H 379.468 -1.91993 -6.51395 0
M  V30 4028 H 377.414 0.323763 -6.55201 0
M  V30 4029 H 377.331 -1.1419 -7.47326 0
M  V30 4030 H 378.599 0.00291697 -7.795 0
M  V30 4031 N 382.828 1.3818 -0.7579 0
M  V30 4032 C 383.758 2.33027 -0.148597 0
M  V30 4033 C 384.739 1.55085 0.69875 0
M  V30 4034 O 385.924 1.83384 0.639053 0
M  V30 4035 C 383.054 3.3928 0.742034 0
M  V30 4036 C 382.008 4.28 -0.00291946 0
M  V30 4037 C 381.334 5.25146 1.00625 0
M  V30 4038 C 382.634 5.08938 -1.17385 0
M  V30 4039 H 384.328 2.84231 -0.940909 0
M  V30 4040 H 381.874 1.36659 -0.453908 0
M  V30 4041 H 383.827 4.046 1.17799 0
M  V30 4042 H 382.551 2.86569 1.56671 0
M  V30 4043 H 381.21 3.64192 -0.419504 0
M  V30 4044 H 380.858 4.68721 1.8251 0
M  V30 4045 H 380.558 5.85361 0.512428 0
M  V30 4046 H 382.082 5.93342 1.44143 0
M  V30 4047 H 383.496 5.67474 -0.815224 0
M  V30 4048 H 381.893 5.7841 -1.59882 0
M  V30 4049 H 382.963 4.42424 -1.98468 0
M  V30 4050 N 384.306 0.507319 1.49211 0
M  V30 4051 C 385.254 -0.281364 2.30892 0
M  V30 4052 C 386.248 -0.95687 1.39787 0
M  V30 4053 O 387.454 -0.883838 1.56807 0
M  V30 4054 H 383.829 -0.109597 0.743971 0
M  V30 4055 H 385.8 0.42744 2.95323 0
M  V30 4056 C 384.549 -1.32918 3.21291 0
M  V30 4057 H 383.872 -0.818799 3.91326 0
M  V30 4058 H 385.312 -1.85288 3.81372 0
M  V30 4059 C 383.771 -2.35074 2.41333 0
M  V30 4060 O 384.301 -3.4108 2.12197 0
M  V30 4061 N 382.507 -2.07705 2.03241 0
M  V30 4062 H 382.054 -1.2152 2.27136 0
M  V30 4063 H 382.012 -2.76283 1.50051 0
M  V30 4064 N 385.784 -1.5574 0.241426 0
M  V30 4065 C 386.731 -2.21149 -0.660432 0
M  V30 4066 C 387.701 -1.17356 -1.17545 0
M  V30 4067 O 388.886 -1.45784 -1.23093 0
M  V30 4068 C 386.026 -2.91059 -1.85414 0
M  V30 4069 C 385.139 -4.09495 -1.37616 0
M  V30 4070 C 384.274 -4.67135 -2.529 0
M  V30 4071 C 383.313 -5.77831 -2.01936 0
M  V30 4072 N 382.45 -6.29677 -3.10566 0
M  V30 4073 H 387.29 -2.97845 -0.095955 0
M  V30 4074 H 384.827 -1.47057 -0.0356024 0
M  V30 4075 H 386.785 -3.29788 -2.5553 0
M  V30 4076 H 385.415 -2.16846 -2.39118 0
M  V30 4077 H 384.467 -3.76117 -0.569235 0
M  V30 4078 H 385.779 -4.89423 -0.962618 0
M  V30 4079 H 384.933 -5.08409 -3.31067 0
M  V30 4080 H 383.672 -3.86411 -2.97553 0
M  V30 4081 H 382.677 -5.36039 -1.22238 0
M  V30 4082 H 383.902 -6.60402 -1.58259 0
M  V30 4083 H 381.848 -5.5186 -3.54664 0
M  V30 4084 H 381.765 -7.04783 -2.73526 0
M  V30 4085 H 383.033 -6.75609 -3.88809 0
M  V30 4086 N 387.262 0.0317525 -1.57568 0
M  V30 4087 C 388.539 0.758366 -1.803 0
M  V30 4088 C 388.919 1.93718 -0.838845 0
M  V30 4089 O 388.267 2.28187 0.119571 0
M  V30 4090 C 388.477 1.19392 -3.27943 0
M  V30 4091 C 389.825 1.61094 -3.92854 0
M  V30 4092 O 390.849 1.28857 -3.32076 0
M  V30 4093 O 389.708 2.20918 -4.99858 0
M  V30 4094 H 386.802 0.366514 -0.741348 0
M  V30 4095 H 389.348 0.00873765 -1.69698 0
M  V30 4096 H 388.12 0.352275 -3.89711 0
M  V30 4097 H 387.743 2.00365 -3.43424 0
M  V30 4098 N 388.74 1.54641 0.303973 0
M  V30 4099 C 389.987 1.7378 1.03955 0
M  V30 4100 C 390.315 0.521986 1.87365 0
M  V30 4101 O 389.57 -0.496099 1.89308 0
M  V30 4102 C 389.869 2.97753 1.97681 0
M  V30 4103 C 389.535 4.31671 1.30271 0
M  V30 4104 C 388.197 4.68075 1.11619 0
M  V30 4105 C 390.549 5.147 0.82055 0
M  V30 4106 C 387.877 5.8509 0.434304 0
M  V30 4107 C 390.229 6.32416 0.152395 0
M  V30 4108 C 388.893 6.67484 -0.0461067 0
M  V30 4109 H 388.163 0.635908 0.380398 0
M  V30 4110 H 390.81 1.88896 0.314718 0
M  V30 4111 H 389.115 2.77406 2.76682 0
M  V30 4112 H 390.812 3.09756 2.54661 0
M  V30 4113 H 387.402 4.03041 1.45795 0
M  V30 4114 H 391.586 4.87077 0.952374 0
M  V30 4115 H 386.842 6.10806 0.269495 0
M  V30 4116 H 391.016 6.96023 -0.229126 0
M  V30 4117 H 388.643 7.58011 -0.576494 0
M  V30 4118 N 390.218 -0.567019 1.47046 0
M  V30 4119 C 391.464 -1.32658 1.53394 0
M  V30 4120 C 391.797 -1.93254 0.19148 0
M  V30 4121 O 391.072 -1.77338 -0.798844 0
M  V30 4122 C 391.355 -2.44412 2.64452 0
M  V30 4123 C 391.208 -1.88749 4.08282 0
M  V30 4124 C 392.527 -3.46387 2.71485 0
M  V30 4125 H 389.646 -0.48098 0.558415 0
M  V30 4126 H 392.288 -0.635481 1.79058 0
M  V30 4127 H 390.438 -3.03363 2.427 0
M  V30 4128 H 392.11 -1.34134 4.41368 0
M  V30 4129 H 390.353 -1.19481 4.17021 0
M  V30 4130 H 391.024 -2.69491 4.81745 0
M  V30 4131 H 393.5 -2.9734 2.91081 0
M  V30 4132 H 392.376 -4.2202 3.50985 0
M  V30 4133 H 392.637 -4.04616 1.78153 0
M  V30 4134 N 391.696 -1.35014 -0.812953 0
M  V30 4135 C 392.944 -1.27678 -1.56661 0
M  V30 4136 C 393.265 0.150359 -1.94419 0
M  V30 4137 O 392.535 1.08532 -1.63088 0
M  V30 4138 H 391.115 -0.469602 -0.580933 0
M  V30 4139 H 393.777 -1.69043 -0.970076 0
M  V30 4140 H 392.873 -1.88833 -2.48492 0
M  V30 4141 N 393.175 1.03435 -1.18907 0
M  V30 4142 C 394.122 2.11591 -0.921837 0
M  V30 4143 C 395.092 1.65499 0.141226 0
M  V30 4144 O 396.277 1.908 0.000242829 0
M  V30 4145 C 393.417 3.42012 -0.460616 0
M  V30 4146 C 392.53 4.01682 -1.58982 0
M  V30 4147 C 391.665 5.20091 -1.08069 0
M  V30 4148 C 390.704 5.71805 -2.18416 0
M  V30 4149 N 389.841 6.81494 -1.68849 0
M  V30 4150 H 394.681 2.33787 -1.8479 0
M  V30 4151 H 392.218 1.1467 -0.921373 0
M  V30 4152 H 394.176 4.16834 -0.174642 0
M  V30 4153 H 392.806 3.19944 0.428467 0
M  V30 4154 H 391.858 3.24127 -1.99113 0
M  V30 4155 H 393.17 4.36084 -2.4214 0
M  V30 4156 H 392.324 6.02051 -0.749615 0
M  V30 4157 H 391.063 4.87209 -0.218771 0
M  V30 4158 H 390.068 4.88461 -2.5236 0
M  V30 4159 H 391.293 6.06728 -3.05054 0
M  V30 4160 H 389.239 6.50475 -0.849572 0
M  V30 4161 H 389.156 7.14994 -2.45601 0
M  V30 4162 H 390.424 7.67063 -1.38689 0
M  V30 4163 N 394.653 0.992116 1.22453 0
M  V30 4164 C 395.563 0.55065 2.28046 0
M  V30 4165 C 396.579 -0.400189 1.69335 0
M  V30 4166 O 397.755 -0.267215 1.99619 0
M  V30 4167 C 394.82 -0.128496 3.46462 0
M  V30 4168 C 393.881 0.865208 4.20491 0
M  V30 4169 C 393.114 0.218377 5.33253 0
M  V30 4170 O 393.337 -0.987894 5.6178 0
M  V30 4171 O 392.271 0.922845 5.94783 0
M  V30 4172 H 396.097 1.4291 2.67975 0
M  V30 4173 H 393.682 0.760326 1.28606 0
M  V30 4174 H 395.564 -0.508947 4.18315 0
M  V30 4175 H 394.239 -0.981526 3.0846 0
M  V30 4176 H 393.146 1.29658 3.50913 0
M  V30 4177 H 394.479 1.68741 4.62371 0
M  V30 4178 N 396.131 -1.37776 0.765217 0
M  V30 4179 C 397.094 -2.28686 0.153416 0
M  V30 4180 C 398.094 -1.47727 -0.635081 0
M  V30 4181 O 399.284 -1.68027 -0.459632 0
M  V30 4182 C 396.416 -3.31608 -0.790495 0
M  V30 4183 H 397.609 -2.84297 0.954723 0
M  V30 4184 H 395.162 -1.46932 0.53299 0
M  V30 4185 H 395.897 -2.81109 -1.61705 0
M  V30 4186 H 395.682 -3.9144 -0.227348 0
M  V30 4187 H 397.172 -3.99559 -1.21419 0
M  V30 4188 N 397.609 -0.515225 -1.4894 0
M  V30 4189 C 398.539 0.244628 -2.32215 0
M  V30 4190 C 399.52 0.949136 -1.41157 0
M  V30 4191 O 400.705 0.937783 -1.70057 0
M  V30 4192 C 397.835 1.30096 -3.22013 0
M  V30 4193 C 396.789 0.715486 -4.21977 0
M  V30 4194 C 396.115 1.87339 -5.00808 0
M  V30 4195 C 397.415 -0.302982 -5.2142 0
M  V30 4196 H 399.109 -0.450501 -2.95991 0
M  V30 4197 H 396.655 -0.218098 -1.42339 0
M  V30 4198 H 398.608 1.84037 -3.79089 0
M  V30 4199 H 397.332 2.02547 -2.56207 0
M  V30 4200 H 395.991 0.197715 -3.66066 0
M  V30 4201 H 395.639 2.58592 -4.31438 0
M  V30 4202 H 395.339 1.48764 -5.68457 0
M  V30 4203 H 396.863 2.41686 -5.60732 0
M  V30 4204 H 398.277 0.148802 -5.73107 0
M  V30 4205 H 396.674 -0.60532 -5.97039 0
M  V30 4206 H 397.744 -1.21395 -4.69459 0
M  V30 4207 N 399.087 1.5561 -0.249682 0
M  V30 4208 C 400.017 2.24477 0.642826 0
M  V30 4209 C 400.998 1.22601 1.17911 0
M  V30 4210 O 402.183 1.5126 1.21795 0
M  V30 4211 C 399.313 2.94638 1.83863 0
M  V30 4212 C 398.267 4.03227 1.435 0
M  V30 4213 C 397.593 4.60828 2.71186 0
M  V30 4214 C 398.893 5.18796 0.604002 0
M  V30 4215 H 400.587 2.99321 0.0685625 0
M  V30 4216 H 398.133 1.43965 0.0315363 0
M  V30 4217 H 400.086 3.41517 2.46868 0
M  V30 4218 H 398.81 2.17287 2.43832 0
M  V30 4219 H 397.469 3.57121 0.828275 0
M  V30 4220 H 397.117 3.80174 3.29358 0
M  V30 4221 H 396.817 5.34132 2.44901 0
M  V30 4222 H 398.341 5.10442 3.35084 0
M  V30 4223 H 399.755 5.61883 1.13842 0
M  V30 4224 H 398.152 5.98506 0.437097 0
M  V30 4225 H 399.222 4.83384 -0.383147 0
M  V30 4226 N 400.565 -0.0233959 1.57583 0
M  V30 4227 C 401.512 -1.02224 2.06927 0
M  V30 4228 C 402.482 -1.35575 0.959617 0
M  V30 4229 O 403.667 -1.45815 1.23055 0
M  V30 4230 C 400.807 -2.31636 2.5581 0
M  V30 4231 C 399.92 -2.04394 3.80588 0
M  V30 4232 C 399.055 -3.27717 4.18061 0
M  V30 4233 C 398.094 -2.96056 5.3574 0
M  V30 4234 N 397.231 -4.11847 5.68618 0
M  V30 4235 H 402.071 -0.594504 2.9201 0
M  V30 4236 H 399.608 -0.281921 1.44373 0
M  V30 4237 H 401.566 -3.07258 2.82221 0
M  V30 4238 H 400.196 -2.72122 1.73636 0
M  V30 4239 H 399.248 -1.19244 3.61227 0
M  V30 4240 H 400.56 -1.77042 4.66323 0
M  V30 4241 H 399.714 -4.11702 4.4563 0
M  V30 4242 H 398.453 -3.58188 3.30988 0
M  V30 4243 H 397.458 -2.10474 5.07918 0
M  V30 4244 H 398.683 -2.66857 6.24471 0
M  V30 4245 H 396.629 -4.42258 4.84504 0
M  V30 4246 H 396.546 -3.87938 6.48876 0
M  V30 4247 H 397.814 -4.96689 6.00766 0
M  V30 4248 N 402.043 -1.548 -0.295768 0
M  V30 4249 C 403.006 -1.85363 -1.34808 0
M  V30 4250 C 404.006 -0.726817 -1.43436 0
M  V30 4251 O 405.196 -0.995088 -1.42981 0
M  V30 4252 C 402.328 -2.03859 -2.73229 0
M  V30 4253 H 403.521 -2.7941 -1.08949 0
M  V30 4254 H 401.074 -1.46942 -0.532702 0
M  V30 4255 H 401.809 -1.12117 -3.04303 0
M  V30 4256 H 401.594 -2.8588 -2.68356 0
M  V30 4257 H 403.084 -2.28857 -3.49305 0
M  V30 4258 N 403.521 0.559213 -1.47345 0
M  V30 4259 C 404.468 1.66645 -1.59682 0
M  V30 4260 C 405.438 1.60168 -0.43994 0
M  V30 4261 O 406.623 1.79031 -0.659736 0
M  V30 4262 C 403.763 3.04969 -1.61518 0
M  V30 4263 C 402.876 3.21897 -2.88108 0
M  V30 4264 C 402.011 4.50608 -2.81294 0
M  V30 4265 C 401.05 4.60961 -4.02717 0
M  V30 4266 N 400.187 5.81024 -3.94151 0
M  V30 4267 H 405.027 1.55439 -2.54249 0
M  V30 4268 H 402.564 0.757219 -1.26113 0
M  V30 4269 H 404.522 3.85064 -1.60566 0
M  V30 4270 H 403.152 3.15015 -0.704645 0
M  V30 4271 H 402.204 2.35248 -2.98936 0
M  V30 4272 H 403.516 3.25412 -3.78032 0
M  V30 4273 H 402.67 5.3896 -2.7858 0
M  V30 4274 H 401.409 4.49568 -1.89049 0
M  V30 4275 H 400.414 3.71021 -4.05738 0
M  V30 4276 H 401.639 4.63761 -4.96087 0
M  V30 4277 H 399.585 5.80938 -3.04708 0
M  V30 4278 H 399.502 5.85909 -4.77752 0
M  V30 4279 H 400.77 6.71744 -3.9545 0
M  V30 4280 N 404.999 1.35443 0.805782 0
M  V30 4281 C 405.909 1.30546 1.94923 0
M  V30 4282 C 406.925 0.210233 1.72725 0
M  V30 4283 O 408.101 0.43975 1.9654 0
M  V30 4284 C 405.166 1.07782 3.29521 0
M  V30 4285 C 404.227 2.26625 3.64609 0
M  V30 4286 C 403.46 2.04938 4.92784 0
M  V30 4287 O 403.683 1.01624 5.61274 0
M  V30 4288 O 402.617 2.9232 5.26149 0
M  V30 4289 H 406.443 2.26779 2.02002 0
M  V30 4290 H 404.028 1.15823 0.943682 0
M  V30 4291 H 405.91 0.969392 4.10098 0
M  V30 4292 H 404.585 0.146003 3.23371 0
M  V30 4293 H 403.492 2.43033 2.84404 0
M  V30 4294 H 404.825 3.18257 3.75464 0
M  V30 4295 N 406.477 -1.02803 1.19454 0
M  V30 4296 C 407.424 -2.11099 0.933046 0
M  V30 4297 C 408.394 -1.65571 -0.132447 0
M  V30 4298 O 409.579 -1.90797 0.00987576 0
M  V30 4299 C 406.719 -3.41763 0.478747 0
M  V30 4300 C 405.832 -4.00833 1.6111 0
M  V30 4301 C 404.967 -5.19511 1.10825 0
M  V30 4302 C 404.006 -5.70639 2.21445 0
M  V30 4303 N 403.143 -6.80589 1.72461 0
M  V30 4304 H 407.983 -2.32804 1.86028 0
M  V30 4305 H 405.52 -1.14179 0.927441 0
M  V30 4306 H 407.478 -4.16736 0.196745 0
M  V30 4307 H 406.108 -3.20166 -0.411493 0
M  V30 4308 H 405.16 -3.23066 2.00829 0
M  V30 4309 H 406.472 -4.34794 2.4445 0
M  V30 4310 H 405.626 -6.01645 0.781533 0
M  V30 4311 H 404.365 -4.87086 0.244606 0
M  V30 4312 H 403.37 -4.87116 2.54947 0
M  V30 4313 H 404.595 -6.05102 3.08267 0
M  V30 4314 H 402.541 -6.50016 0.884056 0
M  V30 4315 H 402.458 -7.13681 2.49389 0
M  V30 4316 H 403.726 -7.66317 1.42755 0
M  V30 4317 N 407.956 -0.998596 -1.21925 0
M  V30 4318 C 409.202 -0.678667 -1.91107 0
M  V30 4319 C 409.535 0.78791 -1.77498 0
M  V30 4320 O 408.81 1.57043 -1.1475 0
M  V30 4321 C 409.093 -1.09245 -3.43129 0
M  V30 4322 C 408.946 -2.61801 -3.6576 0
M  V30 4323 C 410.265 -0.649984 -4.35274 0
M  V30 4324 H 407.384 -0.248025 -0.694012 0
M  V30 4325 H 410.026 -1.24314 -1.43688 0
M  V30 4326 H 408.176 -0.612171 -3.83647 0
M  V30 4327 H 409.848 -3.17543 -3.34611 0
M  V30 4328 H 408.091 -3.03609 -3.09845 0
M  V30 4329 H 408.762 -2.85804 -4.7225 0
M  V30 4330 H 411.238 -1.0626 -4.02303 0
M  V30 4331 H 410.114 -0.967743 -5.40302 0
M  V30 4332 H 410.375 0.449139 -4.39813 0
M  V30 4333 N 409.434 1.37368 -0.772513 0
M  V30 4334 C 410.344 2.34053 -0.160081 0
M  V30 4335 C 411.36 1.60216 0.678728 0
M  V30 4336 O 412.536 1.92303 0.59847 0
M  V30 4337 C 409.601 3.3939 0.708182 0
M  V30 4338 C 408.662 4.29048 -0.147172 0
M  V30 4339 C 407.895 5.29354 0.679744 0
M  V30 4340 O 408.118 5.3723 1.91678 0
M  V30 4341 O 407.052 6.01835 0.0885444 0
M  V30 4342 H 410.878 2.88159 -0.959053 0
M  V30 4343 H 408.463 1.39543 -0.533685 0
M  V30 4344 H 410.345 4.03839 1.20384 0
M  V30 4345 H 409.02 2.8761 1.48533 0
M  V30 4346 H 407.927 3.67697 -0.689205 0
M  V30 4347 H 409.26 4.84134 -0.887423 0
M  V30 4348 N 410.912 0.523116 1.48665 0
M  V30 4349 C 412.328 0.180511 1.58576 0
M  V30 4350 C 412.528 -1.31597 1.52592 0
M  V30 4351 O 411.584 -2.0937 1.4114 0
M  V30 4352 C 412.897 0.776949 2.90489 0
M  V30 4353 C 414.445 0.745058 3.04003 0
M  V30 4354 C 414.92 1.31995 4.38567 0
M  V30 4355 N 416.411 1.28162 4.45117 0
M  V30 4356 C 417.146 1.6964 5.47731 0
M  V30 4357 N 416.642 2.18816 6.57337 0
M  V30 4358 N 418.435 1.6092 5.38573 0
M  V30 4359 H 410.586 1.4958 1.50797 0
M  V30 4360 H 412.849 0.621772 0.715614 0
M  V30 4361 H 412.555 1.82732 3.00503 0
M  V30 4362 H 412.429 0.25007 3.7637 0
M  V30 4363 H 414.816 -0.296532 2.93606 0
M  V30 4364 H 414.897 1.30933 2.1975 0
M  V30 4365 H 414.541 2.36043 4.49718 0
M  V30 4366 H 414.471 0.731418 5.21496 0
M  V30 4367 H 416.962 0.92155 3.66491 0
M  V30 4368 H 417.275 2.48478 7.31764 0
M  V30 4369 H 415.62 2.22805 6.58318 0
M  V30 4370 H 418.811 1.22304 4.5184 0
M  V30 4371 H 418.984 1.93567 6.18414 0
M  V30 4372 N 412.39 -1.55475 0.257931 0
M  V30 4373 C 413.337 -2.21837 -0.636939 0
M  V30 4374 C 414.307 -1.18596 -1.16294 0
M  V30 4375 O 415.492 -1.47081 -1.21539 0
M  V30 4376 C 412.632 -2.9301 -1.82317 0
M  V30 4377 C 411.745 -4.10931 -1.33265 0
M  V30 4378 C 410.88 -4.69791 -2.47931 0
M  V30 4379 C 409.919 -5.7994 -1.95796 0
M  V30 4380 N 409.056 -6.32935 -3.0387 0
M  V30 4381 H 413.896 -2.9793 -0.0643591 0
M  V30 4382 H 411.433 -1.47086 -0.0200031 0
M  V30 4383 H 413.391 -3.3248 -2.52018 0
M  V30 4384 H 412.021 -2.1937 -2.36805 0
M  V30 4385 H 411.073 -3.76699 -0.52931 0
M  V30 4386 H 412.385 -4.90417 -0.910654 0
M  V30 4387 H 411.539 -5.11892 -3.25656 0
M  V30 4388 H 410.278 -3.89545 -2.93438 0
M  V30 4389 H 409.283 -5.37305 -1.16546 0
M  V30 4390 H 410.508 -6.62043 -1.51246 0
M  V30 4391 H 408.454 -5.55591 -3.48791 0
M  V30 4392 H 408.371 -7.07645 -2.66035 0
M  V30 4393 H 409.639 -6.79695 -3.81621 0
M  V30 4394 N 413.868 0.0150385 -1.57593 0
M  V30 4395 C 414.798 1.01047 -2.10503 0
M  V30 4396 C 415.779 1.36816 -1.01071 0
M  V30 4397 O 416.964 1.45455 -1.28672 0
M  V30 4398 C 414.094 2.30708 -2.59598 0
M  V30 4399 C 413.048 2.09142 -3.73421 0
M  V30 4400 C 412.374 3.44685 -4.08774 0
M  V30 4401 C 413.674 1.46619 -5.01298 0
M  V30 4402 H 415.368 0.569978 -2.93925 0
M  V30 4403 H 412.914 0.272724 -1.41394 0
M  V30 4404 H 414.867 3.00687 -2.95238 0
M  V30 4405 H 413.591 2.76843 -1.73279 0
M  V30 4406 H 412.25 1.41592 -3.38153 0
M  V30 4407 H 411.898 3.88495 -3.195 0
M  V30 4408 H 411.598 3.31077 -4.8545 0
M  V30 4409 H 413.122 4.16004 -4.4696 0
M  V30 4410 H 414.536 2.06535 -5.34805 0
M  V30 4411 H 412.933 1.43544 -5.82679 0
M  V30 4412 H 414.003 0.433611 -4.82957 0
M  V30 4413 N 415.346 1.54954 0.287554 0
M  V30 4414 C 416.592 1.75132 1.02257 0
M  V30 4415 C 416.925 0.542858 1.86458 0
M  V30 4416 O 416.2 -0.459856 1.88986 0
M  V30 4417 C 416.483 3.04812 1.91733 0
M  V30 4418 C 416.336 4.35985 1.10622 0
M  V30 4419 C 417.655 3.30438 2.90687 0
M  V30 4420 H 414.774 0.637194 0.370341 0
M  V30 4421 H 417.416 1.87678 0.296111 0
M  V30 4422 H 415.566 2.94247 2.53675 0
M  V30 4423 H 417.238 4.58487 0.508636 0
M  V30 4424 H 415.481 4.31865 0.409271 0
M  V30 4425 H 416.152 5.23017 1.76513 0
M  V30 4426 H 418.628 3.40701 2.38877 0
M  V30 4427 H 417.504 4.22467 3.50447 0
M  V30 4428 H 417.765 2.49377 3.65053 0
M  V30 4429 N 416.824 -0.551391 1.4764 0
M  V30 4430 C 417.787 -1.64007 1.60107 0
M  V30 4431 C 418.787 -1.53601 0.47576 0
M  V30 4432 O 419.977 -1.57655 0.740988 0
M  V30 4433 C 417.109 -3.03569 1.55108 0
M  V30 4434 H 418.302 -1.543 2.57161 0
M  V30 4435 H 415.855 -0.771776 1.35917 0
M  V30 4436 H 416.59 -3.18804 0.594519 0
M  V30 4437 H 416.375 -3.12532 2.36783 0
M  V30 4438 H 417.865 -3.82762 1.66982 0
M  V30 4439 N 418.302 -1.35869 -0.798587 0
M  V30 4440 C 419.232 -1.32118 -1.92528 0
M  V30 4441 C 420.213 -0.194209 -1.68988 0
M  V30 4442 O 421.398 -0.390426 -1.90235 0
M  V30 4443 C 418.528 -1.10047 -3.29404 0
M  V30 4444 C 417.482 -2.19471 -3.67446 0
M  V30 4445 C 416.808 -1.82555 -5.02571 0
M  V30 4446 C 418.108 -3.61495 -3.76987 0
M  V30 4447 H 419.802 -2.26394 -1.95924 0
M  V30 4448 H 417.348 -1.08981 -0.94123 0
M  V30 4449 H 419.301 -1.06061 -4.07835 0
M  V30 4450 H 418.025 -0.122195 -3.26371 0
M  V30 4451 H 416.684 -2.22568 -2.91306 0
M  V30 4452 H 416.332 -0.833249 -4.9605 0
M  V30 4453 H 416.032 -2.5581 -5.28995 0
M  V30 4454 H 417.556 -1.80108 -5.83432 0
M  V30 4455 H 418.97 -3.60676 -4.4563 0
M  V30 4456 H 417.367 -4.33577 -4.14887 0
M  V30 4457 H 418.437 -3.97065 -2.78329 0
M  V30 4458 N 419.78 1.02168 -1.19998 0
M  V30 4459 C 420.69 2.14069 -0.959774 0
M  V30 4460 C 421.706 1.73804 0.082655 0
M  V30 4461 O 422.882 2.01133 -0.103633 0
M  V30 4462 C 419.947 3.42936 -0.509459 0
M  V30 4463 C 419.008 3.97474 -1.62213 0
M  V30 4464 C 418.241 5.2019 -1.19321 0
M  V30 4465 O 418.464 5.70369 -0.0597726 0
M  V30 4466 O 417.398 5.67749 -1.99863 0
M  V30 4467 H 421.224 2.37199 -1.89658 0
M  V30 4468 H 418.809 1.12469 -0.983411 0
M  V30 4469 H 420.691 4.20551 -0.267322 0
M  V30 4470 H 419.366 3.21234 0.398821 0
M  V30 4471 H 418.273 3.21161 -1.9185 0
M  V30 4472 H 419.606 4.23555 -2.50723 0
M  V30 4473 N 421.258 1.00505 1.21394 0
M  V30 4474 C 422.188 0.585684 2.26035 0
M  V30 4475 C 423.169 -0.393525 1.65485 0
M  V30 4476 O 424.354 -0.281497 1.92149 0
M  V30 4477 C 421.484 -0.0884283 3.47187 0
M  V30 4478 C 420.438 0.810567 4.20254 0
M  V30 4479 C 419.764 0.00286382 5.347 0
M  V30 4480 C 421.064 2.1132 4.77641 0
M  V30 4481 H 422.758 1.46039 2.61368 0
M  V30 4482 H 420.304 0.703648 1.25638 0
M  V30 4483 H 422.257 -0.393286 4.19561 0
M  V30 4484 H 420.981 -0.997766 3.10986 0
M  V30 4485 H 419.64 1.09925 3.49731 0
M  V30 4486 H 419.288 -0.907765 4.94741 0
M  V30 4487 H 418.988 0.601444 5.84514 0
M  V30 4488 H 420.512 -0.295808 6.09883 0
M  V30 4489 H 421.926 1.87148 5.41893 0
M  V30 4490 H 420.323 2.66164 5.37845 0
M  V30 4491 H 421.393 2.78393 3.9702 0
M  V30 4492 N 422.737 -1.36956 0.779787 0
M  V30 4493 C 423.962 -2.04283 0.358224 0
M  V30 4494 C 424.387 -1.58422 -1.01411 0
M  V30 4495 O 423.745 -0.748179 -1.65142 0
M  V30 4496 C 423.793 -3.58152 0.419479 0
M  V30 4497 O 422.897 -4.08342 -0.577142 0
M  V30 4498 H 422.238 -0.645967 0.153698 0
M  V30 4499 H 424.768 -1.75108 1.05822 0
M  V30 4500 H 424.778 -4.07041 0.279636 0
M  V30 4501 H 423.453 -3.90886 1.42061 0
M  V30 4502 H 422.03 -3.70751 -0.399755 0
M  V30 4503 N 424.215 -0.530993 -1.48385 0
M  V30 4504 C 425.463 0.00273189 -2.021 0
M  V30 4505 C 425.784 1.34672 -1.41027 0
M  V30 4506 O 425.054 1.8724 -0.576012 0
M  V30 4507 H 423.634 0.00399774 -0.746989 0
M  V30 4508 H 426.296 -0.695054 -1.82085 0
M  V30 4509 H 425.392 0.11031 -3.11905 0
M  V30 4510 N 425.693 1.55336 -0.266172 0
M  V30 4511 C 426.64 2.22172 0.625165 0
M  V30 4512 C 427.61 1.19211 1.15663 0
M  V30 4513 O 428.795 1.47723 1.20758 0
M  V30 4514 C 425.935 2.93972 1.8076 0
M  V30 4515 C 425.048 4.11632 1.31084 0
M  V30 4516 C 424.183 4.71099 2.45436 0
M  V30 4517 C 423.222 5.8097 1.92718 0
M  V30 4518 N 422.359 6.34538 3.00509 0
M  V30 4519 H 427.199 2.9796 0.0485582 0
M  V30 4520 H 424.736 1.47095 0.0122024 0
M  V30 4521 H 426.694 3.33811 2.50251 0
M  V30 4522 H 425.324 2.20623 2.35638 0
M  V30 4523 H 424.376 3.76975 0.509326 0
M  V30 4524 H 425.688 4.90893 0.884633 0
M  V30 4525 H 424.842 5.13612 3.22936 0
M  V30 4526 H 423.581 3.91096 2.91368 0
M  V30 4527 H 422.586 5.37916 1.13695 0
M  V30 4528 H 423.811 6.62836 1.47733 0
M  V30 4529 H 421.757 5.57433 3.45839 0
M  V30 4530 H 421.674 7.09046 2.62279 0
M  V30 4531 H 422.942 6.81709 3.78011 0
M  V30 4532 N 427.171 -0.0066808 1.57599 0
M  V30 4533 C 428.587 -0.36267 1.55425 0
M  V30 4534 C 428.787 -1.75209 0.995187 0
M  V30 4535 O 427.843 -2.44616 0.626058 0
M  V30 4536 C 429.156 -0.244017 2.99708 0
M  V30 4537 C 430.704 -0.319451 3.11366 0
M  V30 4538 C 431.179 -0.229998 4.57422 0
M  V30 4539 N 432.67 -0.288105 4.62303 0
M  V30 4540 C 433.405 -0.242127 5.72889 0
M  V30 4541 N 432.901 -0.147133 6.92644 0
M  V30 4542 N 434.694 -0.293502 5.61333 0
M  V30 4543 H 426.845 0.902314 1.92281 0
M  V30 4544 H 429.108 0.34525 0.882896 0
M  V30 4545 H 428.814 0.711678 3.44424 0
M  V30 4546 H 428.688 -1.02877 3.629 0
M  V30 4547 H 431.075 -1.26559 2.66584 0
M  V30 4548 H 431.156 0.495055 2.50964 0
M  V30 4549 H 430.8 0.712566 5.02877 0
M  V30 4550 H 430.73 -1.0629 5.15761 0
M  V30 4551 H 433.221 -0.363126 3.76151 0
M  V30 4552 H 433.534 -0.117763 7.7271 0
M  V30 4553 H 431.879 -0.112857 6.94908 0
M  V30 4554 H 435.07 -0.365864 4.66668 0
M  V30 4555 H 435.243 -0.254204 6.47501 0
M  V30 4556 N 428.649 -1.55105 -0.279332 0
M  V30 4557 C 429.898 -1.74618 -1.00952 0
M  V30 4558 C 430.211 -0.551096 -1.87676 0
M  V30 4559 O 431.417 -0.628507 -2.64125 0
M  V30 4560 C 429.873 -3.09025 -1.84476 0
M  V30 4561 C 429.481 -4.36081 -1.0265 0
M  V30 4562 C 431.225 -3.37891 -2.56963 0
M  V30 4563 C 429.132 -5.6153 -1.85576 0
M  V30 4564 H 428.062 -0.650868 -0.38064 0
M  V30 4565 H 430.713 -1.81569 -0.265475 0
M  V30 4566 H 429.095 -2.96095 -2.62952 0
M  V30 4567 H 430.269 -4.59909 -0.286354 0
M  V30 4568 H 428.584 -4.14312 -0.416464 0
M  V30 4569 H 431.181 -4.28822 -3.19399 0
M  V30 4570 H 431.524 -2.57737 -3.26921 0
M  V30 4571 H 432.057 -3.5189 -1.85522 0
M  V30 4572 H 428.796 -6.44413 -1.2005 0
M  V30 4573 H 428.316 -5.41854 -2.57204 0
M  V30 4574 H 429.995 -5.99594 -2.43096 0
M  V30 4575 N 430.127 0.543554 -1.4793 0
M  V30 4576 C 431.09 1.63156 -1.60975 0
M  V30 4577 C 432.09 1.53346 -0.483899 0
M  V30 4578 O 433.28 1.5726 -0.749339 0
M  V30 4579 C 430.412 3.02743 -1.56716 0
M  V30 4580 H 431.605 1.52934 -2.57975 0
M  V30 4581 H 429.158 0.764557 -1.36324 0
M  V30 4582 H 429.893 3.18484 -0.611418 0
M  V30 4583 H 429.678 3.11272 -2.38438 0
M  V30 4584 H 431.168 3.81871 -1.6901 0
M  V30 4585 N 431.605 1.3629 0.791371 0
M  V30 4586 C 433.021 1.16661 1.08914 0
M  V30 4587 C 433.221 -0.0106266 2.01497 0
M  V30 4588 O 432.277 -0.676596 2.43266 0
M  V30 4589 C 433.59 2.47656 1.70549 0
M  V30 4590 C 435.138 2.54002 1.82899 0
M  V30 4591 C 435.613 3.85078 2.47949 0
M  V30 4592 N 437.104 3.86413 2.5542 0
M  V30 4593 C 437.839 4.84572 3.06557 0
M  V30 4594 N 437.335 5.93124 3.58016 0
M  V30 4595 N 439.128 4.71994 3.05251 0
M  V30 4596 H 431.279 2.11668 0.176238 0
M  V30 4597 H 433.542 0.937486 0.140796 0
M  V30 4598 H 433.248 3.34059 1.09989 0
M  V30 4599 H 433.122 2.63319 2.70079 0
M  V30 4600 H 435.509 1.68018 2.42598 0
M  V30 4601 H 435.59 2.42239 0.821808 0
M  V30 4602 H 435.234 4.71467 1.88895 0
M  V30 4603 H 435.164 3.94135 3.49235 0
M  V30 4604 H 437.655 3.07988 2.18979 0
M  V30 4605 H 437.968 6.63999 3.95381 0
M  V30 4606 H 436.313 5.96796 3.56173 0
M  V30 4607 H 439.504 3.86321 2.64336 0
M  V30 4608 H 439.677 5.48653 3.44796 0
M  V30 4609 N 433.083 -1.0153 1.20538 0
M  V30 4610 C 434.03 -2.10098 0.955383 0
M  V30 4611 C 435 -1.65702 -0.114878 0
M  V30 4612 O 436.185 -1.90776 0.0301118 0
M  V30 4613 C 433.325 -3.41236 0.514969 0
M  V30 4614 C 432.438 -3.99102 1.65353 0
M  V30 4615 C 431.573 -5.18306 1.16329 0
M  V30 4616 C 430.612 -5.68258 2.27485 0
M  V30 4617 N 429.749 -6.78722 1.7967 0
M  V30 4618 H 434.589 -2.30818 1.88486 0
M  V30 4619 H 432.126 -1.13189 0.939499 0
M  V30 4620 H 434.084 -4.16504 0.240935 0
M  V30 4621 H 432.714 -3.20585 -0.377512 0
M  V30 4622 H 431.766 -3.20918 2.04245 0
M  V30 4623 H 433.078 -4.32177 2.49047 0
M  V30 4624 H 432.232 -6.00782 0.845302 0
M  V30 4625 H 430.971 -4.86799 0.296254 0
M  V30 4626 H 429.976 -4.84385 2.60099 0
M  V30 4627 H 431.201 -6.01798 3.14667 0
M  V30 4628 H 429.147 -6.49042 0.95295 0
M  V30 4629 H 429.064 -7.10996 2.56944 0
M  V30 4630 H 430.332 -7.64759 1.50875 0
M  V30 4631 N 434.561 -1.01147 -1.20859 0
M  V30 4632 C 435.809 -0.696486 -1.89719 0
M  V30 4633 C 436.13 0.775788 -1.78904 0
M  V30 4634 O 435.4 1.55759 -1.18811 0
M  V30 4635 H 433.98 -0.254628 -0.702263 0
M  V30 4636 H 436.642 -1.28197 -1.46804 0
M  V30 4637 H 435.738 -0.975357 -2.96468 0
M  V30 4638 N 436.039 1.36541 -0.78704 0
M  V30 4639 C 437.269 2.03266 -0.369662 0
M  V30 4640 C 437.677 1.59481 1.01796 0
M  V30 4641 O 437.02 0.778612 1.66383 0
M  V30 4642 C 437.082 3.57779 -0.351371 0
M  V30 4643 C 436.746 4.24756 -1.68617 0
M  V30 4644 C 437.743 4.47811 -2.64124 0
M  V30 4645 C 435.428 4.62277 -1.96481 0
M  V30 4646 C 437.422 5.07464 -3.85693 0
M  V30 4647 C 435.109 5.21649 -3.18317 0
M  V30 4648 C 436.107 5.44182 -4.12741 0
M  V30 4649 O 435.795 6.02307 -5.32429 0
M  V30 4650 H 435.527 0.658977 -0.150751 0
M  V30 4651 H 438.081 1.75548 -1.0664 0
M  V30 4652 H 436.311 3.84606 0.401847 0
M  V30 4653 H 438 4.05879 0.0410147 0
M  V30 4654 H 438.766 4.19221 -2.43883 0
M  V30 4655 H 434.645 4.44065 -1.23805 0
M  V30 4656 H 438.189 5.24968 -4.59407 0
M  V30 4657 H 434.086 5.49664 -3.38437 0
M  V30 4658 H 434.854 6.20775 -5.33461 0
M  V30 4659 N 437.518 0.538854 1.48102 0
M  V30 4660 C 438.428 -0.222648 2.33541 0
M  V30 4661 C 439.444 -0.930225 1.47047 0
M  V30 4662 O 440.62 -0.903211 1.80011 0
M  V30 4663 C 437.685 -1.25064 3.23357 0
M  V30 4664 C 436.746 -0.552469 4.2573 0
M  V30 4665 C 435.979 -1.53149 5.11254 0
M  V30 4666 O 436.202 -2.76487 4.9891 0
M  V30 4667 O 435.136 -1.06602 5.92385 0
M  V30 4668 H 438.962 0.477707 2.99919 0
M  V30 4669 H 436.547 0.299669 1.46364 0
M  V30 4670 H 438.429 -1.8445 3.78888 0
M  V30 4671 H 437.104 -1.93325 2.59629 0
M  V30 4672 H 436.011 0.082114 3.7401 0
M  V30 4673 H 437.344 0.0883526 4.92121 0
M  V30 4674 N 438.996 -1.55193 0.274407 0
M  V30 4675 C 440.242 -1.99877 -0.343086 0
M  V30 4676 C 440.575 -1.16256 -1.55558 0
M  V30 4677 O 439.85 -0.232462 -1.93106 0
M  V30 4678 C 440.133 -3.52706 -0.725965 0
M  V30 4679 C 439.986 -4.47081 0.493818 0
M  V30 4680 C 441.305 -4.11422 -1.56268 0
M  V30 4681 H 438.424 -0.726625 -0.123229 0
M  V30 4682 H 441.066 -1.86136 0.38121 0
M  V30 4683 H 439.216 -3.64546 -1.34307 0
M  V30 4684 H 440.888 -4.47186 1.13237 0
M  V30 4685 H 439.131 -4.1877 1.13201 0
M  V30 4686 H 439.802 -5.51699 0.18217 0
M  V30 4687 H 442.278 -4.02855 -1.04151 0
M  V30 4688 H 441.154 -5.18568 -1.79939 0
M  V30 4689 H 441.415 -3.61607 -2.54348 0
M  V30 4690 N 440.474 -0.00167713 -1.576 0
M  V30 4691 C 441.404 0.988091 -2.11563 0
M  V30 4692 C 442.385 1.35736 -1.02517 0
M  V30 4693 O 443.57 1.44082 -1.30208 0
M  V30 4694 C 440.7 2.27941 -2.62031 0
M  V30 4695 C 439.654 2.0517 -3.75619 0
M  V30 4696 C 438.98 3.4033 -4.12407 0
M  V30 4697 C 440.28 1.41294 -5.02825 0
M  V30 4698 H 441.974 0.538771 -2.94513 0
M  V30 4699 H 439.52 0.257712 -1.41675 0
M  V30 4700 H 441.473 2.97539 -2.9841 0
M  V30 4701 H 440.197 2.74989 -1.76205 0
M  V30 4702 H 438.856 1.37998 -3.39635 0
M  V30 4703 H 438.504 3.85085 -3.23603 0
M  V30 4704 H 438.204 3.25909 -4.88935 0
M  V30 4705 H 439.728 4.1124 -4.51347 0
M  V30 4706 H 441.142 2.00851 -5.36965 0
M  V30 4707 H 439.539 1.37356 -5.84169 0
M  V30 4708 H 440.609 0.382362 -4.8339 0
M  V30 4709 N 441.952 1.55251 0.271103 0
M  V30 4710 C 442.899 1.88261 1.33516 0
M  V30 4711 C 443.869 0.734296 1.48988 0
M  V30 4712 O 445.054 0.985741 1.63364 0
M  V30 4713 C 442.194 2.16168 2.69008 0
M  V30 4714 C 441.307 3.43678 2.61743 0
M  V30 4715 C 440.442 3.61276 3.89427 0
M  V30 4716 C 439.481 4.82472 3.7668 0
M  V30 4717 N 438.618 4.96717 4.96202 0
M  V30 4718 H 443.458 2.79015 1.04665 0
M  V30 4719 H 440.995 1.38137 0.505618 0
M  V30 4720 H 442.953 2.30349 3.47844 0
M  V30 4721 H 441.583 1.28646 2.96057 0
M  V30 4722 H 440.635 3.37959 1.74607 0
M  V30 4723 H 441.947 4.3265 2.48224 0
M  V30 4724 H 441.101 3.75284 4.76704 0
M  V30 4725 H 439.84 2.70492 4.05814 0
M  V30 4726 H 438.845 4.68465 2.87786 0
M  V30 4727 H 440.07 5.74692 3.61809 0
M  V30 4728 H 438.016 4.08865 5.12997 0
M  V30 4729 H 437.933 5.79738 4.85222 0
M  V30 4730 H 439.201 5.15113 5.85046 0
M  V30 4731 N 443.43 -0.535701 1.48216 0
M  V30 4732 C 444.378 -1.66179 1.62749 0
M  V30 4733 C 445.372 -1.62034 0.49409 0
M  V30 4734 O 446.578 -1.6696 0.672624 0
M  V30 4735 H 442.953 -0.550244 0.512578 0
M  V30 4736 H 444.924 -1.51063 2.57337 0
M  V30 4737 C 443.673 -3.04471 1.67907 0
M  V30 4738 H 442.996 -3.08351 2.54479 0
M  V30 4739 H 444.436 -3.82894 1.82121 0
M  V30 4740 C 442.895 -3.34314 0.416596 0
M  V30 4741 O 443.425 -3.98905 -0.473014 0
M  V30 4742 N 441.631 -2.89149 0.290038 0
M  V30 4743 H 441.178 -2.36764 1.01493 0
M  V30 4744 H 441.136 -3.09486 -0.55367 0
M  V30 4745 N 444.908 -1.36708 -0.784132 0
M  V30 4746 C 446.156 -1.30972 -1.53918 0
M  V30 4747 C 446.477 0.109086 -1.94695 0
M  V30 4748 O 445.747 1.05048 -1.65353 0
M  V30 4749 H 444.327 -0.481819 -0.570841 0
M  V30 4750 H 446.989 -1.71063 -0.934002 0
M  V30 4751 H 446.085 -1.94061 -2.44431 0
M  V30 4752 N 446.386 1.0089 -1.21074 0
M  V30 4753 C 447.296 2.13039 -0.982425 0
M  V30 4754 C 448.312 1.73881 0.0642161 0
M  V30 4755 O 449.488 2.01012 -0.12496 0
M  V30 4756 C 446.553 3.42377 -0.545803 0
M  V30 4757 C 445.614 3.95731 -1.6642 0
M  V30 4758 C 444.847 5.18896 -1.24832 0
M  V30 4759 O 445.07 5.70273 -0.120265 0
M  V30 4760 O 444.004 5.65597 -2.05873 0
M  V30 4761 H 447.83 2.35175 -1.92163 0
M  V30 4762 H 445.415 1.1142 -0.995285 0
M  V30 4763 H 447.297 4.20244 -0.311912 0
M  V30 4764 H 445.972 3.21639 0.364727 0
M  V30 4765 H 444.879 3.19108 -1.95246 0
M  V30 4766 H 446.212 4.20872 -2.55201 0
M  V30 4767 N 447.864 1.01787 1.20321 0
M  V30 4768 C 449.28 0.732951 1.41774 0
M  V30 4769 C 449.48 -0.686883 1.89431 0
M  V30 4770 O 448.536 -1.45446 2.06402 0
M  V30 4771 C 449.849 1.75973 2.43832 0
M  V30 4772 C 451.397 1.77802 2.57596 0
M  V30 4773 C 451.872 2.7941 3.62897 0
M  V30 4774 N 453.363 2.78157 3.70382 0
M  V30 4775 C 454.098 3.53434 4.51521 0
M  V30 4776 N 453.594 4.38392 5.36455 0
M  V30 4777 N 455.387 3.42026 4.46066 0
M  V30 4778 H 447.538 1.93447 0.877035 0
M  V30 4779 H 449.801 0.835712 0.447536 0
M  V30 4780 H 449.507 2.77699 2.15815 0
M  V30 4781 H 449.381 1.57292 3.4284 0
M  V30 4782 H 451.768 0.767602 2.84942 0
M  V30 4783 H 451.849 2.00557 1.58779 0
M  V30 4784 H 451.493 3.80616 3.36295 0
M  V30 4785 H 451.423 2.53916 4.61339 0
M  V30 4786 H 453.914 2.16531 3.09714 0
M  V30 4787 H 454.227 4.92596 5.95457 0
M  V30 4788 H 452.572 4.4247 5.35953 0
M  V30 4789 H 455.763 2.75075 3.78749 0
M  V30 4790 H 455.936 4.00946 5.09064 0
M  V30 4791 N 449.342 -1.36122 0.79427 0
M  V30 4792 C 450.588 -1.99406 0.369452 0
M  V30 4793 C 450.921 -1.62886 -1.05743 0
M  V30 4794 O 450.196 -0.886053 -1.73145 0
M  V30 4795 C 450.479 -3.56046 0.538833 0
M  V30 4796 C 450.332 -4.02404 2.00976 0
M  V30 4797 C 451.651 -4.40079 -0.0431359 0
M  V30 4798 H 448.77 -0.724397 0.135712 0
M  V30 4799 H 451.412 -1.61461 1.00151 0
M  V30 4800 H 449.562 -3.885 0.000771004 0
M  V30 4801 H 451.234 -3.80415 2.60926 0
M  V30 4802 H 449.477 -3.53765 2.51063 0
M  V30 4803 H 450.148 -5.11344 2.07922 0
M  V30 4804 H 452.624 -4.14013 0.416228 0
M  V30 4805 H 451.5 -5.48799 0.105374 0
M  V30 4806 H 451.761 -4.27264 -1.13571 0
M  V30 4807 N 450.82 -0.546701 -1.47814 0
M  V30 4808 C 452.068 -0.0187037 -2.02091 0
M  V30 4809 C 452.389 1.33168 -1.42447 0
M  V30 4810 O 451.659 1.86619 -0.595839 0
M  V30 4811 H 450.239 -0.00392531 -0.74699 0
M  V30 4812 H 452.901 -0.714327 -1.81338 0
M  V30 4813 H 451.997 0.0772219 -3.12004 0
M  V30 4814 N 452.299 1.55045 -0.282633 0
M  V30 4815 C 453.209 2.26491 0.61147 0
M  V30 4816 C 454.225 1.29348 1.16384 0
M  V30 4817 O 455.401 1.62298 1.19253 0
M  V30 4818 C 452.466 2.97779 1.77563 0
M  V30 4819 C 451.527 4.10418 1.25919 0
M  V30 4820 C 450.76 4.78297 2.36786 0
M  V30 4821 O 450.983 4.45426 3.56303 0
M  V30 4822 O 449.917 5.66089 2.04517 0
M  V30 4823 H 453.743 3.03683 0.0324615 0
M  V30 4824 H 451.328 1.49317 -0.0497576 0
M  V30 4825 H 453.21 3.42554 2.45427 0
M  V30 4826 H 451.885 2.23498 2.34159 0
M  V30 4827 H 450.792 3.70082 0.546797 0
M  V30 4828 H 452.125 4.86622 0.738887 0
M  V30 4829 N 453.777 0.010035 1.57597 0
M  V30 4830 C 455.026 -0.671945 1.90178 0
M  V30 4831 C 455.339 -1.74376 0.886131 0
M  V30 4832 O 456.545 -2.48107 1.10252 0
M  V30 4833 C 455.001 -1.24636 3.3763 0
M  V30 4834 C 454.609 -0.208838 4.47513 0
M  V30 4835 C 456.353 -1.90595 3.79307 0
M  V30 4836 C 454.26 -0.793814 5.86048 0
M  V30 4837 H 453.19 -0.25474 0.709665 0
M  V30 4838 H 455.841 0.0722206 1.83358 0
M  V30 4839 H 454.223 -2.04152 3.3932 0
M  V30 4840 H 455.397 0.562463 4.57354 0
M  V30 4841 H 453.712 0.350889 4.14919 0
M  V30 4842 H 456.309 -2.35284 4.80151 0
M  V30 4843 H 456.652 -2.74074 3.13352 0
M  V30 4844 H 457.185 -1.17798 3.79958 0
M  V30 4845 H 453.924 0.00240855 6.555 0
M  V30 4846 H 453.444 -1.53404 5.79851 0
M  V30 4847 H 455.123 -1.2894 6.34022 0
M  V30 4848 N 455.255 -1.55392 -0.262866 0
M  V30 4849 C 456.483 -1.80513 -1.01108 0
M  V30 4850 C 456.898 -0.583533 -1.79556 0
M  V30 4851 O 456.255 0.447585 -1.76926 0
M  V30 4852 C 456.306 -3.03648 -1.96164 0
M  V30 4853 O 456.027 -4.2109 -1.20893 0
M  V30 4854 C 457.528 -3.41448 -2.82715 0
M  V30 4855 H 454.748 -0.601079 -0.298236 0
M  V30 4856 H 457.292 -2.02425 -0.290582 0
M  V30 4857 H 455.447 -2.83832 -2.63663 0
M  V30 4858 H 455.861 -4.90771 -1.85051 0
M  V30 4859 H 457.335 -4.30751 -3.45192 0
M  V30 4860 H 457.812 -2.61308 -3.53008 0
M  V30 4861 H 458.418 -3.63559 -2.20693 0
M  V30 4862 N 456.733 0.527833 -1.48498 0
M  V30 4863 C 457.958 1.313 -1.60546 0
M  V30 4864 C 458.383 1.86199 -0.26672 0
M  V30 4865 O 457.741 1.64513 0.761918 0
M  V30 4866 C 457.789 2.43818 -2.65678 0
M  V30 4867 O 456.893 3.46916 -2.22987 0
M  V30 4868 H 456.234 0.388784 -0.538277 0
M  V30 4869 H 458.764 0.634896 -1.945 0
M  V30 4870 H 458.774 2.89973 -2.87018 0
M  V30 4871 H 457.449 2.03222 -3.62869 0
M  V30 4872 H 456.026 3.06864 -2.11869 0
M  V30 4873 N 458.211 1.37122 0.776871 0
M  V30 4874 C 459.459 1.31787 1.53221 0
M  V30 4875 C 459.78 -0.0987589 1.9475 0
M  V30 4876 O 459.05 -1.0417 1.65908 0
M  V30 4877 H 457.63 0.484839 0.568278 0
M  V30 4878 H 460.292 1.71556 0.924917 0
M  V30 4879 H 459.388 1.95355 2.43398 0
M  V30 4880 N 459.689 -1.00246 1.21608 0
M  V30 4881 C 460.637 -2.11193 0.97469 0
M  V30 4882 C 461.631 -1.69216 -0.0789303 0
M  V30 4883 O 462.837 -1.79853 0.0726806 0
M  V30 4884 H 459.212 -0.690455 0.297953 0
M  V30 4885 H 461.183 -2.2873 1.91638 0
M  V30 4886 C 459.932 -3.43182 0.558717 0
M  V30 4887 H 459.255 -3.75918 1.3611 0
M  V30 4888 H 460.695 -4.21823 0.429154 0
M  V30 4889 C 459.154 -3.28882 -0.730648 0
M  V30 4890 O 459.684 -3.59835 -1.78554 0
M  V30 4891 N 457.89 -2.8209 -0.698131 0
M  V30 4892 H 457.437 -2.57099 0.16061 0
M  V30 4893 H 457.395 -2.72903 -1.56113 0
M  V30 4894 N 461.167 -1.02423 -1.1978 0
M  V30 4895 C 462.414 -0.717988 -1.89344 0
M  V30 4896 C 462.742 0.753036 -1.79331 0
M  V30 4897 O 461.997 1.56355 -1.17692 0
M  V30 4898 C 462.296 -1.1088 -3.39765 0
M  V30 4899 C 461.962 -2.57731 -3.6998 0
M  V30 4900 C 460.624 -2.97854 -3.77937 0
M  V30 4901 C 462.976 -3.52763 -3.83677 0
M  V30 4902 C 460.304 -4.31931 -3.97054 0
M  V30 4903 C 462.656 -4.86538 -4.04306 0
M  V30 4904 C 461.32 -5.26356 -4.10494 0
M  V30 4905 H 460.59 -0.26273 -0.692859 0
M  V30 4906 H 463.237 -1.28623 -1.41875 0
M  V30 4907 H 461.542 -0.459094 -3.89101 0
M  V30 4908 H 463.239 -0.849432 -3.919 0
M  V30 4909 H 459.829 -2.25646 -3.64393 0
M  V30 4910 H 464.013 -3.2292 -3.76877 0
M  V30 4911 H 459.269 -4.62324 -4.00083 0
M  V30 4912 H 463.443 -5.60093 -4.13846 0
M  V30 4913 H 461.07 -6.3026 -4.2506 0
M  V30 4914 N 462.645 1.35699 -0.801477 0
M  V30 4915 C 463.87 2.03687 -0.390678 0
M  V30 4916 C 464.295 1.60015 0.988778 0
M  V30 4917 O 463.653 0.774357 1.63931 0
M  V30 4918 C 463.701 3.57439 -0.476404 0
M  V30 4919 O 462.805 4.09208 0.512106 0
M  V30 4920 H 462.146 0.64344 -0.163956 0
M  V30 4921 H 464.676 1.73403 -1.08594 0
M  V30 4922 H 464.686 4.06544 -0.344357 0
M  V30 4923 H 463.361 3.88576 -1.48262 0
M  V30 4924 H 461.938 3.7134 0.340721 0
M  V30 4925 N 464.123 0.554532 1.47522 0
M  V30 4926 C 465.534 0.120446 1.86311 0
M  V30 4927 C 465.885 -1.30904 1.46145 0
M  V30 4928 O 465.01 -1.98434 0.863294 0
M  V30 4929 C 465.605 0.211808 3.38137 0
M  V30 4930 C 464.164 -0.167224 3.76028 0
M  V30 4931 C 463.311 0.560576 2.71575 0
M  V30 4932 H 466.262 0.764408 1.39077 0
M  V30 4933 H 466.283 -0.570275 3.76202 0
M  V30 4934 H 465.795 1.25232 3.6734 0
M  V30 4935 H 463.896 -1.20894 3.52442 0
M  V30 4936 H 464.009 0.189473 4.78725 0
M  V30 4937 H 462.373 0.00396836 2.547 0
M  V30 4938 H 463.156 1.60219 3.0362 0
M  V30 4939 N 465.601 -1.54893 0.290851 0
M  V30 4940 C 466.829 -2.04343 -0.324288 0
M  V30 4941 C 467.244 -1.16859 -1.48289 0
M  V30 4942 O 466.601 -0.192018 -1.81487 0
M  V30 4943 C 466.652 -3.52756 -0.79026 0
M  V30 4944 O 466.373 -4.36913 0.322213 0
M  V30 4945 C 467.874 -4.18161 -1.4716 0
M  V30 4946 H 465.094 -0.667135 -0.0719173 0
M  V30 4947 H 467.638 -1.99981 0.427529 0
M  V30 4948 H 465.793 -3.57511 -1.49213 0
M  V30 4949 H 466.207 -5.24486 -0.0387372 0
M  V30 4950 H 467.681 -5.23562 -1.7489 0
M  V30 4951 H 468.158 -3.67282 -2.40834 0
M  V30 4952 H 468.764 -4.17454 -0.813178 0
M  V30 4953 N 467.08 -0.0183926 -1.57589 0
M  V30 4954 C 468.01 0.965596 -2.12599 0
M  V30 4955 C 468.991 1.34641 -1.0395 0
M  V30 4956 O 470.176 1.42693 -1.31729 0
M  V30 4957 C 467.306 2.25149 -2.64434 0
M  V30 4958 C 466.26 2.01175 -3.77773 0
M  V30 4959 C 465.586 3.35937 -4.15994 0
M  V30 4960 C 466.886 1.35953 -5.04296 0
M  V30 4961 H 468.58 0.507504 -2.95067 0
M  V30 4962 H 466.126 0.242671 -1.41941 0
M  V30 4963 H 468.079 2.94357 -3.01549 0
M  V30 4964 H 466.803 2.73105 -1.79112 0
M  V30 4965 H 465.462 1.34388 -3.4108 0
M  V30 4966 H 465.11 3.81631 -3.27669 0
M  V30 4967 H 464.81 3.20705 -4.92364 0
M  V30 4968 H 466.334 4.0643 -4.55683 0
M  V30 4969 H 467.748 1.95144 -5.39065 0
M  V30 4970 H 466.145 1.31152 -5.85593 0
M  V30 4971 H 467.215 0.331071 -4.83768 0
M  V30 4972 N 468.558 1.5553 0.254621 0
M  V30 4973 C 469.806 1.7665 0.981793 0
M  V30 4974 C 470.127 0.580963 1.86145 0
M  V30 4975 O 469.397 -0.403537 1.91699 0
M  V30 4976 H 467.977 0.651475 0.365498 0
M  V30 4977 H 470.639 1.92958 0.274426 0
M  V30 4978 H 469.735 2.67486 1.60802 0
M  V30 4979 N 470.036 -0.519951 1.48776 0
M  V30 4980 C 470.983 -1.62352 1.64044 0
M  V30 4981 C 471.953 -1.58945 0.482251 0
M  V30 4982 O 473.138 -1.77219 0.706971 0
M  V30 4983 C 470.278 -3.00579 1.69547 0
M  V30 4984 C 469.391 -3.14145 2.96541 0
M  V30 4985 C 468.526 -4.42991 2.93142 0
M  V30 4986 C 467.565 -4.50122 4.14797 0
M  V30 4987 N 466.702 -5.7037 4.09418 0
M  V30 4988 H 471.542 -1.48643 2.58281 0
M  V30 4989 H 469.079 -0.723516 1.28077 0
M  V30 4990 H 471.037 -3.80671 1.70719 0
M  V30 4991 H 469.667 -3.13036 0.787918 0
M  V30 4992 H 468.719 -2.27239 3.05068 0
M  V30 4993 H 470.031 -3.15275 3.86527 0
M  V30 4994 H 469.185 -5.31385 2.92772 0
M  V30 4995 H 467.924 -4.44398 2.00902 0
M  V30 4996 H 466.929 -3.60133 4.15433 0
M  V30 4997 H 468.154 -4.50445 5.08208 0
M  V30 4998 H 466.1 -5.72655 3.20004 0
M  V30 4999 H 466.017 -5.73036 4.93119 0
M  V30 5000 H 467.285 -6.61023 4.13121 0
M  V30 5001 N 471.514 -1.37532 -0.769588 0
M  V30 5002 C 472.739 -1.36231 -1.56384 0
M  V30 5003 C 473.164 0.0495849 -1.88035 0
M  V30 5004 O 472.522 1.02723 -1.49391 0
M  V30 5005 C 472.57 -2.20986 -2.84952 0
M  V30 5006 O 471.674 -1.61597 -3.79421 0
M  V30 5007 H 471.015 -0.465387 -0.473615 0
M  V30 5008 H 473.545 -1.81085 -0.952342 0
M  V30 5009 H 473.555 -2.34277 -3.34034 0
M  V30 5010 H 472.23 -3.23612 -2.61243 0
M  V30 5011 H 470.807 -1.57359 -3.38072 0
M  V30 5012 N 472.992 0.995999 -1.22138 0
M  V30 5013 C 474.241 1.72928 -1.03821 0
M  V30 5014 C 474.554 1.90872 0.427444 0
M  V30 5015 O 475.76 2.61496 0.730212 0
M  V30 5016 C 474.216 3.11124 -1.80913 0
M  V30 5017 C 473.824 3.01122 -3.31707 0
M  V30 5018 C 475.568 3.8852 -1.71035 0
M  V30 5019 C 473.475 4.34453 -4.01253 0
M  V30 5020 H 472.405 0.648376 -0.384869 0
M  V30 5021 H 475.056 1.11213 -1.45959 0
M  V30 5022 H 473.438 3.73503 -1.31573 0
M  V30 5023 H 474.612 2.47926 -3.88419 0
M  V30 5024 H 472.927 2.3721 -3.42228 0
M  V30 5025 H 475.524 4.872 -2.20318 0
M  V30 5026 H 475.867 4.1087 -0.670196 0
M  V30 5027 H 476.4 3.32812 -2.17902 0
M  V30 5028 H 473.139 4.17303 -5.05508 0
M  V30 5029 H 472.659 4.87574 -3.49331 0
M  V30 5030 H 474.338 5.03215 -4.06674 0
M  V30 5031 N 474.47 1.03057 1.19235 0
M  V30 5032 C 475.433 0.617418 2.20727 0
M  V30 5033 C 476.433 -0.319856 1.57587 0
M  V30 5034 O 477.623 -0.106633 1.73873 0
M  V30 5035 C 474.755 -0.096296 3.40764 0
M  V30 5036 H 475.948 1.51544 2.58794 0
M  V30 5037 H 473.501 0.821949 1.32942 0
M  V30 5038 H 474.236 -1.00859 3.08217 0
M  V30 5039 H 474.021 0.577217 3.87828 0
M  V30 5040 H 475.511 -0.372219 4.15938 0
M  V30 5041 N 475.948 -1.35272 0.808662 0
M  V30 5042 C 476.878 -2.32315 0.234981 0
M  V30 5043 C 477.859 -1.57572 -0.64071 0
M  V30 5044 O 479.044 -1.8563 -0.570551 0
M  V30 5045 C 476.174 -3.41801 -0.615601 0
M  V30 5046 C 475.128 -4.27694 0.161767 0
M  V30 5047 C 474.454 -5.28519 -0.810649 0
M  V30 5048 C 475.754 -5.04231 1.36193 0
M  V30 5049 H 477.448 -2.80543 1.04575 0
M  V30 5050 H 474.994 -1.3488 0.504315 0
M  V30 5051 H 476.947 -4.08693 -1.02702 0
M  V30 5052 H 475.671 -2.92186 -1.45928 0
M  V30 5053 H 474.33 -3.62384 0.554382 0
M  V30 5054 H 473.978 -4.75171 -1.64988 0
M  V30 5055 H 473.678 -5.8686 -0.294822 0
M  V30 5056 H 475.202 -5.98283 -1.22023 0
M  V30 5057 H 476.616 -5.64058 1.02528 0
M  V30 5058 H 475.013 -5.72077 1.81239 0
M  V30 5059 H 476.083 -4.34753 2.14751 0
M  V30 5060 N 477.426 -0.562348 -1.47226 0
M  V30 5061 C 478.389 0.172056 -2.28553 0
M  V30 5062 C 479.389 0.837928 -1.37242 0
M  V30 5063 O 480.579 0.693001 -1.59822 0
M  V30 5064 C 477.711 1.25223 -3.17068 0
M  V30 5065 H 478.904 -0.542401 -2.94954 0
M  V30 5066 H 476.457 -0.319493 -1.53 0
M  V30 5067 H 477.192 1.99892 -2.55369 0
M  V30 5068 H 476.977 0.779515 -3.84273 0
M  V30 5069 H 478.467 1.76791 -3.78332 0
M  V30 5070 N 478.904 1.54736 -0.299062 0
M  V30 5071 C 479.834 2.26409 0.571085 0
M  V30 5072 C 480.815 1.2629 1.13951 0
M  V30 5073 O 482 1.55059 1.16921 0
M  V30 5074 C 479.13 3.00338 1.74396 0
M  V30 5075 C 478.084 4.07588 1.30599 0
M  V30 5076 C 477.41 4.69222 2.56387 0
M  V30 5077 C 478.71 5.20455 0.438645 0
M  V30 5078 H 480.404 2.99388 -0.0266991 0
M  V30 5079 H 477.95 1.43993 -0.0142812 0
M  V30 5080 H 479.903 3.49198 2.35878 0
M  V30 5081 H 478.627 2.24934 2.36796 0
M  V30 5082 H 477.286 3.59575 0.71424 0
M  V30 5083 H 476.934 3.9046 3.17097 0
M  V30 5084 H 476.634 5.41653 2.27784 0
M  V30 5085 H 478.158 5.20844 3.18675 0
M  V30 5086 H 479.572 5.65221 0.959085 0
M  V30 5087 H 477.969 5.99594 0.246466 0
M  V30 5088 H 479.039 4.8192 -0.536738 0
M  V30 5089 N 480.382 0.0267497 1.57577 0
M  V30 5090 C 481.628 -0.653371 1.91987 0
M  V30 5091 C 481.961 -1.71915 0.903263 0
M  V30 5092 O 481.236 -1.94358 -0.0743387 0
M  V30 5093 C 481.519 -1.272 3.36886 0
M  V30 5094 C 481.372 -0.215938 4.49281 0
M  V30 5095 C 482.691 -2.19069 3.81703 0
M  V30 5096 H 479.81 -0.236047 0.698177 0
M  V30 5097 H 482.452 0.0835236 1.89816 0
M  V30 5098 H 480.602 -1.90005 3.38866 0
M  V30 5099 H 482.274 0.41449 4.59434 0
M  V30 5100 H 480.517 0.458855 4.31366 0
M  V30 5101 H 481.188 -0.688347 5.47691 0
M  V30 5102 H 483.664 -1.66253 3.81444 0
M  V30 5103 H 482.54 -2.59307 4.83788 0
M  V30 5104 H 482.801 -3.08087 3.17072 0
M  V30 5105 N 481.861 -1.55662 -0.24637 0
M  V30 5106 C 483.086 -1.81914 -0.996093 0
M  V30 5107 C 483.511 -0.603875 -1.78143 0
M  V30 5108 O 482.869 0.447091 -1.75701 0
M  V30 5109 C 482.917 -3.05908 -1.90925 0
M  V30 5110 O 482.021 -2.82861 -3.00105 0
M  V30 5111 H 481.362 -0.600481 -0.283406 0
M  V30 5112 H 483.892 -2.02848 -0.267199 0
M  V30 5113 H 483.902 -3.35356 -2.3238 0
M  V30 5114 H 482.577 -3.93999 -1.33183 0
M  V30 5115 H 481.154 -2.64583 -2.62775 0
M  V30 5116 N 483.339 0.512053 -1.4905 0
M  V30 5117 C 484.286 1.6148 -1.64902 0
M  V30 5118 C 485.256 1.58687 -0.490673 0
M  V30 5119 O 486.441 1.76842 -0.71636 0
M  V30 5120 C 483.581 2.99676 -1.71139 0
M  V30 5121 C 482.694 3.12568 -2.98203 0
M  V30 5122 C 481.829 4.4143 -2.95487 0
M  V30 5123 C 480.868 4.47916 -4.17179 0
M  V30 5124 N 480.005 5.68191 -4.12437 0
M  V30 5125 H 484.845 1.47271 -2.59066 0
M  V30 5126 H 482.382 0.716713 -1.28459 0
M  V30 5127 H 484.34 3.79761 -1.72736 0
M  V30 5128 H 482.97 3.12614 -0.804508 0
M  V30 5129 H 482.022 2.25618 -3.06269 0
M  V30 5130 H 483.334 3.1322 -3.88194 0
M  V30 5131 H 482.488 5.29825 -2.95585 0
M  V30 5132 H 481.227 4.43326 -2.03256 0
M  V30 5133 H 480.232 3.57925 -4.17337 0
M  V30 5134 H 481.457 4.47744 -5.1059 0
M  V30 5135 H 479.403 5.7095 -3.23036 0
M  V30 5136 H 479.32 5.70413 -4.96151 0
M  V30 5137 H 480.588 6.58823 -4.16621 0
M  V30 5138 N 484.817 1.37938 0.762283 0
M  V30 5139 C 486.042 1.37059 1.55659 0
M  V30 5140 C 486.467 -0.0396123 1.88058 0
M  V30 5141 O 485.825 -1.01929 1.49934 0
M  V30 5142 C 485.873 2.22494 2.83776 0
M  V30 5143 O 484.977 1.63607 3.78559 0
M  V30 5144 H 484.318 0.467892 0.47114 0
M  V30 5145 H 486.848 1.81587 0.942725 0
M  V30 5146 H 486.858 2.36045 3.32786 0
M  V30 5147 H 485.533 3.24993 2.59524 0
M  V30 5148 H 484.11 1.5915 3.37233 0
M  V30 5149 N 486.295 -0.989507 1.22664 0
M  V30 5150 C 487.541 -1.7321 1.05481 0
M  V30 5151 C 487.874 -1.89852 -0.408635 0
M  V30 5152 O 487.149 -1.44416 -1.30285 0
M  V30 5153 C 487.432 -3.1357 1.77047 0
M  V30 5154 C 487.285 -3.04555 3.31008 0
M  V30 5155 C 488.604 -4.12812 1.5256 0
M  V30 5156 H 485.723 -0.628697 0.384589 0
M  V30 5157 H 488.365 -1.15258 1.51049 0
M  V30 5158 H 486.515 -3.63046 1.3831 0
M  V30 5159 H 488.187 -2.62674 3.7921 0
M  V30 5160 H 486.43 -2.41278 3.6051 0
M  V30 5161 H 487.101 -4.03894 3.76263 0
M  V30 5162 H 489.577 -3.72106 1.86215 0
M  V30 5163 H 488.453 -5.09132 2.05124 0
M  V30 5164 H 488.714 -4.39711 0.458936 0
M  V30 5165 N 487.773 -1.03688 -1.18687 0
M  V30 5166 C 488.72 -0.624624 -2.22187 0
M  V30 5167 C 489.69 0.365636 -1.62026 0
M  V30 5168 O 490.875 0.260481 -1.89014 0
M  V30 5169 C 488.015 0.0101738 -3.45099 0
M  V30 5170 C 487.128 -1.02709 -4.19613 0
M  V30 5171 C 486.263 -0.361213 -5.2997 0
M  V30 5172 C 485.302 -1.38384 -5.96252 0
M  V30 5173 N 484.439 -0.743196 -6.98155 0
M  V30 5174 H 489.279 -1.51176 -2.56807 0
M  V30 5175 H 486.816 -0.75636 -1.26165 0
M  V30 5176 H 488.774 0.395528 -4.15321 0
M  V30 5177 H 487.404 0.860848 -3.1111 0
M  V30 5178 H 486.456 -1.53043 -3.48256 0
M  V30 5179 H 487.768 -1.80398 -4.65036 0
M  V30 5180 H 486.922 0.0785537 -6.06649 0
M  V30 5181 H 485.661 0.447799 -4.8564 0
M  V30 5182 H 484.666 -1.83378 -5.18317 0
M  V30 5183 H 485.891 -2.19448 -6.42666 0
M  V30 5184 H 483.837 0.0455789 -6.55984 0
M  V30 5185 H 483.754 -1.45784 -7.41811 0
M  V30 5186 H 485.022 -0.327698 -7.78811 0
M  V30 5187 N 489.251 1.34841 -0.815825 0
M  V30 5188 C 490.5 1.97755 -0.396976 0
M  V30 5189 C 490.813 1.65422 1.04379 0
M  V30 5190 O 492.019 2.21771 1.5662 0
M  V30 5191 C 490.475 3.53818 -0.658869 0
M  V30 5192 C 490.083 3.95051 -2.11278 0
M  V30 5193 C 491.827 4.23397 -0.305834 0
M  V30 5194 C 489.734 5.43997 -2.31994 0
M  V30 5195 H 488.664 0.739985 -0.1447 0
M  V30 5196 H 491.315 1.53781 -1.00118 0
M  V30 5197 H 489.697 3.95997 0.0154112 0
M  V30 5198 H 490.871 3.63998 -2.82564 0
M  V30 5199 H 489.186 3.38388 -2.42657 0
M  V30 5200 H 491.783 5.32899 -0.43854 0
M  V30 5201 H 492.126 4.09508 0.748952 0
M  V30 5202 H 492.659 3.8667 -0.934403 0
M  V30 5203 H 489.398 5.62865 -3.35952 0
M  V30 5204 H 488.918 5.76589 -1.65244 0
M  V30 5205 H 490.597 6.10584 -2.14001 0
M  V30 5206 N 490.729 0.570148 1.46925 0
M  V30 5207 C 491.977 0.0508523 2.02036 0
M  V30 5208 C 492.298 -1.30885 1.44548 0
M  V30 5209 O 491.568 -1.85647 0.625453 0
M  V30 5210 H 490.148 0.0158088 0.746833 0
M  V30 5211 H 492.81 0.743086 1.80178 0
M  V30 5212 H 491.906 -0.027575 3.12088 0
M  V30 5213 N 492.207 -1.54576 0.307264 0
M  V30 5214 C 493.484 -1.92377 -0.353605 0
M  V30 5215 C 493.864 -1.23517 -1.71192 0
M  V30 5216 O 493.212 -0.373101 -2.25433 0
M  V30 5217 C 493.422 -3.45928 -0.462039 0
M  V30 5218 C 494.77 -4.18278 -0.729975 0
M  V30 5219 O 495.794 -3.51997 -0.545605 0
M  V30 5220 O 494.653 -5.3563 -1.08454 0
M  V30 5221 H 491.747 -0.802747 -0.198812 0
M  V30 5222 H 494.293 -1.65929 0.355783 0
M  V30 5223 H 493.065 -3.88187 0.492592 0
M  V30 5224 H 492.688 -3.78431 -1.21965 0
M  V30 5225 N 493.685 -0.035106 -1.57561 0
M  V30 5226 C 494.617 0.973604 -2.07494 0
M  V30 5227 C 495.63 1.28504 -0.999534 0
M  V30 5228 O 496.819 1.24864 -1.27559 0
M  V30 5229 C 493.919 2.29945 -2.48955 0
M  V30 5230 C 493.092 2.1723 -3.79644 0
M  V30 5231 C 492.151 3.328 -4.07592 0
M  V30 5232 O 491.177 3.09418 -4.77754 0
M  V30 5233 N 492.379 4.56779 -3.58236 0
M  V30 5234 H 495.144 0.547525 -2.94656 0
M  V30 5235 H 492.705 0.151515 -1.61189 0
M  V30 5236 H 494.697 3.06097 -2.64739 0
M  V30 5237 H 493.267 2.64173 -1.67126 0
M  V30 5238 H 492.487 1.25768 -3.73599 0
M  V30 5239 H 493.775 2.05945 -4.65257 0
M  V30 5240 H 493.173 4.78668 -3.01485 0
M  V30 5241 H 491.73 5.30079 -3.79288 0
M  V30 5242 N 495.163 1.55791 0.238111 0
M  V30 5243 C 496.093 1.94068 1.29846 0
M  V30 5244 C 497.074 0.806726 1.49753 0
M  V30 5245 O 498.259 1.06772 1.62214 0
M  V30 5246 C 495.389 2.24302 2.65153 0
M  V30 5247 C 494.343 3.40032 2.59927 0
M  V30 5248 C 493.669 3.55829 3.99111 0
M  V30 5249 C 494.969 4.75476 2.16148 0
M  V30 5250 H 496.663 2.82887 0.980563 0
M  V30 5251 H 494.209 1.36105 0.470253 0
M  V30 5252 H 496.162 2.4967 3.39475 0
M  V30 5253 H 494.886 1.32318 2.98596 0
M  V30 5254 H 493.545 3.14687 1.88063 0
M  V30 5255 H 493.193 2.6125 4.29834 0
M  V30 5256 H 492.893 4.3366 3.96501 0
M  V30 5257 H 494.417 3.83528 4.7512 0
M  V30 5258 H 495.831 5.00158 2.80205 0
M  V30 5259 H 494.228 5.56472 2.24631 0
M  V30 5260 H 495.298 4.71946 1.11333 0
M  V30 5261 N 496.642 -0.504142 1.49319 0
M  V30 5262 C 497.89 -1.25598 1.58334 0
M  V30 5263 C 498.211 -1.93114 0.270538 0
M  V30 5264 O 497.481 -1.82585 -0.709891 0
M  V30 5265 H 496.061 -0.466571 0.58337 0
M  V30 5266 H 498.723 -0.584547 1.85928 0
M  V30 5267 H 497.819 -2.02159 2.37778 0
M  V30 5268 N 498.12 -1.38341 -0.754957 0
M  V30 5269 C 499.366 -1.34672 -1.51628 0
M  V30 5270 C 499.699 0.0636036 -1.94096 0
M  V30 5271 O 498.974 1.0245 -1.6533 0
M  V30 5272 C 499.257 -2.30116 -2.76981 0
M  V30 5273 C 499.11 -3.80003 -2.4066 0
M  V30 5274 C 500.429 -2.23715 -3.78998 0
M  V30 5275 H 497.548 -0.490517 -0.550056 0
M  V30 5276 H 500.19 -1.69178 -0.864807 0
M  V30 5277 H 498.34 -2.00821 -3.3257 0
M  V30 5278 H 500.012 -4.19966 -1.90856 0
M  V30 5279 H 498.255 -3.97751 -1.73137 0
M  V30 5280 H 498.926 -4.42244 -3.30339 0
M  V30 5281 H 501.402 -2.49574 -3.32945 0
M  V30 5282 H 500.278 -2.9261 -4.64403 0
M  V30 5283 H 500.539 -1.23554 -4.24484 0
M  V30 5284 N 499.598 0.982988 -1.23187 0
M  V30 5285 C 500.844 1.72648 -1.06398 0
M  V30 5286 C 501.177 1.90066 0.398561 0
M  V30 5287 O 500.452 1.45105 1.29518 0
M  V30 5288 C 500.735 3.12627 -1.78707 0
M  V30 5289 C 500.588 3.02795 -3.32618 0
M  V30 5290 C 501.907 4.11997 -1.54747 0
M  V30 5291 H 499.026 0.626649 -0.387918 0
M  V30 5292 H 501.668 1.14455 -1.51658 0
M  V30 5293 H 499.818 3.62308 -1.40234 0
M  V30 5294 H 501.49 2.60659 -3.80598 0
M  V30 5295 H 499.733 2.39362 -3.61785 0
M  V30 5296 H 500.404 4.01893 -3.78399 0
M  V30 5297 H 502.88 3.71114 -1.88186 0
M  V30 5298 H 501.756 5.08037 -2.07821 0
M  V30 5299 H 502.017 4.39462 -0.482249 0
M  V30 5300 N 501.076 1.04316 1.18135 0
M  V30 5301 C 502.323 0.74802 1.88178 0
M  V30 5302 C 502.651 -0.72441 1.80506 0
M  V30 5303 O 501.906 -1.54463 1.20165 0
M  V30 5304 C 502.205 1.16271 3.37958 0
M  V30 5305 C 501.871 2.63585 3.65833 0
M  V30 5306 C 500.533 3.03829 3.73151 0
M  V30 5307 C 502.885 3.58822 3.78016 0
M  V30 5308 C 500.213 4.38194 3.90132 0
M  V30 5309 C 502.565 4.92909 3.96514 0
M  V30 5310 C 501.229 5.3282 4.02068 0
M  V30 5311 H 500.499 0.27372 0.688592 0
M  V30 5312 H 503.146 1.30863 1.39811 0
M  V30 5313 H 501.451 0.520938 3.88321 0
M  V30 5314 H 503.148 0.911672 3.90499 0
M  V30 5315 H 499.738 2.31414 3.60757 0
M  V30 5316 H 503.922 3.28875 3.71692 0
M  V30 5317 H 499.178 4.68631 3.92677 0
M  V30 5318 H 503.352 5.66606 4.04883 0
M  V30 5319 H 500.979 6.36943 4.14979 0
M  V30 5320 N 502.554 -1.34406 0.822964 0
M  V30 5321 C 503.965 -1.8069 0.469879 0
M  V30 5322 C 504.316 -1.68223 -1.00972 0
M  V30 5323 O 503.441 -1.22226 -1.78577 0
M  V30 5324 C 504.036 -3.28064 0.846118 0
M  V30 5325 C 502.595 -3.72428 0.545402 0
M  V30 5326 C 501.742 -2.56116 1.06301 0
M  V30 5327 H 504.693 -1.22153 1.01313 0
M  V30 5328 H 504.714 -3.80205 0.149922 0
M  V30 5329 H 504.226 -3.37107 1.92304 0
M  V30 5330 H 502.327 -3.68924 -0.522109 0
M  V30 5331 H 502.44 -4.66548 1.0895 0
M  V30 5332 H 500.804 -2.50048 0.484554 0
M  V30 5333 H 501.587 -2.67928 2.14638 0
M  V30 5334 N 504.032 -0.577932 -1.46621 0
M  V30 5335 C 505.28 -0.061566 -2.02006 0
M  V30 5336 C 505.601 1.30117 -1.4524 0
M  V30 5337 O 504.871 1.85313 -0.63529 0
M  V30 5338 H 503.451 -0.0197692 -0.746738 0
M  V30 5339 H 506.113 -0.752631 -1.79782 0
M  V30 5340 H 505.209 0.0110238 -3.12098 0
M  V30 5341 N 505.51 1.54411 -0.315457 0
M  V30 5342 C 506.758 2.00023 0.288971 0
M  V30 5343 C 507.079 1.20529 1.5329 0
M  V30 5344 O 506.349 0.304986 1.93511 0
M  V30 5345 H 504.929 0.738891 0.109766 0
M  V30 5346 H 507.591 1.90094 -0.430129 0
M  V30 5347 H 506.687 3.07198 0.550999 0
M  V30 5348 N 506.988 0.0434614 1.5754 0
M  V30 5349 C 507.935 -0.93356 2.11077 0
M  V30 5350 C 508.905 -1.31383 1.01626 0
M  V30 5351 O 510.09 -1.40465 1.29129 0
M  V30 5352 C 507.23 -2.20578 2.65404 0
M  V30 5353 C 506.343 -1.88068 3.88914 0
M  V30 5354 C 505.478 -3.09691 4.31584 0
M  V30 5355 C 504.517 -2.73067 5.47815 0
M  V30 5356 N 503.654 -3.87359 5.85574 0
M  V30 5357 H 508.494 -0.470118 2.94268 0
M  V30 5358 H 506.031 -0.220434 1.45439 0
M  V30 5359 H 507.989 -2.95011 2.94999 0
M  V30 5360 H 506.619 -2.64513 1.85021 0
M  V30 5361 H 505.671 -1.03816 3.6596 0
M  V30 5362 H 506.983 -1.57104 4.73413 0
M  V30 5363 H 506.137 -3.92431 4.62691 0
M  V30 5364 H 504.876 -3.43827 3.45882 0
M  V30 5365 H 503.881 -1.88742 5.16388 0
M  V30 5366 H 505.106 -2.40131 6.35227 0
M  V30 5367 H 503.052 -4.21311 5.02825 0
M  V30 5368 H 502.969 -3.60068 6.64746 0
M  V30 5369 H 504.237 -4.70761 6.21292 0
M  V30 5370 N 508.466 -1.55915 -0.229846 0
M  V30 5371 C 509.396 -1.94754 -1.28815 0
M  V30 5372 C 510.377 -0.814657 -1.49323 0
M  V30 5373 O 511.562 -1.07631 -1.61645 0
M  V30 5374 C 508.692 -2.25705 -2.63959 0
M  V30 5375 C 507.646 -3.41406 -2.5812 0
M  V30 5376 C 506.972 -3.57941 -3.97218 0
M  V30 5377 C 508.272 -4.76616 -2.13623 0
M  V30 5378 H 509.966 -2.83404 -0.965547 0
M  V30 5379 H 507.512 -1.36353 -0.463028 0
M  V30 5380 H 509.465 -2.51467 -3.38146 0
M  V30 5381 H 508.189 -1.339 -2.9789 0
M  V30 5382 H 506.848 -3.1568 -1.86391 0
M  V30 5383 H 506.496 -2.63526 -4.28443 0
M  V30 5384 H 506.196 -4.35757 -3.94195 0
M  V30 5385 H 507.72 -3.86042 -4.73079 0
M  V30 5386 H 509.134 -5.01637 -2.77549 0
M  V30 5387 H 507.531 -5.57655 -2.21677 0
M  V30 5388 H 508.601 -4.7253 -1.08829 0
M  V30 5389 N 509.944 0.496216 -1.49584 0
M  V30 5390 C 511.19 1.25189 -1.59548 0
M  V30 5391 C 511.523 1.9212 -0.283466 0
M  V30 5392 O 510.798 1.80947 0.713324 0
M  V30 5393 C 511.081 2.31516 -2.75812 0
M  V30 5394 C 510.934 1.69054 -4.16822 0
M  V30 5395 C 512.253 3.3304 -2.87702 0
M  V30 5396 H 509.372 0.45379 -0.580727 0
M  V30 5397 H 512.014 0.549327 -1.81886 0
M  V30 5398 H 510.164 2.91438 -2.56897 0
M  V30 5399 H 511.836 1.12923 -4.47265 0
M  V30 5400 H 510.079 0.994485 -4.22247 0
M  V30 5401 H 510.75 2.462 -4.94054 0
M  V30 5402 H 513.226 2.83114 -3.04936 0
M  V30 5403 H 512.102 4.04794 -3.7072 0
M  V30 5404 H 512.363 3.95655 -1.97255 0
M  V30 5405 N 511.423 1.38739 0.74761 0
M  V30 5406 C 512.333 1.38696 1.89211 0
M  V30 5407 C 513.349 0.283303 1.71678 0
M  V30 5408 O 514.525 0.522713 1.94498 0
M  V30 5409 C 511.59 1.21662 3.24653 0
M  V30 5410 C 510.651 2.41886 3.54669 0
M  V30 5411 C 509.884 2.25655 4.83648 0
M  V30 5412 O 510.107 1.25339 5.56459 0
M  V30 5413 O 509.041 3.14372 5.13277 0
M  V30 5414 H 512.867 2.35143 1.92202 0
M  V30 5415 H 510.452 1.19721 0.893708 0
M  V30 5416 H 512.334 1.14246 4.05618 0
M  V30 5417 H 511.009 0.283024 3.2246 0
M  V30 5418 H 509.916 2.54877 2.73841 0
M  V30 5419 H 511.249 3.33895 3.61628 0
M  V30 5420 N 512.901 -0.976442 1.23707 0
M  V30 5421 C 513.864 -2.0511 1.02287 0
M  V30 5422 C 514.864 -1.60791 -0.0167195 0
M  V30 5423 O 516.054 -1.72761 0.223408 0
M  V30 5424 C 513.186 -3.36458 0.548507 0
M  V30 5425 H 514.379 -2.25545 1.9766 0
M  V30 5426 H 511.932 -1.15042 1.05806 0
M  V30 5427 H 512.667 -3.21713 -0.408818 0
M  V30 5428 H 512.452 -3.69967 1.29874 0
M  V30 5429 H 513.942 -4.15489 0.419406 0
M  V30 5430 N 514.379 -1.04941 -1.1758 0
M  V30 5431 C 515.309 -0.669172 -2.23706 0
M  V30 5432 C 516.29 0.331835 -1.66832 0
M  V30 5433 O 517.475 0.209988 -1.93061 0
M  V30 5434 C 514.605 -0.0404889 -3.47276 0
M  V30 5435 C 513.559 -0.965983 -4.16957 0
M  V30 5436 C 512.885 -0.201312 -5.34321 0
M  V30 5437 C 514.185 -2.28902 -4.69469 0
M  V30 5438 H 515.879 -1.55639 -2.55767 0
M  V30 5439 H 513.425 -0.749793 -1.22939 0
M  V30 5440 H 515.378 0.237298 -4.20731 0
M  V30 5441 H 514.102 0.881658 -3.14475 0
M  V30 5442 H 512.761 -1.22829 -3.45411 0
M  V30 5443 H 512.409 0.723519 -4.97769 0
M  V30 5444 H 512.109 -0.817968 -5.81879 0
M  V30 5445 H 513.633 0.0692499 -6.10561 0
M  V30 5446 H 515.047 -2.07132 -5.34574 0
M  V30 5447 H 513.444 -2.85942 -5.27596 0
M  V30 5448 H 514.514 -2.92937 -3.86414 0
M  V30 5449 N 515.857 1.33968 -0.830081 0
M  V30 5450 C 517.103 1.98357 -0.422191 0
M  V30 5451 C 517.436 1.65633 1.01387 0
M  V30 5452 O 516.711 0.931648 1.70735 0
M  V30 5453 C 516.994 3.54492 -0.633043 0
M  V30 5454 C 516.847 3.96934 -2.11574 0
M  V30 5455 C 518.166 4.40039 -0.0735584 0
M  V30 5456 H 515.285 0.720544 -0.154871 0
M  V30 5457 H 517.927 1.58749 -1.04397 0
M  V30 5458 H 516.077 3.88361 -0.103775 0
M  V30 5459 H 517.749 3.73363 -2.7092 0
M  V30 5460 H 515.992 3.46984 -2.60354 0
M  V30 5461 H 516.663 5.05651 -2.21406 0
M  V30 5462 H 519.139 4.12764 -0.52585 0
M  V30 5463 H 518.015 5.48327 -0.250841 0
M  V30 5464 H 518.276 4.30124 1.02202 0
M  V30 5465 N 517.335 0.585699 1.46312 0
M  V30 5466 C 518.581 0.0725284 2.0267 0
M  V30 5467 C 518.914 -1.28523 1.45586 0
M  V30 5468 O 518.189 -1.84283 0.622101 0
M  V30 5469 C 518.472 0.0099788 3.60099 0
M  V30 5470 C 518.325 1.39685 4.27561 0
M  V30 5471 C 519.644 -0.689117 4.34671 0
M  V30 5472 H 516.763 0.0278307 0.736474 0
M  V30 5473 H 519.405 0.753472 1.74421 0
M  V30 5474 H 517.555 -0.56992 3.84297 0
M  V30 5475 H 519.227 2.02215 4.14617 0
M  V30 5476 H 517.47 1.96374 3.86807 0
M  V30 5477 H 518.141 1.30553 5.36339 0
M  V30 5478 H 520.617 -0.196446 4.15636 0
M  V30 5479 H 519.493 -0.701921 5.44393 0
M  V30 5480 H 519.754 -1.75101 4.05946 0
M  V30 5481 N 518.813 -1.54241 0.323641 0
M  V30 5482 C 519.76 -2.24339 -0.542277 0
M  V30 5483 C 520.73 -1.23421 -1.11159 0
M  V30 5484 O 521.915 -1.52104 -1.15192 0
M  V30 5485 C 519.055 -3.00479 -1.69725 0
M  V30 5486 C 518.168 -4.16214 -1.15716 0
M  V30 5487 C 517.303 -4.79884 -2.27783 0
M  V30 5488 C 516.342 -5.87722 -1.71023 0
M  V30 5489 N 515.479 -6.45254 -2.76752 0
M  V30 5490 H 520.319 -2.97935 0.0620613 0
M  V30 5491 H 517.856 -1.47039 0.0423993 0
M  V30 5492 H 519.814 -3.42869 -2.3769 0
M  V30 5493 H 518.444 -2.29217 -2.27288 0
M  V30 5494 H 517.496 -3.78605 -0.369063 0
M  V30 5495 H 518.808 -4.93838 -0.701832 0
M  V30 5496 H 517.962 -5.25243 -3.03651 0
M  V30 5497 H 516.701 -4.01641 -2.76652 0
M  V30 5498 H 515.706 -5.41765 -0.936518 0
M  V30 5499 H 516.931 -6.67863 -1.2303 0
M  V30 5500 H 514.877 -5.69884 -3.24912 0
M  V30 5501 H 514.794 -7.18292 -2.35782 0
M  V30 5502 H 516.062 -6.95269 -3.5245 0
M  V30 5503 N 520.291 -0.0518155 -1.57515 0
M  V30 5504 C 521.238 0.922352 -2.11569 0
M  V30 5505 C 522.208 1.30842 -1.02321 0
M  V30 5506 O 523.393 1.39778 -1.29872 0
M  V30 5507 C 520.533 2.19167 -2.6657 0
M  V30 5508 C 519.646 1.86003 -3.89906 0
M  V30 5509 C 518.781 3.07398 -4.33221 0
M  V30 5510 C 517.82 2.70158 -5.49255 0
M  V30 5511 N 516.957 3.84248 -5.8762 0
M  V30 5512 H 521.797 0.454506 -2.94514 0
M  V30 5513 H 519.334 0.212718 -1.45554 0
M  V30 5514 H 521.292 2.93443 -2.96559 0
M  V30 5515 H 519.922 2.63528 -1.86421 0
M  V30 5516 H 518.974 1.01874 -3.66505 0
M  V30 5517 H 520.286 1.54592 -4.74239 0
M  V30 5518 H 519.44 3.89972 -4.64765 0
M  V30 5519 H 518.179 3.41988 -3.477 0
M  V30 5520 H 517.184 1.86001 -5.17382 0
M  V30 5521 H 518.409 2.36759 -6.36492 0
M  V30 5522 H 516.355 4.18638 -5.05053 0
M  V30 5523 H 516.272 3.56538 -6.66646 0
M  V30 5524 H 517.54 4.6746 -6.2378 0
M  V30 5525 N 521.769 1.56035 0.221574 0
M  V30 5526 C 523.18 1.69229 0.788567 0
M  V30 5527 C 523.531 0.653814 1.84986 0
M  V30 5528 O 522.656 -0.195065 2.15519 0
M  V30 5529 C 523.251 3.06809 1.43713 0
M  V30 5530 C 521.81 3.21858 1.95152 0
M  V30 5531 C 520.957 2.65155 0.811685 0
M  V30 5532 H 523.908 1.587 -0.00307894 0
M  V30 5533 H 523.929 3.02666 2.30594 0
M  V30 5534 H 523.441 3.82369 0.664475 0
M  V30 5535 H 521.542 2.51167 2.7522 0
M  V30 5536 H 521.655 4.29073 2.1315 0
M  V30 5537 H 520.019 2.23635 1.21899 0
M  V30 5538 H 520.802 3.43261 0.0516987 0
M  V30 5539 N 523.247 -0.488276 1.49845 0
M  V30 5540 C 524.494 -1.24157 1.59973 0
M  V30 5541 C 524.822 -1.92293 0.292182 0
M  V30 5542 O 524.077 -1.81942 -0.720813 0
M  V30 5543 C 524.376 -2.32152 2.71735 0
M  V30 5544 C 524.042 -1.81387 4.12807 0
M  V30 5545 C 522.704 -1.67262 4.51195 0
M  V30 5546 C 525.056 -1.43537 5.01045 0
M  V30 5547 C 522.384 -1.13685 5.7558 0
M  V30 5548 C 524.736 -0.914081 6.25961 0
M  V30 5549 C 523.4 -0.759327 6.63167 0
M  V30 5550 H 522.67 -0.454322 0.585383 0
M  V30 5551 H 525.317 -0.540261 1.83721 0
M  V30 5552 H 523.622 -3.08122 2.42008 0
M  V30 5553 H 525.319 -2.90164 2.76778 0
M  V30 5554 H 521.909 -1.93344 3.82513 0
M  V30 5555 H 526.093 -1.53292 4.72033 0
M  V30 5556 H 521.349 -1.00426 6.03096 0
M  V30 5557 H 525.523 -0.612066 6.93705 0
M  V30 5558 H 523.15 -0.342002 7.5943 0
M  V30 5559 N 524.725 -1.39134 -0.740242 0
M  V30 5560 C 525.955 -1.39132 -1.52728 0
M  V30 5561 C 526.363 0.0173133 -1.89192 0
M  V30 5562 O 525.706 0.997715 -1.54244 0
M  V30 5563 C 525.768 -2.1952 -2.84695 0
M  V30 5564 C 525.432 -3.68203 -2.70695 0
M  V30 5565 C 526.429 -4.61401 -2.39593 0
M  V30 5566 C 524.114 -4.11724 -2.8773 0
M  V30 5567 C 526.108 -5.96102 -2.25701 0
M  V30 5568 C 523.795 -5.46503 -2.73456 0
M  V30 5569 C 524.793 -6.38506 -2.42486 0
M  V30 5570 O 524.481 -7.70803 -2.28295 0
M  V30 5571 H 524.213 -0.477263 -0.478744 0
M  V30 5572 H 526.767 -1.83504 -0.922799 0
M  V30 5573 H 524.997 -1.69888 -3.47383 0
M  V30 5574 H 526.686 -2.1176 -3.46284 0
M  V30 5575 H 527.452 -4.29079 -2.26088 0
M  V30 5576 H 523.331 -3.4045 -3.10829 0
M  V30 5577 H 526.875 -6.6788 -2.0145 0
M  V30 5578 H 522.772 -5.78417 -2.86538 0
M  V30 5579 H 523.54 -7.8147 -2.43405 0
M  V30 5580 N 526.204 0.969867 -1.24223 0
M  V30 5581 C 527.62 1.23809 -1.00716 0
M  V30 5582 C 527.82 1.99469 0.285358 0
M  V30 5583 O 526.876 2.31764 1.00207 0
M  V30 5584 C 528.189 2.02734 -2.2208 0
M  V30 5585 C 529.737 2.15834 -2.26681 0
M  V30 5586 C 530.212 2.98154 -3.47661 0
M  V30 5587 N 531.703 3.05737 -3.47964 0
M  V30 5588 C 532.438 3.69785 -4.38231 0
M  V30 5589 N 531.934 4.35569 -5.3875 0
M  V30 5590 N 533.727 3.66775 -4.25949 0
M  V30 5591 H 525.878 0.463294 -2.07286 0
M  V30 5592 H 528.141 0.267348 -0.909521 0
M  V30 5593 H 527.847 1.54524 -3.15935 0
M  V30 5594 H 527.721 3.0347 -2.24021 0
M  V30 5595 H 530.108 2.63248 -1.33359 0
M  V30 5596 H 530.189 1.14453 -2.28767 0
M  V30 5597 H 529.833 2.51435 -4.41297 0
M  V30 5598 H 529.763 3.99729 -3.42818 0
M  V30 5599 H 532.254 2.58941 -2.75242 0
M  V30 5600 H 532.567 4.82251 -6.03866 0
M  V30 5601 H 530.912 4.34244 -5.42639 0
M  V30 5602 H 534.103 3.14558 -3.46657 0
M  V30 5603 H 534.276 4.16407 -4.96497 0
M  V30 5604 N 527.682 1.05563 1.17022 0
M  V30 5605 C 528.93 0.76642 1.87004 0
M  V30 5606 C 529.251 -0.708854 1.8166 0
M  V30 5607 O 528.521 -1.51242 1.2451 0
M  V30 5608 H 527.101 0.280516 0.692329 0
M  V30 5609 H 529.763 1.33557 1.41945 0
M  V30 5610 H 528.859 1.08472 2.92644 0
M  V30 5611 N 529.16 -1.33526 0.837174 0
M  V30 5612 C 530.385 -2.0258 0.444545 0
M  V30 5613 C 530.81 -1.6258 -0.946006 0
M  V30 5614 O 530.168 -0.817548 -1.6182 0
M  V30 5615 C 530.216 -3.5605 0.571006 0
M  V30 5616 O 529.32 -4.10422 -0.403431 0
M  V30 5617 H 528.661 -0.638866 0.180958 0
M  V30 5618 H 531.191 -1.70462 1.13154 0
M  V30 5619 H 531.201 -4.05488 0.452024 0
M  V30 5620 H 529.876 -3.84509 1.58512 0
M  V30 5621 H 528.453 -3.72113 -0.242147 0
M  V30 5622 N 530.638 -0.59345 -1.46 0
M  V30 5623 C 531.884 -0.0832754 -2.02629 0
M  V30 5624 C 532.217 1.27749 -1.46266 0
M  V30 5625 O 531.492 1.8395 -0.631866 0
M  V30 5626 C 531.775 -0.0290756 -3.60088 0
M  V30 5627 C 531.628 -1.41951 -4.26814 0
M  V30 5628 C 532.947 0.666055 -4.35031 0
M  V30 5629 H 530.066 -0.031736 -0.736316 0
M  V30 5630 H 532.708 -0.762711 -1.74019 0
M  V30 5631 H 530.858 0.549532 -3.84594 0
M  V30 5632 H 532.53 -2.04411 -4.13538 0
M  V30 5633 H 530.773 -1.98422 -3.8576 0
M  V30 5634 H 531.444 -1.33395 -5.3564 0
M  V30 5635 H 533.92 0.174401 -4.15734 0
M  V30 5636 H 532.796 0.673041 -5.44758 0
M  V30 5637 H 533.057 1.72946 -4.06869 0
M  V30 5638 N 532.116 1.54067 -0.331816 0
M  V30 5639 C 533.532 1.59587 0.0205388 0
M  V30 5640 C 533.732 1.34813 1.49759 0
M  V30 5641 O 532.788 1.13661 2.25471 0
M  V30 5642 C 534.101 2.97959 -0.405103 0
M  V30 5643 C 535.649 3.10964 -0.356454 0
M  V30 5644 C 536.124 4.51694 -0.757384 0
M  V30 5645 N 537.615 4.57709 -0.71111 0
M  V30 5646 C 538.35 5.64729 -0.993427 0
M  V30 5647 N 537.846 6.79652 -1.3433 0
M  V30 5648 N 539.639 5.54546 -0.918442 0
M  V30 5649 H 531.79 1.68426 -1.29407 0
M  V30 5650 H 534.053 0.78819 -0.526745 0
M  V30 5651 H 533.759 3.21115 -1.43451 0
M  V30 5652 H 533.633 3.76524 0.225692 0
M  V30 5653 H 536.02 2.87538 0.663763 0
M  V30 5654 H 536.101 2.34484 -1.02229 0
M  V30 5655 H 535.745 4.75853 -1.77555 0
M  V30 5656 H 535.675 5.26555 -0.0691444 0
M  V30 5657 H 538.166 3.75176 -0.452883 0
M  V30 5658 H 538.479 7.57221 -1.54388 0
M  V30 5659 H 536.824 6.81128 -1.38164 0
M  V30 5660 H 540.015 4.63641 -0.644536 0
M  V30 5661 H 540.188 6.37861 -1.14181 0
M  V30 5662 N 533.594 0.0601682 1.57485 0
M  V30 5663 C 535.01 -0.296422 1.56823 0
M  V30 5664 C 535.21 -1.70831 1.0686 0
M  V30 5665 O 534.266 -2.4174 0.729245 0
M  V30 5666 C 535.579 -0.116681 3.00474 0
M  V30 5667 C 537.127 -0.187103 3.1244 0
M  V30 5668 C 537.602 -0.035783 4.57986 0
M  V30 5669 N 539.093 -0.0917676 4.63109 0
M  V30 5670 C 539.828 0.00107251 5.734 0
M  V30 5671 N 539.324 0.146773 6.92645 0
M  V30 5672 N 541.117 -0.0551577 5.62073 0
M  V30 5673 H 533.268 0.983055 1.88281 0
M  V30 5674 H 535.531 0.382386 0.867459 0
M  V30 5675 H 535.237 0.85712 3.41096 0
M  V30 5676 H 535.111 -0.873929 3.66936 0
M  V30 5677 H 537.498 -1.15138 2.71712 0
M  V30 5678 H 537.579 0.601052 2.48638 0
M  V30 5679 H 537.223 0.925212 4.99402 0
M  V30 5680 H 537.153 -0.843196 5.19806 0
M  V30 5681 H 539.644 -0.203261 3.77353 0
M  V30 5682 H 539.957 0.210076 7.72514 0
M  V30 5683 H 538.302 0.181979 6.94762 0
M  V30 5684 H 541.493 -0.167605 4.678 0
M  V30 5685 H 541.666 0.020652 6.47997 0
M  V30 5686 N 535.072 -1.5615 -0.213296 0
M  V30 5687 C 535.982 -1.96265 -1.28519 0
M  V30 5688 C 536.998 -0.86765 -1.50824 0
M  V30 5689 O 538.174 -1.17191 -1.63793 0
M  V30 5690 C 535.239 -2.27836 -2.61327 0
M  V30 5691 C 534.3 -3.50949 -2.47252 0
M  V30 5692 C 533.533 -3.81004 -3.73727 0
M  V30 5693 O 533.756 -3.12612 -4.77106 0
M  V30 5694 O 532.69 -4.74477 -3.70344 0
M  V30 5695 H 536.516 -2.87631 -0.974795 0
M  V30 5696 H 534.101 -1.43467 -0.416832 0
M  V30 5697 H 535.983 -2.49299 -3.39747 0
M  V30 5698 H 534.658 -1.39643 -2.9203 0
M  V30 5699 H 533.565 -3.34754 -1.67004 0
M  V30 5700 H 534.898 -4.39551 -2.21486 0
M  V30 5701 N 536.55 0.480323 -1.50102 0
M  V30 5702 C 537.796 1.23489 -1.60867 0
M  V30 5703 C 538.129 1.91809 -0.303827 0
M  V30 5704 O 537.404 1.81694 0.694092 0
M  V30 5705 C 537.687 2.28578 -2.78252 0
M  V30 5706 C 537.54 1.64624 -4.18592 0
M  V30 5707 C 538.859 3.2997 -2.91218 0
M  V30 5708 H 535.978 0.447605 -0.585507 0
M  V30 5709 H 538.62 0.530005 -1.82458 0
M  V30 5710 H 536.77 2.88697 -2.59974 0
M  V30 5711 H 538.442 1.08173 -4.48438 0
M  V30 5712 H 536.685 0.949645 -4.23278 0
M  V30 5713 H 537.356 2.40946 -4.96638 0
M  V30 5714 H 539.832 2.79864 -3.07921 0
M  V30 5715 H 538.708 4.00839 -3.74993 0
M  V30 5716 H 538.969 3.93541 -2.0144 0
M  V30 5717 O 538.067 1.48883 0.625791 0
M  V30 5718 H 538.758 1.45381 1.28 0
M  V30 END ATOM
M  V30 BEGIN BOND
M  V30 END BOND
M  V30 END CTAB
M  END
$$$$
